drugbank_target|Q13233 Mitogen-activated protein kinase kinase kinase 1 (DB06061; DB11967; DB12010)
 OpenBabel12092120323D

  0  0  0     0  0            999 V3000
M  V30 BEGIN CTAB
M  V30 COUNTS 22946 23180 0 0 0
M  V30 BEGIN ATOM
M  V30 1 H -0.908 1.98254 -0.117106 0
M  V30 2 N 0 1.576 0 0
M  V30 3 C 0.933 2.03868 1.02534 0
M  V30 4 C 1.911 0.928543 1.3348 0
M  V30 5 O 3.095 1.19667 1.45644 0
M  V30 6 C 0.222 2.43627 2.35294 0
M  V30 7 C -0.732 3.65373 2.2001 0
M  V30 8 S 0.101 5.13292 1.52614 0
M  V30 9 C 1.257 5.56322 2.86805 0
M  V30 10 H 1.49 2.90518 0.631377 0
M  V30 11 H -0.977 1.52953 0.210867 0
M  V30 12 H 0.981 2.67203 3.11629 0
M  V30 13 H -0.358 1.57376 2.7183 0
M  V30 14 H -1.165 3.90944 3.18086 0
M  V30 15 H -1.563 3.418 1.51819 0
M  V30 16 H 0.729 5.58782 3.83104 0
M  V30 17 H 1.672 6.56266 2.65933 0
M  V30 18 H 2.08 4.83886 2.90714 0
M  V30 19 N 1.4781 -0.272755 1.55222 0
M  V30 20 C 2.4411 -1.32041 1.87344 0
M  V30 21 C 3.4411 -1.42342 0.74803 0
M  V30 22 O 4.6311 -1.41488 1.0162 0
M  V30 23 C 1.7631 -2.70173 2.07893 0
M  V30 24 H 2.9561 -1.04789 2.80997 0
M  V30 25 H 0.5091 -0.51083 1.47717 0
M  V30 26 H 1.2441 -3.02605 1.16622 0
M  V30 27 H 1.0291 -2.64082 2.89833 0
M  V30 28 H 2.5191 -3.45869 2.34017 0
M  V30 29 N 2.9562 -1.48159 -0.537278 0
M  V30 30 C 3.9192 -1.61665 -1.62472 0
M  V30 31 C 4.9192 -0.490395 -1.5314 0
M  V30 32 O 6.1092 -0.755998 -1.5694 0
M  V30 33 C 3.2412 -1.57997 -3.02076 0
M  V30 34 H 4.4342 -2.58621 -1.51839 0
M  V30 35 H 1.9872 -1.36647 -0.758771 0
M  V30 36 H 2.7222 -0.624913 -3.18222 0
M  V30 37 H 2.5072 -2.39755 -3.10258 0
M  V30 38 H 3.9972 -1.70627 -3.81151 0
M  V30 39 N 4.4343 0.785586 -1.36625 0
M  V30 40 C 5.3973 1.87999 -1.31107 0
M  V30 41 C 6.3973 1.59316 -0.217959 0
M  V30 42 O 7.5873 1.67656 -0.472977 0
M  V30 43 C 4.7193 3.24861 -1.03334 0
M  V30 44 H 5.9123 1.94307 -2.2844 0
M  V30 45 H 3.4653 0.983813 -1.21453 0
M  V30 46 H 4.2003 3.24235 -0.0647432 0
M  V30 47 H 3.9853 3.4707 -1.82441 0
M  V30 48 H 5.4753 4.04929 -1.02088 0
M  V30 49 N 5.9124 1.20967 1.01018 0
M  V30 50 C 6.8754 0.965918 2.07853 0
M  V30 51 C 7.8754 -0.0610545 1.60684 0
M  V30 52 O 9.0654 0.175681 1.73312 0
M  V30 53 C 6.1974 0.455513 3.37843 0
M  V30 54 H 7.3904 1.91365 2.3091 0
M  V30 55 H 4.9434 1.02594 1.17916 0
M  V30 56 H 5.6784 -0.497381 3.20463 0
M  V30 57 H 5.4634 1.19622 3.73407 0
M  V30 58 H 6.9534 0.304667 4.16487 0
M  V30 59 N 7.3905 -1.2043 1.01659 0
M  V30 60 C 8.6385 -1.89423 0.704522 0
M  V30 61 C 8.9595 -1.79231 -0.768197 0
M  V30 62 O 8.2295 -1.1947 -1.55254 0
M  V30 63 H 6.8095 -0.701178 0.257602 0
M  V30 64 H 9.4715 -1.4626 1.28818 0
M  V30 65 H 8.5675 -2.96052 0.987916 0
M  V30 66 N 8.8686 -0.792821 -1.36206 0
M  V30 67 C 9.8166 -0.181555 -2.3189 0
M  V30 68 C 10.8106 0.661025 -1.55971 0
M  V30 69 O 12.0166 0.555728 -1.71206 0
M  V30 70 H 8.3916 -0.0399382 -0.750939 0
M  V30 71 H 10.3626 -1.00394 -2.81005 0
M  V30 72 C 9.1116 0.666444 -3.41253 0
M  V30 73 H 8.4346 0.0274489 -3.99791 0
M  V30 74 H 9.8746 1.06076 -4.10517 0
M  V30 75 C 8.3336 1.82614 -2.83114 0
M  V30 76 O 8.8636 2.9229 -2.75553 0
M  V30 77 N 7.0696 1.63333 -2.40356 0
M  V30 78 H 6.6166 0.741217 -2.46706 0
M  V30 79 H 6.5746 2.41087 -2.01803 0
M  V30 80 N 10.3467 1.47872 -0.545128 0
M  V30 81 C 11.7627 1.5829 -0.204032 0
M  V30 82 C 11.9627 1.54529 1.29317 0
M  V30 83 O 11.0187 1.44232 2.07252 0
M  V30 84 C 12.3317 2.89304 -0.819987 0
M  V30 85 C 13.8797 3.02864 -0.790105 0
M  V30 86 C 14.3547 4.3656 -1.38491 0
M  V30 87 N 15.8457 4.43165 -1.34755 0
M  V30 88 C 16.5807 5.45153 -1.77753 0
M  V30 89 N 16.0767 6.54016 -2.2855 0
M  V30 90 N 17.8697 5.36125 -1.68897 0
M  V30 91 H 10.0207 1.4856 -1.51802 0
M  V30 92 H 12.2837 0.706305 -0.632327 0
M  V30 93 H 11.9897 2.97757 -1.87173 0
M  V30 94 H 11.8637 3.75957 -0.305915 0
M  V30 95 H 14.2507 2.94014 0.252913 0
M  V30 96 H 14.3317 2.17782 -1.34181 0
M  V30 97 H 13.9757 4.46164 -2.42693 0
M  V30 98 H 13.9057 5.20353 -0.808754 0
M  V30 99 H 16.3967 3.65083 -0.975855 0
M  V30 100 H 16.7097 7.27994 -2.59314 0
M  V30 101 H 15.0547 6.54938 -2.32553 0
M  V30 102 H 18.2457 4.49975 -1.28998 0
M  V30 103 H 18.4187 6.15472 -2.02726 0
M  V30 104 N 11.8248 0.280983 1.55075 0
M  V30 105 C 12.7878 -0.590896 2.21452 0
M  V30 106 C 13.7878 -1.07682 1.19421 0
M  V30 107 O 14.9778 -0.97605 1.44288 0
M  V30 108 C 12.1098 -1.81587 2.88511 0
M  V30 109 H 13.3028 -0.0112554 2.99898 0
M  V30 110 H 10.8558 0.0316438 1.56268 0
M  V30 111 H 11.5908 -2.43587 2.14093 0
M  V30 112 H 11.3758 -1.4753 3.63287 0
M  V30 113 H 12.8658 -2.43575 3.39206 0
M  V30 114 N 13.3029 -1.57598 0.00835791 0
M  V30 115 C 14.5279 -1.95617 -0.689103 0
M  V30 116 C 14.9529 -0.883753 -1.66046 0
M  V30 117 O 14.3109 0.157352 -1.80616 0
M  V30 118 C 14.3589 -3.32736 -1.38994 0
M  V30 119 O 13.4629 -3.27631 -2.50463 0
M  V30 120 H 12.8039 -0.638379 -0.182668 0
M  V30 121 H 15.3339 -2.045 0.064036 0
M  V30 122 H 15.3439 -3.68494 -1.75147 0
M  V30 123 H 14.0189 -4.1034 -0.677778 0
M  V30 124 H 12.5959 -3.03561 -2.16576 0
M  V30 125 N 14.781 0.264519 -1.55364 0
M  V30 126 C 16.006 1.01726 -1.80739 0
M  V30 127 C 16.431 1.78836 -0.583044 0
M  V30 128 O 15.789 1.75167 0.467566 0
M  V30 129 C 15.837 1.94482 -3.03659 0
M  V30 130 O 14.941 3.03386 -2.7934 0
M  V30 131 H 14.282 0.290395 -0.597132 0
M  V30 132 H 16.812 0.290854 -2.02522 0
M  V30 133 H 16.822 2.36278 -3.32621 0
M  V30 134 H 15.497 1.37772 -3.92418 0
M  V30 135 H 14.074 2.65844 -2.61498 0
M  V30 136 N 16.2591 1.48442 0.529413 0
M  V30 137 C 17.4841 1.60406 1.31471 0
M  V30 138 C 17.9091 0.264738 1.86228 0
M  V30 139 O 17.2671 -0.763668 1.64432 0
M  V30 140 C 17.3151 2.65419 2.44101 0
M  V30 141 O 16.4191 2.22618 3.47153 0
M  V30 142 H 15.7601 0.537863 0.389357 0
M  V30 143 H 18.2901 1.94432 0.636965 0
M  V30 144 H 18.3001 2.86709 2.90279 0
M  V30 145 H 16.9751 3.62652 2.03608 0
M  V30 146 H 15.5521 2.11543 3.0709 0
M  V30 147 N 17.7372 -0.778329 1.37039 0
M  V30 148 C 18.9852 -1.53361 1.31623 0
M  V30 149 C 19.3062 -1.94739 -0.100831 0
M  V30 150 O 18.5762 -1.65797 -1.04347 0
M  V30 151 H 17.1562 -0.568794 0.484234 0
M  V30 152 H 19.8182 -0.926742 1.71457 0
M  V30 153 H 18.9142 -2.43606 1.95096 0
M  V30 154 N 19.2153 -1.21501 -1.00376 0
M  V30 155 C 20.4623 -1.03299 -1.74171 0
M  V30 156 C 20.7903 0.433326 -1.89612 0
M  V30 157 O 20.0453 1.33779 -1.42834 0
M  V30 158 C 20.3443 -1.67673 -3.15627 0
M  V30 159 C 20.0103 -3.17533 -3.2013 0
M  V30 160 C 18.6723 -3.58427 -3.21067 0
M  V30 161 C 21.0243 -4.13504 -3.17275 0
M  V30 162 C 18.3523 -4.93794 -3.16835 0
M  V30 163 C 20.7043 -5.48834 -3.14585 0
M  V30 164 C 19.3683 -5.89123 -3.13831 0
M  V30 165 H 18.6383 -0.377999 -0.637336 0
M  V30 166 H 21.2853 -1.51111 -1.17634 0
M  V30 167 H 19.5903 -1.12158 -3.75404 0
M  V30 168 H 21.2873 -1.51091 -3.71446 0
M  V30 169 H 17.8773 -2.84965 -3.20145 0
M  V30 170 H 22.0613 -3.82936 -3.15711 0
M  V30 171 H 17.3173 -5.24255 -3.1459 0
M  V30 172 H 21.4913 -6.22934 -3.1133 0
M  V30 173 H 19.1183 -6.93984 -3.10307 0
M  V30 174 N 20.6934 1.19889 -1.02296 0
M  V30 175 C 22.1044 1.71124 -0.746568 0
M  V30 176 C 22.4554 1.81939 0.734335 0
M  V30 177 O 21.5804 1.48639 1.57275 0
M  V30 178 C 22.1754 3.10804 -1.34857 0
M  V30 179 C 20.7344 3.59323 -1.1209 0
M  V30 180 C 19.8814 2.3635 -1.45031 0
M  V30 181 H 22.8324 1.04813 -1.19163 0
M  V30 182 H 22.8534 3.73186 -0.742437 0
M  V30 183 H 22.3654 3.029 -2.42638 0
M  V30 184 H 20.4664 3.7255 -0.0610337 0
M  V30 185 H 20.5794 4.4378 -1.80544 0
M  V30 186 H 18.9434 2.39399 -0.869487 0
M  V30 187 H 19.7264 2.31081 -2.53883 0
M  V30 188 N 22.1715 0.800033 1.35784 0
M  V30 189 C 23.4195 0.376597 1.9856 0
M  V30 190 C 23.7405 -1.05812 1.63795 0
M  V30 191 O 23.0105 -1.73103 0.917171 0
M  V30 192 H 21.5905 0.136261 0.734467 0
M  V30 193 H 24.2525 1.02442 1.65806 0
M  V30 194 H 23.3485 0.477002 3.08433 0
M  V30 195 N 23.6496 -1.47581 0.552962 0
M  V30 196 C 24.6126 -2.28439 -0.186605 0
M  V30 197 C 25.6126 -1.36706 -0.84665 0
M  V30 198 O 26.8026 -1.59378 -0.703164 0
M  V30 199 C 23.9346 -3.16264 -1.2724 0
M  V30 200 H 25.1276 -2.95294 0.523609 0
M  V30 201 H 22.6806 -1.532 0.309745 0
M  V30 202 H 23.4156 -2.54091 -2.01514 0
M  V30 203 H 23.2006 -3.83769 -0.803968 0
M  V30 204 H 24.6906 -3.77198 -1.79196 0
M  V30 205 N 25.1277 -0.289203 -1.54924 0
M  V30 206 C 26.5437 0.0645403 -1.59469 0
M  V30 207 C 26.7437 1.53419 -1.30632 0
M  V30 208 O 25.7997 2.2852 -1.074 0
M  V30 209 C 27.1127 -0.32278 -2.98963 0
M  V30 210 C 28.6607 -0.270564 -3.11828 0
M  V30 211 C 29.1357 -0.632532 -4.53611 0
M  V30 212 N 30.6267 -0.584617 -4.59496 0
M  V30 213 C 31.3617 -0.837314 -5.67254 0
M  V30 214 N 30.8577 -1.15536 -6.83098 0
M  V30 215 N 32.6507 -0.765166 -5.56868 0
M  V30 216 H 24.8017 -1.24714 -1.71931 0
M  V30 217 H 27.0647 -0.504809 -0.802416 0
M  V30 218 H 26.7707 -1.34541 -3.24948 0
M  V30 219 H 26.6447 0.32944 -3.75759 0
M  V30 220 H 29.0317 0.742805 -2.85598 0
M  V30 221 H 29.1127 -0.957242 -2.37214 0
M  V30 222 H 28.7567 -1.64365 -4.80569 0
M  V30 223 H 28.6867 0.07609 -5.26545 0
M  V30 224 H 31.1777 -0.349248 -3.76283 0
M  V30 225 H 31.4907 -1.33447 -7.61191 0
M  V30 226 H 29.8357 -1.19328 -6.84679 0
M  V30 227 H 33.0267 -0.516432 -4.65243 0
M  V30 228 H 33.1997 -0.965477 -6.40767 0
M  V30 229 N 26.6058 1.57591 -0.0167156 0
M  V30 230 C 27.5688 2.08393 0.954204 0
M  V30 231 C 28.5688 0.996531 1.26198 0
M  V30 232 O 29.7588 1.25858 1.20438 0
M  V30 233 C 26.8908 2.5394 2.27436 0
M  V30 234 H 28.0838 2.95455 0.514451 0
M  V30 235 H 25.6368 1.54582 0.231089 0
M  V30 236 H 26.3718 1.70171 2.76066 0
M  V30 237 H 26.1568 3.33371 2.06412 0
M  V30 238 H 27.6468 2.93512 2.97053 0
M  V30 239 N 28.0839 -0.256276 1.55502 0
M  V30 240 C 29.3119 -1.00342 1.8094 0
M  V30 241 C 29.7269 -1.79307 0.59114 0
M  V30 242 O 29.0839 -1.77114 -0.440081 0
M  V30 243 C 29.1349 -1.94875 3.04476 0
M  V30 244 O 28.8559 -1.19107 4.21598 0
M  V30 245 C 30.3569 -2.81266 3.42644 0
M  V30 246 H 27.5769 -0.295685 0.602338 0
M  V30 247 H 30.1209 -0.281998 2.02546 0
M  V30 248 H 28.2759 -2.62457 2.84947 0
M  V30 249 H 28.6899 -1.82969 4.91551 0
M  V30 250 H 30.1639 -3.43362 4.32211 0
M  V30 251 H 30.6409 -3.51897 2.62802 0
M  V30 252 H 31.2469 -2.1915 3.64491 0
M  V30 253 N 29.562 -1.4872 -0.521534 0
M  V30 254 C 30.787 -1.61101 -1.30618 0
M  V30 255 C 31.212 -0.274611 -1.86085 0
M  V30 256 O 30.57 0.754937 -1.64834 0
M  V30 257 C 30.618 -2.66709 -2.4269 0
M  V30 258 O 29.722 -2.24456 -3.45967 0
M  V30 259 H 29.063 -0.539921 -0.386499 0
M  V30 260 H 31.593 -1.94767 -0.626645 0
M  V30 261 H 31.603 -2.88245 -2.88754 0
M  V30 262 H 30.278 -3.63727 -2.01682 0
M  V30 263 H 28.855 -2.13168 -3.05964 0
M  V30 264 N 31.0401 0.771051 -1.3745 0
M  V30 265 C 32.4511 1.34737 -1.29239 0
M  V30 266 C 32.8021 1.96109 0.0596908 0
M  V30 267 O 31.9271 1.93865 0.961534 0
M  V30 268 C 32.5221 2.44973 -2.34037 0
M  V30 269 C 31.0811 2.98372 -2.29458 0
M  V30 270 C 30.2281 1.71595 -2.17831 0
M  V30 271 H 33.1791 0.571256 -1.48062 0
M  V30 272 H 33.2001 3.24471 -1.98744 0
M  V30 273 H 32.7121 2.00276 -3.32432 0
M  V30 274 H 30.8131 3.47443 -1.34589 0
M  V30 275 H 30.9261 3.53939 -3.229 0
M  V30 276 H 29.2901 1.94547 -1.64388 0
M  V30 277 H 30.0731 1.29001 -3.18141 0
M  V30 278 N 32.5182 1.22032 0.997298 0
M  V30 279 C 33.4282 1.00271 2.12092 0
M  V30 280 C 34.4442 -0.047621 1.73935 0
M  V30 281 O 35.6202 0.144136 2.00884 0
M  V30 282 C 32.6852 0.578449 3.4184 0
M  V30 283 C 31.7462 1.70189 3.94125 0
M  V30 284 C 30.9792 1.29778 5.17681 0
M  V30 285 O 31.2022 0.174676 5.70132 0
M  V30 286 O 30.1362 2.11261 5.63607 0
M  V30 287 H 33.9622 1.94398 2.3333 0
M  V30 288 H 31.5472 1.00587 1.10465 0
M  V30 289 H 33.4292 0.351998 4.19927 0
M  V30 290 H 32.1042 -0.334019 3.21972 0
M  V30 291 H 31.0112 1.98282 3.1723 0
M  V30 292 H 32.3442 2.59206 4.18417 0
M  V30 293 N 33.9963 -1.19345 1.0293 0
M  V30 294 C 34.9593 -2.20793 0.615069 0
M  V30 295 C 35.9593 -1.57553 -0.321533 0
M  V30 296 O 37.1493 -1.73862 -0.108483 0
M  V30 297 C 34.2813 -3.40754 -0.0999222 0
M  V30 298 H 35.4743 -2.58955 1.51269 0
M  V30 299 H 33.0273 -1.3303 0.820534 0
M  V30 300 H 33.7623 -3.0811 -1.01187 0
M  V30 301 H 33.5473 -3.87889 0.57309 0
M  V30 302 H 35.0373 -4.15898 -0.376645 0
M  V30 303 N 35.4744 -0.807222 -1.35358 0
M  V30 304 C 36.7224 -0.387122 -1.98358 0
M  V30 305 C 37.0434 1.04942 -1.64354 0
M  V30 306 O 36.3134 1.72615 -0.926339 0
M  V30 307 H 34.8934 -0.140154 -0.733734 0
M  V30 308 H 37.5554 -1.0332 -1.6526 0
M  V30 309 H 36.6514 -0.493352 -3.08176 0
M  V30 310 N 36.9525 1.47285 -0.560781 0
M  V30 311 C 38.2005 2.02064 -0.0379868 0
M  V30 312 C 38.5215 1.43711 1.31803 0
M  V30 313 O 37.7915 0.61362 1.86042 0
M  V30 314 H 36.3715 0.746918 -0.0110531 0
M  V30 315 H 39.0335 1.80648 -0.731598 0
M  V30 316 H 38.1295 3.12064 0.0474463 0
M  V30 317 N 38.4306 0.297415 1.54768 0
M  V30 318 C 39.6786 -0.312295 1.99673 0
M  V30 319 C 39.9996 -1.54686 1.18732 0
M  V30 320 O 39.2696 -1.93854 0.282382 0
M  V30 321 H 37.8496 -0.118381 0.73756 0
M  V30 322 H 40.5116 0.407915 1.90583 0
M  V30 323 H 39.6076 -0.586813 3.06534 0
M  V30 324 N 39.9087 -1.5758 0.0250728 0
M  V30 325 C 41.1567 -1.91255 -0.653151 0
M  V30 326 C 41.4777 -0.901691 -1.729 0
M  V30 327 O 40.7477 0.0573785 -1.95816 0
M  V30 328 H 39.3277 -0.705942 -0.244243 0
M  V30 329 H 41.9897 -1.94767 0.0719209 0
M  V30 330 H 41.0857 -2.91752 -1.10847 0
M  V30 331 N 41.3868 0.248026 -1.55636 0
M  V30 332 C 42.6348 0.974295 -1.77065 0
M  V30 333 C 42.9558 1.85897 -0.588849 0
M  V30 334 O 42.2258 1.91868 0.395407 0
M  V30 335 H 40.8058 0.362733 -0.653019 0
M  V30 336 H 43.4678 0.266244 -1.93073 0
M  V30 337 H 42.5638 1.59667 -2.68166 0
M  V30 338 N 42.8649 1.48995 0.513639 0
M  V30 339 C 43.8279 1.64229 1.59879 0
M  V30 340 C 44.8279 0.514696 1.5234 0
M  V30 341 O 46.0179 0.78087 1.55718 0
M  V30 342 C 43.1499 1.62783 2.99524 0
M  V30 343 H 44.3429 2.61004 1.47705 0
M  V30 344 H 41.8959 1.37837 0.736936 0
M  V30 345 H 42.6309 0.675461 3.17188 0
M  V30 346 H 42.4159 2.4466 3.06404 0
M  V30 347 H 43.9059 1.76669 3.78388 0
M  V30 348 N 44.343 -0.763751 1.37857 0
M  V30 349 C 45.273 -1.89103 1.36975 0
M  V30 350 C 46.254 -1.68439 0.237152 0
M  V30 351 O 47.439 -1.8918 0.438713 0
M  V30 352 C 44.569 -3.26496 1.18395 0
M  V30 353 C 43.523 -3.61741 2.28751 0
M  V30 354 C 42.849 -4.97762 1.95286 0
M  V30 355 C 44.149 -3.67665 3.70972 0
M  V30 356 H 45.843 -1.90099 2.31307 0
M  V30 357 H 43.389 -0.91319 1.11341 0
M  V30 358 H 45.342 -4.05003 1.16406 0
M  V30 359 H 44.066 -3.25955 0.205215 0
M  V30 360 H 42.725 -2.85547 2.29909 0
M  V30 361 H 42.373 -4.93769 0.959221 0
M  V30 362 H 42.073 -5.22313 2.69189 0
M  V30 363 H 43.597 -5.7866 1.94898 0
M  V30 364 H 45.011 -4.36307 3.719 0
M  V30 365 H 43.408 -4.03718 4.43995 0
M  V30 366 H 44.478 -2.68134 4.0402 0
M  V30 367 N 45.8211 -1.22559 -0.990812 0
M  V30 368 C 46.7681 -0.997519 -2.0813 0
M  V30 369 C 47.7381 0.0814702 -1.659 0
M  V30 370 O 48.9231 -0.0685424 -1.90677 0
M  V30 371 C 46.0631 -0.583615 -3.40129 0
M  V30 372 C 45.1761 -1.7336 -3.9569 0
M  V30 373 C 44.3111 -1.26748 -5.15857 0
M  V30 374 C 43.3501 -2.38888 -5.63559 0
M  V30 375 N 42.4871 -1.93308 -6.74964 0
M  V30 376 H 47.3271 -1.93099 -2.26973 0
M  V30 377 H 44.8641 -0.962114 -1.11273 0
M  V30 378 H 46.8221 -0.324801 -4.15934 0
M  V30 379 H 45.4521 0.312845 -3.2128 0
M  V30 380 H 44.5041 -2.10669 -3.16738 0
M  V30 381 H 45.8161 -2.57704 -4.27071 0
M  V30 382 H 44.9701 -0.966173 -5.98957 0
M  V30 383 H 43.7091 -0.394272 -4.86104 0
M  V30 384 H 42.7141 -2.69805 -4.79046 0
M  V30 385 H 43.9391 -3.26728 -5.95336 0
M  V30 386 H 41.8851 -1.08352 -6.4699 0
M  V30 387 H 41.8021 -2.71217 -7.05675 0
M  V30 388 H 43.0701 -1.66252 -7.61564 0
M  V30 389 N 47.2992 1.18797 -1.03562 0
M  V30 390 C 48.2622 2.20464 -0.626769 0
M  V30 391 C 49.2622 1.57721 0.313173 0
M  V30 392 O 50.4522 1.73917 0.0992615 0
M  V30 393 C 47.5842 3.40802 0.0818498 0
M  V30 394 H 48.7772 2.58149 -1.5264 0
M  V30 395 H 46.3302 1.32593 -0.827578 0
M  V30 396 H 47.0652 3.08642 0.995518 0
M  V30 397 H 46.8502 3.8758 -0.593652 0
M  V30 398 H 48.3402 4.16092 0.354584 0
M  V30 399 N 48.7773 0.814389 1.34928 0
M  V30 400 C 50.0023 0.410097 2.03305 0
M  V30 401 C 50.4273 -0.973464 1.60951 0
M  V30 402 O 49.7853 -1.63185 0.789964 0
M  V30 403 C 49.8333 0.51049 3.56968 0
M  V30 404 O 48.9373 -0.473035 4.09678 0
M  V30 405 H 48.2783 0.170088 0.641846 0
M  V30 406 H 50.8083 1.10244 1.72358 0
M  V30 407 H 50.8183 0.383135 4.06197 0
M  V30 408 H 49.4933 1.51963 3.87144 0
M  V30 409 H 48.0703 -0.305272 3.71648 0
M  V30 410 N 50.2554 -1.46986 0.568584 0
M  V30 411 C 51.4804 -2.07335 0.0520528 0
M  V30 412 C 51.9054 -1.41675 -1.23733 0
M  V30 413 O 51.2634 -0.495623 -1.74394 0
M  V30 414 C 51.3114 -3.60417 -0.11501 0
M  V30 415 O 50.4154 -3.95309 -1.17492 0
M  V30 416 H 49.7564 -0.661597 0.0564385 0
M  V30 417 H 52.2864 -1.88837 0.787507 0
M  V30 418 H 52.2964 -4.06698 -0.325644 0
M  V30 419 H 50.9714 -4.07601 0.826675 0
M  V30 420 H 49.5484 -3.60757 -0.943869 0
M  V30 421 N 51.7335 -0.305618 -1.54608 0
M  V30 422 C 52.6965 0.555591 -2.22364 0
M  V30 423 C 53.6965 1.05768 -1.21119 0
M  V30 424 O 54.8865 0.952972 -1.45822 0
M  V30 425 C 52.0185 1.76974 -2.91364 0
M  V30 426 H 53.2115 -0.0364572 -2.99878 0
M  V30 427 H 50.7645 -0.0565007 -1.56198 0
M  V30 428 H 51.4995 2.40151 -2.17941 0
M  V30 429 H 51.2845 1.41732 -3.65588 0
M  V30 430 H 52.7745 2.38148 -3.43038 0
M  V30 431 N 53.2116 1.57565 -0.0334293 0
M  V30 432 C 54.6226 1.79746 0.504798 0
M  V30 433 C 54.9736 0.944091 1.71992 0
M  V30 434 O 54.0986 0.155694 2.15839 0
M  V30 435 C 54.6936 3.25997 0.922567 0
M  V30 436 C 53.2526 3.49159 1.40588 0
M  V30 437 C 52.3996 2.74785 0.372633 0
M  V30 438 H 55.3506 1.56565 -0.259436 0
M  V30 439 H 55.3716 3.35945 1.78666 0
M  V30 440 H 54.8836 3.88081 0.0379825 0
M  V30 441 H 52.9846 2.92332 2.31025 0
M  V30 442 H 53.0976 4.57873 1.41028 0
M  V30 443 H 51.4616 2.40391 0.841672 0
M  V30 444 H 52.2446 3.39587 -0.503559 0
M  V30 445 N 54.6897 -0.239769 1.55765 0
M  V30 446 C 55.6527 -1.28038 1.90103 0
M  V30 447 C 56.6527 -1.40723 0.778055 0
M  V30 448 O 57.8427 -1.39301 1.04599 0
M  V30 449 C 54.9747 -2.65702 2.13577 0
M  V30 450 H 56.1677 -0.988048 2.83157 0
M  V30 451 H 53.7207 -0.479382 1.48767 0
M  V30 452 H 54.4557 -3.00063 1.23015 0
M  V30 453 H 54.2407 -2.57875 2.95369 0
M  V30 454 H 55.7307 -3.40828 2.41301 0
M  V30 455 N 56.1678 -1.49265 -0.50573 0
M  V30 456 C 57.1308 -1.65075 -1.59006 0
M  V30 457 C 58.1308 -0.522768 -1.52065 0
M  V30 458 O 59.3208 -0.789117 -1.55302 0
M  V30 459 C 56.4528 -1.64369 -2.98656 0
M  V30 460 H 57.6458 -2.61784 -1.46319 0
M  V30 461 H 55.1988 -1.38226 -0.729616 0
M  V30 462 H 55.9338 -0.692272 -3.16825 0
M  V30 463 H 55.7188 -2.46282 -3.05103 0
M  V30 464 H 57.2088 -1.78674 -3.77446 0
M  V30 465 N 57.6459 0.756429 -1.3826 0
M  V30 466 C 58.6089 1.85176 -1.35065 0
M  V30 467 C 59.6089 1.58818 -0.251703 0
M  V30 468 O 60.7989 1.66615 -0.508433 0
M  V30 469 C 57.9309 3.22596 -1.10201 0
M  V30 470 H 59.1239 1.89417 -2.3251 0
M  V30 471 H 56.6769 0.95783 -1.23512 0
M  V30 472 H 57.4119 3.24025 -0.133504 0
M  V30 473 H 57.1969 3.43122 -1.89762 0
M  V30 474 H 58.6869 4.02673 -1.10654 0
M  V30 475 N 59.124 1.23083 0.984299 0
M  V30 476 C 60.087 1.00979 2.05757 0
M  V30 477 C 61.087 -0.0269573 1.60777 0
M  V30 478 O 62.277 0.212403 1.729 0
M  V30 479 C 59.409 0.527072 3.36801 0
M  V30 480 H 60.602 1.9622 2.26799 0
M  V30 481 H 58.155 1.05072 1.15714 0
M  V30 482 H 58.89 -0.429294 3.21446 0
M  V30 483 H 58.675 1.27515 3.70786 0
M  V30 484 H 60.165 0.392942 4.15747 0
M  V30 485 N 60.6021 -1.18246 1.0419 0
M  V30 486 C 61.8501 -1.87886 0.744543 0
M  V30 487 C 62.1711 -1.8082 -0.730006 0
M  V30 488 O 61.4411 -1.22736 -1.52685 0
M  V30 489 H 60.0211 -0.695556 0.272417 0
M  V30 490 H 62.6831 -1.43494 1.31892 0
M  V30 491 H 61.7791 -2.9389 1.05049 0
M  V30 492 N 62.0802 -0.821533 -1.34494 0
M  V30 493 C 63.0102 -0.257138 -2.3208 0
M  V30 494 C 63.9912 0.625645 -1.58176 0
M  V30 495 O 65.1762 0.552811 -1.86166 0
M  V30 496 C 62.3062 0.582958 -3.42372 0
M  V30 497 C 61.2602 -0.202571 -4.2752 0
M  V30 498 C 60.5862 0.760179 -5.29269 0
M  V30 499 C 61.8862 -1.40998 -5.02908 0
M  V30 500 H 63.5802 -1.07247 -2.79532 0
M  V30 501 H 61.1262 -0.517163 -1.34393 0
M  V30 502 H 63.0792 0.987972 -4.09655 0
M  V30 503 H 61.8032 1.43133 -2.93565 0
M  V30 504 H 60.4622 -0.588936 -3.61838 0
M  V30 505 H 60.1102 1.60447 -4.76724 0
M  V30 506 H 59.8102 0.238809 -5.87115 0
M  V30 507 H 61.3342 1.16308 -5.9942 0
M  V30 508 H 62.7482 -1.07905 -5.63054 0
M  V30 509 H 61.1452 -1.86689 -5.70322 0
M  V30 510 H 62.2152 -2.1889 -4.32684 0
M  V30 511 N 63.5583 1.46682 -0.576371 0
M  V30 512 C 64.4883 2.33028 0.148397 0
M  V30 513 C 65.4693 1.44961 0.889956 0
M  V30 514 O 66.6543 1.73789 0.866662 0
M  V30 515 C 63.7843 3.27117 1.1667 0
M  V30 516 C 62.7383 4.24575 0.540386 0
M  V30 517 C 62.0643 5.08126 1.6647 0
M  V30 518 C 63.3643 5.19722 -0.518331 0
M  V30 519 H 65.0583 2.93875 -0.572509 0
M  V30 520 H 62.6043 1.41315 -0.276768 0
M  V30 521 H 64.5573 3.86374 1.68204 0
M  V30 522 H 63.2813 2.64364 1.9178 0
M  V30 523 H 61.9403 3.66571 0.0461769 0
M  V30 524 H 61.5883 4.41762 2.40531 0
M  V30 525 H 61.2883 5.74122 1.25131 0
M  V30 526 H 62.8123 5.70246 2.18293 0
M  V30 527 H 64.2263 5.73232 -0.0883058 0
M  V30 528 H 62.6233 5.94026 -0.851679 0
M  V30 529 H 63.6933 4.64037 -1.40703 0
M  V30 530 N 65.0364 0.313813 1.54444 0
M  V30 531 C 66.4524 -0.0391619 1.59552 0
M  V30 532 C 66.6524 -1.51322 1.33056 0
M  V30 533 O 65.7084 -2.26782 1.11022 0
M  V30 534 C 67.0214 0.370302 2.98411 0
M  V30 535 C 68.5694 0.320139 3.11358 0
M  V30 536 C 69.0444 0.704617 4.52547 0
M  V30 537 N 70.5354 0.657645 4.58508 0
M  V30 538 C 71.2704 0.927453 5.6585 0
M  V30 539 N 70.7664 1.26389 6.81174 0
M  V30 540 N 72.5594 0.853662 5.5558 0
M  V30 541 H 64.7104 1.27433 1.69925 0
M  V30 542 H 66.9734 0.517511 0.794284 0
M  V30 543 H 66.6794 1.39694 3.22767 0
M  V30 544 H 66.5534 -0.269619 3.76235 0
M  V30 545 H 68.9404 -0.697275 2.86744 0
M  V30 546 H 69.0214 0.99486 2.35661 0
M  V30 547 H 68.6654 1.7199 4.77893 0
M  V30 548 H 68.5954 0.00768843 5.26599 0
M  V30 549 H 71.0864 0.409067 3.75679 0
M  V30 550 H 71.3994 1.4554 7.58972 0
M  V30 551 H 69.7444 1.30206 6.82694 0
M  V30 552 H 72.9354 0.590383 4.64362 0
M  V30 553 H 73.1084 1.0673 6.3915 0
M  V30 554 N 66.5145 -1.57545 0.0417849 0
M  V30 555 C 67.4245 -2.14451 -0.951213 0
M  V30 556 C 68.4405 -1.09992 -1.34825 0
M  V30 557 O 69.6165 -1.42114 -1.42708 0
M  V30 558 C 66.6815 -2.67063 -2.21084 0
M  V30 559 C 65.7425 -3.86284 -1.87304 0
M  V30 560 C 64.9755 -4.36378 -3.07261 0
M  V30 561 O 65.1985 -3.85587 -4.20332 0
M  V30 562 O 64.1325 -5.28077 -2.88822 0
M  V30 563 H 67.9585 -2.99601 -0.497287 0
M  V30 564 H 65.5435 -1.48317 -0.179567 0
M  V30 565 H 67.4255 -3.00914 -2.95006 0
M  V30 566 H 66.1005 -1.84989 -2.65633 0
M  V30 567 H 65.0075 -3.57338 -1.10727 0
M  V30 568 H 66.3405 -4.6956 -1.47562 0
M  V30 569 N 67.9926 0.231505 -1.5589 0
M  V30 570 C 68.9556 1.27028 -1.90779 0
M  V30 571 C 69.9556 1.40308 -0.785507 0
M  V30 572 O 71.1456 1.38744 -1.05336 0
M  V30 573 C 68.2776 2.64566 -2.14983 0
M  V30 574 H 69.4706 0.973017 -2.83677 0
M  V30 575 H 67.0236 0.471486 -1.49019 0
M  V30 576 H 67.7586 2.99406 -1.24604 0
M  V30 577 H 67.5436 2.56305 -2.96732 0
M  V30 578 H 69.0336 3.39543 -2.43105 0
M  V30 579 N 69.4707 1.49531 0.497807 0
M  V30 580 C 70.7187 1.58865 1.24926 0
M  V30 581 C 71.0397 0.278721 1.92998 0
M  V30 582 O 70.3097 -0.702144 1.82885 0
M  V30 583 H 68.8897 0.585343 0.464094 0
M  V30 584 H 71.5517 1.86174 0.57666 0
M  V30 585 H 70.6477 2.38633 2.01149 0
M  V30 586 N 70.9488 -0.749086 1.3866 0
M  V30 587 C 72.1738 -1.54344 1.38538 0
M  V30 588 C 72.5988 -1.88088 -0.0216655 0
M  V30 589 O 71.9568 -1.50899 -1.00494 0
M  V30 590 C 72.0048 -2.8164 2.25192 0
M  V30 591 O 71.1088 -3.7698 1.67212 0
M  V30 592 H 70.4498 -0.466654 0.472367 0
M  V30 593 H 72.9798 -0.925355 1.82478 0
M  V30 594 H 72.9898 -3.30519 2.3921 0
M  V30 595 H 71.6648 -2.56411 3.27454 0
M  V30 596 H 70.2418 -3.35699 1.6236 0
M  V30 597 N 72.4269 -1.23603 -0.977757 0
M  V30 598 C 73.6749 -1.06759 -1.71601 0
M  V30 599 C 73.9959 0.395929 -1.90938 0
M  V30 600 O 73.2659 1.28356 -1.47992 0
M  V30 601 H 71.8459 -0.392062 -0.635843 0
M  V30 602 H 74.5079 -1.55362 -1.1768 0
M  V30 603 H 73.6039 -1.55763 -2.70452 0
M  V30 604 N 73.905 1.17692 -1.04816 0
M  V30 605 C 75.153 1.87488 -0.754497 0
M  V30 606 C 75.474 1.81205 0.720407 0
M  V30 607 O 74.744 1.23544 1.52032 0
M  V30 608 H 73.324 0.694101 -0.276102 0
M  V30 609 H 75.986 1.42793 -1.32651 0
M  V30 610 H 75.082 2.93328 -1.06606 0
M  V30 611 N 75.3831 0.828654 1.34056 0
M  V30 612 C 76.7991 0.515135 1.51058 0
M  V30 613 C 76.9991 -0.959581 1.77184 0
M  V30 614 O 76.0551 -1.74382 1.82612 0
M  V30 615 C 77.3681 1.37963 2.67183 0
M  V30 616 C 78.9161 1.37735 2.81066 0
M  V30 617 C 79.3911 2.22645 4.00241 0
M  V30 618 N 80.8821 2.203 4.07458 0
M  V30 619 C 81.6171 2.82744 4.98842 0
M  V30 620 N 81.1131 3.54201 5.9541 0
M  V30 621 N 82.9061 2.72268 4.91759 0
M  V30 622 H 75.0571 1.78343 1.15358 0
M  V30 623 H 77.3201 0.760304 0.566252 0
M  V30 624 H 77.0261 2.42714 2.54525 0
M  V30 625 H 76.9001 1.0484 3.62338 0
M  V30 626 H 79.2871 0.337593 2.93163 0
M  V30 627 H 79.3681 1.74859 1.86703 0
M  V30 628 H 79.0121 3.26674 3.88905 0
M  V30 629 H 78.9421 1.82869 4.93829 0
M  V30 630 H 81.4331 1.68327 3.38341 0
M  V30 631 H 81.7461 3.9908 6.61782 0
M  V30 632 H 80.0911 3.58308 5.95517 0
M  V30 633 H 83.2821 2.16014 4.15278 0
M  V30 634 H 83.4551 3.21219 5.62781 0
M  V30 635 N 76.8612 -1.46375 0.584142 0
M  V30 636 C 77.7712 -2.34115 -0.150728 0
M  V30 637 C 78.7872 -1.49838 -0.884567 0
M  V30 638 O 79.9632 -1.82704 -0.847429 0
M  V30 639 C 77.0282 -3.2705 -1.15062 0
M  V30 640 C 76.0892 -4.27228 -0.421293 0
M  V30 641 C 75.3222 -5.15722 -1.37355 0
M  V30 642 O 75.5452 -5.07176 -2.61014 0
M  V30 643 O 74.4792 -5.95383 -0.883355 0
M  V30 644 H 78.3052 -2.98309 0.569708 0
M  V30 645 H 75.8902 -1.45373 0.344535 0
M  V30 646 H 77.7722 -3.84381 -1.72712 0
M  V30 647 H 76.4472 -2.65451 -1.8525 0
M  V30 648 H 75.3542 -3.7358 0.197085 0
M  V30 649 H 76.6872 -4.91616 0.239641 0
M  V30 650 N 78.3393 -0.321999 -1.54275 0
M  V30 651 C 79.7553 0.0306999 -1.5957 0
M  V30 652 C 79.9553 1.50614 -1.33857 0
M  V30 653 O 79.0113 2.2619 -1.12223 0
M  V30 654 C 80.3243 -0.386122 -2.98211 0
M  V30 655 C 81.8723 -0.336647 -3.11184 0
M  V30 656 C 82.3473 -0.728607 -4.52167 0
M  V30 657 N 83.8383 -0.681952 -4.58152 0
M  V30 658 C 84.5733 -0.957449 -5.6535 0
M  V30 659 N 84.0693 -1.3 -6.80494 0
M  V30 660 N 85.8623 -0.883113 -5.55119 0
M  V30 661 H 78.0133 -1.28332 -1.69247 0
M  V30 662 H 80.2763 -0.521716 -0.791528 0
M  V30 663 H 79.9823 -1.41404 -3.22022 0
M  V30 664 H 79.8563 0.249662 -3.76373 0
M  V30 665 H 82.2433 0.682058 -2.8711 0
M  V30 666 H 82.3243 -1.00734 -2.3513 0
M  V30 667 H 81.9683 -1.74522 -4.76974 0
M  V30 668 H 81.8983 -0.0356152 -5.26588 0
M  V30 669 H 84.3893 -0.428985 -3.75457 0
M  V30 670 H 84.7023 -1.49563 -7.58189 0
M  V30 671 H 83.0473 -1.33824 -6.81994 0
M  V30 672 H 86.2383 -0.615001 -4.64042 0
M  V30 673 H 86.4113 -1.10118 -6.38575 0
M  V30 674 N 79.8174 1.5752 -0.0501392 0
M  V30 675 C 80.7804 2.1037 0.909786 0
M  V30 676 C 81.7804 1.02308 1.24056 0
M  V30 677 O 82.9704 1.28385 1.17741 0
M  V30 678 C 80.1024 2.58708 2.21998 0
M  V30 679 H 81.2954 2.96479 0.451665 0
M  V30 680 H 78.8484 1.55038 0.198248 0
M  V30 681 H 79.5834 1.75989 2.72394 0
M  V30 682 H 79.3684 3.37675 1.99295 0
M  V30 683 H 80.8584 2.99747 2.9076 0
M  V30 684 N 81.2955 -0.223234 1.56011 0
M  V30 685 C 82.5725 -0.972108 1.69733 0
M  V30 686 C 82.9525 -2.02485 0.59691 0
M  V30 687 O 82.3005 -2.25037 -0.396324 0
M  V30 688 C 82.5105 -1.58407 3.10979 0
M  V30 689 C 83.8585 -2.07696 3.70334 0
M  V30 690 O 84.8825 -1.68304 3.1393 0
M  V30 691 O 83.7415 -2.80096 4.69264 0
M  V30 692 H 80.8355 -0.453993 0.691245 0
M  V30 693 H 83.3815 -0.215149 1.68331 0
M  V30 694 H 82.1535 -0.823831 3.82529 0
M  V30 695 H 81.7765 -2.40661 3.16493 0
M  V30 696 N 82.7736 -1.49793 -0.48987 0
M  V30 697 C 84.0196 -1.61049 -1.24236 0
M  V30 698 C 84.3746 -0.298412 -1.90072 0
M  V30 699 O 83.6676 0.702262 -1.78266 0
M  V30 700 C 83.8616 -2.71488 -2.32441 0
M  V30 701 C 83.6906 -4.13308 -1.77218 0
M  V30 702 C 82.4606 -4.79955 -1.58023 0
M  V30 703 C 84.6586 -4.98176 -1.27772 0
M  V30 704 N 82.6406 -6.06052 -0.978465 0
M  V30 705 C 84.0116 -6.14843 -0.798 0
M  V30 706 C 86.0666 -4.84091 -1.16449 0
M  V30 707 C 84.7696 -7.18975 -0.216245 0
M  V30 708 C 86.7956 -5.88382 -0.596698 0
M  V30 709 C 86.1576 -7.04285 -0.127262 0
M  V30 710 H 82.2566 -0.643611 -0.444172 0
M  V30 711 H 84.8406 -1.86842 -0.54754 0
M  V30 712 H 83.0116 -2.47449 -2.99372 0
M  V30 713 H 84.7436 -2.72205 -2.99477 0
M  V30 714 H 81.4986 -4.36936 -1.82712 0
M  V30 715 H 81.9226 -6.73407 -0.696534 0
M  V30 716 H 86.5646 -3.94786 -1.5134 0
M  V30 717 H 84.2826 -8.0797 0.144903 0
M  V30 718 H 87.8686 -5.79545 -0.511716 0
M  V30 719 H 86.7486 -7.83606 0.30523 0
M  V30 720 N 84.2517 0.741722 -1.39055 0
M  V30 721 C 85.6677 1.04638 -1.20512 0
M  V30 722 C 85.8677 2.01405 -0.0620218 0
M  V30 723 O 84.9237 2.45547 0.588457 0
M  V30 724 C 86.2367 1.6151 -2.53643 0
M  V30 725 C 87.7847 1.73623 -2.6043 0
M  V30 726 C 88.2597 2.33906 -3.93767 0
M  V30 727 N 89.7507 2.41323 -3.9537 0
M  V30 728 C 90.4857 2.88888 -4.95309 0
M  V30 729 N 89.9817 3.36401 -6.05645 0
M  V30 730 N 91.7747 2.88037 -4.82692 0
M  V30 731 H 83.9257 0.0998155 -2.12165 0
M  V30 732 H 86.1887 0.106907 -0.941953 0
M  V30 733 H 85.8947 0.978739 -3.37807 0
M  V30 734 H 85.7687 2.60411 -2.72885 0
M  V30 735 H 88.1557 2.36384 -1.76655 0
M  V30 736 H 88.2367 0.733945 -2.45045 0
M  V30 737 H 87.8807 1.71776 -4.7797 0
M  V30 738 H 87.8107 3.34799 -4.06469 0
M  V30 739 H 90.3017 2.07734 -3.15682 0
M  V30 740 H 90.6147 3.71186 -6.77821 0
M  V30 741 H 88.9597 3.34427 -6.09248 0
M  V30 742 H 92.1507 2.50237 -3.95599 0
M  V30 743 H 92.3237 3.24792 -5.60726 0
M  V30 744 N 85.7298 1.2412 0.971189 0
M  V30 745 C 87.1458 1.00584 1.23916 0
M  V30 746 C 87.3458 -0.287481 1.99439 0
M  V30 747 O 86.4018 -1.00454 2.31658 0
M  V30 748 C 87.7148 2.21864 2.0297 0
M  V30 749 C 89.2628 2.26452 2.16076 0
M  V30 750 C 89.7378 3.47343 2.98524 0
M  V30 751 N 91.2288 3.47639 3.06107 0
M  V30 752 C 91.9638 4.37837 3.70251 0
M  V30 753 N 91.4598 5.38286 4.36142 0
M  V30 754 N 93.2528 4.25558 3.67228 0
M  V30 755 H 85.4038 2.07236 0.465499 0
M  V30 756 H 87.6668 0.909236 0.268315 0
M  V30 757 H 87.3728 3.15771 1.54861 0
M  V30 758 H 87.2468 2.23698 3.03709 0
M  V30 759 H 89.6338 1.33078 2.6339 0
M  V30 760 H 89.7148 2.28645 1.14696 0
M  V30 761 H 89.3588 4.41029 2.51905 0
M  V30 762 H 89.2888 3.42393 4.00093 0
M  V30 763 H 91.7798 2.74966 2.59233 0
M  V30 764 H 92.0928 6.03352 4.82894 0
M  V30 765 H 90.4378 5.42176 4.34822 0
M  V30 766 H 93.6288 3.46322 3.14927 0
M  V30 767 H 93.8018 4.96054 4.16935 0
M  V30 768 N 87.2079 -1.17134 1.05439 0
M  V30 769 C 88.6239 -1.39454 0.776201 0
M  V30 770 C 88.8239 -1.91454 -0.628307 0
M  V30 771 O 87.8799 -2.10777 -1.39031 0
M  V30 772 C 89.1929 -2.38305 1.83388 0
M  V30 773 C 90.7409 -2.52006 1.85639 0
M  V30 774 C 91.2159 -3.54133 2.90437 0
M  V30 775 N 92.7069 -3.61653 2.89415 0
M  V30 776 C 93.4419 -4.4044 3.67152 0
M  V30 777 N 92.9379 -5.22721 4.54681 0
M  V30 778 N 94.7309 -4.35337 3.55581 0
M  V30 779 H 86.8819 -0.817134 1.96053 0
M  V30 780 H 89.1449 -0.421626 0.849079 0
M  V30 781 H 88.8509 -2.07173 2.84204 0
M  V30 782 H 88.7249 -3.37841 1.67761 0
M  V30 783 H 91.1119 -2.82447 0.85486 0
M  V30 784 H 91.1929 -1.52537 2.05344 0
M  V30 785 H 90.8369 -3.24431 3.90777 0
M  V30 786 H 90.7669 -4.53313 2.67983 0
M  V30 787 H 93.2579 -3.02909 2.25952 0
M  V30 788 H 93.5709 -5.80027 5.10674 0
M  V30 789 H 91.9159 -5.22093 4.58741 0
M  V30 790 H 95.1069 -3.70112 2.86592 0
M  V30 791 H 95.2799 -4.96494 4.1641 0
M  V30 792 N 88.686 -0.835752 -1.33615 0
M  V30 793 C 89.618 -0.224151 -2.28101 0
M  V30 794 C 90.631 0.593331 -1.51603 0
M  V30 795 O 91.82 0.420911 -1.73466 0
M  V30 796 C 88.92 0.703309 -3.31522 0
M  V30 797 C 88.093 -0.0741528 -4.37337 0
M  V30 798 C 87.152 0.776176 -5.20444 0
M  V30 799 O 86.178 0.216506 -5.68788 0
M  V30 800 N 87.38 2.09401 -5.41416 0
M  V30 801 H 90.145 -1.03598 -2.81225 0
M  V30 802 H 87.706 -0.69392 -1.46275 0
M  V30 803 H 89.698 1.27707 -3.84022 0
M  V30 804 H 88.268 1.41585 -2.78698 0
M  V30 805 H 87.488 -0.82928 -3.85378 0
M  V30 806 H 88.776 -0.608863 -5.05144 0
M  V30 807 H 88.174 2.57229 -5.03835 0
M  V30 808 H 86.731 2.61633 -5.96985 0
M  V30 809 N 90.1641 1.46063 -0.591896 0
M  V30 810 C 91.0941 2.33172 0.123673 0
M  V30 811 C 92.0751 1.45897 0.87453 0
M  V30 812 O 93.2601 1.74698 0.848181 0
M  V30 813 C 90.3901 3.28336 1.13194 0
M  V30 814 C 89.3441 4.25124 0.495324 0
M  V30 815 C 88.6701 5.09863 1.61071 0
M  V30 816 C 89.9701 5.19143 -0.573425 0
M  V30 817 H 91.6641 2.93252 -0.603646 0
M  V30 818 H 89.2101 1.41014 -0.291741 0
M  V30 819 H 91.1631 3.88137 1.64097 0
M  V30 820 H 89.8871 2.66383 1.88965 0
M  V30 821 H 88.5461 3.66599 0.00729452 0
M  V30 822 H 88.1941 4.44288 2.35832 0
M  V30 823 H 87.8941 5.75417 1.19035 0
M  V30 824 H 89.4181 5.72529 2.12233 0
M  V30 825 H 90.8321 5.73106 -0.1491 0
M  V30 826 H 89.2291 5.93089 -0.914636 0
M  V30 827 H 90.2991 4.62519 -1.45617 0
M  V30 828 N 91.6422 0.330177 1.54103 0
M  V30 829 C 93.0582 -0.0222371 1.59585 0
M  V30 830 C 93.2582 -1.49902 1.34654 0
M  V30 831 O 92.3142 -2.25592 1.13421 0
M  V30 832 C 93.6272 0.401932 2.98002 0
M  V30 833 C 95.1752 0.353145 3.11001 0
M  V30 834 C 95.6502 0.752576 4.51775 0
M  V30 835 N 97.1412 0.706239 4.57784 0
M  V30 836 C 97.8762 0.987417 5.64834 0
M  V30 837 N 97.3722 1.33607 6.79795 0
M  V30 838 N 99.1652 0.91254 5.54643 0
M  V30 839 H 91.3162 1.29228 1.68564 0
M  V30 840 H 93.5792 0.525906 0.78875 0
M  V30 841 H 93.2852 1.4311 3.21267 0
M  V30 842 H 93.1592 -0.229699 3.765 0
M  V30 843 H 95.5462 -0.666822 2.87467 0
M  V30 844 H 95.6272 1.0198 2.34593 0
M  V30 845 H 95.2712 1.77049 4.76042 0
M  V30 846 H 95.2012 0.0635409 5.26562 0
M  V30 847 H 97.6922 0.44889 3.75224 0
M  V30 848 H 98.0052 1.53582 7.57385 0
M  V30 849 H 96.3502 1.37439 6.81275 0
M  V30 850 H 99.5412 0.639601 4.6371 0
M  V30 851 H 99.7142 1.13503 6.37982 0
M  V30 852 N 93.1203 -1.57491 0.0584922 0
M  V30 853 C 94.0673 -2.11958 -0.913376 0
M  V30 854 C 95.0373 -1.02875 -1.30407 0
M  V30 855 O 96.2223 -1.30464 -1.39226 0
M  V30 856 C 93.3623 -2.67497 -2.18035 0
M  V30 857 C 92.4753 -3.90691 -1.84349 0
M  V30 858 C 91.6103 -4.3452 -3.05559 0
M  V30 859 C 90.6493 -5.50395 -2.67827 0
M  V30 860 N 89.7863 -5.89244 -3.81754 0
M  V30 861 H 94.6263 -2.94704 -0.442017 0
M  V30 862 H 92.1633 -1.45643 -0.206545 0
M  V30 863 H 94.1213 -2.978 -2.92183 0
M  V30 864 H 92.7513 -1.87537 -2.62735 0
M  V30 865 H 91.8033 -3.66934 -1.00319 0
M  V30 866 H 93.1153 -4.7489 -1.5258 0
M  V30 867 H 92.2693 -4.66414 -3.87998 0
M  V30 868 H 91.0083 -3.49147 -3.40511 0
M  V30 869 H 90.0133 -5.18165 -1.83806 0
M  V30 870 H 91.2383 -6.3749 -2.34059 0
M  V30 871 H 89.1843 -5.06823 -4.16493 0
M  V30 872 H 89.1013 -6.68151 -3.53708 0
M  V30 873 H 90.3693 -6.25756 -4.64811 0
M  V30 874 N 94.5984 0.214957 -1.56127 0
M  V30 875 C 95.8444 0.939762 -1.79712 0
M  V30 876 C 96.1774 1.83723 -0.629247 0
M  V30 877 O 95.4524 1.90925 0.371197 0
M  V30 878 C 95.7354 1.77306 -3.13424 0
M  V30 879 C 95.5884 0.90164 -4.40671 0
M  V30 880 C 96.9074 2.74956 -3.43638 0
M  V30 881 H 94.0264 0.340214 -0.653776 0
M  V30 882 H 96.6684 0.20824 -1.88855 0
M  V30 883 H 94.8184 2.39673 -3.0576 0
M  V30 884 H 96.4904 0.294206 -4.60361 0
M  V30 885 H 94.7334 0.207368 -4.33304 0
M  V30 886 H 95.4044 1.51923 -5.30682 0
M  V30 887 H 97.8804 2.22724 -3.51473 0
M  V30 888 H 96.7564 3.30358 -4.38355 0
M  V30 889 H 97.0174 3.53023 -2.66134 0
M  V30 890 N 96.0765 1.50051 0.48192 0
M  V30 891 C 97.4925 1.37237 0.814756 0
M  V30 892 C 97.6925 0.420109 1.97072 0
M  V30 893 O 96.7485 -0.141246 2.52105 0
M  V30 894 C 98.0615 2.78375 1.13701 0
M  V30 895 C 99.6095 2.87213 1.2441 0
M  V30 896 C 100.084 4.29161 1.59954 0
M  V30 897 N 101.575 4.32061 1.66967 0
M  V30 898 C 102.31 5.38879 1.95952 0
M  V30 899 N 101.806 6.55918 2.23031 0
M  V30 900 N 103.599 5.26312 1.97363 0
M  V30 901 H 95.7505 2.10546 -0.28005 0
M  V30 902 H 98.0135 0.945921 -0.0627454 0
M  V30 903 H 97.7195 3.49845 0.360787 0
M  V30 904 H 97.5935 3.14941 2.07586 0
M  V30 905 H 99.9805 2.15969 2.01101 0
M  V30 906 H 100.061 2.54204 0.285299 0
M  V30 907 H 99.7055 5.00938 0.838067 0
M  V30 908 H 99.6355 4.59648 2.56966 0
M  V30 909 H 102.126 3.47661 1.48123 0
M  V30 910 H 102.439 7.33139 2.44391 0
M  V30 911 H 100.784 6.59112 2.20447 0
M  V30 912 H 103.975 4.33876 1.75697 0
M  V30 913 H 104.148 6.09649 2.19618 0
M  V30 914 N 97.5546 -0.734337 1.39446 0
M  V30 915 C 98.7796 -1.52866 1.40167 0
M  V30 916 C 99.2046 -1.881 -0.00171513 0
M  V30 917 O 98.5626 -1.51957 -0.988879 0
M  V30 918 C 98.6106 -2.79235 2.28167 0
M  V30 919 O 97.7146 -3.75185 1.71201 0
M  V30 920 H 97.0556 -0.461618 0.477289 0
M  V30 921 H 99.5856 -0.905949 1.8345 0
M  V30 922 H 99.5956 -3.27963 2.42702 0
M  V30 923 H 98.2706 -2.52923 3.30156 0
M  V30 924 H 96.8476 -3.33958 1.65912 0
M  V30 925 N 99.0327 -1.24633 -0.964593 0
M  V30 926 C 100.279 -1.08949 -1.71049 0
M  V30 927 C 100.612 0.370302 -1.90637 0
M  V30 928 O 99.8867 1.27349 -1.47011 0
M  V30 929 C 100.17 -1.83329 -3.0994 0
M  V30 930 C 100.023 -3.37077 -2.97824 0
M  V30 931 C 101.342 -1.60846 -4.09654 0
M  V30 932 H 98.4607 -0.397178 -0.620821 0
M  V30 933 H 101.103 -1.5334 -1.12191 0
M  V30 934 H 99.2527 -1.45597 -3.60186 0
M  V30 935 H 100.925 -3.84425 -2.5498 0
M  V30 936 H 99.1677 -3.65298 -2.33965 0
M  V30 937 H 99.8387 -3.84324 -3.96231 0
M  V30 938 H 102.315 -1.93674 -3.68279 0
M  V30 939 H 101.191 -2.1534 -5.04896 0
M  V30 940 H 101.452 -0.547434 -4.38698 0
M  V30 941 N 100.511 1.16574 -1.06058 0
M  V30 942 C 101.421 2.2452 -0.680282 0
M  V30 943 C 102.437 1.71348 0.302604 0
M  V30 944 O 103.613 2.00822 0.152513 0
M  V30 945 C 100.678 3.46629 -0.0700315 0
M  V30 946 C 99.7388 4.14849 -1.10448 0
M  V30 947 C 98.9718 5.31129 -0.523256 0
M  V30 948 O 99.1948 5.66514 0.664709 0
M  V30 949 O 98.1288 5.88526 -1.26179 0
M  V30 950 H 101.955 2.59355 -1.58015 0
M  V30 951 H 99.5398 1.24043 -0.832694 0
M  V30 952 H 101.422 4.20543 0.268667 0
M  V30 953 H 100.097 3.13573 0.803353 0
M  V30 954 H 99.0038 3.42916 -1.49532 0
M  V30 955 H 100.337 4.51954 -1.94931 0
M  V30 956 N 101.989 0.842826 1.3317 0
M  V30 957 C 102.919 0.294028 2.31641 0
M  V30 958 C 103.9 -0.600401 1.59151 0
M  V30 959 O 105.085 -0.523124 1.87022 0
M  V30 960 C 102.215 -0.528416 3.43257 0
M  V30 961 C 101.169 0.27056 4.27144 0
M  V30 962 C 100.495 -0.675881 5.30411 0
M  V30 963 C 101.795 1.48981 5.00602 0
M  V30 964 H 103.489 1.11681 2.77791 0
M  V30 965 H 101.035 0.538478 1.33553 0
M  V30 966 H 102.988 -0.922674 4.11175 0
M  V30 967 H 101.712 -1.38445 2.95805 0
M  V30 968 H 100.371 0.646427 3.60856 0
M  V30 969 H 100.019 -1.52842 4.79216 0
M  V30 970 H 99.7189 -0.145374 5.8742 0
M  V30 971 H 101.243 -1.06757 6.01195 0
M  V30 972 H 102.657 1.16849 5.61266 0
M  V30 973 H 101.054 1.95739 5.6728 0
M  V30 974 H 102.124 2.25746 4.29147 0
M  V30 975 N 103.467 -1.45747 0.599634 0
M  V30 976 C 104.744 -1.95585 0.0240846 0
M  V30 977 C 105.124 -1.54217 -1.44154 0
M  V30 978 O 104.472 -0.800903 -2.14004 0
M  V30 979 C 104.682 -3.48344 0.21385 0
M  V30 980 C 106.03 -4.24504 0.0904902 0
M  V30 981 O 107.054 -3.55911 0.143558 0
M  V30 982 O 105.913 -5.46491 -0.0310766 0
M  V30 983 H 103.007 -0.82602 -0.0402478 0
M  V30 984 H 105.553 -1.55951 0.669139 0
M  V30 985 H 104.325 -3.71397 1.23206 0
M  V30 986 H 103.948 -3.9485 -0.466842 0
M  V30 987 N 104.945 -0.338344 -1.53925 0
M  V30 988 C 105.877 0.555117 -2.22376 0
M  V30 989 C 106.89 1.06812 -1.22862 0
M  V30 990 O 108.079 0.979163 -1.49247 0
M  V30 991 C 105.179 1.77609 -2.88631 0
M  V30 992 C 104.352 1.39927 -4.14414 0
M  V30 993 C 103.411 2.47936 -4.64127 0
M  V30 994 O 102.437 2.11461 -5.28463 0
M  V30 995 N 103.639 3.79107 -4.39612 0
M  V30 996 H 106.404 -0.0310778 -2.99684 0
M  V30 997 H 103.965 -0.162226 -1.61085 0
M  V30 998 H 105.957 2.49287 -3.18807 0
M  V30 999 H 104.527 2.26978 -2.14941 0
M  V30 1000 H 103.747 0.513481 -3.90841 0
M  V30 1001 H 105.035 1.12341 -4.96243 0
M  V30 1002 H 104.433 4.11531 -3.88148 0
M  V30 1003 H 102.99 4.4697 -4.74406 0
M  V30 1004 N 106.423 1.57458 -0.0668435 0
M  V30 1005 C 107.353 2.15468 0.899764 0
M  V30 1006 C 108.334 1.08042 1.31381 0
M  V30 1007 O 109.519 1.36054 1.38574 0
M  V30 1008 C 106.649 2.71232 2.16911 0
M  V30 1009 C 105.603 3.83781 1.89463 0
M  V30 1010 C 104.929 4.26127 3.22986 0
M  V30 1011 C 106.229 5.08238 1.20381 0
M  V30 1012 H 107.923 2.96488 0.416529 0
M  V30 1013 H 105.469 1.4262 0.198908 0
M  V30 1014 H 107.422 3.10458 2.84945 0
M  V30 1015 H 106.146 1.87426 2.67468 0
M  V30 1016 H 104.805 3.45051 1.23836 0
M  V30 1017 H 104.453 3.39249 3.71374 0
M  V30 1018 H 104.153 5.01993 3.05413 0
M  V30 1019 H 105.677 4.67966 3.92225 0
M  V30 1020 H 107.091 5.44811 1.78475 0
M  V30 1021 H 105.488 5.89349 1.13083 0
M  V30 1022 H 106.558 4.84558 0.182153 0
M  V30 1023 N 107.901 -0.206675 1.56239 0
M  V30 1024 C 109.312 -0.772383 1.69974 0
M  V30 1025 C 109.663 -1.84353 0.671436 0
M  V30 1026 O 108.788 -2.15695 -0.174491 0
M  V30 1027 C 109.383 -1.40779 3.08167 0
M  V30 1028 C 107.942 -1.92072 3.23706 0
M  V30 1029 C 107.089 -0.786347 2.65917 0
M  V30 1030 H 110.04 0.0182223 1.5869 0
M  V30 1031 H 110.061 -2.27696 3.04852 0
M  V30 1032 H 109.573 -0.627958 3.82986 0
M  V30 1033 H 107.674 -2.7281 2.53782 0
M  V30 1034 H 107.787 -2.09046 4.31087 0
M  V30 1035 H 106.151 -1.1976 2.24788 0
M  V30 1036 H 106.934 -0.0189416 3.43295 0
M  V30 1037 N 109.379 -1.50304 -0.473955 0
M  V30 1038 C 110.289 -1.7174 -1.5982 0
M  V30 1039 C 111.305 -0.600457 -1.63311 0
M  V30 1040 O 112.481 -0.878441 -1.81233 0
M  V30 1041 C 109.546 -1.80427 -2.96052 0
M  V30 1042 C 108.607 -3.04148 -3.02972 0
M  V30 1043 C 107.84 -3.12411 -4.32706 0
M  V30 1044 O 108.063 -2.27542 -5.23049 0
M  V30 1045 O 106.997 -4.05113 -4.45159 0
M  V30 1046 H 110.823 -2.67035 -1.44657 0
M  V30 1047 H 108.408 -1.34366 -0.653148 0
M  V30 1048 H 110.29 -1.88338 -3.7697 0
M  V30 1049 H 108.965 -0.883156 -3.11419 0
M  V30 1050 H 107.872 -3.0174 -2.21142 0
M  V30 1051 H 109.205 -3.95829 -2.92541 0
M  V30 1052 N 110.857 0.726932 -1.39834 0
M  V30 1053 C 111.789 1.85147 -1.35104 0
M  V30 1054 C 112.802 1.60736 -0.258392 0
M  V30 1055 O 113.991 1.70821 -0.517931 0
M  V30 1056 C 111.091 3.21332 -1.07697 0
M  V30 1057 C 110.264 3.73033 -2.28396 0
M  V30 1058 C 109.323 4.87802 -1.97322 0
M  V30 1059 O 108.349 5.01043 -2.70083 0
M  V30 1060 N 109.551 5.72768 -0.944273 0
M  V30 1061 H 112.316 1.89706 -2.32017 0
M  V30 1062 H 109.877 0.908006 -1.3404 0
M  V30 1063 H 111.869 3.95691 -0.849144 0
M  V30 1064 H 110.439 3.11992 -0.194909 0
M  V30 1065 H 109.659 2.89934 -2.6708 0
M  V30 1066 H 110.947 4.0431 -3.08887 0
M  V30 1067 H 110.345 5.64669 -0.341427 0
M  V30 1068 H 108.902 6.4716 -0.776346 0
M  V30 1069 N 112.336 1.25143 0.95797 0
M  V30 1070 C 113.747 1.08851 1.51685 0
M  V30 1071 C 114.098 -0.33687 1.93286 0
M  V30 1072 O 113.223 -1.22644 1.7829 0
M  V30 1073 C 113.818 1.96978 2.75654 0
M  V30 1074 C 112.377 1.84881 3.27866 0
M  V30 1075 C 111.524 1.91329 2.0072 0
M  V30 1076 H 114.475 1.38478 0.77522 0
M  V30 1077 H 114.496 1.5078 3.4935 0
M  V30 1078 H 114.008 3.00712 2.45345 0
M  V30 1079 H 112.109 0.840182 3.63004 0
M  V30 1080 H 112.222 2.6951 3.96107 0
M  V30 1081 H 110.586 1.35174 2.15871 0
M  V30 1082 H 111.369 2.96661 1.72764 0
M  V30 1083 N 113.814 -1.1601 1.06675 0
M  V30 1084 C 114.744 -2.22688 0.702307 0
M  V30 1085 C 115.725 -1.67306 -0.307032 0
M  V30 1086 O 116.91 -1.93352 -0.181305 0
M  V30 1087 C 114.04 -3.47178 0.092038 0
M  V30 1088 C 112.994 -4.15477 1.02777 0
M  V30 1089 C 112.32 -5.33963 0.28061 0
M  V30 1090 C 113.62 -4.66019 2.35846 0
M  V30 1091 H 115.314 -2.53429 1.59419 0
M  V30 1092 H 112.86 -1.21813 0.767961 0
M  V30 1093 H 114.813 -4.21037 -0.174814 0
M  V30 1094 H 113.537 -3.15749 -0.834877 0
M  V30 1095 H 112.196 -3.43549 1.27944 0
M  V30 1096 H 111.844 -4.98788 -0.649545 0
M  V30 1097 H 111.544 -5.806 0.904258 0
M  V30 1098 H 113.068 -6.10596 0.021396 0
M  V30 1099 H 114.482 -5.3144 2.15045 0
M  V30 1100 H 112.879 -5.23293 2.93743 0
M  V30 1101 H 113.949 -3.82023 2.98641 0
M  V30 1102 N 115.292 -0.849877 -1.32721 0
M  V30 1103 C 116.539 -0.450923 -1.97416 0
M  V30 1104 C 116.867 0.992376 -1.67279 0
M  V30 1105 O 116.122 1.71048 -0.950845 0
M  V30 1106 C 116.421 -0.631272 -3.51781 0
M  V30 1107 C 116.087 -2.04432 -4.01894 0
M  V30 1108 C 114.749 -2.4308 -4.1529 0
M  V30 1109 C 117.101 -2.96679 -4.28522 0
M  V30 1110 C 114.429 -3.73257 -4.52654 0
M  V30 1111 C 116.781 -4.26349 -4.67343 0
M  V30 1112 C 115.445 -4.64939 -4.78945 0
M  V30 1113 H 114.715 -0.165004 -0.722395 0
M  V30 1114 H 117.362 -1.07901 -1.58207 0
M  V30 1115 H 115.667 0.0800767 -3.91718 0
M  V30 1116 H 117.364 -0.302709 -3.99856 0
M  V30 1117 H 113.954 -1.73419 -3.91949 0
M  V30 1118 H 118.138 -2.68054 -4.17685 0
M  V30 1119 H 113.394 -4.02946 -4.59831 0
M  V30 1120 H 117.568 -4.97895 -4.86902 0
M  V30 1121 H 115.195 -5.65855 -5.07654 0
M  V30 1122 N 116.77 1.45427 -0.607355 0
M  V30 1123 C 117.7 2.3329 0.0989352 0
M  V30 1124 C 118.681 1.46816 0.859007 0
M  V30 1125 O 119.866 1.75588 0.829604 0
M  V30 1126 C 116.996 3.29518 1.09705 0
M  V30 1127 C 115.95 4.25626 0.450206 0
M  V30 1128 C 115.276 5.11542 1.55655 0
M  V30 1129 C 116.576 5.18505 -0.628455 0
M  V30 1130 H 118.27 2.92595 -0.634716 0
M  V30 1131 H 115.816 1.40696 -0.306681 0
M  V30 1132 H 117.769 3.89855 1.59971 0
M  V30 1133 H 116.493 2.68372 1.86129 0
M  V30 1134 H 115.152 3.66586 -0.0315886 0
M  V30 1135 H 114.8 4.46765 2.31107 0
M  V30 1136 H 114.5 5.76647 1.12925 0
M  V30 1137 H 116.024 5.74748 2.06148 0
M  V30 1138 H 117.438 5.72916 -0.209877 0
M  V30 1139 H 115.835 5.92085 -0.977489 0
M  V30 1140 H 116.905 4.60948 -1.50514 0
M  V30 1141 N 118.248 0.346503 1.53744 0
M  V30 1142 C 119.211 -0.496439 2.23759 0
M  V30 1143 C 120.211 -1.0252 1.2388 0
M  V30 1144 O 121.401 -0.913974 1.48297 0
M  V30 1145 C 118.533 -1.69187 2.95954 0
M  V30 1146 H 119.726 0.115952 2.99676 0
M  V30 1147 H 117.279 0.0978939 1.55993 0
M  V30 1148 H 118.014 -2.34288 2.24231 0
M  V30 1149 H 117.799 -1.31989 3.69217 0
M  V30 1150 H 119.289 -2.28969 3.49232 0
M  V30 1151 N 119.726 -1.57421 0.075193 0
M  V30 1152 C 120.689 -2.11791 -0.876203 0
M  V30 1153 C 121.689 -1.04268 -1.22412 0
M  V30 1154 O 122.879 -1.30242 -1.15684 0
M  V30 1155 C 120.011 -2.62207 -2.17854 0
M  V30 1156 H 121.204 -2.9716 -0.40444 0
M  V30 1157 H 118.757 -1.55333 -0.173557 0
M  V30 1158 H 119.492 -1.803 -2.6956 0
M  V30 1159 H 119.277 -3.40802 -1.93897 0
M  V30 1160 H 120.767 -3.04335 -2.85955 0
M  V30 1161 N 121.204 0.198386 -1.56346 0
M  V30 1162 C 122.429 0.939682 -1.84891 0
M  V30 1163 C 122.854 1.76202 -0.658369 0
M  V30 1164 O 122.212 1.76993 0.392851 0
M  V30 1165 C 122.26 1.81428 -3.11635 0
M  V30 1166 O 121.364 2.91265 -2.91956 0
M  V30 1167 H 120.705 0.264807 -0.608912 0
M  V30 1168 H 123.235 0.204695 -2.03573 0
M  V30 1169 H 123.245 2.21958 -3.42343 0
M  V30 1170 H 121.92 1.21004 -3.97908 0
M  V30 1171 H 120.497 2.54514 -2.72538 0
M  V30 1172 N 122.682 1.50554 0.465978 0
M  V30 1173 C 124.093 1.54599 1.04671 0
M  V30 1174 C 124.444 0.352488 1.93008 0
M  V30 1175 O 123.569 -0.534044 2.09707 0
M  V30 1176 C 124.164 2.80166 1.90505 0
M  V30 1177 C 122.723 2.86876 2.43678 0
M  V30 1178 C 121.87 2.48947 1.22151 0
M  V30 1179 H 124.821 1.56744 0.248384 0
M  V30 1180 H 124.842 2.62311 2.75633 0
M  V30 1181 H 124.354 3.67013 1.26186 0
M  V30 1182 H 122.455 2.04393 3.11536 0
M  V30 1183 H 122.568 3.89885 2.78436 0
M  V30 1184 H 120.932 2.01498 1.5579 0
M  V30 1185 H 121.715 3.38107 0.594866 0
M  V30 1186 N 124.16 -0.719506 1.40217 0
M  V30 1187 C 125.571 -1.29848 1.34151 0
M  V30 1188 C 125.922 -1.96196 0.0131349 0
M  V30 1189 O 125.047 -1.973 -0.88892 0
M  V30 1190 C 125.642 -2.36118 2.42968 0
M  V30 1191 C 124.201 -2.8965 2.40374 0
M  V30 1192 C 123.348 -1.63393 2.24049 0
M  V30 1193 H 126.299 -0.51591 1.5008 0
M  V30 1194 H 126.32 -3.16871 2.10649 0
M  V30 1195 H 125.832 -1.878 3.39636 0
M  V30 1196 H 123.933 -3.42208 1.47392 0
M  V30 1197 H 124.046 -3.4171 3.35814 0
M  V30 1198 H 122.41 -1.88312 1.71495 0
M  V30 1199 H 123.193 -1.17104 3.2271 0
M  V30 1200 N 125.638 -1.25649 -0.95132 0
M  V30 1201 C 126.601 -1.06399 -2.03007 0
M  V30 1202 C 127.601 -0.0156794 -1.60792 0
M  V30 1203 O 128.791 -0.25817 -1.72276 0
M  V30 1204 C 125.923 -0.616184 -3.35285 0
M  V30 1205 H 127.116 -2.02164 -2.21517 0
M  V30 1206 H 124.669 -1.08103 -1.12887 0
M  V30 1207 H 125.404 0.343917 -3.22471 0
M  V30 1208 H 125.189 -1.37301 -3.67275 0
M  V30 1209 H 126.679 -0.503032 -4.14559 0
M  V30 1210 N 127.117 1.15442 -1.07289 0
M  V30 1211 C 128.342 1.90638 -0.816828 0
M  V30 1212 C 128.767 1.77445 0.624083 0
M  V30 1213 O 128.125 1.10671 1.43602 0
M  V30 1214 C 128.173 3.39008 -1.22906 0
M  V30 1215 O 127.277 4.10701 -0.373975 0
M  V30 1216 H 126.618 0.593555 -0.297638 0
M  V30 1217 H 129.148 1.46198 -1.43134 0
M  V30 1218 H 129.158 3.89801 -1.20497 0
M  V30 1219 H 127.833 3.47929 -2.27856 0
M  V30 1220 H 126.41 3.70046 -0.460499 0
M  V30 1221 N 128.595 0.856903 1.32268 0
M  V30 1222 C 129.82 0.474569 2.01897 0
M  V30 1223 C 130.245 -0.921766 1.63967 0
M  V30 1224 O 129.603 -1.60589 0.84148 0
M  V30 1225 C 129.651 0.623799 3.55164 0
M  V30 1226 O 128.755 -0.342459 4.10976 0
M  V30 1227 H 128.096 0.190422 0.63611 0
M  V30 1228 H 130.626 1.15672 1.68764 0
M  V30 1229 H 130.636 0.512169 4.04773 0
M  V30 1230 H 129.311 1.64202 3.82113 0
M  V30 1231 H 127.888 -0.18688 3.72431 0
M  V30 1232 N 130.073 -1.45103 0.615059 0
M  V30 1233 C 131.301 -2.06553 0.11977 0
M  V30 1234 C 131.716 -1.45842 -1.19898 0
M  V30 1235 O 131.073 -0.575325 -1.73194 0
M  V30 1236 C 131.124 -3.61495 -0.018364 0
M  V30 1237 O 130.845 -4.19942 1.24822 0
M  V30 1238 C 132.346 -4.39947 -0.544237 0
M  V30 1239 H 129.566 -0.667096 0.0722739 0
M  V30 1240 H 132.11 -1.8623 0.84491 0
M  V30 1241 H 130.265 -3.81135 -0.693865 0
M  V30 1242 H 130.679 -5.13204 1.0827 0
M  V30 1243 H 132.153 -5.48838 -0.589953 0
M  V30 1244 H 132.63 -4.10255 -1.56805 0
M  V30 1245 H 133.236 -4.25188 0.0974703 0
M  V30 1246 N 131.551 -0.354651 -1.53558 0
M  V30 1247 C 132.776 0.242153 -2.05981 0
M  V30 1248 C 133.201 1.42553 -1.2272 0
M  V30 1249 O 132.559 1.79656 -0.243604 0
M  V30 1250 C 132.607 0.624367 -3.55154 0
M  V30 1251 O 131.711 1.72301 -3.74681 0
M  V30 1252 H 131.052 0.0378432 -0.662921 0
M  V30 1253 H 133.582 -0.512087 -1.98088 0
M  V30 1254 H 133.592 0.898433 -3.97985 0
M  V30 1255 H 132.267 -0.240989 -4.15201 0
M  V30 1256 H 130.844 1.44535 -3.4375 0
M  V30 1257 N 133.029 1.57378 -0.0835403 0
M  V30 1258 C 134.44 1.81261 0.447358 0
M  V30 1259 C 134.791 0.998331 1.68902 0
M  V30 1260 O 133.916 0.224282 2.15235 0
M  V30 1261 C 134.511 3.28767 0.818386 0
M  V30 1262 C 133.07 3.53455 1.29409 0
M  V30 1263 C 132.217 2.75831 0.285024 0
M  V30 1264 H 135.168 1.5566 -0.309115 0
M  V30 1265 H 135.189 3.41459 1.67887 0
M  V30 1266 H 134.701 3.88006 -0.0855019 0
M  V30 1267 H 132.802 2.99534 2.21608 0
M  V30 1268 H 132.915 4.62128 1.2639 0
M  V30 1269 H 131.279 2.42947 0.764767 0
M  V30 1270 H 132.062 3.37813 -0.611341 0
M  V30 1271 N 134.507 -0.190092 1.56449 0
M  V30 1272 C 135.732 -0.929864 1.85387 0
M  V30 1273 C 136.157 -1.7585 0.667704 0
M  V30 1274 O 135.515 -1.77198 -0.383459 0
M  V30 1275 C 135.563 -1.79773 3.12593 0
M  V30 1276 O 134.667 -2.89713 2.93496 0
M  V30 1277 H 134.008 -0.261574 0.610307 0
M  V30 1278 H 136.538 -0.193896 2.03679 0
M  V30 1279 H 136.548 -2.20139 3.43515 0
M  V30 1280 H 135.223 -1.18892 3.98544 0
M  V30 1281 H 133.8 -2.53065 2.73884 0
M  V30 1282 N 135.985 -1.50799 -0.457987 0
M  V30 1283 C 137.396 -1.55152 -1.0385 0
M  V30 1284 C 137.747 -0.362719 -1.92818 0
M  V30 1285 O 136.872 0.522915 -2.09987 0
M  V30 1286 C 137.467 -2.81173 -1.89017 0
M  V30 1287 C 136.026 -2.88164 -2.42154 0
M  V30 1288 C 135.173 -2.49591 -1.20829 0
M  V30 1289 H 138.124 -1.56874 -0.240068 0
M  V30 1290 H 138.145 -2.63769 -2.74238 0
M  V30 1291 H 137.657 -3.67677 -1.24238 0
M  V30 1292 H 135.758 -2.06042 -3.10447 0
M  V30 1293 H 135.871 -3.91356 -2.76364 0
M  V30 1294 H 134.235 -2.02322 -1.54719 0
M  V30 1295 H 135.018 -3.38418 -0.576927 0
M  V30 1296 N 137.463 0.71206 -1.40597 0
M  V30 1297 C 138.373 1.8562 -1.43466 0
M  V30 1298 C 139.389 1.70902 -0.326902 0
M  V30 1299 O 140.565 1.93105 -0.572043 0
M  V30 1300 C 137.63 3.21451 -1.29884 0
M  V30 1301 C 136.691 3.48398 -2.50833 0
M  V30 1302 C 135.924 4.77749 -2.3789 0
M  V30 1303 O 136.147 5.53089 -1.39459 0
M  V30 1304 O 135.081 5.05111 -3.27333 0
M  V30 1305 H 138.907 1.86155 -2.39958 0
M  V30 1306 H 136.492 0.86295 -1.21957 0
M  V30 1307 H 138.374 4.02579 -1.24531 0
M  V30 1308 H 137.049 3.21636 -0.364997 0
M  V30 1309 H 135.956 2.67265 -2.61763 0
M  V30 1310 H 137.289 3.53014 -3.4299 0
M  V30 1311 N 138.941 1.26152 0.944643 0
M  V30 1312 C 140.352 1.10454 1.50522 0
M  V30 1313 C 140.703 -0.31635 1.93633 0
M  V30 1314 O 139.828 -1.20746 1.79581 0
M  V30 1315 C 140.423 1.99891 2.73549 0
M  V30 1316 C 138.982 1.88348 3.25886 0
M  V30 1317 C 138.129 1.93447 1.9868 0
M  V30 1318 H 141.08 1.39292 0.760489 0
M  V30 1319 H 141.101 1.54477 3.47732 0
M  V30 1320 H 140.613 3.03297 2.42141 0
M  V30 1321 H 138.714 0.878636 3.62092 0
M  V30 1322 H 138.827 2.73696 3.93227 0
M  V30 1323 H 137.191 1.37456 2.14425 0
M  V30 1324 H 137.974 2.98476 1.69607 0
M  V30 1325 N 140.419 -1.14872 1.07899 0
M  V30 1326 C 141.382 -2.17986 0.708161 0
M  V30 1327 C 142.382 -1.58775 -0.25442 0
M  V30 1328 O 143.572 -1.74166 -0.034645 0
M  V30 1329 C 140.704 -3.40871 0.0446929 0
M  V30 1330 H 141.897 -2.52306 1.62116 0
M  V30 1331 H 139.45 -1.2943 0.876218 0
M  V30 1332 H 140.185 -3.12124 -0.880281 0
M  V30 1333 H 139.97 -3.8511 0.737091 0
M  V30 1334 H 141.46 -4.17121 -0.19991 0
M  V30 1335 N 141.898 -0.863906 -1.31812 0
M  V30 1336 C 143.175 -0.39275 -1.91616 0
M  V30 1337 C 143.555 1.12461 -1.7865 0
M  V30 1338 O 142.903 1.95045 -1.19037 0
M  V30 1339 C 143.113 -0.867385 -3.38049 0
M  V30 1340 C 144.461 -0.889966 -4.15168 0
M  V30 1341 O 145.485 -0.812635 -3.46806 0
M  V30 1342 O 144.344 -1.00079 -5.37258 0
M  V30 1343 H 141.438 -0.116358 -0.818773 0
M  V30 1344 H 143.984 -0.951418 -1.40521 0
M  V30 1345 H 142.756 -1.91081 -3.41473 0
M  V30 1346 H 142.379 -0.286687 -3.96565 0
M  V30 1347 N 143.376 1.44774 -0.622745 0
M  V30 1348 C 144.339 2.29069 0.0774015 0
M  V30 1349 C 145.339 1.4059 0.780461 0
M  V30 1350 O 146.529 1.62551 0.626322 0
M  V30 1351 C 143.661 3.21974 1.12006 0
M  V30 1352 H 144.854 2.92459 -0.663901 0
M  V30 1353 H 142.407 1.51548 -0.382486 0
M  V30 1354 H 143.142 2.63417 1.89162 0
M  V30 1355 H 142.927 3.87168 0.619951 0
M  V30 1356 H 144.417 3.85318 1.60995 0
M  V30 1357 N 144.854 0.36279 1.53368 0
M  V30 1358 C 145.817 -0.472679 2.24273 0
M  V30 1359 C 146.817 -1.012 1.24961 0
M  V30 1360 O 148.007 -0.898194 1.49259 0
M  V30 1361 C 145.139 -1.66039 2.97731 0
M  V30 1362 H 146.332 0.14773 2.99536 0
M  V30 1363 H 143.885 0.114434 1.55881 0
M  V30 1364 H 144.62 -2.31896 2.26704 0
M  V30 1365 H 144.405 -1.28066 3.70596 0
M  V30 1366 H 145.895 -2.25252 3.51641 0
M  V30 1367 N 146.332 -1.57332 0.0918853 0
M  V30 1368 C 147.58 -1.93853 -0.571446 0
M  V30 1369 C 147.901 -0.974212 -1.6892 0
M  V30 1370 O 147.171 -0.0257254 -1.95883 0
M  V30 1371 H 145.751 -0.715666 -0.214082 0
M  V30 1372 H 148.413 -1.94287 0.154464 0
M  V30 1373 H 147.509 -2.96191 -0.983729 0
M  V30 1374 N 147.81 0.181792 -1.56548 0
M  V30 1375 C 149.035 0.920019 -1.85877 0
M  V30 1376 C 149.46 1.75494 -0.677021 0
M  V30 1377 O 148.818 1.77399 0.374056 0
M  V30 1378 C 148.866 1.78112 -3.13542 0
M  V30 1379 O 147.97 2.88152 -2.95029 0
M  V30 1380 H 147.311 0.258334 -0.611686 0
M  V30 1381 H 149.841 0.183092 -2.03779 0
M  V30 1382 H 149.851 2.18314 -3.44678 0
M  V30 1383 H 148.526 1.16777 -3.99169 0
M  V30 1384 H 147.103 2.51609 -2.75222 0
M  V30 1385 N 149.288 1.51039 0.449983 0
M  V30 1386 C 150.536 1.62759 1.19808 0
M  V30 1387 C 150.857 0.339981 1.92013 0
M  V30 1388 O 150.127 -0.643606 1.85026 0
M  V30 1389 H 148.707 0.599811 0.445237 0
M  V30 1390 H 151.369 1.87914 0.517138 0
M  V30 1391 H 150.465 2.44911 1.93455 0
M  V30 1392 N 150.766 -0.704594 1.40972 0
M  V30 1393 C 151.994 -1.49354 1.43182 0
M  V30 1394 C 152.409 -1.88768 0.0345508 0
M  V30 1395 O 151.766 -1.56184 -0.944081 0
M  V30 1396 C 151.817 -2.76187 2.33244 0
M  V30 1397 O 151.538 -2.38436 3.67532 0
M  V30 1398 C 153.039 -3.7 2.44162 0
M  V30 1399 H 150.259 -0.460559 0.487982 0
M  V30 1400 H 152.803 -0.868261 1.85153 0
M  V30 1401 H 150.958 -3.34974 1.94606 0
M  V30 1402 H 151.372 -3.20126 4.15475 0
M  V30 1403 H 152.846 -4.55803 3.11364 0
M  V30 1404 H 153.323 -4.13867 1.47006 0
M  V30 1405 H 153.929 -3.17121 2.83398 0
M  V30 1406 N 152.244 -1.26651 -0.937939 0
M  V30 1407 C 153.492 -1.12165 -1.68118 0
M  V30 1408 C 153.813 0.334983 -1.92101 0
M  V30 1409 O 153.083 1.23583 -1.52 0
M  V30 1410 H 151.663 -0.412093 -0.623048 0
M  V30 1411 H 154.325 -1.59027 -1.12678 0
M  V30 1412 H 153.421 -1.64289 -2.6536 0
M  V30 1413 N 153.722 1.14298 -1.08507 0
M  V30 1414 C 154.969 1.85359 -0.815373 0
M  V30 1415 C 155.297 1.83001 0.658865 0
M  V30 1416 O 154.552 1.25655 1.50031 0
M  V30 1417 C 154.851 3.33547 -1.28379 0
M  V30 1418 C 154.517 3.56093 -2.76602 0
M  V30 1419 C 153.179 3.61955 -3.17084 0
M  V30 1420 C 155.531 3.64834 -3.72217 0
M  V30 1421 C 152.859 3.74082 -4.51973 0
M  V30 1422 C 155.211 3.78487 -5.06883 0
M  V30 1423 C 153.875 3.82598 -5.46969 0
M  V30 1424 H 153.145 0.678276 -0.298366 0
M  V30 1425 H 155.792 1.35002 -1.35819 0
M  V30 1426 H 154.097 3.86191 -0.660593 0
M  V30 1427 H 155.794 3.86959 -1.05186 0
M  V30 1428 H 152.384 3.52179 -2.4427 0
M  V30 1429 H 156.568 3.59595 -3.42061 0
M  V30 1430 H 151.824 3.75527 -4.82483 0
M  V30 1431 H 155.998 3.84193 -5.80834 0
M  V30 1432 H 153.625 3.91747 -6.51489 0
M  V30 1433 N 155.201 0.870884 1.31352 0
M  V30 1434 C 156.133 0.28455 2.27427 0
M  V30 1435 C 157.146 -0.552927 1.53123 0
M  V30 1436 O 158.335 -0.374771 1.74521 0
M  V30 1437 C 155.435 -0.615164 3.3327 0
M  V30 1438 C 154.608 0.190079 4.36987 0
M  V30 1439 C 153.667 -0.637917 5.22319 0
M  V30 1440 O 152.693 -0.065626 5.69162 0
M  V30 1441 N 153.895 -1.94973 5.46778 0
M  V30 1442 H 156.66 1.11017 2.7838 0
M  V30 1443 H 154.221 0.732458 1.44384 0
M  V30 1444 H 156.213 -1.1748 3.87273 0
M  V30 1445 H 154.783 -1.34146 2.82354 0
M  V30 1446 H 154.003 0.931165 3.83044 0
M  V30 1447 H 155.291 0.742579 5.03352 0
M  V30 1448 H 154.689 -2.4378 5.10478 0
M  V30 1449 H 153.246 -2.45713 6.03712 0
M  V30 1450 N 156.679 -1.44442 0.630414 0
M  V30 1451 C 158.09 -1.85434 0.217063 0
M  V30 1452 C 158.441 -1.52748 -1.23136 0
M  V30 1453 O 157.566 -0.965205 -1.93682 0
M  V30 1454 C 158.161 -3.36581 0.387168 0
M  V30 1455 C 156.72 -3.76389 0.0283297 0
M  V30 1456 C 155.867 -2.68296 0.700889 0
M  V30 1457 H 158.818 -1.34919 0.83562 0
M  V30 1458 H 158.839 -3.78657 -0.374086 0
M  V30 1459 H 158.351 -3.60339 1.44144 0
M  V30 1460 H 156.452 -3.58246 -1.02423 0
M  V30 1461 H 156.565 -4.77095 0.437892 0
M  V30 1462 H 154.929 -2.54335 0.136267 0
M  V30 1463 H 155.712 -2.94887 1.75774 0
M  V30 1464 N 158.157 -0.370918 -1.53173 0
M  V30 1465 C 159.403 0.217423 -2.01631 0
M  V30 1466 C 159.736 1.47983 -1.25756 0
M  V30 1467 O 159.011 1.91274 -0.352764 0
M  V30 1468 C 159.294 0.503982 -3.56556 0
M  V30 1469 C 159.147 -0.77243 -4.43118 0
M  V30 1470 C 160.466 1.30234 -4.20389 0
M  V30 1471 H 157.585 0.0775486 -0.732909 0
M  V30 1472 H 160.227 -0.496863 -1.83388 0
M  V30 1473 H 158.377 1.11248 -3.72231 0
M  V30 1474 H 160.049 -1.4098 -4.39229 0
M  V30 1475 H 158.292 -1.39167 -4.10871 0
M  V30 1476 H 158.963 -0.526815 -5.4948 0
M  V30 1477 H 161.439 0.787546 -4.08579 0
M  V30 1478 H 160.315 1.47158 -5.28806 0
M  V30 1479 H 160.576 2.31237 -3.76805 0
M  V30 1480 N 159.635 1.57281 -0.100228 0
M  V30 1481 C 160.598 2.13158 0.842398 0
M  V30 1482 C 161.598 1.06202 1.20738 0
M  V30 1483 O 162.788 1.32066 1.13597 0
M  V30 1484 C 159.92 2.65639 2.13655 0
M  V30 1485 H 161.113 2.97766 0.357114 0
M  V30 1486 H 158.666 1.5559 0.148823 0
M  V30 1487 H 159.401 1.84566 2.66657 0
M  V30 1488 H 159.186 3.43844 1.88451 0
M  V30 1489 H 160.676 3.08846 2.81077 0
M  V30 1490 N 161.113 -0.173488 1.56642 0
M  V30 1491 C 162.359 -0.891784 1.8214 0
M  V30 1492 C 162.692 -1.8199 0.677736 0
M  V30 1493 O 161.967 -1.91842 -0.320446 0
M  V30 1494 C 162.25 -1.68933 3.18015 0
M  V30 1495 C 162.103 -0.784487 4.42906 0
M  V30 1496 C 163.422 -2.65748 3.50808 0
M  V30 1497 H 160.541 -0.322761 0.662567 0
M  V30 1498 H 163.183 -0.158095 1.89341 0
M  V30 1499 H 161.333 -2.31482 3.12007 0
M  V30 1500 H 163.005 -0.172046 4.60979 0
M  V30 1501 H 161.248 -0.0924117 4.33702 0
M  V30 1502 H 161.919 -1.37799 5.34524 0
M  V30 1503 H 164.395 -2.13327 3.57255 0
M  V30 1504 H 163.271 -3.18619 4.4696 0
M  V30 1505 H 163.532 -3.45842 2.75401 0
M  V30 1506 N 162.591 -1.51276 -0.441967 0
M  V30 1507 C 164.002 -1.56244 -1.02199 0
M  V30 1508 C 164.353 -0.383149 -1.92422 0
M  V30 1509 O 163.478 0.500613 -2.1053 0
M  V30 1510 C 164.073 -2.83162 -1.86024 0
M  V30 1511 C 162.632 -2.90716 -2.39084 0
M  V30 1512 C 161.779 -2.50858 -1.18175 0
M  V30 1513 H 164.73 -1.5712 -0.223416 0
M  V30 1514 H 164.751 -2.66663 -2.71425 0
M  V30 1515 H 164.263 -3.68974 -1.20331 0
M  V30 1516 H 162.364 -2.09323 -3.08244 0
M  V30 1517 H 162.477 -3.94266 -2.72198 0
M  V30 1518 H 160.841 -2.03951 -1.52565 0
M  V30 1519 H 161.624 -3.3901 -0.541001 0
M  V30 1520 N 164.069 0.697108 -1.41344 0
M  V30 1521 C 165.48 1.27697 -1.36199 0
M  V30 1522 C 165.831 1.9615 -0.0443463 0
M  V30 1523 O 164.956 1.98689 0.857419 0
M  V30 1524 C 165.551 2.32223 -2.46694 0
M  V30 1525 C 164.11 2.8579 -2.44952 0
M  V30 1526 C 163.257 1.59807 -2.26621 0
M  V30 1527 H 166.208 0.491968 -1.50882 0
M  V30 1528 H 166.229 3.1348 -2.15664 0
M  V30 1529 H 165.741 1.82373 -3.42581 0
M  V30 1530 H 163.842 3.3982 -1.52817 0
M  V30 1531 H 163.955 3.36325 -3.41207 0
M  V30 1532 H 162.319 1.8556 -1.7447 0
M  V30 1533 H 163.102 1.11956 -3.24532 0
M  V30 1534 N 165.547 1.27147 0.931209 0
M  V30 1535 C 166.958 1.12044 1.49342 0
M  V30 1536 C 167.309 -0.295795 1.93957 0
M  V30 1537 O 166.434 -1.18835 1.80852 0
M  V30 1538 C 167.029 2.02781 2.71414 0
M  V30 1539 C 165.588 1.91794 3.2387 0
M  V30 1540 C 164.735 1.95543 1.96617 0
M  V30 1541 H 167.686 1.40091 0.745672 0
M  V30 1542 H 167.707 1.58156 3.46074 0
M  V30 1543 H 167.219 3.05848 2.38911 0
M  V30 1544 H 165.32 0.916992 3.6114 0
M  V30 1545 H 165.433 2.77852 3.90302 0
M  V30 1546 H 163.797 1.39722 2.12955 0
M  V30 1547 H 164.58 3.00259 1.66432 0
M  V30 1548 N 167.025 -1.13721 1.09112 0
M  V30 1549 C 167.975 -2.17082 0.697091 0
M  V30 1550 C 168.959 -1.58321 -0.286923 0
M  V30 1551 O 170.151 -1.7673 -0.0978008 0
M  V30 1552 C 167.28 -3.43105 0.115729 0
M  V30 1553 C 166.366 -4.0888 1.12596 0
M  V30 1554 N 166.757 -4.4987 2.31195 0
M  V30 1555 C 165.055 -4.35471 0.963366 0
M  V30 1556 C 165.756 -5.01094 2.95431 0
M  V30 1557 N 164.732 -4.95751 2.23006 0
M  V30 1558 H 168.534 -2.46524 1.6001 0
M  V30 1559 H 166.048 -1.30481 0.966869 0
M  V30 1560 H 168.045 -4.16491 -0.184555 0
M  V30 1561 H 166.705 -3.15138 -0.78217 0
M  V30 1562 H 167.716 -4.42678 2.68806 0
M  V30 1563 H 164.393 -4.17328 0.119878 0
M  V30 1564 H 165.783 -5.4263 3.96236 0
M  V30 1565 N 168.503 -0.877838 -1.30888 0
M  V30 1566 C 169.751 -0.491723 -1.96027 0
M  V30 1567 C 170.072 0.960827 -1.69685 0
M  V30 1568 O 169.342 1.67462 -1.01654 0
M  V30 1569 H 167.922 -0.17885 -0.725273 0
M  V30 1570 H 170.584 -1.11935 -1.59551 0
M  V30 1571 H 169.68 -0.656016 -3.05128 0
M  V30 1572 N 169.982 1.44106 -0.638065 0
M  V30 1573 C 170.945 2.29138 0.0531013 0
M  V30 1574 C 171.945 1.41409 0.765506 0
M  V30 1575 O 173.135 1.63206 0.609046 0
M  V30 1576 C 170.267 3.23144 1.08584 0
M  V30 1577 H 171.46 2.91739 -0.694883 0
M  V30 1578 H 169.013 1.51134 -0.398538 0
M  V30 1579 H 169.748 2.65408 1.86357 0
M  V30 1580 H 169.533 3.87804 0.578852 0
M  V30 1581 H 171.023 3.87004 1.56899 0
M  V30 1582 N 171.46 0.379036 1.52974 0
M  V30 1583 C 172.423 -0.448865 2.24762 0
M  V30 1584 C 173.423 -0.998689 1.26027 0
M  V30 1585 O 174.613 -0.882313 1.50203 0
M  V30 1586 C 171.745 -1.62872 2.99476 0
M  V30 1587 H 172.938 0.179491 2.99362 0
M  V30 1588 H 170.491 0.13096 1.5575 0
M  V30 1589 H 171.226 -2.29479 2.29151 0
M  V30 1590 H 171.011 -1.24128 3.71934 0
M  V30 1591 H 172.501 -2.2151 3.5401 0
M  V30 1592 N 172.938 -1.57226 0.108567 0
M  V30 1593 C 174.163 -1.99604 -0.563303 0
M  V30 1594 C 174.588 -0.987563 -1.6009 0
M  V30 1595 O 173.946 0.0421687 -1.81251 0
M  V30 1596 C 173.994 -3.40902 -1.17552 0
M  V30 1597 O 173.098 -3.42896 -2.2912 0
M  V30 1598 H 172.439 -0.648704 -0.1417 0
M  V30 1599 H 174.969 -2.03679 0.193961 0
M  V30 1600 H 174.979 -3.78886 -1.51357 0
M  V30 1601 H 173.654 -4.1382 -0.415445 0
M  V30 1602 H 172.231 -3.1672 -1.96832 0
M  V30 1603 N 174.416 0.165178 -1.56732 0
M  V30 1604 C 175.832 0.517174 -1.50988 0
M  V30 1605 C 176.032 1.84331 -0.813894 0
M  V30 1606 O 175.088 2.49672 -0.37682 0
M  V30 1607 C 176.401 0.544261 -2.95733 0
M  V30 1608 C 177.949 0.631039 -3.06573 0
M  V30 1609 C 178.424 0.68896 -4.52788 0
M  V30 1610 N 179.915 0.751683 -4.5706 0
M  V30 1611 C 180.65 0.817177 -5.67547 0
M  V30 1612 N 180.146 0.843129 -6.8765 0
M  V30 1613 N 181.939 0.856668 -5.55534 0
M  V30 1614 H 174.09 -0.704318 -2.00382 0
M  V30 1615 H 176.353 -0.254687 -0.913148 0
M  V30 1616 H 176.059 -0.361607 -3.49836 0
M  V30 1617 H 175.933 1.3886 -3.5071 0
M  V30 1618 H 178.32 1.52733 -2.52501 0
M  V30 1619 H 178.401 -0.240095 -2.54671 0
M  V30 1620 H 178.045 -0.2031 -5.07494 0
M  V30 1621 H 177.975 1.57633 -5.02454 0
M  V30 1622 H 180.466 0.739661 -3.70591 0
M  V30 1623 H 180.779 0.894448 -7.67606 0
M  V30 1624 H 179.124 0.811304 -6.90248 0
M  V30 1625 H 182.315 0.833437 -4.60621 0
M  V30 1626 H 182.488 0.904247 -6.4166 0
M  V30 1627 N 175.894 1.51508 0.433938 0
M  V30 1628 C 177.142 1.6402 1.18075 0
M  V30 1629 C 177.463 0.360328 1.91642 0
M  V30 1630 O 176.733 -0.623945 1.85698 0
M  V30 1631 H 175.313 0.6045 0.43885 0
M  V30 1632 H 177.975 1.88452 0.497178 0
M  V30 1633 H 177.071 2.46949 1.90847 0
M  V30 1634 N 177.372 -0.689602 1.41712 0
M  V30 1635 C 178.62 -1.4468 1.4111 0
M  V30 1636 C 178.941 -1.94986 0.0232196 0
M  V30 1637 O 178.211 -1.72097 -0.935913 0
M  V30 1638 H 176.791 -0.536847 0.519427 0
M  V30 1639 H 179.453 -0.815825 1.77004 0
M  V30 1640 H 178.549 -2.30706 2.10193 0
M  V30 1641 N 178.85 -1.27639 -0.924453 0
M  V30 1642 C 179.813 -1.10681 -2.00705 0
M  V30 1643 C 180.813 -0.0497823 -1.60723 0
M  V30 1644 O 182.003 -0.294654 -1.7169 0
M  V30 1645 C 179.135 -0.687164 -3.33902 0
M  V30 1646 H 180.328 -2.06817 -2.17179 0
M  V30 1647 H 177.881 -1.10473 -1.10569 0
M  V30 1648 H 178.616 0.275439 -3.23128 0
M  V30 1649 H 178.401 -1.45061 -3.6428 0
M  V30 1650 H 179.891 -0.590853 -4.13399 0
M  V30 1651 N 180.328 1.1314 -1.09713 0
M  V30 1652 C 181.278 2.16709 -0.708593 0
M  V30 1653 C 182.262 1.58471 0.278523 0
M  V30 1654 O 183.454 1.76779 0.088427 0
M  V30 1655 C 180.583 3.43039 -0.133923 0
M  V30 1656 C 179.669 4.08277 -1.14763 0
M  V30 1657 N 180.06 4.48637 -2.33577 0
M  V30 1658 C 178.358 4.34954 -0.986446 0
M  V30 1659 C 179.059 4.9952 -2.98085 0
M  V30 1660 N 178.035 4.94561 -2.25632 0
M  V30 1661 H 181.837 2.45672 -1.61315 0
M  V30 1662 H 179.351 1.29967 -0.973775 0
M  V30 1663 H 181.348 4.16583 0.162465 0
M  V30 1664 H 180.008 3.15549 0.765447 0
M  V30 1665 H 181.019 4.41246 -2.7115 0
M  V30 1666 H 177.696 4.17258 -0.142008 0
M  V30 1667 H 179.086 5.40521 -3.99108 0
M  V30 1668 N 181.806 0.884767 1.30421 0
M  V30 1669 C 182.736 0.367574 2.30589 0
M  V30 1670 C 183.717 -0.549464 1.60981 0
M  V30 1671 O 184.902 -0.46336 1.88591 0
M  V30 1672 C 182.032 -0.418944 3.44764 0
M  V30 1673 C 180.986 0.406316 4.26067 0
M  V30 1674 C 180.312 -0.506793 5.32293 0
M  V30 1675 C 181.612 1.64832 4.95608 0
M  V30 1676 H 183.306 1.20462 2.74097 0
M  V30 1677 H 180.852 0.580695 1.31772 0
M  V30 1678 H 182.805 -0.791395 4.13902 0
M  V30 1679 H 181.529 -1.28964 3.0006 0
M  V30 1680 H 180.188 0.760903 3.58617 0
M  V30 1681 H 179.836 -1.37519 4.83836 0
M  V30 1682 H 179.536 0.0415828 5.87585 0
M  V30 1683 H 181.06 -0.875764 6.04287 0
M  V30 1684 H 182.474 1.34646 5.57264 0
M  V30 1685 H 180.871 2.13688 5.60765 0
M  V30 1686 H 181.941 2.39284 4.21748 0
M  V30 1687 N 183.284 -1.43765 0.645699 0
M  V30 1688 C 184.512 -2.06253 0.163556 0
M  V30 1689 C 184.927 -1.48352 -1.16778 0
M  V30 1690 O 184.284 -0.611932 -1.71935 0
M  V30 1691 C 184.335 -3.61453 0.0583186 0
M  V30 1692 O 184.056 -4.172 1.33702 0
M  V30 1693 C 185.557 -4.41002 -0.450795 0
M  V30 1694 H 182.777 -0.665413 0.0864077 0
M  V30 1695 H 185.321 -1.84396 0.884222 0
M  V30 1696 H 183.476 -3.82522 -0.612865 0
M  V30 1697 H 183.89 -5.10791 1.19131 0
M  V30 1698 H 185.364 -5.49966 -0.473403 0
M  V30 1699 H 185.841 -4.13488 -1.48068 0
M  V30 1700 H 186.447 -4.24886 0.187637 0
M  V30 1701 N 184.763 -0.387143 -1.52771 0
M  V30 1702 C 185.673 0.456442 -2.30117 0
M  V30 1703 C 186.689 1.07342 -1.36944 0
M  V30 1704 O 187.865 1.07971 -1.70013 0
M  V30 1705 C 184.93 1.56957 -3.09136 0
M  V30 1706 C 183.991 0.977916 -4.18014 0
M  V30 1707 C 183.224 2.038 -4.93256 0
M  V30 1708 O 183.447 3.25271 -4.68567 0
M  V30 1709 O 182.381 1.6565 -5.78657 0
M  V30 1710 H 186.207 -0.17359 -3.03203 0
M  V30 1711 H 183.792 -0.150919 -1.48636 0
M  V30 1712 H 185.674 2.21628 -3.58412 0
M  V30 1713 H 184.349 2.18461 -2.38865 0
M  V30 1714 H 183.256 0.294525 -3.72939 0
M  V30 1715 H 184.589 0.407128 -4.90513 0
M  V30 1716 N 186.241 1.57166 -0.116904 0
M  V30 1717 C 187.466 1.999 0.55271 0
M  V30 1718 C 187.891 0.996039 1.59564 0
M  V30 1719 O 187.249 -0.032556 1.81271 0
M  V30 1720 C 187.297 3.4152 1.15742 0
M  V30 1721 O 186.401 3.44106 2.27299 0
M  V30 1722 H 185.742 0.649447 0.138258 0
M  V30 1723 H 188.272 2.03573 -0.204759 0
M  V30 1724 H 188.282 3.79684 1.49346 0
M  V30 1725 H 186.957 4.14034 0.393493 0
M  V30 1726 H 185.534 3.17759 1.9515 0
M  V30 1727 N 187.719 -0.156864 1.56817 0
M  V30 1728 C 188.965 -0.872416 1.83076 0
M  V30 1729 C 189.298 -1.81261 0.697001 0
M  V30 1730 O 188.573 -1.92171 -0.30008 0
M  V30 1731 C 188.856 -1.65551 3.19789 0
M  V30 1732 C 188.709 -0.737467 4.43713 0
M  V30 1733 C 190.028 -2.62012 3.53606 0
M  V30 1734 H 187.147 -0.315715 0.665953 0
M  V30 1735 H 189.789 -0.138004 1.89498 0
M  V30 1736 H 187.939 -2.28159 3.14445 0
M  V30 1737 H 189.611 -0.123143 4.61136 0
M  V30 1738 H 187.854 -0.0464067 4.33775 0
M  V30 1739 H 188.525 -1.32122 5.35955 0
M  V30 1740 H 191.001 -2.09525 3.59497 0
M  V30 1741 H 189.877 -3.13861 4.50314 0
M  V30 1742 H 190.138 -3.42902 2.79053 0
M  V30 1743 N 189.197 -1.51736 -0.425897 0
M  V30 1744 C 190.16 -1.73271 -1.50032 0
M  V30 1745 C 191.16 -0.602639 -1.4908 0
M  V30 1746 O 192.35 -0.87033 -1.509 0
M  V30 1747 C 189.482 -1.79969 -2.89523 0
M  V30 1748 H 190.675 -2.69172 -1.32237 0
M  V30 1749 H 188.228 -1.41899 -0.65532 0
M  V30 1750 H 188.963 -0.859241 -3.1271 0
M  V30 1751 H 188.748 -2.62109 -2.91619 0
M  V30 1752 H 190.238 -1.9843 -3.67444 0
M  V30 1753 N 190.675 0.682077 -1.42076 0
M  V30 1754 C 191.638 1.77756 -1.44691 0
M  V30 1755 C 192.638 1.5726 -0.335535 0
M  V30 1756 O 193.828 1.63686 -0.596037 0
M  V30 1757 C 190.96 3.16301 -1.27146 0
M  V30 1758 H 192.153 1.76826 -2.42224 0
M  V30 1759 H 189.706 0.891012 -1.28416 0
M  V30 1760 H 190.441 3.22862 -0.305075 0
M  V30 1761 H 190.226 3.32581 -2.07683 0
M  V30 1762 H 191.716 3.96241 -1.31843 0
M  V30 1763 N 192.153 1.28127 0.917671 0
M  V30 1764 C 193.564 1.13622 1.48145 0
M  V30 1765 C 193.915 -0.275207 1.9426 0
M  V30 1766 O 193.04 -1.1691 1.82102 0
M  V30 1767 C 193.635 2.05648 2.69248 0
M  V30 1768 C 192.194 1.95219 3.21818 0
M  V30 1769 C 191.341 1.97618 1.94532 0
M  V30 1770 H 194.292 1.40874 0.730772 0
M  V30 1771 H 194.313 1.61818 3.44377 0
M  V30 1772 H 193.825 3.08365 2.35653 0
M  V30 1773 H 191.926 0.955244 3.60147 0
M  V30 1774 H 192.039 2.81976 3.87333 0
M  V30 1775 H 190.403 1.41973 2.11461 0
M  V30 1776 H 191.186 3.02007 1.63238 0
M  V30 1777 N 193.631 -1.12557 1.10312 0
M  V30 1778 C 194.908 -1.80363 0.756878 0
M  V30 1779 C 195.288 -1.97067 -0.756824 0
M  V30 1780 O 194.636 -1.54601 -1.68259 0
M  V30 1781 C 194.846 -3.14812 1.50647 0
M  V30 1782 C 196.194 -3.90029 1.67817 0
M  V30 1783 O 197.218 -3.24464 1.46974 0
M  V30 1784 O 196.077 -5.07652 2.02365 0
M  V30 1785 H 193.171 -0.780667 0.272926 0
M  V30 1786 H 195.717 -1.19404 1.20586 0
M  V30 1787 H 194.489 -2.97936 2.53672 0
M  V30 1788 H 194.112 -3.83478 1.05026 0
M  V30 1789 N 195.109 -0.891671 -1.2995 0
M  V30 1790 C 196.334 -0.527932 -2.00568 0
M  V30 1791 C 196.759 0.877969 -1.66353 0
M  V30 1792 O 196.117 1.58301 -0.883762 0
M  V30 1793 C 196.165 -0.717745 -3.53385 0
M  V30 1794 O 195.269 0.233376 -4.11739 0
M  V30 1795 H 194.61 -0.20722 -0.630837 0
M  V30 1796 H 197.14 -1.20105 -1.65638 0
M  V30 1797 H 197.15 -0.619307 -4.03272 0
M  V30 1798 H 195.825 -1.74276 -3.77625 0
M  V30 1799 H 194.402 0.0880706 -3.72796 0
M  V30 1800 N 196.587 1.43421 -0.653314 0
M  V30 1801 C 197.835 2.01414 -0.166415 0
M  V30 1802 C 198.156 1.51803 1.22397 0
M  V30 1803 O 197.426 0.730693 1.81763 0
M  V30 1804 H 196.006 0.744703 -0.0585319 0
M  V30 1805 H 198.668 1.75629 -0.845003 0
M  V30 1806 H 197.764 3.11734 -0.151111 0
M  V30 1807 N 198.065 0.39524 1.52563 0
M  V30 1808 C 199.028 -0.425001 2.25225 0
M  V30 1809 C 200.028 -0.985266 1.27079 0
M  V30 1810 O 201.218 -0.866332 1.5113 0
M  V30 1811 C 198.35 -1.59686 3.01186 0
M  V30 1812 H 199.543 0.211233 2.99155 0
M  V30 1813 H 197.096 0.147472 1.55603 0
M  V30 1814 H 197.831 -2.27035 2.31572 0
M  V30 1815 H 197.616 -1.20176 3.73229 0
M  V30 1816 H 199.106 -2.17743 3.5634 0
M  V30 1817 N 199.544 -1.57102 0.125237 0
M  V30 1818 C 200.769 -2.0019 -0.542101 0
M  V30 1819 C 201.194 -1.00449 -1.59034 0
M  V30 1820 O 200.552 0.0229423 -1.81285 0
M  V30 1821 C 200.6 -3.42129 -1.13929 0
M  V30 1822 O 199.704 -3.45307 -2.2547 0
M  V30 1823 H 199.045 -0.650171 -0.134812 0
M  V30 1824 H 201.575 -2.03461 0.215553 0
M  V30 1825 H 201.585 -3.80471 -1.4733 0
M  V30 1826 H 200.26 -4.14237 -0.371531 0
M  V30 1827 H 198.837 -3.1879 -1.93462 0
M  V30 1828 N 201.022 0.148545 -1.56898 0
M  V30 1829 C 202.247 0.880385 -1.87787 0
M  V30 1830 C 202.672 1.74018 -0.714093 0
M  V30 1831 O 202.03 1.78153 0.336343 0
M  V30 1832 C 202.078 1.71422 -3.17249 0
M  V30 1833 O 201.182 2.8183 -3.01074 0
M  V30 1834 H 200.523 0.245301 -0.617028 0
M  V30 1835 H 203.053 0.139826 -2.04122 0
M  V30 1836 H 203.063 2.10954 -3.49231 0
M  V30 1837 H 201.738 1.08284 -4.01556 0
M  V30 1838 H 200.315 2.45715 -2.80497 0
M  V30 1839 N 202.5 1.5196 0.417844 0
M  V30 1840 C 203.911 1.57851 0.997 0
M  V30 1841 C 204.262 0.413714 1.91789 0
M  V30 1842 O 203.387 -0.467057 2.113 0
M  V30 1843 C 203.982 2.86085 1.81496 0
M  V30 1844 C 202.541 2.94483 2.34428 0
M  V30 1845 C 201.688 2.52707 1.14169 0
M  V30 1846 H 204.639 1.57455 0.198392 0
M  V30 1847 H 204.66 2.70947 2.67148 0
M  V30 1848 H 204.172 3.70842 1.14446 0
M  V30 1849 H 202.273 2.142 3.04875 0
M  V30 1850 H 202.386 3.98546 2.65891 0
M  V30 1851 H 200.75 2.06353 1.49301 0
M  V30 1852 H 201.533 3.39828 0.486999 0
M  V30 1853 N 203.978 -0.674533 1.42435 0
M  V30 1854 C 204.941 -1.76986 1.45632 0
M  V30 1855 C 205.941 -1.5708 0.343871 0
M  V30 1856 O 207.131 -1.63367 0.604709 0
M  V30 1857 C 204.263 -3.15623 1.28822 0
M  V30 1858 H 205.456 -1.75539 2.43158 0
M  V30 1859 H 203.009 -0.884189 1.28887 0
M  V30 1860 H 203.744 -3.22696 0.322193 0
M  V30 1861 H 203.529 -3.31475 2.09444 0
M  V30 1862 H 205.019 -3.95537 1.33942 0
M  V30 1863 N 205.456 -1.28612 -0.910864 0
M  V30 1864 C 206.419 -1.12803 -1.9952 0
M  V30 1865 C 207.419 -0.0668264 -1.60661 0
M  V30 1866 O 208.609 -0.312847 -1.71368 0
M  V30 1867 C 205.741 -0.72254 -3.33155 0
M  V30 1868 H 206.934 -2.09109 -2.14973 0
M  V30 1869 H 204.487 -1.11639 -1.09391 0
M  V30 1870 H 205.222 0.241152 -3.23402 0
M  V30 1871 H 205.007 -1.48916 -3.62721 0
M  V30 1872 H 206.497 -0.634666 -4.12749 0
M  V30 1873 N 206.934 1.1197 -1.10907 0
M  V30 1874 C 207.897 2.16031 -0.765707 0
M  V30 1875 C 208.897 1.59393 0.212235 0
M  V30 1876 O 210.087 1.74196 -0.0115441 0
M  V30 1877 C 207.219 3.40632 -0.135053 0
M  V30 1878 H 208.412 2.47919 -1.68748 0
M  V30 1879 H 205.965 1.27061 -0.910226 0
M  V30 1880 H 206.7 3.14348 0.797218 0
M  V30 1881 H 206.485 3.8302 -0.838937 0
M  V30 1882 H 207.975 4.17505 0.0892469 0
M  V30 1883 N 208.412 0.89855 1.29475 0
M  V30 1884 C 209.322 0.379974 2.31502 0
M  V30 1885 C 210.338 -0.524695 1.659 0
M  V30 1886 O 211.514 -0.414551 1.97087 0
M  V30 1887 C 208.579 -0.385138 3.44554 0
M  V30 1888 C 207.64 0.550914 4.2575 0
M  V30 1889 C 206.873 -0.177778 5.33404 0
M  V30 1890 O 207.096 -1.40189 5.52904 0
M  V30 1891 O 206.03 0.479106 5.9999 0
M  V30 1892 H 209.856 1.22639 2.77837 0
M  V30 1893 H 207.441 0.662834 1.33891 0
M  V30 1894 H 209.323 -0.817841 4.13388 0
M  V30 1895 H 207.998 -1.20763 3.0033 0
M  V30 1896 H 206.905 1.03271 3.59564 0
M  V30 1897 H 208.238 1.33979 4.73614 0
M  V30 1898 N 209.89 -1.43072 0.660911 0
M  V30 1899 C 211.301 -1.84932 0.256348 0
M  V30 1900 C 211.652 -1.55325 -1.19868 0
M  V30 1901 O 210.777 -1.00607 -1.91591 0
M  V30 1902 C 211.372 -3.35684 0.458475 0
M  V30 1903 C 209.931 -3.76245 0.108161 0
M  V30 1904 C 209.078 -2.66749 0.757641 0
M  V30 1905 H 212.029 -1.33116 0.864051 0
M  V30 1906 H 212.05 -3.79365 -0.293683 0
M  V30 1907 H 211.562 -3.572 1.51755 0
M  V30 1908 H 209.663 -3.60338 -0.948014 0
M  V30 1909 H 209.776 -4.76058 0.538992 0
M  V30 1910 H 208.14 -2.53989 0.190185 0
M  V30 1911 H 208.923 -2.91092 1.81989 0
M  V30 1912 N 211.368 -0.403325 -1.52352 0
M  V30 1913 C 212.616 0.174003 -2.0135 0
M  V30 1914 C 212.937 1.46139 -1.29106 0
M  V30 1915 O 212.207 1.91448 -0.415253 0
M  V30 1916 H 210.787 0.0672911 -0.743963 0
M  V30 1917 H 213.449 -0.538235 -1.87321 0
M  V30 1918 H 212.545 0.374254 -3.09848 0
M  V30 1919 N 212.846 1.57033 -0.133567 0
M  V30 1920 C 213.756 2.19632 0.824564 0
M  V30 1921 C 214.772 1.17666 1.28182 0
M  V30 1922 O 215.948 1.50193 1.3418 0
M  V30 1923 C 213.013 2.79499 2.05137 0
M  V30 1924 C 212.074 3.96548 1.64464 0
M  V30 1925 C 211.307 4.5355 2.81297 0
M  V30 1926 O 211.53 4.09438 3.97136 0
M  V30 1927 O 210.464 5.44018 2.57542 0
M  V30 1928 H 214.29 3.01991 0.321766 0
M  V30 1929 H 211.875 1.49112 0.0927889 0
M  V30 1930 H 213.757 3.17602 2.7696 0
M  V30 1931 H 212.432 2.00162 2.54395 0
M  V30 1932 H 211.339 3.63186 0.897048 0
M  V30 1933 H 212.672 4.77364 1.19934 0
M  V30 1934 N 214.325 -0.140222 1.56975 0
M  V30 1935 C 215.272 -1.17292 1.98774 0
M  V30 1936 C 216.242 -1.4232 0.856408 0
M  V30 1937 O 217.427 -1.54541 1.119 0
M  V30 1938 C 214.567 -2.49973 2.37923 0
M  V30 1939 C 213.68 -2.32062 3.64378 0
M  V30 1940 C 212.815 -3.57825 3.926 0
M  V30 1941 C 211.854 -3.3498 5.12303 0
M  V30 1942 N 210.991 -4.52891 5.36502 0
M  V30 1943 H 215.831 -0.809472 2.86795 0
M  V30 1944 H 213.368 -0.388237 1.41884 0
M  V30 1945 H 215.326 -3.27346 2.58652 0
M  V30 1946 H 213.956 -2.84252 1.52972 0
M  V30 1947 H 213.008 -1.45711 3.51387 0
M  V30 1948 H 214.32 -2.11145 4.51906 0
M  V30 1949 H 213.474 -4.43624 4.13863 0
M  V30 1950 H 212.213 -3.81753 3.03506 0
M  V30 1951 H 211.218 -2.4757 4.90906 0
M  V30 1952 H 212.443 -3.12444 6.02956 0
M  V30 1953 H 210.389 -4.76979 4.50363 0
M  V30 1954 H 210.306 -4.35001 6.18312 0
M  V30 1955 H 211.574 -5.39884 5.62268 0
M  V30 1956 N 215.803 -1.52179 -0.40978 0
M  V30 1957 C 217.219 -1.40968 -0.74835 0
M  V30 1958 C 217.419 -0.513657 -1.94843 0
M  V30 1959 O 216.475 0.0208026 -2.52491 0
M  V30 1960 C 217.788 -2.83483 -1.0029 0
M  V30 1961 C 219.336 -2.92821 -1.10565 0
M  V30 1962 C 219.811 -4.36303 -1.39296 0
M  V30 1963 N 221.302 -4.39535 -1.46162 0
M  V30 1964 C 222.037 -5.47614 -1.70018 0
M  V30 1965 N 221.533 -6.65812 -1.91483 0
M  V30 1966 N 223.326 -5.35129 -1.72027 0
M  V30 1967 H 215.477 -2.0897 0.380186 0
M  V30 1968 H 217.74 -0.94185 0.107805 0
M  V30 1969 H 217.446 -3.51168 -0.193461 0
M  V30 1970 H 217.32 -3.24487 -1.92323 0
M  V30 1971 H 219.707 -2.25318 -1.90568 0
M  V30 1972 H 219.788 -2.55276 -0.16369 0
M  V30 1973 H 219.432 -5.04366 -0.598109 0
M  V30 1974 H 219.362 -4.71385 -2.34743 0
M  V30 1975 H 221.853 -3.54332 -1.31367 0
M  V30 1976 H 222.166 -7.43964 -2.09134 0
M  V30 1977 H 220.511 -6.68879 -1.88749 0
M  V30 1978 H 223.702 -4.41764 -1.54796 0
M  V30 1979 H 223.875 -6.19433 -1.9028 0
M  V30 1980 N 217.281 0.66697 -1.42791 0
M  V30 1981 C 218.244 1.76211 -1.46568 0
M  V30 1982 C 219.244 1.56896 -0.352196 0
M  V30 1983 O 220.434 1.63044 -0.613364 0
M  V30 1984 C 217.566 3.14935 -1.30494 0
M  V30 1985 H 218.759 1.74247 -2.44086 0
M  V30 1986 H 216.312 0.877342 -1.29354 0
M  V30 1987 H 217.047 3.2252 -0.339301 0
M  V30 1988 H 216.832 3.30359 -2.11199 0
M  V30 1989 H 218.322 3.94821 -1.36038 0
M  V30 1990 N 218.759 1.29093 0.90403 0
M  V30 1991 C 220.17 1.15186 1.46932 0
M  V30 1992 C 220.521 -0.254587 1.94541 0
M  V30 1993 O 219.646 -1.14972 1.83332 0
M  V30 1994 C 220.241 2.08492 2.67051 0
M  V30 1995 C 218.8 1.98621 3.19729 0
M  V30 1996 C 217.947 1.9967 1.92425 0
M  V30 1997 H 220.898 1.41641 0.715789 0
M  V30 1998 H 220.919 1.65461 3.42641 0
M  V30 1999 H 220.431 3.10847 2.3237 0
M  V30 2000 H 218.532 0.993389 3.59114 0
M  V30 2001 H 218.645 2.86068 3.8432 0
M  V30 2002 H 217.009 1.44208 2.09943 0
M  V30 2003 H 217.792 3.03721 1.60026 0
M  V30 2004 N 220.237 -1.11381 1.11499 0
M  V30 2005 C 221.2 -2.15622 0.777153 0
M  V30 2006 C 222.2 -1.59504 -0.203779 0
M  V30 2007 O 223.39 -1.74188 0.020782 0
M  V30 2008 C 220.522 -3.40556 0.153116 0
M  V30 2009 H 221.715 -2.47021 1.70061 0
M  V30 2010 H 219.268 -1.26577 0.916952 0
M  V30 2011 H 220.003 -3.14767 -0.780536 0
M  V30 2012 H 219.788 -3.8257 0.859238 0
M  V30 2013 H 221.278 -4.17546 -0.0671044 0
M  V30 2014 N 221.715 -0.905404 -1.28997 0
M  V30 2015 C 222.678 -0.392253 -2.25819 0
M  V30 2016 C 223.678 0.476753 -1.5357 0
M  V30 2017 O 224.868 0.280994 -1.71919 0
M  V30 2018 C 222 0.438588 -3.38067 0
M  V30 2019 H 223.193 -1.24743 -2.72725 0
M  V30 2020 H 220.746 -0.684051 -1.40536 0
M  V30 2021 H 221.481 1.31352 -2.96508 0
M  V30 2022 H 221.266 -0.184167 -3.91667 0
M  V30 2023 H 222.756 0.78873 -4.10084 0
M  V30 2024 N 223.193 1.4272 -0.668489 0
M  V30 2025 C 224.103 2.34596 0.0139753 0
M  V30 2026 C 225.119 1.5474 0.795703 0
M  V30 2027 O 226.295 1.87334 0.739466 0
M  V30 2028 C 223.36 3.33202 0.957982 0
M  V30 2029 C 222.421 4.28957 0.17149 0
M  V30 2030 C 221.654 5.22853 1.07053 0
M  V30 2031 O 221.877 5.21531 2.31001 0
M  V30 2032 O 220.811 5.9952 0.534727 0
M  V30 2033 H 224.637 2.9448 -0.742661 0
M  V30 2034 H 222.222 1.43117 -0.428705 0
M  V30 2035 H 224.104 3.93796 1.50008 0
M  V30 2036 H 222.779 2.758 1.69458 0
M  V30 2037 H 221.686 3.71796 -0.414558 0
M  V30 2038 H 223.019 4.89383 -0.52586 0
M  V30 2039 N 224.671 0.411399 1.52136 0
M  V30 2040 C 226.082 -0.0576826 1.86611 0
M  V30 2041 C 226.433 -1.44238 1.33003 0
M  V30 2042 O 225.558 -2.05759 0.670228 0
M  V30 2043 C 226.153 -0.111448 3.38617 0
M  V30 2044 C 224.712 -0.52487 3.72723 0
M  V30 2045 C 223.859 0.299176 2.75681 0
M  V30 2046 H 226.81 0.628368 1.4573 0
M  V30 2047 H 226.831 -0.926252 3.69054 0
M  V30 2048 H 226.343 0.896488 3.77604 0
M  V30 2049 H 224.444 -1.53936 3.39315 0
M  V30 2050 H 224.557 -0.267681 4.78352 0
M  V30 2051 H 222.921 -0.238814 2.53578 0
M  V30 2052 H 223.704 1.3055 3.17508 0
M  V30 2053 N 226.149 -1.5696 0.141893 0
M  V30 2054 C 227.374 -2.00754 -0.520838 0
M  V30 2055 C 227.799 -1.0213 -1.57959 0
M  V30 2056 O 227.157 0.00371324 -1.813 0
M  V30 2057 C 227.205 -3.43318 -1.10294 0
M  V30 2058 O 226.309 -3.47679 -2.21795 0
M  V30 2059 H 225.65 -0.651564 -0.127908 0
M  V30 2060 H 228.18 -2.03221 0.23712 0
M  V30 2061 H 228.19 -3.82012 -1.43287 0
M  V30 2062 H 226.865 -4.14608 -0.327574 0
M  V30 2063 H 225.442 -3.20824 -1.9007 0
M  V30 2064 N 227.627 0.131896 -1.57047 0
M  V30 2065 C 229.038 0.690407 -1.73465 0
M  V30 2066 C 229.389 1.8094 -0.758629 0
M  V30 2067 O 228.514 2.16282 0.0713813 0
M  V30 2068 C 229.109 1.25916 -3.14532 0
M  V30 2069 C 227.668 1.76409 -3.32501 0
M  V30 2070 C 226.815 0.658579 -2.69366 0
M  V30 2071 H 229.766 -0.0939144 -1.58422 0
M  V30 2072 H 229.787 2.12892 -3.15369 0
M  V30 2073 H 229.299 0.444515 -3.85546 0
M  V30 2074 H 227.4 2.60391 -2.66509 0
M  V30 2075 H 227.513 1.88241 -4.4057 0
M  V30 2076 H 225.877 1.08899 -2.30246 0
M  V30 2077 H 226.66 -0.14487 -3.42994 0
M  V30 2078 N 229.106 1.52395 0.401703 0
M  V30 2079 C 230.069 1.75636 1.47257 0
M  V30 2080 C 231.069 0.62628 1.48103 0
M  V30 2081 O 232.259 0.894227 1.49497 0
M  V30 2082 C 229.391 1.84553 2.86624 0
M  V30 2083 H 230.584 2.71241 1.27938 0
M  V30 2084 H 228.137 1.42923 0.632662 0
M  V30 2085 H 228.872 0.908882 3.11303 0
M  V30 2086 H 228.657 2.66715 2.87412 0
M  V30 2087 H 230.147 2.04251 3.64241 0
M  V30 2088 N 230.584 -0.659388 1.43143 0
M  V30 2089 C 231.547 -1.75432 1.47501 0
M  V30 2090 C 232.547 -1.56707 0.360512 0
M  V30 2091 O 233.737 -1.62717 0.622002 0
M  V30 2092 C 230.869 -3.14239 1.32162 0
M  V30 2093 H 232.062 -1.7295 2.45006 0
M  V30 2094 H 229.615 -0.870469 1.29817 0
M  V30 2095 H 230.35 -3.22336 0.356401 0
M  V30 2096 H 230.135 -3.29235 2.12948 0
M  V30 2097 H 231.625 -3.94094 1.3813 0
M  V30 2098 N 232.062 -1.29571 -0.897171 0
M  V30 2099 C 233.025 -1.14913 -1.98312 0
M  V30 2100 C 234.025 -0.0838629 -1.60581 0
M  V30 2101 O 235.215 -0.331006 -1.71026 0
M  V30 2102 C 232.347 -0.757835 -3.3237 0
M  V30 2103 H 233.54 -2.11377 -2.12743 0
M  V30 2104 H 231.093 -1.12793 -1.08201 0
M  V30 2105 H 231.828 0.206837 -3.2364 0
M  V30 2106 H 231.613 -1.52755 -3.61121 0
M  V30 2107 H 233.103 -0.678408 -4.12053 0
M  V30 2108 N 233.54 1.10788 -1.12088 0
M  V30 2109 C 234.951 1.64181 -0.88891 0
M  V30 2110 C 235.302 1.87508 0.577498 0
M  V30 2111 O 234.427 1.61434 1.44112 0
M  V30 2112 C 235.022 2.98257 -1.60712 0
M  V30 2113 C 233.581 3.4853 -1.42139 0
M  V30 2114 C 232.728 2.23208 -1.6454 0
M  V30 2115 H 235.679 0.943368 -1.27618 0
M  V30 2116 H 235.7 3.65552 -1.05604 0
M  V30 2117 H 235.212 2.81246 -2.67436 0
M  V30 2118 H 233.313 3.70692 -0.376552 0
M  V30 2119 H 233.426 4.26882 -2.17505 0
M  V30 2120 H 231.79 2.31169 -1.06925 0
M  V30 2121 H 232.573 2.08733 -2.72554 0
M  V30 2122 N 235.018 0.912232 1.28515 0
M  V30 2123 C 235.981 0.404223 2.25607 0
M  V30 2124 C 236.981 -0.468602 1.53821 0
M  V30 2125 O 238.171 -0.271873 1.72065 0
M  V30 2126 C 235.303 -0.420653 3.38295 0
M  V30 2127 H 236.496 1.26188 2.7206 0
M  V30 2128 H 234.049 0.691495 1.40171 0
M  V30 2129 H 234.784 -1.29777 2.97201 0
M  V30 2130 H 234.569 0.204935 3.91564 0
M  V30 2131 H 236.059 -0.766971 4.10496 0
M  V30 2132 N 236.496 -1.42363 0.676048 0
M  V30 2133 C 237.744 -2.01123 0.198437 0
M  V30 2134 C 238.065 -1.53731 -1.19966 0
M  V30 2135 O 237.335 -0.759518 -1.80577 0
M  V30 2136 H 235.915 -0.743678 0.0703721 0
M  V30 2137 H 238.577 -1.74263 0.872837 0
M  V30 2138 H 237.673 -3.11454 0.200686 0
M  V30 2139 N 237.974 -0.419461 -1.51915 0
M  V30 2140 C 239.39 -0.0708431 -1.59443 0
M  V30 2141 C 239.59 1.41796 -1.43164 0
M  V30 2142 O 238.646 2.18596 -1.26381 0
M  V30 2143 C 239.959 -0.574991 -2.95151 0
M  V30 2144 C 241.507 -0.533867 -3.08413 0
M  V30 2145 C 241.982 -1.01469 -4.46618 0
M  V30 2146 N 243.473 -0.971939 -4.52888 0
M  V30 2147 C 244.208 -1.31505 -5.58116 0
M  V30 2148 N 243.704 -1.73014 -6.70849 0
M  V30 2149 N 245.497 -1.23436 -5.48379 0
M  V30 2150 H 237.648 -1.38836 -1.60743 0
M  V30 2151 H 239.911 -0.570998 -0.756747 0
M  V30 2152 H 239.617 -1.61597 -3.12377 0
M  V30 2153 H 239.491 0.00979777 -3.77199 0
M  V30 2154 H 241.878 0.498086 -2.90866 0
M  V30 2155 H 241.959 -1.15484 -2.28248 0
M  V30 2156 H 241.603 -2.04502 -4.6491 0
M  V30 2157 H 241.533 -0.370433 -5.25295 0
M  V30 2158 H 244.024 -0.666893 -3.71969 0
M  V30 2159 H 244.337 -1.97479 -7.47143 0
M  V30 2160 H 242.682 -1.76926 -6.72103 0
M  V30 2161 H 245.873 -0.908869 -4.59192 0
M  V30 2162 H 246.046 -1.50506 -6.30279 0
M  V30 2163 N 239.452 1.56882 -0.150215 0
M  V30 2164 C 240.362 2.20494 0.801222 0
M  V30 2165 C 241.378 1.19019 1.26927 0
M  V30 2166 O 242.554 1.51607 1.32579 0
M  V30 2167 C 239.619 2.81659 2.02161 0
M  V30 2168 C 238.68 3.9827 1.60249 0
M  V30 2169 C 237.913 4.56508 2.7647 0
M  V30 2170 O 238.136 4.13627 3.92771 0
M  V30 2171 O 237.07 5.46719 2.51757 0
M  V30 2172 H 240.896 3.02315 0.289717 0
M  V30 2173 H 238.481 1.49202 0.0769684 0
M  V30 2174 H 240.363 3.20522 2.73576 0
M  V30 2175 H 239.038 2.02849 2.52258 0
M  V30 2176 H 237.945 3.64117 0.858477 0
M  V30 2177 H 239.278 4.78609 1.14864 0
M  V30 2178 N 240.93 -0.123565 1.57115 0
M  V30 2179 C 241.863 -1.18202 1.95201 0
M  V30 2180 C 242.841 -1.40349 0.821031 0
M  V30 2181 O 244.025 -1.54578 1.07879 0
M  V30 2182 C 241.152 -2.53671 2.24429 0
M  V30 2183 C 240.198 -2.4798 3.46999 0
M  V30 2184 S 241.031 -1.92389 4.99747 0
M  V30 2185 C 242.187 -3.2954 5.32123 0
M  V30 2186 H 242.42 -0.857212 2.84674 0
M  V30 2187 H 239.953 -0.33014 1.50829 0
M  V30 2188 H 241.911 -3.3162 2.41947 0
M  V30 2189 H 240.572 -2.83332 1.35579 0
M  V30 2190 H 239.765 -3.47758 3.64801 0
M  V30 2191 H 239.367 -1.7815 3.28844 0
M  V30 2192 H 241.659 -4.25736 5.27025 0
M  V30 2193 H 242.602 -3.16569 6.33395 0
M  V30 2194 H 243.01 -3.27758 4.59603 0
M  V30 2195 N 242.408 -1.52605 -0.393616 0
M  V30 2196 C 243.318 -1.79971 -1.50492 0
M  V30 2197 C 244.334 -0.686181 -1.59899 0
M  V30 2198 O 245.51 -0.973274 -1.76322 0
M  V30 2199 C 242.575 -1.95867 -2.86072 0
M  V30 2200 C 241.636 -3.19781 -2.86424 0
M  V30 2201 C 240.869 -3.34909 -4.15538 0
M  V30 2202 O 241.092 -2.54948 -5.10253 0
M  V30 2203 O 240.026 -4.28141 -4.23059 0
M  V30 2204 H 243.852 -2.74328 -1.30299 0
M  V30 2205 H 241.437 -1.3764 -0.581005 0
M  V30 2206 H 243.319 -2.08056 -3.66457 0
M  V30 2207 H 241.994 -1.04699 -3.063 0
M  V30 2208 H 240.901 -3.13038 -2.04837 0
M  V30 2209 H 242.234 -4.1078 -2.71147 0
M  V30 2210 N 243.887 0.651787 -1.4349 0
M  V30 2211 C 244.835 1.78586 -1.49029 0
M  V30 2212 C 245.829 1.65448 -0.363767 0
M  V30 2213 O 247.035 1.71777 -0.537821 0
M  V30 2214 H 243.41 0.589236 -0.467231 0
M  V30 2215 H 245.381 1.71035 -2.44519 0
M  V30 2216 C 244.13 3.16851 -1.43181 0
M  V30 2217 H 243.453 3.27598 -2.29171 0
M  V30 2218 H 244.893 3.96156 -1.51118 0
M  V30 2219 C 243.352 3.36568 -0.149616 0
M  V30 2220 O 243.882 3.93885 0.788509 0
M  V30 2221 N 242.088 2.90539 -0.0593484 0
M  V30 2222 H 241.635 2.4408 -0.823575 0
M  V30 2223 H 241.593 3.04108 0.797853 0
M  V30 2224 N 245.365 1.30045 0.890287 0
M  V30 2225 C 246.312 1.15976 1.99545 0
M  V30 2226 C 247.282 0.0506202 1.66023 0
M  V30 2227 O 248.467 0.219847 1.89529 0
M  V30 2228 C 245.607 0.852054 3.34416 0
M  V30 2229 C 244.72 2.04255 3.80662 0
M  V30 2230 C 243.855 1.6734 5.04154 0
M  V30 2231 C 242.894 2.82916 5.42794 0
M  V30 2232 N 242.031 2.46333 6.57468 0
M  V30 2233 H 246.871 2.10524 2.10911 0
M  V30 2234 H 244.408 1.04749 1.03276 0
M  V30 2235 H 246.366 0.654296 4.12037 0
M  V30 2236 H 244.996 -0.0565502 3.2275 0
M  V30 2237 H 244.048 2.35172 2.98995 0
M  V30 2238 H 245.36 2.90826 4.05242 0
M  V30 2239 H 244.514 1.43908 5.89386 0
M  V30 2240 H 243.253 0.779308 4.81433 0
M  V30 2241 H 242.258 3.0702 4.56091 0
M  V30 2242 H 243.483 3.73004 5.6749 0
M  V30 2243 H 241.429 1.59423 6.36334 0
M  V30 2244 H 241.346 3.26436 6.81891 0
M  V30 2245 H 242.614 2.26244 7.45945 0
M  V30 2246 N 246.843 -1.10192 1.12674 0
M  V30 2247 C 247.753 -2.20172 0.810026 0
M  V30 2248 C 248.769 -1.72821 -0.202188 0
M  V30 2249 O 249.945 -2.01369 -0.0351691 0
M  V30 2250 C 247.01 -3.45631 0.272007 0
M  V30 2251 C 246.071 -4.07704 1.34447 0
M  V30 2252 C 245.304 -5.27175 0.832029 0
M  V30 2253 O 245.527 -5.69425 -0.333284 0
M  V30 2254 O 244.461 -5.80168 1.60277 0
M  V30 2255 H 248.287 -2.49701 1.72867 0
M  V30 2256 H 245.872 -1.18977 0.903597 0
M  V30 2257 H 247.754 -4.21394 -0.0230219 0
M  V30 2258 H 246.429 -3.17723 -0.619164 0
M  V30 2259 H 245.336 -3.33614 1.6927 0
M  V30 2260 H 246.669 -4.3982 2.2095 0
M  V30 2261 N 248.321 -0.919034 -1.28029 0
M  V30 2262 C 249.549 -0.570971 -1.98866 0
M  V30 2263 C 249.964 0.848996 -1.68634 0
M  V30 2264 O 249.321 1.56307 -0.942036 0
M  V30 2265 C 249.372 -0.776876 -3.53054 0
M  V30 2266 O 249.093 -2.14097 -3.82222 0
M  V30 2267 C 250.594 -0.436356 -4.41147 0
M  V30 2268 H 247.814 -0.217175 -0.634883 0
M  V30 2269 H 250.358 -1.23368 -1.63097 0
M  V30 2270 H 248.513 -0.161085 -3.87065 0
M  V30 2271 H 248.927 -2.18455 -4.76841 0
M  V30 2272 H 250.401 -0.63117 -5.4838 0
M  V30 2273 H 250.878 0.627686 -4.34692 0
M  V30 2274 H 251.484 -1.02991 -4.12641 0
M  V30 2275 N 249.799 1.42003 -0.683588 0
M  V30 2276 C 250.729 2.33487 -0.024866 0
M  V30 2277 C 251.71 1.51163 0.779975 0
M  V30 2278 O 252.895 1.79739 0.735362 0
M  V30 2279 C 250.025 3.3487 0.920836 0
M  V30 2280 C 248.979 4.27414 0.223958 0
M  V30 2281 C 248.305 5.19074 1.2832 0
M  V30 2282 C 249.605 5.14445 -0.90242 0
M  V30 2283 H 251.299 2.88819 -0.788921 0
M  V30 2284 H 248.845 1.38873 -0.38083 0
M  V30 2285 H 250.798 3.97787 1.39081 0
M  V30 2286 H 249.522 2.77861 1.71642 0
M  V30 2287 H 248.181 3.65904 -0.225864 0
M  V30 2288 H 247.829 4.58387 2.071 0
M  V30 2289 H 247.529 5.81822 0.821995 0
M  V30 2290 H 249.053 5.84867 1.75392 0
M  V30 2291 H 250.467 5.70998 -0.513272 0
M  V30 2292 H 248.864 5.86072 -1.28997 0
M  V30 2293 H 249.934 4.52322 -1.74737 0
M  V30 2294 N 251.277 0.427512 1.51691 0
M  V30 2295 C 252.224 -0.388867 2.275 0
M  V30 2296 C 253.194 -1.02532 1.30677 0
M  V30 2297 O 254.379 -1.0461 1.59566 0
M  V30 2298 C 251.519 -1.48954 3.11298 0
M  V30 2299 C 250.632 -0.872194 4.23104 0
M  V30 2300 C 249.767 -1.94709 4.94228 0
M  V30 2301 C 248.806 -1.30766 5.97969 0
M  V30 2302 N 247.943 -2.32349 6.62539 0
M  V30 2303 H 252.783 0.263997 2.96828 0
M  V30 2304 H 250.32 0.142033 1.46413 0
M  V30 2305 H 252.278 -2.13887 3.58201 0
M  V30 2306 H 250.908 -2.11217 2.44105 0
M  V30 2307 H 249.96 -0.111419 3.80237 0
M  V30 2308 H 251.272 -0.365264 4.97461 0
M  V30 2309 H 250.426 -2.67327 5.44629 0
M  V30 2310 H 249.165 -2.48773 4.1948 0
M  V30 2311 H 248.17 -0.566902 5.4687 0
M  V30 2312 H 249.395 -0.774483 6.74669 0
M  V30 2313 H 247.341 -2.85511 5.90609 0
M  V30 2314 H 247.258 -1.8652 7.3263 0
M  V30 2315 H 248.526 -3.04481 7.17574 0
M  V30 2316 N 252.755 -1.56801 0.158532 0
M  V30 2317 C 254.003 -1.96102 -0.488712 0
M  V30 2318 C 254.324 -1.04498 -1.64636 0
M  V30 2319 O 253.594 -0.108783 -1.95598 0
M  V30 2320 H 252.174 -0.724102 -0.183535 0
M  V30 2321 H 254.836 -1.93457 0.236728 0
M  V30 2322 H 253.932 -3.00097 -0.857219 0
M  V30 2323 N 254.233 0.115231 -1.57178 0
M  V30 2324 C 255.163 1.1423 -2.03651 0
M  V30 2325 C 256.144 1.42967 -0.921655 0
M  V30 2326 O 257.329 1.53343 -1.19162 0
M  V30 2327 C 254.459 2.4675 -2.44401 0
M  V30 2328 C 253.413 2.32467 -3.59365 0
M  V30 2329 C 252.739 3.69984 -3.86026 0
M  V30 2330 C 254.039 1.78203 -4.90959 0
M  V30 2331 H 255.733 0.755749 -2.89705 0
M  V30 2332 H 253.279 0.362093 -1.39373 0
M  V30 2333 H 255.232 3.18854 -2.75517 0
M  V30 2334 H 253.956 2.87302 -1.55322 0
M  V30 2335 H 252.615 1.62811 -3.28463 0
M  V30 2336 H 252.263 4.08028 -2.94147 0
M  V30 2337 H 251.963 3.61279 -4.63412 0
M  V30 2338 H 253.487 4.43587 -4.19599 0
M  V30 2339 H 254.901 2.40128 -5.20587 0
M  V30 2340 H 253.298 1.8031 -5.72371 0
M  V30 2341 H 254.368 0.739876 -4.79222 0
M  V30 2342 N 255.711 1.52812 0.385517 0
M  V30 2343 C 256.661 1.74219 1.47078 0
M  V30 2344 C 257.645 0.59632 1.49442 0
M  V30 2345 O 258.837 0.85428 1.5502 0
M  V30 2346 C 255.966 1.9176 2.84751 0
M  V30 2347 C 255.052 3.12289 2.86943 0
M  V30 2348 N 255.443 4.34575 2.58802 0
M  V30 2349 C 253.741 3.12605 3.1811 0
M  V30 2350 C 254.442 5.162 2.68166 0
M  V30 2351 N 253.418 4.51964 3.02043 0
M  V30 2352 H 257.22 2.6639 1.24152 0
M  V30 2353 H 254.734 1.51166 0.593504 0
M  V30 2354 H 256.731 2.05218 3.62893 0
M  V30 2355 H 255.391 1.00805 3.08656 0
M  V30 2356 H 256.402 4.62649 2.32759 0
M  V30 2357 H 253.079 2.31472 3.47458 0
M  V30 2358 H 254.469 6.23689 2.49923 0
M  V30 2359 N 257.189 -0.644168 1.43834 0
M  V30 2360 C 258.136 -1.75671 1.49694 0
M  V30 2361 C 259.106 -1.6246 0.345809 0
M  V30 2362 O 260.291 -1.82573 0.554234 0
M  V30 2363 C 257.431 -3.13867 1.43463 0
M  V30 2364 C 256.544 -3.38147 2.6885 0
M  V30 2365 C 255.679 -4.66241 2.54544 0
M  V30 2366 C 254.718 -4.83657 3.75157 0
M  V30 2367 N 253.855 -6.03016 3.59605 0
M  V30 2368 H 258.695 -1.69998 2.44754 0
M  V30 2369 H 256.232 -0.829458 1.21484 0
M  V30 2370 H 258.19 -3.9377 1.37843 0
M  V30 2371 H 256.82 -3.18588 0.519783 0
M  V30 2372 H 255.872 -2.52276 2.84712 0
M  V30 2373 H 257.184 -3.46899 3.58417 0
M  V30 2374 H 256.338 -5.54285 2.46683 0
M  V30 2375 H 255.077 -4.59826 1.62516 0
M  V30 2376 H 254.082 -3.94046 3.83416 0
M  V30 2377 H 255.307 -4.91896 4.68204 0
M  V30 2378 H 253.253 -5.97715 2.7032 0
M  V30 2379 H 253.17 -6.12766 4.42779 0
M  V30 2380 H 254.438 -6.93657 3.55613 0
M  V30 2381 N 258.668 -1.30515 -0.883378 0
M  V30 2382 C 259.601 -1.11359 -1.99184 0
M  V30 2383 C 260.579 -0.0207858 -1.62587 0
M  V30 2384 O 261.763 -0.174646 -1.87689 0
M  V30 2385 C 258.89 -0.69871 -3.31415 0
M  V30 2386 C 257.936 -1.79261 -3.86998 0
M  V30 2387 S 258.769 -3.39536 -4.14096 0
M  V30 2388 C 259.925 -2.99954 -5.49344 0
M  V30 2389 H 260.158 -2.052 -2.15128 0
M  V30 2390 H 257.691 -1.14847 -1.03196 0
M  V30 2391 H 259.649 -0.466075 -4.07846 0
M  V30 2392 H 258.31 0.220368 -3.13326 0
M  V30 2393 H 257.503 -1.45464 -4.82552 0
M  V30 2394 H 257.105 -1.97961 -3.17313 0
M  V30 2395 H 259.397 -2.48013 -6.30473 0
M  V30 2396 H 260.34 -3.9442 -5.8808 0
M  V30 2397 H 260.748 -2.37775 -5.1198 0
M  V30 2398 N 260.146 1.09593 -1.13257 0
M  V30 2399 C 261.423 1.78293 -0.804432 0
M  V30 2400 C 261.803 1.99004 0.70431 0
M  V30 2401 O 261.151 1.59007 1.641 0
M  V30 2402 C 261.361 3.10707 -1.5894 0
M  V30 2403 C 262.709 3.85443 -1.78099 0
M  V30 2404 O 263.733 3.20454 -1.55525 0
M  V30 2405 O 262.592 5.02108 -2.15753 0
M  V30 2406 H 259.686 0.773156 -0.293528 0
M  V30 2407 H 262.232 1.16164 -1.23709 0
M  V30 2408 H 261.004 2.91106 -2.61482 0
M  V30 2409 H 260.627 3.80558 -1.15157 0
M  V30 2410 N 261.624 0.925811 1.2754 0
M  V30 2411 C 262.901 0.483726 1.89524 0
M  V30 2412 C 263.281 -1.03809 1.83812 0
M  V30 2413 O 262.629 -1.89143 1.28207 0
M  V30 2414 C 262.839 1.02769 3.33526 0
M  V30 2415 C 264.187 1.08703 4.10449 0
M  V30 2416 O 265.211 0.977175 3.42534 0
M  V30 2417 O 264.07 1.25599 5.31871 0
M  V30 2418 H 261.164 0.15529 0.812289 0
M  V30 2419 H 263.71 1.01738 1.35822 0
M  V30 2420 H 262.482 2.07155 3.31967 0
M  V30 2421 H 262.105 0.475567 3.94746 0
M  V30 2422 N 263.102 -1.41638 0.69111 0
M  V30 2423 C 264.518 -1.55435 0.362224 0
M  V30 2424 C 264.718 -1.66754 -1.13117 0
M  V30 2425 O 263.774 -1.64348 -1.91692 0
M  V30 2426 C 265.087 -2.79588 1.10684 0
M  V30 2427 C 266.635 -2.9338 1.09075 0
M  V30 2428 C 267.11 -4.20414 1.81703 0
M  V30 2429 N 268.601 -4.27362 1.7865 0
M  V30 2430 C 269.336 -5.24507 2.31689 0
M  V30 2431 N 268.832 -6.27708 2.93179 0
M  V30 2432 N 270.625 -5.16416 2.2197 0
M  V30 2433 H 262.776 -1.32536 1.65976 0
M  V30 2434 H 265.039 -0.639115 0.700168 0
M  V30 2435 H 264.745 -2.77419 2.16175 0
M  V30 2436 H 264.619 -3.70973 0.682545 0
M  V30 2437 H 267.006 -2.95067 0.0441238 0
M  V30 2438 H 267.087 -2.0318 1.55407 0
M  V30 2439 H 266.731 -4.19488 2.86343 0
M  V30 2440 H 266.661 -5.09578 1.32808 0
M  V30 2441 H 269.152 -3.53415 1.33815 0
M  V30 2442 H 269.465 -6.98217 3.31229 0
M  V30 2443 H 267.81 -6.28223 2.97255 0
M  V30 2444 H 271.001 -4.34716 1.73607 0
M  V30 2445 H 271.174 -5.91958 2.63609 0
M  V30 2446 N 264.58 -0.43555 -1.51462 0
M  V30 2447 C 265.991 0.0279871 -1.86679 0
M  V30 2448 C 266.342 1.42104 -1.35281 0
M  V30 2449 O 265.467 2.04667 -0.702878 0
M  V30 2450 C 266.062 0.0575626 -3.38751 0
M  V30 2451 C 264.621 0.465507 -3.7351 0
M  V30 2452 C 263.768 -0.342996 -2.75171 0
M  V30 2453 H 266.719 -0.651473 -1.44712 0
M  V30 2454 H 266.74 0.867421 -3.70481 0
M  V30 2455 H 266.252 -0.956448 -3.7613 0
M  V30 2456 H 264.353 1.48519 -3.41721 0
M  V30 2457 H 264.466 0.191546 -4.78717 0
M  V30 2458 H 262.83 0.198442 -2.53926 0
M  V30 2459 H 263.613 -1.35585 -3.15391 0
M  V30 2460 N 266.058 1.56714 -0.166846 0
M  V30 2461 C 266.968 2.21331 0.777791 0
M  V30 2462 C 267.984 1.20358 1.25658 0
M  V30 2463 O 269.16 1.53005 1.30964 0
M  V30 2464 C 266.225 2.83787 1.99163 0
M  V30 2465 C 265.286 3.99947 1.56016 0
M  V30 2466 C 264.519 4.59415 2.71613 0
M  V30 2467 O 264.742 4.17769 3.88362 0
M  V30 2468 O 263.676 5.49359 2.45945 0
M  V30 2469 H 267.502 3.02605 0.257636 0
M  V30 2470 H 265.087 1.49275 0.0611393 0
M  V30 2471 H 266.969 3.23405 2.70161 0
M  V30 2472 H 265.644 2.05513 2.50092 0
M  V30 2473 H 264.551 3.65007 0.819809 0
M  V30 2474 H 265.884 4.79801 1.09782 0
M  V30 2475 N 267.536 -0.106894 1.57237 0
M  V30 2476 C 268.446 -1.14911 2.0453 0
M  V30 2477 C 269.462 -1.44592 0.96795 0
M  V30 2478 O 270.638 -1.55468 1.2803 0
M  V30 2479 C 267.703 -2.45272 2.45036 0
M  V30 2480 C 266.764 -2.22879 3.66911 0
M  V30 2481 C 265.997 -3.47024 4.05475 0
M  V30 2482 O 266.22 -4.54804 3.44252 0
M  V30 2483 O 265.154 -3.3731 4.98504 0
M  V30 2484 H 268.98 -0.777461 2.9358 0
M  V30 2485 H 266.565 -0.318563 1.45964 0
M  V30 2486 H 268.447 -3.22055 2.71769 0
M  V30 2487 H 267.122 -2.81886 1.59129 0
M  V30 2488 H 266.029 -1.43915 3.45311 0
M  V30 2489 H 267.362 -1.91163 4.53561 0
M  V30 2490 N 269.014 -1.53014 -0.377408 0
M  V30 2491 C 270.43 -1.42523 -0.718281 0
M  V30 2492 C 270.63 -0.55487 -1.9371 0
M  V30 2493 O 269.686 -0.0327593 -2.52479 0
M  V30 2494 C 270.999 -2.85546 -0.942539 0
M  V30 2495 C 272.547 -2.95101 -1.04329 0
M  V30 2496 C 273.022 -4.3916 -1.3001 0
M  V30 2497 N 274.513 -4.42536 -1.36806 0
M  V30 2498 C 275.248 -5.51097 -1.58364 0
M  V30 2499 N 274.744 -6.69724 -1.77317 0
M  V30 2500 N 276.537 -5.38657 -1.60638 0
M  V30 2501 H 268.688 -2.08116 0.424426 0
M  V30 2502 H 270.951 -0.939352 0.127759 0
M  V30 2503 H 270.657 -3.51499 -0.118929 0
M  V30 2504 H 270.531 -3.28493 -1.85397 0
M  V30 2505 H 272.918 -2.29309 -1.85745 0
M  V30 2506 H 272.999 -2.55566 -0.109505 0
M  V30 2507 H 272.643 -5.05521 -0.490991 0
M  V30 2508 H 272.573 -4.76258 -2.24691 0
M  V30 2509 H 275.064 -3.57039 -1.23821 0
M  V30 2510 H 275.377 -7.48233 -1.93306 0
M  V30 2511 H 273.722 -6.72732 -1.74518 0
M  V30 2512 H 276.913 -4.44948 -1.45391 0
M  V30 2513 H 277.086 -6.2333 -1.77098 0
M  V30 2514 N 270.492 0.636531 -1.44174 0
M  V30 2515 C 271.425 1.76139 -1.45087 0
M  V30 2516 C 272.403 1.59611 -0.310326 0
M  V30 2517 O 273.587 1.81568 -0.506477 0
M  V30 2518 C 270.714 3.13648 -1.27839 0
M  V30 2519 C 269.76 3.48838 -2.45386 0
M  V30 2520 S 270.593 3.46927 -4.07924 0
M  V30 2521 C 271.749 4.87064 -3.9309 0
M  V30 2522 H 271.982 1.75096 -2.40268 0
M  V30 2523 H 269.515 0.810666 -1.31406 0
M  V30 2524 H 271.473 3.93002 -1.18575 0
M  V30 2525 H 270.134 3.12235 -0.341787 0
M  V30 2526 H 269.327 4.48886 -2.29167 0
M  V30 2527 H 268.929 2.76935 -2.51362 0
M  V30 2528 H 271.221 5.76153 -3.56446 0
M  V30 2529 H 272.164 5.08337 -4.92949 0
M  V30 2530 H 272.572 4.61384 -3.25246 0
M  V30 2531 N 271.97 1.30982 0.876444 0
M  V30 2532 C 273.219 1.19658 1.62373 0
M  V30 2533 C 273.532 -0.245636 1.94052 0
M  V30 2534 O 274.738 -0.48049 2.67214 0
M  V30 2535 C 273.194 2.09433 2.92687 0
M  V30 2536 C 272.802 3.58613 2.68516 0
M  V30 2537 C 274.546 2.06893 3.70669 0
M  V30 2538 C 272.453 4.40416 3.94699 0
M  V30 2539 H 271.383 0.444268 0.609214 0
M  V30 2540 H 274.034 1.55791 0.969605 0
M  V30 2541 H 272.416 1.66191 3.59439 0
M  V30 2542 H 273.59 4.10058 2.10212 0
M  V30 2543 H 271.905 3.63063 2.03898 0
M  V30 2544 H 274.502 2.65258 4.64265 0
M  V30 2545 H 274.845 1.05448 4.02724 0
M  V30 2546 H 275.378 2.48301 3.10792 0
M  V30 2547 H 272.117 5.42591 3.67798 0
M  V30 2548 H 271.637 3.93731 4.52477 0
M  V30 2549 H 273.316 4.52294 4.62644 0
M  V30 2550 N 273.449 -1.08991 1.13837 0
M  V30 2551 C 274.865 -1.33312 0.877506 0
M  V30 2552 C 275.065 -1.95587 -0.48456 0
M  V30 2553 O 274.121 -2.20509 -1.23013 0
M  V30 2554 C 275.434 -2.24045 2.0056 0
M  V30 2555 C 276.982 -2.37542 2.03821 0
M  V30 2556 C 277.457 -3.31614 3.15905 0
M  V30 2557 N 278.948 -3.39189 3.15445 0
M  V30 2558 C 279.683 -4.11992 3.98811 0
M  V30 2559 N 279.179 -4.87553 4.92203 0
M  V30 2560 N 280.972 -4.07762 3.86894 0
M  V30 2561 H 273.123 -0.669456 2.01574 0
M  V30 2562 H 275.386 -0.357482 0.878015 0
M  V30 2563 H 275.092 -1.85521 2.98789 0
M  V30 2564 H 274.966 -3.24466 1.92359 0
M  V30 2565 H 277.353 -2.75327 1.06202 0
M  V30 2566 H 277.434 -1.36884 2.16093 0
M  V30 2567 H 277.078 -2.94551 4.13766 0
M  V30 2568 H 277.008 -4.32186 3.0087 0
M  V30 2569 H 279.499 -2.85314 2.47799 0
M  V30 2570 H 279.812 -5.40549 5.52292 0
M  V30 2571 H 278.157 -4.86627 4.96205 0
M  V30 2572 H 281.348 -3.47833 3.13257 0
M  V30 2573 H 281.521 -4.64238 4.52092 0
M  V30 2574 N 274.927 -0.932562 -1.27047 0
M  V30 2575 C 275.837 -0.441219 -2.30414 0
M  V30 2576 C 276.853 0.480525 -1.67233 0
M  V30 2577 O 278.029 0.362151 -1.98117 0
M  V30 2578 C 275.094 0.293651 -3.45454 0
M  V30 2579 C 274.155 -0.663601 -4.2414 0
M  V30 2580 C 273.388 0.0362932 -5.33688 0
M  V30 2581 O 273.611 1.2548 -5.56427 0
M  V30 2582 O 272.545 -0.638015 -5.98509 0
M  V30 2583 H 276.371 -1.29962 -2.74488 0
M  V30 2584 H 273.956 -0.6981 -1.32087 0
M  V30 2585 H 275.838 0.707951 -4.15411 0
M  V30 2586 H 274.513 1.12758 -3.03426 0
M  V30 2587 H 273.42 -1.12768 -3.56699 0
M  V30 2588 H 274.753 -1.46489 -4.69896 0
M  V30 2589 N 276.405 1.4127 -0.698611 0
M  V30 2590 C 277.352 2.30773 -0.0352094 0
M  V30 2591 C 278.322 1.47273 0.768111 0
M  V30 2592 O 279.507 1.76053 0.735524 0
M  V30 2593 C 276.647 3.33346 0.893 0
M  V30 2594 C 275.76 4.31924 0.0809695 0
M  V30 2595 C 274.895 5.21566 1.0071 0
M  V30 2596 C 273.934 6.11811 0.188155 0
M  V30 2597 N 273.071 6.93926 1.06825 0
M  V30 2598 H 277.911 2.86943 -0.804207 0
M  V30 2599 H 275.448 1.4132 -0.408294 0
M  V30 2600 H 277.406 3.91368 1.44523 0
M  V30 2601 H 276.036 2.78719 1.62836 0
M  V30 2602 H 275.088 3.75825 -0.588224 0
M  V30 2603 H 276.4 4.95716 -0.553801 0
M  V30 2604 H 275.554 5.84437 1.62845 0
M  V30 2605 H 274.293 4.58008 1.67572 0
M  V30 2606 H 273.298 5.47986 -0.446254 0
M  V30 2607 H 274.523 6.77425 -0.476716 0
M  V30 2608 H 272.469 6.32973 1.72283 0
M  V30 2609 H 272.386 7.54416 0.489123 0
M  V30 2610 H 273.654 7.61262 1.67632 0
M  V30 2611 N 277.883 0.443576 1.51229 0
M  V30 2612 C 278.813 -0.355142 2.30783 0
M  V30 2613 C 279.794 -1.0154 1.36468 0
M  V30 2614 O 280.979 -1.01785 1.65389 0
M  V30 2615 C 278.109 -1.45312 3.15439 0
M  V30 2616 C 277.063 -0.916002 4.18083 0
M  V30 2617 C 276.389 -2.1102 4.91299 0
M  V30 2618 C 277.689 0.0538602 5.22272 0
M  V30 2619 H 279.383 0.308767 2.97804 0
M  V30 2620 H 276.929 0.149937 1.43217 0
M  V30 2621 H 278.882 -2.01914 3.69876 0
M  V30 2622 H 277.606 -2.14541 2.46252 0
M  V30 2623 H 276.265 -0.372145 3.64706 0
M  V30 2624 H 275.913 -2.78882 4.18609 0
M  V30 2625 H 275.613 -1.75717 5.60712 0
M  V30 2626 H 277.137 -2.68164 5.48562 0
M  V30 2627 H 278.551 -0.422069 5.71744 0
M  V30 2628 H 276.948 0.319776 5.99247 0
M  V30 2629 H 278.018 0.98858 4.74716 0
M  V30 2630 N 279.361 -1.56624 0.175154 0
M  V30 2631 C 280.308 -2.18149 -0.753634 0
M  V30 2632 C 281.278 -1.12265 -1.22417 0
M  V30 2633 O 282.463 -1.40432 -1.29165 0
M  V30 2634 C 279.603 -2.82933 -1.97592 0
M  V30 2635 C 278.716 -4.03289 -1.5486 0
M  V30 2636 C 277.851 -4.55988 -2.72485 0
M  V30 2637 C 276.89 -5.68746 -2.26262 0
M  V30 2638 N 276.027 -6.15938 -3.36994 0
M  V30 2639 H 280.867 -2.9717 -0.222195 0
M  V30 2640 H 278.404 -1.46774 -0.0979422 0
M  V30 2641 H 280.362 -3.18653 -2.69288 0
M  V30 2642 H 278.992 -2.06509 -2.481 0
M  V30 2643 H 278.044 -3.73364 -0.728246 0
M  V30 2644 H 279.356 -4.849 -1.16933 0
M  V30 2645 H 278.51 -4.9391 -3.52332 0
M  V30 2646 H 277.249 -3.73443 -3.13674 0
M  V30 2647 H 276.254 -5.30372 -1.44863 0
M  V30 2648 H 277.479 -6.53095 -1.86127 0
M  V30 2649 H 275.425 -5.36321 -3.77751 0
M  V30 2650 H 275.342 -6.92548 -3.03172 0
M  V30 2651 H 276.61 -6.58511 -4.17114 0
M  V30 2652 N 280.839 0.0985539 -1.57292 0
M  V30 2653 C 281.802 1.10402 -2.00858 0
M  V30 2654 C 282.802 1.33146 -0.901593 0
M  V30 2655 O 283.992 1.29318 -1.16716 0
M  V30 2656 C 281.124 2.45394 -2.36632 0
M  V30 2657 H 282.317 0.729099 -2.90902 0
M  V30 2658 H 279.87 0.343495 -1.52479 0
M  V30 2659 H 280.605 2.87769 -1.49531 0
M  V30 2660 H 280.39 2.30235 -3.17387 0
M  V30 2661 H 281.88 3.17718 -2.71007 0
M  V30 2662 N 282.317 1.53212 0.369288 0
M  V30 2663 C 283.545 1.73119 1.13303 0
M  V30 2664 C 283.96 0.458455 1.83149 0
M  V30 2665 O 283.317 -0.568403 1.73423 0
M  V30 2666 C 283.368 2.89413 2.16616 0
M  V30 2667 O 283.089 4.11761 1.49614 0
M  V30 2668 C 284.59 3.21161 3.05566 0
M  V30 2669 H 281.81 0.579107 0.338934 0
M  V30 2670 H 284.354 1.99942 0.429338 0
M  V30 2671 H 282.509 2.64994 2.82589 0
M  V30 2672 H 282.923 4.76858 2.18419 0
M  V30 2673 H 284.397 4.05949 3.74045 0
M  V30 2674 H 284.874 2.36369 3.70171 0
M  V30 2675 H 285.48 3.47492 2.45213 0
M  V30 2676 N 283.795 -0.628877 1.44509 0
M  V30 2677 C 285.035 -1.39993 1.48934 0
M  V30 2678 C 285.399 -1.91627 0.119604 0
M  V30 2679 O 286.6 -2.68772 0.0385283 0
M  V30 2680 C 284.871 -2.53241 2.52198 0
M  V30 2681 S 286.43 -3.41383 2.75687 0
M  V30 2682 H 283.248 -0.477558 0.526744 0
M  V30 2683 H 285.85 -0.727804 1.81448 0
M  V30 2684 H 284.554 -2.13622 3.50419 0
M  V30 2685 H 284.085 -3.25278 2.21264 0
M  V30 2686 H 286.1 -4.50752 2.07453 0
M  V30 2687 N 285.273 -1.31445 -0.869486 0
M  V30 2688 C 286.206 -1.13465 -1.97992 0
M  V30 2689 C 287.184 -0.0380291 -1.62556 0
M  V30 2690 O 288.368 -0.194544 -1.87493 0
M  V30 2691 C 285.495 -0.733822 -3.30655 0
M  V30 2692 C 284.541 -1.83356 -3.85075 0
M  V30 2693 S 285.374 -3.43909 -4.10472 0
M  V30 2694 C 286.53 -3.05763 -5.46132 0
M  V30 2695 H 286.763 -2.07471 -2.1294 0
M  V30 2696 H 284.296 -1.15936 -1.01972 0
M  V30 2697 H 286.254 -0.509306 -4.07328 0
M  V30 2698 H 284.915 0.187123 -3.13542 0
M  V30 2699 H 284.108 -1.50574 -4.80982 0
M  V30 2700 H 283.71 -2.01315 -3.15195 0
M  V30 2701 H 286.002 -2.54686 -6.27807 0
M  V30 2702 H 286.945 -4.00635 -5.83864 0
M  V30 2703 H 287.353 -2.43192 -5.09429 0
M  V30 2704 N 286.751 1.08385 -1.14413 0
M  V30 2705 C 288.162 1.62258 -0.923535 0
M  V30 2706 C 288.513 1.88691 0.537595 0
M  V30 2707 O 287.638 1.64454 1.40655 0
M  V30 2708 C 288.233 2.94781 -1.67002 0
M  V30 2709 C 286.792 3.45437 -1.495 0
M  V30 2710 C 285.939 2.19668 -1.69238 0
M  V30 2711 H 288.89 0.916086 -1.2959 0
M  V30 2712 H 288.911 3.63229 -1.13334 0
M  V30 2713 H 288.423 2.7551 -2.73342 0
M  V30 2714 H 286.524 3.6981 -0.455097 0
M  V30 2715 H 286.637 4.22173 -2.2651 0
M  V30 2716 H 285.001 2.28849 -1.11804 0
M  V30 2717 H 285.784 2.02905 -2.7692 0
M  V30 2718 N 288.23 0.939286 1.26551 0
M  V30 2719 C 289.193 0.451987 2.24699 0
M  V30 2720 C 290.193 -0.435869 1.5478 0
M  V30 2721 O 291.383 -0.235314 1.72603 0
M  V30 2722 C 288.515 -0.348801 3.39111 0
M  V30 2723 H 289.708 1.3193 2.69322 0
M  V30 2724 H 287.261 0.721072 1.38673 0
M  V30 2725 H 287.996 -1.23444 2.99887 0
M  V30 2726 H 287.781 0.287945 3.91041 0
M  V30 2727 H 289.271 -0.679726 4.12031 0
M  V30 2728 N 289.708 -1.40897 0.706093 0
M  V30 2729 C 290.954 -2.01849 0.250681 0
M  V30 2730 C 291.309 -1.5496 -1.14041 0
M  V30 2731 O 290.602 -0.755566 -1.76073 0
M  V30 2732 C 290.796 -3.5646 0.259099 0
M  V30 2733 C 290.625 -4.18357 1.64947 0
M  V30 2734 C 289.395 -4.522 2.25485 0
M  V30 2735 C 291.593 -4.43856 2.598 0
M  V30 2736 N 289.575 -4.9944 3.56977 0
M  V30 2737 C 290.946 -4.92986 3.75985 0
M  V30 2738 C 293.001 -4.25882 2.57933 0
M  V30 2739 C 291.704 -5.2603 4.90597 0
M  V30 2740 C 293.73 -4.6002 3.71665 0
M  V30 2741 C 293.092 -5.09331 4.86581 0
M  V30 2742 H 289.191 -0.769843 0.137353 0
M  V30 2743 H 291.775 -1.71278 0.925845 0
M  V30 2744 H 289.946 -3.86481 -0.385592 0
M  V30 2745 H 291.678 -4.04144 -0.21213 0
M  V30 2746 H 288.433 -4.3901 1.77671 0
M  V30 2747 H 288.857 -5.27454 4.24407 0
M  V30 2748 H 293.499 -3.86986 1.70298 0
M  V30 2749 H 291.217 -5.63843 5.78884 0
M  V30 2750 H 294.803 -4.47762 3.71484 0
M  V30 2751 H 293.683 -5.35251 5.73129 0
M  V30 2752 N 291.186 -0.45159 -1.50991 0
M  V30 2753 C 292.133 0.352625 -2.2809 0
M  V30 2754 C 293.103 1.0044 -1.32291 0
M  V30 2755 O 294.288 1.02058 -1.6121 0
M  V30 2756 C 291.428 1.43983 -3.13629 0
M  V30 2757 C 290.541 0.804772 -4.24438 0
M  V30 2758 C 289.676 1.86822 -4.97263 0
M  V30 2759 C 288.715 1.21236 -5.99973 0
M  V30 2760 N 287.852 2.2178 -6.66152 0
M  V30 2761 H 292.692 -0.311186 -2.96371 0
M  V30 2762 H 290.229 -0.165308 -1.46168 0
M  V30 2763 H 292.187 2.08161 -3.61559 0
M  V30 2764 H 290.817 2.07307 -2.47434 0
M  V30 2765 H 289.869 0.0509129 -3.80366 0
M  V30 2766 H 291.181 0.286076 -4.97979 0
M  V30 2767 H 290.335 2.58628 -5.48813 0
M  V30 2768 H 289.074 2.42068 -4.23385 0
M  V30 2769 H 288.079 0.479828 -5.47702 0
M  V30 2770 H 289.304 0.667051 -6.75816 0
M  V30 2771 H 287.25 2.76079 -5.95077 0
M  V30 2772 H 287.167 1.74841 -7.35504 0
M  V30 2773 H 288.435 2.93026 -7.22327 0
M  V30 2774 N 292.664 1.56529 -0.183458 0
M  V30 2775 C 293.614 2.1515 0.754605 0
M  V30 2776 C 294.598 1.08904 1.18443 0
M  V30 2777 O 295.79 1.34997 1.14476 0
M  V30 2778 C 292.919 2.80531 1.97881 0
M  V30 2779 C 292.005 3.93952 1.57043 0
M  V30 2780 N 292.396 4.98221 0.87231 0
M  V30 2781 C 290.694 4.05338 1.86057 0
M  V30 2782 C 291.395 5.77836 0.669377 0
M  V30 2783 N 290.371 5.29858 1.21454 0
M  V30 2784 H 294.173 2.93132 0.212387 0
M  V30 2785 H 291.687 1.62391 0.0167725 0
M  V30 2786 H 293.684 3.20914 2.6612 0
M  V30 2787 H 292.344 2.04035 2.52586 0
M  V30 2788 H 293.355 5.15191 0.529033 0
M  V30 2789 H 290.032 3.39957 2.42354 0
M  V30 2790 H 291.422 6.71799 0.116422 0
M  V30 2791 N 294.142 -0.090211 1.57342 0
M  V30 2792 C 295.052 -1.12735 2.05738 0
M  V30 2793 C 296.068 -1.43557 0.983231 0
M  V30 2794 O 297.244 -1.54101 1.29672 0
M  V30 2795 C 294.309 -2.42659 2.47624 0
M  V30 2796 C 293.37 -2.18975 3.69254 0
M  V30 2797 C 292.603 -3.42704 4.09133 0
M  V30 2798 O 292.826 -4.51127 3.49057 0
M  V30 2799 O 291.76 -3.32003 5.02053 0
M  V30 2800 H 295.586 -0.746279 2.94388 0
M  V30 2801 H 293.171 -0.303064 1.46294 0
M  V30 2802 H 295.053 -3.19155 2.7517 0
M  V30 2803 H 293.728 -2.80182 1.62109 0
M  V30 2804 H 292.635 -1.40244 3.46818 0
M  V30 2805 H 293.968 -1.86342 4.55563 0
M  V30 2806 N 295.62 -1.53406 -0.361157 0
M  V30 2807 C 296.866 -1.70999 -1.1014 0
M  V30 2808 C 297.221 -0.458425 -1.86859 0
M  V30 2809 O 296.514 0.548654 -1.83577 0
M  V30 2810 C 296.708 -2.90211 -2.08596 0
M  V30 2811 C 296.537 -4.26841 -1.41553 0
M  V30 2812 C 295.307 -4.91621 -1.16778 0
M  V30 2813 C 297.505 -5.07212 -0.850915 0
M  V30 2814 N 295.487 -6.12164 -0.461312 0
M  V30 2815 C 296.858 -6.19394 -0.274046 0
M  V30 2816 C 298.913 -4.92218 -0.750036 0
M  V30 2817 C 297.616 -7.18221 0.393868 0
M  V30 2818 C 299.642 -5.91322 -0.095894 0
M  V30 2819 C 299.004 -7.0283 0.470081 0
M  V30 2820 H 295.103 -0.678939 -0.388028 0
M  V30 2821 H 297.687 -1.90811 -0.38722 0
M  V30 2822 H 295.858 -2.71931 -2.77323 0
M  V30 2823 H 297.59 -2.96606 -2.7533 0
M  V30 2824 H 294.345 -4.50849 -1.45024 0
M  V30 2825 H 294.769 -6.76888 -0.123312 0
M  V30 2826 H 299.411 -4.06192 -1.17337 0
M  V30 2827 H 297.129 -8.03835 0.82914 0
M  V30 2828 H 300.715 -5.81797 -0.0187075 0
M  V30 2829 H 299.595 -7.782 0.968241 0
M  V30 2830 N 297.098 0.621204 -1.44841 0
M  V30 2831 C 298.028 1.74366 -1.55303 0
M  V30 2832 C 299.009 1.65199 -0.405385 0
M  V30 2833 O 300.194 1.83807 -0.626787 0
M  V30 2834 C 297.324 3.12931 -1.50637 0
M  V30 2835 C 296.278 3.36896 -2.63979 0
M  V30 2836 C 295.604 4.75594 -2.44366 0
M  V30 2837 C 296.904 3.28483 -4.06074 0
M  V30 2838 H 298.598 1.65867 -2.49256 0
M  V30 2839 H 296.144 0.796558 -1.19962 0
M  V30 2840 H 298.097 3.9124 -1.56555 0
M  V30 2841 H 296.821 3.22237 -0.532057 0
M  V30 2842 H 295.48 2.60972 -2.57467 0
M  V30 2843 H 295.128 4.81616 -1.45105 0
M  V30 2844 H 294.828 4.92586 -3.20364 0
M  V30 2845 H 296.352 5.5612 -2.52117 0
M  V30 2846 H 297.766 3.96684 -4.13902 0
M  V30 2847 H 296.163 3.57008 -4.82354 0
M  V30 2848 H 297.233 2.26133 -4.28943 0
M  V30 2849 N 298.576 1.31904 0.862503 0
M  V30 2850 C 299.486 1.22161 2.00285 0
M  V30 2851 C 300.502 0.136785 1.73462 0
M  V30 2852 O 301.678 0.355994 1.98229 0
M  V30 2853 C 298.743 0.937093 3.33796 0
M  V30 2854 C 297.804 2.10957 3.73893 0
M  V30 2855 C 297.037 1.83853 5.01033 0
M  V30 2856 O 297.26 0.777274 5.65079 0
M  V30 2857 O 296.194 2.69741 5.38074 0
M  V30 2858 H 300.02 2.18008 2.11439 0
M  V30 2859 H 297.605 1.11716 0.991957 0
M  V30 2860 H 299.487 0.794583 4.13841 0
M  V30 2861 H 298.162 0.00871894 3.23699 0
M  V30 2862 H 297.069 2.30752 2.94456 0
M  V30 2863 H 298.402 3.02046 3.88625 0
M  V30 2864 N 300.054 -1.07777 1.14986 0
M  V30 2865 C 301.47 -1.32373 0.891596 0
M  V30 2866 C 301.67 -1.9609 -0.463788 0
M  V30 2867 O 300.726 -2.21801 -1.20667 0
M  V30 2868 C 302.039 -2.21905 2.02925 0
M  V30 2869 C 303.587 -2.35367 2.06329 0
M  V30 2870 C 304.062 -3.28245 3.19405 0
M  V30 2871 N 305.553 -3.35824 3.19024 0
M  V30 2872 C 306.288 -4.07739 4.03158 0
M  V30 2873 N 305.784 -4.82306 4.97346 0
M  V30 2874 N 307.577 -4.03635 3.91197 0
M  V30 2875 H 299.728 -0.648039 2.02273 0
M  V30 2876 H 301.991 -0.348149 0.881757 0
M  V30 2877 H 301.697 -1.82342 3.0074 0
M  V30 2878 H 301.571 -3.22407 1.95789 0
M  V30 2879 H 303.958 -2.74186 1.09116 0
M  V30 2880 H 304.039 -1.34585 2.17533 0
M  V30 2881 H 303.683 -2.90146 4.16867 0
M  V30 2882 H 303.613 -4.28971 3.05437 0
M  V30 2883 H 306.104 -2.8267 2.50811 0
M  V30 2884 H 306.417 -5.34661 5.57994 0
M  V30 2885 H 304.762 -4.81337 5.01338 0
M  V30 2886 H 307.953 -3.44491 3.16928 0
M  V30 2887 H 308.126 -4.59417 4.5699 0
M  V30 2888 N 301.532 -0.945985 -1.26051 0
M  V30 2889 C 302.948 -0.649045 -1.45807 0
M  V30 2890 C 303.148 0.796158 -1.85104 0
M  V30 2891 O 302.204 1.57233 -1.97571 0
M  V30 2892 C 303.517 -1.61458 -2.53677 0
M  V30 2893 C 305.065 -1.62481 -2.67524 0
M  V30 2894 C 305.54 -2.57776 -3.7857 0
M  V30 2895 N 307.031 -2.5609 -3.85969 0
M  V30 2896 C 307.766 -3.26508 -4.7136 0
M  V30 2897 N 307.262 -4.0637 -5.61102 0
M  V30 2898 N 309.055 -3.15437 -4.65248 0
M  V30 2899 H 301.206 -1.88005 -0.988328 0
M  V30 2900 H 303.469 -0.808198 -0.4955 0
M  V30 2901 H 303.175 -2.64644 -2.31638 0
M  V30 2902 H 303.049 -1.37036 -3.51427 0
M  V30 2903 H 305.436 -0.600167 -2.88933 0
M  V30 2904 H 305.517 -1.90958 -1.70202 0
M  V30 2905 H 305.161 -3.60361 -3.57913 0
M  V30 2906 H 305.091 -2.26587 -4.75359 0
M  V30 2907 H 307.582 -1.98105 -3.21812 0
M  V30 2908 H 307.895 -4.57042 -6.23164 0
M  V30 2909 H 306.24 -4.10469 -5.60839 0
M  V30 2910 H 309.431 -2.52525 -3.94143 0
M  V30 2911 H 309.604 -3.70584 -5.31575 0
M  V30 2912 N 303.011 1.40521 -0.713556 0
M  V30 2913 C 303.959 2.32549 -0.0485227 0
M  V30 2914 C 304.953 1.51931 0.74922 0
M  V30 2915 O 306.159 1.67745 0.652816 0
M  V30 2916 H 302.534 0.751994 0.00311138 0
M  V30 2917 H 304.505 2.86291 -0.841443 0
M  V30 2918 C 303.254 3.36879 0.860687 0
M  V30 2919 H 302.577 3.98978 0.256246 0
M  V30 2920 H 304.017 4.03772 1.294 0
M  V30 2921 C 302.476 2.72197 1.9852 0
M  V30 2922 O 303.006 2.5837 3.07584 0
M  V30 2923 N 301.212 2.30612 1.76823 0
M  V30 2924 H 300.759 2.42059 0.881217 0
M  V30 2925 H 300.717 1.87672 2.52243 0
M  V30 2926 N 304.489 0.459591 1.5075 0
M  V30 2927 C 305.905 0.113092 1.59199 0
M  V30 2928 C 306.105 -1.37951 1.46874 0
M  V30 2929 O 305.161 -2.15168 1.32132 0
M  V30 2930 C 306.474 0.653043 2.93523 0
M  V30 2931 C 308.022 0.615449 3.0689 0
M  V30 2932 C 308.497 1.13275 4.43771 0
M  V30 2933 N 309.988 1.09167 4.50152 0
M  V30 2934 C 310.723 1.46256 5.54434 0
M  V30 2935 N 310.219 1.90739 6.66026 0
M  V30 2936 N 312.012 1.37932 5.44914 0
M  V30 2937 H 304.163 1.43049 1.57005 0
M  V30 2938 H 306.426 0.590861 0.741341 0
M  V30 2939 H 306.132 1.69822 3.07983 0
M  V30 2940 H 306.006 0.0902132 3.77092 0
M  V30 2941 H 308.393 -0.420793 2.92084 0
M  V30 2942 H 308.474 1.21495 2.25106 0
M  V30 2943 H 308.118 2.16757 4.59324 0
M  V30 2944 H 308.048 0.509576 5.24129 0
M  V30 2945 H 310.539 0.76528 3.7007 0
M  V30 2946 H 310.852 2.17218 7.41644 0
M  V30 2947 H 309.197 1.94683 6.67176 0
M  V30 2948 H 312.388 1.0303 4.56621 0
M  V30 2949 H 312.561 1.67164 6.26067 0
M  V30 2950 N 305.967 -1.56429 0.191757 0
M  V30 2951 C 307.383 -1.58754 -0.164137 0
M  V30 2952 C 307.583 -1.20782 -1.61288 0
M  V30 2953 O 306.639 -0.928999 -2.34789 0
M  V30 2954 C 307.952 -3.00396 0.135195 0
M  V30 2955 C 309.5 -3.1291 0.0750351 0
M  V30 2956 C 309.975 -4.56679 0.347632 0
M  V30 2957 N 311.466 -4.62252 0.296131 0
M  V30 2958 C 312.201 -5.71379 0.480948 0
M  V30 2959 N 311.697 -6.88986 0.725933 0
M  V30 2960 N 313.49 -5.60563 0.415435 0
M  V30 2961 H 305.641 -1.79393 1.13718 0
M  V30 2962 H 307.904 -0.832414 0.453643 0
M  V30 2963 H 307.61 -3.32726 1.13958 0
M  V30 2964 H 307.484 -3.72963 -0.563773 0
M  V30 2965 H 309.871 -2.80394 -0.919948 0
M  V30 2966 H 309.952 -2.42736 0.807029 0
M  V30 2967 H 309.596 -4.89907 1.33992 0
M  V30 2968 H 309.526 -5.25039 -0.405212 0
M  V30 2969 H 312.017 -3.7773 0.113259 0
M  V30 2970 H 312.33 -7.68046 0.855857 0
M  V30 2971 H 310.675 -6.90801 0.762788 0
M  V30 2972 H 313.866 -4.67561 0.224486 0
M  V30 2973 H 314.039 -6.45551 0.562889 0
M  V30 2974 N 307.445 0.0818655 -1.57387 0
M  V30 2975 C 308.693 0.781368 -1.86384 0
M  V30 2976 C 309.014 1.78618 -0.782342 0
M  V30 2977 O 308.284 1.94976 0.190061 0
M  V30 2978 H 306.864 0.291562 -0.687751 0
M  V30 2979 H 309.526 0.060348 -1.94807 0
M  V30 2980 H 308.622 1.3038 -2.83562 0
M  V30 2981 N 308.923 1.53595 0.353017 0
M  V30 2982 C 310.334 1.61937 0.929153 0
M  V30 2983 C 310.685 0.494686 1.89861 0
M  V30 2984 O 309.81 -0.377017 2.1309 0
M  V30 2985 C 310.405 2.93526 1.69199 0
M  V30 2986 C 308.964 3.04161 2.21727 0
M  V30 2987 C 308.111 2.57322 1.03348 0
M  V30 2988 H 311.062 1.58155 0.131431 0
M  V30 2989 H 311.083 2.82034 2.55416 0
M  V30 2990 H 310.595 3.75362 0.986144 0
M  V30 2991 H 308.696 2.26938 2.95516 0
M  V30 2992 H 308.809 4.09465 2.48748 0
M  V30 2993 H 307.173 2.12499 1.40414 0
M  V30 2994 H 307.956 3.41588 0.342428 0
M  V30 2995 N 310.401 -0.613514 1.45168 0
M  V30 2996 C 311.647 -1.37471 1.49096 0
M  V30 2997 C 311.98 -1.93765 0.129901 0
M  V30 2998 O 311.255 -1.74707 -0.854858 0
M  V30 2999 C 311.538 -2.52701 2.56542 0
M  V30 3000 C 311.391 -2.01643 4.0207 0
M  V30 3001 C 312.71 -3.54849 2.60327 0
M  V30 3002 H 309.829 -0.498502 0.54283 0
M  V30 3003 H 312.471 -0.692125 1.76945 0
M  V30 3004 H 310.621 -3.10931 2.32926 0
M  V30 3005 H 312.293 -1.48108 4.36877 0
M  V30 3006 H 310.536 -1.32688 4.13009 0
M  V30 3007 H 311.207 -2.84681 4.72928 0
M  V30 3008 H 313.683 -3.0645 2.81474 0
M  V30 3009 H 312.559 -4.32973 3.37381 0
M  V30 3010 H 312.82 -4.10079 1.6519 0
M  V30 3011 N 311.879 -1.3236 -0.855495 0
M  V30 3012 C 313.125 -1.23054 -1.612 0
M  V30 3013 C 313.458 0.207404 -1.93089 0
M  V30 3014 O 312.733 1.14432 -1.57275 0
M  V30 3015 C 313.016 -2.08937 -2.93287 0
M  V30 3016 C 312.869 -3.61105 -2.68185 0
M  V30 3017 C 314.188 -1.94986 -3.94549 0
M  V30 3018 H 311.307 -0.448364 -0.584926 0
M  V30 3019 H 313.949 -1.62297 -0.987917 0
M  V30 3020 H 312.099 -1.75599 -3.46551 0
M  V30 3021 H 313.771 -4.04652 -2.21483 0
M  V30 3022 H 312.014 -3.83813 -2.02164 0
M  V30 3023 H 312.685 -4.16522 -3.62234 0
M  V30 3024 H 315.161 -2.24189 -3.5054 0
M  V30 3025 H 314.037 -2.57356 -4.84829 0
M  V30 3026 H 314.298 -0.917263 -4.3248 0
M  V30 3027 N 313.357 1.07166 -1.15556 0
M  V30 3028 C 314.603 1.80065 -0.932984 0
M  V30 3029 C 314.936 1.86586 0.53845 0
M  V30 3030 O 314.211 1.35098 1.39924 0
M  V30 3031 C 314.494 3.25022 -1.55025 0
M  V30 3032 C 314.347 3.26634 -3.09242 0
M  V30 3033 C 315.666 4.22341 -1.2376 0
M  V30 3034 H 312.785 0.653697 -0.340366 0
M  V30 3035 H 315.427 1.25389 -1.4275 0
M  V30 3036 H 313.577 3.71712 -1.12972 0
M  V30 3037 H 315.249 2.88173 -3.60214 0
M  V30 3038 H 313.492 2.65539 -3.43033 0
M  V30 3039 H 314.163 4.28854 -3.47546 0
M  V30 3040 H 316.639 3.8405 -1.60139 0
M  V30 3041 H 315.515 5.22053 -1.69564 0
M  V30 3042 H 315.776 4.41828 -0.154938 0
M  V30 3043 N 314.835 0.952656 1.25548 0
M  V30 3044 C 315.782 0.47008 2.25962 0
M  V30 3045 C 316.752 -0.476384 1.59122 0
M  V30 3046 O 317.937 -0.39007 1.8677 0
M  V30 3047 C 315.077 -0.247881 3.44209 0
M  V30 3048 C 314.19 0.735591 4.25691 0
M  V30 3049 C 313.325 -0.0047306 5.312 0
M  V30 3050 C 312.364 0.969805 6.04368 0
M  V30 3051 N 311.501 0.260486 7.01617 0
M  V30 3052 H 316.341 1.33126 2.66611 0
M  V30 3053 H 313.878 0.66765 1.31076 0
M  V30 3054 H 315.836 -0.680695 4.1161 0
M  V30 3055 H 314.466 -1.07312 3.0444 0
M  V30 3056 H 313.518 1.28689 3.57971 0
M  V30 3057 H 314.83 1.47934 4.76358 0
M  V30 3058 H 313.984 -0.496275 6.04667 0
M  V30 3059 H 312.723 -0.781282 4.81401 0
M  V30 3060 H 311.728 1.47237 5.29718 0
M  V30 3061 H 312.953 1.74655 6.56256 0
M  V30 3062 H 310.899 -0.497364 6.54112 0
M  V30 3063 H 310.816 0.943362 7.50091 0
M  V30 3064 H 312.084 -0.209587 7.79218 0
M  V30 3065 N 316.313 -1.40141 0.720998 0
M  V30 3066 C 317.724 -1.83678 0.334553 0
M  V30 3067 C 318.075 -1.6027 -1.13173 0
M  V30 3068 O 317.2 -1.08643 -1.87152 0
M  V30 3069 C 317.795 -3.33437 0.600437 0
M  V30 3070 C 316.354 -3.75447 0.267642 0
M  V30 3071 C 315.501 -2.63296 0.870097 0
M  V30 3072 H 318.452 -1.29331 0.919732 0
M  V30 3073 H 318.473 -3.80269 -0.132517 0
M  V30 3074 H 317.985 -3.50442 1.66768 0
M  V30 3075 H 316.086 -3.64035 -0.794329 0
M  V30 3076 H 316.199 -4.73344 0.74042 0
M  V30 3077 H 314.563 -2.52954 0.297739 0
M  V30 3078 H 315.346 -2.83112 1.94172 0
M  V30 3079 N 317.792 -0.46758 -1.50504 0
M  V30 3080 C 319.041 0.0902868 -2.01498 0
M  V30 3081 C 319.354 1.411 -1.35463 0
M  V30 3082 O 320.56 2.0536 -1.77594 0
M  V30 3083 C 319.016 0.21142 -3.59278 0
M  V30 3084 C 318.624 -1.10065 -4.34269 0
M  V30 3085 C 320.368 0.721433 -4.18325 0
M  V30 3086 C 318.275 -0.943505 -5.83825 0
M  V30 3087 H 317.205 0.037517 -0.753066 0
M  V30 3088 H 319.856 -0.601943 -1.73346 0
M  V30 3089 H 318.238 0.967352 -3.84003 0
M  V30 3090 H 319.412 -1.86726 -4.21272 0
M  V30 3091 H 317.727 -1.5415 -3.86816 0
M  V30 3092 H 320.324 0.85598 -5.27804 0
M  V30 3093 H 320.667 1.71186 -3.79475 0
M  V30 3094 H 321.2 0.0229843 -3.97793 0
M  V30 3095 H 317.939 -1.90719 -6.27141 0
M  V30 3096 H 317.459 -0.217213 -5.99407 0
M  V30 3097 H 319.138 -0.608715 -6.4413 0
M  V30 3098 N 319.27 1.56325 -0.20005 0
M  V30 3099 C 320.681 1.8408 0.31167 0
M  V30 3100 C 321.032 1.12087 1.61031 0
M  V30 3101 O 320.157 0.38332 2.12978 0
M  V30 3102 C 320.752 3.33932 0.57226 0
M  V30 3103 C 319.311 3.6208 1.02834 0
M  V30 3104 C 318.458 2.77186 0.079634 0
M  V30 3105 H 321.409 1.52939 -0.423729 0
M  V30 3106 H 321.43 3.52971 1.42096 0
M  V30 3107 H 320.942 3.86303 -0.37308 0
M  V30 3108 H 319.043 3.15147 1.98778 0
M  V30 3109 H 319.156 4.7023 0.917624 0
M  V30 3110 H 317.52 2.47951 0.582448 0
M  V30 3111 H 318.303 3.32347 -0.860238 0
M  V30 3112 N 320.748 -0.0735177 1.57428 0
M  V30 3113 C 321.994 -0.774145 1.87443 0
M  V30 3114 C 322.327 -1.77311 0.792103 0
M  V30 3115 O 321.602 -1.93492 -0.197793 0
M  V30 3116 C 321.885 -1.48367 3.28115 0
M  V30 3117 C 321.738 -0.501227 4.46999 0
M  V30 3118 C 323.057 -2.429 3.66998 0
M  V30 3119 H 320.176 -0.279971 0.681752 0
M  V30 3120 H 322.818 -0.0373616 1.89963 0
M  V30 3121 H 320.968 -2.11171 3.26097 0
M  V30 3122 H 322.64 0.121468 4.6114 0
M  V30 3123 H 320.883 0.183593 4.33411 0
M  V30 3124 H 321.554 -1.03526 5.42205 0
M  V30 3125 H 324.03 -1.90175 3.70098 0
M  V30 3126 H 322.906 -2.89549 4.66318 0
M  V30 3127 H 323.167 -3.27628 2.96837 0
M  V30 3128 N 322.226 -1.5378 -0.344866 0
M  V30 3129 C 323.173 -1.81676 -1.42346 0
M  V30 3130 C 324.143 -0.662376 -1.52321 0
M  V30 3131 O 325.328 -0.906675 -1.67881 0
M  V30 3132 C 322.468 -2.03087 -2.79015 0
M  V30 3133 C 321.581 -3.30799 -2.77842 0
M  V30 3134 C 320.716 -3.42285 -4.0622 0
M  V30 3135 C 319.755 -4.6395 -3.9927 0
M  V30 3136 N 318.892 -4.72477 -5.19336 0
M  V30 3137 H 323.732 -2.73703 -1.17858 0
M  V30 3138 H 321.269 -1.35568 -0.570949 0
M  V30 3139 H 323.227 -2.1349 -3.58438 0
M  V30 3140 H 321.857 -1.14375 -3.01858 0
M  V30 3141 H 320.909 -3.29244 -1.90533 0
M  V30 3142 H 322.221 -4.20314 -2.68584 0
M  V30 3143 H 321.375 -3.52113 -4.94066 0
M  V30 3144 H 320.114 -2.50823 -4.18258 0
M  V30 3145 H 319.119 -4.54201 -3.09809 0
M  V30 3146 H 320.344 -5.56775 -3.88817 0
M  V30 3147 H 318.29 -3.83924 -5.3192 0
M  V30 3148 H 318.207 -5.55927 -5.12329 0
M  V30 3149 H 319.475 -4.86613 -6.08957 0
M  V30 3150 N 323.704 0.605807 -1.45491 0
M  V30 3151 C 324.952 1.36207 -1.49305 0
M  V30 3152 C 325.273 1.94519 -0.136863 0
M  V30 3153 O 324.543 1.77261 0.833983 0
M  V30 3154 H 323.123 0.50565 -0.549843 0
M  V30 3155 H 325.785 0.711239 -1.81459 0
M  V30 3156 H 324.881 2.18058 -2.23287 0
M  V30 3157 N 325.182 1.32811 0.848464 0
M  V30 3158 C 326.459 1.14334 1.58704 0
M  V30 3159 C 326.839 -0.293948 2.09043 0
M  V30 3160 O 326.187 -1.29153 1.88499 0
M  V30 3161 C 326.397 2.17626 2.72837 0
M  V30 3162 C 327.745 2.51282 3.42261 0
M  V30 3163 O 328.769 2.16219 2.83068 0
M  V30 3164 O 327.628 3.11413 4.49093 0
M  V30 3165 H 324.722 0.441601 0.699226 0
M  V30 3166 H 327.268 1.44362 0.892053 0
M  V30 3167 H 326.04 3.14211 2.3321 0
M  V30 3168 H 325.663 1.88628 3.50008 0
M  V30 3169 N 326.66 -1.06551 1.16123 0
M  V30 3170 C 327.908 -1.78947 0.939267 0
M  V30 3171 C 328.229 -1.87532 -0.534476 0
M  V30 3172 O 327.499 -1.38211 -1.38833 0
M  V30 3173 H 326.079 -0.662807 0.344523 0
M  V30 3174 H 328.741 -1.28725 1.46342 0
M  V30 3175 H 327.837 -2.81117 1.35572 0
M  V30 3176 N 328.138 -0.959301 -1.25041 0
M  V30 3177 C 329.363 -0.633507 -1.97488 0
M  V30 3178 C 329.788 0.788555 -1.70773 0
M  V30 3179 O 329.146 1.53394 -0.966431 0
M  V30 3180 C 329.194 -0.904057 -3.49083 0
M  V30 3181 O 328.298 0.0147939 -4.12397 0
M  V30 3182 H 327.639 -0.240368 -0.618966 0
M  V30 3183 H 330.169 -1.28717 -1.59038 0
M  V30 3184 H 330.179 -0.832203 -3.99423 0
M  V30 3185 H 328.854 -1.94048 -3.67856 0
M  V30 3186 H 327.431 -0.109664 -3.72739 0
M  V30 3187 N 329.616 1.39756 -0.72842 0
M  V30 3188 C 330.526 2.34444 -0.0855374 0
M  V30 3189 C 331.542 1.57976 0.729356 0
M  V30 3190 O 332.718 1.90301 0.659346 0
M  V30 3191 C 329.783 3.36965 0.815798 0
M  V30 3192 C 328.844 4.29299 -0.0105996 0
M  V30 3193 C 328.077 5.26923 0.84781 0
M  V30 3194 O 328.3 5.30859 2.08673 0
M  V30 3195 O 327.234 6.01249 0.279969 0
M  V30 3196 H 331.06 2.91065 -0.866892 0
M  V30 3197 H 328.645 1.4117 -0.48902 0
M  V30 3198 H 330.527 3.99804 1.33171 0
M  V30 3199 H 329.202 2.82739 1.57608 0
M  V30 3200 H 328.109 3.69703 -0.571877 0
M  V30 3201 H 329.442 4.86712 -0.73295 0
M  V30 3202 N 331.094 0.475555 1.50254 0
M  V30 3203 C 332.027 -0.362381 2.25304 0
M  V30 3204 C 333.005 -0.992393 1.28803 0
M  V30 3205 O 334.189 -1.02746 1.58036 0
M  V30 3206 C 331.316 -1.50813 3.03271 0
M  V30 3207 C 330.362 -0.995044 4.1473 0
M  V30 3208 S 331.195 0.0938436 5.35418 0
M  V30 3209 C 332.351 -1.05567 6.16933 0
M  V30 3210 H 332.584 0.274686 2.96028 0
M  V30 3211 H 330.117 0.260495 1.52187 0
M  V30 3212 H 332.075 -2.16476 3.48781 0
M  V30 3213 H 330.736 -2.11672 2.32064 0
M  V30 3214 H 329.929 -1.85293 4.68703 0
M  V30 3215 H 329.531 -0.416052 3.71679 0
M  V30 3216 H 331.823 -1.96636 6.48337 0
M  V30 3217 H 332.766 -0.555109 7.05921 0
M  V30 3218 H 333.174 -1.31151 5.49053 0
M  V30 3219 N 332.573 -1.56217 0.208337 0
M  V30 3220 C 333.521 -2.21053 -0.723769 0
M  V30 3221 C 334.515 -1.18578 -1.20978 0
M  V30 3222 O 335.721 -1.36691 -1.17114 0
M  V30 3223 H 332.096 -0.708595 -0.251788 0
M  V30 3224 H 334.067 -2.98006 -0.153365 0
M  V30 3225 C 332.816 -2.89417 -1.927 0
M  V30 3226 H 332.139 -3.68019 -1.56212 0
M  V30 3227 H 333.579 -3.38201 -2.55727 0
M  V30 3228 C 332.038 -1.91166 -2.77411 0
M  V30 3229 O 332.568 -1.42026 -3.75754 0
M  V30 3230 N 330.774 -1.59105 -2.43175 0
M  V30 3231 H 330.321 -1.99259 -1.63259 0
M  V30 3232 H 330.279 -0.936255 -3.00136 0
M  V30 3233 N 334.051 0.0651679 -1.57465 0
M  V30 3234 C 335.001 1.0838 -2.00594 0
M  V30 3235 C 335.985 1.34106 -0.889071 0
M  V30 3236 O 337.177 1.34295 -1.15299 0
M  V30 3237 C 334.306 2.39565 -2.45894 0
M  V30 3238 C 333.392 2.17085 -3.64328 0
M  V30 3239 N 333.783 1.64553 -4.78285 0
M  V30 3240 C 332.081 2.4753 -3.71006 0
M  V30 3241 C 332.782 1.57042 -5.60101 0
M  V30 3242 N 331.758 2.03328 -5.04141 0
M  V30 3243 H 335.56 0.671062 -2.86136 0
M  V30 3244 H 333.074 0.27213 -1.60104 0
M  V30 3245 H 335.071 3.13308 -2.75034 0
M  V30 3246 H 333.731 2.81549 -1.61741 0
M  V30 3247 H 334.742 1.33323 -5.00445 0
M  V30 3248 H 331.419 2.92835 -2.9758 0
M  V30 3249 H 332.809 1.17223 -6.61595 0
M  V30 3250 N 335.529 1.53961 0.336706 0
M  V30 3251 C 336.459 1.85417 1.41925 0
M  V30 3252 C 337.44 0.709856 1.5458 0
M  V30 3253 O 338.625 0.962396 1.68676 0
M  V30 3254 C 335.755 2.06985 2.78881 0
M  V30 3255 C 334.709 3.22813 2.81026 0
M  V30 3256 C 334.035 3.29727 4.20932 0
M  V30 3257 C 335.335 4.60767 2.45949 0
M  V30 3258 H 337.029 2.76079 1.15848 0
M  V30 3259 H 334.575 1.32839 0.555859 0
M  V30 3260 H 336.528 2.27575 3.54665 0
M  V30 3261 H 335.252 1.13061 3.06406 0
M  V30 3262 H 333.911 3.0209 2.07695 0
M  V30 3263 H 333.559 2.33385 4.45579 0
M  V30 3264 H 333.259 4.07566 4.23277 0
M  V30 3265 H 334.783 3.52536 4.98549 0
M  V30 3266 H 336.197 4.81325 3.11446 0
M  V30 3267 H 334.594 5.4106 2.59566 0
M  V30 3268 H 335.664 4.6391 1.41122 0
M  V30 3269 N 337.007 -0.598083 1.45811 0
M  V30 3270 C 337.97 -1.69018 1.54808 0
M  V30 3271 C 338.97 -1.55037 0.426652 0
M  V30 3272 O 340.16 -1.59932 0.690456 0
M  V30 3273 C 337.292 -3.0835 1.45371 0
M  V30 3274 H 338.485 -1.62403 2.52121 0
M  V30 3275 H 336.038 -0.814626 1.33392 0
M  V30 3276 H 336.773 -3.20534 0.492793 0
M  V30 3277 H 336.558 -3.19907 2.26721 0
M  V30 3278 H 338.048 -3.8788 1.54721 0
M  V30 3279 N 338.485 -1.33259 -0.841409 0
M  V30 3280 C 339.448 -1.23221 -1.9326 0
M  V30 3281 C 340.448 -0.151895 -1.60081 0
M  V30 3282 O 341.638 -0.403246 -1.69468 0
M  V30 3283 C 338.77 -0.898123 -3.28856 0
M  V30 3284 H 339.963 -2.2021 -2.03587 0
M  V30 3285 H 337.516 -1.17281 -1.03319 0
M  V30 3286 H 338.251 0.0693841 -3.24226 0
M  V30 3287 H 338.036 -1.67934 -3.54317 0
M  V30 3288 H 339.526 -0.852563 -4.08805 0
M  V30 3289 N 339.963 1.05934 -1.16686 0
M  V30 3290 C 340.873 2.17014 -0.891183 0
M  V30 3291 C 341.889 1.73453 0.137907 0
M  V30 3292 O 343.065 2.01361 -0.039592 0
M  V30 3293 C 340.13 3.44384 -0.400099 0
M  V30 3294 C 339.191 4.02433 -1.49486 0
M  V30 3295 C 338.424 5.23723 -1.02711 0
M  V30 3296 O 338.647 5.7027 0.121716 0
M  V30 3297 O 337.581 5.7382 -1.81699 0
M  V30 3298 H 341.407 2.43113 -1.82015 0
M  V30 3299 H 338.992 1.15541 -0.947132 0
M  V30 3300 H 340.874 4.21189 -0.133392 0
M  V30 3301 H 339.549 3.19802 0.500817 0
M  V30 3302 H 338.456 3.27102 -1.81535 0
M  V30 3303 H 339.789 4.31317 -2.37121 0
M  V30 3304 N 341.441 0.965919 1.2453 0
M  V30 3305 C 342.666 0.643971 1.97149 0
M  V30 3306 C 343.091 -0.779487 1.71189 0
M  V30 3307 O 342.449 -1.5288 0.974553 0
M  V30 3308 C 342.497 0.922557 3.48599 0
M  V30 3309 O 341.601 0.00707672 4.12399 0
M  V30 3310 H 340.942 0.243647 0.617683 0
M  V30 3311 H 343.472 1.29558 1.58353 0
M  V30 3312 H 343.482 0.853373 3.98976 0
M  V30 3313 H 342.157 1.95996 3.66822 0
M  V30 3314 H 340.734 0.12943 3.72675 0
M  V30 3315 N 342.919 -1.39368 0.735821 0
M  V30 3316 C 344.33 -1.83313 0.354015 0
M  V30 3317 C 344.681 -1.61461 -1.11466 0
M  V30 3318 O 343.806 -1.10621 -1.85989 0
M  V30 3319 C 344.401 -3.32781 0.635769 0
M  V30 3320 C 342.96 -3.75142 0.307448 0
M  V30 3321 C 342.107 -2.62358 0.897974 0
M  V30 3322 H 345.058 -1.28349 0.933398 0
M  V30 3323 H 345.079 -3.80388 -0.0921773 0
M  V30 3324 H 344.591 -3.48654 1.70476 0
M  V30 3325 H 342.692 -3.64857 -0.755674 0
M  V30 3326 H 342.805 -4.72532 0.790583 0
M  V30 3327 H 341.169 -2.52624 0.324551 0
M  V30 3328 H 341.952 -2.81036 1.97164 0
M  V30 3329 N 344.397 -0.483516 -1.5 0
M  V30 3330 C 345.645 0.067027 -2.01989 0
M  V30 3331 C 345.966 1.3909 -1.36671 0
M  V30 3332 O 345.236 1.88978 -0.516152 0
M  V30 3333 H 343.816 0.0277606 -0.746484 0
M  V30 3334 H 346.478 -0.636773 -1.84204 0
M  V30 3335 H 345.574 0.209484 -3.11396 0
M  V30 3336 N 345.875 1.56104 -0.216619 0
M  V30 3337 C 346.785 2.23694 0.706982 0
M  V30 3338 C 347.801 1.24295 1.21765 0
M  V30 3339 O 348.977 1.57094 1.2603 0
M  V30 3340 C 346.042 2.8998 1.90033 0
M  V30 3341 C 345.103 4.04708 1.43213 0
M  V30 3342 C 344.336 4.67824 2.56859 0
M  V30 3343 O 344.559 4.29913 3.74874 0
M  V30 3344 O 343.493 5.56905 2.28343 0
M  V30 3345 H 347.319 3.03272 0.161235 0
M  V30 3346 H 344.904 1.49394 0.0136177 0
M  V30 3347 H 346.786 3.31837 2.59735 0
M  V30 3348 H 345.461 2.13365 2.43428 0
M  V30 3349 H 344.368 3.6743 0.70327 0
M  V30 3350 H 345.701 4.83051 0.944615 0
M  V30 3351 N 347.353 -0.0568162 1.57498 0
M  V30 3352 C 348.599 -0.75422 1.88253 0
M  V30 3353 C 348.932 -1.76461 0.810865 0
M  V30 3354 O 348.207 -1.93691 -0.177259 0
M  V30 3355 C 348.49 -1.44878 3.2967 0
M  V30 3356 C 348.343 -0.453789 4.47505 0
M  V30 3357 C 349.662 -2.38994 3.69554 0
M  V30 3358 H 346.781 -0.272724 0.684683 0
M  V30 3359 H 349.423 -0.0172113 1.89992 0
M  V30 3360 H 347.573 -2.077 3.28318 0
M  V30 3361 H 349.245 0.170371 4.60985 0
M  V30 3362 H 347.488 0.229552 4.33192 0
M  V30 3363 H 348.159 -0.977699 5.43273 0
M  V30 3364 H 350.635 -1.86239 3.72095 0
M  V30 3365 H 349.511 -2.84587 4.69363 0
M  V30 3366 H 349.772 -3.24461 3.00296 0
M  V30 3367 N 348.832 -1.54138 -0.328536 0
M  V30 3368 C 349.764 -1.79509 -1.4251 0
M  V30 3369 C 350.777 -0.67688 -1.48061 0
M  V30 3370 O 351.966 -0.953898 -1.50874 0
M  V30 3371 C 349.066 -1.89337 -2.81078 0
M  V30 3372 C 348.239 -3.19443 -2.98789 0
M  V30 3373 C 347.298 -3.20036 -4.17688 0
M  V30 3374 O 346.324 -3.93697 -4.11086 0
M  V30 3375 N 347.526 -2.43467 -5.26976 0
M  V30 3376 H 350.291 -2.74139 -1.21111 0
M  V30 3377 H 347.852 -1.53373 -0.518499 0
M  V30 3378 H 349.844 -1.87167 -3.58818 0
M  V30 3379 H 348.414 -1.01826 -2.95551 0
M  V30 3380 H 347.634 -3.34614 -2.08391 0
M  V30 3381 H 348.922 -4.05354 -3.07515 0
M  V30 3382 H 348.32 -1.83201 -5.35214 0
M  V30 3383 H 346.877 -2.4708 -6.03154 0
M  V30 3384 N 350.31 0.590341 -1.46126 0
M  V30 3385 C 351.273 1.68194 -1.55703 0
M  V30 3386 C 352.273 1.54808 -0.434868 0
M  V30 3387 O 353.463 1.59564 -0.698928 0
M  V30 3388 C 350.595 3.07575 -1.47005 0
M  V30 3389 H 351.788 1.61064 -2.52979 0
M  V30 3390 H 349.341 0.807541 -1.33823 0
M  V30 3391 H 350.076 3.20268 -0.509785 0
M  V30 3392 H 349.861 3.187 -2.28414 0
M  V30 3393 H 351.351 3.87055 -1.56776 0
M  V30 3394 N 351.788 1.33704 0.83433 0
M  V30 3395 C 353.013 1.28615 1.62705 0
M  V30 3396 C 353.438 -0.139242 1.87584 0
M  V30 3397 O 352.796 -1.09734 1.4432 0
M  V30 3398 C 352.844 2.07139 2.95171 0
M  V30 3399 O 351.948 1.4331 3.86699 0
M  V30 3400 H 351.289 0.44226 0.49528 0
M  V30 3401 H 353.819 1.76335 1.03766 0
M  V30 3402 H 353.829 2.18073 3.44831 0
M  V30 3403 H 352.504 3.10779 2.76386 0
M  V30 3404 H 351.081 1.4105 3.45195 0
M  V30 3405 N 353.266 -1.05314 1.17247 0
M  V30 3406 C 354.229 -2.112 0.890357 0
M  V30 3407 C 355.229 -1.60359 -0.118943 0
M  V30 3408 O 356.419 -1.73833 0.113086 0
M  V30 3409 C 353.551 -3.39266 0.333422 0
M  V30 3410 H 354.744 -2.37659 1.82916 0
M  V30 3411 H 352.297 -1.21538 0.982758 0
M  V30 3412 H 353.032 -3.18462 -0.612587 0
M  V30 3413 H 352.817 -3.77477 1.06082 0
M  V30 3414 H 354.307 -4.17315 0.154322 0
M  V30 3415 N 354.744 -0.972509 -1.24016 0
M  V30 3416 C 355.707 -0.511403 -2.23422 0
M  V30 3417 C 356.707 0.394679 -1.55881 0
M  V30 3418 O 357.897 0.189469 -1.73167 0
M  V30 3419 C 355.029 0.258769 -3.39916 0
M  V30 3420 H 356.222 -1.39024 -2.6573 0
M  V30 3421 H 353.775 -0.757585 -1.36713 0
M  V30 3422 H 354.51 1.1545 -3.03054 0
M  V30 3423 H 354.295 -0.391522 -3.9014 0
M  V30 3424 H 355.785 0.570244 -4.13688 0
M  V30 3425 N 356.222 1.38976 -0.743202 0
M  V30 3426 C 357.447 2.05161 -0.303936 0
M  V30 3427 C 357.872 1.55677 1.05576 0
M  V30 3428 O 357.23 0.704131 1.67068 0
M  V30 3429 C 357.278 3.59138 -0.324373 0
M  V30 3430 O 356.382 4.06668 0.685204 0
M  V30 3431 H 355.723 0.649815 -0.136518 0
M  V30 3432 H 358.253 1.77852 -1.01142 0
M  V30 3433 H 358.263 4.07639 -0.171618 0
M  V30 3434 H 356.938 3.94515 -1.31647 0
M  V30 3435 H 355.515 3.69561 0.497913 0
M  V30 3436 N 357.7 0.491464 1.49741 0
M  V30 3437 C 359.111 0.0413169 1.86654 0
M  V30 3438 C 359.462 -1.36985 1.40462 0
M  V30 3439 O 358.587 -2.01917 0.778354 0
M  V30 3440 C 359.182 0.0682023 3.38731 0
M  V30 3441 C 357.741 -0.32656 3.74981 0
M  V30 3442 C 356.888 0.444888 2.73708 0
M  V30 3443 H 359.839 0.704733 1.42194 0
M  V30 3444 H 359.86 -0.729322 3.73445 0
M  V30 3445 H 359.372 1.09539 3.72321 0
M  V30 3446 H 357.473 -1.35734 3.46997 0
M  V30 3447 H 357.586 -0.013741 4.79098 0
M  V30 3448 H 355.95 -0.104062 2.54487 0
M  V30 3449 H 356.733 1.47197 3.10142 0
M  V30 3450 N 359.178 -1.55987 0.224894 0
M  V30 3451 C 360.141 -2.19178 -0.670348 0
M  V30 3452 C 361.141 -1.15461 -1.11917 0
M  V30 3453 O 362.331 -1.40675 -1.02743 0
M  V30 3454 C 359.463 -2.81777 -1.9187 0
M  V30 3455 H 360.656 -2.99662 -0.119364 0
M  V30 3456 H 358.209 -1.5628 -0.0247128 0
M  V30 3457 H 358.944 -2.05172 -2.51147 0
M  V30 3458 H 358.729 -3.57732 -1.60531 0
M  V30 3459 H 360.219 -3.30205 -2.55645 0
M  V30 3460 N 360.656 0.0484629 -1.57525 0
M  V30 3461 C 361.881 0.759177 -1.93006 0
M  V30 3462 C 362.306 1.69125 -0.823317 0
M  V30 3463 O 361.664 1.79931 0.222364 0
M  V30 3464 C 361.712 1.50899 -3.27509 0
M  V30 3465 O 360.816 2.62112 -3.18388 0
M  V30 3466 H 360.157 0.205564 -0.631379 0
M  V30 3467 H 362.687 0.00972959 -2.04598 0
M  V30 3468 H 362.697 1.88317 -3.6194 0
M  V30 3469 H 361.372 0.825269 -4.0763 0
M  V30 3470 H 359.949 2.27379 -2.95556 0
M  V30 3471 N 362.134 1.5431 0.320358 0
M  V30 3472 C 363.081 1.83918 1.39438 0
M  V30 3473 C 364.051 0.686525 1.51248 0
M  V30 3474 O 365.236 0.933269 1.66417 0
M  V30 3475 C 362.376 2.075 2.75749 0
M  V30 3476 C 361.489 3.35177 2.72544 0
M  V30 3477 C 360.624 3.48704 4.00723 0
M  V30 3478 C 359.663 4.70244 3.91838 0
M  V30 3479 N 358.8 4.80679 5.11754 0
M  V30 3480 H 363.64 2.75544 1.13489 0
M  V30 3481 H 361.177 1.36459 0.549309 0
M  V30 3482 H 363.135 2.19166 3.54996 0
M  V30 3483 H 361.765 1.19163 3 0
M  V30 3484 H 360.817 3.32233 1.85271 0
M  V30 3485 H 362.129 4.24534 2.61863 0
M  V30 3486 H 361.283 3.59928 4.88402 0
M  V30 3487 H 360.022 2.57445 4.14214 0
M  V30 3488 H 359.027 4.59072 3.02544 0
M  V30 3489 H 360.252 5.6289 3.7991 0
M  V30 3490 H 358.198 3.92337 5.25745 0
M  V30 3491 H 358.115 5.64007 5.0342 0
M  V30 3492 H 359.383 4.96239 6.01138 0
M  V30 3493 N 363.613 -0.582584 1.46437 0
M  V30 3494 C 364.861 -1.33814 1.51453 0
M  V30 3495 C 365.182 -1.94277 0.167792 0
M  V30 3496 O 364.452 -1.78566 -0.805677 0
M  V30 3497 H 363.032 -0.496838 0.557818 0
M  V30 3498 H 365.694 -0.682281 1.82568 0
M  V30 3499 H 364.79 -2.14479 2.26728 0
M  V30 3500 N 365.091 -1.34144 -0.827227 0
M  V30 3501 C 366.507 -1.13732 -1.11969 0
M  V30 3502 C 366.707 0.0640463 -2.01398 0
M  V30 3503 O 365.763 0.740856 -2.41387 0
M  V30 3504 C 367.076 -2.43047 -1.77055 0
M  V30 3505 C 368.624 -2.49063 -1.89569 0
M  V30 3506 C 369.099 -3.78369 -2.58072 0
M  V30 3507 N 370.59 -3.79505 -2.65575 0
M  V30 3508 C 371.325 -4.76274 -3.19297 0
M  V30 3509 N 370.821 -5.83424 -3.73616 0
M  V30 3510 N 372.614 -4.63735 -3.17658 0
M  V30 3511 H 364.765 -2.11126 -0.232296 0
M  V30 3512 H 367.028 -0.933424 -0.165602 0
M  V30 3513 H 366.734 -3.31025 -1.18807 0
M  V30 3514 H 366.608 -2.56066 -2.76966 0
M  V30 3515 H 368.995 -1.61527 -2.46968 0
M  V30 3516 H 369.076 -2.39975 -0.885745 0
M  V30 3517 H 368.72 -4.66293 -2.01329 0
M  V30 3518 H 368.65 -3.84737 -3.59562 0
M  V30 3519 H 371.141 -3.02074 -2.27068 0
M  V30 3520 H 371.454 -6.53282 -4.12846 0
M  V30 3521 H 369.799 -5.87143 -3.71871 0
M  V30 3522 H 372.99 -3.79177 -2.74486 0
M  V30 3523 H 373.163 -5.39318 -3.59221 0
M  V30 3524 N 366.569 1.04691 -1.17803 0
M  V30 3525 C 367.985 1.29963 -0.926379 0
M  V30 3526 C 368.185 1.97251 0.411635 0
M  V30 3527 O 367.241 2.24922 1.14744 0
M  V30 3528 C 368.554 2.16447 -2.08737 0
M  V30 3529 C 370.102 2.29814 -2.12496 0
M  V30 3530 C 370.577 3.19661 -3.27995 0
M  V30 3531 N 372.068 3.27247 -3.27816 0
M  V30 3532 C 372.803 3.96906 -4.13827 0
M  V30 3533 N 372.299 4.6895 -5.09959 0
M  V30 3534 N 374.092 3.93122 -4.01761 0
M  V30 3535 H 366.243 0.594182 -2.0392 0
M  V30 3536 H 368.506 0.324649 -0.890678 0
M  V30 3537 H 368.212 1.74304 -3.05469 0
M  V30 3538 H 368.086 3.17103 -2.04268 0
M  V30 3539 H 370.473 2.71196 -1.16347 0
M  V30 3540 H 370.554 1.2877 -2.21025 0
M  V30 3541 H 370.198 2.78991 -4.24413 0
M  V30 3542 H 370.128 4.20722 -3.16703 0
M  V30 3543 H 372.619 2.75921 -2.58217 0
M  V30 3544 H 372.932 5.19679 -5.71974 0
M  V30 3545 H 371.277 4.67875 -5.13924 0
M  V30 3546 H 374.468 3.35967 -3.2595 0
M  V30 3547 H 374.641 4.47139 -4.6901 0
M  V30 3548 N 368.047 0.979072 1.23499 0
M  V30 3549 C 369.272 0.664845 1.96455 0
M  V30 3550 C 369.697 -0.761287 1.72006 0
M  V30 3551 O 369.055 -1.51837 0.990713 0
M  V30 3552 C 369.103 0.959479 3.47601 0
M  V30 3553 O 368.207 0.0508168 4.12369 0
M  V30 3554 H 367.548 0.250185 0.615064 0
M  V30 3555 H 370.078 1.31231 1.5697 0
M  V30 3556 H 370.088 0.895642 3.98048 0
M  V30 3557 H 368.763 1.99876 3.64723 0
M  V30 3558 H 367.34 0.16895 3.72517 0
M  V30 3559 N 369.525 -1.3858 0.750561 0
M  V30 3560 C 370.936 -1.82927 0.373438 0
M  V30 3561 C 371.287 -1.62634 -1.09748 0
M  V30 3562 O 370.412 -1.12588 -1.84805 0
M  V30 3563 C 371.007 -3.32088 0.671029 0
M  V30 3564 C 369.566 -3.74795 0.34722 0
M  V30 3565 C 368.713 -2.61391 0.92575 0
M  V30 3566 H 371.664 -1.27351 0.946958 0
M  V30 3567 H 371.685 -3.80465 -0.0518269 0
M  V30 3568 H 371.197 -3.46826 1.74164 0
M  V30 3569 H 369.298 -3.65638 -0.716933 0
M  V30 3570 H 369.411 -4.71667 0.840656 0
M  V30 3571 H 367.775 -2.52265 0.351327 0
M  V30 3572 H 368.558 -2.78929 2.00133 0
M  V30 3573 N 371.003 -0.499398 -1.49478 0
M  V30 3574 C 372.228 0.044722 -2.07352 0
M  V30 3575 C 372.653 1.30207 -1.35749 0
M  V30 3576 O 372.011 1.76516 -0.413732 0
M  V30 3577 C 372.059 0.283013 -3.59488 0
M  V30 3578 O 371.163 1.35804 -3.89398 0
M  V30 3579 H 370.504 -0.0255147 -0.66351 0
M  V30 3580 H 373.034 -0.698561 -1.92305 0
M  V30 3581 H 373.044 0.515007 -4.04737 0
M  V30 3582 H 371.719 -0.635636 -4.11014 0
M  V30 3583 H 370.296 1.11113 -3.55961 0
M  V30 3584 N 372.481 1.55866 -0.233164 0
M  V30 3585 C 373.892 1.847 0.272554 0
M  V30 3586 C 374.243 1.15477 1.58617 0
M  V30 3587 O 373.368 0.42841 2.12117 0
M  V30 3588 C 373.963 3.35071 0.501299 0
M  V30 3589 C 372.522 3.6418 0.951304 0
M  V30 3590 C 371.669 2.77292 0.0208209 0
M  V30 3591 H 374.62 1.52005 -0.456074 0
M  V30 3592 H 374.641 3.55906 1.34577 0
M  V30 3593 H 374.153 3.85424 -0.454936 0
M  V30 3594 H 372.254 3.19293 1.92049 0
M  V30 3595 H 372.367 4.72071 0.817675 0
M  V30 3596 H 370.731 2.49131 0.529723 0
M  V30 3597 H 371.514 3.30448 -0.93054 0
M  V30 3598 N 373.959 -0.0401083 1.57549 0
M  V30 3599 C 375.207 -0.731677 1.8839 0
M  V30 3600 C 375.528 -1.76481 0.829425 0
M  V30 3601 O 374.798 -1.95411 -0.1383 0
M  V30 3602 H 373.378 -0.273225 0.695239 0
M  V30 3603 H 376.04 -0.00867725 1.94898 0
M  V30 3604 H 375.136 -1.22816 2.86919 0
M  V30 3605 N 375.437 -1.54477 -0.31217 0
M  V30 3606 C 376.385 -1.85395 -1.40469 0
M  V30 3607 C 377.379 -0.726749 -1.53019 0
M  V30 3608 O 378.585 -0.910582 -1.55269 0
M  V30 3609 H 374.96 -0.587845 -0.46898 0
M  V30 3610 H 376.931 -2.76736 -1.11623 0
M  V30 3611 C 375.68 -2.10811 -2.76503 0
M  V30 3612 H 375.003 -2.97014 -2.67625 0
M  V30 3613 H 376.443 -2.3639 -3.51988 0
M  V30 3614 C 374.902 -0.903165 -3.24568 0
M  V30 3615 O 375.432 -0.118085 -4.01526 0
M  V30 3616 N 373.638 -0.711634 -2.81752 0
M  V30 3617 H 373.185 -1.35171 -2.19286 0
M  V30 3618 H 373.143 0.0930473 -3.14262 0
M  V30 3619 N 376.915 0.57481 -1.46744 0
M  V30 3620 C 378.14 1.36341 -1.56288 0
M  V30 3621 C 378.565 1.86954 -0.207347 0
M  V30 3622 O 377.923 1.62006 0.813871 0
M  V30 3623 C 377.971 2.52147 -2.57787 0
M  V30 3624 O 377.075 3.53834 -2.11838 0
M  V30 3625 H 376.416 0.405713 -0.525636 0
M  V30 3626 H 378.946 0.696453 -1.92382 0
M  V30 3627 H 378.956 2.98958 -2.77648 0
M  V30 3628 H 377.631 2.14663 -3.5622 0
M  V30 3629 H 376.208 3.1345 -2.01999 0
M  V30 3630 N 378.394 1.34581 0.820102 0
M  V30 3631 C 379.805 1.24298 1.39309 0
M  V30 3632 C 380.156 -0.130351 1.95767 0
M  V30 3633 O 379.281 -1.0308 1.90272 0
M  V30 3634 C 379.876 2.25054 2.53251 0
M  V30 3635 C 378.435 2.18552 3.0645 0
M  V30 3636 C 377.582 2.11503 1.79337 0
M  V30 3637 H 380.533 1.45906 0.624262 0
M  V30 3638 H 380.554 1.86917 3.31425 0
M  V30 3639 H 380.066 3.24996 2.1213 0
M  V30 3640 H 378.167 1.21976 3.52069 0
M  V30 3641 H 378.28 3.0993 3.65349 0
M  V30 3642 H 376.644 1.57268 2.00347 0
M  V30 3643 H 377.427 3.13284 1.40386 0
M  V30 3644 N 379.872 -1.04064 1.18357 0
M  V30 3645 C 381.097 -1.81454 1.00445 0
M  V30 3646 C 381.522 -1.82823 -0.442423 0
M  V30 3647 O 380.88 -1.24555 -1.31741 0
M  V30 3648 C 380.928 -3.24925 1.56384 0
M  V30 3649 O 380.032 -4.04856 0.785209 0
M  V30 3650 H 379.373 -0.560604 0.355835 0
M  V30 3651 H 381.903 -1.31059 1.57114 0
M  V30 3652 H 381.913 -3.75702 1.59097 0
M  V30 3653 H 380.588 -3.23244 2.61699 0
M  V30 3654 H 379.165 -3.63537 0.830399 0
M  V30 3655 N 381.35 -0.985608 -1.22978 0
M  V30 3656 C 382.598 -0.656087 -1.91154 0
M  V30 3657 C 382.919 0.813561 -1.77218 0
M  V30 3658 O 382.189 1.58244 -1.1548 0
M  V30 3659 H 380.769 -0.239674 -0.707506 0
M  V30 3660 H 383.431 -1.25054 -1.49491 0
M  V30 3661 H 382.527 -0.912253 -2.9847 0
M  V30 3662 N 382.828 1.3818 -0.7579 0
M  V30 3663 C 384.244 1.5353 -0.435972 0
M  V30 3664 C 384.444 1.71961 1.05032 0
M  V30 3665 O 383.5 1.73307 1.83633 0
M  V30 3666 C 384.813 2.73989 -1.23898 0
M  V30 3667 C 386.361 2.87841 -1.22949 0
M  V30 3668 C 386.836 4.11266 -2.01554 0
M  V30 3669 N 388.327 4.18352 -1.98837 0
M  V30 3670 C 389.062 5.12856 -2.5645 0
M  V30 3671 N 388.558 6.13005 -3.22794 0
M  V30 3672 N 390.351 5.05238 -2.46356 0
M  V30 3673 H 382.502 1.24467 -1.7211 0
M  V30 3674 H 384.765 0.604982 -0.729864 0
M  V30 3675 H 384.471 2.66789 -2.29165 0
M  V30 3676 H 384.345 3.67294 -0.858764 0
M  V30 3677 H 386.732 2.9452 -0.184854 0
M  V30 3678 H 386.813 1.95534 -1.64924 0
M  V30 3679 H 386.457 4.05349 -3.06031 0
M  V30 3680 H 386.387 5.02661 -1.5697 0
M  V30 3681 H 388.878 3.46628 -1.50524 0
M  V30 3682 H 389.191 6.81619 -3.64165 0
M  V30 3683 H 387.536 6.13325 -3.2689 0
M  V30 3684 H 390.727 4.25938 -1.9415 0
M  V30 3685 H 390.9 5.78707 -2.91552 0
M  V30 3686 N 384.306 0.507319 1.49211 0
M  V30 3687 C 385.534 -0.0315749 2.06876 0
M  V30 3688 C 385.949 -1.30241 1.36685 0
M  V30 3689 O 385.306 -1.76937 0.447152 0
M  V30 3690 C 385.357 -0.282627 3.60393 0
M  V30 3691 O 385.078 0.937835 4.27944 0
M  V30 3692 C 386.579 -0.864453 4.3479 0
M  V30 3693 H 383.799 0.0233048 0.670595 0
M  V30 3694 H 386.343 0.706484 1.91909 0
M  V30 3695 H 384.498 -0.97068 3.75042 0
M  V30 3696 H 384.912 0.704567 5.19746 0
M  V30 3697 H 386.386 -0.989664 5.43056 0
M  V30 3698 H 386.863 -1.86382 3.97692 0
M  V30 3699 H 387.469 -0.213672 4.24763 0
M  V30 3700 N 385.784 -1.5574 0.241426 0
M  V30 3701 C 387.03 -1.99104 -0.385406 0
M  V30 3702 C 387.363 -1.1293 -1.57988 0
M  V30 3703 O 386.638 -0.191449 -1.93555 0
M  V30 3704 C 386.921 -3.51087 -0.800616 0
M  V30 3705 C 386.774 -4.48028 0.398874 0
M  V30 3706 C 388.093 -4.08015 -1.64959 0
M  V30 3707 H 385.212 -0.723848 -0.138614 0
M  V30 3708 H 387.854 -1.86903 0.341642 0
M  V30 3709 H 386.004 -3.61615 -1.4201 0
M  V30 3710 H 387.676 -4.49487 1.03726 0
M  V30 3711 H 385.919 -4.21077 1.04293 0
M  V30 3712 H 386.59 -5.51962 0.0651056 0
M  V30 3713 H 389.066 -4.00555 -1.12672 0
M  V30 3714 H 387.942 -5.14635 -1.90898 0
M  V30 3715 H 388.203 -3.56131 -2.61961 0
M  V30 3716 N 387.262 0.0317525 -1.57568 0
M  V30 3717 C 388.209 1.0332 -2.06382 0
M  V30 3718 C 389.179 1.36082 -0.952414 0
M  V30 3719 O 390.364 1.46466 -1.2228 0
M  V30 3720 C 387.504 2.32989 -2.54578 0
M  V30 3721 C 386.617 2.0641 -3.79498 0
M  V30 3722 C 385.752 3.2993 -4.16317 0
M  V30 3723 C 384.791 2.98893 -5.34162 0
M  V30 3724 N 383.928 4.14857 -5.66426 0
M  V30 3725 H 388.768 0.609982 -2.9169 0
M  V30 3726 H 386.305 0.289573 -1.44222 0
M  V30 3727 H 388.263 3.0875 -2.80587 0
M  V30 3728 H 386.893 2.73039 -1.7219 0
M  V30 3729 H 385.945 1.21158 -3.6059 0
M  V30 3730 H 387.257 1.79513 -4.65378 0
M  V30 3731 H 386.411 4.1406 -4.4344 0
M  V30 3732 H 385.15 3.59938 -3.29083 0
M  V30 3733 H 384.155 2.13164 -5.06795 0
M  V30 3734 H 385.38 2.70165 -6.23047 0
M  V30 3735 H 383.326 4.44821 -4.82151 0
M  V30 3736 H 383.243 3.91374 -6.4681 0
M  V30 3737 H 384.511 4.99868 -5.98124 0
M  V30 3738 N 388.74 1.54641 0.303973 0
M  V30 3739 C 389.965 1.78092 1.06292 0
M  V30 3740 C 390.39 0.537342 1.80262 0
M  V30 3741 O 389.748 -0.511993 1.7392 0
M  V30 3742 C 389.796 2.98612 2.02147 0
M  V30 3743 O 388.9 2.71528 3.10397 0
M  V30 3744 H 388.241 0.589548 0.305497 0
M  V30 3745 H 390.771 2.01716 0.3423 0
M  V30 3746 H 390.781 3.265 2.44667 0
M  V30 3747 H 389.456 3.88785 1.47714 0
M  V30 3748 H 388.033 2.54648 2.72413 0
M  V30 3749 N 390.218 -0.567019 1.47046 0
M  V30 3750 C 391.128 -1.70247 1.6141 0
M  V30 3751 C 392.144 -1.66746 0.497157 0
M  V30 3752 O 393.32 -1.86371 0.763389 0
M  V30 3753 C 390.385 -3.06756 1.61561 0
M  V30 3754 C 389.446 -3.21399 2.84607 0
M  V30 3755 C 388.679 -4.51396 2.84741 0
M  V30 3756 O 388.902 -5.36255 1.94388 0
M  V30 3757 O 387.836 -4.69621 3.76483 0
M  V30 3758 H 391.662 -1.61073 2.57467 0
M  V30 3759 H 389.247 -0.735894 1.30019 0
M  V30 3760 H 391.129 -3.8801 1.64396 0
M  V30 3761 H 389.804 -3.16333 0.686684 0
M  V30 3762 H 388.711 -2.39579 2.8732 0
M  V30 3763 H 390.044 -3.16721 3.76761 0
M  V30 3764 N 391.696 -1.35014 -0.812953 0
M  V30 3765 C 392.921 -1.31187 -1.60639 0
M  V30 3766 C 393.346 0.109382 -1.87782 0
M  V30 3767 O 392.704 1.07424 -1.46047 0
M  V30 3768 C 392.752 -2.11809 -2.91838 0
M  V30 3769 O 391.856 -1.49444 -3.8437 0
M  V30 3770 H 391.197 -0.450084 -0.488181 0
M  V30 3771 H 393.727 -1.77963 -1.00947 0
M  V30 3772 H 393.737 -2.23531 -3.41318 0
M  V30 3773 H 392.412 -3.15137 -2.71407 0
M  V30 3774 H 390.989 -1.46524 -3.42907 0
M  V30 3775 N 393.175 1.03435 -1.18907 0
M  V30 3776 C 394.586 1.58195 -0.991523 0
M  V30 3777 C 394.937 1.90801 0.457081 0
M  V30 3778 O 394.062 1.70272 1.33553 0
M  V30 3779 C 394.657 2.87432 -1.79355 0
M  V30 3780 C 393.216 3.38785 -1.64017 0
M  V30 3781 C 392.363 2.12292 -1.78402 0
M  V30 3782 H 395.314 0.860299 -1.33359 0
M  V30 3783 H 395.335 3.58096 -1.28638 0
M  V30 3784 H 394.847 2.63669 -2.84781 0
M  V30 3785 H 392.948 3.67547 -0.611536 0
M  V30 3786 H 393.061 4.12186 -2.44212 0
M  V30 3787 H 391.425 2.23901 -1.2141 0
M  V30 3788 H 392.208 1.90977 -2.85277 0
M  V30 3789 N 394.653 0.992116 1.22453 0
M  V30 3790 C 395.901 0.666215 1.90804 0
M  V30 3791 C 396.222 -0.804152 1.77647 0
M  V30 3792 O 395.492 -1.57629 1.16318 0
M  V30 3793 H 394.072 0.243423 0.706225 0
M  V30 3794 H 396.734 1.25845 1.48825 0
M  V30 3795 H 395.83 0.928069 2.97982 0
M  V30 3796 N 396.131 -1.37776 0.765217 0
M  V30 3797 C 397.377 -2.00145 0.327072 0
M  V30 3798 C 397.71 -1.60607 -1.09175 0
M  V30 3799 O 396.985 -0.849127 -1.74986 0
M  V30 3800 C 397.268 -3.57109 0.46319 0
M  V30 3801 C 397.121 -4.06576 1.92395 0
M  V30 3802 C 398.44 -4.39888 -0.136473 0
M  V30 3803 H 395.559 -0.727113 0.120316 0
M  V30 3804 H 398.201 -1.63549 0.967039 0
M  V30 3805 H 396.351 -3.88414 -0.0816358 0
M  V30 3806 H 398.023 -3.85864 2.52798 0
M  V30 3807 H 396.266 -3.59011 2.43503 0
M  V30 3808 H 396.937 -5.15639 1.97028 0
M  V30 3809 H 399.413 -4.14803 0.328317 0
M  V30 3810 H 398.289 -5.48899 -0.0110582 0
M  V30 3811 H 398.55 -4.24758 -1.22608 0
M  V30 3812 N 397.609 -0.515225 -1.4894 0
M  V30 3813 C 399.025 -0.172099 -1.58669 0
M  V30 3814 C 399.225 1.32405 -1.51892 0
M  V30 3815 O 398.281 2.10116 -1.40027 0
M  V30 3816 C 399.594 -0.761533 -2.90897 0
M  V30 3817 C 401.142 -0.728926 -3.04394 0
M  V30 3818 C 401.617 -1.29667 -4.39261 0
M  V30 3819 N 403.108 -1.25799 -4.4579 0
M  V30 3820 C 403.843 -1.66733 -5.48623 0
M  V30 3821 N 403.339 -2.15327 -6.58488 0
M  V30 3822 N 405.132 -1.58061 -5.39419 0
M  V30 3823 H 397.283 -1.48778 -1.51588 0
M  V30 3824 H 399.546 -0.617968 -0.718901 0
M  V30 3825 H 399.252 -1.81136 -3.01468 0
M  V30 3826 H 399.126 -0.230106 -3.76497 0
M  V30 3827 H 401.513 0.312098 -2.93445 0
M  V30 3828 H 401.594 -1.29766 -2.20442 0
M  V30 3829 H 401.238 -2.33655 -4.50963 0
M  V30 3830 H 401.168 -0.703752 -5.21876 0
M  V30 3831 H 403.659 -0.902102 -3.66975 0
M  V30 3832 H 403.972 -2.44594 -7.33071 0
M  V30 3833 H 402.317 -2.19311 -6.59491 0
M  V30 3834 H 405.508 -1.19906 -4.52482 0
M  V30 3835 H 405.681 -1.90284 -6.19432 0
M  V30 3836 N 399.087 1.5561 -0.249682 0
M  V30 3837 C 400.503 1.59254 0.105103 0
M  V30 3838 C 400.703 1.26685 1.56694 0
M  V30 3839 O 399.759 1.0155 2.31179 0
M  V30 3840 C 401.072 2.99687 -0.246592 0
M  V30 3841 C 402.62 3.12416 -0.191118 0
M  V30 3842 C 403.095 4.55074 -0.516885 0
M  V30 3843 N 404.586 4.60835 -0.467489 0
M  V30 3844 C 405.321 5.69201 -0.69268 0
M  V30 3845 N 404.817 6.85817 -0.981146 0
M  V30 3846 N 406.61 5.58635 -0.623198 0
M  V30 3847 H 398.761 1.75049 -1.20298 0
M  V30 3848 H 401.024 0.815003 -0.484225 0
M  V30 3849 H 400.73 3.28267 -1.26228 0
M  V30 3850 H 400.604 3.74798 0.424962 0
M  V30 3851 H 402.991 2.83615 0.815247 0
M  V30 3852 H 403.072 2.39573 -0.896563 0
M  V30 3853 H 402.716 4.84596 -1.52082 0
M  V30 3854 H 402.646 5.26181 0.210068 0
M  V30 3855 H 405.137 3.7705 -0.253373 0
M  V30 3856 H 405.45 7.64341 -1.14032 0
M  V30 3857 H 403.795 6.87494 -1.01865 0
M  V30 3858 H 406.986 4.66406 -0.397863 0
M  V30 3859 H 407.159 6.43017 -0.802093 0
M  V30 3860 N 400.565 -0.0233959 1.57583 0
M  V30 3861 C 401.512 -1.02224 2.06927 0
M  V30 3862 C 402.482 -1.35575 0.959617 0
M  V30 3863 O 403.667 -1.45815 1.23055 0
M  V30 3864 C 400.807 -2.31636 2.5581 0
M  V30 3865 C 399.92 -2.04394 3.80588 0
M  V30 3866 C 399.055 -3.27717 4.18061 0
M  V30 3867 C 398.094 -2.96056 5.3574 0
M  V30 3868 N 397.231 -4.11847 5.68618 0
M  V30 3869 H 402.071 -0.594504 2.9201 0
M  V30 3870 H 399.608 -0.281921 1.44373 0
M  V30 3871 H 401.566 -3.07258 2.82221 0
M  V30 3872 H 400.196 -2.72122 1.73636 0
M  V30 3873 H 399.248 -1.19244 3.61227 0
M  V30 3874 H 400.56 -1.77042 4.66323 0
M  V30 3875 H 399.714 -4.11702 4.4563 0
M  V30 3876 H 398.453 -3.58188 3.30988 0
M  V30 3877 H 397.458 -2.10474 5.07918 0
M  V30 3878 H 398.683 -2.66857 6.24471 0
M  V30 3879 H 396.629 -4.42258 4.84504 0
M  V30 3880 H 396.546 -3.87938 6.48876 0
M  V30 3881 H 397.814 -4.96689 6.00766 0
M  V30 3882 N 402.043 -1.548 -0.295768 0
M  V30 3883 C 403.459 -1.4613 -0.641722 0
M  V30 3884 C 403.659 -0.656771 -1.90496 0
M  V30 3885 O 402.715 -0.166547 -2.5195 0
M  V30 3886 C 404.028 -2.90141 -0.789852 0
M  V30 3887 C 405.576 -3.00216 -0.885396 0
M  V30 3888 C 406.051 -4.45434 -1.06548 0
M  V30 3889 N 407.542 -4.49166 -1.13156 0
M  V30 3890 C 408.277 -5.58717 -1.28929 0
M  V30 3891 N 407.773 -6.78182 -1.41567 0
M  V30 3892 N 409.566 -5.46415 -1.31859 0
M  V30 3893 H 401.717 -2.05574 0.534147 0
M  V30 3894 H 403.98 -0.931259 0.177372 0
M  V30 3895 H 403.686 -3.51635 0.0675598 0
M  V30 3896 H 403.56 -3.37859 -1.67724 0
M  V30 3897 H 405.947 -2.38833 -1.73329 0
M  V30 3898 H 406.028 -2.55787 0.0261185 0
M  V30 3899 H 405.672 -5.07413 -0.222335 0
M  V30 3900 H 405.602 -4.87499 -1.9913 0
M  V30 3901 H 408.093 -3.631 -1.04721 0
M  V30 3902 H 408.406 -7.57428 -1.53372 0
M  V30 3903 H 406.751 -6.81037 -1.38613 0
M  V30 3904 H 409.942 -4.5203 -1.21601 0
M  V30 3905 H 410.115 -6.31841 -1.43808 0
M  V30 3906 N 403.521 0.559213 -1.47345 0
M  V30 3907 C 404.767 1.31843 -1.54095 0
M  V30 3908 C 405.1 1.93149 -0.201726 0
M  V30 3909 O 404.375 1.77759 0.789428 0
M  V30 3910 C 404.658 2.43006 -2.65744 0
M  V30 3911 C 404.511 1.86581 -4.09277 0
M  V30 3912 C 405.83 3.44943 -2.73318 0
M  V30 3913 H 402.949 0.478012 -0.560957 0
M  V30 3914 H 405.591 0.625977 -1.79392 0
M  V30 3915 H 403.741 3.02072 -2.44305 0
M  V30 3916 H 405.413 1.31792 -4.42073 0
M  V30 3917 H 403.656 1.17268 -4.17649 0
M  V30 3918 H 404.327 2.66933 -4.83168 0
M  V30 3919 H 406.803 2.95793 -2.92653 0
M  V30 3920 H 405.679 4.20153 -3.53218 0
M  V30 3921 H 405.94 4.03665 -1.80296 0
M  V30 3922 N 404.999 1.35443 0.805782 0
M  V30 3923 C 406.224 1.32037 1.59941 0
M  V30 3924 C 406.649 -0.0994215 1.87837 0
M  V30 3925 O 406.007 -1.06648 1.46615 0
M  V30 3926 C 406.055 2.13354 2.90711 0
M  V30 3927 O 405.159 1.5148 3.83572 0
M  V30 3928 H 404.5 0.452666 0.485787 0
M  V30 3929 H 407.03 1.78496 1.00002 0
M  V30 3930 H 407.04 2.25338 3.40128 0
M  V30 3931 H 405.715 3.16572 2.69732 0
M  V30 3932 H 404.292 1.4834 3.42125 0
M  V30 3933 N 406.477 -1.02803 1.19454 0
M  V30 3934 C 407.888 -1.57667 0.999899 0
M  V30 3935 C 408.239 -1.91041 -0.446956 0
M  V30 3936 O 407.364 -1.70978 -1.32648 0
M  V30 3937 C 407.959 -2.86477 1.80877 0
M  V30 3938 C 406.518 -3.37911 1.65811 0
M  V30 3939 C 405.665 -2.11343 1.79526 0
M  V30 3940 H 408.616 -0.853214 1.33813 0
M  V30 3941 H 408.637 -3.57408 1.30536 0
M  V30 3942 H 408.149 -2.62155 2.86175 0
M  V30 3943 H 406.25 -3.67218 0.63102 0
M  V30 3944 H 406.363 -4.10885 2.46395 0
M  V30 3945 H 404.727 -2.23254 1.22596 0
M  V30 3946 H 405.51 -1.89461 2.86285 0
M  V30 3947 N 407.956 -0.998596 -1.21925 0
M  V30 3948 C 409.202 -0.678667 -1.91107 0
M  V30 3949 C 409.535 0.78791 -1.77498 0
M  V30 3950 O 408.81 1.57043 -1.1475 0
M  V30 3951 C 409.093 -1.09245 -3.43129 0
M  V30 3952 C 408.946 -2.61801 -3.6576 0
M  V30 3953 C 410.265 -0.649984 -4.35274 0
M  V30 3954 H 407.384 -0.248025 -0.694012 0
M  V30 3955 H 410.026 -1.24314 -1.43688 0
M  V30 3956 H 408.176 -0.612171 -3.83647 0
M  V30 3957 H 409.848 -3.17543 -3.34611 0
M  V30 3958 H 408.091 -3.03609 -3.09845 0
M  V30 3959 H 408.762 -2.85804 -4.7225 0
M  V30 3960 H 411.238 -1.0626 -4.02303 0
M  V30 3961 H 410.114 -0.967743 -5.40302 0
M  V30 3962 H 410.375 0.449139 -4.39813 0
M  V30 3963 N 409.434 1.37368 -0.772513 0
M  V30 3964 C 410.845 1.8231 -0.402493 0
M  V30 3965 C 411.196 1.6436 1.07146 0
M  V30 3966 O 410.321 1.15514 1.82991 0
M  V30 3967 C 410.916 3.30979 -0.723776 0
M  V30 3968 C 409.475 3.74195 -0.406802 0
M  V30 3969 C 408.622 2.59885 -0.967218 0
M  V30 3970 H 411.573 1.25829 -0.967099 0
M  V30 3971 H 411.594 3.80499 -0.00870832 0
M  V30 3972 H 411.106 3.44011 -1.7966 0
M  V30 3973 H 409.207 3.66732 0.658673 0
M  V30 3974 H 409.32 4.7027 -0.915588 0
M  V30 3975 H 407.684 2.51674 -0.391416 0
M  V30 3976 H 408.467 2.7571 -2.04546 0
M  V30 3977 N 410.912 0.523116 1.48665 0
M  V30 3978 C 412.159 -0.0134763 2.02496 0
M  V30 3979 C 412.487 -1.3493 1.40086 0
M  V30 3980 O 411.742 -1.88286 0.533567 0
M  V30 3981 C 412.041 -0.191671 3.56886 0
M  V30 3982 C 411.707 1.06893 4.38046 0
M  V30 3983 C 410.369 1.41443 4.59943 0
M  V30 3984 C 412.721 1.90584 4.85106 0
M  V30 3985 C 410.049 2.59594 5.26144 0
M  V30 3986 C 412.401 3.07907 5.52609 0
M  V30 3987 C 411.065 3.42811 5.72745 0
M  V30 3988 H 410.335 -0.00493133 0.740984 0
M  V30 3989 H 412.982 0.687751 1.78724 0
M  V30 3990 H 411.287 -0.97561 3.79459 0
M  V30 3991 H 412.984 -0.621659 3.96152 0
M  V30 3992 H 409.574 0.789848 4.21259 0
M  V30 3993 H 413.758 1.65203 4.67997 0
M  V30 3994 H 409.014 2.86847 5.39934 0
M  V30 3995 H 413.188 3.73066 5.88043 0
M  V30 3996 H 410.815 4.34462 6.23816 0
M  V30 3997 N 412.39 -1.55475 0.257931 0
M  V30 3998 C 413.322 -2.19192 -0.669881 0
M  V30 3999 C 414.335 -1.17148 -1.1305 0
M  V30 4000 O 415.524 -1.43959 -1.05537 0
M  V30 4001 C 412.624 -2.79016 -1.92363 0
M  V30 4002 C 411.797 -4.06586 -1.61265 0
M  V30 4003 C 410.856 -4.50622 -2.7171 0
M  V30 4004 O 409.882 -5.16765 -2.38627 0
M  V30 4005 N 411.084 -4.19325 -4.01431 0
M  V30 4006 H 413.849 -2.99441 -0.124635 0
M  V30 4007 H 411.41 -1.6171 0.0783311 0
M  V30 4008 H 413.402 -3.05427 -2.65511 0
M  V30 4009 H 411.972 -2.0286 -2.37837 0
M  V30 4010 H 411.192 -3.87646 -0.715811 0
M  V30 4011 H 412.48 -4.89737 -1.37967 0
M  V30 4012 H 411.878 -3.66247 -4.31138 0
M  V30 4013 H 410.435 -4.50547 -4.7101 0
M  V30 4014 N 413.868 0.0150385 -1.57593 0
M  V30 4015 C 415.093 0.718067 -1.94573 0
M  V30 4016 C 415.518 1.6734 -0.859005 0
M  V30 4017 O 414.876 1.80362 0.184147 0
M  V30 4018 C 414.924 1.43918 -3.30636 0
M  V30 4019 O 414.028 2.55299 -3.23876 0
M  V30 4020 H 413.369 0.192125 -0.635597 0
M  V30 4021 H 415.899 -0.0336708 -2.04572 0
M  V30 4022 H 415.909 1.80598 -3.65853 0
M  V30 4023 H 414.584 0.738619 -4.09289 0
M  V30 4024 H 413.161 2.21058 -3.00312 0
M  V30 4025 N 415.346 1.54954 0.287554 0
M  V30 4026 C 416.594 1.74528 1.01904 0
M  V30 4027 C 416.915 0.541349 1.87335 0
M  V30 4028 O 416.185 -0.444108 1.908 0
M  V30 4029 H 414.765 0.643576 0.379235 0
M  V30 4030 H 417.427 1.92333 0.315294 0
M  V30 4031 H 416.523 2.64015 1.6644 0
M  V30 4032 N 416.824 -0.551391 1.4764 0
M  V30 4033 C 418.24 -0.877887 1.33287 0
M  V30 4034 C 418.44 -1.98817 0.327721 0
M  V30 4035 O 417.496 -2.51171 -0.258695 0
M  V30 4036 C 418.809 -1.26563 2.72768 0
M  V30 4037 C 420.357 -1.37673 2.81097 0
M  V30 4038 C 420.832 -1.79799 4.21232 0
M  V30 4039 N 422.323 -1.8694 4.23802 0
M  V30 4040 C 423.058 -2.20876 5.29151 0
M  V30 4041 N 422.554 -2.53386 6.448 0
M  V30 4042 N 424.347 -2.217 5.16532 0
M  V30 4043 H 416.498 0.18153 2.11623 0
M  V30 4044 H 418.761 0.0185514 0.947818 0
M  V30 4045 H 418.467 -0.523591 3.47781 0
M  V30 4046 H 418.341 -2.22052 3.04915 0
M  V30 4047 H 420.728 -2.10956 2.06353 0
M  V30 4048 H 420.809 -0.40357 2.52596 0
M  V30 4049 H 420.453 -1.07083 4.96483 0
M  V30 4050 H 420.383 -2.78128 4.4716 0
M  V30 4051 H 422.874 -1.64179 3.40373 0
M  V30 4052 H 423.187 -2.78325 7.20941 0
M  V30 4053 H 421.532 -2.50953 6.48111 0
M  V30 4054 H 424.723 -1.95745 4.25207 0
M  V30 4055 H 424.896 -2.47818 5.98741 0
M  V30 4056 N 418.302 -1.35869 -0.798587 0
M  V30 4057 C 419.551 -1.28921 -1.5512 0
M  V30 4058 C 419.864 0.13208 -1.95154 0
M  V30 4059 O 421.07 0.323879 -2.69561 0
M  V30 4060 C 419.526 -2.26141 -2.79979 0
M  V30 4061 C 419.134 -3.73658 -2.47151 0
M  V30 4062 C 420.878 -2.28152 -3.57976 0
M  V30 4063 C 418.785 -4.62679 -3.6835 0
M  V30 4064 H 417.715 -0.479031 -0.582276 0
M  V30 4065 H 420.366 -1.61179 -0.877125 0
M  V30 4066 H 418.748 -1.86865 -3.49138 0
M  V30 4067 H 419.922 -4.21616 -1.85947 0
M  V30 4068 H 418.237 -3.74333 -1.82383 0
M  V30 4069 H 420.834 -2.91875 -4.4801 0
M  V30 4070 H 421.177 -1.28748 -3.95891 0
M  V30 4071 H 421.71 -2.65998 -2.95787 0
M  V30 4072 H 418.449 -5.63111 -3.35538 0
M  V30 4073 H 417.969 -4.19442 -4.28752 0
M  V30 4074 H 419.648 -4.78498 -4.35487 0
M  V30 4075 N 419.78 1.02168 -1.19998 0
M  V30 4076 C 421.008 1.79296 -1.03249 0
M  V30 4077 C 421.423 1.84103 0.418502 0
M  V30 4078 O 420.78 1.29031 1.29063 0
M  V30 4079 C 420.831 3.24007 -1.60319 0
M  V30 4080 O 420.552 3.19512 -2.99739 0
M  V30 4081 C 422.053 4.17704 -1.48453 0
M  V30 4082 H 419.273 0.564016 -0.363493 0
M  V30 4083 H 421.817 1.28639 -1.58973 0
M  V30 4084 H 419.972 3.7183 -1.08727 0
M  V30 4085 H 420.386 4.10306 -3.26725 0
M  V30 4086 H 421.86 5.17104 -1.93153 0
M  V30 4087 H 422.337 4.37029 -0.436193 0
M  V30 4088 H 422.943 3.7576 -1.99211 0
M  V30 4089 N 421.258 1.00505 1.21394 0
M  V30 4090 C 422.669 0.721082 1.72213 0
M  V30 4091 C 423.02 -0.761263 1.80829 0
M  V30 4092 O 422.145 -1.59464 1.46288 0
M  V30 4093 C 422.74 1.30228 3.12772 0
M  V30 4094 C 421.299 1.06743 3.60947 0
M  V30 4095 C 420.446 1.41507 2.38477 0
M  V30 4096 H 423.397 1.17594 1.06571 0
M  V30 4097 H 423.418 0.686955 3.74247 0
M  V30 4098 H 422.93 2.38115 3.06468 0
M  V30 4099 H 421.031 0.00572162 3.726 0
M  V30 4100 H 421.144 1.73936 4.46411 0
M  V30 4101 H 419.508 0.833852 2.40664 0
M  V30 4102 H 420.291 2.50424 2.34824 0
M  V30 4103 N 422.737 -1.36956 0.779787 0
M  V30 4104 C 424.148 -1.82094 0.412156 0
M  V30 4105 C 424.499 -1.64926 -1.06273 0
M  V30 4106 O 423.624 -1.16483 -1.82375 0
M  V30 4107 C 424.219 -3.3059 0.741319 0
M  V30 4108 C 422.778 -3.73974 0.426641 0
M  V30 4109 C 421.925 -2.59368 0.980987 0
M  V30 4110 H 424.876 -1.25314 0.973758 0
M  V30 4111 H 424.897 -3.80489 0.028887 0
M  V30 4112 H 424.409 -3.43054 1.81482 0
M  V30 4113 H 422.51 -3.67076 -0.639215 0
M  V30 4114 H 422.623 -4.69778 0.940515 0
M  V30 4115 H 420.987 -2.51463 0.404757 0
M  V30 4116 H 421.77 -2.74621 2.06005 0
M  V30 4117 N 424.215 -0.530993 -1.48385 0
M  V30 4118 C 425.631 -0.188919 -1.58478 0
M  V30 4119 C 425.831 1.30786 -1.53288 0
M  V30 4120 O 424.887 2.08619 -1.42248 0
M  V30 4121 C 426.2 -0.792343 -2.90073 0
M  V30 4122 C 427.748 -0.76117 -3.03604 0
M  V30 4123 C 428.223 -1.34319 -4.37861 0
M  V30 4124 N 429.714 -1.3052 -4.44431 0
M  V30 4125 C 430.449 -1.72543 -5.46824 0
M  V30 4126 N 429.945 -2.22299 -6.56167 0
M  V30 4127 N 431.738 -1.63773 -5.37712 0
M  V30 4128 H 423.889 -1.50377 -1.50002 0
M  V30 4129 H 426.152 -0.625559 -0.712306 0
M  V30 4130 H 425.858 -1.84323 -2.99529 0
M  V30 4131 H 425.732 -0.270026 -3.76232 0
M  V30 4132 H 428.119 0.280957 -2.93759 0
M  V30 4133 H 428.2 -1.32097 -2.19053 0
M  V30 4134 H 427.844 -2.38425 -4.4846 0
M  V30 4135 H 427.774 -0.759064 -5.21101 0
M  V30 4136 H 430.265 -0.940973 -3.65997 0
M  V30 4137 H 430.578 -2.52356 -7.30436 0
M  V30 4138 H 428.923 -2.26293 -6.57127 0
M  V30 4139 H 432.114 -1.24698 -4.51185 0
M  V30 4140 H 432.287 -1.96844 -6.17379 0
M  V30 4141 N 425.693 1.55336 -0.266172 0
M  V30 4142 C 427.109 1.59356 0.0882065 0
M  V30 4143 C 427.309 1.2834 1.55342 0
M  V30 4144 O 426.365 1.03996 2.30089 0
M  V30 4145 C 427.678 2.99409 -0.278364 0
M  V30 4146 C 429.226 3.12196 -0.224243 0
M  V30 4147 C 429.701 4.545 -0.565123 0
M  V30 4148 N 431.192 4.60313 -0.51634 0
M  V30 4149 C 431.927 5.68434 -0.753013 0
M  V30 4150 N 431.423 6.84738 -1.05383 0
M  V30 4151 N 433.216 5.57942 -0.682414 0
M  V30 4152 H 425.367 1.73764 -1.22147 0
M  V30 4153 H 427.63 0.809822 -0.492841 0
M  V30 4154 H 427.336 3.2691 -1.29703 0
M  V30 4155 H 427.21 3.75228 0.385186 0
M  V30 4156 H 429.597 2.84464 0.78512 0
M  V30 4157 H 429.678 2.38609 -0.921922 0
M  V30 4158 H 429.322 4.82956 -1.57213 0
M  V30 4159 H 429.252 5.26374 0.154248 0
M  V30 4160 H 431.743 3.7676 -0.29335 0
M  V30 4161 H 432.056 7.63088 -1.22133 0
M  V30 4162 H 430.401 6.86375 -1.09151 0
M  V30 4163 H 433.592 4.65958 -0.44731 0
M  V30 4164 H 433.765 6.4213 -0.870248 0
M  V30 4165 N 427.171 -0.0066808 1.57599 0
M  V30 4166 C 428.134 -0.985035 2.06953 0
M  V30 4167 C 429.134 -1.27663 0.977687 0
M  V30 4168 O 430.324 -1.22293 1.24057 0
M  V30 4169 C 427.456 -2.3118 2.50536 0
M  V30 4170 H 428.649 -0.558255 2.94658 0
M  V30 4171 H 426.202 -0.254011 1.54222 0
M  V30 4172 H 426.937 -2.78561 1.66054 0
M  V30 4173 H 426.722 -2.11338 3.3027 0
M  V30 4174 H 428.212 -3.01377 2.8907 0
M  V30 4175 N 428.649 -1.55105 -0.279332 0
M  V30 4176 C 430.06 -1.66186 -0.850832 0
M  V30 4177 C 430.411 -0.584707 -1.87285 0
M  V30 4178 O 429.536 0.274919 -2.14647 0
M  V30 4179 C 430.131 -3.01264 -1.55001 0
M  V30 4180 C 428.69 -3.14394 -2.06963 0
M  V30 4181 C 427.837 -2.61959 -0.909536 0
M  V30 4182 H 430.788 -1.58602 -0.0558235 0
M  V30 4183 H 430.809 -2.93899 -2.41669 0
M  V30 4184 H 430.321 -3.7964 -0.805931 0
M  V30 4185 H 428.422 -2.4078 -2.84352 0
M  V30 4186 H 428.535 -4.20867 -2.28928 0
M  V30 4187 H 426.899 -2.18957 -1.30116 0
M  V30 4188 H 427.682 -3.42833 -0.179062 0
M  V30 4189 N 430.127 0.543554 -1.4793 0
M  V30 4190 C 431.352 1.32995 -1.59145 0
M  V30 4191 C 431.777 1.86472 -0.246956 0
M  V30 4192 O 431.135 1.63696 0.779324 0
M  V30 4193 C 431.183 2.46623 -2.63077 0
M  V30 4194 O 430.287 3.49261 -2.19295 0
M  V30 4195 H 429.628 0.394472 -0.534124 0
M  V30 4196 H 432.158 0.655489 -1.93816 0
M  V30 4197 H 432.168 2.93001 -2.83926 0
M  V30 4198 H 430.843 2.07059 -3.60693 0
M  V30 4199 H 429.42 3.09094 -2.08603 0
M  V30 4200 N 431.605 1.3629 0.791371 0
M  V30 4201 C 433.016 1.27225 1.36641 0
M  V30 4202 C 433.367 -0.0887968 1.95999 0
M  V30 4203 O 432.492 -0.990207 1.92416 0
M  V30 4204 C 433.087 2.30375 2.48421 0
M  V30 4205 C 431.646 2.25004 3.01746 0
M  V30 4206 C 430.793 2.15259 1.7481 0
M  V30 4207 H 433.744 1.47198 0.593173 0
M  V30 4208 H 433.765 1.93905 3.27385 0
M  V30 4209 H 433.277 3.29422 2.05189 0
M  V30 4210 H 431.378 1.29417 3.49403 0
M  V30 4211 H 431.491 3.1761 3.58693 0
M  V30 4212 H 429.855 1.61482 1.96966 0
M  V30 4213 H 430.638 3.16191 1.33709 0
M  V30 4214 N 433.083 -1.0153 1.20538 0
M  V30 4215 C 434.36 -1.72327 0.925343 0
M  V30 4216 C 434.74 -2.03383 -0.565547 0
M  V30 4217 O 434.088 -1.69934 -1.52757 0
M  V30 4218 C 434.298 -2.9902 1.79967 0
M  V30 4219 C 435.646 -3.72258 2.04228 0
M  V30 4220 O 436.67 -3.08979 1.77231 0
M  V30 4221 O 435.529 -4.86053 2.4983 0
M  V30 4222 H 432.623 -0.751099 0.346092 0
M  V30 4223 H 435.169 -1.07366 1.31417 0
M  V30 4224 H 433.941 -2.72402 2.80915 0
M  V30 4225 H 433.564 -3.71721 1.41099 0
M  V30 4226 N 434.561 -1.01147 -1.20859 0
M  V30 4227 C 435.809 -0.696486 -1.89719 0
M  V30 4228 C 436.13 0.775788 -1.78904 0
M  V30 4229 O 435.4 1.55759 -1.18811 0
M  V30 4230 H 433.98 -0.254628 -0.702263 0
M  V30 4231 H 436.642 -1.28197 -1.46804 0
M  V30 4232 H 435.738 -0.975357 -2.96468 0
M  V30 4233 N 436.039 1.36541 -0.78704 0
M  V30 4234 C 437.286 1.99304 -0.358341 0
M  V30 4235 C 437.614 1.62467 1.06933 0
M  V30 4236 O 436.869 0.870019 1.75297 0
M  V30 4237 C 437.168 3.54343 -0.466485 0
M  V30 4238 C 436.834 4.10993 -1.85461 0
M  V30 4239 C 435.496 4.26177 -2.23443 0
M  V30 4240 C 437.848 4.41895 -2.76366 0
M  V30 4241 C 435.176 4.69573 -3.51736 0
M  V30 4242 C 437.528 4.86722 -4.04084 0
M  V30 4243 C 436.192 5.00112 -4.42091 0
M  V30 4244 H 435.462 0.729306 -0.131126 0
M  V30 4245 H 438.109 1.63068 -1.00404 0
M  V30 4246 H 436.414 3.90918 0.262719 0
M  V30 4247 H 438.111 4.00833 -0.115854 0
M  V30 4248 H 434.701 3.99612 -1.54946 0
M  V30 4249 H 438.885 4.29735 -2.48277 0
M  V30 4250 H 434.141 4.78127 -3.81057 0
M  V30 4251 H 438.315 5.09598 -4.7464 0
M  V30 4252 H 435.942 5.33498 -5.41557 0
M  V30 4253 N 437.518 0.538854 1.48102 0
M  V30 4254 C 438.743 0.0102694 2.07397 0
M  V30 4255 C 439.168 -1.26562 1.39153 0
M  V30 4256 O 438.526 -1.75357 0.460387 0
M  V30 4257 C 438.574 -0.187602 3.60112 0
M  V30 4258 O 437.678 -1.25432 3.92862 0
M  V30 4259 H 437.019 0.0430975 0.6626 0
M  V30 4260 H 439.549 0.749301 1.90385 0
M  V30 4261 H 439.559 -0.407517 4.0596 0
M  V30 4262 H 438.234 0.744386 4.09184 0
M  V30 4263 H 436.811 -1.01636 3.58782 0
M  V30 4264 N 438.996 -1.55193 0.274407 0
M  V30 4265 C 440.407 -1.85358 -0.223488 0
M  V30 4266 C 440.758 -1.19642 -1.555 0
M  V30 4267 O 439.883 -0.484498 -2.10907 0
M  V30 4268 C 440.478 -3.36282 -0.412285 0
M  V30 4269 C 439.037 -3.66574 -0.854413 0
M  V30 4270 C 438.184 -2.7725 0.0527056 0
M  V30 4271 H 441.135 -1.50743 0.496215 0
M  V30 4272 H 441.156 -3.59349 -1.25094 0
M  V30 4273 H 440.668 -3.84083 0.556965 0
M  V30 4274 H 438.769 -3.24273 -1.83516 0
M  V30 4275 H 438.882 -4.74073 -0.692226 0
M  V30 4276 H 437.246 -2.50447 -0.463484 0
M  V30 4277 H 438.029 -3.27865 1.01783 0
M  V30 4278 N 440.474 -0.00167713 -1.576 0
M  V30 4279 C 441.704 0.692754 -1.94639 0
M  V30 4280 C 442.112 1.67744 -0.87513 0
M  V30 4281 O 441.455 1.8305 0.154382 0
M  V30 4282 C 441.517 1.47881 -3.27676 0
M  V30 4283 C 441.181 0.655518 -4.52274 0
M  V30 4284 C 442.178 -0.0575214 -5.19868 0
M  V30 4285 C 439.863 0.600994 -4.98692 0
M  V30 4286 C 441.857 -0.814052 -6.3218 0
M  V30 4287 C 439.544 -0.15926 -6.10892 0
M  V30 4288 C 440.542 -0.865515 -6.77494 0
M  V30 4289 O 440.23 -1.61336 -7.87544 0
M  V30 4290 H 439.962 0.197792 -0.646417 0
M  V30 4291 H 442.516 -0.049423 -2.05341 0
M  V30 4292 H 440.746 2.2655 -3.13388 0
M  V30 4293 H 442.435 2.05874 -3.49816 0
M  V30 4294 H 443.201 -0.0245611 -4.84994 0
M  V30 4295 H 439.08 1.14025 -4.46676 0
M  V30 4296 H 442.624 -1.36584 -6.84098 0
M  V30 4297 H 438.521 -0.194035 -6.45208 0
M  V30 4298 H 439.289 -1.53025 -8.04068 0
M  V30 4299 N 441.952 1.55251 0.271103 0
M  V30 4300 C 443.177 1.80306 1.02491 0
M  V30 4301 C 443.602 0.575457 1.79081 0
M  V30 4302 O 442.96 -0.474987 1.74967 0
M  V30 4303 C 443.008 3.02832 1.95768 0
M  V30 4304 O 442.112 2.78051 3.04568 0
M  V30 4305 H 441.453 0.595896 0.292923 0
M  V30 4306 H 443.983 2.02397 0.299436 0
M  V30 4307 H 443.993 3.31616 2.37686 0
M  V30 4308 H 442.668 3.9183 1.39434 0
M  V30 4309 H 441.245 2.60369 2.66951 0
M  V30 4310 N 443.43 -0.535701 1.48216 0
M  V30 4311 C 444.841 -1.11769 1.49548 0
M  V30 4312 C 445.192 -1.94442 0.26207 0
M  V30 4313 O 444.317 -2.06987 -0.631287 0
M  V30 4314 C 444.912 -2.03367 2.70975 0
M  V30 4315 C 443.471 -2.56795 2.75196 0
M  V30 4316 C 442.618 -1.33631 2.42977 0
M  V30 4317 H 445.569 -0.321232 1.55415 0
M  V30 4318 H 445.59 -2.87569 2.49167 0
M  V30 4319 H 445.102 -1.43169 3.60727 0
M  V30 4320 H 443.203 -3.20731 1.89638 0
M  V30 4321 H 443.316 -2.9632 3.76472 0
M  V30 4322 H 441.68 -1.6502 1.94012 0
M  V30 4323 H 442.463 -0.75194 3.34964 0
M  V30 4324 N 444.908 -1.36708 -0.784132 0
M  V30 4325 C 445.818 -1.3363 -1.92822 0
M  V30 4326 C 446.834 -0.237686 -1.72369 0
M  V30 4327 O 448.01 -0.470962 -1.95816 0
M  V30 4328 C 445.075 -1.13011 -3.27764 0
M  V30 4329 C 444.136 -2.32397 -3.60957 0
M  V30 4330 C 443.369 -2.12752 -4.89461 0
M  V30 4331 O 443.592 -1.10541 -5.59586 0
M  V30 4332 O 442.526 -3.00653 -5.21432 0
M  V30 4333 H 446.352 -2.29964 -1.98369 0
M  V30 4334 H 443.937 -1.1731 -0.925136 0
M  V30 4335 H 445.819 -1.03451 -4.08504 0
M  V30 4336 H 444.494 -0.19743 -3.23097 0
M  V30 4337 H 443.401 -2.47527 -2.80502 0
M  V30 4338 H 444.734 -3.2419 -3.70354 0
M  V30 4339 N 446.386 1.0089 -1.21074 0
M  V30 4340 C 447.296 2.13039 -0.982425 0
M  V30 4341 C 448.312 1.73881 0.0642161 0
M  V30 4342 O 449.488 2.01012 -0.12496 0
M  V30 4343 C 446.553 3.42377 -0.545803 0
M  V30 4344 C 445.614 3.95731 -1.6642 0
M  V30 4345 C 444.847 5.18896 -1.24832 0
M  V30 4346 O 445.07 5.70273 -0.120265 0
M  V30 4347 O 444.004 5.65597 -2.05873 0
M  V30 4348 H 447.83 2.35175 -1.92163 0
M  V30 4349 H 445.415 1.1142 -0.995285 0
M  V30 4350 H 447.297 4.20244 -0.311912 0
M  V30 4351 H 445.972 3.21639 0.364727 0
M  V30 4352 H 444.879 3.19108 -1.95246 0
M  V30 4353 H 446.212 4.20872 -2.55201 0
M  V30 4354 N 447.864 1.01787 1.20321 0
M  V30 4355 C 449.092 0.727194 1.937 0
M  V30 4356 C 449.507 -0.712305 1.74848 0
M  V30 4357 O 448.864 -1.48327 1.06327 0
M  V30 4358 C 448.915 1.05497 3.45764 0
M  V30 4359 O 448.636 2.43794 3.64 0
M  V30 4360 C 450.137 0.785534 4.36285 0
M  V30 4361 H 447.357 0.266939 0.615617 0
M  V30 4362 H 449.901 1.35939 1.52777 0
M  V30 4363 H 448.056 0.468158 3.84561 0
M  V30 4364 H 448.47 2.55656 4.57974 0
M  V30 4365 H 449.944 1.06495 5.4163 0
M  V30 4366 H 450.421 -0.280273 4.38305 0
M  V30 4367 H 451.027 1.35456 4.03152 0
M  V30 4368 N 449.342 -1.36122 0.79427 0
M  V30 4369 C 450.29 -2.31871 0.184023 0
M  V30 4370 C 451.284 -1.56041 -0.659365 0
M  V30 4371 O 452.49 -1.71266 -0.553906 0
M  V30 4372 H 448.865 -0.750896 0.0407373 0
M  V30 4373 H 450.836 -2.80898 1.00693 0
M  V30 4374 C 449.585 -3.41324 -0.662813 0
M  V30 4375 H 448.908 -3.99793 -0.0231944 0
M  V30 4376 H 450.348 -4.10629 -1.05639 0
M  V30 4377 C 448.807 -2.83308 -1.82313 0
M  V30 4378 O 449.337 -2.75863 -2.91997 0
M  V30 4379 N 447.543 -2.40529 -1.63077 0
M  V30 4380 H 447.09 -2.46785 -0.738591 0
M  V30 4381 H 447.048 -2.02059 -2.40872 0
M  V30 4382 N 450.82 -0.546701 -1.47814 0
M  V30 4383 C 452.236 -0.205717 -1.58269 0
M  V30 4384 C 452.436 1.29153 -1.54667 0
M  V30 4385 O 451.492 2.07098 -1.44453 0
M  V30 4386 C 452.805 -0.823065 -2.89216 0
M  V30 4387 C 454.353 -0.793328 -3.02779 0
M  V30 4388 C 454.828 -1.38955 -4.36412 0
M  V30 4389 N 456.319 -1.35227 -4.43021 0
M  V30 4390 C 457.054 -1.78333 -5.44963 0
M  V30 4391 N 456.55 -2.29246 -6.53772 0
M  V30 4392 N 458.343 -1.69467 -5.35945 0
M  V30 4393 H 450.494 -1.5196 -1.48398 0
M  V30 4394 H 452.757 -0.633078 -0.705632 0
M  V30 4395 H 452.463 -1.8749 -2.97558 0
M  V30 4396 H 452.337 -0.309915 -3.75925 0
M  V30 4397 H 454.724 0.249784 -2.94041 0
M  V30 4398 H 454.805 -1.34412 -2.17639 0
M  V30 4399 H 454.449 -2.43168 -4.45906 0
M  V30 4400 H 454.379 -0.814291 -5.20266 0
M  V30 4401 H 456.87 -0.979739 -3.64979 0
M  V30 4402 H 457.183 -2.60089 -7.27718 0
M  V30 4403 H 455.528 -2.3325 -6.5469 0
M  V30 4404 H 458.719 -1.29477 -4.49837 0
M  V30 4405 H 458.892 -2.03381 -6.15256 0
M  V30 4406 N 452.299 1.55045 -0.282633 0
M  V30 4407 C 453.715 1.59441 0.0712997 0
M  V30 4408 C 453.915 1.2998 1.53972 0
M  V30 4409 O 452.971 1.06431 2.28973 0
M  V30 4410 C 454.284 2.99097 -0.310104 0
M  V30 4411 C 455.832 3.1194 -0.257343 0
M  V30 4412 C 456.307 4.53875 -0.613297 0
M  V30 4413 N 457.798 4.5974 -0.565134 0
M  V30 4414 C 458.533 5.67603 -0.81326 0
M  V30 4415 N 458.029 6.83582 -1.1264 0
M  V30 4416 N 459.822 5.57187 -0.741553 0
M  V30 4417 H 451.973 1.72458 -1.23984 0
M  V30 4418 H 454.236 0.804549 -0.501403 0
M  V30 4419 H 453.942 3.25516 -1.33163 0
M  V30 4420 H 453.816 3.75616 0.345366 0
M  V30 4421 H 456.203 2.85281 0.754905 0
M  V30 4422 H 456.284 2.37618 -0.947178 0
M  V30 4423 H 455.928 4.81261 -1.62327 0
M  V30 4424 H 455.858 5.26508 0.09841 0
M  V30 4425 H 458.349 3.76427 -0.333294 0
M  V30 4426 H 458.662 7.6175 -1.30219 0
M  V30 4427 H 457.007 6.85179 -1.16425 0
M  V30 4428 H 460.198 4.65457 -0.496705 0
M  V30 4429 H 460.371 6.41171 -0.938306 0
M  V30 4430 N 453.777 0.010035 1.57597 0
M  V30 4431 C 455.023 -0.673697 1.91283 0
M  V30 4432 C 455.356 -1.72863 0.884979 0
M  V30 4433 O 454.631 -1.94268 -0.0949487 0
M  V30 4434 C 454.914 -1.30766 3.35518 0
M  V30 4435 C 454.767 -0.263578 4.49027 0
M  V30 4436 C 456.086 -2.23105 3.79358 0
M  V30 4437 H 453.205 -0.243439 0.695634 0
M  V30 4438 H 455.847 0.0633864 1.89894 0
M  V30 4439 H 453.997 -1.93588 3.36832 0
M  V30 4440 H 455.669 0.365738 4.59848 0
M  V30 4441 H 453.912 0.413077 4.31829 0
M  V30 4442 H 454.583 -0.746398 5.4693 0
M  V30 4443 H 457.059 -1.70289 3.79659 0
M  V30 4444 H 455.935 -2.64424 4.81011 0
M  V30 4445 H 456.196 -3.11433 3.13787 0
M  V30 4446 N 455.255 -1.55392 -0.262866 0
M  V30 4447 C 456.203 -1.8977 -1.345 0
M  V30 4448 C 457.197 -0.775063 -1.50629 0
M  V30 4449 O 458.403 -0.959519 -1.52293 0
M  V30 4450 H 454.778 -0.602467 -0.450041 0
M  V30 4451 H 456.749 -2.80147 -1.02762 0
M  V30 4452 C 455.498 -2.19501 -2.69657 0
M  V30 4453 H 454.821 -3.05378 -2.5804 0
M  V30 4454 H 456.261 -2.47469 -3.44289 0
M  V30 4455 C 454.72 -1.00597 -3.21531 0
M  V30 4456 O 455.25 -0.245768 -4.00947 0
M  V30 4457 N 453.456 -0.800911 -2.79345 0
M  V30 4458 H 453.003 -1.42079 -2.14875 0
M  V30 4459 H 452.961 -0.00697996 -3.14399 0
M  V30 4460 N 456.733 0.527833 -1.48498 0
M  V30 4461 C 457.68 1.6322 -1.6318 0
M  V30 4462 C 458.65 1.59199 -0.473815 0
M  V30 4463 O 459.835 1.77591 -0.697563 0
M  V30 4464 C 456.975 3.01474 -1.67951 0
M  V30 4465 C 456.088 3.15713 -2.94871 0
M  V30 4466 C 455.223 4.44539 -2.90789 0
M  V30 4467 C 454.262 4.52315 -4.12404 0
M  V30 4468 N 453.399 5.72533 -4.06387 0
M  V30 4469 H 458.239 1.50011 -2.57489 0
M  V30 4470 H 455.776 0.730298 -1.27691 0
M  V30 4471 H 457.734 3.81572 -1.68698 0
M  V30 4472 H 456.364 3.1345 -0.771306 0
M  V30 4473 H 455.416 2.28854 -3.03859 0
M  V30 4474 H 456.728 3.1732 -3.8485 0
M  V30 4475 H 455.882 5.3293 -2.89949 0
M  V30 4476 H 454.621 4.45457 -1.98542 0
M  V30 4477 H 453.626 3.62331 -4.13517 0
M  V30 4478 H 454.851 4.53134 -5.05812 0
M  V30 4479 H 452.797 5.74344 -3.16962 0
M  V30 4480 H 452.714 5.75643 -4.90073 0
M  V30 4481 H 453.982 6.63204 -4.0961 0
M  V30 4482 N 458.211 1.37122 0.776871 0
M  V30 4483 C 459.457 1.32243 1.53752 0
M  V30 4484 C 459.79 -0.0944745 1.9397 0
M  V30 4485 O 459.065 -1.05068 1.6368 0
M  V30 4486 C 459.348 2.25681 2.80607 0
M  V30 4487 C 459.201 3.76127 2.46676 0
M  V30 4488 C 460.52 2.17657 3.82509 0
M  V30 4489 H 457.639 0.481704 0.557791 0
M  V30 4490 H 460.281 1.6778 0.891612 0
M  V30 4491 H 458.431 1.95505 3.35723 0
M  V30 4492 H 460.103 4.16877 1.97513 0
M  V30 4493 H 458.346 3.94946 1.79443 0
M  V30 4494 H 459.017 4.36933 3.37333 0
M  V30 4495 H 461.493 2.44245 3.36873 0
M  V30 4496 H 460.369 2.85185 4.69 0
M  V30 4497 H 460.63 1.16785 4.26396 0
M  V30 4498 N 459.689 -1.00246 1.21608 0
M  V30 4499 C 460.622 -2.08794 0.920892 0
M  V30 4500 C 461.6 -1.62059 -0.132552 0
M  V30 4501 O 462.784 -1.885 -0.0030366 0
M  V30 4502 C 459.911 -3.36525 0.383226 0
M  V30 4503 C 458.957 -4.02172 1.41987 0
M  V30 4504 S 459.79 -4.44256 2.98994 0
M  V30 4505 C 460.946 -5.7517 2.4684 0
M  V30 4506 H 461.179 -2.33511 1.8401 0
M  V30 4507 H 458.712 -1.13562 1.04609 0
M  V30 4508 H 460.67 -4.10423 0.0795871 0
M  V30 4509 H 459.331 -3.09854 -0.514711 0
M  V30 4510 H 458.524 -4.94114 0.993335 0
M  V30 4511 H 458.126 -3.34559 1.67171 0
M  V30 4512 H 460.418 -6.51042 1.87484 0
M  V30 4513 H 461.361 -6.22638 3.37235 0
M  V30 4514 H 461.769 -5.32112 1.88461 0
M  V30 4515 N 461.167 -1.02423 -1.1978 0
M  V30 4516 C 462.583 -0.740459 -1.41384 0
M  V30 4517 C 462.783 0.676827 -1.89793 0
M  V30 4518 O 461.839 1.4435 -2.0717 0
M  V30 4519 C 463.152 -1.77264 -2.42895 0
M  V30 4520 C 464.7 -1.79165 -2.56649 0
M  V30 4521 C 465.175 -2.8133 -3.6141 0
M  V30 4522 N 466.666 -2.80118 -3.68901 0
M  V30 4523 C 467.401 -3.55824 -4.49641 0
M  V30 4524 N 466.897 -4.41231 -5.34123 0
M  V30 4525 N 468.69 -3.44387 -4.44246 0
M  V30 4526 H 460.841 -1.9391 -0.866764 0
M  V30 4527 H 463.104 -0.838074 -0.443098 0
M  V30 4528 H 462.81 -2.7884 -2.14339 0
M  V30 4529 H 462.684 -1.59108 -3.42001 0
M  V30 4530 H 465.071 -0.782702 -2.84531 0
M  V30 4531 H 465.152 -2.01396 -1.57713 0
M  V30 4532 H 464.796 -3.82394 -3.34271 0
M  V30 4533 H 464.726 -2.56359 -4.59986 0
M  V30 4534 H 467.217 -2.1817 -3.08562 0
M  V30 4535 H 467.53 -4.95747 -5.92836 0
M  V30 4536 H 465.875 -4.45306 -5.33599 0
M  V30 4537 H 469.066 -2.7708 -3.77285 0
M  V30 4538 H 469.239 -4.0364 -5.06931 0
M  V30 4539 N 462.645 1.35699 -0.801477 0
M  V30 4540 C 463.608 2.28199 -0.213994 0
M  V30 4541 C 464.608 1.49359 0.595691 0
M  V30 4542 O 465.798 1.69186 0.414921 0
M  V30 4543 C 462.93 3.33587 0.702297 0
M  V30 4544 H 464.123 2.81666 -1.02976 0
M  V30 4545 H 461.676 1.45467 -0.571759 0
M  V30 4546 H 462.411 2.85297 1.54195 0
M  V30 4547 H 462.196 3.91906 0.123484 0
M  V30 4548 H 463.686 4.02638 1.10783 0
M  V30 4549 N 464.123 0.554532 1.47522 0
M  V30 4550 C 465.539 0.214107 1.58157 0
M  V30 4551 C 465.739 -1.28331 1.55349 0
M  V30 4552 O 464.795 -2.06329 1.45549 0
M  V30 4553 C 466.108 0.838391 2.88776 0
M  V30 4554 C 467.656 0.809374 3.02354 0
M  V30 4555 C 468.131 1.41268 4.35669 0
M  V30 4556 N 469.622 1.37574 4.42298 0
M  V30 4557 C 470.357 1.8122 5.4401 0
M  V30 4558 N 469.853 2.3271 6.52547 0
M  V30 4559 N 471.646 1.72307 5.35039 0
M  V30 4560 H 463.797 1.52744 1.4759 0
M  V30 4561 H 466.06 0.636812 0.702264 0
M  V30 4562 H 465.766 1.89065 2.96559 0
M  V30 4563 H 465.64 0.329847 3.75755 0
M  V30 4564 H 468.027 -0.234187 2.94169 0
M  V30 4565 H 468.108 1.35565 2.16924 0
M  V30 4566 H 467.752 2.45529 4.4461 0
M  V30 4567 H 467.682 0.841871 5.19827 0
M  V30 4568 H 470.173 0.999081 3.64454 0
M  V30 4569 H 470.486 2.63944 7.26329 0
M  V30 4570 H 468.831 2.36719 6.53444 0
M  V30 4571 H 472.022 1.3186 4.49144 0
M  V30 4572 H 472.195 2.06641 6.14169 0
M  V30 4573 N 465.601 -1.54893 0.290851 0
M  V30 4574 C 466.531 -2.26103 -0.583084 0
M  V30 4575 C 467.512 -1.25684 -1.14619 0
M  V30 4576 O 468.697 -1.54436 -1.17741 0
M  V30 4577 C 465.827 -2.99409 -1.75987 0
M  V30 4578 C 464.781 -4.0689 -1.32758 0
M  V30 4579 C 464.107 -4.67856 -2.58872 0
M  V30 4580 C 465.407 -5.20215 -0.46624 0
M  V30 4581 H 467.101 -2.99398 0.0108214 0
M  V30 4582 H 464.647 -1.43998 0.00664468 0
M  V30 4583 H 466.6 -3.47943 -2.37727 0
M  V30 4584 H 465.324 -2.23675 -2.37985 0
M  V30 4585 H 463.983 -3.59191 -0.733299 0
M  V30 4586 H 463.631 -3.88772 -3.19163 0
M  V30 4587 H 463.331 -5.40438 -2.30653 0
M  V30 4588 H 464.855 -5.19147 -3.21433 0
M  V30 4589 H 466.269 -5.64704 -0.989047 0
M  V30 4590 H 464.666 -5.99455 -0.27826 0
M  V30 4591 H 465.736 -4.82198 0.511173 0
M  V30 4592 N 467.08 -0.0183926 -1.57589 0
M  V30 4593 C 468.31 0.67207 -1.95363 0
M  V30 4594 C 468.718 1.66807 -0.892872 0
M  V30 4595 O 468.061 1.83204 0.134958 0
M  V30 4596 C 468.123 1.44397 -3.29226 0
M  V30 4597 C 467.787 0.607511 -4.52944 0
M  V30 4598 C 468.784 -0.112657 -5.19778 0
M  V30 4599 C 466.469 0.548068 -4.99301 0
M  V30 4600 C 468.463 -0.881057 -6.31281 0
M  V30 4601 C 466.15 -0.224044 -6.10689 0
M  V30 4602 C 467.148 -0.937323 -6.76538 0
M  V30 4603 O 466.836 -1.6968 -7.85789 0
M  V30 4604 H 466.568 0.190925 -0.648478 0
M  V30 4605 H 469.122 -0.0711994 -2.05277 0
M  V30 4606 H 467.352 2.23214 -3.15773 0
M  V30 4607 H 469.041 2.02152 -3.51979 0
M  V30 4608 H 469.807 -0.0759998 -4.8494 0
M  V30 4609 H 465.686 1.09281 -4.4786 0
M  V30 4610 H 469.23 -1.43832 -6.82611 0
M  V30 4611 H 465.127 -0.262457 -6.44966 0
M  V30 4612 H 465.895 -1.61544 -8.024 0
M  V30 4613 N 468.558 1.5553 0.254621 0
M  V30 4614 C 469.488 1.9268 1.31897 0
M  V30 4615 C 470.469 0.790797 1.506 0
M  V30 4616 O 471.654 1.05045 1.63337 0
M  V30 4617 C 468.784 2.21477 2.67517 0
M  V30 4618 C 467.738 3.37256 2.63519 0
M  V30 4619 C 467.064 3.51576 4.02862 0
M  V30 4620 C 468.364 4.73157 2.21179 0
M  V30 4621 H 470.058 2.81832 1.01051 0
M  V30 4622 H 467.604 1.35599 0.484662 0
M  V30 4623 H 469.557 2.46055 3.42104 0
M  V30 4624 H 468.281 1.29144 2.99982 0
M  V30 4625 H 466.94 3.12675 1.9139 0
M  V30 4626 H 466.588 2.56676 4.32581 0
M  V30 4627 H 466.288 4.2943 4.01078 0
M  V30 4628 H 467.812 3.78467 4.79161 0
M  V30 4629 H 469.226 4.97158 2.85494 0
M  V30 4630 H 467.623 5.54058 2.30521 0
M  V30 4631 H 468.693 4.70739 1.16332 0
M  V30 4632 N 470.036 -0.519951 1.48776 0
M  V30 4633 C 470.966 -1.63253 1.66945 0
M  V30 4634 C 471.947 -1.62014 0.518224 0
M  V30 4635 O 473.132 -1.79053 0.751919 0
M  V30 4636 C 470.262 -3.0181 1.71836 0
M  V30 4637 C 469.216 -3.17911 2.8656 0
M  V30 4638 C 468.542 -4.5763 2.76548 0
M  V30 4639 C 469.842 -2.99729 4.27738 0
M  V30 4640 H 471.536 -1.48302 2.6009 0
M  V30 4641 H 469.082 -0.712026 1.25165 0
M  V30 4642 H 471.035 -3.79525 1.83135 0
M  V30 4643 H 469.759 -3.17806 0.752775 0
M  V30 4644 H 468.418 -2.42616 2.74833 0
M  V30 4645 H 468.066 -4.70476 1.77937 0
M  V30 4646 H 467.766 -4.69346 3.53536 0
M  V30 4647 H 469.29 -5.37431 2.89828 0
M  V30 4648 H 470.704 -3.67228 4.40246 0
M  V30 4649 H 469.101 -3.22932 5.05801 0
M  V30 4650 H 470.171 -1.96047 4.43502 0
M  V30 4651 N 471.514 -1.37532 -0.769588 0
M  V30 4652 C 472.446 -1.29347 -1.89214 0
M  V30 4653 C 473.459 -0.208842 -1.61455 0
M  V30 4654 O 474.648 -0.465158 -1.72333 0
M  V30 4655 C 471.748 -0.977649 -3.24492 0
M  V30 4656 C 470.921 -2.16817 -3.7988 0
M  V30 4657 C 469.98 -1.82229 -4.93639 0
M  V30 4658 O 469.006 -2.54548 -5.09111 0
M  V30 4659 N 470.208 -0.767696 -5.75401 0
M  V30 4660 H 472.973 -2.26073 -1.96751 0
M  V30 4661 H 470.534 -1.31185 -0.948795 0
M  V30 4662 H 472.526 -0.727065 -3.98115 0
M  V30 4663 H 471.096 -0.0988777 -3.12444 0
M  V30 4664 H 470.316 -2.58038 -2.9801 0
M  V30 4665 H 471.604 -2.96308 -4.13617 0
M  V30 4666 H 471.002 -0.167626 -5.65452 0
M  V30 4667 H 469.559 -0.576973 -6.49241 0
M  V30 4668 N 472.992 0.995999 -1.22138 0
M  V30 4669 C 473.924 2.08745 -0.946485 0
M  V30 4670 C 474.937 1.62633 0.0737356 0
M  V30 4671 O 476.126 1.77782 -0.159886 0
M  V30 4672 C 473.226 3.36516 -0.401305 0
M  V30 4673 C 472.399 4.11672 -1.47801 0
M  V30 4674 C 471.458 5.17728 -0.940461 0
M  V30 4675 O 470.484 5.45482 -1.62596 0
M  V30 4676 N 471.686 5.80005 0.239723 0
M  V30 4677 H 474.451 2.32908 -1.88611 0
M  V30 4678 H 472.012 1.16152 -1.12785 0
M  V30 4679 H 474.004 4.04691 -0.0270837 0
M  V30 4680 H 472.574 3.0944 0.443354 0
M  V30 4681 H 471.794 3.38171 -2.02568 0
M  V30 4682 H 473.082 4.58657 -2.20253 0
M  V30 4683 H 472.48 5.5982 0.813518 0
M  V30 4684 H 471.037 6.4943 0.555361 0
M  V30 4685 N 474.47 1.03057 1.19235 0
M  V30 4686 C 475.719 0.72326 1.88287 0
M  V30 4687 C 476.032 -0.751333 1.80594 0
M  V30 4688 O 477.238 -1.17176 2.44912 0
M  V30 4689 C 475.694 1.24338 3.3774 0
M  V30 4690 C 475.302 2.74587 3.53986 0
M  V30 4691 C 477.046 1.01213 4.12257 0
M  V30 4692 C 474.953 3.20009 4.97341 0
M  V30 4693 H 473.883 0.266848 0.705201 0
M  V30 4694 H 476.534 1.24509 1.34795 0
M  V30 4695 H 474.916 0.649457 3.90638 0
M  V30 4696 H 476.09 3.39649 3.11408 0
M  V30 4697 H 474.405 2.9601 2.9286 0
M  V30 4698 H 477.002 1.32675 5.17978 0
M  V30 4699 H 477.345 -0.051001 4.16269 0
M  V30 4700 H 477.878 1.57014 3.65501 0
M  V30 4701 H 474.617 4.25659 4.98493 0
M  V30 4702 H 474.137 2.59676 5.40674 0
M  V30 4703 H 475.816 3.13447 5.66003 0
M  V30 4704 N 475.948 -1.35272 0.808662 0
M  V30 4705 C 477.196 -1.98316 0.389233 0
M  V30 4706 C 477.517 -1.64465 -1.04767 0
M  V30 4707 O 476.787 -0.928175 -1.72516 0
M  V30 4708 H 475.367 -0.733585 0.140935 0
M  V30 4709 H 478.029 -1.6515 1.03496 0
M  V30 4710 H 477.125 -3.08123 0.496631 0
M  V30 4711 N 477.426 -0.562348 -1.47226 0
M  V30 4712 C 478.837 -0.130325 -1.86245 0
M  V30 4713 C 479.188 1.30128 -1.46838 0
M  V30 4714 O 478.313 1.97974 -0.873805 0
M  V30 4715 C 478.908 -0.229738 -3.3802 0
M  V30 4716 C 477.467 0.14728 -3.76112 0
M  V30 4717 C 476.614 -0.574971 -2.71274 0
M  V30 4718 H 479.565 -0.771773 -1.3867 0
M  V30 4719 H 479.586 0.550316 -3.76499 0
M  V30 4720 H 479.098 -1.27178 -3.66671 0
M  V30 4721 H 477.199 1.19023 -3.53078 0
M  V30 4722 H 477.312 -0.214858 -4.78618 0
M  V30 4723 H 475.676 -0.0174756 -2.54694 0
M  V30 4724 H 476.459 -1.61827 -3.02766 0
M  V30 4725 N 478.904 1.54736 -0.299062 0
M  V30 4726 C 479.852 2.24897 0.593658 0
M  V30 4727 C 480.846 1.25429 1.13859 0
M  V30 4728 O 482.052 1.43286 1.08945 0
M  V30 4729 H 478.427 0.72207 0.210046 0
M  V30 4730 H 480.398 2.98393 -0.0206421 0
M  V30 4731 C 479.147 3.00159 1.75499 0
M  V30 4732 H 478.47 3.76501 1.34489 0
M  V30 4733 H 479.91 3.52535 2.35574 0
M  V30 4734 C 478.369 2.07015 2.65794 0
M  V30 4735 O 478.899 1.63692 3.66835 0
M  V30 4736 N 477.105 1.73012 2.33485 0
M  V30 4737 H 476.652 2.08439 1.51364 0
M  V30 4738 H 476.61 1.10965 2.94167 0
M  V30 4739 N 480.382 0.0267497 1.57577 0
M  V30 4740 C 481.607 -0.666227 1.96408 0
M  V30 4741 C 482.032 -1.65004 0.903071 0
M  V30 4742 O 481.39 -1.80787 -0.136263 0
M  V30 4743 C 481.438 -1.35101 3.34335 0
M  V30 4744 O 480.542 -2.46623 3.30531 0
M  V30 4745 H 479.883 -0.175206 0.640468 0
M  V30 4746 H 482.413 0.0878977 2.04411 0
M  V30 4747 H 482.423 -1.70834 3.70513 0
M  V30 4748 H 481.098 -0.629844 4.11103 0
M  V30 4749 H 479.675 -2.13019 3.06068 0
M  V30 4750 N 481.861 -1.55662 -0.24637 0
M  V30 4751 C 483.108 -1.77519 -0.974335 0
M  V30 4752 C 483.436 -0.591165 -1.85298 0
M  V30 4753 O 482.691 0.425497 -1.91018 0
M  V30 4754 C 482.99 -3.04885 -1.86494 0
M  V30 4755 C 482.656 -4.36209 -1.14161 0
M  V30 4756 C 481.318 -4.71896 -0.941701 0
M  V30 4757 C 483.67 -5.17391 -0.628957 0
M  V30 4758 C 480.998 -5.86299 -0.216852 0
M  V30 4759 C 483.35 -6.32546 0.0824273 0
M  V30 4760 C 482.014 -6.66853 0.293807 0
M  V30 4761 H 481.284 -0.649588 -0.356535 0
M  V30 4762 H 483.931 -1.89934 -0.244394 0
M  V30 4763 H 482.236 -2.87484 -2.66196 0
M  V30 4764 H 483.933 -3.18994 -2.42989 0
M  V30 4765 H 480.523 -4.08174 -1.30736 0
M  V30 4766 H 484.707 -4.90276 -0.770943 0
M  V30 4767 H 479.963 -6.11385 -0.0426124 0
M  V30 4768 H 484.137 -6.94693 0.487292 0
M  V30 4769 H 481.764 -7.55349 0.857428 0
M  V30 4770 N 483.339 0.512053 -1.4905 0
M  V30 4771 C 484.269 1.62365 -1.67809 0
M  V30 4772 C 485.25 1.61737 -0.526809 0
M  V30 4773 O 486.435 1.78651 -0.761404 0
M  V30 4774 C 483.565 3.00895 -1.73435 0
M  V30 4775 C 482.519 3.16387 -2.88242 0
M  V30 4776 C 481.845 4.56157 -2.78971 0
M  V30 4777 C 483.145 2.97457 -4.29321 0
M  V30 4778 H 484.839 1.46921 -2.60873 0
M  V30 4779 H 482.385 0.705379 -1.2554 0
M  V30 4780 H 484.338 3.78549 -1.85145 0
M  V30 4781 H 483.062 3.17403 -0.769619 0
M  V30 4782 H 481.721 2.41155 -2.76116 0
M  V30 4783 H 481.369 4.69525 -1.8043 0
M  V30 4784 H 481.069 4.67465 -3.5602 0
M  V30 4785 H 482.593 5.35886 -2.92675 0
M  V30 4786 H 484.007 3.64888 -4.42187 0
M  V30 4787 H 482.404 3.20245 -5.07507 0
M  V30 4788 H 483.474 1.93692 -4.44535 0
M  V30 4789 N 484.817 1.37938 0.762283 0
M  V30 4790 C 486.066 1.32989 1.51647 0
M  V30 4791 C 486.379 -0.0802922 1.95435 0
M  V30 4792 O 487.585 -0.252295 2.70325 0
M  V30 4793 C 486.041 2.33485 2.73885 0
M  V30 4794 C 485.649 3.80079 2.37157 0
M  V30 4795 C 487.393 2.37563 3.51801 0
M  V30 4796 C 485.3 4.72283 3.55954 0
M  V30 4797 H 484.23 0.494301 0.56937 0
M  V30 4798 H 486.881 1.63448 0.834083 0
M  V30 4799 H 485.263 1.96056 3.44061 0
M  V30 4800 H 486.437 4.26398 1.74704 0
M  V30 4801 H 484.752 3.79037 1.72395 0
M  V30 4802 H 487.349 3.0365 4.40114 0
M  V30 4803 H 487.692 1.39199 3.92338 0
M  V30 4804 H 488.225 2.73747 2.8863 0
M  V30 4805 H 484.964 5.7181 3.2049 0
M  V30 4806 H 484.484 4.30663 4.1748 0
M  V30 4807 H 486.163 4.89876 4.22647 0
M  V30 4808 N 486.295 -0.989507 1.22664 0
M  V30 4809 C 487.543 -1.72612 1.05117 0
M  V30 4810 C 487.864 -1.90552 -0.414131 0
M  V30 4811 O 487.134 -1.4676 -1.29762 0
M  V30 4812 H 485.714 -0.639555 0.385977 0
M  V30 4813 H 488.376 -1.19158 1.54232 0
M  V30 4814 H 487.472 -2.71926 1.53175 0
M  V30 4815 N 487.773 -1.03688 -1.18687 0
M  V30 4816 C 489.021 -0.736572 -1.88199 0
M  V30 4817 C 489.342 0.737665 -1.80509 0
M  V30 4818 O 488.612 1.53204 -1.22088 0
M  V30 4819 H 487.192 -0.269466 -0.696704 0
M  V30 4820 H 489.854 -1.31282 -1.44052 0
M  V30 4821 H 488.95 -1.03802 -2.94332 0
M  V30 4822 N 489.251 1.34841 -0.815825 0
M  V30 4823 C 490.528 1.92908 -0.323416 0
M  V30 4824 C 490.908 1.74479 1.18828 0
M  V30 4825 O 490.256 1.11928 1.99209 0
M  V30 4826 C 490.466 3.40957 -0.744952 0
M  V30 4827 C 491.814 4.18107 -0.739716 0
M  V30 4828 O 492.838 3.49511 -0.68708 0
M  V30 4829 O 491.697 5.40517 -0.806456 0
M  V30 4830 H 488.791 0.822436 -0.0867646 0
M  V30 4831 H 491.337 1.4386 -0.90014 0
M  V30 4832 H 490.109 3.4814 -1.78646 0
M  V30 4833 H 489.732 3.97341 -0.143535 0
M  V30 4834 N 490.729 0.570148 1.46925 0
M  V30 4835 C 491.954 0.0542592 2.07329 0
M  V30 4836 C 492.379 -1.23582 1.41806 0
M  V30 4837 O 491.737 -1.74341 0.497479 0
M  V30 4838 C 491.785 -0.111175 3.60429 0
M  V30 4839 O 490.889 -1.17071 3.95434 0
M  V30 4840 H 490.23 0.0571425 0.661537 0
M  V30 4841 H 492.76 0.789516 1.88753 0
M  V30 4842 H 492.77 -0.321315 4.06733 0
M  V30 4843 H 491.445 0.831012 4.07513 0
M  V30 4844 H 490.022 -0.940029 3.60857 0
M  V30 4845 N 492.207 -1.54576 0.307264 0
M  V30 4846 C 493.618 -1.8579 -0.184121 0
M  V30 4847 C 493.969 -1.22914 -1.52927 0
M  V30 4848 O 493.094 -0.529126 -2.09831 0
M  V30 4849 C 493.689 -3.37081 -0.340862 0
M  V30 4850 C 492.248 -3.68304 -0.776465 0
M  V30 4851 C 491.395 -2.77076 0.111503 0
M  V30 4852 H 494.346 -1.49656 0.528078 0
M  V30 4853 H 494.367 -3.61922 -1.17443 0
M  V30 4854 H 493.879 -3.82815 0.638309 0
M  V30 4855 H 491.98 -3.28092 -1.76596 0
M  V30 4856 H 492.093 -4.75434 -0.591512 0
M  V30 4857 H 490.457 -2.51374 -0.410256 0
M  V30 4858 H 491.24 -3.25632 1.08714 0
M  V30 4859 N 493.685 -0.035106 -1.57561 0
M  V30 4860 C 494.962 0.681212 -1.83354 0
M  V30 4861 C 495.342 1.89986 -0.920252 0
M  V30 4862 O 494.69 2.28489 0.0226815 0
M  V30 4863 C 494.9 1.05376 -3.32712 0
M  V30 4864 C 496.248 1.44286 -3.99333 0
M  V30 4865 O 497.272 1.14656 -3.37242 0
M  V30 4866 O 496.131 1.99518 -5.08778 0
M  V30 4867 H 493.225 0.334741 -0.756226 0
M  V30 4868 H 495.771 -0.0632448 -1.69582 0
M  V30 4869 H 494.543 0.186668 -3.90854 0
M  V30 4870 H 494.166 1.85619 -3.51613 0
M  V30 4871 N 495.163 1.55791 0.238111 0
M  V30 4872 C 496.111 1.91885 1.31464 0
M  V30 4873 C 497.105 0.798929 1.49377 0
M  V30 4874 O 498.311 0.983626 1.50747 0
M  V30 4875 H 494.686 0.609551 0.440399 0
M  V30 4876 H 496.657 2.81747 0.982925 0
M  V30 4877 C 495.406 2.23763 2.6613 0
M  V30 4878 H 494.729 3.09444 2.53149 0
M  V30 4879 H 496.169 2.52915 3.40309 0
M  V30 4880 C 494.628 1.05699 3.1989 0
M  V30 4881 O 495.158 0.309524 4.00506 0
M  V30 4882 N 493.364 0.845251 2.78036 0
M  V30 4883 H 492.911 1.4548 2.12588 0
M  V30 4884 H 492.869 0.0569973 3.14348 0
M  V30 4885 N 496.642 -0.504142 1.49319 0
M  V30 4886 C 497.589 -1.60603 1.65756 0
M  V30 4887 C 498.559 -1.58425 0.499082 0
M  V30 4888 O 499.744 -1.76459 0.725728 0
M  V30 4889 C 496.884 -2.98764 1.72726 0
M  V30 4890 C 495.997 -3.10982 2.99857 0
M  V30 4891 C 495.132 -4.39857 2.97824 0
M  V30 4892 C 494.171 -4.45697 4.19548 0
M  V30 4893 N 493.308 -5.65995 4.15444 0
M  V30 4894 H 498.148 -1.45895 2.59843 0
M  V30 4895 H 495.685 -0.709891 1.28837 0
M  V30 4896 H 497.643 -3.78839 1.74747 0
M  V30 4897 H 496.273 -3.12183 0.821075 0
M  V30 4898 H 495.325 -2.23991 3.07461 0
M  V30 4899 H 496.637 -3.11157 3.89849 0
M  V30 4900 H 495.791 -5.2825 2.98391 0
M  V30 4901 H 494.53 -4.42242 2.05604 0
M  V30 4902 H 493.535 -3.55707 4.19229 0
M  V30 4903 H 494.76 -4.4503 5.12957 0
M  V30 4904 H 492.706 -5.69229 3.26059 0
M  V30 4905 H 492.623 -5.67773 4.99169 0
M  V30 4906 H 493.891 -6.56604 4.20109 0
M  V30 4907 N 498.12 -1.38341 -0.754957 0
M  V30 4908 C 499.35 -1.37504 -1.54195 0
M  V30 4909 C 499.758 0.0373787 -1.89163 0
M  V30 4910 O 499.101 1.01402 -1.53178 0
M  V30 4911 C 499.163 -2.16488 -2.87008 0
M  V30 4912 C 498.827 -3.65311 -2.74585 0
M  V30 4913 C 499.824 -4.58834 -2.44474 0
M  V30 4914 C 497.509 -4.08649 -2.9208 0
M  V30 4915 C 499.503 -5.93675 -2.32011 0
M  V30 4916 C 497.19 -5.43571 -2.79237 0
M  V30 4917 C 498.188 -6.35898 -2.49245 0
M  V30 4918 O 497.876 -7.68338 -2.36458 0
M  V30 4919 H 497.608 -0.472159 -0.483779 0
M  V30 4920 H 500.162 -1.82515 -0.94221 0
M  V30 4921 H 498.392 -1.66194 -3.49166 0
M  V30 4922 H 500.081 -2.08076 -3.4851 0
M  V30 4923 H 500.847 -4.26657 -2.30627 0
M  V30 4924 H 496.726 -3.37134 -3.14422 0
M  V30 4925 H 500.27 -6.65706 -2.08522 0
M  V30 4926 H 496.167 -5.75345 -2.92657 0
M  V30 4927 H 496.935 -7.78845 -2.5168 0
M  V30 4928 N 499.598 0.982988 -1.23187 0
M  V30 4929 C 501.014 1.2487 -0.993967 0
M  V30 4930 C 501.214 1.99155 0.306498 0
M  V30 4931 O 500.27 2.30688 1.0266 0
M  V30 4932 C 501.583 2.05078 -2.19917 0
M  V30 4933 C 503.131 2.18227 -2.2438 0
M  V30 4934 C 503.606 3.01825 -3.44479 0
M  V30 4935 N 505.097 3.09411 -3.44702 0
M  V30 4936 C 505.832 3.74412 -4.34285 0
M  V30 4937 N 505.328 4.41259 -5.341 0
M  V30 4938 N 507.121 3.71273 -4.22035 0
M  V30 4939 H 499.272 0.485253 -2.06783 0
M  V30 4940 H 501.535 0.276979 -0.906635 0
M  V30 4941 H 501.241 1.57867 -3.14279 0
M  V30 4942 H 501.115 3.05829 -2.2079 0
M  V30 4943 H 503.502 2.64648 -1.30559 0
M  V30 4944 H 503.583 1.16873 -2.2754 0
M  V30 4945 H 503.227 2.56102 -4.38605 0
M  V30 4946 H 503.157 4.03342 -3.38559 0
M  V30 4947 H 505.648 2.61845 -2.7248 0
M  V30 4948 H 505.961 4.88629 -5.98717 0
M  V30 4949 H 504.306 4.39975 -5.38002 0
M  V30 4950 H 507.497 3.18217 -3.43301 0
M  V30 4951 H 507.67 4.21649 -4.92053 0
M  V30 4952 N 501.076 1.04316 1.18135 0
M  V30 4953 C 502.322 0.749128 1.88457 0
M  V30 4954 C 502.655 -0.72149 1.803 0
M  V30 4955 O 501.93 -1.52676 1.205 0
M  V30 4956 C 502.213 1.21905 3.38838 0
M  V30 4957 C 502.066 2.75195 3.55792 0
M  V30 4958 C 503.385 0.811085 4.32561 0
M  V30 4959 H 500.504 0.273611 0.684329 0
M  V30 4960 H 503.146 1.29561 1.38975 0
M  V30 4961 H 501.296 0.754137 3.8111 0
M  V30 4962 H 502.968 3.29743 3.22595 0
M  V30 4963 H 501.211 3.14899 2.98364 0
M  V30 4964 H 501.882 3.03135 4.61317 0
M  V30 4965 H 504.358 1.21118 3.98082 0
M  V30 4966 H 503.234 1.16761 5.36338 0
M  V30 4967 H 503.495 -0.285596 4.41177 0
M  V30 4968 N 502.554 -1.34406 0.822964 0
M  V30 4969 C 503.801 -1.98284 0.411057 0
M  V30 4970 C 504.129 -1.65245 -1.02588 0
M  V30 4971 O 503.384 -0.91619 -1.72929 0
M  V30 4972 C 503.683 -3.52981 0.560268 0
M  V30 4973 C 503.349 -4.05931 1.96293 0
M  V30 4974 C 502.011 -4.20103 2.34664 0
M  V30 4975 C 504.363 -4.34412 2.87985 0
M  V30 4976 C 501.691 -4.60082 3.64062 0
M  V30 4977 C 504.043 -4.75838 4.16847 0
M  V30 4978 C 502.707 -4.88215 4.55195 0
M  V30 4979 H 501.977 -0.725573 0.150416 0
M  V30 4980 H 504.624 -1.60349 1.04692 0
M  V30 4981 H 502.929 -3.91477 -0.158982 0
M  V30 4982 H 504.626 -4.00385 0.222087 0
M  V30 4983 H 501.216 -3.95363 1.65487 0
M  V30 4984 H 505.4 -4.23001 2.59584 0
M  V30 4985 H 500.656 -4.67856 3.93599 0
M  V30 4986 H 504.83 -4.96834 4.87984 0
M  V30 4987 H 502.457 -5.18952 5.55512 0
M  V30 4988 N 504.032 -0.577932 -1.46621 0
M  V30 4989 C 505.281 -0.0594281 -2.01612 0
M  V30 4990 C 505.594 1.30663 -1.45556 0
M  V30 4991 O 506.8 1.91621 -1.92337 0
M  V30 4992 C 505.256 -0.0556666 -3.59857 0
M  V30 4993 C 504.864 -1.41975 -4.24908 0
M  V30 4994 C 506.608 0.409143 -4.22524 0
M  V30 4995 C 504.515 -1.37397 -5.75218 0
M  V30 4996 H 503.445 -0.0184469 -0.753774 0
M  V30 4997 H 506.096 -0.728869 -1.68404 0
M  V30 4998 H 504.478 0.679843 -3.90121 0
M  V30 4999 H 505.652 -2.17461 -4.0626 0
M  V30 5000 H 503.967 -1.82419 -3.74316 0
M  V30 5001 H 506.564 0.46211 -5.32699 0
M  V30 5002 H 506.907 1.42565 -3.91128 0
M  V30 5003 H 507.44 -0.272152 -3.96868 0
M  V30 5004 H 504.179 -2.36714 -6.11267 0
M  V30 5005 H 503.699 -0.661239 -5.96144 0
M  V30 5006 H 505.378 -1.08484 -6.3784 0
M  V30 5007 N 505.51 1.54411 -0.315457 0
M  V30 5008 C 506.758 2.00023 0.288971 0
M  V30 5009 C 507.079 1.20529 1.5329 0
M  V30 5010 O 506.349 0.304986 1.93511 0
M  V30 5011 H 504.929 0.738891 0.109766 0
M  V30 5012 H 507.591 1.90094 -0.430129 0
M  V30 5013 H 506.687 3.07198 0.550999 0
M  V30 5014 N 506.988 0.0434614 1.5754 0
M  V30 5015 C 508.399 -0.493343 1.80064 0
M  V30 5016 C 508.75 -1.71388 0.955023 0
M  V30 5017 O 507.875 -2.15736 0.169434 0
M  V30 5018 C 508.47 -0.90179 3.26578 0
M  V30 5019 C 507.029 -1.38362 3.50047 0
M  V30 5020 C 506.176 -0.355129 2.75017 0
M  V30 5021 H 509.127 0.2694 1.56397 0
M  V30 5022 H 509.148 -1.76523 3.37075 0
M  V30 5023 H 508.66 -0.013271 3.88098 0
M  V30 5024 H 506.761 -2.29159 2.93798 0
M  V30 5025 H 506.874 -1.3811 4.58762 0
M  V30 5026 H 505.238 -0.826348 2.40922 0
M  V30 5027 H 506.021 0.525172 3.39259 0
M  V30 5028 N 508.466 -1.55915 -0.229846 0
M  V30 5029 C 509.398 -1.88209 -1.30805 0
M  V30 5030 C 510.411 -0.769672 -1.43457 0
M  V30 5031 O 511.6 -1.04792 -1.44502 0
M  V30 5032 C 508.7 -2.06829 -2.68468 0
M  V30 5033 C 507.873 -3.37798 -2.77869 0
M  V30 5034 C 506.932 -3.45952 -3.96489 0
M  V30 5035 O 505.958 -4.19043 -3.85216 0
M  V30 5036 N 507.16 -2.76488 -5.10426 0
M  V30 5037 H 509.925 -2.81286 -1.03431 0
M  V30 5038 H 507.486 -1.5636 -0.41991 0
M  V30 5039 H 509.478 -2.09608 -3.46189 0
M  V30 5040 H 508.048 -1.20416 -2.88477 0
M  V30 5041 H 507.268 -3.4719 -1.86689 0
M  V30 5042 H 508.556 -4.24091 -2.81113 0
M  V30 5043 H 507.954 -2.16868 -5.2248 0
M  V30 5044 H 506.511 -2.84938 -5.8622 0
M  V30 5045 N 509.944 0.496216 -1.49584 0
M  V30 5046 C 510.892 1.61805 -1.67098 0
M  V30 5047 C 511.886 1.60667 -0.536877 0
M  V30 5048 O 513.092 1.65118 -0.716654 0
M  V30 5049 H 509.467 0.53646 -0.526986 0
M  V30 5050 H 511.438 1.44187 -2.61252 0
M  V30 5051 C 510.187 2.99912 -1.75921 0
M  V30 5052 H 509.51 3.01496 -2.62565 0
M  V30 5053 H 510.95 3.77931 -1.92209 0
M  V30 5054 C 509.409 3.33092 -0.505088 0
M  V30 5055 O 509.939 4.00019 0.367085 0
M  V30 5056 N 508.145 2.88278 -0.366599 0
M  V30 5057 H 507.692 2.33989 -1.07735 0
M  V30 5058 H 507.65 3.10846 0.47142 0
M  V30 5059 N 511.423 1.38739 0.74761 0
M  V30 5060 C 512.663 1.36695 1.51966 0
M  V30 5061 C 513.027 -0.0411889 1.91956 0
M  V30 5062 O 514.228 -0.186543 2.68152 0
M  V30 5063 C 512.499 2.30119 2.73459 0
M  V30 5064 S 514.058 2.4615 3.63257 0
M  V30 5065 H 510.876 0.484929 0.519966 0
M  V30 5066 H 513.478 1.7472 0.877104 0
M  V30 5067 H 512.182 3.31312 2.422 0
M  V30 5068 H 511.713 1.93265 3.42655 0
M  V30 5069 H 513.728 1.69001 4.66533 0
M  V30 5070 N 512.901 -0.976442 1.23707 0
M  V30 5071 C 514.126 -1.75875 1.09922 0
M  V30 5072 C 514.551 -1.84911 -0.34489 0
M  V30 5073 O 513.909 -1.31363 -1.24954 0
M  V30 5074 C 513.957 -3.16179 1.73388 0
M  V30 5075 O 513.061 -4.00124 0.99871 0
M  V30 5076 H 512.402 -0.540954 0.385052 0
M  V30 5077 H 514.932 -1.22546 1.6384 0
M  V30 5078 H 514.942 -3.66741 1.78788 0
M  V30 5079 H 513.617 -3.08917 2.78466 0
M  V30 5080 H 512.194 -3.58624 1.02193 0
M  V30 5081 N 514.379 -1.04941 -1.1758 0
M  V30 5082 C 515.619 -0.766996 -1.89464 0
M  V30 5083 C 515.983 0.693123 -1.79053 0
M  V30 5084 O 517.184 1.08953 -2.45729 0
M  V30 5085 C 515.455 -1.23108 -3.35528 0
M  V30 5086 S 517.014 -1.07565 -4.25412 0
M  V30 5087 H 513.832 -0.278616 -0.654136 0
M  V30 5088 H 516.434 -1.34352 -1.4202 0
M  V30 5089 H 515.138 -2.28896 -3.40639 0
M  V30 5090 H 514.669 -0.648724 -3.88014 0
M  V30 5091 H 516.684 0.00169467 -4.962 0
M  V30 5092 N 515.857 1.33968 -0.830081 0
M  V30 5093 C 516.82 2.27694 -0.26235 0
M  V30 5094 C 517.82 1.50589 0.563876 0
M  V30 5095 O 519.01 1.70028 0.378941 0
M  V30 5096 C 516.142 3.35002 0.63138 0
M  V30 5097 H 517.335 2.79419 -1.08928 0
M  V30 5098 H 514.888 1.44221 -0.602486 0
M  V30 5099 H 515.623 2.88504 1.48109 0
M  V30 5100 H 515.408 3.92079 0.0403276 0
M  V30 5101 H 516.898 4.04897 1.02217 0
M  V30 5102 N 517.335 0.585699 1.46312 0
M  V30 5103 C 518.751 0.247607 1.57668 0
M  V30 5104 C 518.951 -1.25007 1.58037 0
M  V30 5105 O 518.007 -2.03196 1.49893 0
M  V30 5106 C 519.32 0.899456 2.86933 0
M  V30 5107 C 520.868 0.873326 3.00569 0
M  V30 5108 C 521.343 1.50477 4.32574 0
M  V30 5109 N 522.834 1.46925 4.3928 0
M  V30 5110 C 523.569 1.92719 5.40044 0
M  V30 5111 N 523.065 2.46499 6.47464 0
M  V30 5112 N 524.858 1.83617 5.31264 0
M  V30 5113 H 517.009 1.55841 1.44317 0
M  V30 5114 H 519.272 0.651564 0.688599 0
M  V30 5115 H 518.978 1.95313 2.92482 0
M  V30 5116 H 518.852 0.409476 3.74971 0
M  V30 5117 H 521.239 -0.171736 2.946 0
M  V30 5118 H 521.32 1.40136 2.13999 0
M  V30 5119 H 520.964 2.54905 4.39302 0
M  V30 5120 H 520.894 0.951944 5.17924 0
M  V30 5121 H 523.385 1.07616 3.62253 0
M  V30 5122 H 523.698 2.79291 7.20567 0
M  V30 5123 H 522.043 2.50526 6.48276 0
M  V30 5124 H 525.234 1.41358 4.46246 0
M  V30 5125 H 525.407 2.19622 6.09648 0
M  V30 5126 N 518.813 -1.54241 0.323641 0
M  V30 5127 C 520.061 -2.00174 -0.278359 0
M  V30 5128 C 520.382 -1.2134 -1.52648 0
M  V30 5129 O 519.652 -0.315244 -1.93347 0
M  V30 5130 H 518.232 -0.739463 -0.105845 0
M  V30 5131 H 520.894 -1.89864 0.440204 0
M  V30 5132 H 519.99 -3.07486 -0.5347 0
M  V30 5133 N 520.291 -0.0518155 -1.57515 0
M  V30 5134 C 521.519 0.631395 -1.9703 0
M  V30 5135 C 521.934 1.64341 -0.92938 0
M  V30 5136 O 521.291 1.82296 0.0863266 0
M  V30 5137 C 521.342 1.31774 -3.36627 0
M  V30 5138 O 521.063 0.346247 -4.3673 0
M  V30 5139 C 522.564 2.09065 -3.90905 0
M  V30 5140 H 519.784 0.172576 -0.648428 0
M  V30 5141 H 522.328 -0.118306 -2.04158 0
M  V30 5142 H 520.483 2.01867 -3.30649 0
M  V30 5143 H 520.897 0.836226 -5.17791 0
M  V30 5144 H 522.371 2.52508 -4.9086 0
M  V30 5145 H 522.848 2.93908 -3.26366 0
M  V30 5146 H 523.454 1.43882 -4.00223 0
M  V30 5147 N 521.769 1.56035 0.221574 0
M  V30 5148 C 523.016 1.79047 0.94597 0
M  V30 5149 C 523.344 0.62057 1.84334 0
M  V30 5150 O 522.599 -0.395053 1.91671 0
M  V30 5151 C 522.898 3.07813 1.8162 0
M  V30 5152 C 522.564 4.3797 1.07206 0
M  V30 5153 C 521.226 4.73334 0.866508 0
M  V30 5154 C 523.578 5.18326 0.546565 0
M  V30 5155 C 520.906 5.8657 0.123549 0
M  V30 5156 C 523.258 6.32335 -0.18305 0
M  V30 5157 C 521.922 6.66301 -0.399861 0
M  V30 5158 H 521.192 0.655178 0.346155 0
M  V30 5159 H 523.839 1.90299 0.214146 0
M  V30 5160 H 522.144 2.91682 2.61589 0
M  V30 5161 H 523.841 3.2282 2.37884 0
M  V30 5162 H 520.431 4.10202 1.24226 0
M  V30 5163 H 524.615 4.9144 0.692847 0
M  V30 5164 H 519.871 6.11376 -0.0546591 0
M  V30 5165 H 524.045 6.9383 -0.59775 0
M  V30 5166 H 521.672 7.53889 -0.977489 0
M  V30 5167 N 523.247 -0.488276 1.49845 0
M  V30 5168 C 524.487 -1.2516 1.61599 0
M  V30 5169 C 524.851 -1.89615 0.301706 0
M  V30 5170 O 526.052 -2.67182 0.29453 0
M  V30 5171 C 524.323 -2.2805 2.75187 0
M  V30 5172 S 525.882 -3.13552 3.0697 0
M  V30 5173 H 522.7 -0.425178 0.569864 0
M  V30 5174 H 525.302 -0.551545 1.87559 0
M  V30 5175 H 524.006 -1.7925 3.69185 0
M  V30 5176 H 523.537 -3.02708 2.5126 0
M  V30 5177 H 525.552 -4.28927 2.49471 0
M  V30 5178 N 524.725 -1.39134 -0.740242 0
M  V30 5179 C 525.974 -1.35384 -1.49512 0
M  V30 5180 C 526.287 0.04919 -1.95538 0
M  V30 5181 O 527.493 0.209257 -2.70692 0
M  V30 5182 C 525.949 -2.37812 -2.70136 0
M  V30 5183 C 525.557 -3.83804 -2.31081 0
M  V30 5184 C 527.301 -2.4313 -3.47977 0
M  V30 5185 C 525.208 -4.77886 -3.48395 0
M  V30 5186 H 524.138 -0.503297 -0.561434 0
M  V30 5187 H 526.789 -1.64754 -0.807974 0
M  V30 5188 H 525.171 -2.01505 -3.40899 0
M  V30 5189 H 526.345 -4.29123 -1.67898 0
M  V30 5190 H 524.66 -3.81732 -1.66343 0
M  V30 5191 H 527.257 -3.10614 -4.35228 0
M  V30 5192 H 527.6 -1.45423 -3.90074 0
M  V30 5193 H 528.133 -2.78304 -2.84239 0
M  V30 5194 H 524.872 -5.76836 -3.11353 0
M  V30 5195 H 524.392 -4.3725 -4.10576 0
M  V30 5196 H 526.071 -4.96538 -4.148 0
M  V30 5197 N 526.204 0.969867 -1.24223 0
M  V30 5198 C 527.154 2.04913 -0.999732 0
M  V30 5199 C 528.138 1.60795 0.0580636 0
M  V30 5200 O 529.33 1.76317 -0.155392 0
M  V30 5201 C 526.459 3.37942 -0.604154 0
M  V30 5202 C 525.545 3.88628 -1.69791 0
M  V30 5203 N 525.936 4.12274 -2.93025 0
M  V30 5204 C 524.234 4.17268 -1.57492 0
M  V30 5205 C 524.935 4.53808 -3.63914 0
M  V30 5206 N 523.911 4.58855 -2.91468 0
M  V30 5207 H 527.713 2.21168 -1.93551 0
M  V30 5208 H 525.227 1.15349 -1.14317 0
M  V30 5209 H 527.224 4.14863 -0.411665 0
M  V30 5210 H 525.884 3.23075 0.324465 0
M  V30 5211 H 526.895 3.99789 -3.29225 0
M  V30 5212 H 523.572 4.11346 -0.714175 0
M  V30 5213 H 524.962 4.80534 -4.69614 0
M  V30 5214 N 527.682 1.05563 1.17022 0
M  V30 5215 C 528.612 0.681026 2.23348 0
M  V30 5216 C 529.593 -0.322983 1.67005 0
M  V30 5217 O 530.778 -0.199746 1.9317 0
M  V30 5218 C 527.908 0.0589053 3.4725 0
M  V30 5219 C 526.862 0.988082 4.16438 0
M  V30 5220 C 526.188 0.229646 5.34207 0
M  V30 5221 C 527.488 2.31388 4.68249 0
M  V30 5222 H 529.182 1.56993 2.54938 0
M  V30 5223 H 526.728 0.756302 1.2254 0
M  V30 5224 H 528.681 -0.214982 4.20851 0
M  V30 5225 H 527.405 -0.864968 3.14938 0
M  V30 5226 H 526.064 1.24659 3.44754 0
M  V30 5227 H 525.712 -0.697111 4.98146 0
M  V30 5228 H 525.412 0.848815 5.81437 0
M  V30 5229 H 526.936 -0.0368694 6.10589 0
M  V30 5230 H 528.35 2.09964 5.33468 0
M  V30 5231 H 526.747 2.88736 5.26072 0
M  V30 5232 H 527.817 2.94982 3.84855 0
M  V30 5233 N 529.16 -1.33526 0.837174 0
M  V30 5234 C 530.09 -2.31764 0.284206 0
M  V30 5235 C 531.071 -1.58896 -0.607142 0
M  V30 5236 O 532.256 -1.86798 -0.531047 0
M  V30 5237 C 529.386 -3.43029 -0.542962 0
M  V30 5238 C 528.34 -4.27255 0.252451 0
M  V30 5239 C 527.666 -5.3012 -0.69836 0
M  V30 5240 C 528.966 -5.01229 1.46858 0
M  V30 5241 H 530.66 -2.78262 1.10502 0
M  V30 5242 H 528.206 -1.3378 0.532812 0
M  V30 5243 H 530.159 -4.1078 -0.940096 0
M  V30 5244 H 528.883 -2.95216 -1.39697 0
M  V30 5245 H 527.542 -3.61127 0.631124 0
M  V30 5246 H 527.19 -4.78564 -1.54872 0
M  V30 5247 H 526.89 -5.87353 -0.170274 0
M  V30 5248 H 528.414 -6.00737 -1.09305 0
M  V30 5249 H 529.828 -5.61756 1.14469 0
M  V30 5250 H 528.225 -5.68104 1.93333 0
M  V30 5251 H 529.295 -4.301 2.23924 0
M  V30 5252 N 530.638 -0.59345 -1.46 0
M  V30 5253 C 531.885 -0.0831523 -2.02329 0
M  V30 5254 C 532.213 1.28093 -1.46364 0
M  V30 5255 O 531.468 1.85526 -0.622793 0
M  V30 5256 C 531.767 0.021178 -3.57394 0
M  V30 5257 C 531.433 -1.27671 -4.32448 0
M  V30 5258 C 530.095 -1.63227 -4.5267 0
M  V30 5259 C 532.447 -2.13511 -4.7546 0
M  V30 5260 C 529.775 -2.84401 -5.1316 0
M  V30 5261 C 532.127 -3.33922 -5.37289 0
M  V30 5262 C 530.791 -3.69747 -5.55737 0
M  V30 5263 H 530.061 -0.0304276 -0.740375 0
M  V30 5264 H 532.708 -0.772239 -1.75239 0
M  V30 5265 H 531.013 0.793454 -3.83682 0
M  V30 5266 H 532.71 0.431942 -3.98667 0
M  V30 5267 H 529.3 -0.989937 -4.17011 0
M  V30 5268 H 533.484 -1.87344 -4.59582 0
M  V30 5269 H 528.74 -3.12282 -5.25633 0
M  V30 5270 H 532.914 -4.00698 -5.69574 0
M  V30 5271 H 530.541 -4.6373 -6.02377 0
M  V30 5272 N 532.116 1.54067 -0.331816 0
M  V30 5273 C 533.362 2.01012 0.268667 0
M  V30 5274 C 533.695 1.2195 1.51136 0
M  V30 5275 O 532.97 0.303972 1.9211 0
M  V30 5276 C 533.253 3.55158 0.59456 0
M  V30 5277 C 533.106 4.4494 -0.659409 0
M  V30 5278 C 534.425 4.16939 1.4089 0
M  V30 5279 H 531.544 0.730698 0.0961756 0
M  V30 5280 H 534.186 1.84593 -0.450031 0
M  V30 5281 H 532.336 3.6928 1.20685 0
M  V30 5282 H 534.008 4.42675 -1.29756 0
M  V30 5283 H 532.251 4.1428 -1.28665 0
M  V30 5284 H 532.922 5.50643 -0.386804 0
M  V30 5285 H 535.398 4.06443 0.891272 0
M  V30 5286 H 534.274 5.24889 1.60569 0
M  V30 5287 H 534.535 3.70798 2.40752 0
M  V30 5288 N 533.594 0.0601682 1.57485 0
M  V30 5289 C 534.527 -0.94676 2.07634 0
M  V30 5290 C 535.505 -1.29837 0.978826 0
M  V30 5291 O 536.689 -1.40969 1.2514 0
M  V30 5292 C 533.816 -2.25822 2.52433 0
M  V30 5293 C 532.862 -2.05901 3.73507 0
M  V30 5294 S 533.695 -1.32907 5.18745 0
M  V30 5295 C 534.851 -2.65356 5.66866 0
M  V30 5296 H 535.084 -0.520003 2.92717 0
M  V30 5297 H 532.617 -0.152319 1.53647 0
M  V30 5298 H 534.575 -3.01201 2.78905 0
M  V30 5299 H 533.236 -2.65624 1.67639 0
M  V30 5300 H 532.429 -3.02929 4.02803 0
M  V30 5301 H 532.031 -1.38659 3.47347 0
M  V30 5302 H 534.323 -3.61492 5.73001 0
M  V30 5303 H 535.266 -2.40685 6.6594 0
M  V30 5304 H 535.674 -2.72028 4.94632 0
M  V30 5305 N 535.072 -1.5615 -0.213296 0
M  V30 5306 C 536.002 -1.96109 -1.26742 0
M  V30 5307 C 536.983 -0.830448 -1.48451 0
M  V30 5308 O 538.168 -1.09339 -1.60495 0
M  V30 5309 C 535.298 -2.28492 -2.61551 0
M  V30 5310 C 534.252 -3.44124 -2.54485 0
M  V30 5311 C 533.578 -3.62134 -3.93399 0
M  V30 5312 C 534.878 -4.78855 -2.08556 0
M  V30 5313 H 536.572 -2.84412 -0.935434 0
M  V30 5314 H 534.118 -1.36836 -0.44854 0
M  V30 5315 H 536.071 -2.55039 -3.3546 0
M  V30 5316 H 534.795 -1.37052 -2.96453 0
M  V30 5317 H 533.454 -3.17639 -1.83033 0
M  V30 5318 H 533.102 -2.68055 -4.25623 0
M  V30 5319 H 532.802 -4.39913 -3.89551 0
M  V30 5320 H 534.326 -3.91038 -4.68958 0
M  V30 5321 H 535.74 -5.04552 -2.72213 0
M  V30 5322 H 534.137 -5.59975 -2.1575 0
M  V30 5323 H 535.207 -4.73657 -1.03811 0
M  V30 5324 N 536.55 0.480323 -1.50102 0
M  V30 5325 C 537.966 0.813295 -1.37323 0
M  V30 5326 C 538.166 1.97027 -0.422206 0
M  V30 5327 O 537.222 2.5212 0.138563 0
M  V30 5328 C 538.535 1.13404 -2.78496 0
M  V30 5329 C 540.083 1.24104 -2.87345 0
M  V30 5330 C 540.558 1.59497 -4.29331 0
M  V30 5331 N 542.049 1.66507 -4.32238 0
M  V30 5332 C 542.784 1.95378 -5.39087 0
M  V30 5333 N 542.28 2.22333 -6.56155 0
M  V30 5334 N 544.073 1.96803 -5.26522 0
M  V30 5335 H 536.224 -0.282291 -2.10516 0
M  V30 5336 H 538.487 -0.063752 -0.945854 0
M  V30 5337 H 538.193 0.357064 -3.49883 0
M  V30 5338 H 538.067 2.07251 -3.15162 0
M  V30 5339 H 540.454 2.00871 -2.16183 0
M  V30 5340 H 540.535 0.282593 -2.54234 0
M  V30 5341 H 540.179 0.832736 -5.01027 0
M  V30 5342 H 540.109 2.56477 -4.59921 0
M  V30 5343 H 542.6 1.47753 -3.47818 0
M  V30 5344 H 542.913 2.43611 -7.33399 0
M  V30 5345 H 541.258 2.19745 -6.59346 0
M  V30 5346 H 544.449 1.75235 -4.34062 0
M  V30 5347 H 544.622 2.18969 -6.09883 0
M  V30 5348 N 538.028 1.39524 0.732853 0
M  V30 5349 C 539.274 1.37068 1.49467 0
M  V30 5350 C 539.607 -0.0327166 1.94172 0
M  V30 5351 O 538.882 -0.998071 1.66939 0
M  V30 5352 C 539.165 2.34494 2.73285 0
M  V30 5353 C 539.018 3.83784 2.34585 0
M  V30 5354 C 540.337 2.29717 3.75391 0
M  V30 5355 H 537.456 0.499206 0.542183 0
M  V30 5356 H 540.098 1.70532 0.837783 0
M  V30 5357 H 538.248 2.06087 3.29333 0
M  V30 5358 H 539.92 4.22949 1.84151 0
M  V30 5359 H 538.163 4.00455 1.66787 0
M  V30 5360 H 538.834 4.47444 3.23262 0
M  V30 5361 H 541.31 2.54839 3.28932 0
M  V30 5362 H 540.186 2.99962 4.59689 0
M  V30 5363 H 540.447 1.30291 4.22465 0
M  V30 5364 N 539.506 -0.963266 1.24736 0
M  V30 5365 C 540.753 -1.7068 1.0897 0
M  V30 5366 C 541.081 -1.90934 -0.370751 0
M  V30 5367 O 540.336 -1.47155 -1.29011 0
M  V30 5368 C 540.635 -3.09944 1.7796 0
M  V30 5369 C 540.301 -3.09518 3.27887 0
M  V30 5370 C 538.963 -3.09109 3.68789 0
M  V30 5371 C 541.315 -3.03509 4.23712 0
M  V30 5372 C 538.643 -3.00429 5.03944 0
M  V30 5373 C 540.995 -2.96371 5.5888 0
M  V30 5374 C 539.659 -2.94293 5.99123 0
M  V30 5375 H 538.929 -0.624564 0.398749 0
M  V30 5376 H 541.576 -1.12603 1.54896 0
M  V30 5377 H 539.881 -3.71513 1.2444 0
M  V30 5378 H 541.578 -3.66278 1.63222 0
M  V30 5379 H 538.168 -3.10603 2.95337 0
M  V30 5380 H 542.352 -3.0295 3.93109 0
M  V30 5381 H 537.608 -2.97183 5.34314 0
M  V30 5382 H 541.782 -2.90681 6.32833 0
M  V30 5383 H 539.409 -2.87322 7.03811 0
M  V30 5384 N 540.985 -1.06182 -1.16461 0
M  V30 5385 C 541.917 -0.629584 -2.20383 0
M  V30 5386 C 542.93 0.311834 -1.59786 0
M  V30 5387 O 544.119 0.103 -1.78203 0
M  V30 5388 C 541.219 0.0973695 -3.3876 0
M  V30 5389 C 540.392 -0.857252 -4.28917 0
M  V30 5390 C 539.451 -0.169749 -5.25926 0
M  V30 5391 O 538.477 -0.807044 -5.6345 0
M  V30 5392 N 539.679 1.08911 -5.70192 0
M  V30 5393 H 542.444 -1.52352 -2.58087 0
M  V30 5394 H 540.005 -0.944993 -1.31459 0
M  V30 5395 H 541.997 0.567676 -4.00699 0
M  V30 5396 H 540.567 0.893093 -2.99571 0
M  V30 5397 H 539.787 -1.50696 -3.64259 0
M  V30 5398 H 541.075 -1.50489 -4.86035 0
M  V30 5399 H 540.473 1.62703 -5.41797 0
M  V30 5400 H 539.03 1.50331 -6.34227 0
M  V30 5401 N 542.463 1.3308 -0.844243 0
M  V30 5402 C 543.393 2.3161 -0.296493 0
M  V30 5403 C 544.374 1.59215 0.598707 0
M  V30 5404 O 545.559 1.87077 0.521134 0
M  V30 5405 C 542.689 3.43313 0.524762 0
M  V30 5406 C 541.643 4.27115 -0.275106 0
M  V30 5407 C 540.969 5.30483 0.670236 0
M  V30 5408 C 542.269 5.00443 -1.49514 0
M  V30 5409 H 543.963 2.77672 -1.11976 0
M  V30 5410 H 541.509 1.33496 -0.539899 0
M  V30 5411 H 543.462 4.11273 0.918298 0
M  V30 5412 H 542.186 2.95952 1.3813 0
M  V30 5413 H 540.845 3.60787 -0.650267 0
M  V30 5414 H 540.493 4.79379 1.52332 0
M  V30 5415 H 540.193 5.87435 0.139123 0
M  V30 5416 H 541.717 6.01308 1.06117 0
M  V30 5417 H 543.131 5.61141 -1.17447 0
M  V30 5418 H 541.528 5.67071 -1.96343 0
M  V30 5419 H 542.598 4.28906 -2.26202 0
M  V30 5420 N 543.941 0.601185 1.45683 0
M  V30 5421 C 544.851 -0.123395 2.34275 0
M  V30 5422 C 545.867 -0.86702 1.5086 0
M  V30 5423 O 547.043 -0.826049 1.8368 0
M  V30 5424 C 544.108 -1.11237 3.2837 0
M  V30 5425 C 543.169 -0.371405 4.2769 0
M  V30 5426 C 542.402 -1.31327 5.1729 0
M  V30 5427 O 542.625 -2.55078 5.10188 0
M  V30 5428 O 541.559 -0.813811 5.96373 0
M  V30 5429 H 545.385 0.604483 2.97623 0
M  V30 5430 H 542.97 0.361477 1.44961 0
M  V30 5431 H 544.852 -1.68214 3.8637 0
M  V30 5432 H 543.527 -1.82139 2.67595 0
M  V30 5433 H 542.434 0.24067 3.73325 0
M  V30 5434 H 543.767 0.296998 4.91303 0
M  V30 5435 N 545.419 -1.53889 0.339982 0
M  V30 5436 C 546.83 -1.86139 -0.144671 0
M  V30 5437 C 547.181 -1.2613 -1.50285 0
M  V30 5438 O 546.306 -0.573515 -2.08662 0
M  V30 5439 C 546.901 -3.37728 -0.269285 0
M  V30 5440 C 545.46 -3.69868 -0.698168 0
M  V30 5441 C 544.607 -2.76777 0.170249 0
M  V30 5442 H 547.558 -1.48503 0.559704 0
M  V30 5443 H 547.579 -3.64331 -1.0974 0
M  V30 5444 H 547.091 -3.81375 0.719366 0
M  V30 5445 H 545.192 -3.31764 -1.69597 0
M  V30 5446 H 545.305 -4.76582 -0.490533 0
M  V30 5447 H 543.669 -2.52188 -0.356844 0
M  V30 5448 H 544.452 -3.23253 1.15597 0
M  V30 5449 N 546.897 -0.0685191 -1.57451 0
M  V30 5450 C 548.122 0.613919 -1.98106 0
M  V30 5451 C 548.547 1.62551 -0.946501 0
M  V30 5452 O 547.905 1.81085 0.0882824 0
M  V30 5453 C 547.953 1.26189 -3.378 0
M  V30 5454 O 547.057 2.37773 -3.36954 0
M  V30 5455 H 546.398 0.158163 -0.644888 0
M  V30 5456 H 548.928 -0.142063 -2.04106 0
M  V30 5457 H 548.938 1.60951 -3.74912 0
M  V30 5458 H 547.613 0.520625 -4.12629 0
M  V30 5459 H 546.19 2.04829 -3.11608 0
M  V30 5460 N 548.375 1.56261 0.205012 0
M  V30 5461 C 549.652 1.70856 0.952233 0
M  V30 5462 C 550.032 0.620501 2.01775 0
M  V30 5463 O 549.38 -0.370035 2.25484 0
M  V30 5464 C 549.59 3.12807 1.54767 0
M  V30 5465 C 550.938 3.72733 2.0336 0
M  V30 5466 O 551.962 3.15873 1.64629 0
M  V30 5467 O 550.821 4.72501 2.746 0
M  V30 5468 H 547.915 0.696496 0.445895 0
M  V30 5469 H 550.461 1.6857 0.195489 0
M  V30 5470 H 549.233 3.83465 0.779132 0
M  V30 5471 H 548.856 3.1928 2.36951 0
M  V30 5472 N 549.853 -0.472356 1.50355 0
M  V30 5473 C 551.264 -1.05326 1.54154 0
M  V30 5474 C 551.615 -1.93155 0.344303 0
M  V30 5475 O 550.74 -2.09479 -0.542928 0
M  V30 5476 C 551.335 -1.91691 2.79356 0
M  V30 5477 C 549.894 -2.44892 2.8584 0
M  V30 5478 C 549.041 -1.23205 2.48426 0
M  V30 5479 H 551.992 -0.255027 1.56637 0
M  V30 5480 H 552.013 -2.76742 2.6114 0
M  V30 5481 H 551.525 -1.27741 3.66475 0
M  V30 5482 H 549.626 -3.12399 2.0307 0
M  V30 5483 H 549.739 -2.80086 3.88701 0
M  V30 5484 H 548.103 -1.56643 2.00836 0
M  V30 5485 H 548.886 -0.609194 3.37852 0
M  V30 5486 N 551.331 -1.39911 -0.725443 0
M  V30 5487 C 552.264 -1.33788 -1.84867 0
M  V30 5488 C 553.242 -0.209907 -1.61239 0
M  V30 5489 O 554.426 -0.391943 -1.8438 0
M  V30 5490 C 551.553 -1.07975 -3.21028 0
M  V30 5491 C 550.599 -2.23092 -3.635 0
M  V30 5492 S 551.432 -3.85431 -3.71757 0
M  V30 5493 C 552.588 -3.61862 -5.10692 0
M  V30 5494 H 552.821 -2.28848 -1.89779 0
M  V30 5495 H 550.354 -1.26079 -0.891254 0
M  V30 5496 H 552.312 -0.937669 -3.99647 0
M  V30 5497 H 550.973 -0.145865 -3.13761 0
M  V30 5498 H 550.166 -2.00647 -4.62338 0
M  V30 5499 H 549.768 -2.33553 -2.92112 0
M  V30 5500 H 552.06 -3.19719 -5.97316 0
M  V30 5501 H 553.003 -4.60196 -5.38169 0
M  V30 5502 H 553.411 -2.95757 -4.8082 0
M  V30 5503 N 552.809 0.956637 -1.25245 0
M  V30 5504 C 553.739 2.07058 -1.07931 0
M  V30 5505 C 554.72 1.70096 0.0110361 0
M  V30 5506 O 555.905 1.93555 -0.158121 0
M  V30 5507 C 553.035 3.40272 -0.695124 0
M  V30 5508 C 551.989 3.91235 -1.73549 0
M  V30 5509 C 551.315 5.20921 -1.20604 0
M  V30 5510 C 552.615 4.17837 -3.13385 0
M  V30 5511 H 554.309 2.218 -2.01109 0
M  V30 5512 H 551.855 1.06581 -0.968326 0
M  V30 5513 H 553.808 4.1765 -0.560949 0
M  V30 5514 H 552.532 3.25462 0.272355 0
M  V30 5515 H 551.191 3.16025 -1.85807 0
M  V30 5516 H 550.839 5.02479 -0.228846 0
M  V30 5517 H 550.539 5.55987 -1.90136 0
M  V30 5518 H 552.063 6.00897 -1.08421 0
M  V30 5519 H 553.477 4.8588 -3.04292 0
M  V30 5520 H 551.874 4.64154 -3.80369 0
M  V30 5521 H 552.944 3.2419 -3.60595 0
M  V30 5522 N 554.287 1.06798 1.15896 0
M  V30 5523 C 555.533 0.798757 1.8706 0
M  V30 5524 C 555.888 -0.667739 1.80441 0
M  V30 5525 O 555.181 -1.48334 1.21274 0
M  V30 5526 C 555.375 1.23414 3.35416 0
M  V30 5527 C 555.204 2.74142 3.56478 0
M  V30 5528 C 553.974 3.41675 3.72272 0
M  V30 5529 C 556.172 3.72348 3.5477 0
M  V30 5530 N 554.154 4.81101 3.81333 0
M  V30 5531 C 555.525 4.97585 3.69877 0
M  V30 5532 C 557.58 3.65585 3.38011 0
M  V30 5533 C 556.283 6.16866 3.69959 0
M  V30 5534 C 558.309 4.84323 3.39389 0
M  V30 5535 C 557.671 6.08391 3.5502 0
M  V30 5536 H 553.77 0.344761 0.7019 0
M  V30 5537 H 556.354 1.36314 1.3902 0
M  V30 5538 H 554.525 0.697522 3.82085 0
M  V30 5539 H 556.257 0.91304 3.94266 0
M  V30 5540 H 553.012 2.92078 3.7281 0
M  V30 5541 H 553.436 5.53647 3.8962 0
M  V30 5542 H 558.078 2.70615 3.2485 0
M  V30 5543 H 555.796 7.12164 3.819 0
M  V30 5544 H 559.382 4.80762 3.27658 0
M  V30 5545 H 558.262 6.98731 3.56012 0
M  V30 5546 N 555.766 -1.3263 0.851289 0
M  V30 5547 C 557.182 -1.50162 0.5407 0
M  V30 5548 C 557.382 -1.78788 -0.929369 0
M  V30 5549 O 556.438 -1.85545 -1.71258 0
M  V30 5550 C 557.751 -2.64803 1.42478 0
M  V30 5551 C 559.299 -2.78688 1.42485 0
M  V30 5552 C 559.774 -3.96405 2.29407 0
M  V30 5553 N 561.265 -4.0366 2.27184 0
M  V30 5554 C 562 -4.93971 2.9117 0
M  V30 5555 N 561.496 -5.89313 3.64256 0
M  V30 5556 N 563.289 -4.87066 2.80576 0
M  V30 5557 H 555.44 -1.12315 1.80275 0
M  V30 5558 H 557.703 -0.553266 0.769806 0
M  V30 5559 H 557.409 -2.50368 2.46999 0
M  V30 5560 H 557.283 -3.60506 1.10974 0
M  V30 5561 H 559.67 -2.92547 0.387304 0
M  V30 5562 H 559.751 -1.83708 1.78002 0
M  V30 5563 H 559.395 -3.83304 3.33228 0
M  V30 5564 H 559.325 -4.90654 1.91224 0
M  V30 5565 H 561.816 -3.35435 1.74045 0
M  V30 5566 H 562.129 -6.54913 4.10255 0
M  V30 5567 H 560.474 -5.8935 3.68364 0
M  V30 5568 H 563.665 -4.11552 2.23031 0
M  V30 5569 H 563.838 -5.57248 3.30725 0
M  V30 5570 N 557.244 -0.608902 -1.45362 0
M  V30 5571 C 558.191 0.109172 -2.30542 0
M  V30 5572 C 559.161 0.858704 -1.42181 0
M  V30 5573 O 560.346 0.844178 -1.71109 0
M  V30 5574 C 557.486 1.09971 -3.27109 0
M  V30 5575 C 556.599 0.350911 -4.30572 0
M  V30 5576 C 555.734 1.33129 -5.14247 0
M  V30 5577 C 554.773 0.570377 -6.09437 0
M  V30 5578 N 553.91 1.5001 -6.85887 0
M  V30 5579 H 558.75 -0.623195 -2.91411 0
M  V30 5580 H 556.287 -0.319122 -1.43597 0
M  V30 5581 H 558.245 1.68714 -3.81564 0
M  V30 5582 H 556.875 1.79947 -2.67991 0
M  V30 5583 H 555.927 -0.352054 -3.78767 0
M  V30 5584 H 557.239 -0.242725 -4.98209 0
M  V30 5585 H 556.393 1.99074 -5.73109 0
M  V30 5586 H 555.132 1.95885 -4.46632 0
M  V30 5587 H 554.137 -0.102702 -5.49704 0
M  V30 5588 H 555.362 -0.0521607 -6.7908 0
M  V30 5589 H 553.308 2.11529 -6.2096 0
M  V30 5590 H 553.225 0.959934 -7.49881 0
M  V30 5591 H 554.493 2.14909 -7.49289 0
M  V30 5592 N 558.722 1.53707 -0.348139 0
M  V30 5593 C 559.95 2.05406 0.248224 0
M  V30 5594 C 560.365 1.22282 1.43849 0
M  V30 5595 O 559.722 0.259244 1.80649 0
M  V30 5596 C 559.773 3.55446 0.658793 0
M  V30 5597 O 559.494 4.35417 -0.484149 0
M  V30 5598 C 560.995 4.23335 1.31539 0
M  V30 5599 H 558.215 0.669344 0.0471075 0
M  V30 5600 H 560.759 1.98257 -0.501456 0
M  V30 5601 H 558.914 3.62803 1.35841 0
M  V30 5602 H 559.328 5.24268 -0.155949 0
M  V30 5603 H 560.802 5.29692 1.55338 0
M  V30 5604 H 561.279 3.75967 2.27036 0
M  V30 5605 H 561.885 4.20184 0.657683 0
M  V30 5606 N 560.2 0.0768682 1.57412 0
M  V30 5607 C 561.13 -0.886026 2.16037 0
M  V30 5608 C 562.111 -1.30691 1.08876 0
M  V30 5609 O 563.296 -1.37705 1.36934 0
M  V30 5610 C 560.426 -2.1518 2.72608 0
M  V30 5611 C 559.38 -1.87015 3.8498 0
M  V30 5612 C 558.706 -3.20266 4.28175 0
M  V30 5613 C 560.006 -1.17143 5.08994 0
M  V30 5614 H 561.7 -0.397642 2.96748 0
M  V30 5615 H 559.246 -0.189823 1.42743 0
M  V30 5616 H 561.199 -2.82962 3.12266 0
M  V30 5617 H 559.923 -2.66269 1.89125 0
M  V30 5618 H 558.582 -1.21636 3.45833 0
M  V30 5619 H 558.23 -3.69207 3.41607 0
M  V30 5620 H 557.93 -3.0221 5.03927 0
M  V30 5621 H 559.454 -3.89237 4.70454 0
M  V30 5622 H 560.868 -1.75003 5.45937 0
M  V30 5623 H 559.265 -1.09328 5.90057 0
M  V30 5624 H 560.335 -0.151295 4.84664 0
M  V30 5625 N 561.678 -1.56367 -0.196722 0
M  V30 5626 C 562.625 -1.94417 -1.24382 0
M  V30 5627 C 563.595 -0.804543 -1.45315 0
M  V30 5628 O 564.78 -1.06256 -1.58475 0
M  V30 5629 C 561.92 -2.28757 -2.58388 0
M  V30 5630 C 561.033 -3.55775 -2.45047 0
M  V30 5631 C 560.168 -3.79445 -3.71746 0
M  V30 5632 C 559.207 -4.99894 -3.53231 0
M  V30 5633 N 558.344 -5.19826 -4.71938 0
M  V30 5634 H 563.184 -2.83691 -0.912338 0
M  V30 5635 H 560.721 -1.40392 -0.439135 0
M  V30 5636 H 562.679 -2.46682 -3.36457 0
M  V30 5637 H 561.309 -1.42625 -2.89582 0
M  V30 5638 H 560.361 -3.45905 -1.58284 0
M  V30 5639 H 561.673 -4.44 -2.27299 0
M  V30 5640 H 560.827 -3.97601 -4.58256 0
M  V30 5641 H 559.566 -2.89546 -3.92446 0
M  V30 5642 H 558.571 -4.81662 -2.65107 0
M  V30 5643 H 559.796 -5.913 -3.33978 0
M  V30 5644 H 557.742 -4.32875 -4.92905 0
M  V30 5645 H 557.659 -6.02228 -4.57009 0
M  V30 5646 H 558.927 -5.42439 -5.59803 0
M  V30 5647 N 563.156 0.464375 -1.50603 0
M  V30 5648 C 564.104 1.58224 -1.70493 0
M  V30 5649 C 565.098 1.59492 -0.570836 0
M  V30 5650 O 566.304 1.63561 -0.751517 0
M  V30 5651 H 562.679 0.525161 -0.538247 0
M  V30 5652 H 564.65 1.38613 -2.64252 0
M  V30 5653 C 563.399 2.96113 -1.82243 0
M  V30 5654 H 562.722 2.95858 -2.68901 0
M  V30 5655 H 564.162 3.73769 -2.00182 0
M  V30 5656 C 562.621 3.31946 -0.575628 0
M  V30 5657 O 563.151 4.00708 0.282152 0
M  V30 5658 N 561.357 2.87436 -0.427665 0
M  V30 5659 H 560.904 2.31652 -1.12674 0
M  V30 5660 H 560.862 3.11776 0.405379 0
M  V30 5661 N 564.634 1.40294 0.718013 0
M  V30 5662 C 565.881 1.3844 1.47786 0
M  V30 5663 C 566.209 -0.0140838 1.94495 0
M  V30 5664 O 565.464 -0.998165 1.68331 0
M  V30 5665 C 565.763 2.31814 2.72024 0
M  V30 5666 C 565.429 3.79117 2.44093 0
M  V30 5667 C 564.091 4.19249 2.36185 0
M  V30 5668 C 566.443 4.72212 2.20602 0
M  V30 5669 C 563.771 5.50516 2.02851 0
M  V30 5670 C 566.123 6.03775 1.88781 0
M  V30 5671 C 564.787 6.42953 1.79354 0
M  V30 5672 H 564.057 0.506588 0.540786 0
M  V30 5673 H 566.704 1.72929 0.822663 0
M  V30 5674 H 565.009 1.90501 3.42369 0
M  V30 5675 H 566.706 2.27664 3.30106 0
M  V30 5676 H 563.296 3.47318 2.51133 0
M  V30 5677 H 567.48 4.42026 2.25669 0
M  V30 5678 H 562.736 5.79776 1.94088 0
M  V30 5679 H 566.91 6.75428 1.69617 0
M  V30 5680 H 564.537 7.44584 1.53291 0
M  V30 5681 N 566.112 -0.949982 1.2575 0
M  V30 5682 C 567.022 -2.08109 1.08295 0
M  V30 5683 C 568.038 -1.7399 0.0188181 0
M  V30 5684 O 569.214 -2.00187 0.220724 0
M  V30 5685 C 566.279 -3.39383 0.708534 0
M  V30 5686 C 565.34 -3.8734 1.85111 0
M  V30 5687 C 564.573 -5.12349 1.49447 0
M  V30 5688 O 564.796 -5.6905 0.392212 0
M  V30 5689 O 563.73 -5.5513 2.32624 0
M  V30 5690 H 567.556 -2.25738 2.03165 0
M  V30 5691 H 565.141 -1.06545 1.04731 0
M  V30 5692 H 567.023 -4.18277 0.512061 0
M  V30 5693 H 565.698 -3.23013 -0.210854 0
M  V30 5694 H 564.605 -3.09429 2.10248 0
M  V30 5695 H 565.938 -4.08216 2.74991 0
M  V30 5696 N 567.59 -1.07411 -1.15328 0
M  V30 5697 C 568.836 -0.798831 -1.86404 0
M  V30 5698 C 569.169 0.673433 -1.8215 0
M  V30 5699 O 568.444 1.49428 -1.24505 0
M  V30 5700 C 568.727 -1.30846 -3.35487 0
M  V30 5701 C 568.58 -2.84532 -3.4837 0
M  V30 5702 C 569.899 -0.925486 -4.30259 0
M  V30 5703 H 567.018 -0.291659 -0.676834 0
M  V30 5704 H 569.66 -1.332 -1.35491 0
M  V30 5705 H 567.81 -0.854916 -3.78977 0
M  V30 5706 H 569.482 -3.3818 -3.13739 0
M  V30 5707 H 567.725 -3.22699 -2.8991 0
M  V30 5708 H 568.396 -3.15259 -4.53118 0
M  V30 5709 H 570.872 -1.3163 -3.94731 0
M  V30 5710 H 569.748 -1.3094 -5.33053 0
M  V30 5711 H 570.009 0.168525 -4.41779 0
M  V30 5712 N 569.068 1.32177 -0.85831 0
M  V30 5713 C 569.978 2.32561 -0.308606 0
M  V30 5714 C 570.994 1.64209 0.575462 0
M  V30 5715 O 572.17 1.95719 0.474961 0
M  V30 5716 C 569.235 3.43207 0.490909 0
M  V30 5717 C 568.296 4.27243 -0.419733 0
M  V30 5718 C 567.529 5.32605 0.341719 0
M  V30 5719 O 567.752 5.48332 1.57125 0
M  V30 5720 O 566.686 6.0118 -0.294379 0
M  V30 5721 H 570.512 2.81477 -1.14037 0
M  V30 5722 H 568.097 1.35866 -0.621349 0
M  V30 5723 H 569.979 4.10677 0.944574 0
M  V30 5724 H 568.654 2.96474 1.29941 0
M  V30 5725 H 567.561 3.62569 -0.921652 0
M  V30 5726 H 568.894 4.7751 -1.19352 0
M  V30 5727 N 570.547 0.616602 1.45037 0
M  V30 5728 C 571.772 0.120192 2.07051 0
M  V30 5729 C 572.197 -1.19008 1.45666 0
M  V30 5730 O 571.555 -1.7267 0.552692 0
M  V30 5731 C 571.603 0.00354901 3.606 0
M  V30 5732 O 570.707 -1.04431 3.98958 0
M  V30 5733 H 570.048 0.0781599 0.659384 0
M  V30 5734 H 572.578 0.849167 1.86146 0
M  V30 5735 H 572.588 -0.191754 4.07549 0
M  V30 5736 H 571.263 0.960239 4.04663 0
M  V30 5737 H 569.84 -0.824749 3.63665 0
M  V30 5738 N 572.025 -1.5352 0.356285 0
M  V30 5739 C 572.955 -2.28372 -0.486661 0
M  V30 5740 C 573.936 -1.30432 -1.09185 0
M  V30 5741 O 575.121 -1.59291 -1.11085 0
M  V30 5742 C 572.251 -3.06604 -1.63129 0
M  V30 5743 C 571.205 -4.12154 -1.15381 0
M  V30 5744 C 570.531 -4.78415 -2.38796 0
M  V30 5745 C 571.831 -5.21724 -0.245179 0
M  V30 5746 H 573.525 -2.99083 0.137797 0
M  V30 5747 H 571.071 -1.43841 0.0677134 0
M  V30 5748 H 573.024 -3.57712 -2.22755 0
M  V30 5749 H 571.748 -2.33568 -2.28284 0
M  V30 5750 H 570.407 -3.61978 -0.580294 0
M  V30 5751 H 570.055 -4.01959 -3.02387 0
M  V30 5752 H 569.755 -5.49734 -2.07524 0
M  V30 5753 H 571.279 -5.32313 -2.99125 0
M  V30 5754 H 572.693 -5.68391 -0.748646 0
M  V30 5755 H 571.09 -6.00095 -0.0237608 0
M  V30 5756 H 572.16 -4.79596 0.715229 0
M  V30 5757 N 573.503 -0.0852151 -1.57369 0
M  V30 5758 C 574.75 0.580806 -1.93992 0
M  V30 5759 C 575.078 1.68801 -0.966252 0
M  V30 5760 O 574.333 1.95694 0.0158649 0
M  V30 5761 C 574.632 1.18482 -3.3719 0
M  V30 5762 C 574.298 0.2024 -4.50446 0
M  V30 5763 C 572.96 -0.0678318 -4.81152 0
M  V30 5764 C 575.312 -0.46895 -5.19086 0
M  V30 5765 C 572.64 -1.01627 -5.77831 0
M  V30 5766 C 574.992 -1.4058 -6.16782 0
M  V30 5767 C 573.656 -1.68436 -6.45899 0
M  V30 5768 H 572.926 0.212532 -0.709867 0
M  V30 5769 H 575.573 -0.158947 -1.90839 0
M  V30 5770 H 573.878 2.0006 -3.36873 0
M  V30 5771 H 575.575 1.70767 -3.62822 0
M  V30 5772 H 572.165 0.423208 -4.26505 0
M  V30 5773 H 576.349 -0.273307 -4.95547 0
M  V30 5774 H 571.605 -1.2392 -5.9871 0
M  V30 5775 H 575.779 -1.93188 -6.69068 0
M  V30 5776 H 573.406 -2.42088 -7.20623 0
M  V30 5777 N 574.981 1.5647 0.188427 0
M  V30 5778 C 575.913 1.91611 1.25769 0
M  V30 5779 C 576.926 0.807436 1.41366 0
M  V30 5780 O 578.115 1.08586 1.41673 0
M  V30 5781 C 575.215 2.13874 2.6289 0
M  V30 5782 C 574.388 3.45047 2.68815 0
M  V30 5783 C 573.447 3.56342 3.87178 0
M  V30 5784 O 572.473 4.29109 3.73971 0
M  V30 5785 N 573.675 2.89924 5.02916 0
M  V30 5786 H 576.44 2.8393 0.959373 0
M  V30 5787 H 574.001 1.57418 0.378306 0
M  V30 5788 H 575.993 2.18713 3.4051 0
M  V30 5789 H 574.563 1.28022 2.85183 0
M  V30 5790 H 573.783 3.52017 1.77419 0
M  V30 5791 H 575.071 4.31395 2.6977 0
M  V30 5792 H 574.469 2.30644 5.16546 0
M  V30 5793 H 573.026 3.0038 5.78459 0
M  V30 5794 N 576.459 -0.456382 1.50847 0
M  V30 5795 C 577.406 -1.55249 1.70782 0
M  V30 5796 C 578.376 -1.56757 0.549231 0
M  V30 5797 O 579.561 -1.74061 0.7815 0
M  V30 5798 C 576.701 -2.93118 1.82143 0
M  V30 5799 C 575.814 -3.01285 3.09598 0
M  V30 5800 C 574.949 -4.30159 3.11667 0
M  V30 5801 C 573.988 -4.32124 4.33515 0
M  V30 5802 N 573.125 -5.52492 4.3324 0
M  V30 5803 H 577.965 -1.37555 2.64353 0
M  V30 5804 H 575.502 -0.668543 1.3103 0
M  V30 5805 H 577.46 -3.73088 1.86711 0
M  V30 5806 H 576.09 -3.09413 0.919978 0
M  V30 5807 H 575.142 -2.14096 3.14431 0
M  V30 5808 H 576.454 -2.98597 3.99551 0
M  V30 5809 H 575.608 -5.18489 3.15046 0
M  V30 5810 H 574.347 -4.35477 2.1957 0
M  V30 5811 H 573.352 -3.42189 4.30333 0
M  V30 5812 H 574.577 -4.28485 5.26856 0
M  V30 5813 H 572.523 -5.58567 3.44004 0
M  V30 5814 H 572.44 -5.51605 5.16979 0
M  V30 5815 H 573.708 -6.42906 4.40786 0
M  V30 5816 N 577.937 -1.40673 -0.710563 0
M  V30 5817 C 579.167 -1.4234 -1.49742 0
M  V30 5818 C 579.575 -0.022821 -1.89186 0
M  V30 5819 O 578.918 0.964773 -1.56326 0
M  V30 5820 C 578.98 -2.25509 -2.79975 0
M  V30 5821 C 578.644 -3.73862 -2.62824 0
M  V30 5822 C 579.641 -4.66379 -2.29752 0
M  V30 5823 C 577.326 -4.17735 -2.78932 0
M  V30 5824 C 579.32 -6.00756 -2.13006 0
M  V30 5825 C 577.007 -5.5218 -2.61802 0
M  V30 5826 C 578.005 -6.43505 -2.28888 0
M  V30 5827 O 577.693 -7.75472 -2.11894 0
M  V30 5828 H 577.425 -0.487311 -0.468513 0
M  V30 5829 H 579.979 -1.8542 -0.883668 0
M  V30 5830 H 578.209 -1.77218 -3.43701 0
M  V30 5831 H 579.898 -2.19058 -3.41714 0
M  V30 5832 H 580.664 -4.33778 -2.16936 0
M  V30 5833 H 576.543 -3.46967 -3.03537 0
M  V30 5834 H 580.087 -6.72003 -1.87237 0
M  V30 5835 H 575.984 -5.84365 -2.74204 0
M  V30 5836 H 576.752 -7.86458 -2.26775 0
M  V30 5837 N 579.415 0.9433 -1.26252 0
M  V30 5838 C 580.365 2.02746 -1.04297 0
M  V30 5839 C 581.349 1.60882 0.0239435 0
M  V30 5840 O 582.541 1.75947 -0.192757 0
M  V30 5841 C 579.67 3.36585 -0.6757 0
M  V30 5842 C 578.756 3.84939 -1.77996 0
M  V30 5843 N 579.147 4.05966 -3.01704 0
M  V30 5844 C 577.445 4.13833 -1.66308 0
M  V30 5845 C 578.146 4.45987 -3.73458 0
M  V30 5846 N 577.122 4.52569 -3.01135 0
M  V30 5847 H 580.924 2.17012 -1.98199 0
M  V30 5848 H 578.438 1.12898 -1.16738 0
M  V30 5849 H 580.435 4.13896 -0.499571 0
M  V30 5850 H 579.095 3.2369 0.255863 0
M  V30 5851 H 580.106 3.92716 -3.37631 0
M  V30 5852 H 576.783 4.09739 -0.801267 0
M  V30 5853 H 578.173 4.70465 -4.79701 0
M  V30 5854 N 580.893 1.08022 1.14757 0
M  V30 5855 C 582.118 0.82895 1.90114 0
M  V30 5856 C 582.543 -0.612772 1.77839 0
M  V30 5857 O 581.901 -1.42895 1.11583 0
M  V30 5858 C 581.949 1.25062 3.38219 0
M  V30 5859 O 581.053 0.400119 4.10454 0
M  V30 5860 H 580.394 0.301412 0.591648 0
M  V30 5861 H 582.924 1.44062 1.45284 0
M  V30 5862 H 582.934 1.22977 3.89025 0
M  V30 5863 H 581.609 2.30067 3.46471 0
M  V30 5864 H 580.186 0.484052 3.69745 0
M  V30 5865 N 582.371 -1.3172 0.865308 0
M  V30 5866 C 583.787 -1.4958 0.556596 0
M  V30 5867 C 583.987 -1.79763 -0.910353 0
M  V30 5868 O 583.043 -1.87351 -1.6928 0
M  V30 5869 C 584.356 -2.63277 1.45279 0
M  V30 5870 C 585.904 -2.77161 1.45433 0
M  V30 5871 C 586.379 -3.93949 2.33598 0
M  V30 5872 N 587.87 -4.01228 2.31453 0
M  V30 5873 C 588.605 -4.90855 2.96393 0
M  V30 5874 N 588.101 -5.85416 3.70486 0
M  V30 5875 N 589.894 -4.84063 2.85726 0
M  V30 5876 H 582.045 -1.10396 1.81456 0
M  V30 5877 H 584.308 -0.54507 0.775631 0
M  V30 5878 H 584.014 -2.47734 2.49641 0
M  V30 5879 H 583.888 -3.59309 1.14792 0
M  V30 5880 H 586.275 -2.9212 0.41831 0
M  V30 5881 H 586.356 -1.8181 1.79941 0
M  V30 5882 H 586 -3.79748 3.37274 0
M  V30 5883 H 585.93 -4.88598 1.96417 0
M  V30 5884 H 588.421 -3.3357 1.77593 0
M  V30 5885 H 588.734 -6.50525 4.17178 0
M  V30 5886 H 587.079 -5.85409 3.74594 0
M  V30 5887 H 590.27 -4.09163 2.27384 0
M  V30 5888 H 590.443 -5.53708 3.36617 0
M  V30 5889 N 583.85 -0.624285 -1.44708 0
M  V30 5890 C 585.266 -0.289322 -1.56956 0
M  V30 5891 C 585.466 1.20773 -1.61295 0
M  V30 5892 O 584.522 1.9915 -1.55227 0
M  V30 5893 C 585.835 -0.975215 -2.84447 0
M  V30 5894 C 587.383 -0.952709 -2.98148 0
M  V30 5895 C 587.858 -1.61893 -4.28433 0
M  V30 5896 N 589.349 -1.5852 -4.35231 0
M  V30 5897 C 590.084 -2.06969 -5.34744 0
M  V30 5898 N 589.58 -2.63579 -6.40701 0
M  V30 5899 N 591.373 -1.97638 -5.26209 0
M  V30 5900 H 583.524 -1.59612 -1.40135 0
M  V30 5901 H 585.787 -0.669592 -0.671081 0
M  V30 5902 H 585.493 -2.02999 -2.87201 0
M  V30 5903 H 585.367 -0.508749 -3.73753 0
M  V30 5904 H 587.754 0.093568 -2.94952 0
M  V30 5905 H 587.835 -1.4576 -2.10209 0
M  V30 5906 H 587.479 -2.66463 -4.32389 0
M  V30 5907 H 587.409 -1.08893 -5.15218 0
M  V30 5908 H 589.899 -1.17183 -3.59272 0
M  V30 5909 H 590.213 -2.98298 -7.12908 0
M  V30 5910 H 588.558 -2.67626 -6.41406 0
M  V30 5911 H 591.749 -1.5314 -4.42341 0
M  V30 5912 H 591.922 -2.35708 -6.03611 0
M  V30 5913 N 585.328 1.53329 -0.364422 0
M  V30 5914 C 586.553 2.06132 0.229033 0
M  V30 5915 C 586.978 1.23625 1.41769 0
M  V30 5916 O 586.336 0.255038 1.79497 0
M  V30 5917 C 586.384 3.55544 0.60174 0
M  V30 5918 O 585.488 3.75771 1.69912 0
M  V30 5919 H 584.829 0.663148 0.0336213 0
M  V30 5920 H 587.359 1.97758 -0.524689 0
M  V30 5921 H 587.369 3.98549 0.873073 0
M  V30 5922 H 586.044 4.15039 -0.267421 0
M  V30 5923 H 584.621 3.44663 1.42343 0
M  V30 5924 N 586.806 0.0935595 1.57322 0
M  V30 5925 C 588.031 -0.582324 1.99057 0
M  V30 5926 C 588.456 -1.61025 0.972242 0
M  V30 5927 O 587.814 -1.81202 -0.0594622 0
M  V30 5928 C 587.862 -1.20799 3.39765 0
M  V30 5929 O 586.966 -2.32382 3.40694 0
M  V30 5930 H 586.307 -0.147884 0.647323 0
M  V30 5931 H 588.837 0.174516 2.03854 0
M  V30 5932 H 588.847 -1.54966 3.77425 0
M  V30 5933 H 587.522 -0.454914 4.13405 0
M  V30 5934 H 586.099 -1.99845 3.14827 0
M  V30 5935 N 588.284 -1.56567 -0.180126 0
M  V30 5936 C 589.7 -1.50488 -0.531559 0
M  V30 5937 C 589.9 -0.796267 -1.851 0
M  V30 5938 O 588.956 -0.352978 -2.50021 0
M  V30 5939 C 590.269 -2.95201 -0.572456 0
M  V30 5940 C 591.817 -3.05957 -0.660264 0
M  V30 5941 C 592.292 -4.5211 -0.732135 0
M  V30 5942 N 593.783 -4.56322 -0.795262 0
M  V30 5943 C 594.518 -5.66742 -0.871296 0
M  V30 5944 N 594.014 -6.86815 -0.908708 0
M  V30 5945 N 595.807 -5.54691 -0.909639 0
M  V30 5946 H 587.958 -2.01045 0.685165 0
M  V30 5947 H 590.221 -0.915536 0.245962 0
M  V30 5948 H 589.927 -3.50165 0.328208 0
M  V30 5949 H 589.801 -3.49369 -1.422 0
M  V30 5950 H 592.188 -2.51032 -1.55136 0
M  V30 5951 H 592.269 -2.54888 0.215783 0
M  V30 5952 H 591.913 -5.07664 0.154664 0
M  V30 5953 H 591.843 -5.00926 -1.6242 0
M  V30 5954 H 594.334 -3.69868 -0.77499 0
M  V30 5955 H 594.647 -7.66718 -0.967654 0
M  V30 5956 H 592.992 -6.89443 -0.877132 0
M  V30 5957 H 596.183 -4.59804 -0.877353 0
M  V30 5958 H 596.356 -6.40768 -0.965434 0
M  V30 5959 N 589.762 0.448376 -1.51087 0
M  V30 5960 C 591.011 1.19561 -1.62444 0
M  V30 5961 C 591.324 1.92602 -0.341151 0
M  V30 5962 O 592.53 2.69439 -0.333936 0
M  V30 5963 C 590.986 2.17373 -2.8684 0
M  V30 5964 C 590.594 1.5003 -4.22131 0
M  V30 5965 C 592.338 2.92597 -3.0755 0
M  V30 5966 C 590.245 2.46262 -5.37689 0
M  V30 5967 H 589.175 0.449975 -0.605011 0
M  V30 5968 H 591.826 0.463735 -1.77544 0
M  V30 5969 H 590.208 2.93948 -2.65349 0
M  V30 5970 H 591.382 0.790886 -4.53962 0
M  V30 5971 H 589.697 0.870011 -4.0721 0
M  V30 5972 H 592.294 3.64663 -3.91056 0
M  V30 5973 H 592.637 3.53306 -2.20183 0
M  V30 5974 H 593.17 2.23131 -3.29329 0
M  V30 5975 H 589.909 1.90258 -6.27281 0
M  V30 5976 H 589.429 3.15289 -5.10248 0
M  V30 5977 H 591.108 3.07623 -5.6919 0
M  V30 5978 N 591.24 1.41047 0.703093 0
M  V30 5979 C 592.187 1.42302 1.81711 0
M  V30 5980 C 593.157 0.278336 1.63751 0
M  V30 5981 O 594.342 0.478266 1.84709 0
M  V30 5982 C 591.482 1.30362 3.19531 0
M  V30 5983 C 590.595 2.54638 3.48975 0
M  V30 5984 C 589.73 2.35047 4.76368 0
M  V30 5985 C 588.769 3.54837 4.98756 0
M  V30 5986 N 587.906 3.34363 6.1737 0
M  V30 5987 H 592.746 2.37516 1.79973 0
M  V30 5988 H 590.283 1.1795 0.878983 0
M  V30 5989 H 592.241 1.21443 3.99134 0
M  V30 5990 H 590.871 0.387602 3.20464 0
M  V30 5991 H 589.923 2.74037 2.63833 0
M  V30 5992 H 591.235 3.43766 3.61423 0
M  V30 5993 H 590.389 2.23552 5.64012 0
M  V30 5994 H 589.128 1.43363 4.66153 0
M  V30 5995 H 588.133 3.66795 4.09563 0
M  V30 5996 H 589.358 4.47464 5.10835 0
M  V30 5997 H 587.304 2.45373 6.08382 0
M  V30 5998 H 587.221 4.17063 6.30551 0
M  V30 5999 H 588.489 3.26626 7.07768 0
M  V30 6000 N 592.718 -0.936591 1.26751 0
M  V30 6001 C 593.681 -2.01752 1.08761 0
M  V30 6002 C 594.681 -1.60763 0.0344435 0
M  V30 6003 O 595.871 -1.71963 0.278258 0
M  V30 6004 C 593.003 -3.34543 0.655271 0
M  V30 6005 H 594.196 -2.19143 2.04735 0
M  V30 6006 H 591.749 -1.11618 1.09413 0
M  V30 6007 H 592.484 -3.22851 -0.30626 0
M  V30 6008 H 592.269 -3.65647 1.41578 0
M  V30 6009 H 593.759 -4.13944 0.551378 0
M  V30 6010 N 594.196 -1.08629 -1.14182 0
M  V30 6011 C 595.607 -0.838003 -1.66836 0
M  V30 6012 C 595.958 0.634885 -1.85644 0
M  V30 6013 O 595.083 1.49008 -1.56926 0
M  V30 6014 C 595.678 -1.51465 -3.03058 0
M  V30 6015 C 594.237 -1.31355 -3.52736 0
M  V30 6016 C 593.384 -1.57599 -2.28162 0
M  V30 6017 H 596.335 -1.24656 -0.982165 0
M  V30 6018 H 596.356 -0.943134 -3.68626 0
M  V30 6019 H 595.868 -2.58661 -2.89337 0
M  V30 6020 H 593.969 -0.262384 -3.71675 0
M  V30 6021 H 594.082 -2.04275 -4.33369 0
M  V30 6022 H 592.446 -0.997659 -2.34348 0
M  V30 6023 H 593.229 -2.66006 -2.17015 0
M  V30 6024 N 595.674 1.31259 -0.872281 0
M  V30 6025 C 596.899 2.0133 -0.498099 0
M  V30 6026 C 597.324 1.65031 0.902568 0
M  V30 6027 O 596.682 0.860164 1.59596 0
M  V30 6028 C 596.73 3.54411 -0.665205 0
M  V30 6029 O 595.834 4.11347 0.294473 0
M  V30 6030 H 595.175 0.633844 -0.197832 0
M  V30 6031 H 597.705 1.67402 -1.17633 0
M  V30 6032 H 597.715 4.04147 -0.559373 0
M  V30 6033 H 596.39 3.80171 -1.68651 0
M  V30 6034 H 594.967 3.72624 0.143403 0
M  V30 6035 N 597.152 0.631951 1.44375 0
M  V30 6036 C 598.568 0.297642 1.568 0
M  V30 6037 C 598.768 -1.19916 1.61934 0
M  V30 6038 O 597.824 -1.98324 1.56281 0
M  V30 6039 C 599.137 0.990286 2.83926 0
M  V30 6040 C 600.685 0.968507 2.97639 0
M  V30 6041 C 601.16 1.64163 4.27568 0
M  V30 6042 N 602.651 1.60826 4.34384 0
M  V30 6043 C 603.386 2.09802 5.33639 0
M  V30 6044 N 602.882 2.66973 6.39294 0
M  V30 6045 N 604.675 2.00426 5.25153 0
M  V30 6046 H 596.826 1.60353 1.39286 0
M  V30 6047 H 599.089 0.673142 0.667521 0
M  V30 6048 H 598.795 2.04519 2.8612 0
M  V30 6049 H 598.669 0.528563 3.73478 0
M  V30 6050 H 601.056 -0.0779247 2.94997 0
M  V30 6051 H 601.137 1.46873 2.09433 0
M  V30 6052 H 600.781 2.68752 4.3097 0
M  V30 6053 H 600.711 1.11624 5.14634 0
M  V30 6054 H 603.202 1.19087 3.58646 0
M  V30 6055 H 603.515 3.02074 7.11316 0
M  V30 6056 H 601.86 2.71024 6.39977 0
M  V30 6057 H 605.051 1.55483 4.41523 0
M  V30 6058 H 605.224 2.38906 6.02352 0
M  V30 6059 N 598.631 -1.53133 0.372548 0
M  V30 6060 C 599.579 -2.27473 -0.485681 0
M  V30 6061 C 600.573 -1.30719 -1.07745 0
M  V30 6062 O 601.779 -1.48321 -1.01985 0
M  V30 6063 H 598.154 -0.731269 -0.175356 0
M  V30 6064 H 600.125 -2.97955 0.162986 0
M  V30 6065 C 598.874 -3.08191 -1.60978 0
M  V30 6066 H 598.197 -3.82488 -1.16373 0
M  V30 6067 H 599.637 -3.63373 -2.18485 0
M  V30 6068 C 598.096 -2.19461 -2.55614 0
M  V30 6069 O 598.626 -1.81008 -3.58607 0
M  V30 6070 N 596.832 -1.83955 -2.24965 0
M  V30 6071 H 596.379 -2.15423 -1.41247 0
M  V30 6072 H 596.337 -1.24874 -2.88538 0
M  V30 6073 N 600.109 -0.101901 -1.5727 0
M  V30 6074 C 601.337 0.568392 -1.98939 0
M  V30 6075 C 601.752 1.61301 -0.981194 0
M  V30 6076 O 601.109 1.82478 0.0282869 0
M  V30 6077 C 601.16 1.20997 -3.40649 0
M  V30 6078 O 600.881 0.207129 -4.3761 0
M  V30 6079 C 602.382 1.96523 -3.97358 0
M  V30 6080 H 599.602 0.15186 -0.65359 0
M  V30 6081 H 602.146 -0.183198 -2.03678 0
M  V30 6082 H 600.301 1.91245 -3.36904 0
M  V30 6083 H 600.715 0.671071 -5.20189 0
M  V30 6084 H 602.189 2.36764 -4.98645 0
M  V30 6085 H 602.666 2.83376 -3.35552 0
M  V30 6086 H 603.272 1.31076 -4.04598 0
M  V30 6087 N 601.587 1.56661 0.17182 0
M  V30 6088 C 602.836 1.81158 0.886831 0
M  V30 6089 C 603.149 0.679072 1.83434 0
M  V30 6090 O 604.355 0.808964 2.59168 0
M  V30 6091 C 602.811 3.20999 1.6275 0
M  V30 6092 C 602.419 4.42117 0.723652 0
M  V30 6093 C 604.163 3.5479 2.33076 0
M  V30 6094 C 602.07 5.7298 1.46452 0
M  V30 6095 H 601 0.675543 0.334899 0
M  V30 6096 H 603.651 1.82967 0.139765 0
M  V30 6097 H 602.033 3.13506 2.4193 0
M  V30 6098 H 603.207 4.60789 -0.0311485 0
M  V30 6099 H 601.522 4.16197 0.130063 0
M  V30 6100 H 604.119 4.49806 2.89099 0
M  V30 6101 H 604.462 2.79646 3.08389 0
M  V30 6102 H 604.995 3.63834 1.6084 0
M  V30 6103 H 601.734 6.51152 0.753729 0
M  V30 6104 H 601.254 5.58285 2.19266 0
M  V30 6105 H 602.933 6.14916 2.01214 0
M  V30 6106 N 603.065 -0.440357 1.51323 0
M  V30 6107 C 603.997 -1.55254 1.68609 0
M  V30 6108 C 605.01 -1.52614 0.566812 0
M  V30 6109 O 606.199 -1.57445 0.841032 0
M  V30 6110 C 603.299 -2.94169 1.68279 0
M  V30 6111 C 602.472 -3.21346 2.96742 0
M  V30 6112 C 601.531 -4.3997 2.8864 0
M  V30 6113 O 600.557 -4.38771 3.62586 0
M  V30 6114 N 601.759 -5.43367 2.04285 0
M  V30 6115 H 604.524 -1.40831 2.6455 0
M  V30 6116 H 602.085 -0.629251 1.49171 0
M  V30 6117 H 604.077 -3.71543 1.60431 0
M  V30 6118 H 602.647 -3.02205 0.799441 0
M  V30 6119 H 601.867 -2.32299 3.18482 0
M  V30 6120 H 603.155 -3.3633 3.81785 0
M  V30 6121 H 602.553 -5.47176 1.43578 0
M  V30 6122 H 601.11 -6.19605 2.02318 0
M  V30 6123 N 604.543 -1.41418 -0.695603 0
M  V30 6124 C 605.49 -1.43264 -1.80954 0
M  V30 6125 C 606.46 -0.287016 -1.63601 0
M  V30 6126 O 607.645 -0.488054 -1.84452 0
M  V30 6127 C 604.785 -1.32054 -3.18835 0
M  V30 6128 C 603.898 -2.56485 -3.4762 0
M  V30 6129 C 603.033 -2.3757 -4.75115 0
M  V30 6130 C 602.072 -3.57477 -4.96867 0
M  V30 6131 N 601.209 -3.37632 -6.15588 0
M  V30 6132 H 606.049 -2.38467 -1.78711 0
M  V30 6133 H 603.586 -1.18415 -0.872715 0
M  V30 6134 H 605.544 -1.23558 -3.98484 0
M  V30 6135 H 604.174 -0.404592 -3.20254 0
M  V30 6136 H 603.226 -2.75432 -2.62376 0
M  V30 6137 H 604.538 -3.45678 -3.59594 0
M  V30 6138 H 603.692 -2.2654 -5.62818 0
M  V30 6139 H 602.431 -1.45834 -4.65386 0
M  V30 6140 H 601.436 -3.68961 -4.07612 0
M  V30 6141 H 602.661 -4.50167 -5.08455 0
M  V30 6142 H 600.607 -2.48596 -6.07072 0
M  V30 6143 H 600.524 -4.20401 -6.2833 0
M  V30 6144 H 601.792 -3.30375 -7.06026 0
M  V30 6145 N 606.021 0.929856 -1.27246 0
M  V30 6146 C 607.268 1.67731 -1.13457 0
M  V30 6147 C 607.596 1.9185 0.319998 0
M  V30 6148 O 606.851 1.50524 1.25064 0
M  V30 6149 C 607.15 3.05116 -1.86115 0
M  V30 6150 C 606.816 3.00715 -3.35978 0
M  V30 6151 C 605.478 2.99222 -3.76855 0
M  V30 6152 C 607.83 2.92168 -4.3161 0
M  V30 6153 C 605.158 2.86962 -5.11732 0
M  V30 6154 C 607.51 2.81449 -5.66542 0
M  V30 6155 C 606.174 2.78305 -6.06715 0
M  V30 6156 H 605.444 0.613772 -0.415168 0
M  V30 6157 H 608.091 1.08456 -1.57827 0
M  V30 6158 H 606.396 3.68083 -1.34246 0
M  V30 6159 H 608.093 3.61822 -1.72876 0
M  V30 6160 H 604.683 3.02664 -3.03468 0
M  V30 6161 H 608.867 2.92421 -4.01003 0
M  V30 6162 H 604.123 2.82913 -5.42006 0
M  V30 6163 H 608.297 2.738 -6.40317 0
M  V30 6164 H 605.924 2.68561 -7.11181 0
M  V30 6165 N 607.499 1.09233 1.13605 0
M  V30 6166 C 608.745 0.828385 1.8511 0
M  V30 6167 C 609.078 -0.64437 1.83198 0
M  V30 6168 O 608.353 -1.47428 1.26867 0
M  V30 6169 C 608.636 1.36167 3.33363 0
M  V30 6170 C 608.489 2.90038 3.438 0
M  V30 6171 C 609.808 0.993819 4.28732 0
M  V30 6172 H 606.927 0.30239 0.672108 0
M  V30 6173 H 609.569 1.35339 1.33355 0
M  V30 6174 H 607.719 0.9151 3.77569 0
M  V30 6175 H 609.391 3.43128 3.08319 0
M  V30 6176 H 607.634 3.27271 2.84739 0
M  V30 6177 H 608.305 3.22428 4.48045 0
M  V30 6178 H 610.781 1.37893 3.92587 0
M  V30 6179 H 609.657 1.39403 5.30903 0
M  V30 6180 H 609.918 -0.0982206 4.41991 0
M  V30 6181 N 608.977 -1.30795 0.87923 0
M  V30 6182 C 610.202 -2.01063 0.508769 0
M  V30 6183 C 610.627 -1.65508 -0.893803 0
M  V30 6184 O 609.985 -0.868616 -1.59138 0
M  V30 6185 C 610.033 -3.54054 0.683991 0
M  V30 6186 O 609.137 -4.11498 -0.272654 0
M  V30 6187 H 608.478 -0.632786 0.201191 0
M  V30 6188 H 611.008 -1.66776 1.18519 0
M  V30 6189 H 611.018 -4.03845 0.580798 0
M  V30 6190 H 609.693 -3.79271 1.70665 0
M  V30 6191 H 608.27 -3.72695 -0.12364 0
M  V30 6192 N 610.455 -0.639598 -1.44038 0
M  V30 6193 C 611.871 -0.305953 -1.5664 0
M  V30 6194 C 612.071 1.19055 -1.62567 0
M  V30 6195 O 611.127 1.97492 -1.57331 0
M  V30 6196 C 612.44 -1.00533 -2.83397 0
M  V30 6197 C 613.988 -0.984278 -2.97121 0
M  V30 6198 C 614.463 -1.66428 -4.26691 0
M  V30 6199 N 615.954 -1.63127 -4.33525 0
M  V30 6200 C 616.689 -2.12629 -5.32519 0
M  V30 6201 N 616.185 -2.70359 -6.3787 0
M  V30 6202 N 617.978 -2.03208 -5.24083 0
M  V30 6203 H 610.129 -1.6109 -1.38434 0
M  V30 6204 H 612.392 -0.676672 -0.663942 0
M  V30 6205 H 612.098 -2.06034 -2.85032 0
M  V30 6206 H 611.972 -0.548362 -3.73193 0
M  V30 6207 H 614.359 0.0622792 -2.95034 0
M  V30 6208 H 614.44 -1.47981 -2.08651 0
M  V30 6209 H 614.084 -2.71034 -4.29538 0
M  V30 6210 H 614.014 -1.14351 -5.14034 0
M  V30 6211 H 616.505 -1.20987 -3.58009 0
M  V30 6212 H 616.818 -3.05842 -7.09704 0
M  V30 6213 H 615.163 -2.74414 -6.38531 0
M  V30 6214 H 618.354 -1.57823 -4.40692 0
M  V30 6215 H 618.527 -2.42097 -6.01077 0
M  V30 6216 N 611.933 1.52934 -0.380664 0
M  V30 6217 C 612.866 2.22597 0.502564 0
M  V30 6218 C 613.844 1.22345 1.071 0
M  V30 6219 O 615.028 1.51302 1.12428 0
M  V30 6220 C 612.155 2.93246 1.69482 0
M  V30 6221 C 611.201 4.07696 1.25244 0
M  V30 6222 S 612.034 5.34957 0.241159 0
M  V30 6223 C 613.19 6.09124 1.4394 0
M  V30 6224 H 613.423 2.97167 -0.089029 0
M  V30 6225 H 610.956 1.53518 -0.164817 0
M  V30 6226 H 612.914 3.34562 2.37863 0
M  V30 6227 H 611.575 2.18373 2.2577 0
M  V30 6228 H 610.768 4.56199 2.1424 0
M  V30 6229 H 610.37 3.68349 0.647664 0
M  V30 6230 H 612.662 6.34771 2.36794 0
M  V30 6231 H 613.605 7.01068 0.995464 0
M  V30 6232 H 614.013 5.39777 1.65229 0
M  V30 6233 N 613.412 0.11024 1.57214 0
M  V30 6234 C 614.637 -0.561179 1.99664 0
M  V30 6235 C 615.062 -1.59985 0.989266 0
M  V30 6236 O 614.42 -1.81255 -0.0402399 0
M  V30 6237 C 614.468 -1.17189 3.41027 0
M  V30 6238 O 613.572 -2.28755 3.4314 0
M  V30 6239 H 612.913 -0.14101 0.648855 0
M  V30 6240 H 615.443 0.196128 2.03658 0
M  V30 6241 H 615.453 -1.50954 3.79047 0
M  V30 6242 H 614.128 -0.411041 4.13864 0
M  V30 6243 H 612.705 -1.96495 3.16929 0
M  V30 6244 N 614.89 -1.56749 -0.16351 0
M  V30 6245 C 615.838 -1.97939 -1.22159 0
M  V30 6246 C 616.832 -0.869288 -1.45395 0
M  V30 6247 O 618.038 -1.05443 -1.45883 0
M  V30 6248 H 614.413 -0.629869 -0.410815 0
M  V30 6249 H 616.384 -2.86115 -0.847381 0
M  V30 6250 C 615.133 -2.36206 -2.55151 0
M  V30 6251 H 614.456 -3.2117 -2.38097 0
M  V30 6252 H 615.896 -2.68863 -3.27854 0
M  V30 6253 C 614.355 -1.20841 -3.14482 0
M  V30 6254 O 614.885 -0.500258 -3.98573 0
M  V30 6255 N 613.091 -0.976943 -2.73686 0
M  V30 6256 H 612.638 -1.55457 -2.05404 0
M  V30 6257 H 612.596 -0.206912 -3.13718 0
M  V30 6258 N 616.368 0.432326 -1.51554 0
M  V30 6259 C 617.593 1.20824 -1.68571 0
M  V30 6260 C 618.018 1.84126 -0.384596 0
M  V30 6261 O 617.376 1.69025 0.655751 0
M  V30 6262 C 617.424 2.26429 -2.80646 0
M  V30 6263 O 616.528 3.32032 -2.44598 0
M  V30 6264 H 615.869 0.353765 -0.561913 0
M  V30 6265 H 618.399 0.509916 -1.98144 0
M  V30 6266 H 618.409 2.71133 -3.04878 0
M  V30 6267 H 617.084 1.79733 -3.75058 0
M  V30 6268 H 615.661 2.92769 -2.30956 0
M  V30 6269 N 617.846 1.41785 0.688094 0
M  V30 6270 C 618.796 1.40684 1.79421 0
M  V30 6271 C 619.78 0.280096 1.58443 0
M  V30 6272 O 620.972 0.521332 1.69148 0
M  V30 6273 C 618.101 1.29874 3.17785 0
M  V30 6274 C 617.187 2.47442 3.44432 0
M  V30 6275 N 617.578 3.72895 3.41736 0
M  V30 6276 C 615.876 2.41416 3.75013 0
M  V30 6277 C 616.577 4.50912 3.67496 0
M  V30 6278 N 615.553 3.81131 3.87608 0
M  V30 6279 H 619.355 2.35591 1.7571 0
M  V30 6280 H 616.869 1.35946 0.888393 0
M  V30 6281 H 618.866 1.27168 3.97031 0
M  V30 6282 H 617.526 0.359587 3.22703 0
M  V30 6283 H 618.537 4.05676 3.21943 0
M  V30 6284 H 615.214 1.56011 3.87256 0
M  V30 6285 H 616.604 5.59865 3.71484 0
M  V30 6286 N 619.324 -0.923095 1.27737 0
M  V30 6287 C 620.552 -1.70525 1.17171 0
M  V30 6288 C 620.967 -1.86847 -0.270881 0
M  V30 6289 O 620.324 -1.38879 -1.18401 0
M  V30 6290 C 620.375 -3.10242 1.85559 0
M  V30 6291 O 620.096 -2.94683 3.24182 0
M  V30 6292 C 621.597 -4.04586 1.81176 0
M  V30 6293 H 618.817 -0.533347 0.407163 0
M  V30 6294 H 621.361 -1.15599 1.68692 0
M  V30 6295 H 619.516 -3.62014 1.3793 0
M  V30 6296 H 619.93 -3.83045 3.58297 0
M  V30 6297 H 621.404 -5.00119 2.33633 0
M  V30 6298 H 621.881 -4.3218 0.782099 0
M  V30 6299 H 622.487 -3.58741 2.2844 0
M  V30 6300 N 620.802 -1.09834 -1.13024 0
M  V30 6301 C 621.732 -0.763451 -2.20666 0
M  V30 6302 C 622.713 0.260778 -1.68089 0
M  V30 6303 O 623.898 0.127915 -1.93778 0
M  V30 6304 C 621.028 -0.187744 -3.46792 0
M  V30 6305 C 619.982 -1.14196 -4.12484 0
M  V30 6306 C 619.308 -0.427755 -5.32986 0
M  V30 6307 C 620.608 -2.48607 -4.59338 0
M  V30 6308 H 622.302 -1.66347 -2.48936 0
M  V30 6309 H 619.848 -0.801261 -1.19649 0
M  V30 6310 H 621.801 0.0586375 -4.21359 0
M  V30 6311 H 620.525 0.747485 -3.17931 0
M  V30 6312 H 619.184 -1.37369 -3.3989 0
M  V30 6313 H 618.832 0.511747 -5.0039 0
M  V30 6314 H 618.532 -1.06403 -5.77886 0
M  V30 6315 H 620.056 -0.189772 -6.10305 0
M  V30 6316 H 621.47 -2.29618 -5.25308 0
M  V30 6317 H 619.867 -3.08062 -5.14993 0
M  V30 6318 H 620.937 -3.09062 -3.73642 0
M  V30 6319 N 622.28 1.30327 -0.886154 0
M  V30 6320 C 623.505 2.0079 -0.519425 0
M  V30 6321 C 623.93 1.65979 0.885013 0
M  V30 6322 O 623.288 0.877043 1.58675 0
M  V30 6323 C 623.336 3.53686 -0.702758 0
M  V30 6324 O 622.44 4.11637 0.250828 0
M  V30 6325 H 621.781 0.63171 -0.204544 0
M  V30 6326 H 624.311 1.66145 -1.19402 0
M  V30 6327 H 624.321 4.03531 -0.602207 0
M  V30 6328 H 622.996 3.78361 -1.72673 0
M  V30 6329 H 621.573 3.72755 0.103873 0
M  V30 6330 N 623.758 0.647228 1.43697 0
M  V30 6331 C 624.983 0.164083 2.0675 0
M  V30 6332 C 625.408 -1.15892 1.48158 0
M  V30 6333 O 624.766 -1.71459 0.589194 0
M  V30 6334 C 624.814 0.0800368 3.60511 0
M  V30 6335 O 623.918 -0.959453 4.01084 0
M  V30 6336 H 623.259 0.0921288 0.657578 0
M  V30 6337 H 625.789 0.88846 1.84303 0
M  V30 6338 H 625.799 -0.105263 4.07864 0
M  V30 6339 H 624.474 1.04586 4.02535 0
M  V30 6340 H 623.051 -0.747425 3.65333 0
M  V30 6341 N 625.236 -1.5273 0.388769 0
M  V30 6342 C 626.461 -2.0647 -0.19621 0
M  V30 6343 C 626.886 -1.25865 -1.39784 0
M  V30 6344 O 626.244 -0.283562 -1.79069 0
M  V30 6345 C 626.292 -3.56456 -0.5451 0
M  V30 6346 O 625.396 -3.78426 -1.63912 0
M  V30 6347 H 624.737 -0.663599 -0.023067 0
M  V30 6348 H 627.267 -1.96898 0.556084 0
M  V30 6349 H 627.277 -3.99888 -0.809557 0
M  V30 6350 H 625.952 -4.14561 0.333417 0
M  V30 6351 H 624.529 -3.46884 -1.36842 0
M  V30 6352 N 626.714 -0.118576 -1.57153 0
M  V30 6353 C 627.939 0.550582 -1.99958 0
M  V30 6354 C 628.364 1.59458 -0.997736 0
M  V30 6355 O 627.722 1.81274 0.0306269 0
M  V30 6356 C 627.77 1.15379 -3.41643 0
M  V30 6357 O 626.874 2.26932 -3.44348 0
M  V30 6358 H 626.215 0.137567 -0.649593 0
M  V30 6359 H 628.745 -0.206926 -2.03551 0
M  V30 6360 H 628.755 1.48942 -3.79843 0
M  V30 6361 H 627.43 0.389087 -4.14076 0
M  V30 6362 H 626.007 1.94812 -3.17967 0
M  V30 6363 N 628.193 1.56834 0.155195 0
M  V30 6364 C 629.421 1.87049 0.884326 0
M  V30 6365 C 629.836 0.705839 1.7511 0
M  V30 6366 O 629.193 -0.324641 1.79589 0
M  V30 6367 C 629.244 3.1644 1.74781 0
M  V30 6368 O 628.965 4.28417 0.915978 0
M  V30 6369 C 630.466 3.60113 2.58522 0
M  V30 6370 H 627.686 0.620196 0.25612 0
M  V30 6371 H 630.23 2.03946 0.150445 0
M  V30 6372 H 628.385 3.01321 2.43484 0
M  V30 6373 H 628.799 5.02353 1.50803 0
M  V30 6374 H 630.273 4.53508 3.14698 0
M  V30 6375 H 630.75 2.85005 3.34169 0
M  V30 6376 H 631.356 3.77898 1.95124 0
M  V30 6377 N 629.671 -0.424282 1.51781 0
M  V30 6378 C 630.896 -1.19928 1.6921 0
M  V30 6379 C 631.321 -1.8392 0.394355 0
M  V30 6380 O 630.679 -1.69371 -0.646778 0
M  V30 6381 C 630.727 -2.24937 2.81843 0
M  V30 6382 O 629.831 -3.3073 2.46356 0
M  V30 6383 H 629.172 -0.35078 0.563781 0
M  V30 6384 H 631.702 -0.499401 1.98412 0
M  V30 6385 H 631.712 -2.69512 3.06312 0
M  V30 6386 H 630.387 -1.77742 3.76006 0
M  V30 6387 H 628.964 -2.9154 2.32505 0
M  V30 6388 N 631.149 -1.42148 -0.680565 0
M  V30 6389 C 632.377 -1.45696 -1.46902 0
M  V30 6390 C 632.792 -0.0665858 -1.88683 0
M  V30 6391 O 632.149 0.917436 -1.57764 0
M  V30 6392 C 632.2 -2.37898 -2.72188 0
M  V30 6393 O 631.921 -3.71526 -2.32163 0
M  V30 6394 C 633.422 -2.50407 -3.65802 0
M  V30 6395 H 630.642 -0.495729 -0.45221 0
M  V30 6396 H 633.186 -1.866 -0.836709 0
M  V30 6397 H 631.341 -2.00263 -3.31622 0
M  V30 6398 H 631.755 -4.20849 -3.13027 0
M  V30 6399 H 633.229 -3.19056 -4.50452 0
M  V30 6400 H 633.706 -1.5401 -4.11312 0
M  V30 6401 H 634.312 -2.8874 -3.12265 0
M  V30 6402 N 632.627 0.916307 -1.28225 0
M  V30 6403 C 633.852 1.7043 -1.18188 0
M  V30 6404 C 634.277 1.86346 0.256274 0
M  V30 6405 O 633.635 1.37175 1.18544 0
M  V30 6406 C 633.683 3.07546 -1.88275 0
M  V30 6407 O 632.787 3.94904 -1.18848 0
M  V30 6408 H 632.128 0.521967 -0.410423 0
M  V30 6409 H 634.658 1.14589 -1.69501 0
M  V30 6410 H 634.668 3.57793 -1.96082 0
M  V30 6411 H 633.343 2.95279 -2.92887 0
M  V30 6412 H 631.92 3.53339 -1.19187 0
M  V30 6413 N 634.105 1.10431 1.1244 0
M  V30 6414 C 635.33 0.869089 1.88313 0
M  V30 6415 C 635.755 -0.574912 1.79099 0
M  V30 6416 O 635.113 -1.40496 1.14589 0
M  V30 6417 C 635.161 1.32208 3.3549 0
M  V30 6418 O 634.265 0.487092 4.09513 0
M  V30 6419 H 633.606 0.313894 0.585121 0
M  V30 6420 H 636.136 1.47111 1.42195 0
M  V30 6421 H 636.146 1.31201 3.86329 0
M  V30 6422 H 634.821 2.37364 3.41513 0
M  V30 6423 H 633.398 0.562372 3.68635 0
M  V30 6424 N 635.583 -1.29855 0.893053 0
M  V30 6425 C 636.808 -2.00512 0.530066 0
M  V30 6426 C 637.233 -1.66446 -0.876199 0
M  V30 6427 O 636.591 -0.885446 -1.58207 0
M  V30 6428 C 636.639 -3.53308 0.721505 0
M  V30 6429 O 635.743 -4.11764 -0.228994 0
M  V30 6430 H 635.084 -0.630617 0.207891 0
M  V30 6431 H 637.614 -1.6551 1.20282 0
M  V30 6432 H 637.624 -4.03206 0.623599 0
M  V30 6433 H 636.299 -3.77439 1.74678 0
M  V30 6434 H 634.876 -3.72805 -0.0841034 0
M  V30 6435 N 637.061 -0.65484 -1.43351 0
M  V30 6436 C 637.971 0.0363603 -2.34572 0
M  V30 6437 C 638.987 0.810432 -1.53974 0
M  V30 6438 O 640.163 0.757308 -1.86619 0
M  V30 6439 C 637.228 0.989733 -3.32273 0
M  V30 6440 C 636.289 0.212414 -4.28774 0
M  V30 6441 C 635.522 1.12038 -5.21808 0
M  V30 6442 O 635.745 2.35967 -5.19303 0
M  V30 6443 O 634.679 0.59191 -5.98982 0
M  V30 6444 H 638.505 -0.714527 -2.95175 0
M  V30 6445 H 636.09 -0.415029 -1.4352 0
M  V30 6446 H 637.972 1.53759 -3.92347 0
M  V30 6447 H 636.647 1.72082 -2.74171 0
M  V30 6448 H 635.554 -0.379062 -3.72175 0
M  V30 6449 H 636.887 -0.479138 -4.89862 0
M  V30 6450 N 638.539 1.52521 -0.396863 0
M  V30 6451 C 639.487 2.28217 0.44943 0
M  V30 6452 C 640.481 1.32416 1.05652 0
M  V30 6453 O 641.687 1.49925 0.996124 0
M  V30 6454 H 638.062 0.733966 0.1637 0
M  V30 6455 H 640.033 2.97658 -0.210367 0
M  V30 6456 C 638.782 3.10713 1.56054 0
M  V30 6457 H 638.105 3.84291 1.10273 0
M  V30 6458 H 639.545 3.66803 2.12677 0
M  V30 6459 C 638.004 2.23499 2.52091 0
M  V30 6460 O 638.534 1.8669 3.55682 0
M  V30 6461 N 636.74 1.8751 2.2201 0
M  V30 6462 H 636.287 2.17643 1.37802 0
M  V30 6463 H 636.245 1.29448 2.86514 0
M  V30 6464 N 640.017 0.126909 1.57088 0
M  V30 6465 C 641.242 -0.53997 2.00248 0
M  V30 6466 C 641.667 -1.58927 1.00618 0
M  V30 6467 O 641.025 -1.81288 -0.0210131 0
M  V30 6468 C 641.073 -1.13565 3.4225 0
M  V30 6469 O 640.177 -2.25103 3.45547 0
M  V30 6470 H 639.518 -0.13412 0.650314 0
M  V30 6471 H 642.048 0.217718 2.03438 0
M  V30 6472 H 642.058 -1.46925 3.80627 0
M  V30 6473 H 640.733 -0.367122 4.14277 0
M  V30 6474 H 639.31 -1.93123 3.18995 0
M  V30 6475 N 641.495 -1.56914 -0.146875 0
M  V30 6476 C 642.744 -1.82546 -0.857898 0
M  V30 6477 C 643.057 -0.708169 -1.8233 0
M  V30 6478 O 644.263 -0.850093 -2.57848 0
M  V30 6479 C 642.719 -3.23548 -1.57623 0
M  V30 6480 C 642.327 -4.43212 -0.653224 0
M  V30 6481 C 644.071 -3.58453 -2.27402 0
M  V30 6482 C 641.978 -5.75237 -1.37318 0
M  V30 6483 H 640.908 -0.680786 -0.32411 0
M  V30 6484 H 643.559 -1.83166 -0.110639 0
M  V30 6485 H 641.941 -3.17315 -2.36912 0
M  V30 6486 H 643.115 -4.60682 0.104452 0
M  V30 6487 H 641.43 -4.16351 -0.0638336 0
M  V30 6488 H 644.027 -4.54349 -2.81907 0
M  V30 6489 H 644.37 -2.84516 -3.03901 0
M  V30 6490 H 644.903 -3.66347 -1.55032 0
M  V30 6491 H 641.642 -6.52269 -0.650041 0
M  V30 6492 H 641.162 -5.61703 -2.10357 0
M  V30 6493 H 642.841 -6.18039 -1.91406 0
M  V30 6494 N 642.974 0.416227 -1.52004 0
M  V30 6495 C 643.921 1.50666 -1.74838 0
M  V30 6496 C 644.891 1.55245 -0.590599 0
M  V30 6497 O 646.076 1.71928 -0.827374 0
M  V30 6498 C 643.216 2.88185 -1.89851 0
M  V30 6499 C 642.329 2.92971 -3.17478 0
M  V30 6500 C 641.464 4.21745 -3.22962 0
M  V30 6501 C 640.503 4.20478 -4.4482 0
M  V30 6502 N 639.64 5.40811 -4.47736 0
M  V30 6503 H 644.48 1.30498 -2.67907 0
M  V30 6504 H 642.017 0.633568 -1.32757 0
M  V30 6505 H 643.975 3.68007 -1.96537 0
M  V30 6506 H 642.605 3.06865 -1.00169 0
M  V30 6507 H 641.657 2.05684 -3.19997 0
M  V30 6508 H 642.969 2.87899 -4.07328 0
M  V30 6509 H 642.123 5.09954 -3.28682 0
M  V30 6510 H 640.862 4.29503 -2.31038 0
M  V30 6511 H 639.867 3.30659 -4.39254 0
M  V30 6512 H 641.092 4.14366 -5.38031 0
M  V30 6513 H 639.038 5.4925 -3.58692 0
M  V30 6514 H 638.955 5.37705 -5.31422 0
M  V30 6515 H 640.223 6.30993 -4.57676 0
M  V30 6516 N 644.452 1.42507 0.673017 0
M  V30 6517 C 645.729 1.33554 1.42908 0
M  V30 6518 C 646.109 -0.0262211 2.11084 0
M  V30 6519 O 645.457 -1.04181 2.03368 0
M  V30 6520 C 645.667 2.50498 2.43006 0
M  V30 6521 C 647.015 2.92694 3.07596 0
M  V30 6522 O 648.039 2.50401 2.53333 0
M  V30 6523 O 646.898 3.65899 4.05931 0
M  V30 6524 H 643.992 0.526785 0.637516 0
M  V30 6525 H 646.538 1.54518 0.701591 0
M  V30 6526 H 645.31 3.41272 1.9144 0
M  V30 6527 H 644.933 2.3153 3.23233 0
M  V30 6528 N 645.93 -0.909495 1.28709 0
M  V30 6529 C 646.84 -2.04558 1.14861 0
M  V30 6530 C 647.856 -1.73842 0.0741621 0
M  V30 6531 O 649.032 -1.99383 0.2843 0
M  V30 6532 C 646.097 -3.36957 0.816148 0
M  V30 6533 C 645.158 -3.81255 1.97341 0
M  V30 6534 C 644.391 -5.07335 1.65671 0
M  V30 6535 O 644.614 -5.67514 0.573053 0
M  V30 6536 O 643.548 -5.47449 2.50167 0
M  V30 6537 H 647.374 -2.19161 2.10243 0
M  V30 6538 H 644.959 -1.03159 1.08068 0
M  V30 6539 H 646.841 -4.16436 0.644873 0
M  V30 6540 H 645.516 -3.2352 -0.107983 0
M  V30 6541 H 644.423 -3.02584 2.19986 0
M  V30 6542 H 645.756 -3.99261 2.87839 0
M  V30 6543 N 647.408 -1.11026 -1.11852 0
M  V30 6544 C 648.318 -0.777252 -2.2135 0
M  V30 6545 C 649.334 0.227821 -1.72502 0
M  V30 6546 O 650.51 0.0650587 -2.01295 0
M  V30 6547 C 647.575 -0.220668 -3.45997 0
M  V30 6548 C 646.636 -1.2838 -4.09655 0
M  V30 6549 C 645.869 -0.753678 -5.28352 0
M  V30 6550 O 646.092 0.417779 -5.68868 0
M  V30 6551 O 645.026 -1.51647 -5.82483 0
M  V30 6552 H 648.852 -1.69141 -2.5224 0
M  V30 6553 H 646.437 -0.885836 -1.20305 0
M  V30 6554 H 648.319 0.0855756 -4.21313 0
M  V30 6555 H 646.994 0.666262 -3.16769 0
M  V30 6556 H 645.901 -1.64299 -3.3609 0
M  V30 6557 H 647.234 -2.14396 -4.43052 0
M  V30 6558 N 648.886 1.2938 -0.899927 0
M  V30 6559 C 649.796 2.31462 -0.382437 0
M  V30 6560 C 650.812 1.65956 0.522929 0
M  V30 6561 O 651.988 1.97131 0.412454 0
M  V30 6562 C 649.053 3.44595 0.381472 0
M  V30 6563 C 648.114 4.25692 -0.555444 0
M  V30 6564 C 647.347 5.33422 0.172102 0
M  V30 6565 O 647.57 5.53053 1.396 0
M  V30 6566 O 646.504 5.99939 -0.485491 0
M  V30 6567 H 650.33 2.77706 -1.22934 0
M  V30 6568 H 647.915 1.33821 -0.664259 0
M  V30 6569 H 649.797 4.13474 0.813442 0
M  V30 6570 H 648.472 3.00458 1.20443 0
M  V30 6571 H 647.379 3.59453 -1.03653 0
M  V30 6572 H 648.712 4.73471 -1.34483 0
M  V30 6573 N 650.364 0.662433 1.43002 0
M  V30 6574 C 651.296 -0.062326 2.29115 0
M  V30 6575 C 652.309 -0.777926 1.43011 0
M  V30 6576 O 653.498 -0.634146 1.66856 0
M  V30 6577 C 650.598 -1.11163 3.2015 0
M  V30 6578 C 649.771 -0.472327 4.34842 0
M  V30 6579 C 648.83 -1.41974 5.06685 0
M  V30 6580 O 647.856 -0.924795 5.61637 0
M  V30 6581 N 649.058 -2.75345 5.11043 0
M  V30 6582 H 651.823 0.676838 2.91957 0
M  V30 6583 H 649.384 0.505907 1.53793 0
M  V30 6584 H 651.376 -1.74643 3.65078 0
M  V30 6585 H 649.946 -1.75266 2.58845 0
M  V30 6586 H 649.166 0.341751 3.92716 0
M  V30 6587 H 650.454 -0.0264381 5.08793 0
M  V30 6588 H 649.852 -3.18108 4.67786 0
M  V30 6589 H 648.409 -3.34105 5.59658 0
M  V30 6590 N 651.842 -1.52309 0.404946 0
M  V30 6591 C 652.775 -2.23369 -0.467087 0
M  V30 6592 C 653.753 -1.24034 -1.0514 0
M  V30 6593 O 654.937 -1.53071 -1.10006 0
M  V30 6594 C 652.064 -2.95906 -1.64795 0
M  V30 6595 C 651.11 -4.09637 -1.18743 0
M  V30 6596 S 651.943 -5.35273 -0.156022 0
M  V30 6597 C 653.099 -6.11337 -1.34231 0
M  V30 6598 H 653.332 -2.96987 0.136294 0
M  V30 6599 H 650.865 -1.53236 0.189219 0
M  V30 6600 H 652.823 -3.38304 -2.3251 0
M  V30 6601 H 651.484 -2.21937 -2.22267 0
M  V30 6602 H 650.677 -4.59549 -2.06955 0
M  V30 6603 H 650.279 -3.69333 -0.588981 0
M  V30 6604 H 652.571 -6.38458 -2.26665 0
M  V30 6605 H 653.514 -7.02563 -0.883804 0
M  V30 6606 H 653.922 -5.42338 -1.56621 0
M  V30 6607 N 653.32 -0.135238 -1.57019 0
M  V30 6608 C 654.56 0.521686 -1.9763 0
M  V30 6609 C 654.924 1.62804 -1.01778 0
M  V30 6610 O 656.125 2.345 -1.31389 0
M  V30 6611 C 654.396 1.0257 -3.42365 0
M  V30 6612 S 655.955 1.68888 -4.04997 0
M  V30 6613 H 652.773 0.169064 -0.690607 0
M  V30 6614 H 655.375 -0.224168 -1.94211 0
M  V30 6615 H 654.079 0.209556 -4.09865 0
M  V30 6616 H 653.61 1.80645 -3.49472 0
M  V30 6617 H 655.625 2.97554 -3.97084 0
M  V30 6618 N 654.798 1.5699 0.138552 0
M  V30 6619 C 656.209 1.73171 0.697754 0
M  V30 6620 C 656.56 0.750952 1.8126 0
M  V30 6621 O 655.685 -0.080549 2.1625 0
M  V30 6622 C 656.28 3.13996 1.27248 0
M  V30 6623 C 654.839 3.3175 1.77816 0
M  V30 6624 C 653.986 2.69084 0.669991 0
M  V30 6625 H 656.937 1.5846 -0.0871979 0
M  V30 6626 H 656.958 3.14463 2.14227 0
M  V30 6627 H 656.47 3.85354 0.460855 0
M  V30 6628 H 654.571 2.65403 2.61519 0
M  V30 6629 H 654.684 4.39768 1.90107 0
M  V30 6630 H 653.048 2.29782 1.09874 0
M  V30 6631 H 653.831 3.43053 -0.130329 0
M  V30 6632 N 656.276 -0.40816 1.52223 0
M  V30 6633 C 657.525 -1.15212 1.65557 0
M  V30 6634 C 657.838 -1.9163 0.392096 0
M  V30 6635 O 659.044 -2.68458 0.405256 0
M  V30 6636 C 657.5 -2.09691 2.92502 0
M  V30 6637 C 657.108 -1.38785 4.25961 0
M  V30 6638 C 658.852 -2.8434 3.152 0
M  V30 6639 C 656.759 -2.31919 5.44029 0
M  V30 6640 H 655.689 -0.433776 0.616729 0
M  V30 6641 H 658.34 -0.4165 1.78711 0
M  V30 6642 H 656.722 -2.8681 2.7305 0
M  V30 6643 H 657.896 -0.670248 4.55899 0
M  V30 6644 H 656.211 -0.761741 4.09373 0
M  V30 6645 H 658.808 -3.54166 4.00587 0
M  V30 6646 H 659.151 -3.47344 2.29473 0
M  V30 6647 H 659.684 -2.14321 3.35129 0
M  V30 6648 H 656.423 -1.7356 6.32105 0
M  V30 6649 H 655.943 -3.0165 5.18428 0
M  V30 6650 H 657.622 -2.92424 5.77146 0
M  V30 6651 N 657.755 -1.42862 -0.66545 0
M  V30 6652 C 658.995 -1.45323 -1.43738 0
M  V30 6653 C 659.359 -0.0707969 -1.91869 0
M  V30 6654 O 660.56 0.0298852 -2.68783 0
M  V30 6655 C 658.831 -2.45671 -2.59577 0
M  V30 6656 S 660.39 -2.6691 -3.48288 0
M  V30 6657 H 657.208 -0.51442 -0.490809 0
M  V30 6658 H 659.81 -1.79537 -0.773745 0
M  V30 6659 H 658.514 -3.44869 -2.22471 0
M  V30 6660 H 658.045 -2.12914 -3.30804 0
M  V30 6661 H 660.06 -1.95914 -4.55886 0
M  V30 6662 N 659.233 0.902656 -1.29189 0
M  V30 6663 C 660.163 2.02294 -1.16616 0
M  V30 6664 C 661.144 1.6999 -0.0611175 0
M  V30 6665 O 662.329 1.9271 -0.240072 0
M  V30 6666 C 659.459 3.37018 -0.83882 0
M  V30 6667 C 658.413 3.83522 -1.89986 0
M  V30 6668 C 657.739 5.15337 -1.42589 0
M  V30 6669 C 659.039 4.04169 -3.30824 0
M  V30 6670 H 660.733 2.13071 -2.10336 0
M  V30 6671 H 658.279 1.02378 -1.01266 0
M  V30 6672 H 660.232 4.14895 -0.737584 0
M  V30 6673 H 658.956 3.26325 0.134071 0
M  V30 6674 H 657.615 3.07859 -1.99043 0
M  V30 6675 H 657.263 5.01056 -0.441759 0
M  V30 6676 H 656.963 5.47423 -2.13547 0
M  V30 6677 H 658.487 5.95758 -1.3381 0
M  V30 6678 H 659.901 4.72537 -3.24626 0
M  V30 6679 H 658.298 4.47604 -3.99713 0
M  V30 6680 H 659.368 3.08604 -3.74021 0
M  V30 6681 N 660.711 1.11618 1.11262 0
M  V30 6682 C 661.641 0.79846 2.19424 0
M  V30 6683 C 662.622 -0.234003 1.68483 0
M  V30 6684 O 663.807 -0.0970704 1.93957 0
M  V30 6685 C 660.937 0.242892 3.4645 0
M  V30 6686 C 659.891 1.20744 4.10615 0
M  V30 6687 C 659.217 0.512494 5.32238 0
M  V30 6688 C 660.517 2.55884 4.55325 0
M  V30 6689 H 662.211 1.70286 2.46258 0
M  V30 6690 H 659.757 0.820195 1.18359 0
M  V30 6691 H 661.71 0.00840447 4.21399 0
M  V30 6692 H 660.434 -0.696811 3.1908 0
M  V30 6693 H 659.093 1.42759 3.37662 0
M  V30 6694 H 658.741 -0.432075 5.01141 0
M  V30 6695 H 658.441 1.15583 5.7612 0
M  V30 6696 H 659.965 0.286842 6.09926 0
M  V30 6697 H 661.379 2.37946 5.21588 0
M  V30 6698 H 659.776 3.16216 5.10027 0
M  V30 6699 H 660.846 3.14968 3.68678 0
M  V30 6700 N 662.189 -1.289 0.906776 0
M  V30 6701 C 663.437 -1.94883 0.535266 0
M  V30 6702 C 663.758 -1.71784 -0.922791 0
M  V30 6703 O 663.028 -1.05359 -1.65156 0
M  V30 6704 H 661.608 -0.721109 0.194962 0
M  V30 6705 H 664.27 -1.57018 1.15461 0
M  V30 6706 H 663.366 -3.03591 0.723821 0
M  V30 6707 N 663.667 -0.670007 -1.42649 0
M  V30 6708 C 664.6 0.0613623 -2.28117 0
M  V30 6709 C 665.578 0.813414 -1.40792 0
M  V30 6710 O 666.762 0.809529 -1.70232 0
M  V30 6711 C 663.889 1.09399 -3.20546 0
M  V30 6712 C 662.935 0.438064 -4.24244 0
M  V30 6713 S 663.768 -0.800808 -5.29478 0
M  V30 6714 C 664.924 0.23086 -6.25474 0
M  V30 6715 H 665.157 -0.663606 -2.89799 0
M  V30 6716 H 662.69 -0.45939 -1.47407 0
M  V30 6717 H 664.648 1.68469 -3.74337 0
M  V30 6718 H 663.309 1.79137 -2.58009 0
M  V30 6719 H 662.502 1.21707 -4.89084 0
M  V30 6720 H 662.104 -0.0789346 -3.73917 0
M  V30 6721 H 664.396 1.09204 -6.68641 0
M  V30 6722 H 665.339 -0.382945 -7.07064 0
M  V30 6723 H 665.747 0.574191 -5.61572 0
M  V30 6724 N 665.145 1.52092 -0.413018 0
M  V30 6725 C 666.075 2.30021 0.401567 0
M  V30 6726 C 667.056 1.34395 1.04269 0
M  V30 6727 O 668.241 1.63304 1.05097 0
M  V30 6728 C 665.371 3.12447 1.51638 0
M  V30 6729 C 664.325 4.16153 1.00005 0
M  V30 6730 C 663.651 4.86948 2.20875 0
M  V30 6731 C 664.951 5.22275 0.0513757 0
M  V30 6732 H 666.645 2.98365 -0.248704 0
M  V30 6733 H 664.191 1.4349 -0.121052 0
M  V30 6734 H 666.144 3.65733 2.09326 0
M  V30 6735 H 664.868 2.41879 2.19458 0
M  V30 6736 H 663.527 3.63882 0.445549 0
M  V30 6737 H 663.175 4.12905 2.8726 0
M  V30 6738 H 662.875 5.57057 1.86978 0
M  V30 6739 H 664.399 5.43048 2.79162 0
M  V30 6740 H 665.813 5.70778 0.537176 0
M  V30 6741 H 664.21 5.9977 -0.198977 0
M  V30 6742 H 665.28 4.76611 -0.892736 0
M  V30 6743 N 666.623 0.143563 1.56945 0
M  V30 6744 C 667.9 -0.553285 1.87612 0
M  V30 6745 C 668.28 -1.83195 1.04894 0
M  V30 6746 O 667.628 -2.28102 0.134773 0
M  V30 6747 C 667.838 -0.822055 3.3918 0
M  V30 6748 C 669.186 -1.16435 4.08324 0
M  V30 6749 O 670.21 -0.911522 3.4434 0
M  V30 6750 O 669.069 -1.63996 5.21313 0
M  V30 6751 H 666.163 -0.281851 0.777489 0
M  V30 6752 H 668.709 0.179916 1.68744 0
M  V30 6753 H 667.481 0.0830265 3.91212 0
M  V30 6754 H 667.104 -1.60956 3.63564 0
M  V30 6755 N 668.101 -1.57061 -0.130224 0
M  V30 6756 C 669.011 -2.02802 -1.17934 0
M  V30 6757 C 670.027 -0.946378 -1.46013 0
M  V30 6758 O 671.203 -1.25708 -1.57351 0
M  V30 6759 C 668.268 -2.41368 -2.48882 0
M  V30 6760 C 667.329 -3.63561 -2.28301 0
M  V30 6761 C 666.562 -4.00279 -3.53005 0
M  V30 6762 O 666.785 -3.37463 -4.59864 0
M  V30 6763 O 665.719 -4.93441 -3.44673 0
M  V30 6764 H 669.545 -2.92394 -0.820958 0
M  V30 6765 H 667.13 -1.45475 -0.340197 0
M  V30 6766 H 669.012 -2.66958 -3.26054 0
M  V30 6767 H 667.687 -1.54926 -2.84217 0
M  V30 6768 H 666.594 -3.43136 -1.49025 0
M  V30 6769 H 667.927 -4.50673 -1.97875 0
M  V30 6770 N 669.579 0.400081 -1.52437 0
M  V30 6771 C 670.489 1.51253 -1.79331 0
M  V30 6772 C 671.505 1.60188 -0.679396 0
M  V30 6773 O 672.681 1.76733 -0.965791 0
M  V30 6774 C 669.746 2.869 -1.94652 0
M  V30 6775 C 668.807 2.87777 -3.18564 0
M  V30 6776 C 668.04 4.16954 -3.33145 0
M  V30 6777 O 668.263 5.11329 -2.52783 0
M  V30 6778 O 667.197 4.2487 -4.26343 0
M  V30 6779 H 671.023 1.31461 -2.73773 0
M  V30 6780 H 668.608 0.586834 -1.37392 0
M  V30 6781 H 670.49 3.67336 -2.065 0
M  V30 6782 H 669.165 3.06741 -1.034 0
M  V30 6783 H 668.072 2.06162 -3.12167 0
M  V30 6784 H 669.405 2.72886 -4.09627 0
M  V30 6785 N 671.057 1.43213 0.657864 0
M  V30 6786 C 672.282 1.48227 1.45064 0
M  V30 6787 C 672.707 0.0999939 1.87834 0
M  V30 6788 O 672.065 -0.905269 1.57081 0
M  V30 6789 C 672.113 2.42931 2.6649 0
M  V30 6790 O 671.217 1.91237 3.6538 0
M  V30 6791 H 670.558 0.501551 0.435135 0
M  V30 6792 H 673.088 1.8808 0.805431 0
M  V30 6793 H 673.098 2.6008 3.1436 0
M  V30 6794 H 671.773 3.43348 2.34701 0
M  V30 6795 H 670.35 1.83726 3.24498 0
M  V30 6796 N 672.536 -0.895792 1.29666 0
M  V30 6797 C 673.466 -2.01673 1.17688 0
M  V30 6798 C 674.447 -1.69955 0.0701317 0
M  V30 6799 O 675.632 -1.9258 0.250289 0
M  V30 6800 C 672.762 -3.36568 0.856681 0
M  V30 6801 C 671.716 -3.82509 1.92017 0
M  V30 6802 C 671.042 -5.14574 1.4532 0
M  V30 6803 C 672.342 -4.02409 3.32963 0
M  V30 6804 H 674.036 -2.11953 2.11463 0
M  V30 6805 H 671.582 -1.01839 1.01807 0
M  V30 6806 H 673.535 -4.14498 0.759577 0
M  V30 6807 H 672.259 -3.26391 -0.116763 0
M  V30 6808 H 670.918 -3.068 2.00673 0
M  V30 6809 H 670.566 -5.00815 0.468325 0
M  V30 6810 H 670.266 -5.46283 2.16447 0
M  V30 6811 H 671.79 -5.9504 1.36968 0
M  V30 6812 H 673.204 -4.70808 3.27127 0
M  V30 6813 H 671.601 -4.45478 4.02082 0
M  V30 6814 H 672.671 -3.06616 3.75652 0
M  V30 6815 N 674.014 -1.12206 -1.10668 0
M  V30 6816 C 675.242 -0.898635 -1.86366 0
M  V30 6817 C 675.657 0.551991 -1.80551 0
M  V30 6818 O 675.014 1.38152 -1.19249 0
M  V30 6819 C 675.065 -1.36199 -3.34861 0
M  V30 6820 O 674.786 -2.75576 -3.40573 0
M  V30 6821 C 676.287 -1.17515 -4.2744 0
M  V30 6822 H 673.507 -0.321281 -0.589084 0
M  V30 6823 H 676.051 -1.49142 -1.39918 0
M  V30 6824 H 674.206 -0.81249 -3.78784 0
M  V30 6825 H 674.62 -2.95851 -4.33096 0
M  V30 6826 H 676.094 -1.54827 -5.29842 0
M  V30 6827 H 676.571 -0.115486 -4.39048 0
M  V30 6828 H 677.177 -1.71203 -3.89319 0
M  V30 6829 N 675.492 1.28418 -0.913599 0
M  V30 6830 C 676.738 1.9527 -0.547484 0
M  V30 6831 C 677.071 1.71745 0.906486 0
M  V30 6832 O 676.346 1.03834 1.64465 0
M  V30 6833 C 676.629 3.49748 -0.857205 0
M  V30 6834 C 676.482 3.82675 -2.3639 0
M  V30 6835 C 677.801 4.3868 -0.353258 0
M  V30 6836 H 674.92 0.709236 -0.200381 0
M  V30 6837 H 677.562 1.51789 -1.14281 0
M  V30 6838 H 675.712 3.86915 -0.350548 0
M  V30 6839 H 677.384 3.55378 -2.94116 0
M  V30 6840 H 675.627 3.29724 -2.81894 0
M  V30 6841 H 676.298 4.90547 -2.53115 0
M  V30 6842 H 678.774 4.08584 -0.787288 0
M  V30 6843 H 677.65 5.45621 -0.599049 0
M  V30 6844 H 677.911 4.35753 0.746413 0
M  V30 6845 N 676.97 0.677563 1.42291 0
M  V30 6846 C 678.21 0.204894 2.0337 0
M  V30 6847 C 678.574 -1.16744 1.5243 0
M  V30 6848 O 679.775 -1.73492 2.05314 0
M  V30 6849 C 678.046 0.240742 3.56588 0
M  V30 6850 S 679.605 -0.16052 4.38506 0
M  V30 6851 H 676.423 0.0839932 0.706021 0
M  V30 6852 H 679.025 0.891332 1.73999 0
M  V30 6853 H 677.729 1.24184 3.91161 0
M  V30 6854 H 677.26 -0.465439 3.90637 0
M  V30 6855 H 679.275 -1.39315 4.76241 0
M  V30 6856 N 678.448 -1.51871 0.421078 0
M  V30 6857 C 679.358 -2.31077 -0.405069 0
M  V30 6858 C 680.374 -1.39301 -1.04265 0
M  V30 6859 O 681.55 -1.72376 -1.04157 0
M  V30 6860 C 678.615 -3.12556 -1.50032 0
M  V30 6861 C 677.676 -4.20088 -0.884559 0
M  V30 6862 C 676.909 -4.97673 -1.92762 0
M  V30 6863 O 677.132 -4.75696 -3.14753 0
M  V30 6864 O 676.066 -5.82203 -1.52719 0
M  V30 6865 H 679.892 -3.02742 0.241086 0
M  V30 6866 H 677.477 -1.48263 0.183991 0
M  V30 6867 H 679.359 -3.6326 -2.13589 0
M  V30 6868 H 678.034 -2.43672 -2.13086 0
M  V30 6869 H 676.941 -3.73502 -0.211379 0
M  V30 6870 H 678.274 -4.91298 -0.297763 0
M  V30 6871 N 679.926 -0.151884 -1.56866 0
M  V30 6872 C 681.203 0.543328 -1.87902 0
M  V30 6873 C 681.583 1.82636 -1.05864 0
M  V30 6874 O 680.931 2.28028 -0.146868 0
M  V30 6875 C 681.141 0.804056 -3.39611 0
M  V30 6876 C 682.489 1.14267 -4.08935 0
M  V30 6877 O 683.513 0.893248 -3.44818 0
M  V30 6878 O 682.372 1.61229 -5.22176 0
M  V30 6879 H 679.466 0.277724 -0.778973 0
M  V30 6880 H 682.012 -0.188862 -1.68646 0
M  V30 6881 H 680.784 -0.103772 -3.91162 0
M  V30 6882 H 680.407 1.59025 -3.64413 0
M  V30 6883 N 681.404 1.57128 0.121893 0
M  V30 6884 C 682.652 1.84335 0.828548 0
M  V30 6885 C 682.973 0.736632 1.80551 0
M  V30 6886 O 682.243 -0.23962 1.94429 0
M  V30 6887 H 680.823 0.680108 0.30897 0
M  V30 6888 H 683.485 1.9459 0.109906 0
M  V30 6889 H 682.581 2.80152 1.37554 0
M  V30 6890 N 682.882 -0.391992 1.52647 0
M  V30 6891 C 684.122 -1.1463 1.69232 0
M  V30 6892 C 684.486 -1.87312 0.421684 0
M  V30 6893 O 685.687 -2.64768 0.463852 0
M  V30 6894 C 683.958 -2.10088 2.89133 0
M  V30 6895 S 685.517 -2.93395 3.2629 0
M  V30 6896 H 682.335 -0.388076 0.59575 0
M  V30 6897 H 684.937 -0.431149 1.90687 0
M  V30 6898 H 683.641 -1.55408 3.79837 0
M  V30 6899 H 683.172 -2.86116 2.70003 0
M  V30 6900 H 685.187 -4.12193 2.76244 0
M  V30 6901 N 684.36 -1.4356 -0.65026 0
M  V30 6902 C 685.776 -1.27025 -0.966269 0
M  V30 6903 C 685.976 -0.192117 -2.00582 0
M  V30 6904 O 685.032 0.428459 -2.48838 0
M  V30 6905 C 686.345 -2.63556 -1.44772 0
M  V30 6906 C 687.893 -2.71111 -1.56421 0
M  V30 6907 C 688.368 -4.08067 -2.07956 0
M  V30 6908 N 689.859 -4.10146 -2.15254 0
M  V30 6909 C 690.594 -5.12952 -2.56258 0
M  V30 6910 N 690.09 -6.26129 -2.96537 0
M  V30 6911 N 691.883 -5.00306 -2.56224 0
M  V30 6912 H 684.034 -2.12367 0.0375758 0
M  V30 6913 H 686.297 -0.946894 -0.0457782 0
M  V30 6914 H 686.003 -3.43429 -0.758271 0
M  V30 6915 H 685.877 -2.89152 -2.42221 0
M  V30 6916 H 688.264 -1.91569 -2.24467 0
M  V30 6917 H 688.345 -2.49277 -0.573967 0
M  V30 6918 H 687.989 -4.88077 -1.40511 0
M  V30 6919 H 687.919 -4.27266 -3.07817 0
M  V30 6920 H 690.41 -3.28453 -1.86887 0
M  V30 6921 H 690.723 -7.00403 -3.26582 0
M  V30 6922 H 689.068 -6.29597 -2.94334 0
M  V30 6923 H 692.259 -4.10952 -2.24135 0
M  V30 6924 H 692.432 -5.80553 -2.87857 0
M  V30 6925 N 685.838 0.888903 -1.30139 0
M  V30 6926 C 686.786 2.0156 -1.16088 0
M  V30 6927 C 687.78 1.69239 -0.0737413 0
M  V30 6928 O 688.986 1.78468 -0.234313 0
M  V30 6929 H 685.361 0.660825 -0.358907 0
M  V30 6930 H 687.332 2.10547 -2.11453 0
M  V30 6931 C 686.081 3.36758 -0.865426 0
M  V30 6932 H 685.404 3.62137 -1.69402 0
M  V30 6933 H 686.844 4.16246 -0.807192 0
M  V30 6934 C 685.303 3.34124 0.431577 0
M  V30 6935 O 685.833 3.7445 1.45431 0
M  V30 6936 N 684.039 2.87229 0.441321 0
M  V30 6937 H 683.586 2.54609 -0.391433 0
M  V30 6938 H 683.544 2.8585 1.30909 0
M  V30 6939 N 687.317 1.12792 1.10072 0
M  V30 6940 C 688.264 0.79921 2.16521 0
M  V30 6941 C 689.234 -0.235726 1.64419 0
M  V30 6942 O 690.419 -0.109457 1.90486 0
M  V30 6943 C 687.559 0.264091 3.44088 0
M  V30 6944 C 686.672 1.35729 4.10124 0
M  V30 6945 C 685.807 0.781212 5.25424 0
M  V30 6946 C 684.846 1.85327 5.8337 0
M  V30 6947 N 683.983 1.29564 6.90042 0
M  V30 6948 H 688.823 1.71105 2.43981 0
M  V30 6949 H 686.36 0.854225 1.19756 0
M  V30 6950 H 688.318 -0.0642423 4.17151 0
M  V30 6951 H 686.948 -0.610901 3.16967 0
M  V30 6952 H 686 1.80234 3.34993 0
M  V30 6953 H 687.312 2.16782 4.4923 0
M  V30 6954 H 686.466 0.403769 6.05355 0
M  V30 6955 H 685.205 -0.0604686 4.87663 0
M  V30 6956 H 684.21 2.23986 5.02106 0
M  V30 6957 H 685.435 2.69824 6.23195 0
M  V30 6958 H 683.381 0.475844 6.54272 0
M  V30 6959 H 683.298 2.04271 7.2788 0
M  V30 6960 H 684.566 0.945545 7.73744 0
M  V30 6961 N 688.795 -1.27931 0.920396 0
M  V30 6962 C 689.725 -2.29487 0.431024 0
M  V30 6963 C 690.706 -1.62435 -0.504861 0
M  V30 6964 O 691.891 -1.89797 -0.411176 0
M  V30 6965 C 689.021 -3.45788 -0.323709 0
M  V30 6966 C 687.975 -4.24784 0.523658 0
M  V30 6967 C 687.301 -5.33488 -0.359809 0
M  V30 6968 C 688.601 -4.90874 1.78437 0
M  V30 6969 H 690.295 -2.70671 1.27975 0
M  V30 6970 H 687.841 -1.30121 0.616813 0
M  V30 6971 H 689.794 -4.15927 -0.676952 0
M  V30 6972 H 688.518 -3.03502 -1.2064 0
M  V30 6973 H 687.177 -3.56382 0.85951 0
M  V30 6974 H 686.825 -4.87445 -1.24124 0
M  V30 6975 H 686.525 -5.87247 0.203605 0
M  V30 6976 H 688.049 -6.06472 -0.708787 0
M  V30 6977 H 689.463 -5.53339 1.49963 0
M  V30 6978 H 687.86 -5.54659 2.29071 0
M  V30 6979 H 688.93 -4.14988 2.50824 0
M  V30 6980 N 690.273 -0.685099 -1.4193 0
M  V30 6981 C 691.223 0.00977295 -2.27998 0
M  V30 6982 C 692.207 0.763315 -1.41641 0
M  V30 6983 O 693.399 0.640532 -1.65004 0
M  V30 6984 C 690.528 0.952972 -3.29808 0
M  V30 6985 C 689.614 0.196231 -4.23646 0
M  V30 6986 N 690.005 -0.804401 -4.99363 0
M  V30 6987 C 688.303 0.433213 -4.43891 0
M  V30 6988 C 689.004 -1.25646 -5.67968 0
M  V30 6989 N 687.98 -0.5844 -5.4045 0
M  V30 6990 H 691.782 -0.757586 -2.83968 0
M  V30 6991 H 689.296 -0.515037 -1.54017 0
M  V30 6992 H 691.293 1.46585 -3.9028 0
M  V30 6993 H 689.953 1.72004 -2.75399 0
M  V30 6994 H 690.964 -1.18429 -5.04177 0
M  V30 6995 H 687.641 1.17899 -4.00507 0
M  V30 6996 H 689.031 -2.08622 -6.38691 0
M  V30 6997 N 691.751 1.51645 -0.429126 0
M  V30 6998 C 692.701 2.24388 0.404217 0
M  V30 6999 C 693.685 1.26294 0.996933 0
M  V30 7000 O 694.877 1.51428 0.916434 0
M  V30 7001 C 692.006 3.08338 1.50938 0
M  V30 7002 C 691.092 4.13857 0.926464 0
M  V30 7003 N 691.483 5.05749 0.0719732 0
M  V30 7004 C 689.781 4.29695 1.19491 0
M  V30 7005 C 690.482 5.81143 -0.254528 0
M  V30 7006 N 689.458 5.42408 0.359763 0
M  V30 7007 H 693.26 2.92794 -0.254697 0
M  V30 7008 H 690.774 1.60606 -0.240712 0
M  V30 7009 H 692.771 3.59022 2.11918 0
M  V30 7010 H 691.431 2.41475 2.17072 0
M  V30 7011 H 692.442 5.17066 -0.293854 0
M  V30 7012 H 689.119 3.74059 1.85434 0
M  V30 7013 H 690.509 6.65159 -0.949365 0
M  V30 7014 N 693.229 0.160201 1.56784 0
M  V30 7015 C 694.179 -0.786461 2.14007 0
M  V30 7016 C 695.163 -1.20046 1.07134 0
M  V30 7017 O 696.355 -1.16468 1.33283 0
M  V30 7018 C 693.484 -2.02024 2.77563 0
M  V30 7019 C 692.57 -1.62874 3.91578 0
M  V30 7020 N 692.961 -0.946176 4.96871 0
M  V30 7021 C 691.259 -1.92054 4.02531 0
M  V30 7022 C 691.96 -0.755084 5.76778 0
M  V30 7023 N 690.936 -1.29307 5.27997 0
M  V30 7024 H 694.738 -0.255879 2.92784 0
M  V30 7025 H 692.252 -0.0408778 1.62349 0
M  V30 7026 H 694.249 -2.70855 3.16928 0
M  V30 7027 H 692.909 -2.55587 2.00263 0
M  V30 7028 H 693.92 -0.605455 5.14349 0
M  V30 7029 H 690.597 -2.47374 3.36322 0
M  V30 7030 H 691.987 -0.216138 6.71552 0
M  V30 7031 N 694.707 -1.5719 -0.113559 0
M  V30 7032 C 695.947 -1.86958 -0.82621 0
M  V30 7033 C 696.311 -0.748884 -1.76793 0
M  V30 7034 O 697.512 -0.92847 -2.52256 0
M  V30 7035 C 695.783 -3.21957 -1.55173 0
M  V30 7036 S 697.342 -3.73371 -2.3052 0
M  V30 7037 H 694.16 -0.655394 -0.275643 0
M  V30 7038 H 696.762 -1.95318 -0.0842684 0
M  V30 7039 H 695.466 -4.01459 -0.851977 0
M  V30 7040 H 694.997 -3.16688 -2.33393 0
M  V30 7041 H 697.012 -3.45308 -3.56338 0
M  V30 7042 N 696.185 0.383891 -1.52853 0
M  V30 7043 C 697.118 1.49105 -1.72751 0
M  V30 7044 C 698.096 1.52077 -0.575438 0
M  V30 7045 O 699.28 1.70406 -0.805854 0
M  V30 7046 C 696.407 2.87551 -1.78975 0
M  V30 7047 C 695.453 3.02383 -3.00777 0
M  V30 7048 S 696.286 2.73048 -4.60657 0
M  V30 7049 C 697.442 4.13678 -4.69704 0
M  V30 7050 H 697.675 1.32002 -2.66388 0
M  V30 7051 H 695.208 0.577088 -1.4321 0
M  V30 7052 H 697.166 3.6733 -1.83246 0
M  V30 7053 H 695.827 3.01977 -0.864215 0
M  V30 7054 H 695.02 4.03733 -3.01688 0
M  V30 7055 H 694.622 2.30504 -2.94523 0
M  V30 7056 H 696.914 5.07676 -4.48633 0
M  V30 7057 H 697.857 4.1778 -5.71721 0
M  V30 7058 H 698.265 3.99825 -3.98497 0
M  V30 7059 N 697.663 1.43903 0.642637 0
M  V30 7060 C 698.888 1.49758 1.43483 0
M  V30 7061 C 699.313 0.119911 1.87717 0
M  V30 7062 O 698.671 -0.888558 1.58033 0
M  V30 7063 C 698.719 2.45744 2.63898 0
M  V30 7064 O 697.823 1.95101 3.63331 0
M  V30 7065 H 697.164 0.506138 0.429791 0
M  V30 7066 H 699.694 1.88923 0.785438 0
M  V30 7067 H 699.704 2.63399 3.11584 0
M  V30 7068 H 698.379 3.45818 2.31046 0
M  V30 7069 H 696.956 1.87158 3.22531 0
M  V30 7070 N 699.141 -0.881989 1.30609 0
M  V30 7071 C 700.39 -1.62878 1.18969 0
M  V30 7072 C 700.703 -1.93946 -0.253859 0
M  V30 7073 O 701.909 -2.67008 -0.491813 0
M  V30 7074 C 700.365 -2.93573 2.0819 0
M  V30 7075 C 699.973 -2.70034 3.57471 0
M  V30 7076 C 701.717 -3.71543 2.0532 0
M  V30 7077 C 699.624 -3.96563 4.38739 0
M  V30 7078 H 698.554 -0.611092 0.441682 0
M  V30 7079 H 701.205 -0.976201 1.55379 0
M  V30 7080 H 699.587 -3.6014 1.64666 0
M  V30 7081 H 700.761 -2.11949 4.09163 0
M  V30 7082 H 699.076 -2.05435 3.62195 0
M  V30 7083 H 701.673 -4.65386 2.63288 0
M  V30 7084 H 702.016 -4.03167 1.03739 0
M  V30 7085 H 702.549 -3.11842 2.46981 0
M  V30 7086 H 699.288 -3.70095 5.41027 0
M  V30 7087 H 698.808 -4.54142 3.9181 0
M  V30 7088 H 700.487 -4.64557 4.50329 0
M  V30 7089 N 700.619 -1.13374 -1.09472 0
M  V30 7090 C 701.865 -0.906459 -1.82085 0
M  V30 7091 C 702.22 0.5614 -1.84027 0
M  V30 7092 O 701.513 1.41012 -1.29716 0
M  V30 7093 C 701.707 -1.42759 -3.2765 0
M  V30 7094 C 701.536 -2.94459 -3.39888 0
M  V30 7095 C 700.306 -3.62798 -3.51718 0
M  V30 7096 C 702.504 -3.92398 -3.32457 0
M  V30 7097 N 700.486 -5.02516 -3.52635 0
M  V30 7098 C 701.857 -5.18304 -3.40237 0
M  V30 7099 C 703.912 -3.84671 -3.16122 0
M  V30 7100 C 702.615 -6.37386 -3.33364 0
M  V30 7101 C 704.641 -5.03287 -3.10574 0
M  V30 7102 C 704.003 -6.28055 -3.18945 0
M  V30 7103 H 700.102 -0.385097 -0.680606 0
M  V30 7104 H 702.686 -1.44187 -1.30836 0
M  V30 7105 H 700.857 -0.919102 -3.77369 0
M  V30 7106 H 702.589 -1.14136 -3.88272 0
M  V30 7107 H 699.344 -3.13317 -3.55147 0
M  V30 7108 H 699.768 -5.75421 -3.56679 0
M  V30 7109 H 704.41 -2.89094 -3.0852 0
M  V30 7110 H 702.128 -7.33219 -3.3973 0
M  V30 7111 H 705.714 -4.99047 -2.9907 0
M  V30 7112 H 704.594 -7.18299 -3.14668 0
M  V30 7113 N 702.098 1.27442 -0.927168 0
M  V30 7114 C 703.061 2.2512 -0.430525 0
M  V30 7115 C 704.061 1.54357 0.450619 0
M  V30 7116 O 705.251 1.72371 0.251774 0
M  V30 7117 C 702.383 3.38763 0.381144 0
M  V30 7118 H 703.576 2.70569 -1.29354 0
M  V30 7119 H 701.129 1.39355 -0.707806 0
M  V30 7120 H 701.864 2.98695 1.263 0
M  V30 7121 H 701.649 3.91298 -0.250618 0
M  V30 7122 H 703.139 4.11364 0.719012 0
M  V30 7123 N 703.576 0.692616 1.41565 0
M  V30 7124 C 704.486 0.0258451 2.34586 0
M  V30 7125 C 705.502 -0.769324 1.56069 0
M  V30 7126 O 706.678 -0.707563 1.88562 0
M  V30 7127 C 703.743 -0.901289 3.3478 0
M  V30 7128 C 702.804 -0.0986579 4.29187 0
M  V30 7129 C 702.037 -0.981634 5.24595 0
M  V30 7130 O 702.26 -2.22115 5.25377 0
M  V30 7131 O 701.194 -0.432892 6.00341 0
M  V30 7132 H 705.02 0.792537 2.93177 0
M  V30 7133 H 702.605 0.452935 1.42369 0
M  V30 7134 H 704.487 -1.43302 3.96286 0
M  V30 7135 H 703.162 -1.64752 2.78637 0
M  V30 7136 H 702.069 0.477604 3.71039 0
M  V30 7137 H 703.402 0.608848 4.8842 0
M  V30 7138 N 705.054 -1.51416 0.437162 0
M  V30 7139 C 705.964 -2.31493 -0.380537 0
M  V30 7140 C 706.98 -1.40399 -1.02782 0
M  V30 7141 O 708.156 -1.73471 -1.02323 0
M  V30 7142 C 705.221 -3.1413 -1.46709 0
M  V30 7143 C 704.282 -4.21003 -0.839953 0
M  V30 7144 C 703.515 -4.9969 -1.87473 0
M  V30 7145 O 703.738 -4.79008 -3.09689 0
M  V30 7146 O 702.672 -5.8379 -1.46536 0
M  V30 7147 H 706.498 -3.02469 0.273183 0
M  V30 7148 H 704.083 -1.48059 0.199706 0
M  V30 7149 H 705.965 -3.65505 -2.09724 0
M  V30 7150 H 704.64 -2.45919 -2.10489 0
M  V30 7151 H 703.547 -3.73706 -0.171752 0
M  V30 7152 H 704.88 -4.91587 -0.245638 0
M  V30 7153 N 706.532 -0.168513 -1.56696 0
M  V30 7154 C 707.772 0.479648 -1.98693 0
M  V30 7155 C 708.136 1.60609 -1.05209 0
M  V30 7156 O 709.337 2.3166 -1.36334 0
M  V30 7157 C 707.608 0.952852 -3.44464 0
M  V30 7158 S 709.167 1.60259 -4.08488 0
M  V30 7159 H 705.985 0.154377 -0.694038 0
M  V30 7160 H 708.587 -0.265312 -1.93691 0
M  V30 7161 H 707.291 0.12257 -4.10217 0
M  V30 7162 H 706.822 1.73192 -3.53225 0
M  V30 7163 H 708.837 2.89065 -4.03307 0
M  V30 7164 N 708.01 1.57248 0.105221 0
M  V30 7165 C 709.426 1.52853 0.459153 0
M  V30 7166 C 709.626 0.883674 1.8109 0
M  V30 7167 O 708.682 0.471864 2.48052 0
M  V30 7168 C 709.995 2.97596 0.43096 0
M  V30 7169 C 711.543 3.08758 0.513536 0
M  V30 7170 C 712.018 4.55089 0.515593 0
M  V30 7171 N 713.509 4.59597 0.576639 0
M  V30 7172 C 714.244 5.70253 0.599904 0
M  V30 7173 N 713.74 6.90368 0.579985 0
M  V30 7174 N 715.533 5.58399 0.643953 0
M  V30 7175 H 707.684 1.97547 -0.780306 0
M  V30 7176 H 709.947 0.902758 -0.289363 0
M  V30 7177 H 709.653 3.48201 -0.494903 0
M  V30 7178 H 709.527 3.55756 1.2537 0
M  V30 7179 H 711.914 2.58148 1.42982 0
M  V30 7180 H 711.995 2.53568 -0.337148 0
M  V30 7181 H 711.639 5.06348 -0.396701 0
M  V30 7182 H 711.569 5.08105 1.38335 0
M  V30 7183 H 714.06 3.73144 0.597639 0
M  V30 7184 H 714.373 7.70462 0.600741 0
M  V30 7185 H 712.718 6.92843 0.547191 0
M  V30 7186 H 715.909 4.63467 0.656975 0
M  V30 7187 H 716.082 6.44644 0.658616 0
M  V30 7188 N 709.488 -0.375779 1.53054 0
M  V30 7189 C 710.904 -0.716764 1.426 0
M  V30 7190 C 711.104 -1.93651 0.556931 0
M  V30 7191 O 710.16 -2.52475 0.0354461 0
M  V30 7192 C 711.473 -0.939499 2.85646 0
M  V30 7193 C 713.021 -1.04015 2.95212 0
M  V30 7194 C 713.496 -1.29543 4.39298 0
M  V30 7195 N 714.987 -1.36335 4.42682 0
M  V30 7196 C 715.722 -1.57778 5.51266 0
M  V30 7197 N 715.218 -1.76604 6.69913 0
M  V30 7198 N 717.011 -1.60065 5.38828 0
M  V30 7199 H 709.162 0.42664 2.08071 0
M  V30 7200 H 711.425 0.128758 0.939215 0
M  V30 7201 H 711.131 -0.115189 3.51511 0
M  V30 7202 H 711.005 -1.85048 3.2869 0
M  V30 7203 H 713.392 -1.85501 2.29507 0
M  V30 7204 H 713.473 -0.106785 2.55577 0
M  V30 7205 H 713.117 -0.485611 5.05573 0
M  V30 7206 H 713.047 -2.24184 4.76497 0
M  V30 7207 H 715.538 -1.23441 3.5717 0
M  V30 7208 H 715.851 -1.9251 7.48438 0
M  V30 7209 H 714.196 -1.73802 6.72917 0
M  V30 7210 H 717.387 -1.44917 4.45103 0
M  V30 7211 H 717.56 -1.76435 6.23518 0
M  V30 7212 N 710.966 -1.44241 -0.634997 0
M  V30 7213 C 711.914 -1.51103 -1.76835 0
M  V30 7214 C 712.908 -0.383051 -1.65012 0
M  V30 7215 O 714.114 -0.557832 -1.71138 0
M  V30 7216 H 710.489 -0.474076 -0.583743 0
M  V30 7217 H 712.46 -2.46499 -1.68169 0
M  V30 7218 C 711.209 -1.4687 -3.15158 0
M  V30 7219 H 710.532 -2.32979 -3.24901 0
M  V30 7220 H 711.972 -1.55731 -3.94365 0
M  V30 7221 C 710.431 -0.188884 -3.3637 0
M  V30 7222 O 710.961 0.742487 -3.94778 0
M  V30 7223 N 709.167 -0.0932516 -2.9045 0
M  V30 7224 H 708.714 -0.852004 -2.43102 0
M  V30 7225 H 708.672 0.762308 -3.05018 0
M  V30 7226 N 712.444 0.87505 -1.31075 0
M  V30 7227 C 713.86 1.15997 -1.09622 0
M  V30 7228 C 714.06 2.01036 0.136611 0
M  V30 7229 O 713.116 2.38559 0.827397 0
M  V30 7230 C 714.429 1.85702 -2.36506 0
M  V30 7231 C 715.977 1.98425 -2.42067 0
M  V30 7232 C 716.452 2.71544 -3.68819 0
M  V30 7233 N 717.943 2.79084 -3.69684 0
M  V30 7234 C 718.678 3.36259 -4.64454 0
M  V30 7235 N 718.174 3.94406 -5.69575 0
M  V30 7236 N 719.967 3.34169 -4.51982 0
M  V30 7237 H 712.118 0.308258 -2.10151 0
M  V30 7238 H 714.381 0.199145 -0.926847 0
M  V30 7239 H 714.087 1.30663 -3.26527 0
M  V30 7240 H 713.961 2.86017 -2.45915 0
M  V30 7241 H 716.348 2.5263 -1.52518 0
M  V30 7242 H 716.429 0.971682 -2.36626 0
M  V30 7243 H 716.073 2.18008 -4.58732 0
M  V30 7244 H 716.003 3.73198 -3.71525 0
M  V30 7245 H 718.494 2.3781 -2.93691 0
M  V30 7246 H 718.807 4.36129 -6.37974 0
M  V30 7247 H 717.152 3.92797 -5.73355 0
M  V30 7248 H 720.343 2.87977 -3.69035 0
M  V30 7249 H 720.516 3.78431 -5.26017 0
M  V30 7250 N 713.922 1.13953 1.08869 0
M  V30 7251 C 714.832 0.835666 2.19212 0
M  V30 7252 C 715.848 -0.182005 1.73045 0
M  V30 7253 O 717.024 -0.0116661 2.01397 0
M  V30 7254 C 714.089 0.312325 3.4529 0
M  V30 7255 C 713.15 1.39196 4.06107 0
M  V30 7256 C 712.383 0.893496 5.26168 0
M  V30 7257 O 712.606 -0.266807 5.69776 0
M  V30 7258 O 711.54 1.67037 5.78258 0
M  V30 7259 H 715.366 1.75769 2.47667 0
M  V30 7260 H 712.951 0.917421 1.17914 0
M  V30 7261 H 714.833 0.0261582 4.21392 0
M  V30 7262 H 713.508 -0.582042 3.18424 0
M  V30 7263 H 712.415 1.73152 3.31616 0
M  V30 7264 H 713.748 2.26068 4.37212 0
M  V30 7265 N 715.4 -1.26948 0.933913 0
M  V30 7266 C 716.811 -1.76058 0.621324 0
M  V30 7267 C 717.162 -1.76175 -0.863522 0
M  V30 7268 O 716.287 -1.36921 -1.67576 0
M  V30 7269 C 716.882 -3.19713 1.12111 0
M  V30 7270 C 715.441 -3.66465 0.859074 0
M  V30 7271 C 714.588 -2.46186 1.27624 0
M  V30 7272 H 717.539 -1.13127 1.11301 0
M  V30 7273 H 717.56 -3.77566 0.471608 0
M  V30 7274 H 717.072 -3.19596 2.20182 0
M  V30 7275 H 715.173 -3.72021 -0.207566 0
M  V30 7276 H 715.286 -4.55636 1.48098 0
M  V30 7277 H 713.65 -2.45042 0.694727 0
M  V30 7278 H 714.433 -2.48774 2.36572 0
M  V30 7279 N 716.879 -0.700114 -1.41195 0
M  V30 7280 C 717.809 -0.0521132 -2.33442 0
M  V30 7281 C 718.79 0.76228 -1.52063 0
M  V30 7282 O 719.975 0.714336 -1.80585 0
M  V30 7283 C 717.105 0.881693 -3.35922 0
M  V30 7284 C 716.059 0.174062 -4.27646 0
M  V30 7285 C 715.385 1.22254 -5.20536 0
M  V30 7286 C 716.685 -0.962396 -5.13357 0
M  V30 7287 H 718.379 -0.822574 -2.87879 0
M  V30 7288 H 715.925 -0.397011 -1.38419 0
M  V30 7289 H 717.878 1.34429 -3.99383 0
M  V30 7290 H 716.602 1.68387 -2.79845 0
M  V30 7291 H 715.261 -0.268551 -3.65615 0
M  V30 7292 H 714.909 2.01736 -4.60773 0
M  V30 7293 H 714.609 0.754038 -5.82742 0
M  V30 7294 H 716.133 1.68555 -5.86874 0
M  V30 7295 H 717.547 -0.579875 -5.7036 0
M  V30 7296 H 715.944 -1.35828 -5.84526 0
M  V30 7297 H 717.014 -1.80003 -4.50252 0
M  V30 7298 N 718.357 1.51182 -0.445186 0
M  V30 7299 C 719.606 2.01342 0.120189 0
M  V30 7300 C 719.919 1.33353 1.43095 0
M  V30 7301 O 721.125 1.74525 2.07974 0
M  V30 7302 C 719.581 3.58925 0.264732 0
M  V30 7303 C 719.189 4.35855 -1.03606 0
M  V30 7304 C 720.933 4.17208 0.783455 0
M  V30 7305 C 718.84 5.85162 -0.856731 0
M  V30 7306 H 717.77 0.752426 0.0486922 0
M  V30 7307 H 720.421 1.74221 -0.576143 0
M  V30 7308 H 718.803 3.82525 1.02425 0
M  V30 7309 H 719.977 4.23997 -1.80452 0
M  V30 7310 H 718.292 3.89062 -1.48391 0
M  V30 7311 H 720.889 5.26475 0.934239 0
M  V30 7312 H 721.232 3.76892 1.768 0
M  V30 7313 H 721.765 3.97715 0.0820346 0
M  V30 7314 H 718.504 6.29904 -1.81388 0
M  V30 7315 H 718.024 5.99663 -0.128206 0
M  V30 7316 H 719.703 6.44963 -0.513027 0
M  V30 7317 N 719.835 0.176821 1.56605 0
M  V30 7318 C 721.075 -0.469104 1.98944 0
M  V30 7319 C 721.439 -1.60048 1.06059 0
M  V30 7320 O 722.64 -2.30934 1.3756 0
M  V30 7321 C 720.911 -0.934571 3.44965 0
M  V30 7322 S 722.47 -1.58091 4.09332 0
M  V30 7323 H 719.288 -0.150695 0.694847 0
M  V30 7324 H 721.89 0.27558 1.93548 0
M  V30 7325 H 720.594 -0.100814 4.10276 0
M  V30 7326 H 720.125 -1.71316 3.54139 0
M  V30 7327 H 722.14 -2.86922 4.04834 0
M  V30 7328 N 721.313 -1.57302 -0.09688 0
M  V30 7329 C 722.724 -1.7496 -0.651595 0
M  V30 7330 C 723.075 -0.798746 -1.79205 0
M  V30 7331 O 722.2 0.0231858 -2.16388 0
M  V30 7332 C 722.795 -3.17259 -1.18878 0
M  V30 7333 C 721.354 -3.36348 -1.68958 0
M  V30 7334 C 720.501 -2.70766 -0.598413 0
M  V30 7335 H 723.452 -1.58173 0.12918 0
M  V30 7336 H 723.473 -3.20033 -2.05814 0
M  V30 7337 H 722.985 -3.8644 -0.358523 0
M  V30 7338 H 721.086 -2.72243 -2.5439 0
M  V30 7339 H 721.199 -4.44654 -1.7838 0
M  V30 7340 H 719.563 -2.32615 -1.03743 0
M  V30 7341 H 720.346 -3.42586 0.221238 0
M  V30 7342 N 722.791 0.367657 -1.53252 0
M  V30 7343 C 723.721 1.45632 -1.8252 0
M  V30 7344 C 724.702 1.55979 -0.678568 0
M  V30 7345 O 725.887 1.70581 -0.928217 0
M  V30 7346 C 723.017 2.82994 -2.01325 0
M  V30 7347 C 721.971 2.87473 -3.17086 0
M  V30 7348 C 721.297 4.2749 -3.21179 0
M  V30 7349 C 722.597 2.55182 -4.55719 0
M  V30 7350 H 724.291 1.21387 -2.73689 0
M  V30 7351 H 721.837 0.58251 -1.31692 0
M  V30 7352 H 723.79 3.59179 -2.20383 0
M  V30 7353 H 722.514 3.08622 -1.06864 0
M  V30 7354 H 721.173 2.13739 -2.97844 0
M  V30 7355 H 720.821 4.5019 -2.24361 0
M  V30 7356 H 720.521 4.31403 -3.98955 0
M  V30 7357 H 722.045 5.0555 -3.42419 0
M  V30 7358 H 723.459 3.21081 -4.74953 0
M  V30 7359 H 721.856 2.70414 -5.3572 0
M  V30 7360 H 722.926 1.5044 -4.60973 0
M  V30 7361 N 724.269 1.44576 0.627338 0
M  V30 7362 C 725.509 1.49083 1.39834 0
M  V30 7363 C 725.873 0.121643 1.91614 0
M  V30 7364 O 727.074 0.0413885 2.68768 0
M  V30 7365 C 725.345 2.52467 2.52973 0
M  V30 7366 S 726.904 2.7605 3.41089 0
M  V30 7367 H 723.722 0.527252 0.476997 0
M  V30 7368 H 726.324 1.81525 0.725872 0
M  V30 7369 H 725.028 3.50646 2.13249 0
M  V30 7370 H 724.559 2.2161 3.25042 0
M  V30 7371 H 726.574 2.07932 4.50531 0
M  V30 7372 N 725.747 -0.868086 1.31537 0
M  V30 7373 C 727.163 -1.15414 1.10235 0
M  V30 7374 C 727.363 -2.01106 -0.125947 0
M  V30 7375 O 726.419 -2.38994 -0.814734 0
M  V30 7376 C 727.732 -1.84445 2.37488 0
M  V30 7377 C 729.28 -1.97139 2.43116 0
M  V30 7378 C 729.755 -2.69585 3.70254 0
M  V30 7379 N 731.246 -2.77119 3.71159 0
M  V30 7380 C 731.981 -3.33791 4.6623 0
M  V30 7381 N 731.477 -3.9138 5.71659 0
M  V30 7382 N 733.27 -3.31767 4.53747 0
M  V30 7383 H 725.421 -0.297109 2.10312 0
M  V30 7384 H 727.684 -0.194227 0.92789 0
M  V30 7385 H 727.39 -1.2893 3.27215 0
M  V30 7386 H 727.264 -2.84709 2.47428 0
M  V30 7387 H 729.651 -2.51818 1.53856 0
M  V30 7388 H 729.732 -0.95912 2.37138 0
M  V30 7389 H 729.376 -2.15572 4.59881 0
M  V30 7390 H 729.306 -3.71223 3.73499 0
M  V30 7391 H 731.797 -2.3625 2.94948 0
M  V30 7392 H 732.11 -4.3274 6.40278 0
M  V30 7393 H 730.455 -3.8975 5.7543 0
M  V30 7394 H 733.646 -2.86016 3.70557 0
M  V30 7395 H 733.819 -3.75636 5.28017 0
M  V30 7396 N 727.225 -1.14528 -1.08264 0
M  V30 7397 C 728.45 -0.938381 -1.84957 0
M  V30 7398 C 728.875 0.508044 -1.81109 0
M  V30 7399 O 728.233 1.36146 -1.19724 0
M  V30 7400 C 728.281 -1.44568 -3.30352 0
M  V30 7401 O 727.385 -0.638745 -4.07423 0
M  V30 7402 H 726.726 -0.335394 -0.573068 0
M  V30 7403 H 729.256 -1.52287 -1.36637 0
M  V30 7404 H 729.266 -1.45449 -3.81194 0
M  V30 7405 H 727.941 -2.49876 -3.32468 0
M  V30 7406 H 726.518 -0.698801 -3.66294 0
M  V30 7407 N 728.703 1.26451 -0.940633 0
M  V30 7408 C 729.65 2.264 -0.448497 0
M  V30 7409 C 730.62 1.5866 0.491546 0
M  V30 7410 O 731.805 1.86389 0.407874 0
M  V30 7411 C 728.945 3.43956 0.280715 0
M  V30 7412 C 728.058 4.26374 -0.694937 0
M  V30 7413 C 727.193 5.31171 0.0554186 0
M  V30 7414 C 726.232 6.05266 -0.912091 0
M  V30 7415 N 725.369 7.01833 -0.193524 0
M  V30 7416 H 730.209 2.67869 -1.30576 0
M  V30 7417 H 727.746 1.31707 -0.655112 0
M  V30 7418 H 729.704 4.10941 0.71994 0
M  V30 7419 H 728.334 3.03403 1.10212 0
M  V30 7420 H 727.386 3.59183 -1.25267 0
M  V30 7421 H 728.698 4.77748 -1.43382 0
M  V30 7422 H 727.852 6.04166 0.553951 0
M  V30 7423 H 726.591 4.80634 0.827183 0
M  V30 7424 H 725.596 5.31099 -1.42175 0
M  V30 7425 H 726.821 6.57893 -1.68385 0
M  V30 7426 H 724.767 6.53607 0.559758 0
M  V30 7427 H 724.684 7.50957 -0.871744 0
M  V30 7428 H 725.952 7.78983 0.283932 0
M  V30 7429 N 730.181 0.707592 1.40822 0
M  V30 7430 C 731.427 0.252828 2.01823 0
M  V30 7431 C 731.782 -1.13876 1.55081 0
M  V30 7432 O 731.075 -1.75993 0.757439 0
M  V30 7433 C 731.269 0.262892 3.56432 0
M  V30 7434 C 731.098 1.65392 4.18181 0
M  V30 7435 C 729.868 2.25966 4.5196 0
M  V30 7436 C 732.066 2.60272 4.4358 0
M  V30 7437 N 730.048 3.57508 4.9906 0
M  V30 7438 C 731.419 3.76509 4.92586 0
M  V30 7439 C 733.474 2.58386 4.25607 0
M  V30 7440 C 732.177 4.91157 5.25507 0
M  V30 7441 C 734.203 3.72155 4.59625 0
M  V30 7442 C 733.565 4.87123 5.08813 0
M  V30 7443 H 729.664 0.138172 0.769696 0
M  V30 7444 H 732.248 0.927667 1.7118 0
M  V30 7445 H 730.419 -0.381479 3.86522 0
M  V30 7446 H 732.151 -0.20783 4.04166 0
M  V30 7447 H 728.906 1.78138 4.38821 0
M  V30 7448 H 729.33 4.24968 5.27002 0
M  V30 7449 H 733.972 1.7071 3.86805 0
M  V30 7450 H 731.69 5.79483 5.63227 0
M  V30 7451 H 735.276 3.71961 4.47366 0
M  V30 7452 H 734.156 5.73698 5.3464 0
M  V30 7453 N 731.66 -1.50943 0.453197 0
M  V30 7454 C 733.076 -1.59245 0.106342 0
M  V30 7455 C 733.276 -1.46287 -1.38572 0
M  V30 7456 O 732.332 -1.31219 -2.15726 0
M  V30 7457 C 733.645 -2.93797 0.640595 0
M  V30 7458 C 735.193 -3.07148 0.602435 0
M  V30 7459 C 735.668 -4.44247 1.11393 0
M  V30 7460 N 737.159 -4.50611 1.07258 0
M  V30 7461 C 737.894 -5.55049 1.43905 0
M  V30 7462 N 737.39 -6.66828 1.87914 0
M  V30 7463 N 739.183 -5.45494 1.35621 0
M  V30 7464 H 731.334 -1.5761 1.42382 0
M  V30 7465 H 733.597 -0.74384 0.587713 0
M  V30 7466 H 733.303 -3.087 1.68515 0
M  V30 7467 H 733.177 -3.77127 0.0742272 0
M  V30 7468 H 735.564 -2.91903 -0.433171 0
M  V30 7469 H 735.645 -2.25619 1.20539 0
M  V30 7470 H 735.289 -4.60239 2.14808 0
M  V30 7471 H 735.219 -5.2434 0.487353 0
M  V30 7472 H 737.71 -3.70391 0.749585 0
M  V30 7473 H 738.023 -7.42558 2.14072 0
M  V30 7474 H 736.368 -6.67995 1.91853 0
M  V30 7475 H 739.559 -4.57053 1.01093 0
M  V30 7476 H 739.732 -6.2677 1.64508 0
M  V30 7477 N 733.138 -0.185124 -1.56509 0
M  V30 7478 C 734.363 0.465278 -2.02114 0
M  V30 7479 C 734.788 1.55083 -1.06447 0
M  V30 7480 O 734.146 1.81241 -0.0462852 0
M  V30 7481 C 734.194 1.00784 -3.46229 0
M  V30 7482 O 733.298 2.12123 -3.53663 0
M  V30 7483 H 732.639 0.109891 -0.654843 0
M  V30 7484 H 735.169 -0.293072 -2.0249 0
M  V30 7485 H 735.179 1.32697 -3.85818 0
M  V30 7486 H 733.854 0.213113 -4.15354 0
M  V30 7487 H 732.431 1.8115 -3.25943 0
M  V30 7488 N 734.616 1.57351 0.0885366 0
M  V30 7489 C 735.566 1.98963 1.11346 0
M  V30 7490 C 736.55 0.869065 1.35411 0
M  V30 7491 O 737.742 1.13292 1.35992 0
M  V30 7492 C 734.871 2.4231 2.43189 0
M  V30 7493 C 733.957 3.61065 2.22469 0
M  V30 7494 N 734.348 4.75789 1.71635 0
M  V30 7495 C 732.646 3.6729 2.5301 0
M  V30 7496 C 733.347 5.57708 1.65339 0
M  V30 7497 N 732.323 5.01067 2.1079 0
M  V30 7498 H 736.125 2.85109 0.713465 0
M  V30 7499 H 733.639 1.59682 0.295868 0
M  V30 7500 H 735.636 2.70352 3.17357 0
M  V30 7501 H 734.296 1.57544 2.83919 0
M  V30 7502 H 735.307 4.98411 1.40738 0
M  V30 7503 H 731.984 2.932 2.9722 0
M  V30 7504 H 733.374 6.59782 1.27031 0
M  V30 7505 N 736.094 -0.359525 1.53444 0
M  V30 7506 C 737.371 -1.11756 1.6053 0
M  V30 7507 C 737.751 -2.06949 0.416587 0
M  V30 7508 O 737.099 -2.20681 -0.592628 0
M  V30 7509 C 737.309 -1.85133 2.95849 0
M  V30 7510 C 738.657 -2.3945 3.50641 0
M  V30 7511 O 739.681 -1.95251 2.97918 0
M  V30 7512 O 738.54 -3.20266 4.42823 0
M  V30 7513 H 735.634 -0.513005 0.648656 0
M  V30 7514 H 738.18 -0.362301 1.65787 0
M  V30 7515 H 736.952 -1.15694 3.73806 0
M  V30 7516 H 736.575 -2.67554 2.9411 0
M  V30 7517 N 737.572 -1.44907 -0.619662 0
M  V30 7518 C 738.819 -1.48292 -1.37898 0
M  V30 7519 C 739.147 -0.119933 -1.9413 0
M  V30 7520 O 738.402 0.879834 -1.74807 0
M  V30 7521 C 738.701 -2.50002 -2.55409 0
M  V30 7522 C 738.367 -3.95031 -2.17397 0
M  V30 7523 C 737.029 -4.34524 -2.06743 0
M  V30 7524 C 739.381 -4.86287 -1.87548 0
M  V30 7525 C 736.709 -5.63183 -1.64445 0
M  V30 7526 C 739.061 -6.15346 -1.4674 0
M  V30 7527 C 737.725 -6.53781 -1.34636 0
M  V30 7528 H 736.995 -0.542638 -0.504603 0
M  V30 7529 H 739.642 -1.78186 -0.701581 0
M  V30 7530 H 737.947 -2.13634 -3.28433 0
M  V30 7531 H 739.644 -2.49864 -3.13639 0
M  V30 7532 H 736.234 -3.63793 -2.26611 0
M  V30 7533 H 740.418 -4.56522 -1.94682 0
M  V30 7534 H 735.674 -5.91769 -1.53687 0
M  V30 7535 H 739.848 -6.85508 -1.22685 0
M  V30 7536 H 737.475 -7.53375 -1.01634 0
M  V30 7537 N 739.05 0.861098 -1.31996 0
M  V30 7538 C 740.28 1.64501 -1.24992 0
M  V30 7539 C 740.688 1.88288 0.185576 0
M  V30 7540 O 740.031 1.44756 1.131 0
M  V30 7541 C 740.093 3.03098 -1.93319 0
M  V30 7542 C 739.757 3.02381 -3.42658 0
M  V30 7543 C 740.754 2.79696 -4.38254 0
M  V30 7544 C 738.439 3.23221 -3.84491 0
M  V30 7545 C 740.433 2.77843 -5.73657 0
M  V30 7546 C 738.12 3.20996 -5.20005 0
M  V30 7547 C 739.118 2.98335 -6.14398 0
M  V30 7548 O 738.806 2.95971 -7.47433 0
M  V30 7549 H 738.538 0.519309 -0.432775 0
M  V30 7550 H 741.092 1.08241 -1.74565 0
M  V30 7551 H 739.322 3.61121 -1.38306 0
M  V30 7552 H 741.011 3.63751 -1.8011 0
M  V30 7553 H 741.777 2.63368 -4.07262 0
M  V30 7554 H 737.656 3.39887 -3.11445 0
M  V30 7555 H 741.2 2.60074 -6.47308 0
M  V30 7556 H 737.097 3.36865 -5.50629 0
M  V30 7557 H 737.865 3.1197 -7.56714 0
M  V30 7558 N 740.528 1.15101 1.07655 0
M  V30 7559 C 741.753 0.948177 1.84457 0
M  V30 7560 C 742.178 -0.498432 1.81376 0
M  V30 7561 O 741.536 -1.35509 1.20445 0
M  V30 7562 C 741.584 1.46318 3.29581 0
M  V30 7563 O 740.688 0.660342 4.07079 0
M  V30 7564 H 740.029 0.338428 0.571281 0
M  V30 7565 H 742.559 1.5301 1.35828 0
M  V30 7566 H 742.569 1.47468 3.80417 0
M  V30 7567 H 741.244 2.51635 3.31138 0
M  V30 7568 H 739.821 0.718216 3.65918 0
M  V30 7569 N 742.006 -1.2595 0.947325 0
M  V30 7570 C 742.956 -2.23859 0.432547 0
M  V30 7571 C 743.94 -1.53755 -0.474154 0
M  V30 7572 O 745.132 -1.74293 -0.308397 0
M  V30 7573 C 742.261 -3.42027 -0.295318 0
M  V30 7574 C 741.347 -4.19409 0.62903 0
M  V30 7575 N 741.738 -4.74284 1.7575 0
M  V30 7576 C 740.036 -4.43866 0.435805 0
M  V30 7577 C 740.737 -5.32821 2.33401 0
M  V30 7578 N 739.713 -5.18858 1.62135 0
M  V30 7579 H 743.515 -2.63886 1.29388 0
M  V30 7580 H 741.029 -1.41105 0.80393 0
M  V30 7581 H 743.026 -4.11297 -0.681188 0
M  V30 7582 H 741.686 -3.03526 -1.15334 0
M  V30 7583 H 742.697 -4.71641 2.13952 0
M  V30 7584 H 739.374 -4.15768 -0.37994 0
M  V30 7585 H 740.764 -5.86111 3.28517 0
M  V30 7586 N 743.484 -0.715051 -1.40445 0
M  V30 7587 C 744.394 -0.0631624 -2.34515 0
M  V30 7588 C 745.41 0.744397 -1.57273 0
M  V30 7589 O 746.586 0.677475 -1.89663 0
M  V30 7590 C 743.651 0.847915 -3.36172 0
M  V30 7591 C 742.712 0.0303655 -4.29289 0
M  V30 7592 C 741.945 0.898051 -5.2609 0
M  V30 7593 O 742.168 2.13729 -5.28844 0
M  V30 7594 O 741.102 0.337328 -6.00954 0
M  V30 7595 H 744.928 -0.839078 -2.91879 0
M  V30 7596 H 742.513 -0.475527 -1.4163 0
M  V30 7597 H 744.395 1.3698 -3.98515 0
M  V30 7598 H 743.07 1.60299 -2.81222 0
M  V30 7599 H 741.977 -0.536573 -3.70232 0
M  V30 7600 H 743.31 -0.686474 -4.87389 0
M  V30 7601 N 744.962 1.50701 -0.461195 0
M  V30 7602 C 745.892 2.31182 0.328184 0
M  V30 7603 C 746.873 1.37644 0.999408 0
M  V30 7604 O 748.058 1.66565 0.99848 0
M  V30 7605 C 745.188 3.17113 1.41621 0
M  V30 7606 C 744.142 4.19124 0.867148 0
M  V30 7607 C 743.468 4.93728 2.05272 0
M  V30 7608 C 744.768 5.22174 -0.114808 0
M  V30 7609 H 746.462 2.97423 -0.343501 0
M  V30 7610 H 744.008 1.43033 -0.166641 0
M  V30 7611 H 745.961 3.72208 1.97584 0
M  V30 7612 H 744.685 2.48739 2.11652 0
M  V30 7613 H 743.344 3.65116 0.329557 0
M  V30 7614 H 742.992 4.21835 2.73978 0
M  V30 7615 H 742.692 5.62724 1.69161 0
M  V30 7616 H 744.216 5.51654 2.61744 0
M  V30 7617 H 745.63 5.72198 0.355316 0
M  V30 7618 H 744.027 5.98833 -0.389689 0
M  V30 7619 H 745.097 4.7353 -1.04391 0
M  V30 7620 N 746.441 0.193421 1.56409 0
M  V30 7621 C 747.666 -0.454552 2.02358 0
M  V30 7622 C 748.091 -1.54516 1.07268 0
M  V30 7623 O 747.449 -1.81214 0.0558962 0
M  V30 7624 C 747.497 -0.989469 3.46759 0
M  V30 7625 O 746.601 -2.10244 3.54783 0
M  V30 7626 H 745.942 -0.106417 0.655417 0
M  V30 7627 H 748.472 0.303807 2.02332 0
M  V30 7628 H 748.482 -1.30649 3.86516 0
M  V30 7629 H 747.157 -0.191083 4.15461 0
M  V30 7630 H 745.734 -1.79419 3.26899 0
M  V30 7631 N 747.919 -1.57396 -0.0801906 0
M  V30 7632 C 749.144 -1.91437 -0.797909 0
M  V30 7633 C 749.569 -0.789075 -1.70749 0
M  V30 7634 O 748.927 0.25857 -1.79447 0
M  V30 7635 C 748.975 -3.24402 -1.57467 0
M  V30 7636 O 748.079 -3.13043 -2.68473 0
M  V30 7637 H 747.42 -0.627109 -0.218243 0
M  V30 7638 H 749.95 -2.04537 -0.050949 0
M  V30 7639 H 749.96 -3.58072 -1.95571 0
M  V30 7640 H 748.635 -4.05884 -0.907229 0
M  V30 7641 H 747.212 -2.90915 -2.33287 0
M  V30 7642 N 749.397 0.351382 -1.53633 0
M  V30 7643 C 750.808 0.927429 -1.62036 0
M  V30 7644 C 751.159 1.89809 -0.496706 0
M  V30 7645 O 750.284 2.1313 0.374749 0
M  V30 7646 C 750.879 1.68886 -2.93706 0
M  V30 7647 C 749.438 2.21404 -3.04397 0
M  V30 7648 C 748.585 1.03075 -2.57431 0
M  V30 7649 H 751.536 0.129748 -1.58169 0
M  V30 7650 H 751.557 2.55116 -2.82305 0
M  V30 7651 H 751.069 0.982149 -3.75467 0
M  V30 7652 H 749.17 2.95274 -2.27253 0
M  V30 7653 H 749.283 2.48312 -4.09729 0
M  V30 7654 H 747.647 1.40188 -2.12649 0
M  V30 7655 H 748.43 0.338793 -3.41624 0
M  V30 7656 N 750.875 1.45233 0.611969 0
M  V30 7657 C 752.121 1.49242 1.37312 0
M  V30 7658 C 752.454 0.131963 1.93751 0
M  V30 7659 O 751.729 -0.852999 1.74798 0
M  V30 7660 C 752.012 2.56811 2.52428 0
M  V30 7661 C 751.865 4.02284 2.01215 0
M  V30 7662 C 753.184 2.60705 3.54572 0
M  V30 7663 H 750.303 0.54336 0.497925 0
M  V30 7664 H 752.945 1.77019 0.690242 0
M  V30 7665 H 751.095 2.33256 3.10683 0
M  V30 7666 H 752.767 4.37035 1.47643 0
M  V30 7667 H 751.01 4.1315 1.32248 0
M  V30 7668 H 751.681 4.7323 2.84178 0
M  V30 7669 H 754.157 2.81799 3.06151 0
M  V30 7670 H 753.033 3.37841 4.32614 0
M  V30 7671 H 753.294 1.65627 4.09903 0
M  V30 7672 N 752.353 -0.854086 1.3245 0
M  V30 7673 C 753.63 -1.59188 1.1366 0
M  V30 7674 C 754.01 -2.08917 -0.302807 0
M  V30 7675 O 753.358 -1.8795 -1.29951 0
M  V30 7676 C 753.568 -2.73757 2.16467 0
M  V30 7677 C 754.916 -3.43323 2.49829 0
M  V30 7678 O 755.94 -2.83983 2.15017 0
M  V30 7679 O 754.799 -4.50409 3.09506 0
M  V30 7680 H 751.893 -0.701092 0.438633 0
M  V30 7681 H 754.439 -0.898165 1.43983 0
M  V30 7682 H 753.211 -2.3454 3.1322 0
M  V30 7683 H 752.834 -3.50804 1.87142 0
M  V30 7684 N 753.831 -1.1567 -1.07043 0
M  V30 7685 C 755.056 -0.957946 -1.83952 0
M  V30 7686 C 755.481 0.488807 -1.81638 0
M  V30 7687 O 754.839 1.34869 -1.21162 0
M  V30 7688 C 754.887 -1.48064 -3.288 0
M  V30 7689 O 753.991 -0.681921 -4.06723 0
M  V30 7690 H 753.332 -0.341453 -0.569479 0
M  V30 7691 H 755.862 -1.53728 -1.35015 0
M  V30 7692 H 755.872 -1.49484 -3.7963 0
M  V30 7693 H 754.547 -2.53388 -3.29799 0
M  V30 7694 H 753.124 -0.737612 -3.65532 0
M  V30 7695 N 755.309 1.25446 -0.953992 0
M  V30 7696 C 756.72 1.75047 -0.649255 0
M  V30 7697 C 757.071 1.77527 0.835385 0
M  V30 7698 O 756.196 1.39569 1.65377 0
M  V30 7699 C 756.791 3.17889 -1.17183 0
M  V30 7700 C 755.35 3.65052 -0.917267 0
M  V30 7701 C 754.497 2.44124 -1.31525 0
M  V30 7702 H 757.448 1.11342 -1.13087 0
M  V30 7703 H 757.469 3.76768 -0.531616 0
M  V30 7704 H 756.981 3.16052 -2.25239 0
M  V30 7705 H 755.082 3.72305 0.148354 0
M  V30 7706 H 755.195 4.53222 -1.55328 0
M  V30 7707 H 753.559 2.43906 -0.733624 0
M  V30 7708 H 754.342 2.44979 -2.405 0
M  V30 7709 N 756.787 0.722489 1.40064 0
M  V30 7710 C 758.012 0.273446 2.05589 0
M  V30 7711 C 758.437 -1.07875 1.54093 0
M  V30 7712 O 757.795 -1.68095 0.679252 0
M  V30 7713 C 757.843 0.271023 3.5958 0
M  V30 7714 O 756.947 -0.745499 4.05606 0
M  V30 7715 H 756.288 0.126856 0.65177 0
M  V30 7716 H 758.818 0.984906 1.79334 0
M  V30 7717 H 758.828 0.111084 4.07849 0
M  V30 7718 H 757.503 1.25776 3.96425 0
M  V30 7719 H 756.08 -0.552719 3.68781 0
M  V30 7720 N 758.265 -1.50454 0.469181 0
M  V30 7721 C 759.49 -2.0722 -0.0864892 0
M  V30 7722 C 759.915 -1.33098 -1.32916 0
M  V30 7723 O 759.273 -0.378084 -1.77314 0
M  V30 7724 C 759.321 -3.58845 -0.355384 0
M  V30 7725 O 758.425 -3.86583 -1.43622 0
M  V30 7726 H 757.766 -0.663889 0.0121414 0
M  V30 7727 H 760.296 -1.93674 0.659674 0
M  V30 7728 H 760.306 -4.03617 -0.596447 0
M  V30 7729 H 758.981 -4.12211 0.552698 0
M  V30 7730 H 757.558 -3.5365 -1.18262 0
M  V30 7731 N 759.743 -0.201713 -1.56304 0
M  V30 7732 C 760.673 0.71155 -2.22394 0
M  V30 7733 C 761.654 1.21625 -1.18917 0
M  V30 7734 O 762.839 1.26388 -1.47444 0
M  V30 7735 C 759.969 1.92837 -2.88845 0
M  V30 7736 C 758.923 1.55831 -3.98623 0
M  V30 7737 C 758.249 2.85228 -4.52271 0
M  V30 7738 C 759.549 0.763249 -5.16693 0
M  V30 7739 H 761.243 0.160573 -2.98969 0
M  V30 7740 H 758.789 0.0757916 -1.438 0
M  V30 7741 H 760.742 2.57253 -3.33764 0
M  V30 7742 H 759.466 2.50398 -2.09686 0
M  V30 7743 H 758.125 0.9377 -3.54405 0
M  V30 7744 H 757.773 3.40893 -3.69866 0
M  V30 7745 H 757.473 2.6121 -5.26349 0
M  V30 7746 H 758.997 3.50622 -4.99897 0
M  V30 7747 H 760.411 1.31066 -5.58117 0
M  V30 7748 H 758.808 0.620935 -5.96879 0
M  V30 7749 H 759.878 -0.234322 -4.84334 0
M  V30 7750 N 761.222 1.57436 0.0718424 0
M  V30 7751 C 762.638 1.53792 0.426628 0
M  V30 7752 C 762.838 0.921887 1.79174 0
M  V30 7753 O 761.894 0.524374 2.46995 0
M  V30 7754 C 763.207 2.98443 0.367739 0
M  V30 7755 C 764.755 3.09778 0.447928 0
M  V30 7756 C 765.23 4.5608 0.418946 0
M  V30 7757 N 766.721 4.60716 0.479022 0
M  V30 7758 C 767.456 5.71397 0.47881 0
M  V30 7759 N 766.952 6.91443 0.433417 0
M  V30 7760 N 768.745 5.59639 0.525364 0
M  V30 7761 H 760.896 1.95848 -0.822033 0
M  V30 7762 H 763.159 0.896418 -0.308447 0
M  V30 7763 H 762.865 3.47072 -0.56865 0
M  V30 7764 H 762.739 3.58335 1.17795 0
M  V30 7765 H 765.126 2.61122 1.37474 0
M  V30 7766 H 765.207 2.52796 -0.390857 0
M  V30 7767 H 764.851 5.05393 -0.504016 0
M  V30 7768 H 764.781 5.10925 1.27526 0
M  V30 7769 H 767.272 3.74328 0.518355 0
M  V30 7770 H 767.585 7.71562 0.43718 0
M  V30 7771 H 765.93 6.93847 0.400106 0
M  V30 7772 H 769.121 4.64756 0.558519 0
M  V30 7773 H 769.294 6.45896 0.52173 0
M  V30 7774 N 762.7 -0.34323 1.53817 0
M  V30 7775 C 763.663 -1.40444 1.8113 0
M  V30 7776 C 764.663 -1.45604 0.682366 0
M  V30 7777 O 765.853 -1.45974 0.950649 0
M  V30 7778 C 762.985 -2.79369 1.95361 0
M  V30 7779 H 764.178 -1.17489 2.75928 0
M  V30 7780 H 761.731 -0.577636 1.45234 0
M  V30 7781 H 762.466 -3.07607 1.02707 0
M  V30 7782 H 762.251 -2.7702 2.77493 0
M  V30 7783 H 763.741 -3.56178 2.18008 0
M  V30 7784 N 764.178 -1.45556 -0.604258 0
M  V30 7785 C 765.141 -1.54091 -1.69672 0
M  V30 7786 C 766.141 -0.420076 -1.55216 0
M  V30 7787 O 767.331 -0.683671 -1.60224 0
M  V30 7788 C 764.463 -1.44063 -3.08964 0
M  V30 7789 H 765.656 -2.51431 -1.6347 0
M  V30 7790 H 763.209 -1.33046 -0.820273 0
M  V30 7791 H 763.944 -0.479201 -3.2074 0
M  V30 7792 H 763.729 -2.25362 -3.20865 0
M  V30 7793 H 765.219 -1.53075 -3.88533 0
M  V30 7794 N 765.656 0.84705 -1.32902 0
M  V30 7795 C 766.588 1.96308 -1.18304 0
M  V30 7796 C 767.601 1.62386 -0.116082 0
M  V30 7797 O 768.79 1.74713 -0.365751 0
M  V30 7798 C 765.89 3.29556 -0.790305 0
M  V30 7799 C 765.063 3.91668 -1.94717 0
M  V30 7800 C 764.122 5.0326 -1.53674 0
M  V30 7801 O 763.148 5.22847 -2.24989 0
M  V30 7802 N 764.35 5.78852 -0.437075 0
M  V30 7803 H 767.115 2.09369 -2.14441 0
M  V30 7804 H 764.676 1.02233 -1.25539 0
M  V30 7805 H 766.668 4.01624 -0.49799 0
M  V30 7806 H 765.238 3.12497 0.0801286 0
M  V30 7807 H 764.458 3.12292 -2.40557 0
M  V30 7808 H 765.746 4.299 -2.72146 0
M  V30 7809 H 765.144 5.65484 0.156316 0
M  V30 7810 H 763.701 6.51479 -0.204399 0
M  V30 7811 N 767.134 1.16236 1.06428 0
M  V30 7812 C 768.066 0.825446 2.1382 0
M  V30 7813 C 769.079 -0.166707 1.61944 0
M  V30 7814 O 770.268 0.0578606 1.78406 0
M  V30 7815 C 767.368 0.208023 3.38261 0
M  V30 7816 C 766.541 1.23994 4.19457 0
M  V30 7817 C 765.6 0.642569 5.22262 0
M  V30 7818 O 764.626 1.31106 5.53895 0
M  V30 7819 N 765.828 -0.571327 5.77682 0
M  V30 7820 H 768.593 1.7497 2.43322 0
M  V30 7821 H 766.154 1.05951 1.22417 0
M  V30 7822 H 768.146 -0.204608 4.04182 0
M  V30 7823 H 766.716 -0.619752 3.06395 0
M  V30 7824 H 765.936 1.82879 3.49212 0
M  V30 7825 H 767.224 1.93638 4.70512 0
M  V30 7826 H 766.622 -1.13263 5.54245 0
M  V30 7827 H 765.179 -0.926187 6.45186 0
M  V30 7828 N 768.612 -1.24939 0.960631 0
M  V30 7829 C 769.544 -2.24879 0.442937 0
M  V30 7830 C 770.557 -1.56615 -0.444464 0
M  V30 7831 O 771.746 -1.76715 -0.251776 0
M  V30 7832 C 768.846 -3.36757 -0.380537 0
M  V30 7833 C 768.019 -4.34587 0.495283 0
M  V30 7834 C 767.078 -5.25502 -0.270995 0
M  V30 7835 O 766.104 -5.68227 0.332661 0
M  V30 7836 N 767.306 -5.59077 -1.56249 0
M  V30 7837 H 770.071 -2.69932 1.30218 0
M  V30 7838 H 767.632 -1.38907 0.83166 0
M  V30 7839 H 769.624 -3.94542 -0.90103 0
M  V30 7840 H 768.194 -2.91045 -1.14067 0
M  V30 7841 H 767.414 -3.75593 1.19682 0
M  V30 7842 H 768.702 -4.96925 1.09285 0
M  V30 7843 H 768.1 -5.2628 -2.07476 0
M  V30 7844 H 766.657 -6.19421 -2.02882 0
M  V30 7845 N 770.09 -0.729906 -1.39679 0
M  V30 7846 C 771.318 -0.285709 -2.04918 0
M  V30 7847 C 771.733 1.07765 -1.55023 0
M  V30 7848 O 771.09 1.67999 -0.712923 0
M  V30 7849 C 771.141 -0.272793 -3.60469 0
M  V30 7850 O 770.862 -1.58233 -4.08527 0
M  V30 7851 C 772.363 0.188199 -4.429 0
M  V30 7852 H 769.583 -0.125758 -0.65911 0
M  V30 7853 H 772.127 -0.992129 -1.78821 0
M  V30 7854 H 770.282 0.384699 -3.85485 0
M  V30 7855 H 770.696 -1.49245 -5.02818 0
M  V30 7856 H 772.17 0.14608 -5.51807 0
M  V30 7857 H 772.647 1.2326 -4.21549 0
M  V30 7858 H 773.253 -0.439541 -4.23023 0
M  V30 7859 N 771.568 1.50203 -0.477153 0
M  V30 7860 C 772.814 2.02658 0.0758507 0
M  V30 7861 C 773.147 1.358 1.38824 0
M  V30 7862 O 772.422 0.485696 1.88338 0
M  V30 7863 C 772.705 3.59208 0.253339 0
M  V30 7864 C 772.558 4.36629 -1.0805 0
M  V30 7865 C 773.877 4.28469 1.00509 0
M  V30 7866 H 770.996 0.736538 0.0260921 0
M  V30 7867 H 773.638 1.79464 -0.623925 0
M  V30 7868 H 771.788 3.79101 0.849378 0
M  V30 7869 H 773.46 4.28292 -1.71358 0
M  V30 7870 H 771.703 4.0013 -1.67566 0
M  V30 7871 H 772.374 5.44449 -0.909883 0
M  V30 7872 H 774.85 4.13087 0.499818 0
M  V30 7873 H 773.726 5.37804 1.09808 0
M  V30 7874 H 773.987 3.92057 2.04314 0
M  V30 7875 N 773.046 0.209999 1.56195 0
M  V30 7876 C 773.978 -0.736967 2.17029 0
M  V30 7877 C 774.991 -1.16599 1.13616 0
M  V30 7878 O 776.18 -1.09914 1.40646 0
M  V30 7879 C 773.28 -2.00852 2.72969 0
M  V30 7880 C 772.453 -1.73691 4.01435 0
M  V30 7881 C 771.512 -2.85439 4.42053 0
M  V30 7882 O 770.538 -2.54405 5.09183 0
M  V30 7883 N 771.74 -4.14135 4.06783 0
M  V30 7884 H 774.505 -0.216656 2.98916 0
M  V30 7885 H 772.066 0.0285672 1.61875 0
M  V30 7886 H 774.058 -2.74778 2.97118 0
M  V30 7887 H 772.628 -2.43963 1.95451 0
M  V30 7888 H 771.848 -0.834676 3.85262 0
M  V30 7889 H 773.136 -1.52961 4.85263 0
M  V30 7890 H 772.534 -4.42196 3.52816 0
M  V30 7891 H 771.091 -4.84642 4.35851 0
M  V30 7892 N 774.524 -1.57472 -0.0634922 0
M  V30 7893 C 775.456 -2.00999 -1.10145 0
M  V30 7894 C 776.469 -0.917219 -1.34503 0
M  V30 7895 O 777.658 -1.19501 -1.32596 0
M  V30 7896 C 774.758 -2.34089 -2.45063 0
M  V30 7897 C 773.931 -3.65317 -2.40546 0
M  V30 7898 C 772.99 -3.85982 -3.57637 0
M  V30 7899 O 772.016 -4.5747 -3.38689 0
M  V30 7900 N 773.218 -3.28971 -4.78287 0
M  V30 7901 H 775.983 -2.90656 -0.730714 0
M  V30 7902 H 773.544 -1.59926 -0.252017 0
M  V30 7903 H 775.536 -2.4508 -3.22053 0
M  V30 7904 H 774.106 -1.50279 -2.74107 0
M  V30 7905 H 773.326 -3.65003 -1.48885 0
M  V30 7906 H 774.614 -4.51468 -2.34636 0
M  V30 7907 H 774.012 -2.70962 -4.96584 0
M  V30 7908 H 772.569 -3.45398 -5.5276 0
M  V30 7909 N 776.003 0.335068 -1.53997 0
M  V30 7910 C 776.935 1.4327 -1.78903 0
M  V30 7911 C 777.948 1.48347 -0.670598 0
M  V30 7912 O 779.137 1.51277 -0.947494 0
M  V30 7913 C 776.237 2.81878 -1.88144 0
M  V30 7914 C 775.41 3.00141 -3.18174 0
M  V30 7915 C 774.469 4.19041 -3.18263 0
M  V30 7916 O 773.495 4.12751 -3.9195 0
M  V30 7917 N 774.697 5.28004 -2.41231 0
M  V30 7918 H 777.462 1.22272 -2.73623 0
M  V30 7919 H 775.023 0.524996 -1.53152 0
M  V30 7920 H 777.015 3.59609 -1.85644 0
M  V30 7921 H 775.585 2.9598 -1.00572 0
M  V30 7922 H 774.805 2.09808 -3.33728 0
M  V30 7923 H 776.093 3.0923 -4.04047 0
M  V30 7924 H 775.491 5.35986 -1.8093 0
M  V30 7925 H 774.048 6.04196 -2.44521 0
M  V30 7926 N 777.481 1.45874 0.596531 0
M  V30 7927 C 778.892 1.44798 1.17857 0
M  V30 7928 C 779.243 0.181443 1.95359 0
M  V30 7929 O 778.368 -0.716336 2.042 0
M  V30 7930 C 778.963 2.62333 2.14398 0
M  V30 7931 C 777.522 2.64342 2.67955 0
M  V30 7932 C 776.669 2.37244 1.43564 0
M  V30 7933 H 779.62 1.53954 0.385222 0
M  V30 7934 H 779.641 2.37063 2.97626 0
M  V30 7935 H 779.153 3.54499 1.57963 0
M  V30 7936 H 777.254 1.76213 3.28298 0
M  V30 7937 H 777.367 3.63897 3.11634 0
M  V30 7938 H 775.731 1.87022 1.72901 0
M  V30 7939 H 776.514 3.31568 0.889805 0
M  V30 7940 N 778.959 -0.83999 1.33349 0
M  V30 7941 C 779.889 -1.965 1.26135 0
M  V30 7942 C 780.87 -1.69505 0.142152 0
M  V30 7943 O 782.055 -1.91346 0.331743 0
M  V30 7944 C 779.185 -3.32632 0.99866 0
M  V30 7945 C 778.139 -3.74021 2.08068 0
M  V30 7946 C 777.465 -5.07947 1.67014 0
M  V30 7947 C 778.765 -3.87925 3.49731 0
M  V30 7948 H 780.459 -2.02793 2.20262 0
M  V30 7949 H 778.005 -0.974297 1.06035 0
M  V30 7950 H 779.958 -4.10903 0.934696 0
M  V30 7951 H 778.682 -3.26593 0.0217759 0
M  V30 7952 H 777.341 -2.98012 2.13505 0
M  V30 7953 H 776.989 -4.98378 0.680316 0
M  V30 7954 H 776.689 -5.36611 2.39422 0
M  V30 7955 H 778.213 -5.88695 1.62082 0
M  V30 7956 H 779.627 -4.5651 3.46802 0
M  V30 7957 H 778.024 -4.28023 4.20614 0
M  V30 7958 H 779.094 -2.90407 3.88319 0
M  V30 7959 N 780.437 -1.16799 -1.0581 0
M  V30 7960 C 781.4 -0.881396 -2.11575 0
M  V30 7961 C 782.4 0.12574 -1.60308 0
M  V30 7962 O 783.59 -0.105716 -1.73879 0
M  V30 7963 C 780.722 -0.319037 -3.39404 0
M  V30 7964 H 781.915 -1.81907 -2.38432 0
M  V30 7965 H 779.468 -0.977597 -1.21954 0
M  V30 7966 H 780.203 0.626082 -3.18199 0
M  V30 7967 H 779.988 -1.04481 -3.77923 0
M  V30 7968 H 781.478 -0.13663 -4.17376 0
M  V30 7969 N 781.915 1.24427 -0.967243 0
M  V30 7970 C 783.163 1.92107 -0.627638 0
M  V30 7971 C 783.484 1.75991 0.83978 0
M  V30 7972 O 782.754 1.13118 1.59941 0
M  V30 7973 H 781.334 0.710986 -0.229145 0
M  V30 7974 H 783.996 1.51331 -1.22821 0
M  V30 7975 H 783.092 2.99791 -0.867844 0
M  V30 7976 N 783.393 0.737304 1.3929 0
M  V30 7977 C 784.618 0.295237 2.05288 0
M  V30 7978 C 785.043 -1.06235 1.55228 0
M  V30 7979 O 784.401 -1.67365 0.697043 0
M  V30 7980 C 784.449 0.309146 3.59272 0
M  V30 7981 O 783.553 -0.702437 4.06374 0
M  V30 7982 H 782.894 0.133762 0.650387 0
M  V30 7983 H 785.424 1.00387 1.78279 0
M  V30 7984 H 785.434 0.154336 4.07708 0
M  V30 7985 H 784.109 1.29974 3.95069 0
M  V30 7986 H 782.686 -0.513574 3.69346 0
M  V30 7987 N 784.871 -1.49948 0.485112 0
M  V30 7988 C 786.287 -1.58984 0.140096 0
M  V30 7989 C 786.487 -1.49194 -1.35438 0
M  V30 7990 O 785.543 -1.35765 -2.12894 0
M  V30 7991 C 786.856 -2.92372 0.702769 0
M  V30 7992 C 788.404 -3.05801 0.66745 0
M  V30 7993 C 788.879 -4.41785 1.20791 0
M  V30 7994 N 790.37 -4.48234 1.16792 0
M  V30 7995 C 791.105 -5.51871 1.55646 0
M  V30 7996 N 790.601 -6.62692 2.02016 0
M  V30 7997 N 792.394 -5.42494 1.47161 0
M  V30 7998 H 784.545 -1.54555 1.45693 0
M  V30 7999 H 786.808 -0.731206 0.603359 0
M  V30 8000 H 786.514 -3.05056 1.75025 0
M  V30 8001 H 786.388 -3.76885 0.154205 0
M  V30 8002 H 788.775 -2.92757 -0.371157 0
M  V30 8003 H 788.856 -2.23011 1.25298 0
M  V30 8004 H 788.5 -4.55579 2.24522 0
M  V30 8005 H 788.43 -5.23188 0.598464 0
M  V30 8006 H 790.921 -3.68718 0.827982 0
M  V30 8007 H 791.234 -7.3785 2.29775 0
M  V30 8008 H 789.579 -6.63775 2.05979 0
M  V30 8009 H 792.77 -4.54806 1.10765 0
M  V30 8010 H 792.943 -6.2314 1.77766 0
M  V30 8011 N 786.349 -0.21828 -1.56081 0
M  V30 8012 C 787.765 0.137168 -1.59009 0
M  V30 8013 C 787.965 1.59215 -1.23503 0
M  V30 8014 O 787.021 2.33178 -0.968716 0
M  V30 8015 C 788.334 -0.186162 -3.00123 0
M  V30 8016 C 789.882 -0.128135 -3.12738 0
M  V30 8017 C 790.357 -0.425094 -4.56023 0
M  V30 8018 N 791.848 -0.374547 -4.61683 0
M  V30 8019 C 792.583 -0.57786 -5.70481 0
M  V30 8020 N 792.079 -0.842771 -6.87655 0
M  V30 8021 N 793.872 -0.510521 -5.59777 0
M  V30 8022 H 786.023 -1.16746 -1.77437 0
M  V30 8023 H 788.286 -0.467706 -0.824594 0
M  V30 8024 H 787.992 -1.19589 -3.30744 0
M  V30 8025 H 787.866 0.500388 -3.73866 0
M  V30 8026 H 790.253 0.872224 -2.81915 0
M  V30 8027 H 790.334 -0.848112 -2.41331 0
M  V30 8028 H 789.978 -1.42288 -4.87562 0
M  V30 8029 H 789.908 0.316038 -5.25651 0
M  V30 8030 H 792.399 -0.177356 -3.77484 0
M  V30 8031 H 792.712 -0.986095 -7.66483 0
M  V30 8032 H 791.057 -0.879929 -6.89407 0
M  V30 8033 H 794.248 -0.303813 -4.67113 0
M  V30 8034 H 794.421 -0.672378 -6.44502 0
M  V30 8035 N 787.827 1.57504 0.0551401 0
M  V30 8036 C 788.775 2.05884 1.08233 0
M  V30 8037 C 789.769 0.967383 1.39061 0
M  V30 8038 O 790.975 1.15242 1.38273 0
M  V30 8039 H 787.35 0.656673 0.366449 0
M  V30 8040 H 789.321 2.91273 0.648269 0
M  V30 8041 C 788.07 2.53221 2.38273 0
M  V30 8042 H 787.393 3.36809 2.15406 0
M  V30 8043 H 788.833 2.9081 3.08554 0
M  V30 8044 C 787.292 1.42218 3.05411 0
M  V30 8045 O 787.822 0.773638 3.9418 0
M  V30 8046 N 786.028 1.16316 2.66306 0
M  V30 8047 H 785.575 1.69237 1.94207 0
M  V30 8048 H 785.533 0.422534 3.11548 0
M  V30 8049 N 789.305 -0.326896 1.54172 0
M  V30 8050 C 790.237 -1.42319 1.79661 0
M  V30 8051 C 791.25 -1.47989 0.678456 0
M  V30 8052 O 792.439 -1.50773 0.955503 0
M  V30 8053 C 789.539 -2.80876 1.89636 0
M  V30 8054 C 788.712 -2.98449 3.19761 0
M  V30 8055 C 787.771 -4.17347 3.2048 0
M  V30 8056 O 786.797 -4.10667 3.94134 0
M  V30 8057 N 787.999 -5.26717 2.44027 0
M  V30 8058 H 790.764 -1.20819 2.74268 0
M  V30 8059 H 788.325 -0.516866 1.53428 0
M  V30 8060 H 790.317 -3.58619 1.87549 0
M  V30 8061 H 788.887 -2.95442 1.02141 0
M  V30 8062 H 788.107 -2.08035 3.34836 0
M  V30 8063 H 789.395 -3.07083 4.05681 0
M  V30 8064 H 788.793 -5.35019 1.8377 0
M  V30 8065 H 787.35 -6.02891 2.47721 0
M  V30 8066 N 790.784 -1.46188 -0.588786 0
M  V30 8067 C 791.694 -1.58865 -1.72624 0
M  V30 8068 C 792.71 -0.472348 -1.67466 0
M  V30 8069 O 793.886 -0.735638 -1.87484 0
M  V30 8070 C 790.951 -1.56989 -3.0912 0
M  V30 8071 C 790.012 -2.79804 -3.25589 0
M  V30 8072 C 789.245 -2.78009 -4.55573 0
M  V30 8073 O 789.468 -1.86406 -5.39082 0
M  V30 8074 O 788.402 -3.6947 -4.75159 0
M  V30 8075 H 792.228 -2.55047 -1.64878 0
M  V30 8076 H 789.813 -1.28912 -0.755115 0
M  V30 8077 H 791.695 -1.58618 -3.90408 0
M  V30 8078 H 790.37 -0.639648 -3.17317 0
M  V30 8079 H 789.277 -2.83732 -2.43818 0
M  V30 8080 H 790.61 -3.72017 -3.22279 0
M  V30 8081 N 792.262 0.832906 -1.33792 0
M  V30 8082 C 793.487 1.62568 -1.28788 0
M  V30 8083 C 793.912 1.87599 0.137246 0
M  V30 8084 O 793.27 1.44436 1.0958 0
M  V30 8085 C 793.318 2.9495 -2.07453 0
M  V30 8086 O 792.422 3.86546 -1.43722 0
M  V30 8087 H 791.763 0.494809 -0.442787 0
M  V30 8088 H 794.293 1.03578 -1.76445 0
M  V30 8089 H 794.303 3.44599 -2.1844 0
M  V30 8090 H 792.978 2.76055 -3.11073 0
M  V30 8091 H 791.555 3.45044 -1.41417 0
M  V30 8092 N 793.74 1.17359 1.05189 0
M  V30 8093 C 794.688 0.886527 2.15043 0
M  V30 8094 C 795.682 -0.148834 1.68745 0
M  V30 8095 O 796.888 -0.00175123 1.8 0
M  V30 8096 H 793.263 0.269147 0.702185 0
M  V30 8097 H 795.234 1.82016 2.36459 0
M  V30 8098 C 793.983 0.416333 3.45198 0
M  V30 8099 H 793.306 1.20449 3.81225 0
M  V30 8100 H 794.746 0.254362 4.23236 0
M  V30 8101 C 793.205 -0.866016 3.25579 0
M  V30 8102 O 793.735 -1.9328 3.52144 0
M  V30 8103 N 791.941 -0.814179 2.78961 0
M  V30 8104 H 791.488 0.0541618 2.57543 0
M  V30 8105 H 791.446 -1.67264 2.66214 0
M  V30 8106 N 795.218 -1.23913 0.973828 0
M  V30 8107 C 796.465 -1.92151 0.639079 0
M  V30 8108 C 796.793 -1.76064 -0.826545 0
M  V30 8109 O 796.048 -1.11126 -1.61088 0
M  V30 8110 C 796.347 -3.4406 0.967356 0
M  V30 8111 C 796.013 -3.80321 2.42212 0
M  V30 8112 C 794.675 -3.8993 2.81971 0
M  V30 8113 C 797.027 -3.97935 3.36596 0
M  V30 8114 C 794.355 -4.14575 4.15144 0
M  V30 8115 C 796.707 -4.24079 4.69404 0
M  V30 8116 C 795.371 -4.31908 5.08932 0
M  V30 8117 H 794.641 -0.70313 0.233856 0
M  V30 8118 H 797.288 -1.47072 1.22646 0
M  V30 8119 H 795.593 -3.90667 0.297807 0
M  V30 8120 H 797.29 -3.95077 0.686654 0
M  V30 8121 H 793.88 -3.73411 2.10385 0
M  V30 8122 H 798.064 -3.89908 3.07059 0
M  V30 8123 H 793.32 -4.18858 4.45385 0
M  V30 8124 H 797.494 -4.36652 5.42502 0
M  V30 8125 H 795.121 -4.50758 6.12145 0
M  V30 8126 N 796.696 -0.74468 -1.38897 0
M  V30 8127 C 797.644 -0.100312 -2.32384 0
M  V30 8128 C 798.638 0.715191 -1.53562 0
M  V30 8129 O 799.844 0.615288 -1.69157 0
M  V30 8130 H 796.219 -0.0136403 -0.751876 0
M  V30 8131 H 798.19 -0.905007 -2.84345 0
M  V30 8132 C 796.939 0.785432 -3.38713 0
M  V30 8133 H 796.262 0.167308 -3.9945 0
M  V30 8134 H 797.702 1.20374 -4.06554 0
M  V30 8135 C 796.161 1.92408 -2.76552 0
M  V30 8136 O 796.691 3.01752 -2.65157 0
M  V30 8137 N 794.897 1.71642 -2.34494 0
M  V30 8138 H 794.444 0.827079 -2.43961 0
M  V30 8139 H 794.402 2.48 -1.93244 0
M  V30 8140 N 798.174 1.49689 -0.493057 0
M  V30 8141 C 799.104 2.31826 0.279073 0
M  V30 8142 C 800.085 1.39733 0.969987 0
M  V30 8143 O 801.27 1.68646 0.962925 0
M  V30 8144 C 798.4 3.20046 1.34862 0
M  V30 8145 C 797.354 4.20869 0.77805 0
M  V30 8146 C 796.68 4.97971 1.94753 0
M  V30 8147 C 797.98 5.21813 -0.225543 0
M  V30 8148 H 799.674 2.96627 -0.406512 0
M  V30 8149 H 797.22 1.42647 -0.196943 0
M  V30 8150 H 799.173 3.76315 1.89645 0
M  V30 8151 H 797.897 2.53172 2.06328 0
M  V30 8152 H 796.556 3.65733 0.252036 0
M  V30 8153 H 796.204 4.27552 2.64969 0
M  V30 8154 H 795.904 5.66186 1.57187 0
M  V30 8155 H 797.428 5.57082 2.49984 0
M  V30 8156 H 798.842 5.72823 0.233864 0
M  V30 8157 H 797.239 5.97872 -0.516622 0
M  V30 8158 H 798.309 4.71209 -1.14412 0
M  V30 8159 N 799.652 0.226554 1.55963 0
M  V30 8160 C 800.88 -0.408507 2.02827 0
M  V30 8161 C 801.295 -1.52994 1.10627 0
M  V30 8162 O 800.652 -1.82126 0.116809 0
M  V30 8163 C 800.703 -0.93545 3.49187 0
M  V30 8164 O 800.424 0.141273 4.37872 0
M  V30 8165 C 801.925 -1.64325 4.11719 0
M  V30 8166 H 799.145 -0.099442 0.66359 0
M  V30 8167 H 801.689 0.344471 2.01578 0
M  V30 8168 H 799.844 -1.63868 3.51036 0
M  V30 8169 H 800.258 -0.25558 5.23877 0
M  V30 8170 H 801.732 -1.9639 5.15883 0
M  V30 8171 H 802.209 -2.55815 3.57009 0
M  V30 8172 H 802.815 -0.9851 4.13734 0
M  V30 8173 N 801.13 -1.57531 -0.0467866 0
M  V30 8174 C 802.08 -2.01845 -1.06031 0
M  V30 8175 C 803.064 -0.904662 -1.33059 0
M  V30 8176 O 804.256 -1.16858 -1.32941 0
M  V30 8177 C 801.385 -2.48673 -2.36679 0
M  V30 8178 C 800.471 -3.66837 -2.12818 0
M  V30 8179 N 800.862 -4.80172 -1.5896 0
M  V30 8180 C 799.16 -3.73869 -2.43183 0
M  V30 8181 C 799.861 -5.61895 -1.50494 0
M  V30 8182 N 798.837 -5.0648 -1.97431 0
M  V30 8183 H 802.639 -2.869 -0.637623 0
M  V30 8184 H 800.153 -1.6041 -0.253427 0
M  V30 8185 H 802.15 -2.78671 -3.10077 0
M  V30 8186 H 800.81 -1.65016 -2.79642 0
M  V30 8187 H 801.821 -5.01967 -1.27474 0
M  V30 8188 H 798.498 -3.00977 -2.89342 0
M  V30 8189 H 799.888 -6.62918 -1.09494 0
M  V30 8190 N 802.608 0.318715 -1.54344 0
M  V30 8191 C 803.838 1.07394 -1.76494 0
M  V30 8192 C 804.246 1.82031 -0.515881 0
M  V30 8193 O 803.589 1.7609 0.52325 0
M  V30 8194 C 803.651 2.11401 -2.90775 0
M  V30 8195 C 803.315 1.56118 -4.29507 0
M  V30 8196 C 804.312 1.00043 -5.10184 0
M  V30 8197 C 801.997 1.60215 -4.76063 0
M  V30 8198 C 803.991 0.487993 -6.35529 0
M  V30 8199 C 801.678 1.08584 -6.01376 0
M  V30 8200 C 802.676 0.529714 -6.80943 0
M  V30 8201 O 802.364 0.0211823 -8.03897 0
M  V30 8202 H 802.096 0.325061 -0.592715 0
M  V30 8203 H 804.65 0.36901 -2.02058 0
M  V30 8204 H 802.88 2.85524 -2.60793 0
M  V30 8205 H 804.569 2.72683 -3.00664 0
M  V30 8206 H 805.335 0.961811 -4.75367 0
M  V30 8207 H 801.214 2.02441 -4.14172 0
M  V30 8208 H 804.758 0.0532608 -6.9758 0
M  V30 8209 H 800.655 1.12155 -6.35682 0
M  V30 8210 H 801.423 0.136151 -8.18387 0
M  V30 8211 N 804.086 1.46499 0.581025 0
M  V30 8212 C 805.334 1.51596 1.33653 0
M  V30 8213 C 805.655 0.169859 1.94259 0
M  V30 8214 O 804.925 -0.803776 1.78651 0
M  V30 8215 H 803.505 0.558346 0.496244 0
M  V30 8216 H 806.167 1.8264 0.680338 0
M  V30 8217 H 805.263 2.26956 2.14237 0
M  V30 8218 N 805.565 -0.825799 1.34232 0
M  V30 8219 C 806.793 -1.61363 1.29497 0
M  V30 8220 C 807.208 -1.88341 -0.131536 0
M  V30 8221 O 806.565 -1.47279 -1.07773 0
M  V30 8222 C 806.616 -2.95623 2.08061 0
M  V30 8223 O 806.337 -2.69824 3.45147 0
M  V30 8224 C 807.838 -3.90032 2.10688 0
M  V30 8225 H 805.058 -0.501676 0.445603 0
M  V30 8226 H 807.602 -1.02767 1.76803 0
M  V30 8227 H 805.757 -3.50785 1.64404 0
M  V30 8228 H 806.171 -3.55412 3.85723 0
M  V30 8229 H 807.645 -4.81411 2.70087 0
M  V30 8230 H 808.122 -4.25188 1.10052 0
M  V30 8231 H 808.728 -3.40807 2.54422 0
M  V30 8232 N 807.043 -1.17915 -1.04565 0
M  V30 8233 C 807.975 -0.859359 -2.1248 0
M  V30 8234 C 808.988 0.140922 -1.62189 0
M  V30 8235 O 810.177 -0.0862361 -1.78292 0
M  V30 8236 C 807.277 -0.261811 -3.37887 0
M  V30 8237 C 806.45 -1.30651 -4.17431 0
M  V30 8238 C 805.509 -0.725575 -5.21174 0
M  V30 8239 O 804.535 -1.39901 -5.51739 0
M  V30 8240 N 805.737 0.479351 -5.78517 0
M  V30 8241 H 808.502 -1.78818 -2.40508 0
M  V30 8242 H 806.063 -1.07885 -1.20716 0
M  V30 8243 H 808.055 0.14028 -4.04457 0
M  V30 8244 H 806.625 0.570929 -3.07342 0
M  V30 8245 H 805.845 -1.88412 -3.46258 0
M  V30 8246 H 807.133 -2.01099 -4.67372 0
M  V30 8247 H 806.531 1.04431 -5.55977 0
M  V30 8248 H 805.088 0.823427 -6.46578 0
M  V30 8249 N 808.521 1.23394 -0.980386 0
M  V30 8250 C 809.453 2.24146 -0.478657 0
M  V30 8251 C 810.466 1.57303 0.419492 0
M  V30 8252 O 811.655 1.77094 0.223631 0
M  V30 8253 C 808.755 3.3732 0.326913 0
M  V30 8254 C 807.928 4.33744 -0.56436 0
M  V30 8255 C 806.987 5.25866 0.187358 0
M  V30 8256 O 806.013 5.67626 -0.423019 0
M  V30 8257 N 807.215 5.61492 1.47335 0
M  V30 8258 H 809.98 2.67826 -1.34496 0
M  V30 8259 H 807.541 1.37566 -0.853653 0
M  V30 8260 H 809.533 3.95926 0.838148 0
M  V30 8261 H 808.103 2.92823 1.09422 0
M  V30 8262 H 807.323 3.73641 -1.25642 0
M  V30 8263 H 808.611 4.95123 -1.17177 0
M  V30 8264 H 808.009 5.29514 1.99077 0
M  V30 8265 H 806.566 6.2257 1.93002 0
M  V30 8266 N 809.999 0.752036 1.385 0
M  V30 8267 C 811.248 0.304294 1.99391 0
M  V30 8268 C 811.561 -1.11982 1.60373 0
M  V30 8269 O 812.767 -1.66795 2.14223 0
M  V30 8270 C 811.223 0.493101 3.56506 0
M  V30 8271 C 810.831 1.9262 4.04477 0
M  V30 8272 C 812.575 0.107994 4.24363 0
M  V30 8273 C 810.482 2.06365 5.54227 0
M  V30 8274 H 809.412 0.110024 0.745929 0
M  V30 8275 H 812.063 0.928355 1.58284 0
M  V30 8276 H 810.445 -0.20012 3.95494 0
M  V30 8277 H 811.619 2.65276 3.76783 0
M  V30 8278 H 809.934 2.26608 3.49339 0
M  V30 8279 H 812.531 0.189474 5.34364 0
M  V30 8280 H 812.874 -0.939165 4.05568 0
M  V30 8281 H 813.407 0.753011 3.90608 0
M  V30 8282 H 810.146 3.0933 5.77923 0
M  V30 8283 H 809.666 1.38167 5.83669 0
M  V30 8284 H 811.345 1.85286 6.19902 0
M  V30 8285 N 811.477 -1.49425 0.500989 0
M  V30 8286 C 812.888 -1.86624 0.0532011 0
M  V30 8287 C 813.239 -1.41331 -1.36088 0
M  V30 8288 O 812.364 -0.791195 -2.01418 0
M  V30 8289 C 812.959 -3.38681 0.0897693 0
M  V30 8290 C 811.518 -3.75181 -0.302677 0
M  V30 8291 C 810.665 -2.73419 0.462307 0
M  V30 8292 H 813.616 -1.41743 0.713773 0
M  V30 8293 H 813.637 -3.73902 -0.705528 0
M  V30 8294 H 813.149 -3.71616 1.11907 0
M  V30 8295 H 811.25 -3.47855 -1.33521 0
M  V30 8296 H 811.363 -4.79097 0.0167653 0
M  V30 8297 H 809.727 -2.54548 -0.0878557 0
M  V30 8298 H 810.51 -3.09198 1.49169 0
M  V30 8299 N 812.955 -0.234822 -1.55841 0
M  V30 8300 C 814.366 0.270588 -1.84729 0
M  V30 8301 C 814.717 1.58494 -1.15646 0
M  V30 8302 O 813.842 2.12071 -0.430667 0
M  V30 8303 C 814.437 0.497733 -3.35124 0
M  V30 8304 C 812.996 0.947428 -3.64281 0
M  V30 8305 C 812.143 0.01787 -2.77294 0
M  V30 8306 H 815.094 -0.457691 -1.51957 0
M  V30 8307 H 815.115 1.34199 -3.56049 0
M  V30 8308 H 814.627 -0.459037 -3.85376 0
M  V30 8309 H 812.728 1.91709 -3.19497 0
M  V30 8310 H 812.841 0.812651 -4.72158 0
M  V30 8311 H 811.205 0.527071 -2.49187 0
M  V30 8312 H 811.988 -0.934056 -3.30349 0
M  V30 8313 N 814.433 1.57553 0.0384317 0
M  V30 8314 C 815.396 2.04927 1.02653 0
M  V30 8315 C 816.396 0.951768 1.29607 0
M  V30 8316 O 817.586 1.21568 1.24768 0
M  V30 8317 C 814.718 2.45828 2.36181 0
M  V30 8318 H 815.911 2.93474 0.617508 0
M  V30 8319 H 813.464 1.53679 0.285031 0
M  V30 8320 H 814.199 1.60408 2.8185 0
M  V30 8321 H 813.984 3.25945 2.1795 0
M  V30 8322 H 815.474 2.82939 3.0714 0
M  V30 8323 N 815.911 -0.310526 1.54511 0
M  V30 8324 C 817.141 -1.06456 1.77061 0
M  V30 8325 C 817.549 -1.81755 0.525528 0
M  V30 8326 O 816.892 -1.76365 -0.513904 0
M  V30 8327 C 816.954 -2.09856 2.91892 0
M  V30 8328 C 816.618 -1.53838 4.30329 0
M  V30 8329 C 817.615 -0.973358 5.10707 0
M  V30 8330 C 815.3 -1.57688 4.76906 0
M  V30 8331 C 817.294 -0.454283 6.35779 0
M  V30 8332 C 814.981 -1.05393 6.01943 0
M  V30 8333 C 815.979 -0.493595 6.81214 0
M  V30 8334 O 815.667 0.0214506 8.03897 0
M  V30 8335 H 815.399 -0.321913 0.594431 0
M  V30 8336 H 817.953 -0.358289 2.02251 0
M  V30 8337 H 816.183 -2.84137 2.62304 0
M  V30 8338 H 817.872 -2.71085 3.02106 0
M  V30 8339 H 818.638 -0.936588 4.75871 0
M  V30 8340 H 814.517 -2.00242 4.1524 0
M  V30 8341 H 818.061 -0.0162657 6.97598 0
M  V30 8342 H 813.958 -1.08782 6.36268 0
M  V30 8343 H 814.726 -0.0927478 8.18447 0
M  V30 8344 N 817.389 -1.46805 -0.573248 0
M  V30 8345 C 818.336 -1.58084 -1.68161 0
M  V30 8346 C 819.306 -0.424636 -1.6058 0
M  V30 8347 O 820.491 -0.642623 -1.79652 0
M  V30 8348 C 817.631 -1.58601 -3.06496 0
M  V30 8349 C 816.744 -2.85023 -3.24632 0
M  V30 8350 C 815.879 -2.76981 -4.53271 0
M  V30 8351 C 814.918 -3.983 -4.64783 0
M  V30 8352 N 814.055 -3.88589 -5.84759 0
M  V30 8353 H 818.895 -2.52755 -1.57858 0
M  V30 8354 H 816.432 -1.25385 -0.769218 0
M  V30 8355 H 818.39 -1.56885 -3.86579 0
M  V30 8356 H 817.02 -0.674553 -3.15673 0
M  V30 8357 H 816.072 -2.96678 -2.38089 0
M  V30 8358 H 817.384 -3.7491 -3.29004 0
M  V30 8359 H 816.538 -2.73424 -5.41594 0
M  V30 8360 H 815.277 -1.84751 -4.51352 0
M  V30 8361 H 814.282 -4.02179 -3.74876 0
M  V30 8362 H 815.507 -4.91639 -4.68474 0
M  V30 8363 H 813.453 -2.99151 -5.83819 0
M  V30 8364 H 813.37 -4.7214 -5.90441 0
M  V30 8365 H 814.638 -3.89022 -6.75486 0
M  V30 8366 N 818.867 0.818669 -1.34668 0
M  V30 8367 C 820.144 1.56118 -1.17841 0
M  V30 8368 C 820.524 2.09646 0.24731 0
M  V30 8369 O 819.872 1.91329 1.24922 0
M  V30 8370 C 820.082 2.67922 -2.23649 0
M  V30 8371 C 821.43 3.36579 -2.58843 0
M  V30 8372 O 822.454 2.78182 -2.22471 0
M  V30 8373 O 821.313 4.42045 -3.21339 0
M  V30 8374 H 818.407 0.689216 -0.457067 0
M  V30 8375 H 820.953 0.859674 -1.46314 0
M  V30 8376 H 819.725 2.26153 -3.19328 0
M  V30 8377 H 819.348 3.45719 -1.96377 0
M  V30 8378 N 820.346 1.18468 1.03938 0
M  V30 8379 C 821.276 0.936389 2.13902 0
M  V30 8380 C 822.257 -0.126381 1.6963 0
M  V30 8381 O 823.442 0.0264757 1.94182 0
M  V30 8382 C 820.572 0.462729 3.44204 0
M  V30 8383 C 819.526 1.46613 4.02105 0
M  V30 8384 C 818.852 0.84994 5.27902 0
M  V30 8385 C 820.152 2.84323 4.3813 0
M  V30 8386 H 821.846 1.85602 2.3493 0
M  V30 8387 H 819.392 0.893806 1.12903 0
M  V30 8388 H 821.345 0.276382 4.20493 0
M  V30 8389 H 820.069 -0.492477 3.22866 0
M  V30 8390 H 818.728 1.63944 3.27899 0
M  V30 8391 H 818.376 -0.112493 5.02874 0
M  V30 8392 H 818.076 1.51988 5.67603 0
M  V30 8393 H 819.6 0.674152 6.06867 0
M  V30 8394 H 821.014 2.70636 5.054 0
M  V30 8395 H 819.411 3.48012 4.88884 0
M  V30 8396 H 820.481 3.37776 3.47901 0
M  V30 8397 N 821.824 -1.22873 0.986916 0
M  V30 8398 C 822.787 -2.2281 0.537442 0
M  V30 8399 C 823.787 -1.56331 -0.37646 0
M  V30 8400 O 824.977 -1.73376 -0.169247 0
M  V30 8401 C 822.109 -3.40195 -0.219082 0
M  V30 8402 H 823.302 -2.64089 1.42116 0
M  V30 8403 H 820.855 -1.35819 0.773488 0
M  V30 8404 H 821.59 -3.04381 -1.11905 0
M  V30 8405 H 821.375 -3.89657 0.437026 0
M  V30 8406 H 822.865 -4.14326 -0.521926 0
M  V30 8407 N 823.302 -0.75937 -1.38099 0
M  V30 8408 C 824.212 -0.13774 -2.34195 0
M  V30 8409 C 825.228 0.693985 -1.59561 0
M  V30 8410 O 826.404 0.616792 -1.91723 0
M  V30 8411 C 823.469 0.740535 -3.38699 0
M  V30 8412 C 822.53 -0.106225 -4.29169 0
M  V30 8413 C 821.763 0.730225 -5.28681 0
M  V30 8414 O 821.986 1.96796 -5.35376 0
M  V30 8415 O 820.92 0.145969 -6.01723 0
M  V30 8416 H 824.746 -0.931512 -2.89061 0
M  V30 8417 H 822.331 -0.520345 -1.40046 0
M  V30 8418 H 824.213 1.24232 -4.02672 0
M  V30 8419 H 822.888 1.51271 -2.8618 0
M  V30 8420 H 821.795 -0.654088 -3.68337 0
M  V30 8421 H 823.128 -0.841186 -4.84959 0
M  V30 8422 N 824.78 1.49157 -0.508906 0
M  V30 8423 C 826.191 1.86593 -0.0630975 0
M  V30 8424 C 826.542 1.42051 1.35337 0
M  V30 8425 O 825.667 0.801866 2.00995 0
M  V30 8426 C 826.262 3.38629 -0.107729 0
M  V30 8427 C 824.821 3.75336 0.282776 0
M  V30 8428 C 823.968 2.7317 -0.4768 0
M  V30 8429 H 826.919 1.41362 -0.72128 0
M  V30 8430 H 826.94 3.74271 0.685689 0
M  V30 8431 H 826.452 3.71017 -1.13876 0
M  V30 8432 H 824.553 3.48558 1.31675 0
M  V30 8433 H 824.666 4.79081 -0.0421728 0
M  V30 8434 H 823.03 2.54591 0.0743552 0
M  V30 8435 H 823.813 3.08403 -1.50807 0
M  V30 8436 N 826.258 0.243083 1.55714 0
M  V30 8437 C 827.504 -0.376428 1.99886 0
M  V30 8438 C 827.859 -1.55843 1.12831 0
M  V30 8439 O 827.152 -1.90724 0.182996 0
M  V30 8440 C 827.346 -0.839621 3.47398 0
M  V30 8441 C 827.175 0.295954 4.48725 0
M  V30 8442 C 825.945 0.769392 4.99408 0
M  V30 8443 C 828.143 1.12165 5.0192 0
M  V30 8444 N 826.125 1.87778 5.84477 0
M  V30 8445 C 827.496 2.07848 5.84123 0
M  V30 8446 C 829.551 1.15864 4.84231 0
M  V30 8447 C 828.254 3.06937 6.50524 0
M  V30 8448 C 830.28 2.13782 5.51409 0
M  V30 8449 C 829.642 3.08202 6.33396 0
M  V30 8450 H 825.741 -0.103809 0.775079 0
M  V30 8451 H 828.325 0.359788 1.91347 0
M  V30 8452 H 826.496 -1.54514 3.56343 0
M  V30 8453 H 828.228 -1.43376 3.78451 0
M  V30 8454 H 824.983 0.354201 4.72274 0
M  V30 8455 H 825.407 2.43462 6.31708 0
M  V30 8456 H 830.049 0.442532 4.20478 0
M  V30 8457 H 827.767 3.79499 7.13447 0
M  V30 8458 H 831.353 2.17345 5.39678 0
M  V30 8459 H 830.233 3.82732 6.8446 0
M  V30 8460 N 827.736 -1.57571 -0.0300757 0
M  V30 8461 C 828.985 -1.88407 -0.720126 0
M  V30 8462 C 829.298 -0.841466 -1.76575 0
M  V30 8463 O 830.504 -1.03902 -2.50832 0
M  V30 8464 C 828.96 -3.34348 -1.33188 0
M  V30 8465 C 828.568 -4.46837 -0.32266 0
M  V30 8466 C 830.312 -3.74333 -2.00187 0
M  V30 8467 C 828.219 -5.83838 -0.942703 0
M  V30 8468 H 827.149 -0.702952 -0.272718 0
M  V30 8469 H 829.8 -1.83482 0.0255337 0
M  V30 8470 H 828.182 -3.34014 -2.12721 0
M  V30 8471 H 829.356 -4.58638 0.445887 0
M  V30 8472 H 827.671 -4.15678 0.245181 0
M  V30 8473 H 830.268 -4.74008 -2.47428 0
M  V30 8474 H 830.611 -3.06275 -2.81959 0
M  V30 8475 H 831.144 -3.76837 -1.2743 0
M  V30 8476 H 827.883 -6.55294 -0.164413 0
M  V30 8477 H 827.403 -5.75759 -1.68111 0
M  V30 8478 H 829.082 -6.30535 -1.45034 0
M  V30 8479 N 829.214 0.302327 -1.54673 0
M  V30 8480 C 830.146 1.39443 -1.81902 0
M  V30 8481 C 831.159 1.46891 -0.701914 0
M  V30 8482 O 832.348 1.49233 -0.979369 0
M  V30 8483 C 829.448 2.77824 -1.9408 0
M  V30 8484 C 828.621 2.93324 -3.24468 0
M  V30 8485 C 827.68 4.12196 -3.27079 0
M  V30 8486 O 826.706 4.04344 -4.00617 0
M  V30 8487 N 827.908 5.22768 -2.52376 0
M  V30 8488 H 830.673 1.1644 -2.76155 0
M  V30 8489 H 828.234 0.492392 -1.54231 0
M  V30 8490 H 830.226 3.5559 -1.9323 0
M  V30 8491 H 828.796 2.9378 -1.06828 0
M  V30 8492 H 828.016 2.02682 -3.38103 0
M  V30 8493 H 829.304 3.0059 -4.10516 0
M  V30 8494 H 828.702 5.32027 -1.92259 0
M  V30 8495 H 827.259 5.98874 -2.57281 0
M  V30 8496 N 830.692 1.47107 0.565454 0
M  V30 8497 C 831.938 1.53535 1.32495 0
M  V30 8498 C 832.271 0.193537 1.93233 0
M  V30 8499 O 831.546 -0.796956 1.77423 0
M  V30 8500 C 831.829 2.64712 2.4413 0
M  V30 8501 C 831.682 4.08482 1.88314 0
M  V30 8502 C 833.001 2.71853 3.46098 0
M  V30 8503 H 830.12 0.558926 0.480386 0
M  V30 8504 H 832.762 1.79125 0.633575 0
M  V30 8505 H 830.912 2.43023 3.03104 0
M  V30 8506 H 832.584 4.4151 1.33665 0
M  V30 8507 H 830.827 4.17148 1.19037 0
M  V30 8508 H 831.498 4.82032 2.68978 0
M  V30 8509 H 833.974 2.91397 2.97031 0
M  V30 8510 H 832.85 3.51433 4.21646 0
M  V30 8511 H 833.111 1.78584 4.04426 0
M  V30 8512 N 832.17 -0.811516 1.35101 0
M  V30 8513 C 833.417 -1.56835 1.28098 0
M  V30 8514 C 833.745 -1.93951 -0.14597 0
M  V30 8515 O 833 -1.61173 -1.11004 0
M  V30 8516 C 833.299 -2.87121 2.1283 0
M  V30 8517 C 832.965 -2.69245 3.61688 0
M  V30 8518 C 831.627 -2.64078 4.02264 0
M  V30 8519 C 833.979 -2.52122 4.56162 0
M  V30 8520 C 831.307 -2.39724 5.3549 0
M  V30 8521 C 833.659 -2.29298 5.89581 0
M  V30 8522 C 832.323 -2.2255 6.29307 0
M  V30 8523 H 831.593 -0.5739 0.468742 0
M  V30 8524 H 834.24 -0.93806 1.66951 0
M  V30 8525 H 832.545 -3.54502 1.66841 0
M  V30 8526 H 834.242 -3.44788 2.0475 0
M  V30 8527 H 830.832 -2.74112 3.29485 0
M  V30 8528 H 835.016 -2.5513 4.25702 0
M  V30 8529 H 830.272 -2.32965 5.65276 0
M  V30 8530 H 834.446 -2.15038 6.62368 0
M  V30 8531 H 832.073 -2.0344 7.32473 0
M  V30 8532 N 833.648 -1.19017 -1.03309 0
M  V30 8533 C 834.896 -0.988258 -1.76289 0
M  V30 8534 C 835.217 0.482557 -1.88935 0
M  V30 8535 O 834.487 1.34969 -1.41987 0
M  V30 8536 H 833.067 -0.36267 -0.653054 0
M  V30 8537 H 835.729 -1.49836 -1.2464 0
M  V30 8538 H 834.825 -1.43273 -2.77271 0
M  V30 8539 N 835.127 1.22348 -0.993418 0
M  V30 8540 C 836.06 2.22898 -0.489073 0
M  V30 8541 C 837.038 1.56222 0.450927 0
M  V30 8542 O 838.222 1.84705 0.376351 0
M  V30 8543 C 835.349 3.37448 0.290946 0
M  V30 8544 C 834.395 4.22328 -0.595123 0
M  V30 8545 S 835.228 4.94677 -2.05072 0
M  V30 8546 C 836.384 6.12667 -1.28021 0
M  V30 8547 H 836.617 2.65333 -1.34111 0
M  V30 8548 H 834.15 1.32032 -0.800429 0
M  V30 8549 H 836.108 4.03867 0.734944 0
M  V30 8550 H 834.769 2.93519 1.11826 0
M  V30 8551 H 833.962 5.04 0.00507413 0
M  V30 8552 H 833.564 3.61043 -0.975906 0
M  V30 8553 H 835.856 6.75279 -0.548129 0
M  V30 8554 H 836.799 6.771 -2.07223 0
M  V30 8555 H 837.207 5.58898 -0.793272 0
M  V30 8556 N 836.605 0.766683 1.37694 0
M  V30 8557 C 837.515 0.150158 2.34119 0
M  V30 8558 C 838.531 -0.685513 1.59927 0
M  V30 8559 O 839.707 -0.606616 1.92047 0
M  V30 8560 C 836.772 -0.722562 3.39087 0
M  V30 8561 C 835.833 0.128983 4.29106 0
M  V30 8562 C 835.066 -0.702178 5.29061 0
M  V30 8563 O 835.289 -1.93954 5.36412 0
M  V30 8564 O 834.223 -0.114056 6.01792 0
M  V30 8565 H 838.049 0.946829 2.88563 0
M  V30 8566 H 835.634 0.527765 1.39768 0
M  V30 8567 H 837.516 -1.22095 4.03325 0
M  V30 8568 H 836.191 -1.49751 2.86978 0
M  V30 8569 H 835.098 0.673612 3.67985 0
M  V30 8570 H 836.431 0.866892 4.84506 0
M  V30 8571 N 838.083 -1.48885 0.516809 0
M  V30 8572 C 839.013 -2.32241 -0.242157 0
M  V30 8573 C 839.994 -1.41258 -0.947633 0
M  V30 8574 O 841.179 -1.70156 -0.935973 0
M  V30 8575 C 838.309 -3.22151 -1.29754 0
M  V30 8576 C 837.263 -4.22053 -0.710995 0
M  V30 8577 C 836.589 -5.01007 -1.86806 0
M  V30 8578 C 837.889 -5.21388 0.30853 0
M  V30 8579 H 839.583 -2.95943 0.453651 0
M  V30 8580 H 837.129 -1.42316 0.219612 0
M  V30 8581 H 839.082 -3.79284 -1.83634 0
M  V30 8582 H 837.806 -2.56423 -2.02274 0
M  V30 8583 H 836.465 -3.66087 -0.193819 0
M  V30 8584 H 836.113 -4.31713 -2.58133 0
M  V30 8585 H 835.813 -5.68615 -1.48159 0
M  V30 8586 H 837.337 -5.60989 -2.4109 0
M  V30 8587 H 838.751 -5.73122 -0.142703 0
M  V30 8588 H 837.148 -5.96975 0.611673 0
M  V30 8589 H 838.218 -4.69329 1.21894 0
M  V30 8590 N 839.561 -0.251338 -1.55583 0
M  V30 8591 C 840.807 0.37272 -1.99346 0
M  V30 8592 C 841.14 1.57266 -1.13934 0
M  V30 8593 O 840.415 1.9343 -0.20377 0
M  V30 8594 C 840.698 0.778245 -3.5159 0
M  V30 8595 C 840.551 -0.427394 -4.47765 0
M  V30 8596 C 841.87 1.62358 -4.09057 0
M  V30 8597 H 838.989 0.134002 -0.724715 0
M  V30 8598 H 841.631 -0.353536 -1.86682 0
M  V30 8599 H 839.781 1.39704 -3.62512 0
M  V30 8600 H 841.453 -1.06586 -4.48818 0
M  V30 8601 H 839.696 -1.06972 -4.20404 0
M  V30 8602 H 840.367 -0.10025 -5.51909 0
M  V30 8603 H 842.843 1.1012 -4.01264 0
M  V30 8604 H 841.719 1.87617 -5.1584 0
M  V30 8605 H 841.98 2.59688 -3.57791 0
M  V30 8606 N 841.039 1.57585 0.0217189 0
M  V30 8607 C 842.287 1.89231 0.709641 0
M  V30 8608 C 842.608 0.849964 1.75501 0
M  V30 8609 O 841.878 -0.115485 1.95559 0
M  V30 8610 H 840.458 0.69838 0.265092 0
M  V30 8611 H 843.12 1.94895 -0.0140688 0
M  V30 8612 H 842.216 2.88333 1.19459 0
M  V30 8613 N 842.517 -0.29412 1.54831 0
M  V30 8614 C 843.757 -1.03635 1.76179 0
M  V30 8615 C 844.121 -1.84251 0.539953 0
M  V30 8616 O 845.322 -2.61282 0.631295 0
M  V30 8617 C 843.593 -1.91275 3.01909 0
M  V30 8618 S 845.152 -2.7205 3.44288 0
M  V30 8619 H 841.97 -0.349403 0.619224 0
M  V30 8620 H 844.572 -0.309006 1.93042 0
M  V30 8621 H 843.276 -1.30937 3.88952 0
M  V30 8622 H 842.807 -2.68365 2.87652 0
M  V30 8623 H 844.822 -3.93791 3.01899 0
M  V30 8624 N 843.995 -1.47404 -0.557645 0
M  V30 8625 C 844.925 -1.62736 -1.67449 0
M  V30 8626 C 845.906 -0.476824 -1.6328 0
M  V30 8627 O 847.091 -0.706108 -1.80908 0
M  V30 8628 C 844.221 -1.641 -3.06086 0
M  V30 8629 C 843.175 -2.78377 -3.25101 0
M  V30 8630 C 842.501 -2.64812 -4.6452 0
M  V30 8631 C 843.801 -4.19971 -3.10518 0
M  V30 8632 H 845.495 -2.56232 -1.54873 0
M  V30 8633 H 843.041 -1.23312 -0.743649 0
M  V30 8634 H 844.994 -1.73417 -3.84063 0
M  V30 8635 H 843.718 -0.671652 -3.19619 0
M  V30 8636 H 842.377 -2.6857 -2.49531 0
M  V30 8637 H 842.025 -1.65906 -4.74852 0
M  V30 8638 H 841.725 -3.41477 -4.78191 0
M  V30 8639 H 843.249 -2.76057 -5.44633 0
M  V30 8640 H 844.663 -4.30757 -3.78313 0
M  V30 8641 H 843.06 -4.97419 -3.35699 0
M  V30 8642 H 844.13 -4.38369 -2.0727 0
M  V30 8643 N 845.473 0.80434 -1.35529 0
M  V30 8644 C 846.72 1.56154 -1.28927 0
M  V30 8645 C 847.048 1.94026 0.135682 0
M  V30 8646 O 846.303 1.61759 1.10148 0
M  V30 8647 C 846.602 2.85988 -2.14349 0
M  V30 8648 C 846.268 2.67323 -3.6311 0
M  V30 8649 C 844.93 2.61941 -4.03659 0
M  V30 8650 C 847.282 2.49699 -4.57493 0
M  V30 8651 C 844.61 2.3688 -5.36754 0
M  V30 8652 C 846.962 2.26168 -5.90788 0
M  V30 8653 C 845.626 2.19209 -6.30479 0
M  V30 8654 H 844.896 0.571407 -0.471779 0
M  V30 8655 H 847.543 0.929193 -1.67446 0
M  V30 8656 H 845.848 3.53612 -1.68718 0
M  V30 8657 H 847.545 3.43697 -2.06576 0
M  V30 8658 H 844.135 2.72361 -3.30934 0
M  V30 8659 H 848.319 2.52869 -4.27049 0
M  V30 8660 H 843.575 2.29964 -5.66504 0
M  V30 8661 H 847.749 2.11522 -6.63499 0
M  V30 8662 H 845.376 1.99553 -7.33541 0
M  V30 8663 N 846.951 1.19563 1.02676 0
M  V30 8664 C 848.176 1.02556 1.80269 0
M  V30 8665 C 848.601 -0.421056 1.83327 0
M  V30 8666 O 847.959 -1.30279 1.26084 0
M  V30 8667 C 848.007 1.60165 3.23078 0
M  V30 8668 O 847.111 0.832404 4.03912 0
M  V30 8669 H 846.452 0.362354 0.556413 0
M  V30 8670 H 848.982 1.58633 1.29216 0
M  V30 8671 H 848.992 1.6347 3.7382 0
M  V30 8672 H 847.667 2.65454 3.20167 0
M  V30 8673 H 846.244 0.872768 3.62543 0
M  V30 8674 N 848.429 -1.21819 0.999893 0
M  V30 8675 C 849.845 -1.42847 0.711824 0
M  V30 8676 C 850.045 -1.88391 -0.714928 0
M  V30 8677 O 849.101 -2.0422 -1.48494 0
M  V30 8678 C 850.414 -2.46417 1.72334 0
M  V30 8679 C 851.962 -2.60207 1.73958 0
M  V30 8680 C 852.437 -3.67005 2.73992 0
M  V30 8681 N 853.928 -3.7447 2.72628 0
M  V30 8682 C 854.663 -4.56718 3.46693 0
M  V30 8683 N 854.159 -5.42904 4.3038 0
M  V30 8684 N 855.952 -4.51094 3.35366 0
M  V30 8685 H 848.103 -0.905656 1.92124 0
M  V30 8686 H 850.366 -0.459893 0.828977 0
M  V30 8687 H 850.072 -2.19914 2.74465 0
M  V30 8688 H 849.946 -3.45137 1.52186 0
M  V30 8689 H 852.333 -2.8605 0.725217 0
M  V30 8690 H 852.414 -1.61739 1.98177 0
M  V30 8691 H 852.058 -3.41908 3.75582 0
M  V30 8692 H 851.988 -4.65058 2.4704 0
M  V30 8693 H 854.479 -3.12895 2.11909 0
M  V30 8694 H 854.792 -6.02704 4.83702 0
M  V30 8695 H 853.137 -5.42463 4.34464 0
M  V30 8696 H 856.328 -3.82791 2.69423 0
M  V30 8697 H 856.501 -5.1496 3.93344 0
M  V30 8698 N 849.908 -0.773975 -1.37286 0
M  V30 8699 C 850.856 -0.149581 -2.32119 0
M  V30 8700 C 851.85 0.682457 -1.55045 0
M  V30 8701 O 853.056 0.579269 -1.70424 0
M  V30 8702 H 849.431 -0.0295857 -0.751418 0
M  V30 8703 H 851.402 -0.965117 -2.82362 0
M  V30 8704 C 850.151 0.713409 -3.40302 0
M  V30 8705 H 849.474 0.0825416 -3.99715 0
M  V30 8706 H 850.914 1.11723 -4.09016 0
M  V30 8707 C 849.373 1.86498 -2.80571 0
M  V30 8708 O 849.903 2.9606 -2.71498 0
M  V30 8709 N 848.109 1.66629 -2.38082 0
M  V30 8710 H 847.656 0.775145 -2.45661 0
M  V30 8711 H 847.614 2.43845 -1.98461 0
M  V30 8712 N 851.386 1.48609 -0.524698 0
M  V30 8713 C 852.632 2.034 0.00323579 0
M  V30 8714 C 852.987 1.39513 1.32491 0
M  V30 8715 O 852.28 0.529876 1.84127 0
M  V30 8716 C 852.474 3.56906 0.187873 0
M  V30 8717 C 852.303 4.35674 -1.11436 0
M  V30 8718 C 851.073 4.76809 -1.67276 0
M  V30 8719 C 853.271 4.72814 -2.02365 0
M  V30 8720 N 851.253 5.40093 -2.91843 0
M  V30 8721 C 852.624 5.36062 -3.11508 0
M  V30 8722 C 854.679 4.54747 -2.02755 0
M  V30 8723 C 853.382 5.83154 -4.21099 0
M  V30 8724 C 855.408 5.02815 -3.11337 0
M  V30 8725 C 854.77 5.66084 -4.19199 0
M  V30 8726 H 850.869 0.780967 -0.0401842 0
M  V30 8727 H 853.453 1.81495 -0.704808 0
M  V30 8728 H 851.624 3.78645 0.864996 0
M  V30 8729 H 853.356 3.98335 0.714938 0
M  V30 8730 H 850.111 4.57754 -1.21483 0
M  V30 8731 H 850.535 5.76305 -3.55249 0
M  V30 8732 H 855.177 4.05217 -1.20661 0
M  V30 8733 H 852.895 6.31692 -5.03975 0
M  V30 8734 H 856.481 4.9063 -3.12688 0
M  V30 8735 H 855.361 6.02604 -5.01834 0
M  V30 8736 N 852.864 0.259585 1.55447 0
M  V30 8737 C 853.812 -0.6507 2.23313 0
M  V30 8738 C 854.806 -1.17014 1.22491 0
M  V30 8739 O 856.012 -1.12557 1.40467 0
M  V30 8740 H 852.387 -0.228354 0.71649 0
M  V30 8741 H 854.358 -0.0553039 2.98349 0
M  V30 8742 C 853.107 -1.83081 2.95596 0
M  V30 8743 H 852.43 -1.44027 3.72956 0
M  V30 8744 H 853.87 -2.44469 3.46426 0
M  V30 8745 C 852.329 -2.70976 2.00184 0
M  V30 8746 O 852.859 -3.70882 1.54304 0
M  V30 8747 N 851.065 -2.37813 1.67014 0
M  V30 8748 H 850.612 -1.5662 2.04519 0
M  V30 8749 H 850.57 -2.96896 1.03443 0
M  V30 8750 N 854.342 -1.57594 -0.0133615 0
M  V30 8751 C 855.588 -1.90262 -0.702019 0
M  V30 8752 C 855.921 -0.859219 -1.74158 0
M  V30 8753 O 855.196 0.123778 -1.94106 0
M  V30 8754 C 855.479 -3.3354 -1.35732 0
M  V30 8755 C 855.332 -4.48586 -0.330208 0
M  V30 8756 C 856.651 -3.76004 -2.28712 0
M  V30 8757 H 853.77 -0.691943 -0.253739 0
M  V30 8758 H 856.412 -1.89967 0.0351894 0
M  V30 8759 H 854.562 -3.33921 -1.98567 0
M  V30 8760 H 856.234 -4.6034 0.297433 0
M  V30 8761 H 854.477 -4.32394 0.348926 0
M  V30 8762 H 855.148 -5.45762 -0.827508 0
M  V30 8763 H 857.624 -3.77089 -1.75906 0
M  V30 8764 H 856.5 -4.77032 -2.71535 0
M  V30 8765 H 856.761 -3.09129 -3.16056 0
M  V30 8766 N 855.82 0.285905 -1.54985 0
M  V30 8767 C 857.236 0.632405 -1.46536 0
M  V30 8768 C 857.436 1.90074 -0.668888 0
M  V30 8769 O 856.492 2.51839 -0.182586 0
M  V30 8770 C 857.805 0.771361 -2.90638 0
M  V30 8771 C 859.353 0.866262 -3.00774 0
M  V30 8772 C 859.828 1.0371 -4.46103 0
M  V30 8773 N 861.319 1.10294 -4.49877 0
M  V30 8774 C 862.054 1.25369 -5.59527 0
M  V30 8775 N 861.55 1.37246 -6.7907 0
M  V30 8776 N 863.343 1.28377 -5.47244 0
M  V30 8777 H 855.494 -0.547226 -2.0523 0
M  V30 8778 H 857.757 -0.183298 -0.930111 0
M  V30 8779 H 857.463 -0.0899485 -3.51585 0
M  V30 8780 H 857.337 1.65569 -3.3892 0
M  V30 8781 H 859.724 1.71805 -2.39931 0
M  V30 8782 H 859.805 -0.0424049 -2.55765 0
M  V30 8783 H 859.449 0.190021 -5.07544 0
M  V30 8784 H 859.379 1.96022 -4.88757 0
M  V30 8785 H 861.87 1.02407 -3.6376 0
M  V30 8786 H 862.183 1.48546 -7.58389 0
M  V30 8787 H 860.528 1.34274 -6.81906 0
M  V30 8788 H 863.719 1.1872 -4.52795 0
M  V30 8789 H 863.892 1.39782 -6.32744 0
M  V30 8790 N 857.298 1.47698 0.54982 0
M  V30 8791 C 858.208 1.63386 1.68351 0
M  V30 8792 C 859.224 0.516583 1.66155 0
M  V30 8793 O 860.4 0.785088 1.85468 0
M  V30 8794 C 857.465 1.6513 3.04849 0
M  V30 8795 C 856.526 2.88338 3.18056 0
M  V30 8796 C 855.759 2.8999 4.48042 0
M  V30 8797 O 855.982 2.00633 5.3395 0
M  V30 8798 O 854.916 3.81938 4.65196 0
M  V30 8799 H 858.742 2.59329 1.58057 0
M  V30 8800 H 856.327 1.30869 0.72067 0
M  V30 8801 H 858.209 1.68913 3.86065 0
M  V30 8802 H 856.884 0.723555 3.1551 0
M  V30 8803 H 855.791 2.90097 2.36209 0
M  V30 8804 H 857.124 3.80431 3.12302 0
M  V30 8805 N 858.776 -0.797141 1.35954 0
M  V30 8806 C 859.709 -1.91567 1.24005 0
M  V30 8807 C 860.687 -1.62112 0.125868 0
M  V30 8808 O 861.871 -1.86167 0.295638 0
M  V30 8809 C 858.998 -3.26204 0.911535 0
M  V30 8810 C 858.044 -3.74598 2.03909 0
M  V30 8811 S 858.877 -3.91276 3.656 0
M  V30 8812 C 860.033 -5.288 3.34846 0
M  V30 8813 H 860.266 -2.0141 2.18681 0
M  V30 8814 H 857.799 -0.955542 1.2128 0
M  V30 8815 H 859.757 -4.03979 0.728805 0
M  V30 8816 H 858.418 -3.14095 -0.0173159 0
M  V30 8817 H 857.611 -4.72137 1.7636 0
M  V30 8818 H 857.213 -3.03849 2.18064 0
M  V30 8819 H 859.505 -6.13117 2.8826 0
M  V30 8820 H 860.448 -5.61347 4.31619 0
M  V30 8821 H 860.856 -4.95534 2.70382 0
M  V30 8822 N 860.254 -1.20106 -1.0204 0
M  V30 8823 C 861.217 -0.948261 -2.08664 0
M  V30 8824 C 862.217 0.0746753 -1.60627 0
M  V30 8825 O 863.407 -0.160981 -1.73455 0
M  V30 8826 C 860.539 -0.426854 -3.38217 0
M  V30 8827 H 861.732 -1.894 -2.32524 0
M  V30 8828 H 859.285 -1.0159 -1.18782 0
M  V30 8829 H 860.02 0.524532 -3.2003 0
M  V30 8830 H 859.805 -1.16451 -3.74408 0
M  V30 8831 H 861.295 -0.269346 -4.1673 0
M  V30 8832 N 861.732 1.21287 -1.00634 0
M  V30 8833 C 862.662 2.25973 -0.588089 0
M  V30 8834 C 863.643 1.65527 0.391764 0
M  V30 8835 O 864.828 1.92179 0.279452 0
M  V30 8836 C 861.958 3.47197 0.0847336 0
M  V30 8837 C 860.912 4.20168 -0.815039 0
M  V30 8838 C 860.238 5.34699 -0.00855393 0
M  V30 8839 C 861.538 4.77416 -2.11828 0
M  V30 8840 H 863.232 2.61212 -1.46317 0
M  V30 8841 H 860.778 1.25563 -0.704985 0
M  V30 8842 H 862.731 4.19602 0.388821 0
M  V30 8843 H 861.455 3.11092 0.994456 0
M  V30 8844 H 860.114 3.49614 -1.10297 0
M  V30 8845 H 859.762 4.94837 0.902499 0
M  V30 8846 H 859.462 5.84449 -0.607664 0
M  V30 8847 H 860.986 6.09914 0.289317 0
M  V30 8848 H 862.4 5.41694 -1.87725 0
M  V30 8849 H 860.797 5.37561 -2.66736 0
M  V30 8850 H 861.867 3.96724 -2.78816 0
M  V30 8851 N 863.21 0.781244 1.36873 0
M  V30 8852 C 864.626 0.461968 1.52768 0
M  V30 8853 C 864.826 -1.02099 1.73719 0
M  V30 8854 O 863.882 -1.80665 1.76399 0
M  V30 8855 C 865.195 1.2853 2.71846 0
M  V30 8856 C 866.743 1.27817 2.85713 0
M  V30 8857 C 867.218 2.08506 4.07786 0
M  V30 8858 N 868.709 2.05909 4.14917 0
M  V30 8859 C 869.444 2.65118 5.08429 0
M  V30 8860 N 868.94 3.33152 6.07438 0
M  V30 8861 N 870.733 2.54896 5.00983 0
M  V30 8862 H 862.884 1.74198 1.21527 0
M  V30 8863 H 865.147 0.740027 0.592506 0
M  V30 8864 H 864.853 2.3366 2.62861 0
M  V30 8865 H 864.727 0.920981 3.65784 0
M  V30 8866 H 867.114 0.234817 2.94164 0
M  V30 8867 H 867.195 1.68219 1.92707 0
M  V30 8868 H 866.839 3.12867 4.00096 0
M  V30 8869 H 866.769 1.65479 4.99924 0
M  V30 8870 H 869.26 1.56386 3.44023 0
M  V30 8871 H 869.573 3.75681 6.75339 0
M  V30 8872 H 867.918 3.37253 6.07689 0
M  V30 8873 H 871.109 2.01352 4.22581 0
M  V30 8874 H 871.282 3.01332 5.73675 0
M  V30 8875 N 864.689 -1.48329 0.532571 0
M  V30 8876 C 866.105 -1.58458 0.190605 0
M  V30 8877 C 866.305 -1.53427 -1.30623 0
M  V30 8878 O 865.361 -1.4247 -2.08467 0
M  V30 8879 C 866.674 -2.89989 0.79543 0
M  V30 8880 C 868.222 -3.03523 0.7644 0
M  V30 8881 C 868.697 -4.37718 1.34785 0
M  V30 8882 N 870.188 -4.44292 1.30993 0
M  V30 8883 C 870.923 -5.4664 1.73124 0
M  V30 8884 N 870.419 -6.5593 2.22997 0
M  V30 8885 N 872.212 -5.37538 1.64346 0
M  V30 8886 H 864.363 -1.49842 1.50537 0
M  V30 8887 H 866.626 -0.71164 0.626316 0
M  V30 8888 H 866.332 -2.99333 1.84642 0
M  V30 8889 H 866.206 -3.76203 0.27403 0
M  V30 8890 H 868.593 -2.93789 -0.277831 0
M  V30 8891 H 868.674 -2.18912 1.3233 0
M  V30 8892 H 868.318 -4.48206 2.38902 0
M  V30 8893 H 868.248 -5.21019 0.764609 0
M  V30 8894 H 870.739 -3.65897 0.944868 0
M  V30 8895 H 871.052 -7.30167 2.53133 0
M  V30 8896 H 869.397 -6.56886 2.26992 0
M  V30 8897 H 872.588 -4.51052 1.25178 0
M  V30 8898 H 872.761 -6.17169 1.97501 0
M  V30 8899 N 866.167 -0.267825 -1.55308 0
M  V30 8900 C 867.097 0.616585 -2.25212 0
M  V30 8901 C 868.078 1.16472 -1.23969 0
M  V30 8902 O 869.263 1.20021 -1.52672 0
M  V30 8903 C 866.393 1.80412 -2.96764 0
M  V30 8904 C 865.347 1.38784 -4.04874 0
M  V30 8905 C 864.673 2.65789 -4.63961 0
M  V30 8906 C 865.973 0.543415 -5.19465 0
M  V30 8907 H 867.667 0.0336257 -2.99381 0
M  V30 8908 H 865.213 0.0147328 -1.43992 0
M  V30 8909 H 867.166 2.42866 -3.44375 0
M  V30 8910 H 865.89 2.4128 -2.20118 0
M  V30 8911 H 864.549 0.786541 -3.58063 0
M  V30 8912 H 864.197 3.24899 -3.83992 0
M  V30 8913 H 863.897 2.38651 -5.36954 0
M  V30 8914 H 865.421 3.29104 -5.14318 0
M  V30 8915 H 866.835 1.07277 -5.63174 0
M  V30 8916 H 865.232 0.367219 -5.98975 0
M  V30 8917 H 866.302 -0.439534 -4.82904 0
M  V30 8918 N 867.645 1.57599 0.00500368 0
M  V30 8919 C 868.87 1.95026 0.705663 0
M  V30 8920 C 869.295 0.869643 1.6679 0
M  V30 8921 O 868.653 -0.172659 1.80476 0
M  V30 8922 C 868.701 3.31545 1.4181 0
M  V30 8923 O 867.805 3.25495 2.53232 0
M  V30 8924 H 867.146 0.636808 0.188074 0
M  V30 8925 H 869.676 2.04547 -0.046696 0
M  V30 8926 H 869.686 3.66996 1.78265 0
M  V30 8927 H 868.361 4.09751 0.712543 0
M  V30 8928 H 866.938 3.01714 2.19142 0
M  V30 8929 N 869.123 -0.277682 1.55134 0
M  V30 8930 C 870.073 -1.34531 1.8408 0
M  V30 8931 C 871.057 -1.44904 0.699393 0
M  V30 8932 O 872.249 -1.48664 0.960623 0
M  V30 8933 C 869.378 -2.7064 2.11208 0
M  V30 8934 C 868.464 -2.64396 3.31596 0
M  V30 8935 N 868.855 -2.2777 4.51613 0
M  V30 8936 C 867.153 -2.95464 3.34091 0
M  V30 8937 C 867.854 -2.31401 5.33693 0
M  V30 8938 N 866.83 -2.69688 4.71984 0
M  V30 8939 H 870.632 -1.05214 2.74421 0
M  V30 8940 H 868.146 -0.486311 1.54948 0
M  V30 8941 H 870.143 -3.47649 2.301 0
M  V30 8942 H 868.803 -3.00849 1.22148 0
M  V30 8943 H 869.814 -1.99827 4.77797 0
M  V30 8944 H 866.491 -3.30415 2.5521 0
M  V30 8945 H 867.881 -2.05685 6.39643 0
M  V30 8946 N 870.601 -1.47988 -0.541979 0
M  V30 8947 C 871.878 -1.45878 -1.30303 0
M  V30 8948 C 872.258 -0.163931 -2.10463 0
M  V30 8949 O 871.606 0.854479 -2.11922 0
M  V30 8950 C 871.816 -2.71359 -2.19466 0
M  V30 8951 C 873.164 -3.19199 -2.79995 0
M  V30 8952 O 874.188 -2.72193 -2.2976 0
M  V30 8953 O 873.047 -4.00961 -3.71339 0
M  V30 8954 H 870.141 -0.582043 -0.587498 0
M  V30 8955 H 872.687 -1.60207 -0.559623 0
M  V30 8956 H 871.459 -3.57122 -1.59936 0
M  V30 8957 H 871.082 -2.59692 -3.01075 0
M  V30 8958 N 872.079 0.78992 -1.36375 0
M  V30 8959 C 873.325 1.55007 -1.3077 0
M  V30 8960 C 873.658 1.93871 0.112979 0
M  V30 8961 O 872.933 1.6267 1.06625 0
M  V30 8962 C 873.216 2.82748 -2.22993 0
M  V30 8963 C 873.069 2.50253 -3.73756 0
M  V30 8964 C 874.388 3.84569 -2.13998 0
M  V30 8965 H 871.507 0.562362 -0.476359 0
M  V30 8966 H 874.149 0.907582 -1.66922 0
M  V30 8967 H 872.299 3.37573 -1.92292 0
M  V30 8968 H 873.971 2.01482 -4.14973 0
M  V30 8969 H 872.214 1.83203 -3.93216 0
M  V30 8970 H 872.885 3.41487 -4.33694 0
M  V30 8971 H 875.361 3.39188 -2.4102 0
M  V30 8972 H 874.237 4.717 -2.80697 0
M  V30 8973 H 874.498 4.27491 -1.12711 0
M  V30 8974 N 873.557 1.20646 1.01402 0
M  V30 8975 C 874.782 1.04462 1.79172 0
M  V30 8976 C 875.207 -0.401588 1.83763 0
M  V30 8977 O 874.565 -1.28934 1.27459 0
M  V30 8978 C 874.613 1.63583 3.21361 0
M  V30 8979 O 873.717 0.875198 4.03006 0
M  V30 8980 H 873.058 0.368235 0.552539 0
M  V30 8981 H 875.588 1.59994 1.27526 0
M  V30 8982 H 875.598 1.67426 3.72065 0
M  V30 8983 H 874.273 2.68835 3.17334 0
M  V30 8984 H 872.85 0.911172 3.61597 0
M  V30 8985 N 875.035 -1.20752 1.01276 0
M  V30 8986 C 876.283 -1.89645 0.698505 0
M  V30 8987 C 876.604 -1.78986 -0.773883 0
M  V30 8988 O 875.874 -1.18977 -1.55632 0
M  V30 8989 H 874.454 -0.701992 0.255375 0
M  V30 8990 H 877.116 -1.46668 1.28353 0
M  V30 8991 H 876.212 -2.96364 0.978512 0
M  V30 8992 N 876.513 -0.788492 -1.36457 0
M  V30 8993 C 877.476 -0.192209 -2.28393 0
M  V30 8994 C 878.476 0.609916 -1.48784 0
M  V30 8995 O 879.666 0.431046 -1.68783 0
M  V30 8996 C 876.798 0.734096 -3.32902 0
M  V30 8997 H 877.991 -1.00284 -2.82636 0
M  V30 8998 H 875.544 -0.557852 -1.46006 0
M  V30 8999 H 876.279 1.5691 -2.83813 0
M  V30 9000 H 876.064 0.160875 -3.9177 0
M  V30 9001 H 877.554 1.1462 -4.01562 0
M  V30 9002 N 877.991 1.48044 -0.54043 0
M  V30 9003 C 878.921 2.32597 0.205178 0
M  V30 9004 C 879.902 1.42748 0.925041 0
M  V30 9005 O 881.087 1.71624 0.908784 0
M  V30 9006 C 878.217 3.24175 1.24612 0
M  V30 9007 C 877.171 4.23131 0.64376 0
M  V30 9008 C 876.497 5.03915 1.78812 0
M  V30 9009 C 877.797 5.20831 -0.39144 0
M  V30 9010 H 879.491 2.95184 -0.500676 0
M  V30 9011 H 877.037 1.41948 -0.242225 0
M  V30 9012 H 878.99 3.82158 1.77576 0
M  V30 9013 H 877.714 2.59608 1.98169 0
M  V30 9014 H 876.373 3.66349 0.135554 0
M  V30 9015 H 876.021 4.35765 2.51232 0
M  V30 9016 H 875.721 5.709 1.39094 0
M  V30 9017 H 877.245 5.64753 2.32134 0
M  V30 9018 H 878.659 5.73277 0.0515064 0
M  V30 9019 H 877.056 5.95926 -0.706569 0
M  V30 9020 H 878.126 4.6733 -1.29345 0
M  V30 9021 N 879.47 0.276058 1.55163 0
M  V30 9022 C 880.4 -0.604633 2.25536 0
M  V30 9023 C 881.381 -1.15813 1.24585 0
M  V30 9024 O 882.566 -1.1921 1.53306 0
M  V30 9025 C 879.696 -1.78836 2.97716 0
M  V30 9026 C 878.65 -1.36635 4.05604 0
M  V30 9027 C 877.976 -2.63325 4.65364 0
M  V30 9028 C 879.276 -0.515858 5.19746 0
M  V30 9029 H 880.97 -0.0177483 2.99395 0
M  V30 9030 H 878.516 -0.00709627 1.43998 0
M  V30 9031 H 880.469 -2.41036 3.45658 0
M  V30 9032 H 879.193 -2.40109 2.21394 0
M  V30 9033 H 877.852 -0.767541 3.58475 0
M  V30 9034 H 877.5 -3.22858 3.85709 0
M  V30 9035 H 877.2 -2.358 5.38212 0
M  V30 9036 H 878.724 -3.26372 5.16056 0
M  V30 9037 H 880.138 -1.04289 5.63735 0
M  V30 9038 H 878.535 -0.335449 5.99162 0
M  V30 9039 H 879.605 0.465137 4.82664 0
M  V30 9040 N 880.948 -1.576 0.00335426 0
M  V30 9041 C 881.878 -2.11668 -0.985839 0
M  V30 9042 C 882.859 -1.02661 -1.35627 0
M  V30 9043 O 884.044 -1.30361 -1.43943 0
M  V30 9044 C 881.174 -2.62273 -2.27662 0
M  V30 9045 C 880.128 -3.75837 -2.0477 0
M  V30 9046 C 879.454 -4.12769 -3.39891 0
M  V30 9047 C 880.754 -5.02975 -1.40759 0
M  V30 9048 H 882.448 -2.9457 -0.535637 0
M  V30 9049 H 879.994 -1.41702 -0.256204 0
M  V30 9050 H 881.947 -2.98727 -2.97221 0
M  V30 9051 H 880.671 -1.76498 -2.74802 0
M  V30 9052 H 879.33 -3.39782 -1.37636 0
M  V30 9053 H 878.978 -3.24013 -3.8474 0
M  V30 9054 H 878.678 -4.89281 -3.25389 0
M  V30 9055 H 880.202 -4.51784 -4.1076 0
M  V30 9056 H 881.616 -5.37179 -2.00279 0
M  V30 9057 H 880.013 -5.84315 -1.36734 0
M  V30 9058 H 881.083 -4.83431 -0.377218 0
M  V30 9059 N 882.426 0.269451 -1.5528 0
M  V30 9060 C 883.389 1.31642 -1.87625 0
M  V30 9061 C 884.389 1.42182 -0.751058 0
M  V30 9062 O 885.579 1.41272 -1.01921 0
M  V30 9063 C 882.711 2.6973 -2.08467 0
M  V30 9064 H 883.904 1.0419 -2.81219 0
M  V30 9065 H 881.457 0.507685 -1.47825 0
M  V30 9066 H 882.192 3.02356 -1.17266 0
M  V30 9067 H 881.977 2.63465 -2.90394 0
M  V30 9068 H 883.467 3.4537 -2.34753 0
M  V30 9069 N 883.904 1.48273 0.534124 0
M  V30 9070 C 884.852 1.62926 1.66005 0
M  V30 9071 C 885.846 0.495814 1.61982 0
M  V30 9072 O 887.052 0.6744 1.66889 0
M  V30 9073 H 883.427 0.513163 0.549698 0
M  V30 9074 H 885.398 2.57498 1.50789 0
M  V30 9075 C 884.147 1.68231 3.04292 0
M  V30 9076 H 883.47 2.54807 3.0808 0
M  V30 9077 H 884.91 1.82528 3.827 0
M  V30 9078 C 883.369 0.420154 3.3427 0
M  V30 9079 O 883.899 -0.468769 3.98955 0
M  V30 9080 N 882.105 0.293115 2.89118 0
M  V30 9081 H 881.652 1.01745 2.36655 0
M  V30 9082 H 881.61 -0.550376 3.09545 0
M  V30 9083 N 885.382 -0.782676 1.36792 0
M  V30 9084 C 886.63 -1.53778 1.31136 0
M  V30 9085 C 886.951 -1.94706 -0.107014 0
M  V30 9086 O 886.221 -1.65465 -1.04872 0
M  V30 9087 H 884.801 -0.570328 0.482426 0
M  V30 9088 H 887.463 -0.932181 1.71162 0
M  V30 9089 H 886.559 -2.44224 1.94321 0
M  V30 9090 N 886.86 -1.21182 -1.00761 0
M  V30 9091 C 887.77 -0.984691 -2.12934 0
M  V30 9092 C 888.786 0.0623657 -1.73888 0
M  V30 9093 O 889.962 -0.1271 -2.00999 0
M  V30 9094 C 887.027 -0.549447 -3.42319 0
M  V30 9095 C 886.088 -1.66841 -3.95553 0
M  V30 9096 C 885.321 -1.25384 -5.18763 0
M  V30 9097 O 885.544 -0.126333 -5.7026 0
M  V30 9098 O 884.478 -2.06475 -5.65377 0
M  V30 9099 H 888.304 -1.92413 -2.3497 0
M  V30 9100 H 885.889 -0.99647 -1.11314 0
M  V30 9101 H 887.771 -0.316384 -4.20211 0
M  V30 9102 H 886.446 0.361304 -3.21677 0
M  V30 9103 H 885.353 -1.95585 -3.189 0
M  V30 9104 H 886.686 -2.55649 -4.206 0
M  V30 9105 N 888.338 1.20213 -1.01915 0
M  V30 9106 C 889.563 1.94163 -0.729076 0
M  V30 9107 C 889.988 1.74416 0.704323 0
M  V30 9108 O 889.346 1.0401 1.48498 0
M  V30 9109 C 889.394 3.44258 -1.07324 0
M  V30 9110 O 888.498 4.11979 -0.186367 0
M  V30 9111 H 887.839 0.606506 -0.270272 0
M  V30 9112 H 890.369 1.52571 -1.3632 0
M  V30 9113 H 890.379 3.94888 -1.02603 0
M  V30 9114 H 889.054 3.57954 -2.11759 0
M  V30 9115 H 887.631 3.7176 -0.291334 0
M  V30 9116 N 889.816 0.795718 1.36037 0
M  V30 9117 C 891.044 0.383153 2.03321 0
M  V30 9118 C 891.459 -1.00246 1.59988 0
M  V30 9119 O 890.816 -1.64406 0.792265 0
M  V30 9120 C 890.867 0.444467 3.58757 0
M  V30 9121 O 890.588 1.77544 4.00512 0
M  V30 9122 C 892.089 0.0233291 4.43294 0
M  V30 9123 H 889.309 0.157061 0.652359 0
M  V30 9124 H 891.853 1.07632 1.73884 0
M  V30 9125 H 890.008 -0.200341 3.86882 0
M  V30 9126 H 890.422 1.73065 4.95125 0
M  V30 9127 H 891.896 0.117361 5.51875 0
M  V30 9128 H 892.373 -1.03007 4.2695 0
M  V30 9129 H 892.979 0.64087 4.20444 0
M  V30 9130 N 891.294 -1.47756 0.548274 0
M  V30 9131 C 892.542 -2.02089 0.0208542 0
M  V30 9132 C 892.863 -1.42589 -1.33017 0
M  V30 9133 O 892.133 -0.597825 -1.86555 0
M  V30 9134 H 890.713 -0.746985 0.00472023 0
M  V30 9135 H 893.375 -1.81262 0.716257 0
M  V30 9136 H 892.471 -3.12012 -0.0739016 0
M  V30 9137 N 892.772 -0.284283 -1.55015 0
M  V30 9138 C 893.72 0.615091 -2.2432 0
M  V30 9139 C 894.714 1.15051 -1.24337 0
M  V30 9140 O 895.92 1.10308 -1.4224 0
M  V30 9141 H 892.295 0.216927 -0.720033 0
M  V30 9142 H 894.266 0.00783216 -2.98399 0
M  V30 9143 C 893.015 1.78355 -2.98471 0
M  V30 9144 H 892.338 1.38076 -3.752 0
M  V30 9145 H 893.778 2.38927 -3.50271 0
M  V30 9146 C 892.237 2.67757 -2.04469 0
M  V30 9147 O 892.767 3.6838 -1.60185 0
M  V30 9148 N 890.973 2.35125 -1.70776 0
M  V30 9149 H 890.52 1.53346 -2.06985 0
M  V30 9150 H 890.478 2.95212 -1.08153 0
M  V30 9151 N 894.251 1.57596 -0.0117121 0
M  V30 9152 C 895.476 1.95764 0.684938 0
M  V30 9153 C 895.901 0.887285 1.65858 0
M  V30 9154 O 895.259 -0.153508 1.80649 0
M  V30 9155 C 895.307 3.33031 1.38285 0
M  V30 9156 O 894.411 3.28163 2.49765 0
M  V30 9157 H 893.752 0.638767 0.181309 0
M  V30 9158 H 896.282 2.04486 -0.0683883 0
M  V30 9159 H 896.292 3.68866 1.74362 0
M  V30 9160 H 894.967 4.10483 0.669043 0
M  V30 9161 H 893.544 3.04021 2.15929 0
M  V30 9162 N 895.729 -0.261212 1.5542 0
M  V30 9163 C 896.977 -0.989272 1.76232 0
M  V30 9164 C 897.298 -1.86389 0.573067 0
M  V30 9165 O 896.568 -1.91526 -0.41166 0
M  V30 9166 H 895.148 -0.368256 0.64992 0
M  V30 9167 H 897.81 -0.282603 1.9284 0
M  V30 9168 H 896.906 -1.61935 2.66802 0
M  V30 9169 N 897.207 -1.48554 -0.526253 0
M  V30 9170 C 898.455 -1.56452 -1.27935 0
M  V30 9171 C 898.776 -0.24184 -1.93495 0
M  V30 9172 O 898.046 0.736917 -1.81511 0
M  V30 9173 H 896.626 -0.576379 -0.47518 0
M  V30 9174 H 899.288 -1.85039 -0.612083 0
M  V30 9175 H 898.384 -2.34751 -2.05666 0
M  V30 9176 N 898.685 0.775411 -1.37205 0
M  V30 9177 C 899.91 1.5696 -1.35567 0
M  V30 9178 C 900.335 1.88012 0.0575554 0
M  V30 9179 O 899.693 1.48954 1.03355 0
M  V30 9180 C 899.741 2.85886 -2.19776 0
M  V30 9181 O 898.845 3.80103 -1.59987 0
M  V30 9182 H 898.186 0.475583 -0.463375 0
M  V30 9183 H 900.716 0.96001 -1.80679 0
M  V30 9184 H 900.726 3.35024 -2.32859 0
M  V30 9185 H 899.401 2.62613 -3.22502 0
M  V30 9186 H 897.978 3.38736 -1.55924 0
M  V30 9187 N 900.163 1.21714 1.00117 0
M  V30 9188 C 901.388 1.06357 1.78054 0
M  V30 9189 C 901.813 -0.382075 1.84179 0
M  V30 9190 O 901.171 -1.27575 1.28819 0
M  V30 9191 C 901.219 1.66982 3.19608 0
M  V30 9192 O 900.323 0.917892 4.02055 0
M  V30 9193 H 899.664 0.374074 0.548602 0
M  V30 9194 H 902.194 1.61338 1.25822 0
M  V30 9195 H 902.204 1.71363 3.70268 0
M  V30 9196 H 900.879 2.72185 3.14465 0
M  V30 9197 H 899.456 0.949473 3.6061 0
M  V30 9198 N 901.641 -1.19671 1.02551 0
M  V30 9199 C 902.889 -1.88894 0.71858 0
M  V30 9200 C 903.21 -1.79797 -0.754856 0
M  V30 9201 O 902.48 -1.20621 -1.54362 0
M  V30 9202 H 901.06 -0.699244 0.262806 0
M  V30 9203 H 903.722 -1.45298 1.29902 0
M  V30 9204 H 902.818 -2.95309 1.00989 0
M  V30 9205 N 903.119 -0.802921 -1.35613 0
M  V30 9206 C 904.344 -0.392846 -2.03645 0
M  V30 9207 C 904.769 0.987075 -1.6012 0
M  V30 9208 O 904.127 1.63849 -0.776101 0
M  V30 9209 C 904.175 -0.480208 -3.57388 0
M  V30 9210 O 903.279 0.507751 -4.09262 0
M  V30 9211 H 902.62 -0.16464 -0.643265 0
M  V30 9212 H 905.15 -1.08779 -1.73287 0
M  V30 9213 H 905.16 -0.348683 -4.06507 0
M  V30 9214 H 903.835 -1.48675 -3.88418 0
M  V30 9215 H 902.412 0.336769 -3.71376 0
M  V30 9216 N 904.597 1.47463 -0.556102 0
M  V30 9217 C 905.822 2.07371 -0.0344729 0
M  V30 9218 C 906.247 1.40621 1.2493 0
M  V30 9219 O 905.605 0.48082 1.74808 0
M  V30 9220 C 905.653 3.60306 0.145563 0
M  V30 9221 O 904.757 3.94299 1.20839 0
M  V30 9222 H 904.098 0.662052 -0.0508274 0
M  V30 9223 H 906.628 1.89498 -0.771469 0
M  V30 9224 H 906.638 4.06408 0.360112 0
M  V30 9225 H 905.313 4.08288 -0.792089 0
M  V30 9226 H 903.89 3.59944 0.97442 0
M  V30 9227 N 906.075 0.2925 1.54862 0
M  V30 9228 C 907.486 -0.201841 1.85606 0
M  V30 9229 C 907.837 -1.54093 1.21449 0
M  V30 9230 O 906.962 -2.10327 0.509079 0
M  V30 9231 C 907.557 -0.373011 3.3674 0
M  V30 9232 C 906.116 -0.811574 3.67547 0
M  V30 9233 C 905.263 0.0850583 2.7717 0
M  V30 9234 H 908.214 0.513774 1.50153 0
M  V30 9235 H 908.235 -1.20892 3.60785 0
M  V30 9236 H 907.747 0.601751 3.83407 0
M  V30 9237 H 905.848 -1.79719 3.26392 0
M  V30 9238 H 905.961 -0.636853 4.74848 0
M  V30 9239 H 904.325 -0.434224 2.50971 0
M  V30 9240 H 905.108 1.05602 3.26654 0
M  V30 9241 N 907.553 -1.57587 0.0200696 0
M  V30 9242 C 908.778 -1.96124 -0.674547 0
M  V30 9243 C 909.203 -0.896068 -1.65385 0
M  V30 9244 O 908.561 0.143925 -1.80728 0
M  V30 9245 C 908.609 -3.3376 -1.36517 0
M  V30 9246 O 907.713 -3.29483 -2.48022 0
M  V30 9247 H 907.054 -0.639719 -0.177919 0
M  V30 9248 H 909.584 -2.04447 0.0792317 0
M  V30 9249 H 909.594 -3.69785 -1.72403 0
M  V30 9250 H 908.269 -4.10832 -0.647265 0
M  V30 9251 H 906.846 -3.05162 -2.14314 0
M  V30 9252 N 909.032 0.252966 -1.55557 0
M  V30 9253 C 910.28 0.979912 -1.76754 0
M  V30 9254 C 910.601 1.86083 -0.582944 0
M  V30 9255 O 909.871 1.91742 0.401497 0
M  V30 9256 H 908.451 0.364805 -0.651864 0
M  V30 9257 H 911.113 0.272372 -1.92987 0
M  V30 9258 H 910.209 1.60518 -2.67657 0
M  V30 9259 N 910.51 1.48831 0.518367 0
M  V30 9260 C 911.758 1.57128 1.27103 0
M  V30 9261 C 912.079 0.252098 1.93364 0
M  V30 9262 O 911.349 -0.727281 1.819 0
M  V30 9263 H 909.929 0.578891 0.472116 0
M  V30 9264 H 912.591 1.85361 0.602262 0
M  V30 9265 H 911.687 2.35838 2.04418 0
M  V30 9266 N 911.988 -0.768124 1.37614 0
M  V30 9267 C 912.951 -1.86314 1.3349 0
M  V30 9268 C 913.951 -1.59025 0.23823 0
M  V30 9269 O 915.141 -1.6704 0.494288 0
M  V30 9270 C 912.273 -3.23519 1.07462 0
M  V30 9271 H 913.466 -1.91382 2.30896 0
M  V30 9272 H 911.019 -0.968267 1.22696 0
M  V30 9273 H 911.754 -3.24127 0.106028 0
M  V30 9274 H 911.539 -3.44719 1.86846 0
M  V30 9275 H 913.029 -4.03597 1.07236 0
M  V30 9276 N 913.466 -1.22244 -0.994698 0
M  V30 9277 C 914.694 -1.07218 -1.76952 0
M  V30 9278 C 915.109 0.377388 -1.8499 0
M  V30 9279 O 914.466 1.26157 -1.31874 0
M  V30 9280 C 914.517 -1.67496 -3.20355 0
M  V30 9281 O 914.238 -3.06782 -3.12756 0
M  V30 9282 C 915.739 -1.57721 -4.14294 0
M  V30 9283 H 912.959 -0.375966 -0.555779 0
M  V30 9284 H 915.503 -1.61799 -1.25065 0
M  V30 9285 H 913.658 -1.16982 -3.69315 0
M  V30 9286 H 914.072 -3.35784 -4.02926 0
M  V30 9287 H 915.546 -2.04623 -5.12673 0
M  V30 9288 H 916.023 -0.533434 -4.35949 0
M  V30 9289 H 916.629 -2.07531 -3.71229 0
M  V30 9290 N 914.944 1.19125 -1.03184 0
M  V30 9291 C 916.169 1.93379 -0.749628 0
M  V30 9292 C 916.594 1.75153 0.685785 0
M  V30 9293 O 915.952 1.05579 1.47386 0
M  V30 9294 C 916 3.43101 -1.1097 0
M  V30 9295 O 915.104 4.11758 -0.230053 0
M  V30 9296 H 914.445 0.603605 -0.276689 0
M  V30 9297 H 916.975 1.51116 -1.37931 0
M  V30 9298 H 916.985 3.93778 -1.06785 0
M  V30 9299 H 915.66 3.55688 -2.15544 0
M  V30 9300 H 914.237 3.7143 -0.330748 0
M  V30 9301 N 916.422 0.810101 1.35185 0
M  V30 9302 C 917.67 0.391343 1.98275 0
M  V30 9303 C 917.991 -1.04592 1.64577 0
M  V30 9304 O 917.261 -1.72417 0.93001 0
M  V30 9305 H 915.841 0.141715 0.733434 0
M  V30 9306 H 918.503 1.03672 1.6504 0
M  V30 9307 H 917.599 0.49991 3.0807 0
M  V30 9308 N 917.9 -1.47166 0.563914 0
M  V30 9309 C 919.125 -2.0735 0.0454698 0
M  V30 9310 C 919.55 -1.41281 -1.24182 0
M  V30 9311 O 918.908 -0.490084 -1.7455 0
M  V30 9312 C 918.956 -3.60378 -0.126453 0
M  V30 9313 O 918.06 -3.94934 -1.18746 0
M  V30 9314 H 917.401 -0.661773 0.0543377 0
M  V30 9315 H 919.931 -1.89086 0.781508 0
M  V30 9316 H 919.941 -4.06593 -0.338554 0
M  V30 9317 H 918.616 -4.07862 0.81373 0
M  V30 9318 H 917.193 -3.60455 -0.955318 0
M  V30 9319 N 919.378 -0.300708 -1.54705 0
M  V30 9320 C 920.603 0.314073 -2.05008 0
M  V30 9321 C 921.028 1.46759 -1.17657 0
M  V30 9322 O 920.386 1.80398 -0.180598 0
M  V30 9323 C 920.434 0.748243 -3.52752 0
M  V30 9324 O 919.538 1.85305 -3.68424 0
M  V30 9325 H 918.879 0.0610139 -0.661191 0
M  V30 9326 H 921.409 -0.442467 -1.99758 0
M  V30 9327 H 921.419 1.03713 -3.94598 0
M  V30 9328 H 920.094 -0.095573 -4.1579 0
M  V30 9329 H 918.671 1.56473 -3.38483 0
M  V30 9330 N 920.856 1.57574 -0.0284266 0
M  V30 9331 C 921.788 2.07079 0.982391 0
M  V30 9332 C 922.801 0.994078 1.28926 0
M  V30 9333 O 923.99 1.27028 1.25404 0
M  V30 9334 C 921.09 2.47978 2.30998 0
M  V30 9335 C 920.263 3.7872 2.18838 0
M  V30 9336 C 919.322 4.06177 3.34524 0
M  V30 9337 O 918.348 4.76438 3.11441 0
M  V30 9338 N 919.55 3.56297 4.58293 0
M  V30 9339 H 922.315 2.94421 0.560011 0
M  V30 9340 H 919.876 1.61124 0.158347 0
M  V30 9341 H 921.868 2.63439 3.07216 0
M  V30 9342 H 920.438 1.66005 2.64879 0
M  V30 9343 H 919.658 3.73062 1.27351 0
M  V30 9344 H 920.946 4.6438 2.07915 0
M  V30 9345 H 920.344 2.99453 4.79942 0
M  V30 9346 H 918.901 3.77038 5.31682 0
M  V30 9347 N 922.334 -0.244713 1.55689 0
M  V30 9348 C 923.562 -0.989944 1.8168 0
M  V30 9349 C 923.977 -1.78863 0.604449 0
M  V30 9350 O 923.334 -1.77437 -0.426907 0
M  V30 9351 C 923.385 -1.92607 3.05916 0
M  V30 9352 O 923.106 -1.1597 4.22472 0
M  V30 9353 C 924.607 -2.78711 3.44724 0
M  V30 9354 H 921.827 -0.2912 0.604519 0
M  V30 9355 H 924.371 -0.266938 2.0275 0
M  V30 9356 H 922.526 -2.60333 2.8689 0
M  V30 9357 H 922.94 -1.79311 4.92898 0
M  V30 9358 H 924.414 -3.40141 4.34751 0
M  V30 9359 H 924.891 -3.49935 2.6541 0
M  V30 9360 H 925.497 -2.16435 3.66109 0
M  V30 9361 N 923.813 -1.49104 -0.510467 0
M  V30 9362 C 925.038 -1.62068 -1.29417 0
M  V30 9363 C 925.463 -0.288432 -1.85875 0
M  V30 9364 O 924.821 0.742667 -1.65391 0
M  V30 9365 C 924.869 -2.68506 -2.40701 0
M  V30 9366 O 923.973 -2.27021 -3.4429 0
M  V30 9367 H 923.314 -0.542778 -0.382476 0
M  V30 9368 H 925.844 -1.95228 -0.612154 0
M  V30 9369 H 925.854 -2.90383 -2.86604 0
M  V30 9370 H 924.529 -3.65216 -1.98973 0
M  V30 9371 H 923.106 -2.15436 -3.04371 0
M  V30 9372 N 925.291 0.760815 -1.38019 0
M  V30 9373 C 926.54 1.51506 -1.3315 0
M  V30 9374 C 926.853 1.95444 0.0782124 0
M  V30 9375 O 928.059 2.70352 0.249418 0
M  V30 9376 C 926.515 2.73636 -2.33776 0
M  V30 9377 C 926.123 2.36753 -3.80332 0
M  V30 9378 C 927.867 3.51548 -2.37937 0
M  V30 9379 C 925.774 3.55451 -4.72661 0
M  V30 9380 H 924.704 0.568844 -0.494907 0
M  V30 9381 H 927.355 0.832343 -1.63537 0
M  V30 9382 H 925.737 3.43852 -1.96422 0
M  V30 9383 H 926.911 1.7425 -4.26584 0
M  V30 9384 H 925.226 1.71991 -3.7922 0
M  V30 9385 H 927.823 4.39791 -3.04119 0
M  V30 9386 H 928.166 3.9219 -1.39617 0
M  V30 9387 H 928.699 2.88339 -2.74054 0
M  V30 9388 H 925.438 3.19882 -5.7215 0
M  V30 9389 H 924.958 4.17022 -4.31107 0
M  V30 9390 H 926.637 4.22125 -4.90326 0
M  V30 9391 N 926.769 1.22769 0.988202 0
M  V30 9392 C 927.994 1.08239 1.76915 0
M  V30 9393 C 928.419 -0.362519 1.84574 0
M  V30 9394 O 927.777 -1.26202 1.30165 0
M  V30 9395 C 927.825 1.70363 3.17819 0
M  V30 9396 O 926.929 0.960484 4.01059 0
M  V30 9397 H 926.27 0.379872 0.544604 0
M  V30 9398 H 928.8 1.62663 1.24104 0
M  V30 9399 H 928.81 1.7528 3.6843 0
M  V30 9400 H 927.485 2.75505 3.1156 0
M  V30 9401 H 926.062 0.987667 3.59582 0
M  V30 9402 N 928.247 -1.18576 1.03814 0
M  V30 9403 C 929.495 -1.88121 0.738574 0
M  V30 9404 C 929.816 -1.80587 -0.735744 0
M  V30 9405 O 929.086 -1.22251 -1.53074 0
M  V30 9406 H 927.666 -0.696417 0.270208 0
M  V30 9407 H 930.328 -1.43912 1.31435 0
M  V30 9408 H 929.424 -2.94222 1.04115 0
M  V30 9409 N 929.725 -0.817259 -1.34754 0
M  V30 9410 C 931.002 -0.325468 -1.92873 0
M  V30 9411 C 931.382 1.18643 -1.74606 0
M  V30 9412 O 930.73 1.9909 -1.1214 0
M  V30 9413 C 930.94 -0.74858 -3.40877 0
M  V30 9414 C 932.288 -0.744165 -4.18028 0
M  V30 9415 O 933.312 -0.690799 -3.49437 0
M  V30 9416 O 932.171 -0.812207 -5.40431 0
M  V30 9417 H 929.265 -0.0876397 -0.822343 0
M  V30 9418 H 931.811 -0.901671 -1.43764 0
M  V30 9419 H 930.583 -1.79017 -3.47949 0
M  V30 9420 H 930.206 -0.147764 -3.97325 0
M  V30 9421 N 931.203 1.46865 -0.571711 0
M  V30 9422 C 932.449 2.0273 -0.0531858 0
M  V30 9423 C 932.782 1.44353 1.29907 0
M  V30 9424 O 932.057 0.604488 1.84868 0
M  V30 9425 C 932.34 3.60092 0.0243831 0
M  V30 9426 C 932.193 4.28874 -1.35599 0
M  V30 9427 C 933.512 4.33994 0.730563 0
M  V30 9428 H 930.631 0.736706 -0.0208018 0
M  V30 9429 H 933.273 1.75132 -0.736794 0
M  V30 9430 H 931.423 3.83736 0.606565 0
M  V30 9431 H 933.095 4.16527 -1.98249 0
M  V30 9432 H 931.338 3.88664 -1.92674 0
M  V30 9433 H 932.009 5.37561 -1.25429 0
M  V30 9434 H 934.485 4.1543 0.236098 0
M  V30 9435 H 933.361 5.43699 0.753836 0
M  V30 9436 H 933.622 4.04257 1.78967 0
M  V30 9437 N 932.681 0.308908 1.54543 0
M  V30 9438 C 933.927 -0.298478 2.00592 0
M  V30 9439 C 934.26 -1.52929 1.19692 0
M  V30 9440 O 933.535 -1.9254 0.27542 0
M  V30 9441 C 933.818 -0.647218 3.54236 0
M  V30 9442 C 933.671 0.593284 4.4587 0
M  V30 9443 C 934.99 -1.47064 4.14801 0
M  V30 9444 H 932.109 -0.107012 0.72919 0
M  V30 9445 H 934.751 0.422578 1.85241 0
M  V30 9446 H 932.901 -1.26153 3.67447 0
M  V30 9447 H 934.573 1.2317 4.44552 0
M  V30 9448 H 932.816 1.22501 4.16144 0
M  V30 9449 H 933.487 0.305018 5.51157 0
M  V30 9450 H 935.963 -0.951511 4.05075 0
M  V30 9451 H 934.839 -1.68343 5.22448 0
M  V30 9452 H 935.1 -2.4623 3.67183 0
M  V30 9453 N 934.159 -1.57557 0.0367827 0
M  V30 9454 C 935.069 -2.14148 -0.958017 0
M  V30 9455 C 936.085 -1.09564 -1.35173 0
M  V30 9456 O 937.261 -1.4166 -1.43158 0
M  V30 9457 C 934.326 -2.6636 -2.21931 0
M  V30 9458 C 933.387 -3.85688 -1.8853 0
M  V30 9459 C 932.62 -4.35401 -3.08645 0
M  V30 9460 O 932.843 -3.8425 -4.21554 0
M  V30 9461 O 931.777 -5.27158 -2.90497 0
M  V30 9462 H 935.603 -2.99442 -0.506797 0
M  V30 9463 H 933.188 -1.48259 -0.184275 0
M  V30 9464 H 935.07 -2.99976 -2.9596 0
M  V30 9465 H 933.745 -1.84145 -2.66219 0
M  V30 9466 H 932.652 -3.56985 -1.11861 0
M  V30 9467 H 933.985 -4.69089 -1.49052 0
M  V30 9468 N 935.637 0.236453 -1.55816 0
M  V30 9469 C 936.6 1.27633 -1.90375 0
M  V30 9470 C 937.6 1.40557 -0.781048 0
M  V30 9471 O 938.79 1.39078 -1.04895 0
M  V30 9472 C 935.922 2.65247 -2.14142 0
M  V30 9473 H 937.115 0.982019 -2.83366 0
M  V30 9474 H 934.668 0.476215 -1.48869 0
M  V30 9475 H 935.403 2.99801 -1.23653 0
M  V30 9476 H 935.188 2.57246 -2.95917 0
M  V30 9477 H 936.678 3.40313 -2.42026 0
M  V30 9478 N 937.115 1.49373 0.502552 0
M  V30 9479 C 938.355 1.60398 1.26696 0
M  V30 9480 C 938.719 0.283599 1.89894 0
M  V30 9481 O 939.92 0.269022 2.6745 0
M  V30 9482 C 938.191 2.72998 2.30666 0
M  V30 9483 S 939.75 3.03964 3.16466 0
M  V30 9484 H 936.568 0.565781 0.430596 0
M  V30 9485 H 939.17 1.87024 0.569418 0
M  V30 9486 H 937.874 3.67458 1.82765 0
M  V30 9487 H 937.405 2.4836 3.05091 0
M  V30 9488 H 939.42 2.45367 4.31288 0
M  V30 9489 N 938.594 -0.753485 1.38421 0
M  V30 9490 C 939.834 -1.52544 1.3605 0
M  V30 9491 C 940.198 -1.91937 -0.0493257 0
M  V30 9492 O 941.399 -2.6807 -0.197908 0
M  V30 9493 C 939.67 -2.74432 2.28958 0
M  V30 9494 S 941.229 -3.64297 2.44607 0
M  V30 9495 H 938.047 -0.522017 0.48272 0
M  V30 9496 H 940.649 -0.884503 1.74347 0
M  V30 9497 H 939.353 -2.43602 3.30282 0
M  V30 9498 H 938.884 -3.43471 1.91811 0
M  V30 9499 H 940.899 -4.67245 1.67022 0
M  V30 9500 N 940.072 -1.23292 -0.981677 0
M  V30 9501 C 941.297 -1.09176 -1.76339 0
M  V30 9502 C 941.722 0.352726 -1.84763 0
M  V30 9503 O 941.08 1.25509 -1.30832 0
M  V30 9504 C 941.128 -1.72046 -3.16911 0
M  V30 9505 O 940.232 -0.98174 -4.00544 0
M  V30 9506 H 939.573 -0.382755 -0.542581 0
M  V30 9507 H 942.103 -1.63319 -1.23239 0
M  V30 9508 H 942.113 -1.77232 -3.67495 0
M  V30 9509 H 940.788 -2.77154 -3.10095 0
M  V30 9510 H 939.365 -1.00672 -3.59054 0
M  V30 9511 N 941.55 1.18024 -1.04442 0
M  V30 9512 C 942.796 1.88377 -0.751133 0
M  V30 9513 C 943.129 1.80377 0.719571 0
M  V30 9514 O 942.404 1.20662 1.52548 0
M  V30 9515 C 942.687 3.38708 -1.22265 0
M  V30 9516 C 942.54 3.55499 -2.75574 0
M  V30 9517 C 943.859 4.32475 -0.815688 0
M  V30 9518 H 940.978 0.684037 -0.27434 0
M  V30 9519 H 943.62 1.38837 -1.29709 0
M  V30 9520 H 941.77 3.8103 -0.758192 0
M  V30 9521 H 943.442 3.22244 -3.30086 0
M  V30 9522 H 941.685 2.98028 -3.15217 0
M  V30 9523 H 942.356 4.60994 -3.03625 0
M  V30 9524 H 944.832 3.97953 -1.21542 0
M  V30 9525 H 943.708 5.36213 -1.17331 0
M  V30 9526 H 943.969 4.41207 0.280901 0
M  V30 9527 N 943.028 0.824394 1.34319 0
M  V30 9528 C 943.958 0.262077 2.32025 0
M  V30 9529 C 944.939 -0.622277 1.58309 0
M  V30 9530 O 946.124 -0.548848 1.86283 0
M  V30 9531 C 943.254 -0.57567 3.42496 0
M  V30 9532 C 942.208 0.21167 4.27476 0
M  V30 9533 C 941.534 -0.748913 5.29429 0
M  V30 9534 C 942.834 1.42068 5.02607 0
M  V30 9535 H 944.528 1.07842 2.79304 0
M  V30 9536 H 942.074 0.520022 1.34282 0
M  V30 9537 H 944.027 -0.979251 4.09864 0
M  V30 9538 H 942.751 -1.42508 2.93869 0
M  V30 9539 H 941.41 0.596636 3.61712 0
M  V30 9540 H 941.058 -1.59432 4.77064 0
M  V30 9541 H 940.758 -0.226313 5.87164 0
M  V30 9542 H 942.282 -1.15032 5.99667 0
M  V30 9543 H 943.696 1.09103 5.62823 0
M  V30 9544 H 942.093 1.87903 5.69923 0
M  V30 9545 H 943.163 2.1981 4.32217 0
M  V30 9546 N 944.506 -1.46559 0.579492 0
M  V30 9547 C 945.731 -2.0729 0.0674595 0
M  V30 9548 C 946.156 -1.4259 -1.22677 0
M  V30 9549 O 945.514 -0.50857 -1.74021 0
M  V30 9550 C 945.562 -3.60492 -0.0882227 0
M  V30 9551 O 944.666 -3.96172 -1.14551 0
M  V30 9552 H 944.007 -0.661159 0.0613536 0
M  V30 9553 H 946.537 -1.88247 0.801519 0
M  V30 9554 H 946.547 -4.06929 -0.295411 0
M  V30 9555 H 945.222 -4.06976 0.856943 0
M  V30 9556 H 943.799 -3.61448 -0.917033 0
M  V30 9557 N 945.984 -0.3171 -1.54377 0
M  V30 9558 C 946.917 0.594178 -2.20329 0
M  V30 9559 C 947.895 1.12067 -1.17812 0
M  V30 9560 O 949.079 1.18588 -1.46524 0
M  V30 9561 C 946.206 1.81463 -2.85987 0
M  V30 9562 C 945.252 1.41996 -4.02168 0
M  V30 9563 S 946.085 0.462159 -5.33502 0
M  V30 9564 C 947.241 1.69004 -6.02651 0
M  V30 9565 H 947.474 0.0339261 -2.97281 0
M  V30 9566 H 945.007 -0.101196 -1.54068 0
M  V30 9567 H 946.965 2.51494 -3.2444 0
M  V30 9568 H 945.626 2.34606 -2.08851 0
M  V30 9569 H 944.819 2.32921 -4.4695 0
M  V30 9570 H 944.421 0.799423 -3.65356 0
M  V30 9571 H 946.713 2.62839 -6.24437 0
M  V30 9572 H 947.656 1.28451 -6.96352 0
M  V30 9573 H 948.064 1.87408 -5.32483 0
M  V30 9574 N 947.462 1.57535 -0.0451378 0
M  V30 9575 C 948.708 1.92736 0.630921 0
M  V30 9576 C 949.041 0.923265 1.70849 0
M  V30 9577 O 948.316 -0.0516512 1.94431 0
M  V30 9578 C 948.599 3.38348 1.23259 0
M  V30 9579 C 948.452 4.49503 0.16349 0
M  V30 9580 C 949.771 3.84233 2.14599 0
M  V30 9581 H 946.89 0.700884 0.227883 0
M  V30 9582 H 949.532 1.89706 -0.10567 0
M  V30 9583 H 947.682 3.41061 1.86037 0
M  V30 9584 H 949.354 4.58919 -0.46808 0
M  V30 9585 H 947.597 4.30802 -0.509166 0
M  V30 9586 H 948.268 5.48457 0.624382 0
M  V30 9587 H 950.744 3.83358 1.6179 0
M  V30 9588 H 949.62 4.86781 2.53644 0
M  V30 9589 H 949.881 3.20646 3.04366 0
M  V30 9590 N 948.94 -0.228186 1.55939 0
M  V30 9591 C 950.18 -0.960695 1.80416 0
M  V30 9592 C 950.544 -1.81795 0.617615 0
M  V30 9593 O 951.745 -2.58369 0.741545 0
M  V30 9594 C 950.016 -1.78298 3.09749 0
M  V30 9595 S 951.575 -2.57203 3.55517 0
M  V30 9596 H 948.393 -0.322825 0.633486 0
M  V30 9597 H 950.995 -0.226852 1.94179 0
M  V30 9598 H 949.699 -1.14323 3.94155 0
M  V30 9599 H 949.23 -2.55924 2.98775 0
M  V30 9600 H 951.245 -3.80632 3.1833 0
M  V30 9601 N 950.418 -1.49637 -0.494624 0
M  V30 9602 C 951.381 -1.66252 -1.57775 0
M  V30 9603 C 952.381 -0.534054 -1.51672 0
M  V30 9604 O 953.571 -0.800637 -1.54711 0
M  V30 9605 C 950.703 -1.66584 -2.97426 0
M  V30 9606 H 951.896 -2.62864 -1.4437 0
M  V30 9607 H 949.449 -1.38764 -0.719323 0
M  V30 9608 H 950.184 -0.715798 -3.16302 0
M  V30 9609 H 949.969 -2.48543 -3.03264 0
M  V30 9610 H 951.459 -1.81474 -3.76108 0
M  V30 9611 N 951.896 0.746133 -1.38819 0
M  V30 9612 C 953.173 1.49652 -1.25951 0
M  V30 9613 C 953.553 2.10663 0.135833 0
M  V30 9614 O 952.901 1.97682 1.14604 0
M  V30 9615 C 953.111 2.5569 -2.37537 0
M  V30 9616 C 954.459 3.22385 -2.76321 0
M  V30 9617 O 955.483 2.65998 -2.36904 0
M  V30 9618 O 954.342 4.2439 -3.44319 0
M  V30 9619 H 951.436 0.664019 -0.492958 0
M  V30 9620 H 953.982 0.780908 -1.50665 0
M  V30 9621 H 952.754 2.08908 -3.30867 0
M  V30 9622 H 952.377 3.34823 -2.14427 0
M  V30 9623 N 953.375 1.23811 0.975125 0
M  V30 9624 C 954.786 1.0675 1.53171 0
M  V30 9625 C 955.137 -0.363475 1.92804 0
M  V30 9626 O 954.262 -1.25089 1.76583 0
M  V30 9627 C 954.857 1.93161 2.78342 0
M  V30 9628 C 953.416 1.80346 3.30382 0
M  V30 9629 C 952.563 1.88544 2.03338 0
M  V30 9630 H 955.514 1.37396 0.79423 0
M  V30 9631 H 955.535 1.45951 3.51395 0
M  V30 9632 H 955.047 2.97302 2.49465 0
M  V30 9633 H 953.148 0.790077 3.64127 0
M  V30 9634 H 953.261 2.64026 3.99784 0
M  V30 9635 H 951.625 1.32186 2.17713 0
M  V30 9636 H 952.408 2.94252 1.76836 0
M  V30 9637 N 954.853 -1.17469 1.05066 0
M  V30 9638 C 956.099 -1.87976 0.761113 0
M  V30 9639 C 956.432 -1.80756 -0.709995 0
M  V30 9640 O 955.707 -1.21469 -1.51906 0
M  V30 9641 C 955.99 -3.38055 1.2406 0
M  V30 9642 C 955.843 -3.54032 2.77455 0
M  V30 9643 C 957.162 -4.32036 0.838612 0
M  V30 9644 H 954.281 -0.682573 0.277963 0
M  V30 9645 H 956.923 -1.38147 1.30443 0
M  V30 9646 H 955.073 -3.80622 0.778388 0
M  V30 9647 H 956.745 -3.20489 3.3179 0
M  V30 9648 H 954.988 -2.96352 3.16793 0
M  V30 9649 H 955.659 -4.59377 3.06066 0
M  V30 9650 H 958.135 -3.97303 1.23651 0
M  V30 9651 H 957.011 -5.35583 1.20173 0
M  V30 9652 H 957.272 -4.41349 -0.257498 0
M  V30 9653 N 956.331 -0.831506 -1.3388 0
M  V30 9654 C 957.561 -0.436292 -2.01941 0
M  V30 9655 C 957.969 0.964979 -1.62741 0
M  V30 9656 O 957.312 1.63733 -0.832894 0
M  V30 9657 C 957.374 -0.468811 -3.5643 0
M  V30 9658 C 957.038 -1.82491 -4.18982 0
M  V30 9659 C 958.035 -2.78705 -4.38885 0
M  V30 9660 C 955.72 -2.11574 -4.55568 0
M  V30 9661 C 957.714 -4.02168 -4.94509 0
M  V30 9662 C 955.401 -3.35296 -5.10901 0
M  V30 9663 C 956.399 -4.3041 -5.30317 0
M  V30 9664 O 956.087 -5.51944 -5.84477 0
M  V30 9665 H 955.819 -0.172335 -0.653664 0
M  V30 9666 H 958.373 -1.12354 -1.71947 0
M  V30 9667 H 956.603 0.275179 -3.8572 0
M  V30 9668 H 958.292 -0.0924518 -4.05795 0
M  V30 9669 H 959.058 -2.57534 -4.10976 0
M  V30 9670 H 954.937 -1.38338 -4.39754 0
M  V30 9671 H 958.481 -4.76418 -5.09579 0
M  V30 9672 H 954.378 -3.56326 -5.3824 0
M  V30 9673 H 955.146 -5.53582 -6.029 0
M  V30 9674 N 957.809 1.4625 -0.587256 0
M  V30 9675 C 958.756 2.30354 0.143384 0
M  V30 9676 C 959.726 1.40891 0.879716 0
M  V30 9677 O 960.911 1.69837 0.869486 0
M  V30 9678 C 958.051 3.25441 1.14815 0
M  V30 9679 C 957.164 4.30004 0.414792 0
M  V30 9680 C 956.299 5.12214 1.40748 0
M  V30 9681 C 955.338 6.08523 0.660786 0
M  V30 9682 N 954.475 6.83585 1.60176 0
M  V30 9683 H 959.315 2.92304 -0.579866 0
M  V30 9684 H 956.852 1.44055 -0.29777 0
M  V30 9685 H 958.81 3.79018 1.7436 0
M  V30 9686 H 957.44 2.6529 1.83906 0
M  V30 9687 H 956.492 3.79248 -0.295787 0
M  V30 9688 H 957.804 4.98515 -0.168738 0
M  V30 9689 H 956.958 5.70091 2.0756 0
M  V30 9690 H 955.697 4.43675 2.02494 0
M  V30 9691 H 954.702 5.49796 -0.0210864 0
M  V30 9692 H 955.927 6.79083 0.0486551 0
M  V30 9693 H 953.873 6.17752 2.20724 0
M  V30 9694 H 953.79 7.48373 1.07115 0
M  V30 9695 H 955.058 7.46016 2.26009 0
M  V30 9696 N 959.287 0.325282 1.54207 0
M  V30 9697 C 960.533 -0.277185 2.00897 0
M  V30 9698 C 960.866 -1.51651 1.21308 0
M  V30 9699 O 960.141 -1.92237 0.295825 0
M  V30 9700 C 960.424 -0.60961 3.54902 0
M  V30 9701 C 960.277 0.640542 4.45216 0
M  V30 9702 C 961.596 -1.42656 4.16338 0
M  V30 9703 H 958.715 -0.0992722 0.730284 0
M  V30 9704 H 961.357 0.442201 1.84783 0
M  V30 9705 H 959.507 -1.22249 3.68765 0
M  V30 9706 H 961.179 1.27878 4.43221 0
M  V30 9707 H 959.422 1.26908 4.14821 0
M  V30 9708 H 960.093 0.363459 5.50802 0
M  V30 9709 H 962.569 -0.908494 4.06061 0
M  V30 9710 H 961.445 -1.62792 5.24204 0
M  V30 9711 H 961.706 -2.42321 3.69774 0
M  V30 9712 N 960.765 -1.57509 0.0534917 0
M  V30 9713 C 961.995 -1.96812 -0.628386 0
M  V30 9714 C 962.403 -0.929808 -1.64776 0
M  V30 9715 O 961.746 0.0941155 -1.83459 0
M  V30 9716 C 961.808 -3.32361 -1.37027 0
M  V30 9717 C 961.472 -4.54185 -0.506465 0
M  V30 9718 C 962.469 -5.19398 0.228412 0
M  V30 9719 C 960.154 -5.00398 -0.43671 0
M  V30 9720 C 962.148 -6.29162 1.02146 0
M  V30 9721 C 959.835 -6.10039 0.360022 0
M  V30 9722 C 960.833 -6.74282 1.08779 0
M  V30 9723 O 960.521 -7.81814 1.87142 0
M  V30 9724 H 960.253 -0.65257 -0.176432 0
M  V30 9725 H 962.807 -2.05067 0.116908 0
M  V30 9726 H 961.037 -3.20667 -2.16125 0
M  V30 9727 H 962.726 -3.56395 -1.94261 0
M  V30 9728 H 963.492 -4.84651 0.184003 0
M  V30 9729 H 959.371 -4.50183 -0.992772 0
M  V30 9730 H 962.915 -6.79238 1.59002 0
M  V30 9731 H 958.812 -6.44222 0.406061 0
M  V30 9732 H 959.58 -7.98602 1.79378 0
M  V30 9733 N 962.243 0.219913 -1.56058 0
M  V30 9734 C 963.489 0.945463 -1.79412 0
M  V30 9735 C 963.822 1.83922 -0.62341 0
M  V30 9736 O 963.097 1.90806 0.377256 0
M  V30 9737 C 963.38 1.783 -3.1286 0
M  V30 9738 C 963.233 0.915626 -4.40382 0
M  V30 9739 C 964.552 2.76045 -3.42764 0
M  V30 9740 H 961.671 0.342288 -0.652693 0
M  V30 9741 H 964.313 0.214235 -1.88788 0
M  V30 9742 H 962.463 2.40642 -3.04998 0
M  V30 9743 H 964.135 0.30882 -4.60265 0
M  V30 9744 H 962.378 0.221124 -4.33236 0
M  V30 9745 H 963.049 1.53607 -5.30197 0
M  V30 9746 H 965.525 2.23838 -3.50764 0
M  V30 9747 H 964.401 3.31748 -4.37304 0
M  V30 9748 H 964.662 3.53866 -2.65012 0
M  V30 9749 N 963.721 1.49897 0.486681 0
M  V30 9750 C 964.684 1.67086 1.56891 0
M  V30 9751 C 965.684 0.54209 1.51387 0
M  V30 9752 O 966.874 0.80883 1.54284 0
M  V30 9753 C 964.006 1.68159 2.96539 0
M  V30 9754 H 965.199 2.63626 1.42974 0
M  V30 9755 H 962.752 1.39143 0.711954 0
M  V30 9756 H 963.487 0.732562 3.15918 0
M  V30 9757 H 963.272 2.50147 3.01942 0
M  V30 9758 H 964.762 1.83466 3.7514 0
M  V30 9759 N 965.199 -0.738761 1.39212 0
M  V30 9760 C 966.162 -1.83441 1.37412 0
M  V30 9761 C 967.162 -1.58484 0.271908 0
M  V30 9762 O 968.352 -1.65954 0.529609 0
M  V30 9763 C 965.484 -3.21167 1.143 0
M  V30 9764 H 966.677 -1.86441 2.34904 0
M  V30 9765 H 964.23 -0.942023 1.24722 0
M  V30 9766 H 964.965 -3.23829 0.174756 0
M  V30 9767 H 964.75 -3.40678 1.94116 0
M  V30 9768 H 966.24 -4.01231 1.15773 0
M  V30 9769 N 966.677 -1.24326 -0.968545 0
M  V30 9770 C 967.607 -1.05951 -2.08079 0
M  V30 9771 C 968.588 0.0272666 -1.70078 0
M  V30 9772 O 969.773 -0.139644 -1.93697 0
M  V30 9773 C 966.903 -0.662623 -3.4092 0
M  V30 9774 C 965.857 -1.69807 -3.92873 0
M  V30 9775 C 965.183 -1.15628 -5.22048 0
M  V30 9776 C 966.483 -3.09383 -4.20808 0
M  V30 9777 H 968.177 -1.98984 -2.23709 0
M  V30 9778 H 965.723 -0.958112 -1.075 0
M  V30 9779 H 967.676 -0.521071 -4.18166 0
M  V30 9780 H 966.4 0.303399 -3.25188 0
M  V30 9781 H 965.059 -1.82783 -3.17783 0
M  V30 9782 H 964.707 -0.180888 -5.02675 0
M  V30 9783 H 964.407 -1.84822 -5.57776 0
M  V30 9784 H 965.931 -1.02683 -6.01904 0
M  V30 9785 H 967.345 -2.99642 -4.88761 0
M  V30 9786 H 965.742 -3.75923 -4.67763 0
M  V30 9787 H 966.812 -3.57486 -3.27616 0
M  V30 9788 N 968.156 1.1691 -1.05688 0
M  V30 9789 C 969.103 2.21095 -0.662246 0
M  V30 9790 C 970.073 1.62623 0.338083 0
M  V30 9791 O 971.258 1.89428 0.228362 0
M  V30 9792 C 968.398 3.45066 -0.0484018 0
M  V30 9793 C 967.511 4.17809 -1.09817 0
M  V30 9794 C 966.646 5.29281 -0.451114 0
M  V30 9795 C 965.685 5.93817 -1.48484 0
M  V30 9796 N 964.822 6.96793 -0.861588 0
M  V30 9797 H 969.662 2.54204 -1.55513 0
M  V30 9798 H 967.199 1.24863 -0.777665 0
M  V30 9799 H 969.157 4.15932 0.324978 0
M  V30 9800 H 967.787 3.12526 0.807918 0
M  V30 9801 H 966.839 3.45608 -1.58932 0
M  V30 9802 H 968.151 4.61907 -1.88265 0
M  V30 9803 H 967.305 6.06695 -0.0244251 0
M  V30 9804 H 966.044 4.8633 0.365306 0
M  V30 9805 H 965.049 5.1513 -1.92149 0
M  V30 9806 H 966.274 6.38848 -2.30325 0
M  V30 9807 H 964.22 6.55967 -0.0657688 0
M  V30 9808 H 964.137 7.39229 -1.58354 0
M  V30 9809 H 965.405 7.78142 -0.45984 0
M  V30 9810 N 969.634 0.838594 1.33437 0
M  V30 9811 C 970.862 0.447644 2.01999 0
M  V30 9812 C 971.277 -0.951053 1.63096 0
M  V30 9813 O 970.634 -1.61802 0.844169 0
M  V30 9814 C 970.685 0.558378 3.57162 0
M  V30 9815 O 970.406 1.90196 3.94661 0
M  V30 9816 C 971.907 0.164348 4.42995 0
M  V30 9817 H 969.127 0.177736 0.647032 0
M  V30 9818 H 971.671 1.13109 1.70372 0
M  V30 9819 H 969.826 -0.0771563 3.87323 0
M  V30 9820 H 970.24 1.88729 4.89369 0
M  V30 9821 H 971.714 0.292876 5.51222 0
M  V30 9822 H 972.191 -0.893713 4.30011 0
M  V30 9823 H 972.797 0.774306 4.18192 0
M  V30 9824 N 971.112 -1.45937 0.595003 0
M  V30 9825 C 972.042 -2.33198 -0.11871 0
M  V30 9826 C 973.023 -1.46083 -0.871423 0
M  V30 9827 O 974.208 -1.74879 -0.844461 0
M  V30 9828 C 971.338 -3.28576 -1.12495 0
M  V30 9829 C 970.292 -4.25229 -0.486275 0
M  V30 9830 C 969.618 -5.10204 -1.59986 0
M  V30 9831 C 970.918 -5.19019 0.584473 0
M  V30 9832 H 972.612 -2.93122 0.609886 0
M  V30 9833 H 970.158 -1.40951 0.294742 0
M  V30 9834 H 972.111 -3.88485 -1.6327 0
M  V30 9835 H 970.835 -2.66784 -1.88398 0
M  V30 9836 H 969.494 -3.666 0.000507962 0
M  V30 9837 H 969.142 -4.44789 -2.34886 0
M  V30 9838 H 968.842 -5.75669 -1.1781 0
M  V30 9839 H 970.366 -5.7298 -2.11014 0
M  V30 9840 H 971.78 -5.73073 0.161297 0
M  V30 9841 H 970.177 -5.92893 0.927256 0
M  V30 9842 H 971.247 -4.62208 1.46601 0
M  V30 9843 N 972.59 -0.333456 -1.54032 0
M  V30 9844 C 974.006 0.0188405 -1.59589 0
M  V30 9845 C 974.206 1.49615 -1.34972 0
M  V30 9846 O 973.262 2.2535 -1.13901 0
M  V30 9847 C 974.575 -0.408273 -2.97915 0
M  V30 9848 C 976.123 -0.359763 -3.10926 0
M  V30 9849 C 976.598 -0.76219 -4.51613 0
M  V30 9850 N 978.089 -0.715981 -4.57633 0
M  V30 9851 C 978.824 -0.999436 -5.64623 0
M  V30 9852 N 978.32 -1.35053 -6.79509 0
M  V30 9853 N 980.113 -0.924343 -5.54448 0
M  V30 9854 H 972.264 -1.29587 -1.68289 0
M  V30 9855 H 974.527 -0.527584 -0.787629 0
M  V30 9856 H 974.233 -1.43793 -3.20962 0
M  V30 9857 H 974.107 0.221685 -3.76548 0
M  V30 9858 H 976.494 0.660703 -2.87609 0
M  V30 9859 H 976.575 -1.02479 -2.34375 0
M  V30 9860 H 976.219 -1.78062 -4.75664 0
M  V30 9861 H 976.149 -0.0747478 -5.26547 0
M  V30 9862 H 978.64 -0.456875 -3.75128 0
M  V30 9863 H 978.953 -1.55194 -7.57057 0
M  V30 9864 H 977.298 -1.38889 -6.80981 0
M  V30 9865 H 980.489 -0.649469 -4.63573 0
M  V30 9866 H 980.662 -1.1486 -6.37739 0
M  V30 9867 N 974.068 1.57479 -0.061844 0
M  V30 9868 C 975.031 2.1104 0.894127 0
M  V30 9869 C 976.031 1.03227 1.23292 0
M  V30 9870 O 977.221 1.29256 1.16784 0
M  V30 9871 C 974.353 2.6035 2.20069 0
M  V30 9872 H 975.546 2.96807 0.429619 0
M  V30 9873 H 973.099 1.55181 0.18672 0
M  V30 9874 H 973.834 1.78008 2.71079 0
M  V30 9875 H 973.619 3.39146 1.9678 0
M  V30 9876 H 975.109 3.019 2.88525 0
M  V30 9877 N 975.546 -0.211634 1.56173 0
M  V30 9878 C 976.479 -1.28982 1.88252 0
M  V30 9879 C 977.457 -1.4474 0.740889 0
M  V30 9880 O 978.641 -1.60394 0.990249 0
M  V30 9881 C 975.768 -2.65879 2.09824 0
M  V30 9882 C 974.814 -2.67082 3.3252 0
M  V30 9883 S 975.647 -2.2016 4.8815 0
M  V30 9884 C 976.803 -3.58913 5.12769 0
M  V30 9885 H 977.036 -1.01578 2.79409 0
M  V30 9886 H 974.569 -0.414351 1.48736 0
M  V30 9887 H 976.527 -3.44688 2.22935 0
M  V30 9888 H 975.188 -2.90502 1.19447 0
M  V30 9889 H 974.381 -3.67703 3.44689 0
M  V30 9890 H 973.983 -1.96343 3.18317 0
M  V30 9891 H 976.275 -4.54671 5.02276 0
M  V30 9892 H 977.218 -3.51652 6.14611 0
M  V30 9893 H 977.626 -3.5306 4.40465 0
M  V30 9894 N 977.024 -1.50153 -0.478725 0
M  V30 9895 C 977.954 -1.71384 -1.58587 0
M  V30 9896 C 978.935 -0.562705 -1.60523 0
M  V30 9897 O 980.12 -0.80101 -1.76911 0
M  V30 9898 C 977.25 -1.80094 -2.96957 0
M  V30 9899 C 976.204 -2.95218 -3.09888 0
M  V30 9900 C 975.53 -2.89063 -4.49829 0
M  V30 9901 C 976.83 -4.35841 -2.8782 0
M  V30 9902 H 978.524 -2.64081 -1.41073 0
M  V30 9903 H 976.07 -1.27081 -0.677239 0
M  V30 9904 H 978.023 -1.93531 -3.74331 0
M  V30 9905 H 976.747 -0.840131 -3.1561 0
M  V30 9906 H 975.406 -2.81419 -2.34944 0
M  V30 9907 H 975.054 -1.90844 -4.6539 0
M  V30 9908 H 974.754 -3.66345 -4.59418 0
M  V30 9909 H 976.278 -3.04539 -5.29234 0
M  V30 9910 H 977.692 -4.50205 -3.54948 0
M  V30 9911 H 976.089 -5.14515 -3.0886 0
M  V30 9912 H 977.159 -4.48739 -1.83742 0
M  V30 9913 N 978.502 0.731368 -1.39602 0
M  V30 9914 C 979.748 1.49321 -1.37227 0
M  V30 9915 C 980.081 1.94176 0.0306502 0
M  V30 9916 O 979.356 1.67046 0.996294 0
M  V30 9917 C 979.639 2.73035 -2.34784 0
M  V30 9918 C 979.492 2.34176 -3.84033 0
M  V30 9919 C 980.811 3.75146 -2.30116 0
M  V30 9920 H 977.93 0.541652 -0.499783 0
M  V30 9921 H 980.572 0.835968 -1.70621 0
M  V30 9922 H 978.722 3.29114 -2.06437 0
M  V30 9923 H 980.394 1.83701 -4.23145 0
M  V30 9924 H 978.637 1.66361 -4.00633 0
M  V30 9925 H 979.308 3.22786 -4.47787 0
M  V30 9926 H 981.784 3.28661 -2.55189 0
M  V30 9927 H 980.66 4.5937 -3.00451 0
M  V30 9928 H 980.921 4.22326 -1.30741 0
M  V30 9929 N 979.98 1.24838 0.961938 0
M  V30 9930 C 981.21 1.11709 1.73795 0
M  V30 9931 C 981.618 -0.33263 1.86253 0
M  V30 9932 O 980.961 -1.24101 1.35443 0
M  V30 9933 C 981.023 1.68959 3.17322 0
M  V30 9934 C 980.687 3.17895 3.28316 0
M  V30 9935 C 981.684 4.14975 3.13196 0
M  V30 9936 C 979.369 3.57966 3.52372 0
M  V30 9937 C 981.363 5.50107 3.21965 0
M  V30 9938 C 979.05 4.93237 3.60778 0
M  V30 9939 C 980.048 5.89116 3.45588 0
M  V30 9940 O 979.736 7.21927 3.53662 0
M  V30 9941 H 979.468 0.390726 0.551642 0
M  V30 9942 H 982.022 1.65541 1.21594 0
M  V30 9943 H 980.252 1.09567 3.70853 0
M  V30 9944 H 981.941 1.51036 3.76753 0
M  V30 9945 H 982.707 3.85359 2.94489 0
M  V30 9946 H 978.586 2.83837 3.63259 0
M  V30 9947 H 982.13 6.24924 3.10025 0
M  V30 9948 H 978.027 5.22522 3.79 0
M  V30 9949 H 978.795 7.29925 3.7034 0
M  V30 9950 N 981.458 -1.16348 1.06306 0
M  V30 9951 C 982.686 -1.90782 0.800614 0
M  V30 9952 C 983.101 -1.77439 -0.645033 0
M  V30 9953 O 982.458 -1.11912 -1.4416 0
M  V30 9954 C 982.509 -3.41484 1.18621 0
M  V30 9955 O 982.23 -3.54428 2.57512 0
M  V30 9956 C 983.731 -4.32968 0.951525 0
M  V30 9957 H 980.951 -0.604977 0.290247 0
M  V30 9958 H 983.495 -1.47476 1.41672 0
M  V30 9959 H 981.65 -3.82493 0.614633 0
M  V30 9960 H 982.064 -4.4788 2.72954 0
M  V30 9961 H 983.538 -5.37169 1.27095 0
M  V30 9962 H 984.015 -4.39055 -0.112734 0
M  V30 9963 H 984.621 -3.97687 1.50749 0
M  V30 9964 N 982.937 -0.845659 -1.3299 0
M  V30 9965 C 984.348 -0.50048 -1.79867 0
M  V30 9966 C 984.699 0.981027 -1.69913 0
M  V30 9967 O 983.824 1.76477 -1.25239 0
M  V30 9968 C 984.419 -0.901679 -3.26581 0
M  V30 9969 C 982.978 -0.608536 -3.71448 0
M  V30 9970 C 982.125 -1.10632 -2.54275 0
M  V30 9971 H 985.076 -1.03372 -1.20416 0
M  V30 9972 H 985.097 -0.214433 -3.79895 0
M  V30 9973 H 984.609 -1.97998 -3.33794 0
M  V30 9974 H 982.71 0.459416 -3.69757 0
M  V30 9975 H 982.823 -1.16853 -4.64631 0
M  V30 9976 H 981.187 -0.526925 -2.4919 0
M  V30 9977 H 981.97 -2.19154 -2.64247 0
M  V30 9978 N 984.415 1.45619 -0.602734 0
M  V30 9979 C 985.655 2.0416 -0.0989764 0
M  V30 9980 C 986.019 1.4616 1.24504 0
M  V30 9981 O 987.22 1.96025 1.83923 0
M  V30 9982 C 985.491 3.57357 -0.0551869 0
M  V30 9983 S 987.05 4.3708 0.388086 0
M  V30 9984 H 983.868 0.709431 -0.0472054 0
M  V30 9985 H 986.47 1.78394 -0.799745 0
M  V30 9986 H 985.174 3.97083 -1.03697 0
M  V30 9987 H 984.705 3.87692 0.667727 0
M  V30 9988 H 986.72 4.68362 1.63865 0
M  V30 9989 N 985.893 0.34162 1.53853 0
M  V30 9990 C 986.843 -0.531995 2.21707 0
M  V30 9991 C 987.827 -1.06759 1.2038 0
M  V30 9992 O 989.019 -1.00161 1.45934 0
M  V30 9993 C 986.148 -1.6834 2.99193 0
M  V30 9994 C 985.234 -1.16184 4.07875 0
M  V30 9995 N 985.625 -0.361348 5.04508 0
M  V30 9996 C 983.923 -1.43891 4.22151 0
M  V30 9997 C 984.624 -0.0785378 5.81647 0
M  V30 9998 N 983.6 -0.669651 5.3946 0
M  V30 9999 H 987.402 0.0866825 2.93772 0
M  V30 10000 H 984.916 0.148386 1.61721 0
M  V30 10001 H 986.913 -2.32121 3.46303 0
M  V30 10002 H 985.573 -2.30538 2.28653 0
M  V30 10003 H 986.584 -0.00259906 5.179 0
M  V30 10004 H 983.261 -2.06542 3.62832 0
M  V30 10005 H 984.651 0.567068 6.69503 0
M  V30 10006 N 987.371 -1.57444 0.0701946 0
M  V30 10007 C 988.596 -1.98171 -0.61181 0
M  V30 10008 C 989.021 -0.94823 -1.62451 0
M  V30 10009 O 988.379 0.0863553 -1.81094 0
M  V30 10010 C 988.427 -3.37934 -1.2583 0
M  V30 10011 O 987.531 -3.37207 -2.37414 0
M  V30 10012 H 986.872 -0.645056 -0.157477 0
M  V30 10013 H 989.402 -2.04091 0.144235 0
M  V30 10014 H 989.412 -3.75083 -1.60552 0
M  V30 10015 H 988.087 -4.12684 -0.516234 0
M  V30 10016 H 986.664 -3.11826 -2.04497 0
M  V30 10017 N 988.849 0.203349 -1.56283 0
M  V30 10018 C 989.779 1.2549 -1.96912 0
M  V30 10019 C 990.76 1.47919 -0.839884 0
M  V30 10020 O 991.945 1.59795 -1.10359 0
M  V30 10021 C 989.075 2.6009 -2.30153 0
M  V30 10022 C 988.029 2.52289 -3.45738 0
M  V30 10023 C 987.355 3.91086 -3.64632 0
M  V30 10024 C 988.655 2.05503 -4.80173 0
M  V30 10025 H 990.349 0.917306 -2.85002 0
M  V30 10026 H 987.895 0.439818 -1.37119 0
M  V30 10027 H 989.848 3.33829 -2.5717 0
M  V30 10028 H 988.572 2.95574 -1.38937 0
M  V30 10029 H 987.231 1.81006 -3.18798 0
M  V30 10030 H 986.879 4.23908 -2.7076 0
M  V30 10031 H 986.579 3.86742 -4.42385 0
M  V30 10032 H 988.103 4.66459 -3.94016 0
M  V30 10033 H 989.517 2.68995 -5.06275 0
M  V30 10034 H 987.914 2.1218 -5.61337 0
M  V30 10035 H 988.984 1.00793 -4.74309 0
M  V30 10036 N 990.327 1.50405 0.470755 0
M  V30 10037 C 991.29 1.68741 1.5511 0
M  V30 10038 C 992.29 0.558116 1.50804 0
M  V30 10039 O 993.48 0.825149 1.53418 0
M  V30 10040 C 990.612 1.71295 2.94739 0
M  V30 10041 H 991.805 2.65127 1.40169 0
M  V30 10042 H 989.358 1.39891 0.697156 0
M  V30 10043 H 990.093 0.766029 3.15123 0
M  V30 10044 H 989.878 2.53336 2.99271 0
M  V30 10045 H 991.368 1.87434 3.73173 0
M  V30 10046 N 991.805 -0.723954 1.39988 0
M  V30 10047 C 992.715 -1.86829 1.41887 0
M  V30 10048 C 993.731 -1.71173 0.312401 0
M  V30 10049 O 994.907 -1.93583 0.555651 0
M  V30 10050 C 991.972 -3.22541 1.27154 0
M  V30 10051 C 991.033 -3.50512 2.47871 0
M  V30 10052 C 990.266 -4.79749 2.33831 0
M  V30 10053 O 990.489 -5.54251 1.34765 0
M  V30 10054 O 989.423 -5.07868 3.23039 0
M  V30 10055 H 993.249 -1.88183 2.38371 0
M  V30 10056 H 990.834 -0.873259 1.21221 0
M  V30 10057 H 992.716 -4.0362 1.21114 0
M  V30 10058 H 991.391 -3.21933 0.337715 0
M  V30 10059 H 990.298 -2.69475 2.59488 0
M  V30 10060 H 991.631 -3.55909 3.39985 0
M  V30 10061 N 993.283 -1.25346 -0.955304 0
M  V30 10062 C 994.699 -1.02154 -1.22625 0
M  V30 10063 C 994.899 0.26206 -1.99789 0
M  V30 10064 O 993.955 0.974958 -2.32918 0
M  V30 10065 C 995.268 -2.2443 -2.00129 0
M  V30 10066 C 996.816 -2.29185 -2.13174 0
M  V30 10067 C 997.291 -3.51117 -2.94077 0
M  V30 10068 N 998.782 -3.51509 -3.01655 0
M  V30 10069 C 999.517 -4.42517 -3.64645 0
M  V30 10070 N 999.013 -5.43796 -4.29252 0
M  V30 10071 N 1000.81 -4.302 -3.61779 0
M  V30 10072 H 992.957 -2.07812 -0.439071 0
M  V30 10073 H 995.22 -0.91258 -0.256715 0
M  V30 10074 H 994.926 -3.17717 -1.50827 0
M  V30 10075 H 994.8 -2.27548 -3.00835 0
M  V30 10076 H 997.187 -1.36422 -2.61674 0
M  V30 10077 H 997.268 -2.30087 -1.11775 0
M  V30 10078 H 996.912 -4.44201 -2.46268 0
M  V30 10079 H 996.842 -3.4746 -3.95701 0
M  V30 10080 H 999.333 -2.78245 -2.55711 0
M  V30 10081 H 999.646 -6.09453 -4.75171 0
M  V30 10082 H 997.991 -5.4767 -4.27882 0
M  V30 10083 H 1001.18 -3.50304 -3.10491 0
M  V30 10084 H 1001.36 -5.01323 -4.10584 0
M  V30 10085 N 994.761 1.15782 -1.06922 0
M  V30 10086 C 996.01 1.85807 -0.784774 0
M  V30 10087 C 996.323 1.82967 0.691551 0
M  V30 10088 O 997.529 2.48632 1.0906 0
M  V30 10089 C 995.985 3.33469 -1.35375 0
M  V30 10090 C 995.593 3.44766 -2.86077 0
M  V30 10091 C 997.337 4.08707 -1.14713 0
M  V30 10092 C 995.244 4.86551 -3.36187 0
M  V30 10093 H 994.174 0.696046 -0.28989 0
M  V30 10094 H 996.825 1.30629 -1.28873 0
M  V30 10095 H 995.207 3.88292 -0.77754 0
M  V30 10096 H 996.381 3.00073 -3.49704 0
M  V30 10097 H 994.696 2.82969 -3.05479 0
M  V30 10098 H 997.293 5.13336 -1.49633 0
M  V30 10099 H 997.636 4.16211 -0.0858868 0
M  V30 10100 H 998.169 3.60142 -1.68946 0
M  V30 10101 H 994.908 4.84229 -4.41818 0
M  V30 10102 H 994.428 5.31844 -2.77312 0
M  V30 10103 H 996.107 5.55392 -3.31887 0
M  V30 10104 N 996.239 0.8527 1.3254 0
M  V30 10105 C 997.186 0.293905 2.28921 0
M  V30 10106 C 998.156 -0.598027 1.54961 0
M  V30 10107 O 999.341 -0.533355 1.83194 0
M  V30 10108 C 996.481 -0.513361 3.4126 0
M  V30 10109 C 995.594 0.404144 4.30105 0
M  V30 10110 C 994.729 -0.415564 5.29572 0
M  V30 10111 C 993.768 0.499461 6.10059 0
M  V30 10112 N 992.905 -0.282949 7.0153 0
M  V30 10113 H 997.745 1.12107 2.76109 0
M  V30 10114 H 995.282 0.564272 1.35847 0
M  V30 10115 H 997.24 -0.997008 4.05112 0
M  V30 10116 H 995.87 -1.30537 2.95229 0
M  V30 10117 H 994.922 1.00617 3.66852 0
M  V30 10118 H 996.234 1.10648 4.86373 0
M  V30 10119 H 995.388 -0.962458 5.99017 0
M  V30 10120 H 994.127 -1.15127 4.73917 0
M  V30 10121 H 993.132 1.05825 5.39519 0
M  V30 10122 H 994.357 1.23375 6.67799 0
M  V30 10123 H 992.303 -1.00179 6.48306 0
M  V30 10124 H 992.22 0.36039 7.55141 0
M  V30 10125 H 993.488 -0.811632 7.75263 0
M  V30 10126 N 997.718 -1.45297 0.610449 0
M  V30 10127 C 998.648 -2.33311 -0.0939698 0
M  V30 10128 C 999.629 -1.46999 -0.85588 0
M  V30 10129 O 1000.81 -1.75764 -0.825865 0
M  V30 10130 C 997.944 -3.29751 -1.09003 0
M  V30 10131 C 996.898 -4.2572 -0.441146 0
M  V30 10132 C 996.224 -5.11873 -1.54566 0
M  V30 10133 C 997.524 -5.1837 0.639489 0
M  V30 10134 H 999.218 -2.92459 0.640941 0
M  V30 10135 H 996.764 -1.40631 0.309675 0
M  V30 10136 H 998.717 -3.90195 -1.59141 0
M  V30 10137 H 997.441 -2.68768 -1.85557 0
M  V30 10138 H 996.1 -3.66579 0.0393908 0
M  V30 10139 H 995.748 -4.47256 -2.30155 0
M  V30 10140 H 995.448 -5.76886 -1.11698 0
M  V30 10141 H 996.972 -5.75185 -2.04925 0
M  V30 10142 H 998.386 -5.7287 0.22207 0
M  V30 10143 H 996.783 -5.91876 0.990089 0
M  V30 10144 H 997.853 -4.60627 1.51495 0
M  V30 10145 N 999.196 -0.349774 -1.5367 0
M  V30 10146 C 1000.13 0.538575 -2.22782 0
M  V30 10147 C 1001.14 1.05896 -1.23652 0
M  V30 10148 O 1002.33 0.968045 -1.4997 0
M  V30 10149 C 999.43 1.7546 -2.89943 0
M  V30 10150 C 998.603 1.36843 -4.15443 0
M  V30 10151 C 997.662 2.4448 -4.65957 0
M  V30 10152 O 996.688 2.07528 -5.3002 0
M  V30 10153 N 997.89 3.75829 -4.42417 0
M  V30 10154 H 1000.65 -0.053348 -2.99653 0
M  V30 10155 H 998.216 -0.174193 -1.6096 0
M  V30 10156 H 1000.21 2.46911 -3.20651 0
M  V30 10157 H 998.778 2.25375 -2.16622 0
M  V30 10158 H 997.998 0.484421 -3.91212 0
M  V30 10159 H 999.286 1.0865 -4.97064 0
M  V30 10160 H 998.684 4.08635 -3.91196 0
M  V30 10161 H 997.241 4.43432 -4.77714 0
M  V30 10162 N 1000.67 1.57404 -0.0785433 0
M  V30 10163 C 1002.09 1.57158 0.2781 0
M  V30 10164 C 1002.29 1.08847 1.69572 0
M  V30 10165 O 1001.35 0.757407 2.40873 0
M  V30 10166 C 1002.66 3.00589 0.0816067 0
M  V30 10167 C 1004.21 3.12637 0.150627 0
M  V30 10168 C 1004.68 4.57997 -0.0176685 0
M  V30 10169 N 1006.17 4.63185 0.0377145 0
M  V30 10170 C 1006.91 5.7336 -0.0679907 0
M  V30 10171 N 1006.4 6.92426 -0.227598 0
M  V30 10172 N 1008.2 5.62099 -0.0104424 0
M  V30 10173 H 1000.35 1.87121 -1.00496 0
M  V30 10174 H 1002.61 0.862937 -0.392484 0
M  V30 10175 H 1002.32 3.40072 -0.896869 0
M  V30 10176 H 1002.19 3.67931 0.831046 0
M  V30 10177 H 1004.58 2.73037 1.11959 0
M  V30 10178 H 1004.66 2.4792 -0.630028 0
M  V30 10179 H 1004.3 4.98288 -0.983431 0
M  V30 10180 H 1004.23 5.20754 0.782475 0
M  V30 10181 H 1006.72 3.77564 0.159208 0
M  V30 10182 H 1007.04 7.72217 -0.300217 0
M  V30 10183 H 1005.38 6.94502 -0.263049 0
M  V30 10184 H 1008.57 4.67964 0.112999 0
M  V30 10185 H 1008.75 6.47928 -0.0962747 0
M  V30 10186 N 1002.15 -0.195058 1.56388 0
M  V30 10187 C 1003.08 -1.24444 1.97575 0
M  V30 10188 C 1004.06 -1.47471 0.847717 0
M  V30 10189 O 1005.25 -1.59208 1.11205 0
M  V30 10190 C 1002.38 -2.58866 2.31529 0
M  V30 10191 C 1001.33 -2.50451 3.47071 0
M  V30 10192 C 1000.66 -3.89146 3.667 0
M  V30 10193 C 1001.96 -2.02953 4.81256 0
M  V30 10194 H 1003.65 -0.902178 2.85484 0
M  V30 10195 H 1001.2 -0.43254 1.3735 0
M  V30 10196 H 1003.15 -3.3246 2.58936 0
M  V30 10197 H 1001.87 -2.94833 1.40502 0
M  V30 10198 H 1000.53 -1.79313 3.19754 0
M  V30 10199 H 1000.18 -4.22466 2.73004 0
M  V30 10200 H 999.882 -3.84391 4.44429 0
M  V30 10201 H 1001.41 -4.64363 3.96484 0
M  V30 10202 H 1002.82 -2.66306 5.07695 0
M  V30 10203 H 1001.22 -2.092 5.62455 0
M  V30 10204 H 1002.29 -0.982757 4.74837 0
M  V30 10205 N 1003.63 -1.50653 -0.462772 0
M  V30 10206 C 1004.56 -1.73056 -1.5676 0
M  V30 10207 C 1005.54 -0.579699 -1.59917 0
M  V30 10208 O 1006.73 -0.819729 -1.76051 0
M  V30 10209 C 1003.86 -1.83234 -2.9503 0
M  V30 10210 C 1002.81 -2.98488 -3.06739 0
M  V30 10211 C 1002.14 -2.93818 -4.46738 0
M  V30 10212 C 1003.44 -4.38869 -2.83181 0
M  V30 10213 H 1005.13 -2.65562 -1.38265 0
M  V30 10214 H 1002.68 -1.27792 -0.663722 0
M  V30 10215 H 1004.63 -1.97491 -3.72257 0
M  V30 10216 H 1003.35 -0.873558 -3.14701 0
M  V30 10217 H 1002.01 -2.83895 -2.31946 0
M  V30 10218 H 1001.66 -1.95769 -4.63339 0
M  V30 10219 H 1001.36 -3.71197 -4.55507 0
M  V30 10220 H 1002.88 -3.10135 -5.25974 0
M  V30 10221 H 1004.3 -4.53945 -3.50153 0
M  V30 10222 H 1002.69 -5.17762 -3.03386 0
M  V30 10223 H 1003.76 -4.50663 -1.78972 0
M  V30 10224 N 1005.11 0.71652 -1.4037 0
M  V30 10225 C 1006.04 1.84138 -1.36477 0
M  V30 10226 C 1007.05 1.6054 -0.27033 0
M  V30 10227 O 1008.24 1.70431 -0.530612 0
M  V30 10228 C 1005.34 3.20523 -1.10082 0
M  V30 10229 C 1004.52 3.71326 -2.31162 0
M  V30 10230 C 1003.57 4.86322 -2.00942 0
M  V30 10231 O 1002.6 4.99022 -2.73799 0
M  V30 10232 N 1003.8 5.72051 -0.986812 0
M  V30 10233 H 1006.57 1.87977 -2.3342 0
M  V30 10234 H 1004.13 0.89802 -1.34712 0
M  V30 10235 H 1006.12 3.95049 -0.878526 0
M  V30 10236 H 1004.69 3.11838 -0.21809 0
M  V30 10237 H 1003.91 2.87941 -2.69227 0
M  V30 10238 H 1005.2 4.02003 -3.11883 0
M  V30 10239 H 1004.6 5.64399 -0.383381 0
M  V30 10240 H 1003.15 6.46565 -0.824419 0
M  V30 10241 N 1006.59 1.25851 0.948643 0
M  V30 10242 C 1008 1.09975 1.50872 0
M  V30 10243 C 1008.35 -0.322497 1.93531 0
M  V30 10244 O 1007.47 -1.21316 1.79197 0
M  V30 10245 C 1008.07 1.99021 2.74182 0
M  V30 10246 C 1006.63 1.87313 3.26483 0
M  V30 10247 C 1005.77 1.92815 1.99293 0
M  V30 10248 H 1008.73 1.3905 0.764908 0
M  V30 10249 H 1008.75 1.53372 3.4822 0
M  V30 10250 H 1008.26 3.02527 2.43103 0
M  V30 10251 H 1006.36 0.867136 3.62369 0
M  V30 10252 H 1006.47 2.72446 3.94094 0
M  V30 10253 H 1004.84 1.36774 2.1486 0
M  V30 10254 H 1005.62 2.97936 1.70554 0
M  V30 10255 N 1008.06 -1.15214 1.07534 0
M  V30 10256 C 1009.31 -1.86319 0.800814 0
M  V30 10257 C 1009.64 -1.82221 -0.671494 0
M  V30 10258 O 1008.92 -1.24664 -1.49295 0
M  V30 10259 C 1009.2 -3.35347 1.31203 0
M  V30 10260 C 1009.05 -3.48067 2.84902 0
M  V30 10261 C 1010.37 -4.3016 0.930064 0
M  V30 10262 H 1007.49 -0.676523 0.292379 0
M  V30 10263 H 1010.13 -1.35349 1.33344 0
M  V30 10264 H 1008.28 -3.78886 0.858949 0
M  V30 10265 H 1009.96 -3.13379 3.38514 0
M  V30 10266 H 1008.2 -2.89566 3.23008 0
M  V30 10267 H 1008.87 -4.52782 3.15741 0
M  V30 10268 H 1011.35 -3.94591 1.3205 0
M  V30 10269 H 1010.22 -5.32914 1.31507 0
M  V30 10270 H 1010.48 -4.41796 -0.163824 0
M  V30 10271 N 1009.54 -0.859717 -1.32086 0
M  V30 10272 C 1010.79 -0.466271 -1.97367 0
M  V30 10273 C 1011.12 0.976728 -1.6785 0
M  V30 10274 O 1010.4 1.68618 -0.969449 0
M  V30 10275 C 1010.68 -0.711851 -3.52994 0
M  V30 10276 C 1010.53 -2.20364 -3.92122 0
M  V30 10277 C 1011.85 -0.17156 -4.39765 0
M  V30 10278 H 1008.97 -0.170883 -0.716916 0
M  V30 10279 H 1011.61 -1.07907 -1.56384 0
M  V30 10280 H 1009.76 -0.190258 -3.88034 0
M  V30 10281 H 1011.43 -2.7917 -3.67236 0
M  V30 10282 H 1009.68 -2.68019 -3.41099 0
M  V30 10283 H 1010.35 -2.32615 -5.00594 0
M  V30 10284 H 1012.82 -0.617665 -4.1149 0
M  V30 10285 H 1011.7 -0.372921 -5.47632 0
M  V30 10286 H 1011.96 0.925959 -4.32294 0
M  V30 10287 N 1011.02 1.44971 -0.618145 0
M  V30 10288 C 1012.3 1.95539 -0.0489895 0
M  V30 10289 C 1012.68 1.5604 1.42179 0
M  V30 10290 O 1012.03 0.82809 2.12967 0
M  V30 10291 C 1012.24 3.48044 -0.258193 0
M  V30 10292 C 1013.58 4.24354 -0.144541 0
M  V30 10293 O 1014.61 3.55699 -0.18887 0
M  V30 10294 O 1013.47 5.46486 -0.038519 0
M  V30 10295 H 1010.56 0.826466 0.0297256 0
M  V30 10296 H 1013.11 1.55086 -0.688944 0
M  V30 10297 H 1011.88 3.69798 -1.27926 0
M  V30 10298 H 1011.5 3.95412 0.416522 0
M  V30 10299 N 1012.5 0.357919 1.53482 0
M  V30 10300 C 1013.73 -0.23514 2.05559 0
M  V30 10301 C 1014.14 -1.43068 1.23195 0
M  V30 10302 O 1013.5 -1.80481 0.270741 0
M  V30 10303 C 1013.55 -0.636147 3.55859 0
M  V30 10304 O 1013.27 0.511864 4.35099 0
M  V30 10305 C 1014.77 -1.28841 4.24164 0
M  V30 10306 H 1011.99 -0.0428446 0.669631 0
M  V30 10307 H 1014.54 0.51407 1.97933 0
M  V30 10308 H 1012.69 -1.33528 3.63661 0
M  V30 10309 H 1013.1 0.189328 5.24158 0
M  V30 10310 H 1014.58 -1.51962 5.30671 0
M  V30 10311 H 1015.06 -2.24638 3.77405 0
M  V30 10312 H 1015.66 -0.630914 4.20594 0
M  V30 10313 N 1013.98 -1.5736 0.0868897 0
M  V30 10314 C 1015.23 -1.93229 -0.578387 0
M  V30 10315 C 1015.54 -0.970127 -1.69847 0
M  V30 10316 O 1016.74 -1.22222 -2.42434 0
M  V30 10317 C 1015.2 -3.43307 -1.0802 0
M  V30 10318 C 1014.81 -4.47999 0.00968135 0
M  V30 10319 C 1016.55 -3.88151 -1.71868 0
M  V30 10320 C 1014.46 -5.89223 -0.507029 0
M  V30 10321 H 1013.39 -0.721245 -0.219823 0
M  V30 10322 H 1016.04 -1.82787 0.161566 0
M  V30 10323 H 1014.42 -3.48873 -1.87359 0
M  V30 10324 H 1015.6 -4.54067 0.784865 0
M  V30 10325 H 1013.91 -4.12714 0.552845 0
M  V30 10326 H 1016.51 -4.91056 -2.11585 0
M  V30 10327 H 1016.85 -3.26347 -2.58464 0
M  V30 10328 H 1017.38 -3.85252 -0.991259 0
M  V30 10329 H 1014.12 -6.54708 0.322121 0
M  V30 10330 H 1013.64 -5.86643 -1.2494 0
M  V30 10331 H 1015.32 -6.39556 -0.978628 0
M  V30 10332 N 1015.45 0.186762 -1.56489 0
M  V30 10333 C 1016.38 1.23395 -1.98232 0
M  V30 10334 C 1017.37 1.4702 -0.855526 0
M  V30 10335 O 1018.55 1.58616 -1.12048 0
M  V30 10336 C 1015.68 2.57635 -2.32898 0
M  V30 10337 C 1014.63 2.48607 -3.48394 0
M  V30 10338 C 1013.96 3.87196 -3.68759 0
M  V30 10339 C 1015.26 2.00398 -4.82325 0
M  V30 10340 H 1016.95 0.887026 -2.85958 0
M  V30 10341 H 1014.5 0.42525 -1.37578 0
M  V30 10342 H 1016.45 3.31082 -2.60696 0
M  V30 10343 H 1015.18 2.94084 -1.42064 0
M  V30 10344 H 1013.84 1.77615 -3.207 0
M  V30 10345 H 1013.48 4.21012 -2.75241 0
M  V30 10346 H 1013.18 3.82029 -4.46462 0
M  V30 10347 H 1014.71 4.62253 -3.98941 0
M  V30 10348 H 1016.12 2.6361 -5.091 0
M  V30 10349 H 1014.52 2.06214 -5.63556 0
M  V30 10350 H 1015.59 0.957562 -4.75351 0
M  V30 10351 N 1016.93 1.50896 0.454776 0
M  V30 10352 C 1018.18 1.6294 1.20741 0
M  V30 10353 C 1018.51 0.336339 1.91265 0
M  V30 10354 O 1017.79 -0.663153 1.82846 0
M  V30 10355 C 1018.07 2.82092 2.23822 0
M  V30 10356 C 1017.92 4.21326 1.57495 0
M  V30 10357 C 1019.24 2.96777 3.24979 0
M  V30 10358 H 1016.36 0.59302 0.437603 0
M  V30 10359 H 1019 1.83331 0.498959 0
M  V30 10360 H 1017.15 2.64837 2.84243 0
M  V30 10361 H 1018.82 4.50209 1.00546 0
M  V30 10362 H 1017.07 4.24829 0.877664 0
M  V30 10363 H 1017.74 5.00656 2.32482 0
M  V30 10364 H 1020.21 3.12627 2.74597 0
M  V30 10365 H 1019.09 3.81742 3.94416 0
M  V30 10366 H 1019.35 2.08091 3.90065 0
M  V30 10367 N 1018.41 -0.709066 1.40748 0
M  V30 10368 C 1019.36 -1.82312 1.4153 0
M  V30 10369 C 1020.33 -1.63868 0.271392 0
M  V30 10370 O 1021.51 -1.8491 0.470431 0
M  V30 10371 C 1018.65 -3.2008 1.29006 0
M  V30 10372 C 1017.77 -3.50051 2.53156 0
M  V30 10373 C 1016.9 -4.7736 2.33025 0
M  V30 10374 C 1015.94 -5.00255 3.52719 0
M  V30 10375 N 1015.08 -6.18782 3.31743 0
M  V30 10376 H 1019.92 -1.80978 2.36751 0
M  V30 10377 H 1017.45 -0.883975 1.17577 0
M  V30 10378 H 1019.41 -3.99645 1.19749 0
M  V30 10379 H 1018.04 -3.20626 0.374014 0
M  V30 10380 H 1017.09 -2.64993 2.72916 0
M  V30 10381 H 1018.41 -3.62877 3.42231 0
M  V30 10382 H 1017.56 -5.64954 2.21159 0
M  V30 10383 H 1016.3 -4.66756 1.41386 0
M  V30 10384 H 1015.3 -4.11114 3.65055 0
M  V30 10385 H 1016.53 -5.12728 4.45295 0
M  V30 10386 H 1014.47 -6.09416 2.42791 0
M  V30 10387 H 1014.39 -6.32313 4.14386 0
M  V30 10388 H 1015.66 -7.09146 3.23623 0
M  V30 10389 N 1019.89 -1.26353 -0.941956 0
M  V30 10390 C 1021.13 -1.13071 -1.70277 0
M  V30 10391 C 1021.49 0.320699 -1.89303 0
M  V30 10392 O 1022.69 0.575624 -2.62564 0
M  V30 10393 C 1020.97 -1.87777 -3.04096 0
M  V30 10394 S 1022.52 -1.9054 -3.95272 0
M  V30 10395 H 1019.34 -0.403912 -0.585129 0
M  V30 10396 H 1021.94 -1.6006 -1.12254 0
M  V30 10397 H 1020.65 -2.92447 -2.87929 0
M  V30 10398 H 1020.18 -1.41226 -3.67177 0
M  V30 10399 H 1022.19 -0.991548 -4.86192 0
M  V30 10400 N 1021.37 1.14642 -1.08144 0
M  V30 10401 C 1022.33 2.17834 -0.712799 0
M  V30 10402 C 1023.33 1.58828 0.251041 0
M  V30 10403 O 1024.52 1.74173 0.0309381 0
M  V30 10404 C 1021.65 3.4086 -0.0519477 0
M  V30 10405 H 1022.85 2.51961 -1.62653 0
M  V30 10406 H 1020.4 1.29243 -0.878971 0
M  V30 10407 H 1021.13 3.12311 0.873636 0
M  V30 10408 H 1020.92 3.84952 -0.745286 0
M  V30 10409 H 1022.41 4.17163 0.191031 0
M  V30 10410 N 1022.85 0.866709 1.31628 0
M  V30 10411 C 1024.12 0.396828 1.91532 0
M  V30 10412 C 1024.5 -1.12081 1.78889 0
M  V30 10413 O 1023.85 -1.94791 1.19452 0
M  V30 10414 C 1024.06 0.874578 3.37864 0
M  V30 10415 C 1025.41 0.8988 4.14978 0
M  V30 10416 O 1026.43 0.820014 3.46633 0
M  V30 10417 O 1025.29 1.01223 5.37044 0
M  V30 10418 H 1022.39 0.1181 0.818524 0
M  V30 10419 H 1024.93 0.954407 1.40318 0
M  V30 10420 H 1023.7 1.91807 3.41066 0
M  V30 10421 H 1023.33 0.295126 3.96503 0
M  V30 10422 N 1024.32 -1.44642 0.625825 0
M  V30 10423 C 1025.29 -2.29085 -0.072526 0
M  V30 10424 C 1026.29 -1.40755 -0.777467 0
M  V30 10425 O 1027.48 -1.62684 -0.622861 0
M  V30 10426 C 1024.61 -3.22212 -1.1132 0
M  V30 10427 H 1025.8 -2.92317 0.670124 0
M  V30 10428 H 1023.35 -1.51466 0.38571 0
M  V30 10429 H 1024.09 -2.63819 -1.88601 0
M  V30 10430 H 1023.87 -3.87299 -0.611709 0
M  V30 10431 H 1025.36 -3.8566 -1.60175 0
M  V30 10432 N 1025.8 -0.366053 -1.5329 0
M  V30 10433 C 1026.75 0.495319 -2.27265 0
M  V30 10434 C 1027.74 1.08298 -1.30261 0
M  V30 10435 O 1028.95 1.02613 -1.47887 0
M  V30 10436 H 1025.32 0.178454 -0.730519 0
M  V30 10437 H 1027.3 -0.150354 -2.98021 0
M  V30 10438 C 1026.04 1.62283 -3.07505 0
M  V30 10439 H 1025.37 1.17993 -3.81992 0
M  V30 10440 H 1026.81 2.20024 -3.62444 0
M  V30 10441 C 1025.27 2.56542 -2.18375 0
M  V30 10442 O 1025.8 3.59371 -1.79486 0
M  V30 10443 N 1024 2.25742 -1.82999 0
M  V30 10444 H 1023.55 1.42159 -2.14822 0
M  V30 10445 H 1023.51 2.89064 -1.2365 0
M  V30 10446 N 1027.28 1.57312 -0.0952337 0
M  V30 10447 C 1028.5 1.99119 0.580206 0
M  V30 10448 C 1028.93 0.973955 1.60922 0
M  V30 10449 O 1028.29 -0.0575338 1.81209 0
M  V30 10450 C 1028.34 3.39893 1.20438 0
M  V30 10451 O 1027.44 3.40941 2.32019 0
M  V30 10452 H 1026.78 0.64748 0.147195 0
M  V30 10453 H 1029.31 2.03836 -0.176686 0
M  V30 10454 H 1029.32 3.7759 1.54564 0
M  V30 10455 H 1028 4.13453 0.450514 0
M  V30 10456 H 1026.57 3.1504 1.9951 0
M  V30 10457 N 1028.76 -0.17846 1.56586 0
M  V30 10458 C 1030.17 -0.529957 1.50544 0
M  V30 10459 C 1030.37 -1.85015 0.798237 0
M  V30 10460 O 1029.43 -2.49983 0.355639 0
M  V30 10461 C 1030.74 -0.569314 2.95261 0
M  V30 10462 C 1032.29 -0.657008 3.06027 0
M  V30 10463 C 1032.77 -0.727323 4.52188 0
M  V30 10464 N 1034.26 -0.790406 4.56406 0
M  V30 10465 C 1034.99 -0.865265 5.66834 0
M  V30 10466 N 1034.49 -0.901398 6.86911 0
M  V30 10467 N 1036.28 -0.903736 5.54787 0
M  V30 10468 H 1028.43 0.687304 2.00972 0
M  V30 10469 H 1030.69 0.246936 0.915274 0
M  V30 10470 H 1030.4 0.331934 3.5013 0
M  V30 10471 H 1030.27 -1.41828 3.4952 0
M  V30 10472 H 1032.66 -1.54868 2.51197 0
M  V30 10473 H 1032.74 0.218495 2.54865 0
M  V30 10474 H 1032.39 0.160067 5.07648 0
M  V30 10475 H 1032.32 -1.61887 5.01099 0
M  V30 10476 H 1034.81 -0.771054 3.6995 0
M  V30 10477 H 1035.12 -0.959494 7.6682 0
M  V30 10478 H 1033.47 -0.869795 6.89536 0
M  V30 10479 H 1036.66 -0.872459 4.59898 0
M  V30 10480 H 1036.83 -0.958615 6.4087 0
M  V30 10481 N 1030.24 -1.51135 -0.446768 0
M  V30 10482 C 1031.46 -1.67129 -1.21965 0
M  V30 10483 C 1031.88 -0.36467 -1.85245 0
M  V30 10484 O 1031.24 0.655908 -1.70306 0
M  V30 10485 C 1031.29 -2.78016 -2.31061 0
M  V30 10486 O 1031.01 -4.03615 -1.70371 0
M  V30 10487 C 1032.51 -3.05197 -3.21511 0
M  V30 10488 H 1029.73 -0.561111 -0.367961 0
M  V30 10489 H 1032.27 -1.97499 -0.530517 0
M  V30 10490 H 1030.43 -2.50272 -2.95707 0
M  V30 10491 H 1030.84 -4.65126 -2.424 0
M  V30 10492 H 1032.32 -3.8639 -3.94216 0
M  V30 10493 H 1032.79 -2.17228 -3.81718 0
M  V30 10494 H 1033.4 -3.34565 -2.62577 0
M  V30 10495 N 1031.71 0.701592 -1.41122 0
M  V30 10496 C 1032.94 1.49553 -1.43696 0
M  V30 10497 C 1033.36 1.88053 -0.0421865 0
M  V30 10498 O 1032.72 1.54223 0.953144 0
M  V30 10499 C 1032.77 2.73834 -2.34622 0
M  V30 10500 O 1031.87 3.71088 -1.7991 0
M  V30 10501 H 1031.21 0.450352 -0.487933 0
M  V30 10502 H 1033.74 0.862886 -1.85514 0
M  V30 10503 H 1033.75 3.22209 -2.5029 0
M  V30 10504 H 1032.43 2.45149 -3.35969 0
M  V30 10505 H 1031.01 3.29994 -1.73661 0
M  V30 10506 N 1033.19 1.2685 0.935242 0
M  V30 10507 C 1034.12 1.04717 2.0388 0
M  V30 10508 C 1035.14 0.00567507 1.62799 0
M  V30 10509 O 1036.33 0.246408 1.76791 0
M  V30 10510 C 1033.43 0.56496 3.34158 0
M  V30 10511 C 1032.6 1.67704 4.03973 0
M  V30 10512 C 1031.66 1.19186 5.12524 0
M  V30 10513 O 1030.68 1.89008 5.36903 0
M  V30 10514 N 1031.89 0.0434554 5.80484 0
M  V30 10515 H 1034.65 1.99746 2.23431 0
M  V30 10516 H 1032.21 1.18316 1.10512 0
M  V30 10517 H 1034.2 0.224436 4.04077 0
M  V30 10518 H 1032.77 -0.291899 3.11234 0
M  V30 10519 H 1031.99 2.18821 3.27889 0
M  V30 10520 H 1033.28 2.42361 4.47368 0
M  V30 10521 H 1032.68 -0.539502 5.63122 0
M  V30 10522 H 1031.24 -0.237946 6.51366 0
M  V30 10523 N 1034.67 -1.14067 1.0875 0
M  V30 10524 C 1035.6 -2.21385 0.74236 0
M  V30 10525 C 1036.58 -1.67833 -0.276805 0
M  V30 10526 O 1037.77 -1.93647 -0.1464 0
M  V30 10527 C 1034.9 -3.46956 0.154644 0
M  V30 10528 C 1033.85 -4.13555 1.10255 0
M  V30 10529 C 1033.18 -5.3337 0.376877 0
M  V30 10530 C 1034.48 -4.6169 2.44213 0
M  V30 10531 H 1036.17 -2.50512 1.63964 0
M  V30 10532 H 1033.72 -1.20408 0.789807 0
M  V30 10533 H 1035.67 -4.21284 -0.0988419 0
M  V30 10534 H 1034.39 -3.17203 -0.777789 0
M  V30 10535 H 1033.05 -3.41186 1.34119 0
M  V30 10536 H 1032.7 -4.99879 -0.559472 0
M  V30 10537 H 1032.4 -5.78875 1.00884 0
M  V30 10538 H 1033.92 -6.10458 0.131527 0
M  V30 10539 H 1035.34 -5.27475 2.24595 0
M  V30 10540 H 1033.74 -5.17909 3.03134 0
M  V30 10541 H 1034.81 -3.76574 3.05483 0
M  V30 10542 N 1036.15 -0.873678 -1.31166 0
M  V30 10543 C 1037.37 -0.500242 -2.01277 0
M  V30 10544 C 1037.8 0.900811 -1.65127 0
M  V30 10545 O 1037.16 1.59504 -0.861862 0
M  V30 10546 C 1037.2 -0.668976 -3.5434 0
M  V30 10547 O 1036.31 0.290096 -4.11378 0
M  V30 10548 H 1035.65 -0.198507 -0.633633 0
M  V30 10549 H 1038.18 -1.17811 -1.67277 0
M  V30 10550 H 1038.19 -0.563673 -4.04088 0
M  V30 10551 H 1036.86 -1.69055 -3.79991 0
M  V30 10552 H 1035.44 0.139437 -3.72639 0
M  V30 10553 N 1037.63 1.44308 -0.633487 0
M  V30 10554 C 1038.88 2.01239 -0.136356 0
M  V30 10555 C 1039.19 1.50438 1.25011 0
M  V30 10556 O 1040.39 1.99513 1.84138 0
M  V30 10557 C 1038.85 3.59382 -0.193011 0
M  V30 10558 C 1038.46 4.19178 -1.58093 0
M  V30 10559 C 1040.2 4.23778 0.247534 0
M  V30 10560 C 1038.11 5.69553 -1.59258 0
M  V30 10561 H 1037.04 0.752521 -0.0472109 0
M  V30 10562 H 1039.69 1.65498 -0.79263 0
M  V30 10563 H 1038.07 3.92432 0.530408 0
M  V30 10564 H 1039.25 3.97662 -2.32813 0
M  V30 10565 H 1037.56 3.67079 -1.96576 0
M  V30 10566 H 1040.16 5.34075 0.258401 0
M  V30 10567 H 1040.5 3.96285 1.27529 0
M  V30 10568 H 1041.03 3.9554 -0.423469 0
M  V30 10569 H 1037.77 6.01784 -2.59878 0
M  V30 10570 H 1037.29 5.93185 -0.888352 0
M  V30 10571 H 1038.97 6.33234 -1.32756 0
M  V30 10572 N 1039.1 0.374177 1.53094 0
M  V30 10573 C 1040.33 -0.215903 2.06273 0
M  V30 10574 C 1040.75 -1.40979 1.24526 0
M  V30 10575 O 1040.11 -1.79331 0.266462 0
M  V30 10576 C 1040.16 -0.579089 3.5592 0
M  V30 10577 O 1039.26 -1.67516 3.76845 0
M  V30 10578 H 1038.61 -0.0293981 0.663349 0
M  V30 10579 H 1041.14 0.537271 1.9742 0
M  V30 10580 H 1041.15 -0.847678 3.99097 0
M  V30 10581 H 1039.82 0.293843 4.14861 0
M  V30 10582 H 1038.4 -1.40146 3.45563 0
M  V30 10583 N 1040.58 -1.57259 0.103575 0
M  V30 10584 C 1041.81 -1.99 -0.566275 0
M  V30 10585 C 1042.23 -0.982909 -1.61197 0
M  V30 10586 O 1041.58 0.026345 -1.82481 0
M  V30 10587 C 1041.63 -3.40778 -1.20635 0
M  V30 10588 O 1041.35 -4.37632 -0.202472 0
M  V30 10589 C 1042.86 -3.97567 -1.961 0
M  V30 10590 H 1040.08 -0.653751 -0.151164 0
M  V30 10591 H 1042.62 -2.03658 0.185365 0
M  V30 10592 H 1040.77 -3.37107 -1.90886 0
M  V30 10593 H 1041.19 -5.2026 -0.665535 0
M  V30 10594 H 1042.66 -4.98897 -2.36233 0
M  V30 10595 H 1043.14 -3.35853 -2.83018 0
M  V30 10596 H 1043.75 -4.04737 -1.30645 0
M  V30 10597 N 1042.06 0.170153 -1.56679 0
M  V30 10598 C 1042.99 1.21285 -1.9953 0
M  V30 10599 C 1043.97 1.46104 -0.871071 0
M  V30 10600 O 1045.16 1.57419 -1.13724 0
M  V30 10601 C 1042.29 2.5515 -2.35618 0
M  V30 10602 C 1041.24 2.44898 -3.51011 0
M  V30 10603 C 1040.57 3.83263 -3.72845 0
M  V30 10604 C 1041.87 1.95271 -4.84424 0
M  V30 10605 H 1043.56 0.856646 -2.86883 0
M  V30 10606 H 1041.11 0.410634 -1.38021 0
M  V30 10607 H 1043.06 3.28299 -2.64193 0
M  V30 10608 H 1041.78 2.92561 -1.45175 0
M  V30 10609 H 1040.44 1.74203 -3.22566 0
M  V30 10610 H 1040.09 4.18069 -2.79691 0
M  V30 10611 H 1039.79 3.77272 -4.50488 0
M  V30 10612 H 1041.31 4.57996 -4.03822 0
M  V30 10613 H 1042.73 2.58195 -5.11867 0
M  V30 10614 H 1041.13 2.00225 -5.65712 0
M  V30 10615 H 1042.2 0.90709 -4.7634 0
M  V30 10616 N 1043.54 1.5137 0.438746 0
M  V30 10617 C 1044.47 1.75528 1.53987 0
M  V30 10618 C 1045.45 0.605067 1.58975 0
M  V30 10619 O 1046.63 0.847634 1.74725 0
M  V30 10620 C 1043.76 1.87904 2.92078 0
M  V30 10621 C 1042.72 3.0333 3.01951 0
M  V30 10622 C 1042.04 3.00888 4.42007 0
M  V30 10623 C 1043.34 4.43319 2.76163 0
M  V30 10624 H 1045.04 2.67728 1.34022 0
M  V30 10625 H 1042.58 1.28831 0.643308 0
M  V30 10626 H 1044.54 2.03388 3.69068 0
M  V30 10627 H 1043.26 0.923514 3.13271 0
M  V30 10628 H 1041.92 2.87549 2.274 0
M  V30 10629 H 1041.57 2.03116 4.60166 0
M  V30 10630 H 1041.27 3.78397 4.49544 0
M  V30 10631 H 1042.79 3.18464 5.20973 0
M  V30 10632 H 1044.21 4.59458 3.42887 0
M  V30 10633 H 1042.6 5.22523 2.9511 0
M  V30 10634 H 1043.67 4.53453 1.71779 0
M  V30 10635 N 1045.02 -0.694098 1.41492 0
M  V30 10636 C 1045.93 -1.83778 1.45818 0
M  V30 10637 C 1046.94 -1.70471 0.348639 0
M  V30 10638 O 1048.12 -1.92361 0.596588 0
M  V30 10639 C 1045.18 -3.19771 1.33967 0
M  V30 10640 C 1044.24 -3.45175 2.5525 0
M  V30 10641 C 1043.48 -4.74681 2.43955 0
M  V30 10642 O 1043.7 -5.51268 1.46491 0
M  V30 10643 O 1042.63 -5.00901 3.33739 0
M  V30 10644 H 1046.46 -1.83084 2.42309 0
M  V30 10645 H 1044.05 -0.847349 1.23046 0
M  V30 10646 H 1045.93 -4.00961 1.29648 0
M  V30 10647 H 1044.6 -3.21145 0.405926 0
M  V30 10648 H 1043.51 -2.6391 2.65146 0
M  V30 10649 H 1044.84 -3.48617 3.47458 0
M  V30 10650 N 1046.49 -1.27344 -0.928501 0
M  V30 10651 C 1047.42 -1.12517 -2.04602 0
M  V30 10652 C 1048.41 -0.0268563 -1.70079 0
M  V30 10653 O 1049.59 -0.201197 -1.93155 0
M  V30 10654 C 1046.72 -0.770749 -3.3864 0
M  V30 10655 C 1045.67 -1.8222 -3.87272 0
M  V30 10656 C 1045 -1.32178 -5.18105 0
M  V30 10657 C 1046.3 -3.22614 -4.10752 0
M  V30 10658 H 1047.99 -2.06 -2.17265 0
M  V30 10659 H 1045.54 -0.991827 -1.04397 0
M  V30 10660 H 1047.49 -0.653843 -4.16297 0
M  V30 10661 H 1046.22 0.19979 -3.25988 0
M  V30 10662 H 1044.88 -1.928 -3.11807 0
M  V30 10663 H 1044.52 -0.340719 -5.01845 0
M  V30 10664 H 1044.22 -2.02474 -5.51614 0
M  V30 10665 H 1045.75 -1.2178 -5.98333 0
M  V30 10666 H 1047.16 -3.1504 -4.78981 0
M  V30 10667 H 1045.56 -3.90614 -4.55566 0
M  V30 10668 H 1046.63 -3.67727 -3.16077 0
M  V30 10669 N 1047.97 1.13488 -1.09353 0
M  V30 10670 C 1049.21 1.86397 -0.83877 0
M  V30 10671 C 1049.58 1.81568 0.624259 0
M  V30 10672 O 1050.78 2.49709 0.994923 0
M  V30 10673 C 1049.05 3.30583 -1.35828 0
M  V30 10674 S 1050.61 4.20995 -1.23728 0
M  V30 10675 H 1047.43 0.643022 -0.303387 0
M  V30 10676 H 1050.03 1.36788 -1.39676 0
M  V30 10677 H 1048.73 3.31652 -2.41734 0
M  V30 10678 H 1048.26 3.85255 -0.796386 0
M  V30 10679 H 1050.28 4.95845 -0.187745 0
M  V30 10680 N 1049.45 0.880621 1.30701 0
M  V30 10681 C 1050.4 0.342397 2.28246 0
M  V30 10682 C 1051.37 -0.565023 1.56194 0
M  V30 10683 O 1052.55 -0.494377 1.84284 0
M  V30 10684 C 1049.69 -0.440859 3.42272 0
M  V30 10685 C 1048.81 0.495284 4.29151 0
M  V30 10686 C 1047.94 -0.303141 5.30334 0
M  V30 10687 C 1046.98 0.628751 6.08862 0
M  V30 10688 N 1046.12 -0.13408 7.01972 0
M  V30 10689 H 1050.96 1.17938 2.73669 0
M  V30 10690 H 1048.49 0.59296 1.34619 0
M  V30 10691 H 1050.45 -0.910854 4.07135 0
M  V30 10692 H 1049.08 -1.24245 2.97931 0
M  V30 10693 H 1048.13 1.08376 3.64635 0
M  V30 10694 H 1049.45 1.2094 4.83916 0
M  V30 10695 H 1048.6 -0.835181 6.00924 0
M  V30 10696 H 1047.34 -1.05049 4.76252 0
M  V30 10697 H 1046.34 1.17246 5.37153 0
M  V30 10698 H 1047.57 1.37512 6.65032 0
M  V30 10699 H 1045.52 -0.864046 6.50285 0
M  V30 10700 H 1045.43 0.520486 7.54206 0
M  V30 10701 H 1046.7 -0.647005 7.7681 0
M  V30 10702 N 1050.93 -1.4397 0.641131 0
M  V30 10703 C 1052.18 -2.01548 0.149333 0
M  V30 10704 C 1052.5 -1.50759 -1.23679 0
M  V30 10705 O 1051.77 -0.715257 -1.82376 0
M  V30 10706 H 1050.35 -0.745173 0.0522161 0
M  V30 10707 H 1053.01 -1.7634 0.830082 0
M  V30 10708 H 1052.11 -3.11851 0.124676 0
M  V30 10709 N 1052.41 -0.382291 -1.52893 0
M  V30 10710 C 1053.34 0.491199 -2.23875 0
M  V30 10711 C 1054.35 1.03249 -1.25871 0
M  V30 10712 O 1055.54 0.936016 -1.5199 0
M  V30 10713 C 1052.64 1.6927 -2.936 0
M  V30 10714 C 1051.81 1.28 -4.18252 0
M  V30 10715 C 1050.87 2.34541 -4.71038 0
M  V30 10716 O 1049.9 1.96239 -5.34302 0
M  V30 10717 N 1051.1 3.6636 -4.50289 0
M  V30 10718 H 1053.87 -0.116897 -2.99472 0
M  V30 10719 H 1051.43 -0.208296 -1.60554 0
M  V30 10720 H 1053.42 2.40054 -3.25816 0
M  V30 10721 H 1051.99 2.20729 -2.21354 0
M  V30 10722 H 1051.21 0.40133 -3.92152 0
M  V30 10723 H 1052.5 0.98082 -4.99257 0
M  V30 10724 H 1051.9 4.00245 -3.99775 0
M  V30 10725 H 1050.45 4.332 -4.87013 0
M  V30 10726 N 1053.89 1.57202 -0.111913 0
M  V30 10727 C 1054.85 2.13778 0.826534 0
M  V30 10728 C 1055.85 1.07097 1.19945 0
M  V30 10729 O 1057.04 1.32906 1.12613 0
M  V30 10730 C 1054.17 2.6722 2.11675 0
M  V30 10731 H 1055.36 2.98023 0.334975 0
M  V30 10732 H 1052.92 1.55696 0.137256 0
M  V30 10733 H 1053.65 1.86542 2.65278 0
M  V30 10734 H 1053.44 3.45235 1.8589 0
M  V30 10735 H 1054.93 3.10926 2.78774 0
M  V30 10736 N 1055.36 -0.161842 1.56767 0
M  V30 10737 C 1056.61 -0.875192 1.82167 0
M  V30 10738 C 1056.93 -1.82367 0.690444 0
M  V30 10739 O 1056.2 -1.93756 -0.289023 0
M  V30 10740 H 1054.78 -0.326178 0.672024 0
M  V30 10741 H 1057.44 -0.159392 1.94247 0
M  V30 10742 H 1056.54 -1.44639 2.76561 0
M  V30 10743 N 1056.84 -1.516 -0.430713 0
M  V30 10744 C 1057.75 -1.76247 -1.54836 0
M  V30 10745 C 1058.77 -0.646985 -1.61524 0
M  V30 10746 O 1059.94 -0.929987 -1.78643 0
M  V30 10747 C 1057.01 -1.88833 -2.90763 0
M  V30 10748 C 1056.07 -3.12701 -2.94137 0
M  V30 10749 C 1055.3 -3.24676 -4.23581 0
M  V30 10750 O 1055.53 -2.42429 -5.16318 0
M  V30 10751 O 1054.46 -4.17697 -4.33374 0
M  V30 10752 H 1058.29 -2.71069 -1.3695 0
M  V30 10753 H 1055.87 -1.36182 -0.614396 0
M  V30 10754 H 1057.75 -1.99057 -3.71422 0
M  V30 10755 H 1056.43 -0.971987 -3.08762 0
M  V30 10756 H 1055.33 -3.0795 -2.1241 0
M  V30 10757 H 1056.67 -4.04045 -2.81084 0
M  V30 10758 N 1058.32 0.686584 -1.41858 0
M  V30 10759 C 1059.25 1.81264 -1.47193 0
M  V30 10760 C 1060.23 1.66875 -0.329657 0
M  V30 10761 O 1061.42 1.86473 -0.542347 0
M  V30 10762 C 1058.55 3.19472 -1.36216 0
M  V30 10763 C 1057.5 3.4858 -2.48347 0
M  V30 10764 C 1056.83 4.86239 -2.22432 0
M  V30 10765 C 1058.13 3.46653 -3.90678 0
M  V30 10766 H 1059.82 1.77057 -2.41436 0
M  V30 10767 H 1057.37 0.850415 -1.16206 0
M  V30 10768 H 1059.32 3.97969 -1.38558 0
M  V30 10769 H 1058.04 3.24327 -0.384611 0
M  V30 10770 H 1056.7 2.72437 -2.45303 0
M  V30 10771 H 1056.35 4.8773 -1.22999 0
M  V30 10772 H 1056.05 5.06677 -2.97577 0
M  V30 10773 H 1057.57 5.67034 -2.26505 0
M  V30 10774 H 1058.99 4.15139 -3.95389 0
M  V30 10775 H 1057.38 3.78625 -4.65578 0
M  V30 10776 H 1058.45 2.45451 -4.18189 0
M  V30 10777 N 1059.8 1.27835 0.921735 0
M  V30 10778 C 1060.76 1.11108 2.00469 0
M  V30 10779 C 1061.76 0.053203 1.60712 0
M  V30 10780 O 1062.95 0.298308 1.71627 0
M  V30 10781 C 1060.08 0.694269 3.33755 0
M  V30 10782 H 1061.28 2.07279 2.16738 0
M  V30 10783 H 1058.83 1.10708 1.10333 0
M  V30 10784 H 1059.56 -0.268561 3.23186 0
M  V30 10785 H 1059.35 1.45836 3.6397 0
M  V30 10786 H 1060.84 0.59965 4.13272 0
M  V30 10787 N 1061.28 -1.12907 1.09954 0
M  V30 10788 C 1062.52 -1.84579 0.840155 0
M  V30 10789 C 1062.85 -1.83605 -0.632692 0
M  V30 10790 O 1062.13 -1.27803 -1.46617 0
M  V30 10791 C 1062.41 -3.32489 1.38286 0
M  V30 10792 C 1062.27 -3.41946 2.92221 0
M  V30 10793 C 1063.58 -4.28091 1.0211 0
M  V30 10794 H 1060.7 -0.670169 0.306663 0
M  V30 10795 H 1063.35 -1.3249 1.36185 0
M  V30 10796 H 1061.5 -3.76978 0.939123 0
M  V30 10797 H 1063.17 -3.06128 3.45085 0
M  V30 10798 H 1061.41 -2.8265 3.29077 0
M  V30 10799 H 1062.08 -4.45983 3.25274 0
M  V30 10800 H 1064.56 -3.91701 1.4039 0
M  V30 10801 H 1063.43 -5.30005 1.42781 0
M  V30 10802 H 1063.69 -4.42044 -0.0700753 0
M  V30 10803 N 1062.75 -0.88754 -1.30232 0
M  V30 10804 C 1064 -0.506277 -1.95656 0
M  V30 10805 C 1064.32 0.948191 -1.70395 0
M  V30 10806 O 1063.59 1.66701 -1.02895 0
M  V30 10807 H 1062.17 -0.184235 -0.723924 0
M  V30 10808 H 1064.83 -1.13118 -1.58715 0
M  V30 10809 H 1063.93 -0.678673 -3.04632 0
M  V30 10810 N 1064.23 1.43628 -0.648757 0
M  V30 10811 C 1065.65 1.56442 -0.315921 0
M  V30 10812 C 1065.85 1.63322 1.18018 0
M  V30 10813 O 1064.9 1.58585 1.96487 0
M  V30 10814 C 1066.22 2.82751 -1.02335 0
M  V30 10815 C 1067.77 2.96488 -1.00318 0
M  V30 10816 C 1068.24 4.25623 -1.69142 0
M  V30 10817 N 1069.73 4.32477 -1.65885 0
M  V30 10818 C 1070.47 5.31154 -2.16016 0
M  V30 10819 N 1069.96 6.36135 -2.74415 0
M  V30 10820 N 1071.76 5.22778 -2.06541 0
M  V30 10821 H 1063.91 1.37405 -1.61968 0
M  V30 10822 H 1066.17 0.65962 -0.680886 0
M  V30 10823 H 1065.88 2.83714 -2.07844 0
M  V30 10824 H 1065.75 3.72836 -0.572114 0
M  V30 10825 H 1068.14 2.95068 0.0434919 0
M  V30 10826 H 1068.22 2.07704 -1.49307 0
M  V30 10827 H 1067.86 4.27804 -2.73763 0
M  V30 10828 H 1067.79 5.13296 -1.17622 0
M  V30 10829 H 1070.28 3.57232 -1.23264 0
M  V30 10830 H 1070.6 7.07743 -3.10355 0
M  V30 10831 H 1068.94 6.36771 -2.78474 0
M  V30 10832 H 1072.13 4.39678 -1.60625 0
M  V30 10833 H 1072.3 5.99523 -2.45919 0
M  V30 10834 N 1065.71 0.390394 1.52688 0
M  V30 10835 C 1066.62 -0.451543 2.30213 0
M  V30 10836 C 1067.64 -1.07051 1.37172 0
M  V30 10837 O 1068.81 -1.07609 1.70242 0
M  V30 10838 C 1065.88 -1.56299 3.0947 0
M  V30 10839 C 1064.94 -0.969017 4.18221 0
M  V30 10840 C 1064.17 -2.0275 4.93688 0
M  V30 10841 O 1064.39 -3.24273 4.69258 0
M  V30 10842 O 1063.33 -1.64418 5.79008 0
M  V30 10843 H 1067.15 0.180042 3.03166 0
M  V30 10844 H 1064.74 0.154082 1.48603 0
M  V30 10845 H 1066.62 -2.20864 3.58883 0
M  V30 10846 H 1065.3 -2.17952 2.3933 0
M  V30 10847 H 1064.2 -0.286587 3.73001 0
M  V30 10848 H 1065.54 -0.396687 4.90599 0
M  V30 10849 N 1067.19 -1.57141 0.120249 0
M  V30 10850 C 1068.44 -1.94413 -0.53727 0
M  V30 10851 C 1068.75 -1.00594 -1.67751 0
M  V30 10852 O 1069.96 -1.27336 -2.39787 0
M  V30 10853 C 1068.41 -3.45521 -1.00714 0
M  V30 10854 C 1068.02 -4.47878 0.104706 0
M  V30 10855 C 1069.76 -3.9171 -1.63596 0
M  V30 10856 C 1067.67 -5.90165 -0.381932 0
M  V30 10857 H 1066.6 -0.725745 -0.204475 0
M  V30 10858 H 1069.25 -1.82404 0.200302 0
M  V30 10859 H 1067.63 -3.52769 -1.79917 0
M  V30 10860 H 1068.81 -4.523 0.881002 0
M  V30 10861 H 1067.12 -4.11448 0.640264 0
M  V30 10862 H 1069.72 -4.95433 -2.01122 0
M  V30 10863 H 1070.06 -3.31756 -2.51483 0
M  V30 10864 H 1070.6 -3.87268 -0.909319 0
M  V30 10865 H 1067.34 -6.53877 0.460921 0
M  V30 10866 H 1066.86 -5.89161 -1.12468 0
M  V30 10867 H 1068.53 -6.41488 -0.842748 0
M  V30 10868 N 1068.67 0.153526 -1.5685 0
M  V30 10869 C 1069.6 1.19162 -2.00805 0
M  V30 10870 C 1070.58 1.45172 -0.886518 0
M  V30 10871 O 1071.76 1.56203 -1.15387 0
M  V30 10872 C 1068.89 2.52637 -2.38311 0
M  V30 10873 C 1067.85 2.41161 -3.53589 0
M  V30 10874 C 1067.17 3.79287 -3.76889 0
M  V30 10875 C 1068.47 1.90122 -4.86468 0
M  V30 10876 H 1070.17 0.82617 -2.87776 0
M  V30 10877 H 1067.71 0.395972 -1.38449 0
M  V30 10878 H 1069.67 3.25478 -2.6766 0
M  V30 10879 H 1068.39 2.91005 -1.4827 0
M  V30 10880 H 1067.05 1.70772 -3.24395 0
M  V30 10881 H 1066.7 4.15079 -2.84109 0
M  V30 10882 H 1066.4 3.72472 -4.54465 0
M  V30 10883 H 1067.92 4.53687 -4.08657 0
M  V30 10884 H 1069.33 2.52752 -5.14577 0
M  V30 10885 H 1067.73 1.94214 -5.67804 0
M  V30 10886 H 1068.8 0.856517 -4.77275 0
M  V30 10887 N 1070.14 1.51827 0.422667 0
M  V30 10888 C 1071.09 1.74198 1.51406 0
M  V30 10889 C 1072.06 0.584013 1.55494 0
M  V30 10890 O 1073.25 0.820079 1.72277 0
M  V30 10891 C 1070.39 1.88627 2.88988 0
M  V30 10892 C 1069.5 3.16233 2.94314 0
M  V30 10893 C 1068.63 3.21172 4.2311 0
M  V30 10894 C 1067.67 4.43033 4.2236 0
M  V30 10895 N 1066.81 4.4544 5.42704 0
M  V30 10896 H 1071.65 2.67352 1.31632 0
M  V30 10897 H 1069.19 1.32487 0.63919 0
M  V30 10898 H 1071.15 1.94976 3.68837 0
M  V30 10899 H 1069.78 0.988673 3.07287 0
M  V30 10900 H 1068.83 3.19123 2.07039 0
M  V30 10901 H 1070.14 4.06104 2.89623 0
M  V30 10902 H 1069.29 3.26517 5.11343 0
M  V30 10903 H 1068.03 2.29216 4.30478 0
M  V30 10904 H 1067.04 4.37849 3.32518 0
M  V30 10905 H 1068.26 5.3627 4.16643 0
M  V30 10906 H 1066.21 3.56361 5.50766 0
M  V30 10907 H 1066.13 5.29138 5.39953 0
M  V30 10908 H 1067.39 4.54997 6.32928 0
M  V30 10909 N 1071.62 -0.679052 1.4222 0
M  V30 10910 C 1072.59 -1.77448 1.45069 0
M  V30 10911 C 1073.59 -1.57189 0.338882 0
M  V30 10912 O 1074.78 -1.63559 0.599519 0
M  V30 10913 C 1071.91 -3.1603 1.27819 0
M  V30 10914 H 1073.1 -1.7631 2.426 0
M  V30 10915 H 1070.65 -0.888277 1.28605 0
M  V30 10916 H 1071.39 -3.22796 0.311946 0
M  V30 10917 H 1071.17 -3.32138 2.08391 0
M  V30 10918 H 1072.66 -3.9596 1.32686 0
M  V30 10919 N 1073.1 -1.28322 -0.914942 0
M  V30 10920 C 1074.35 -1.15179 -1.66067 0
M  V30 10921 C 1074.67 0.300279 -1.92674 0
M  V30 10922 O 1073.94 1.20821 -1.54205 0
M  V30 10923 H 1072.52 -0.423264 -0.615513 0
M  V30 10924 H 1075.18 -1.61034 -1.09791 0
M  V30 10925 H 1074.28 -1.69048 -2.62353 0
M  V30 10926 N 1074.58 1.12322 -1.10551 0
M  V30 10927 C 1075.8 1.8822 -0.871093 0
M  V30 10928 C 1076.23 1.7916 0.573005 0
M  V30 10929 O 1075.59 1.14738 1.40374 0
M  V30 10930 C 1075.63 3.35349 -1.32565 0
M  V30 10931 O 1074.74 4.09461 -0.49145 0
M  V30 10932 H 1074.08 0.584787 -0.314516 0
M  V30 10933 H 1076.61 1.42039 -1.47262 0
M  V30 10934 H 1076.62 3.86189 -1.31612 0
M  V30 10935 H 1075.29 3.4126 -2.37728 0
M  V30 10936 H 1073.87 3.68575 -0.566294 0
M  V30 10937 N 1076.06 0.894434 1.2976 0
M  V30 10938 C 1077.31 0.513673 1.95049 0
M  V30 10939 C 1077.62 -0.943744 1.71327 0
M  V30 10940 O 1078.82 -1.43179 2.30678 0
M  V30 10941 C 1077.28 0.867751 3.49282 0
M  V30 10942 C 1076.89 2.34358 3.81812 0
M  V30 10943 C 1078.63 0.556645 4.20835 0
M  V30 10944 C 1076.54 2.63879 5.29265 0
M  V30 10945 H 1075.47 0.188375 0.73009 0
M  V30 10946 H 1078.12 1.09071 1.47566 0
M  V30 10947 H 1076.5 0.2197 3.9539 0
M  V30 10948 H 1077.68 3.03674 3.46581 0
M  V30 10949 H 1075.99 2.62318 3.23386 0
M  V30 10950 H 1078.59 0.754123 5.29355 0
M  V30 10951 H 1078.93 -0.504526 4.13231 0
M  V30 10952 H 1079.46 1.1623 3.80441 0
M  V30 10953 H 1076.2 3.68774 5.41928 0
M  V30 10954 H 1075.72 1.99182 5.65762 0
M  V30 10955 H 1077.4 2.49871 5.96803 0
M  V30 10956 N 1077.53 -1.43282 0.656365 0
M  V30 10957 C 1078.78 -2.01378 0.170702 0
M  V30 10958 C 1079.1 -1.52063 -1.22073 0
M  V30 10959 O 1078.37 -0.73456 -1.81607 0
M  V30 10960 H 1076.95 -0.744577 0.0601168 0
M  V30 10961 H 1079.62 -1.75449 0.848739 0
M  V30 10962 H 1078.71 -3.11701 0.157745 0
M  V30 10963 N 1079.01 -0.398486 -1.52479 0
M  V30 10964 C 1080.26 0.182046 -2.00877 0
M  V30 10965 C 1080.58 1.47128 -1.2889 0
M  V30 10966 O 1081.78 2.13242 -1.68048 0
M  V30 10967 C 1080.24 0.374978 -3.57941 0
M  V30 10968 C 1079.85 -0.901544 -4.38835 0
M  V30 10969 C 1081.59 0.911378 -4.14601 0
M  V30 10970 C 1079.5 -0.676385 -5.87519 0
M  V30 10971 H 1078.43 0.0718068 -0.750573 0
M  V30 10972 H 1081.08 -0.522297 -1.7591 0
M  V30 10973 H 1079.46 1.14139 -3.79194 0
M  V30 10974 H 1080.63 -1.67329 -4.29346 0
M  V30 10975 H 1078.95 -1.36357 -3.93441 0
M  V30 10976 H 1081.55 1.09569 -5.23353 0
M  V30 10977 H 1081.89 1.88306 -3.71277 0
M  V30 10978 H 1082.42 0.204296 -3.97275 0
M  V30 10979 H 1079.16 -1.61933 -6.35184 0
M  V30 10980 H 1078.68 0.0562542 -5.99774 0
M  V30 10981 H 1080.36 -0.314454 -6.46235 0
M  V30 10982 N 1080.49 1.57075 -0.12858 0
M  V30 10983 C 1081.74 1.95134 0.526046 0
M  V30 10984 C 1082.06 1.01337 1.66601 0
M  V30 10985 O 1081.33 0.0714361 1.9577 0
M  V30 10986 H 1079.91 0.720468 0.19732 0
M  V30 10987 H 1082.57 1.93874 -0.199767 0
M  V30 10988 H 1081.67 2.98406 0.914332 0
M  V30 10989 N 1081.97 -0.145205 1.5693 0
M  V30 10990 C 1083.22 -0.855822 1.83085 0
M  V30 10991 C 1083.54 -1.81625 0.709747 0
M  V30 10992 O 1082.81 -1.94052 -0.268456 0
M  V30 10993 H 1081.39 -0.319032 0.675446 0
M  V30 10994 H 1084.05 -0.138781 1.94405 0
M  V30 10995 H 1083.15 -1.41698 2.78079 0
M  V30 10996 N 1083.45 -1.52049 -0.414609 0
M  V30 10997 C 1084.69 -1.66084 -1.16379 0
M  V30 10998 C 1085.03 -0.386932 -1.90306 0
M  V30 10999 O 1084.3 0.614441 -1.8454 0
M  V30 11000 C 1084.58 -2.87927 -2.16264 0
M  V30 11001 C 1084.44 -4.25353 -1.46269 0
M  V30 11002 C 1085.76 -3.05289 -3.16996 0
M  V30 11003 H 1082.88 -0.604414 -0.421726 0
M  V30 11004 H 1085.52 -1.8459 -0.450177 0
M  V30 11005 H 1083.67 -2.7228 -2.77121 0
M  V30 11006 H 1085.34 -4.52717 -0.885743 0
M  V30 11007 H 1083.58 -4.27006 -0.76472 0
M  V30 11008 H 1084.25 -5.06644 -2.19126 0
M  V30 11009 H 1086.73 -3.19798 -2.66212 0
M  V30 11010 H 1085.61 -3.92065 -3.84156 0
M  V30 11011 H 1085.87 -2.1836 -3.84411 0
M  V30 11012 N 1084.93 0.6715 -1.42579 0
M  V30 11013 C 1086.2 1.42766 -1.33706 0
M  V30 11014 C 1086.58 2.11086 0.0239748 0
M  V30 11015 O 1085.93 2.03479 1.03964 0
M  V30 11016 C 1086.14 2.42739 -2.50756 0
M  V30 11017 C 1087.49 3.07284 -2.93021 0
M  V30 11018 O 1088.51 2.53066 -2.50671 0
M  V30 11019 O 1087.37 4.05541 -3.66331 0
M  V30 11020 H 1084.47 0.636955 -0.527463 0
M  V30 11021 H 1087.01 0.699946 -1.54593 0
M  V30 11022 H 1085.78 1.91076 -3.41476 0
M  V30 11023 H 1085.41 3.22986 -2.31874 0
M  V30 11024 N 1086.4 1.28806 0.908124 0
M  V30 11025 C 1087.63 1.1898 1.689 0
M  V30 11026 C 1088.04 -0.253334 1.87496 0
M  V30 11027 O 1087.38 -1.18245 1.40584 0
M  V30 11028 C 1087.45 1.82266 3.0987 0
M  V30 11029 C 1087.11 3.31534 3.14538 0
M  V30 11030 C 1088.11 4.27886 2.95313 0
M  V30 11031 C 1085.79 3.72589 3.36872 0
M  V30 11032 C 1087.79 5.63267 2.98343 0
M  V30 11033 C 1085.47 5.08095 3.39534 0
M  V30 11034 C 1086.47 6.03244 3.2029 0
M  V30 11035 O 1086.16 7.36277 3.22724 0
M  V30 11036 H 1085.89 0.413772 0.534574 0
M  V30 11037 H 1088.45 1.7055 1.14464 0
M  V30 11038 H 1086.68 1.25197 3.65872 0
M  V30 11039 H 1088.36 1.6688 3.70008 0
M  V30 11040 H 1089.13 3.97502 2.77879 0
M  V30 11041 H 1085.01 2.98989 3.50894 0
M  V30 11042 H 1088.55 6.37511 2.83241 0
M  V30 11043 H 1084.45 5.38126 3.56497 0
M  V30 11044 H 1085.22 7.44976 3.39048 0
M  V30 11045 N 1087.88 -1.11734 1.11145 0
M  V30 11046 C 1089.13 -1.83677 0.859684 0
M  V30 11047 C 1089.46 -1.84265 -0.613182 0
M  V30 11048 O 1088.74 -1.29351 -1.45254 0
M  V30 11049 C 1089.02 -3.31003 1.41805 0
M  V30 11050 C 1088.87 -3.38827 2.95831 0
M  V30 11051 C 1090.19 -4.26984 1.06645 0
M  V30 11052 H 1087.31 -0.666879 0.313754 0
M  V30 11053 H 1089.95 -1.31038 1.37583 0
M  V30 11054 H 1088.1 -3.75961 0.979054 0
M  V30 11055 H 1089.77 -3.02451 3.48312 0
M  V30 11056 H 1088.02 -2.79143 3.32056 0
M  V30 11057 H 1088.69 -4.42508 3.29986 0
M  V30 11058 H 1091.16 -3.9019 1.44537 0
M  V30 11059 H 1090.04 -5.2846 1.48394 0
M  V30 11060 H 1090.3 -4.42094 -0.0231866 0
M  V30 11061 N 1089.36 -0.901303 -1.29284 0
M  V30 11062 C 1090.29 -0.396909 -2.30102 0
M  V30 11063 C 1091.27 0.528919 -1.61668 0
M  V30 11064 O 1092.46 0.439306 -1.89166 0
M  V30 11065 C 1089.59 0.375006 -3.45269 0
M  V30 11066 C 1088.54 -0.46054 -4.25515 0
M  V30 11067 C 1087.87 0.438967 -5.32895 0
M  V30 11068 C 1089.17 -1.7113 -4.93469 0
M  V30 11069 H 1090.86 -1.23943 -2.72541 0
M  V30 11070 H 1088.41 -0.597428 -1.31022 0
M  V30 11071 H 1090.36 0.738622 -4.14876 0
M  V30 11072 H 1089.08 1.25132 -3.01678 0
M  V30 11073 H 1087.74 -0.80651 -3.57618 0
M  V30 11074 H 1087.39 1.31346 -4.85548 0
M  V30 11075 H 1087.09 -0.116406 -5.87485 0
M  V30 11076 H 1088.61 0.79874 -6.05353 0
M  V30 11077 H 1090.03 -1.41732 -5.55504 0
M  V30 11078 H 1088.42 -2.20811 -5.57999 0
M  V30 11079 H 1089.49 -2.44636 -4.18666 0
M  V30 11080 N 1090.84 1.42931 -0.663954 0
M  V30 11081 C 1091.79 2.32577 0.03287 0
M  V30 11082 C 1092.78 1.49217 0.801918 0
M  V30 11083 O 1093.99 1.65358 0.711106 0
M  V30 11084 H 1090.36 0.751424 0.0294198 0
M  V30 11085 H 1092.33 2.89059 -0.740763 0
M  V30 11086 C 1091.08 3.33661 0.978025 0
M  V30 11087 H 1090.4 3.97837 0.395681 0
M  V30 11088 H 1091.84 3.98997 1.43448 0
M  V30 11089 C 1090.3 2.65085 2.07922 0
M  V30 11090 O 1090.83 2.4745 3.16435 0
M  V30 11091 N 1089.04 2.24285 1.84783 0
M  V30 11092 H 1088.59 2.38827 0.965368 0
M  V30 11093 H 1088.54 1.78732 2.58655 0
M  V30 11094 N 1092.32 0.406567 1.52266 0
M  V30 11095 C 1093.56 -0.169611 2.03695 0
M  V30 11096 C 1093.92 -1.42596 1.2857 0
M  V30 11097 O 1095.12 -2.08041 1.70212 0
M  V30 11098 C 1093.39 -0.413924 3.54995 0
M  V30 11099 S 1094.95 -0.957916 4.28217 0
M  V30 11100 H 1091.77 -0.0462362 0.709495 0
M  V30 11101 H 1094.37 0.558895 1.87341 0
M  V30 11102 H 1093.07 0.507285 4.07253 0
M  V30 11103 H 1092.61 -1.17038 3.75587 0
M  V30 11104 H 1094.62 -2.2387 4.42828 0
M  V30 11105 N 1093.79 -1.57004 0.136909 0
M  V30 11106 C 1095.04 -1.94972 -0.51662 0
M  V30 11107 C 1095.36 -1.02367 -1.66674 0
M  V30 11108 O 1096.56 -1.29873 -2.38423 0
M  V30 11109 C 1095.02 -3.4657 -0.970435 0
M  V30 11110 C 1094.63 -4.47741 0.152204 0
M  V30 11111 C 1096.37 -3.93423 -1.59432 0
M  V30 11112 C 1094.28 -5.90537 -0.319315 0
M  V30 11113 H 1093.21 -0.727873 -0.196766 0
M  V30 11114 H 1095.86 -1.82181 0.219637 0
M  V30 11115 H 1094.24 -3.54657 -1.76165 0
M  V30 11116 H 1095.41 -4.5134 0.928925 0
M  V30 11117 H 1093.73 -4.10746 0.683867 0
M  V30 11118 H 1096.33 -4.97539 -1.95856 0
M  V30 11119 H 1096.67 -3.34404 -2.47951 0
M  V30 11120 H 1097.2 -3.8821 -0.868193 0
M  V30 11121 H 1093.94 -6.53352 0.530248 0
M  V30 11122 H 1093.46 -5.90321 -1.06213 0
M  V30 11123 H 1095.14 -6.42346 -0.774662 0
M  V30 11124 N 1095.27 0.136881 -1.57004 0
M  V30 11125 C 1096.2 1.17026 -2.02057 0
M  V30 11126 C 1097.18 1.44223 -0.901866 0
M  V30 11127 O 1098.37 1.54971 -1.17037 0
M  V30 11128 C 1095.5 2.50095 -2.40977 0
M  V30 11129 C 1094.45 2.37398 -3.56127 0
M  V30 11130 C 1093.78 3.75268 -3.80891 0
M  V30 11131 C 1095.08 1.84952 -4.88457 0
M  V30 11132 H 1096.77 0.795601 -2.88636 0
M  V30 11133 H 1094.32 0.381266 -1.38861 0
M  V30 11134 H 1096.27 3.22621 -2.71097 0
M  V30 11135 H 1095 2.89416 -1.51348 0
M  V30 11136 H 1093.65 1.67322 -3.26188 0
M  V30 11137 H 1093.3 4.12043 -2.88496 0
M  V30 11138 H 1093 3.67631 -4.5839 0
M  V30 11139 H 1094.53 4.49327 -4.13446 0
M  V30 11140 H 1095.94 2.4728 -5.17229 0
M  V30 11141 H 1094.34 1.88181 -5.69832 0
M  V30 11142 H 1095.41 0.805848 -4.78157 0
M  V30 11143 N 1096.75 1.52266 0.40654 0
M  V30 11144 C 1098 1.66123 1.15097 0
M  V30 11145 C 1098.32 0.394836 1.90961 0
M  V30 11146 O 1097.59 -0.590349 1.86793 0
M  V30 11147 H 1096.17 0.612317 0.427875 0
M  V30 11148 H 1098.83 1.89318 0.463106 0
M  V30 11149 H 1097.93 2.50351 1.86361 0
M  V30 11150 N 1098.23 -0.663929 1.42933 0
M  V30 11151 C 1099.18 -1.79843 1.4751 0
M  V30 11152 C 1100.17 -1.65751 0.349727 0
M  V30 11153 O 1101.38 -1.72227 0.523239 0
M  V30 11154 H 1097.75 -0.593176 0.462219 0
M  V30 11155 H 1099.72 -1.73102 2.4306 0
M  V30 11156 C 1098.47 -3.18053 1.4049 0
M  V30 11157 H 1097.79 -3.29529 2.26386 0
M  V30 11158 H 1099.23 -3.97423 1.47754 0
M  V30 11159 C 1097.69 -3.36682 0.121076 0
M  V30 11160 O 1098.22 -3.93202 -0.821874 0
M  V30 11161 N 1096.43 -2.90579 0.0347141 0
M  V30 11162 H 1095.98 -2.44769 0.802852 0
M  V30 11163 H 1095.93 -3.03421 -0.823607 0
M  V30 11164 N 1099.71 -1.29285 -0.901281 0
M  V30 11165 C 1100.64 -1.10086 -2.01032 0
M  V30 11166 C 1101.65 -0.0488364 -1.62727 0
M  V30 11167 O 1102.84 -0.293194 -1.76076 0
M  V30 11168 C 1099.94 -0.653357 -3.32542 0
M  V30 11169 C 1099.11 -1.78355 -3.99385 0
M  V30 11170 C 1098.17 -1.32733 -5.09184 0
M  V30 11171 O 1097.2 -2.03177 -5.31703 0
M  V30 11172 N 1098.4 -0.197345 -5.80164 0
M  V30 11173 H 1101.17 -2.056 -2.18057 0
M  V30 11174 H 1098.73 -1.21204 -1.07337 0
M  V30 11175 H 1100.72 -0.331491 -4.0334 0
M  V30 11176 H 1099.29 0.209278 -3.11899 0
M  V30 11177 H 1098.51 -2.27438 -3.21972 0
M  V30 11178 H 1099.8 -2.54137 -4.40785 0
M  V30 11179 H 1099.19 0.390011 -5.64354 0
M  V30 11180 H 1097.75 0.0651642 -6.51767 0
M  V30 11181 N 1101.18 1.11143 -1.11736 0
M  V30 11182 C 1102.41 1.86745 -0.890727 0
M  V30 11183 C 1102.83 1.80315 0.55964 0
M  V30 11184 O 1102.18 1.18663 1.38656 0
M  V30 11185 C 1102.24 3.35436 -1.34779 0
M  V30 11186 O 1101.96 3.41738 -2.74129 0
M  V30 11187 C 1103.46 4.27935 -1.15702 0
M  V30 11188 H 1100.68 0.59044 -0.318781 0
M  V30 11189 H 1103.22 1.40549 -1.48547 0
M  V30 11190 H 1101.38 3.79125 -0.796425 0
M  V30 11191 H 1101.79 4.34347 -2.94012 0
M  V30 11192 H 1103.26 5.30494 -1.52579 0
M  V30 11193 H 1103.74 4.39093 -0.0968735 0
M  V30 11194 H 1104.35 3.90042 -1.69551 0
M  V30 11195 N 1102.66 0.908147 1.28804 0
M  V30 11196 C 1103.57 0.397167 2.31214 0
M  V30 11197 C 1104.59 -0.512352 1.66286 0
M  V30 11198 O 1105.76 -0.399893 1.9739 0
M  V30 11199 C 1102.83 -0.359522 3.44831 0
M  V30 11200 C 1101.89 0.582539 4.25329 0
M  V30 11201 C 1101.12 -0.138133 5.33521 0
M  V30 11202 O 1101.35 -1.36076 5.53931 0
M  V30 11203 O 1100.28 0.523682 5.99618 0
M  V30 11204 H 1104.11 1.247 2.76918 0
M  V30 11205 H 1101.69 0.672766 1.33395 0
M  V30 11206 H 1103.57 -0.787098 4.13984 0
M  V30 11207 H 1102.25 -1.18528 3.01219 0
M  V30 11208 H 1101.16 1.0594 3.58786 0
M  V30 11209 H 1102.49 1.37495 4.72605 0
M  V30 11210 N 1104.14 -1.42577 0.671525 0
M  V30 11211 C 1105.37 -2.06442 0.199152 0
M  V30 11212 C 1105.79 -1.50104 -1.1336 0
M  V30 11213 O 1105.15 -0.618211 -1.70434 0
M  V30 11214 C 1105.2 -3.60323 0.141215 0
M  V30 11215 O 1104.3 -4.02655 -0.891238 0
M  V30 11216 H 1103.64 -0.655919 0.103277 0
M  V30 11217 H 1106.17 -1.82768 0.919614 0
M  V30 11218 H 1106.18 -4.07984 -0.0360209 0
M  V30 11219 H 1104.86 -4.00702 1.11403 0
M  V30 11220 H 1103.43 -3.66549 -0.685309 0
M  V30 11221 N 1105.62 -0.414636 -1.52048 0
M  V30 11222 C 1106.57 0.422766 -2.28726 0
M  V30 11223 C 1107.56 1.04099 -1.3364 0
M  V30 11224 O 1108.77 0.978559 -1.51077 0
M  V30 11225 H 1105.14 0.155123 -0.735827 0
M  V30 11226 H 1107.11 -0.245091 -2.97392 0
M  V30 11227 C 1105.86 1.52418 -3.12513 0
M  V30 11228 H 1105.18 1.05781 -3.85552 0
M  V30 11229 H 1106.62 2.08382 -3.6926 0
M  V30 11230 C 1105.08 2.49465 -2.26426 0
M  V30 11231 O 1105.61 3.53479 -1.90829 0
M  V30 11232 N 1103.82 2.19806 -1.90088 0
M  V30 11233 H 1103.37 1.35253 -2.19236 0
M  V30 11234 H 1103.32 2.84984 -1.32783 0
M  V30 11235 N 1107.1 1.56929 -0.145233 0
M  V30 11236 C 1108.04 2.17958 0.812237 0
M  V30 11237 C 1109.04 1.13608 1.25657 0
M  V30 11238 O 1110.24 1.31861 1.22526 0
M  V30 11239 H 1106.62 0.697876 0.28013 0
M  V30 11240 H 1108.59 2.97146 0.273297 0
M  V30 11241 C 1107.34 2.81418 2.04203 0
M  V30 11242 H 1106.66 3.61427 1.70911 0
M  V30 11243 H 1108.1 3.27624 2.69144 0
M  V30 11244 C 1106.56 1.79835 2.84888 0
M  V30 11245 O 1107.09 1.26773 3.81171 0
M  V30 11246 N 1105.3 1.49179 2.49387 0
M  V30 11247 H 1104.84 1.9252 1.71154 0
M  V30 11248 H 1104.8 0.81458 3.03664 0
M  V30 11249 N 1108.58 -0.128553 1.57075 0
M  V30 11250 C 1109.82 -0.834322 1.85501 0
M  V30 11251 C 1110.18 -1.77943 0.731725 0
M  V30 11252 O 1109.47 -1.89702 -0.269003 0
M  V30 11253 C 1109.66 -1.63027 3.18052 0
M  V30 11254 C 1109.49 -0.763737 4.43167 0
M  V30 11255 C 1108.26 -0.42224 5.03533 0
M  V30 11256 C 1110.46 -0.0856773 5.14229 0
M  V30 11257 N 1108.44 0.455954 6.12204 0
M  V30 11258 C 1109.81 0.651902 6.16563 0
M  V30 11259 C 1111.87 -0.00826404 4.97899 0
M  V30 11260 C 1110.57 1.45961 7.04335 0
M  V30 11261 C 1112.6 0.786239 5.8615 0
M  V30 11262 C 1111.96 1.51204 6.8798 0
M  V30 11263 H 1108.06 -0.282535 0.729176 0
M  V30 11264 H 1110.64 -0.0985924 1.9445 0
M  V30 11265 H 1108.81 -2.3371 3.10216 0
M  V30 11266 H 1110.55 -2.28063 3.34319 0
M  V30 11267 H 1107.3 -0.76229 4.67425 0
M  V30 11268 H 1107.72 0.886619 6.71169 0
M  V30 11269 H 1112.37 -0.555051 4.19141 0
M  V30 11270 H 1110.08 2.01759 7.82508 0
M  V30 11271 H 1113.67 0.848372 5.75581 0
M  V30 11272 H 1112.55 2.11694 7.55086 0
M  V30 11273 N 1110.05 -1.5248 -0.398459 0
M  V30 11274 C 1110.99 -1.72826 -1.50545 0
M  V30 11275 C 1112 -0.608683 -1.50993 0
M  V30 11276 O 1113.19 -0.88413 -1.55066 0
M  V30 11277 C 1110.29 -1.76327 -2.89417 0
M  V30 11278 C 1109.46 -3.05491 -3.1304 0
M  V30 11279 C 1108.52 -3.00663 -4.31843 0
M  V30 11280 O 1107.55 -3.74548 -4.28605 0
M  V30 11281 N 1108.75 -2.19191 -5.37527 0
M  V30 11282 H 1111.51 -2.68333 -1.33482 0
M  V30 11283 H 1109.07 -1.5085 -0.587875 0
M  V30 11284 H 1111.07 -1.70616 -3.66977 0
M  V30 11285 H 1109.64 -0.882476 -2.99885 0
M  V30 11286 H 1108.86 -3.24767 -2.23428 0
M  V30 11287 H 1110.14 -3.90915 -3.25673 0
M  V30 11288 H 1109.54 -1.58613 -5.43009 0
M  V30 11289 H 1108.1 -2.19328 -6.1379 0
M  V30 11290 N 1111.53 0.65634 -1.43283 0
M  V30 11291 C 1112.44 1.79847 -1.50639 0
M  V30 11292 C 1113.46 1.69487 -0.393714 0
M  V30 11293 O 1114.63 1.90712 -0.647379 0
M  V30 11294 C 1111.7 3.16107 -1.42398 0
M  V30 11295 C 1110.76 3.38287 -2.64312 0
M  V30 11296 C 1109.99 4.68046 -2.56454 0
M  V30 11297 O 1110.22 5.4719 -1.61056 0
M  V30 11298 O 1109.15 4.91877 -3.46902 0
M  V30 11299 H 1112.98 1.76596 -2.47078 0
M  V30 11300 H 1110.56 0.814428 -1.25249 0
M  V30 11301 H 1112.44 3.97382 -1.40233 0
M  V30 11302 H 1111.12 3.19956 -0.490929 0
M  V30 11303 H 1110.02 2.56788 -2.72049 0
M  V30 11304 H 1111.36 3.39282 -3.56579 0
M  V30 11305 N 1113.01 1.29761 0.894412 0
M  V30 11306 C 1113.94 1.17902 2.01547 0
M  V30 11307 C 1114.92 0.0719402 1.69948 0
M  V30 11308 O 1116.11 0.252338 1.92554 0
M  V30 11309 C 1113.24 0.860262 3.36477 0
M  V30 11310 C 1112.19 1.92424 3.82305 0
M  V30 11311 C 1111.52 1.45868 5.14419 0
M  V30 11312 C 1112.82 3.33391 4.02054 0
M  V30 11313 H 1114.51 2.11688 2.11727 0
M  V30 11314 H 1112.06 1.01916 1.01731 0
M  V30 11315 H 1114.01 0.763987 4.14417 0
M  V30 11316 H 1112.73 -0.113289 3.26403 0
M  V30 11317 H 1111.39 2.00999 3.06586 0
M  V30 11318 H 1111.04 0.473654 5.00765 0
M  V30 11319 H 1110.74 2.17028 5.46052 0
M  V30 11320 H 1112.26 1.37601 5.94894 0
M  V30 11321 H 1113.68 3.27628 4.7046 0
M  V30 11322 H 1112.07 4.02555 4.4505 0
M  V30 11323 H 1113.14 3.75978 3.06216 0
M  V30 11324 N 1114.49 -1.10549 1.12324 0
M  V30 11325 C 1115.42 -2.18911 0.812416 0
M  V30 11326 C 1116.4 -1.68628 -0.22327 0
M  V30 11327 O 1117.58 -1.94015 -0.0847184 0
M  V30 11328 C 1114.71 -3.46288 0.264947 0
M  V30 11329 C 1113.67 -4.09838 1.23356 0
M  V30 11330 C 1112.99 -5.31901 0.546374 0
M  V30 11331 C 1114.29 -4.53686 2.58778 0
M  V30 11332 H 1115.99 -2.45169 1.71851 0
M  V30 11333 H 1113.53 -1.17834 0.827715 0
M  V30 11334 H 1115.49 -4.21385 0.0352364 0
M  V30 11335 H 1114.21 -3.19517 -0.676479 0
M  V30 11336 H 1112.87 -3.36746 1.44906 0
M  V30 11337 H 1112.52 -5.01406 -0.400157 0
M  V30 11338 H 1112.22 -5.75372 1.19249 0
M  V30 11339 H 1113.74 -6.09731 0.325673 0
M  V30 11340 H 1115.16 -5.20063 2.41263 0
M  V30 11341 H 1113.55 -5.08003 3.19457 0
M  V30 11342 H 1114.62 -3.66665 3.17309 0
M  V30 11343 N 1115.97 -0.914965 -1.28321 0
M  V30 11344 C 1117.21 -0.547665 -1.94538 0
M  V30 11345 C 1117.53 0.911834 -1.72368 0
M  V30 11346 O 1116.8 1.64481 -1.06408 0
M  V30 11347 H 1115.38 -0.199549 -0.719853 0
M  V30 11348 H 1118.05 -1.16459 -1.5628 0
M  V30 11349 H 1117.14 -0.743138 -3.03124 0
M  V30 11350 N 1117.44 1.42219 -0.679077 0
M  V30 11351 C 1118.86 1.55737 -0.349034 0
M  V30 11352 C 1119.06 1.65789 1.14527 0
M  V30 11353 O 1118.12 1.62717 1.93079 0
M  V30 11354 C 1119.43 2.80516 -1.0831 0
M  V30 11355 C 1120.98 2.94294 -1.06584 0
M  V30 11356 C 1121.45 4.2194 -1.78132 0
M  V30 11357 N 1122.94 4.28861 -1.75021 0
M  V30 11358 C 1123.68 5.26453 -2.27234 0
M  V30 11359 N 1123.17 6.30171 -2.87847 0
M  V30 11360 N 1124.97 5.1828 -2.17584 0
M  V30 11361 H 1117.12 1.33939 -1.64846 0
M  V30 11362 H 1119.38 0.645029 -0.694725 0
M  V30 11363 H 1119.09 2.79241 -2.13816 0
M  V30 11364 H 1118.96 3.71539 -0.651069 0
M  V30 11365 H 1121.35 2.95094 -0.0191061 0
M  V30 11366 H 1121.43 2.04491 -1.53679 0
M  V30 11367 H 1121.07 4.21901 -2.82776 0
M  V30 11368 H 1121 5.10685 -1.28483 0
M  V30 11369 H 1123.49 3.54537 -1.30814 0
M  V30 11370 H 1123.81 7.01 -3.25298 0
M  V30 11371 H 1122.15 6.30721 -2.91918 0
M  V30 11372 H 1125.34 4.36172 -1.69916 0
M  V30 11373 H 1125.52 5.94172 -2.58581 0
M  V30 11374 N 1118.92 0.422693 1.51826 0
M  V30 11375 C 1119.85 -0.386913 2.30272 0
M  V30 11376 C 1120.83 -1.03411 1.35056 0
M  V30 11377 O 1122.02 -1.04055 1.6397 0
M  V30 11378 C 1119.15 -1.49645 3.13407 0
M  V30 11379 C 1118.1 -0.973532 4.16781 0
M  V30 11380 C 1117.43 -2.1777 4.88344 0
M  V30 11381 C 1118.73 -0.0181194 5.22297 0
M  V30 11382 H 1120.42 0.267697 2.98201 0
M  V30 11383 H 1117.97 0.130186 1.4341 0
M  V30 11384 H 1119.92 -2.06993 3.67059 0
M  V30 11385 H 1118.64 -2.17914 2.43272 0
M  V30 11386 H 1117.3 -0.42237 3.64159 0
M  V30 11387 H 1116.95 -2.84625 4.14726 0
M  V30 11388 H 1116.65 -1.83427 5.58237 0
M  V30 11389 H 1118.18 -2.75699 5.44814 0
M  V30 11390 H 1119.59 -0.500822 5.71108 0
M  V30 11391 H 1117.99 0.237163 5.99631 0
M  V30 11392 H 1119.06 0.923065 4.76033 0
M  V30 11393 N 1120.4 -1.5685 0.153553 0
M  V30 11394 C 1121.64 -1.98226 -0.498586 0
M  V30 11395 C 1122 -1.03671 -1.61605 0
M  V30 11396 O 1123.2 -1.34117 -2.32951 0
M  V30 11397 C 1121.48 -3.43539 -0.985678 0
M  V30 11398 S 1123.03 -4.0694 -1.6415 0
M  V30 11399 H 1119.85 -0.692533 -0.160993 0
M  V30 11400 H 1122.45 -1.93936 0.246817 0
M  V30 11401 H 1121.16 -4.10081 -0.161708 0
M  V30 11402 H 1120.69 -3.51557 -1.76555 0
M  V30 11403 H 1122.7 -4.0053 -2.929 0
M  V30 11404 N 1121.88 0.120221 -1.57141 0
M  V30 11405 C 1122.81 1.14876 -2.03287 0
M  V30 11406 C 1123.79 1.43259 -0.917112 0
M  V30 11407 O 1124.97 1.53721 -1.18674 0
M  V30 11408 C 1122.1 2.47525 -2.43616 0
M  V30 11409 C 1121.06 2.33607 -3.58625 0
M  V30 11410 C 1120.38 3.71207 -3.84849 0
M  V30 11411 C 1121.68 1.79761 -4.90391 0
M  V30 11412 H 1123.38 0.764943 -2.89463 0
M  V30 11413 H 1120.92 0.366516 -1.39258 0
M  V30 11414 H 1122.88 3.19728 -2.74504 0
M  V30 11415 H 1121.6 2.87794 -1.54409 0
M  V30 11416 H 1120.26 1.63853 -3.27945 0
M  V30 11417 H 1119.91 4.0896 -2.9285 0
M  V30 11418 H 1119.61 3.62749 -4.62263 0
M  V30 11419 H 1121.13 4.44917 -4.18188 0
M  V30 11420 H 1122.55 2.4178 -5.19822 0
M  V30 11421 H 1120.94 1.82126 -5.71795 0
M  V30 11422 H 1122.01 0.755087 -4.78985 0
M  V30 11423 N 1123.36 1.52689 0.390367 0
M  V30 11424 C 1124.61 1.6689 1.13272 0
M  V30 11425 C 1124.92 0.414433 1.91159 0
M  V30 11426 O 1126.12 0.436559 2.67967 0
M  V30 11427 C 1124.58 2.94929 2.06264 0
M  V30 11428 C 1124.19 4.27551 1.33805 0
M  V30 11429 C 1125.93 3.18497 2.80642 0
M  V30 11430 C 1123.84 5.46698 2.25554 0
M  V30 11431 H 1122.77 0.621749 0.426549 0
M  V30 11432 H 1125.42 1.79185 0.395615 0
M  V30 11433 H 1123.8 2.76378 2.83604 0
M  V30 11434 H 1124.98 4.56651 0.616997 0
M  V30 11435 H 1123.29 4.10234 0.713913 0
M  V30 11436 H 1125.89 4.04693 3.49467 0
M  V30 11437 H 1126.23 2.33511 3.44642 0
M  V30 11438 H 1126.76 3.37607 2.10395 0
M  V30 11439 H 1123.5 6.34088 1.66171 0
M  V30 11440 H 1123.02 5.21913 2.95579 0
M  V30 11441 H 1124.7 5.80519 2.85668 0
M  V30 11442 N 1124.83 -0.648732 1.43629 0
M  V30 11443 C 1126.11 -1.4062 1.35961 0
M  V30 11444 C 1126.49 -2.11098 0.00961023 0
M  V30 11445 O 1125.84 -2.05107 -1.00714 0
M  V30 11446 C 1126.05 -2.38719 2.54586 0
M  V30 11447 C 1127.4 -3.02584 2.97873 0
M  V30 11448 O 1128.42 -2.49046 2.54665 0
M  V30 11449 O 1127.28 -3.99662 3.72736 0
M  V30 11450 H 1124.37 -0.628483 0.53753 0
M  V30 11451 H 1126.92 -0.675263 1.55687 0
M  V30 11452 H 1125.69 -1.85619 3.44472 0
M  V30 11453 H 1125.32 -3.19257 2.36983 0
M  V30 11454 N 1126.31 -1.30234 -0.887518 0
M  V30 11455 C 1127.73 -1.0851 -1.17037 0
M  V30 11456 C 1127.93 0.155788 -2.00897 0
M  V30 11457 O 1126.98 0.850123 -2.37759 0
M  V30 11458 C 1128.3 -2.34723 -1.87951 0
M  V30 11459 C 1129.85 -2.40163 -2.00726 0
M  V30 11460 C 1130.32 -3.66211 -2.75051 0
M  V30 11461 N 1131.81 -3.67004 -2.82599 0
M  V30 11462 C 1132.55 -4.61224 -3.40676 0
M  V30 11463 N 1132.04 -5.65786 -3.99823 0
M  V30 11464 N 1133.84 -4.48772 -3.38467 0
M  V30 11465 H 1125.99 -2.09847 -0.328297 0
M  V30 11466 H 1128.25 -0.924904 -0.20798 0
M  V30 11467 H 1127.96 -3.25265 -1.33773 0
M  V30 11468 H 1127.83 -2.43175 -2.8835 0
M  V30 11469 H 1130.22 -1.50101 -2.54074 0
M  V30 11470 H 1130.3 -2.35688 -0.994218 0
M  V30 11471 H 1129.94 -4.56631 -2.22376 0
M  V30 11472 H 1129.87 -3.67947 -3.76726 0
M  V30 11473 H 1132.36 -2.91409 -2.40602 0
M  V30 11474 H 1132.68 -6.33783 -4.42197 0
M  V30 11475 H 1131.02 -5.69581 -3.9825 0
M  V30 11476 H 1134.21 -3.6627 -2.91485 0
M  V30 11477 H 1134.38 -5.22382 -3.83433 0
M  V30 11478 N 1127.79 1.09952 -1.12909 0
M  V30 11479 C 1128.72 2.18477 -0.824014 0
M  V30 11480 C 1129.7 1.68744 0.214324 0
M  V30 11481 O 1130.89 1.94057 0.0744281 0
M  V30 11482 C 1128.02 3.46143 -0.283308 0
M  V30 11483 C 1126.97 4.09178 -1.25528 0
M  V30 11484 C 1126.3 5.31604 -0.574574 0
M  V30 11485 C 1127.6 4.52308 -2.6118 0
M  V30 11486 H 1129.29 2.44254 -1.73148 0
M  V30 11487 H 1126.84 1.17394 -0.833952 0
M  V30 11488 H 1128.79 4.21361 -0.057583 0
M  V30 11489 H 1127.51 3.19872 0.659525 0
M  V30 11490 H 1126.17 3.35973 -1.4669 0
M  V30 11491 H 1125.82 5.01611 0.37356 0
M  V30 11492 H 1125.52 5.74732 -1.22299 0
M  V30 11493 H 1127.04 6.0955 -0.358004 0
M  V30 11494 H 1128.46 5.18776 -2.44017 0
M  V30 11495 H 1126.86 5.06302 -3.22147 0
M  V30 11496 H 1127.93 3.64977 -3.19249 0
M  V30 11497 N 1129.27 0.921757 1.27833 0
M  V30 11498 C 1130.2 0.433466 2.29441 0
M  V30 11499 C 1131.18 -0.503133 1.62489 0
M  V30 11500 O 1132.36 -0.409156 1.89841 0
M  V30 11501 C 1129.49 -0.320029 3.45822 0
M  V30 11502 C 1128.45 0.528178 4.24728 0
M  V30 11503 C 1127.77 -0.354132 5.33526 0
M  V30 11504 C 1129.07 1.78959 4.90684 0
M  V30 11505 H 1130.77 1.28263 2.70535 0
M  V30 11506 H 1128.31 0.618197 1.30055 0
M  V30 11507 H 1130.27 -0.672526 4.15999 0
M  V30 11508 H 1128.99 -1.20317 3.0363 0
M  V30 11509 H 1127.65 0.863302 3.5629 0
M  V30 11510 H 1127.3 -1.23605 4.87576 0
M  V30 11511 H 1127 0.209855 5.87225 0
M  V30 11512 H 1128.52 -0.702333 6.06547 0
M  V30 11513 H 1129.94 1.50552 5.53179 0
M  V30 11514 H 1128.33 2.29661 5.54415 0
M  V30 11515 H 1129.4 2.51265 4.14721 0
M  V30 11516 N 1130.75 -1.41857 0.686609 0
M  V30 11517 C 1131.68 -2.33481 0.0298353 0
M  V30 11518 C 1132.66 -1.51329 -0.776756 0
M  V30 11519 O 1133.84 -1.79895 -0.731535 0
M  V30 11520 C 1130.97 -3.35065 -0.913707 0
M  V30 11521 C 1129.93 -4.2746 -0.214861 0
M  V30 11522 C 1129.25 -5.19346 -1.27215 0
M  V30 11523 C 1130.55 -5.14252 0.913367 0
M  V30 11524 H 1132.25 -2.8865 0.795067 0
M  V30 11525 H 1129.79 -1.38792 0.383785 0
M  V30 11526 H 1131.75 -3.98082 -1.38234 0
M  V30 11527 H 1130.47 -2.78226 -1.7105 0
M  V30 11528 H 1129.13 -3.65855 0.233651 0
M  V30 11529 H 1128.78 -4.58827 -2.06124 0
M  V30 11530 H 1128.48 -5.81996 -0.80961 0
M  V30 11531 H 1130 -5.85239 -1.74147 0
M  V30 11532 H 1131.41 -5.70887 0.525424 0
M  V30 11533 H 1129.81 -5.85796 1.30244 0
M  V30 11534 H 1130.88 -4.51949 1.75699 0
M  V30 11535 N 1132.22 -0.430739 -1.51599 0
M  V30 11536 C 1133.13 0.390347 -2.3133 0
M  V30 11537 C 1134.15 1.03376 -1.39962 0
M  V30 11538 O 1135.33 1.03057 -1.73035 0
M  V30 11539 C 1132.39 1.48039 -3.13505 0
M  V30 11540 C 1131.45 0.857792 -4.20643 0
M  V30 11541 C 1130.69 1.89589 -4.9889 0
M  V30 11542 O 1130.91 3.11717 -4.77691 0
M  V30 11543 O 1129.84 1.49009 -5.83164 0
M  V30 11544 H 1133.67 -0.260358 -3.02582 0
M  V30 11545 H 1131.25 -0.193428 -1.48143 0
M  V30 11546 H 1133.14 2.11272 -3.64612 0
M  V30 11547 H 1131.81 2.1153 -2.45024 0
M  V30 11548 H 1130.72 0.187592 -3.73629 0
M  V30 11549 H 1132.05 0.266474 -4.91478 0
M  V30 11550 N 1133.7 1.56767 -0.161869 0
M  V30 11551 C 1134.95 1.96594 0.485496 0
M  V30 11552 C 1135.28 1.04743 1.63887 0
M  V30 11553 O 1134.53 0.079602 1.95538 0
M  V30 11554 C 1134.83 3.42567 1.01894 0
M  V30 11555 C 1134.5 4.50897 -0.0175419 0
M  V30 11556 C 1133.16 4.80249 -0.302429 0
M  V30 11557 C 1135.51 5.16181 -0.721572 0
M  V30 11558 C 1132.84 5.72187 -1.2969 0
M  V30 11559 C 1135.19 6.09191 -1.70496 0
M  V30 11560 C 1133.86 6.36915 -1.99739 0
M  V30 11561 H 1133.13 0.719388 0.177656 0
M  V30 11562 H 1135.77 1.89837 -0.251839 0
M  V30 11563 H 1134.08 3.4623 1.83391 0
M  V30 11564 H 1135.77 3.70719 1.52867 0
M  V30 11565 H 1132.36 4.28062 0.21468 0
M  V30 11566 H 1136.55 4.93624 -0.514681 0
M  V30 11567 H 1131.8 5.91953 -1.52974 0
M  V30 11568 H 1135.98 6.58849 -2.25591 0
M  V30 11569 H 1133.61 7.07958 -2.76948 0
M  V30 11570 N 1135.18 -0.111886 1.57202 0
M  V30 11571 C 1136.59 -0.668261 1.74331 0
M  V30 11572 C 1136.94 -1.79959 0.781609 0
M  V30 11573 O 1136.07 -2.16356 -0.043833 0
M  V30 11574 C 1136.66 -1.219 3.1611 0
M  V30 11575 C 1135.22 -1.7216 3.34721 0
M  V30 11576 C 1134.37 -0.624223 2.70183 0
M  V30 11577 H 1137.32 0.114081 1.58289 0
M  V30 11578 H 1137.34 -2.08858 3.18054 0
M  V30 11579 H 1136.85 -0.395381 3.86081 0
M  V30 11580 H 1134.95 -2.56976 2.69803 0
M  V30 11581 H 1135.07 -1.82615 4.42932 0
M  V30 11582 H 1133.43 -1.05958 2.31614 0
M  V30 11583 H 1134.21 0.188537 3.42782 0
M  V30 11584 N 1136.66 -1.52894 -0.382264 0
M  V30 11585 C 1137.62 -1.77497 -1.45008 0
M  V30 11586 C 1138.62 -0.64509 -1.47293 0
M  V30 11587 O 1139.81 -0.913192 -1.48346 0
M  V30 11588 C 1136.94 -1.88188 -2.8425 0
M  V30 11589 H 1138.14 -2.72849 -1.24473 0
M  V30 11590 H 1135.69 -1.43717 -0.61441 0
M  V30 11591 H 1136.42 -0.948451 -3.10121 0
M  V30 11592 H 1136.21 -2.70353 -2.83992 0
M  V30 11593 H 1137.7 -2.08873 -3.6161 0
M  V30 11594 N 1138.14 0.641106 -1.43971 0
M  V30 11595 C 1139.05 1.78239 -1.52538 0
M  V30 11596 C 1140.06 1.6906 -0.411668 0
M  V30 11597 O 1141.24 1.90014 -0.66757 0
M  V30 11598 C 1138.3 3.14579 -1.45743 0
M  V30 11599 C 1137.37 3.35464 -2.67885 0
M  V30 11600 C 1136.6 4.65299 -2.61404 0
M  V30 11601 O 1136.82 5.45451 -1.66851 0
M  V30 11602 O 1135.76 4.8817 -3.521 0
M  V30 11603 H 1139.58 1.73965 -2.48937 0
M  V30 11604 H 1137.17 0.801098 -1.26106 0
M  V30 11605 H 1139.05 3.95873 -1.4444 0
M  V30 11606 H 1137.72 3.19417 -0.524837 0
M  V30 11607 H 1136.63 2.53888 -2.74758 0
M  V30 11608 H 1137.96 3.35481 -3.60157 0
M  V30 11609 N 1139.62 1.30703 0.880598 0
M  V30 11610 C 1140.86 1.19778 1.63277 0
M  V30 11611 C 1141.19 -0.246521 1.92931 0
M  V30 11612 O 1140.45 -1.19226 1.55189 0
M  V30 11613 C 1140.74 1.97628 2.97789 0
M  V30 11614 C 1140.41 3.47213 2.87669 0
M  V30 11615 C 1139.07 3.88004 2.84617 0
M  V30 11616 C 1141.42 4.4245 2.75477 0
M  V30 11617 C 1138.75 5.22315 2.67216 0
M  V30 11618 C 1141.1 5.76874 2.59614 0
M  V30 11619 C 1139.77 6.16898 2.54939 0
M  V30 11620 H 1139.04 0.438298 0.597475 0
M  V30 11621 H 1141.69 1.61853 1.02352 0
M  V30 11622 H 1139.99 1.48201 3.6269 0
M  V30 11623 H 1141.69 1.86563 3.54958 0
M  V30 11624 H 1138.28 3.14802 2.90857 0
M  V30 11625 H 1142.46 4.11875 2.76899 0
M  V30 11626 H 1137.72 5.52412 2.62014 0
M  V30 11627 H 1141.89 6.50304 2.49155 0
M  V30 11628 H 1139.52 7.20916 2.41214 0
M  V30 11629 N 1141.09 -1.09351 1.1349 0
M  V30 11630 C 1142.32 -1.85036 0.918989 0
M  V30 11631 C 1142.73 -1.8146 -0.535638 0
M  V30 11632 O 1142.07 -1.20958 -1.38256 0
M  V30 11633 C 1142.14 -3.33992 1.33001 0
M  V30 11634 C 1141.8 -3.61315 2.79822 0
M  V30 11635 C 1142.8 -3.56973 3.77976 0
M  V30 11636 C 1140.48 -3.89636 3.17001 0
M  V30 11637 C 1142.48 -3.80564 5.11321 0
M  V30 11638 C 1140.16 -4.12882 4.50524 0
M  V30 11639 C 1141.16 -4.08338 5.47494 0
M  V30 11640 O 1140.85 -4.30983 6.78608 0
M  V30 11641 H 1140.58 -0.591301 0.327627 0
M  V30 11642 H 1143.14 -1.39078 1.5115 0
M  V30 11643 H 1141.37 -3.8066 0.68077 0
M  V30 11644 H 1143.05 -3.9109 1.08645 0
M  V30 11645 H 1143.82 -3.3512 3.50599 0
M  V30 11646 H 1139.7 -3.92297 2.42124 0
M  V30 11647 H 1143.24 -3.76933 5.86998 0
M  V30 11648 H 1139.14 -4.34216 4.77626 0
M  V30 11649 H 1139.91 -4.4844 6.84722 0
M  V30 11650 N 1142.57 -0.928524 -1.27343 0
M  V30 11651 C 1143.98 -0.613856 -1.7632 0
M  V30 11652 C 1144.33 0.870983 -1.75808 0
M  V30 11653 O 1143.46 1.68155 -1.36209 0
M  V30 11654 C 1144.05 -1.10755 -3.20186 0
M  V30 11655 C 1142.61 -0.843532 -3.66826 0
M  V30 11656 C 1141.76 -1.26579 -2.46724 0
M  V30 11657 H 1144.71 -1.10821 -1.13598 0
M  V30 11658 H 1144.73 -0.455598 -3.77763 0
M  V30 11659 H 1144.24 -2.18825 -3.20526 0
M  V30 11660 H 1142.34 0.223334 -3.7193 0
M  V30 11661 H 1142.46 -1.46165 -4.56259 0
M  V30 11662 H 1140.82 -0.684334 -2.45334 0
M  V30 11663 H 1141.6 -2.35516 -2.49774 0
M  V30 11664 N 1144.05 1.41491 -0.694123 0
M  V30 11665 C 1145 2.28 -0.00474478 0
M  V30 11666 C 1145.98 1.42125 0.754281 0
M  V30 11667 O 1147.18 1.65408 0.630012 0
M  V30 11668 C 1144.3 3.30408 0.931953 0
M  V30 11669 C 1143.39 4.23762 0.169251 0
M  V30 11670 N 1143.78 4.9884 -0.836181 0
M  V30 11671 C 1142.08 4.44158 0.40494 0
M  V30 11672 C 1142.78 5.67157 -1.2926 0
M  V30 11673 N 1141.76 5.40066 -0.6188 0
M  V30 11674 H 1145.56 2.8348 -0.775652 0
M  V30 11675 H 1143.07 1.53686 -0.524834 0
M  V30 11676 H 1145.07 3.91206 1.44097 0
M  V30 11677 H 1143.73 2.76489 1.70247 0
M  V30 11678 H 1144.74 5.03413 -1.21637 0
M  V30 11679 H 1141.42 4.0125 1.15346 0
M  V30 11680 H 1142.81 6.3735 -2.12684 0
M  V30 11681 N 1145.53 0.438773 1.51369 0
M  V30 11682 C 1146.78 -0.128723 2.01289 0
M  V30 11683 C 1147.09 -1.43659 1.32745 0
M  V30 11684 O 1148.3 -2.08712 1.73642 0
M  V30 11685 C 1146.75 -0.279945 3.5881 0
M  V30 11686 C 1146.36 1.01758 4.3629 0
M  V30 11687 C 1148.1 -0.801133 4.16872 0
M  V30 11688 C 1146.01 0.831918 5.85519 0
M  V30 11689 H 1144.94 -0.0518814 0.752213 0
M  V30 11690 H 1147.59 0.568753 1.74463 0
M  V30 11691 H 1145.97 -1.04046 3.82087 0
M  V30 11692 H 1147.15 1.78653 4.24758 0
M  V30 11693 H 1145.46 1.46741 3.89687 0
M  V30 11694 H 1148.06 -0.956548 5.26074 0
M  V30 11695 H 1148.4 -1.78396 3.76139 0
M  V30 11696 H 1148.94 -0.0988934 3.97677 0
M  V30 11697 H 1145.67 1.78716 6.30667 0
M  V30 11698 H 1145.19 0.102785 5.99712 0
M  V30 11699 H 1146.87 0.485681 6.45174 0
M  V30 11700 N 1147.01 -1.56678 0.170181 0
M  V30 11701 C 1148.25 -1.9714 -0.475767 0
M  V30 11702 C 1148.58 -1.05611 -1.62972 0
M  V30 11703 O 1147.86 -0.103017 -1.94227 0
M  V30 11704 C 1148.14 -3.47072 -0.959828 0
M  V30 11705 C 1148 -4.4938 0.194225 0
M  V30 11706 C 1149.31 -4.00071 -1.83387 0
M  V30 11707 H 1146.43 -0.716776 -0.171466 0
M  V30 11708 H 1149.08 -1.88266 0.256086 0
M  V30 11709 H 1147.23 -3.54766 -1.58346 0
M  V30 11710 H 1148.9 -4.53748 0.83128 0
M  V30 11711 H 1147.14 -4.25393 0.849893 0
M  V30 11712 H 1147.81 -5.51685 -0.186575 0
M  V30 11713 H 1150.29 -3.95002 -1.30815 0
M  V30 11714 H 1149.16 -5.05398 -2.14159 0
M  V30 11715 H 1149.42 -3.43819 -2.77923 0
M  V30 11716 N 1148.48 0.103547 -1.57259 0
M  V30 11717 C 1149.71 0.82624 -1.90232 0
M  V30 11718 C 1150.13 1.71902 -0.763641 0
M  V30 11719 O 1149.49 1.79043 0.285181 0
M  V30 11720 C 1149.54 1.62265 -3.22029 0
M  V30 11721 O 1148.64 2.73091 -3.09023 0
M  V30 11722 H 1147.98 0.227528 -0.6238 0
M  V30 11723 H 1150.51 0.081307 -2.04438 0
M  V30 11724 H 1150.52 2.00865 -3.5513 0
M  V30 11725 H 1149.2 0.967383 -4.04493 0
M  V30 11726 H 1147.78 2.3758 -2.8742 0
M  V30 11727 N 1149.96 1.53094 0.37415 0
M  V30 11728 C 1151.19 1.72758 1.13852 0
M  V30 11729 C 1151.6 0.452638 1.83294 0
M  V30 11730 O 1150.96 -0.573906 1.73241 0
M  V30 11731 C 1151.01 2.88724 2.17534 0
M  V30 11732 O 1150.73 4.11284 1.5092 0
M  V30 11733 C 1152.23 3.2019 3.06584 0
M  V30 11734 H 1149.45 0.578028 0.340771 0
M  V30 11735 H 1152 1.99805 0.435683 0
M  V30 11736 H 1150.15 2.64096 2.83429 0
M  V30 11737 H 1150.57 4.76162 2.19932 0
M  V30 11738 H 1152.04 4.04759 3.75332 0
M  V30 11739 H 1152.52 2.35193 3.70919 0
M  V30 11740 H 1153.12 3.46712 2.46315 0
M  V30 11741 N 1151.44 -0.633461 1.44309 0
M  V30 11742 C 1152.72 -1.3917 1.37444 0
M  V30 11743 C 1153.1 -2.11076 0.0319994 0
M  V30 11744 O 1152.44 -2.06164 -0.98533 0
M  V30 11745 C 1152.65 -2.36005 2.57104 0
M  V30 11746 C 1154 -2.99407 3.01065 0
M  V30 11747 O 1155.03 -2.46331 2.57292 0
M  V30 11748 O 1153.89 -3.95686 3.76954 0
M  V30 11749 H 1150.98 -0.622746 0.544166 0
M  V30 11750 H 1153.53 -0.658712 1.56394 0
M  V30 11751 H 1152.3 -1.81955 3.46422 0
M  V30 11752 H 1151.92 -3.16725 2.40356 0
M  V30 11753 N 1152.92 -1.31168 -0.873655 0
M  V30 11754 C 1154.16 -1.20821 -1.62881 0
M  V30 11755 C 1154.5 0.233994 -1.92785 0
M  V30 11756 O 1153.77 1.16588 -1.55684 0
M  V30 11757 C 1154.06 -2.04875 -2.96139 0
M  V30 11758 C 1153.91 -3.57375 -2.73136 0
M  V30 11759 C 1155.23 -1.8953 -3.97198 0
M  V30 11760 H 1152.35 -0.44026 -0.59105 0
M  V30 11761 H 1154.99 -1.6092 -1.01019 0
M  V30 11762 H 1153.14 -1.70806 -3.48938 0
M  V30 11763 H 1154.81 -4.01561 -2.27038 0
M  V30 11764 H 1153.05 -3.8099 -2.07434 0
M  V30 11765 H 1153.72 -4.1149 -3.6794 0
M  V30 11766 H 1156.2 -2.19337 -3.53596 0
M  V30 11767 H 1155.08 -2.5065 -4.8833 0
M  V30 11768 H 1155.34 -0.857576 -4.33703 0
M  V30 11769 N 1154.4 1.08748 -1.14068 0
M  V30 11770 C 1155.62 1.85353 -0.930532 0
M  V30 11771 C 1156.05 1.80892 0.515717 0
M  V30 11772 O 1155.4 1.19146 1.36652 0
M  V30 11773 C 1155.45 3.30962 -1.43167 0
M  V30 11774 O 1154.56 4.0769 -0.621468 0
M  V30 11775 H 1153.9 0.574485 -0.332962 0
M  V30 11776 H 1156.43 1.37282 -1.51707 0
M  V30 11777 H 1156.44 3.81807 -1.43832 0
M  V30 11778 H 1155.11 3.33524 -2.48464 0
M  V30 11779 H 1153.69 3.66587 -0.683267 0
M  V30 11780 N 1155.87 0.935264 1.26849 0
M  V30 11781 C 1156.81 0.397539 2.25726 0
M  V30 11782 C 1157.82 -0.475928 1.55688 0
M  V30 11783 O 1159.01 -0.287329 1.76172 0
M  V30 11784 C 1156.11 -0.448308 3.35922 0
M  V30 11785 C 1155.28 0.407624 4.35496 0
M  V30 11786 C 1154.34 -0.376815 5.24849 0
M  V30 11787 O 1153.37 0.218109 5.68782 0
M  V30 11788 N 1154.57 -1.67481 5.55815 0
M  V30 11789 H 1157.33 1.24753 2.72501 0
M  V30 11790 H 1154.89 0.803505 1.40554 0
M  V30 11791 H 1156.89 -0.980338 3.92647 0
M  V30 11792 H 1155.46 -1.19908 2.88688 0
M  V30 11793 H 1154.68 1.12091 3.77928 0
M  V30 11794 H 1155.96 0.992512 4.99026 0
M  V30 11795 H 1155.36 -2.18037 5.21993 0
M  V30 11796 H 1153.92 -2.15321 6.15207 0
M  V30 11797 N 1157.35 -1.41121 0.701616 0
M  V30 11798 C 1158.32 -2.29148 0.0490091 0
M  V30 11799 C 1159.32 -1.44679 -0.701763 0
M  V30 11800 O 1160.51 -1.65757 -0.53575 0
M  V30 11801 C 1157.64 -3.2766 -0.940837 0
M  V30 11802 H 1158.83 -2.88354 0.824133 0
M  V30 11803 H 1156.38 -1.49209 0.465457 0
M  V30 11804 H 1157.12 -2.73445 -1.74351 0
M  V30 11805 H 1156.9 -3.89997 -0.405551 0
M  V30 11806 H 1158.39 -3.93609 -1.39507 0
M  V30 11807 N 1158.83 -0.446794 -1.51134 0
M  V30 11808 C 1159.74 0.36579 -2.31731 0
M  V30 11809 C 1160.76 1.01886 -1.41051 0
M  V30 11810 O 1161.93 1.01216 -1.74119 0
M  V30 11811 C 1159 1.44705 -3.15058 0
M  V30 11812 C 1158.06 0.813129 -4.21529 0
M  V30 11813 C 1157.29 1.84287 -5.00873 0
M  V30 11814 O 1157.51 3.06633 -4.8097 0
M  V30 11815 O 1156.45 1.42816 -5.84711 0
M  V30 11816 H 1160.27 -0.292436 -3.02289 0
M  V30 11817 H 1157.86 -0.209129 -1.47929 0
M  V30 11818 H 1159.74 2.07393 -3.66833 0
M  V30 11819 H 1158.42 2.08919 -2.47254 0
M  V30 11820 H 1157.32 0.147953 -3.73807 0
M  V30 11821 H 1158.66 0.214331 -4.91733 0
M  V30 11822 N 1160.31 1.56586 -0.178487 0
M  V30 11823 C 1161.72 1.83633 0.337009 0
M  V30 11824 C 1162.07 1.09857 1.6256 0
M  V30 11825 O 1161.2 0.353933 2.13486 0
M  V30 11826 C 1161.79 3.33112 0.618225 0
M  V30 11827 C 1160.35 3.60629 1.07814 0
M  V30 11828 C 1159.5 2.7705 0.117825 0
M  V30 11829 H 1162.45 1.53508 -0.402612 0
M  V30 11830 H 1162.47 3.5098 1.46947 0
M  V30 11831 H 1161.98 3.8678 -0.319808 0
M  V30 11832 H 1160.08 3.12378 2.03103 0
M  V30 11833 H 1160.19 4.68921 0.982339 0
M  V30 11834 H 1158.56 2.47125 0.616563 0
M  V30 11835 H 1159.34 3.33501 -0.814356 0
M  V30 11836 N 1161.79 -0.095206 1.57312 0
M  V30 11837 C 1163.03 -0.799903 1.86358 0
M  V30 11838 C 1163.37 -1.78386 0.767593 0
M  V30 11839 O 1162.64 -1.93201 -0.224439 0
M  V30 11840 C 1162.92 -1.52875 3.26039 0
M  V30 11841 C 1162.78 -0.562781 4.46265 0
M  V30 11842 C 1164.1 -2.47935 3.63616 0
M  V30 11843 H 1161.21 -0.289339 0.677829 0
M  V30 11844 H 1163.86 -0.0635369 1.89894 0
M  V30 11845 H 1162.01 -2.15645 3.23156 0
M  V30 11846 H 1163.68 0.0579068 4.61264 0
M  V30 11847 H 1161.92 0.123847 4.33623 0
M  V30 11848 H 1162.59 -1.10989 5.40727 0
M  V30 11849 H 1165.07 -1.95257 3.67442 0
M  V30 11850 H 1163.94 -2.95948 4.62283 0
M  V30 11851 H 1164.21 -3.31687 2.92294 0
M  V30 11852 N 1163.26 -1.53291 -0.366026 0
M  V30 11853 C 1164.17 -1.82656 -1.47221 0
M  V30 11854 C 1165.19 -0.71491 -1.58635 0
M  V30 11855 O 1166.37 -1.00492 -1.74538 0
M  V30 11856 C 1163.43 -2.00995 -2.82492 0
M  V30 11857 C 1162.49 -3.24895 -2.8061 0
M  V30 11858 C 1161.73 -3.4235 -4.09429 0
M  V30 11859 O 1161.95 -2.6411 -5.05571 0
M  V30 11860 O 1160.88 -4.35702 -4.15268 0
M  V30 11861 H 1164.71 -2.76634 -1.2533 0
M  V30 11862 H 1162.29 -1.38665 -0.556084 0
M  V30 11863 H 1164.18 -2.14632 -3.62645 0
M  V30 11864 H 1162.85 -1.10207 -3.04362 0
M  V30 11865 H 1161.76 -3.16682 -1.99157 0
M  V30 11866 H 1163.09 -4.15604 -2.63694 0
M  V30 11867 N 1164.74 0.6258 -1.44643 0
M  V30 11868 C 1165.99 1.38125 -1.46984 0
M  V30 11869 C 1166.3 1.95299 -0.108429 0
M  V30 11870 O 1167.51 2.71498 -0.00940005 0
M  V30 11871 C 1165.97 2.50108 -2.58793 0
M  V30 11872 C 1165.57 1.99424 -4.01166 0
M  V30 11873 C 1167.32 3.27269 -2.70361 0
M  V30 11874 C 1165.23 3.08781 -5.04389 0
M  V30 11875 H 1164.16 0.519083 -0.546872 0
M  V30 11876 H 1166.81 0.67268 -1.70726 0
M  V30 11877 H 1165.19 3.23565 -2.28302 0
M  V30 11878 H 1166.36 1.32797 -4.4125 0
M  V30 11879 H 1164.68 1.35063 -3.93887 0
M  V30 11880 H 1167.27 4.08802 -3.44652 0
M  V30 11881 H 1167.62 3.77097 -1.76362 0
M  V30 11882 H 1168.15 2.60905 -3.00289 0
M  V30 11883 H 1164.89 2.63891 -6.00035 0
M  V30 11884 H 1164.41 3.74033 -4.68892 0
M  V30 11885 H 1166.09 3.73469 -5.28328 0
M  V30 11886 N 1166.22 1.31629 0.866686 0
M  V30 11887 C 1167.64 1.10358 1.15296 0
M  V30 11888 C 1167.84 -0.123807 2.01119 0
M  V30 11889 O 1166.89 -0.81219 2.39081 0
M  V30 11890 C 1168.21 2.37684 1.84193 0
M  V30 11891 C 1169.75 2.43326 1.9688 0
M  V30 11892 C 1170.23 3.70541 2.69191 0
M  V30 11893 N 1171.72 3.71454 2.76724 0
M  V30 11894 C 1172.45 4.66585 3.33295 0
M  V30 11895 N 1171.95 5.72075 3.90771 0
M  V30 11896 N 1173.74 4.541 3.31284 0
M  V30 11897 H 1165.89 2.10343 0.29487 0
M  V30 11898 H 1168.16 0.928096 0.193239 0
M  V30 11899 H 1167.86 3.27352 1.28582 0
M  V30 11900 H 1167.74 2.47731 2.84445 0
M  V30 11901 H 1170.12 1.54124 2.51654 0
M  V30 11902 H 1170.21 2.3724 0.956596 0
M  V30 11903 H 1169.85 4.60111 2.15083 0
M  V30 11904 H 1169.78 3.73894 3.70825 0
M  V30 11905 H 1172.27 2.952 2.35936 0
M  V30 11906 H 1172.58 6.40738 4.32058 0
M  V30 11907 H 1170.93 5.75844 3.89138 0
M  V30 11908 H 1174.12 3.70861 2.85622 0
M  V30 11909 H 1174.29 5.28416 3.75074 0
M  V30 11910 N 1167.7 -1.08142 1.14644 0
M  V30 11911 C 1168.93 -1.8405 0.938563 0
M  V30 11912 C 1169.34 -1.82017 -0.516361 0
M  V30 11913 O 1168.68 -1.22418 -1.36966 0
M  V30 11914 C 1168.74 -3.32563 1.36536 0
M  V30 11915 C 1168.41 -3.58327 2.83638 0
M  V30 11916 C 1169.4 -3.52944 3.81741 0
M  V30 11917 C 1167.09 -3.86251 3.21115 0
M  V30 11918 C 1169.08 -3.7512 5.15329 0
M  V30 11919 C 1166.77 -4.0808 4.54878 0
M  V30 11920 C 1167.77 -4.02508 5.51794 0
M  V30 11921 O 1167.46 -4.23761 6.83141 0
M  V30 11922 H 1167.19 -0.587793 0.33388 0
M  V30 11923 H 1169.74 -1.37467 1.52617 0
M  V30 11924 H 1167.97 -3.79917 0.721106 0
M  V30 11925 H 1169.66 -3.89915 1.12787 0
M  V30 11926 H 1170.43 -3.31382 3.54134 0
M  V30 11927 H 1166.31 -3.89707 2.46272 0
M  V30 11928 H 1169.85 -3.70686 5.90963 0
M  V30 11929 H 1165.75 -4.29126 4.82204 0
M  V30 11930 H 1166.51 -4.41152 6.8944 0
M  V30 11931 N 1169.18 -0.941978 -1.26351 0
M  V30 11932 C 1170.12 -0.450906 -2.26353 0
M  V30 11933 C 1171.09 0.489857 -1.58712 0
M  V30 11934 O 1172.28 0.40589 -1.86433 0
M  V30 11935 C 1169.42 0.277054 -3.43986 0
M  V30 11936 C 1168.53 -0.699474 -4.263 0
M  V30 11937 C 1167.67 0.0497661 -5.31177 0
M  V30 11938 C 1166.71 -0.918531 -6.05169 0
M  V30 11939 N 1165.84 -0.200993 -7.01812 0
M  V30 11940 H 1170.68 -1.30861 -2.6773 0
M  V30 11941 H 1168.22 -0.656514 -1.31637 0
M  V30 11942 H 1170.18 0.715567 -4.11018 0
M  V30 11943 H 1168.81 1.09889 -3.0352 0
M  V30 11944 H 1167.86 -1.2565 -3.59049 0
M  V30 11945 H 1169.17 -1.4389 -4.77595 0
M  V30 11946 H 1168.33 0.547521 -6.04224 0
M  V30 11947 H 1167.07 0.822068 -4.80722 0
M  V30 11948 H 1166.07 -1.4274 -5.30947 0
M  V30 11949 H 1167.3 -1.69085 -6.57713 0
M  V30 11950 H 1165.24 0.552803 -6.53667 0
M  V30 11951 H 1165.16 -0.879735 -7.50864 0
M  V30 11952 H 1166.43 0.275642 -7.79012 0
M  V30 11953 N 1170.66 1.40747 -0.709091 0
M  V30 11954 C 1171.6 2.30741 -0.0523584 0
M  V30 11955 C 1172.57 1.4784 0.757145 0
M  V30 11956 O 1173.76 1.76595 0.72242 0
M  V30 11957 C 1170.9 3.34 0.868203 0
M  V30 11958 C 1170.01 4.31972 0.0488686 0
M  V30 11959 C 1169.15 5.223 0.968311 0
M  V30 11960 C 1168.18 6.11934 0.142682 0
M  V30 11961 N 1167.32 6.947 1.01665 0
M  V30 11962 H 1172.16 2.86338 -0.825509 0
M  V30 11963 H 1169.7 1.41013 -0.418785 0
M  V30 11964 H 1171.66 3.92431 1.41611 0
M  V30 11965 H 1170.29 2.79921 1.6076 0
M  V30 11966 H 1169.34 3.75377 -0.616137 0
M  V30 11967 H 1170.65 4.95291 -0.590625 0
M  V30 11968 H 1169.8 5.85631 1.58498 0
M  V30 11969 H 1168.54 4.5924 1.64164 0
M  V30 11970 H 1167.55 5.47639 -0.486965 0
M  V30 11971 H 1168.77 6.77052 -0.527046 0
M  V30 11972 H 1166.72 6.34236 1.67575 0
M  V30 11973 H 1166.64 7.54759 0.433045 0
M  V30 11974 H 1167.9 7.62487 1.6197 0
M  V30 11975 N 1172.13 0.454803 1.50895 0
M  V30 11976 C 1173.06 -0.337982 2.31041 0
M  V30 11977 C 1174.04 -1.00523 1.37219 0
M  V30 11978 O 1175.23 -1.00553 1.66141 0
M  V30 11979 C 1172.36 -1.42964 3.1651 0
M  V30 11980 C 1171.31 -0.884907 4.18752 0
M  V30 11981 C 1170.64 -2.07363 4.92854 0
M  V30 11982 C 1171.94 0.0926716 5.22218 0
M  V30 11983 H 1173.63 0.33089 2.97566 0
M  V30 11984 H 1171.18 0.160577 1.43102 0
M  V30 11985 H 1173.13 -1.9916 3.71367 0
M  V30 11986 H 1171.86 -2.12705 2.47839 0
M  V30 11987 H 1170.52 -0.345031 3.64973 0
M  V30 11988 H 1170.16 -2.75764 4.2067 0
M  V30 11989 H 1169.86 -1.71545 5.62002 0
M  V30 11990 H 1171.39 -2.6408 5.5054 0
M  V30 11991 H 1172.8 -0.379568 5.72042 0
M  V30 11992 H 1171.2 0.3643 5.98993 0
M  V30 11993 H 1172.27 1.02383 4.73968 0
M  V30 11994 N 1173.61 -1.56489 0.186789 0
M  V30 11995 C 1174.54 -2.21705 -0.732739 0
M  V30 11996 C 1175.52 -1.17751 -1.22755 0
M  V30 11997 O 1176.71 -1.46231 -1.27789 0
M  V30 11998 C 1173.84 -2.86992 -1.95584 0
M  V30 11999 C 1172.79 -3.97118 -1.59628 0
M  V30 12000 C 1172.12 -4.49529 -2.89531 0
M  V30 12001 C 1173.42 -5.15941 -0.812518 0
M  V30 12002 H 1175.11 -2.98802 -0.189094 0
M  V30 12003 H 1172.66 -1.43722 -0.0895099 0
M  V30 12004 H 1174.61 -3.31295 -2.60426 0
M  V30 12005 H 1173.33 -2.07287 -2.52388 0
M  V30 12006 H 1171.99 -3.53494 -0.971475 0
M  V30 12007 H 1171.64 -3.66596 -3.44407 0
M  V30 12008 H 1171.34 -5.23832 -2.66221 0
M  V30 12009 H 1172.87 -4.96528 -3.55376 0
M  V30 12010 H 1174.28 -5.56841 -1.36386 0
M  V30 12011 H 1172.68 -5.96259 -0.677862 0
M  V30 12012 H 1173.75 -4.84535 0.188095 0
M  V30 12013 N 1175.09 0.086862 -1.5736 0
M  V30 12014 C 1176.31 0.806017 -1.91097 0
M  V30 12015 C 1176.74 1.71082 -0.78183 0
M  V30 12016 O 1176.1 1.79335 0.266175 0
M  V30 12017 C 1176.15 1.5884 -3.23732 0
M  V30 12018 O 1175.25 2.69798 -3.11902 0
M  V30 12019 H 1174.59 0.220899 -0.626179 0
M  V30 12020 H 1177.12 0.059619 -2.04513 0
M  V30 12021 H 1177.13 1.97088 -3.5724 0
M  V30 12022 H 1175.81 0.924426 -4.05496 0
M  V30 12023 H 1174.38 2.34519 -2.89923 0
M  V30 12024 N 1176.57 1.53483 0.357892 0
M  V30 12025 C 1177.5 1.83444 1.44466 0
M  V30 12026 C 1178.48 0.688486 1.55544 0
M  V30 12027 O 1179.66 0.93906 1.69986 0
M  V30 12028 C 1176.79 2.03122 2.81707 0
M  V30 12029 C 1175.75 3.1891 2.85448 0
M  V30 12030 C 1175.07 3.23895 4.25436 0
M  V30 12031 C 1176.37 4.57334 2.52275 0
M  V30 12032 H 1178.07 2.74456 1.19642 0
M  V30 12033 H 1175.61 1.3206 0.574112 0
M  V30 12034 H 1177.57 2.22666 3.57768 0
M  V30 12035 H 1176.29 1.08827 3.07935 0
M  V30 12036 H 1174.95 2.99199 2.11838 0
M  V30 12037 H 1174.6 2.27223 4.48753 0
M  V30 12038 H 1174.3 4.01694 4.28854 0
M  V30 12039 H 1175.82 3.45632 5.0336 0
M  V30 12040 H 1177.24 4.76988 3.1805 0
M  V30 12041 H 1175.63 5.37431 2.66998 0
M  V30 12042 H 1176.7 4.61921 1.47501 0
M  V30 12043 N 1178.05 -0.61812 1.44973 0
M  V30 12044 C 1178.98 -1.74035 1.55673 0
M  V30 12045 C 1179.96 -1.65112 0.4089 0
M  V30 12046 O 1181.14 -1.83673 0.630698 0
M  V30 12047 C 1178.27 -3.1261 1.51303 0
M  V30 12048 C 1177.23 -3.36334 2.64696 0
M  V30 12049 C 1176.55 -4.75072 2.45378 0
M  V30 12050 C 1177.85 -3.27618 4.06772 0
M  V30 12051 H 1179.55 -1.65336 2.49608 0
M  V30 12052 H 1177.09 -0.794003 1.20132 0
M  V30 12053 H 1179.04 -3.90906 1.57388 0
M  V30 12054 H 1177.77 -3.22123 0.538914 0
M  V30 12055 H 1176.43 -2.60423 2.58022 0
M  V30 12056 H 1176.08 -4.81306 1.46129 0
M  V30 12057 H 1175.78 -4.91903 3.21412 0
M  V30 12058 H 1177.3 -5.55582 2.53301 0
M  V30 12059 H 1178.71 -3.95802 4.14746 0
M  V30 12060 H 1177.11 -3.55981 4.83113 0
M  V30 12061 H 1178.18 -2.25219 4.29423 0
M  V30 12062 N 1179.52 -1.32087 -0.859693 0
M  V30 12063 C 1180.75 -1.25348 -1.64607 0
M  V30 12064 C 1181.17 0.179425 -1.87945 0
M  V30 12065 O 1180.52 1.11487 -1.44489 0
M  V30 12066 C 1180.57 -2.0047 -3.00822 0
M  V30 12067 O 1180.3 -3.38169 -2.7852 0
M  V30 12068 C 1181.8 -2.00694 -3.95268 0
M  V30 12069 H 1179.02 -0.432692 -0.512854 0
M  V30 12070 H 1181.56 -1.7413 -1.07234 0
M  V30 12071 H 1179.72 -1.55423 -3.54855 0
M  V30 12072 H 1180.13 -3.76553 -3.65113 0
M  V30 12073 H 1181.6 -2.57748 -4.88129 0
M  V30 12074 H 1182.08 -0.99196 -4.27851 0
M  V30 12075 H 1182.69 -2.45666 -3.47172 0
M  V30 12076 N 1181 1.07532 -1.15215 0
M  V30 12077 C 1182.25 1.80093 -0.925891 0
M  V30 12078 C 1182.58 1.86648 0.547079 0
M  V30 12079 O 1181.83 1.34492 1.42164 0
M  V30 12080 C 1182.13 3.2518 -1.483 0
M  V30 12081 C 1181.8 3.38728 -2.97614 0
M  V30 12082 C 1180.46 3.42133 -3.38376 0
M  V30 12083 C 1182.81 3.41676 -3.93583 0
M  V30 12084 C 1180.14 3.46086 -4.73752 0
M  V30 12085 C 1182.49 3.47166 -5.28828 0
M  V30 12086 C 1181.15 3.48847 -5.69089 0
M  V30 12087 H 1180.42 0.659007 -0.338808 0
M  V30 12088 H 1183.07 1.26548 -1.43728 0
M  V30 12089 H 1181.38 3.81493 -0.892751 0
M  V30 12090 H 1183.07 3.79895 -1.28376 0
M  V30 12091 H 1179.66 3.36775 -2.65105 0
M  V30 12092 H 1183.85 3.38268 -3.63165 0
M  V30 12093 H 1179.1 3.45686 -5.04293 0
M  V30 12094 H 1183.28 3.48393 -6.02989 0
M  V30 12095 H 1180.9 3.51663 -6.73971 0
M  V30 12096 N 1182.48 0.948665 1.2585 0
M  V30 12097 C 1183.44 0.468673 2.24357 0
M  V30 12098 C 1184.44 -0.424355 1.551 0
M  V30 12099 O 1185.63 -0.222481 1.72773 0
M  V30 12100 C 1182.77 -0.32359 3.39361 0
M  V30 12101 H 1183.96 1.33928 2.68334 0
M  V30 12102 H 1181.51 0.731357 1.38133 0
M  V30 12103 H 1182.25 -1.21212 3.00796 0
M  V30 12104 H 1182.03 0.316998 3.90816 0
M  V30 12105 H 1183.52 -0.649087 4.12525 0
M  V30 12106 N 1183.96 -1.40369 0.716545 0
M  V30 12107 C 1184.89 -2.33365 0.0793533 0
M  V30 12108 C 1185.87 -1.52943 -0.744482 0
M  V30 12109 O 1187.05 -1.81406 -0.693212 0
M  V30 12110 C 1184.18 -3.36928 -0.842429 0
M  V30 12111 C 1183.14 -4.2782 -0.124142 0
M  V30 12112 C 1182.46 -5.21928 -1.1617 0
M  V30 12113 C 1183.76 -5.12199 1.02224 0
M  V30 12114 H 1185.46 -2.86899 0.856115 0
M  V30 12115 H 1183 -1.37946 0.413138 0
M  V30 12116 H 1184.96 -4.00925 -1.29759 0
M  V30 12117 H 1183.68 -2.81791 -1.6511 0
M  V30 12118 H 1182.34 -3.65277 0.311201 0
M  V30 12119 H 1181.99 -4.63096 -1.96345 0
M  V30 12120 H 1181.69 -5.83582 -0.685978 0
M  V30 12121 H 1183.21 -5.88802 -1.61694 0
M  V30 12122 H 1184.63 -5.69644 0.646399 0
M  V30 12123 H 1183.02 -5.82901 1.4264 0
M  V30 12124 H 1184.09 -4.4812 1.85246 0
M  V30 12125 N 1185.44 -0.462799 -1.50652 0
M  V30 12126 C 1186.37 0.371837 -2.26164 0
M  V30 12127 C 1187.38 0.96432 -1.31167 0
M  V30 12128 O 1188.57 0.854134 -1.56738 0
M  V30 12129 C 1185.67 1.53469 -3.0216 0
M  V30 12130 C 1184.84 1.0565 -4.24449 0
M  V30 12131 C 1183.9 2.09243 -4.82808 0
M  V30 12132 O 1182.93 1.67641 -5.43953 0
M  V30 12133 N 1184.13 3.41976 -4.69076 0
M  V30 12134 H 1186.9 -0.275476 -2.98431 0
M  V30 12135 H 1184.46 -0.293109 -1.59225 0
M  V30 12136 H 1186.45 2.22446 -3.38083 0
M  V30 12137 H 1185.02 2.08685 -2.32743 0
M  V30 12138 H 1184.24 0.192895 -3.93728 0
M  V30 12139 H 1185.53 0.714796 -5.03754 0
M  V30 12140 H 1184.92 3.78491 -4.20429 0
M  V30 12141 H 1183.48 4.06775 -5.09291 0
M  V30 12142 N 1186.91 1.56388 -0.195085 0
M  V30 12143 C 1188.14 2.02406 0.452399 0
M  V30 12144 C 1188.56 1.07432 1.54402 0
M  V30 12145 O 1187.92 0.0578246 1.81208 0
M  V30 12146 C 1187.97 3.46864 0.985778 0
M  V30 12147 O 1187.07 3.55007 2.09867 0
M  V30 12148 H 1186.42 0.65553 0.105719 0
M  V30 12149 H 1188.95 2.02299 -0.30596 0
M  V30 12150 H 1188.96 3.86655 1.30238 0
M  V30 12151 H 1187.63 4.15481 0.186662 0
M  V30 12152 H 1186.21 3.2709 1.79071 0
M  V30 12153 N 1188.39 -0.0785156 1.57404 0
M  V30 12154 C 1189.64 -0.777722 1.86103 0
M  V30 12155 C 1189.95 -1.79079 0.786771 0
M  V30 12156 O 1191.16 -2.53908 0.961393 0
M  V30 12157 C 1189.62 -1.43407 3.30095 0
M  V30 12158 C 1189.22 -0.459912 4.45633 0
M  V30 12159 C 1190.97 -2.11603 3.68 0
M  V30 12160 C 1188.88 -1.12179 5.80663 0
M  V30 12161 H 1187.81 -0.294205 0.694233 0
M  V30 12162 H 1190.46 -0.0309003 1.83474 0
M  V30 12163 H 1188.84 -2.22892 3.27315 0
M  V30 12164 H 1190.01 0.304642 4.59792 0
M  V30 12165 H 1188.33 0.117242 4.16235 0
M  V30 12166 H 1190.92 -2.61887 4.66175 0
M  V30 12167 H 1191.27 -2.91244 2.9746 0
M  V30 12168 H 1191.8 -1.38958 3.72741 0
M  V30 12169 H 1188.54 -0.365842 6.54478 0
M  V30 12170 H 1188.06 -1.85737 5.70317 0
M  V30 12171 H 1189.74 -1.64355 6.25777 0
M  V30 12172 N 1189.87 -1.5367 -0.349747 0
M  V30 12173 C 1191.15 -1.61238 -1.10732 0
M  V30 12174 C 1191.53 -0.429756 -2.06679 0
M  V30 12175 O 1190.88 0.578564 -2.21054 0
M  V30 12176 C 1191.09 -2.97022 -1.83245 0
M  V30 12177 C 1192.43 -3.52158 -2.37212 0
M  V30 12178 O 1193.46 -2.99156 -1.9335 0
M  V30 12179 O 1192.32 -4.44853 -3.1744 0
M  V30 12180 H 1189.41 -0.65191 -0.508864 0
M  V30 12181 H 1191.96 -1.66015 -0.351738 0
M  V30 12182 H 1190.73 -3.74535 -1.13311 0
M  V30 12183 H 1190.35 -2.95808 -2.65675 0
M  V30 12184 N 1191.35 0.610423 -1.45298 0
M  V30 12185 C 1192.3 1.74245 -1.54083 0
M  V30 12186 C 1193.29 1.64338 -0.411003 0
M  V30 12187 O 1194.5 1.70167 -0.586799 0
M  V30 12188 H 1190.87 0.575612 -0.483916 0
M  V30 12189 H 1192.84 1.63961 -2.49318 0
M  V30 12190 C 1191.59 3.1262 -1.52198 0
M  V30 12191 H 1190.91 3.209 -2.3846 0
M  V30 12192 H 1192.35 3.91665 -1.62403 0
M  V30 12193 C 1190.81 3.36001 -0.24595 0
M  V30 12194 O 1191.34 3.95982 0.675374 0
M  V30 12195 N 1189.55 2.9025 -0.142537 0
M  V30 12196 H 1189.1 2.41621 -0.893143 0
M  V30 12197 H 1189.05 3.06268 0.710427 0
M  V30 12198 N 1192.83 1.32541 0.852676 0
M  V30 12199 C 1194.05 1.2636 1.64462 0
M  V30 12200 C 1194.48 -0.16508 1.87374 0
M  V30 12201 O 1193.83 -1.11712 1.42794 0
M  V30 12202 C 1193.88 2.03052 2.97997 0
M  V30 12203 O 1192.99 1.37967 3.88637 0
M  V30 12204 H 1192.33 0.435393 0.501327 0
M  V30 12205 H 1194.86 1.74888 1.06186 0
M  V30 12206 H 1194.87 2.133 3.47803 0
M  V30 12207 H 1193.54 3.06941 2.80642 0
M  V30 12208 H 1192.12 1.36279 3.47106 0
M  V30 12209 N 1194.3 -1.0692 1.15784 0
M  V30 12210 C 1195.25 -2.12473 0.826994 0
M  V30 12211 C 1196.24 -1.59766 -0.19073 0
M  V30 12212 O 1197.43 -1.76998 0.00917115 0
M  V30 12213 C 1194.56 -3.41779 0.322847 0
M  V30 12214 C 1193.65 -4.01329 1.37098 0
M  V30 12215 N 1194.04 -4.35077 2.57957 0
M  V30 12216 C 1192.33 -4.28854 1.22475 0
M  V30 12217 C 1193.04 -4.82326 3.25171 0
M  V30 12218 N 1192.01 -4.81369 2.52556 0
M  V30 12219 H 1195.81 -2.36404 1.74614 0
M  V30 12220 H 1193.33 -1.244 1.04395 0
M  V30 12221 H 1195.32 -4.16845 0.0674576 0
M  V30 12222 H 1193.98 -3.19289 -0.590311 0
M  V30 12223 H 1195 -4.25626 2.95065 0
M  V30 12224 H 1191.67 -4.15841 0.371839 0
M  V30 12225 H 1193.06 -5.17695 4.28301 0
M  V30 12226 N 1195.78 -0.955326 -1.25345 0
M  V30 12227 C 1197.01 -0.627233 -1.97688 0
M  V30 12228 C 1197.43 0.793973 -1.70522 0
M  V30 12229 O 1196.79 1.537 -0.961556 0
M  V30 12230 C 1196.84 -0.892969 -3.49369 0
M  V30 12231 O 1195.94 0.0278871 -4.12391 0
M  V30 12232 H 1195.28 -0.238402 -0.619726 0
M  V30 12233 H 1197.81 -1.28211 -1.59446 0
M  V30 12234 H 1197.82 -0.819517 -3.99685 0
M  V30 12235 H 1196.5 -1.92879 -3.6847 0
M  V30 12236 H 1195.08 -0.0978295 -3.72772 0
M  V30 12237 N 1197.26 1.39987 -0.723979 0
M  V30 12238 C 1198.19 2.28185 -0.0257726 0
M  V30 12239 C 1199.17 1.43795 0.75907 0
M  V30 12240 O 1200.36 1.73198 0.743948 0
M  V30 12241 C 1197.48 3.24489 0.970811 0
M  V30 12242 C 1196.53 4.25607 0.275778 0
M  V30 12243 S 1197.36 5.26035 -1.00237 0
M  V30 12244 C 1198.52 6.25899 -0.00809987 0
M  V30 12245 H 1198.75 2.87054 -0.773761 0
M  V30 12246 H 1196.28 1.45546 -0.515332 0
M  V30 12247 H 1198.24 3.80496 1.54055 0
M  V30 12248 H 1196.9 2.6466 1.69156 0
M  V30 12249 H 1196.1 4.93374 1.02946 0
M  V30 12250 H 1195.7 3.73343 -0.22163 0
M  V30 12251 H 1197.99 6.72323 0.835971 0
M  V30 12252 H 1198.93 7.05086 -0.652607 0
M  V30 12253 H 1199.34 5.63355 0.359377 0
M  V30 12254 N 1198.74 0.470782 1.50404 0
M  V30 12255 C 1199.99 -0.0844409 2.02624 0
M  V30 12256 C 1200.32 -1.39398 1.3521 0
M  V30 12257 O 1199.59 -1.88542 0.477707 0
M  V30 12258 C 1199.88 -0.268563 3.59097 0
M  V30 12259 C 1199.73 1.06198 4.37084 0
M  V30 12260 C 1201.05 -1.02324 4.28039 0
M  V30 12261 H 1198.17 -0.0292141 0.736421 0
M  V30 12262 H 1200.81 0.616312 1.79726 0
M  V30 12263 H 1198.96 -0.865441 3.78738 0
M  V30 12264 H 1200.63 1.69541 4.29015 0
M  V30 12265 H 1198.87 1.65868 4.00837 0
M  V30 12266 H 1199.55 0.886795 5.4483 0
M  V30 12267 H 1202.02 -0.517325 4.12872 0
M  V30 12268 H 1200.9 -1.12087 5.37334 0
M  V30 12269 H 1201.16 -2.05974 3.91187 0
M  V30 12270 N 1200.22 -1.56282 0.203376 0
M  V30 12271 C 1201.47 -1.97421 -0.432346 0
M  V30 12272 C 1201.79 -1.0917 -1.61576 0
M  V30 12273 O 1201.06 -0.164759 -1.95206 0
M  V30 12274 H 1199.64 -0.729062 -0.162721 0
M  V30 12275 H 1202.3 -1.927 0.292039 0
M  V30 12276 H 1201.39 -3.02429 -0.770918 0
M  V30 12277 N 1201.7 0.070167 -1.57444 0
M  V30 12278 C 1202.64 1.08322 -2.03801 0
M  V30 12279 C 1203.61 1.38364 -0.918946 0
M  V30 12280 O 1204.8 1.49404 -1.18672 0
M  V30 12281 C 1201.94 2.39128 -2.48821 0
M  V30 12282 C 1201.05 2.15603 -3.74352 0
M  V30 12283 C 1200.19 3.39984 -4.08148 0
M  V30 12284 C 1199.22 3.1183 -5.26715 0
M  V30 12285 N 1198.36 4.28546 -5.56141 0
M  V30 12286 H 1203.2 0.680931 -2.90116 0
M  V30 12287 H 1200.74 0.324657 -1.43473 0
M  V30 12288 H 1202.7 3.15501 -2.72975 0
M  V30 12289 H 1201.33 2.77157 -1.65481 0
M  V30 12290 H 1200.38 1.29915 -3.57528 0
M  V30 12291 H 1201.69 1.90808 -4.60862 0
M  V30 12292 H 1200.84 4.2475 -4.33211 0
M  V30 12293 H 1199.58 3.67856 -3.20208 0
M  V30 12294 H 1198.59 2.2546 -5.01446 0
M  V30 12295 H 1199.81 2.85278 -6.16273 0
M  V30 12296 H 1197.76 4.56447 -4.71161 0
M  V30 12297 H 1197.68 4.0703 -6.37073 0
M  V30 12298 H 1198.94 5.14305 -5.85757 0
M  V30 12299 N 1203.17 1.53854 0.341593 0
M  V30 12300 C 1204.1 1.84966 1.42513 0
M  V30 12301 C 1205.08 0.704944 1.54805 0
M  V30 12302 O 1206.27 0.957036 1.68981 0
M  V30 12303 C 1203.4 2.06099 2.79536 0
M  V30 12304 C 1202.35 3.21919 2.82049 0
M  V30 12305 C 1201.68 3.28389 4.21977 0
M  V30 12306 C 1202.98 4.59984 2.4741 0
M  V30 12307 H 1204.67 2.7571 1.16724 0
M  V30 12308 H 1202.22 1.32662 0.560073 0
M  V30 12309 H 1204.17 2.26448 3.55386 0
M  V30 12310 H 1202.9 1.12087 3.06764 0
M  V30 12311 H 1201.56 3.01429 2.08653 0
M  V30 12312 H 1201.2 2.3197 4.46317 0
M  V30 12313 H 1200.9 4.0622 4.24569 0
M  V30 12314 H 1202.43 3.50951 4.99666 0
M  V30 12315 H 1203.84 4.80334 3.12973 0
M  V30 12316 H 1202.24 5.40233 2.61282 0
M  V30 12317 H 1203.31 4.6346 1.42594 0
M  V30 12318 N 1204.65 -0.602709 1.4562 0
M  V30 12319 C 1205.88 -1.39299 1.53657 0
M  V30 12320 C 1206.3 -1.87315 0.171632 0
M  V30 12321 O 1205.66 -1.60423 -0.844639 0
M  V30 12322 C 1205.71 -2.57021 2.52928 0
M  V30 12323 O 1204.81 -3.57812 2.05047 0
M  V30 12324 H 1204.15 -0.41567 0.517798 0
M  V30 12325 H 1206.68 -0.73304 1.91018 0
M  V30 12326 H 1206.69 -3.04202 2.71892 0
M  V30 12327 H 1205.37 -2.21422 3.52058 0
M  V30 12328 H 1203.94 -3.17247 1.95981 0
M  V30 12329 N 1206.13 -1.32992 -0.845635 0
M  V30 12330 C 1207.55 -1.12179 -1.13526 0
M  V30 12331 C 1207.75 0.091795 -2.01291 0
M  V30 12332 O 1206.8 0.774051 -2.40343 0
M  V30 12333 C 1208.11 -2.40584 -1.80388 0
M  V30 12334 C 1209.66 -2.46427 -1.92984 0
M  V30 12335 C 1210.14 -3.74776 -2.63261 0
M  V30 12336 N 1211.63 -3.75809 -2.7078 0
M  V30 12337 C 1212.36 -4.71829 -3.2583 0
M  V30 12338 N 1211.86 -5.78219 -3.81621 0
M  V30 12339 N 1213.65 -4.59313 -3.24018 0
M  V30 12340 H 1205.8 -2.10786 -0.261369 0
M  V30 12341 H 1208.07 -0.931053 -0.17845 0
M  V30 12342 H 1207.77 -3.29357 -1.23357 0
M  V30 12343 H 1207.65 -2.52225 -2.80468 0
M  V30 12344 H 1210.03 -1.58108 -2.4917 0
M  V30 12345 H 1210.11 -2.38732 -0.918732 0
M  V30 12346 H 1209.76 -4.63474 -2.07736 0
M  V30 12347 H 1209.69 -3.79746 -3.6483 0
M  V30 12348 H 1212.18 -2.98916 -2.31209 0
M  V30 12349 H 1212.49 -6.47531 -4.2181 0
M  V30 12350 H 1210.84 -5.81962 -3.79927 0
M  V30 12351 H 1214.03 -3.75358 -2.79685 0
M  V30 12352 H 1214.2 -5.34316 -3.6662 0
M  V30 12353 N 1207.61 1.06304 -1.1635 0
M  V30 12354 C 1209.02 1.31227 -0.90838 0
M  V30 12355 C 1209.22 1.96665 0.438779 0
M  V30 12356 O 1208.28 2.2332 1.17833 0
M  V30 12357 C 1209.59 2.19303 -2.05734 0
M  V30 12358 C 1211.14 2.3272 -2.09309 0
M  V30 12359 C 1211.62 3.24151 -3.23559 0
M  V30 12360 N 1213.11 3.31734 -3.23275 0
M  V30 12361 C 1213.84 4.02572 -4.08318 0
M  V30 12362 N 1213.34 4.75933 -5.03448 0
M  V30 12363 N 1215.13 3.98621 -3.96305 0
M  V30 12364 H 1207.28 0.622228 -2.03081 0
M  V30 12365 H 1209.54 0.336892 -0.886119 0
M  V30 12366 H 1209.25 1.78497 -3.03037 0
M  V30 12367 H 1209.12 3.19888 -1.99879 0
M  V30 12368 H 1211.51 2.72774 -1.12599 0
M  V30 12369 H 1211.59 1.31804 -2.19229 0
M  V30 12370 H 1211.24 2.84813 -4.20528 0
M  V30 12371 H 1211.17 4.25046 -3.10875 0
M  V30 12372 H 1213.66 2.79453 -2.5439 0
M  V30 12373 H 1213.97 5.27512 -5.64758 0
M  V30 12374 H 1212.32 4.74913 -5.07427 0
M  V30 12375 H 1215.51 3.40427 -3.21289 0
M  V30 12376 H 1215.68 4.5356 -4.62804 0
M  V30 12377 N 1209.09 0.96196 1.24836 0
M  V30 12378 C 1210.33 0.616342 1.92052 0
M  V30 12379 C 1210.65 -0.851601 1.76088 0
M  V30 12380 O 1211.85 -1.3075 2.37943 0
M  V30 12381 C 1210.31 1.05168 3.44191 0
M  V30 12382 C 1209.92 2.54268 3.68852 0
M  V30 12383 C 1211.66 0.778938 4.17292 0
M  V30 12384 C 1209.57 2.91564 5.14533 0
M  V30 12385 H 1208.5 0.22681 0.719078 0
M  V30 12386 H 1211.15 1.1674 1.41577 0
M  V30 12387 H 1209.53 0.428979 3.9367 0
M  V30 12388 H 1210.71 3.21619 3.29997 0
M  V30 12389 H 1209.02 2.79091 3.09026 0
M  V30 12390 H 1211.62 1.03366 5.24614 0
M  V30 12391 H 1211.96 -0.284772 4.15325 0
M  V30 12392 H 1212.49 1.36233 3.73745 0
M  V30 12393 H 1209.23 3.96982 5.21618 0
M  V30 12394 H 1208.75 2.28892 5.54408 0
M  V30 12395 H 1210.43 2.81155 5.82718 0
M  V30 12396 N 1210.56 -1.39601 0.731392 0
M  V30 12397 C 1211.79 -2.0459 0.287472 0
M  V30 12398 C 1212.2 -1.5525 -1.08139 0
M  V30 12399 O 1211.54 -0.710949 -1.69385 0
M  V30 12400 C 1211.61 -3.58904 0.206948 0
M  V30 12401 C 1211.27 -4.31204 1.51368 0
M  V30 12402 C 1212.27 -4.58088 2.45869 0
M  V30 12403 C 1209.95 -4.69818 1.77698 0
M  V30 12404 C 1211.95 -5.22591 3.64935 0
M  V30 12405 C 1209.63 -5.34049 2.97043 0
M  V30 12406 C 1210.63 -5.60368 3.90483 0
M  V30 12407 O 1210.32 -6.23268 5.07732 0
M  V30 12408 H 1210.05 -0.664515 0.12408 0
M  V30 12409 H 1212.61 -1.79701 0.994814 0
M  V30 12410 H 1210.84 -3.82675 -0.556466 0
M  V30 12411 H 1212.52 -4.05385 -0.204498 0
M  V30 12412 H 1213.29 -4.28706 2.26796 0
M  V30 12413 H 1209.17 -4.48692 1.05815 0
M  V30 12414 H 1212.71 -5.43049 4.37885 0
M  V30 12415 H 1208.61 -5.62852 3.16018 0
M  V30 12416 H 1209.38 -6.41763 5.08019 0
M  V30 12417 N 1212.04 -0.478751 -1.50152 0
M  V30 12418 C 1212.97 0.301182 -2.31549 0
M  V30 12419 C 1213.95 0.983276 -1.38801 0
M  V30 12420 O 1215.14 0.978973 -1.67719 0
M  V30 12421 C 1212.27 1.3791 -3.18745 0
M  V30 12422 C 1211.22 0.818175 -4.20107 0
M  V30 12423 C 1210.55 1.99496 -4.9609 0
M  V30 12424 C 1211.85 -0.17574 -5.22004 0
M  V30 12425 H 1213.54 -0.378188 -2.97002 0
M  V30 12426 H 1211.09 -0.183323 -1.42828 0
M  V30 12427 H 1213.04 1.93227 -3.74488 0
M  V30 12428 H 1211.77 2.08735 -2.51192 0
M  V30 12429 H 1210.42 0.286924 -3.65475 0
M  V30 12430 H 1210.07 2.69036 -4.25004 0
M  V30 12431 H 1209.77 1.62582 -5.6466 0
M  V30 12432 H 1211.3 2.55288 -5.54671 0
M  V30 12433 H 1212.71 0.288513 -5.72574 0
M  V30 12434 H 1211.11 -0.459549 -5.98338 0
M  V30 12435 H 1212.18 -1.09911 -4.72279 0
M  V30 12436 N 1213.52 1.56172 -0.211661 0
M  V30 12437 C 1214.75 2.02874 0.430905 0
M  V30 12438 C 1215.17 1.09064 1.53254 0
M  V30 12439 O 1214.53 0.0770408 1.81136 0
M  V30 12440 C 1214.58 3.4789 0.948933 0
M  V30 12441 O 1213.68 3.57213 2.0609 0
M  V30 12442 H 1213.02 0.656614 0.0987607 0
M  V30 12443 H 1215.55 2.01964 -0.327399 0
M  V30 12444 H 1215.56 3.88015 1.2613 0
M  V30 12445 H 1214.24 4.15656 0.142584 0
M  V30 12446 H 1212.81 3.28971 1.75592 0
M  V30 12447 N 1215 -0.0618163 1.57479 0
M  V30 12448 C 1216.22 -0.775513 1.92355 0
M  V30 12449 C 1216.65 -1.69816 0.808949 0
M  V30 12450 O 1216.01 -1.79736 -0.23761 0
M  V30 12451 C 1216.05 -1.5367 3.26218 0
M  V30 12452 O 1215.16 -2.64802 3.16155 0
M  V30 12453 H 1214.5 -0.210909 0.629614 0
M  V30 12454 H 1217.03 -0.0270752 2.04582 0
M  V30 12455 H 1217.04 -1.91379 3.6033 0
M  V30 12456 H 1215.71 -0.859798 4.06916 0
M  V30 12457 H 1214.29 -2.29876 2.93618 0
M  V30 12458 N 1216.48 -1.54033 -0.333429 0
M  V30 12459 C 1217.44 -1.82021 -1.39288 0
M  V30 12460 C 1218.44 -0.691623 -1.45166 0
M  V30 12461 O 1219.63 -0.959925 -1.45365 0
M  V30 12462 C 1216.76 -1.97136 -2.78119 0
M  V30 12463 H 1217.95 -2.76671 -1.1573 0
M  V30 12464 H 1215.51 -1.45599 -0.568376 0
M  V30 12465 H 1216.24 -1.04663 -3.06946 0
M  V30 12466 H 1216.03 -2.79251 -2.75247 0
M  V30 12467 H 1217.52 -2.20271 -3.54782 0
M  V30 12468 N 1217.95 0.594978 -1.45938 0
M  V30 12469 C 1219.37 0.917069 -1.30622 0
M  V30 12470 C 1219.57 1.99702 -0.268554 0
M  V30 12471 O 1218.63 2.50293 0.333146 0
M  V30 12472 C 1219.94 1.34604 -2.68891 0
M  V30 12473 C 1221.49 1.45957 -2.76886 0
M  V30 12474 C 1221.96 1.92225 -4.15708 0
M  V30 12475 N 1223.45 1.99439 -4.18065 0
M  V30 12476 C 1224.19 2.36488 -5.22361 0
M  V30 12477 N 1223.68 2.72416 -6.36994 0
M  V30 12478 N 1225.48 2.36936 -5.09723 0
M  V30 12479 H 1217.63 -0.118625 -2.12068 0
M  V30 12480 H 1219.89 0.00959453 -0.947951 0
M  V30 12481 H 1219.6 0.626605 -3.46073 0
M  V30 12482 H 1219.47 2.31006 -2.98188 0
M  V30 12483 H 1221.86 2.16989 -1.99999 0
M  V30 12484 H 1221.94 0.47838 -2.51287 0
M  V30 12485 H 1221.58 1.21775 -4.93085 0
M  V30 12486 H 1221.51 2.9128 -4.38707 0
M  V30 12487 H 1224 1.74212 -3.35349 0
M  V30 12488 H 1224.32 2.99604 -7.1236 0
M  V30 12489 H 1222.66 2.70083 -6.40375 0
M  V30 12490 H 1225.85 2.08282 -4.19209 0
M  V30 12491 H 1226.03 2.65483 -5.9112 0
M  V30 12492 N 1219.43 1.33438 0.838571 0
M  V30 12493 C 1220.37 1.18055 1.9529 0
M  V30 12494 C 1221.34 0.075958 1.62422 0
M  V30 12495 O 1222.53 0.23825 1.86988 0
M  V30 12496 C 1219.65 0.810795 3.28852 0
M  V30 12497 C 1218.7 1.92293 3.80691 0
M  V30 12498 S 1219.53 3.53395 4.02334 0
M  V30 12499 C 1220.69 3.18426 5.38846 0
M  V30 12500 H 1220.92 2.12384 2.08039 0
M  V30 12501 H 1218.46 1.18284 0.992385 0
M  V30 12502 H 1220.41 0.604235 4.06029 0
M  V30 12503 H 1219.07 -0.113894 3.13893 0
M  V30 12504 H 1218.27 1.61758 4.77337 0
M  V30 12505 H 1217.87 2.08617 3.10411 0
M  V30 12506 H 1220.16 2.6927 6.21691 0
M  V30 12507 H 1221.1 4.14153 5.74354 0
M  V30 12508 H 1221.51 2.55016 5.03614 0
M  V30 12509 N 1220.91 -1.05686 1.16912 0
M  V30 12510 C 1222.16 -1.78862 0.955839 0
M  V30 12511 C 1222.49 -1.87257 -0.514645 0
M  V30 12512 O 1221.76 -1.36869 -1.38193 0
M  V30 12513 C 1222.05 -3.23021 1.59152 0
M  V30 12514 C 1221.9 -3.22669 3.13376 0
M  V30 12515 C 1223.22 -4.2073 1.29128 0
M  V30 12516 H 1220.34 -0.64931 0.348663 0
M  V30 12517 H 1222.98 -1.23561 1.44335 0
M  V30 12518 H 1221.13 -3.70243 1.17697 0
M  V30 12519 H 1222.8 -2.83562 3.63855 0
M  V30 12520 H 1221.05 -2.61149 3.46386 0
M  V30 12521 H 1221.72 -4.24394 3.52979 0
M  V30 12522 H 1224.19 -3.8198 1.65017 0
M  V30 12523 H 1223.07 -5.19851 1.76198 0
M  V30 12524 H 1223.33 -4.41595 0.21119 0
M  V30 12525 N 1222.39 -0.968567 -1.24324 0
M  V30 12526 C 1223.62 -0.648568 -1.96472 0
M  V30 12527 C 1224.03 0.782168 -1.71836 0
M  V30 12528 O 1223.39 1.5249 -1.00265 0
M  V30 12529 C 1223.44 -0.91482 -3.49733 0
M  V30 12530 O 1223.16 -2.28931 -3.73527 0
M  V30 12531 C 1224.66 -0.609131 -4.39095 0
M  V30 12532 H 1221.88 -0.241921 -0.625872 0
M  V30 12533 H 1224.43 -1.29673 -1.5813 0
M  V30 12534 H 1222.58 -0.31285 -3.86135 0
M  V30 12535 H 1222.99 -2.36998 -4.67902 0
M  V30 12536 H 1224.47 -0.845875 -5.4548 0
M  V30 12537 H 1224.95 0.456625 -4.3682 0
M  V30 12538 H 1225.55 -1.19105 -4.08282 0
M  V30 12539 N 1223.87 1.39211 -0.738786 0
M  V30 12540 C 1225.09 2.04732 -0.298751 0
M  V30 12541 C 1225.51 1.55706 1.06776 0
M  V30 12542 O 1224.87 0.723605 1.67542 0
M  V30 12543 C 1224.92 3.60288 -0.29574 0
M  V30 12544 O 1224.64 4.07511 -1.60831 0
M  V30 12545 C 1226.14 4.43011 0.159994 0
M  V30 12546 H 1223.36 0.658296 -0.129952 0
M  V30 12547 H 1225.9 1.78186 -1.0035 0
M  V30 12548 H 1224.06 3.85722 0.360146 0
M  V30 12549 H 1224.47 5.01858 -1.52443 0
M  V30 12550 H 1225.95 5.51889 0.110941 0
M  V30 12551 H 1226.42 4.22325 1.20573 0
M  V30 12552 H 1227.03 4.22734 -0.466467 0
M  V30 12553 N 1225.34 0.486708 1.49896 0
M  V30 12554 C 1226.59 -0.0629451 2.02702 0
M  V30 12555 C 1226.92 -1.37956 1.36681 0
M  V30 12556 O 1226.2 -1.88025 0.497678 0
M  V30 12557 C 1226.48 -0.230461 3.59362 0
M  V30 12558 C 1226.33 1.10828 4.35933 0
M  V30 12559 C 1227.65 -0.977785 4.29101 0
M  V30 12560 H 1224.77 -0.0214017 0.736689 0
M  V30 12561 H 1227.41 0.635339 1.79063 0
M  V30 12562 H 1225.56 -0.825222 3.79634 0
M  V30 12563 H 1227.24 1.74082 4.27192 0
M  V30 12564 H 1225.48 1.7011 3.99055 0
M  V30 12565 H 1226.15 0.944532 5.43859 0
M  V30 12566 H 1228.63 -0.473505 4.13397 0
M  V30 12567 H 1227.5 -1.06382 5.38492 0
M  V30 12568 H 1227.76 -2.01813 3.9335 0
M  V30 12569 N 1226.82 -1.56058 0.219941 0
M  V30 12570 C 1228.23 -1.84462 -0.288203 0
M  V30 12571 C 1228.59 -1.14128 -1.59591 0
M  V30 12572 O 1227.71 -0.410411 -2.12473 0
M  V30 12573 C 1228.31 -3.34634 -0.529689 0
M  V30 12574 C 1226.86 -3.63361 -0.982145 0
M  V30 12575 C 1226.01 -2.77265 -0.0443292 0
M  V30 12576 H 1228.96 -1.52387 0.44317 0
M  V30 12577 H 1228.98 -3.54752 -1.3759 0
M  V30 12578 H 1228.5 -3.85796 0.422243 0
M  V30 12579 H 1226.6 -3.17653 -1.94749 0
M  V30 12580 H 1226.71 -4.71361 -0.857668 0
M  V30 12581 H 1225.07 -2.48672 -0.550825 0
M  V30 12582 H 1225.86 -3.31225 0.902491 0
M  V30 12583 N 1228.3 0.053464 -1.57509 0
M  V30 12584 C 1229.25 1.06886 -2.01394 0
M  V30 12585 C 1230.24 1.33441 -0.899013 0
M  V30 12586 O 1231.43 1.33435 -1.16293 0
M  V30 12587 C 1228.56 2.37731 -2.47667 0
M  V30 12588 C 1227.64 2.14371 -3.65931 0
M  V30 12589 N 1228.03 1.60994 -4.79494 0
M  V30 12590 C 1226.33 2.44766 -3.72835 0
M  V30 12591 C 1227.03 1.52875 -5.61252 0
M  V30 12592 N 1226.01 1.99576 -5.05638 0
M  V30 12593 H 1229.81 0.649779 -2.86627 0
M  V30 12594 H 1227.32 0.260224 -1.60302 0
M  V30 12595 H 1229.32 3.11256 -2.77354 0
M  V30 12596 H 1227.98 2.80339 -1.63829 0
M  V30 12597 H 1228.99 1.296 -5.01422 0
M  V30 12598 H 1225.67 2.90616 -2.99748 0
M  V30 12599 H 1227.06 1.12303 -6.62448 0
M  V30 12600 N 1229.78 1.54207 0.325255 0
M  V30 12601 C 1231.03 1.72587 1.06497 0
M  V30 12602 C 1231.36 0.497228 1.87727 0
M  V30 12603 O 1230.63 -0.505804 1.87808 0
M  V30 12604 C 1230.92 3.00046 1.99109 0
M  V30 12605 C 1230.77 4.33158 1.21221 0
M  V30 12606 C 1232.09 3.23251 2.98658 0
M  V30 12607 H 1229.21 0.627974 0.38577 0
M  V30 12608 H 1231.85 1.869 0.34179 0
M  V30 12609 H 1230 2.87973 2.60775 0
M  V30 12610 H 1231.67 4.57111 0.620289 0
M  V30 12611 H 1229.91 4.30739 0.514462 0
M  V30 12612 H 1230.59 5.18558 1.89214 0
M  V30 12613 H 1233.06 3.34774 2.47114 0
M  V30 12614 H 1231.94 4.13796 3.60645 0
M  V30 12615 H 1232.2 2.40401 3.71026 0
M  V30 12616 N 1231.26 -0.58723 1.46251 0
M  V30 12617 C 1232.5 -1.3456 1.51327 0
M  V30 12618 C 1232.83 -1.93815 0.163146 0
M  V30 12619 O 1232.09 -1.76723 -0.840677 0
M  V30 12620 C 1232.39 -2.49776 2.5563 0
M  V30 12621 C 1232.05 -2.08543 3.99776 0
M  V30 12622 C 1230.71 -1.97013 4.39021 0
M  V30 12623 C 1233.07 -1.76669 4.90344 0
M  V30 12624 C 1230.39 -1.5186 5.66706 0
M  V30 12625 C 1232.75 -1.32996 6.18462 0
M  V30 12626 C 1231.41 -1.20039 6.56618 0
M  V30 12627 H 1230.68 -0.492391 0.553744 0
M  V30 12628 H 1233.33 -0.661715 1.79704 0
M  V30 12629 H 1231.63 -3.23592 2.20897 0
M  V30 12630 H 1233.33 -3.07995 2.56788 0
M  V30 12631 H 1229.92 -2.18451 3.68751 0
M  V30 12632 H 1234.1 -1.84465 4.60746 0
M  V30 12633 H 1229.36 -1.40467 5.95045 0
M  V30 12634 H 1233.53 -1.07385 6.88071 0
M  V30 12635 H 1231.16 -0.848268 7.55452 0
M  V30 12636 N 1232.74 -1.33881 -0.831482 0
M  V30 12637 C 1233.96 -1.28961 -1.62431 0
M  V30 12638 C 1234.39 0.135249 -1.87613 0
M  V30 12639 O 1233.74 1.09426 -1.44553 0
M  V30 12640 C 1233.79 -2.07767 -2.94729 0
M  V30 12641 O 1232.9 -1.44133 -3.86393 0
M  V30 12642 H 1232.24 -0.443313 -0.494337 0
M  V30 12643 H 1234.77 -1.76555 -1.0339 0
M  V30 12644 H 1234.78 -2.18806 -3.44366 0
M  V30 12645 H 1233.45 -3.11367 -2.75724 0
M  V30 12646 H 1232.03 -1.41784 -3.44894 0
M  V30 12647 N 1234.21 1.05064 -1.1747 0
M  V30 12648 C 1235.16 2.12841 -0.89259 0
M  V30 12649 C 1236.13 1.65288 0.16402 0
M  V30 12650 O 1237.32 1.90782 0.026537 0
M  V30 12651 C 1234.46 3.42614 -0.41344 0
M  V30 12652 C 1233.57 4.03835 -1.53432 0
M  V30 12653 C 1232.7 5.21531 -1.00891 0
M  V30 12654 C 1231.74 5.74761 -2.10515 0
M  V30 12655 N 1230.88 6.83756 -1.59442 0
M  V30 12656 H 1235.72 2.36312 -1.81551 0
M  V30 12657 H 1233.26 1.15929 -0.905483 0
M  V30 12658 H 1235.21 4.17035 -0.117181 0
M  V30 12659 H 1233.84 3.19323 0.472517 0
M  V30 12660 H 1232.9 3.2684 -1.94627 0
M  V30 12661 H 1234.21 4.3938 -2.36108 0
M  V30 12662 H 1233.36 6.03027 -0.666575 0
M  V30 12663 H 1232.1 4.87464 -0.151608 0
M  V30 12664 H 1231.11 4.91893 -2.45604 0
M  V30 12665 H 1232.33 6.10875 -2.96663 0
M  V30 12666 H 1230.28 6.51584 -0.759849 0
M  V30 12667 H 1230.19 7.18311 -2.35724 0
M  V30 12668 H 1231.46 7.68901 -1.28105 0
M  V30 12669 N 1235.69 0.975146 1.23809 0
M  V30 12670 C 1236.62 0.530389 2.27396 0
M  V30 12671 C 1237.6 -0.433763 1.64476 0
M  V30 12672 O 1238.79 -0.32827 1.91405 0
M  V30 12673 C 1235.92 -0.173066 3.46869 0
M  V30 12674 C 1234.87 0.707844 4.22106 0
M  V30 12675 C 1234.2 -0.127527 5.34548 0
M  V30 12676 C 1235.5 1.99609 4.82652 0
M  V30 12677 H 1237.19 1.39622 2.64851 0
M  V30 12678 H 1234.74 0.672802 1.27316 0
M  V30 12679 H 1236.69 -0.495481 4.18477 0
M  V30 12680 H 1235.41 -1.0733 3.0846 0
M  V30 12681 H 1234.07 1.01364 3.52308 0
M  V30 12682 H 1233.72 -1.02814 4.9238 0
M  V30 12683 H 1233.42 0.458728 5.85807 0
M  V30 12684 H 1234.95 -0.444443 6.0898 0
M  V30 12685 H 1236.36 1.73878 5.46296 0
M  V30 12686 H 1234.76 2.52969 5.44175 0
M  V30 12687 H 1235.83 2.68629 4.03691 0
M  V30 12688 N 1237.17 -1.38817 0.746158 0
M  V30 12689 C 1238.1 -2.33144 0.128836 0
M  V30 12690 C 1239.08 -1.54487 -0.711873 0
M  V30 12691 O 1240.27 -1.82836 -0.654577 0
M  V30 12692 C 1237.4 -3.38639 -0.770772 0
M  V30 12693 C 1236.35 -4.27987 -0.0333669 0
M  V30 12694 C 1235.68 -5.24274 -1.05073 0
M  V30 12695 C 1236.98 -5.09915 1.13066 0
M  V30 12696 H 1238.67 -2.85019 0.916778 0
M  V30 12697 H 1236.22 -1.37039 0.442306 0
M  V30 12698 H 1238.17 -4.03587 -1.21225 0
M  V30 12699 H 1236.89 -2.8523 -1.59095 0
M  V30 12700 H 1235.55 -3.64534 0.388612 0
M  V30 12701 H 1235.2 -4.67156 -1.86478 0
M  V30 12702 H 1234.9 -5.84906 -0.562037 0
M  V30 12703 H 1236.42 -5.92099 -1.49169 0
M  V30 12704 H 1237.84 -5.68145 0.767084 0
M  V30 12705 H 1236.23 -5.79744 1.54972 0
M  V30 12706 H 1237.3 -4.4409 1.94709 0
M  V30 12707 N 1238.65 -0.49465 -1.49636 0
M  V30 12708 C 1239.56 0.291881 -2.32777 0
M  V30 12709 C 1240.57 0.973468 -1.44221 0
M  V30 12710 O 1241.75 0.956252 -1.77251 0
M  V30 12711 C 1238.81 1.34609 -3.19502 0
M  V30 12712 C 1237.88 0.678611 -4.23903 0
M  V30 12713 C 1237.11 1.68259 -5.06483 0
M  V30 12714 O 1237.33 2.91176 -4.90482 0
M  V30 12715 O 1236.27 1.24141 -5.88959 0
M  V30 12716 H 1240.09 -0.388459 -3.01205 0
M  V30 12717 H 1237.68 -0.256086 -1.47189 0
M  V30 12718 H 1239.56 1.95617 -3.73245 0
M  V30 12719 H 1238.23 2.00947 -2.53775 0
M  V30 12720 H 1237.14 0.0289541 -3.74089 0
M  V30 12721 H 1238.47 0.0577817 -4.92166 0
M  V30 12722 N 1240.13 1.55939 -0.228214 0
M  V30 12723 C 1241.06 2.16566 0.719321 0
M  V30 12724 C 1242.04 1.11204 1.18627 0
M  V30 12725 O 1243.22 1.39495 1.2678 0
M  V30 12726 C 1240.35 2.75132 1.97536 0
M  V30 12727 C 1239.39 3.93381 1.64783 0
M  V30 12728 S 1240.23 5.29982 0.76678 0
M  V30 12729 C 1241.38 5.91989 2.03223 0
M  V30 12730 H 1241.62 2.96599 0.204035 0
M  V30 12731 H 1239.15 1.54395 -0.0128406 0
M  V30 12732 H 1241.11 3.09512 2.69652 0
M  V30 12733 H 1239.77 1.95079 2.46176 0
M  V30 12734 H 1238.96 4.32884 2.58122 0
M  V30 12735 H 1238.56 3.60181 1.00724 0
M  V30 12736 H 1240.85 6.08368 2.98152 0
M  V30 12737 H 1241.8 6.87858 1.68099 0
M  V30 12738 H 1242.21 5.20883 2.1758 0
M  V30 12739 N 1241.6 -0.0451101 1.57535 0
M  V30 12740 C 1242.53 -1.05046 2.08537 0
M  V30 12741 C 1243.52 -1.3872 0.984418 0
M  V30 12742 O 1244.7 -1.47884 1.25873 0
M  V30 12743 C 1241.83 -2.3562 2.55148 0
M  V30 12744 C 1240.78 -2.16231 3.69362 0
M  V30 12745 C 1240.11 -3.52423 4.02122 0
M  V30 12746 C 1241.41 -1.56159 4.98409 0
M  V30 12747 H 1243.1 -0.625965 2.92783 0
M  V30 12748 H 1240.65 -0.299657 1.40848 0
M  V30 12749 H 1242.6 -3.06266 2.89446 0
M  V30 12750 H 1241.33 -2.80099 1.67964 0
M  V30 12751 H 1239.99 -1.4802 3.35389 0
M  V30 12752 H 1239.63 -3.94522 3.12028 0
M  V30 12753 H 1239.33 -3.4028 4.79044 0
M  V30 12754 H 1240.86 -4.24458 4.38939 0
M  V30 12755 H 1242.27 -2.16703 5.30766 0
M  V30 12756 H 1240.67 -1.54638 5.79834 0
M  V30 12757 H 1241.74 -0.525698 4.82042 0
M  V30 12758 N 1243.08 -1.54377 -0.317073 0
M  V30 12759 C 1244.31 -1.77184 -1.07798 0
M  V30 12760 C 1244.73 -0.52204 -1.80711 0
M  V30 12761 O 1244.09 0.52672 -1.7348 0
M  V30 12762 C 1244.14 -2.96887 -2.04671 0
M  V30 12763 O 1243.24 -2.68887 -3.12688 0
M  V30 12764 H 1242.58 -0.586937 -0.310485 0
M  V30 12765 H 1245.11 -2.01419 -0.35939 0
M  V30 12766 H 1245.12 -3.24414 -2.47426 0
M  V30 12767 H 1243.8 -3.87518 -1.51005 0
M  V30 12768 H 1242.38 -2.52329 -2.74562 0
M  V30 12769 N 1244.56 0.579466 -1.4656 0
M  V30 12770 C 1245.81 1.33954 -1.52264 0
M  V30 12771 C 1246.14 1.93409 -0.175089 0
M  V30 12772 O 1245.41 1.76654 0.81385 0
M  V30 12773 C 1245.7 2.46645 -2.6237 0
M  V30 12774 C 1245.55 1.92204 -4.06667 0
M  V30 12775 C 1246.87 3.48676 -2.68538 0
M  V30 12776 H 1243.99 0.485697 -0.554317 0
M  V30 12777 H 1246.63 0.650639 -1.78512 0
M  V30 12778 H 1244.78 3.0541 -2.40119 0
M  V30 12779 H 1246.45 1.37871 -4.40215 0
M  V30 12780 H 1244.7 1.23012 -4.15993 0
M  V30 12781 H 1245.37 2.73566 -4.79443 0
M  V30 12782 H 1247.84 2.99798 -2.88549 0
M  V30 12783 H 1246.72 4.24981 -3.47394 0
M  V30 12784 H 1246.98 4.06112 -1.74716 0
M  V30 12785 N 1246.04 1.3432 0.824371 0
M  V30 12786 C 1247.26 1.2982 1.61745 0
M  V30 12787 C 1247.69 -0.125298 1.87682 0
M  V30 12788 O 1247.05 -1.08658 1.45131 0
M  V30 12789 C 1247.09 2.09327 2.93623 0
M  V30 12790 O 1246.2 1.4618 3.85623 0
M  V30 12791 H 1245.54 0.445929 0.491979 0
M  V30 12792 H 1248.07 1.77101 1.02452 0
M  V30 12793 H 1248.08 2.20629 3.43201 0
M  V30 12794 H 1246.75 3.12825 2.74069 0
M  V30 12795 H 1245.33 1.43611 3.44137 0
M  V30 12796 N 1247.52 -1.0444 1.18026 0
M  V30 12797 C 1248.74 -1.81772 0.998684 0
M  V30 12798 C 1249.17 -1.82682 -0.448225 0
M  V30 12799 O 1248.52 -1.24136 -1.32136 0
M  V30 12800 C 1248.57 -3.2542 1.55352 0
M  V30 12801 O 1247.68 -4.05103 0.772351 0
M  V30 12802 H 1247.02 -0.561731 0.354054 0
M  V30 12803 H 1249.55 -1.31557 1.56697 0
M  V30 12804 H 1249.56 -3.76206 1.57903 0
M  V30 12805 H 1248.23 -3.24073 2.60672 0
M  V30 12806 H 1246.81 -3.63798 0.818852 0
M  V30 12807 N 1248.99 -0.981699 -1.2329 0
M  V30 12808 C 1250.22 -0.669025 -1.96313 0
M  V30 12809 C 1250.64 0.757624 -1.72168 0
M  V30 12810 O 1250 1.51626 -0.993942 0
M  V30 12811 C 1250.05 -0.966875 -3.47396 0
M  V30 12812 O 1249.15 -0.0595933 -4.12357 0
M  V30 12813 H 1248.5 -0.251493 -0.61453 0
M  V30 12814 H 1251.03 -1.31564 -1.56691 0
M  V30 12815 H 1251.04 -0.904112 -3.97857 0
M  V30 12816 H 1249.71 -2.00651 -3.64296 0
M  V30 12817 H 1248.29 -0.176878 -3.7248 0
M  V30 12818 N 1250.47 1.3842 -0.753509 0
M  V30 12819 C 1251.7 2.04403 -0.320449 0
M  V30 12820 C 1252.12 1.5683 1.05118 0
M  V30 12821 O 1251.47 0.741335 1.66765 0
M  V30 12822 C 1251.52 3.59954 -0.333937 0
M  V30 12823 O 1251.24 4.05782 -1.65144 0
M  V30 12824 C 1252.75 4.43156 0.112997 0
M  V30 12825 H 1249.97 0.656881 -0.136927 0
M  V30 12826 H 1252.51 1.77112 -1.02234 0
M  V30 12827 H 1250.66 3.86083 0.319215 0
M  V30 12828 H 1251.08 5.00213 -1.57757 0
M  V30 12829 H 1252.55 5.51975 0.0523995 0
M  V30 12830 H 1253.03 4.23581 1.16087 0
M  V30 12831 H 1253.64 4.22216 -0.511278 0
M  V30 12832 N 1251.95 0.502579 1.49372 0
M  V30 12833 C 1252.9 -0.294292 2.26093 0
M  V30 12834 C 1253.88 -0.934147 1.31006 0
M  V30 12835 O 1255.08 -0.841486 1.55718 0
M  V30 12836 C 1252.21 -1.3572 3.15333 0
M  V30 12837 C 1251.29 -0.723506 4.17883 0
M  V30 12838 N 1251.68 0.174787 5.05498 0
M  V30 12839 C 1249.98 -0.983906 4.35012 0
M  V30 12840 C 1250.68 0.537673 5.7921 0
M  V30 12841 N 1249.66 -0.0947799 5.43517 0
M  V30 12842 H 1253.46 0.397202 2.91204 0
M  V30 12843 H 1250.97 0.31876 1.59241 0
M  V30 12844 H 1252.97 -1.94154 3.6893 0
M  V30 12845 H 1251.63 -2.05036 2.51775 0
M  V30 12846 H 1252.64 0.545699 5.15017 0
M  V30 12847 H 1249.32 -1.66969 3.82658 0
M  V30 12848 H 1250.71 1.27266 6.59737 0
M  V30 12849 N 1253.43 -1.55816 0.23648 0
M  V30 12850 C 1254.68 -1.98686 -0.391146 0
M  V30 12851 C 1255 -1.12443 -1.58703 0
M  V30 12852 O 1254.26 -0.172805 -1.94936 0
M  V30 12853 C 1254.56 -3.47039 -0.85434 0
M  V30 12854 C 1254.22 -4.50299 0.232651 0
M  V30 12855 C 1252.89 -4.78259 0.531218 0
M  V30 12856 C 1255.24 -5.1215 0.967027 0
M  V30 12857 C 1252.57 -5.65347 1.56842 0
M  V30 12858 C 1254.92 -6.00363 1.99367 0
M  V30 12859 C 1253.58 -6.2666 2.299 0
M  V30 12860 H 1252.85 -0.727045 -0.14313 0
M  V30 12861 H 1255.5 -1.88419 0.342125 0
M  V30 12862 H 1253.8 -3.54585 -1.66663 0
M  V30 12863 H 1255.5 -3.7759 -1.35005 0
M  V30 12864 H 1252.09 -4.28599 -0.0102014 0
M  V30 12865 H 1256.27 -4.90606 0.749609 0
M  V30 12866 H 1251.53 -5.83981 1.81043 0
M  V30 12867 H 1255.7 -6.47335 2.56769 0
M  V30 12868 H 1253.33 -6.93938 3.1041 0
M  V30 12869 N 1254.91 0.036755 -1.57557 0
M  V30 12870 C 1256.13 0.741086 -1.93172 0
M  V30 12871 C 1256.55 1.69303 -0.835589 0
M  V30 12872 O 1255.91 1.81523 0.1886 0
M  V30 12873 C 1255.96 1.50477 -3.28693 0
M  V30 12874 O 1255.68 0.591046 -4.34095 0
M  V30 12875 C 1257.18 2.30695 -3.78543 0
M  V30 12876 H 1254.4 0.208731 -0.637709 0
M  V30 12877 H 1256.94 -0.00342776 -2.045 0
M  V30 12878 H 1255.1 2.20123 -3.18786 0
M  V30 12879 H 1255.51 1.12579 -5.12276 0
M  V30 12880 H 1256.99 2.79685 -4.759 0
M  V30 12881 H 1257.46 3.11778 -3.0934 0
M  V30 12882 H 1258.07 1.66138 -3.91508 0
M  V30 12883 N 1256.39 1.54543 0.308881 0
M  V30 12884 C 1257.8 1.45581 0.654088 0
M  V30 12885 C 1258 0.640597 1.91046 0
M  V30 12886 O 1257.06 0.14518 2.52082 0
M  V30 12887 C 1258.37 2.89461 0.814422 0
M  V30 12888 C 1259.92 2.99455 0.910817 0
M  V30 12889 C 1260.39 4.44515 1.10321 0
M  V30 12890 N 1261.88 4.4819 1.1696 0
M  V30 12891 C 1262.62 5.57604 1.33661 0
M  V30 12892 N 1262.12 6.76957 1.47311 0
M  V30 12893 N 1263.91 5.45278 1.36487 0
M  V30 12894 H 1256.06 2.06019 -0.516699 0
M  V30 12895 H 1258.32 0.932729 -0.169471 0
M  V30 12896 H 1258.03 3.5168 -0.0377455 0
M  V30 12897 H 1257.9 3.36425 1.70582 0
M  V30 12898 H 1260.29 2.37355 1.75348 0
M  V30 12899 H 1260.37 2.558 -0.00443172 0
M  V30 12900 H 1260.01 5.07206 0.265346 0
M  V30 12901 H 1259.94 4.85793 2.03256 0
M  V30 12902 H 1262.44 3.62199 1.07796 0
M  V30 12903 H 1262.75 7.561 1.59788 0
M  V30 12904 H 1261.09 6.79837 1.44382 0
M  V30 12905 H 1264.28 4.50983 1.25429 0
M  V30 12906 H 1264.46 6.30599 1.4916 0
M  V30 12907 N 1257.86 -0.571685 1.46866 0
M  V30 12908 C 1258.8 -1.69502 1.52788 0
M  V30 12909 C 1259.77 -1.58071 0.381109 0
M  V30 12910 O 1260.96 -1.79132 0.586844 0
M  V30 12911 C 1258.09 -3.07642 1.41682 0
M  V30 12912 C 1257.13 -3.37562 2.6068 0
M  V30 12913 S 1257.96 -3.28413 4.22971 0
M  V30 12914 C 1259.12 -4.69073 4.14393 0
M  V30 12915 H 1259.35 -1.64221 2.47828 0
M  V30 12916 H 1256.89 -0.751334 1.34886 0
M  V30 12917 H 1258.84 -3.8733 1.35962 0
M  V30 12918 H 1257.51 -3.10403 0.480517 0
M  V30 12919 H 1256.7 -4.38233 2.48933 0
M  V30 12920 H 1256.3 -2.65464 2.63448 0
M  V30 12921 H 1258.59 -5.59706 3.81754 0
M  V30 12922 H 1259.54 -4.85877 5.15101 0
M  V30 12923 H 1259.94 -4.4644 3.45473 0
M  V30 12924 N 1259.34 -1.34755 -0.817236 0
M  V30 12925 C 1260.76 -1.14561 -1.11121 0
M  V30 12926 C 1260.96 0.0490776 -2.0144 0
M  V30 12927 O 1260.01 0.722897 -2.41931 0
M  V30 12928 C 1261.33 -2.44356 -1.75244 0
M  V30 12929 C 1262.87 -2.50465 -1.87713 0
M  V30 12930 C 1263.35 -3.80276 -2.55253 0
M  V30 12931 N 1264.84 -3.81468 -2.62747 0
M  V30 12932 C 1265.58 -4.78634 -3.15749 0
M  V30 12933 N 1265.07 -5.86184 -3.6927 0
M  V30 12934 N 1266.86 -4.66083 -3.14203 0
M  V30 12935 H 1259.02 -2.11293 -0.2166 0
M  V30 12936 H 1261.28 -0.934629 -0.158661 0
M  V30 12937 H 1260.98 -3.31899 -1.16344 0
M  V30 12938 H 1260.86 -2.58117 -2.75055 0
M  V30 12939 H 1263.25 -1.63358 -2.45761 0
M  V30 12940 H 1263.33 -2.40627 -0.867887 0
M  V30 12941 H 1262.97 -4.67776 -1.97858 0
M  V30 12942 H 1262.9 -3.87399 -3.56693 0
M  V30 12943 H 1265.39 -3.03753 -2.24817 0
M  V30 12944 H 1265.7 -6.56332 -4.0798 0
M  V30 12945 H 1264.05 -5.8989 -3.67498 0
M  V30 12946 H 1267.24 -3.81206 -2.7166 0
M  V30 12947 H 1267.41 -5.41973 -3.55203 0
M  V30 12948 N 1260.82 1.03812 -1.18578 0
M  V30 12949 C 1262.24 1.29271 -0.936011 0
M  V30 12950 C 1262.44 1.97551 0.396965 0
M  V30 12951 O 1261.49 2.25769 1.13069 0
M  V30 12952 C 1262.8 2.1489 -2.1034 0
M  V30 12953 C 1264.35 2.28228 -2.14198 0
M  V30 12954 C 1264.83 3.17214 -3.30362 0
M  V30 12955 N 1266.32 3.24802 -3.30239 0
M  V30 12956 C 1267.05 3.9382 -4.16765 0
M  V30 12957 N 1266.55 4.65147 -5.1343 0
M  V30 12958 N 1268.34 3.90125 -4.04671 0
M  V30 12959 H 1260.49 0.579011 -2.04356 0
M  V30 12960 H 1262.76 0.318021 -0.893066 0
M  V30 12961 H 1262.46 1.72029 -3.06755 0
M  V30 12962 H 1262.34 3.15576 -2.06619 0
M  V30 12963 H 1264.72 2.70324 -1.18359 0
M  V30 12964 H 1264.8 1.27124 -2.21976 0
M  V30 12965 H 1264.45 2.75829 -4.26475 0
M  V30 12966 H 1264.38 4.18356 -3.19821 0
M  V30 12967 H 1266.87 2.73994 -2.60261 0
M  V30 12968 H 1267.18 5.15414 -5.7582 0
M  V30 12969 H 1265.53 4.64043 -5.17387 0
M  V30 12970 H 1268.72 3.33536 -3.28438 0
M  V30 12971 H 1268.89 4.43641 -4.7232 0
M  V30 12972 N 1262.3 0.988223 1.22768 0
M  V30 12973 C 1263.71 0.69816 1.4352 0
M  V30 12974 C 1263.91 -0.732872 1.877 0
M  V30 12975 O 1262.97 -1.50436 2.02793 0
M  V30 12976 C 1264.28 1.69975 2.4805 0
M  V30 12977 C 1265.83 1.71467 2.61855 0
M  V30 12978 C 1266.31 2.70477 3.69603 0
M  V30 12979 N 1267.8 2.69043 3.77055 0
M  V30 12980 C 1268.53 3.42319 4.60006 0
M  V30 12981 N 1268.03 4.2518 5.46986 0
M  V30 12982 N 1269.82 3.31047 4.54274 0
M  V30 12983 H 1261.97 1.91251 0.923948 0
M  V30 12984 H 1264.23 0.82455 0.467783 0
M  V30 12985 H 1263.94 2.72354 2.22523 0
M  V30 12986 H 1263.81 1.48885 3.46573 0
M  V30 12987 H 1266.2 0.697889 2.86729 0
M  V30 12988 H 1266.28 1.96625 1.63622 0
M  V30 12989 H 1265.93 3.72302 3.45476 0
M  V30 12990 H 1265.86 2.42591 4.67394 0
M  V30 12991 H 1268.35 2.08914 3.14902 0
M  V30 12992 H 1268.66 4.77929 6.07292 0
M  V30 12993 H 1267.01 4.29268 5.46584 0
M  V30 12994 H 1270.2 2.65758 3.85345 0
M  V30 12995 H 1270.37 3.88413 5.1869 0
M  V30 12996 N 1263.78 -1.38018 0.760839 0
M  V30 12997 C 1264.71 -2.32995 0.153557 0
M  V30 12998 C 1265.69 -1.55234 -0.695448 0
M  V30 12999 O 1266.87 -1.8352 -0.635148 0
M  V30 13000 C 1264 -3.39437 -0.734811 0
M  V30 13001 C 1262.96 -4.27998 0.0120287 0
M  V30 13002 C 1262.28 -5.25359 -0.995067 0
M  V30 13003 C 1263.58 -5.08687 1.18468 0
M  V30 13004 H 1265.28 -2.8403 0.946956 0
M  V30 13005 H 1262.82 -1.36562 0.456816 0
M  V30 13006 H 1264.77 -4.0485 -1.16938 0
M  V30 13007 H 1263.5 -2.86901 -1.56061 0
M  V30 13008 H 1262.16 -3.64102 0.427254 0
M  V30 13009 H 1261.81 -4.69108 -1.81512 0
M  V30 13010 H 1261.51 -5.85469 -0.499969 0
M  V30 13011 H 1263.03 -5.93648 -1.4288 0
M  V30 13012 H 1264.44 -5.67299 0.8273 0
M  V30 13013 H 1262.84 -5.78068 1.61112 0
M  V30 13014 H 1263.91 -4.42 1.99409 0
M  V30 13015 N 1265.25 -0.510493 -1.49103 0
M  V30 13016 C 1266.19 0.309697 -2.26089 0
M  V30 13017 C 1267.16 0.962061 -1.31084 0
M  V30 13018 O 1268.35 0.990296 -1.60391 0
M  V30 13019 C 1265.48 1.43693 -3.06708 0
M  V30 13020 C 1264.52 0.897978 -4.1694 0
M  V30 13021 S 1265.35 -0.218781 -5.35053 0
M  V30 13022 C 1266.51 0.911396 -6.19229 0
M  V30 13023 H 1266.74 -0.343702 -2.95307 0
M  V30 13024 H 1264.28 -0.295944 -1.51537 0
M  V30 13025 H 1266.23 2.08277 -3.53739 0
M  V30 13026 H 1264.9 2.06198 -2.36941 0
M  V30 13027 H 1264.09 1.74303 -4.729 0
M  V30 13028 H 1263.69 0.329192 -3.72548 0
M  V30 13029 H 1265.98 1.8145 -6.5275 0
M  V30 13030 H 1266.93 0.390201 -7.07024 0
M  V30 13031 H 1267.33 1.18301 -5.51965 0
M  V30 13032 N 1266.73 1.55688 -0.24474 0
M  V30 13033 C 1267.69 2.20014 0.642382 0
M  V30 13034 C 1268.69 1.16877 1.10437 0
M  V30 13035 O 1269.88 1.41972 1.00943 0
M  V30 13036 C 1267.02 2.84198 1.88267 0
M  V30 13037 H 1268.21 2.9979 0.0811937 0
M  V30 13038 H 1265.76 1.56299 0.00480917 0
M  V30 13039 H 1266.5 2.08354 2.48514 0
M  V30 13040 H 1266.28 3.59747 1.55963 0
M  V30 13041 H 1267.77 3.33434 2.5142 0
M  V30 13042 N 1268.21 -0.0283989 1.57574 0
M  V30 13043 C 1269.46 -0.718121 1.88483 0
M  V30 13044 C 1269.77 -1.76485 0.843345 0
M  V30 13045 O 1270.98 -2.50721 1.04169 0
M  V30 13046 C 1269.43 -1.32832 3.3449 0
M  V30 13047 C 1269.04 -0.317905 4.46871 0
M  V30 13048 C 1270.79 -1.99788 3.74546 0
M  V30 13049 C 1268.69 -0.936489 5.83938 0
M  V30 13050 H 1267.62 -0.271969 0.703242 0
M  V30 13051 H 1270.27 0.0274862 1.83479 0
M  V30 13052 H 1268.66 -2.12366 3.34241 0
M  V30 13053 H 1269.83 0.450767 4.5859 0
M  V30 13054 H 1268.14 0.249605 4.15651 0
M  V30 13055 H 1270.74 -2.46923 4.74271 0
M  V30 13056 H 1271.08 -2.81633 3.06575 0
M  V30 13057 H 1271.62 -1.27029 3.76973 0
M  V30 13058 H 1268.36 -0.15744 6.55311 0
M  V30 13059 H 1267.88 -1.67499 5.75938 0
M  V30 13060 H 1269.56 -1.44363 6.30689 0
M  V30 13061 N 1269.69 -1.54705 -0.300681 0
M  V30 13062 C 1270.65 -1.84934 -1.35395 0
M  V30 13063 C 1271.65 -0.72226 -1.43666 0
M  V30 13064 O 1272.84 -0.990543 -1.43296 0
M  V30 13065 C 1269.97 -2.02991 -2.73875 0
M  V30 13066 H 1271.17 -2.79063 -1.09835 0
M  V30 13067 H 1268.72 -1.46772 -0.537365 0
M  V30 13068 H 1269.45 -1.11151 -3.04657 0
M  V30 13069 H 1269.24 -2.85027 -2.69262 0
M  V30 13070 H 1270.73 -2.27747 -3.5003 0
M  V30 13071 N 1271.17 0.563888 -1.47167 0
M  V30 13072 C 1272.44 1.32454 -1.43928 0
M  V30 13073 C 1272.82 2.10683 -0.13267 0
M  V30 13074 O 1272.17 2.1063 0.885845 0
M  V30 13075 C 1272.38 2.2347 -2.68071 0
M  V30 13076 C 1273.73 2.84702 -3.15008 0
M  V30 13077 O 1274.75 2.33775 -2.68752 0
M  V30 13078 O 1273.61 3.77251 -3.95404 0
M  V30 13079 H 1270.71 0.596074 -0.573258 0
M  V30 13080 H 1273.25 0.583345 -1.59359 0
M  V30 13081 H 1272.02 1.6522 -3.54708 0
M  V30 13082 H 1271.65 3.04897 -2.55193 0
M  V30 13083 N 1272.64 1.35187 0.810078 0
M  V30 13084 C 1273.55 1.29926 1.95337 0
M  V30 13085 C 1274.57 0.204748 1.72791 0
M  V30 13086 O 1275.75 0.433507 1.96679 0
M  V30 13087 C 1272.81 1.06736 3.29861 0
M  V30 13088 C 1271.87 2.25466 3.65326 0
M  V30 13089 C 1271.11 2.03373 4.93432 0
M  V30 13090 O 1271.33 0.998419 5.61594 0
M  V30 13091 O 1270.26 2.90648 5.27075 0
M  V30 13092 H 1274.09 2.26137 2.02721 0
M  V30 13093 H 1271.67 1.15523 0.947354 0
M  V30 13094 H 1273.56 0.956367 4.10404 0
M  V30 13095 H 1272.23 0.135735 3.23415 0
M  V30 13096 H 1271.14 2.42129 2.85175 0
M  V30 13097 H 1272.47 3.17063 3.76473 0
M  V30 13098 N 1274.12 -1.03182 1.19127 0
M  V30 13099 C 1275.37 -1.76794 0.993563 0
M  V30 13100 C 1275.7 -1.88306 -0.474809 0
M  V30 13101 O 1274.98 -1.39769 -1.35258 0
M  V30 13102 C 1275.26 -3.19573 1.65968 0
M  V30 13103 C 1275.11 -3.1595 3.2015 0
M  V30 13104 C 1276.43 -4.17897 1.38023 0
M  V30 13105 H 1273.55 -0.641768 0.362357 0
M  V30 13106 H 1276.19 -1.20472 1.46924 0
M  V30 13107 H 1274.34 -3.67663 1.25524 0
M  V30 13108 H 1276.01 -2.7578 3.69788 0
M  V30 13109 H 1274.26 -2.53743 3.51848 0
M  V30 13110 H 1274.93 -4.16811 3.61901 0
M  V30 13111 H 1277.4 -3.78394 1.73082 0
M  V30 13112 H 1276.28 -5.15997 1.87186 0
M  V30 13113 H 1276.54 -4.41048 0.304812 0
M  V30 13114 N 1275.6 -0.99472 -1.22242 0
M  V30 13115 C 1276.51 -0.555502 -2.27928 0
M  V30 13116 C 1277.53 0.396584 -1.6942 0
M  V30 13117 O 1278.7 0.262965 -1.99676 0
M  V30 13118 C 1275.77 0.121121 -3.46488 0
M  V30 13119 C 1274.83 -0.874155 -4.20306 0
M  V30 13120 C 1274.06 -0.229726 -5.33205 0
M  V30 13121 O 1274.28 0.975935 -5.61989 0
M  V30 13122 O 1273.22 -0.935501 -5.94586 0
M  V30 13123 H 1277.04 -1.4348 -2.6767 0
M  V30 13124 H 1274.63 -0.763061 -1.28444 0
M  V30 13125 H 1276.51 0.500043 -4.18423 0
M  V30 13126 H 1275.19 0.974959 -3.08668 0
M  V30 13127 H 1274.09 -1.30404 -3.50636 0
M  V30 13128 H 1275.43 -1.69725 -4.62011 0
M  V30 13129 N 1277.08 1.37613 -0.768148 0
M  V30 13130 C 1278.33 1.99023 -0.327543 0
M  V30 13131 C 1278.64 1.61669 1.10103 0
M  V30 13132 O 1279.85 2.16155 1.64284 0
M  V30 13133 C 1278.3 3.55906 -0.534674 0
M  V30 13134 C 1277.91 4.02201 -1.97327 0
M  V30 13135 C 1279.65 4.24208 -0.157512 0
M  V30 13136 C 1277.56 5.51781 -2.12819 0
M  V30 13137 H 1276.49 0.744595 -0.118722 0
M  V30 13138 H 1279.14 1.5719 -0.946764 0
M  V30 13139 H 1277.52 3.95701 0.153951 0
M  V30 13140 H 1278.7 3.73661 -2.69655 0
M  V30 13141 H 1277.01 3.46671 -2.30669 0
M  V30 13142 H 1279.61 5.34107 -0.251824 0
M  V30 13143 H 1279.95 4.06636 0.89177 0
M  V30 13144 H 1280.49 3.89703 -0.798546 0
M  V30 13145 H 1277.23 5.74274 -3.16053 0
M  V30 13146 H 1276.75 5.82017 -1.4497 0
M  V30 13147 H 1278.42 6.17697 -1.92508 0
M  V30 13148 N 1278.56 0.518393 1.4883 0
M  V30 13149 C 1279.52 -0.23983 2.27942 0
M  V30 13150 C 1280.52 -0.878302 1.34694 0
M  V30 13151 O 1281.71 -0.740142 1.57694 0
M  V30 13152 C 1278.84 -1.34581 3.1321 0
M  V30 13153 H 1280.03 0.454599 2.96434 0
M  V30 13154 H 1277.59 0.273932 1.53881 0
M  V30 13155 H 1278.32 -2.07385 2.49323 0
M  V30 13156 H 1278.11 -0.893251 3.8179 0
M  V30 13157 H 1279.6 -1.87944 3.72917 0
M  V30 13158 N 1280.03 -1.55556 0.252993 0
M  V30 13159 C 1280.94 -2.25283 -0.654581 0
M  V30 13160 C 1281.96 -1.27103 -1.18831 0
M  V30 13161 O 1283.14 -1.59993 -1.22329 0
M  V30 13162 C 1280.2 -2.94336 -1.83214 0
M  V30 13163 C 1279.26 -4.0794 -1.33728 0
M  V30 13164 C 1278.5 -4.73691 -2.45871 0
M  V30 13165 O 1278.72 -4.38545 -3.64738 0
M  V30 13166 O 1277.65 -5.62083 -2.15283 0
M  V30 13167 H 1281.48 -3.03565 -0.0904091 0
M  V30 13168 H 1279.06 -1.49385 0.0212535 0
M  V30 13169 H 1280.95 -3.37808 -2.5192 0
M  V30 13170 H 1279.62 -2.18989 -2.38381 0
M  V30 13171 H 1278.53 -3.68971 -0.617323 0
M  V30 13172 H 1279.86 -4.85124 -0.831617 0
M  V30 13173 N 1281.51 0.0200419 -1.57587 0
M  V30 13174 C 1282.48 1.00255 -2.06111 0
M  V30 13175 C 1283.48 1.28488 -0.966829 0
M  V30 13176 O 1284.67 1.2334 -1.23015 0
M  V30 13177 C 1281.8 2.33296 -2.48567 0
M  V30 13178 H 1282.99 0.583216 -2.94174 0
M  V30 13179 H 1280.54 0.267077 -1.54001 0
M  V30 13180 H 1281.28 2.79959 -1.63687 0
M  V30 13181 H 1281.06 2.14131 -3.28467 0
M  V30 13182 H 1282.55 3.03817 -2.86505 0
M  V30 13183 N 1282.99 1.54862 0.292472 0
M  V30 13184 C 1284.24 1.73756 1.02429 0
M  V30 13185 C 1284.55 0.535164 1.88137 0
M  V30 13186 O 1285.76 0.606092 2.64648 0
M  V30 13187 C 1284.21 3.0745 1.8709 0
M  V30 13188 C 1283.82 4.35195 1.06343 0
M  V30 13189 C 1285.57 3.357 2.59819 0
M  V30 13190 C 1283.47 5.59936 1.9033 0
M  V30 13191 H 1282.4 0.647617 0.386145 0
M  V30 13192 H 1285.05 1.81338 0.28086 0
M  V30 13193 H 1283.44 2.93855 2.65453 0
M  V30 13194 H 1284.61 4.5965 0.325335 0
M  V30 13195 H 1282.93 4.13944 0.451574 0
M  V30 13196 H 1285.52 4.26099 3.23023 0
M  V30 13197 H 1285.87 2.54956 3.29094 0
M  V30 13198 H 1286.4 3.50304 1.88499 0
M  V30 13199 H 1283.14 6.43372 1.25509 0
M  V30 13200 H 1282.66 5.39654 2.61789 0
M  V30 13201 H 1284.34 5.97512 2.48171 0
M  V30 13202 N 1284.47 -0.556076 1.47464 0
M  V30 13203 C 1285.4 -1.67829 1.56096 0
M  V30 13204 C 1286.41 -1.56541 0.447077 0
M  V30 13205 O 1287.6 -1.63478 0.716739 0
M  V30 13206 C 1284.7 -3.06303 1.45023 0
M  V30 13207 C 1283.88 -3.43334 2.70999 0
M  V30 13208 C 1282.93 -4.60976 2.53746 0
M  V30 13209 O 1281.96 -4.65501 3.27564 0
M  V30 13210 N 1283.16 -5.5754 1.61647 0
M  V30 13211 H 1285.93 -1.6087 2.52865 0
M  V30 13212 H 1283.49 -0.74274 1.43857 0
M  V30 13213 H 1285.48 -3.82838 1.31214 0
M  V30 13214 H 1284.05 -3.07483 0.563311 0
M  V30 13215 H 1283.27 -2.56236 2.99561 0
M  V30 13216 H 1284.56 -3.64851 3.54629 0
M  V30 13217 H 1283.96 -5.56642 1.00827 0
M  V30 13218 H 1282.51 -6.33397 1.53789 0
M  V30 13219 N 1285.95 -1.35615 -0.802897 0
M  V30 13220 C 1286.88 -1.31506 -1.92947 0
M  V30 13221 C 1287.86 -0.188843 -1.69048 0
M  V30 13222 O 1289.04 -0.384384 -1.90358 0
M  V30 13223 C 1286.17 -1.09001 -3.29752 0
M  V30 13224 C 1285.13 -2.18303 -3.68141 0
M  V30 13225 C 1284.45 -1.80959 -5.03148 0
M  V30 13226 C 1285.75 -3.60296 -3.78132 0
M  V30 13227 H 1287.45 -2.25771 -1.96642 0
M  V30 13228 H 1284.99 -1.08682 -0.944685 0
M  V30 13229 H 1286.95 -1.04766 -4.08169 0
M  V30 13230 H 1285.67 -0.111832 -3.26408 0
M  V30 13231 H 1284.33 -2.21642 -2.92011 0
M  V30 13232 H 1283.98 -0.817495 -4.96312 0
M  V30 13233 H 1283.68 -2.54129 -5.29804 0
M  V30 13234 H 1285.2 -1.78255 -5.84001 0
M  V30 13235 H 1286.62 -3.59259 -4.46773 0
M  V30 13236 H 1285.01 -4.32258 -4.16261 0
M  V30 13237 H 1286.08 -3.9618 -2.79588 0
M  V30 13238 N 1287.43 1.02549 -1.19673 0
M  V30 13239 C 1288.67 1.75656 -0.999463 0
M  V30 13240 C 1288.99 1.89238 0.470517 0
M  V30 13241 O 1288.26 1.42843 1.34062 0
M  V30 13242 H 1286.84 0.650732 -0.366821 0
M  V30 13243 H 1289.51 1.23684 -1.50627 0
M  V30 13244 H 1288.6 2.76353 -1.45035 0
M  V30 13245 N 1288.9 1.00119 1.21713 0
M  V30 13246 C 1290.15 0.682733 1.90962 0
M  V30 13247 C 1290.48 -0.784131 1.77665 0
M  V30 13248 O 1289.76 -1.56799 1.15084 0
M  V30 13249 C 1290.04 1.09975 3.42896 0
M  V30 13250 C 1289.89 2.62578 3.65202 0
M  V30 13251 C 1291.21 0.659247 4.35134 0
M  V30 13252 H 1288.33 0.249501 0.693483 0
M  V30 13253 H 1290.97 1.24619 1.43423 0
M  V30 13254 H 1289.12 0.620334 3.83515 0
M  V30 13255 H 1290.8 3.18254 3.33934 0
M  V30 13256 H 1289.04 3.04268 3.09198 0
M  V30 13257 H 1289.71 2.86809 4.7164 0
M  V30 13258 H 1292.19 1.07116 4.02076 0
M  V30 13259 H 1291.06 0.979241 5.40095 0
M  V30 13260 H 1291.32 -0.439777 4.39907 0
M  V30 13261 N 1290.38 -1.37203 0.775435 0
M  V30 13262 C 1291.29 -2.34019 0.165062 0
M  V30 13263 C 1292.31 -1.6036 -0.675316 0
M  V30 13264 O 1293.48 -1.9243 -0.594375 0
M  V30 13265 C 1290.55 -3.3954 -0.700957 0
M  V30 13266 C 1289.61 -4.29015 0.156304 0
M  V30 13267 C 1288.84 -5.29497 -0.668476 0
M  V30 13268 O 1289.07 -5.37636 -1.90535 0
M  V30 13269 O 1288 -6.01852 -0.0757351 0
M  V30 13270 H 1291.83 -2.87955 0.965184 0
M  V30 13271 H 1289.41 -1.39429 0.536654 0
M  V30 13272 H 1291.29 -4.04094 -1.19524 0
M  V30 13273 H 1289.97 -2.87926 -1.4792 0
M  V30 13274 H 1288.87 -3.67549 0.69703 0
M  V30 13275 H 1290.21 -4.83944 0.897725 0
M  V30 13276 N 1291.86 -0.526279 -1.48553 0
M  V30 13277 C 1293.14 0.073385 -1.95462 0
M  V30 13278 C 1293.52 1.51658 -1.46843 0
M  V30 13279 O 1292.86 2.17729 -0.693293 0
M  V30 13280 C 1293.07 -0.040041 -3.48977 0
M  V30 13281 C 1294.42 0.121108 -4.24427 0
M  V30 13282 O 1295.45 0.0339335 -3.56184 0
M  V30 13283 O 1294.31 0.303297 -5.45658 0
M  V30 13284 H 1291.4 0.0813498 -0.822989 0
M  V30 13285 H 1293.95 -0.590614 -1.59091 0
M  V30 13286 H 1292.72 -1.0455 -3.77074 0
M  V30 13287 H 1292.34 0.662975 -3.92034 0
M  V30 13288 N 1293.34 1.5542 -0.261239 0
M  V30 13289 C 1294.57 2.03687 0.363225 0
M  V30 13290 C 1294.98 1.14007 1.50492 0
M  V30 13291 O 1294.34 0.157349 1.8182 0
M  V30 13292 C 1294.39 3.51184 0.857435 0
M  V30 13293 O 1294.11 4.37449 -0.238776 0
M  V30 13294 C 1295.61 4.15277 1.55113 0
M  V30 13295 H 1292.83 0.665641 0.0846356 0
M  V30 13296 H 1295.37 2.00761 -0.389288 0
M  V30 13297 H 1293.53 3.54599 1.56008 0
M  V30 13298 H 1293.94 5.24316 0.138821 0
M  V30 13299 H 1295.42 5.20129 1.8485 0
M  V30 13300 H 1295.89 3.62619 2.47799 0
M  V30 13301 H 1296.5 4.15826 0.892695 0
M  V30 13302 N 1294.82 -0.0116844 1.57596 0
M  V30 13303 C 1295.75 -1.00599 2.10718 0
M  V30 13304 C 1296.73 -1.36601 1.01362 0
M  V30 13305 O 1297.91 -1.4518 1.28982 0
M  V30 13306 C 1295.04 -2.30155 2.60089 0
M  V30 13307 C 1294 -2.08347 3.73866 0
M  V30 13308 C 1293.32 -3.43814 4.09507 0
M  V30 13309 C 1294.62 -1.45552 5.01609 0
M  V30 13310 H 1296.32 -0.563721 2.94045 0
M  V30 13311 H 1293.86 -0.269714 1.41452 0
M  V30 13312 H 1295.81 -3.00058 2.95877 0
M  V30 13313 H 1294.54 -2.76473 1.73868 0
M  V30 13314 H 1293.2 -1.40872 3.38453 0
M  V30 13315 H 1292.85 -3.87814 3.20326 0
M  V30 13316 H 1292.55 -3.30043 4.86154 0
M  V30 13317 H 1294.07 -4.15052 4.47844 0
M  V30 13318 H 1295.48 -2.05396 5.35243 0
M  V30 13319 H 1293.88 -1.42304 5.82983 0
M  V30 13320 H 1294.95 -0.423331 4.83049 0
M  V30 13321 N 1296.29 -1.55015 -0.284256 0
M  V30 13322 C 1297.57 -1.6579 -1.03794 0
M  V30 13323 C 1297.95 -0.517029 -2.04671 0
M  V30 13324 O 1297.3 0.484287 -2.23309 0
M  V30 13325 C 1297.51 -3.04527 -1.70483 0
M  V30 13326 C 1298.86 -3.61903 -2.22062 0
M  V30 13327 O 1299.88 -3.07087 -1.80488 0
M  V30 13328 O 1298.74 -4.57917 -2.98286 0
M  V30 13329 H 1295.83 -0.672906 -0.480757 0
M  V30 13330 H 1298.38 -1.67357 -0.281009 0
M  V30 13331 H 1297.15 -3.79004 -0.973238 0
M  V30 13332 H 1296.77 -3.0681 -2.5289 0
M  V30 13333 N 1297.77 0.548248 -1.47757 0
M  V30 13334 C 1299.02 1.30243 -1.54535 0
M  V30 13335 C 1299.34 1.93832 -0.213089 0
M  V30 13336 O 1298.61 1.80397 0.763782 0
M  V30 13337 H 1297.19 0.483684 -0.569262 0
M  V30 13338 H 1299.85 0.639485 -1.8411 0
M  V30 13339 H 1298.95 2.09128 -2.31672 0
M  V30 13340 N 1299.25 1.36039 0.795694 0
M  V30 13341 C 1300.18 1.25713 1.91648 0
M  V30 13342 C 1301.19 0.177993 1.61824 0
M  V30 13343 O 1302.38 0.432186 1.73189 0
M  V30 13344 C 1299.48 0.915546 3.26299 0
M  V30 13345 C 1298.66 2.09528 3.83949 0
M  V30 13346 C 1297.72 1.72775 4.97026 0
M  V30 13347 O 1296.74 2.44786 5.13876 0
M  V30 13348 N 1297.94 0.65775 5.76762 0
M  V30 13349 H 1300.71 2.22277 2.01029 0
M  V30 13350 H 1298.27 1.2935 0.973657 0
M  V30 13351 H 1300.26 0.650958 3.9943 0
M  V30 13352 H 1298.83 0.0392343 3.12575 0
M  V30 13353 H 1298.05 2.52304 3.0288 0
M  V30 13354 H 1299.34 2.88361 4.19196 0
M  V30 13355 H 1298.74 0.0596875 5.65669 0
M  V30 13356 H 1297.29 0.45297 6.50224 0
M  V30 13357 N 1300.73 -1.01913 1.20215 0
M  V30 13358 C 1301.66 -2.10513 0.906476 0
M  V30 13359 C 1302.67 -1.62463 -0.104758 0
M  V30 13360 O 1303.86 -1.78055 0.12593 0
M  V30 13361 C 1300.96 -3.3722 0.337012 0
M  V30 13362 C 1300.14 -4.14417 1.39917 0
M  V30 13363 C 1299.19 -5.19428 0.841489 0
M  V30 13364 O 1298.22 -5.48486 1.52157 0
M  V30 13365 N 1299.42 -5.79442 -0.350365 0
M  V30 13366 H 1302.19 -2.36465 1.84132 0
M  V30 13367 H 1299.75 -1.18283 1.10548 0
M  V30 13368 H 1301.74 -4.04669 -0.0501507 0
M  V30 13369 H 1300.31 -3.08538 -0.502325 0
M  V30 13370 H 1299.53 -3.41975 1.96078 0
M  V30 13371 H 1300.82 -4.62777 2.1146 0
M  V30 13372 H 1300.22 -5.58166 -0.920204 0
M  V30 13373 H 1298.77 -6.48252 -0.679194 0
M  V30 13374 N 1302.21 -1.00763 -1.2118 0
M  V30 13375 C 1303.48 -0.607236 -1.85935 0
M  V30 13376 C 1303.86 0.915048 -1.90237 0
M  V30 13377 O 1303.21 1.80308 -1.40361 0
M  V30 13378 C 1303.42 -1.24466 -3.26051 0
M  V30 13379 C 1304.77 -1.35443 -4.02418 0
M  V30 13380 O 1305.79 -1.20018 -3.35372 0
M  V30 13381 O 1304.65 -1.60282 -5.22467 0
M  V30 13382 H 1301.75 -0.208338 -0.800328 0
M  V30 13383 H 1304.29 -1.10444 -1.28842 0
M  V30 13384 H 1303.06 -2.28524 -3.17635 0
M  V30 13385 H 1302.69 -0.733966 -3.90767 0
M  V30 13386 N 1303.68 1.3679 -0.7827 0
M  V30 13387 C 1304.91 2.04206 -0.362571 0
M  V30 13388 C 1305.33 1.58637 1.01074 0
M  V30 13389 O 1304.69 0.751692 1.64983 0
M  V30 13390 C 1304.74 3.58062 -0.4271 0
M  V30 13391 O 1303.84 4.08463 0.56845 0
M  V30 13392 H 1303.19 0.645638 -0.155073 0
M  V30 13393 H 1305.72 1.74883 -1.06194 0
M  V30 13394 H 1305.73 4.0698 -0.288298 0
M  V30 13395 H 1304.4 3.90582 -1.42893 0
M  V30 13396 H 1302.98 3.70835 0.391863 0
M  V30 13397 N 1305.16 0.53415 1.48272 0
M  V30 13398 C 1306.41 0.00157259 2.025 0
M  V30 13399 C 1306.74 -1.33886 1.41085 0
M  V30 13400 O 1305.99 -1.87884 0.547544 0
M  V30 13401 C 1306.29 -0.165144 3.57018 0
M  V30 13402 C 1305.96 1.10146 4.3724 0
M  V30 13403 C 1304.62 1.44857 4.58879 0
M  V30 13404 C 1306.97 1.94183 4.83676 0
M  V30 13405 C 1304.3 2.63497 5.24201 0
M  V30 13406 C 1306.65 3.12005 5.50305 0
M  V30 13407 C 1305.32 3.47058 5.70182 0
M  V30 13408 H 1304.59 0.00057545 0.741 0
M  V30 13409 H 1307.23 0.701014 1.78208 0
M  V30 13410 H 1305.54 -0.947384 3.80173 0
M  V30 13411 H 1307.23 -0.592202 3.96603 0
M  V30 13412 H 1303.82 0.821132 4.20661 0
M  V30 13413 H 1308.01 1.68677 4.66757 0
M  V30 13414 H 1303.26 2.90852 5.37787 0
M  V30 13415 H 1307.44 3.77426 5.85254 0
M  V30 13416 H 1305.07 4.39086 6.2057 0
M  V30 13417 N 1306.64 -1.55279 0.269478 0
M  V30 13418 C 1307.57 -2.25278 -0.614188 0
M  V30 13419 C 1308.55 -1.24092 -1.1634 0
M  V30 13420 O 1309.74 -1.52799 -1.19858 0
M  V30 13421 C 1306.87 -2.96956 -1.80096 0
M  V30 13422 C 1305.82 -4.05021 -1.38353 0
M  V30 13423 C 1305.15 -4.64244 -2.65295 0
M  V30 13424 C 1306.45 -5.19523 -0.537886 0
M  V30 13425 H 1308.14 -2.99385 -0.0304397 0
M  V30 13426 H 1305.69 -1.43994 -0.0132004 0
M  V30 13427 H 1307.64 -3.44633 -2.42499 0
M  V30 13428 H 1306.36 -2.20374 -2.41045 0
M  V30 13429 H 1305.02 -3.58146 -0.78273 0
M  V30 13430 H 1304.67 -3.84337 -3.2449 0
M  V30 13431 H 1304.37 -5.37208 -2.38079 0
M  V30 13432 H 1305.89 -5.14668 -3.28557 0
M  V30 13433 H 1307.31 -5.63287 -1.06677 0
M  V30 13434 H 1305.71 -5.99014 -0.360845 0
M  V30 13435 H 1306.78 -4.82857 0.444672 0
M  V30 13436 N 1308.12 0.00332656 -1.576 0
M  V30 13437 C 1309.05 1.02391 -2.05058 0
M  V30 13438 C 1310.06 1.30903 -0.967901 0
M  V30 13439 O 1311.25 1.27937 -1.24476 0
M  V30 13440 C 1308.35 2.35947 -2.43274 0
M  V30 13441 C 1307.53 2.26423 -3.74234 0
M  V30 13442 C 1306.58 3.4264 -3.99355 0
M  V30 13443 O 1305.61 3.20977 -4.70067 0
M  V30 13444 N 1306.81 4.65379 -3.46991 0
M  V30 13445 H 1309.58 0.619216 -2.93233 0
M  V30 13446 H 1307.14 0.190777 -1.60772 0
M  V30 13447 H 1309.13 3.12462 -2.57196 0
M  V30 13448 H 1307.7 2.6817 -1.60635 0
M  V30 13449 H 1306.92 1.34841 -3.70421 0
M  V30 13450 H 1308.21 2.17229 -4.60097 0
M  V30 13451 H 1307.61 4.85878 -2.89723 0
M  V30 13452 H 1306.16 5.39171 -3.66249 0
M  V30 13453 N 1309.6 1.55164 0.276031 0
M  V30 13454 C 1310.56 1.87065 1.32436 0
M  V30 13455 C 1311.56 0.745024 1.42499 0
M  V30 13456 O 1312.75 1.01321 1.41702 0
M  V30 13457 C 1309.88 2.07322 2.70611 0
M  V30 13458 H 1311.07 2.80775 1.05382 0
M  V30 13459 H 1308.63 1.47609 0.513947 0
M  V30 13460 H 1309.36 1.15983 3.0285 0
M  V30 13461 H 1309.15 2.89275 2.64693 0
M  V30 13462 H 1310.64 2.33287 3.46362 0
M  V30 13463 N 1311.07 -0.540404 1.48045 0
M  V30 13464 C 1312.3 -1.32656 1.59427 0
M  V30 13465 C 1312.72 -1.86419 0.250924 0
M  V30 13466 O 1312.08 -1.63861 -0.775838 0
M  V30 13467 C 1312.13 -2.46062 2.63602 0
M  V30 13468 O 1311.23 -3.48794 2.20038 0
M  V30 13469 H 1310.58 -0.393334 0.534962 0
M  V30 13470 H 1313.11 -0.651363 1.93955 0
M  V30 13471 H 1313.12 -2.92396 2.84549 0
M  V30 13472 H 1311.79 -2.06291 3.61133 0
M  V30 13473 H 1310.37 -3.0865 2.0926 0
M  V30 13474 N 1312.55 -1.36459 -0.788468 0
M  V30 13475 C 1313.8 -1.30935 -1.54867 0
M  V30 13476 C 1314.13 0.110916 -1.93883 0
M  V30 13477 O 1313.41 1.06452 -1.62783 0
M  V30 13478 C 1313.69 -2.23294 -2.8251 0
M  V30 13479 C 1313.54 -3.74022 -2.49856 0
M  V30 13480 C 1314.86 -2.14407 -3.84341 0
M  V30 13481 H 1311.98 -0.476958 -0.561854 0
M  V30 13482 H 1314.62 -1.67018 -0.905805 0
M  V30 13483 H 1312.77 -1.92652 -3.37369 0
M  V30 13484 H 1314.44 -4.15187 -2.01041 0
M  V30 13485 H 1312.69 -3.93411 -1.82785 0
M  V30 13486 H 1313.36 -4.34057 -3.41026 0
M  V30 13487 H 1315.83 -2.41381 -3.38932 0
M  V30 13488 H 1314.71 -2.81199 -4.71401 0
M  V30 13489 H 1314.97 -1.13166 -4.27371 0
M  V30 13490 N 1314.03 1.01274 -1.20754 0
M  V30 13491 C 1315.44 1.56381 -1.0199 0
M  V30 13492 C 1315.79 1.91595 0.422591 0
M  V30 13493 O 1314.92 1.72653 1.3046 0
M  V30 13494 C 1315.51 2.8415 -1.8451 0
M  V30 13495 C 1314.07 3.35772 -1.70101 0
M  V30 13496 C 1313.22 2.0904 -1.82202 0
M  V30 13497 H 1316.17 0.836105 -1.34889 0
M  V30 13498 H 1316.19 3.55717 -1.35076 0
M  V30 13499 H 1315.7 2.5849 -2.8949 0
M  V30 13500 H 1313.8 3.66384 -0.677732 0
M  V30 13501 H 1313.92 4.07714 -2.51607 0
M  V30 13502 H 1312.28 2.21675 -1.25429 0
M  V30 13503 H 1313.06 1.858 -2.88675 0
M  V30 13504 N 1315.51 1.01404 1.20644 0
M  V30 13505 C 1316.46 0.575388 2.25371 0
M  V30 13506 C 1317.45 -0.384598 1.64976 0
M  V30 13507 O 1318.66 -0.2548 1.78187 0
M  V30 13508 H 1315.03 0.167752 0.733051 0
M  V30 13509 H 1317 1.46964 2.597 0
M  V30 13510 C 1315.75 -0.0731257 3.47623 0
M  V30 13511 H 1315.08 0.656551 3.94372 0
M  V30 13512 H 1316.52 -0.343203 4.22609 0
M  V30 13513 C 1314.97 -1.31515 3.1017 0
M  V30 13514 O 1315.5 -2.40869 3.21473 0
M  V30 13515 N 1313.71 -1.19829 2.64744 0
M  V30 13516 H 1313.26 -0.308463 2.55746 0
M  V30 13517 H 1313.22 -2.0303 2.40054 0
M  V30 13518 N 1316.99 -1.36373 0.789944 0
M  V30 13519 C 1317.94 -2.31928 0.17666 0
M  V30 13520 C 1318.93 -1.55831 -0.664316 0
M  V30 13521 O 1320.14 -1.71089 -0.559341 0
M  V30 13522 H 1316.51 -0.751021 0.038353 0
M  V30 13523 H 1318.48 -2.81216 0.998004 0
M  V30 13524 C 1317.23 -3.41112 -0.673646 0
M  V30 13525 H 1316.55 -3.99784 -0.0358875 0
M  V30 13526 H 1317.99 -4.10292 -1.06942 0
M  V30 13527 C 1316.45 -2.82728 -1.83211 0
M  V30 13528 O 1316.98 -2.74935 -2.92871 0
M  V30 13529 N 1315.19 -2.4001 -1.6384 0
M  V30 13530 H 1314.74 -2.46549 -0.746423 0
M  V30 13531 H 1314.69 -2.01294 -2.41512 0
M  V30 13532 N 1318.47 -0.542005 -1.47987 0
M  V30 13533 C 1319.7 -0.0166928 -2.06593 0
M  V30 13534 C 1320.1 1.27564 -1.39728 0
M  V30 13535 O 1319.45 1.77245 -0.48268 0
M  V30 13536 C 1319.51 0.265501 -3.58518 0
M  V30 13537 C 1319.17 -0.935133 -4.4733 0
M  V30 13538 C 1320.17 -1.83673 -4.86375 0
M  V30 13539 C 1317.85 -1.14552 -4.89063 0
M  V30 13540 C 1319.85 -2.93252 -5.65935 0
M  V30 13541 C 1317.54 -2.24443 -5.68391 0
M  V30 13542 C 1318.53 -3.13625 -6.06736 0
M  V30 13543 O 1318.22 -4.21613 -6.84469 0
M  V30 13544 H 1317.95 -0.0358651 -0.675048 0
M  V30 13545 H 1320.51 -0.750565 -1.91195 0
M  V30 13546 H 1318.74 1.0535 -3.72073 0
M  V30 13547 H 1320.43 0.734348 -3.99202 0
M  V30 13548 H 1321.19 -1.68618 -4.54745 0
M  V30 13549 H 1317.07 -0.460598 -4.58693 0
M  V30 13550 H 1320.62 -3.62888 -5.95783 0
M  V30 13551 H 1316.51 -2.39477 -5.99434 0
M  V30 13552 H 1317.28 -4.19472 -7.02841 0
M  V30 13553 N 1319.94 1.55134 -0.277709 0
M  V30 13554 C 1320.87 2.256 0.602232 0
M  V30 13555 C 1321.85 1.24708 1.15681 0
M  V30 13556 O 1323.04 1.53433 1.19046 0
M  V30 13557 C 1320.17 2.97907 1.78519 0
M  V30 13558 C 1319.12 4.0575 1.36203 0
M  V30 13559 C 1318.45 4.65644 2.62829 0
M  V30 13560 C 1319.75 5.19801 0.510327 0
M  V30 13561 H 1321.44 2.99396 0.0145622 0
M  V30 13562 H 1318.99 1.43999 0.00556389 0
M  V30 13563 H 1320.94 3.45915 2.40668 0
M  V30 13564 H 1319.67 2.21649 2.39873 0
M  V30 13565 H 1318.33 3.58557 0.763726 0
M  V30 13566 H 1317.97 3.86053 3.22447 0
M  V30 13567 H 1317.67 5.38463 2.35227 0
M  V30 13568 H 1319.2 5.16403 3.25823 0
M  V30 13569 H 1320.61 5.63845 1.03689 0
M  V30 13570 H 1319.01 5.99197 0.329073 0
M  V30 13571 H 1320.08 4.82614 -0.470273 0
M  V30 13572 N 1321.42 0.00503138 1.57599 0
M  V30 13573 C 1322.33 -1.00097 2.12174 0
M  V30 13574 C 1323.35 -1.37353 1.06818 0
M  V30 13575 O 1324.52 -1.45984 1.38747 0
M  V30 13576 C 1321.59 -2.27252 2.61835 0
M  V30 13577 C 1320.65 -1.96262 3.81811 0
M  V30 13578 C 1319.88 -3.17355 4.29094 0
M  V30 13579 O 1320.11 -4.2921 3.75679 0
M  V30 13580 O 1319.04 -3.01059 5.21198 0
M  V30 13581 H 1322.87 -0.567024 2.9836 0
M  V30 13582 H 1320.45 -0.214109 1.47858 0
M  V30 13583 H 1322.33 -3.01944 2.93952 0
M  V30 13584 H 1321.01 -2.69875 1.78744 0
M  V30 13585 H 1319.91 -1.19031 3.54658 0
M  V30 13586 H 1321.25 -1.58473 4.65991 0
M  V30 13587 N 1322.9 -1.55308 -0.267798 0
M  V30 13588 C 1324.13 -1.80191 -1.01681 0
M  V30 13589 C 1324.54 -0.57783 -1.7974 0
M  V30 13590 O 1323.9 0.4532 -1.76783 0
M  V30 13591 C 1323.95 -3.03023 -1.97127 0
M  V30 13592 O 1323.67 -4.20704 -1.22229 0
M  V30 13593 C 1325.17 -3.40549 -2.83798 0
M  V30 13594 H 1322.39 -0.60013 -0.300142 0
M  V30 13595 H 1324.94 -2.02332 -0.297007 0
M  V30 13596 H 1323.09 -2.82993 -2.64563 0
M  V30 13597 H 1323.51 -4.90181 -1.86608 0
M  V30 13598 H 1324.98 -4.29653 -3.46557 0
M  V30 13599 H 1325.46 -2.60186 -3.53836 0
M  V30 13600 H 1326.06 -3.62856 -2.21846 0
M  V30 13601 N 1324.38 0.532545 -1.4833 0
M  V30 13602 C 1325.61 1.31331 -1.59874 0
M  V30 13603 C 1326.02 1.87028 -0.258037 0
M  V30 13604 O 1325.38 1.66272 0.752317 0
M  V30 13605 C 1325.43 2.46596 -2.64334 0
M  V30 13606 O 1325.15 1.93195 -3.93201 0
M  V30 13607 C 1326.65 3.38454 -2.86294 0
M  V30 13608 H 1323.87 0.399476 -0.539129 0
M  V30 13609 H 1326.41 0.642696 -1.94138 0
M  V30 13610 H 1324.57 3.09548 -2.32936 0
M  V30 13611 H 1324.98 2.68627 -4.50489 0
M  V30 13612 H 1326.46 4.15687 -3.63192 0
M  V30 13613 H 1326.93 3.93526 -1.95022 0
M  V30 13614 H 1327.54 2.81297 -3.18986 0
M  V30 13615 N 1325.86 1.36875 0.78122 0
M  V30 13616 C 1326.77 1.3404 1.92537 0
M  V30 13617 C 1327.78 0.241354 1.72318 0
M  V30 13618 O 1328.96 0.475128 1.95715 0
M  V30 13619 C 1326.02 1.13708 3.27523 0
M  V30 13620 C 1325.08 2.33165 3.60462 0
M  V30 13621 C 1324.32 2.13793 4.89007 0
M  V30 13622 O 1324.54 1.11732 5.5935 0
M  V30 13623 O 1323.47 3.01762 5.20791 0
M  V30 13624 H 1327.3 2.30386 1.97879 0
M  V30 13625 H 1324.88 1.17506 0.922637 0
M  V30 13626 H 1326.77 1.0432 4.08283 0
M  V30 13627 H 1325.44 0.204306 3.23055 0
M  V30 13628 H 1324.35 2.48123 2.79974 0
M  V30 13629 H 1325.68 3.24977 3.69663 0
M  V30 13630 N 1327.33 -1.00632 1.21289 0
M  V30 13631 C 1328.28 -2.11502 0.96798 0
M  V30 13632 C 1329.28 -1.6919 -0.0843024 0
M  V30 13633 O 1330.48 -1.79875 0.06697 0
M  V30 13634 H 1326.86 -0.691398 0.295759 0
M  V30 13635 H 1328.83 -2.29337 1.90911 0
M  V30 13636 C 1327.58 -3.43357 0.547818 0
M  V30 13637 H 1326.9 -3.76348 1.34915 0
M  V30 13638 H 1328.34 -4.21957 0.415759 0
M  V30 13639 C 1326.8 -3.28648 -0.741086 0
M  V30 13640 O 1327.33 -3.59267 -1.79695 0
M  V30 13641 N 1325.53 -2.81866 -0.707084 0
M  V30 13642 H 1325.08 -2.57149 0.152447 0
M  V30 13643 H 1325.04 -2.72406 -1.56979 0
M  V30 13644 N 1328.81 -1.02043 -1.20104 0
M  V30 13645 C 1330.04 -0.731142 -1.94085 0
M  V30 13646 C 1330.46 0.702467 -1.74491 0
M  V30 13647 O 1329.82 1.48387 -1.04168 0
M  V30 13648 C 1329.87 -1.07691 -3.44144 0
M  V30 13649 O 1328.97 -0.190751 -4.11959 0
M  V30 13650 H 1328.31 -0.270917 -0.606218 0
M  V30 13651 H 1330.84 -1.36483 -1.52426 0
M  V30 13652 H 1330.85 -1.03023 -3.94779 0
M  V30 13653 H 1329.53 -2.1214 -3.57728 0
M  V30 13654 H 1328.1 -0.29529 -3.71729 0
M  V30 13655 N 1330.29 1.35952 -0.797165 0
M  V30 13656 C 1331.52 2.0381 -0.38421 0
M  V30 13657 C 1331.94 1.597 0.993854 0
M  V30 13658 O 1331.3 0.769148 1.64176 0
M  V30 13659 C 1331.35 3.57589 -0.465054 0
M  V30 13660 O 1330.45 4.09043 0.525095 0
M  V30 13661 H 1329.79 0.643957 -0.161912 0
M  V30 13662 H 1332.32 1.73746 -1.08043 0
M  V30 13663 H 1332.33 4.06651 -0.331448 0
M  V30 13664 H 1331.01 3.89045 -1.47027 0
M  V30 13665 H 1329.58 3.7123 0.352509 0
M  V30 13666 N 1331.77 0.549846 1.47697 0
M  V30 13667 C 1333.18 0.11453 1.86348 0
M  V30 13668 C 1333.53 -1.31368 1.45729 0
M  V30 13669 O 1332.66 -1.98707 0.856989 0
M  V30 13670 C 1333.25 0.201072 3.38203 0
M  V30 13671 C 1331.81 -0.179162 3.75973 0
M  V30 13672 C 1330.96 0.551951 2.71751 0
M  V30 13673 H 1333.91 0.759989 1.39319 0
M  V30 13674 H 1333.93 -0.582216 3.76019 0
M  V30 13675 H 1333.44 1.24065 3.67736 0
M  V30 13676 H 1331.54 -1.22013 3.52056 0
M  V30 13677 H 1331.65 0.174273 4.78783 0
M  V30 13678 H 1330.02 -0.00411819 2.547 0
M  V30 13679 H 1330.8 1.59254 3.04127 0
M  V30 13680 N 1333.25 -1.54984 0.285932 0
M  V30 13681 C 1334.16 -2.26621 -0.606648 0
M  V30 13682 C 1335.17 -1.29595 -1.16108 0
M  V30 13683 O 1336.35 -1.62551 -1.18908 0
M  V30 13684 C 1333.41 -2.98156 -1.76929 0
M  V30 13685 C 1332.47 -4.10685 -1.25045 0
M  V30 13686 C 1331.71 -4.788 -2.35768 0
M  V30 13687 O 1331.93 -4.46183 -3.55354 0
M  V30 13688 O 1330.86 -5.66523 -2.03312 0
M  V30 13689 H 1334.69 -3.03689 -0.0259981 0
M  V30 13690 H 1332.28 -1.49306 0.0529355 0
M  V30 13691 H 1334.16 -3.43076 -2.44697 0
M  V30 13692 H 1332.83 -2.23996 -2.33683 0
M  V30 13693 H 1331.74 -3.70198 -0.538919 0
M  V30 13694 H 1333.07 -4.86778 -0.728528 0
M  V30 13695 N 1334.72 -0.0133892 -1.57594 0
M  V30 13696 C 1335.96 0.672977 -1.93004 0
M  V30 13697 C 1336.33 1.70188 -0.888816 0
M  V30 13698 O 1337.53 2.4396 -1.12859 0
M  V30 13699 C 1335.8 1.28743 -3.33407 0
M  V30 13700 S 1337.36 1.99706 -3.90721 0
M  V30 13701 H 1334.18 0.221972 -0.675462 0
M  V30 13702 H 1336.78 -0.0732871 -1.95363 0
M  V30 13703 H 1335.48 0.525931 -4.07016 0
M  V30 13704 H 1335.01 2.07134 -3.34454 0
M  V30 13705 H 1337.03 3.27375 -3.72881 0
M  V30 13706 N 1336.2 1.55448 0.259558 0
M  V30 13707 C 1337.43 1.80727 1.00723 0
M  V30 13708 C 1337.85 0.587354 1.79431 0
M  V30 13709 O 1337.2 -0.443819 1.77021 0
M  V30 13710 C 1337.25 3.04064 1.95517 0
M  V30 13711 O 1336.97 4.21346 1.19996 0
M  V30 13712 C 1338.48 3.42049 2.81988 0
M  V30 13713 H 1335.7 0.601713 0.296956 0
M  V30 13714 H 1338.24 2.02486 0.286273 0
M  V30 13715 H 1336.39 2.84392 2.63058 0
M  V30 13716 H 1336.81 4.91164 1.84006 0
M  V30 13717 H 1338.28 4.31485 3.44274 0
M  V30 13718 H 1338.76 2.62059 3.52451 0
M  V30 13719 H 1339.37 3.64027 2.19918 0
M  V30 13720 N 1337.68 -0.524672 1.4861 0
M  V30 13721 C 1338.93 -1.28211 1.5713 0
M  V30 13722 C 1339.26 -1.92626 0.246751 0
M  V30 13723 O 1338.53 -1.79553 -0.747725 0
M  V30 13724 C 1338.82 -2.36737 2.71344 0
M  V30 13725 C 1338.67 -1.76978 4.1352 0
M  V30 13726 C 1339.99 -3.3847 2.81294 0
M  V30 13727 H 1337.11 -0.46479 0.571961 0
M  V30 13728 H 1339.75 -0.583937 1.80804 0
M  V30 13729 H 1337.9 -2.96287 2.51289 0
M  V30 13730 H 1339.57 -1.21438 4.45029 0
M  V30 13731 H 1337.82 -1.07488 4.20272 0
M  V30 13732 H 1338.49 -2.55583 4.89266 0
M  V30 13733 H 1340.96 -2.88882 2.99477 0
M  V30 13734 H 1339.84 -4.11795 3.62928 0
M  V30 13735 H 1340.1 -3.99347 1.89669 0
M  V30 13736 N 1339.16 -1.37287 -0.77395 0
M  V30 13737 C 1340.11 -1.29389 -1.8773 0
M  V30 13738 C 1341.09 -0.182167 -1.59865 0
M  V30 13739 O 1342.28 -0.416367 -1.72033 0
M  V30 13740 C 1339.41 -1.10094 -3.25168 0
M  V30 13741 C 1338.5 -2.25801 -3.58991 0
M  V30 13742 N 1338.89 -3.51182 -3.64012 0
M  V30 13743 C 1337.19 -2.17907 -3.89144 0
M  V30 13744 C 1337.89 -4.27468 -3.9452 0
M  V30 13745 N 1336.87 -3.56583 -4.10304 0
M  V30 13746 H 1340.67 -2.24344 -1.8986 0
M  V30 13747 H 1338.18 -1.30228 -0.970282 0
M  V30 13748 H 1340.18 -1.02521 -4.04098 0
M  V30 13749 H 1338.84 -0.160535 -3.24303 0
M  V30 13750 H 1339.85 -3.85118 -3.46272 0
M  V30 13751 H 1336.53 -1.3191 -3.96113 0
M  V30 13752 H 1337.92 -5.3597 -4.05198 0
M  V30 13753 N 1340.64 0.999871 -1.21821 0
M  V30 13754 C 1341.57 2.10708 -1.00621 0
M  V30 13755 C 1342.55 1.69954 0.0705417 0
M  V30 13756 O 1343.73 1.9399 -0.0903042 0
M  V30 13757 C 1340.86 3.42496 -0.575646 0
M  V30 13758 C 1339.82 3.97068 -1.59754 0
M  V30 13759 C 1339.14 5.24822 -1.02304 0
M  V30 13760 C 1340.44 4.28545 -2.98574 0
M  V30 13761 H 1342.14 2.28701 -1.93226 0
M  V30 13762 H 1339.68 1.09903 -0.930443 0
M  V30 13763 H 1341.64 4.19357 -0.414481 0
M  V30 13764 H 1340.36 3.2431 0.386059 0
M  V30 13765 H 1339.02 3.22332 -1.74636 0
M  V30 13766 H 1338.67 5.02972 -0.0529016 0
M  V30 13767 H 1338.37 5.62299 -1.70567 0
M  V30 13768 H 1339.89 6.04322 -0.873312 0
M  V30 13769 H 1341.3 4.96229 -2.87106 0
M  V30 13770 H 1339.7 4.77178 -3.63897 0
M  V30 13771 H 1340.77 3.36607 -3.49032 0
M  V30 13772 N 1342.11 1.02678 1.19562 0
M  V30 13773 C 1343.02 0.615738 2.26375 0
M  V30 13774 C 1344.04 -0.351525 1.70412 0
M  V30 13775 O 1345.22 -0.209932 2.00303 0
M  V30 13776 C 1342.28 -0.0292135 3.46688 0
M  V30 13777 C 1341.34 0.985284 4.1784 0
M  V30 13778 C 1340.58 0.371016 5.32409 0
M  V30 13779 O 1340.8 -0.826591 5.64379 0
M  V30 13780 O 1339.73 1.09282 5.91896 0
M  V30 13781 H 1343.56 1.50526 2.63772 0
M  V30 13782 H 1341.14 0.796847 1.26375 0
M  V30 13783 H 1343.03 -0.38893 4.19601 0
M  V30 13784 H 1341.7 -0.892778 3.11145 0
M  V30 13785 H 1340.61 1.39655 3.47055 0
M  V30 13786 H 1341.94 1.81915 4.57349 0
M  V30 13787 N 1343.59 -1.35528 0.804364 0
M  V30 13788 C 1344.54 -2.29832 0.211186 0
M  V30 13789 C 1345.51 -1.52704 -0.653503 0
M  V30 13790 O 1346.69 -1.81152 -0.599052 0
M  V30 13791 C 1343.83 -3.39188 -0.636054 0
M  V30 13792 C 1342.95 -4.31283 0.248824 0
M  V30 13793 C 1342.08 -5.2773 -0.60621 0
M  V30 13794 C 1341.12 -6.11463 0.279205 0
M  V30 13795 N 1340.26 -7.00054 -0.535672 0
M  V30 13796 H 1345.1 -2.79971 1.0208 0
M  V30 13797 H 1342.64 -1.37793 0.514931 0
M  V30 13798 H 1344.59 -4.01254 -1.14241 0
M  V30 13799 H 1343.22 -2.90331 -1.41095 0
M  V30 13800 H 1342.28 -3.70241 0.873263 0
M  V30 13801 H 1343.59 -4.90046 0.930417 0
M  V30 13802 H 1342.74 -5.95158 -1.17778 0
M  V30 13803 H 1341.48 -4.69458 -1.32138 0
M  V30 13804 H 1340.49 -5.42984 0.863066 0
M  V30 13805 H 1341.71 -6.71813 0.9922 0
M  V30 13806 H 1339.66 -6.44273 -1.23486 0
M  V30 13807 H 1339.57 -7.55949 0.0879213 0
M  V30 13808 H 1340.84 -7.71833 -1.09059 0
M  V30 13809 N 1345.07 -0.557671 -1.47404 0
M  V30 13810 C 1346.3 -0.0386599 -2.06864 0
M  V30 13811 C 1346.71 1.25527 -1.41027 0
M  V30 13812 O 1346.07 1.75318 -0.506949 0
M  V30 13813 C 1346.12 0.160141 -3.61145 0
M  V30 13814 O 1345.84 -1.08255 -4.24515 0
M  V30 13815 C 1347.34 0.716381 -4.37473 0
M  V30 13816 H 1344.56 -0.0460523 -0.669418 0
M  V30 13817 H 1347.11 -0.771214 -1.894 0
M  V30 13818 H 1345.26 0.842826 -3.78121 0
M  V30 13819 H 1345.68 -0.88057 -5.17055 0
M  V30 13820 H 1347.15 0.804773 -5.46102 0
M  V30 13821 H 1347.63 1.72776 -4.03788 0
M  V30 13822 H 1348.23 0.0693787 -4.25243 0
M  V30 13823 N 1346.55 1.54831 -0.294147 0
M  V30 13824 C 1347.8 1.99606 0.316509 0
M  V30 13825 C 1348.12 1.18405 1.54936 0
M  V30 13826 O 1347.39 0.278289 1.93913 0
M  V30 13827 H 1345.97 0.737309 0.119938 0
M  V30 13828 H 1348.63 1.90669 -0.403891 0
M  V30 13829 H 1347.73 3.06409 0.593282 0
M  V30 13830 N 1348.03 0.0217466 1.57585 0
M  V30 13831 C 1348.97 -0.962559 2.0977 0
M  V30 13832 C 1349.94 -1.32771 0.998053 0
M  V30 13833 O 1351.13 -1.42231 1.27181 0
M  V30 13834 C 1348.27 -2.24214 2.62339 0
M  V30 13835 C 1347.38 -1.9341 3.86286 0
M  V30 13836 C 1346.52 -3.15609 4.27275 0
M  V30 13837 C 1345.56 -2.8059 5.43999 0
M  V30 13838 N 1344.69 -3.95392 5.8018 0
M  V30 13839 H 1349.53 -0.510626 2.93593 0
M  V30 13840 H 1347.07 -0.240456 1.45121 0
M  V30 13841 H 1349.03 -2.99049 2.90905 0
M  V30 13842 H 1347.66 -2.67037 1.81358 0
M  V30 13843 H 1346.71 -1.08849 3.64494 0
M  V30 13844 H 1348.02 -1.63614 4.71203 0
M  V30 13845 H 1347.18 -3.9877 4.57239 0
M  V30 13846 H 1345.92 -3.48561 3.41111 0
M  V30 13847 H 1344.92 -1.9584 5.13738 0
M  V30 13848 H 1346.15 -2.48863 6.31858 0
M  V30 13849 H 1344.09 -4.282 4.96971 0
M  V30 13850 H 1344.01 -3.69195 6.59721 0
M  V30 13851 H 1345.28 -4.79279 6.14746 0
M  V30 13852 N 1349.51 -1.55583 -0.251311 0
M  V30 13853 C 1350.75 -1.76859 -0.978031 0
M  V30 13854 C 1351.07 -0.584924 -1.86021 0
M  V30 13855 O 1350.34 0.399456 -1.91784 0
M  V30 13856 H 1348.92 -0.652252 -0.364111 0
M  V30 13857 H 1351.59 -1.93016 -0.270319 0
M  V30 13858 H 1350.68 -2.67828 -1.60233 0
M  V30 13859 N 1350.98 0.516783 -1.48886 0
M  V30 13860 C 1351.91 1.62897 -1.67292 0
M  V30 13861 C 1352.89 1.61903 -0.521671 0
M  V30 13862 O 1354.08 1.78892 -0.755728 0
M  V30 13863 C 1351.21 3.01444 -1.72478 0
M  V30 13864 C 1350.16 3.173 -2.87236 0
M  V30 13865 C 1349.49 4.5704 -2.77522 0
M  V30 13866 C 1350.79 2.98818 -4.28375 0
M  V30 13867 H 1352.48 1.47748 -2.60405 0
M  V30 13868 H 1350.03 0.709361 -1.25316 0
M  V30 13869 H 1351.98 3.79135 -1.83942 0
M  V30 13870 H 1350.71 3.17645 -0.759538 0
M  V30 13871 H 1349.37 2.4203 -2.75349 0
M  V30 13872 H 1349.01 4.70096 -1.78938 0
M  V30 13873 H 1348.71 4.68593 -3.54534 0
M  V30 13874 H 1350.24 5.36813 -2.90972 0
M  V30 13875 H 1351.65 3.66291 -4.41026 0
M  V30 13876 H 1350.05 3.21854 -5.06488 0
M  V30 13877 H 1351.12 1.95102 -4.43918 0
M  V30 13878 N 1352.46 1.37696 0.766659 0
M  V30 13879 C 1353.7 1.34588 1.53836 0
M  V30 13880 C 1354.07 -0.0676384 1.91881 0
M  V30 13881 O 1355.27 -0.223479 2.67869 0
M  V30 13882 C 1353.54 2.26329 2.76604 0
M  V30 13883 S 1355.1 2.4112 3.66615 0
M  V30 13884 H 1351.91 0.477717 0.5266 0
M  V30 13885 H 1354.52 1.73495 0.901099 0
M  V30 13886 H 1353.22 3.27943 2.46742 0
M  V30 13887 H 1352.75 1.88525 3.45285 0
M  V30 13888 H 1354.77 1.62556 4.68818 0
M  V30 13889 N 1353.94 -0.993397 1.22349 0
M  V30 13890 C 1354.9 -2.065 0.994506 0
M  V30 13891 C 1355.9 -1.60753 -0.0388766 0
M  V30 13892 O 1357.09 -1.73053 0.199578 0
M  V30 13893 C 1354.22 -3.37182 0.502088 0
M  V30 13894 H 1355.42 -2.28248 1.94533 0
M  V30 13895 H 1352.97 -1.16489 1.04211 0
M  V30 13896 H 1353.71 -3.21119 -0.453114 0
M  V30 13897 H 1353.49 -3.71721 1.24763 0
M  V30 13898 H 1354.98 -4.16027 0.362108 0
M  V30 13899 N 1355.42 -1.03311 -1.19015 0
M  V30 13900 C 1356.65 -0.751802 -1.92758 0
M  V30 13901 C 1357.06 0.689982 -1.7574 0
M  V30 13902 O 1356.42 1.46961 -1.08207 0
M  V30 13903 C 1356.47 -1.09892 -3.44392 0
M  V30 13904 O 1356.19 -2.48409 -3.60866 0
M  V30 13905 C 1357.69 -0.841029 -4.35249 0
M  V30 13906 H 1354.91 -0.274757 -0.612168 0
M  V30 13907 H 1357.45 -1.37873 -1.51034 0
M  V30 13908 H 1355.61 -0.517092 -3.83933 0
M  V30 13909 H 1356.02 -2.61468 -4.54681 0
M  V30 13910 H 1357.5 -1.13383 -5.4023 0
M  V30 13911 H 1357.97 0.224434 -4.38626 0
M  V30 13912 H 1358.58 -1.40579 -4.01395 0
M  V30 13913 N 1356.9 1.35099 -0.81154 0
M  V30 13914 C 1357.84 2.29717 -0.223372 0
M  V30 13915 C 1358.81 1.53049 0.645396 0
M  V30 13916 O 1360 1.81467 0.589436 0
M  V30 13917 C 1357.14 3.3952 0.618057 0
M  V30 13918 C 1356.25 4.31145 -0.271693 0
M  V30 13919 C 1355.39 5.28044 0.578214 0
M  V30 13920 C 1354.42 6.11306 -0.311628 0
M  V30 13921 N 1353.56 7.00328 0.498539 0
M  V30 13922 H 1358.4 2.79426 -1.03563 0
M  V30 13923 H 1355.94 1.37518 -0.522231 0
M  V30 13924 H 1357.9 4.01854 1.12111 0
M  V30 13925 H 1356.53 2.91075 1.39554 0
M  V30 13926 H 1355.58 3.69773 -0.892885 0
M  V30 13927 H 1356.89 4.89545 -0.956392 0
M  V30 13928 H 1356.04 5.95774 1.1462 0
M  V30 13929 H 1354.78 4.70152 1.29646 0
M  V30 13930 H 1353.79 5.42518 -0.891849 0
M  V30 13931 H 1355.01 6.71277 -1.02781 0
M  V30 13932 H 1352.96 6.44919 1.20067 0
M  V30 13933 H 1352.88 7.55892 -0.12801 0
M  V30 13934 H 1354.14 7.72401 1.04965 0
M  V30 13935 N 1358.37 0.56548 1.47106 0
M  V30 13936 C 1359.3 -0.16567 2.32912 0
M  V30 13937 C 1360.28 -0.900678 1.44298 0
M  V30 13938 O 1361.47 -0.879523 1.73142 0
M  V30 13939 C 1358.6 -1.19092 3.26243 0
M  V30 13940 C 1357.55 -0.571849 4.24163 0
M  V30 13941 C 1356.88 -1.70233 5.06878 0
M  V30 13942 C 1358.18 0.479785 5.20092 0
M  V30 13943 H 1359.87 0.550705 2.94292 0
M  V30 13944 H 1357.42 0.266284 1.41517 0
M  V30 13945 H 1359.37 -1.71064 3.85117 0
M  V30 13946 H 1358.1 -1.93734 2.62934 0
M  V30 13947 H 1356.76 -0.073353 3.66527 0
M  V30 13948 H 1356.4 -2.438 4.39967 0
M  V30 13949 H 1356.1 -1.29384 5.73178 0
M  V30 13950 H 1357.63 -2.22515 5.68612 0
M  V30 13951 H 1359.04 0.0458042 5.73282 0
M  V30 13952 H 1357.44 0.807615 5.94641 0
M  V30 13953 H 1358.51 1.37259 4.65068 0
M  V30 13954 N 1359.85 -1.54672 0.302354 0
M  V30 13955 C 1361.08 -2.05041 -0.311891 0
M  V30 13956 C 1361.5 -1.17814 -1.46634 0
M  V30 13957 O 1360.86 -0.182517 -1.80379 0
M  V30 13958 C 1360.91 -3.52831 -0.744489 0
M  V30 13959 O 1360.01 -3.68621 -1.84913 0
M  V30 13960 H 1359.35 -0.661255 -0.0603102 0
M  V30 13961 H 1361.88 -1.99711 0.444593 0
M  V30 13962 H 1361.89 -3.94708 -1.03293 0
M  V30 13963 H 1360.57 -4.1578 0.0999976 0
M  V30 13964 H 1359.15 -3.38649 -1.56113 0
M  V30 13965 N 1361.33 -0.0301034 -1.57571 0
M  V30 13966 C 1362.29 0.936465 -2.09196 0
M  V30 13967 C 1363.29 1.25347 -1.00722 0
M  V30 13968 O 1364.48 1.19364 -1.26877 0
M  V30 13969 C 1361.62 2.2527 -2.55864 0
M  V30 13970 H 1362.81 0.489332 -2.95881 0
M  V30 13971 H 1360.36 0.217948 -1.54773 0
M  V30 13972 H 1361.1 2.7461 -1.72511 0
M  V30 13973 H 1360.88 2.03573 -3.35113 0
M  V30 13974 H 1362.37 2.94549 -2.96025 0
M  V30 13975 N 1362.81 1.55714 0.243056 0
M  V30 13976 C 1364.03 1.82126 0.992219 0
M  V30 13977 C 1364.46 0.607665 1.78014 0
M  V30 13978 O 1363.82 -0.443351 1.75796 0
M  V30 13979 C 1363.86 3.06314 1.90274 0
M  V30 13980 O 1362.97 2.83499 2.99503 0
M  V30 13981 H 1362.31 0.601082 0.282128 0
M  V30 13982 H 1364.84 2.02904 0.262881 0
M  V30 13983 H 1364.85 3.35849 2.31666 0
M  V30 13984 H 1363.52 3.94282 1.32344 0
M  V30 13985 H 1362.1 2.65141 2.62211 0
M  V30 13986 N 1364.29 -0.50888 1.49158 0
M  V30 13987 C 1365.51 -1.29245 1.62205 0
M  V30 13988 C 1365.94 -1.85845 0.29041 0
M  V30 13989 O 1365.29 -1.6547 -0.740906 0
M  V30 13990 C 1365.34 -2.40415 2.68762 0
M  V30 13991 O 1364.45 -3.44048 2.27387 0
M  V30 13992 H 1363.79 -0.381898 0.543185 0
M  V30 13993 H 1366.32 -0.610076 1.95293 0
M  V30 13994 H 1366.33 -2.86295 2.90688 0
M  V30 13995 H 1365 -1.98584 3.65427 0
M  V30 13996 H 1363.58 -3.04141 2.1576 0
M  V30 13997 N 1365.76 -1.381 -0.759346 0
M  V30 13998 C 1366.67 -1.37086 -1.9038 0
M  V30 13999 C 1367.69 -0.268738 -1.71912 0
M  V30 14000 O 1368.87 -0.506205 -1.94935 0
M  V30 14001 C 1365.93 -1.18905 -3.25672 0
M  V30 14002 C 1364.99 -2.3887 -3.56707 0
M  V30 14003 C 1364.23 -2.21546 -4.85544 0
M  V30 14004 O 1364.45 -1.20616 -5.57501 0
M  V30 14005 O 1363.38 -3.10009 -5.15924 0
M  V30 14006 H 1367.21 -2.33505 -1.94188 0
M  V30 14007 H 1364.79 -1.18959 -0.903826 0
M  V30 14008 H 1366.68 -1.10803 -4.06572 0
M  V30 14009 H 1365.35 -0.255675 -3.22689 0
M  V30 14010 H 1364.26 -2.52546 -2.75992 0
M  V30 14011 H 1365.59 -3.30817 -3.64446 0
M  V30 14012 N 1367.24 0.986894 -1.22875 0
M  V30 14013 C 1368.52 1.70121 -0.965311 0
M  V30 14014 C 1368.9 2.04648 0.517924 0
M  V30 14015 O 1368.25 1.73453 1.48749 0
M  V30 14016 C 1368.46 2.94738 -1.86897 0
M  V30 14017 C 1369.81 3.6739 -2.12861 0
M  V30 14018 O 1370.83 3.04758 -1.84394 0
M  V30 14019 O 1369.69 4.8009 -2.61106 0
M  V30 14020 H 1366.78 0.742817 -0.363527 0
M  V30 14021 H 1369.33 1.0427 -1.33887 0
M  V30 14022 H 1368.1 2.65771 -2.87196 0
M  V30 14023 H 1367.72 3.68327 -1.49736 0
M  V30 14024 N 1368.72 1.0394 1.18466 0
M  V30 14025 C 1369.97 0.737233 1.87744 0
M  V30 14026 C 1370.28 -0.737891 1.81148 0
M  V30 14027 O 1371.49 -1.15353 2.45776 0
M  V30 14028 C 1369.94 1.26844 3.36806 0
M  V30 14029 C 1369.55 2.7721 3.51935 0
M  V30 14030 C 1371.3 1.04274 4.11494 0
M  V30 14031 C 1369.2 3.23696 4.9495 0
M  V30 14032 H 1368.13 0.272082 0.703198 0
M  V30 14033 H 1370.78 1.25507 1.33866 0
M  V30 14034 H 1369.17 0.67847 3.90145 0
M  V30 14035 H 1370.34 3.41954 3.08875 0
M  V30 14036 H 1368.66 2.98179 2.90652 0
M  V30 14037 H 1371.25 1.3652 5.16978 0
M  V30 14038 H 1371.6 -0.0200645 4.16295 0
M  V30 14039 H 1372.13 1.59726 3.64325 0
M  V30 14040 H 1368.87 4.29351 4.95316 0
M  V30 14041 H 1368.39 2.63687 5.38729 0
M  V30 14042 H 1370.07 3.17645 5.63658 0
M  V30 14043 N 1370.2 -1.34667 0.818693 0
M  V30 14044 C 1371.42 -2.03173 0.416585 0
M  V30 14045 C 1371.85 -1.61261 -0.968321 0
M  V30 14046 O 1371.21 -0.79517 -1.62932 0
M  V30 14047 C 1371.25 -3.56803 0.521884 0
M  V30 14048 O 1370.36 -4.09827 -0.459953 0
M  V30 14049 H 1369.7 -0.6413 0.172136 0
M  V30 14050 H 1372.23 -1.72006 1.10794 0
M  V30 14051 H 1372.24 -4.06073 0.3961 0
M  V30 14052 H 1370.91 -3.86656 1.53198 0
M  V30 14053 H 1369.49 -3.71744 -0.293405 0
M  V30 14054 N 1371.68 -0.573274 -1.46804 0
M  V30 14055 C 1372.59 0.168081 -2.33997 0
M  V30 14056 C 1373.6 0.895652 -1.49178 0
M  V30 14057 O 1374.78 0.860951 -1.8207 0
M  V30 14058 C 1371.84 1.17483 -3.26188 0
M  V30 14059 C 1370.9 0.452956 -4.26904 0
M  V30 14060 C 1370.14 1.41175 -5.1469 0
M  V30 14061 O 1370.36 2.64767 -5.05227 0
M  V30 14062 O 1369.29 0.927472 -5.94711 0
M  V30 14063 H 1373.12 -0.547576 -2.98723 0
M  V30 14064 H 1370.71 -0.333747 -1.45624 0
M  V30 14065 H 1372.59 1.75557 -3.8309 0
M  V30 14066 H 1371.26 1.87213 -2.6407 0
M  V30 14067 H 1370.17 -0.169383 -3.73716 0
M  V30 14068 H 1371.5 -0.203186 -4.9178 0
M  V30 14069 N 1373.15 1.5451 -0.310553 0
M  V30 14070 C 1374.57 1.59543 0.0425296 0
M  V30 14071 C 1374.77 1.32737 1.51602 0
M  V30 14072 O 1373.83 1.10543 2.27016 0
M  V30 14073 C 1375.14 2.98489 -0.364002 0
M  V30 14074 C 1376.69 3.11425 -0.313566 0
M  V30 14075 C 1377.16 4.52695 -0.695064 0
M  V30 14076 N 1378.65 4.58645 -0.647966 0
M  V30 14077 C 1379.39 5.66044 -0.915508 0
M  V30 14078 N 1378.88 6.81439 -1.24951 0
M  V30 14079 N 1380.68 5.55759 -0.841933 0
M  V30 14080 H 1372.83 1.70194 -1.27074 0
M  V30 14081 H 1375.09 0.795374 -0.515833 0
M  V30 14082 H 1374.8 3.23061 -1.39012 0
M  V30 14083 H 1374.67 3.76177 0.27756 0
M  V30 14084 H 1377.06 2.86596 0.703326 0
M  V30 14085 H 1377.14 2.35871 -0.989883 0
M  V30 14086 H 1376.78 4.78255 -1.70981 0
M  V30 14087 H 1376.71 5.266 0.00342684 0
M  V30 14088 H 1379.2 3.75765 -0.401137 0
M  V30 14089 H 1379.52 7.59277 -1.43938 0
M  V30 14090 H 1377.86 6.82968 -1.28764 0
M  V30 14091 H 1381.05 4.64486 -0.58058 0
M  V30 14092 H 1381.23 6.39374 -1.0538 0
M  V30 14093 N 1374.63 0.0384594 1.57553 0
M  V30 14094 C 1375.56 -0.938444 2.13812 0
M  V30 14095 C 1376.54 -1.33307 1.05657 0
M  V30 14096 O 1377.73 -1.41003 1.33535 0
M  V30 14097 C 1374.86 -2.21764 2.67279 0
M  V30 14098 C 1373.81 -1.96347 3.80305 0
M  V30 14099 C 1373.14 -3.30612 4.20238 0
M  V30 14100 C 1374.44 -1.2952 5.05986 0
M  V30 14101 H 1376.13 -0.469887 2.9569 0
M  V30 14102 H 1373.68 -0.224576 1.42238 0
M  V30 14103 H 1375.63 -2.90493 3.05273 0
M  V30 14104 H 1374.36 -2.70802 1.82576 0
M  V30 14105 H 1373.02 -1.30033 3.42764 0
M  V30 14106 H 1372.66 -3.77427 3.32502 0
M  V30 14107 H 1372.36 -3.14409 4.96408 0
M  V30 14108 H 1373.89 -4.00594 4.60822 0
M  V30 14109 H 1375.3 -1.88264 5.41507 0
M  V30 14110 H 1373.7 -1.23685 5.87216 0
M  V30 14111 H 1374.77 -0.269439 4.84151 0
M  V30 14112 N 1376.11 -1.55841 -0.234795 0
M  V30 14113 C 1377.07 -1.9051 -1.2743 0
M  V30 14114 C 1378.07 -0.782543 -1.40474 0
M  V30 14115 O 1379.26 -1.05043 -1.38966 0
M  V30 14116 C 1376.4 -2.14424 -2.65019 0
M  V30 14117 H 1377.59 -2.83471 -0.979003 0
M  V30 14118 H 1375.14 -1.48919 -0.47463 0
M  V30 14119 H 1375.88 -1.23972 -2.99669 0
M  V30 14120 H 1375.66 -2.96191 -2.56931 0
M  V30 14121 H 1377.15 -2.42388 -3.40056 0
M  V30 14122 N 1377.59 0.500963 -1.49426 0
M  V30 14123 C 1378.81 1.28383 -1.62888 0
M  V30 14124 C 1379.24 1.85688 -0.300262 0
M  V30 14125 O 1378.6 1.6586 0.73212 0
M  V30 14126 C 1378.65 2.38987 -2.70033 0
M  V30 14127 O 1377.75 3.42837 -2.29208 0
M  V30 14128 H 1377.09 0.379012 -0.545202 0
M  V30 14129 H 1379.62 0.59971 -1.95613 0
M  V30 14130 H 1379.63 2.84749 -2.92202 0
M  V30 14131 H 1378.31 1.96643 -3.66475 0
M  V30 14132 H 1376.88 3.02993 -2.1737 0
M  V30 14133 N 1379.07 1.38501 0.752011 0
M  V30 14134 C 1380.32 1.34112 1.50655 0
M  V30 14135 C 1380.63 -0.0657661 1.95489 0
M  V30 14136 O 1381.84 -0.232199 2.70505 0
M  V30 14137 C 1380.29 2.35514 2.72142 0
M  V30 14138 C 1379.9 3.81831 2.34326 0
M  V30 14139 C 1381.64 2.40171 3.50026 0
M  V30 14140 C 1379.55 4.74915 3.52434 0
M  V30 14141 H 1378.48 0.498519 0.565681 0
M  V30 14142 H 1381.13 1.64064 0.821913 0
M  V30 14143 H 1379.51 1.98607 3.42595 0
M  V30 14144 H 1380.69 4.27685 1.7153 0
M  V30 14145 H 1379 3.80308 1.69573 0
M  V30 14146 H 1381.6 3.06913 4.37845 0
M  V30 14147 H 1381.94 1.42111 3.91293 0
M  V30 14148 H 1382.48 2.75884 2.86588 0
M  V30 14149 H 1379.21 5.74176 3.16232 0
M  V30 14150 H 1378.73 4.33753 4.14268 0
M  V30 14151 H 1380.41 4.93003 4.18995 0
M  V30 14152 N 1380.55 -0.980364 1.23396 0
M  V30 14153 C 1381.77 -1.76223 1.09363 0
M  V30 14154 C 1382.2 -1.84801 -0.350759 0
M  V30 14155 O 1381.55 -1.30966 -1.2537 0
M  V30 14156 C 1381.6 -3.16728 1.72383 0
M  V30 14157 O 1380.71 -4.00439 0.986002 0
M  V30 14158 H 1380.05 -0.542174 0.383332 0
M  V30 14159 H 1382.58 -1.23066 1.6345 0
M  V30 14160 H 1382.59 -3.67307 1.77623 0
M  V30 14161 H 1381.26 -3.098 2.77483 0
M  V30 14162 H 1379.84 -3.58946 1.01054 0
M  V30 14163 N 1382.02 -1.04567 -1.17913 0
M  V30 14164 C 1383.27 -0.753137 -1.88297 0
M  V30 14165 C 1383.6 0.717651 -1.80453 0
M  V30 14166 O 1382.88 1.5242 -1.20824 0
M  V30 14167 C 1383.16 -1.22626 -3.38578 0
M  V30 14168 C 1383.01 -2.75952 -3.55205 0
M  V30 14169 C 1384.33 -0.82029 -4.32388 0
M  V30 14170 H 1381.45 -0.275067 -0.683745 0
M  V30 14171 H 1384.09 -1.29856 -1.38699 0
M  V30 14172 H 1382.24 -0.762246 -3.80949 0
M  V30 14173 H 1383.92 -3.30429 -3.21892 0
M  V30 14174 H 1382.16 -3.15534 -2.97693 0
M  V30 14175 H 1382.83 -3.04116 -4.60671 0
M  V30 14176 H 1385.31 -1.21965 -3.97824 0
M  V30 14177 H 1384.18 -1.17902 -5.36088 0
M  V30 14178 H 1384.44 0.276205 -4.41236 0
M  V30 14179 N 1383.5 1.34231 -0.825823 0
M  V30 14180 C 1384.75 1.97805 -0.414456 0
M  V30 14181 C 1385.07 1.65786 1.02664 0
M  V30 14182 O 1384.34 0.950069 1.7132 0
M  V30 14183 H 1382.92 0.73173 -0.150265 0
M  V30 14184 H 1385.58 1.63819 -1.05591 0
M  V30 14185 H 1384.68 3.07466 -0.535829 0
M  V30 14186 N 1384.98 0.581051 1.46498 0
M  V30 14187 C 1386.39 0.154032 1.86064 0
M  V30 14188 C 1386.74 -1.28247 1.48483 0
M  V30 14189 O 1385.87 -1.96845 0.898945 0
M  V30 14190 C 1386.46 0.272764 3.377 0
M  V30 14191 C 1385.02 -0.0993724 3.76269 0
M  V30 14192 C 1384.17 0.60947 2.70519 0
M  V30 14193 H 1387.12 0.78937 1.37676 0
M  V30 14194 H 1387.14 -0.502326 3.7717 0
M  V30 14195 H 1386.65 1.31837 3.65021 0
M  V30 14196 H 1384.75 -1.14517 3.54565 0
M  V30 14197 H 1384.87 0.275791 4.78306 0
M  V30 14198 H 1383.23 0.0499083 2.54651 0
M  V30 14199 H 1384.01 1.65669 3.0068 0
M  V30 14200 N 1386.46 -1.54343 0.318742 0
M  V30 14201 C 1387.68 -2.05361 -0.290126 0
M  V30 14202 C 1388.11 -1.19362 -1.45376 0
M  V30 14203 O 1387.47 -0.201639 -1.80175 0
M  V30 14204 C 1387.51 -3.53601 -0.707025 0
M  V30 14205 O 1386.62 -3.70561 -1.80992 0
M  V30 14206 H 1385.96 -0.661858 -0.0532933 0
M  V30 14207 H 1388.49 -1.99228 0.46575 0
M  V30 14208 H 1388.5 -3.95782 -0.991005 0
M  V30 14209 H 1387.17 -4.1565 0.144091 0
M  V30 14210 H 1385.75 -3.40286 -1.52513 0
M  V30 14211 N 1387.94 -0.0468143 -1.5753 0
M  V30 14212 C 1389.16 0.641161 -1.97241 0
M  V30 14213 C 1389.59 1.6384 -0.92401 0
M  V30 14214 O 1388.94 1.80946 0.113229 0
M  V30 14215 C 1388.99 1.30832 -3.36029 0
M  V30 14216 O 1388.1 2.42394 -3.33645 0
M  V30 14217 H 1387.44 0.167035 -0.642647 0
M  V30 14218 H 1389.97 -0.113921 -2.04283 0
M  V30 14219 H 1389.98 1.66102 -3.72658 0
M  V30 14220 H 1388.65 0.57744 -4.11872 0
M  V30 14221 H 1387.23 2.09104 -3.08756 0
M  V30 14222 N 1389.41 1.55964 0.226527 0
M  V30 14223 C 1390.64 1.83168 0.972846 0
M  V30 14224 C 1391.06 0.626512 1.7736 0
M  V30 14225 O 1390.42 -0.42468 1.76256 0
M  V30 14226 C 1390.47 3.08315 1.87014 0
M  V30 14227 O 1389.57 2.8666 2.96479 0
M  V30 14228 H 1388.92 0.604041 0.275736 0
M  V30 14229 H 1391.45 2.03172 0.241345 0
M  V30 14230 H 1391.46 3.38288 2.28091 0
M  V30 14231 H 1390.13 3.95663 1.28154 0
M  V30 14232 H 1388.71 2.67907 2.59384 0
M  V30 14233 N 1390.89 -0.493031 1.4969 0
M  V30 14234 C 1392.12 -1.27046 1.633 0
M  V30 14235 C 1392.54 -1.86278 0.307534 0
M  V30 14236 O 1391.89 -1.68208 -0.707968 0
M  V30 14237 C 1391.94 -2.39501 2.70779 0
M  V30 14238 O 1391.66 -1.82702 3.98185 0
M  V30 14239 C 1393.17 -3.30744 2.95166 0
M  V30 14240 H 1390.39 -0.385042 0.54953 0
M  V30 14241 H 1392.93 -0.590998 1.95774 0
M  V30 14242 H 1391.08 -3.03263 2.41061 0
M  V30 14243 H 1391.5 -2.56588 4.57452 0
M  V30 14244 H 1392.97 -4.05912 3.74085 0
M  V30 14245 H 1393.45 -3.88217 2.05387 0
M  V30 14246 H 1394.06 -2.72741 3.26332 0
M  V30 14247 N 1392.37 -1.38898 -0.744656 0
M  V30 14248 C 1393.6 -1.38848 -1.53391 0
M  V30 14249 C 1394.01 0.0194949 -1.8879 0
M  V30 14250 O 1393.37 0.988399 -1.53417 0
M  V30 14251 C 1393.42 -2.25243 -2.8275 0
M  V30 14252 O 1393.14 -3.60557 -2.48858 0
M  V30 14253 C 1394.64 -2.33471 -3.76837 0
M  V30 14254 H 1391.86 -0.4746 -0.474338 0
M  V30 14255 H 1394.41 -1.82591 -0.920902 0
M  V30 14256 H 1392.56 -1.84938 -3.40407 0
M  V30 14257 H 1392.98 -4.06142 -3.31887 0
M  V30 14258 H 1394.45 -2.9819 -4.64528 0
M  V30 14259 H 1394.93 -1.351 -4.17905 0
M  V30 14260 H 1395.53 -2.74205 -3.25103 0
M  V30 14261 N 1393.85 0.973806 -1.23914 0
M  V30 14262 C 1395.08 1.75107 -1.10206 0
M  V30 14263 C 1395.49 1.85604 0.345935 0
M  V30 14264 O 1394.85 1.33996 1.239 0
M  V30 14265 C 1394.9 3.17466 -1.72909 0
M  V30 14266 O 1394.62 3.07504 -3.12047 0
M  V30 14267 C 1396.12 4.11557 -1.6473 0
M  V30 14268 H 1393.34 0.549318 -0.385345 0
M  V30 14269 H 1395.89 1.22301 -1.63898 0
M  V30 14270 H 1394.04 3.67277 -1.23234 0
M  V30 14271 H 1394.45 3.97169 -3.42575 0
M  V30 14272 H 1395.93 5.09126 -2.13295 0
M  V30 14273 H 1396.41 4.3498 -0.607352 0
M  V30 14274 H 1397.01 3.67653 -2.13802 0
M  V30 14275 N 1395.33 1.05191 1.17357 0
M  V30 14276 C 1396.55 0.782373 1.91537 0
M  V30 14277 C 1396.97 -0.661935 1.76816 0
M  V30 14278 O 1396.33 -1.45221 1.10531 0
M  V30 14279 C 1396.38 1.15357 3.426 0
M  V30 14280 O 1396.1 2.54119 3.56869 0
M  V30 14281 C 1397.6 0.910167 4.33856 0
M  V30 14282 H 1394.82 0.284461 0.607719 0
M  V30 14283 H 1397.36 1.40259 1.48821 0
M  V30 14284 H 1395.52 0.578107 3.83062 0
M  V30 14285 H 1395.93 2.68668 4.50464 0
M  V30 14286 H 1397.41 1.21964 5.38358 0
M  V30 14287 H 1397.88 -0.154624 4.38928 0
M  V30 14288 H 1398.49 1.46947 3.99107 0
M  V30 14289 N 1396.8 -1.33791 0.83293 0
M  V30 14290 C 1398.03 -2.02187 0.439077 0
M  V30 14291 C 1398.45 -1.62692 -0.957958 0
M  V30 14292 O 1397.8 -0.837302 -1.62159 0
M  V30 14293 C 1397.86 -3.57395 0.543232 0
M  V30 14294 O 1397.58 -3.95463 1.88522 0
M  V30 14295 C 1399.08 -4.43061 0.145567 0
M  V30 14296 H 1396.3 -0.64778 0.174992 0
M  V30 14297 H 1398.84 -1.7085 1.12386 0
M  V30 14298 H 1397 -3.87287 -0.0935746 0
M  V30 14299 H 1397.41 -4.90164 1.86653 0
M  V30 14300 H 1398.88 -5.51342 0.269507 0
M  V30 14301 H 1399.36 -4.29628 -0.911934 0
M  V30 14302 H 1399.97 -4.18517 0.756572 0
M  V30 14303 N 1398.28 -0.588812 -1.46187 0
M  V30 14304 C 1399.51 -0.0825301 -2.06735 0
M  V30 14305 C 1399.93 1.22507 -1.43658 0
M  V30 14306 O 1399.28 1.74203 -0.544022 0
M  V30 14307 C 1399.33 0.083501 -3.61404 0
M  V30 14308 O 1399.05 -1.17235 -4.22123 0
M  V30 14309 C 1400.56 0.623425 -4.38894 0
M  V30 14310 H 1397.78 -0.0602413 -0.66829 0
M  V30 14311 H 1400.32 -0.811215 -1.87722 0
M  V30 14312 H 1398.47 0.762432 -3.79823 0
M  V30 14313 H 1398.89 -0.990047 -5.15071 0
M  V30 14314 H 1400.36 0.688755 -5.47686 0
M  V30 14315 H 1400.84 1.64172 -4.07362 0
M  V30 14316 H 1401.45 -0.0208373 -4.25295 0
M  V30 14317 N 1399.76 1.54172 -0.326923 0
M  V30 14318 C 1400.99 2.05044 0.276508 0
M  V30 14319 C 1401.4 1.20288 1.45521 0
M  V30 14320 O 1400.76 0.234324 1.80989 0
M  V30 14321 C 1400.81 3.54505 0.707714 0
M  V30 14322 O 1400.53 4.36042 -0.424098 0
M  V30 14323 C 1402.03 4.21482 1.3736 0
M  V30 14324 H 1399.25 0.668632 0.0563273 0
M  V30 14325 H 1401.8 1.98929 -0.474087 0
M  V30 14326 H 1399.95 3.60896 1.40828 0
M  V30 14327 H 1400.37 5.24433 -0.0836846 0
M  V30 14328 H 1401.84 5.27501 1.62623 0
M  V30 14329 H 1402.32 3.72802 2.32196 0
M  V30 14330 H 1402.92 4.19238 0.715526 0
M  V30 14331 N 1401.24 0.0551678 1.57503 0
M  V30 14332 C 1402.47 -0.6272 1.97164 0
M  V30 14333 C 1402.88 -1.64143 0.932876 0
M  V30 14334 O 1402.24 -1.82314 -0.0824465 0
M  V30 14335 C 1402.29 -1.31057 3.36907 0
M  V30 14336 O 1402.01 -0.336951 4.36802 0
M  V30 14337 C 1403.51 -2.08232 3.91349 0
M  V30 14338 H 1400.73 -0.171196 0.648793 0
M  V30 14339 H 1403.28 0.122651 2.04132 0
M  V30 14340 H 1401.43 -2.01162 3.31078 0
M  V30 14341 H 1401.84 -0.825204 5.17968 0
M  V30 14342 H 1403.32 -2.51463 4.91397 0
M  V30 14343 H 1403.8 -2.93212 3.26991 0
M  V30 14344 H 1404.4 -1.43029 4.00528 0
M  V30 14345 N 1402.72 -1.56081 -0.218252 0
M  V30 14346 C 1403.63 -1.95856 -1.29141 0
M  V30 14347 C 1404.64 -0.862857 -1.51099 0
M  V30 14348 O 1405.82 -1.1667 -1.64165 0
M  V30 14349 C 1402.88 -2.27005 -2.62049 0
M  V30 14350 C 1401.94 -3.50162 -2.48365 0
M  V30 14351 C 1401.18 -3.79815 -3.74935 0
M  V30 14352 O 1401.4 -3.11095 -4.78096 0
M  V30 14353 O 1400.33 -4.73299 -3.71849 0
M  V30 14354 H 1404.16 -2.8732 -0.983922 0
M  V30 14355 H 1401.75 -1.43334 -0.421385 0
M  V30 14356 H 1403.63 -2.4822 -3.40536 0
M  V30 14357 H 1402.3 -1.38715 -2.92472 0
M  V30 14358 H 1401.21 -3.34222 -1.68066 0
M  V30 14359 H 1402.54 -4.38845 -2.22881 0
M  V30 14360 N 1404.2 0.485086 -1.49949 0
M  V30 14361 C 1405.13 1.60191 -1.63926 0
M  V30 14362 C 1406.14 1.5423 -0.521256 0
M  V30 14363 O 1407.33 1.59872 -0.79392 0
M  V30 14364 C 1404.43 2.99035 -1.59472 0
M  V30 14365 C 1403.6 3.30014 -2.87071 0
M  V30 14366 C 1402.66 4.48345 -2.75451 0
M  V30 14367 O 1401.69 4.49342 -3.494 0
M  V30 14368 N 1402.89 5.49192 -1.88064 0
M  V30 14369 H 1405.65 1.48622 -2.60253 0
M  V30 14370 H 1403.22 0.673258 -1.47237 0
M  V30 14371 H 1405.21 3.76142 -1.4933 0
M  V30 14372 H 1403.78 3.04445 -0.709373 0
M  V30 14373 H 1403 2.41652 -3.11445 0
M  V30 14374 H 1404.29 3.47515 -3.71632 0
M  V30 14375 H 1403.68 5.51198 -1.2727 0
M  V30 14376 H 1402.24 6.25338 -1.83835 0
M  V30 14377 N 1405.67 1.39291 0.737279 0
M  V30 14378 C 1407.08 1.32489 1.31543 0
M  V30 14379 C 1407.44 -0.0118162 1.96196 0
M  V30 14380 O 1406.56 -0.913938 1.96153 0
M  V30 14381 C 1407.16 2.39946 2.39189 0
M  V30 14382 C 1405.71 2.36671 2.92684 0
M  V30 14383 C 1404.86 2.21953 1.66229 0
M  V30 14384 H 1407.81 1.49412 0.534954 0
M  V30 14385 H 1407.83 2.06603 3.19524 0
M  V30 14386 H 1407.35 3.3722 1.92104 0
M  V30 14387 H 1405.45 1.43028 3.44055 0
M  V30 14388 H 1405.56 3.31441 3.45953 0
M  V30 14389 H 1403.92 1.69087 1.90478 0
M  V30 14390 H 1404.71 3.21194 1.21199 0
M  V30 14391 N 1407.15 -0.967221 1.24429 0
M  V30 14392 C 1408.1 -2.06187 1.03709 0
M  V30 14393 C 1409.07 -1.66025 -0.0497665 0
M  V30 14394 O 1410.25 -1.90511 0.104951 0
M  V30 14395 C 1407.39 -3.38952 0.648477 0
M  V30 14396 C 1406.51 -3.92306 1.80886 0
M  V30 14397 C 1405.64 -5.13342 1.36579 0
M  V30 14398 C 1404.68 -5.58893 2.49609 0
M  V30 14399 N 1403.82 -6.71148 2.06165 0
M  V30 14400 H 1408.66 -2.23244 1.97399 0
M  V30 14401 H 1406.19 -1.09415 0.983192 0
M  V30 14402 H 1408.15 -4.15237 0.40419 0
M  V30 14403 H 1406.78 -3.21819 -0.25142 0
M  V30 14404 H 1405.83 -3.12656 2.1668 0
M  V30 14405 H 1407.15 -4.22071 2.65815 0
M  V30 14406 H 1406.3 -5.97003 1.0804 0
M  V30 14407 H 1405.04 -4.85262 0.487051 0
M  V30 14408 H 1404.04 -4.73805 2.78906 0
M  V30 14409 H 1405.27 -5.88987 3.3804 0
M  V30 14410 H 1403.22 -6.44802 1.20691 0
M  V30 14411 H 1403.13 -7.00366 2.84647 0
M  V30 14412 H 1404.4 -7.5825 1.80769 0
M  V30 14413 N 1408.63 -1.05812 -1.16797 0
M  V30 14414 C 1410.04 -0.79707 -1.6883 0
M  V30 14415 C 1410.39 0.679967 -1.8404 0
M  V30 14416 O 1409.52 1.5279 -1.53245 0
M  V30 14417 C 1410.11 -1.44029 -3.06661 0
M  V30 14418 C 1408.67 -1.22714 -3.55835 0
M  V30 14419 C 1407.82 -1.51988 -2.31937 0
M  V30 14420 H 1410.77 -1.22224 -1.01227 0
M  V30 14421 H 1410.79 -0.852962 -3.70816 0
M  V30 14422 H 1410.3 -2.51529 -2.95559 0
M  V30 14423 H 1408.4 -0.171671 -3.72204 0
M  V30 14424 H 1408.52 -1.93646 -4.38221 0
M  V30 14425 H 1406.88 -0.940215 -2.36711 0
M  V30 14426 H 1407.66 -2.60635 -2.23438 0
M  V30 14427 N 1410.11 1.33347 -0.840014 0
M  V30 14428 C 1411.04 2.27146 -0.219068 0
M  V30 14429 C 1412.02 1.4971 0.634472 0
M  V30 14430 O 1413.2 1.7888 0.594485 0
M  V30 14431 C 1410.33 3.31549 0.692312 0
M  V30 14432 C 1409.38 4.26413 -0.0859186 0
M  V30 14433 S 1410.21 5.15647 -1.44458 0
M  V30 14434 C 1411.36 6.23579 -0.538524 0
M  V30 14435 H 1411.6 2.79464 -1.01426 0
M  V30 14436 H 1409.13 1.40655 -0.636829 0
M  V30 14437 H 1411.09 3.92183 1.21254 0
M  V30 14438 H 1409.75 2.78044 1.46117 0
M  V30 14439 H 1408.94 5.00324 0.60762 0
M  V30 14440 H 1408.54 3.70121 -0.537243 0
M  V30 14441 H 1410.84 6.76989 0.263167 0
M  V30 14442 H 1411.78 6.97019 -1.24782 0
M  V30 14443 H 1412.19 5.64374 -0.119363 0
M  V30 14444 N 1411.59 0.596556 1.45873 0
M  V30 14445 C 1412.83 0.0875879 2.02611 0
M  V30 14446 C 1413.16 -1.27438 1.46538 0
M  V30 14447 O 1412.44 -1.83815 0.635779 0
M  V30 14448 C 1412.72 0.0367394 3.60081 0
M  V30 14449 C 1412.58 1.42859 4.26511 0
M  V30 14450 C 1413.89 -0.656795 4.35171 0
M  V30 14451 H 1411.01 0.0333031 0.736247 0
M  V30 14452 H 1413.66 0.766413 1.73857 0
M  V30 14453 H 1411.81 -0.541345 3.8471 0
M  V30 14454 H 1413.48 2.0529 4.13102 0
M  V30 14455 H 1411.72 1.99243 3.85337 0
M  V30 14456 H 1412.39 1.34535 5.35354 0
M  V30 14457 H 1414.87 -0.165553 4.15771 0
M  V30 14458 H 1413.74 -0.661445 5.449 0
M  V30 14459 H 1414 -1.72079 4.07236 0
M  V30 14460 N 1413.06 -1.53996 0.335095 0
M  V30 14461 C 1414 -2.22258 -0.559809 0
M  V30 14462 C 1415.01 -1.22636 -1.07071 0
M  V30 14463 O 1416.2 -1.4904 -0.982312 0
M  V30 14464 C 1413.3 -2.88256 -1.78218 0
M  V30 14465 C 1412.47 -4.14118 -1.40801 0
M  V30 14466 C 1411.53 -4.63603 -2.48915 0
M  V30 14467 O 1410.56 -5.28015 -2.12576 0
M  V30 14468 N 1411.76 -4.3881 -3.80034 0
M  V30 14469 H 1414.52 -2.9969 0.0247521 0
M  V30 14470 H 1412.08 -1.61119 0.158826 0
M  V30 14471 H 1414.08 -3.1828 -2.4996 0
M  V30 14472 H 1412.65 -2.14461 -2.27431 0
M  V30 14473 H 1411.87 -3.90732 -0.521729 0
M  V30 14474 H 1413.15 -4.96005 -1.13388 0
M  V30 14475 H 1412.55 -3.87278 -4.12349 0
M  V30 14476 H 1411.11 -4.73461 -4.47971 0
M  V30 14477 N 1414.54 -0.0635198 -1.57472 0
M  V30 14478 C 1415.77 0.616735 -1.97494 0
M  V30 14479 C 1416.18 1.63646 -0.941568 0
M  V30 14480 O 1415.54 1.82355 0.0727768 0
M  V30 14481 C 1415.59 1.29268 -3.37597 0
M  V30 14482 O 1415.31 0.313781 -4.36975 0
M  V30 14483 C 1416.81 2.06154 -3.92448 0
M  V30 14484 H 1414.03 0.167753 -0.649692 0
M  V30 14485 H 1416.58 -0.133475 -2.04064 0
M  V30 14486 H 1414.73 1.99404 -3.3214 0
M  V30 14487 H 1415.15 0.797723 -5.18398 0
M  V30 14488 H 1416.62 2.48853 -4.92723 0
M  V30 14489 H 1417.1 2.91474 -3.28541 0
M  V30 14490 H 1417.7 1.40903 -4.01281 0
M  V30 14491 N 1416.02 1.56195 0.209972 0
M  V30 14492 C 1416.97 1.93355 1.26026 0
M  V30 14493 C 1417.94 0.792195 1.45991 0
M  V30 14494 O 1419.12 1.04909 1.5937 0
M  V30 14495 C 1416.26 2.26558 2.60318 0
M  V30 14496 C 1415.37 3.53685 2.48055 0
M  V30 14497 C 1414.51 3.76279 3.7495 0
M  V30 14498 C 1413.55 4.96881 3.57457 0
M  V30 14499 N 1412.69 5.15806 4.76328 0
M  V30 14500 H 1417.53 2.82907 0.936357 0
M  V30 14501 H 1415.06 1.40015 0.451022 0
M  V30 14502 H 1417.02 2.43821 3.38537 0
M  V30 14503 H 1415.65 1.40165 2.90781 0
M  V30 14504 H 1414.7 3.44551 1.61211 0
M  V30 14505 H 1416.01 4.42057 2.31056 0
M  V30 14506 H 1415.17 3.93702 4.6161 0
M  V30 14507 H 1413.91 2.86209 3.94887 0
M  V30 14508 H 1412.91 4.79397 2.69181 0
M  V30 14509 H 1414.14 5.88447 3.38979 0
M  V30 14510 H 1412.08 4.28681 4.96557 0
M  V30 14511 H 1412 5.98332 4.62099 0
M  V30 14512 H 1413.27 5.37674 5.64382 0
M  V30 14513 N 1417.5 -0.477127 1.50204 0
M  V30 14514 C 1418.75 -1.22722 1.60573 0
M  V30 14515 C 1419.07 -1.92595 0.305326 0
M  V30 14516 O 1418.34 -1.83836 -0.676842 0
M  V30 14517 H 1416.92 -0.455973 0.591691 0
M  V30 14518 H 1419.58 -0.550915 1.86952 0
M  V30 14519 H 1418.67 -1.97837 2.41385 0
M  V30 14520 N 1418.98 -1.3968 -0.729882 0
M  V30 14521 C 1420.39 -1.21396 -1.0361 0
M  V30 14522 C 1420.59 -0.0791302 -2.01345 0
M  V30 14523 O 1419.65 0.567575 -2.46038 0
M  V30 14524 C 1420.96 -2.55006 -1.59349 0
M  V30 14525 C 1422.51 -2.61896 -1.71405 0
M  V30 14526 C 1422.98 -3.9574 -2.30552 0
M  V30 14527 N 1424.48 -3.97406 -2.37955 0
M  V30 14528 C 1425.21 -4.97745 -2.8467 0
M  V30 14529 N 1424.71 -6.08482 -3.31243 0
M  V30 14530 N 1426.5 -4.85121 -2.83925 0
M  V30 14531 H 1418.65 -2.12242 -0.081787 0
M  V30 14532 H 1420.91 -0.942827 -0.0989005 0
M  V30 14533 H 1420.62 -3.38626 -0.950005 0
M  V30 14534 H 1420.49 -2.75087 -2.58083 0
M  V30 14535 H 1422.88 -1.78656 -2.34874 0
M  V30 14536 H 1422.96 -2.45659 -0.7131 0
M  V30 14537 H 1422.61 -4.79412 -1.67709 0
M  V30 14538 H 1422.54 -4.09299 -3.31334 0
M  V30 14539 H 1425.03 -3.17435 -2.05044 0
M  V30 14540 H 1425.34 -6.8095 -3.65414 0
M  V30 14541 H 1423.68 -6.12068 -3.29239 0
M  V30 14542 H 1426.88 -3.97711 -2.46867 0
M  V30 14543 H 1427.05 -5.63465 -3.20017 0
M  V30 14544 N 1420.45 0.960609 -1.2494 0
M  V30 14545 C 1421.87 1.51915 -1.0853 0
M  V30 14546 C 1422.22 1.93215 0.340949 0
M  V30 14547 O 1421.34 1.78031 1.2302 0
M  V30 14548 C 1421.94 2.76069 -1.96396 0
M  V30 14549 C 1420.5 3.28255 -1.84189 0
M  V30 14550 C 1419.64 2.01124 -1.90905 0
M  V30 14551 H 1422.59 0.778141 -1.38314 0
M  V30 14552 H 1422.61 3.49668 -1.50042 0
M  V30 14553 H 1422.13 2.45979 -3.00193 0
M  V30 14554 H 1420.23 3.6318 -0.832518 0
M  V30 14555 H 1420.34 3.96675 -2.68673 0
M  V30 14556 H 1418.7 2.16155 -1.34718 0
M  V30 14557 H 1419.49 1.73389 -2.96295 0
M  V30 14558 N 1421.93 1.0643 1.16234 0
M  V30 14559 C 1422.88 0.646274 2.18649 0
M  V30 14560 C 1423.87 -0.323768 1.57609 0
M  V30 14561 O 1425.06 -0.138991 1.76453 0
M  V30 14562 C 1422.19 0.0356797 3.43281 0
M  V30 14563 C 1421.27 1.0303 4.11395 0
M  V30 14564 N 1421.66 2.2064 4.55139 0
M  V30 14565 C 1419.96 0.861544 4.376 0
M  V30 14566 C 1420.66 2.83665 5.07848 0
M  V30 14567 N 1419.64 2.11384 5.00817 0
M  V30 14568 H 1423.44 1.54217 2.50189 0
M  V30 14569 H 1420.96 0.936176 1.32701 0
M  V30 14570 H 1422.95 -0.281637 4.15948 0
M  V30 14571 H 1421.61 -0.855453 3.13228 0
M  V30 14572 H 1422.62 2.58409 4.48826 0
M  V30 14573 H 1419.3 0.0225171 4.17494 0
M  V30 14574 H 1420.69 3.83473 5.51723 0
M  V30 14575 N 1423.41 -1.329 0.847073 0
M  V30 14576 C 1424.64 -2.02244 0.459588 0
M  V30 14577 C 1425.06 -1.63279 -0.933897 0
M  V30 14578 O 1424.42 -0.829551 -1.61208 0
M  V30 14579 C 1424.47 -3.55616 0.59745 0
M  V30 14580 O 1423.57 -4.1071 -0.372919 0
M  V30 14581 H 1422.91 -0.637504 0.1857 0
M  V30 14582 H 1425.44 -1.69617 1.14417 0
M  V30 14583 H 1425.45 -4.05141 0.482145 0
M  V30 14584 H 1424.13 -3.8332 1.61365 0
M  V30 14585 H 1422.7 -3.72283 -0.214487 0
M  V30 14586 N 1424.89 -0.604284 -1.45555 0
M  V30 14587 C 1425.82 0.154579 -2.28678 0
M  V30 14588 C 1426.83 0.83491 -1.39761 0
M  V30 14589 O 1428.02 0.700852 -1.64166 0
M  V30 14590 C 1425.12 1.2397 -3.15412 0
M  V30 14591 C 1424.3 0.647128 -4.32586 0
M  V30 14592 C 1423.35 1.62272 -5.00554 0
M  V30 14593 O 1422.38 1.15031 -5.57455 0
M  V30 14594 N 1423.58 2.9571 -4.99536 0
M  V30 14595 H 1426.35 -0.558668 -2.94447 0
M  V30 14596 H 1423.91 -0.443538 -1.55706 0
M  V30 14597 H 1425.9 1.89209 -3.57746 0
M  V30 14598 H 1424.47 1.85552 -2.51574 0
M  V30 14599 H 1423.69 -0.183261 -3.93774 0
M  V30 14600 H 1424.98 0.231394 -5.08274 0
M  V30 14601 H 1424.38 3.36695 -4.54591 0
M  V30 14602 H 1422.93 3.56381 -5.45744 0
M  V30 14603 N 1426.37 1.53816 -0.343257 0
M  V30 14604 C 1427.61 2.0282 0.253695 0
M  V30 14605 C 1427.97 1.22564 1.47791 0
M  V30 14606 O 1429.17 1.61464 2.14902 0
M  V30 14607 C 1427.44 3.5298 0.560361 0
M  V30 14608 S 1429 4.23889 1.13416 0
M  V30 14609 H 1425.82 0.706976 0.0755344 0
M  V30 14610 H 1428.42 1.89492 -0.480951 0
M  V30 14611 H 1427.13 4.09002 -0.338451 0
M  V30 14612 H 1426.66 3.70426 1.32468 0
M  V30 14613 H 1428.67 4.33192 2.4199 0
M  V30 14614 N 1427.84 0.0718701 1.57436 0
M  V30 14615 C 1428.77 -0.89288 2.15754 0
M  V30 14616 C 1429.76 -1.31036 1.0846 0
M  V30 14617 O 1430.94 -1.38139 1.36496 0
M  V30 14618 C 1428.07 -2.16044 2.71923 0
M  V30 14619 C 1427.02 -1.88236 3.84384 0
M  V30 14620 C 1426.35 -3.21624 4.27156 0
M  V30 14621 C 1427.65 -1.18758 5.0862 0
M  V30 14622 H 1429.34 -0.407061 2.9662 0
M  V30 14623 H 1426.89 -0.194354 1.42682 0
M  V30 14624 H 1428.84 -2.83952 3.11366 0
M  V30 14625 H 1427.57 -2.66868 1.88279 0
M  V30 14626 H 1426.23 -1.22734 3.45445 0
M  V30 14627 H 1425.87 -3.70289 3.40433 0
M  V30 14628 H 1425.57 -3.03809 5.02965 0
M  V30 14629 H 1427.1 -3.90729 4.69215 0
M  V30 14630 H 1428.51 -1.76735 5.45378 0
M  V30 14631 H 1426.91 -1.11201 5.89707 0
M  V30 14632 H 1427.98 -0.166682 4.84613 0
M  V30 14633 N 1429.32 -1.56304 -0.201686 0
M  V30 14634 C 1430.27 -1.94901 -1.26949 0
M  V30 14635 C 1431.26 -0.833574 -1.47472 0
M  V30 14636 O 1432.47 -1.01854 -1.48411 0
M  V30 14637 H 1428.85 -0.619663 -0.426053 0
M  V30 14638 H 1430.82 -2.83964 -0.9169 0
M  V30 14639 C 1429.57 -2.29913 -2.60835 0
M  V30 14640 H 1428.89 -3.15268 -2.45858 0
M  V30 14641 H 1430.33 -2.60789 -3.34313 0
M  V30 14642 C 1428.79 -1.13136 -3.17335 0
M  V30 14643 O 1429.32 -0.402915 -3.99674 0
M  V30 14644 N 1427.52 -0.909912 -2.75987 0
M  V30 14645 H 1427.07 -1.50402 -2.09134 0
M  V30 14646 H 1427.03 -0.130348 -3.1413 0
M  V30 14647 N 1430.8 0.469154 -1.50455 0
M  V30 14648 C 1432.03 1.24899 -1.65575 0
M  V30 14649 C 1432.45 1.85009 -0.339581 0
M  V30 14650 O 1431.81 1.67376 0.696774 0
M  V30 14651 C 1431.86 2.33205 -2.75041 0
M  V30 14652 O 1430.96 3.37898 -2.36429 0
M  V30 14653 H 1430.3 0.367362 -0.553119 0
M  V30 14654 H 1432.83 0.558083 -1.96842 0
M  V30 14655 H 1432.84 2.78487 -2.98176 0
M  V30 14656 H 1431.52 1.88826 -3.70564 0
M  V30 14657 H 1430.09 2.98314 -2.23748 0
M  V30 14658 N 1432.28 1.40065 0.722464 0
M  V30 14659 C 1433.5 1.4146 1.5167 0
M  V30 14660 C 1433.93 0.0142653 1.88095 0
M  V30 14661 O 1433.29 -0.975934 1.52791 0
M  V30 14662 C 1433.33 2.30531 2.77287 0
M  V30 14663 O 1432.44 1.74382 3.73717 0
M  V30 14664 H 1431.78 0.481194 0.457546 0
M  V30 14665 H 1434.31 1.84213 0.890331 0
M  V30 14666 H 1434.32 2.45479 3.25889 0
M  V30 14667 H 1432.99 3.32292 2.50109 0
M  V30 14668 H 1431.57 1.68743 3.32536 0
M  V30 14669 N 1433.76 -0.95397 1.25448 0
M  V30 14670 C 1435.17 -1.51337 1.09335 0
M  V30 14671 C 1435.52 -1.93393 -0.330698 0
M  V30 14672 O 1434.64 -1.78681 -1.22074 0
M  V30 14673 C 1435.24 -2.75024 1.97857 0
M  V30 14674 C 1433.8 -3.27274 1.85927 0
M  V30 14675 C 1432.95 -2.00108 1.91969 0
M  V30 14676 H 1435.9 -0.770795 1.38724 0
M  V30 14677 H 1435.92 -3.48867 1.51894 0
M  V30 14678 H 1435.43 -2.44383 3.01494 0
M  V30 14679 H 1433.53 -3.62734 0.851767 0
M  V30 14680 H 1433.64 -3.95245 2.70773 0
M  V30 14681 H 1432.01 -2.15438 1.35862 0
M  V30 14682 H 1432.79 -1.71816 2.97211 0
M  V30 14683 N 1435.24 -1.07045 -1.15668 0
M  V30 14684 C 1436.17 -0.709413 -2.22463 0
M  V30 14685 C 1437.15 0.30169 -1.67403 0
M  V30 14686 O 1438.33 0.175131 -1.93409 0
M  V30 14687 C 1435.46 -0.103121 -3.47147 0
M  V30 14688 C 1434.42 -1.04103 -4.15146 0
M  V30 14689 C 1433.74 -0.297656 -5.33871 0
M  V30 14690 C 1435.04 -2.37332 -4.65264 0
M  V30 14691 H 1436.74 -1.60227 -2.52918 0
M  V30 14692 H 1434.28 -0.771846 -1.21567 0
M  V30 14693 H 1436.23 0.161371 -4.21091 0
M  V30 14694 H 1434.96 0.824792 -3.16014 0
M  V30 14695 H 1433.62 -1.2904 -3.43139 0
M  V30 14696 H 1433.27 0.633618 -4.98993 0
M  V30 14697 H 1432.97 -0.922789 -5.80309 0
M  V30 14698 H 1434.49 -0.0408892 -6.10586 0
M  V30 14699 H 1435.9 -2.1674 -5.30751 0
M  V30 14700 H 1434.3 -2.95412 -5.22352 0
M  V30 14701 H 1435.37 -2.99859 -3.81068 0
M  V30 14702 N 1436.71 1.32449 -0.85411 0
M  V30 14703 C 1437.94 2.01997 -0.470307 0
M  V30 14704 C 1438.36 1.63772 0.925225 0
M  V30 14705 O 1437.72 0.838089 1.60766 0
M  V30 14706 C 1437.77 3.55294 -0.616301 0
M  V30 14707 O 1436.87 4.10902 0.351133 0
M  V30 14708 H 1436.21 0.63651 -0.189079 0
M  V30 14709 H 1438.74 1.69008 -1.15315 0
M  V30 14710 H 1438.75 4.0488 -0.503624 0
M  V30 14711 H 1437.43 3.82459 -1.63396 0
M  V30 14712 H 1436.01 3.72391 0.194741 0
M  V30 14713 N 1438.19 0.611994 1.45232 0
M  V30 14714 C 1439.14 -0.125771 2.27653 0
M  V30 14715 C 1440.13 -0.834397 1.37574 0
M  V30 14716 O 1441.32 -0.72366 1.61531 0
M  V30 14717 C 1438.45 -1.11955 3.24532 0
M  V30 14718 C 1437.53 -0.411537 4.22099 0
M  V30 14719 N 1437.92 0.549272 5.02809 0
M  V30 14720 C 1436.22 -0.658514 4.41112 0
M  V30 14721 C 1436.92 0.965836 5.73626 0
M  V30 14722 N 1435.9 0.308649 5.42723 0
M  V30 14723 H 1439.7 0.612115 2.87455 0
M  V30 14724 H 1437.21 0.436003 1.56438 0
M  V30 14725 H 1439.21 -1.66253 3.82316 0
M  V30 14726 H 1437.87 -1.85795 2.6629 0
M  V30 14727 H 1438.88 0.926222 5.0955 0
M  V30 14728 H 1435.56 -1.38125 3.9399 0
M  V30 14729 H 1436.95 1.75853 6.48479 0
M  V30 14730 N 1439.67 -1.53632 0.351409 0
M  V30 14731 C 1440.62 -2.22041 -0.517867 0
M  V30 14732 C 1441.6 -1.21057 -1.0599 0
M  V30 14733 O 1442.8 -1.46569 -0.992298 0
M  V30 14734 C 1439.92 -3.00259 -1.66432 0
M  V30 14735 C 1439.01 -4.08607 -1.13584 0
M  V30 14736 N 1439.4 -5.04727 -0.329217 0
M  V30 14737 C 1437.7 -4.23059 -1.412 0
M  V30 14738 C 1438.4 -5.81685 -0.0415005 0
M  V30 14739 N 1437.38 -5.39875 -0.635288 0
M  V30 14740 H 1441.18 -2.93711 0.105386 0
M  V30 14741 H 1438.69 -1.61623 0.15868 0
M  V30 14742 H 1440.69 -3.47774 -2.29911 0
M  V30 14743 H 1439.35 -2.30117 -2.29077 0
M  V30 14744 H 1440.36 -5.17891 0.0303777 0
M  V30 14745 H 1437.04 -3.64139 -2.04227 0
M  V30 14746 H 1438.43 -6.69128 0.609686 0
M  V30 14747 N 1441.15 -0.0802183 -1.57396 0
M  V30 14748 C 1442.37 0.599179 -1.98556 0
M  V30 14749 C 1442.8 1.61844 -0.958555 0
M  V30 14750 O 1442.16 1.81146 0.0748226 0
M  V30 14751 C 1442.2 1.23675 -3.38728 0
M  V30 14752 O 1441.31 2.35262 -3.38712 0
M  V30 14753 H 1440.65 0.153366 -0.646045 0
M  V30 14754 H 1443.18 -0.157227 -2.03995 0
M  V30 14755 H 1443.19 1.5816 -3.76098 0
M  V30 14756 H 1441.86 0.489946 -4.13004 0
M  V30 14757 H 1440.44 2.02507 -3.13122 0
M  V30 14758 N 1442.63 1.56409 0.193394 0
M  V30 14759 C 1443.56 1.91211 1.26377 0
M  V30 14760 C 1444.57 0.802944 1.41622 0
M  V30 14761 O 1445.76 1.08136 1.42017 0
M  V30 14762 C 1442.86 2.13039 2.63567 0
M  V30 14763 C 1442.03 3.44192 2.69909 0
M  V30 14764 C 1441.09 3.55111 3.88307 0
M  V30 14765 O 1440.12 4.2792 3.75331 0
M  V30 14766 N 1441.32 2.88325 5.03834 0
M  V30 14767 H 1444.08 2.83624 0.968383 0
M  V30 14768 H 1441.65 1.57297 0.383302 0
M  V30 14769 H 1443.64 2.1763 3.41202 0
M  V30 14770 H 1442.21 1.27116 2.85588 0
M  V30 14771 H 1441.43 3.51452 1.78535 0
M  V30 14772 H 1442.72 4.30536 2.71139 0
M  V30 14773 H 1442.11 2.29003 5.17276 0
M  V30 14774 H 1440.67 2.98542 5.7941 0
M  V30 14775 N 1444.1 -0.461169 1.50702 0
M  V30 14776 C 1445.03 -1.56576 1.73223 0
M  V30 14777 C 1446.01 -1.59855 0.581401 0
M  V30 14778 O 1447.2 -1.75964 0.821602 0
M  V30 14779 C 1444.33 -2.94835 1.83548 0
M  V30 14780 C 1443.28 -3.06421 2.98815 0
M  V30 14781 C 1442.61 -4.46425 2.94293 0
M  V30 14782 C 1443.91 -2.82714 4.3917 0
M  V30 14783 H 1445.6 -1.37982 2.65709 0
M  V30 14784 H 1443.15 -0.662362 1.27862 0
M  V30 14785 H 1445.1 -3.72047 1.97887 0
M  V30 14786 H 1443.83 -3.14608 0.876906 0
M  V30 14787 H 1442.49 -2.31644 2.84142 0
M  V30 14788 H 1442.13 -4.63131 1.96262 0
M  V30 14789 H 1441.83 -4.55111 3.71682 0
M  V30 14790 H 1443.36 -5.25644 3.10695 0
M  V30 14791 H 1444.77 -3.4967 4.54317 0
M  V30 14792 H 1443.17 -3.02835 5.18084 0
M  V30 14793 H 1444.24 -1.78492 4.50853 0
M  V30 14794 N 1445.58 -1.40446 -0.715026 0
M  V30 14795 C 1446.51 -1.35159 -1.83868 0
M  V30 14796 C 1447.49 -0.221884 -1.61079 0
M  V30 14797 O 1448.68 -0.405635 -1.84084 0
M  V30 14798 C 1445.8 -1.10358 -3.20217 0
M  V30 14799 C 1444.85 -2.25787 -3.61832 0
M  V30 14800 S 1445.68 -3.88183 -3.68882 0
M  V30 14801 C 1446.84 -3.65647 -5.07989 0
M  V30 14802 H 1447.07 -2.30252 -1.88073 0
M  V30 14803 H 1444.6 -1.26738 -0.881859 0
M  V30 14804 H 1446.56 -0.967343 -3.9894 0
M  V30 14805 H 1445.22 -0.169178 -3.13644 0
M  V30 14806 H 1444.42 -2.04078 -4.60834 0
M  V30 14807 H 1444.02 -2.35717 -2.90368 0
M  V30 14808 H 1446.31 -3.24149 -5.94923 0
M  V30 14809 H 1447.25 -4.64182 -5.34734 0
M  V30 14810 H 1447.66 -2.99322 -4.78609 0
M  V30 14811 N 1447.06 0.947303 -1.25952 0
M  V30 14812 C 1448.31 1.69279 -1.11135 0
M  V30 14813 C 1448.63 1.9139 0.346407 0
M  V30 14814 O 1447.89 1.48786 1.27126 0
M  V30 14815 C 1448.19 3.07652 -1.81892 0
M  V30 14816 C 1447.85 3.05317 -3.31802 0
M  V30 14817 C 1446.52 3.04387 -3.72695 0
M  V30 14818 C 1448.87 2.98088 -4.27543 0
M  V30 14819 C 1446.2 2.93987 -5.07729 0
M  V30 14820 C 1448.55 2.89229 -5.62609 0
M  V30 14821 C 1447.21 2.86639 -6.02822 0
M  V30 14822 H 1446.48 0.619435 -0.40667 0
M  V30 14823 H 1449.13 1.10621 -1.56318 0
M  V30 14824 H 1447.43 3.69898 -1.29161 0
M  V30 14825 H 1449.13 3.6417 -1.67873 0
M  V30 14826 H 1445.72 3.06817 -2.99268 0
M  V30 14827 H 1449.91 2.9792 -3.96935 0
M  V30 14828 H 1445.16 2.90355 -5.38056 0
M  V30 14829 H 1449.34 2.82598 -6.36483 0
M  V30 14830 H 1446.96 2.78336 -7.07413 0
M  V30 14831 N 1448.54 1.07657 1.15099 0
M  V30 14832 C 1449.95 0.823828 1.67541 0
M  V30 14833 C 1450.3 -0.650601 1.85099 0
M  V30 14834 O 1449.43 -1.50333 1.55657 0
M  V30 14835 C 1450.02 1.4889 3.04331 0
M  V30 14836 C 1448.58 1.28359 3.53837 0
M  V30 14837 C 1447.73 1.55659 2.2949 0
M  V30 14838 H 1450.68 1.23819 0.992699 0
M  V30 14839 H 1450.7 0.911848 3.69412 0
M  V30 14840 H 1450.21 2.56199 2.9152 0
M  V30 14841 H 1448.31 0.230864 3.71884 0
M  V30 14842 H 1448.42 2.00593 4.35085 0
M  V30 14843 H 1446.79 0.977755 2.35185 0
M  V30 14844 H 1447.57 2.64157 2.19263 0
M  V30 14845 N 1450.02 -1.31994 0.861122 0
M  V30 14846 C 1450.98 -2.27019 0.315421 0
M  V30 14847 C 1451.98 -1.51864 -0.528575 0
M  V30 14848 O 1453.17 -1.70867 -0.339154 0
M  V30 14849 C 1450.3 -3.36384 -0.553021 0
M  V30 14850 H 1451.49 -2.768 1.1542 0
M  V30 14851 H 1449.05 -1.42776 0.635982 0
M  V30 14852 H 1449.78 -2.91882 -1.41335 0
M  V30 14853 H 1449.57 -3.92067 0.0511919 0
M  V30 14854 H 1451.06 -4.07172 -0.927392 0
M  V30 14855 N 1451.49 -0.619688 -1.44906 0
M  V30 14856 C 1452.42 0.0791121 -2.33366 0
M  V30 14857 C 1453.41 0.846503 -1.47541 0
M  V30 14858 O 1454.59 0.814657 -1.76287 0
M  V30 14859 C 1451.72 1.06901 -3.30438 0
M  V30 14860 C 1450.67 0.41403 -4.25993 0
M  V30 14861 C 1450 1.51303 -5.12846 0
M  V30 14862 C 1451.3 -0.672483 -5.17953 0
M  V30 14863 H 1452.99 -0.659551 -2.92045 0
M  V30 14864 H 1450.54 -0.318623 -1.40431 0
M  V30 14865 H 1452.49 1.56653 -3.912 0
M  V30 14866 H 1451.22 1.83842 -2.69944 0
M  V30 14867 H 1449.88 -0.0627315 -3.66546 0
M  V30 14868 H 1449.52 2.27303 -4.48712 0
M  V30 14869 H 1449.22 1.08022 -5.77586 0
M  V30 14870 H 1450.75 2.01258 -5.76479 0
M  V30 14871 H 1452.16 -0.258542 -5.72717 0
M  V30 14872 H 1450.56 -1.02776 -5.91234 0
M  V30 14873 H 1451.63 -1.54425 -4.59653 0
M  V30 14874 N 1452.97 1.53444 -0.359552 0
M  V30 14875 C 1454.2 2.06058 0.235576 0
M  V30 14876 C 1454.62 1.23175 1.42161 0
M  V30 14877 O 1453.98 0.249338 1.79577 0
M  V30 14878 C 1454.03 3.55351 0.613025 0
M  V30 14879 O 1453.13 3.75229 1.71104 0
M  V30 14880 H 1452.47 0.663038 0.0357266 0
M  V30 14881 H 1455 1.97923 -0.518408 0
M  V30 14882 H 1455.01 3.9827 0.885722 0
M  V30 14883 H 1453.69 4.15122 -0.254243 0
M  V30 14884 H 1452.27 3.4421 1.43437 0
M  V30 14885 N 1454.45 0.0885642 1.57351 0
M  V30 14886 C 1455.68 -0.585238 1.9845 0
M  V30 14887 C 1456.09 -1.62127 0.967483 0
M  V30 14888 O 1455.45 -1.82448 -0.0437565 0
M  V30 14889 C 1455.5 -1.23881 3.39611 0
M  V30 14890 O 1455.22 -0.244223 4.37419 0
M  V30 14891 C 1456.72 -1.99885 3.95678 0
M  V30 14892 H 1453.94 -0.157396 0.652279 0
M  V30 14893 H 1456.49 0.165923 2.03826 0
M  V30 14894 H 1454.64 -1.94094 3.3527 0
M  V30 14895 H 1455.06 -0.715149 5.19602 0
M  V30 14896 H 1456.53 -2.40983 4.9662 0
M  V30 14897 H 1457.01 -2.8621 3.33137 0
M  V30 14898 H 1457.61 -1.34501 4.03472 0
M  V30 14899 N 1455.93 -1.56509 -0.185096 0
M  V30 14900 C 1457.34 -1.71024 -0.748856 0
M  V30 14901 C 1457.69 -0.69681 -1.83409 0
M  V30 14902 O 1456.82 0.144711 -2.15916 0
M  V30 14903 C 1457.41 -3.1008 -1.36513 0
M  V30 14904 C 1455.97 -3.26325 -1.87587 0
M  V30 14905 C 1455.12 -2.66977 -0.749579 0
M  V30 14906 H 1458.07 -1.58649 0.0401175 0
M  V30 14907 H 1458.09 -3.07965 -2.23468 0
M  V30 14908 H 1457.6 -3.83816 -0.575051 0
M  V30 14909 H 1455.7 -2.57522 -2.69283 0
M  V30 14910 H 1455.81 -4.33931 -2.03078 0
M  V30 14911 H 1454.18 -2.26419 -1.16647 0
M  V30 14912 H 1454.96 -3.43288 0.0284301 0
M  V30 14913 N 1457.41 0.45317 -1.50944 0
M  V30 14914 C 1458.63 1.23136 -1.6689 0
M  V30 14915 C 1459.06 1.84639 -0.359185 0
M  V30 14916 O 1458.41 1.68106 0.678983 0
M  V30 14917 C 1458.46 2.30275 -2.77499 0
M  V30 14918 O 1457.57 3.35371 -2.39999 0
M  V30 14919 H 1456.91 0.361475 -0.556984 0
M  V30 14920 H 1459.44 0.537174 -1.97422 0
M  V30 14921 H 1459.45 2.75309 -3.01113 0
M  V30 14922 H 1458.12 1.84885 -3.72546 0
M  V30 14923 H 1456.7 2.95924 -2.26899 0
M  V30 14924 N 1458.88 1.40823 0.707568 0
M  V30 14925 C 1460.11 1.43061 1.50161 0
M  V30 14926 C 1460.53 0.0342144 1.88069 0
M  V30 14927 O 1459.89 -0.959674 1.53818 0
M  V30 14928 C 1459.94 2.33459 2.74826 0
M  V30 14929 O 1459.04 1.78336 3.71847 0
M  V30 14930 H 1458.39 0.48602 0.452417 0
M  V30 14931 H 1460.92 1.85147 0.870742 0
M  V30 14932 H 1460.93 2.48922 3.23267 0
M  V30 14933 H 1459.6 3.34927 2.46571 0
M  V30 14934 H 1458.18 1.7226 3.30728 0
M  V30 14935 N 1460.36 -0.94061 1.26453 0
M  V30 14936 C 1461.59 -1.72654 1.14914 0
M  V30 14937 C 1462.01 -1.85823 -0.291789 0
M  V30 14938 O 1461.37 -1.34888 -1.2114 0
M  V30 14939 C 1461.42 -3.11083 1.82372 0
M  V30 14940 O 1460.52 -3.971 1.1129 0
M  V30 14941 H 1459.86 -0.529704 0.400387 0
M  V30 14942 H 1462.39 -1.17803 1.67283 0
M  V30 14943 H 1462.4 -3.6147 1.89219 0
M  V30 14944 H 1461.08 -3.00815 2.87199 0
M  V30 14945 H 1459.66 -3.5555 1.12423 0
M  V30 14946 N 1461.84 -1.08266 -1.14527 0
M  V30 14947 C 1463.07 -0.83288 -1.89396 0
M  V30 14948 C 1463.48 0.614823 -1.78509 0
M  V30 14949 O 1462.84 1.42239 -1.14343 0
M  V30 14950 C 1462.89 -1.244 -3.39421 0
M  V30 14951 O 1462.61 -2.63491 -3.50006 0
M  V30 14952 C 1464.11 -1.02488 -4.3129 0
M  V30 14953 H 1461.33 -0.300474 -0.599964 0
M  V30 14954 H 1463.88 -1.44155 -1.4505 0
M  V30 14955 H 1462.03 -0.679466 -3.81395 0
M  V30 14956 H 1462.45 -2.80517 -4.43182 0
M  V30 14957 H 1463.92 -1.36194 -5.34935 0
M  V30 14958 H 1464.4 0.0381961 -4.39183 0
M  V30 14959 H 1465 -1.57477 -3.95071 0
M  V30 14960 N 1463.32 1.31536 -0.86811 0
M  V30 14961 C 1464.73 1.78991 -0.530937 0
M  V30 14962 C 1465.08 1.71553 0.952046 0
M  V30 14963 O 1464.21 1.28216 1.74326 0
M  V30 14964 C 1464.8 3.25004 -0.956981 0
M  V30 14965 C 1463.36 3.70362 -0.671495 0
M  V30 14966 C 1462.51 2.52361 -1.14932 0
M  V30 14967 H 1465.46 1.18644 -1.05401 0
M  V30 14968 H 1465.48 3.79477 -0.278883 0
M  V30 14969 H 1464.99 3.30385 -2.03635 0
M  V30 14970 H 1463.09 3.70483 0.39659 0
M  V30 14971 H 1463.21 4.62581 -1.24722 0
M  V30 14972 H 1461.57 2.4826 -0.569144 0
M  V30 14973 H 1462.35 2.60489 -2.23608 0
M  V30 14974 N 1464.8 0.627364 1.44575 0
M  V30 14975 C 1466.02 0.135576 2.06956 0
M  V30 14976 C 1466.45 -1.17922 1.46547 0
M  V30 14977 O 1465.81 -1.72255 0.565509 0
M  V30 14978 C 1465.85 0.030347 3.60587 0
M  V30 14979 O 1464.96 -1.01464 3.99724 0
M  V30 14980 H 1464.3 0.083058 0.658785 0
M  V30 14981 H 1466.83 0.862977 1.8551 0
M  V30 14982 H 1466.84 -0.161461 4.0768 0
M  V30 14983 H 1465.51 0.990285 4.03938 0
M  V30 14984 H 1464.09 -0.797701 3.64268 0
M  V30 14985 N 1466.28 -1.53251 0.367684 0
M  V30 14986 C 1467.52 -2.01585 -0.221679 0
M  V30 14987 C 1467.85 -1.25444 -1.48248 0
M  V30 14988 O 1467.13 -0.348726 -1.91348 0
M  V30 14989 C 1467.41 -3.56449 -0.511507 0
M  V30 14990 C 1467.27 -4.4328 0.763075 0
M  V30 14991 C 1468.58 -4.20113 -1.31121 0
M  V30 14992 H 1465.7 -0.732743 -0.0790954 0
M  V30 14993 H 1468.35 -1.83493 0.492991 0
M  V30 14994 H 1466.5 -3.71996 -1.12033 0
M  V30 14995 H 1468.17 -4.39526 1.40052 0
M  V30 14996 H 1466.41 -4.11164 1.38299 0
M  V30 14997 H 1467.08 -5.4959 0.515215 0
M  V30 14998 H 1469.56 -4.08412 -0.796169 0
M  V30 14999 H 1468.43 -5.28494 -1.48274 0
M  V30 15000 H 1468.69 -3.76316 -2.32032 0
M  V30 15001 N 1467.75 -0.0969077 -1.57302 0
M  V30 15002 C 1469.16 0.431942 -1.81635 0
M  V30 15003 C 1469.52 1.68047 -1.01264 0
M  V30 15004 O 1468.64 2.15036 -0.24256 0
M  V30 15005 C 1469.24 0.790426 -3.29451 0
M  V30 15006 C 1467.79 1.26401 -3.54542 0
M  V30 15007 C 1466.94 0.26158 -2.76063 0
M  V30 15008 H 1469.89 -0.322328 -1.55392 0
M  V30 15009 H 1469.91 1.64981 -3.42873 0
M  V30 15010 H 1469.43 -0.118463 -3.87919 0
M  V30 15011 H 1467.53 2.19055 -3.01406 0
M  V30 15012 H 1467.64 1.22459 -4.63185 0
M  V30 15013 H 1466 0.7441 -2.43588 0
M  V30 15014 H 1466.79 -0.640018 -3.37281 0
M  V30 15015 N 1469.23 1.56605 0.176793 0
M  V30 15016 C 1470.19 1.95109 1.20271 0
M  V30 15017 C 1471.19 0.83414 1.37473 0
M  V30 15018 O 1472.38 1.10128 1.34972 0
M  V30 15019 C 1469.52 2.24112 2.56878 0
M  V30 15020 H 1470.71 2.86909 0.87312 0
M  V30 15021 H 1468.26 1.50578 0.419033 0
M  V30 15022 H 1469 1.35009 2.94861 0
M  V30 15023 H 1468.78 3.05523 2.45761 0
M  V30 15024 H 1470.27 2.54842 3.30825 0
M  V30 15025 N 1470.71 -0.445159 1.51182 0
M  V30 15026 C 1471.96 -1.19288 1.6314 0
M  V30 15027 C 1472.28 -1.91904 0.346109 0
M  V30 15028 O 1471.55 -1.8523 -0.637695 0
M  V30 15029 H 1470.13 -0.443319 0.601229 0
M  V30 15030 H 1472.79 -0.511136 1.88078 0
M  V30 15031 H 1471.89 -1.92672 2.45528 0
M  V30 15032 N 1472.19 -1.41197 -0.700089 0
M  V30 15033 C 1473.42 -1.43658 -1.48896 0
M  V30 15034 C 1473.83 -0.0405771 -1.88756 0
M  V30 15035 O 1473.19 0.93909 -1.56484 0
M  V30 15036 C 1473.24 -2.34125 -2.75441 0
M  V30 15037 O 1472.96 -3.68291 -2.37261 0
M  V30 15038 C 1474.46 -2.45342 -3.69218 0
M  V30 15039 H 1471.68 -0.48945 -0.458999 0
M  V30 15040 H 1474.22 -1.85429 -0.862345 0
M  V30 15041 H 1472.38 -1.95674 -3.34351 0
M  V30 15042 H 1472.79 -4.16495 -3.18798 0
M  V30 15043 H 1474.27 -3.12818 -4.54807 0
M  V30 15044 H 1474.74 -1.48327 -4.13395 0
M  V30 15045 H 1475.35 -2.84409 -3.16214 0
M  V30 15046 N 1473.67 0.933891 -1.2695 0
M  V30 15047 C 1474.63 2.0152 -1.0919 0
M  V30 15048 C 1475.63 1.60755 -0.037865 0
M  V30 15049 O 1476.82 1.71904 -0.281917 0
M  V30 15050 C 1473.95 3.34403 -0.66239 0
M  V30 15051 H 1475.14 2.18706 -2.05201 0
M  V30 15052 H 1472.7 1.11385 -1.0965 0
M  V30 15053 H 1473.43 3.22915 0.299388 0
M  V30 15054 H 1473.22 3.65345 -1.42356 0
M  V30 15055 H 1474.71 4.13826 -0.560187 0
M  V30 15056 N 1475.14 1.08871 1.13951 0
M  V30 15057 C 1476.37 0.842913 1.88951 0
M  V30 15058 C 1476.79 -0.605348 1.78832 0
M  V30 15059 O 1476.14 -1.41631 1.15095 0
M  V30 15060 C 1476.19 1.26198 3.38757 0
M  V30 15061 O 1475.92 2.65344 3.48603 0
M  V30 15062 C 1477.42 1.04773 4.30741 0
M  V30 15063 H 1474.64 0.303651 0.598362 0
M  V30 15064 H 1477.18 1.44922 1.44284 0
M  V30 15065 H 1475.34 0.699682 3.81029 0
M  V30 15066 H 1475.75 2.82863 4.41688 0
M  V30 15067 H 1477.22 1.39029 5.34205 0
M  V30 15068 H 1477.7 -0.0149046 4.39197 0
M  V30 15069 H 1478.31 1.5957 3.9423 0
M  V30 15070 N 1476.62 -1.31073 0.875073 0
M  V30 15071 C 1477.9 -1.91276 0.409015 0
M  V30 15072 C 1478.28 -1.79599 -1.10939 0
M  V30 15073 O 1477.63 -1.2069 -1.94026 0
M  V30 15074 C 1477.84 -3.373 0.896074 0
M  V30 15075 C 1479.18 -4.14397 0.925205 0
M  V30 15076 O 1480.21 -3.46104 0.842069 0
M  V30 15077 O 1479.07 -5.36389 1.0464 0
M  V30 15078 H 1476.16 -0.817755 0.12331 0
M  V30 15079 H 1478.71 -1.39708 0.963322 0
M  V30 15080 H 1477.48 -3.39837 1.93975 0
M  V30 15081 H 1477.1 -3.96307 0.320367 0
M  V30 15082 N 1478.1 -0.635022 -1.4424 0
M  V30 15083 C 1479.35 -0.141276 -2.02307 0
M  V30 15084 C 1479.68 1.23508 -1.49865 0
M  V30 15085 O 1478.95 1.82065 -0.684291 0
M  V30 15086 C 1479.24 -0.132196 -3.59857 0
M  V30 15087 C 1479.09 -1.54117 -4.22573 0
M  V30 15088 C 1480.41 0.541186 -4.3676 0
M  V30 15089 H 1477.53 -0.0528117 -0.735105 0
M  V30 15090 H 1480.17 -0.812239 -1.71763 0
M  V30 15091 H 1478.32 0.439156 -3.8601 0
M  V30 15092 H 1479.99 -2.16171 -4.07514 0
M  V30 15093 H 1478.24 -2.09389 -3.79919 0
M  V30 15094 H 1478.91 -1.48682 -5.31599 0
M  V30 15095 H 1481.38 0.0552603 -4.16063 0
M  V30 15096 H 1480.26 0.516742 -5.46462 0
M  V30 15097 H 1480.52 1.61222 -4.11655 0
M  V30 15098 N 1479.58 1.53054 -0.375806 0
M  V30 15099 C 1480.8 2.06296 0.213708 0
M  V30 15100 C 1481.23 1.24675 1.40846 0
M  V30 15101 O 1480.59 0.268371 1.79303 0
M  V30 15102 C 1480.63 3.55981 0.575301 0
M  V30 15103 O 1479.74 3.77023 1.67115 0
M  V30 15104 H 1479.08 0.66338 0.0286922 0
M  V30 15105 H 1481.61 1.97362 -0.539371 0
M  V30 15106 H 1481.62 3.99187 0.843431 0
M  V30 15107 H 1480.29 4.14829 -0.298258 0
M  V30 15108 H 1478.87 3.45712 1.39778 0
M  V30 15109 N 1481.06 0.105248 1.57248 0
M  V30 15110 C 1482 -0.850012 2.14577 0
M  V30 15111 C 1482.97 -1.27294 1.06703 0
M  V30 15112 O 1484.16 -1.35289 1.34542 0
M  V30 15113 C 1481.3 -2.09993 2.73856 0
M  V30 15114 C 1480.41 -1.72662 3.95995 0
M  V30 15115 C 1479.55 -2.92517 4.43404 0
M  V30 15116 C 1478.59 -2.5136 5.58108 0
M  V30 15117 N 1477.72 -3.64082 6.00324 0
M  V30 15118 H 1482.56 -0.354282 2.95887 0
M  V30 15119 H 1480.1 -0.163192 1.46192 0
M  V30 15120 H 1482.06 -2.83208 3.06348 0
M  V30 15121 H 1480.69 -2.57048 1.95259 0
M  V30 15122 H 1479.74 -0.893754 3.69752 0
M  V30 15123 H 1481.05 -1.38406 4.79213 0
M  V30 15124 H 1480.21 -3.73973 4.77734 0
M  V30 15125 H 1478.94 -3.2999 3.59107 0
M  V30 15126 H 1477.95 -1.68333 5.23397 0
M  V30 15127 H 1479.17 -2.15019 6.44161 0
M  V30 15128 H 1477.12 -4.01255 5.18971 0
M  V30 15129 H 1477.04 -3.33705 6.78363 0
M  V30 15130 H 1478.31 -4.46019 6.39287 0
M  V30 15131 N 1482.53 -1.56697 -0.168486 0
M  V30 15132 C 1483.48 -1.93039 -1.21325 0
M  V30 15133 C 1484.47 -0.799039 -1.39657 0
M  V30 15134 O 1485.66 -1.06226 -1.41581 0
M  V30 15135 C 1482.79 -2.29622 -2.55203 0
M  V30 15136 C 1481.88 -3.49278 -2.40553 0
M  V30 15137 N 1482.27 -4.6644 -1.95622 0
M  V30 15138 C 1480.56 -3.53941 -2.71371 0
M  V30 15139 C 1481.27 -5.48572 -1.93502 0
M  V30 15140 N 1480.24 -4.89693 -2.36012 0
M  V30 15141 H 1484.04 -2.81109 -0.857611 0
M  V30 15142 H 1481.56 -1.5797 -0.376734 0
M  V30 15143 H 1483.55 -2.53854 -3.30702 0
M  V30 15144 H 1482.21 -1.42893 -2.91568 0
M  V30 15145 H 1483.23 -4.90604 -1.65916 0
M  V30 15146 H 1479.9 -2.77697 -3.11754 0
M  V30 15147 H 1481.29 -6.52464 -1.60438 0
M  V30 15148 N 1484.01 0.437135 -1.51416 0
M  V30 15149 C 1485.43 0.773631 -1.39596 0
M  V30 15150 C 1485.63 1.95737 -0.478463 0
M  V30 15151 O 1484.68 2.52413 0.0662971 0
M  V30 15152 C 1486 1.05381 -2.8163 0
M  V30 15153 C 1487.55 1.15824 -2.90782 0
M  V30 15154 C 1488.02 1.47135 -4.33722 0
M  V30 15155 N 1489.51 1.54059 -4.3683 0
M  V30 15156 C 1490.25 1.79858 -5.44462 0
M  V30 15157 N 1489.74 2.03449 -6.62254 0
M  V30 15158 N 1491.54 1.81642 -5.31942 0
M  V30 15159 H 1483.69 -0.342468 -2.09621 0
M  V30 15160 H 1485.95 -0.0908158 -0.94364 0
M  V30 15161 H 1485.66 0.256708 -3.50762 0
M  V30 15162 H 1485.53 1.98139 -3.20968 0
M  V30 15163 H 1487.92 1.94597 -2.21847 0
M  V30 15164 H 1488 0.209663 -2.54939 0
M  V30 15165 H 1487.64 0.688897 -5.03206 0
M  V30 15166 H 1487.57 2.43199 -4.67078 0
M  V30 15167 H 1490.06 1.3773 -3.51907 0
M  V30 15168 H 1490.38 2.22506 -7.40075 0
M  V30 15169 H 1488.72 2.00771 -6.65369 0
M  V30 15170 H 1491.91 1.62731 -4.38903 0
M  V30 15171 H 1492.08 2.01411 -6.15904 0
M  V30 15172 N 1485.49 1.41566 0.692592 0
M  V30 15173 C 1486.42 1.46423 1.81886 0
M  V30 15174 C 1487.4 0.32258 1.67013 0
M  V30 15175 O 1488.59 0.534437 1.86701 0
M  V30 15176 C 1485.72 1.3486 3.20047 0
M  V30 15177 C 1484.67 2.46867 3.49629 0
M  V30 15178 C 1484 2.20369 4.87177 0
M  V30 15179 C 1485.3 3.89205 3.48306 0
M  V30 15180 H 1486.99 2.40683 1.78079 0
M  V30 15181 H 1484.54 1.15845 0.855334 0
M  V30 15182 H 1486.49 1.36869 3.98553 0
M  V30 15183 H 1485.21 0.370859 3.24488 0
M  V30 15184 H 1483.87 2.44146 2.73475 0
M  V30 15185 H 1483.52 1.20931 4.88247 0
M  V30 15186 H 1483.22 2.95426 5.07934 0
M  V30 15187 H 1484.74 2.24099 5.6799 0
M  V30 15188 H 1486.16 3.93626 4.16811 0
M  V30 15189 H 1484.56 4.63969 3.80595 0
M  V30 15190 H 1485.63 4.17144 2.47222 0
M  V30 15191 N 1486.97 -0.927146 1.27443 0
M  V30 15192 C 1487.9 -2.03209 1.06013 0
M  V30 15193 C 1488.91 -1.62792 0.016041 0
M  V30 15194 O 1490.1 -1.76631 0.25766 0
M  V30 15195 C 1487.2 -3.33791 0.586225 0
M  V30 15196 C 1486.38 -4.02897 1.70273 0
M  V30 15197 C 1485.43 -5.11755 1.22447 0
M  V30 15198 O 1484.46 -5.35688 1.92423 0
M  V30 15199 N 1485.66 -5.80444 0.0804162 0
M  V30 15200 H 1488.43 -2.22155 2.01165 0
M  V30 15201 H 1485.99 -1.09757 1.19017 0
M  V30 15202 H 1487.98 -4.03926 0.250161 0
M  V30 15203 H 1486.55 -3.11414 -0.272076 0
M  V30 15204 H 1485.77 -3.26489 2.20905 0
M  V30 15205 H 1487.06 -4.45816 2.45205 0
M  V30 15206 H 1486.46 -5.63454 -0.503635 0
M  V30 15207 H 1485.01 -6.51504 -0.196466 0
M  V30 15208 N 1488.45 -1.09474 -1.13372 0
M  V30 15209 C 1489.69 -0.82945 -1.84295 0
M  V30 15210 C 1490.02 0.646788 -1.83961 0
M  V30 15211 O 1489.29 1.46929 -1.29572 0
M  V30 15212 H 1487.87 -0.303853 -0.682409 0
M  V30 15213 H 1490.53 -1.38298 -1.3733 0
M  V30 15214 H 1489.62 -1.18342 -2.88793 0
M  V30 15215 N 1489.92 1.30607 -0.882012 0
M  V30 15216 C 1491.17 1.96256 -0.498964 0
M  V30 15217 C 1491.5 1.69651 0.951259 0
M  V30 15218 O 1490.75 0.992303 1.68677 0
M  V30 15219 C 1491.05 3.50136 -0.716929 0
M  V30 15220 C 1490.72 3.96785 -2.14178 0
M  V30 15221 C 1489.38 4.09234 -2.53142 0
M  V30 15222 C 1491.73 4.21154 -3.07048 0
M  V30 15223 C 1489.06 4.43411 -3.84192 0
M  V30 15224 C 1491.41 4.56799 -4.37627 0
M  V30 15225 C 1490.08 4.67456 -4.76488 0
M  V30 15226 H 1489.35 0.718153 -0.182584 0
M  V30 15227 H 1491.99 1.55527 -1.1173 0
M  V30 15228 H 1490.3 3.91797 -0.0155388 0
M  V30 15229 H 1492 3.98998 -0.400196 0
M  V30 15230 H 1488.59 3.876 -1.82932 0
M  V30 15231 H 1492.77 4.1102 -2.78167 0
M  V30 15232 H 1488.03 4.49861 -4.14047 0
M  V30 15233 H 1492.2 4.74607 -5.09629 0
M  V30 15234 H 1489.83 4.93694 -5.78074 0
M  V30 15235 N 1491.4 0.642663 1.43901 0
M  V30 15236 C 1492.65 0.149167 2.01148 0
M  V30 15237 C 1492.96 -1.2405 1.51231 0
M  V30 15238 O 1494.17 -1.82864 2.00681 0
M  V30 15239 C 1492.63 0.215891 3.59252 0
M  V30 15240 C 1492.23 1.60759 4.18163 0
M  V30 15241 C 1493.98 -0.220546 4.23927 0
M  V30 15242 C 1491.89 1.62881 5.68528 0
M  V30 15243 H 1490.82 0.0520015 0.752205 0
M  V30 15244 H 1493.47 0.803152 1.6499 0
M  V30 15245 H 1491.85 -0.505409 3.92762 0
M  V30 15246 H 1493.02 2.3534 3.96171 0
M  V30 15247 H 1491.34 1.9891 3.65819 0
M  V30 15248 H 1493.93 -0.224389 5.34229 0
M  V30 15249 H 1494.28 -1.25003 3.97089 0
M  V30 15250 H 1494.81 0.448646 3.95262 0
M  V30 15251 H 1491.55 2.63704 6.00117 0
M  V30 15252 H 1491.07 0.926104 5.92607 0
M  V30 15253 H 1492.75 1.36785 6.32375 0
M  V30 15254 N 1492.88 -1.52852 0.383918 0
M  V30 15255 C 1494.29 -1.86477 -0.0912997 0
M  V30 15256 C 1494.64 -1.30382 -1.46611 0
M  V30 15257 O 1493.77 -0.633042 -2.06934 0
M  V30 15258 C 1494.36 -3.38361 -0.172447 0
M  V30 15259 C 1492.92 -3.71716 -0.591948 0
M  V30 15260 C 1492.07 -2.76176 0.24945 0
M  V30 15261 H 1495.02 -1.46839 0.602006 0
M  V30 15262 H 1495.04 -3.67325 -0.992603 0
M  V30 15263 H 1494.55 -3.79158 0.8283 0
M  V30 15264 H 1492.65 -3.36486 -1.60026 0
M  V30 15265 H 1492.77 -4.77792 -0.353835 0
M  V30 15266 H 1491.13 -2.53106 -0.284469 0
M  V30 15267 H 1491.91 -3.19809 1.24808 0
M  V30 15268 N 1494.36 -0.113586 -1.5719 0
M  V30 15269 C 1495.6 0.548872 -1.96893 0
M  V30 15270 C 1495.96 1.64191 -0.99525 0
M  V30 15271 O 1497.16 2.36289 -1.28145 0
M  V30 15272 C 1495.44 1.07279 -3.40919 0
M  V30 15273 S 1496.99 1.74453 -4.02631 0
M  V30 15274 H 1493.81 0.178565 -0.688212 0
M  V30 15275 H 1496.41 -0.197382 -1.94501 0
M  V30 15276 H 1495.12 0.266019 -4.09537 0
M  V30 15277 H 1494.65 1.85444 -3.46949 0
M  V30 15278 H 1496.66 3.02998 -3.92946 0
M  V30 15279 N 1495.84 1.56784 0.160173 0
M  V30 15280 C 1497.25 1.51153 0.512352 0
M  V30 15281 C 1497.45 0.819774 1.84071 0
M  V30 15282 O 1496.51 0.384789 2.49551 0
M  V30 15283 C 1497.82 2.95906 0.534817 0
M  V30 15284 C 1499.37 3.06773 0.621248 0
M  V30 15285 C 1499.85 4.53006 0.674501 0
M  V30 15286 N 1501.34 4.57298 0.737087 0
M  V30 15287 C 1502.07 5.67805 0.799054 0
M  V30 15288 N 1501.57 6.87916 0.821171 0
M  V30 15289 N 1503.36 5.55804 0.838928 0
M  V30 15290 H 1495.51 2.00157 -0.710712 0
M  V30 15291 H 1497.77 0.91233 -0.257601 0
M  V30 15292 H 1497.48 3.49719 -0.372773 0
M  V30 15293 H 1497.35 3.51152 1.3774 0
M  V30 15294 H 1499.74 2.52987 1.51926 0
M  V30 15295 H 1499.82 2.54593 -0.248224 0
M  V30 15296 H 1499.47 5.07426 -0.219301 0
M  V30 15297 H 1499.4 5.02954 1.56028 0
M  V30 15298 H 1501.89 3.70825 0.727827 0
M  V30 15299 H 1502.2 7.67888 0.869938 0
M  V30 15300 H 1500.55 6.90504 0.789264 0
M  V30 15301 H 1503.74 4.60884 0.818728 0
M  V30 15302 H 1503.91 6.41945 0.883757 0
M  V30 15303 N 1497.32 -0.429099 1.51646 0
M  V30 15304 C 1498.56 -1.17482 1.63954 0
M  V30 15305 C 1498.88 -1.92152 0.36565 0
M  V30 15306 O 1500.08 -2.68991 0.368221 0
M  V30 15307 C 1498.54 -2.13703 2.89585 0
M  V30 15308 C 1498.15 -1.44642 4.24008 0
M  V30 15309 C 1499.89 -2.88657 3.11252 0
M  V30 15310 C 1497.8 -2.39395 5.40781 0
M  V30 15311 H 1496.73 -0.442234 0.610692 0
M  V30 15312 H 1499.38 -0.441088 1.7812 0
M  V30 15313 H 1497.76 -2.90545 2.69071 0
M  V30 15314 H 1498.94 -0.733012 4.54932 0
M  V30 15315 H 1497.25 -0.818084 4.08285 0
M  V30 15316 H 1499.85 -3.59653 3.95669 0
M  V30 15317 H 1500.19 -3.50473 2.24664 0
M  V30 15318 H 1500.72 -2.18919 3.32144 0
M  V30 15319 H 1497.46 -1.82255 6.29653 0
M  V30 15320 H 1496.98 -3.08766 5.14222 0
M  V30 15321 H 1498.66 -3.0035 5.73061 0
M  V30 15322 N 1498.79 -1.41931 -0.685074 0
M  V30 15323 C 1500.2 -1.37279 -1.26536 0
M  V30 15324 C 1500.56 -0.0610089 -1.96105 0
M  V30 15325 O 1499.68 0.840508 -1.9941 0
M  V30 15326 C 1500.28 -2.48658 -2.30119 0
M  V30 15327 C 1498.83 -2.47371 -2.83698 0
M  V30 15328 C 1497.98 -2.2797 -1.57876 0
M  V30 15329 H 1500.93 -1.51294 -0.479132 0
M  V30 15330 H 1500.95 -2.18319 -3.11636 0
M  V30 15331 H 1500.47 -3.44118 -1.79456 0
M  V30 15332 H 1498.57 -1.55699 -3.3851 0
M  V30 15333 H 1498.68 -3.44052 -3.33414 0
M  V30 15334 H 1497.04 -1.7604 -1.84071 0
M  V30 15335 H 1497.83 -3.25471 -1.09194 0
M  V30 15336 N 1500.27 0.920374 -1.27933 0
M  V30 15337 C 1501.5 1.70804 -1.17647 0
M  V30 15338 C 1501.92 1.86264 0.262189 0
M  V30 15339 O 1501.28 1.36798 1.18979 0
M  V30 15340 C 1501.33 3.08142 -1.87298 0
M  V30 15341 O 1500.43 3.95279 -1.17593 0
M  V30 15342 H 1499.77 0.523267 -0.408763 0
M  V30 15343 H 1502.3 1.15127 -1.69136 0
M  V30 15344 H 1502.31 3.58414 -1.94945 0
M  V30 15345 H 1500.99 2.96208 -2.91948 0
M  V30 15346 H 1499.56 3.53716 -1.18065 0
M  V30 15347 N 1501.75 1.10074 1.1279 0
M  V30 15348 C 1502.71 0.74967 2.16593 0
M  V30 15349 C 1503.71 -0.224046 1.59232 0
M  V30 15350 O 1504.9 -0.00137104 1.742 0
M  V30 15351 C 1502.03 0.109795 3.40723 0
M  V30 15352 H 1503.23 1.66906 2.49164 0
M  V30 15353 H 1500.78 0.900781 1.27733 0
M  V30 15354 H 1501.52 -0.820501 3.13749 0
M  V30 15355 H 1501.3 0.810517 3.83631 0
M  V30 15356 H 1502.79 -0.120198 4.17427 0
M  V30 15357 N 1503.23 -1.30138 0.888926 0
M  V30 15358 C 1504.45 -2.00679 0.523697 0
M  V30 15359 C 1504.88 -1.66167 -0.881479 0
M  V30 15360 O 1504.24 -0.880418 -1.58488 0
M  V30 15361 C 1504.28 -3.53535 0.710284 0
M  V30 15362 O 1503.39 -4.11689 -0.242066 0
M  V30 15363 H 1502.73 -0.631273 0.205888 0
M  V30 15364 H 1505.26 -1.65891 1.19756 0
M  V30 15365 H 1505.27 -4.03402 0.610794 0
M  V30 15366 H 1503.94 -3.77992 1.73478 0
M  V30 15367 H 1502.52 -3.72777 -0.0959393 0
M  V30 15368 N 1504.71 -0.650285 -1.43559 0
M  V30 15369 C 1506.12 -0.24263 -1.85117 0
M  V30 15370 C 1506.47 1.21017 -1.54432 0
M  V30 15371 O 1505.59 1.92332 -0.991839 0
M  V30 15372 C 1506.19 -0.433575 -3.36014 0
M  V30 15373 C 1504.75 -0.0802635 -3.76314 0
M  V30 15374 C 1503.89 -0.737844 -2.67303 0
M  V30 15375 H 1506.84 -0.854158 -1.33753 0
M  V30 15376 H 1506.87 0.321801 -3.79137 0
M  V30 15377 H 1506.38 -1.49102 -3.58316 0
M  V30 15378 H 1504.48 0.974703 -3.59625 0
M  V30 15379 H 1504.59 -0.503683 -4.76445 0
M  V30 15380 H 1502.96 -0.171349 -2.54123 0
M  V30 15381 H 1503.74 -1.79826 -2.92434 0
M  V30 15382 N 1506.18 1.52647 -0.392018 0
M  V30 15383 C 1507.12 2.24183 0.476934 0
M  V30 15384 C 1508.13 1.26526 1.02446 0
M  V30 15385 O 1509.32 1.52583 0.92632 0
M  V30 15386 C 1506.42 2.94672 1.67397 0
M  V30 15387 C 1505.59 4.19058 1.25335 0
M  V30 15388 C 1504.65 4.72522 2.31537 0
M  V30 15389 O 1503.68 5.35541 1.92833 0
M  V30 15390 N 1504.88 4.52613 3.63486 0
M  V30 15391 H 1507.64 2.99391 -0.135963 0
M  V30 15392 H 1505.2 1.60419 -0.218514 0
M  V30 15393 H 1507.2 3.27338 2.37975 0
M  V30 15394 H 1505.77 2.22755 2.19315 0
M  V30 15395 H 1504.99 3.92399 0.376352 0
M  V30 15396 H 1506.27 4.99871 0.94901 0
M  V30 15397 H 1505.67 4.02316 3.97692 0
M  V30 15398 H 1504.23 4.89761 4.3009 0
M  V30 15399 N 1507.66 0.121921 1.57128 0
M  V30 15400 C 1508.89 -0.543012 1.99647 0
M  V30 15401 C 1509.31 -1.60038 1.00165 0
M  V30 15402 O 1508.66 -1.82499 -0.00504688 0
M  V30 15403 C 1508.71 -1.1665 3.42162 0
M  V30 15404 O 1508.43 -0.151385 4.37838 0
M  V30 15405 C 1509.94 -1.91447 3.99829 0
M  V30 15406 H 1507.16 -0.143524 0.655471 0
M  V30 15407 H 1509.7 0.20912 2.03428 0
M  V30 15408 H 1507.85 -1.86939 3.39312 0
M  V30 15409 H 1508.27 -0.604773 5.21002 0
M  V30 15410 H 1509.74 -2.30394 5.0162 0
M  V30 15411 H 1510.22 -2.7908 3.39133 0
M  V30 15412 H 1510.83 -1.25913 4.06234 0
M  V30 15413 N 1509.14 -1.56867 -0.151857 0
M  V30 15414 C 1510.07 -1.94494 -1.21263 0
M  V30 15415 C 1511.09 -0.84021 -1.39443 0
M  V30 15416 O 1512.27 -1.11863 -1.391 0
M  V30 15417 C 1509.37 -2.19952 -2.57826 0
M  V30 15418 C 1508.55 -3.51227 -2.60689 0
M  V30 15419 C 1507.61 -3.65282 -3.78756 0
M  V30 15420 O 1506.63 -4.3772 -3.63854 0
M  V30 15421 N 1507.83 -3.01582 -4.96012 0
M  V30 15422 H 1510.6 -2.86092 -0.892845 0
M  V30 15423 H 1508.16 -1.58258 -0.341463 0
M  V30 15424 H 1510.15 -2.266 -3.35312 0
M  V30 15425 H 1508.72 -1.34643 -2.82117 0
M  V30 15426 H 1507.94 -3.56062 -1.69155 0
M  V30 15427 H 1509.23 -4.37574 -2.59628 0
M  V30 15428 H 1508.63 -2.42637 -5.11022 0
M  V30 15429 H 1507.19 -3.13799 -5.71291 0
M  V30 15430 N 1510.62 0.421051 -1.51871 0
M  V30 15431 C 1512.03 0.758781 -1.40409 0
M  V30 15432 C 1512.23 1.95219 -0.499197 0
M  V30 15433 O 1511.29 2.52469 0.0395216 0
M  V30 15434 C 1512.6 1.02388 -2.82731 0
M  V30 15435 C 1514.15 1.12733 -2.91994 0
M  V30 15436 C 1514.63 1.42527 -4.35259 0
M  V30 15437 N 1516.12 1.49417 -4.38439 0
M  V30 15438 C 1516.85 1.74074 -5.46339 0
M  V30 15439 N 1516.35 1.96414 -6.64375 0
M  V30 15440 N 1518.14 1.7599 -5.33839 0
M  V30 15441 H 1510.29 -0.364682 -2.09246 0
M  V30 15442 H 1512.56 -0.100819 -0.942624 0
M  V30 15443 H 1512.26 0.219491 -3.51014 0
M  V30 15444 H 1512.14 1.94724 -3.23052 0
M  V30 15445 H 1514.52 1.92233 -2.23899 0
M  V30 15446 H 1514.6 0.182611 -2.55147 0
M  V30 15447 H 1514.25 0.635486 -5.03909 0
M  V30 15448 H 1514.18 2.38231 -4.69631 0
M  V30 15449 H 1516.67 1.3399 -3.53348 0
M  V30 15450 H 1516.98 2.14644 -7.42393 0
M  V30 15451 H 1515.33 1.93702 -6.67461 0
M  V30 15452 H 1518.52 1.58067 -4.40605 0
M  V30 15453 H 1518.69 1.94868 -6.18005 0
M  V30 15454 N 1512.1 1.42293 0.677538 0
M  V30 15455 C 1513.04 1.45556 1.79114 0
M  V30 15456 C 1514.01 0.307826 1.63223 0
M  V30 15457 O 1515.2 0.511504 1.83816 0
M  V30 15458 C 1512.34 1.36104 3.17127 0
M  V30 15459 C 1511.45 2.60891 3.44325 0
M  V30 15460 C 1510.59 2.43601 4.72051 0
M  V30 15461 C 1509.63 3.63775 4.92274 0
M  V30 15462 N 1508.76 3.45444 6.11239 0
M  V30 15463 H 1513.6 2.40723 1.7566 0
M  V30 15464 H 1511.14 1.19517 0.857565 0
M  V30 15465 H 1513.1 1.28622 3.96878 0
M  V30 15466 H 1511.73 0.445342 3.19713 0
M  V30 15467 H 1510.78 2.78751 2.58848 0
M  V30 15468 H 1512.09 3.50229 3.55163 0
M  V30 15469 H 1511.25 2.33689 5.59888 0
M  V30 15470 H 1509.98 1.51748 4.63491 0
M  V30 15471 H 1508.99 3.74122 4.0288 0
M  V30 15472 H 1510.21 4.56605 5.02681 0
M  V30 15473 H 1508.16 2.56306 6.03857 0
M  V30 15474 H 1508.08 4.28368 6.22926 0
M  V30 15475 H 1509.35 3.39339 7.01762 0
M  V30 15476 N 1513.57 -0.913576 1.28419 0
M  V30 15477 C 1514.82 -1.66273 1.15584 0
M  V30 15478 C 1515.15 -1.92242 -0.295541 0
M  V30 15479 O 1514.4 -1.52104 -1.23137 0
M  V30 15480 C 1514.7 -3.02722 1.89985 0
M  V30 15481 C 1514.37 -2.96413 3.3978 0
M  V30 15482 C 1513.03 -2.94399 3.80635 0
M  V30 15483 C 1515.38 -2.86648 4.35296 0
M  V30 15484 C 1512.71 -2.80422 5.15345 0
M  V30 15485 C 1515.06 -2.74211 5.7008 0
M  V30 15486 C 1513.73 -2.70556 6.1021 0
M  V30 15487 H 1513 -0.608435 0.422951 0
M  V30 15488 H 1515.64 -1.06438 1.59196 0
M  V30 15489 H 1513.95 -3.66344 1.38923 0
M  V30 15490 H 1515.65 -3.59591 1.7747 0
M  V30 15491 H 1512.24 -2.98775 3.07297 0
M  V30 15492 H 1516.42 -2.87291 4.04695 0
M  V30 15493 H 1511.68 -2.75987 5.45565 0
M  V30 15494 H 1515.85 -2.65624 6.43752 0
M  V30 15495 H 1513.48 -2.59483 7.14544 0
M  V30 15496 N 1515.05 -1.1067 -1.12204 0
M  V30 15497 C 1516.28 -0.873095 -1.88127 0
M  V30 15498 C 1516.7 0.571099 -1.79221 0
M  V30 15499 O 1516.06 1.40251 -1.14888 0
M  V30 15500 C 1516.11 -1.32922 -3.35208 0
M  V30 15501 O 1515.21 -0.495807 -4.09409 0
M  V30 15502 H 1514.55 -0.315138 -0.584452 0
M  V30 15503 H 1517.08 -1.47413 -1.41882 0
M  V30 15504 H 1517.09 -1.32023 -3.86049 0
M  V30 15505 H 1515.77 -2.38091 -3.41007 0
M  V30 15506 H 1514.35 -0.570216 -3.68515 0
M  V30 15507 N 1516.53 1.29665 -0.895815 0
M  V30 15508 C 1517.46 2.30268 -0.387151 0
M  V30 15509 C 1518.44 1.61442 0.535768 0
M  V30 15510 O 1519.63 1.88978 0.447321 0
M  V30 15511 C 1516.76 3.45107 0.389639 0
M  V30 15512 C 1515.71 4.25706 -0.442498 0
M  V30 15513 C 1515.04 5.32704 0.461552 0
M  V30 15514 C 1516.34 4.9419 -1.69036 0
M  V30 15515 H 1518.03 2.73064 -1.22786 0
M  V30 15516 H 1515.58 1.31274 -0.591869 0
M  V30 15517 H 1517.53 4.14559 0.756203 0
M  V30 15518 H 1516.25 3.01145 1.2641 0
M  V30 15519 H 1514.91 3.57957 -0.791343 0
M  V30 15520 H 1514.56 4.84987 1.33403 0
M  V30 15521 H 1514.26 5.87529 -0.0915006 0
M  V30 15522 H 1515.78 6.05009 0.824395 0
M  V30 15523 H 1517.2 5.561 -1.39376 0
M  V30 15524 H 1515.6 5.5893 -2.18444 0
M  V30 15525 H 1516.67 4.19699 -2.42859 0
M  V30 15526 N 1518.01 0.657889 1.43212 0
M  V30 15527 C 1518.94 -0.0695999 2.29094 0
M  V30 15528 C 1519.95 -0.782463 1.42763 0
M  V30 15529 O 1521.14 -0.63944 1.66654 0
M  V30 15530 C 1518.24 -1.12178 3.19796 0
M  V30 15531 C 1517.42 -0.486131 4.3469 0
M  V30 15532 C 1516.47 -1.43582 5.06232 0
M  V30 15533 O 1515.5 -0.942622 5.61341 0
M  V30 15534 N 1516.7 -2.76966 5.10167 0
M  V30 15535 H 1519.47 0.667565 2.92171 0
M  V30 15536 H 1517.03 0.501022 1.53953 0
M  V30 15537 H 1519.02 -1.75801 3.64522 0
M  V30 15538 H 1517.59 -1.76087 2.58287 0
M  V30 15539 H 1516.81 0.329281 3.92822 0
M  V30 15540 H 1518.1 -0.0425918 5.08782 0
M  V30 15541 H 1517.5 -3.19592 4.66774 0
M  V30 15542 H 1516.05 -3.3588 5.58595 0
M  V30 15543 N 1519.49 -1.52437 0.400108 0
M  V30 15544 C 1520.73 -2.01711 -0.178605 0
M  V30 15545 C 1521.06 -1.28613 -1.45908 0
M  V30 15546 O 1520.32 -0.378206 -1.92011 0
M  V30 15547 C 1520.62 -3.54133 -0.482141 0
M  V30 15548 C 1520.28 -4.45306 0.70806 0
M  V30 15549 C 1518.94 -4.69947 1.03455 0
M  V30 15550 C 1521.3 -4.99035 1.50379 0
M  V30 15551 C 1518.62 -5.45566 2.15812 0
M  V30 15552 C 1520.98 -5.75883 2.61805 0
M  V30 15553 C 1519.64 -5.98799 2.9495 0
M  V30 15554 H 1518.91 -0.738112 -0.0653562 0
M  V30 15555 H 1521.56 -1.83738 0.539676 0
M  V30 15556 H 1519.86 -3.70237 -1.28188 0
M  V30 15557 H 1521.56 -3.89761 -0.942725 0
M  V30 15558 H 1518.15 -4.26298 0.443599 0
M  V30 15559 H 1522.33 -4.79913 1.26479 0
M  V30 15560 H 1517.59 -5.61532 2.4185 0
M  V30 15561 H 1521.76 -6.16514 3.23857 0
M  V30 15562 H 1519.39 -6.57176 3.8213 0
M  V30 15563 N 1520.96 -0.130252 -1.57061 0
M  V30 15564 C 1521.91 0.827158 -2.12467 0
M  V30 15565 C 1522.9 1.22069 -1.04824 0
M  V30 15566 O 1524.09 1.1899 -1.31036 0
M  V30 15567 C 1521.22 2.07284 -2.73657 0
M  V30 15568 C 1520.31 1.70317 -3.88398 0
M  V30 15569 N 1520.7 1.04082 -4.94975 0
M  V30 15570 C 1518.99 1.99701 -3.98793 0
M  V30 15571 C 1519.7 0.865016 -5.75232 0
M  V30 15572 N 1518.67 1.39359 -5.25433 0
M  V30 15573 H 1522.47 0.311706 -2.92242 0
M  V30 15574 H 1519.99 0.0718523 -1.62241 0
M  V30 15575 H 1521.98 2.76854 -3.11701 0
M  V30 15576 H 1520.64 2.59363 -1.95349 0
M  V30 15577 H 1521.66 0.703501 -5.131 0
M  V30 15578 H 1518.33 2.53747 -3.3154 0
M  V30 15579 H 1519.72 0.344255 -6.71018 0
M  V30 15580 N 1522.44 1.56945 0.143535 0
M  V30 15581 C 1523.86 1.51688 0.496291 0
M  V30 15582 C 1524.06 0.839251 1.83191 0
M  V30 15583 O 1523.12 0.411235 2.49129 0
M  V30 15584 C 1524.43 2.96456 0.503402 0
M  V30 15585 C 1525.98 3.07414 0.588676 0
M  V30 15586 C 1526.45 4.53696 0.626416 0
M  V30 15587 N 1527.94 4.58054 0.688543 0
M  V30 15588 C 1528.68 5.68621 0.738786 0
M  V30 15589 N 1528.17 6.88748 0.748163 0
M  V30 15590 N 1529.97 5.56663 0.779931 0
M  V30 15591 H 1522.12 1.99392 -0.731901 0
M  V30 15592 H 1524.38 0.909546 -0.267263 0
M  V30 15593 H 1524.09 3.49304 -0.409845 0
M  V30 15594 H 1523.96 3.52593 1.34008 0
M  V30 15595 H 1526.35 2.54584 1.49234 0
M  V30 15596 H 1526.43 2.54315 -0.275213 0
M  V30 15597 H 1526.07 5.07165 -0.273108 0
M  V30 15598 H 1526 5.04581 1.50684 0
M  V30 15599 H 1528.49 3.71576 0.688455 0
M  V30 15600 H 1528.81 7.68767 0.788444 0
M  V30 15601 H 1527.15 6.91302 0.715982 0
M  V30 15602 H 1530.34 4.61727 0.769799 0
M  V30 15603 H 1530.52 6.42847 0.815621 0
M  V30 15604 N 1523.92 -0.412991 1.52093 0
M  V30 15605 C 1524.87 -1.52347 1.75765 0
M  V30 15606 C 1525.86 -1.57463 0.624641 0
M  V30 15607 O 1527.07 -1.60916 0.806599 0
M  V30 15608 H 1523.44 -0.50659 0.555761 0
M  V30 15609 H 1525.42 -1.29564 2.68804 0
M  V30 15610 C 1524.16 -2.89757 1.92188 0
M  V30 15611 H 1523.49 -2.86561 2.78788 0
M  V30 15612 H 1524.93 -3.66759 2.12753 0
M  V30 15613 C 1523.39 -3.29801 0.687963 0
M  V30 15614 O 1523.92 -4.01435 -0.145984 0
M  V30 15615 N 1522.12 -2.85819 0.524978 0
M  V30 15616 H 1521.67 -2.27694 1.20471 0
M  V30 15617 H 1521.63 -3.12972 -0.299325 0
M  V30 15618 N 1525.4 -1.4265 -0.669982 0
M  V30 15619 C 1526.64 -1.44866 -1.44199 0
M  V30 15620 C 1527 -0.0647049 -1.91891 0
M  V30 15621 O 1528.2 0.0384187 -2.68773 0
M  V30 15622 C 1526.48 -2.44846 -2.60356 0
M  V30 15623 S 1528.03 -2.65803 -3.49134 0
M  V30 15624 H 1524.85 -0.512859 -0.49244 0
M  V30 15625 H 1527.45 -1.7929 -0.779442 0
M  V30 15626 H 1526.16 -3.44161 -2.23565 0
M  V30 15627 H 1525.69 -2.11863 -3.31478 0
M  V30 15628 H 1527.7 -1.94466 -4.56506 0
M  V30 15629 N 1526.88 0.906753 -1.28902 0
M  V30 15630 C 1528.29 1.47175 -1.14876 0
M  V30 15631 C 1528.64 1.94487 0.258693 0
M  V30 15632 O 1527.76 1.83088 1.15359 0
M  V30 15633 C 1528.36 2.67491 -2.07928 0
M  V30 15634 C 1526.92 3.20148 -1.97946 0
M  V30 15635 C 1526.07 1.92846 -1.99263 0
M  V30 15636 H 1529.02 0.718777 -1.4149 0
M  V30 15637 H 1529.04 3.42989 -1.64738 0
M  V30 15638 H 1528.55 2.33025 -3.10356 0
M  V30 15639 H 1526.65 3.59322 -0.985806 0
M  V30 15640 H 1526.76 3.84923 -2.85256 0
M  V30 15641 H 1525.13 2.10247 -1.43765 0
M  V30 15642 H 1525.91 1.60666 -3.03383 0
M  V30 15643 N 1528.36 1.11264 1.11616 0
M  V30 15644 C 1529.27 0.781961 2.21184 0
M  V30 15645 C 1530.28 -0.224149 1.7255 0
M  V30 15646 O 1531.46 -0.0607743 2.01308 0
M  V30 15647 C 1528.52 0.228031 3.45949 0
M  V30 15648 C 1527.58 1.29251 4.09381 0
M  V30 15649 C 1526.82 0.764921 5.2819 0
M  V30 15650 O 1527.04 -0.405671 5.68956 0
M  V30 15651 O 1525.97 1.52886 5.82159 0
M  V30 15652 H 1529.8 1.69678 2.51879 0
M  V30 15653 H 1527.38 0.888394 1.20116 0
M  V30 15654 H 1529.27 -0.0766085 4.2133 0
M  V30 15655 H 1527.94 -0.659519 3.1691 0
M  V30 15656 H 1526.85 1.65014 3.3574 0
M  V30 15657 H 1528.18 2.15339 4.42595 0
M  V30 15658 N 1529.83 -1.29188 0.902679 0
M  V30 15659 C 1530.78 -2.29597 0.372585 0
M  V30 15660 C 1531.78 -1.609 -0.529858 0
M  V30 15661 O 1532.98 -1.75214 -0.41233 0
M  V30 15662 H 1529.36 -0.745069 0.101864 0
M  V30 15663 H 1531.33 -2.71746 1.23275 0
M  V30 15664 C 1530.08 -3.45594 -0.382128 0
M  V30 15665 H 1529.4 -3.9865 0.303061 0
M  V30 15666 H 1530.84 -4.17879 -0.717852 0
M  V30 15667 C 1529.3 -2.97238 -1.58591 0
M  V30 15668 O 1529.83 -2.98767 -2.68517 0
M  V30 15669 N 1528.03 -2.53032 -1.42909 0
M  V30 15670 H 1527.58 -2.51988 -0.534786 0
M  V30 15671 H 1527.54 -2.21038 -2.23584 0
M  V30 15672 N 1531.31 -0.665475 -1.42861 0
M  V30 15673 C 1532.26 0.0186204 -2.30792 0
M  V30 15674 C 1533.23 0.802249 -1.45441 0
M  V30 15675 O 1534.41 0.776383 -1.7429 0
M  V30 15676 C 1531.55 0.970499 -3.31173 0
M  V30 15677 C 1530.67 0.18168 -4.31618 0
M  V30 15678 C 1529.8 1.12846 -5.19075 0
M  V30 15679 C 1528.84 0.330788 -6.11206 0
M  V30 15680 N 1527.98 1.2298 -6.91246 0
M  V30 15681 H 1532.82 -0.737068 -2.88741 0
M  V30 15682 H 1530.35 -0.375225 -1.42234 0
M  V30 15683 H 1532.31 1.53611 -3.87891 0
M  V30 15684 H 1530.94 1.69292 -2.74845 0
M  V30 15685 H 1529.99 -0.500415 -3.77094 0
M  V30 15686 H 1531.31 -0.438041 -4.96873 0
M  V30 15687 H 1530.46 1.76431 -5.8048 0
M  V30 15688 H 1529.2 1.78208 -4.53975 0
M  V30 15689 H 1528.2 -0.318333 -5.48878 0
M  V30 15690 H 1529.43 -0.318599 -6.78352 0
M  V30 15691 H 1527.38 1.86999 -6.28783 0
M  V30 15692 H 1527.29 0.664933 -7.5307 0
M  V30 15693 H 1528.56 1.85341 -7.57145 0
M  V30 15694 N 1532.79 1.52222 -0.408187 0
M  V30 15695 C 1534.07 1.94285 0.22641 0
M  V30 15696 C 1534.45 1.34501 1.62705 0
M  V30 15697 O 1533.79 0.52045 2.22494 0
M  V30 15698 C 1534 3.48217 0.233695 0
M  V30 15699 C 1535.35 4.22171 0.453504 0
M  V30 15700 O 1536.38 3.54821 0.313093 0
M  V30 15701 O 1535.24 5.416 0.730183 0
M  V30 15702 H 1532.33 0.814078 0.145625 0
M  V30 15703 H 1534.88 1.63232 -0.464062 0
M  V30 15704 H 1533.65 3.84111 -0.746644 0
M  V30 15705 H 1533.27 3.85629 0.968305 0
M  V30 15706 N 1534.27 0.138579 1.5699 0
M  V30 15707 C 1535.49 -0.525074 2.00643 0
M  V30 15708 C 1535.92 -1.58174 1.01796 0
M  V30 15709 O 1535.28 -1.81298 -0.00754003 0
M  V30 15710 C 1535.32 -1.11019 3.43085 0
M  V30 15711 O 1534.43 -2.22529 3.4721 0
M  V30 15712 H 1533.77 -0.129283 0.651292 0
M  V30 15713 H 1536.3 0.23283 2.03271 0
M  V30 15714 H 1536.31 -1.44093 3.81708 0
M  V30 15715 H 1534.98 -0.336325 4.14538 0
M  V30 15716 H 1533.56 -1.90747 3.20422 0
M  V30 15717 N 1535.75 -1.57019 -0.13521 0
M  V30 15718 C 1537.02 -1.74928 -0.875189 0
M  V30 15719 C 1537.4 -0.709755 -1.98811 0
M  V30 15720 O 1536.75 0.269237 -2.26908 0
M  V30 15721 C 1536.96 -3.1939 -1.40681 0
M  V30 15722 C 1538.31 -3.8142 -1.86557 0
M  V30 15723 O 1539.33 -3.22892 -1.50397 0
M  V30 15724 O 1538.19 -4.84263 -2.53282 0
M  V30 15725 H 1535.29 -0.715665 -0.414431 0
M  V30 15726 H 1537.83 -1.69274 -0.120215 0
M  V30 15727 H 1536.6 -3.86554 -0.607564 0
M  V30 15728 H 1536.23 -3.29517 -2.22496 0
M  V30 15729 N 1537.22 0.404919 -1.52309 0
M  V30 15730 C 1538.17 1.49363 -1.75953 0
M  V30 15731 C 1539.14 1.54802 -0.60212 0
M  V30 15732 O 1540.33 1.71308 -0.840128 0
M  V30 15733 C 1537.47 2.86767 -1.91987 0
M  V30 15734 C 1536.58 2.90603 -3.19646 0
M  V30 15735 C 1535.71 4.19333 -3.26088 0
M  V30 15736 C 1534.75 4.17161 -4.47932 0
M  V30 15737 N 1533.89 5.37469 -4.51743 0
M  V30 15738 H 1538.73 1.28503 -2.6887 0
M  V30 15739 H 1536.27 0.623684 -1.33224 0
M  V30 15740 H 1538.23 3.66536 -1.99267 0
M  V30 15741 H 1536.86 3.06112 -1.02447 0
M  V30 15742 H 1535.91 2.033 -3.21517 0
M  V30 15743 H 1537.22 2.84864 -4.09456 0
M  V30 15744 H 1536.37 5.07497 -3.32463 0
M  V30 15745 H 1535.11 4.27774 -2.34224 0
M  V30 15746 H 1534.12 3.27386 -4.417 0
M  V30 15747 H 1535.34 4.10356 -5.41096 0
M  V30 15748 H 1533.29 5.46569 -3.62764 0
M  V30 15749 H 1533.21 5.3374 -5.35404 0
M  V30 15750 H 1534.47 6.27575 -4.62353 0
M  V30 15751 N 1538.7 1.43003 0.662408 0
M  V30 15752 C 1539.63 1.50248 1.78739 0
M  V30 15753 C 1540.61 0.357934 1.66291 0
M  V30 15754 O 1541.8 0.573919 1.85526 0
M  V30 15755 C 1538.93 1.41618 3.17114 0
M  V30 15756 C 1537.88 2.54228 3.44314 0
M  V30 15757 C 1537.21 2.30653 4.82393 0
M  V30 15758 C 1538.51 3.96505 3.39972 0
M  V30 15759 H 1540.2 2.44406 1.72934 0
M  V30 15760 H 1537.75 1.17633 0.830569 0
M  V30 15761 H 1539.7 1.45293 3.9556 0
M  V30 15762 H 1538.43 0.439605 3.23628 0
M  V30 15763 H 1537.08 2.49891 2.68235 0
M  V30 15764 H 1536.73 1.3126 4.85572 0
M  V30 15765 H 1536.43 3.06134 5.01554 0
M  V30 15766 H 1537.96 2.36096 5.63108 0
M  V30 15767 H 1539.37 4.02378 4.08368 0
M  V30 15768 H 1537.77 4.71937 3.70668 0
M  V30 15769 H 1538.84 4.22295 2.38318 0
M  V30 15770 N 1540.18 -0.899904 1.29381 0
M  V30 15771 C 1541.41 -1.68911 1.20349 0
M  V30 15772 C 1541.83 -1.86657 -0.232523 0
M  V30 15773 O 1541.19 -1.38674 -1.16787 0
M  V30 15774 C 1541.24 -3.05124 1.92177 0
M  V30 15775 O 1540.34 -3.93358 1.23867 0
M  V30 15776 H 1539.68 -0.516698 0.417036 0
M  V30 15777 H 1542.21 -1.12422 1.70946 0
M  V30 15778 H 1542.22 -3.55267 2.00623 0
M  V30 15779 H 1540.9 -2.91525 2.96624 0
M  V30 15780 H 1539.47 -3.51793 1.23677 0
M  V30 15781 N 1541.66 -1.11854 -1.11024 0
M  V30 15782 C 1543.07 -0.885443 -1.64368 0
M  V30 15783 C 1543.42 0.581455 -1.87386 0
M  V30 15784 O 1542.55 1.44452 -1.61129 0
M  V30 15785 C 1543.14 -1.60082 -2.98595 0
M  V30 15786 C 1541.7 -1.41403 -3.4883 0
M  V30 15787 C 1540.85 -1.64069 -2.23555 0
M  V30 15788 H 1543.8 -1.27418 -0.94606 0
M  V30 15789 H 1543.82 -1.04832 -3.65774 0
M  V30 15790 H 1543.33 -2.66842 -2.8181 0
M  V30 15791 H 1541.43 -0.368727 -3.70771 0
M  V30 15792 H 1541.54 -2.16603 -4.27341 0
M  V30 15793 H 1539.91 -1.06437 -2.31394 0
M  V30 15794 H 1540.69 -2.72112 -2.09308 0
M  V30 15795 N 1543.14 1.28707 -0.909517 0
M  V30 15796 C 1544.38 1.95443 -0.541281 0
M  V30 15797 C 1544.72 1.71457 0.911934 0
M  V30 15798 O 1543.99 1.03312 1.64794 0
M  V30 15799 C 1544.27 3.50019 -0.846097 0
M  V30 15800 C 1544.13 3.83423 -2.35173 0
M  V30 15801 C 1545.45 4.3879 -0.339328 0
M  V30 15802 H 1542.56 0.709869 -0.198128 0
M  V30 15803 H 1545.21 1.52151 -1.13799 0
M  V30 15804 H 1543.36 3.87025 -0.338262 0
M  V30 15805 H 1545.03 3.5631 -2.92986 0
M  V30 15806 H 1543.27 3.30618 -2.80846 0
M  V30 15807 H 1543.94 4.91348 -2.51557 0
M  V30 15808 H 1546.42 4.08832 -0.774312 0
M  V30 15809 H 1545.29 5.45809 -0.581722 0
M  V30 15810 H 1545.56 4.35514 0.760244 0
M  V30 15811 N 1544.61 0.673042 1.42506 0
M  V30 15812 C 1545.86 0.194576 2.01563 0
M  V30 15813 C 1546.19 -1.19829 1.53203 0
M  V30 15814 O 1545.44 -1.8181 0.724131 0
M  V30 15815 C 1545.74 0.175896 3.56967 0
M  V30 15816 C 1545.41 1.51319 4.24751 0
M  V30 15817 C 1544.07 1.87936 4.42983 0
M  V30 15818 C 1546.42 2.394 4.62965 0
M  V30 15819 C 1543.75 3.12261 4.96699 0
M  V30 15820 C 1546.1 3.63036 5.18061 0
M  V30 15821 C 1544.77 3.99824 5.34506 0
M  V30 15822 H 1544.04 0.0712004 0.737571 0
M  V30 15823 H 1546.68 0.867679 1.70715 0
M  V30 15824 H 1544.99 -0.580712 3.87473 0
M  V30 15825 H 1546.69 -0.211488 4.00442 0
M  V30 15826 H 1543.28 1.21834 4.10919 0
M  V30 15827 H 1547.46 2.12397 4.48555 0
M  V30 15828 H 1542.72 3.40787 5.07617 0
M  V30 15829 H 1546.89 4.31491 5.46616 0
M  V30 15830 H 1544.52 4.96236 5.75894 0
M  V30 15831 N 1546.09 -1.52004 0.416254 0
M  V30 15832 C 1547.32 -2.06307 -0.156491 0
M  V30 15833 C 1547.74 -1.28567 -1.3826 0
M  V30 15834 O 1547.09 -0.339447 -1.79315 0
M  V30 15835 C 1547.14 -3.58028 -0.499824 0
M  V30 15836 O 1546.86 -4.32828 0.677602 0
M  V30 15837 C 1548.37 -4.28773 -1.12553 0
M  V30 15838 H 1545.59 -0.670778 -0.0172483 0
M  V30 15839 H 1548.13 -1.95826 0.589262 0
M  V30 15840 H 1546.28 -3.68493 -1.19547 0
M  V30 15841 H 1546.7 -5.23053 0.389302 0
M  V30 15842 H 1548.17 -5.36085 -1.31592 0
M  V30 15843 H 1548.65 -3.85706 -2.10066 0
M  V30 15844 H 1549.26 -4.22696 -0.469881 0
M  V30 15845 N 1547.57 -0.146903 -1.56914 0
M  V30 15846 C 1548.5 0.823803 -2.13883 0
M  V30 15847 C 1549.52 1.21081 -1.08826 0
M  V30 15848 O 1550.7 1.15491 -1.36103 0
M  V30 15849 C 1547.8 2.11686 -2.64655 0
M  V30 15850 C 1546.98 1.89723 -3.94112 0
M  V30 15851 C 1546.04 3.03016 -4.30195 0
M  V30 15852 O 1545.06 2.74711 -4.9852 0
M  V30 15853 N 1546.26 4.30187 -3.89768 0
M  V30 15854 H 1549.03 0.336904 -2.978 0
M  V30 15855 H 1546.59 0.0366704 -1.61858 0
M  V30 15856 H 1548.58 2.86525 -2.85807 0
M  V30 15857 H 1547.15 2.51639 -1.85464 0
M  V30 15858 H 1546.37 0.989208 -3.81587 0
M  V30 15859 H 1547.66 1.72387 -4.78707 0
M  V30 15860 H 1547.06 4.56051 -3.34715 0
M  V30 15861 H 1545.62 5.01807 -4.15972 0
M  V30 15862 N 1549.05 1.57088 0.126881 0
M  V30 15863 C 1550.27 1.88984 0.854389 0
M  V30 15864 C 1550.7 0.738037 1.73016 0
M  V30 15865 O 1550.06 -0.311728 1.786 0
M  V30 15866 C 1550.1 3.19584 1.67028 0
M  V30 15867 O 1549.21 3.04935 2.77648 0
M  V30 15868 H 1548.55 0.620354 0.236763 0
M  V30 15869 H 1551.08 2.04295 0.111647 0
M  V30 15870 H 1551.09 3.52109 2.06115 0
M  V30 15871 H 1549.76 4.03012 1.02732 0
M  V30 15872 H 1548.34 2.83861 2.41821 0
M  V30 15873 N 1550.53 -0.396836 1.52522 0
M  V30 15874 C 1551.94 -0.736347 1.41598 0
M  V30 15875 C 1552.14 -1.944 0.530191 0
M  V30 15876 O 1551.2 -2.525 0.000649033 0
M  V30 15877 C 1552.51 -0.978775 2.84325 0
M  V30 15878 C 1554.06 -1.08073 2.9375 0
M  V30 15879 C 1554.53 -1.35584 4.37471 0
M  V30 15880 N 1556.03 -1.42423 4.40761 0
M  V30 15881 C 1556.76 -1.6536 5.49039 0
M  V30 15882 N 1556.26 -1.85819 6.67415 0
M  V30 15883 N 1558.05 -1.67475 5.36571 0
M  V30 15884 H 1550.2 0.397925 2.08639 0
M  V30 15885 H 1552.46 0.115803 0.9409 0
M  V30 15886 H 1552.17 -0.16362 3.51319 0
M  V30 15887 H 1552.04 -1.8956 3.26109 0
M  V30 15888 H 1554.43 -1.88646 2.26928 0
M  V30 15889 H 1554.51 -0.141996 2.55406 0
M  V30 15890 H 1554.16 -0.555238 5.04856 0
M  V30 15891 H 1554.09 -2.3073 4.73362 0
M  V30 15892 H 1556.58 -1.28352 3.55435 0
M  V30 15893 H 1556.89 -2.02806 7.45714 0
M  V30 15894 H 1555.23 -1.83059 6.70458 0
M  V30 15895 H 1558.43 -1.51038 4.43064 0
M  V30 15896 H 1558.6 -1.85011 6.21027 0
M  V30 15897 N 1552.01 -1.43353 -0.654814 0
M  V30 15898 C 1553.42 -1.39933 -1.23595 0
M  V30 15899 C 1553.77 -0.102592 -1.95932 0
M  V30 15900 O 1552.89 0.798021 -2.01148 0
M  V30 15901 C 1553.49 -2.53483 -2.24793 0
M  V30 15902 C 1552.05 -2.53333 -2.78387 0
M  V30 15903 C 1551.19 -2.31268 -1.53005 0
M  V30 15904 H 1554.14 -1.52277 -0.446932 0
M  V30 15905 H 1554.17 -2.2488 -3.06935 0
M  V30 15906 H 1553.68 -3.47847 -1.72116 0
M  V30 15907 H 1551.78 -1.62844 -3.35131 0
M  V30 15908 H 1551.89 -3.51047 -3.26041 0
M  V30 15909 H 1550.26 -1.79905 -1.80295 0
M  V30 15910 H 1551.04 -3.27714 -1.02266 0
M  V30 15911 N 1553.48 0.89303 -1.29857 0
M  V30 15912 C 1554.41 2.01422 -1.18117 0
M  V30 15913 C 1555.39 1.6994 -0.0737487 0
M  V30 15914 O 1556.58 1.92527 -0.254387 0
M  V30 15915 C 1553.71 3.36385 -0.863842 0
M  V30 15916 C 1552.66 3.821 -1.92831 0
M  V30 15917 C 1551.99 5.14263 -1.46415 0
M  V30 15918 C 1553.29 4.01699 -3.33819 0
M  V30 15919 H 1554.98 2.11502 -2.11913 0
M  V30 15920 H 1552.53 1.01622 -1.02024 0
M  V30 15921 H 1554.48 4.14335 -0.768397 0
M  V30 15922 H 1553.21 3.26415 0.109816 0
M  V30 15923 H 1551.87 3.06372 -2.01325 0
M  V30 15924 H 1551.51 5.00714 -0.478983 0
M  V30 15925 H 1551.21 5.45821 -2.17609 0
M  V30 15926 H 1552.74 5.94747 -1.38234 0
M  V30 15927 H 1554.15 4.70111 -3.28129 0
M  V30 15928 H 1552.55 4.44621 -4.03029 0
M  V30 15929 H 1553.62 3.05816 -3.76304 0
M  V30 15930 N 1554.96 1.12442 1.10429 0
M  V30 15931 C 1556.37 0.894147 1.63896 0
M  V30 15932 C 1556.72 -0.571509 1.87692 0
M  V30 15933 O 1555.85 -1.43595 1.61893 0
M  V30 15934 C 1556.44 1.61664 2.97742 0
M  V30 15935 C 1555 1.43251 3.48075 0
M  V30 15936 C 1554.15 1.65252 2.22682 0
M  V30 15937 H 1557.1 1.27918 0.939289 0
M  V30 15938 H 1557.12 1.06771 3.65213 0
M  V30 15939 H 1556.63 2.68333 2.80391 0
M  V30 15940 H 1554.73 0.388385 3.7057 0
M  V30 15941 H 1554.85 2.18866 4.26186 0
M  V30 15942 H 1553.21 1.07663 2.30827 0
M  V30 15943 H 1553.99 2.73219 2.07862 0
M  V30 15944 N 1556.44 -1.28223 0.91633 0
M  V30 15945 C 1557.66 -1.99523 0.566147 0
M  V30 15946 C 1558.09 -1.68 -0.846034 0
M  V30 15947 O 1557.45 -0.913838 -1.56584 0
M  V30 15948 C 1557.5 -3.51949 0.785114 0
M  V30 15949 O 1556.6 -4.1211 -0.154686 0
M  V30 15950 H 1555.94 -0.626764 0.219232 0
M  V30 15951 H 1558.47 -1.63313 1.23247 0
M  V30 15952 H 1558.48 -4.02016 0.696224 0
M  V30 15953 H 1557.16 -3.74227 1.81457 0
M  V30 15954 H 1555.73 -3.72896 -0.0168463 0
M  V30 15955 N 1557.92 -0.68059 -1.42147 0
M  V30 15956 C 1559.14 -0.212293 -2.06311 0
M  V30 15957 C 1559.57 1.12402 -1.50822 0
M  V30 15958 O 1558.93 1.70037 -0.629051 0
M  V30 15959 C 1558.97 -0.164156 -3.60226 0
M  V30 15960 O 1558.08 0.865582 -4.03214 0
M  V30 15961 H 1557.42 -0.107451 -0.655248 0
M  V30 15962 H 1559.95 -0.931233 -1.82179 0
M  V30 15963 H 1559.96 0.0100422 -4.07999 0
M  V30 15964 H 1558.63 -1.13952 -3.99985 0
M  V30 15965 H 1557.21 0.661955 -3.66978 0
M  V30 15966 N 1559.4 1.51781 -0.424309 0
M  V30 15967 C 1560.34 2.2899 0.408193 0
M  V30 15968 C 1561.34 1.34301 1.03246 0
M  V30 15969 O 1562.54 1.51697 0.968919 0
M  V30 15970 H 1558.92 0.736799 0.150435 0
M  V30 15971 H 1560.89 2.9723 -0.264022 0
M  V30 15972 C 1559.64 3.13477 1.50425 0
M  V30 15973 H 1558.96 3.86218 1.03324 0
M  V30 15974 H 1560.4 3.7058 2.06026 0
M  V30 15975 C 1558.86 2.2801 2.48018 0
M  V30 15976 O 1559.39 1.93076 3.52257 0
M  V30 15977 N 1557.6 1.91484 2.18591 0
M  V30 15978 H 1557.14 2.20093 1.33854 0
M  V30 15979 H 1557.1 1.34595 2.84133 0
M  V30 15980 N 1560.87 0.155222 1.56834 0
M  V30 15981 C 1562.12 -0.493831 1.95561 0
M  V30 15982 C 1562.44 -1.65468 1.04305 0
M  V30 15983 O 1563.64 -2.36891 1.32646 0
M  V30 15984 C 1562.1 -0.929923 3.47679 0
M  V30 15985 C 1561.71 0.204447 4.47533 0
M  V30 15986 C 1563.45 -1.5483 3.95257 0
M  V30 15987 C 1561.36 -0.250375 5.9087 0
M  V30 15988 H 1560.29 -0.188258 0.73012 0
M  V30 15989 H 1562.94 0.240883 1.81912 0
M  V30 15990 H 1561.32 -1.72014 3.56689 0
M  V30 15991 H 1562.49 0.981535 4.50225 0
M  V30 15992 H 1560.81 0.731756 4.0992 0
M  V30 15993 H 1563.41 -1.90036 4.9979 0
M  V30 15994 H 1563.75 -2.44031 3.37275 0
M  V30 15995 H 1564.28 -0.822828 3.89197 0
M  V30 15996 H 1561.02 0.606461 6.52689 0
M  V30 15997 H 1560.54 -0.993164 5.9152 0
M  V30 15998 H 1562.22 -0.699645 6.43206 0
M  V30 15999 N 1562.35 -1.57153 -0.118549 0
M  V30 16000 C 1563.3 -1.96802 -1.15122 0
M  V30 16001 C 1564.29 -0.843066 -1.37045 0
M  V30 16002 O 1565.48 -1.10676 -1.38129 0
M  V30 16003 C 1562.61 -2.37625 -2.47768 0
M  V30 16004 C 1561.69 -3.56754 -2.29319 0
M  V30 16005 N 1562.08 -4.72427 -1.80683 0
M  V30 16006 C 1560.38 -3.62395 -2.59973 0
M  V30 16007 C 1561.08 -5.54451 -1.75952 0
M  V30 16008 N 1560.06 -4.96954 -2.20314 0
M  V30 16009 H 1563.86 -2.83695 -0.767744 0
M  V30 16010 H 1561.37 -1.59088 -0.326287 0
M  V30 16011 H 1563.37 -2.64247 -3.22458 0
M  V30 16012 H 1562.03 -1.52097 -2.86874 0
M  V30 16013 H 1563.04 -4.95634 -1.50223 0
M  V30 16014 H 1559.72 -2.87475 -3.02762 0
M  V30 16015 H 1561.11 -6.57238 -1.39599 0
M  V30 16016 N 1563.83 0.388742 -1.5273 0
M  V30 16017 C 1565.25 0.728828 -1.41987 0
M  V30 16018 C 1565.45 1.94116 -0.540493 0
M  V30 16019 O 1564.5 2.52496 -0.0140397 0
M  V30 16020 C 1565.81 0.963683 -2.8484 0
M  V30 16021 C 1567.36 1.06514 -2.94319 0
M  V30 16022 C 1567.84 1.33262 -4.38184 0
M  V30 16023 N 1569.33 1.40083 -4.4151 0
M  V30 16024 C 1570.06 1.62446 -5.49908 0
M  V30 16025 N 1569.56 1.82277 -6.68391 0
M  V30 16026 N 1571.35 1.64627 -5.37452 0
M  V30 16027 H 1563.5 -0.408984 -2.08425 0
M  V30 16028 H 1565.77 -0.120791 -0.940273 0
M  V30 16029 H 1565.47 0.144986 -3.51401 0
M  V30 16030 H 1565.35 1.87828 -3.27109 0
M  V30 16031 H 1567.73 1.8744 -2.27926 0
M  V30 16032 H 1567.81 0.12845 -2.55477 0
M  V30 16033 H 1567.46 0.528457 -5.05143 0
M  V30 16034 H 1567.39 2.28216 -4.74579 0
M  V30 16035 H 1569.88 1.26465 -3.56111 0
M  V30 16036 H 1570.19 1.98848 -7.46779 0
M  V30 16037 H 1568.54 1.79501 -6.7142 0
M  V30 16038 H 1571.73 1.48686 -4.43858 0
M  V30 16039 H 1571.9 1.81715 -6.22 0
M  V30 16040 N 1565.31 1.43698 0.647203 0
M  V30 16041 C 1566.72 1.40586 1.22851 0
M  V30 16042 C 1567.07 0.112981 1.95874 0
M  V30 16043 O 1566.19 -0.787342 2.01569 0
M  V30 16044 C 1566.79 2.54672 2.23445 0
M  V30 16045 C 1565.35 2.54806 2.7704 0
M  V30 16046 C 1564.5 2.32076 1.51777 0
M  V30 16047 H 1567.45 1.52512 0.43885 0
M  V30 16048 H 1567.47 2.26505 3.05738 0
M  V30 16049 H 1566.98 3.48755 1.70269 0
M  V30 16050 H 1565.08 1.64619 3.34262 0
M  V30 16051 H 1565.19 3.52771 3.24175 0
M  V30 16052 H 1563.56 1.80858 1.79339 0
M  V30 16053 H 1564.34 3.28252 1.00527 0
M  V30 16054 N 1566.79 -0.886131 1.30328 0
M  V30 16055 C 1567.73 -1.99174 1.16612 0
M  V30 16056 C 1568.7 -1.66006 0.0559202 0
M  V30 16057 O 1569.89 -1.89458 0.225897 0
M  V30 16058 C 1567.03 -3.34142 0.862726 0
M  V30 16059 C 1566.14 -3.80008 2.05469 0
M  V30 16060 C 1565.28 -5.03617 1.68949 0
M  V30 16061 C 1564.32 -5.41888 2.84647 0
M  V30 16062 N 1563.45 -6.56678 2.48431 0
M  V30 16063 H 1568.29 -2.10238 2.11197 0
M  V30 16064 H 1565.83 -1.02941 1.05079 0
M  V30 16065 H 1567.79 -4.11826 0.667447 0
M  V30 16066 H 1566.42 -3.22767 -0.0462461 0
M  V30 16067 H 1565.47 -2.98243 2.36126 0
M  V30 16068 H 1566.78 -4.04312 2.92119 0
M  V30 16069 H 1565.94 -5.88923 1.45789 0
M  V30 16070 H 1564.67 -4.81182 0.794674 0
M  V30 16071 H 1563.68 -4.55109 3.08474 0
M  V30 16072 H 1564.9 -5.66296 3.74813 0
M  V30 16073 H 1562.85 -6.35821 1.61453 0
M  V30 16074 H 1562.77 -6.80846 3.28611 0
M  V30 16075 H 1564.04 -7.45219 2.28624 0
M  V30 16076 N 1568.26 -1.13026 -1.09832 0
M  V30 16077 C 1569.68 -0.902826 -1.6342 0
M  V30 16078 C 1570.03 0.561547 -1.87992 0
M  V30 16079 O 1569.15 1.42735 -1.62652 0
M  V30 16080 C 1569.75 -1.6324 -2.96881 0
M  V30 16081 C 1568.31 -1.45095 -3.4731 0
M  V30 16082 C 1567.45 -1.66431 -2.21802 0
M  V30 16083 H 1570.4 -1.28414 -0.932492 0
M  V30 16084 H 1570.42 -1.08706 -3.64641 0
M  V30 16085 H 1569.94 -2.69816 -2.78964 0
M  V30 16086 H 1568.04 -0.408031 -3.70359 0
M  V30 16087 H 1568.15 -2.21123 -4.25019 0
M  V30 16088 H 1566.51 -1.08885 -2.30252 0
M  V30 16089 H 1567.3 -2.74317 -2.0641 0
M  V30 16090 N 1569.74 1.27735 -0.923117 0
M  V30 16091 C 1570.97 1.9922 -0.57672 0
M  V30 16092 C 1571.39 1.68446 0.837113 0
M  V30 16093 O 1570.75 0.922129 1.56098 0
M  V30 16094 C 1570.8 3.51528 -0.803768 0
M  V30 16095 O 1569.9 4.12186 0.132829 0
M  V30 16096 H 1569.24 0.625593 -0.222553 0
M  V30 16097 H 1571.77 1.62657 -1.24112 0
M  V30 16098 H 1571.78 4.01641 -0.717534 0
M  V30 16099 H 1570.46 3.7326 -1.83439 0
M  V30 16100 H 1569.04 3.729 -0.00292957 0
M  V30 16101 N 1571.22 0.688118 1.41784 0
M  V30 16102 C 1572.64 0.358943 1.55511 0
M  V30 16103 C 1572.84 -1.13469 1.66514 0
M  V30 16104 O 1571.89 -1.92039 1.63943 0
M  V30 16105 C 1573.21 1.10094 2.79821 0
M  V30 16106 C 1574.75 1.08456 2.93609 0
M  V30 16107 C 1575.23 1.80815 4.20797 0
M  V30 16108 N 1576.72 1.77748 4.27738 0
M  V30 16109 C 1577.45 2.30581 5.24995 0
M  V30 16110 N 1576.95 2.91854 6.28326 0
M  V30 16111 N 1578.74 2.2088 5.16884 0
M  V30 16112 H 1570.89 1.65695 1.32886 0
M  V30 16113 H 1573.16 0.698818 0.640592 0
M  V30 16114 H 1572.86 2.15589 2.77874 0
M  V30 16115 H 1572.74 0.674713 3.71117 0
M  V30 16116 H 1575.12 0.0378955 2.95076 0
M  V30 16117 H 1575.21 1.54978 2.03508 0
M  V30 16118 H 1574.85 2.85457 4.20092 0
M  V30 16119 H 1574.78 1.31732 5.09857 0
M  V30 16120 H 1577.27 1.33069 3.53696 0
M  V30 16121 H 1577.58 3.29755 6.98915 0
M  V30 16122 H 1575.93 2.95929 6.28849 0
M  V30 16123 H 1579.12 1.72689 4.35082 0
M  V30 16124 H 1579.29 2.62359 5.92513 0
M  V30 16125 N 1572.7 -1.51554 0.432352 0
M  V30 16126 C 1574.11 -1.86673 -0.0319274 0
M  V30 16127 C 1574.46 -1.34981 -1.42389 0
M  V30 16128 O 1573.59 -0.698556 -2.04815 0
M  V30 16129 C 1574.18 -3.38738 -0.0647127 0
M  V30 16130 C 1572.74 -3.73411 -0.47339 0
M  V30 16131 C 1571.89 -2.75242 0.337187 0
M  V30 16132 H 1574.84 -1.44849 0.648417 0
M  V30 16133 H 1574.86 -3.70297 -0.875239 0
M  V30 16134 H 1574.37 -3.76331 0.948507 0
M  V30 16135 H 1572.47 -3.41406 -1.4924 0
M  V30 16136 H 1572.58 -4.78675 -0.20165 0
M  V30 16137 H 1570.95 -2.53883 -0.203801 0
M  V30 16138 H 1571.73 -3.15677 1.34919 0
M  V30 16139 N 1574.18 -0.163538 -1.56749 0
M  V30 16140 C 1575.4 0.489888 -2.01017 0
M  V30 16141 C 1575.82 1.57327 -1.04373 0
M  V30 16142 O 1575.18 1.82449 -0.0433414 0
M  V30 16143 C 1575.23 1.07537 -3.45135 0
M  V30 16144 O 1574.95 0.0352465 -4.38086 0
M  V30 16145 C 1576.45 1.80779 -4.04764 0
M  V30 16146 H 1573.67 0.126095 -0.659046 0
M  V30 16147 H 1576.21 -0.262982 -2.02802 0
M  V30 16148 H 1574.37 1.77877 -3.44149 0
M  V30 16149 H 1574.78 0.466426 -5.22422 0
M  V30 16150 H 1576.26 2.17014 -5.07552 0
M  V30 16151 H 1576.73 2.6999 -3.46413 0
M  V30 16152 H 1577.34 1.15098 -4.09429 0
M  V30 16153 N 1575.65 1.57214 0.110213 0
M  V30 16154 C 1577.07 1.74402 0.666405 0
M  V30 16155 C 1577.42 0.783524 1.79876 0
M  V30 16156 O 1576.54 -0.0415306 2.1636 0
M  V30 16157 C 1577.14 3.1624 1.21564 0
M  V30 16158 C 1575.7 3.34904 1.71804 0
M  V30 16159 C 1574.84 2.70249 0.621347 0
M  V30 16160 H 1577.79 1.58277 -0.115765 0
M  V30 16161 H 1577.81 3.18276 2.0852 0
M  V30 16162 H 1577.33 3.86123 0.391273 0
M  V30 16163 H 1575.43 2.70077 2.56689 0
M  V30 16164 H 1575.54 4.43126 1.82143 0
M  V30 16165 H 1573.9 2.31727 1.05711 0
M  V30 16166 H 1574.69 3.42762 -0.192185 0
M  V30 16167 N 1577.13 -0.380637 1.52934 0
M  V30 16168 C 1578.38 -1.12261 1.68053 0
M  V30 16169 C 1578.7 -1.90263 0.427191 0
M  V30 16170 O 1577.97 -1.87768 -0.558559 0
M  V30 16171 H 1576.55 -0.41742 0.619491 0
M  V30 16172 H 1579.21 -0.430906 1.90077 0
M  V30 16173 H 1578.31 -1.82085 2.53479 0
M  V30 16174 N 1578.61 -1.44039 -0.639573 0
M  V30 16175 C 1579.56 -1.50541 -1.77314 0
M  V30 16176 C 1580.55 -0.37781 -1.65133 0
M  V30 16177 O 1581.76 -0.552396 -1.71314 0
M  V30 16178 H 1578.13 -0.472221 -0.585245 0
M  V30 16179 H 1580.1 -2.45964 -1.68951 0
M  V30 16180 C 1578.85 -1.45868 -3.15623 0
M  V30 16181 H 1578.18 -2.31946 -3.25639 0
M  V30 16182 H 1579.62 -1.54479 -3.94857 0
M  V30 16183 C 1578.08 -0.178204 -3.36428 0
M  V30 16184 O 1578.61 0.755017 -3.94541 0
M  V30 16185 N 1576.81 -0.0840295 -2.90478 0
M  V30 16186 H 1576.36 -0.844281 -2.43371 0
M  V30 16187 H 1576.32 0.771988 -3.04775 0
M  V30 16188 N 1580.09 0.879207 -1.30796 0
M  V30 16189 C 1581.32 1.66449 -1.22891 0
M  V30 16190 C 1581.73 1.87658 0.207306 0
M  V30 16191 O 1581.09 1.42818 1.13619 0
M  V30 16192 C 1581.14 3.03765 -1.95982 0
M  V30 16193 O 1580.86 2.8351 -3.33997 0
M  V30 16194 C 1582.36 3.98204 -1.94804 0
M  V30 16195 H 1579.58 0.51922 -0.425031 0
M  V30 16196 H 1582.13 1.09807 -1.72519 0
M  V30 16197 H 1580.28 3.57124 -1.50138 0
M  V30 16198 H 1580.69 3.70663 -3.71092 0
M  V30 16199 H 1582.17 4.91901 -2.50474 0
M  V30 16200 H 1582.65 4.29277 -0.928336 0
M  V30 16201 H 1583.25 3.50781 -2.40485 0
M  V30 16202 N 1581.57 1.13606 1.09231 0
M  V30 16203 C 1582.79 0.922667 1.85746 0
M  V30 16204 C 1583.22 -0.523381 1.80672 0
M  V30 16205 O 1582.58 -1.37156 1.18566 0
M  V30 16206 C 1582.62 1.41762 3.31566 0
M  V30 16207 O 1581.73 0.60418 4.0795 0
M  V30 16208 H 1581.07 0.330523 0.575891 0
M  V30 16209 H 1583.6 1.51123 1.37924 0
M  V30 16210 H 1583.61 1.42212 3.82413 0
M  V30 16211 H 1582.28 2.47048 3.34574 0
M  V30 16212 H 1580.86 0.667721 3.66873 0
M  V30 16213 N 1583.05 -1.27244 0.929878 0
M  V30 16214 C 1583.99 -2.26773 0.429287 0
M  V30 16215 C 1584.96 -1.58238 -0.50498 0
M  V30 16216 O 1586.15 -1.86037 -0.423661 0
M  V30 16217 C 1583.29 -3.43706 -0.309865 0
M  V30 16218 C 1582.4 -4.26948 0.658764 0
M  V30 16219 C 1581.54 -5.31105 -0.10045 0
M  V30 16220 C 1580.57 -6.06018 0.860743 0
M  V30 16221 N 1579.71 -7.01972 0.134015 0
M  V30 16222 H 1584.55 -2.68967 1.283 0
M  V30 16223 H 1582.09 -1.32257 0.643923 0
M  V30 16224 H 1584.05 -4.10316 -0.754754 0
M  V30 16225 H 1582.68 -3.02457 -1.1278 0
M  V30 16226 H 1581.73 -3.60232 1.22218 0
M  V30 16227 H 1583.04 -4.78946 1.39326 0
M  V30 16228 H 1582.19 -6.03674 -0.605153 0
M  V30 16229 H 1580.93 -4.79915 -0.867902 0
M  V30 16230 H 1579.94 -5.32285 1.37668 0
M  V30 16231 H 1581.16 -6.59297 1.62801 0
M  V30 16232 H 1579.11 -6.53109 -0.615152 0
M  V30 16233 H 1579.03 -7.51669 0.808045 0
M  V30 16234 H 1580.29 -7.78714 -0.349964 0
M  V30 16235 N 1584.52 -0.695628 -1.41417 0
M  V30 16236 C 1585.46 0.00883515 -2.29198 0
M  V30 16237 C 1586.47 0.744337 -1.44788 0
M  V30 16238 O 1587.66 0.59503 -1.6829 0
M  V30 16239 C 1584.76 1.0366 -3.22657 0
M  V30 16240 C 1583.93 0.37071 -4.35826 0
M  V30 16241 C 1582.99 1.3011 -5.09861 0
M  V30 16242 O 1582.02 0.793461 -5.63642 0
M  V30 16243 N 1583.22 2.63343 -5.1733 0
M  V30 16244 H 1585.98 -0.744795 -2.90298 0
M  V30 16245 H 1583.54 -0.541663 -1.5257 0
M  V30 16246 H 1585.54 1.66075 -3.69054 0
M  V30 16247 H 1584.11 1.69177 -2.62865 0
M  V30 16248 H 1583.33 -0.433315 -3.91811 0
M  V30 16249 H 1584.61 -0.0923178 -5.08716 0
M  V30 16250 H 1584.01 3.07103 -4.75083 0
M  V30 16251 H 1582.57 3.20952 -5.67303 0
M  V30 16252 N 1586 1.51322 -0.440383 0
M  V30 16253 C 1587.25 2.01714 0.124815 0
M  V30 16254 C 1587.57 1.32634 1.42945 0
M  V30 16255 O 1586.84 0.461849 1.90378 0
M  V30 16256 H 1585.42 0.745384 0.049116 0
M  V30 16257 H 1588.08 1.85951 -0.583787 0
M  V30 16258 H 1587.18 3.10669 0.29853 0
M  V30 16259 N 1587.48 0.171848 1.5666 0
M  V30 16260 C 1588.76 -0.519355 1.88579 0
M  V30 16261 C 1589.14 -1.81273 1.08182 0
M  V30 16262 O 1588.48 -2.27822 0.175895 0
M  V30 16263 C 1588.69 -0.760743 3.40608 0
M  V30 16264 C 1590.04 -1.09051 4.10357 0
M  V30 16265 O 1591.07 -0.849264 3.45928 0
M  V30 16266 O 1589.93 -1.54566 5.24187 0
M  V30 16267 H 1587.02 -0.267782 0.782446 0
M  V30 16268 H 1589.57 0.210323 1.68392 0
M  V30 16269 H 1588.34 0.153577 3.90999 0
M  V30 16270 H 1587.96 -1.54372 3.66408 0
M  V30 16271 N 1588.96 -1.5727 -0.101874 0
M  V30 16272 C 1590.37 -1.74753 -0.657147 0
M  V30 16273 C 1590.72 -0.793052 -1.79458 0
M  V30 16274 O 1589.84 0.0300559 -2.16379 0
M  V30 16275 C 1590.44 -3.1688 -1.19885 0
M  V30 16276 C 1589 -3.3581 -1.70025 0
M  V30 16277 C 1588.15 -2.70575 -0.607007 0
M  V30 16278 H 1591.1 -1.58214 0.124158 0
M  V30 16279 H 1591.12 -3.19378 -2.06829 0
M  V30 16280 H 1590.63 -3.86325 -0.37079 0
M  V30 16281 H 1588.73 -2.71434 -2.55253 0
M  V30 16282 H 1588.84 -4.44086 -1.79791 0
M  V30 16283 H 1587.21 -2.32284 -1.04481 0
M  V30 16284 H 1587.99 -3.42655 0.21036 0
M  V30 16285 N 1590.44 0.372521 -1.53134 0
M  V30 16286 C 1591.66 1.14116 -1.73183 0
M  V30 16287 C 1592.09 1.82475 -0.456553 0
M  V30 16288 O 1591.44 1.71468 0.588919 0
M  V30 16289 C 1591.49 2.15241 -2.89316 0
M  V30 16290 O 1590.6 3.22178 -2.57439 0
M  V30 16291 H 1589.94 0.331442 -0.575362 0
M  V30 16292 H 1592.47 0.431769 -1.99992 0
M  V30 16293 H 1592.48 2.58961 -3.15283 0
M  V30 16294 H 1591.15 1.64877 -3.81822 0
M  V30 16295 H 1589.73 2.83481 -2.42267 0
M  V30 16296 N 1591.91 1.44376 0.631925 0
M  V30 16297 C 1592.86 1.51181 1.74393 0
M  V30 16298 C 1593.83 0.359599 1.62161 0
M  V30 16299 O 1595.02 0.569725 1.82096 0
M  V30 16300 C 1592.16 1.46124 3.12637 0
M  V30 16301 C 1591.27 2.71714 3.35851 0
M  V30 16302 C 1590.4 2.58496 4.64062 0
M  V30 16303 C 1589.44 3.79252 4.80452 0
M  V30 16304 N 1588.58 3.64715 5.99939 0
M  V30 16305 H 1593.42 2.4619 1.67912 0
M  V30 16306 H 1590.96 1.22184 0.819108 0
M  V30 16307 H 1592.91 1.41183 3.92585 0
M  V30 16308 H 1591.54 0.546831 3.18135 0
M  V30 16309 H 1590.6 2.86845 2.49848 0
M  V30 16310 H 1591.91 3.61351 3.43841 0
M  V30 16311 H 1591.06 2.51383 5.5217 0
M  V30 16312 H 1589.8 1.66417 4.58428 0
M  V30 16313 H 1588.81 3.8675 3.90774 0
M  V30 16314 H 1590.03 4.72367 4.879 0
M  V30 16315 H 1587.98 2.75388 5.95397 0
M  V30 16316 H 1587.89 4.47969 6.08982 0
M  V30 16317 H 1589.16 3.61493 6.90611 0
M  V30 16318 N 1593.39 -0.872258 1.31261 0
M  V30 16319 C 1594.34 -2.00065 1.18645 0
M  V30 16320 C 1595.33 -1.69132 0.0952872 0
M  V30 16321 O 1596.54 -1.78156 0.257022 0
M  V30 16322 H 1592.91 -0.656201 0.367293 0
M  V30 16323 H 1594.89 -2.07837 2.14117 0
M  V30 16324 C 1593.63 -3.35628 0.908241 0
M  V30 16325 H 1592.96 -3.5995 1.74 0
M  V30 16326 H 1594.4 -4.15184 0.860134 0
M  V30 16327 C 1592.86 -3.34647 -0.388993 0
M  V30 16328 O 1593.39 -3.76271 -1.40651 0
M  V30 16329 N 1591.59 -2.87768 -0.404708 0
M  V30 16330 H 1591.14 -2.5409 0.423824 0
M  V30 16331 H 1591.1 -2.87494 -1.27258 0
M  V30 16332 N 1594.87 -1.14184 -1.08627 0
M  V30 16333 C 1596.09 -0.932504 -1.85254 0
M  V30 16334 C 1596.52 0.513792 -1.80947 0
M  V30 16335 O 1595.88 1.36525 -1.19292 0
M  V30 16336 C 1595.93 -1.43519 -3.30809 0
M  V30 16337 O 1595.03 -0.625806 -4.07624 0
M  V30 16338 H 1594.37 -0.333573 -0.57413 0
M  V30 16339 H 1596.9 -1.51853 -1.3712 0
M  V30 16340 H 1596.91 -1.44238 -3.81654 0
M  V30 16341 H 1595.59 -2.48819 -3.3326 0
M  V30 16342 H 1594.16 -0.687168 -3.66514 0
M  V30 16343 N 1596.35 1.26749 -0.936613 0
M  V30 16344 C 1597.28 2.24895 -0.386956 0
M  V30 16345 C 1598.26 1.54004 0.521673 0
M  V30 16346 O 1599.44 1.82797 0.460158 0
M  V30 16347 C 1596.57 3.35771 0.44447 0
M  V30 16348 C 1595.62 4.24601 -0.401985 0
M  V30 16349 S 1596.45 5.03511 -1.82309 0
M  V30 16350 C 1597.61 6.17866 -0.999596 0
M  V30 16351 H 1597.84 2.71171 -1.21876 0
M  V30 16352 H 1595.37 1.35544 -0.739409 0
M  V30 16353 H 1597.33 4.00097 0.918284 0
M  V30 16354 H 1595.99 2.88117 1.2509 0
M  V30 16355 H 1595.18 5.03453 0.234819 0
M  V30 16356 H 1594.79 3.65116 -0.810309 0
M  V30 16357 H 1597.08 6.77076 -0.239732 0
M  V30 16358 H 1598.02 6.85842 -1.76142 0
M  V30 16359 H 1598.43 5.61934 -0.537672 0
M  V30 16360 N 1597.83 0.703118 1.41046 0
M  V30 16361 C 1599.05 0.246552 2.05426 0
M  V30 16362 C 1599.47 -1.10704 1.52938 0
M  V30 16363 O 1598.83 -1.69329 0.680733 0
M  V30 16364 C 1598.88 0.203953 3.60924 0
M  V30 16365 O 1598.6 1.50408 4.11472 0
M  V30 16366 C 1600.1 -0.272686 4.42461 0
M  V30 16367 H 1597.32 0.113157 0.66139 0
M  V30 16368 H 1599.86 0.957823 1.80682 0
M  V30 16369 H 1598.02 -0.458194 3.84681 0
M  V30 16370 H 1598.43 1.39622 5.05575 0
M  V30 16371 H 1599.91 -0.251357 5.51427 0
M  V30 16372 H 1600.38 -1.31282 4.1912 0
M  V30 16373 H 1600.99 0.358733 4.23784 0
M  V30 16374 N 1599.3 -1.51086 0.448402 0
M  V30 16375 C 1600.23 -2.30896 -0.347773 0
M  V30 16376 C 1601.22 -1.36792 -1.01104 0
M  V30 16377 O 1602.4 -1.65713 -1.01257 0
M  V30 16378 C 1599.53 -3.15901 -1.44304 0
M  V30 16379 C 1598.48 -4.18373 -0.90265 0
M  V30 16380 C 1597.81 -4.9197 -2.0945 0
M  V30 16381 C 1599.11 -5.22252 0.0705335 0
M  V30 16382 H 1600.8 -2.97704 0.318273 0
M  V30 16383 H 1598.35 -1.43169 0.154509 0
M  V30 16384 H 1600.3 -3.70519 -2.00733 0
M  V30 16385 H 1599.03 -2.46935 -2.13753 0
M  V30 16386 H 1597.69 -3.64823 -0.3605 0
M  V30 16387 H 1597.33 -4.19497 -2.77545 0
M  V30 16388 H 1597.03 -5.6127 -1.73926 0
M  V30 16389 H 1598.56 -5.49415 -2.66412 0
M  V30 16390 H 1599.97 -5.71876 -0.403814 0
M  V30 16391 H 1598.37 -5.99142 0.338905 0
M  V30 16392 H 1599.44 -4.74398 1.00373 0
M  V30 16393 N 1600.78 -0.180154 -1.56567 0
M  V30 16394 C 1602.06 0.509347 -1.88852 0
M  V30 16395 C 1602.44 1.80697 -1.09141 0
M  V30 16396 O 1601.79 2.27726 -0.187974 0
M  V30 16397 C 1602 0.742669 -3.41006 0
M  V30 16398 C 1603.35 1.06873 -4.1093 0
M  V30 16399 O 1604.37 0.830907 -3.46373 0
M  V30 16400 O 1603.23 1.51784 -5.24999 0
M  V30 16401 H 1600.32 0.263629 -0.783855 0
M  V30 16402 H 1602.87 -0.219251 -1.68278 0
M  V30 16403 H 1601.64 -0.17431 -3.90912 0
M  V30 16404 H 1601.26 1.52427 -3.67222 0
M  V30 16405 N 1602.26 1.57322 0.0935319 0
M  V30 16406 C 1603.19 2.05208 1.11409 0
M  V30 16407 C 1604.17 0.941295 1.41681 0
M  V30 16408 O 1605.36 1.21266 1.51684 0
M  V30 16409 C 1602.49 2.47782 2.43354 0
M  V30 16410 C 1601.44 3.62538 2.27486 0
M  V30 16411 C 1600.77 3.91095 3.64622 0
M  V30 16412 C 1602.07 4.93371 1.71412 0
M  V30 16413 H 1603.76 2.9072 0.715702 0
M  V30 16414 H 1601.31 1.3986 0.342827 0
M  V30 16415 H 1603.26 2.79891 3.15022 0
M  V30 16416 H 1601.98 1.59272 2.85132 0
M  V30 16417 H 1600.64 3.30679 1.58263 0
M  V30 16418 H 1600.29 2.99749 4.0393 0
M  V30 16419 H 1599.99 4.68353 3.5485 0
M  V30 16420 H 1601.51 4.25679 4.37755 0
M  V30 16421 H 1602.93 5.23851 2.32922 0
M  V30 16422 H 1601.33 5.74804 1.72395 0
M  V30 16423 H 1602.4 4.80197 0.67368 0
M  V30 16424 N 1603.74 -0.364395 1.53329 0
M  V30 16425 C 1604.69 -1.46678 1.80523 0
M  V30 16426 C 1605.68 -1.55396 0.674421 0
M  V30 16427 O 1606.89 -1.58268 0.857385 0
M  V30 16428 H 1603.26 -0.488652 0.571597 0
M  V30 16429 H 1605.23 -1.20947 2.7279 0
M  V30 16430 C 1603.98 -2.83496 2.01309 0
M  V30 16431 H 1603.3 -2.77546 2.87764 0
M  V30 16432 H 1604.74 -3.59805 2.24313 0
M  V30 16433 C 1603.2 -3.27445 0.792539 0
M  V30 16434 O 1603.73 -4.01696 -0.0181965 0
M  V30 16435 N 1601.94 -2.84004 0.615643 0
M  V30 16436 H 1601.49 -2.23746 1.27654 0
M  V30 16437 H 1601.44 -3.13766 -0.199604 0
M  V30 16438 N 1605.22 -1.44709 -0.62426 0
M  V30 16439 C 1606.44 -1.51573 -1.41564 0
M  V30 16440 C 1606.87 -0.143806 -1.87549 0
M  V30 16441 O 1606.22 0.868361 -1.59151 0
M  V30 16442 C 1606.27 -2.49085 -2.60747 0
M  V30 16443 O 1605.38 -1.99712 -3.60817 0
M  V30 16444 H 1604.72 -0.51157 -0.423311 0
M  V30 16445 H 1607.25 -1.89908 -0.761316 0
M  V30 16446 H 1607.26 -2.67346 -3.08205 0
M  V30 16447 H 1605.93 -3.48733 -2.26624 0
M  V30 16448 H 1604.51 -1.9125 -3.20122 0
M  V30 16449 N 1606.69 0.865285 -1.31722 0
M  V30 16450 C 1607.92 1.65661 -1.24785 0
M  V30 16451 C 1608.34 1.87208 0.182952 0
M  V30 16452 O 1607.7 1.41721 1.1307 0
M  V30 16453 C 1607.75 2.99921 -2.00199 0
M  V30 16454 O 1606.85 3.89936 -1.34253 0
M  V30 16455 H 1606.2 0.505459 -0.430589 0
M  V30 16456 H 1608.73 1.0785 -1.73867 0
M  V30 16457 H 1608.74 3.49823 -2.09971 0
M  V30 16458 H 1607.41 2.83559 -3.04249 0
M  V30 16459 H 1605.99 3.4839 -1.32961 0
M  V30 16460 N 1608.17 1.14759 1.0802 0
M  V30 16461 C 1609.4 0.942316 1.84757 0
M  V30 16462 C 1609.82 -0.504188 1.81217 0
M  V30 16463 O 1609.18 -1.35891 1.20014 0
M  V30 16464 C 1609.23 1.45271 3.30043 0
M  V30 16465 O 1608.33 0.647414 4.07287 0
M  V30 16466 H 1607.67 0.336613 0.572353 0
M  V30 16467 H 1610.2 1.52578 1.36313 0
M  V30 16468 H 1610.21 1.4626 3.80883 0
M  V30 16469 H 1608.89 2.50583 3.31935 0
M  V30 16470 H 1607.47 0.706595 3.66144 0
M  V30 16471 N 1609.65 -1.26251 0.943322 0
M  V30 16472 C 1610.6 -2.26304 0.453315 0
M  V30 16473 C 1611.57 -1.58764 -0.488168 0
M  V30 16474 O 1612.75 -1.86476 -0.403906 0
M  V30 16475 C 1609.89 -3.44015 -0.273393 0
M  V30 16476 C 1609.01 -4.26225 0.70401 0
M  V30 16477 C 1608.14 -5.31182 -0.0441134 0
M  V30 16478 C 1607.18 -6.05071 0.924971 0
M  V30 16479 N 1606.32 -7.0179 0.208461 0
M  V30 16480 H 1611.16 -2.67591 1.31146 0
M  V30 16481 H 1608.69 -1.31567 0.657914 0
M  V30 16482 H 1610.65 -4.11094 -0.711192 0
M  V30 16483 H 1609.28 -3.03636 -1.09566 0
M  V30 16484 H 1608.33 -3.58915 1.26032 0
M  V30 16485 H 1609.65 -4.77442 1.44398 0
M  V30 16486 H 1608.8 -6.04282 -0.541091 0
M  V30 16487 H 1607.54 -4.80809 -0.816952 0
M  V30 16488 H 1606.54 -5.30795 1.43305 0
M  V30 16489 H 1607.77 -6.57533 1.69785 0
M  V30 16490 H 1605.71 -6.53725 -0.545846 0
M  V30 16491 H 1605.63 -7.5077 0.887725 0
M  V30 16492 H 1606.9 -7.79041 -0.267352 0
M  V30 16493 N 1611.13 -0.710588 -1.40671 0
M  V30 16494 C 1612.37 -0.252303 -2.02837 0
M  V30 16495 C 1612.73 1.13154 -1.55113 0
M  V30 16496 O 1613.93 1.68653 -2.09307 0
M  V30 16497 C 1612.21 -0.323902 -3.55929 0
M  V30 16498 S 1613.76 0.0581316 -4.38761 0
M  V30 16499 H 1610.58 -0.100448 -0.703869 0
M  V30 16500 H 1613.18 -0.931699 -1.71871 0
M  V30 16501 H 1611.89 -1.33279 -3.88156 0
M  V30 16502 H 1611.42 0.37414 -3.91617 0
M  V30 16503 H 1613.43 1.28162 -4.79363 0
M  V30 16504 N 1612.61 1.50847 -0.456408 0
M  V30 16505 C 1613.88 1.94907 0.164485 0
M  V30 16506 C 1614.26 1.39609 1.58343 0
M  V30 16507 O 1613.61 0.590971 2.20726 0
M  V30 16508 C 1613.82 3.48784 0.122794 0
M  V30 16509 C 1615.17 4.234 0.318964 0
M  V30 16510 O 1616.19 3.55638 0.20005 0
M  V30 16511 O 1615.05 5.43649 0.557507 0
M  V30 16512 H 1612.15 0.818298 0.119652 0
M  V30 16513 H 1614.69 1.61673 -0.515758 0
M  V30 16514 H 1613.47 3.81541 -0.868468 0
M  V30 16515 H 1613.09 3.88514 0.84513 0
M  V30 16516 N 1614.09 0.188454 1.56469 0
M  V30 16517 C 1615.36 -0.499324 1.89119 0
M  V30 16518 C 1615.74 -1.80116 1.10098 0
M  V30 16519 O 1615.09 -2.27623 0.200048 0
M  V30 16520 C 1615.3 -0.724574 3.41396 0
M  V30 16521 C 1616.65 -1.04692 4.11491 0
M  V30 16522 O 1617.67 -0.812526 3.46809 0
M  V30 16523 O 1616.53 -1.48998 5.25797 0
M  V30 16524 H 1613.63 -0.259468 0.785242 0
M  V30 16525 H 1616.17 0.228172 1.68159 0
M  V30 16526 H 1614.94 0.195039 3.90814 0
M  V30 16527 H 1614.57 -1.50477 3.68025 0
M  V30 16528 N 1615.56 -1.5737 -0.0851874 0
M  V30 16529 C 1616.79 -1.91183 -0.803983 0
M  V30 16530 C 1617.21 -0.78365 -1.70999 0
M  V30 16531 O 1616.57 0.264266 -1.79364 0
M  V30 16532 C 1616.62 -3.239 -1.58496 0
M  V30 16533 O 1615.72 -3.12189 -2.69466 0
M  V30 16534 H 1615.06 -0.626413 -0.220233 0
M  V30 16535 H 1617.59 -2.04519 -0.0574426 0
M  V30 16536 H 1617.6 -3.5745 -1.96707 0
M  V30 16537 H 1616.28 -4.05594 -0.920111 0
M  V30 16538 H 1614.86 -2.90173 -2.3421 0
M  V30 16539 N 1617.04 0.356258 -1.53521 0
M  V30 16540 C 1618.29 1.0979 -1.70154 0
M  V30 16541 C 1618.62 1.89028 -0.458124 0
M  V30 16542 O 1617.87 1.87516 0.560033 0
M  V30 16543 C 1618.17 2.07669 -2.90875 0
M  V30 16544 C 1617.84 1.4484 -4.27004 0
M  V30 16545 C 1616.5 1.27434 -4.64019 0
M  V30 16546 C 1618.85 0.994684 -5.1162 0
M  V30 16547 C 1616.18 0.632539 -5.8328 0
M  V30 16548 C 1618.53 0.366847 -6.31535 0
M  V30 16549 C 1617.19 0.180356 -6.67256 0
M  V30 16550 H 1616.46 0.401751 -0.622637 0
M  V30 16551 H 1619.11 0.378618 -1.8772 0
M  V30 16552 H 1617.42 2.85934 -2.6786 0
M  V30 16553 H 1619.11 2.65023 -3.00939 0
M  V30 16554 H 1615.7 1.59384 -3.97863 0
M  V30 16555 H 1619.89 1.11706 -4.83565 0
M  V30 16556 H 1615.14 0.476548 -6.0954 0
M  V30 16557 H 1619.32 0.00712378 -6.964 0
M  V30 16558 H 1616.94 -0.319016 -7.5953 0
M  V30 16559 N 1618.52 1.45038 0.616577 0
M  V30 16560 C 1619.77 1.48292 1.3731 0
M  V30 16561 C 1620.09 0.122437 1.94615 0
M  V30 16562 O 1619.36 -0.847103 1.76638 0
M  V30 16563 H 1617.94 0.546079 0.509712 0
M  V30 16564 H 1620.6 1.80927 0.724673 0
M  V30 16565 H 1619.7 2.21664 2.19708 0
M  V30 16566 N 1620 -0.858287 1.32179 0
M  V30 16567 C 1621.24 -1.6261 1.23844 0
M  V30 16568 C 1621.6 -1.9098 -0.197628 0
M  V30 16569 O 1622.8 -2.65737 -0.40465 0
M  V30 16570 C 1621.07 -2.91319 2.07047 0
M  V30 16571 S 1622.63 -3.82125 2.15699 0
M  V30 16572 H 1619.45 -0.557789 0.4409 0
M  V30 16573 H 1622.05 -1.0167 1.66983 0
M  V30 16574 H 1620.76 -2.68417 3.10452 0
M  V30 16575 H 1620.29 -3.57277 1.64671 0
M  V30 16576 H 1622.3 -4.78764 1.30384 0
M  V30 16577 N 1621.48 -1.1533 -1.07409 0
M  V30 16578 C 1622.7 -0.952101 -1.84255 0
M  V30 16579 C 1623.13 0.494571 -1.81482 0
M  V30 16580 O 1622.48 1.35253 -1.20733 0
M  V30 16581 C 1622.53 -1.47019 -3.29268 0
M  V30 16582 O 1621.64 -0.669005 -4.06937 0
M  V30 16583 H 1620.98 -0.339643 -0.57056 0
M  V30 16584 H 1623.51 -1.53298 -1.35502 0
M  V30 16585 H 1623.52 -1.48278 -3.80102 0
M  V30 16586 H 1622.19 -2.5234 -3.30602 0
M  V30 16587 H 1620.77 -0.726003 -3.65764 0
M  V30 16588 N 1622.95 1.25748 -0.950004 0
M  V30 16589 C 1624.18 1.97952 -0.618848 0
M  V30 16590 C 1624.6 1.70184 0.801194 0
M  V30 16591 O 1623.96 0.955032 1.54107 0
M  V30 16592 C 1624.01 3.49744 -0.878151 0
M  V30 16593 O 1623.11 4.12375 0.0453685 0
M  V30 16594 H 1622.45 0.620731 -0.235773 0
M  V30 16595 H 1624.98 1.59988 -1.27534 0
M  V30 16596 H 1624.99 4.00029 -0.802567 0
M  V30 16597 H 1623.67 3.69285 -1.91315 0
M  V30 16598 H 1622.25 3.7281 -0.0820265 0
M  V30 16599 N 1624.43 0.718038 1.40292 0
M  V30 16600 C 1625.38 0.0559466 2.32533 0
M  V30 16601 C 1626.37 -0.744365 1.5217 0
M  V30 16602 O 1627.58 -0.647458 1.67952 0
M  V30 16603 H 1623.95 -0.000710627 0.752 0
M  V30 16604 H 1625.93 0.850579 2.8602 0
M  V30 16605 C 1624.67 -0.849927 3.37152 0
M  V30 16606 H 1624 -0.243507 3.99058 0
M  V30 16607 H 1625.44 -1.28111 4.04183 0
M  V30 16608 C 1623.9 -1.9765 2.7283 0
M  V30 16609 O 1624.43 -3.06757 2.59351 0
M  V30 16610 N 1622.63 -1.76086 2.31176 0
M  V30 16611 H 1622.18 -0.873485 2.42339 0
M  V30 16612 H 1622.14 -2.51643 1.88477 0
M  V30 16613 N 1625.91 -1.50602 0.464402 0
M  V30 16614 C 1627.14 -2.07191 -0.0930678 0
M  V30 16615 C 1627.56 -1.32675 -1.33338 0
M  V30 16616 O 1626.92 -0.372453 -1.77433 0
M  V30 16617 C 1626.97 -3.5873 -0.366775 0
M  V30 16618 O 1626.07 -3.86125 -1.44849 0
M  V30 16619 H 1625.41 -0.663924 0.0100336 0
M  V30 16620 H 1627.94 -1.93882 0.653522 0
M  V30 16621 H 1627.95 -4.03425 -0.609258 0
M  V30 16622 H 1626.63 -4.12385 0.539608 0
M  V30 16623 H 1625.2 -3.53273 -1.19384 0
M  V30 16624 N 1627.39 -0.19675 -1.56367 0
M  V30 16625 C 1628.61 0.450245 -2.02454 0
M  V30 16626 C 1629.04 1.54287 -1.07597 0
M  V30 16627 O 1628.4 1.81202 -0.0597529 0
M  V30 16628 C 1628.44 0.982087 -3.46969 0
M  V30 16629 O 1627.55 2.09489 -3.5523 0
M  V30 16630 H 1626.89 0.105022 -0.655642 0
M  V30 16631 H 1629.42 -0.308112 -2.02267 0
M  V30 16632 H 1629.43 1.29826 -3.86793 0
M  V30 16633 H 1628.1 0.18224 -4.15501 0
M  V30 16634 H 1626.68 1.78723 -3.27281 0
M  V30 16635 N 1628.87 1.57413 0.0768405 0
M  V30 16636 C 1629.81 2.04373 1.1106 0
M  V30 16637 C 1630.81 0.948127 1.40381 0
M  V30 16638 O 1632.01 1.13325 1.39848 0
M  V30 16639 H 1628.39 0.65156 0.375464 0
M  V30 16640 H 1630.36 2.90352 0.688348 0
M  V30 16641 C 1629.11 2.49914 2.41741 0
M  V30 16642 H 1628.43 3.33808 2.20027 0
M  V30 16643 H 1629.87 2.8653 3.12532 0
M  V30 16644 C 1628.33 1.37996 3.07341 0
M  V30 16645 O 1628.86 0.719242 3.95209 0
M  V30 16646 N 1627.07 1.12635 2.67884 0
M  V30 16647 H 1626.61 1.66545 1.96521 0
M  V30 16648 H 1626.57 0.37956 3.121 0
M  V30 16649 N 1630.34 -0.348112 1.53707 0
M  V30 16650 C 1631.31 -1.41018 1.80683 0
M  V30 16651 C 1632.31 -1.4582 0.67774 0
M  V30 16652 O 1633.5 -1.46275 0.94601 0
M  V30 16653 C 1630.63 -2.79988 1.94473 0
M  V30 16654 H 1631.82 -1.18365 2.75554 0
M  V30 16655 H 1629.38 -0.582244 1.4505 0
M  V30 16656 H 1630.11 -3.07931 1.0173 0
M  V30 16657 H 1629.9 -2.77899 2.76612 0
M  V30 16658 H 1631.39 -3.56868 2.16876 0
M  V30 16659 N 1631.82 -1.45363 -0.608876 0
M  V30 16660 C 1633.07 -1.49534 -1.36995 0
M  V30 16661 C 1633.4 -0.136087 -1.93723 0
M  V30 16662 O 1632.68 0.849276 -1.74979 0
M  V30 16663 C 1632.96 -2.57348 -2.51881 0
M  V30 16664 C 1632.81 -4.02712 -2.00358 0
M  V30 16665 C 1634.13 -2.61459 -3.54016 0
M  V30 16666 H 1631.25 -0.544419 -0.496767 0
M  V30 16667 H 1633.89 -1.77165 -0.686473 0
M  V30 16668 H 1632.04 -2.33917 -3.10185 0
M  V30 16669 H 1633.71 -4.37348 -1.46713 0
M  V30 16670 H 1631.96 -4.1343 -1.31369 0
M  V30 16671 H 1632.63 -4.73834 -2.8317 0
M  V30 16672 H 1635.1 -2.8245 -3.0555 0
M  V30 16673 H 1633.98 -3.38761 -4.31894 0
M  V30 16674 H 1634.24 -1.66499 -4.09549 0
M  V30 16675 N 1633.3 0.851265 -1.32632 0
M  V30 16676 C 1634.55 1.60057 -1.22738 0
M  V30 16677 C 1634.86 1.94485 0.208525 0
M  V30 16678 O 1636.07 2.68083 0.429361 0
M  V30 16679 C 1634.52 2.88634 -2.14985 0
M  V30 16680 C 1634.13 2.61617 -3.63676 0
M  V30 16681 C 1635.88 3.6665 -2.13935 0
M  V30 16682 C 1633.78 3.86215 -4.47875 0
M  V30 16683 H 1632.71 0.600617 -0.455824 0
M  V30 16684 H 1635.36 0.939671 -1.57615 0
M  V30 16685 H 1633.75 3.56199 -1.73027 0
M  V30 16686 H 1634.92 2.02342 -4.13998 0
M  V30 16687 H 1633.24 1.96926 -3.66891 0
M  V30 16688 H 1635.83 4.59114 -2.74078 0
M  V30 16689 H 1636.18 4.00636 -1.13121 0
M  V30 16690 H 1636.71 3.05993 -2.54192 0
M  V30 16691 H 1633.45 3.57367 -5.49517 0
M  V30 16692 H 1632.97 4.44874 -4.02302 0
M  V30 16693 H 1634.65 4.5392 -4.61049 0
M  V30 16694 N 1634.78 1.15898 1.06796 0
M  V30 16695 C 1636.19 0.945837 1.60968 0
M  V30 16696 C 1636.54 -0.511507 1.89415 0
M  V30 16697 O 1635.67 -1.38372 1.66379 0
M  V30 16698 C 1636.26 1.71054 2.92448 0
M  V30 16699 C 1634.82 1.54252 3.43341 0
M  V30 16700 C 1633.97 1.72253 2.17311 0
M  V30 16701 H 1636.92 1.30842 0.898118 0
M  V30 16702 H 1636.94 1.18336 3.61631 0
M  V30 16703 H 1636.45 2.77117 2.71712 0
M  V30 16704 H 1634.55 0.506082 3.69147 0
M  V30 16705 H 1634.66 2.32314 4.19007 0
M  V30 16706 H 1633.03 1.14952 2.27284 0
M  V30 16707 H 1633.81 2.79693 1.99064 0
M  V30 16708 N 1636.26 -1.25243 0.956659 0
M  V30 16709 C 1637.48 -1.97621 0.629337 0
M  V30 16710 C 1637.91 -1.70606 -0.792158 0
M  V30 16711 O 1637.26 -0.963192 -1.53598 0
M  V30 16712 C 1637.31 -3.49273 0.896687 0
M  V30 16713 O 1636.42 -4.12393 -0.0234986 0
M  V30 16714 H 1635.76 -0.619472 0.239061 0
M  V30 16715 H 1638.29 -1.5931 1.28381 0
M  V30 16716 H 1638.3 -3.99597 0.82377 0
M  V30 16717 H 1636.97 -3.68265 1.93271 0
M  V30 16718 H 1635.55 -3.72761 0.101796 0
M  V30 16719 N 1637.73 -0.725468 -1.3991 0
M  V30 16720 C 1639.01 -0.195971 -1.94616 0
M  V30 16721 C 1639.39 1.30035 -1.66295 0
M  V30 16722 O 1638.74 2.06133 -0.985977 0
M  V30 16723 C 1638.95 -0.519325 -3.45115 0
M  V30 16724 C 1640.3 -0.46341 -4.22064 0
M  V30 16725 O 1641.32 -0.455958 -3.5327 0
M  V30 16726 O 1640.18 -0.449579 -5.44648 0
M  V30 16727 H 1637.27 -0.0325409 -0.82636 0
M  V30 16728 H 1639.82 -0.803676 -1.49463 0
M  V30 16729 H 1638.59 -1.55386 -3.59125 0
M  V30 16730 H 1638.22 0.117838 -3.97425 0
M  V30 16731 N 1639.21 1.50354 -0.472382 0
M  V30 16732 C 1640.12 2.32318 0.326405 0
M  V30 16733 C 1641.14 1.4276 0.994771 0
M  V30 16734 O 1642.31 1.75811 0.98246 0
M  V30 16735 C 1639.38 3.17468 1.39337 0
M  V30 16736 C 1638.44 4.22848 0.741465 0
M  V30 16737 C 1637.67 5.03929 1.75759 0
M  V30 16738 O 1637.9 4.86105 2.98425 0
M  V30 16739 O 1636.83 5.87051 1.32871 0
M  V30 16740 H 1640.66 3.01749 -0.343702 0
M  V30 16741 H 1638.24 1.47553 -0.234207 0
M  V30 16742 H 1640.12 3.703 2.01136 0
M  V30 16743 H 1638.8 2.50764 2.04692 0
M  V30 16744 H 1637.71 3.74005 0.0844848 0
M  V30 16745 H 1639.04 4.92026 0.130838 0
M  V30 16746 N 1640.69 0.205039 1.56261 0
M  V30 16747 C 1641.92 -0.43642 2.02245 0
M  V30 16748 C 1642.33 -1.54504 1.08508 0
M  V30 16749 O 1641.69 -1.82269 0.0916991 0
M  V30 16750 C 1641.74 -0.983483 3.47865 0
M  V30 16751 O 1641.46 0.0809166 4.38025 0
M  V30 16752 C 1642.96 -1.69983 4.09415 0
M  V30 16753 H 1640.18 -0.108577 0.662157 0
M  V30 16754 H 1642.73 0.316659 2.02033 0
M  V30 16755 H 1640.88 -1.6869 3.48744 0
M  V30 16756 H 1641.3 -0.327751 5.23475 0
M  V30 16757 H 1642.77 -2.03481 5.13127 0
M  V30 16758 H 1643.25 -2.60711 3.5345 0
M  V30 16759 H 1643.85 -1.04202 4.12337 0
M  V30 16760 N 1642.17 -1.57451 -0.0684915 0
M  V30 16761 C 1643.42 -1.87689 -0.768156 0
M  V30 16762 C 1643.75 -0.79776 -1.77058 0
M  V30 16763 O 1643.02 0.191614 -1.93554 0
M  V30 16764 C 1643.31 -3.28587 -1.47319 0
M  V30 16765 C 1643.16 -4.47156 -0.486954 0
M  V30 16766 C 1644.48 -3.67772 -2.41727 0
M  V30 16767 H 1641.6 -0.682642 -0.277793 0
M  V30 16768 H 1644.24 -1.89974 -0.0312968 0
M  V30 16769 H 1642.39 -3.26769 -2.10129 0
M  V30 16770 H 1644.06 -4.61099 0.136189 0
M  V30 16771 H 1642.3 -4.33351 0.197429 0
M  V30 16772 H 1642.98 -5.42533 -1.01795 0
M  V30 16773 H 1645.45 -3.70704 -1.88992 0
M  V30 16774 H 1644.33 -4.6724 -2.88059 0
M  V30 16775 H 1644.59 -2.97882 -3.26679 0
M  V30 16776 N 1643.65 0.339955 -1.5389 0
M  V30 16777 C 1644.89 1.07979 -1.71309 0
M  V30 16778 C 1645.22 1.88531 -0.478147 0
M  V30 16779 O 1644.48 1.88099 0.540113 0
M  V30 16780 C 1644.78 2.04572 -2.93062 0
M  V30 16781 C 1644.44 1.40303 -4.28516 0
M  V30 16782 C 1643.1 1.22505 -4.65345 0
M  V30 16783 C 1645.46 0.940364 -5.12647 0
M  V30 16784 C 1642.78 0.570639 -5.83918 0
M  V30 16785 C 1645.14 0.299844 -6.31889 0
M  V30 16786 C 1643.8 0.109575 -6.6741 0
M  V30 16787 H 1643.07 0.395125 -0.626863 0
M  V30 16788 H 1645.72 0.358686 -1.88111 0
M  V30 16789 H 1644.02 2.83077 -2.70878 0
M  V30 16790 H 1645.72 2.61816 -3.03733 0
M  V30 16791 H 1642.31 1.55155 -3.99531 0
M  V30 16792 H 1646.49 1.06571 -4.84723 0
M  V30 16793 H 1641.75 0.411872 -6.10011 0
M  V30 16794 H 1645.92 -0.0667391 -6.96368 0
M  V30 16795 H 1643.55 -0.399556 -7.59149 0
M  V30 16796 N 1645.13 1.45684 0.601159 0
M  V30 16797 C 1646.35 1.53574 1.38646 0
M  V30 16798 C 1646.77 0.170511 1.88028 0
M  V30 16799 O 1646.13 -0.829061 1.62582 0
M  V30 16800 C 1646.18 2.52543 2.58658 0
M  V30 16801 O 1645.9 3.83761 2.11327 0
M  V30 16802 C 1647.4 2.70194 3.5144 0
M  V30 16803 H 1644.62 0.519907 0.424191 0
M  V30 16804 H 1647.16 1.90929 0.732559 0
M  V30 16805 H 1645.32 2.18242 3.20077 0
M  V30 16806 H 1645.73 4.37467 2.89349 0
M  V30 16807 H 1647.21 3.43405 4.32177 0
M  V30 16808 H 1647.68 1.76452 4.02196 0
M  V30 16809 H 1648.29 3.05517 2.95871 0
M  V30 16810 N 1646.6 -0.84422 1.33082 0
M  V30 16811 C 1648.01 -1.41526 1.21767 0
M  V30 16812 C 1648.37 -1.955 -0.165606 0
M  V30 16813 O 1647.49 -1.88384 -1.06492 0
M  V30 16814 C 1648.09 -2.57266 2.20454 0
M  V30 16815 C 1646.64 -3.10339 2.12995 0
M  V30 16816 C 1645.79 -1.83119 2.08237 0
M  V30 16817 H 1648.74 -0.650452 1.44758 0
M  V30 16818 H 1648.76 -3.34739 1.80914 0
M  V30 16819 H 1648.28 -2.17952 3.21121 0
M  V30 16820 H 1646.38 -3.5421 1.15612 0
M  V30 16821 H 1646.49 -3.70875 3.03296 0
M  V30 16822 H 1644.85 -2.03148 1.53632 0
M  V30 16823 H 1645.64 -1.46009 3.10703 0
M  V30 16824 N 1648.08 -1.16463 -1.0618 0
M  V30 16825 C 1649.33 -0.948248 -1.79265 0
M  V30 16826 C 1649.66 0.522578 -1.87037 0
M  V30 16827 O 1648.94 1.38772 -1.36282 0
M  V30 16828 C 1649.22 -1.57781 -3.23693 0
M  V30 16829 C 1649.07 -3.12005 -3.23995 0
M  V30 16830 C 1650.39 -1.27343 -4.21274 0
M  V30 16831 H 1647.51 -0.345907 -0.650782 0
M  V30 16832 H 1650.15 -1.4381 -1.24172 0
M  V30 16833 H 1648.3 -1.16126 -3.70738 0
M  V30 16834 H 1649.97 -3.62649 -2.85102 0
M  V30 16835 H 1648.22 -3.45276 -2.62615 0
M  V30 16836 H 1648.89 -3.51176 -4.25886 0
M  V30 16837 H 1651.36 -1.63396 -3.82676 0
M  V30 16838 H 1650.24 -1.73993 -5.20594 0
M  V30 16839 H 1650.5 -0.192469 -4.41681 0
M  V30 16840 N 1649.56 1.24734 -0.963288 0
M  V30 16841 C 1650.47 2.29268 -0.497316 0
M  V30 16842 C 1651.49 1.68356 0.439572 0
M  V30 16843 O 1652.66 1.98942 0.313697 0
M  V30 16844 C 1649.73 3.46068 0.209261 0
M  V30 16845 C 1648.79 4.22394 -0.766907 0
M  V30 16846 C 1648.02 5.33617 -0.0939542 0
M  V30 16847 O 1648.24 5.59323 1.11864 0
M  V30 16848 O 1647.18 5.96774 -0.78388 0
M  V30 16849 H 1651 2.71235 -1.36622 0
M  V30 16850 H 1648.59 1.30344 -0.730126 0
M  V30 16851 H 1650.47 4.17015 0.606367 0
M  V30 16852 H 1649.15 3.06087 1.0532 0
M  V30 16853 H 1648.05 3.53841 -1.21439 0
M  V30 16854 H 1649.39 4.66181 -1.57912 0
M  V30 16855 N 1651.04 0.732878 1.39523 0
M  V30 16856 C 1651.95 0.0930216 2.34416 0
M  V30 16857 C 1652.96 -0.724309 1.58208 0
M  V30 16858 O 1654.14 -0.653267 1.90511 0
M  V30 16859 C 1651.2 -0.805036 3.37224 0
M  V30 16860 C 1650.27 0.0243049 4.29293 0
M  V30 16861 C 1649.5 -0.830984 5.27191 0
M  V30 16862 O 1649.72 -2.06977 5.31523 0
M  V30 16863 O 1648.66 -0.260772 6.01335 0
M  V30 16864 H 1652.48 0.876179 2.90786 0
M  V30 16865 H 1650.07 0.493525 1.41013 0
M  V30 16866 H 1651.95 -1.31894 4.00228 0
M  V30 16867 H 1650.62 -1.56704 2.83241 0
M  V30 16868 H 1649.53 0.583677 3.69519 0
M  V30 16869 H 1650.86 0.748485 4.86476 0
M  V30 16870 N 1652.52 -1.50101 0.480349 0
M  V30 16871 C 1653.46 -2.28722 -0.308993 0
M  V30 16872 C 1654.43 -1.34186 -0.978948 0
M  V30 16873 O 1655.62 -1.6313 -0.989602 0
M  V30 16874 C 1652.76 -3.16322 -1.37966 0
M  V30 16875 C 1651.87 -4.25898 -0.723552 0
M  V30 16876 C 1651.01 -5.00741 -1.7729 0
M  V30 16877 C 1650.04 -6.0218 -1.09754 0
M  V30 16878 N 1649.18 -6.70266 -2.09015 0
M  V30 16879 H 1654.02 -2.95722 0.367739 0
M  V30 16880 H 1651.56 -1.45826 0.193197 0
M  V30 16881 H 1653.52 -3.65469 -2.01217 0
M  V30 16882 H 1652.15 -2.51349 -2.02543 0
M  V30 16883 H 1651.2 -3.80394 0.0217507 0
M  V30 16884 H 1652.51 -4.98435 -0.190905 0
M  V30 16885 H 1651.66 -5.53653 -2.48098 0
M  V30 16886 H 1650.4 -4.27931 -2.33937 0
M  V30 16887 H 1649.41 -5.48519 -0.375123 0
M  V30 16888 H 1650.63 -6.76967 -0.537841 0
M  V30 16889 H 1648.58 -6.00242 -2.64662 0
M  V30 16890 H 1648.5 -7.3871 -1.6076 0
M  V30 16891 H 1649.76 -7.27792 -2.79175 0
M  V30 16892 N 1653.99 -0.213323 -1.5615 0
M  V30 16893 C 1655.23 0.422545 -1.99985 0
M  V30 16894 C 1655.6 1.57529 -1.09765 0
M  V30 16895 O 1656.8 2.27661 -1.42913 0
M  V30 16896 C 1655.07 0.853804 -3.47052 0
M  V30 16897 S 1656.63 1.48494 -4.1291 0
M  V30 16898 H 1653.45 0.134436 -0.698175 0
M  V30 16899 H 1656.05 -0.320678 -1.92852 0
M  V30 16900 H 1654.75 0.00503066 -4.104 0
M  V30 16901 H 1654.28 1.63004 -3.58041 0
M  V30 16902 H 1656.3 2.77395 -4.1142 0
M  V30 16903 N 1655.47 1.57485 0.0601405 0
M  V30 16904 C 1656.89 1.54105 0.415187 0
M  V30 16905 C 1657.09 0.935177 1.78484 0
M  V30 16906 O 1656.14 0.542715 2.46599 0
M  V30 16907 C 1657.46 2.98708 0.34555 0
M  V30 16908 C 1659.01 3.10103 0.424895 0
M  V30 16909 C 1659.48 4.56379 0.385041 0
M  V30 16910 N 1660.97 4.6106 0.444771 0
M  V30 16911 C 1661.71 5.71737 0.436334 0
M  V30 16912 N 1661.2 6.91746 0.38202 0
M  V30 16913 N 1663 5.60014 0.483759 0
M  V30 16914 H 1655.15 1.95232 -0.836565 0
M  V30 16915 H 1657.41 0.894101 -0.3151 0
M  V30 16916 H 1657.12 3.4664 -0.594427 0
M  V30 16917 H 1656.99 3.59201 1.15129 0
M  V30 16918 H 1659.38 2.62137 1.3553 0
M  V30 16919 H 1659.46 2.52499 -0.409633 0
M  V30 16920 H 1659.1 5.05004 -0.541561 0
M  V30 16921 H 1659.03 5.11859 1.23726 0
M  V30 16922 H 1661.52 3.74703 0.490522 0
M  V30 16923 H 1661.84 7.71866 0.379829 0
M  V30 16924 H 1660.18 6.94126 0.348532 0
M  V30 16925 H 1663.37 4.65158 0.523965 0
M  V30 16926 H 1663.54 6.46266 0.473715 0
M  V30 16927 N 1656.95 -0.331789 1.54068 0
M  V30 16928 C 1657.88 -1.41332 1.8587 0
M  V30 16929 C 1658.86 -1.54353 0.714787 0
M  V30 16930 O 1660.05 -1.68368 0.967777 0
M  V30 16931 C 1657.18 -2.78218 2.07875 0
M  V30 16932 C 1656.13 -2.79994 3.23709 0
M  V30 16933 C 1655.46 -4.19878 3.31069 0
M  V30 16934 C 1656.76 -2.44476 4.6155 0
M  V30 16935 H 1658.45 -1.14966 2.76447 0
M  V30 16936 H 1656 -0.551615 1.33016 0
M  V30 16937 H 1657.95 -3.53937 2.28706 0
M  V30 16938 H 1656.67 -3.06044 1.14038 0
M  V30 16939 H 1655.33 -2.0673 3.02751 0
M  V30 16940 H 1654.98 -4.44831 2.34807 0
M  V30 16941 H 1654.68 -4.21974 4.08915 0
M  V30 16942 H 1656.2 -4.97421 3.54125 0
M  V30 16943 H 1657.62 -3.09908 4.82317 0
M  V30 16944 H 1656.02 -2.57837 5.41886 0
M  V30 16945 H 1657.09 -1.3964 4.64358 0
M  V30 16946 N 1658.43 -1.46001 -0.593424 0
M  V30 16947 C 1659.71 -1.4123 -1.35327 0
M  V30 16948 C 1660.09 -0.0901956 -2.10907 0
M  V30 16949 O 1659.43 0.928102 -2.08803 0
M  V30 16950 C 1659.64 -2.63515 -2.28825 0
M  V30 16951 C 1660.99 -3.09208 -2.90991 0
M  V30 16952 O 1662.02 -2.63988 -2.39142 0
M  V30 16953 O 1660.87 -3.87723 -3.8514 0
M  V30 16954 H 1657.97 -0.561132 -0.607503 0
M  V30 16955 H 1660.51 -1.58151 -0.615333 0
M  V30 16956 H 1659.29 -3.51308 -1.72333 0
M  V30 16957 H 1658.91 -2.48999 -3.09976 0
M  V30 16958 N 1659.91 0.83715 -1.33527 0
M  V30 16959 C 1661.15 1.59487 -1.25267 0
M  V30 16960 C 1661.49 1.93357 0.180741 0
M  V30 16961 O 1660.76 1.5884 1.12251 0
M  V30 16962 C 1661.04 2.90376 -2.12964 0
M  V30 16963 C 1660.9 2.63177 -3.64771 0
M  V30 16964 C 1662.22 3.9182 -2.00412 0
M  V30 16965 H 1659.33 0.578684 -0.456392 0
M  V30 16966 H 1661.98 0.965428 -1.63644 0
M  V30 16967 H 1660.13 3.44095 -1.80364 0
M  V30 16968 H 1661.8 2.15878 -4.0767 0
M  V30 16969 H 1660.04 1.96849 -3.86566 0
M  V30 16970 H 1660.71 3.56452 -4.21481 0
M  V30 16971 H 1663.19 3.47413 -2.29005 0
M  V30 16972 H 1662.06 4.81232 -2.64021 0
M  V30 16973 H 1662.33 4.31173 -0.976852 0
M  V30 16974 N 1661.38 1.17024 1.05561 0
M  V30 16975 C 1662.33 0.879696 2.15323 0
M  V30 16976 C 1663.33 -0.154191 1.68697 0
M  V30 16977 O 1664.53 -0.00746608 1.79998 0
M  V30 16978 H 1660.91 0.266916 0.703036 0
M  V30 16979 H 1662.88 1.81264 2.37035 0
M  V30 16980 C 1661.63 0.405371 3.45329 0
M  V30 16981 H 1660.95 1.19238 3.81605 0
M  V30 16982 H 1662.39 0.240923 4.23315 0
M  V30 16983 C 1660.85 -0.876349 3.25303 0
M  V30 16984 O 1661.38 -1.94397 3.51529 0
M  V30 16985 N 1659.59 -0.823031 2.78702 0
M  V30 16986 H 1659.13 0.0459847 2.57559 0
M  V30 16987 H 1659.09 -1.68108 2.65682 0
M  V30 16988 N 1662.86 -1.24221 0.969889 0
M  V30 16989 C 1664.09 -1.96403 0.650658 0
M  V30 16990 C 1664.51 -1.71919 -0.780339 0
M  V30 16991 O 1663.86 -1.00427 -1.52383 0
M  V30 16992 C 1663.91 -3.49636 0.918542 0
M  V30 16993 O 1663.63 -3.73283 2.29328 0
M  V30 16994 C 1665.14 -4.3903 0.613803 0
M  V30 16995 H 1662.36 -0.625614 0.242587 0
M  V30 16996 H 1664.9 -1.57992 1.29842 0
M  V30 16997 H 1663.05 -3.86101 0.316959 0
M  V30 16998 H 1663.47 -4.67649 2.37496 0
M  V30 16999 H 1664.94 -5.4539 0.851679 0
M  V30 17000 H 1665.42 -4.36868 -0.451976 0
M  V30 17001 H 1666.03 -4.08155 1.19539 0
M  V30 17002 N 1664.34 -0.740267 -1.39132 0
M  V30 17003 C 1665.25 -0.105452 -2.34363 0
M  V30 17004 C 1666.27 0.715908 -1.5859 0
M  V30 17005 O 1667.44 0.643155 -1.90855 0
M  V30 17006 C 1664.51 0.787141 -3.37646 0
M  V30 17007 C 1663.57 -0.047071 -4.29274 0
M  V30 17008 C 1662.8 0.803014 -5.27624 0
M  V30 17009 O 1663.02 2.04155 -5.32613 0
M  V30 17010 O 1661.96 0.228879 -6.01465 0
M  V30 17011 H 1665.78 -0.891588 -2.90318 0
M  V30 17012 H 1663.37 -0.500996 -1.40749 0
M  V30 17013 H 1665.25 1.29769 -4.00921 0
M  V30 17014 H 1663.93 1.552 -2.84068 0
M  V30 17015 H 1662.83 -0.603265 -3.69204 0
M  V30 17016 H 1664.17 -0.774273 -4.86072 0
M  V30 17017 N 1665.82 1.49844 -0.488302 0
M  V30 17018 C 1666.75 2.31737 0.286432 0
M  V30 17019 C 1667.73 1.39424 0.974418 0
M  V30 17020 O 1668.91 1.68339 0.968274 0
M  V30 17021 C 1666.04 3.19616 1.35878 0
M  V30 17022 C 1665 4.20619 0.791409 0
M  V30 17023 C 1664.32 4.9735 1.96333 0
M  V30 17024 C 1665.62 5.21882 -0.208975 0
M  V30 17025 H 1667.32 2.96755 -0.397092 0
M  V30 17026 H 1664.86 1.42709 -0.192413 0
M  V30 17027 H 1666.82 3.75711 1.90838 0
M  V30 17028 H 1665.54 2.52516 2.07131 0
M  V30 17029 H 1664.2 3.65651 0.263647 0
M  V30 17030 H 1663.85 4.26708 2.66325 0
M  V30 17031 H 1663.55 5.65684 1.58983 0
M  V30 17032 H 1665.07 5.56286 2.51751 0
M  V30 17033 H 1666.49 5.72746 0.252049 0
M  V30 17034 H 1664.88 5.98033 -0.497638 0
M  V30 17035 H 1665.95 4.7157 -1.12916 0
M  V30 17036 N 1667.3 0.221601 1.56034 0
M  V30 17037 C 1668.24 -0.704963 2.2166 0
M  V30 17038 C 1669.24 -1.19966 1.19601 0
M  V30 17039 O 1670.44 -1.15949 1.37681 0
M  V30 17040 H 1666.82 -0.245758 0.710709 0
M  V30 17041 H 1668.79 -0.128041 2.98125 0
M  V30 17042 C 1667.54 -1.90234 2.91043 0
M  V30 17043 H 1666.86 -1.53079 3.69333 0
M  V30 17044 H 1668.3 -2.52844 3.40361 0
M  V30 17045 C 1666.76 -2.75777 1.93516 0
M  V30 17046 O 1667.29 -3.74534 1.45214 0
M  V30 17047 N 1665.5 -2.41815 1.61165 0
M  V30 17048 H 1665.04 -1.61561 2.00639 0
M  V30 17049 H 1665 -2.9933 0.96172 0
M  V30 17050 N 1668.77 -1.57515 -0.0517878 0
M  V30 17051 C 1670 -1.92845 -0.763249 0
M  V30 17052 C 1670.42 -0.819745 -1.69298 0
M  V30 17053 O 1669.78 0.226161 -1.79884 0
M  V30 17054 C 1669.83 -3.27189 -1.5159 0
M  V30 17055 O 1668.93 -3.17834 -2.62783 0
M  V30 17056 H 1668.28 -0.630944 -0.206896 0
M  V30 17057 H 1670.81 -2.04595 -0.0140481 0
M  V30 17058 H 1670.82 -3.61542 -1.89081 0
M  V30 17059 H 1669.49 -4.07455 -0.833871 0
M  V30 17060 H 1668.07 -2.95075 -2.28002 0
M  V30 17061 N 1670.25 0.323614 -1.54242 0
M  V30 17062 C 1671.48 1.08548 -1.76726 0
M  V30 17063 C 1671.9 1.8093 -0.514375 0
M  V30 17064 O 1671.26 1.73255 0.534069 0
M  V30 17065 C 1671.31 2.05928 -2.96017 0
M  V30 17066 O 1670.41 3.13825 -2.67559 0
M  V30 17067 H 1669.75 0.31297 -0.585616 0
M  V30 17068 H 1672.28 0.367925 -2.01265 0
M  V30 17069 H 1672.29 2.48799 -3.23362 0
M  V30 17070 H 1670.97 1.52646 -3.86875 0
M  V30 17071 H 1669.55 2.7563 -2.51163 0
M  V30 17072 N 1671.73 1.46313 0.585673 0
M  V30 17073 C 1672.98 1.50738 1.34019 0
M  V30 17074 C 1673.29 0.162245 1.94926 0
M  V30 17075 O 1674.5 0.0842676 2.71369 0
M  V30 17076 C 1672.96 2.65592 2.42876 0
M  V30 17077 C 1672.56 4.06513 1.88285 0
M  V30 17078 C 1674.31 2.79284 3.19689 0
M  V30 17079 C 1672.21 5.12712 2.94754 0
M  V30 17080 H 1671.14 0.560979 0.503804 0
M  V30 17081 H 1673.8 1.72516 0.625344 0
M  V30 17082 H 1672.18 2.37138 3.17146 0
M  V30 17083 H 1673.35 4.44744 1.20578 0
M  V30 17084 H 1671.67 3.97462 1.2415 0
M  V30 17085 H 1674.26 3.55795 3.99142 0
M  V30 17086 H 1674.61 1.86694 3.7209 0
M  V30 17087 H 1675.14 3.0737 2.52525 0
M  V30 17088 H 1671.88 6.07084 2.47244 0
M  V30 17089 H 1671.4 4.79028 3.6096 0
M  V30 17090 H 1673.08 5.38426 3.58757 0
M  V30 17091 N 1673.21 -0.830057 1.33969 0
M  V30 17092 C 1674.12 -1.97244 1.27012 0
M  V30 17093 C 1675.14 -1.73076 0.179075 0
M  V30 17094 O 1676.31 -1.97301 0.404262 0
M  V30 17095 C 1673.38 -3.31409 1.01827 0
M  V30 17096 C 1672.44 -3.68633 2.20018 0
M  V30 17097 C 1671.67 -4.96397 1.96025 0
M  V30 17098 O 1671.89 -5.63014 0.91494 0
M  V30 17099 O 1670.83 -5.31331 2.82791 0
M  V30 17100 H 1674.65 -2.06056 2.23103 0
M  V30 17101 H 1672.24 -0.964399 1.14104 0
M  V30 17102 H 1674.12 -4.11779 0.895337 0
M  V30 17103 H 1672.8 -3.23581 0.0877091 0
M  V30 17104 H 1671.7 -2.88738 2.37869 0
M  V30 17105 H 1673.04 -3.81138 3.11439 0
M  V30 17106 N 1674.69 -1.17582 -1.04939 0
M  V30 17107 C 1675.96 -0.875638 -1.74906 0
M  V30 17108 C 1676.34 0.62353 -2.01681 0
M  V30 17109 O 1675.69 1.57558 -1.65492 0
M  V30 17110 C 1675.9 -1.71334 -3.04049 0
M  V30 17111 C 1677.25 -1.93489 -3.77951 0
M  V30 17112 O 1678.27 -1.68314 -3.13925 0
M  V30 17113 O 1677.13 -2.35815 -4.93005 0
M  V30 17114 H 1674.23 -0.324451 -0.760697 0
M  V30 17115 H 1676.77 -1.2829 -1.11084 0
M  V30 17116 H 1675.55 -2.73003 -2.80331 0
M  V30 17117 H 1675.17 -1.30401 -3.75608 0
M  V30 17118 N 1676.17 1.23705 -0.976463 0
M  V30 17119 C 1677.1 2.2734 -0.532809 0
M  V30 17120 C 1678.08 1.64523 0.432012 0
M  V30 17121 O 1679.26 1.9144 0.326233 0
M  V30 17122 C 1676.39 3.46887 0.169374 0
M  V30 17123 C 1675.35 4.22031 -0.712336 0
M  V30 17124 C 1674.67 5.34561 0.121838 0
M  V30 17125 C 1675.97 4.8244 -2.00123 0
M  V30 17126 H 1677.67 2.64702 -1.39904 0
M  V30 17127 H 1675.21 1.27244 -0.674156 0
M  V30 17128 H 1677.16 4.18529 0.491028 0
M  V30 17129 H 1675.89 3.08574 1.07002 0
M  V30 17130 H 1674.55 3.522 -1.01739 0
M  V30 17131 H 1674.2 4.92489 1.0229 0
M  V30 17132 H 1673.9 5.85758 -0.464962 0
M  V30 17133 H 1675.42 6.09027 0.437963 0
M  V30 17134 H 1676.83 5.46111 -1.7446 0
M  V30 17135 H 1675.23 5.43906 -2.53548 0
M  V30 17136 H 1676.3 4.03405 -2.69059 0
M  V30 17137 N 1677.64 0.747635 1.38738 0
M  V30 17138 C 1678.57 0.131317 2.3313 0
M  V30 17139 C 1679.55 -0.710229 1.54563 0
M  V30 17140 O 1680.74 -0.652631 1.82905 0
M  V30 17141 C 1677.87 -0.767168 3.38721 0
M  V30 17142 C 1676.82 -0.0288124 4.2799 0
M  V30 17143 C 1676.15 -1.04515 5.24386 0
M  V30 17144 C 1677.45 1.13608 5.09795 0
M  V30 17145 H 1679.14 0.91981 2.84921 0
M  V30 17146 H 1676.69 0.443764 1.36992 0
M  V30 17147 H 1678.64 -1.20796 4.03716 0
M  V30 17148 H 1677.37 -1.58792 2.85399 0
M  V30 17149 H 1676.03 0.392491 3.64493 0
M  V30 17150 H 1675.67 -1.8598 4.67355 0
M  V30 17151 H 1675.37 -0.555813 5.84965 0
M  V30 17152 H 1676.9 -1.48538 5.92257 0
M  V30 17153 H 1678.31 0.773129 5.68063 0
M  V30 17154 H 1676.71 1.55589 5.79579 0
M  V30 17155 H 1677.78 1.95182 4.43883 0
M  V30 17156 N 1679.12 -1.49583 0.496242 0
M  V30 17157 C 1680.03 -2.32808 -0.289404 0
M  V30 17158 C 1681.05 -1.44324 -0.971933 0
M  V30 17159 O 1682.22 -1.77352 -0.954366 0
M  V30 17160 C 1679.29 -3.19645 -1.34269 0
M  V30 17161 C 1678.35 -4.23975 -0.6741 0
M  V30 17162 C 1677.58 -5.06661 -1.6772 0
M  V30 17163 O 1677.81 -4.90792 -2.90654 0
M  V30 17164 O 1676.74 -5.89091 -1.23514 0
M  V30 17165 H 1680.57 -3.01164 0.391664 0
M  V30 17166 H 1678.15 -1.47162 0.257652 0
M  V30 17167 H 1680.03 -3.73453 -1.9522 0
M  V30 17168 H 1678.71 -2.53989 -2.00677 0
M  V30 17169 H 1677.61 -3.74092 -0.0249732 0
M  V30 17170 H 1678.95 -4.92172 -0.0525442 0
M  V30 17171 N 1680.6 -0.229873 -1.55915 0
M  V30 17172 C 1681.56 0.663347 -2.19391 0
M  V30 17173 C 1682.56 1.11548 -1.15818 0
M  V30 17174 O 1683.75 1.02294 -1.41002 0
M  V30 17175 C 1680.88 1.9097 -2.82389 0
M  V30 17176 H 1682.08 0.109797 -2.99699 0
M  V30 17177 H 1679.63 0.0197234 -1.56288 0
M  V30 17178 H 1680.37 2.50491 -2.05973 0
M  V30 17179 H 1680.15 1.59388 -3.58243 0
M  V30 17180 H 1681.64 2.5459 -3.31019 0
M  V30 17181 N 1682.08 1.5754 0.0434337 0
M  V30 17182 C 1683.3 1.93247 0.753012 0
M  V30 17183 C 1683.73 0.828712 1.68861 0
M  V30 17184 O 1683.09 -0.216618 1.80001 0
M  V30 17185 C 1683.13 3.27989 1.49852 0
M  V30 17186 O 1682.24 3.19223 2.61094 0
M  V30 17187 H 1681.58 0.632032 0.203547 0
M  V30 17188 H 1684.11 2.046 0.00319776 0
M  V30 17189 H 1684.12 3.62539 1.87161 0
M  V30 17190 H 1682.79 4.07891 0.812251 0
M  V30 17191 H 1681.37 2.9628 2.26434 0
M  V30 17192 N 1683.56 -0.31543 1.54411 0
M  V30 17193 C 1684.49 -1.41263 1.79221 0
M  V30 17194 C 1685.47 -1.49363 0.642601 0
M  V30 17195 O 1686.65 -1.66648 0.880953 0
M  V30 17196 C 1683.78 -2.79294 1.91605 0
M  V30 17197 C 1682.82 -2.88686 3.13946 0
M  V30 17198 S 1683.66 -2.52259 4.72362 0
M  V30 17199 C 1684.81 -3.92347 4.87663 0
M  V30 17200 H 1685.05 -1.20006 2.72003 0
M  V30 17201 H 1682.58 -0.51273 1.45638 0
M  V30 17202 H 1684.54 -3.58803 1.99425 0
M  V30 17203 H 1683.2 -2.97828 0.997857 0
M  V30 17204 H 1682.39 -3.89896 3.1937 0
M  V30 17205 H 1681.99 -2.17157 3.04498 0
M  V30 17206 H 1684.28 -4.8719 4.70799 0
M  V30 17207 H 1685.23 -3.91901 5.89762 0
M  V30 17208 H 1685.64 -3.81679 4.1591 0
M  V30 17209 N 1685.03 -1.46622 -0.577906 0
M  V30 17210 C 1686.45 -1.46287 -1.16004 0
M  V30 17211 C 1686.8 -0.206307 -1.95112 0
M  V30 17212 O 1685.92 0.690275 -2.05096 0
M  V30 17213 C 1686.52 -2.65042 -2.1104 0
M  V30 17214 C 1685.08 -2.67733 -2.64567 0
M  V30 17215 C 1684.22 -2.39053 -1.40531 0
M  V30 17216 H 1687.17 -1.54432 -0.365585 0
M  V30 17217 H 1687.19 -2.40834 -2.94583 0
M  V30 17218 H 1686.71 -3.56481 -1.53436 0
M  V30 17219 H 1684.81 -1.80379 -3.26028 0
M  V30 17220 H 1684.92 -3.67836 -3.06974 0
M  V30 17221 H 1683.28 -1.89209 -1.70506 0
M  V30 17222 H 1684.07 -3.32674 -0.847509 0
M  V30 17223 N 1686.51 0.822941 -1.34408 0
M  V30 17224 C 1687.74 1.61607 -1.29992 0
M  V30 17225 C 1688.16 1.87695 0.123301 0
M  V30 17226 O 1687.52 1.45247 1.08504 0
M  V30 17227 C 1687.57 2.934 -2.09639 0
M  V30 17228 O 1686.67 3.85467 -1.4659 0
M  V30 17229 H 1686.01 0.491504 -0.446452 0
M  V30 17230 H 1688.54 1.02264 -1.7721 0
M  V30 17231 H 1688.55 3.42966 -2.20994 0
M  V30 17232 H 1687.23 2.73736 -3.13116 0
M  V30 17233 H 1685.81 3.43984 -1.43978 0
M  V30 17234 N 1687.99 1.18137 1.04314 0
M  V30 17235 C 1689.22 1.00062 1.81666 0
M  V30 17236 C 1689.64 -0.446281 1.82729 0
M  V30 17237 O 1689 -1.32004 1.24277 0
M  V30 17238 C 1689.05 1.55698 3.25255 0
M  V30 17239 O 1688.15 0.776662 4.05021 0
M  V30 17240 H 1687.49 0.354651 0.561354 0
M  V30 17241 H 1690.02 1.56837 1.3139 0
M  V30 17242 H 1690.03 1.58303 3.76037 0
M  V30 17243 H 1688.71 2.61016 3.23795 0
M  V30 17244 H 1687.28 0.822723 3.63711 0
M  V30 17245 N 1689.47 -1.23186 0.98301 0
M  V30 17246 C 1690.75 -1.87121 0.569651 0
M  V30 17247 C 1691.13 -1.88355 -0.95319 0
M  V30 17248 O 1690.47 -1.36699 -1.831 0
M  V30 17249 C 1690.68 -3.28493 1.17871 0
M  V30 17250 C 1692.03 -4.05065 1.27308 0
M  V30 17251 O 1693.06 -3.37722 1.13236 0
M  V30 17252 O 1691.91 -5.2559 1.49723 0
M  V30 17253 H 1689.01 -0.804363 0.192171 0
M  V30 17254 H 1691.55 -1.31041 1.07826 0
M  V30 17255 H 1690.33 -3.22175 2.22078 0
M  V30 17256 H 1689.95 -3.92166 0.655087 0
M  V30 17257 N 1690.95 -0.754982 -1.38339 0
M  V30 17258 C 1692.17 -0.322624 -2.04369 0
M  V30 17259 C 1692.59 1.04951 -1.56942 0
M  V30 17260 O 1691.95 1.66686 -0.743109 0
M  V30 17261 C 1692 -0.337767 -3.59919 0
M  V30 17262 O 1691.72 -1.65576 -4.05606 0
M  V30 17263 C 1693.22 0.108281 -4.43168 0
M  V30 17264 H 1690.44 -0.137626 -0.656734 0
M  V30 17265 H 1692.98 -1.02422 -1.77003 0
M  V30 17266 H 1691.14 0.315106 -3.86116 0
M  V30 17267 H 1691.55 -1.5829 -5.00045 0
M  V30 17268 H 1693.03 0.0465256 -5.5198 0
M  V30 17269 H 1693.5 1.15636 -4.23704 0
M  V30 17270 H 1694.11 -0.51577 -4.22161 0
M  V30 17271 N 1692.42 1.49318 -0.504168 0
M  V30 17272 C 1693.65 2.06869 0.0359415 0
M  V30 17273 C 1694.07 1.3641 1.30529 0
M  V30 17274 O 1693.42 0.443416 1.77031 0
M  V30 17275 C 1693.48 3.60333 0.290233 0
M  V30 17276 O 1693.2 4.28141 -0.928801 0
M  V30 17277 C 1694.7 4.34606 0.873628 0
M  V30 17278 H 1691.92 0.670643 -0.0218893 0
M  V30 17279 H 1694.46 1.92058 -0.702432 0
M  V30 17280 H 1692.62 3.74836 0.978594 0
M  V30 17281 H 1693.03 5.19894 -0.693595 0
M  V30 17282 H 1694.5 5.42846 1.00112 0
M  V30 17283 H 1694.98 3.97297 1.87221 0
M  V30 17284 H 1695.59 4.24717 0.222638 0
M  V30 17285 N 1693.9 0.238138 1.5579 0
M  V30 17286 C 1695.15 -0.389608 1.99022 0
M  V30 17287 C 1695.48 -1.58226 1.12597 0
M  V30 17288 O 1694.76 -1.93595 0.187363 0
M  V30 17289 C 1695.04 -0.808025 3.50917 0
M  V30 17290 C 1694.89 0.389417 4.48111 0
M  V30 17291 C 1696.21 -1.6582 4.07666 0
M  V30 17292 H 1693.33 -0.140141 0.723553 0
M  V30 17293 H 1695.97 0.337696 1.86975 0
M  V30 17294 H 1694.12 -1.42772 3.61315 0
M  V30 17295 H 1695.79 1.02777 4.49705 0
M  V30 17296 H 1694.04 1.03404 4.21296 0
M  V30 17297 H 1694.71 0.0534549 5.51974 0
M  V30 17298 H 1697.18 -1.13518 4.00316 0
M  V30 17299 H 1696.06 -1.91984 5.14231 0
M  V30 17300 H 1696.32 -2.62712 3.55577 0
M  V30 17301 N 1695.38 -1.57561 -0.0350783 0
M  V30 17302 C 1696.61 -1.93251 -0.73903 0
M  V30 17303 C 1697.02 -0.83739 -1.69214 0
M  V30 17304 O 1696.38 0.186669 -1.81543 0
M  V30 17305 C 1696.43 -3.28853 -1.50127 0
M  V30 17306 O 1696.15 -4.34157 -0.586426 0
M  V30 17307 C 1697.65 -3.78788 -2.30292 0
M  V30 17308 H 1694.87 -0.63793 -0.208053 0
M  V30 17309 H 1697.42 -2.04499 0.00560398 0
M  V30 17310 H 1695.57 -3.1902 -2.19784 0
M  V30 17311 H 1695.99 -5.12395 -1.12034 0
M  V30 17312 H 1697.46 -4.76197 -2.79178 0
M  V30 17313 H 1697.94 -3.09671 -3.11449 0
M  V30 17314 H 1698.54 -3.91684 -1.65721 0
M  V30 17315 N 1696.86 0.307236 -1.54576 0
M  V30 17316 C 1698.11 1.04321 -1.73561 0
M  V30 17317 C 1698.43 1.87475 -0.51803 0
M  V30 17318 O 1697.69 1.89202 0.500093 0
M  V30 17319 C 1697.99 1.9831 -2.97335 0
M  V30 17320 C 1697.65 1.31182 -4.31395 0
M  V30 17321 C 1696.32 1.12607 -4.67839 0
M  V30 17322 C 1698.67 0.831413 -5.14526 0
M  V30 17323 C 1696 0.446652 -5.84997 0
M  V30 17324 C 1698.35 0.165743 -6.32383 0
M  V30 17325 C 1697.01 -0.0320176 -6.67492 0
M  V30 17326 H 1696.28 0.381739 -0.635103 0
M  V30 17327 H 1698.93 0.318705 -1.88829 0
M  V30 17328 H 1697.23 2.77267 -2.76821 0
M  V30 17329 H 1698.93 2.55314 -3.09218 0
M  V30 17330 H 1695.52 1.46645 -4.02732 0
M  V30 17331 H 1699.7 0.962653 -4.86874 0
M  V30 17332 H 1694.96 0.282387 -6.10748 0
M  V30 17333 H 1699.13 -0.214434 -6.9607 0
M  V30 17334 H 1696.76 -0.560493 -7.58131 0
M  V30 17335 N 1698.34 1.46926 0.570122 0
M  V30 17336 C 1699.28 1.58442 1.67824 0
M  V30 17337 C 1700.25 0.428053 1.6049 0
M  V30 17338 O 1701.44 0.646445 1.79515 0
M  V30 17339 C 1698.58 1.59253 3.06158 0
M  V30 17340 C 1697.69 2.85714 3.24024 0
M  V30 17341 C 1696.83 2.77945 4.52681 0
M  V30 17342 C 1695.87 3.99289 4.63934 0
M  V30 17343 N 1695 3.89833 5.83931 0
M  V30 17344 H 1699.84 2.5309 1.5732 0
M  V30 17345 H 1697.38 1.25549 0.766548 0
M  V30 17346 H 1699.34 1.57707 3.86244 0
M  V30 17347 H 1697.97 0.68127 3.15529 0
M  V30 17348 H 1697.02 2.97184 2.37458 0
M  V30 17349 H 1698.33 3.7561 3.28206 0
M  V30 17350 H 1697.49 2.74576 5.41011 0
M  V30 17351 H 1696.22 1.85711 4.50958 0
M  V30 17352 H 1695.23 4.02976 3.74019 0
M  V30 17353 H 1696.45 4.92635 4.67427 0
M  V30 17354 H 1694.4 3.00393 5.83181 0
M  V30 17355 H 1694.32 4.73395 5.89434 0
M  V30 17356 H 1695.59 3.90459 6.74657 0
M  V30 17357 N 1699.82 -0.815801 1.34842 0
M  V30 17358 C 1701.04 -1.60915 1.30848 0
M  V30 17359 C 1701.47 -1.87758 -0.113345 0
M  V30 17360 O 1700.82 -1.4582 -1.07732 0
M  V30 17361 C 1700.87 -2.92284 2.11192 0
M  V30 17362 O 1699.98 -3.84685 1.48632 0
M  V30 17363 H 1699.32 -0.48913 0.449052 0
M  V30 17364 H 1701.85 -1.01322 1.7775 0
M  V30 17365 H 1701.86 -3.41789 2.2281 0
M  V30 17366 H 1700.53 -2.72071 3.14563 0
M  V30 17367 H 1699.11 -3.43215 1.458 0
M  V30 17368 N 1701.29 -1.18689 -1.03686 0
M  V30 17369 C 1702.2 -0.932473 -2.15272 0
M  V30 17370 C 1703.22 0.104751 -1.73684 0
M  V30 17371 O 1704.4 -0.0780471 -2.01249 0
M  V30 17372 C 1701.46 -0.465807 -3.43557 0
M  V30 17373 C 1700.52 -1.57146 -3.99504 0
M  V30 17374 C 1699.75 -1.12696 -5.21666 0
M  V30 17375 O 1699.98 0.0127657 -5.70399 0
M  V30 17376 O 1698.91 -1.92627 -5.70244 0
M  V30 17377 H 1702.74 -1.86626 -2.39592 0
M  V30 17378 H 1700.32 -0.969029 -1.13711 0
M  V30 17379 H 1702.2 -0.213819 -4.20857 0
M  V30 17380 H 1700.88 0.43964 -3.20701 0
M  V30 17381 H 1699.79 -1.8775 -3.23575 0
M  V30 17382 H 1701.12 -2.45317 -4.26709 0
M  V30 17383 N 1702.77 1.22662 -0.989529 0
M  V30 17384 C 1704.02 1.91605 -0.66448 0
M  V30 17385 C 1704.35 1.76909 0.801048 0
M  V30 17386 O 1703.63 1.13583 1.5789 0
M  V30 17387 C 1703.91 3.43929 -1.06698 0
M  V30 17388 C 1703.76 3.67691 -2.59082 0
M  V30 17389 C 1705.08 4.35744 -0.617695 0
M  V30 17390 H 1702.2 0.695832 -0.242872 0
M  V30 17391 H 1704.84 1.44605 -1.23245 0
M  V30 17392 H 1702.99 3.8409 -0.58371 0
M  V30 17393 H 1704.66 3.36956 -3.15053 0
M  V30 17394 H 1702.91 3.12088 -3.01303 0
M  V30 17395 H 1703.58 4.74356 -2.82295 0
M  V30 17396 H 1706.05 4.0308 -1.03275 0
M  V30 17397 H 1704.93 5.41004 -0.927659 0
M  V30 17398 H 1705.19 4.39468 0.481734 0
M  V30 17399 N 1704.25 0.762308 1.37937 0
M  V30 17400 C 1705.21 0.148588 2.28718 0
M  V30 17401 C 1706.21 -0.638198 1.47593 0
M  V30 17402 O 1707.4 -0.463178 1.67929 0
M  V30 17403 C 1704.53 -0.797492 3.31441 0
M  V30 17404 H 1705.73 0.94872 2.84498 0
M  V30 17405 H 1703.28 0.529888 1.47044 0
M  V30 17406 H 1704.02 -1.62298 2.80767 0
M  V30 17407 H 1703.8 -0.23561 3.91391 0
M  V30 17408 H 1705.29 -1.22262 3.99302 0
M  V30 17409 N 1705.73 -1.49049 0.51208 0
M  V30 17410 C 1706.97 -2.0278 -0.0285311 0
M  V30 17411 C 1707.31 -1.39003 -1.35617 0
M  V30 17412 O 1706.58 -0.52952 -1.87153 0
M  V30 17413 C 1706.86 -3.59701 -0.169433 0
M  V30 17414 C 1706.72 -4.33989 1.18211 0
M  V30 17415 C 1708.04 -4.30698 -0.904812 0
M  V30 17416 H 1705.16 -0.736946 -0.00889467 0
M  V30 17417 H 1707.8 -1.77959 0.66564 0
M  V30 17418 H 1705.95 -3.8098 -0.760667 0
M  V30 17419 H 1707.62 -4.24176 1.81307 0
M  V30 17420 H 1705.86 -3.9611 1.76859 0
M  V30 17421 H 1706.53 -5.42177 1.03671 0
M  V30 17422 H 1709.01 -4.14141 -0.40327 0
M  V30 17423 H 1707.89 -5.40221 -0.972264 0
M  V30 17424 H 1708.15 -3.96718 -1.95108 0
M  V30 17425 N 1707.21 -0.246397 -1.55662 0
M  V30 17426 C 1708.14 0.647563 -2.24341 0
M  V30 17427 C 1709.12 1.1817 -1.22352 0
M  V30 17428 O 1710.3 1.22114 -1.51003 0
M  V30 17429 C 1707.43 1.84485 -2.94249 0
M  V30 17430 C 1706.39 1.4435 -4.02923 0
M  V30 17431 C 1705.71 2.72158 -4.60255 0
M  V30 17432 C 1707.01 0.614951 -5.18667 0
M  V30 17433 H 1708.71 0.0748803 -2.99306 0
M  V30 17434 H 1706.25 0.034575 -1.43958 0
M  V30 17435 H 1708.2 2.47588 -3.40995 0
M  V30 17436 H 1706.93 2.4429 -2.16772 0
M  V30 17437 H 1705.59 0.835811 -3.56945 0
M  V30 17438 H 1705.24 3.3016 -3.79478 0
M  V30 17439 H 1704.94 2.46028 -5.33614 0
M  V30 17440 H 1706.46 3.36161 -5.09734 0
M  V30 17441 H 1707.87 1.15028 -5.61642 0
M  V30 17442 H 1706.27 0.449729 -5.98412 0
M  V30 17443 H 1707.34 -0.372943 -4.83464 0
M  V30 17444 N 1708.68 1.57577 0.026722 0
M  V30 17445 C 1709.91 1.94035 0.732473 0
M  V30 17446 C 1710.33 0.846575 1.67972 0
M  V30 17447 O 1709.69 -0.197514 1.80221 0
M  V30 17448 C 1709.74 3.2956 1.46365 0
M  V30 17449 O 1708.84 3.21975 2.57694 0
M  V30 17450 H 1708.18 0.634155 0.196832 0
M  V30 17451 H 1710.71 2.04592 -0.018503 0
M  V30 17452 H 1710.72 3.64504 1.83305 0
M  V30 17453 H 1709.4 4.0873 0.768943 0
M  V30 17454 H 1707.98 2.98665 2.23279 0
M  V30 17455 N 1710.16 -0.299034 1.54737 0
M  V30 17456 C 1711.57 -0.871897 1.6509 0
M  V30 17457 C 1711.92 -1.88013 0.560843 0
M  V30 17458 O 1711.05 -2.1428 -0.302194 0
M  V30 17459 C 1711.64 -1.5882 2.99269 0
M  V30 17460 C 1710.2 -2.10944 3.11736 0
M  V30 17461 C 1709.35 -0.942776 2.60782 0
M  V30 17462 H 1712.3 -0.0759883 1.58518 0
M  V30 17463 H 1712.32 -2.45387 2.90802 0
M  V30 17464 H 1711.83 -0.854144 3.78584 0
M  V30 17465 H 1709.93 -2.87391 2.37144 0
M  V30 17466 H 1710.05 -2.34262 4.17921 0
M  V30 17467 H 1708.41 -1.3289 2.17284 0
M  V30 17468 H 1709.19 -0.222646 3.42577 0
M  V30 17469 N 1711.64 -1.47227 -0.562322 0
M  V30 17470 C 1712.55 -1.61953 -1.69731 0
M  V30 17471 C 1713.57 -0.502478 -1.66587 0
M  V30 17472 O 1714.74 -0.769335 -1.86127 0
M  V30 17473 C 1711.81 -1.62539 -3.06238 0
M  V30 17474 C 1710.87 -2.85632 -3.20489 0
M  V30 17475 C 1710.1 -2.86181 -4.50485 0
M  V30 17476 O 1710.32 -1.96099 -5.35632 0
M  V30 17477 O 1709.26 -3.7798 -4.68417 0
M  V30 17478 H 1713.08 -2.5798 -1.6025 0
M  V30 17479 H 1710.67 -1.30253 -0.73174 0
M  V30 17480 H 1712.55 -1.65634 -3.87483 0
M  V30 17481 H 1711.23 -0.696779 -3.16112 0
M  V30 17482 H 1710.13 -2.88084 -2.3866 0
M  V30 17483 H 1711.47 -3.7777 -3.15517 0
M  V30 17484 N 1713.12 0.808639 -1.35273 0
M  V30 17485 C 1714.06 1.92036 -1.28026 0
M  V30 17486 C 1715.03 1.65397 -0.152611 0
M  V30 17487 O 1716.22 1.87819 -0.335972 0
M  V30 17488 C 1713.36 3.28544 -1.05607 0
M  V30 17489 C 1712.47 3.67382 -2.27276 0
M  V30 17490 C 1711.61 4.9291 -1.98024 0
M  V30 17491 C 1710.65 5.2437 -3.15757 0
M  V30 17492 N 1709.78 6.41077 -2.86294 0
M  V30 17493 H 1714.62 1.97567 -2.23095 0
M  V30 17494 H 1712.16 0.966397 -1.10902 0
M  V30 17495 H 1714.12 4.07234 -0.906418 0
M  V30 17496 H 1712.75 3.22487 -0.142015 0
M  V30 17497 H 1711.8 2.83969 -2.53112 0
M  V30 17498 H 1713.11 3.86593 -3.15194 0
M  V30 17499 H 1712.27 5.79421 -1.79877 0
M  V30 17500 H 1711.01 4.7573 -1.07387 0
M  V30 17501 H 1710.01 4.36349 -3.34483 0
M  V30 17502 H 1711.24 5.4348 -4.07193 0
M  V30 17503 H 1709.18 6.25327 -1.98249 0
M  V30 17504 H 1709.1 6.60528 -3.67748 0
M  V30 17505 H 1710.37 7.30622 -2.71684 0
M  V30 17506 N 1714.6 1.19237 1.03055 0
M  V30 17507 C 1715.56 0.930536 2.0946 0
M  V30 17508 C 1716.56 -0.0882907 1.60557 0
M  V30 17509 O 1717.75 0.146269 1.73585 0
M  V30 17510 C 1714.88 0.398165 3.38567 0
M  V30 17511 H 1716.07 1.87422 2.34122 0
M  V30 17512 H 1713.63 1.00579 1.19639 0
M  V30 17513 H 1714.36 -0.551646 3.19574 0
M  V30 17514 H 1714.15 1.13273 3.75382 0
M  V30 17515 H 1715.64 0.234006 4.16944 0
M  V30 17516 N 1716.07 -1.22136 0.99602 0
M  V30 17517 C 1716.98 -2.27869 0.557927 0
M  V30 17518 C 1718 -1.69462 -0.394781 0
M  V30 17519 O 1719.18 -1.99704 -0.26084 0
M  V30 17520 C 1716.24 -3.46501 -0.117434 0
M  V30 17521 C 1715.3 -4.20213 0.878627 0
M  V30 17522 C 1714.54 -5.33181 0.2354 0
M  V30 17523 O 1714.76 -5.62093 -0.969954 0
M  V30 17524 O 1713.69 -5.94486 0.941828 0
M  V30 17525 H 1717.52 -2.67517 1.43765 0
M  V30 17526 H 1715.1 -1.28362 0.764428 0
M  V30 17527 H 1716.99 -4.18476 -0.49559 0
M  V30 17528 H 1715.66 -3.08772 -0.971674 0
M  V30 17529 H 1714.57 -3.50497 1.30777 0
M  V30 17530 H 1715.9 -4.6183 1.70217 0
M  V30 17531 N 1717.55 -0.769612 -1.37531 0
M  V30 17532 C 1718.5 -0.142211 -2.32165 0
M  V30 17533 C 1719.49 0.687376 -1.54827 0
M  V30 17534 O 1720.7 0.584677 -1.7024 0
M  V30 17535 H 1717.08 -0.0271998 -0.751508 0
M  V30 17536 H 1719.05 -0.956148 -2.82667 0
M  V30 17537 C 1717.8 0.72421 -3.40074 0
M  V30 17538 H 1717.12 0.0952318 -3.99687 0
M  V30 17539 H 1718.56 1.13021 -4.08659 0
M  V30 17540 C 1717.02 1.87388 -2.79977 0
M  V30 17541 O 1717.55 2.96921 -2.70557 0
M  V30 17542 N 1715.75 1.67384 -2.37552 0
M  V30 17543 H 1715.3 0.782941 -2.45414 0
M  V30 17544 H 1715.26 2.44474 -1.97686 0
M  V30 17545 N 1719.03 1.48775 -0.519977 0
M  V30 17546 C 1720.31 1.95429 0.0816701 0
M  V30 17547 C 1720.69 1.46199 1.52279 0
M  V30 17548 O 1720.04 0.684057 2.1802 0
M  V30 17549 C 1720.25 3.48991 -0.0252472 0
M  V30 17550 C 1721.59 4.24372 0.139099 0
M  V30 17551 O 1722.62 3.56166 0.0490322 0
M  V30 17552 O 1721.48 5.45524 0.326426 0
M  V30 17553 H 1718.57 0.822637 0.0848378 0
M  V30 17554 H 1721.12 1.5934 -0.583865 0
M  V30 17555 H 1719.89 3.77514 -1.02951 0
M  V30 17556 H 1719.51 3.91749 0.679588 0
M  V30 17557 N 1720.51 0.254649 1.55529 0
M  V30 17558 C 1721.79 -0.418663 1.91067 0
M  V30 17559 C 1722.17 -1.75284 1.17638 0
M  V30 17560 O 1721.51 -2.26569 0.296411 0
M  V30 17561 C 1721.72 -0.579125 3.44162 0
M  V30 17562 C 1723.07 -0.871451 4.15561 0
M  V30 17563 O 1724.1 -0.664702 3.49943 0
M  V30 17564 O 1722.95 -1.26563 5.31643 0
M  V30 17565 H 1720.05 -0.22593 0.795541 0
M  V30 17566 H 1722.59 0.299288 1.6704 0
M  V30 17567 H 1721.37 0.36062 3.89635 0
M  V30 17568 H 1720.99 -1.34732 3.74076 0
M  V30 17569 N 1721.99 -1.57589 -0.0183649 0
M  V30 17570 C 1723.21 -1.94024 -0.718491 0
M  V30 17571 C 1723.63 -0.85529 -1.68316 0
M  V30 17572 O 1722.99 0.167403 -1.81731 0
M  V30 17573 C 1723.04 -3.30427 -1.4663 0
M  V30 17574 O 1722.76 -4.34755 -0.540345 0
M  V30 17575 C 1724.26 -3.81209 -2.26262 0
M  V30 17576 H 1721.48 -0.640101 -0.201275 0
M  V30 17577 H 1724.02 -2.04482 0.0272935 0
M  V30 17578 H 1722.18 -3.21333 -2.16388 0
M  V30 17579 H 1722.59 -5.13554 -1.06593 0
M  V30 17580 H 1724.07 -4.79131 -2.74112 0
M  V30 17581 H 1724.54 -3.12957 -3.08147 0
M  V30 17582 H 1725.15 -3.9342 -1.61558 0
M  V30 17583 N 1723.46 0.290824 -1.54893 0
M  V30 17584 C 1724.69 1.04193 -1.78402 0
M  V30 17585 C 1725.1 1.81071 -0.548631 0
M  V30 17586 O 1724.45 1.77005 0.491403 0
M  V30 17587 C 1724.51 2.06122 -2.94541 0
M  V30 17588 C 1724.17 1.48346 -4.32253 0
M  V30 17589 C 1725.17 0.908243 -5.11905 0
M  V30 17590 C 1722.85 1.51602 -4.78876 0
M  V30 17591 C 1724.85 0.373282 -6.36306 0
M  V30 17592 C 1722.53 0.977194 -6.03236 0
M  V30 17593 C 1723.53 0.406805 -6.81787 0
M  V30 17594 O 1723.22 -0.123821 -8.03805 0
M  V30 17595 H 1722.95 0.314317 -0.598482 0
M  V30 17596 H 1725.51 0.332504 -2.02691 0
M  V30 17597 H 1723.74 2.80773 -2.65901 0
M  V30 17598 H 1725.43 2.67216 -3.05533 0
M  V30 17599 H 1726.19 0.875912 -4.77025 0
M  V30 17600 H 1722.07 1.94938 -4.17756 0
M  V30 17601 H 1725.61 -0.0725714 -6.97562 0
M  V30 17602 H 1721.51 1.00671 -6.37602 0
M  V30 17603 H 1722.28 -0.0114852 -8.18499 0
M  V30 17604 N 1724.94 1.47523 0.554506 0
M  V30 17605 C 1725.89 1.60213 1.66134 0
M  V30 17606 C 1726.86 0.445051 1.60027 0
M  V30 17607 O 1728.04 0.665449 1.7882 0
M  V30 17608 C 1725.18 1.62491 3.04452 0
M  V30 17609 C 1724.3 2.89134 3.20976 0
M  V30 17610 C 1723.43 2.82731 4.49707 0
M  V30 17611 C 1722.47 4.04187 4.59673 0
M  V30 17612 N 1721.61 3.96004 5.79763 0
M  V30 17613 H 1726.45 2.54744 1.54626 0
M  V30 17614 H 1723.99 1.26355 0.753189 0
M  V30 17615 H 1725.94 1.61795 3.84549 0
M  V30 17616 H 1724.57 0.714698 3.14789 0
M  V30 17617 H 1723.63 2.99685 2.34292 0
M  V30 17618 H 1724.94 3.79069 3.24203 0
M  V30 17619 H 1724.09 2.80299 5.38068 0
M  V30 17620 H 1722.83 1.90483 4.48963 0
M  V30 17621 H 1721.84 4.06921 3.69724 0
M  V30 17622 H 1723.06 4.97565 4.62175 0
M  V30 17623 H 1721.01 3.06561 5.79962 0
M  V30 17624 H 1720.92 4.7962 5.8438 0
M  V30 17625 H 1722.19 3.97593 6.70478 0
M  V30 17626 N 1726.42 -0.801453 1.357 0
M  V30 17627 C 1727.7 -1.54605 1.19819 0
M  V30 17628 C 1728.08 -2.09944 -0.220593 0
M  V30 17629 O 1727.43 -1.92904 -1.22475 0
M  V30 17630 C 1727.64 -2.65052 2.27043 0
M  V30 17631 C 1728.98 -3.33255 2.63109 0
M  V30 17632 O 1730.01 -2.75326 2.25995 0
M  V30 17633 O 1728.87 -4.37917 3.26942 0
M  V30 17634 H 1725.96 -0.68334 0.465807 0
M  V30 17635 H 1728.51 -0.840972 1.47397 0
M  V30 17636 H 1727.28 -2.22068 3.22182 0
M  V30 17637 H 1726.9 -3.4319 2.00764 0
M  V30 17638 N 1727.9 -1.19782 -1.02421 0
M  V30 17639 C 1729.18 -0.912541 -1.73009 0
M  V30 17640 C 1729.56 0.58061 -2.02958 0
M  V30 17641 O 1728.9 1.54013 -1.68797 0
M  V30 17642 C 1729.11 -1.77745 -3.00346 0
M  V30 17643 C 1730.46 -2.01462 -3.73762 0
M  V30 17644 O 1731.49 -1.74935 -3.10284 0
M  V30 17645 O 1730.34 -2.46219 -4.87892 0
M  V30 17646 H 1727.44 -0.340513 -0.753644 0
M  V30 17647 H 1729.98 -1.30618 -1.08338 0
M  V30 17648 H 1728.76 -2.78887 -2.74477 0
M  V30 17649 H 1728.38 -1.38339 -3.72757 0
M  V30 17650 N 1729.38 1.21606 -1.00248 0
M  V30 17651 C 1730.62 1.9089 -0.684765 0
M  V30 17652 C 1730.96 1.77749 0.78224 0
M  V30 17653 O 1730.23 1.15251 1.56676 0
M  V30 17654 C 1730.51 3.42778 -1.1034 0
M  V30 17655 C 1730.37 3.64923 -2.62967 0
M  V30 17656 C 1731.69 4.35064 -0.663877 0
M  V30 17657 H 1728.81 0.693217 -0.250239 0
M  V30 17658 H 1731.45 1.4329 -1.24772 0
M  V30 17659 H 1729.6 3.83449 -0.624415 0
M  V30 17660 H 1731.27 3.33595 -3.18609 0
M  V30 17661 H 1729.51 3.08874 -3.04596 0
M  V30 17662 H 1730.18 4.71335 -2.87311 0
M  V30 17663 H 1732.66 4.01962 -1.07544 0
M  V30 17664 H 1731.54 5.3999 -0.984987 0
M  V30 17665 H 1731.8 4.39954 0.435095 0
M  V30 17666 N 1730.86 0.776895 1.37121 0
M  V30 17667 C 1731.8 0.154521 2.32086 0
M  V30 17668 C 1732.8 -0.679155 1.5519 0
M  V30 17669 O 1734 -0.575641 1.70547 0
M  V30 17670 H 1730.38 0.0311849 0.751353 0
M  V30 17671 H 1732.35 0.971125 2.82156 0
M  V30 17672 C 1731.1 -0.706165 3.40454 0
M  V30 17673 H 1730.42 -0.0740341 3.99731 0
M  V30 17674 H 1731.86 -1.10853 4.09253 0
M  V30 17675 C 1730.32 -1.85901 2.80967 0
M  V30 17676 O 1730.85 -2.95482 2.72128 0
M  V30 17677 N 1729.06 -1.66122 2.38436 0
M  V30 17678 H 1728.6 -0.769915 2.45825 0
M  V30 17679 H 1728.56 -2.43422 1.9898 0
M  V30 17680 N 1732.33 -1.48497 0.527859 0
M  V30 17681 C 1733.28 -2.2656 -0.255874 0
M  V30 17682 C 1734.27 -1.32572 -0.911777 0
M  V30 17683 O 1735.46 -1.57124 -0.814934 0
M  V30 17684 C 1732.59 -3.17591 -1.30348 0
M  V30 17685 C 1731.67 -4.19051 -0.652474 0
M  V30 17686 N 1732.07 -5.05128 0.260561 0
M  V30 17687 C 1730.36 -4.36619 -0.909929 0
M  V30 17688 C 1731.06 -5.78214 0.635906 0
M  V30 17689 N 1730.04 -5.436 -0.00251422 0
M  V30 17690 H 1733.84 -2.90487 0.446571 0
M  V30 17691 H 1731.36 -1.58677 0.345742 0
M  V30 17692 H 1733.35 -3.72173 -1.87865 0
M  V30 17693 H 1732.01 -2.55219 -2.00733 0
M  V30 17694 H 1733.02 -5.14017 0.633035 0
M  V30 17695 H 1729.7 -3.85437 -1.6045 0
M  V30 17696 H 1731.09 -6.57482 1.38446 0
M  V30 17697 N 1733.81 -0.262893 -1.55392 0
M  V30 17698 C 1734.76 0.645946 -2.23451 0
M  V30 17699 C 1735.75 1.16753 -1.2274 0
M  V30 17700 O 1736.96 1.12257 -1.40706 0
M  V30 17701 H 1733.33 0.226829 -0.716975 0
M  V30 17702 H 1735.31 0.0489539 -2.9836 0
M  V30 17703 C 1734.05 1.82451 -2.95985 0
M  V30 17704 H 1733.38 1.43233 -3.73262 0
M  V30 17705 H 1734.82 2.43731 -3.46945 0
M  V30 17706 C 1733.28 2.7055 -2.0076 0
M  V30 17707 O 1733.81 3.70552 -1.55093 0
M  V30 17708 N 1732.01 2.37457 -1.67519 0
M  V30 17709 H 1731.56 1.56184 -2.04852 0
M  V30 17710 H 1731.52 2.96675 -1.04074 0
M  V30 17711 N 1735.29 1.57597 0.0100073 0
M  V30 17712 C 1736.22 2.04622 1.0326 0
M  V30 17713 C 1737.23 0.962343 1.31312 0
M  V30 17714 O 1738.42 1.23933 1.28464 0
M  V30 17715 C 1735.52 2.42271 2.36976 0
M  V30 17716 C 1734.7 3.73271 2.28008 0
M  V30 17717 C 1733.76 3.97899 3.4433 0
M  V30 17718 O 1732.78 4.68702 3.22966 0
M  V30 17719 N 1733.98 3.45015 4.66846 0
M  V30 17720 H 1736.75 2.92968 0.63164 0
M  V30 17721 H 1734.31 1.6069 0.197591 0
M  V30 17722 H 1736.3 2.55869 3.13549 0
M  V30 17723 H 1734.87 1.59496 2.68849 0
M  V30 17724 H 1734.09 3.69846 1.3641 0
M  V30 17725 H 1735.38 4.59172 2.19178 0
M  V30 17726 H 1734.78 2.87661 4.87101 0
M  V30 17727 H 1733.33 3.6396 5.40718 0
M  V30 17728 N 1736.77 -0.282606 1.55045 0
M  V30 17729 C 1737.71 -1.34908 1.87266 0
M  V30 17730 C 1738.68 -1.49528 0.72323 0
M  V30 17731 O 1739.87 -1.6409 0.973602 0
M  V30 17732 C 1737.01 -2.70603 2.14168 0
M  V30 17733 C 1736.12 -2.64284 3.41728 0
M  V30 17734 C 1735.26 -3.92094 3.58379 0
M  V30 17735 C 1734.3 -3.80246 4.79666 0
M  V30 17736 N 1733.43 -4.99871 4.93025 0
M  V30 17737 H 1738.27 -1.06731 2.78231 0
M  V30 17738 H 1735.81 -0.515845 1.37759 0
M  V30 17739 H 1737.77 -3.49542 2.27763 0
M  V30 17740 H 1736.4 -2.97003 1.26448 0
M  V30 17741 H 1735.45 -1.77108 3.36656 0
M  V30 17742 H 1736.76 -2.51425 4.30798 0
M  V30 17743 H 1735.92 -4.79473 3.7174 0
M  V30 17744 H 1734.66 -4.07808 2.67476 0
M  V30 17745 H 1733.66 -2.91251 4.66319 0
M  V30 17746 H 1734.89 -3.6606 5.71994 0
M  V30 17747 H 1732.83 -5.16014 4.0505 0
M  V30 17748 H 1732.75 -4.89507 5.76124 0
M  V30 17749 H 1734.02 -5.88849 5.10761 0
M  V30 17750 N 1738.25 -1.47815 -0.546675 0
M  V30 17751 C 1739.49 -1.56566 -1.31402 0
M  V30 17752 C 1739.85 -0.227101 -1.90652 0
M  V30 17753 O 1741.05 -0.189506 -2.68131 0
M  V30 17754 C 1739.32 -2.6603 -2.38669 0
M  V30 17755 S 1740.88 -2.94436 -3.25351 0
M  V30 17756 H 1737.7 -0.552748 -0.447203 0
M  V30 17757 H 1740.3 -1.85251 -0.624688 0
M  V30 17758 H 1739 -3.6187 -1.93593 0
M  V30 17759 H 1738.54 -2.39193 -3.1233 0
M  V30 17760 H 1740.55 -2.32455 -4.38382 0
M  V30 17761 N 1739.72 0.794246 -1.36123 0
M  V30 17762 C 1740.67 1.90668 -1.30056 0
M  V30 17763 C 1741.64 1.65226 -0.170145 0
M  V30 17764 O 1742.83 1.87452 -0.355874 0
M  V30 17765 C 1739.97 3.27405 -1.09086 0
M  V30 17766 C 1739.08 3.64951 -2.31159 0
M  V30 17767 C 1738.21 4.90782 -2.0324 0
M  V30 17768 C 1737.25 5.20992 -3.21301 0
M  V30 17769 N 1736.39 6.38005 -2.93078 0
M  V30 17770 H 1741.23 1.9519 -2.25178 0
M  V30 17771 H 1738.77 0.95458 -1.1192 0
M  V30 17772 H 1740.72 4.0625 -0.94956 0
M  V30 17773 H 1739.35 3.22319 -0.176211 0
M  V30 17774 H 1738.41 2.81268 -2.5611 0
M  V30 17775 H 1739.72 3.83228 -3.19277 0
M  V30 17776 H 1738.87 5.77481 -1.86012 0
M  V30 17777 H 1737.61 4.74565 -1.12426 0
M  V30 17778 H 1736.62 4.32777 -3.39093 0
M  V30 17779 H 1737.84 5.39131 -4.12934 0
M  V30 17780 H 1735.79 6.23189 -2.0487 0
M  V30 17781 H 1735.7 6.56591 -3.74733 0
M  V30 17782 H 1736.97 7.27699 -2.79418 0
M  V30 17783 N 1741.2 1.20323 1.01785 0
M  V30 17784 C 1742.11 0.966603 2.13761 0
M  V30 17785 C 1743.13 -0.0771059 1.73829 0
M  V30 17786 O 1744.3 0.110054 2.01099 0
M  V30 17787 C 1741.37 0.520405 3.42772 0
M  V30 17788 C 1740.43 1.63482 3.96954 0
M  V30 17789 C 1739.66 1.20981 5.19807 0
M  V30 17790 O 1739.89 0.0779814 5.70347 0
M  V30 17791 O 1738.82 2.01674 5.67108 0
M  V30 17792 H 1742.65 1.90414 2.36593 0
M  V30 17793 H 1740.23 0.986997 1.12155 0
M  V30 17794 H 1742.11 0.280747 4.20464 0
M  V30 17795 H 1740.79 -0.388563 3.21359 0
M  V30 17796 H 1739.69 1.92874 3.20547 0
M  V30 17797 H 1741.03 2.52074 4.22752 0
M  V30 17798 N 1742.68 -1.21073 1.00892 0
M  V30 17799 C 1743.63 -2.23583 0.572636 0
M  V30 17800 C 1744.6 -1.61129 -0.403324 0
M  V30 17801 O 1745.78 -1.88355 -0.304491 0
M  V30 17802 C 1742.92 -3.44981 -0.0906539 0
M  V30 17803 C 1742.03 -4.21894 0.928953 0
M  V30 17804 C 1741.17 -5.30669 0.237516 0
M  V30 17805 C 1740.21 -5.99317 1.24441 0
M  V30 17806 N 1739.35 -6.99699 0.580172 0
M  V30 17807 H 1744.19 -2.60263 1.45146 0
M  V30 17808 H 1741.72 -1.27895 0.72673 0
M  V30 17809 H 1743.68 -4.14285 -0.492281 0
M  V30 17810 H 1742.31 -3.09017 -0.933169 0
M  V30 17811 H 1741.36 -3.5173 1.4488 0
M  V30 17812 H 1742.67 -4.69116 1.69503 0
M  V30 17813 H 1741.83 -6.06301 -0.220013 0
M  V30 17814 H 1740.57 -4.84463 -0.560937 0
M  V30 17815 H 1739.57 -5.22453 1.7124 0
M  V30 17816 H 1740.8 -6.47609 2.04401 0
M  V30 17817 H 1738.74 -6.55699 -0.198553 0
M  V30 17818 H 1738.66 -7.45009 1.28444 0
M  V30 17819 H 1739.93 -7.79363 0.145977 0
M  V30 17820 N 1744.16 -0.784156 -1.36707 0
M  V30 17821 C 1745.09 -0.124956 -2.27858 0
M  V30 17822 C 1746.07 0.695835 -1.46959 0
M  V30 17823 O 1747.25 0.667944 -1.76269 0
M  V30 17824 C 1744.38 0.828816 -3.28403 0
M  V30 17825 C 1743.43 0.0904776 -4.26404 0
M  V30 17826 S 1744.26 -1.23012 -5.2118 0
M  V30 17827 C 1745.42 -0.280212 -6.25272 0
M  V30 17828 H 1745.65 -0.89783 -2.83419 0
M  V30 17829 H 1743.18 -0.578123 -1.43168 0
M  V30 17830 H 1745.14 1.37367 -3.86834 0
M  V30 17831 H 1743.8 1.5749 -2.71764 0
M  V30 17832 H 1742.99 0.813986 -4.97383 0
M  V30 17833 H 1742.6 -0.383737 -3.72026 0
M  V30 17834 H 1744.89 0.542878 -6.75321 0
M  V30 17835 H 1745.83 -0.958538 -7.01582 0
M  V30 17836 H 1746.24 0.114109 -5.64385 0
M  V30 17837 N 1745.64 1.48215 -0.535727 0
M  V30 17838 C 1746.55 2.33494 0.227577 0
M  V30 17839 C 1747.56 1.4685 0.933327 0
M  V30 17840 O 1748.74 1.7982 0.907008 0
M  V30 17841 C 1745.8 3.23092 1.25747 0
M  V30 17842 C 1744.86 4.25613 0.561454 0
M  V30 17843 C 1744.1 5.1093 1.54228 0
M  V30 17844 O 1744.32 4.98325 2.77539 0
M  V30 17845 O 1743.25 5.92158 1.07852 0
M  V30 17846 H 1747.08 3.0002 -0.471375 0
M  V30 17847 H 1744.67 1.46427 -0.296579 0
M  V30 17848 H 1746.55 3.78498 1.8525 0
M  V30 17849 H 1745.22 2.5922 1.93872 0
M  V30 17850 H 1744.13 3.74026 -0.0742194 0
M  V30 17851 H 1745.46 4.92138 -0.0779649 0
M  V30 17852 N 1747.11 0.27113 1.5525 0
M  V30 17853 C 1748.08 -0.604946 2.21072 0
M  V30 17854 C 1749.08 -1.08438 1.18735 0
M  V30 17855 O 1750.27 -0.985192 1.43665 0
M  V30 17856 C 1747.4 -1.83416 2.87353 0
M  V30 17857 H 1748.59 -0.0302981 2.99885 0
M  V30 17858 H 1746.15 0.0217204 1.56285 0
M  V30 17859 H 1746.88 -2.44942 2.12542 0
M  V30 17860 H 1746.67 -1.49834 3.62343 0
M  V30 17861 H 1748.16 -2.45724 3.37653 0
M  V30 17862 N 1748.59 -1.576 -0.00164943 0
M  V30 17863 C 1749.5 -2.11748 -1.00995 0
M  V30 17864 C 1750.52 -1.06235 -1.37805 0
M  V30 17865 O 1751.69 -1.38127 -1.4657 0
M  V30 17866 C 1748.76 -2.60869 -2.2836 0
M  V30 17867 C 1747.82 -3.80976 -1.97879 0
M  V30 17868 C 1747.05 -4.27745 -3.19171 0
M  V30 17869 O 1747.28 -3.73856 -4.30799 0
M  V30 17870 O 1746.21 -5.19917 -3.03265 0
M  V30 17871 H 1750.04 -2.98117 -0.579667 0
M  V30 17872 H 1747.62 -1.47766 -0.220375 0
M  V30 17873 H 1749.5 -2.9267 -3.03187 0
M  V30 17874 H 1748.18 -1.77598 -2.7063 0
M  V30 17875 H 1747.09 -3.54151 -1.20533 0
M  V30 17876 H 1748.42 -4.65315 -1.60447 0
M  V30 17877 N 1750.07 0.274379 -1.55193 0
M  V30 17878 C 1750.98 1.36118 -1.91073 0
M  V30 17879 C 1752 1.54111 -0.807823 0
M  V30 17880 O 1753.17 1.68264 -1.10676 0
M  V30 17881 C 1750.24 2.70062 -2.17411 0
M  V30 17882 C 1749.3 2.60827 -3.4098 0
M  V30 17883 C 1748.53 3.88384 -3.66052 0
M  V30 17884 O 1748.75 4.89 -2.93657 0
M  V30 17885 O 1747.69 3.8867 -4.59586 0
M  V30 17886 H 1751.51 1.08686 -2.83586 0
M  V30 17887 H 1749.1 0.472784 -1.41722 0
M  V30 17888 H 1750.98 3.49264 -2.35782 0
M  V30 17889 H 1749.66 2.97283 -1.28081 0
M  V30 17890 H 1748.56 1.80006 -3.27946 0
M  V30 17891 H 1749.9 2.38556 -4.30525 0
M  V30 17892 N 1751.55 1.48103 0.538828 0
M  V30 17893 C 1752.46 1.64632 1.67133 0
M  V30 17894 C 1753.47 0.528917 1.65766 0
M  V30 17895 O 1754.65 0.798849 1.84879 0
M  V30 17896 C 1751.72 1.67391 3.03614 0
M  V30 17897 C 1750.78 2.90694 3.15904 0
M  V30 17898 C 1750.01 2.93311 4.45875 0
M  V30 17899 O 1750.23 2.04596 5.32444 0
M  V30 17900 O 1749.17 3.85384 4.62345 0
M  V30 17901 H 1752.99 2.60496 1.56126 0
M  V30 17902 H 1750.58 1.31401 0.710925 0
M  V30 17903 H 1752.46 1.71777 3.84799 0
M  V30 17904 H 1751.13 0.746982 3.14963 0
M  V30 17905 H 1750.04 2.91844 2.34047 0
M  V30 17906 H 1751.37 3.82742 3.09467 0
M  V30 17907 N 1753.03 -0.787016 1.36542 0
M  V30 17908 C 1753.94 -1.93103 1.33223 0
M  V30 17909 C 1754.95 -1.72419 0.234047 0
M  V30 17910 O 1756.13 -1.95915 0.466828 0
M  V30 17911 C 1753.19 -3.28002 1.12319 0
M  V30 17912 C 1752.25 -3.61447 2.31635 0
M  V30 17913 C 1751.49 -4.89909 2.11719 0
M  V30 17914 O 1751.71 -5.59818 1.0936 0
M  V30 17915 O 1750.64 -5.22065 2.99552 0
M  V30 17916 H 1754.47 -1.98853 2.29545 0
M  V30 17917 H 1752.06 -0.92761 1.17114 0
M  V30 17918 H 1753.94 -4.08722 1.02589 0
M  V30 17919 H 1752.61 -3.23138 0.19061 0
M  V30 17920 H 1751.52 -2.81024 2.46934 0
M  V30 17921 H 1752.85 -3.71037 3.23407 0
M  V30 17922 N 1754.5 -1.20861 -1.01145 0
M  V30 17923 C 1755.47 -0.963742 -2.07954 0
M  V30 17924 C 1756.47 0.0627362 -1.60678 0
M  V30 17925 O 1757.66 -0.173867 -1.7333 0
M  V30 17926 C 1754.79 -0.451977 -3.3789 0
M  V30 17927 H 1755.98 -1.91123 -2.3111 0
M  V30 17928 H 1753.54 -1.0247 -1.18024 0
M  V30 17929 H 1754.27 0.500735 -3.20411 0
M  V30 17930 H 1754.06 -1.19231 -3.73532 0
M  V30 17931 H 1755.55 -0.300308 -4.16519 0
M  V30 17932 N 1755.98 1.20536 -1.01532 0
M  V30 17933 C 1756.91 2.2553 -0.604866 0
M  V30 17934 C 1757.89 1.65814 0.379452 0
M  V30 17935 O 1759.08 1.92381 0.265162 0
M  V30 17936 C 1756.21 3.4725 0.0589292 0
M  V30 17937 C 1755.16 4.19551 -0.846241 0
M  V30 17938 C 1754.49 5.34678 -0.0482901 0
M  V30 17939 C 1755.79 4.75829 -2.1537 0
M  V30 17940 H 1757.48 2.60117 -1.48254 0
M  V30 17941 H 1755.03 1.25035 -0.714297 0
M  V30 17942 H 1756.98 4.1988 0.357627 0
M  V30 17943 H 1755.71 3.11822 0.97131 0
M  V30 17944 H 1754.36 3.48785 -1.12892 0
M  V30 17945 H 1754.01 4.95494 0.8657 0
M  V30 17946 H 1753.71 5.83982 -0.651081 0
M  V30 17947 H 1755.24 6.10112 0.243983 0
M  V30 17948 H 1756.65 5.40284 -1.91745 0
M  V30 17949 H 1755.05 5.35564 -2.70723 0
M  V30 17950 H 1756.12 3.94641 -2.81756 0
M  V30 17951 N 1757.46 0.791395 1.36289 0
M  V30 17952 C 1758.42 0.197069 2.28351 0
M  V30 17953 C 1759.42 -0.606748 1.48913 0
M  V30 17954 O 1760.61 -0.427453 1.68874 0
M  V30 17955 C 1757.75 -0.727009 3.33058 0
M  V30 17956 H 1758.94 1.00885 2.82422 0
M  V30 17957 H 1756.49 0.560959 1.45887 0
M  V30 17958 H 1757.23 -1.56306 2.84146 0
M  V30 17959 H 1757.01 -0.152537 3.91803 0
M  V30 17960 H 1758.5 -1.13765 4.01805 0
M  V30 17961 N 1758.94 -1.47929 0.54358 0
M  V30 17962 C 1760.19 -2.01696 0.0123924 0
M  V30 17963 C 1760.5 -1.42469 -1.34022 0
M  V30 17964 O 1761.71 -1.87816 -1.96054 0
M  V30 17965 C 1760.16 -3.59889 -0.0282734 0
M  V30 17966 C 1759.77 -4.28104 1.32027 0
M  V30 17967 C 1761.52 -4.21455 -0.507571 0
M  V30 17968 C 1759.42 -5.78266 1.23945 0
M  V30 17969 H 1758.35 -0.754 0.000862593 0
M  V30 17970 H 1761 -1.70058 0.689396 0
M  V30 17971 H 1759.39 -3.88429 -0.770641 0
M  V30 17972 H 1760.56 -4.11221 2.07927 0
M  V30 17973 H 1758.87 -3.78468 1.7364 0
M  V30 17974 H 1761.47 -5.31477 -0.586219 0
M  V30 17975 H 1761.81 -3.87696 -1.51648 0
M  V30 17976 H 1762.35 -3.97395 0.179522 0
M  V30 17977 H 1759.09 -6.16621 2.22393 0
M  V30 17978 H 1758.61 -5.97524 0.522029 0
M  V30 17979 H 1760.29 -6.40197 0.935788 0
M  V30 17980 N 1760.42 -0.27936 -1.55104 0
M  V30 17981 C 1761.38 0.593214 -2.2139 0
M  V30 17982 C 1762.38 1.07807 -1.19308 0
M  V30 17983 O 1763.57 0.97756 -1.44185 0
M  V30 17984 C 1760.7 1.81889 -2.88321 0
M  V30 17985 H 1761.9 0.0143941 -2.99897 0
M  V30 17986 H 1759.45 -0.0300083 -1.56271 0
M  V30 17987 H 1760.18 2.43811 -2.13838 0
M  V30 17988 H 1759.97 1.4791 -3.63132 0
M  V30 17989 H 1761.46 2.4393 -3.38951 0
M  V30 17990 N 1761.9 1.57599 -0.0067085 0
M  V30 17991 C 1762.83 2.04302 1.01665 0
M  V30 17992 C 1763.81 0.934217 1.33083 0
M  V30 17993 O 1764.99 1.20285 1.45133 0
M  V30 17994 C 1762.12 2.44627 2.34255 0
M  V30 17995 C 1761.16 3.66307 2.18453 0
M  V30 17996 S 1762 5.13937 1.50428 0
M  V30 17997 C 1763.15 5.57538 2.84434 0
M  V30 17998 H 1763.39 2.90784 0.619005 0
M  V30 17999 H 1760.92 1.53042 0.204354 0
M  V30 18000 H 1762.88 2.68527 3.10489 0
M  V30 18001 H 1761.54 1.58531 2.71158 0
M  V30 18002 H 1760.73 3.92295 3.16419 0
M  V30 18003 H 1760.33 3.42443 1.50363 0
M  V30 18004 H 1762.62 5.60408 3.80722 0
M  V30 18005 H 1763.57 6.57392 2.63138 0
M  V30 18006 H 1763.98 4.85119 2.88651 0
M  V30 18007 N 1763.37 -0.266145 1.55336 0
M  V30 18008 C 1764.34 -1.31242 1.87904 0
M  V30 18009 C 1765.34 -1.42022 0.754083 0
M  V30 18010 O 1766.53 -1.41054 1.02222 0
M  V30 18011 C 1763.66 -2.69285 2.09041 0
M  V30 18012 H 1764.85 -1.03592 2.81441 0
M  V30 18013 H 1762.4 -0.504537 1.47933 0
M  V30 18014 H 1763.14 -3.02106 1.17909 0
M  V30 18015 H 1762.92 -2.62846 2.90954 0
M  V30 18016 H 1764.41 -3.4487 2.35488 0
M  V30 18017 N 1764.85 -1.48386 -0.530967 0
M  V30 18018 C 1765.78 -1.57405 -1.65224 0
M  V30 18019 C 1766.76 -0.424555 -1.5696 0
M  V30 18020 O 1767.95 -0.63602 -1.77446 0
M  V30 18021 C 1765.07 -1.50112 -3.03618 0
M  V30 18022 C 1764.12 -2.6989 -3.30245 0
M  V30 18023 S 1764.95 -4.31867 -3.16624 0
M  V30 18024 C 1766.11 -4.27171 -4.57466 0
M  V30 18025 H 1766.34 -2.52262 -1.57324 0
M  V30 18026 H 1763.87 -1.36907 -0.713851 0
M  V30 18027 H 1765.83 -1.46591 -3.83434 0
M  V30 18028 H 1764.49 -0.565934 -3.0896 0
M  V30 18029 H 1763.69 -2.60923 -4.31202 0
M  V30 18030 H 1763.29 -2.70668 -2.58098 0
M  V30 18031 H 1765.58 -3.97044 -5.48965 0
M  V30 18032 H 1766.52 -5.28304 -4.71487 0
M  V30 18033 H 1766.93 -3.57653 -4.36743 0
M  V30 18034 N 1766.33 0.779763 -1.36958 0
M  V30 18035 C 1767.55 1.57389 -1.35068 0
M  V30 18036 C 1767.98 1.87993 0.0635244 0
M  V30 18037 O 1767.34 1.48625 1.03828 0
M  V30 18038 C 1767.39 2.86582 -2.18868 0
M  V30 18039 O 1766.49 3.80609 -1.58779 0
M  V30 18040 H 1765.83 0.477052 -0.461863 0
M  V30 18041 H 1768.36 0.965741 -1.80373 0
M  V30 18042 H 1768.37 3.35761 -2.31794 0
M  V30 18043 H 1767.05 2.63635 -3.21666 0
M  V30 18044 H 1765.62 3.39229 -1.54848 0
M  V30 18045 N 1767.81 1.21396 1.00503 0
M  V30 18046 C 1768.77 0.974756 2.07439 0
M  V30 18047 C 1769.77 -0.0542142 1.60709 0
M  V30 18048 O 1770.96 0.183056 1.73236 0
M  V30 18049 C 1768.09 0.46989 3.37646 0
M  V30 18050 H 1769.29 1.92346 2.30094 0
M  V30 18051 H 1766.84 1.03095 1.17479 0
M  V30 18052 H 1767.57 -0.483735 3.20672 0
M  V30 18053 H 1767.36 1.2121 3.72895 0
M  V30 18054 H 1768.85 0.322393 4.16354 0
M  V30 18055 N 1769.29 -1.19996 1.0217 0
M  V30 18056 C 1770.51 -1.94007 0.733207 0
M  V30 18057 C 1770.94 -1.74565 -0.70061 0
M  V30 18058 O 1770.29 -1.04326 -1.48276 0
M  V30 18059 C 1770.34 -3.44029 1.08057 0
M  V30 18060 O 1769.45 -4.11938 0.195135 0
M  V30 18061 H 1768.79 -0.605929 0.271562 0
M  V30 18062 H 1771.32 -1.5228 1.36645 0
M  V30 18063 H 1771.33 -3.94669 1.03443 0
M  V30 18064 H 1770 -3.57502 2.1252 0
M  V30 18065 H 1768.58 -3.71697 0.299246 0
M  V30 18066 N 1770.76 -0.798611 -1.35867 0
M  V30 18067 C 1771.7 -0.161203 -2.28632 0
M  V30 18068 C 1772.71 0.634886 -1.4991 0
M  V30 18069 O 1773.9 0.468557 -1.72241 0
M  V30 18070 C 1771 0.794407 -3.29458 0
M  V30 18071 C 1770.17 0.0464031 -4.37375 0
M  V30 18072 C 1769.23 0.919313 -5.18107 0
M  V30 18073 O 1768.26 0.373179 -5.67975 0
M  V30 18074 N 1769.46 2.24243 -5.35439 0
M  V30 18075 H 1772.22 -0.958079 -2.83973 0
M  V30 18076 H 1769.78 -0.653344 -1.48132 0
M  V30 18077 H 1771.78 1.38242 -3.80357 0
M  V30 18078 H 1770.35 1.49212 -2.7469 0
M  V30 18079 H 1769.57 -0.722757 -3.87518 0
M  V30 18080 H 1770.85 -0.469417 -5.0663 0
M  V30 18081 H 1770.25 2.71017 -4.96554 0
M  V30 18082 H 1768.81 2.77986 -5.89548 0
M  V30 18083 N 1772.24 1.47639 -0.551417 0
M  V30 18084 C 1773.52 1.95559 0.0401983 0
M  V30 18085 C 1773.9 1.49396 1.49144 0
M  V30 18086 O 1773.25 0.730148 2.1652 0
M  V30 18087 C 1773.46 3.48859 -0.0992677 0
M  V30 18088 C 1774.8 4.24572 0.0490517 0
M  V30 18089 O 1775.83 3.5619 -0.026527 0
M  V30 18090 O 1774.69 5.46094 0.210638 0
M  V30 18091 H 1771.78 0.824251 0.0673694 0
M  V30 18092 H 1774.33 1.58065 -0.617532 0
M  V30 18093 H 1773.1 3.75245 -1.10936 0
M  V30 18094 H 1772.72 3.93102 0.596339 0
M  V30 18095 N 1773.72 0.287581 1.54954 0
M  V30 18096 C 1774.68 -0.581465 2.21702 0
M  V30 18097 C 1775.68 -1.07172 1.19878 0
M  V30 18098 O 1776.87 -0.969899 1.44702 0
M  V30 18099 C 1774.01 -1.80358 2.89282 0
M  V30 18100 H 1775.2 0.00151035 2.999 0
M  V30 18101 H 1772.75 0.0382953 1.56253 0
M  V30 18102 H 1773.49 -2.42674 2.15128 0
M  V30 18103 H 1773.27 -1.45983 3.63911 0
M  V30 18104 H 1774.76 -2.42129 3.4024 0
M  V30 18105 N 1775.2 -1.57593 0.0150662 0
M  V30 18106 C 1776.13 -2.12395 -0.970081 0
M  V30 18107 C 1777.11 -1.03666 -1.34861 0
M  V30 18108 O 1778.29 -1.31427 -1.4297 0
M  V30 18109 C 1775.42 -2.63958 -2.25707 0
M  V30 18110 C 1774.38 -3.77348 -2.01971 0
M  V30 18111 C 1773.7 -4.15284 -3.36814 0
M  V30 18112 C 1775 -5.04008 -1.37017 0
M  V30 18113 H 1776.7 -2.9496 -0.513731 0
M  V30 18114 H 1774.24 -1.41889 -0.245666 0
M  V30 18115 H 1776.2 -3.00927 -2.94993 0
M  V30 18116 H 1774.92 -1.78535 -2.73483 0
M  V30 18117 H 1773.58 -3.40795 -1.35107 0
M  V30 18118 H 1773.23 -3.26863 -3.82321 0
M  V30 18119 H 1772.93 -4.91686 -3.21744 0
M  V30 18120 H 1774.45 -4.54824 -4.07391 0
M  V30 18121 H 1775.87 -5.38652 -1.96282 0
M  V30 18122 H 1774.26 -5.85315 -1.32388 0
M  V30 18123 H 1775.33 -4.83698 -0.341281 0
M  V30 18124 N 1776.68 0.257904 -1.55475 0
M  V30 18125 C 1778.09 0.82782 -1.67344 0
M  V30 18126 C 1778.44 1.8646 -0.610494 0
M  V30 18127 O 1777.56 2.15005 0.245275 0
M  V30 18128 C 1778.16 1.5083 -3.03374 0
M  V30 18129 C 1776.72 2.02605 -3.17219 0
M  V30 18130 C 1775.86 0.873303 -2.63189 0
M  V30 18131 H 1778.82 0.0339334 -1.58664 0
M  V30 18132 H 1778.84 2.3759 -2.97205 0
M  V30 18133 H 1778.35 0.753469 -3.80716 0
M  V30 18134 H 1776.45 2.81002 -2.4468 0
M  V30 18135 H 1776.56 2.23099 -4.23985 0
M  V30 18136 H 1774.93 1.27082 -2.20731 0
M  V30 18137 H 1775.71 0.131739 -3.43047 0
M  V30 18138 N 1778.15 1.48666 0.52309 0
M  V30 18139 C 1779.4 1.56286 1.27505 0
M  V30 18140 C 1779.72 0.244774 1.94062 0
M  V30 18141 O 1780.92 0.199289 2.70768 0
M  V30 18142 C 1779.38 2.75654 2.31393 0
M  V30 18143 C 1778.99 4.14133 1.70874 0
M  V30 18144 C 1780.73 2.92591 3.07556 0
M  V30 18145 C 1778.64 5.24752 2.72743 0
M  V30 18146 H 1777.57 0.581842 0.479558 0
M  V30 18147 H 1780.22 1.75013 0.551611 0
M  V30 18148 H 1778.6 2.50376 3.06803 0
M  V30 18149 H 1779.77 4.49458 1.01607 0
M  V30 18150 H 1778.09 4.0237 1.0718 0
M  V30 18151 H 1780.69 3.72403 3.83692 0
M  V30 18152 H 1781.03 2.02308 3.63837 0
M  V30 18153 H 1781.56 3.17804 2.39261 0
M  V30 18154 H 1778.3 6.17024 2.21273 0
M  V30 18155 H 1777.82 4.93907 3.40318 0
M  V30 18156 H 1779.5 5.53158 3.35598 0
M  V30 18157 N 1779.63 -0.772489 1.37369 0
M  V30 18158 C 1780.88 -1.53329 1.32733 0
M  V30 18159 C 1781.21 -1.93999 -0.0882815 0
M  V30 18160 O 1780.49 -1.64014 -1.04545 0
M  V30 18161 C 1780.77 -2.79885 2.26575 0
M  V30 18162 C 1780.62 -2.45474 3.76912 0
M  V30 18163 C 1781.94 -3.81812 2.18878 0
M  V30 18164 H 1779.06 -0.55625 0.483482 0
M  V30 18165 H 1781.7 -0.886251 1.68064 0
M  V30 18166 H 1779.85 -3.35097 1.96576 0
M  V30 18167 H 1781.52 -1.96182 4.17505 0
M  V30 18168 H 1779.77 -1.78181 3.95517 0
M  V30 18169 H 1780.44 -3.35937 4.38007 0
M  V30 18170 H 1782.91 -3.36091 2.4532 0
M  V30 18171 H 1781.79 -4.68087 2.86681 0
M  V30 18172 H 1782.05 -4.26021 1.18146 0
M  V30 18173 N 1781.11 -1.21927 -0.998575 0
M  V30 18174 C 1782.52 -1.03808 -1.5518 0
M  V30 18175 C 1782.87 0.400202 -1.92075 0
M  V30 18176 O 1782 1.28436 -1.74164 0
M  V30 18177 C 1782.59 -1.87814 -2.81978 0
M  V30 18178 C 1781.15 -1.74008 -3.33764 0
M  V30 18179 C 1780.3 -1.8463 -2.06899 0
M  V30 18180 H 1783.25 -1.35855 -0.820305 0
M  V30 18181 H 1783.27 -1.39219 -3.54116 0
M  V30 18182 H 1782.78 -2.92487 -2.55094 0
M  V30 18183 H 1780.88 -0.720445 -3.65569 0
M  V30 18184 H 1781 -2.56348 -4.0475 0
M  V30 18185 H 1779.36 -1.28007 -2.20196 0
M  V30 18186 H 1780.14 -2.90824 -1.82419 0
M  V30 18187 N 1782.59 1.19452 -1.02805 0
M  V30 18188 C 1783.52 2.22095 -0.566246 0
M  V30 18189 C 1784.53 1.58828 0.357442 0
M  V30 18190 O 1785.72 1.77835 0.153965 0
M  V30 18191 C 1782.82 3.38343 0.194294 0
M  V30 18192 C 1782 4.31195 -0.734131 0
M  V30 18193 C 1781.05 5.26197 -0.0191426 0
M  V30 18194 O 1780.08 5.65529 -0.645436 0
M  V30 18195 N 1781.28 5.66841 1.25187 0
M  V30 18196 H 1784.05 2.62342 -1.44902 0
M  V30 18197 H 1781.61 1.3411 -0.906978 0
M  V30 18198 H 1783.6 3.9891 0.682136 0
M  V30 18199 H 1782.17 2.96892 0.978474 0
M  V30 18200 H 1781.39 3.68423 -1.40208 0
M  V30 18201 H 1782.68 4.90144 -1.36516 0
M  V30 18202 H 1782.08 5.36918 1.78145 0
M  V30 18203 H 1780.63 6.29664 1.68423 0
M  V30 18204 N 1784.07 0.805805 1.35442 0
M  V30 18205 C 1785 0.230077 2.32364 0
M  V30 18206 C 1785.98 -0.644034 1.57436 0
M  V30 18207 O 1787.16 -0.574467 1.85509 0
M  V30 18208 C 1784.29 -0.622814 3.4167 0
M  V30 18209 C 1783.25 0.152739 4.27727 0
M  V30 18210 C 1782.57 -0.821803 5.28347 0
M  V30 18211 C 1783.87 1.35128 5.04517 0
M  V30 18212 H 1785.57 1.03983 2.80763 0
M  V30 18213 H 1783.11 0.501467 1.34986 0
M  V30 18214 H 1785.07 -1.03564 4.08476 0
M  V30 18215 H 1783.79 -1.46544 2.91877 0
M  V30 18216 H 1782.45 0.546732 3.625 0
M  V30 18217 H 1782.1 -1.65991 4.74822 0
M  V30 18218 H 1781.8 -0.307209 5.86796 0
M  V30 18219 H 1783.32 -1.23285 5.98024 0
M  V30 18220 H 1784.73 1.01337 5.64273 0
M  V30 18221 H 1783.13 1.80031 5.72459 0
M  V30 18222 H 1784.2 2.13833 4.35205 0
M  V30 18223 N 1785.54 -1.47344 0.559239 0
M  V30 18224 C 1786.48 -2.28095 -0.224826 0
M  V30 18225 C 1787.49 -1.37127 -0.877492 0
M  V30 18226 O 1788.68 -1.61933 -0.751002 0
M  V30 18227 C 1785.78 -3.1145 -1.33611 0
M  V30 18228 C 1784.95 -4.30392 -0.779845 0
M  V30 18229 C 1784.01 -4.95327 -1.77587 0
M  V30 18230 O 1783.04 -5.53654 -1.32119 0
M  V30 18231 N 1784.24 -4.90206 -3.10931 0
M  V30 18232 H 1787 -2.96026 0.46786 0
M  V30 18233 H 1784.56 -1.56996 0.395448 0
M  V30 18234 H 1786.56 -3.51758 -2.00121 0
M  V30 18235 H 1785.13 -2.45749 -1.932 0
M  V30 18236 H 1784.35 -3.94151 0.0620861 0
M  V30 18237 H 1785.63 -5.07322 -0.387581 0
M  V30 18238 H 1785.03 -4.44022 -3.50515 0
M  V30 18239 H 1783.59 -5.34527 -3.72994 0
M  V30 18240 N 1787.02 -0.295795 -1.54799 0
M  V30 18241 C 1788.27 0.315473 -2.00331 0
M  V30 18242 C 1788.6 1.53939 -1.18392 0
M  V30 18243 O 1787.88 1.92767 -0.259086 0
M  V30 18244 C 1788.16 0.677227 -3.53674 0
M  V30 18245 C 1788.01 -0.555462 -4.46357 0
M  V30 18246 C 1789.33 1.50576 -4.1354 0
M  V30 18247 H 1786.45 0.113191 -0.728256 0
M  V30 18248 H 1789.09 -0.406858 -1.85593 0
M  V30 18249 H 1787.24 1.29264 -3.66365 0
M  V30 18250 H 1788.91 -1.19397 -4.45581 0
M  V30 18251 H 1787.16 -1.18968 -4.17168 0
M  V30 18252 H 1787.83 -0.25828 -5.51395 0
M  V30 18253 H 1790.3 0.985819 -4.04253 0
M  V30 18254 H 1789.18 1.72766 -5.21002 0
M  V30 18255 H 1789.44 2.49334 -3.65082 0
M  V30 18256 N 1788.5 1.57583 -0.0234236 0
M  V30 18257 C 1789.41 2.13328 0.976138 0
M  V30 18258 C 1790.43 1.08414 1.36097 0
M  V30 18259 O 1791.6 1.40441 1.44354 0
M  V30 18260 C 1788.67 2.64469 2.24181 0
M  V30 18261 C 1787.73 3.84076 1.91793 0
M  V30 18262 C 1786.96 4.32768 3.12326 0
M  V30 18263 O 1787.19 3.80663 4.24797 0
M  V30 18264 O 1786.12 5.24676 2.94956 0
M  V30 18265 H 1789.95 2.99001 0.532166 0
M  V30 18266 H 1787.53 1.48098 0.196838 0
M  V30 18267 H 1789.41 2.97456 2.98492 0
M  V30 18268 H 1788.09 1.81881 2.6777 0
M  V30 18269 H 1786.99 3.56023 1.14883 0
M  V30 18270 H 1788.33 4.67808 1.53024 0
M  V30 18271 N 1789.98 -0.249655 1.5561 0
M  V30 18272 C 1790.93 -1.32883 1.90906 0
M  V30 18273 C 1791.92 -1.49965 0.787832 0
M  V30 18274 O 1793.13 -1.51473 0.972422 0
M  V30 18275 H 1789.5 -0.444907 0.606269 0
M  V30 18276 H 1791.47 -1.00379 2.8101 0
M  V30 18277 C 1790.22 -2.67782 2.21784 0
M  V30 18278 H 1789.55 -2.55436 3.07559 0
M  V30 18279 H 1790.99 -3.42175 2.50385 0
M  V30 18280 C 1789.44 -3.20664 1.03325 0
M  V30 18281 O 1789.97 -4.00724 0.279822 0
M  V30 18282 N 1788.18 -2.78655 0.824614 0
M  V30 18283 H 1787.73 -2.1366 1.43899 0
M  V30 18284 H 1787.69 -3.14382 0.03369 0
M  V30 18285 N 1791.46 -1.48941 -0.515198 0
M  V30 18286 C 1792.71 -1.57398 -1.26768 0
M  V30 18287 C 1793.03 -0.256213 -1.93309 0
M  V30 18288 O 1792.3 0.723408 -1.82054 0
M  V30 18289 H 1790.88 -0.579895 -0.470883 0
M  V30 18290 H 1793.54 -1.85489 -0.598315 0
M  V30 18291 H 1792.63 -2.36272 -2.03916 0
M  V30 18292 N 1792.94 0.765193 -1.37777 0
M  V30 18293 C 1793.85 1.90959 -1.36278 0
M  V30 18294 C 1794.86 1.72025 -0.261448 0
M  V30 18295 O 1796.04 1.95148 -0.497937 0
M  V30 18296 C 1793.1 3.26174 -1.17523 0
M  V30 18297 C 1792.16 3.57716 -2.37356 0
M  V30 18298 C 1791.4 4.86479 -2.19486 0
M  V30 18299 O 1791.62 5.58008 -1.18252 0
M  V30 18300 O 1790.55 5.17234 -3.0782 0
M  V30 18301 H 1794.38 1.95176 -2.3268 0
M  V30 18302 H 1791.96 0.90886 -1.18575 0
M  V30 18303 H 1793.85 4.07038 -1.09078 0
M  V30 18304 H 1792.52 3.22794 -0.241994 0
M  V30 18305 H 1791.43 2.7706 -2.51374 0
M  V30 18306 H 1792.76 3.65845 -3.29269 0
M  V30 18307 N 1794.41 1.22455 0.992094 0
M  V30 18308 C 1795.69 0.958091 1.70529 0
M  V30 18309 C 1796.07 -0.526595 2.04426 0
M  V30 18310 O 1795.42 -1.49483 1.72821 0
M  V30 18311 C 1795.63 1.85646 2.95528 0
M  V30 18312 C 1796.98 2.11301 3.68289 0
M  V30 18313 O 1798 1.831 3.05537 0
M  V30 18314 O 1796.86 2.59068 4.81192 0
M  V30 18315 H 1793.95 0.360375 0.744351 0
M  V30 18316 H 1796.5 1.33444 1.04837 0
M  V30 18317 H 1795.27 2.86067 2.66986 0
M  V30 18318 H 1794.89 1.48174 3.68958 0
M  V30 18319 N 1795.89 -1.18905 1.03437 0
M  V30 18320 C 1797.14 -1.88055 0.729268 0
M  V30 18321 C 1797.45 -1.80833 -0.745564 0
M  V30 18322 O 1798.66 -2.45285 -1.16393 0
M  V30 18323 C 1797.12 -3.37341 1.25415 0
M  V30 18324 C 1796.72 -3.53107 2.75716 0
M  V30 18325 C 1798.47 -4.11932 1.02529 0
M  V30 18326 C 1796.37 -4.96317 3.21595 0
M  V30 18327 H 1795.3 -0.704345 0.269098 0
M  V30 18328 H 1797.96 -1.34397 1.24938 0
M  V30 18329 H 1796.34 -3.90429 0.661925 0
M  V30 18330 H 1797.51 -3.10322 3.40642 0
M  V30 18331 H 1795.83 -2.91913 2.96944 0
M  V30 18332 H 1798.42 -5.17552 1.34328 0
M  V30 18333 H 1798.77 -4.16283 -0.0377114 0
M  V30 18334 H 1799.3 -3.64998 1.5818 0
M  V30 18335 H 1796.04 -4.97131 4.27248 0
M  V30 18336 H 1795.56 -5.39842 2.61401 0
M  V30 18337 H 1797.24 -5.65 3.15253 0
M  V30 18338 N 1797.37 -0.812977 -1.35013 0
M  V30 18339 C 1798.62 -0.392801 -1.97838 0
M  V30 18340 C 1798.93 1.04728 -1.65201 0
M  V30 18341 O 1800.14 1.57088 -2.2144 0
M  V30 18342 C 1798.59 -0.651399 -3.53956 0
M  V30 18343 C 1798.2 -2.10444 -3.95496 0
M  V30 18344 C 1799.95 -0.296897 -4.2346 0
M  V30 18345 C 1797.85 -2.30845 -5.44485 0
M  V30 18346 H 1796.78 -0.143138 -0.740289 0
M  V30 18347 H 1799.43 -0.997933 -1.53992 0
M  V30 18348 H 1797.82 0.0237698 -3.95993 0
M  V30 18349 H 1798.99 -2.81795 -3.64593 0
M  V30 18350 H 1797.3 -2.41942 -3.389 0
M  V30 18351 H 1799.9 -0.427291 -5.3299 0
M  V30 18352 H 1800.24 0.757594 -4.09349 0
M  V30 18353 H 1800.78 -0.92624 -3.86866 0
M  V30 18354 H 1797.52 -3.34763 -5.63572 0
M  V30 18355 H 1797.04 -1.64027 -5.76936 0
M  V30 18356 H 1798.72 -2.12712 -6.11034 0
M  V30 18357 N 1798.85 1.47045 -0.567045 0
M  V30 18358 C 1800.1 2.01651 -0.044479 0
M  V30 18359 C 1800.41 1.44583 1.31738 0
M  V30 18360 O 1801.62 1.90911 1.93042 0
M  V30 18361 C 1800.07 3.59888 -0.0289854 0
M  V30 18362 C 1799.68 4.25949 -1.38821 0
M  V30 18363 C 1801.42 4.22209 0.440457 0
M  V30 18364 C 1799.33 5.76221 -1.33129 0
M  V30 18365 H 1798.26 0.75389 -0.012858 0
M  V30 18366 H 1800.91 1.68939 -0.716363 0
M  V30 18367 H 1799.29 3.89606 0.708747 0
M  V30 18368 H 1800.47 4.07861 -2.14443 0
M  V30 18369 H 1798.78 3.75658 -1.79639 0
M  V30 18370 H 1801.38 5.32342 0.501592 0
M  V30 18371 H 1801.72 3.9006 1.45461 0
M  V30 18372 H 1802.26 3.97059 -0.242721 0
M  V30 18373 H 1798.99 6.13005 -2.32175 0
M  V30 18374 H 1798.51 5.96618 -0.617023 0
M  V30 18375 H 1800.19 6.38627 -1.03752 0
M  V30 18376 N 1800.33 0.304 1.5464 0
M  V30 18377 C 1801.57 -0.305185 1.99378 0
M  V30 18378 C 1801.89 -1.54773 1.19602 0
M  V30 18379 O 1803.09 -2.23169 1.54621 0
M  V30 18380 C 1801.55 -0.594303 3.54959 0
M  V30 18381 C 1801.16 0.630078 4.43547 0
M  V30 18382 C 1802.9 -1.16452 4.08215 0
M  V30 18383 C 1800.81 0.313946 5.90566 0
M  V30 18384 H 1799.74 -0.11781 0.744739 0
M  V30 18385 H 1802.39 0.413174 1.78788 0
M  V30 18386 H 1800.77 -1.37233 3.71461 0
M  V30 18387 H 1801.95 1.40619 4.3882 0
M  V30 18388 H 1800.26 1.11914 4.01079 0
M  V30 18389 H 1802.86 -1.41534 5.15628 0
M  V30 18390 H 1803.2 -2.10773 3.58999 0
M  V30 18391 H 1803.73 -0.448123 3.95268 0
M  V30 18392 H 1800.47 1.2258 6.43937 0
M  V30 18393 H 1799.99 -0.424841 5.98294 0
M  V30 18394 H 1801.67 -0.083395 6.46946 0
M  V30 18395 N 1801.8 -1.57568 0.0317802 0
M  V30 18396 C 1802.74 -2.07288 -0.977981 0
M  V30 18397 C 1803.75 -0.99682 -1.28714 0
M  V30 18398 O 1804.94 -1.27295 -1.25133 0
M  V30 18399 C 1802.04 -2.48469 -2.3047 0
M  V30 18400 C 1801.21 -3.79185 -2.18031 0
M  V30 18401 C 1800.27 -4.06888 -3.33659 0
M  V30 18402 O 1799.3 -4.771 -3.10426 0
M  V30 18403 N 1800.5 -3.57271 -4.57534 0
M  V30 18404 H 1803.26 -2.9454 -0.553743 0
M  V30 18405 H 1800.82 -1.61157 -0.154917 0
M  V30 18406 H 1802.82 -2.64092 -3.06655 0
M  V30 18407 H 1801.39 -1.66568 -2.64526 0
M  V30 18408 H 1800.61 -3.73333 -1.26556 0
M  V30 18409 H 1801.89 -4.64821 -2.06926 0
M  V30 18410 H 1801.29 -3.00474 -4.79303 0
M  V30 18411 H 1799.85 -3.78168 -5.30878 0
M  V30 18412 N 1803.28 0.241399 -1.5574 0
M  V30 18413 C 1804.21 1.32197 -1.87234 0
M  V30 18414 C 1805.23 1.44024 -0.759015 0
M  V30 18415 O 1806.42 1.45275 -1.03718 0
M  V30 18416 C 1803.52 2.69994 -2.04833 0
M  V30 18417 C 1802.69 2.80366 -3.35729 0
M  V30 18418 C 1801.75 3.99043 -3.43003 0
M  V30 18419 O 1800.77 3.88312 -4.16176 0
M  V30 18420 N 1801.98 5.12462 -2.72696 0
M  V30 18421 H 1804.74 1.05514 -2.80512 0
M  V30 18422 H 1802.3 0.431491 -1.56044 0
M  V30 18423 H 1804.29 3.47733 -2.07035 0
M  V30 18424 H 1802.86 2.89361 -1.18274 0
M  V30 18425 H 1802.08 1.89258 -3.45796 0
M  V30 18426 H 1803.37 2.8425 -4.21995 0
M  V30 18427 H 1802.77 5.24073 -2.12988 0
M  V30 18428 H 1801.33 5.88316 -2.80584 0
M  V30 18429 N 1804.76 1.49212 0.507292 0
M  V30 18430 C 1806.04 1.4888 1.26863 0
M  V30 18431 C 1806.42 0.213007 2.10023 0
M  V30 18432 O 1805.77 -0.804785 2.13858 0
M  V30 18433 C 1805.98 2.76407 2.13073 0
M  V30 18434 C 1807.32 3.25647 2.72468 0
M  V30 18435 O 1808.35 2.77481 2.23344 0
M  V30 18436 O 1807.21 4.09518 3.6188 0
M  V30 18437 H 1804.3 0.595597 0.573754 0
M  V30 18438 H 1806.85 1.6147 0.52208 0
M  V30 18439 H 1805.62 3.60758 1.51558 0
M  V30 18440 H 1805.24 2.66648 2.94932 0
M  V30 18441 N 1806.24 -0.757876 1.38181 0
M  V30 18442 C 1807.47 -1.54709 1.37378 0
M  V30 18443 C 1807.88 -1.88763 -0.0375087 0
M  V30 18444 O 1807.24 -1.52467 -1.00299 0
M  V30 18445 C 1807.29 -2.84887 2.22535 0
M  V30 18446 O 1807.01 -2.52287 3.58166 0
M  V30 18447 C 1808.51 -3.79048 2.29865 0
M  V30 18448 H 1805.73 -0.478845 0.470052 0
M  V30 18449 H 1808.28 -0.938283 1.81704 0
M  V30 18450 H 1806.43 -3.42156 1.81682 0
M  V30 18451 H 1806.84 -3.35747 4.02957 0
M  V30 18452 H 1808.32 -4.67353 2.93744 0
M  V30 18453 H 1808.8 -4.19175 1.31106 0
M  V30 18454 H 1809.4 -3.27704 2.7109 0
M  V30 18455 N 1807.72 -1.22979 -0.985586 0
M  V30 18456 C 1809.13 -1.05448 -1.5407 0
M  V30 18457 C 1809.48 0.379808 -1.92489 0
M  V30 18458 O 1808.6 1.26582 -1.75516 0
M  V30 18459 C 1809.2 -1.90794 -2.7997 0
M  V30 18460 C 1807.76 -1.77538 -3.31899 0
M  V30 18461 C 1806.9 -1.86814 -2.04929 0
M  V30 18462 H 1809.86 -1.36718 -0.80585 0
M  V30 18463 H 1809.88 -1.42967 -3.5262 0
M  V30 18464 H 1809.39 -2.95177 -2.51977 0
M  V30 18465 H 1807.49 -0.759177 -3.64784 0
M  V30 18466 H 1807.6 -2.60627 -4.02008 0
M  V30 18467 H 1805.97 -1.30336 -2.18826 0
M  V30 18468 H 1806.75 -2.92742 -1.79324 0
M  V30 18469 N 1809.19 1.18355 -1.04066 0
M  V30 18470 C 1810.1 2.25641 -0.642115 0
M  V30 18471 C 1811.12 1.70811 0.331614 0
M  V30 18472 O 1812.3 2.00534 0.186542 0
M  V30 18473 C 1809.36 3.46698 -0.0112485 0
M  V30 18474 C 1808.42 4.16662 -1.03398 0
M  V30 18475 C 1807.66 5.3194 -0.433125 0
M  V30 18476 O 1807.88 5.65305 0.760669 0
M  V30 18477 O 1806.81 5.90581 -1.16182 0
M  V30 18478 H 1810.64 2.61997 -1.53595 0
M  V30 18479 H 1808.22 1.25437 -0.811542 0
M  V30 18480 H 1810.11 4.20027 0.339934 0
M  V30 18481 H 1808.78 3.12166 0.856405 0
M  V30 18482 H 1807.69 3.45402 -1.43696 0
M  V30 18483 H 1809.02 4.55194 -1.8724 0
M  V30 18484 N 1810.67 0.820125 1.3458 0
M  V30 18485 C 1811.9 0.419764 2.02597 0
M  V30 18486 C 1812.32 -0.973439 1.6177 0
M  V30 18487 O 1811.67 -1.6295 0.821791 0
M  V30 18488 C 1811.72 0.509104 3.57897 0
M  V30 18489 O 1811.44 1.84739 3.97244 0
M  V30 18490 C 1812.95 0.103283 4.4318 0
M  V30 18491 H 1810.17 0.168803 0.64942 0
M  V30 18492 H 1812.71 1.10751 1.71914 0
M  V30 18493 H 1810.86 -0.130526 3.8718 0
M  V30 18494 H 1811.28 1.81967 4.91923 0
M  V30 18495 H 1812.75 0.216884 5.51574 0
M  V30 18496 H 1813.23 -0.952888 4.28738 0
M  V30 18497 H 1813.84 0.716601 4.19219 0
M  V30 18498 N 1812.15 -1.46743 0.574835 0
M  V30 18499 C 1813.08 -2.33012 -0.150836 0
M  V30 18500 C 1814.06 -1.44868 -0.891472 0
M  V30 18501 O 1815.25 -1.73698 -0.868481 0
M  V30 18502 C 1812.38 -3.26995 -1.17012 0
M  V30 18503 C 1811.33 -4.24518 -0.544829 0
M  V30 18504 C 1810.66 -5.07951 -1.67002 0
M  V30 18505 C 1811.96 -5.19776 0.512891 0
M  V30 18506 H 1813.65 -2.93935 0.569433 0
M  V30 18507 H 1811.2 -1.41344 0.275289 0
M  V30 18508 H 1813.15 -3.86198 -1.68609 0
M  V30 18509 H 1811.87 -2.64163 -1.92056 0
M  V30 18510 H 1810.53 -3.66566 -0.0500133 0
M  V30 18511 H 1810.18 -4.4151 -2.40993 0
M  V30 18512 H 1809.88 -5.73991 -1.25732 0
M  V30 18513 H 1811.4 -5.70017 -2.1889 0
M  V30 18514 H 1812.82 -5.73241 0.0823064 0
M  V30 18515 H 1811.22 -5.94114 0.845462 0
M  V30 18516 H 1812.29 -4.64184 1.40217 0
M  V30 18517 N 1813.63 -0.312197 -1.54477 0
M  V30 18518 C 1815.04 0.178189 -1.85848 0
M  V30 18519 C 1815.39 1.52534 -1.23401 0
M  V30 18520 O 1814.52 2.09661 -0.535822 0
M  V30 18521 C 1815.11 0.330099 -3.37188 0
M  V30 18522 C 1813.67 0.764703 -3.6855 0
M  V30 18523 C 1812.82 -0.120348 -2.77039 0
M  V30 18524 H 1815.77 -0.532853 -1.49487 0
M  V30 18525 H 1815.79 1.16287 -3.62295 0
M  V30 18526 H 1815.3 -0.650527 -3.82609 0
M  V30 18527 H 1813.4 1.75548 -3.28654 0
M  V30 18528 H 1813.51 0.576331 -4.75621 0
M  V30 18529 H 1811.88 0.402229 -2.51504 0
M  V30 18530 H 1812.66 -1.09753 -3.25283 0
M  V30 18531 N 1815.11 1.57549 -0.040136 0
M  V30 18532 C 1816.35 1.9187 0.634838 0
M  V30 18533 C 1816.68 0.918178 1.7203 0
M  V30 18534 O 1815.95 -0.0386563 1.95862 0
M  V30 18535 H 1814.53 0.708245 0.237483 0
M  V30 18536 H 1817.19 1.9469 -0.0905369 0
M  V30 18537 H 1816.28 2.92799 1.08053 0
M  V30 18538 N 1816.58 -0.233136 1.55866 0
M  V30 18539 C 1817.53 -1.29204 1.87857 0
M  V30 18540 C 1818.52 -1.42842 0.740607 0
M  V30 18541 O 1819.71 -1.45852 1.00281 0
M  V30 18542 C 1816.84 -2.6448 2.18873 0
M  V30 18543 C 1815.93 -2.5479 3.39032 0
M  V30 18544 N 1816.32 -2.14742 4.57952 0
M  V30 18545 C 1814.61 -2.85774 3.42417 0
M  V30 18546 C 1815.32 -2.1602 5.40102 0
M  V30 18547 N 1814.29 -2.5606 4.79515 0
M  V30 18548 H 1818.09 -0.973116 2.77322 0
M  V30 18549 H 1815.61 -0.441733 1.56277 0
M  V30 18550 H 1817.6 -3.40916 2.39962 0
M  V30 18551 H 1816.26 -2.97227 1.30714 0
M  V30 18552 H 1817.28 -1.8606 4.83324 0
M  V30 18553 H 1813.95 -3.2297 2.64568 0
M  V30 18554 H 1815.34 -1.8728 6.45272 0
M  V30 18555 N 1818.06 -1.49479 -0.499372 0
M  V30 18556 C 1819.29 -1.6276 -1.27738 0
M  V30 18557 C 1819.71 -0.299635 -1.86407 0
M  V30 18558 O 1819.06 0.715092 -1.67907 0
M  V30 18559 C 1819.11 -2.69762 -2.40647 0
M  V30 18560 O 1818.84 -3.97407 -1.84388 0
M  V30 18561 C 1820.34 -2.93762 -3.31992 0
M  V30 18562 H 1817.56 -0.547893 -0.387368 0
M  V30 18563 H 1820.1 -1.95522 -0.599292 0
M  V30 18564 H 1818.26 -2.39773 -3.04282 0
M  V30 18565 H 1818.67 -4.56361 -2.58525 0
M  V30 18566 H 1820.14 -3.72361 -4.07494 0
M  V30 18567 H 1820.62 -2.0374 -3.89085 0
M  V30 18568 H 1821.23 -3.25173 -2.74122 0
M  V30 18569 N 1819.54 0.750537 -1.38581 0
M  V30 18570 C 1820.49 1.86434 -1.36056 0
M  V30 18571 C 1821.46 1.64601 -0.222625 0
M  V30 18572 O 1822.64 1.86225 -0.41533 0
M  V30 18573 C 1819.78 3.23769 -1.19447 0
M  V30 18574 C 1818.9 3.57412 -2.42653 0
M  V30 18575 C 1818.03 4.84067 -2.18751 0
M  V30 18576 C 1817.07 5.10506 -3.37713 0
M  V30 18577 N 1816.21 6.28358 -3.13227 0
M  V30 18578 H 1821.05 1.87927 -2.31274 0
M  V30 18579 H 1818.58 0.91849 -1.14901 0
M  V30 18580 H 1820.54 4.03024 -1.07832 0
M  V30 18581 H 1819.17 3.21595 -0.278665 0
M  V30 18582 H 1818.22 2.72978 -2.64929 0
M  V30 18583 H 1819.54 3.72876 -3.31307 0
M  V30 18584 H 1818.69 5.71271 -2.0429 0
M  V30 18585 H 1817.43 4.70748 -1.27467 0
M  V30 18586 H 1816.43 4.2177 -3.5269 0
M  V30 18587 H 1817.66 5.25721 -4.29877 0
M  V30 18588 H 1815.61 6.16355 -2.24593 0
M  V30 18589 H 1815.52 6.44337 -3.95432 0
M  V30 18590 H 1816.79 7.18441 -3.02428 0
M  V30 18591 N 1821.02 1.235 0.979051 0
M  V30 18592 C 1821.98 1.01854 2.05325 0
M  V30 18593 C 1822.98 -0.0201133 1.60787 0
M  V30 18594 O 1824.17 0.219761 1.72808 0
M  V30 18595 C 1821.3 0.541404 3.36573 0
M  V30 18596 H 1822.5 1.97183 2.25962 0
M  V30 18597 H 1820.05 1.05563 1.15265 0
M  V30 18598 H 1820.79 -0.415607 3.21626 0
M  V30 18599 H 1820.57 1.29092 3.7024 0
M  V30 18600 H 1822.06 0.410635 4.15576 0
M  V30 18601 N 1822.5 -1.17802 1.04693 0
M  V30 18602 C 1823.44 -2.21648 0.643478 0
M  V30 18603 C 1824.41 -1.6233 -0.351858 0
M  V30 18604 O 1825.6 -1.89228 -0.244414 0
M  V30 18605 C 1822.74 -3.45095 0.019145 0
M  V30 18606 C 1821.85 -4.18725 1.06271 0
M  V30 18607 C 1820.99 -5.29644 0.406224 0
M  V30 18608 C 1820.03 -5.95055 1.43444 0
M  V30 18609 N 1819.16 -6.97499 0.802482 0
M  V30 18610 H 1824 -2.55513 1.53352 0
M  V30 18611 H 1821.54 -1.25518 0.767051 0
M  V30 18612 H 1823.5 -4.15642 -0.36023 0
M  V30 18613 H 1822.13 -3.1183 -0.834386 0
M  V30 18614 H 1821.18 -3.46943 1.55996 0
M  V30 18615 H 1822.49 -4.63486 1.84342 0
M  V30 18616 H 1821.65 -6.06694 -0.027012 0
M  V30 18617 H 1820.39 -4.86003 -0.406525 0
M  V30 18618 H 1819.39 -5.1674 1.87775 0
M  V30 18619 H 1820.62 -6.40778 2.249 0
M  V30 18620 H 1818.56 -6.55999 0.010153 0
M  V30 18621 H 1818.48 -7.40545 1.52081 0
M  V30 18622 H 1819.75 -7.78504 0.393852 0
M  V30 18623 N 1823.98 -0.827251 -1.34143 0
M  V30 18624 C 1824.91 -0.209663 -2.28239 0
M  V30 18625 C 1825.92 0.602945 -1.51223 0
M  V30 18626 O 1827.11 0.431917 -1.73196 0
M  V30 18627 C 1824.21 0.724345 -3.31069 0
M  V30 18628 C 1823.38 -0.0463812 -4.37375 0
M  V30 18629 C 1822.44 0.809208 -5.19941 0
M  V30 18630 O 1821.47 0.252619 -5.68639 0
M  V30 18631 N 1822.67 2.12835 -5.40075 0
M  V30 18632 H 1825.43 -1.0181 -2.81877 0
M  V30 18633 H 1823 -0.684618 -1.46713 0
M  V30 18634 H 1824.99 1.30143 -3.83204 0
M  V30 18635 H 1823.56 1.43352 -2.77793 0
M  V30 18636 H 1822.78 -0.804793 -3.85897 0
M  V30 18637 H 1824.07 -0.576775 -5.0552 0
M  V30 18638 H 1823.46 2.60423 -5.02191 0
M  V30 18639 H 1822.02 2.65419 -5.95312 0
M  V30 18640 N 1825.45 1.46436 -0.582609 0
M  V30 18641 C 1826.86 1.86047 -0.156012 0
M  V30 18642 C 1827.22 1.48619 1.28089 0
M  V30 18643 O 1826.34 0.90104 1.96749 0
M  V30 18644 C 1826.94 3.37671 -0.276358 0
M  V30 18645 C 1825.49 3.76279 0.0953682 0
M  V30 18646 C 1824.64 2.70454 -0.612348 0
M  V30 18647 H 1827.59 1.37592 -0.790834 0
M  V30 18648 H 1827.61 3.77223 0.498312 0
M  V30 18649 H 1827.13 3.64881 -1.32225 0
M  V30 18650 H 1825.23 3.54687 1.1414 0
M  V30 18651 H 1825.34 4.78276 -0.280881 0
M  V30 18652 H 1823.7 2.54646 -0.0526182 0
M  V30 18653 H 1824.49 3.00504 -1.65989 0
M  V30 18654 N 1826.93 0.320385 1.54309 0
M  V30 18655 C 1828.16 -0.284784 2.04628 0
M  V30 18656 C 1828.57 -1.46578 1.1963 0
M  V30 18657 O 1827.91 -1.8239 0.219023 0
M  V30 18658 C 1827.97 -0.785529 3.50813 0
M  V30 18659 C 1827.64 0.272743 4.56185 0
M  V30 18660 C 1828.64 1.10775 5.07961 0
M  V30 18661 C 1826.32 0.420018 5.00541 0
M  V30 18662 C 1828.31 2.0758 6.02652 0
M  V30 18663 C 1826 1.39148 5.95047 0
M  V30 18664 C 1827 2.21784 6.45988 0
M  V30 18665 O 1826.69 3.17281 7.38639 0
M  V30 18666 H 1826.42 -0.0629681 0.673061 0
M  V30 18667 H 1828.97 0.463698 2.00097 0
M  V30 18668 H 1827.2 -1.58487 3.52731 0
M  V30 18669 H 1828.89 -1.3087 3.84224 0
M  V30 18670 H 1829.66 1.00494 4.74474 0
M  V30 18671 H 1825.54 -0.21329 4.60506 0
M  V30 18672 H 1829.08 2.72119 6.42337 0
M  V30 18673 H 1824.98 1.49494 6.2795 0
M  V30 18674 H 1825.75 3.12483 7.56503 0
M  V30 18675 N 1828.41 -1.57525 0.0484906 0
M  V30 18676 C 1829.83 -1.56599 -0.308041 0
M  V30 18677 C 1830.03 -1.05591 -1.71618 0
M  V30 18678 O 1829.08 -0.711302 -2.42274 0
M  V30 18679 C 1830.39 -3.00379 -0.138955 0
M  V30 18680 C 1831.94 -3.12293 -0.210262 0
M  V30 18681 C 1832.42 -4.57947 -0.0697369 0
M  V30 18682 N 1833.91 -4.63028 -0.1261 0
M  V30 18683 C 1834.64 -5.73385 -0.0414392 0
M  V30 18684 N 1834.14 -6.92734 0.0954164 0
M  V30 18685 N 1835.93 -5.62017 -0.0968281 0
M  V30 18686 H 1828.08 -1.89005 0.969069 0
M  V30 18687 H 1830.35 -0.87027 0.375944 0
M  V30 18688 H 1830.05 -3.41722 0.831808 0
M  V30 18689 H 1829.93 -3.66278 -0.901109 0
M  V30 18690 H 1832.31 -2.7085 -1.1715 0
M  V30 18691 H 1832.39 -2.49077 0.582601 0
M  V30 18692 H 1832.04 -5.00074 0.888161 0
M  V30 18693 H 1831.97 -5.19166 -0.881711 0
M  V30 18694 H 1834.46 -3.77192 -0.231232 0
M  V30 18695 H 1834.77 -7.72649 0.152796 0
M  V30 18696 H 1833.12 -6.94878 0.130465 0
M  V30 18697 H 1836.31 -4.67663 -0.202283 0
M  V30 18698 H 1836.48 -6.47994 -0.0273908 0
M  V30 18699 N 1829.89 0.224867 -1.55988 0
M  V30 18700 C 1830.8 1.2997 -1.95307 0
M  V30 18701 C 1831.81 1.51463 -0.856444 0
M  V30 18702 O 1832.99 1.64658 -1.15973 0
M  V30 18703 C 1830.05 2.63009 -2.25892 0
M  V30 18704 C 1829.12 2.49847 -3.49106 0
M  V30 18705 C 1828.35 3.76541 -3.78223 0
M  V30 18706 O 1828.57 4.7941 -3.09066 0
M  V30 18707 O 1827.51 3.73852 -4.71718 0
M  V30 18708 H 1831.33 0.996093 -2.869 0
M  V30 18709 H 1828.92 0.427457 -1.43154 0
M  V30 18710 H 1830.8 3.41586 -2.46774 0
M  V30 18711 H 1829.47 2.93057 -1.37474 0
M  V30 18712 H 1828.38 1.69482 -3.33507 0
M  V30 18713 H 1829.71 2.24739 -4.37896 0
M  V30 18714 N 1831.37 1.49742 0.491438 0
M  V30 18715 C 1832.64 1.50217 1.25277 0
M  V30 18716 C 1833.02 0.235271 2.09785 0
M  V30 18717 O 1832.37 -0.782057 2.147 0
M  V30 18718 C 1832.58 2.78652 2.10129 0
M  V30 18719 C 1833.93 3.28519 2.68999 0
M  V30 18720 O 1834.95 2.79834 2.20389 0
M  V30 18721 O 1833.81 4.13333 3.57516 0
M  V30 18722 H 1830.91 0.601649 0.567405 0
M  V30 18723 H 1833.45 1.62014 0.504924 0
M  V30 18724 H 1832.22 3.62345 1.47723 0
M  V30 18725 H 1831.85 2.69761 2.92087 0
M  V30 18726 N 1832.84 -0.743177 1.38977 0
M  V30 18727 C 1834.07 -1.53243 1.39011 0
M  V30 18728 C 1834.49 -1.88792 -0.0174858 0
M  V30 18729 O 1833.84 -1.53523 -0.986766 0
M  V30 18730 C 1833.9 -2.8251 2.25544 0
M  V30 18731 O 1833.62 -2.48474 3.60821 0
M  V30 18732 C 1835.12 -3.76588 2.33872 0
M  V30 18733 H 1832.34 -0.473832 0.475104 0
M  V30 18734 H 1834.88 -0.918958 1.82689 0
M  V30 18735 H 1833.04 -3.4021 1.853 0
M  V30 18736 H 1833.45 -3.31454 4.06495 0
M  V30 18737 H 1834.92 -4.64211 2.98684 0
M  V30 18738 H 1835.4 -4.17761 1.35544 0
M  V30 18739 H 1836.01 -3.24811 2.74551 0
M  V30 18740 N 1834.32 -1.24018 -0.972487 0
M  V30 18741 C 1835.23 -1.04527 -2.10027 0
M  V30 18742 C 1836.25 0.0125372 -1.73995 0
M  V30 18743 O 1837.42 -0.184615 -2.00552 0
M  V30 18744 C 1834.49 -0.647264 -3.40604 0
M  V30 18745 C 1833.55 -1.78102 -3.90613 0
M  V30 18746 C 1832.78 -1.4019 -5.14959 0
M  V30 18747 O 1833.01 -0.289608 -5.69664 0
M  V30 18748 O 1831.94 -2.22583 -5.59232 0
M  V30 18749 H 1835.77 -1.99064 -2.29363 0
M  V30 18750 H 1833.35 -1.02794 -1.08414 0
M  V30 18751 H 1835.23 -0.436606 -4.19132 0
M  V30 18752 H 1833.91 0.269025 -3.2258 0
M  V30 18753 H 1832.82 -2.04638 -3.13168 0
M  V30 18754 H 1834.15 -2.67591 -4.13105 0
M  V30 18755 N 1835.8 1.17245 -1.05316 0
M  V30 18756 C 1837.05 1.88061 -0.774904 0
M  V30 18757 C 1837.4 1.79577 0.690631 0
M  V30 18758 O 1836.69 1.19378 1.49865 0
M  V30 18759 C 1836.89 3.36958 -1.19138 0
M  V30 18760 C 1836.72 3.59935 -2.69586 0
M  V30 18761 C 1835.49 3.76587 -3.36913 0
M  V30 18762 C 1837.69 3.59476 -3.67806 0
M  V30 18763 N 1835.67 3.8742 -4.76213 0
M  V30 18764 C 1837.04 3.76175 -4.92841 0
M  V30 18765 C 1839.09 3.42633 -3.61257 0
M  V30 18766 C 1837.8 3.77773 -6.12111 0
M  V30 18767 C 1839.82 3.45521 -4.79968 0
M  V30 18768 C 1839.18 3.62728 -6.03827 0
M  V30 18769 H 1835.28 0.706228 -0.335807 0
M  V30 18770 H 1837.87 1.40743 -1.34535 0
M  V30 18771 H 1836.04 3.82941 -0.648876 0
M  V30 18772 H 1837.77 3.95395 -0.862828 0
M  V30 18773 H 1834.53 3.76494 -2.87314 0
M  V30 18774 H 1834.95 3.9663 -5.48647 0
M  V30 18775 H 1839.59 3.28265 -2.66462 0
M  V30 18776 H 1837.31 3.90926 -7.0725 0
M  V30 18777 H 1840.9 3.33745 -4.76556 0
M  V30 18778 H 1839.78 3.64869 -6.94147 0
M  V30 18779 N 1837.28 0.834353 1.33702 0
M  V30 18780 C 1838.21 0.279313 2.31823 0
M  V30 18781 C 1839.19 -0.610495 1.58767 0
M  V30 18782 O 1840.37 -0.534989 1.86686 0
M  V30 18783 C 1837.5 -0.550201 3.42914 0
M  V30 18784 C 1836.46 0.243432 4.27307 0
M  V30 18785 C 1835.78 -0.709548 5.29971 0
M  V30 18786 C 1837.08 1.45799 5.01537 0
M  V30 18787 H 1838.78 1.09915 2.78494 0
M  V30 18788 H 1836.32 0.529987 1.33892 0
M  V30 18789 H 1838.28 -0.948764 4.10581 0
M  V30 18790 H 1837 -1.4032 2.9492 0
M  V30 18791 H 1835.66 0.6235 3.61259 0
M  V30 18792 H 1835.31 -1.55882 4.78236 0
M  V30 18793 H 1835.01 -0.182671 5.87316 0
M  V30 18794 H 1836.53 -1.10572 6.00505 0
M  V30 18795 H 1837.95 1.13283 5.61996 0
M  V30 18796 H 1836.34 1.92133 5.68511 0
M  V30 18797 H 1837.41 2.23016 4.30571 0
M  V30 18798 N 1838.76 -1.46125 0.590367 0
M  V30 18799 C 1839.7 -2.30384 -0.138481 0
M  V30 18800 C 1840.67 -1.41078 -0.876715 0
M  V30 18801 O 1841.86 -1.70022 -0.86587 0
M  V30 18802 C 1839 -3.25684 -1.14122 0
M  V30 18803 C 1838.11 -4.30091 -0.405639 0
M  V30 18804 C 1837.25 -5.12513 -1.39657 0
M  V30 18805 C 1836.29 -6.08662 -0.647833 0
M  V30 18806 N 1835.42 -6.83924 -1.5872 0
M  V30 18807 H 1840.26 -2.9218 0.586086 0
M  V30 18808 H 1837.8 -1.43991 0.300835 0
M  V30 18809 H 1839.76 -3.79388 -1.73553 0
M  V30 18810 H 1838.39 -2.6568 -1.8334 0
M  V30 18811 H 1837.44 -3.79184 0.303858 0
M  V30 18812 H 1838.75 -4.98477 0.179348 0
M  V30 18813 H 1837.91 -5.70531 -2.06346 0
M  V30 18814 H 1836.64 -4.44105 -2.01549 0
M  V30 18815 H 1835.65 -5.4979 0.0327878 0
M  V30 18816 H 1836.87 -6.79091 -0.0342018 0
M  V30 18817 H 1834.82 -6.1822 -2.19408 0
M  V30 18818 H 1834.74 -7.48599 -1.05522 0
M  V30 18819 H 1836.01 -7.46496 -2.2442 0
M  V30 18820 N 1840.23 -0.328564 -1.54137 0
M  V30 18821 C 1841.48 0.271967 -2.00262 0
M  V30 18822 C 1841.8 1.5226 -1.21827 0
M  V30 18823 O 1841.07 1.93245 -0.321415 0
M  V30 18824 H 1839.65 0.103484 -0.739797 0
M  V30 18825 H 1842.32 -0.446264 -1.89722 0
M  V30 18826 H 1841.41 0.52488 -3.07655 0
M  V30 18827 N 1841.71 1.57497 -0.0568439 0
M  V30 18828 C 1842.64 2.08817 0.94488 0
M  V30 18829 C 1843.66 1.01717 1.27112 0
M  V30 18830 O 1844.85 1.2927 1.23092 0
M  V30 18831 C 1841.95 2.52104 2.26488 0
M  V30 18832 C 1841.12 3.82606 2.11971 0
M  V30 18833 C 1840.18 4.12145 3.27144 0
M  V30 18834 O 1839.2 4.81978 3.02797 0
M  V30 18835 N 1840.41 3.64505 4.51792 0
M  V30 18836 H 1843.17 2.95384 0.506814 0
M  V30 18837 H 1840.73 1.61383 0.129259 0
M  V30 18838 H 1842.72 2.68938 3.02415 0
M  V30 18839 H 1841.29 1.70756 2.61842 0
M  V30 18840 H 1840.51 3.75299 1.20601 0
M  V30 18841 H 1841.8 4.68055 1.99505 0
M  V30 18842 H 1841.2 3.08061 4.74462 0
M  V30 18843 H 1839.76 3.86566 5.24795 0
M  V30 18844 N 1843.19 -0.216591 1.56105 0
M  V30 18845 C 1844.12 -1.29202 1.89313 0
M  V30 18846 C 1845.14 -1.42798 0.781832 0
M  V30 18847 O 1846.32 -1.43607 1.06016 0
M  V30 18848 C 1843.42 -2.66701 2.09102 0
M  V30 18849 C 1842.6 -2.74989 3.40147 0
M  V30 18850 C 1841.66 -3.93536 3.49308 0
M  V30 18851 O 1840.68 -3.81642 4.22301 0
M  V30 18852 N 1841.88 -5.08059 2.80814 0
M  V30 18853 H 1844.65 -1.01038 2.82155 0
M  V30 18854 H 1842.21 -0.406611 1.56711 0
M  V30 18855 H 1844.2 -3.44396 2.12541 0
M  V30 18856 H 1842.77 -2.87443 1.22862 0
M  V30 18857 H 1841.99 -1.83733 3.48763 0
M  V30 18858 H 1843.28 -2.775 4.26464 0
M  V30 18859 H 1842.68 -5.20618 2.21299 0
M  V30 18860 H 1841.24 -5.83778 2.89908 0
M  V30 18861 N 1844.67 -1.5 -0.48349 0
M  V30 18862 C 1845.92 -1.59612 -1.23317 0
M  V30 18863 C 1846.23 -0.29614 -1.93345 0
M  V30 18864 O 1847.44 -0.271008 -2.70144 0
M  V30 18865 C 1845.89 -2.81692 -2.24003 0
M  V30 18866 C 1845.5 -4.18518 -1.59834 0
M  V30 18867 C 1847.24 -3.00643 -2.9969 0
M  V30 18868 C 1845.15 -5.31799 -2.58735 0
M  V30 18869 H 1844.08 -0.594352 -0.463963 0
M  V30 18870 H 1846.73 -1.76414 -0.505016 0
M  V30 18871 H 1845.11 -2.58422 -3.00057 0
M  V30 18872 H 1846.29 -4.51994 -0.896542 0
M  V30 18873 H 1844.6 -4.0507 -0.964743 0
M  V30 18874 H 1847.2 -3.82445 -3.73684 0
M  V30 18875 H 1847.54 -2.11883 -3.58345 0
M  V30 18876 H 1848.08 -3.24035 -2.30751 0
M  V30 18877 H 1844.82 -6.22674 -2.04836 0
M  V30 18878 H 1844.34 -5.02756 -3.27103 0
M  V30 18879 H 1846.01 -5.61861 -3.20814 0
M  V30 18880 N 1846.15 0.735796 -1.39369 0
M  V30 18881 C 1847.39 1.49239 -1.3628 0
M  V30 18882 C 1847.72 1.94957 0.0408659 0
M  V30 18883 O 1846.99 1.68929 0.991959 0
M  V30 18884 H 1845.57 0.553626 -0.501506 0
M  V30 18885 H 1848.23 0.873549 -1.74227 0
M  V30 18886 H 1847.32 2.37488 -2.02499 0
M  V30 18887 N 1847.63 1.24532 0.965897 0
M  V30 18888 C 1848.56 1.06393 2.07853 0
M  V30 18889 C 1849.54 -0.0236467 1.70084 0
M  V30 18890 O 1850.72 0.143767 1.93667 0
M  V30 18891 C 1847.85 0.669877 3.40778 0
M  V30 18892 C 1846.81 1.70643 3.92511 0
M  V30 18893 C 1846.13 1.16738 5.21801 0
M  V30 18894 C 1847.43 3.10278 4.20149 0
M  V30 18895 H 1849.13 1.99459 2.23285 0
M  V30 18896 H 1846.67 0.960397 1.07296 0
M  V30 18897 H 1848.62 0.52997 4.18054 0
M  V30 18898 H 1847.35 -0.296477 3.25252 0
M  V30 18899 H 1846.01 1.83458 3.17393 0
M  V30 18900 H 1845.66 0.191586 5.02635 0
M  V30 18901 H 1845.36 1.86009 5.57382 0
M  V30 18902 H 1846.88 1.03963 6.01684 0
M  V30 18903 H 1848.29 3.00681 4.88123 0
M  V30 18904 H 1846.69 3.76918 4.66962 0
M  V30 18905 H 1847.76 3.58182 3.26854 0
M  V30 18906 N 1849.1 -1.16685 1.05936 0
M  V30 18907 C 1850.35 -1.86758 0.772386 0
M  V30 18908 C 1850.67 -1.81885 -0.703051 0
M  V30 18909 O 1849.94 -1.24992 -1.50844 0
M  V30 18910 H 1848.52 -0.69143 0.282725 0
M  V30 18911 H 1851.18 -1.41518 1.3401 0
M  V30 18912 H 1850.28 -2.92296 1.09405 0
M  V30 18913 N 1850.58 -0.841432 -1.33258 0
M  V30 18914 C 1851.54 -0.281685 -2.27462 0
M  V30 18915 C 1852.54 0.551062 -1.51063 0
M  V30 18916 O 1853.73 0.364482 -1.70344 0
M  V30 18917 C 1850.87 0.602896 -3.35526 0
M  V30 18918 H 1852.06 -1.11298 -2.78483 0
M  V30 18919 H 1849.61 -0.614717 -1.43704 0
M  V30 18920 H 1850.35 1.45652 -2.89751 0
M  V30 18921 H 1850.13 0.00701634 -3.92099 0
M  V30 18922 H 1851.62 0.987735 -4.05751 0
M  V30 18923 N 1852.06 1.4581 -0.598108 0
M  V30 18924 C 1853.31 2.02302 -0.0896112 0
M  V30 18925 C 1853.63 1.46772 1.27625 0
M  V30 18926 O 1852.89 0.628712 1.85326 0
M  V30 18927 C 1853.19 3.57399 0.00976809 0
M  V30 18928 C 1852.85 4.32038 -1.29051 0
M  V30 18929 C 1851.52 4.52147 -1.64671 0
M  V30 18930 C 1853.87 4.74776 -2.15028 0
M  V30 18931 C 1851.2 5.12249 -2.86038 0
M  V30 18932 C 1853.55 5.3622 -3.35635 0
M  V30 18933 C 1852.21 5.54554 -3.71519 0
M  V30 18934 H 1851.48 0.740274 -0.0327911 0
M  V30 18935 H 1854.13 1.74992 -0.77783 0
M  V30 18936 H 1852.43 3.83933 0.781201 0
M  V30 18937 H 1854.13 3.98803 0.419212 0
M  V30 18938 H 1850.72 4.16693 -1.00324 0
M  V30 18939 H 1854.91 4.58982 -1.8881 0
M  V30 18940 H 1850.16 5.24633 -3.13958 0
M  V30 18941 H 1854.34 5.68292 -4.02514 0
M  V30 18942 H 1851.96 6.00894 -4.65651 0
M  V30 18943 N 1853.54 0.336733 1.53961 0
M  V30 18944 C 1854.76 -0.26614 2.05685 0
M  V30 18945 C 1855.19 -1.43973 1.21051 0
M  V30 18946 O 1854.55 -1.79928 0.222652 0
M  V30 18947 C 1854.59 -0.66571 3.54402 0
M  V30 18948 O 1853.7 -1.76656 3.72648 0
M  V30 18949 H 1853.04 -0.0455655 0.662435 0
M  V30 18950 H 1855.57 0.488969 1.98671 0
M  V30 18951 H 1855.58 -0.944748 3.96911 0
M  V30 18952 H 1854.25 0.192589 4.15454 0
M  V30 18953 H 1852.83 -1.48531 3.42042 0
M  V30 18954 N 1855.02 -1.57465 0.0651956 0
M  V30 18955 C 1856.24 -1.97975 -0.618099 0
M  V30 18956 C 1856.67 -0.943068 -1.62751 0
M  V30 18957 O 1856.02 0.0921045 -1.81066 0
M  V30 18958 C 1856.07 -3.37533 -1.26902 0
M  V30 18959 O 1855.18 -3.36451 -2.38483 0
M  V30 18960 H 1854.52 -0.644553 -0.159524 0
M  V30 18961 H 1857.05 -2.04136 0.137754 0
M  V30 18962 H 1857.06 -3.74571 -1.61742 0
M  V30 18963 H 1855.73 -4.12518 -0.529334 0
M  V30 18964 H 1854.31 -3.11175 -2.05486 0
M  V30 18965 N 1856.49 0.20831 -1.56217 0
M  V30 18966 C 1857.73 0.937642 -1.81625 0
M  V30 18967 C 1858.1 1.80994 -0.640716 0
M  V30 18968 O 1859.3 2.57404 -0.774387 0
M  V30 18969 C 1857.57 1.74339 -3.11995 0
M  V30 18970 S 1859.13 2.52655 -3.58763 0
M  V30 18971 H 1855.95 0.314732 -0.637546 0
M  V30 18972 H 1858.55 0.202106 -1.94453 0
M  V30 18973 H 1857.25 1.09294 -3.95579 0
M  V30 18974 H 1856.78 2.52098 -3.0201 0
M  V30 18975 H 1858.8 3.76547 -3.23151 0
M  V30 18976 N 1857.97 1.50255 0.475528 0
M  V30 18977 C 1859.2 1.64532 1.24951 0
M  V30 18978 C 1859.61 0.326223 1.86366 0
M  V30 18979 O 1858.95 -0.701313 1.69786 0
M  V30 18980 C 1859.01 2.67528 2.40143 0
M  V30 18981 C 1858.68 4.11204 1.99399 0
M  V30 18982 C 1859.68 4.97213 1.51906 0
M  V30 18983 C 1857.36 4.57094 2.08256 0
M  V30 18984 C 1859.35 6.27158 1.13805 0
M  V30 18985 C 1857.04 5.87046 1.69766 0
M  V30 18986 C 1858.04 6.71903 1.22618 0
M  V30 18987 O 1857.73 7.9943 0.846604 0
M  V30 18988 H 1857.46 0.556201 0.384209 0
M  V30 18989 H 1860.01 1.972 0.574555 0
M  V30 18990 H 1858.24 2.30094 3.10795 0
M  V30 18991 H 1859.93 2.71072 3.02117 0
M  V30 18992 H 1860.7 4.62977 1.44489 0
M  V30 18993 H 1856.58 3.91194 2.43903 0
M  V30 18994 H 1860.12 6.93345 0.769334 0
M  V30 18995 H 1856.02 6.20804 1.76841 0
M  V30 18996 H 1856.79 8.12662 0.975845 0
M  V30 18997 N 1859.45 -0.728395 1.39758 0
M  V30 18998 C 1860.38 -1.85288 1.34911 0
M  V30 18999 C 1861.39 -1.60763 0.25671 0
M  V30 19000 O 1862.58 -1.70875 0.516143 0
M  V30 19001 C 1859.68 -3.21445 1.07361 0
M  V30 19002 C 1858.86 -3.73272 2.28006 0
M  V30 19003 C 1857.92 -4.88008 1.96812 0
M  V30 19004 O 1856.94 -5.01325 2.69559 0
M  V30 19005 N 1858.14 -5.72867 0.938278 0
M  V30 19006 H 1860.91 -1.89949 2.31818 0
M  V30 19007 H 1858.47 -0.909409 1.33945 0
M  V30 19008 H 1860.46 -3.9578 0.845002 0
M  V30 19009 H 1859.03 -3.12012 0.191644 0
M  V30 19010 H 1858.25 -2.90214 2.66777 0
M  V30 19011 H 1859.54 -4.04633 3.08463 0
M  V30 19012 H 1858.94 -5.64704 0.335517 0
M  V30 19013 H 1857.49 -6.47241 0.769572 0
M  V30 19014 N 1860.93 -1.25042 -0.959279 0
M  V30 19015 C 1861.89 -1.05107 -2.03679 0
M  V30 19016 C 1862.89 -0.0054691 -1.60799 0
M  V30 19017 O 1864.08 -0.247225 -1.72437 0
M  V30 19018 C 1861.21 -0.594881 -3.35669 0
M  V30 19019 H 1862.41 -2.00753 -2.22796 0
M  V30 19020 H 1859.96 -1.07384 -1.13571 0
M  V30 19021 H 1860.69 0.364387 -3.22246 0
M  V30 19022 H 1860.48 -1.34966 -3.68139 0
M  V30 19023 H 1861.97 -0.476698 -4.1487 0
M  V30 19024 N 1862.41 1.16121 -1.06553 0
M  V30 19025 C 1863.34 2.20181 -0.636617 0
M  V30 19026 C 1864.35 1.59884 0.306731 0
M  V30 19027 O 1865.54 1.78235 0.0973101 0
M  V30 19028 C 1862.64 3.38789 0.0865541 0
M  V30 19029 C 1861.81 4.28641 -0.870941 0
M  V30 19030 C 1860.87 5.25869 -0.186538 0
M  V30 19031 O 1859.9 5.63189 -0.825028 0
M  V30 19032 N 1861.1 5.70536 1.0709 0
M  V30 19033 H 1863.87 2.576 -1.53175 0
M  V30 19034 H 1861.43 1.31157 -0.949185 0
M  V30 19035 H 1863.42 4.00878 0.554881 0
M  V30 19036 H 1861.99 2.99854 0.883524 0
M  V30 19037 H 1861.21 3.63776 -1.51858 0
M  V30 19038 H 1862.5 4.85552 -1.5204 0
M  V30 19039 H 1861.89 5.42314 1.60973 0
M  V30 19040 H 1860.45 6.34704 1.48305 0
M  V30 19041 N 1863.88 0.848487 1.3281 0
M  V30 19042 C 1865.16 0.370395 1.92061 0
M  V30 19043 C 1865.54 -1.14535 1.77327 0
M  V30 19044 O 1864.89 -1.96419 1.16756 0
M  V30 19045 C 1865.1 0.827934 3.39037 0
M  V30 19046 C 1866.45 0.841527 4.16177 0
M  V30 19047 O 1867.47 0.772167 3.4773 0
M  V30 19048 O 1866.33 0.938119 5.38388 0
M  V30 19049 H 1863.42 0.106809 0.820074 0
M  V30 19050 H 1865.97 0.934979 1.4162 0
M  V30 19051 H 1864.74 1.87089 3.43676 0
M  V30 19052 H 1864.37 0.240456 3.96872 0
M  V30 19053 N 1865.36 -1.4549 0.605832 0
M  V30 19054 C 1866.61 -2.02551 0.100487 0
M  V30 19055 C 1866.94 -1.47346 -1.26502 0
M  V30 19056 O 1866.22 -0.647471 -1.83407 0
M  V30 19057 C 1866.5 -3.60051 0.0596664 0
M  V30 19058 C 1866.35 -4.25592 1.45572 0
M  V30 19059 C 1867.67 -4.35581 -0.629073 0
M  V30 19060 H 1864.79 -0.73602 0.0379904 0
M  V30 19061 H 1867.43 -1.73365 0.777468 0
M  V30 19062 H 1865.58 -3.85047 -0.516838 0
M  V30 19063 H 1867.25 -4.11787 2.07916 0
M  V30 19064 H 1865.5 -3.84061 2.01692 0
M  V30 19065 H 1866.17 -5.34487 1.37941 0
M  V30 19066 H 1868.64 -4.15868 -0.139076 0
M  V30 19067 H 1867.52 -5.4531 -0.626735 0
M  V30 19068 H 1867.78 -4.08323 -1.69483 0
M  V30 19069 N 1866.84 -0.344893 -1.5378 0
M  V30 19070 C 1868.09 0.250711 -2.00539 0
M  V30 19071 C 1868.41 1.5096 -1.23435 0
M  V30 19072 O 1867.68 1.92893 -0.341893 0
M  V30 19073 H 1866.26 0.0956318 -0.740853 0
M  V30 19074 H 1868.92 -0.466361 -1.89238 0
M  V30 19075 H 1868.02 0.49222 -3.08194 0
M  V30 19076 N 1868.32 1.57428 -0.0735454 0
M  V30 19077 C 1869.55 1.97883 0.604148 0
M  V30 19078 C 1869.96 0.951968 1.63043 0
M  V30 19079 O 1869.32 -0.0611641 1.82397 0
M  V30 19080 C 1869.37 3.38414 1.27116 0
M  V30 19081 O 1869.09 4.37166 0.285951 0
M  V30 19082 C 1870.59 3.93753 2.03651 0
M  V30 19083 H 1867.81 0.650747 0.163613 0
M  V30 19084 H 1870.36 2.03975 -0.146466 0
M  V30 19085 H 1868.51 3.33403 1.97285 0
M  V30 19086 H 1868.92 5.18896 0.764698 0
M  V30 19087 H 1870.4 4.94298 2.45711 0
M  V30 19088 H 1870.88 3.30391 2.89376 0
M  V30 19089 H 1871.48 4.0217 1.38345 0
M  V30 19090 N 1869.8 -0.200022 1.56326 0
M  V30 19091 C 1871.04 -0.919355 1.79979 0
M  V30 19092 C 1871.37 -1.83997 0.645767 0
M  V30 19093 O 1870.64 -1.92994 -0.336186 0
M  V30 19094 H 1869.22 -0.342469 0.66387 0
M  V30 19095 H 1871.88 -0.206713 1.93801 0
M  V30 19096 H 1870.97 -1.51341 2.72951 0
M  V30 19097 N 1871.27 -1.50505 -0.467553 0
M  V30 19098 C 1872.5 -1.65433 -1.24256 0
M  V30 19099 C 1872.92 -0.339107 -1.8573 0
M  V30 19100 O 1872.27 0.679316 -1.69386 0
M  V30 19101 C 1872.33 -2.74805 -2.34871 0
M  V30 19102 O 1872.05 -4.01229 -1.75917 0
M  V30 19103 C 1873.55 -3.00738 -3.25687 0
M  V30 19104 H 1870.77 -0.555987 -0.375659 0
M  V30 19105 H 1873.31 -1.96749 -0.557684 0
M  V30 19106 H 1871.47 -2.46174 -2.99128 0
M  V30 19107 H 1871.88 -4.61742 -2.48787 0
M  V30 19108 H 1873.35 -3.80921 -3.99504 0
M  V30 19109 H 1873.83 -2.11947 -3.84675 0
M  V30 19110 H 1874.44 -3.30914 -2.67163 0
M  V30 19111 N 1872.75 0.720973 -1.40142 0
M  V30 19112 C 1873.68 1.84799 -1.42729 0
M  V30 19113 C 1874.66 1.67629 -0.288866 0
M  V30 19114 O 1875.85 1.8774 -0.496713 0
M  V30 19115 C 1872.98 3.22699 -1.28385 0
M  V30 19116 C 1871.93 3.54532 -2.39773 0
M  V30 19117 C 1871.26 4.91518 -2.10509 0
M  V30 19118 C 1872.56 3.56077 -3.82108 0
M  V30 19119 H 1874.25 1.82892 -2.37046 0
M  V30 19120 H 1871.8 0.8785 -1.14098 0
M  V30 19121 H 1873.75 4.0123 -1.28812 0
M  V30 19122 H 1872.48 3.25169 -0.305408 0
M  V30 19123 H 1871.13 2.78338 -2.38586 0
M  V30 19124 H 1870.78 4.90584 -1.11069 0
M  V30 19125 H 1870.48 5.13783 -2.85132 0
M  V30 19126 H 1872.01 5.72389 -2.1261 0
M  V30 19127 H 1873.42 4.24657 -3.85148 0
M  V30 19128 H 1871.82 3.89866 -4.56207 0
M  V30 19129 H 1872.89 2.55576 -4.12079 0
M  V30 19130 N 1874.23 1.25549 0.952634 0
M  V30 19131 C 1875.16 1.0043 2.04912 0
M  V30 19132 C 1876.14 -0.0671275 1.62461 0
M  V30 19133 O 1877.33 0.0729397 1.88359 0
M  V30 19134 C 1874.45 0.51855 3.34707 0
M  V30 19135 C 1873.5 1.58081 3.96122 0
M  V30 19136 S 1874.33 3.16656 4.31844 0
M  V30 19137 C 1875.49 2.69821 5.64754 0
M  V30 19138 H 1875.72 1.93272 2.25905 0
M  V30 19139 H 1873.25 1.09102 1.09253 0
M  V30 19140 H 1875.21 0.244941 4.09769 0
M  V30 19141 H 1873.87 -0.389408 3.11677 0
M  V30 19142 H 1873.07 1.19168 4.89709 0
M  V30 19143 H 1872.67 1.8052 3.27549 0
M  V30 19144 H 1874.96 2.13572 6.42957 0
M  V30 19145 H 1875.9 3.62056 6.0854 0
M  V30 19146 H 1876.31 2.09754 5.24084 0
M  V30 19147 N 1875.71 -1.15554 1.07168 0
M  V30 19148 C 1876.67 -2.18431 0.694305 0
M  V30 19149 C 1877.67 -1.5861 -0.264497 0
M  V30 19150 O 1878.86 -1.7414 -0.0457035 0
M  V30 19151 C 1875.99 -3.40892 0.0230473 0
M  V30 19152 H 1877.19 -2.53331 1.60511 0
M  V30 19153 H 1874.74 -1.29984 0.867982 0
M  V30 19154 H 1875.47 -3.11559 -0.900083 0
M  V30 19155 H 1875.26 -3.8557 0.712622 0
M  V30 19156 H 1876.75 -4.16986 -0.226392 0
M  V30 19157 N 1877.19 -0.855519 -1.32358 0
M  V30 19158 C 1878.43 -0.460002 -1.97514 0
M  V30 19159 C 1878.77 0.982052 -1.67539 0
M  V30 19160 O 1878.04 1.68925 -0.964091 0
M  V30 19161 C 1878.32 -0.70064 -3.53218 0
M  V30 19162 C 1878.18 -2.19118 -3.9282 0
M  V30 19163 C 1879.5 -0.157597 -4.39818 0
M  V30 19164 H 1876.62 -0.168606 -0.717455 0
M  V30 19165 H 1879.26 -1.0741 -1.56726 0
M  V30 19166 H 1877.41 -0.177937 -3.88092 0
M  V30 19167 H 1879.08 -2.78002 -3.6812 0
M  V30 19168 H 1877.32 -2.66934 -3.41948 0
M  V30 19169 H 1877.99 -2.31024 -5.0133 0
M  V30 19170 H 1880.47 -0.604597 -4.11684 0
M  V30 19171 H 1879.35 -0.355532 -5.47747 0
M  V30 19172 H 1879.61 0.939679 -4.31998 0
M  V30 19173 N 1878.67 1.45167 -0.61354 0
M  V30 19174 C 1879.61 2.30575 0.101811 0
M  V30 19175 C 1880.58 1.42455 0.85416 0
M  V30 19176 O 1881.77 1.71378 0.838711 0
M  V30 19177 C 1878.91 3.27459 1.08926 0
M  V30 19178 C 1878.02 4.30682 0.337164 0
M  V30 19179 C 1877.16 5.1467 1.31486 0
M  V30 19180 C 1876.19 6.09616 0.550918 0
M  V30 19181 N 1875.33 6.86363 1.4782 0
M  V30 19182 H 1880.17 2.9121 -0.632495 0
M  V30 19183 H 1877.71 1.43494 -0.323705 0
M  V30 19184 H 1879.67 3.82101 1.67495 0
M  V30 19185 H 1878.3 2.68564 1.79091 0
M  V30 19186 H 1877.35 3.78653 -0.364144 0
M  V30 19187 H 1878.66 4.98129 -0.258629 0
M  V30 19188 H 1877.81 5.73742 1.97243 0
M  V30 19189 H 1876.55 4.47255 1.94458 0
M  V30 19190 H 1875.56 5.49668 -0.120251 0
M  V30 19191 H 1876.78 6.7906 -0.07384 0
M  V30 19192 H 1874.73 6.21632 2.09545 0
M  V30 19193 H 1874.65 7.50183 0.935989 0
M  V30 19194 H 1875.91 7.49972 2.12516 0
M  V30 19195 N 1880.14 0.353044 1.53595 0
M  V30 19196 C 1881.08 -0.533833 2.22897 0
M  V30 19197 C 1882.09 -1.05633 1.23877 0
M  V30 19198 O 1883.28 -0.964851 1.50176 0
M  V30 19199 C 1880.38 -1.74842 2.90316 0
M  V30 19200 C 1879.55 -1.35959 4.15733 0
M  V30 19201 C 1878.61 -2.43488 4.66476 0
M  V30 19202 O 1877.64 -2.06399 5.3046 0
M  V30 19203 N 1878.84 -3.74887 4.43216 0
M  V30 19204 H 1881.6 0.0597255 2.9964 0
M  V30 19205 H 1879.16 0.177618 1.60923 0
M  V30 19206 H 1881.16 -2.46228 3.21176 0
M  V30 19207 H 1879.73 -2.24913 2.17101 0
M  V30 19208 H 1878.95 -0.476094 3.91314 0
M  V30 19209 H 1880.23 -1.07592 4.97294 0
M  V30 19210 H 1879.63 -4.07801 3.92064 0
M  V30 19211 H 1878.19 -4.42415 4.78657 0
M  V30 19212 N 1881.62 -1.57387 0.0818932 0
M  V30 19213 C 1882.87 -1.94156 -0.585765 0
M  V30 19214 C 1883.2 -0.962889 -1.68648 0
M  V30 19215 O 1882.48 0.00625819 -1.94499 0
M  V30 19216 C 1882.76 -3.41132 -1.15329 0
M  V30 19217 C 1882.61 -4.49762 -0.0585349 0
M  V30 19218 C 1883.93 -3.89137 -2.05573 0
M  V30 19219 H 1881.05 -0.706012 -0.211463 0
M  V30 19220 H 1883.69 -1.89408 0.149918 0
M  V30 19221 H 1881.84 -3.4531 -1.78026 0
M  V30 19222 H 1883.51 -4.57702 0.575061 0
M  V30 19223 H 1881.76 -4.29496 0.609574 0
M  V30 19224 H 1882.43 -5.49765 -0.496206 0
M  V30 19225 H 1884.9 -3.87029 -1.52798 0
M  V30 19226 H 1883.78 -4.92569 -2.42213 0
M  V30 19227 H 1884.04 -3.27663 -2.96799 0
M  V30 19228 N 1883.1 0.191729 -1.56429 0
M  V30 19229 C 1884.33 0.927708 -1.84936 0
M  V30 19230 C 1884.74 1.76708 -0.664809 0
M  V30 19231 O 1884.1 1.78783 0.366436 0
M  V30 19232 C 1884.15 1.82113 -3.12277 0
M  V30 19233 O 1883.87 1.01564 -4.26165 0
M  V30 19234 C 1885.37 2.6685 -3.53986 0
M  V30 19235 H 1882.59 0.270514 -0.614055 0
M  V30 19236 H 1885.14 0.197968 -2.0354 0
M  V30 19237 H 1883.29 2.50445 -2.9556 0
M  V30 19238 H 1883.71 1.62478 -4.987 0
M  V30 19239 H 1885.18 3.25189 -4.46045 0
M  V30 19240 H 1885.66 3.40725 -2.77134 0
M  V30 19241 H 1886.26 2.03884 -3.73245 0
M  V30 19242 N 1884.58 1.50751 0.459565 0
M  V30 19243 C 1885.81 1.65848 1.23198 0
M  V30 19244 C 1886.22 0.345972 1.8601 0
M  V30 19245 O 1885.56 -0.683265 1.7052 0
M  V30 19246 C 1885.62 2.7006 2.37292 0
M  V30 19247 C 1885.28 4.13296 1.95027 0
M  V30 19248 C 1886.28 4.98796 1.46623 0
M  V30 19249 C 1883.97 4.59277 2.03396 0
M  V30 19250 C 1885.96 6.2833 1.07147 0
M  V30 19251 C 1883.65 5.88813 1.6353 0
M  V30 19252 C 1884.65 6.73166 1.15485 0
M  V30 19253 O 1884.33 8.00283 0.761767 0
M  V30 19254 H 1884.07 0.560244 0.378289 0
M  V30 19255 H 1886.62 1.97799 0.553607 0
M  V30 19256 H 1884.85 2.33377 3.08338 0
M  V30 19257 H 1886.54 2.74261 2.99225 0
M  V30 19258 H 1887.3 4.64484 1.3957 0
M  V30 19259 H 1883.18 3.93759 2.3974 0
M  V30 19260 H 1886.73 6.94122 0.695753 0
M  V30 19261 H 1882.62 6.22645 1.70247 0
M  V30 19262 H 1883.39 8.13651 0.889596 0
M  V30 19263 N 1886.06 -0.713531 1.40522 0
M  V30 19264 C 1887.3 -1.47561 1.39117 0
M  V30 19265 C 1887.63 -1.94199 -0.00592038 0
M  V30 19266 O 1886.91 -1.68301 -0.974941 0
M  V30 19267 C 1887.19 -2.70023 2.38242 0
M  V30 19268 C 1887.05 -2.29266 3.86984 0
M  V30 19269 C 1888.36 -3.72185 2.34875 0
M  V30 19270 H 1885.48 -0.535243 0.50664 0
M  V30 19271 H 1888.13 -0.814172 1.71672 0
M  V30 19272 H 1886.28 -3.26458 2.10611 0
M  V30 19273 H 1887.95 -1.78297 4.2545 0
M  V30 19274 H 1886.19 -1.61246 4.02719 0
M  V30 19275 H 1886.86 -3.17057 4.51862 0
M  V30 19276 H 1889.34 -3.25384 2.59354 0
M  V30 19277 H 1888.21 -4.55507 3.06276 0
M  V30 19278 H 1888.47 -4.20627 1.36108 0
M  V30 19279 N 1887.53 -1.26053 -0.945962 0
M  V30 19280 C 1888.95 -1.03062 -1.21862 0
M  V30 19281 C 1889.15 0.247205 -1.99978 0
M  V30 19282 O 1888.21 0.957622 -2.33636 0
M  V30 19283 C 1889.52 -2.25912 -1.98455 0
M  V30 19284 C 1891.07 -2.30763 -2.11465 0
M  V30 19285 C 1891.54 -3.53292 -2.91459 0
M  V30 19286 N 1893.03 -3.53741 -2.99035 0
M  V30 19287 C 1893.77 -4.45215 -3.61347 0
M  V30 19288 N 1893.26 -5.46971 -4.25199 0
M  V30 19289 N 1895.06 -4.32877 -3.58572 0
M  V30 19290 H 1887.21 -2.08133 -0.423615 0
M  V30 19291 H 1889.47 -0.914462 -0.249926 0
M  V30 19292 H 1889.18 -3.18829 -1.48462 0
M  V30 19293 H 1889.05 -2.29777 -2.99136 0
M  V30 19294 H 1891.44 -1.38363 -2.60653 0
M  V30 19295 H 1891.52 -2.30911 -1.10062 0
M  V30 19296 H 1891.16 -4.46019 -2.4296 0
M  V30 19297 H 1891.09 -3.50391 -3.93108 0
M  V30 19298 H 1893.58 -2.80138 -2.53636 0
M  V30 19299 H 1893.9 -6.12967 -4.70629 0
M  V30 19300 H 1892.24 -5.50834 -4.238 0
M  V30 19301 H 1895.43 -3.52602 -3.07879 0
M  V30 19302 H 1895.61 -5.0436 -4.06847 0
M  V30 19303 N 1889.01 1.14984 -1.07779 0
M  V30 19304 C 1889.96 2.2193 -0.696405 0
M  V30 19305 C 1890.95 1.66815 0.294832 0
M  V30 19306 O 1892.16 1.79305 0.158081 0
M  V30 19307 H 1888.53 0.722908 -0.207143 0
M  V30 19308 H 1890.51 2.51374 -1.60791 0
M  V30 19309 C 1889.25 3.4751 -0.114943 0
M  V30 19310 H 1888.58 3.90245 -0.86883 0
M  V30 19311 H 1890.02 4.23846 0.114195 0
M  V30 19312 C 1888.48 3.16827 1.14552 0
M  V30 19313 O 1889.01 3.34026 2.23135 0
M  V30 19314 N 1887.21 2.70836 1.05339 0
M  V30 19315 H 1886.76 2.5704 0.169728 0
M  V30 19316 H 1886.72 2.50681 1.89754 0
M  V30 19317 N 1890.49 0.862526 1.31902 0
M  V30 19318 C 1891.72 0.484006 2.01159 0
M  V30 19319 C 1892.13 -0.92148 1.64785 0
M  V30 19320 O 1891.49 -1.60254 0.873216 0
M  V30 19321 C 1891.54 0.622709 3.56096 0
M  V30 19322 O 1891.26 1.97284 3.91166 0
M  V30 19323 C 1892.76 0.244225 4.42627 0
M  V30 19324 H 1889.98 0.189378 0.643721 0
M  V30 19325 H 1892.53 1.16164 1.68304 0
M  V30 19326 H 1890.68 -0.00728166 3.87399 0
M  V30 19327 H 1891.1 1.97525 4.85885 0
M  V30 19328 H 1892.57 0.392254 5.50605 0
M  V30 19329 H 1893.05 -0.816006 4.31553 0
M  V30 19330 H 1893.65 0.84961 4.16727 0
M  V30 19331 N 1891.97 -1.4484 0.62123 0
M  V30 19332 C 1893.19 -2.07012 0.126801 0
M  V30 19333 C 1893.62 -1.46046 -1.18542 0
M  V30 19334 O 1892.98 -0.558202 -1.72493 0
M  V30 19335 C 1893.02 -3.60597 0.0150611 0
M  V30 19336 O 1892.13 -3.9929 -1.03157 0
M  V30 19337 H 1891.47 -0.659131 0.0802646 0
M  V30 19338 H 1894 -1.85874 0.855105 0
M  V30 19339 H 1894.01 -4.07608 -0.178742 0
M  V30 19340 H 1892.68 -4.04354 0.973153 0
M  V30 19341 H 1891.26 -3.63927 -0.813135 0
M  V30 19342 N 1893.45 -0.361184 -1.53405 0
M  V30 19343 C 1894.67 0.233383 -2.06083 0
M  V30 19344 C 1895.1 1.42029 -1.23326 0
M  V30 19345 O 1894.45 1.79551 -0.251249 0
M  V30 19346 C 1894.5 0.609243 -3.55416 0
M  V30 19347 O 1893.61 1.70705 -3.75411 0
M  V30 19348 H 1892.95 0.035021 -0.663076 0
M  V30 19349 H 1895.48 -0.520514 -1.97868 0
M  V30 19350 H 1895.49 0.881483 -3.98364 0
M  V30 19351 H 1894.16 -0.25866 -4.15095 0
M  V30 19352 H 1892.74 1.4307 -3.44362 0
M  V30 19353 N 1894.92 1.57341 -0.0902386 0
M  V30 19354 C 1895.83 2.17276 0.88478 0
M  V30 19355 C 1896.85 1.14089 1.31376 0
M  V30 19356 O 1898.03 1.46438 1.38268 0
M  V30 19357 C 1895.09 2.73739 2.12762 0
M  V30 19358 C 1894.15 3.91865 1.7533 0
M  V30 19359 C 1893.39 4.45626 2.93689 0
M  V30 19360 O 1893.61 3.98337 4.08269 0
M  V30 19361 O 1892.54 5.36714 2.72437 0
M  V30 19362 H 1896.37 3.00989 0.40487 0
M  V30 19363 H 1893.95 1.48799 0.133848 0
M  V30 19364 H 1895.84 3.09849 2.85608 0
M  V30 19365 H 1894.51 1.93075 2.59815 0
M  V30 19366 H 1893.42 3.60576 0.996799 0
M  V30 19367 H 1894.75 4.73878 1.33045 0
M  V30 19368 N 1896.4 -0.183431 1.56529 0
M  V30 19369 C 1897.33 -1.25157 1.92011 0
M  V30 19370 C 1898.35 -1.41107 0.811945 0
M  V30 19371 O 1899.54 -1.41326 1.09038 0
M  V30 19372 C 1896.64 -2.62206 2.14712 0
M  V30 19373 C 1895.81 -2.67712 3.45903 0
M  V30 19374 C 1894.87 -3.86038 3.57576 0
M  V30 19375 O 1893.89 -3.72599 4.30301 0
M  V30 19376 N 1895.1 -5.01988 2.91528 0
M  V30 19377 H 1897.86 -0.950304 2.84235 0
M  V30 19378 H 1895.42 -0.373278 1.57538 0
M  V30 19379 H 1897.41 -3.3981 2.19798 0
M  V30 19380 H 1895.98 -2.84772 1.28932 0
M  V30 19381 H 1895.2 -1.76294 3.52582 0
M  V30 19382 H 1896.49 -2.68392 4.32254 0
M  V30 19383 H 1895.89 -5.15807 2.32292 0
M  V30 19384 H 1894.45 -5.77497 3.02225 0
M  V30 19385 N 1897.88 -1.50992 -0.451564 0
M  V30 19386 C 1898.79 -1.74097 -1.5725 0
M  V30 19387 C 1899.81 -0.624663 -1.62401 0
M  V30 19388 O 1900.98 -0.90528 -1.79907 0
M  V30 19389 C 1898.05 -1.84808 -2.93338 0
M  V30 19390 C 1897.11 -3.08618 -2.98418 0
M  V30 19391 C 1896.34 -3.18808 -4.28015 0
M  V30 19392 O 1896.56 -2.35291 -5.1961 0
M  V30 19393 O 1895.5 -4.11685 -4.39089 0
M  V30 19394 H 1899.32 -2.69156 -1.40673 0
M  V30 19395 H 1896.91 -1.35322 -0.633105 0
M  V30 19396 H 1898.79 -1.9392 -3.7413 0
M  V30 19397 H 1897.47 -0.929344 -3.10072 0
M  V30 19398 H 1896.37 -3.04993 -2.16633 0
M  V30 19399 H 1897.71 -4.00133 -2.86625 0
M  V30 19400 N 1899.36 0.706069 -1.40899 0
M  V30 19401 C 1900.27 1.85007 -1.44255 0
M  V30 19402 C 1901.28 1.70761 -0.334174 0
M  V30 19403 O 1902.46 1.9286 -0.580258 0
M  V30 19404 C 1899.53 3.20896 -1.31251 0
M  V30 19405 C 1898.59 3.47327 -2.52314 0
M  V30 19406 C 1897.82 4.76732 -2.39922 0
M  V30 19407 O 1898.04 5.5249 -1.41813 0
M  V30 19408 O 1896.98 5.03713 -3.2948 0
M  V30 19409 H 1900.8 1.85132 -2.40748 0
M  V30 19410 H 1898.39 0.857751 -1.22323 0
M  V30 19411 H 1900.27 4.02045 -1.26244 0
M  V30 19412 H 1898.94 3.21477 -0.378684 0
M  V30 19413 H 1897.85 2.66149 -2.62899 0
M  V30 19414 H 1899.18 3.5155 -3.4449 0
M  V30 19415 N 1900.84 1.26553 0.939264 0
M  V30 19416 C 1902.08 1.12376 1.68818 0
M  V30 19417 C 1902.42 -0.331784 1.91345 0
M  V30 19418 O 1901.69 -1.24359 1.4955 0
M  V30 19419 C 1901.97 1.89541 3.0618 0
M  V30 19420 C 1901.83 3.43014 2.90966 0
M  V30 19421 C 1903.15 1.69074 4.06327 0
M  V30 19422 H 1900.26 0.409616 0.612686 0
M  V30 19423 H 1902.91 1.55571 1.09076 0
M  V30 19424 H 1901.06 1.5283 3.57177 0
M  V30 19425 H 1902.73 3.89489 2.47176 0
M  V30 19426 H 1900.97 3.69942 2.26551 0
M  V30 19427 H 1901.64 3.92236 3.88401 0
M  V30 19428 H 1904.12 2.01061 3.64299 0
M  V30 19429 H 1902.99 2.25478 5.00451 0
M  V30 19430 H 1903.26 0.635787 4.37504 0
M  V30 19431 N 1902.31 -1.14411 1.08387 0
M  V30 19432 C 1903.56 -1.85719 0.814638 0
M  V30 19433 C 1903.89 -1.82715 -0.657934 0
M  V30 19434 O 1903.17 -1.2577 -1.48365 0
M  V30 19435 C 1903.45 -3.34363 1.33691 0
M  V30 19436 C 1903.3 -3.4594 2.87481 0
M  V30 19437 C 1904.62 -4.29457 0.962006 0
M  V30 19438 H 1901.74 -0.674332 0.297399 0
M  V30 19439 H 1904.38 -1.34354 1.34346 0
M  V30 19440 H 1902.53 -3.78237 0.887082 0
M  V30 19441 H 1904.21 -3.10854 3.40833 0
M  V30 19442 H 1902.45 -2.87158 3.25151 0
M  V30 19443 H 1903.12 -4.50423 3.19097 0
M  V30 19444 H 1905.6 -3.93599 1.34979 0
M  V30 19445 H 1904.47 -5.31922 1.35464 0
M  V30 19446 H 1904.73 -4.41906 -0.130987 0
M  V30 19447 N 1903.79 -0.869509 -1.31443 0
M  V30 19448 C 1904.7 -0.328352 -2.32291 0
M  V30 19449 C 1905.72 0.561491 -1.64691 0
M  V30 19450 O 1906.89 0.458316 -1.96116 0
M  V30 19451 C 1903.96 0.461733 -3.43612 0
M  V30 19452 C 1903.02 -0.456015 -4.26871 0
M  V30 19453 C 1902.25 0.296458 -5.32876 0
M  V30 19454 O 1902.48 1.5246 -5.49647 0
M  V30 19455 O 1901.41 -0.345443 -6.00908 0
M  V30 19456 H 1905.24 -1.16424 -2.80498 0
M  V30 19457 H 1902.82 -0.632869 -1.35333 0
M  V30 19458 H 1904.7 0.90965 -4.11465 0
M  V30 19459 H 1903.38 1.27418 -2.97567 0
M  V30 19460 H 1902.29 -0.952421 -3.61773 0
M  V30 19461 H 1903.62 -1.23404 -4.76479 0
M  V30 19462 N 1905.27 1.44508 -0.628902 0
M  V30 19463 C 1906.23 2.291 0.0676501 0
M  V30 19464 C 1907.23 1.40921 0.77447 0
M  V30 19465 O 1908.42 1.62816 0.619397 0
M  V30 19466 C 1905.56 3.22448 1.10634 0
M  V30 19467 H 1906.75 2.92174 -0.676344 0
M  V30 19468 H 1904.3 1.51384 -0.388933 0
M  V30 19469 H 1905.04 2.64219 1.88039 0
M  V30 19470 H 1904.82 3.87428 0.603465 0
M  V30 19471 H 1906.31 3.86 1.59354 0
M  V30 19472 N 1906.75 0.369315 1.53212 0
M  V30 19473 C 1907.68 -0.467242 2.28777 0
M  V30 19474 C 1908.66 -1.08073 1.31355 0
M  V30 19475 O 1909.85 -1.09728 1.60229 0
M  V30 19476 C 1906.98 -1.60519 3.07979 0
M  V30 19477 C 1905.93 -1.11876 4.1312 0
M  V30 19478 C 1905.26 -2.34723 4.80426 0
M  V30 19479 C 1906.56 -0.200846 5.21914 0
M  V30 19480 H 1908.25 0.163201 2.98955 0
M  V30 19481 H 1905.8 0.0799312 1.43778 0
M  V30 19482 H 1907.75 -2.19708 3.59592 0
M  V30 19483 H 1906.47 -2.26292 2.35499 0
M  V30 19484 H 1905.13 -0.549521 3.62458 0
M  V30 19485 H 1904.78 -2.98961 4.04514 0
M  V30 19486 H 1904.48 -2.02846 5.51477 0
M  V30 19487 H 1906 -2.94592 5.34835 0
M  V30 19488 H 1907.42 -0.700331 5.69006 0
M  V30 19489 H 1905.81 0.0272222 6.00094 0
M  V30 19490 H 1906.88 0.755948 4.78971 0
M  V30 19491 N 1908.23 -1.57291 0.0985816 0
M  V30 19492 C 1909.64 -1.575 -0.258064 0
M  V30 19493 C 1909.84 -1.10997 -1.68172 0
M  V30 19494 O 1908.9 -0.78802 -2.39889 0
M  V30 19495 C 1910.21 -3.00669 -0.0433215 0
M  V30 19496 C 1911.76 -3.12804 -0.110802 0
M  V30 19497 C 1912.24 -4.57937 0.0759907 0
M  V30 19498 N 1913.73 -4.63195 0.021273 0
M  V30 19499 C 1914.46 -5.73227 0.141 0
M  V30 19500 N 1913.96 -6.9208 0.315756 0
M  V30 19501 N 1915.75 -5.6204 0.0820222 0
M  V30 19502 H 1907.9 -1.85826 1.02871 0
M  V30 19503 H 1910.16 -0.857869 0.403441 0
M  V30 19504 H 1909.87 -3.38903 0.940103 0
M  V30 19505 H 1909.74 -3.6896 -0.784124 0
M  V30 19506 H 1912.13 -2.7444 -1.08473 0
M  V30 19507 H 1912.21 -2.47098 0.661548 0
M  V30 19508 H 1911.86 -4.96995 1.04681 0
M  V30 19509 H 1911.79 -5.21708 -0.716096 0
M  V30 19510 H 1914.28 -3.77737 -0.111114 0
M  V30 19511 H 1914.59 -7.71772 0.398531 0
M  V30 19512 H 1912.94 -6.94111 0.351469 0
M  V30 19513 H 1916.13 -4.6807 -0.0533968 0
M  V30 19514 H 1916.3 -6.47753 0.178778 0
M  V30 19515 N 1909.71 0.175127 -1.56624 0
M  V30 19516 C 1910.62 1.23691 -1.99343 0
M  V30 19517 C 1911.63 1.48662 -0.904197 0
M  V30 19518 O 1912.81 1.60885 -1.21153 0
M  V30 19519 C 1909.87 2.55689 -2.34145 0
M  V30 19520 C 1908.93 2.38614 -3.56878 0
M  V30 19521 C 1908.17 3.64318 -3.9001 0
M  V30 19522 O 1908.39 4.69335 -3.24162 0
M  V30 19523 O 1907.32 3.58655 -4.83373 0
M  V30 19524 H 1911.15 0.904314 -2.89924 0
M  V30 19525 H 1908.73 0.381697 -1.44442 0
M  V30 19526 H 1910.62 3.33562 -2.57516 0
M  V30 19527 H 1909.29 2.88535 -1.46728 0
M  V30 19528 H 1908.2 1.58786 -3.3873 0
M  V30 19529 H 1909.53 2.10694 -4.44825 0
M  V30 19530 N 1911.18 1.5123 0.44355 0
M  V30 19531 C 1912.09 1.74928 1.56324 0
M  V30 19532 C 1913.11 0.633267 1.62067 0
M  V30 19533 O 1914.29 0.914808 1.79425 0
M  V30 19534 C 1911.35 1.86361 2.92354 0
M  V30 19535 C 1910.41 3.10196 2.96778 0
M  V30 19536 C 1909.64 3.21073 4.26319 0
M  V30 19537 O 1909.87 2.38043 5.18355 0
M  V30 19538 O 1908.8 4.14008 4.369 0
M  V30 19539 H 1912.63 2.69898 1.39243 0
M  V30 19540 H 1910.21 1.35656 0.62592 0
M  V30 19541 H 1912.09 1.95901 3.73096 0
M  V30 19542 H 1910.77 0.945775 3.09575 0
M  V30 19543 H 1909.68 3.06138 2.15013 0
M  V30 19544 H 1911.01 4.01648 2.84499 0
M  V30 19545 N 1912.66 -0.698586 1.41271 0
M  V30 19546 C 1913.91 -1.45425 1.39766 0
M  V30 19547 C 1914.22 -1.95598 0.00891528 0
M  V30 19548 O 1915.43 -2.71195 -0.128757 0
M  V30 19549 C 1913.89 -2.62952 2.45732 0
M  V30 19550 C 1913.49 -2.19578 3.90499 0
M  V30 19551 C 1915.24 -3.40602 2.53359 0
M  V30 19552 C 1913.14 -3.34046 4.88024 0
M  V30 19553 H 1912.07 -0.546236 0.519752 0
M  V30 19554 H 1914.73 -0.758678 1.67082 0
M  V30 19555 H 1913.11 -3.34762 2.11542 0
M  V30 19556 H 1914.28 -1.55077 4.33921 0
M  V30 19557 H 1912.6 -1.5493 3.86504 0
M  V30 19558 H 1915.19 -4.25809 3.23405 0
M  V30 19559 H 1915.54 -3.85582 1.56946 0
M  V30 19560 H 1916.07 -2.75846 2.86625 0
M  V30 19561 H 1912.81 -2.94081 5.8583 0
M  V30 19562 H 1912.33 -3.97407 4.49253 0
M  V30 19563 H 1914.01 -3.99867 5.0864 0
M  V30 19564 N 1914.14 -1.27049 -0.93254 0
M  V30 19565 C 1915.56 -1.04349 -1.20762 0
M  V30 19566 C 1915.76 0.225981 -2.00229 0
M  V30 19567 O 1914.81 0.932788 -2.34639 0
M  V30 19568 C 1916.12 -2.28004 -1.96048 0
M  V30 19569 C 1917.67 -2.32993 -2.09006 0
M  V30 19570 C 1918.15 -3.56364 -2.87696 0
M  V30 19571 N 1919.64 -3.56892 -2.95266 0
M  V30 19572 C 1920.37 -4.49022 -3.56604 0
M  V30 19573 N 1919.87 -5.51451 -4.19374 0
M  V30 19574 N 1921.66 -4.36656 -3.53961 0
M  V30 19575 H 1913.81 -2.0857 -0.401516 0
M  V30 19576 H 1916.08 -0.917061 -0.240213 0
M  V30 19577 H 1915.78 -3.20386 -1.45072 0
M  V30 19578 H 1915.66 -2.32937 -2.96682 0
M  V30 19579 H 1918.04 -1.41119 -2.5917 0
M  V30 19580 H 1918.12 -2.32065 -1.07607 0
M  V30 19581 H 1917.77 -4.48571 -2.38216 0
M  V30 19582 H 1917.7 -3.54541 -3.89369 0
M  V30 19583 H 1920.19 -2.82812 -2.5065 0
M  V30 19584 H 1920.5 -6.17924 -4.64101 0
M  V30 19585 H 1918.85 -5.55298 -4.17934 0
M  V30 19586 H 1922.04 -3.55848 -3.04122 0
M  V30 19587 H 1922.21 -5.08647 -4.01475 0
M  V30 19588 N 1915.62 1.13835 -1.08993 0
M  V30 19589 C 1916.55 2.18164 -0.669297 0
M  V30 19590 C 1917.53 1.5938 0.321968 0
M  V30 19591 O 1918.71 1.8716 0.224402 0
M  V30 19592 C 1915.84 3.38697 0.0146637 0
M  V30 19593 C 1914.89 4.16064 -0.937701 0
M  V30 19594 S 1915.72 4.76297 -2.44748 0
M  V30 19595 C 1916.87 6.0018 -1.7758 0
M  V30 19596 H 1917.11 2.53507 -1.55311 0
M  V30 19597 H 1914.64 1.25062 -0.905481 0
M  V30 19598 H 1916.6 4.08517 0.402992 0
M  V30 19599 H 1915.26 3.01664 0.875062 0
M  V30 19600 H 1914.45 5.02361 -0.406139 0
M  V30 19601 H 1914.05 3.51877 -1.26722 0
M  V30 19602 H 1916.35 6.68556 -1.09724 0
M  V30 19603 H 1917.29 6.57936 -2.61774 0
M  V30 19604 H 1917.7 5.50563 -1.24661 0
M  V30 19605 N 1917.1 0.876467 1.3098 0
M  V30 19606 C 1918.03 0.281625 2.26456 0
M  V30 19607 C 1919.01 -0.592945 1.51403 0
M  V30 19608 O 1920.19 -0.544929 1.80452 0
M  V30 19609 C 1917.32 -0.600618 3.33332 0
M  V30 19610 C 1916.36 0.203478 4.26014 0
M  V30 19611 S 1917.2 1.58623 5.11468 0
M  V30 19612 C 1918.35 0.710283 6.21857 0
M  V30 19613 H 1918.59 1.09094 2.76561 0
M  V30 19614 H 1916.12 0.675375 1.38845 0
M  V30 19615 H 1918.08 -1.10392 3.95378 0
M  V30 19616 H 1916.74 -1.38394 2.81968 0
M  V30 19617 H 1915.93 -0.469415 5.01809 0
M  V30 19618 H 1915.53 0.639107 3.68499 0
M  V30 19619 H 1917.82 -0.0763736 6.77457 0
M  V30 19620 H 1918.77 1.43957 6.93312 0
M  V30 19621 H 1919.18 0.274955 5.6383 0
M  V30 19622 N 1918.57 -1.44173 0.636557 0
M  V30 19623 C 1919.8 -2.06866 0.148751 0
M  V30 19624 C 1920.22 -1.47295 -1.16987 0
M  V30 19625 O 1919.58 -0.576466 -1.71891 0
M  V30 19626 C 1919.63 -3.60561 0.0533064 0
M  V30 19627 O 1918.73 -4.00361 -0.989163 0
M  V30 19628 H 1918.07 -0.658243 0.087251 0
M  V30 19629 H 1920.6 -1.84956 0.874772 0
M  V30 19630 H 1920.61 -4.07775 -0.135499 0
M  V30 19631 H 1919.29 -4.033 1.01599 0
M  V30 19632 H 1917.87 -3.64769 -0.77449 0
M  V30 19633 N 1920.05 -0.377435 -1.53014 0
M  V30 19634 C 1921 0.480105 -2.22888 0
M  V30 19635 C 1921.99 1.0392 -1.22839 0
M  V30 19636 O 1923.18 0.967277 -1.48232 0
M  V30 19637 C 1920.31 1.61312 -3.0304 0
M  V30 19638 C 1919.39 1.06633 -4.10476 0
M  V30 19639 N 1919.78 0.243501 -5.05214 0
M  V30 19640 C 1918.08 1.33999 -4.25394 0
M  V30 19641 C 1918.78 -0.0572358 -5.81672 0
M  V30 19642 N 1917.76 0.543562 -5.40876 0
M  V30 19643 H 1921.56 -0.155223 -2.9349 0
M  V30 19644 H 1919.07 -0.18609 -1.6133 0
M  V30 19645 H 1921.07 2.23975 -3.51626 0
M  V30 19646 H 1919.73 2.25138 -2.33972 0
M  V30 19647 H 1920.74 -0.118276 -5.17765 0
M  V30 19648 H 1917.42 1.98017 -3.67553 0
M  V30 19649 H 1918.81 -0.72317 -6.67997 0
M  V30 19650 N 1921.53 1.57237 -0.106922 0
M  V30 19651 C 1922.46 2.1769 0.844599 0
M  V30 19652 C 1923.44 1.11352 1.28587 0
M  V30 19653 O 1924.63 1.39539 1.35065 0
M  V30 19654 C 1921.76 2.76668 2.09933 0
M  V30 19655 C 1920.71 3.88482 1.79627 0
M  V30 19656 C 1920.04 4.34214 3.12029 0
M  V30 19657 C 1921.34 5.11139 1.07399 0
M  V30 19658 H 1923.03 2.97453 0.340887 0
M  V30 19659 H 1920.58 1.4308 0.162523 0
M  V30 19660 H 1922.53 3.17614 2.76946 0
M  V30 19661 H 1921.25 1.94176 2.62608 0
M  V30 19662 H 1919.91 3.48093 1.15008 0
M  V30 19663 H 1919.56 3.48597 3.62614 0
M  V30 19664 H 1919.26 5.09608 2.9253 0
M  V30 19665 H 1920.78 4.77803 3.8018 0
M  V30 19666 H 1922.2 5.4918 1.64543 0
M  V30 19667 H 1920.6 5.92038 0.980375 0
M  V30 19668 H 1921.67 4.84864 0.0586914 0
M  V30 19669 N 1923.01 -0.166818 1.56715 0
M  V30 19670 C 1923.96 -1.22576 1.97681 0
M  V30 19671 C 1924.95 -1.45578 0.866218 0
M  V30 19672 O 1926.16 -1.46105 1.05135 0
M  V30 19673 H 1922.53 -0.412144 0.629 0
M  V30 19674 H 1924.5 -0.853418 2.85936 0
M  V30 19675 C 1923.25 -2.55649 2.35667 0
M  V30 19676 H 1922.57 -2.38774 3.20666 0
M  V30 19677 H 1924.01 -3.28421 2.68171 0
M  V30 19678 C 1922.47 -3.14737 1.20177 0
M  V30 19679 O 1923 -3.98678 0.491844 0
M  V30 19680 N 1921.21 -2.73892 0.971164 0
M  V30 19681 H 1920.76 -2.05732 1.55023 0
M  V30 19682 H 1920.71 -3.13761 0.20029 0
M  V30 19683 N 1924.49 -1.51463 -0.435524 0
M  V30 19684 C 1925.44 -1.69292 -1.52723 0
M  V30 19685 C 1926.42 -0.54689 -1.51321 0
M  V30 19686 O 1927.61 -0.802879 -1.57743 0
M  V30 19687 C 1924.74 -1.82299 -2.90898 0
M  V30 19688 C 1923.83 -3.02692 -2.9705 0
M  V30 19689 N 1924.22 -4.25836 -2.72942 0
M  V30 19690 C 1922.52 -3.01983 -3.2821 0
M  V30 19691 C 1923.22 -5.07109 -2.84983 0
M  V30 19692 N 1922.19 -4.41794 -3.16731 0
M  V30 19693 H 1926 -2.62166 -1.32839 0
M  V30 19694 H 1923.51 -1.49135 -0.642858 0
M  V30 19695 H 1925.51 -1.93183 -3.6944 0
M  V30 19696 H 1924.17 -0.906076 -3.11802 0
M  V30 19697 H 1925.18 -4.5475 -2.47836 0
M  V30 19698 H 1921.85 -2.1993 -3.54876 0
M  V30 19699 H 1923.24 -6.1514 -2.70283 0
M  V30 19700 N 1925.96 0.691085 -1.4164 0
M  V30 19701 C 1927.38 1.27116 -1.36742 0
M  V30 19702 C 1927.73 1.96129 -0.0526953 0
M  V30 19703 O 1926.85 1.99052 0.848953 0
M  V30 19704 C 1927.45 2.31171 -2.4768 0
M  V30 19705 C 1926.01 2.84744 -2.46166 0
M  V30 19706 C 1925.15 1.58841 -2.27299 0
M  V30 19707 H 1928.1 0.485541 -1.5109 0
M  V30 19708 H 1928.12 3.12559 -2.16996 0
M  V30 19709 H 1927.64 1.80913 -3.43354 0
M  V30 19710 H 1925.74 3.39167 -1.54262 0
M  V30 19711 H 1925.85 3.34869 -3.42636 0
M  V30 19712 H 1924.21 1.84815 -1.75258 0
M  V30 19713 H 1925 1.10573 -3.25005 0
M  V30 19714 N 1927.44 1.27542 0.925789 0
M  V30 19715 C 1928.39 1.10271 2.048 0
M  V30 19716 C 1929.38 0.0252694 1.69381 0
M  V30 19717 O 1930.59 0.183134 1.79066 0
M  V30 19718 H 1926.97 0.339845 0.670828 0
M  V30 19719 H 1928.94 2.0534 2.16513 0
M  V30 19720 C 1927.69 0.768681 3.39097 0
M  V30 19721 H 1927.01 1.58967 3.66837 0
M  V30 19722 H 1928.45 0.687719 4.18386 0
M  V30 19723 C 1926.91 -0.527037 3.32752 0
M  V30 19724 O 1927.44 -1.5609 3.70134 0
M  V30 19725 N 1925.64 -0.523354 2.85848 0
M  V30 19726 H 1925.19 0.318395 2.55625 0
M  V30 19727 H 1925.15 -1.39037 2.81986 0
M  V30 19728 N 1928.92 -1.13255 1.09595 0
M  V30 19729 C 1930.17 -1.83925 0.827926 0
M  V30 19730 C 1930.48 -1.84531 -0.64866 0
M  V30 19731 O 1931.69 -2.5111 -1.03228 0
M  V30 19732 C 1930.14 -3.30219 1.43121 0
M  V30 19733 C 1929.75 -3.37996 2.94046 0
M  V30 19734 C 1931.5 -4.05918 1.24221 0
M  V30 19735 C 1929.4 -4.78572 3.47451 0
M  V30 19736 H 1928.33 -0.689091 0.306056 0
M  V30 19737 H 1930.98 -1.27586 1.31887 0
M  V30 19738 H 1929.37 -3.86371 0.867952 0
M  V30 19739 H 1930.54 -2.91829 3.56612 0
M  V30 19740 H 1928.86 -2.75762 3.12 0
M  V30 19741 H 1931.45 -5.09704 1.61573 0
M  V30 19742 H 1931.8 -4.15898 0.183004 0
M  V30 19743 H 1932.33 -3.561 1.77306 0
M  V30 19744 H 1929.07 -4.73785 4.52999 0
M  V30 19745 H 1928.59 -5.25227 2.89649 0
M  V30 19746 H 1930.27 -5.47495 3.44759 0
M  V30 19747 N 1930.4 -0.883401 -1.30514 0
M  V30 19748 C 1931.65 -0.497118 -1.95478 0
M  V30 19749 C 1931.96 0.958235 -1.7052 0
M  V30 19750 O 1933.17 1.45129 -2.29455 0
M  V30 19751 C 1931.62 -0.838108 -3.50005 0
M  V30 19752 C 1931.23 -2.31113 -3.83785 0
M  V30 19753 C 1932.97 -0.520947 -4.21291 0
M  V30 19754 C 1930.88 -2.59383 -5.31483 0
M  V30 19755 H 1929.81 -0.182178 -0.731661 0
M  V30 19756 H 1932.46 -1.07816 -1.48486 0
M  V30 19757 H 1930.84 -0.186171 -3.95562 0
M  V30 19758 H 1932.02 -3.00725 -3.49144 0
M  V30 19759 H 1930.33 -2.59566 -3.25598 0
M  V30 19760 H 1932.93 -0.709216 -5.29976 0
M  V30 19761 H 1933.27 0.539542 -4.12789 0
M  V30 19762 H 1933.81 -1.13001 -3.81413 0
M  V30 19763 H 1930.55 -3.64166 -5.45035 0
M  V30 19764 H 1930.07 -1.94378 -5.6743 0
M  V30 19765 H 1931.74 -2.44803 -5.989 0
M  V30 19766 N 1931.88 1.43833 -0.644194 0
M  V30 19767 C 1933.29 1.56542 -0.310952 0
M  V30 19768 C 1933.49 1.62946 1.18536 0
M  V30 19769 O 1932.55 1.57961 1.96989 0
M  V30 19770 C 1933.86 2.83074 -1.01437 0
M  V30 19771 C 1935.41 2.96805 -0.993759 0
M  V30 19772 C 1935.88 4.26158 -1.6779 0
M  V30 19773 N 1937.38 4.33002 -1.64511 0
M  V30 19774 C 1938.11 5.31837 -2.14328 0
M  V30 19775 N 1937.61 6.37003 -2.72394 0
M  V30 19776 N 1939.4 5.23431 -2.04881 0
M  V30 19777 H 1931.55 1.37919 -1.61531 0
M  V30 19778 H 1933.81 0.661778 -0.678789 0
M  V30 19779 H 1933.52 2.84372 -2.06943 0
M  V30 19780 H 1933.39 3.73016 -0.560273 0
M  V30 19781 H 1935.78 2.95053 0.0528599 0
M  V30 19782 H 1935.86 2.08177 -1.48647 0
M  V30 19783 H 1935.51 4.28671 -2.72404 0
M  V30 19784 H 1935.44 5.13667 -1.15992 0
M  V30 19785 H 1937.93 3.57621 -1.22129 0
M  V30 19786 H 1938.24 7.08724 -3.08107 0
M  V30 19787 H 1936.58 6.37652 -2.76451 0
M  V30 19788 H 1939.78 4.40186 -1.59229 0
M  V30 19789 H 1939.95 6.00301 -2.44015 0
M  V30 19790 N 1933.35 0.385544 1.52811 0
M  V30 19791 C 1934.29 -0.495455 2.22757 0
M  V30 19792 C 1935.27 -1.06709 1.22687 0
M  V30 19793 O 1936.45 -1.11944 1.5166 0
M  V30 19794 C 1933.58 -1.68545 2.93786 0
M  V30 19795 C 1932.62 -1.23942 4.08094 0
M  V30 19796 S 1933.46 -0.22408 5.35031 0
M  V30 19797 C 1934.61 -1.41995 6.0958 0
M  V30 19798 H 1934.84 0.0985156 2.97137 0
M  V30 19799 H 1932.38 0.169717 1.53464 0
M  V30 19800 H 1934.34 -2.36794 3.35319 0
M  V30 19801 H 1933 -2.25071 2.19093 0
M  V30 19802 H 1932.19 -2.12783 4.5688 0
M  V30 19803 H 1931.79 -0.635901 3.68554 0
M  V30 19804 H 1934.08 -2.34766 6.35524 0
M  V30 19805 H 1935.03 -0.973078 7.01382 0
M  V30 19806 H 1935.43 -1.63505 5.40302 0
M  V30 19807 N 1934.83 -1.57178 0.115259 0
M  V30 19808 C 1935.76 -2.18134 -0.833042 0
M  V30 19809 C 1936.74 -1.12033 -1.27995 0
M  V30 19810 O 1937.93 -1.40254 -1.34323 0
M  V30 19811 C 1935.06 -2.77778 -2.08463 0
M  V30 19812 C 1934.01 -3.89429 -1.77565 0
M  V30 19813 C 1933.34 -4.35863 -3.09722 0
M  V30 19814 C 1934.64 -5.11701 -1.04687 0
M  V30 19815 H 1936.33 -2.9763 -0.325107 0
M  V30 19816 H 1933.88 -1.43164 -0.154933 0
M  V30 19817 H 1935.83 -3.19079 -2.75258 0
M  V30 19818 H 1934.56 -1.95566 -2.61575 0
M  V30 19819 H 1933.21 -3.48698 -1.13161 0
M  V30 19820 H 1932.86 -3.50515 -3.6076 0
M  V30 19821 H 1932.56 -5.11152 -2.89823 0
M  V30 19822 H 1934.09 -4.79812 -3.77641 0
M  V30 19823 H 1935.5 -5.50045 -1.61628 0
M  V30 19824 H 1933.9 -5.92549 -0.948964 0
M  V30 19825 H 1934.97 -4.84889 -0.032977 0
M  V30 19826 N 1936.31 0.158505 -1.56801 0
M  V30 19827 C 1937.56 0.871313 -1.82353 0
M  V30 19828 C 1937.88 1.8222 -0.694324 0
M  V30 19829 O 1937.15 1.93817 0.284899 0
M  V30 19830 H 1935.73 0.324747 -0.672717 0
M  V30 19831 H 1938.39 0.155257 -1.94281 0
M  V30 19832 H 1937.49 1.44051 -2.76868 0
M  V30 19833 N 1937.79 1.51692 0.427485 0
M  V30 19834 C 1938.75 1.73114 1.50214 0
M  V30 19835 C 1939.75 0.601079 1.49143 0
M  V30 19836 O 1940.94 0.86875 1.50991 0
M  V30 19837 C 1938.07 1.79666 2.89712 0
M  V30 19838 H 1939.27 2.69033 1.32518 0
M  V30 19839 H 1936.82 1.4183 0.656804 0
M  V30 19840 H 1937.56 0.855968 3.128 0
M  V30 19841 H 1937.34 2.61803 2.91893 0
M  V30 19842 H 1938.83 1.98045 3.67652 0
M  V30 19843 N 1939.27 -0.683564 1.42004 0
M  V30 19844 C 1940.5 -1.4721 1.45386 0
M  V30 19845 C 1940.91 -1.88696 0.062603 0
M  V30 19846 O 1940.27 -1.5757 -0.920764 0
M  V30 19847 C 1940.32 -2.7269 2.37323 0
M  V30 19848 O 1940.04 -2.32947 3.71035 0
M  V30 19849 C 1941.54 -3.6633 2.49634 0
M  V30 19850 H 1938.76 -0.453255 0.494773 0
M  V30 19851 H 1941.3 -0.840646 1.86423 0
M  V30 19852 H 1939.46 -3.32044 1.99563 0
M  V30 19853 H 1939.87 -3.13915 4.20188 0
M  V30 19854 H 1941.35 -4.51125 3.18104 0
M  V30 19855 H 1941.82 -4.11636 1.53141 0
M  V30 19856 H 1942.43 -3.12874 2.8808 0
M  V30 19857 N 1940.75 -1.28031 -0.919012 0
M  V30 19858 C 1941.99 -1.16124 -1.6821 0
M  V30 19859 C 1942.35 0.286502 -1.8985 0
M  V30 19860 O 1943.55 0.528171 -2.6356 0
M  V30 19861 C 1941.82 -1.93232 -3.0066 0
M  V30 19862 S 1943.38 -1.97638 -3.91771 0
M  V30 19863 H 1940.2 -0.4144 -0.577749 0
M  V30 19864 H 1942.8 -1.62059 -1.09349 0
M  V30 19865 H 1941.5 -2.97593 -2.82607 0
M  V30 19866 H 1941.04 -1.47825 -3.6457 0
M  V30 19867 H 1943.05 -1.07908 -4.84325 0
M  V30 19868 N 1942.22 1.12672 -1.10194 0
M  V30 19869 C 1943.13 2.2192 -0.76082 0
M  V30 19870 C 1944.15 1.72328 0.240604 0
M  V30 19871 O 1945.33 2.01241 0.0799808 0
M  V30 19872 C 1942.39 3.46151 -0.19501 0
M  V30 19873 C 1941.45 4.10595 -1.25339 0
M  V30 19874 C 1940.68 5.28896 -0.714485 0
M  V30 19875 O 1940.91 5.68543 0.459943 0
M  V30 19876 O 1939.84 5.83592 -1.47324 0
M  V30 19877 H 1943.67 2.53487 -1.67266 0
M  V30 19878 H 1941.25 1.20959 -0.876892 0
M  V30 19879 H 1943.13 4.21238 0.116809 0
M  V30 19880 H 1941.81 3.16266 0.689729 0
M  V30 19881 H 1940.72 3.37299 -1.61803 0
M  V30 19882 H 1942.05 4.44629 -2.11106 0
M  V30 19883 N 1943.7 0.89031 1.30043 0
M  V30 19884 C 1944.65 0.35935 2.27985 0
M  V30 19885 C 1945.62 -0.5534 1.5661 0
M  V30 19886 O 1946.8 -0.480669 1.84646 0
M  V30 19887 C 1943.94 -0.41541 3.42591 0
M  V30 19888 C 1943.06 0.527163 4.28771 0
M  V30 19889 C 1942.19 -0.26372 5.30545 0
M  V30 19890 C 1941.23 0.673982 6.08378 0
M  V30 19891 N 1940.37 -0.081909 7.02052 0
M  V30 19892 H 1945.21 1.19969 2.72785 0
M  V30 19893 H 1942.74 0.602948 1.34175 0
M  V30 19894 H 1944.7 -0.880572 4.07801 0
M  V30 19895 H 1943.33 -1.22028 2.98846 0
M  V30 19896 H 1942.38 1.11083 3.6382 0
M  V30 19897 H 1943.7 1.24532 4.83004 0
M  V30 19898 H 1942.85 -0.7905 6.01528 0
M  V30 19899 H 1941.59 -1.01507 4.7702 0
M  V30 19900 H 1940.59 1.21234 5.36267 0
M  V30 19901 H 1941.82 1.42451 6.63991 0
M  V30 19902 H 1939.77 -0.815696 6.50909 0
M  V30 19903 H 1939.68 0.576521 7.53799 0
M  V30 19904 H 1940.95 -0.589258 7.7727 0
M  V30 19905 N 1945.18 -1.43489 0.651812 0
M  V30 19906 C 1946.4 -2.06696 0.170683 0
M  V30 19907 C 1946.83 -1.48527 -1.15418 0
M  V30 19908 O 1946.19 -0.594665 -1.7127 0
M  V30 19909 C 1946.24 -3.60484 0.0915457 0
M  V30 19910 O 1945.34 -4.01388 -0.946644 0
M  V30 19911 H 1944.68 -0.65728 0.0942276 0
M  V30 19912 H 1947.21 -1.84018 0.89434 0
M  V30 19913 H 1947.22 -4.07896 -0.0922419 0
M  V30 19914 H 1945.9 -4.02199 1.0587 0
M  V30 19915 H 1944.47 -3.65569 -0.735758 0
M  V30 19916 N 1946.66 -0.393643 -1.52605 0
M  V30 19917 C 1947.61 0.454246 -2.28121 0
M  V30 19918 C 1948.6 1.05931 -1.32193 0
M  V30 19919 O 1949.81 0.999286 -1.49714 0
M  V30 19920 H 1946.18 0.165249 -0.733619 0
M  V30 19921 H 1948.15 -0.204084 -2.97701 0
M  V30 19922 C 1946.9 1.5671 -3.10383 0
M  V30 19923 H 1946.22 1.11084 -3.84058 0
M  V30 19924 H 1947.66 2.13451 -3.66353 0
M  V30 19925 C 1946.12 2.52562 -2.22967 0
M  V30 19926 O 1946.65 3.56075 -1.85939 0
M  V30 19927 N 1944.86 2.22405 -1.87041 0
M  V30 19928 H 1944.41 1.38261 -2.17351 0
M  V30 19929 H 1944.36 2.86787 -1.28843 0
M  V30 19930 N 1948.14 1.57115 -0.123593 0
M  V30 19931 C 1949.37 1.99415 0.540103 0
M  V30 19932 C 1949.77 1.00228 1.60471 0
M  V30 19933 O 1949.12 -0.0123101 1.83696 0
M  V30 19934 C 1949.18 3.38134 1.22088 0
M  V30 19935 C 1948.84 4.5599 0.30367 0
M  V30 19936 C 1949.84 5.17865 -0.459524 0
M  V30 19937 C 1947.52 5.01846 0.213401 0
M  V30 19938 C 1949.52 6.23988 -1.30067 0
M  V30 19939 C 1947.21 6.0783 -0.631375 0
M  V30 19940 C 1948.2 6.68768 -1.38704 0
M  V30 19941 O 1947.89 7.72703 -2.21778 0
M  V30 19942 H 1947.62 0.659781 0.147192 0
M  V30 19943 H 1950.18 2.04343 -0.208128 0
M  V30 19944 H 1948.41 3.29975 2.01628 0
M  V30 19945 H 1950.1 3.64694 1.78195 0
M  V30 19946 H 1950.86 4.8335 -0.399683 0
M  V30 19947 H 1946.74 4.54158 0.791276 0
M  V30 19948 H 1950.29 6.71482 -1.89097 0
M  V30 19949 H 1946.18 6.41774 -0.692592 0
M  V30 19950 H 1946.95 7.8982 -2.1477 0
M  V30 19951 N 1949.61 -0.150187 1.56883 0
M  V30 19952 C 1950.56 -1.20473 1.9897 0
M  V30 19953 C 1951.56 -1.44651 0.881609 0
M  V30 19954 O 1952.76 -1.44982 1.06678 0
M  V30 19955 H 1949.14 -0.405449 0.633336 0
M  V30 19956 H 1951.11 -0.823043 2.86825 0
M  V30 19957 C 1949.86 -2.53135 2.38365 0
M  V30 19958 H 1949.18 -2.3536 3.23181 0
M  V30 19959 H 1950.62 -3.25558 2.71639 0
M  V30 19960 C 1949.08 -3.13444 1.23509 0
M  V30 19961 O 1949.61 -3.98133 0.534101 0
M  V30 19962 N 1947.81 -2.72846 1.00016 0
M  V30 19963 H 1947.36 -2.04076 1.57196 0
M  V30 19964 H 1947.32 -3.13531 0.233557 0
M  V30 19965 N 1951.09 -1.51916 -0.419434 0
M  V30 19966 C 1952.02 -1.77475 -1.5174 0
M  V30 19967 C 1953 -0.625263 -1.58191 0
M  V30 19968 O 1954.19 -0.869815 -1.73631 0
M  V30 19969 C 1951.32 -1.91608 -2.89661 0
M  V30 19970 C 1950.27 -3.07151 -2.98064 0
M  V30 19971 C 1949.6 -3.06493 -4.3814 0
M  V30 19972 C 1950.9 -4.46799 -2.70495 0
M  V30 19973 H 1952.59 -2.69413 -1.30602 0
M  V30 19974 H 1950.14 -1.2964 -0.626849 0
M  V30 19975 H 1952.09 -2.08072 -3.66448 0
M  V30 19976 H 1950.82 -0.963332 -3.1207 0
M  V30 19977 H 1949.47 -2.90422 -2.2372 0
M  V30 19978 H 1949.12 -2.08959 -4.57542 0
M  V30 19979 H 1948.82 -3.84091 -4.44689 0
M  V30 19980 H 1950.35 -3.25072 -5.16876 0
M  V30 19981 H 1951.76 -4.63787 -3.37008 0
M  V30 19982 H 1950.16 -5.26238 -2.88432 0
M  V30 19983 H 1951.23 -4.55604 -1.65991 0
M  V30 19984 N 1952.57 0.676023 -1.42365 0
M  V30 19985 C 1953.82 1.43608 -1.42769 0
M  V30 19986 C 1954.15 1.94451 -0.0436961 0
M  V30 19987 O 1953.4 1.71221 0.947723 0
M  V30 19988 C 1953.7 2.65018 -2.39792 0
M  V30 19989 C 1953.37 2.32724 -3.862 0
M  V30 19990 C 1952.03 2.23628 -4.2608 0
M  V30 19991 C 1954.38 2.06477 -4.78557 0
M  V30 19992 C 1951.71 1.86409 -5.56299 0
M  V30 19993 C 1954.06 1.70763 -6.09116 0
M  V30 19994 C 1952.72 1.60176 -6.47997 0
M  V30 19995 H 1951.99 0.525499 -0.522428 0
M  V30 19996 H 1954.64 0.770932 -1.75297 0
M  V30 19997 H 1952.95 3.36559 -2.00587 0
M  V30 19998 H 1954.64 3.23198 -2.37369 0
M  V30 19999 H 1951.23 2.40705 -3.54625 0
M  V30 20000 H 1955.42 2.12439 -4.48535 0
M  V30 20001 H 1950.67 1.7678 -5.85285 0
M  V30 20002 H 1954.85 1.49479 -6.80168 0
M  V30 20003 H 1952.47 1.31106 -7.48809 0
M  V30 20004 N 1954.05 1.28517 0.912209 0
M  V30 20005 C 1955.3 1.15138 1.65609 0
M  V30 20006 C 1955.61 -0.299022 1.93301 0
M  V30 20007 O 1956.82 -0.55395 2.65789 0
M  V30 20008 C 1955.27 2.01287 2.98348 0
M  V30 20009 C 1954.88 3.51076 2.78297 0
M  V30 20010 C 1956.62 1.96599 3.7623 0
M  V30 20011 C 1954.53 4.29371 4.06687 0
M  V30 20012 H 1953.46 0.42731 0.621226 0
M  V30 20013 H 1956.11 1.5306 1.01217 0
M  V30 20014 H 1954.49 1.56222 3.63883 0
M  V30 20015 H 1955.67 4.04109 2.21434 0
M  V30 20016 H 1953.98 3.57306 2.13826 0
M  V30 20017 H 1956.58 2.52362 4.71399 0
M  V30 20018 H 1956.92 0.943087 4.05477 0
M  V30 20019 H 1957.46 2.39641 3.17517 0
M  V30 20020 H 1954.2 5.32248 3.82612 0
M  V30 20021 H 1953.72 3.81112 4.63156 0
M  V30 20022 H 1955.39 4.39372 4.74933 0
M  V30 20023 N 1955.53 -1.12086 1.1079 0
M  V30 20024 C 1956.44 -2.21514 0.772578 0
M  V30 20025 C 1957.45 -1.72454 -0.231462 0
M  V30 20026 O 1958.63 -2.01281 -0.0693074 0
M  V30 20027 C 1955.69 -3.46043 0.213364 0
M  V30 20028 C 1954.75 -4.09925 1.27515 0
M  V30 20029 C 1953.99 -5.28509 0.742524 0
M  V30 20030 O 1954.21 -5.68779 -0.429786 0
M  V30 20031 O 1953.14 -5.82802 1.50417 0
M  V30 20032 H 1956.97 -2.52596 1.68608 0
M  V30 20033 H 1954.56 -1.20492 0.883294 0
M  V30 20034 H 1956.44 -4.21294 -0.0944683 0
M  V30 20035 H 1955.11 -3.16628 -0.672947 0
M  V30 20036 H 1954.02 -3.36436 1.63589 0
M  V30 20037 H 1955.35 -4.43504 2.13461 0
M  V30 20038 N 1957 -0.897194 -1.29569 0
M  V30 20039 C 1958.25 -0.53201 -1.96319 0
M  V30 20040 C 1958.61 0.911189 -1.69455 0
M  V30 20041 O 1957.9 1.637 -0.995636 0
M  V30 20042 C 1958.09 -0.757743 -3.49275 0
M  V30 20043 C 1957.92 -2.22133 -3.91008 0
M  V30 20044 C 1956.69 -2.86829 -4.16002 0
M  V30 20045 C 1958.89 -3.1963 -4.02916 0
M  V30 20046 N 1956.87 -4.23657 -4.44284 0
M  V30 20047 C 1958.24 -4.41568 -4.35221 0
M  V30 20048 C 1960.3 -3.15253 -3.85383 0
M  V30 20049 C 1959 -5.59688 -4.51821 0
M  V30 20050 C 1961.03 -4.32656 -4.0319 0
M  V30 20051 C 1960.39 -5.53364 -4.35853 0
M  V30 20052 H 1956.49 -0.244236 -0.742881 0
M  V30 20053 H 1959.07 -1.15748 -1.56558 0
M  V30 20054 H 1957.24 -0.16167 -3.88063 0
M  V30 20055 H 1958.97 -0.358243 -4.03111 0
M  V30 20056 H 1955.73 -2.37635 -4.09666 0
M  V30 20057 H 1956.15 -4.94356 -4.62538 0
M  V30 20058 H 1960.8 -2.2302 -3.59196 0
M  V30 20059 H 1958.51 -6.52415 -4.76845 0
M  V30 20060 H 1962.1 -4.30754 -3.91079 0
M  V30 20061 H 1960.98 -6.42696 -4.49345 0
M  V30 20062 N 1958.48 1.43142 -0.659413 0
M  V30 20063 C 1959.42 2.28066 0.0782731 0
M  V30 20064 C 1960.39 1.40185 0.82383 0
M  V30 20065 O 1961.58 1.69627 0.822128 0
M  V30 20066 C 1958.7 3.19726 1.11772 0
M  V30 20067 C 1957.75 4.23908 0.469506 0
M  V30 20068 S 1958.58 5.30058 -0.761531 0
M  V30 20069 C 1959.74 6.25286 0.277227 0
M  V30 20070 H 1959.97 2.90283 -0.642102 0
M  V30 20071 H 1957.51 1.47744 -0.448449 0
M  V30 20072 H 1959.46 3.73078 1.7124 0
M  V30 20073 H 1958.12 2.56674 1.81045 0
M  V30 20074 H 1957.32 4.88168 1.2533 0
M  V30 20075 H 1956.92 3.73965 -0.0512104 0
M  V30 20076 H 1959.21 6.67813 1.14158 0
M  V30 20077 H 1960.15 7.07328 -0.330513 0
M  V30 20078 H 1960.56 5.61131 0.61581 0
M  V30 20079 N 1959.96 0.40173 1.52394 0
M  V30 20080 C 1960.92 -0.41541 2.25404 0
M  V30 20081 C 1961.92 -0.979848 1.27498 0
M  V30 20082 O 1963.11 -0.859891 1.51498 0
M  V30 20083 C 1960.25 -1.58403 3.01863 0
M  V30 20084 H 1961.44 0.223965 2.99063 0
M  V30 20085 H 1958.99 0.154095 1.55539 0
M  V30 20086 H 1959.73 -2.26048 2.32536 0
M  V30 20087 H 1959.51 -1.18586 3.73737 0
M  V30 20088 H 1961 -2.16224 3.57263 0
M  V30 20089 N 1961.44 -1.57047 0.131923 0
M  V30 20090 C 1962.69 -1.95245 -0.521892 0
M  V30 20091 C 1963.01 -1.01692 -1.66385 0
M  V30 20092 O 1962.28 -0.0756026 -1.95754 0
M  V30 20093 H 1960.86 -0.720886 -0.195786 0
M  V30 20094 H 1963.52 -1.93831 0.203893 0
M  V30 20095 H 1962.62 -2.986 -0.907979 0
M  V30 20096 N 1962.92 0.141865 -1.5696 0
M  V30 20097 C 1964.16 0.851923 -1.83267 0
M  V30 20098 C 1964.49 1.81473 -0.713611 0
M  V30 20099 O 1963.76 1.94109 0.264326 0
M  V30 20100 H 1962.34 0.317594 -0.676124 0
M  V30 20101 H 1965 0.134643 -1.94434 0
M  V30 20102 H 1964.09 1.41106 -2.7838 0
M  V30 20103 N 1964.39 1.52136 0.411372 0
M  V30 20104 C 1965.62 1.70223 1.18486 0
M  V30 20105 C 1966.04 0.409966 1.83578 0
M  V30 20106 O 1965.4 -0.632366 1.69914 0
M  V30 20107 C 1965.45 2.83744 2.22535 0
M  V30 20108 O 1964.55 2.49157 3.28625 0
M  V30 20109 H 1963.9 0.566741 0.345978 0
M  V30 20110 H 1966.43 1.98829 0.482526 0
M  V30 20111 H 1966.44 3.08591 2.669 0
M  V30 20112 H 1965.11 3.77503 1.74541 0
M  V30 20113 H 1963.69 2.34974 2.89554 0
M  V30 20114 N 1965.87 -0.668464 1.42721 0
M  V30 20115 C 1967.12 -1.43061 1.43741 0
M  V30 20116 C 1967.45 -1.9412 0.0558656 0
M  V30 20117 O 1966.73 -1.71317 -0.920904 0
M  V30 20118 C 1967.01 -2.62307 2.46712 0
M  V30 20119 C 1966.86 -2.16839 3.94082 0
M  V30 20120 C 1968.18 -3.64525 2.46596 0
M  V30 20121 H 1965.3 -0.518854 0.523412 0
M  V30 20122 H 1967.94 -0.759144 1.74175 0
M  V30 20123 H 1966.09 -3.19593 2.20891 0
M  V30 20124 H 1967.77 -1.64672 4.30907 0
M  V30 20125 H 1966.01 -1.48352 4.07645 0
M  V30 20126 H 1966.68 -3.02521 4.6172 0
M  V30 20127 H 1969.16 -3.16968 2.69574 0
M  V30 20128 H 1968.03 -4.45532 3.20613 0
M  V30 20129 H 1968.29 -4.16084 1.49421 0
M  V30 20130 N 1967.35 -1.28999 -0.905381 0
M  V30 20131 C 1968.31 -1.13652 -1.99038 0
M  V30 20132 C 1969.31 -0.0736646 -1.60631 0
M  V30 20133 O 1970.5 -0.320139 -1.71233 0
M  V30 20134 C 1967.64 -0.736715 -3.32844 0
M  V30 20135 H 1968.83 -2.10022 -2.14081 0
M  V30 20136 H 1966.38 -1.12104 -1.08915 0
M  V30 20137 H 1967.12 0.227383 -3.23502 0
M  V30 20138 H 1966.9 -1.50459 -3.62084 0
M  V30 20139 H 1968.39 -0.65223 -4.12475 0
M  V30 20140 N 1968.83 1.11497 -1.11383 0
M  V30 20141 C 1969.78 2.15632 -0.740724 0
M  V30 20142 C 1970.76 1.58867 0.254939 0
M  V30 20143 O 1971.96 1.76891 0.0621432 0
M  V30 20144 C 1969.08 3.42802 -0.184893 0
M  V30 20145 C 1968.17 4.06526 -1.20819 0
M  V30 20146 N 1968.56 4.45116 -2.40219 0
M  V30 20147 C 1966.86 4.3344 -1.05098 0
M  V30 20148 C 1967.56 4.95035 -3.05476 0
M  V30 20149 N 1966.54 4.91153 -2.32958 0
M  V30 20150 H 1970.34 2.43247 -1.64949 0
M  V30 20151 H 1967.85 1.28505 -0.992984 0
M  V30 20152 H 1969.85 4.16779 0.100531 0
M  V30 20153 H 1968.51 3.16652 0.718463 0
M  V30 20154 H 1969.52 4.37167 -2.77678 0
M  V30 20155 H 1966.2 4.17001 -0.204008 0
M  V30 20156 H 1967.59 5.34529 -4.07097 0
M  V30 20157 N 1970.31 0.904053 1.29092 0
M  V30 20158 C 1971.24 0.401805 2.30017 0
M  V30 20159 C 1972.22 -0.525477 1.6178 0
M  V30 20160 O 1973.4 -0.435279 1.89259 0
M  V30 20161 C 1970.53 -0.367656 3.45348 0
M  V30 20162 C 1969.49 0.469596 4.25416 0
M  V30 20163 C 1968.81 -0.427624 5.32987 0
M  V30 20164 C 1970.11 1.7218 4.93104 0
M  V30 20165 H 1971.81 1.24523 2.72276 0
M  V30 20166 H 1969.35 0.600215 1.30895 0
M  V30 20167 H 1971.31 -0.729791 4.15033 0
M  V30 20168 H 1970.03 -1.2449 3.01944 0
M  V30 20169 H 1968.69 0.814119 3.57446 0
M  V30 20170 H 1968.34 -1.30313 4.85827 0
M  V30 20171 H 1968.04 0.128909 5.87459 0
M  V30 20172 H 1969.56 -0.785855 6.05522 0
M  V30 20173 H 1970.98 1.42914 5.55201 0
M  V30 20174 H 1969.37 2.21999 5.57527 0
M  V30 20175 H 1970.44 2.45526 4.18145 0
M  V30 20176 N 1971.79 -1.4279 0.666995 0
M  V30 20177 C 1972.72 -2.335 -0.00234362 0
M  V30 20178 C 1973.7 -1.50244 -0.797537 0
M  V30 20179 O 1974.88 -1.7887 -0.756257 0
M  V30 20180 C 1972.01 -3.33774 -0.959795 0
M  V30 20181 C 1970.97 -4.27124 -0.273749 0
M  V30 20182 C 1970.29 -5.17544 -1.3436 0
M  V30 20183 C 1971.59 -5.15462 0.842411 0
M  V30 20184 H 1973.29 -2.89719 0.755212 0
M  V30 20185 H 1970.83 -1.39307 0.364622 0
M  V30 20186 H 1972.78 -3.96139 -1.43707 0
M  V30 20187 H 1971.51 -2.75842 -1.74868 0
M  V30 20188 H 1970.17 -3.66142 0.18321 0
M  V30 20189 H 1969.82 -4.55943 -2.12427 0
M  V30 20190 H 1969.52 -5.80825 -0.889738 0
M  V30 20191 H 1971.04 -5.82784 -1.82196 0
M  V30 20192 H 1972.45 -5.71557 0.4467 0
M  V30 20193 H 1970.85 -5.87535 1.22158 0
M  V30 20194 H 1971.92 -4.54327 1.69454 0
M  V30 20195 N 1973.26 -0.409806 -1.52179 0
M  V30 20196 C 1974.49 0.167702 -2.06721 0
M  V30 20197 C 1974.91 1.38034 -1.27782 0
M  V30 20198 O 1974.27 1.7866 -0.308244 0
M  V30 20199 C 1974.32 0.495862 -3.57174 0
M  V30 20200 O 1973.42 1.58675 -3.80652 0
M  V30 20201 H 1972.76 0.013908 -0.663854 0
M  V30 20202 H 1975.29 -0.583201 -1.96112 0
M  V30 20203 H 1975.3 0.754301 -4.00967 0
M  V30 20204 H 1973.98 -0.390588 -4.14062 0
M  V30 20205 H 1972.56 1.32042 -3.48739 0
M  V30 20206 N 1974.74 1.56975 -0.14025 0
M  V30 20207 C 1975.69 2.16418 0.802003 0
M  V30 20208 C 1976.66 1.09512 1.24885 0
M  V30 20209 O 1977.84 1.37522 1.32259 0
M  V30 20210 C 1974.98 2.78465 2.03841 0
M  V30 20211 C 1974.1 3.99743 1.63798 0
M  V30 20212 C 1973.23 4.4981 2.82567 0
M  V30 20213 C 1972.27 5.63569 2.38865 0
M  V30 20214 N 1971.41 6.08285 3.5062 0
M  V30 20215 H 1976.25 2.96602 0.288284 0
M  V30 20216 H 1973.78 1.46519 0.130587 0
M  V30 20217 H 1975.74 3.12581 2.76314 0
M  V30 20218 H 1974.37 2.00936 2.52635 0
M  V30 20219 H 1973.42 3.71651 0.811169 0
M  V30 20220 H 1974.74 4.82177 1.27697 0
M  V30 20221 H 1973.89 4.85945 3.63238 0
M  V30 20222 H 1972.63 3.66369 3.21908 0
M  V30 20223 H 1971.63 5.27017 1.56632 0
M  V30 20224 H 1972.86 6.48791 2.00617 0
M  V30 20225 H 1970.81 5.2778 3.89595 0
M  V30 20226 H 1970.72 6.85628 3.18512 0
M  V30 20227 H 1971.99 6.49063 4.31668 0
M  V30 20228 N 1976.22 -0.133539 1.57033 0
M  V30 20229 C 1977.45 -0.857187 1.87978 0
M  V30 20230 C 1977.86 -1.74634 0.72799 0
M  V30 20231 O 1977.2 -1.81051 -0.310857 0
M  V30 20232 C 1977.26 -1.75448 3.13781 0
M  V30 20233 C 1976.93 -1.04112 4.44983 0
M  V30 20234 C 1977.92 -0.388703 5.18445 0
M  V30 20235 C 1975.61 -1.02662 4.91697 0
M  V30 20236 C 1977.6 0.268682 6.36833 0
M  V30 20237 C 1975.29 -0.365432 6.10006 0
M  V30 20238 C 1976.29 0.28108 6.82421 0
M  V30 20239 O 1975.98 0.931754 7.98482 0
M  V30 20240 H 1975.71 -0.252521 0.627064 0
M  V30 20241 H 1978.26 -0.126928 2.05007 0
M  V30 20242 H 1976.49 -2.52602 2.92796 0
M  V30 20243 H 1978.18 -2.35126 3.30863 0
M  V30 20244 H 1978.95 -0.391622 4.83416 0
M  V30 20245 H 1974.83 -1.51926 4.35246 0
M  V30 20246 H 1978.37 0.773893 6.93294 0
M  V30 20247 H 1974.27 -0.360226 6.44494 0
M  V30 20248 H 1975.03 0.834769 8.14232 0
M  V30 20249 N 1977.7 -1.52352 -0.403298 0
M  V30 20250 C 1978.95 -1.66368 -1.14744 0
M  V30 20251 C 1979.27 -0.398899 -1.90876 0
M  V30 20252 O 1978.54 0.586372 -1.86918 0
M  V30 20253 H 1977.12 -0.613226 -0.426571 0
M  V30 20254 H 1979.78 -1.89416 -0.459075 0
M  V30 20255 H 1978.87 -2.50748 -1.85828 0
M  V30 20256 N 1979.18 0.660885 -1.43074 0
M  V30 20257 C 1980.14 1.75586 -1.47317 0
M  V30 20258 C 1981.14 1.56744 -0.358871 0
M  V30 20259 O 1982.33 1.62782 -0.620299 0
M  V30 20260 C 1979.46 3.14377 -1.31833 0
M  V30 20261 H 1980.65 1.73207 -2.44825 0
M  V30 20262 H 1978.21 0.871828 -1.29726 0
M  V30 20263 H 1978.94 3.22373 -0.353027 0
M  V30 20264 H 1978.73 3.29457 -2.12604 0
M  V30 20265 H 1980.22 3.94238 -1.37718 0
M  V30 20266 N 1980.65 1.29477 0.898527 0
M  V30 20267 C 1981.9 1.17516 1.64913 0
M  V30 20268 C 1982.23 -0.273086 1.92573 0
M  V30 20269 O 1981.48 -1.21353 1.53531 0
M  V30 20270 C 1981.78 1.93505 3.00484 0
M  V30 20271 C 1981.45 3.43216 2.92427 0
M  V30 20272 C 1980.11 3.84044 2.89937 0
M  V30 20273 C 1982.46 4.38611 2.81548 0
M  V30 20274 C 1979.79 5.18582 2.74389 0
M  V30 20275 C 1982.14 5.73241 2.67539 0
M  V30 20276 C 1980.81 6.13326 2.63416 0
M  V30 20277 H 1980.08 0.430023 0.603458 0
M  V30 20278 H 1982.72 1.60427 1.04572 0
M  V30 20279 H 1981.03 1.43189 3.64698 0
M  V30 20280 H 1982.73 1.81654 3.57495 0
M  V30 20281 H 1979.32 3.10763 2.95168 0
M  V30 20282 H 1983.5 4.0802 2.82548 0
M  V30 20283 H 1978.76 5.48748 2.69602 0
M  V30 20284 H 1982.93 6.46808 2.58093 0
M  V30 20285 H 1980.56 7.17523 2.51126 0
M  V30 20286 N 1982.13 -1.10905 1.11972 0
M  V30 20287 C 1983.08 -2.17107 0.783135 0
M  V30 20288 C 1984.05 -1.6424 -0.24791 0
M  V30 20289 O 1985.23 -1.90399 -0.123577 0
M  V30 20290 C 1982.37 -3.44274 0.238574 0
M  V30 20291 C 1981.49 -4.11119 1.32685 0
M  V30 20292 C 1980.62 -5.25989 0.742236 0
M  V30 20293 C 1979.66 -5.84728 1.80997 0
M  V30 20294 N 1978.8 -6.90983 1.24444 0
M  V30 20295 H 1983.64 -2.45243 1.69292 0
M  V30 20296 H 1981.18 -1.20386 0.845323 0
M  V30 20297 H 1983.13 -4.17091 -0.0951679 0
M  V30 20298 H 1981.76 -3.16505 -0.634384 0
M  V30 20299 H 1980.82 -3.3632 1.77745 0
M  V30 20300 H 1982.13 -4.50824 2.13445 0
M  V30 20301 H 1981.28 -6.05638 0.358877 0
M  V30 20302 H 1980.02 -4.87604 -0.096622 0
M  V30 20303 H 1979.03 -5.03753 2.20258 0
M  V30 20304 H 1980.25 -6.25178 2.65196 0
M  V30 20305 H 1978.2 -6.54607 0.427323 0
M  V30 20306 H 1978.11 -7.29374 1.98869 0
M  V30 20307 H 1979.38 -7.74424 0.888154 0
M  V30 20308 N 1983.61 -0.910886 -1.2861 0
M  V30 20309 C 1984.52 -0.402088 -2.31129 0
M  V30 20310 C 1985.54 0.508811 -1.66394 0
M  V30 20311 O 1986.71 0.395691 -1.97475 0
M  V30 20312 C 1983.78 0.352182 -3.44907 0
M  V30 20313 C 1982.84 -0.59159 -4.25204 0
M  V30 20314 C 1982.07 0.126778 -5.33549 0
M  V30 20315 O 1982.29 1.34897 -5.54219 0
M  V30 20316 O 1981.23 -0.536442 -5.99505 0
M  V30 20317 H 1985.05 -1.25289 -2.76652 0
M  V30 20318 H 1982.64 -0.675604 -1.33251 0
M  V30 20319 H 1984.52 0.778285 -4.14151 0
M  V30 20320 H 1983.2 1.17886 -3.01471 0
M  V30 20321 H 1982.1 -1.06703 -3.5856 0
M  V30 20322 H 1983.44 -1.38501 -4.72312 0
M  V30 20323 N 1985.09 1.42434 -0.674558 0
M  V30 20324 C 1986.31 2.06399 -0.203545 0
M  V30 20325 C 1986.74 1.50345 1.1304 0
M  V30 20326 O 1986.1 0.621837 1.70302 0
M  V30 20327 C 1986.14 3.60293 -0.148884 0
M  V30 20328 O 1985.25 4.02843 0.882667 0
M  V30 20329 H 1984.59 0.655698 -0.104672 0
M  V30 20330 H 1987.12 1.82572 -0.923502 0
M  V30 20331 H 1987.13 4.07991 0.0273375 0
M  V30 20332 H 1985.8 4.00464 -1.12256 0
M  V30 20333 H 1984.38 3.66694 0.677506 0
M  V30 20334 N 1986.57 0.417871 1.51959 0
M  V30 20335 C 1987.81 -0.155282 2.02205 0
M  V30 20336 C 1988.15 -1.44044 1.3025 0
M  V30 20337 O 1987.42 -1.90098 0.411449 0
M  V30 20338 C 1987.7 -0.394038 3.57938 0
M  V30 20339 C 1987.56 0.908404 4.40532 0
M  V30 20340 C 1988.88 -1.17238 4.24197 0
M  V30 20341 H 1985.99 -0.0549616 0.734948 0
M  V30 20342 H 1988.64 0.553053 1.81773 0
M  V30 20343 H 1986.79 -0.997422 3.75478 0
M  V30 20344 H 1988.46 1.54427 4.34684 0
M  V30 20345 H 1986.7 1.51743 4.06395 0
M  V30 20346 H 1987.37 0.69563 5.47599 0
M  V30 20347 H 1989.85 -0.661461 4.10809 0
M  V30 20348 H 1988.72 -1.30818 5.33083 0
M  V30 20349 H 1988.99 -2.19534 3.83741 0
M  V30 20350 N 1988.04 -1.56898 0.148573 0
M  V30 20351 C 1989.29 -1.96466 -0.50289 0
M  V30 20352 C 1989.62 -1.03355 -1.64412 0
M  V30 20353 O 1988.9 -0.0762411 -1.94351 0
M  V30 20354 C 1989.18 -3.45717 -1.00757 0
M  V30 20355 C 1989.03 -4.49605 0.132277 0
M  V30 20356 C 1990.35 -3.97506 -1.88883 0
M  V30 20357 H 1987.47 -0.714345 -0.181328 0
M  V30 20358 H 1990.11 -1.88601 0.230117 0
M  V30 20359 H 1988.26 -3.5255 -1.6322 0
M  V30 20360 H 1989.94 -4.54851 0.76867 0
M  V30 20361 H 1988.18 -4.26524 0.791189 0
M  V30 20362 H 1988.85 -5.51375 -0.262585 0
M  V30 20363 H 1991.33 -3.93162 -1.36246 0
M  V30 20364 H 1990.2 -5.02399 -2.21104 0
M  V30 20365 H 1990.46 -3.39956 -2.82635 0
M  V30 20366 N 1989.52 0.125209 -1.57102 0
M  V30 20367 C 1990.77 0.832627 -1.83712 0
M  V30 20368 C 1991.08 1.81336 -0.733261 0
M  V30 20369 O 1992.29 2.56651 -0.885592 0
M  V30 20370 C 1990.75 1.53143 -3.25692 0
M  V30 20371 C 1990.35 0.592004 -4.44071 0
M  V30 20372 C 1992.1 2.22435 -3.61556 0
M  V30 20373 C 1990.01 1.29368 -5.77077 0
M  V30 20374 H 1988.94 0.314685 -0.685193 0
M  V30 20375 H 1991.59 0.0853544 -1.83301 0
M  V30 20376 H 1989.97 2.32511 -3.20554 0
M  V30 20377 H 1991.14 -0.16801 -4.60494 0
M  V30 20378 H 1989.46 0.00637692 -4.164 0
M  V30 20379 H 1992.05 2.75611 -4.58195 0
M  V30 20380 H 1992.4 2.99947 -2.88683 0
M  V30 20381 H 1992.93 1.49962 -3.68451 0
M  V30 20382 H 1989.67 0.559975 -6.53104 0
M  V30 20383 H 1989.19 2.02586 -5.64552 0
M  V30 20384 H 1990.87 1.8286 -6.20622 0
M  V30 20385 N 1991 1.52564 0.395213 0
M  V30 20386 C 1991.95 1.77531 1.50285 0
M  V30 20387 C 1992.94 0.642976 1.56723 0
M  V30 20388 O 1994.15 0.825323 1.59964 0
M  V30 20389 H 1990.52 0.561636 0.500069 0
M  V30 20390 H 1992.49 2.70298 1.26418 0
M  V30 20391 C 1991.24 1.95557 2.87494 0
M  V30 20392 H 1990.57 2.82114 2.83288 0
M  V30 20393 H 1992.01 2.17019 3.64251 0
M  V30 20394 C 1990.47 0.726406 3.28976 0
M  V30 20395 O 1991 -0.0991246 4.01578 0
M  V30 20396 N 1989.2 0.558299 2.85187 0
M  V30 20397 H 1988.75 1.2312 2.26272 0
M  V30 20398 H 1988.71 -0.262779 3.133 0
M  V30 20399 N 1992.48 -0.653289 1.43422 0
M  V30 20400 C 1993.71 -1.43884 1.4826 0
M  V30 20401 C 1994.12 -1.88941 0.099053 0
M  V30 20402 O 1993.46 -1.60087 -0.900983 0
M  V30 20403 C 1993.52 -2.70658 2.3661 0
M  V30 20404 C 1993.19 -2.47542 3.84151 0
M  V30 20405 C 1994.18 -2.10769 4.75261 0
M  V30 20406 C 1991.87 -2.61868 4.28638 0
M  V30 20407 C 1993.86 -1.8862 6.08853 0
M  V30 20408 C 1991.55 -2.39334 5.62283 0
M  V30 20409 C 1992.55 -2.02766 6.52208 0
M  V30 20410 O 1992.23 -1.80467 7.83382 0
M  V30 20411 H 1991.97 -0.448491 0.505798 0
M  V30 20412 H 1994.52 -0.808217 1.88831 0
M  V30 20413 H 1992.75 -3.3628 1.90927 0
M  V30 20414 H 1994.44 -3.32607 2.32652 0
M  V30 20415 H 1995.21 -1.99277 4.42169 0
M  V30 20416 H 1991.08 -2.89306 3.58919 0
M  V30 20417 H 1994.63 -1.60001 6.79003 0
M  V30 20418 H 1990.53 -2.50429 5.94942 0
M  V30 20419 H 1991.29 -1.94893 7.94959 0
M  V30 20420 N 1993.96 -1.29952 -0.891648 0
M  V30 20421 C 1995.18 -1.21297 -1.67615 0
M  V30 20422 C 1995.6 0.225203 -1.87452 0
M  V30 20423 O 1994.96 1.14977 -1.41727 0
M  V30 20424 C 1995.01 -1.93074 -3.05622 0
M  V30 20425 O 1994.73 -3.31276 -2.86684 0
M  V30 20426 C 1996.23 -1.90996 -4.00044 0
M  V30 20427 H 1993.45 -0.420057 -0.523253 0
M  V30 20428 H 1995.99 -1.71463 -1.11448 0
M  V30 20429 H 1994.15 -1.46724 -3.5854 0
M  V30 20430 H 1994.56 -3.67538 -3.74187 0
M  V30 20431 H 1996.04 -2.45768 -4.94269 0
M  V30 20432 H 1996.51 -0.887331 -4.30143 0
M  V30 20433 H 1997.12 -2.37127 -3.53059 0
M  V30 20434 N 1995.44 1.1031 -1.12559 0
M  V30 20435 C 1996.35 2.20257 -0.807721 0
M  V30 20436 C 1997.36 1.728 0.203997 0
M  V30 20437 O 1998.54 2.01365 0.0372766 0
M  V30 20438 C 1995.6 3.4566 -0.26839 0
M  V30 20439 C 1994.66 4.07844 -1.3402 0
M  V30 20440 C 1993.9 5.27261 -0.826511 0
M  V30 20441 O 1994.12 5.6939 0.339244 0
M  V30 20442 O 1993.05 5.80335 -1.5967 0
M  V30 20443 H 1996.88 2.49882 -1.72606 0
M  V30 20444 H 1994.46 1.19071 -0.902352 0
M  V30 20445 H 1996.35 4.21391 0.0274321 0
M  V30 20446 H 1995.02 3.17658 0.622489 0
M  V30 20447 H 1993.93 3.33791 -1.68921 0
M  V30 20448 H 1995.26 4.40051 -2.20489 0
M  V30 20449 N 1996.91 0.917694 1.28125 0
M  V30 20450 C 1997.85 0.366394 2.26253 0
M  V30 20451 C 1998.86 -0.497338 1.55017 0
M  V30 20452 O 2000.05 -0.31158 1.7576 0
M  V30 20453 C 1997.15 -0.494558 3.35272 0
M  V30 20454 C 1996.32 0.34757 4.36017 0
M  V30 20455 C 1995.38 -0.449109 5.2428 0
M  V30 20456 O 1994.41 0.139705 5.69029 0
M  V30 20457 N 1995.61 -1.75125 5.53454 0
M  V30 20458 H 1998.37 1.20986 2.74194 0
M  V30 20459 H 1995.93 0.784058 1.41648 0
M  V30 20460 H 1997.93 -1.03436 3.91258 0
M  V30 20461 H 1996.5 -1.23875 2.87008 0
M  V30 20462 H 1995.72 1.06872 3.79437 0
M  V30 20463 H 1997 0.923647 5.00346 0
M  V30 20464 H 1996.4 -2.2521 5.18938 0
M  V30 20465 H 1994.96 -2.23778 6.12182 0
M  V30 20466 N 1998.39 -1.42074 0.682102 0
M  V30 20467 C 1999.32 -2.33489 0.0224223 0
M  V30 20468 C 2000.3 -1.51082 -0.781557 0
M  V30 20469 O 2001.49 -1.79662 -0.737243 0
M  V30 20470 C 1998.62 -3.34773 -0.92434 0
M  V30 20471 C 1997.57 -4.2739 -0.228431 0
M  V30 20472 C 1996.9 -5.1894 -1.28863 0
M  V30 20473 C 1998.2 -5.14539 0.897035 0
M  V30 20474 H 1999.89 -2.88901 0.785898 0
M  V30 20475 H 1997.44 -1.38913 0.379376 0
M  V30 20476 H 1999.39 -3.97641 -1.39497 0
M  V30 20477 H 1998.11 -2.77681 -1.71932 0
M  V30 20478 H 1996.77 -3.65927 0.222034 0
M  V30 20479 H 1996.42 -4.5817 -2.07579 0
M  V30 20480 H 1996.12 -5.81736 -0.828084 0
M  V30 20481 H 1997.65 -5.84683 -1.76005 0
M  V30 20482 H 1999.06 -5.71051 0.507296 0
M  V30 20483 H 1997.46 -5.86206 1.28383 0
M  V30 20484 H 1998.53 -4.52505 1.74263 0
M  V30 20485 N 1999.87 -0.425924 -1.51735 0
M  V30 20486 C 2000.8 0.382011 -2.30354 0
M  V30 20487 C 2001.78 1.03124 -1.35276 0
M  V30 20488 O 2002.97 1.03705 -1.64191 0
M  V30 20489 C 2000.1 1.48978 -3.13724 0
M  V30 20490 C 1999.05 0.964659 -4.16987 0
M  V30 20491 C 1998.38 2.1673 -4.88807 0
M  V30 20492 C 1999.68 0.00700314 -5.223 0
M  V30 20493 H 2001.37 -0.274043 -2.98143 0
M  V30 20494 H 1998.92 -0.133238 -1.43382 0
M  V30 20495 H 2000.87 2.06211 -3.67498 0
M  V30 20496 H 1999.59 2.17396 -2.43735 0
M  V30 20497 H 1998.25 0.414618 -3.64248 0
M  V30 20498 H 1997.9 2.83741 -4.15331 0
M  V30 20499 H 1997.6 1.82239 -5.58626 0
M  V30 20500 H 1999.12 2.74538 -5.454 0
M  V30 20501 H 2000.54 0.488665 -5.71214 0
M  V30 20502 H 1998.93 -0.249924 -5.99579 0
M  V30 20503 H 2000 -0.933195 -4.75836 0
M  V30 20504 N 2001.35 1.56817 -0.156891 0
M  V30 20505 C 2002.76 1.58349 0.199431 0
M  V30 20506 C 2002.96 1.17163 1.63937 0
M  V30 20507 O 2002.02 0.87651 2.36799 0
M  V30 20508 C 2003.33 3.00622 -0.0682996 0
M  V30 20509 C 2004.88 3.13 -0.00536951 0
M  V30 20510 C 2005.36 4.57339 -0.245899 0
M  V30 20511 N 2006.85 4.62797 -0.19317 0
M  V30 20512 C 2007.58 5.72308 -0.353652 0
M  V30 20513 N 2007.08 6.90431 -0.5724 0
M  V30 20514 N 2008.87 5.61349 -0.290563 0
M  V30 20515 H 2001.02 1.8188 -1.09697 0
M  V30 20516 H 2003.28 0.842304 -0.435002 0
M  V30 20517 H 2002.99 3.3518 -1.06524 0
M  V30 20518 H 2002.86 3.71616 0.646647 0
M  V30 20519 H 2005.25 2.78277 0.98213 0
M  V30 20520 H 2005.33 2.44472 -0.752801 0
M  V30 20521 H 2004.98 4.92768 -1.23054 0
M  V30 20522 H 2004.91 5.24007 0.521974 0
M  V30 20523 H 2007.4 3.77889 -0.0291566 0
M  V30 20524 H 2007.71 7.69761 -0.684694 0
M  V30 20525 H 2006.06 6.92328 -0.608841 0
M  V30 20526 H 2009.25 4.67945 -0.120361 0
M  V30 20527 H 2009.42 6.46644 -0.419064 0
M  V30 20528 N 2002.83 -0.116876 1.57166 0
M  V30 20529 C 2004.07 -0.822659 1.84599 0
M  V30 20530 C 2004.39 -1.80315 0.742392 0
M  V30 20531 O 2003.66 -1.94505 -0.233411 0
M  V30 20532 H 2002.24 -0.306797 0.681091 0
M  V30 20533 H 2004.91 -0.103693 1.94624 0
M  V30 20534 H 2004 -1.36659 2.8059 0
M  V30 20535 N 2004.3 -1.52772 -0.387116 0
M  V30 20536 C 2005.23 -1.80654 -1.47941 0
M  V30 20537 C 2006.21 -0.658677 -1.56829 0
M  V30 20538 O 2007.4 -0.906449 -1.71747 0
M  V30 20539 C 2004.53 -1.97709 -2.85532 0
M  V30 20540 C 2003.48 -3.13404 -2.91482 0
M  V30 20541 C 2002.81 -3.15717 -4.3154 0
M  V30 20542 C 2004.11 -4.52437 -2.60957 0
M  V30 20543 H 2005.8 -2.72123 -1.24858 0
M  V30 20544 H 2003.35 -1.30941 -0.59921 0
M  V30 20545 H 2005.3 -2.15798 -3.61952 0
M  V30 20546 H 2004.03 -1.02931 -3.09956 0
M  V30 20547 H 2002.69 -2.95102 -2.1751 0
M  V30 20548 H 2002.33 -2.18618 -4.53007 0
M  V30 20549 H 2002.03 -3.93437 -4.36441 0
M  V30 20550 H 2003.56 -3.35963 -5.09864 0
M  V30 20551 H 2004.97 -4.70831 -3.27095 0
M  V30 20552 H 2003.37 -5.32238 -2.77205 0
M  V30 20553 H 2004.44 -4.59022 -1.5629 0
M  V30 20554 N 2005.78 0.645673 -1.43767 0
M  V30 20555 C 2007.01 1.43799 -1.49454 0
M  V30 20556 C 2007.43 1.87742 -0.115948 0
M  V30 20557 O 2006.79 1.57845 0.891891 0
M  V30 20558 C 2006.84 2.64416 -2.45186 0
M  V30 20559 O 2005.94 3.63742 -1.94334 0
M  V30 20560 H 2005.28 0.430858 -0.50523 0
M  V30 20561 H 2007.81 0.789424 -1.88757 0
M  V30 20562 H 2007.82 3.12139 -2.62741 0
M  V30 20563 H 2006.5 2.31776 -3.4533 0
M  V30 20564 H 2005.07 3.22926 -1.86476 0
M  V30 20565 N 2007.26 1.30423 0.884744 0
M  V30 20566 C 2008.49 1.22007 1.66727 0
M  V30 20567 C 2008.9 -0.219474 1.87923 0
M  V30 20568 O 2008.24 -1.1569 1.42694 0
M  V30 20569 C 2008.3 1.87825 3.06532 0
M  V30 20570 C 2007.97 3.37154 3.08507 0
M  V30 20571 C 2008.96 4.33143 2.87547 0
M  V30 20572 C 2006.65 3.78604 3.30097 0
M  V30 20573 C 2008.64 5.68557 2.88135 0
M  V30 20574 C 2006.33 5.14136 3.30314 0
M  V30 20575 C 2007.33 6.08923 3.09357 0
M  V30 20576 O 2007.02 7.41979 3.09391 0
M  V30 20577 H 2006.75 0.423347 0.527023 0
M  V30 20578 H 2009.3 1.72587 1.11369 0
M  V30 20579 H 2007.53 1.31776 3.63555 0
M  V30 20580 H 2009.22 1.73527 3.66938 0
M  V30 20581 H 2009.99 4.0245 2.70664 0
M  V30 20582 H 2005.87 3.05269 3.45444 0
M  V30 20583 H 2009.41 6.42516 2.71696 0
M  V30 20584 H 2005.31 5.44469 3.46733 0
M  V30 20585 H 2006.07 7.5097 3.25555 0
M  V30 20586 N 2008.74 -1.09711 1.13142 0
M  V30 20587 C 2009.67 -2.18301 0.828662 0
M  V30 20588 C 2010.65 -1.6879 -0.210733 0
M  V30 20589 O 2011.83 -1.94073 -0.0702977 0
M  V30 20590 C 2008.96 -3.46081 0.290674 0
M  V30 20591 C 2007.92 -4.0891 1.26398 0
M  V30 20592 C 2007.24 -5.3148 0.585887 0
M  V30 20593 C 2008.54 -4.51751 2.62142 0
M  V30 20594 H 2010.24 -2.43885 1.73668 0
M  V30 20595 H 2007.78 -1.17216 0.836449 0
M  V30 20596 H 2009.74 -4.21347 0.0665509 0
M  V30 20597 H 2008.46 -3.20011 -0.652716 0
M  V30 20598 H 2007.12 -3.3566 1.47405 0
M  V30 20599 H 2006.77 -5.01689 -0.362883 0
M  V30 20600 H 2006.47 -5.7447 1.23522 0
M  V30 20601 H 2007.99 -6.09472 0.370976 0
M  V30 20602 H 2009.41 -5.18255 2.45121 0
M  V30 20603 H 2007.8 -5.05615 3.23223 0
M  V30 20604 H 2008.87 -3.64297 3.20025 0
M  V30 20605 N 2010.22 -0.924476 -1.27637 0
M  V30 20606 C 2011.17 -0.392138 -2.24602 0
M  V30 20607 C 2012.15 0.501783 -1.52876 0
M  V30 20608 O 2013.34 0.339754 -1.73709 0
M  V30 20609 C 2010.47 0.356902 -3.4144 0
M  V30 20610 C 2009.56 -0.553352 -4.20475 0
M  V30 20611 N 2009.95 -1.67175 -4.77374 0
M  V30 20612 C 2008.25 -0.355752 -4.44579 0
M  V30 20613 C 2008.95 -2.23762 -5.36941 0
M  V30 20614 N 2007.92 -1.52759 -5.21695 0
M  V30 20615 H 2011.73 -1.24612 -2.66175 0
M  V30 20616 H 2009.24 -0.778373 -1.42531 0
M  V30 20617 H 2011.24 0.755192 -4.10003 0
M  V30 20618 H 2009.9 1.20785 -3.01399 0
M  V30 20619 H 2010.91 -2.05418 -4.7542 0
M  V30 20620 H 2007.58 0.454798 -4.15015 0
M  V30 20621 H 2008.97 -3.17902 -5.91936 0
M  V30 20622 N 2011.69 1.41711 -0.689627 0
M  V30 20623 C 2012.6 2.34591 -0.0208935 0
M  V30 20624 C 2013.62 1.55906 0.772616 0
M  V30 20625 O 2014.8 1.88412 0.711542 0
M  V30 20626 C 2011.86 3.34589 0.908354 0
M  V30 20627 C 2010.92 4.29165 0.107717 0
M  V30 20628 C 2010.16 5.24386 0.992705 0
M  V30 20629 O 2010.38 5.24907 2.23224 0
M  V30 20630 O 2009.31 6.00249 0.445563 0
M  V30 20631 H 2013.14 2.93343 -0.786347 0
M  V30 20632 H 2010.72 1.42464 -0.449929 0
M  V30 20633 H 2012.61 3.95982 1.44138 0
M  V30 20634 H 2011.28 2.78288 1.6534 0
M  V30 20635 H 2010.19 3.71139 -0.469771 0
M  V30 20636 H 2011.52 4.88547 -0.598537 0
M  V30 20637 N 2013.17 0.433965 1.51507 0
M  V30 20638 C 2014.12 -0.393604 2.29246 0
M  V30 20639 C 2015.11 -1.02389 1.34955 0
M  V30 20640 O 2016.32 -0.959241 1.52311 0
M  V30 20641 H 2012.7 -0.14574 0.737742 0
M  V30 20642 H 2014.67 0.282942 2.97056 0
M  V30 20643 C 2013.42 -1.48425 3.14428 0
M  V30 20644 H 2012.74 -1.00862 3.86868 0
M  V30 20645 H 2014.18 -2.03662 3.71884 0
M  V30 20646 C 2012.64 -2.46561 2.29585 0
M  V30 20647 O 2013.17 -3.5102 1.95315 0
M  V30 20648 N 2011.37 -2.17368 1.92872 0
M  V30 20649 H 2010.92 -1.3245 2.20941 0
M  V30 20650 H 2010.88 -2.8327 1.36402 0
M  V30 20651 N 2014.65 -1.56732 0.165206 0
M  V30 20652 C 2015.58 -2.1483 -0.798785 0
M  V30 20653 C 2016.6 -1.10232 -1.19803 0
M  V30 20654 O 2017.78 -1.37442 -1.13894 0
M  V30 20655 C 2014.88 -2.67108 -2.08583 0
M  V30 20656 C 2014.06 -3.96299 -1.8511 0
M  V30 20657 C 2013.12 -4.33702 -2.97975 0
M  V30 20658 O 2012.14 -5.01692 -2.68875 0
M  V30 20659 N 2013.34 -3.94762 -4.25609 0
M  V30 20660 H 2016.11 -2.98173 -0.302127 0
M  V30 20661 H 2013.67 -1.6189 -0.0177783 0
M  V30 20662 H 2015.66 -2.89132 -2.8317 0
M  V30 20663 H 2014.23 -1.88388 -2.49457 0
M  V30 20664 H 2013.45 -3.82715 -0.944608 0
M  V30 20665 H 2014.74 -4.80686 -1.66788 0
M  V30 20666 H 2014.14 -3.40014 -4.52114 0
M  V30 20667 H 2012.7 -4.218 -4.96919 0
M  V30 20668 N 2016.13 0.10854 -1.57226 0
M  V30 20669 C 2017.38 0.813095 -1.84585 0
M  V30 20670 C 2017.69 1.80548 -0.752453 0
M  V30 20671 O 2018.9 2.55697 -0.912763 0
M  V30 20672 C 2017.35 1.4968 -3.27298 0
M  V30 20673 C 2016.96 0.544871 -4.44674 0
M  V30 20674 C 2018.7 2.18587 -3.63895 0
M  V30 20675 C 2016.61 1.2324 -5.78417 0
M  V30 20676 H 2015.54 0.3074 -0.688492 0
M  V30 20677 H 2018.19 0.065908 -1.83382 0
M  V30 20678 H 2016.57 2.29098 -3.23002 0
M  V30 20679 H 2017.75 -0.216842 -4.6029 0
M  V30 20680 H 2016.06 -0.0377882 -4.16383 0
M  V30 20681 H 2018.66 2.70735 -4.61093 0
M  V30 20682 H 2019 2.96868 -2.91848 0
M  V30 20683 H 2019.54 1.46046 -3.70021 0
M  V30 20684 H 2016.28 0.490673 -6.53661 0
M  V30 20685 H 2015.8 1.96587 -5.66669 0
M  V30 20686 H 2017.47 1.76267 -6.22526 0
M  V30 20687 N 2017.61 1.52975 0.379009 0
M  V30 20688 C 2018.86 1.67728 1.12028 0
M  V30 20689 C 2019.17 0.428628 1.90846 0
M  V30 20690 O 2020.37 0.456461 2.67635 0
M  V30 20691 C 2018.83 2.96454 2.04066 0
M  V30 20692 C 2018.44 4.28534 1.30624 0
M  V30 20693 C 2020.18 3.20574 2.78267 0
M  V30 20694 C 2018.09 5.4836 2.21485 0
M  V30 20695 H 2017.02 0.624902 0.421917 0
M  V30 20696 H 2019.67 1.79474 0.382288 0
M  V30 20697 H 2018.05 2.78478 2.81542 0
M  V30 20698 H 2019.23 4.57097 0.583043 0
M  V30 20699 H 2017.54 4.10754 0.683407 0
M  V30 20700 H 2020.14 4.07279 3.4645 0
M  V30 20701 H 2020.48 2.36066 3.42898 0
M  V30 20702 H 2021.01 3.39162 2.0788 0
M  V30 20703 H 2017.75 6.35305 1.61455 0
M  V30 20704 H 2017.27 5.24095 2.91692 0
M  V30 20705 H 2018.95 5.82626 2.81346 0
M  V30 20706 N 2019.08 -0.63804 1.44107 0
M  V30 20707 C 2020.03 -1.74386 1.46879 0
M  V30 20708 C 2021.02 -1.57366 0.335387 0
M  V30 20709 O 2022.21 -1.6722 0.580223 0
M  V30 20710 C 2019.34 -3.13044 1.40919 0
M  V30 20711 C 2018.43 -3.35559 2.59347 0
M  V30 20712 N 2018.82 -3.28473 3.84628 0
M  V30 20713 C 2017.11 -3.66332 2.54395 0
M  V30 20714 C 2017.82 -3.51487 4.635 0
M  V30 20715 N 2016.79 -3.74029 3.94465 0
M  V30 20716 H 2020.59 -1.67355 2.41598 0
M  V30 20717 H 2018.11 -0.840261 1.38973 0
M  V30 20718 H 2020.1 -3.92337 1.40988 0
M  V30 20719 H 2018.76 -3.21246 0.472328 0
M  V30 20720 H 2019.78 -3.07545 4.16697 0
M  V30 20721 H 2016.45 -3.81557 1.69471 0
M  V30 20722 H 2017.84 -3.51659 5.72526 0
M  V30 20723 N 2020.56 -1.3089 -0.877815 0
M  V30 20724 C 2021.98 -1.09377 -1.16228 0
M  V30 20725 C 2022.18 0.140854 -2.01007 0
M  V30 20726 O 2021.23 0.83243 -2.38384 0
M  V30 20727 C 2022.55 -2.36114 -1.86201 0
M  V30 20728 C 2024.1 -2.41648 -1.98936 0
M  V30 20729 C 2024.57 -3.68245 -2.72322 0
M  V30 20730 N 2026.06 -3.69094 -2.79863 0
M  V30 20731 C 2026.8 -4.63743 -3.37239 0
M  V30 20732 N 2026.29 -5.68741 -3.95607 0
M  V30 20733 N 2028.09 -4.51275 -3.35122 0
M  V30 20734 H 2020.24 -2.10086 -0.312693 0
M  V30 20735 H 2022.5 -0.926425 -0.201101 0
M  V30 20736 H 2022.21 -3.26251 -1.31352 0
M  V30 20737 H 2022.08 -2.45311 -2.86535 0
M  V30 20738 H 2024.47 -1.51985 -2.52952 0
M  V30 20739 H 2024.55 -2.36421 -0.976675 0
M  V30 20740 H 2024.19 -4.58271 -2.18976 0
M  V30 20741 H 2024.12 -3.70736 -3.73982 0
M  V30 20742 H 2026.61 -2.93189 -2.3843 0
M  V30 20743 H 2026.93 -6.37052 -4.37475 0
M  V30 20744 H 2025.27 -5.72525 -3.94006 0
M  V30 20745 H 2028.46 -3.68426 -2.88755 0
M  V30 20746 H 2028.63 -5.25217 -3.7954 0
M  V30 20747 N 2022.04 1.0911 -1.13723 0
M  V30 20748 C 2023.32 1.77949 -0.812014 0
M  V30 20749 C 2023.7 1.99302 0.695832 0
M  V30 20750 O 2023.05 1.59704 1.63422 0
M  V30 20751 C 2023.26 3.10028 -1.60262 0
M  V30 20752 C 2024.6 3.84681 -1.79738 0
M  V30 20753 O 2025.63 3.19789 -1.56887 0
M  V30 20754 O 2024.49 5.01185 -2.17888 0
M  V30 20755 H 2021.58 0.7719 -0.296816 0
M  V30 20756 H 2024.13 1.15637 -1.24202 0
M  V30 20757 H 2022.9 2.8999 -2.62719 0
M  V30 20758 H 2022.52 3.80065 -1.16776 0
M  V30 20759 N 2023.52 0.931232 1.27145 0
M  V30 20760 C 2024.76 0.574376 1.94496 0
M  V30 20761 C 2025.1 -0.882702 1.7298 0
M  V30 20762 O 2024.37 -1.63016 1.06094 0
M  V30 20763 C 2024.66 0.905384 3.48532 0
M  V30 20764 C 2024.51 2.41647 3.79377 0
M  V30 20765 C 2025.83 0.413756 4.38151 0
M  V30 20766 H 2022.95 0.210149 0.706404 0
M  V30 20767 H 2025.59 1.16365 1.50197 0
M  V30 20768 H 2023.74 0.403903 3.86395 0
M  V30 20769 H 2025.41 2.98992 3.51286 0
M  V30 20770 H 2023.65 2.86417 3.25803 0
M  V30 20771 H 2024.32 2.5986 4.87008 0
M  V30 20772 H 2026.8 0.843592 4.07459 0
M  V30 20773 H 2025.68 0.67428 5.44743 0
M  V30 20774 H 2025.94 -0.686214 4.36742 0
M  V30 20775 N 2025 -1.41343 0.697132 0
M  V30 20776 C 2025.94 -2.30777 0.0327941 0
M  V30 20777 C 2026.91 -1.47192 -0.769652 0
M  V30 20778 O 2028.1 -1.75976 -0.737366 0
M  V30 20779 C 2025.24 -3.33252 -0.896488 0
M  V30 20780 C 2024.35 -4.31915 -0.0854899 0
M  V30 20781 C 2023.49 -5.2146 -1.01256 0
M  V30 20782 C 2022.53 -6.11791 -0.194558 0
M  V30 20783 N 2021.66 -6.93813 -1.07551 0
M  V30 20784 H 2026.5 -2.87027 0.801203 0
M  V30 20785 H 2024.04 -1.41363 0.406815 0
M  V30 20786 H 2026 -3.91216 -1.44933 0
M  V30 20787 H 2024.63 -2.78548 -1.63128 0
M  V30 20788 H 2023.68 -3.75886 0.58429 0
M  V30 20789 H 2024.99 -4.95774 0.548612 0
M  V30 20790 H 2024.15 -5.84266 -1.63457 0
M  V30 20791 H 2022.89 -4.57832 -1.68051 0
M  V30 20792 H 2021.89 -5.48032 0.440518 0
M  V30 20793 H 2023.12 -6.77474 0.469626 0
M  V30 20794 H 2021.06 -6.32792 -1.72946 0
M  V30 20795 H 2020.98 -7.54364 -0.497018 0
M  V30 20796 H 2022.25 -7.61086 -1.68429 0
M  V30 20797 N 2026.48 -0.441993 -1.51275 0
M  V30 20798 C 2027.72 0.122669 -2.01727 0
M  V30 20799 C 2028.04 1.42804 -1.32786 0
M  V30 20800 O 2027.31 1.90329 -0.463874 0
M  V30 20801 H 2025.89 0.0483227 -0.745435 0
M  V30 20802 H 2028.56 -0.585765 -1.85889 0
M  V30 20803 H 2027.65 0.295224 -3.10701 0
M  V30 20804 N 2027.95 1.56642 -0.173515 0
M  V30 20805 C 2028.92 2.16857 0.742008 0
M  V30 20806 C 2029.92 1.11721 1.1565 0
M  V30 20807 O 2031.11 1.37223 1.0731 0
M  V30 20808 C 2028.24 2.7532 2.01026 0
M  V30 20809 H 2029.43 2.99108 0.217769 0
M  V30 20810 H 2026.98 1.56115 0.0760536 0
M  V30 20811 H 2027.72 1.96808 2.57754 0
M  V30 20812 H 2027.5 3.52264 1.722 0
M  V30 20813 H 2028.99 3.21626 2.66358 0
M  V30 20814 N 2029.43 -0.1002 1.57281 0
M  V30 20815 C 2030.38 -1.14082 2.02702 0
M  V30 20816 C 2031.37 -1.41773 0.927183 0
M  V30 20817 O 2032.58 -1.41514 1.11237 0
M  V30 20818 H 2028.95 -0.385095 0.645915 0
M  V30 20819 H 2030.93 -0.731375 2.89298 0
M  V30 20820 C 2029.67 -2.45424 2.46297 0
M  V30 20821 H 2029 -2.24959 3.30505 0
M  V30 20822 H 2030.44 -3.16752 2.81859 0
M  V30 20823 C 2028.9 -3.09356 1.33418 0
M  V30 20824 O 2029.43 -3.96233 0.660494 0
M  V30 20825 N 2027.63 -2.69526 1.08646 0
M  V30 20826 H 2027.18 -1.98972 1.63609 0
M  V30 20827 H 2027.14 -3.1263 0.333186 0
M  V30 20828 N 2030.91 -1.53174 -0.370891 0
M  V30 20829 C 2031.84 -1.82213 -1.46017 0
M  V30 20830 C 2032.82 -0.675274 -1.56122 0
M  V30 20831 O 2034.01 -0.924614 -1.70776 0
M  V30 20832 C 2031.14 -2.00727 -2.83419 0
M  V30 20833 C 2030.09 -3.16478 -2.88141 0
M  V30 20834 C 2029.42 -3.20276 -4.28167 0
M  V30 20835 C 2030.72 -4.55179 -2.56143 0
M  V30 20836 H 2032.41 -2.73432 -1.21965 0
M  V30 20837 H 2029.96 -1.31569 -0.585288 0
M  V30 20838 H 2031.91 -2.19625 -3.59643 0
M  V30 20839 H 2030.63 -1.06213 -3.08847 0
M  V30 20840 H 2029.29 -2.97392 -2.14367 0
M  V30 20841 H 2028.94 -2.2341 -4.50663 0
M  V30 20842 H 2028.64 -3.98044 -4.32244 0
M  V30 20843 H 2030.16 -3.41352 -5.06272 0
M  V30 20844 H 2031.58 -4.74274 -3.22082 0
M  V30 20845 H 2029.97 -5.35148 -2.71544 0
M  V30 20846 H 2031.04 -4.60654 -1.51412 0
M  V30 20847 N 2032.39 0.630389 -1.44443 0
M  V30 20848 C 2033.32 1.75348 -1.54192 0
M  V30 20849 C 2034.3 1.65453 -0.394887 0
M  V30 20850 O 2035.48 1.84201 -0.615103 0
M  V30 20851 C 2032.61 3.13881 -1.48647 0
M  V30 20852 C 2031.57 3.38566 -2.61835 0
M  V30 20853 C 2030.89 4.77136 -2.41341 0
M  V30 20854 C 2032.19 3.31055 -4.0398 0
M  V30 20855 H 2033.89 1.67446 -2.48198 0
M  V30 20856 H 2031.43 0.804159 -1.19454 0
M  V30 20857 H 2033.39 3.92226 -1.54068 0
M  V30 20858 H 2032.11 3.22568 -0.511585 0
M  V30 20859 H 2030.77 2.62602 -2.55805 0
M  V30 20860 H 2030.42 4.82527 -1.42043 0
M  V30 20861 H 2030.12 4.9461 -3.1723 0
M  V30 20862 H 2031.64 5.57709 -2.48581 0
M  V30 20863 H 2033.06 3.99304 -4.11375 0
M  V30 20864 H 2031.45 3.60064 -4.80077 0
M  V30 20865 H 2032.52 2.28852 -4.27498 0
M  V30 20866 N 2033.87 1.31354 0.870861 0
M  V30 20867 C 2035.11 1.20348 1.61862 0
M  V30 20868 C 2035.43 -0.237373 1.94154 0
M  V30 20869 O 2036.63 -0.469111 2.67417 0
M  V30 20870 C 2035.09 2.10677 2.91793 0
M  V30 20871 C 2034.7 3.59752 2.66987 0
M  V30 20872 C 2036.44 2.08469 3.69785 0
M  V30 20873 C 2034.35 4.42092 3.92821 0
M  V30 20874 H 2033.28 0.446857 0.607317 0
M  V30 20875 H 2035.93 1.56203 0.962965 0
M  V30 20876 H 2034.31 1.6772 3.58728 0
M  V30 20877 H 2035.49 4.10949 2.08465 0
M  V30 20878 H 2033.8 3.63927 2.02351 0
M  V30 20879 H 2036.4 2.67232 4.63132 0
M  V30 20880 H 2036.74 1.07161 4.02271 0
M  V30 20881 H 2037.27 2.49621 3.09732 0
M  V30 20882 H 2034.01 5.44151 3.65486 0
M  V30 20883 H 2033.53 3.95654 4.50797 0
M  V30 20884 H 2035.21 4.54259 4.60714 0
M  V30 20885 N 2035.34 -1.08505 1.143 0
M  V30 20886 C 2036.62 -1.77515 0.82144 0
M  V30 20887 C 2037 -1.99668 -0.685253 0
M  V30 20888 O 2036.35 -1.60569 -1.62573 0
M  V30 20889 C 2036.56 -3.09174 1.61903 0
M  V30 20890 C 2037.91 -3.83722 1.81775 0
M  V30 20891 O 2038.93 -3.18952 1.58581 0
M  V30 20892 O 2037.79 -5.00023 2.20543 0
M  V30 20893 H 2034.88 -0.770315 0.300906 0
M  V30 20894 H 2037.43 -1.14976 1.24814 0
M  V30 20895 H 2036.2 -2.88593 2.64253 0
M  V30 20896 H 2035.82 -3.7944 1.1879 0
M  V30 20897 N 2036.82 -0.937962 -1.26649 0
M  V30 20898 C 2038.05 -0.59993 -1.98534 0
M  V30 20899 C 2038.47 0.817397 -1.69411 0
M  V30 20900 O 2037.83 1.55011 -0.940284 0
M  V30 20901 C 2037.88 -0.844738 -3.50566 0
M  V30 20902 O 2036.98 0.0847162 -4.12313 0
M  V30 20903 H 2036.32 -0.229839 -0.622953 0
M  V30 20904 H 2038.85 -1.26002 -1.61198 0
M  V30 20905 H 2038.86 -0.764359 -4.00776 0
M  V30 20906 H 2037.54 -1.87783 -3.71094 0
M  V30 20907 H 2036.11 -0.0464484 -3.72871 0
M  V30 20908 N 2038.3 1.40971 -0.704618 0
M  V30 20909 C 2039.53 2.05399 -0.248738 0
M  V30 20910 C 2039.94 1.53056 1.10541 0
M  V30 20911 O 2039.3 0.682534 1.69256 0
M  V30 20912 C 2039.35 3.60902 -0.207794 0
M  V30 20913 O 2039.07 4.11311 -1.50846 0
M  V30 20914 C 2040.57 4.42489 0.267977 0
M  V30 20915 H 2037.79 0.661269 -0.11386 0
M  V30 20916 H 2040.34 1.8058 -0.959745 0
M  V30 20917 H 2038.49 3.84729 0.4541 0
M  V30 20918 H 2038.91 5.05426 -1.4016 0
M  V30 20919 H 2040.38 5.51454 0.245489 0
M  V30 20920 H 2040.86 4.1926 1.30836 0
M  V30 20921 H 2041.46 4.23746 -0.363242 0
M  V30 20922 N 2039.78 0.45001 1.51039 0
M  V30 20923 C 2041.03 -0.111969 2.0179 0
M  V30 20924 C 2041.35 -1.42098 1.33541 0
M  V30 20925 O 2040.62 -1.9008 0.473962 0
M  V30 20926 H 2039.2 -0.0443688 0.745681 0
M  V30 20927 H 2041.86 0.595615 1.85576 0
M  V30 20928 H 2040.96 -0.278742 3.10853 0
M  V30 20929 N 2041.26 -1.56548 0.18182 0
M  V30 20930 C 2042.19 -2.15665 -0.775955 0
M  V30 20931 C 2043.2 -1.11496 -1.18627 0
M  V30 20932 O 2044.39 -1.38642 -1.1243 0
M  V30 20933 C 2041.49 -2.69305 -2.05738 0
M  V30 20934 C 2040.66 -3.9824 -1.80897 0
M  V30 20935 C 2039.72 -4.36838 -2.93358 0
M  V30 20936 O 2038.75 -5.04516 -2.63539 0
M  V30 20937 N 2039.95 -3.99254 -4.21398 0
M  V30 20938 H 2042.72 -2.98477 -0.270484 0
M  V30 20939 H 2040.28 -1.619 -0.000606634 0
M  V30 20940 H 2042.27 -2.92119 -2.80087 0
M  V30 20941 H 2040.84 -1.91023 -2.47445 0
M  V30 20942 H 2040.06 -3.83695 -0.903963 0
M  V30 20943 H 2041.35 -4.82428 -1.6168 0
M  V30 20944 H 2040.74 -3.44791 -4.48482 0
M  V30 20945 H 2039.3 -4.27047 -4.92417 0
M  V30 20946 N 2042.73 0.0918577 -1.57332 0
M  V30 20947 C 2044.15 0.446151 -1.53237 0
M  V30 20948 C 2044.35 1.80332 -0.899027 0
M  V30 20949 O 2043.41 2.47642 -0.492921 0
M  V30 20950 C 2044.72 0.405662 -2.97951 0
M  V30 20951 C 2046.27 0.487286 -3.09184 0
M  V30 20952 C 2046.74 0.476912 -4.5551 0
M  V30 20953 N 2048.23 0.537573 -4.6007 0
M  V30 20954 C 2048.97 0.551436 -5.70742 0
M  V30 20955 N 2048.46 0.521312 -6.90836 0
M  V30 20956 N 2050.26 0.59649 -5.58926 0
M  V30 20957 H 2042.41 -0.797061 -1.96877 0
M  V30 20958 H 2044.67 -0.297022 -0.900268 0
M  V30 20959 H 2044.38 -0.524467 -3.47768 0
M  V30 20960 H 2044.25 1.22343 -3.56808 0
M  V30 20961 H 2046.64 1.40783 -2.59353 0
M  V30 20962 H 2046.72 -0.358678 -2.53273 0
M  V30 20963 H 2046.36 -0.439705 -5.05993 0
M  V30 20964 H 2046.29 1.34013 -5.09262 0
M  V30 20965 H 2048.78 0.565916 -3.73639 0
M  V30 20966 H 2049.1 0.535263 -7.70944 0
M  V30 20967 H 2047.44 0.48831 -6.93282 0
M  V30 20968 H 2050.63 0.617576 -4.64008 0
M  V30 20969 H 2050.81 0.603826 -6.45181 0
M  V30 20970 N 2044.21 1.53368 0.362763 0
M  V30 20971 C 2045.14 1.82984 1.45048 0
M  V30 20972 C 2046.12 0.683544 1.55762 0
M  V30 20973 O 2047.31 0.933658 1.70283 0
M  V30 20974 C 2044.44 2.02227 2.8235 0
M  V30 20975 C 2043.39 3.18002 2.86459 0
M  V30 20976 C 2042.72 3.22543 4.26463 0
M  V30 20977 C 2044.02 4.56531 2.53726 0
M  V30 20978 H 2045.71 2.74075 1.20513 0
M  V30 20979 H 2043.26 1.31877 0.578302 0
M  V30 20980 H 2045.21 2.21529 3.58473 0
M  V30 20981 H 2043.94 1.07849 3.08279 0
M  V30 20982 H 2042.59 2.98525 2.12787 0
M  V30 20983 H 2042.24 2.25797 4.49472 0
M  V30 20984 H 2041.94 4.00331 4.30127 0
M  V30 20985 H 2043.47 3.44032 5.04455 0
M  V30 20986 H 2044.88 4.75975 3.19563 0
M  V30 20987 H 2043.28 5.36581 2.68703 0
M  V30 20988 H 2044.35 4.61451 1.48967 0
M  V30 20989 N 2045.69 -0.62272 1.44776 0
M  V30 20990 C 2047.11 -0.941829 1.28848 0
M  V30 20991 C 2047.31 -2.00178 0.230395 0
M  V30 20992 O 2046.36 -2.49611 -0.38085 0
M  V30 20993 C 2047.68 -1.39711 2.66273 0
M  V30 20994 C 2049.22 -1.51214 2.7405 0
M  V30 20995 C 2049.7 -2.00123 4.11964 0
M  V30 20996 N 2051.19 -2.07381 4.14183 0
M  V30 20997 C 2051.92 -2.46413 5.17753 0
M  V30 20998 N 2051.42 -2.84523 6.31679 0
M  V30 20999 N 2053.21 -2.46621 5.05109 0
M  V30 21000 H 2045.36 0.0781334 2.12256 0
M  V30 21001 H 2047.63 -0.0276831 0.947596 0
M  V30 21002 H 2047.33 -0.692534 3.44814 0
M  V30 21003 H 2047.21 -2.36654 2.93726 0
M  V30 21004 H 2049.59 -2.20767 1.95822 0
M  V30 21005 H 2049.68 -0.526248 2.50328 0
M  V30 21006 H 2049.32 -1.31163 4.90672 0
M  V30 21007 H 2049.25 -2.99599 4.33068 0
M  V30 21008 H 2051.74 -1.8058 3.31963 0
M  V30 21009 H 2052.05 -3.13144 7.06513 0
M  V30 21010 H 2050.4 -2.82254 6.35104 0
M  V30 21011 H 2053.59 -2.16244 4.15158 0
M  V30 21012 H 2053.76 -2.76715 5.85946 0
M  V30 21013 N 2047.17 -1.31814 -0.863883 0
M  V30 21014 C 2048.42 -1.21205 -1.61221 0
M  V30 21015 C 2048.73 0.227073 -1.94277 0
M  V30 21016 O 2049.94 0.454922 -2.67662 0
M  V30 21017 C 2048.39 -2.12221 -2.90672 0
M  V30 21018 C 2048 -3.61163 -2.65076 0
M  V30 21019 C 2049.74 -2.10427 -3.68674 0
M  V30 21020 C 2047.65 -4.44169 -3.90471 0
M  V30 21021 H 2046.58 -0.450072 -0.604939 0
M  V30 21022 H 2049.23 -1.56711 -0.954668 0
M  V30 21023 H 2047.61 -1.6962 -3.57834 0
M  V30 21024 H 2048.79 -4.12049 -2.06283 0
M  V30 21025 H 2047.1 -3.64995 -2.00418 0
M  V30 21026 H 2049.7 -2.69684 -4.61708 0
M  V30 21027 H 2050.04 -1.09293 -4.01697 0
M  V30 21028 H 2050.58 -2.5126 -3.08404 0
M  V30 21029 H 2047.32 -5.46082 -3.62595 0
M  V30 21030 H 2046.84 -3.98039 -4.48693 0
M  V30 21031 H 2048.51 -4.56696 -4.58299 0
M  V30 21032 N 2048.65 1.07897 -1.14873 0
M  V30 21033 C 2049.61 2.13129 -0.843128 0
M  V30 21034 C 2050.61 1.60055 0.154606 0
M  V30 21035 O 2051.8 1.74041 -0.0743665 0
M  V30 21036 C 2048.93 3.39924 -0.257826 0
M  V30 21037 H 2050.12 2.41671 -1.77581 0
M  V30 21038 H 2047.68 1.23696 -0.955463 0
M  V30 21039 H 2048.41 3.17019 0.683318 0
M  V30 21040 H 2048.2 3.79745 -0.97654 0
M  V30 21041 H 2049.69 4.17555 -0.0613986 0
M  V30 21042 N 2050.12 0.944665 1.2615 0
M  V30 21043 C 2051.4 0.511841 1.88784 0
M  V30 21044 C 2051.78 -1.01066 1.85335 0
M  V30 21045 O 2051.13 -1.87217 1.31004 0
M  V30 21046 C 2051.34 1.07714 3.31962 0
M  V30 21047 C 2052.69 1.14792 4.08788 0
M  V30 21048 O 2053.71 1.02798 3.41044 0
M  V30 21049 O 2052.57 1.3349 5.29946 0
M  V30 21050 H 2049.66 0.167346 0.809892 0
M  V30 21051 H 2052.21 1.03745 1.34294 0
M  V30 21052 H 2050.98 2.12066 3.28852 0
M  V30 21053 H 2050.61 0.534184 3.93995 0
M  V30 21054 N 2051.6 -1.40596 0.712085 0
M  V30 21055 C 2052.85 -2.0095 0.250087 0
M  V30 21056 C 2053.18 -1.5645 -1.15558 0
M  V30 21057 O 2052.43 -0.773994 -1.79744 0
M  V30 21058 C 2052.73 -3.56346 0.27427 0
M  V30 21059 C 2052.4 -4.20416 1.62975 0
M  V30 21060 C 2051.06 -4.37632 2.0008 0
M  V30 21061 C 2053.41 -4.56187 2.52076 0
M  V30 21062 C 2050.74 -4.87899 3.2584 0
M  V30 21063 C 2053.09 -5.07853 3.77185 0
M  V30 21064 C 2051.76 -5.23277 4.14412 0
M  V30 21065 H 2051.03 -0.735327 0.0915134 0
M  V30 21066 H 2053.67 -1.68257 0.914427 0
M  V30 21067 H 2051.98 -3.88927 -0.473638 0
M  V30 21068 H 2053.67 -4.00873 -0.100977 0
M  V30 21069 H 2050.26 -4.07403 1.3312 0
M  V30 21070 H 2054.45 -4.42527 2.24686 0
M  V30 21071 H 2049.7 -4.98026 3.54655 0
M  V30 21072 H 2053.88 -5.34509 4.46401 0
M  V30 21073 H 2051.51 -5.6199 5.11929 0
M  V30 21074 N 2053.08 -0.458013 -1.50798 0
M  V30 21075 C 2054.33 0.101266 -2.01846 0
M  V30 21076 C 2054.65 1.41388 -1.34293 0
M  V30 21077 O 2053.92 1.89826 -0.484035 0
M  V30 21078 H 2052.5 0.0404137 -0.745906 0
M  V30 21079 H 2055.16 -0.605448 -1.85257 0
M  V30 21080 H 2054.26 0.262253 -3.10996 0
M  V30 21081 N 2054.56 1.56449 -0.190119 0
M  V30 21082 C 2055.52 2.17632 0.718966 0
M  V30 21083 C 2056.52 1.12941 1.14459 0
M  V30 21084 O 2057.71 1.38353 1.05849 0
M  V30 21085 C 2054.84 2.77437 1.98095 0
M  V30 21086 H 2056.04 2.99322 0.186033 0
M  V30 21087 H 2053.59 1.56187 0.0594913 0
M  V30 21088 H 2054.33 1.99531 2.55652 0
M  V30 21089 H 2054.11 3.5407 1.68454 0
M  V30 21090 H 2055.6 3.24433 2.62932 0
M  V30 21091 N 2056.04 -0.0835127 1.57379 0
M  V30 21092 C 2057 -1.08477 2.01905 0
M  V30 21093 C 2058 -1.32278 0.91428 0
M  V30 21094 O 2059.19 -1.28196 1.17947 0
M  V30 21095 C 2056.32 -2.43121 2.38967 0
M  V30 21096 H 2057.52 -0.701256 2.91586 0
M  V30 21097 H 2055.07 -0.328903 1.528 0
M  V30 21098 H 2055.8 -2.86326 1.52275 0
M  V30 21099 H 2055.59 -2.2719 3.19573 0
M  V30 21100 H 2057.08 -3.15113 2.74032 0
M  V30 21101 N 2057.52 -1.53558 -0.354624 0
M  V30 21102 C 2058.48 -1.80084 -1.41783 0
M  V30 21103 C 2059.48 -0.671552 -1.46105 0
M  V30 21104 O 2060.67 -0.939801 -1.46674 0
M  V30 21105 C 2057.8 -1.93284 -2.8081 0
M  V30 21106 H 2058.99 -2.75049 -1.19532 0
M  V30 21107 H 2056.55 -1.44802 -0.588388 0
M  V30 21108 H 2057.28 -1.00423 -3.0836 0
M  V30 21109 H 2057.07 -2.75432 -2.7907 0
M  V30 21110 H 2058.56 -2.15361 -3.57784 0
M  V30 21111 N 2058.99 0.615033 -1.45104 0
M  V30 21112 C 2060.41 0.934983 -1.29345 0
M  V30 21113 C 2060.61 2.00053 -0.241008 0
M  V30 21114 O 2059.67 2.4981 0.367607 0
M  V30 21115 C 2060.98 1.38297 -2.6701 0
M  V30 21116 C 2062.53 1.49759 -2.74848 0
M  V30 21117 C 2063 1.97936 -4.1302 0
M  V30 21118 N 2064.49 2.05181 -4.15277 0
M  V30 21119 C 2065.23 2.43664 -5.19052 0
M  V30 21120 N 2064.72 2.81169 -6.33179 0
M  V30 21121 N 2066.52 2.43938 -5.06409 0
M  V30 21122 H 2058.67 -0.0893888 -2.12212 0
M  V30 21123 H 2060.93 0.0226574 -0.947729 0
M  V30 21124 H 2060.64 0.674238 -3.45177 0
M  V30 21125 H 2060.51 2.35093 -2.94976 0
M  V30 21126 H 2062.9 2.19725 -1.9699 0
M  V30 21127 H 2062.98 0.512965 -2.50604 0
M  V30 21128 H 2062.62 1.28559 -4.9136 0
M  V30 21129 H 2062.55 2.97298 -4.34651 0
M  V30 21130 H 2065.04 1.78817 -3.32916 0
M  V30 21131 H 2065.36 3.09393 -7.08164 0
M  V30 21132 H 2063.7 2.78882 -6.36592 0
M  V30 21133 H 2066.89 2.1404 -4.16299 0
M  V30 21134 H 2067.07 2.73604 -5.87405 0
M  V30 21135 N 2060.47 1.3227 0.85688 0
M  V30 21136 C 2061.4 1.23626 1.98088 0
M  V30 21137 C 2062.38 0.120585 1.69672 0
M  V30 21138 O 2063.57 0.307383 1.91752 0
M  V30 21139 C 2060.7 0.956279 3.33875 0
M  V30 21140 C 2059.65 2.03295 3.76637 0
M  V30 21141 C 2058.98 1.60541 5.1003 0
M  V30 21142 C 2060.28 3.4477 3.92341 0
M  V30 21143 H 2061.97 2.17665 2.05578 0
M  V30 21144 H 2059.52 1.04788 0.987703 0
M  V30 21145 H 2061.47 0.882366 4.12059 0
M  V30 21146 H 2060.19 -0.0197585 3.26594 0
M  V30 21147 H 2058.85 2.09698 3.00703 0
M  V30 21148 H 2058.5 0.616883 4.99203 0
M  V30 21149 H 2058.2 2.32578 5.39612 0
M  V30 21150 H 2059.73 1.54582 5.90709 0
M  V30 21151 H 2061.14 3.40968 4.60884 0
M  V30 21152 H 2059.54 4.15137 4.33338 0
M  V30 21153 H 2060.61 3.84594 2.95322 0
M  V30 21154 N 2061.95 -1.07287 1.15444 0
M  V30 21155 C 2062.91 -2.12679 0.854419 0
M  V30 21156 C 2063.91 -1.60135 -0.146116 0
M  V30 21157 O 2065.1 -1.73999 0.0835953 0
M  V30 21158 C 2062.23 -3.39782 0.275849 0
M  V30 21159 H 2063.43 -2.40726 1.7886 0
M  V30 21160 H 2060.98 -1.23187 0.96201 0
M  V30 21161 H 2061.72 -3.17377 -0.666496 0
M  V30 21162 H 2061.5 -3.79222 0.996665 0
M  V30 21163 H 2062.99 -4.17516 0.0835417 0
M  V30 21164 N 2063.43 -0.951342 -1.25647 0
M  V30 21165 C 2064.65 -0.620954 -1.97886 0
M  V30 21166 C 2065.08 0.799383 -1.70269 0
M  V30 21167 O 2064.44 1.54005 -0.956672 0
M  V30 21168 C 2064.48 -0.881873 -3.4965 0
M  V30 21169 O 2063.59 0.0409801 -4.1238 0
M  V30 21170 H 2062.93 -0.236433 -0.62048 0
M  V30 21171 H 2065.46 -1.27704 -1.59852 0
M  V30 21172 H 2065.47 -0.806823 -3.99943 0
M  V30 21173 H 2064.14 -1.91708 -3.69081 0
M  V30 21174 H 2062.72 -0.0859938 -3.72801 0
M  V30 21175 N 2064.91 1.40216 -0.719531 0
M  V30 21176 C 2065.85 2.30695 -0.0695046 0
M  V30 21177 C 2066.82 1.48398 0.746138 0
M  V30 21178 O 2068.01 1.77127 0.709277 0
M  V30 21179 C 2065.15 3.34636 0.843357 0
M  V30 21180 C 2064.26 4.31997 0.0167651 0
M  V30 21181 C 2063.4 5.23005 0.929469 0
M  V30 21182 C 2062.43 6.12023 0.0972024 0
M  V30 21183 N 2061.57 6.95437 0.964997 0
M  V30 21184 H 2066.41 2.85716 -0.846765 0
M  V30 21185 H 2063.95 1.40698 -0.429253 0
M  V30 21186 H 2065.91 3.93473 1.38691 0
M  V30 21187 H 2064.54 2.81108 1.58676 0
M  V30 21188 H 2063.59 3.74909 -0.644016 0
M  V30 21189 H 2064.9 4.94838 -0.627416 0
M  V30 21190 H 2064.05 5.86792 1.54141 0
M  V30 21191 H 2062.79 4.60447 1.60746 0
M  V30 21192 H 2061.8 5.47262 -0.52765 0
M  V30 21193 H 2063.02 6.76641 -0.577347 0
M  V30 21194 H 2060.97 6.35463 1.62857 0
M  V30 21195 H 2060.89 7.5506 0.376943 0
M  V30 21196 H 2062.15 7.63669 1.56299 0
M  V30 21197 N 2066.38 0.466004 1.50553 0
M  V30 21198 C 2067.63 -0.09056 2.01897 0
M  V30 21199 C 2067.95 -1.40673 1.35041 0
M  V30 21200 O 2067.22 -1.89567 0.494095 0
M  V30 21201 H 2065.8 -0.0364574 0.74611 0
M  V30 21202 H 2068.46 0.615265 1.84934 0
M  V30 21203 H 2067.56 -0.245757 3.11131 0
M  V30 21204 N 2067.86 -1.56346 0.198413 0
M  V30 21205 C 2069.09 -2.02058 -0.444989 0
M  V30 21206 C 2069.5 -1.07852 -1.54963 0
M  V30 21207 O 2068.86 -0.0839717 -1.82307 0
M  V30 21208 C 2068.91 -3.47445 -0.99822 0
M  V30 21209 O 2068.63 -4.38056 0.0623476 0
M  V30 21210 C 2070.13 -4.08691 -1.71717 0
M  V30 21211 H 2067.35 -0.661691 -0.111383 0
M  V30 21212 H 2069.9 -2.02166 0.308092 0
M  V30 21213 H 2068.05 -3.48026 -1.70167 0
M  V30 21214 H 2068.47 -5.23331 -0.349939 0
M  V30 21215 H 2069.94 -5.1226 -2.05654 0
M  V30 21216 H 2070.42 -3.52341 -2.62207 0
M  V30 21217 H 2071.02 -4.11892 -1.05949 0
M  V30 21218 N 2069.34 0.0751653 -1.57421 0
M  V30 21219 C 2070.59 0.773427 -1.86715 0
M  V30 21220 C 2070.91 1.78283 -0.789938 0
M  V30 21221 O 2070.18 1.95055 0.18176 0
M  V30 21222 H 2068.76 0.288632 -0.688985 0
M  V30 21223 H 2071.42 0.0520552 -1.9483 0
M  V30 21224 H 2070.52 1.29172 -2.84114 0
M  V30 21225 N 2070.82 1.53744 0.346476 0
M  V30 21226 C 2071.78 1.80833 1.40826 0
M  V30 21227 C 2072.78 0.679291 1.45747 0
M  V30 21228 O 2073.97 0.947566 1.46174 0
M  V30 21229 C 2071.1 1.94771 2.79781 0
M  V30 21230 H 2072.3 2.75679 1.18071 0
M  V30 21231 H 2069.85 1.45112 0.5807 0
M  V30 21232 H 2070.58 1.02057 3.07823 0
M  V30 21233 H 2070.37 2.76908 2.77605 0
M  V30 21234 H 2071.86 2.17255 3.56637 0
M  V30 21235 N 2072.3 -0.607329 1.45428 0
M  V30 21236 C 2073.54 -1.36363 1.49163 0
M  V30 21237 C 2073.87 -1.94533 0.134827 0
M  V30 21238 O 2073.14 -1.77174 -0.835838 0
M  V30 21239 H 2071.72 -0.506225 0.549314 0
M  V30 21240 H 2074.38 -0.713138 1.81385 0
M  V30 21241 H 2073.47 -2.18292 2.23058 0
M  V30 21242 N 2073.77 -1.32722 -0.849853 0
M  V30 21243 C 2074.68 -1.2407 -1.99108 0
M  V30 21244 C 2075.7 -0.153362 -1.73323 0
M  V30 21245 O 2076.88 -0.374928 -1.97879 0
M  V30 21246 C 2073.94 -0.96896 -3.32884 0
M  V30 21247 C 2073 -2.14522 -3.71859 0
M  V30 21248 C 2072.24 -1.88635 -4.99252 0
M  V30 21249 O 2072.46 -0.831259 -5.6431 0
M  V30 21250 O 2071.39 -2.74872 -5.35471 0
M  V30 21251 H 2075.22 -2.20019 -2.09345 0
M  V30 21252 H 2072.8 -1.1266 -0.981232 0
M  V30 21253 H 2074.69 -0.834109 -4.13062 0
M  V30 21254 H 2073.36 -0.0396635 -3.23676 0
M  V30 21255 H 2072.27 -2.33556 -2.92237 0
M  V30 21256 H 2073.6 -3.05747 -3.8572 0
M  V30 21257 N 2075.25 1.06673 -1.16011 0
M  V30 21258 C 2076.5 1.794 -0.939249 0
M  V30 21259 C 2076.83 1.87049 0.533193 0
M  V30 21260 O 2076.08 1.35544 1.4116 0
M  V30 21261 C 2076.38 3.24069 -1.50712 0
M  V30 21262 C 2076.05 3.36507 -3.00123 0
M  V30 21263 C 2074.71 3.39609 -3.4091 0
M  V30 21264 C 2077.06 3.38741 -3.96111 0
M  V30 21265 C 2074.39 3.42556 -4.76311 0
M  V30 21266 C 2076.74 3.43226 -5.31393 0
M  V30 21267 C 2075.41 3.44608 -5.71665 0
M  V30 21268 H 2074.68 0.656471 -0.343696 0
M  V30 21269 H 2077.32 1.25476 -1.44665 0
M  V30 21270 H 2075.63 3.80819 -0.921077 0
M  V30 21271 H 2077.32 3.78931 -1.31196 0
M  V30 21272 H 2073.91 3.34796 -2.676 0
M  V30 21273 H 2078.1 3.35559 -3.65669 0
M  V30 21274 H 2073.35 3.41928 -5.06848 0
M  V30 21275 H 2077.53 3.43902 -6.05561 0
M  V30 21276 H 2075.16 3.46645 -6.76566 0
M  V30 21277 N 2076.73 0.957992 1.25141 0
M  V30 21278 C 2077.66 0.438189 2.24972 0
M  V30 21279 C 2078.68 -0.447769 1.56521 0
M  V30 21280 O 2079.86 -0.255506 1.76662 0
M  V30 21281 C 2076.96 -0.387644 3.36676 0
M  V30 21282 C 2076.14 0.486109 4.3469 0
M  V30 21283 C 2075.2 -0.282086 5.25443 0
M  V30 21284 O 2074.22 0.320666 5.68296 0
M  V30 21285 N 2075.42 -1.57428 5.58746 0
M  V30 21286 H 2078.19 1.29648 2.70206 0
M  V30 21287 H 2075.75 0.828726 1.39082 0
M  V30 21288 H 2077.74 -0.909356 3.94351 0
M  V30 21289 H 2076.31 -1.14681 2.90804 0
M  V30 21290 H 2075.53 1.18889 3.75844 0
M  V30 21291 H 2076.82 1.08236 4.97154 0
M  V30 21292 H 2076.22 -2.08586 5.25841 0
M  V30 21293 H 2074.78 -2.04189 6.18991 0
M  V30 21294 N 2078.21 -1.39832 0.726957 0
M  V30 21295 C 2079.46 -2.00277 0.27085 0
M  V30 21296 C 2079.78 -1.57958 -1.14343 0
M  V30 21297 O 2079.05 -0.824155 -1.7772 0
M  V30 21298 H 2077.63 -0.740656 0.0971496 0
M  V30 21299 H 2080.29 -1.71001 0.935123 0
M  V30 21300 H 2079.39 -3.10528 0.312892 0
M  V30 21301 N 2079.69 -0.473982 -1.50304 0
M  V30 21302 C 2080.62 0.355019 -2.26434 0
M  V30 21303 C 2081.63 0.954546 -1.3188 0
M  V30 21304 O 2082.82 0.842462 -1.57368 0
M  V30 21305 C 2079.92 1.51219 -3.03292 0
M  V30 21306 C 2079.09 1.02492 -4.25222 0
M  V30 21307 C 2078.15 2.05649 -4.8435 0
M  V30 21308 O 2077.18 1.63594 -5.45184 0
M  V30 21309 N 2078.38 3.38481 -4.71605 0
M  V30 21310 H 2081.15 -0.297646 -2.98218 0
M  V30 21311 H 2078.71 -0.304934 -1.59002 0
M  V30 21312 H 2080.7 2.19927 -3.39726 0
M  V30 21313 H 2079.27 2.0695 -2.34287 0
M  V30 21314 H 2078.49 0.16363 -3.9386 0
M  V30 21315 H 2079.78 0.677339 -5.04271 0
M  V30 21316 H 2079.17 3.75356 -4.23231 0
M  V30 21317 H 2077.73 4.02979 -5.123 0
M  V30 21318 N 2081.16 1.56239 -0.206702 0
M  V30 21319 C 2082.09 2.2262 0.704446 0
M  V30 21320 C 2083.08 1.19305 1.21245 0
M  V30 21321 O 2084.26 1.47846 1.25917 0
M  V30 21322 C 2081.39 2.89459 1.91913 0
M  V30 21323 C 2080.34 3.99119 1.54558 0
M  V30 21324 C 2079.67 4.53179 2.83783 0
M  V30 21325 C 2080.97 5.16934 0.746749 0
M  V30 21326 H 2082.66 2.99019 0.151028 0
M  V30 21327 H 2080.21 1.43824 0.0712004 0
M  V30 21328 H 2082.16 3.34584 2.56186 0
M  V30 21329 H 2080.89 2.10484 2.49728 0
M  V30 21330 H 2079.55 3.54702 0.926381 0
M  V30 21331 H 2079.19 3.70952 3.39711 0
M  V30 21332 H 2078.89 5.2718 2.59528 0
M  V30 21333 H 2080.42 5.01013 3.49024 0
M  V30 21334 H 2081.83 5.58532 1.29284 0
M  V30 21335 H 2080.23 5.97074 0.601876 0
M  V30 21336 H 2081.3 4.84256 -0.249783 0
M  V30 21337 N 2082.64 -0.0668159 1.57458 0
M  V30 21338 C 2083.57 -1.0791 2.07069 0
M  V30 21339 C 2084.55 -1.40063 0.965207 0
M  V30 21340 O 2085.74 -1.49604 1.23823 0
M  V30 21341 C 2082.87 -2.39113 2.51877 0
M  V30 21342 C 2081.82 -2.213 3.66347 0
M  V30 21343 C 2081.15 -3.57931 3.97227 0
M  V30 21344 C 2082.45 -1.63013 4.9621 0
M  V30 21345 H 2084.14 -0.666254 2.91893 0
M  V30 21346 H 2081.69 -0.319039 1.40421 0
M  V30 21347 H 2083.64 -3.10226 2.85198 0
M  V30 21348 H 2082.37 -2.82387 1.64088 0
M  V30 21349 H 2081.02 -1.52628 3.33317 0
M  V30 21350 H 2080.67 -3.98784 3.06562 0
M  V30 21351 H 2080.37 -3.4685 4.74309 0
M  V30 21352 H 2081.9 -4.30467 4.33048 0
M  V30 21353 H 2083.31 -2.23997 5.27729 0
M  V30 21354 H 2081.71 -1.62614 5.77648 0
M  V30 21355 H 2082.78 -0.592078 4.81272 0
M  V30 21356 N 2084.12 -1.53926 -0.338317 0
M  V30 21357 C 2085.37 -1.71085 -1.07584 0
M  V30 21358 C 2085.69 -0.479497 -1.89013 0
M  V30 21359 O 2084.96 0.506566 -1.89237 0
M  V30 21360 H 2083.54 -0.630767 -0.400178 0
M  V30 21361 H 2086.2 -1.91193 -0.378324 0
M  V30 21362 H 2085.3 -2.58404 -1.75026 0
M  V30 21363 N 2085.6 0.599608 -1.45748 0
M  V30 21364 C 2086.83 1.38483 -1.53721 0
M  V30 21365 C 2087.24 1.8801 -0.172512 0
M  V30 21366 O 2086.6 1.6267 0.82733 0
M  V30 21367 C 2086.65 2.5839 -2.52818 0
M  V30 21368 O 2086.37 2.10918 -3.83986 0
M  V30 21369 C 2087.87 3.51153 -2.70567 0
M  V30 21370 H 2085.09 0.423637 -0.520358 0
M  V30 21371 H 2087.64 0.730527 -1.91007 0
M  V30 21372 H 2085.79 3.19844 -2.18583 0
M  V30 21373 H 2086.21 2.88883 -4.37775 0
M  V30 21374 H 2087.68 4.31811 -3.43865 0
M  V30 21375 H 2088.16 4.02008 -1.7688 0
M  V30 21376 H 2088.76 2.95546 -3.05831 0
M  V30 21377 N 2087.08 1.33171 0.842803 0
M  V30 21378 C 2088.33 1.23754 1.59273 0
M  V30 21379 C 2088.64 -0.196137 1.94614 0
M  V30 21380 O 2089.85 -0.412282 2.68351 0
M  V30 21381 C 2088.3 2.16819 2.87259 0
M  V30 21382 C 2087.91 3.65335 2.59296 0
M  V30 21383 C 2089.65 2.16266 3.6528 0
M  V30 21384 C 2087.56 4.50325 3.83355 0
M  V30 21385 H 2086.49 0.459639 0.597702 0
M  V30 21386 H 2089.14 1.5821 0.929616 0
M  V30 21387 H 2087.52 1.75291 3.5509 0
M  V30 21388 H 2088.7 4.15278 1.99701 0
M  V30 21389 H 2087.01 3.68138 1.94586 0
M  V30 21390 H 2089.61 2.76995 4.57359 0
M  V30 21391 H 2089.95 1.1567 3.99908 0
M  V30 21392 H 2090.49 2.56135 3.04368 0
M  V30 21393 H 2087.22 5.51781 3.53861 0
M  V30 21394 H 2086.74 4.05127 4.42303 0
M  V30 21395 H 2088.42 4.6393 4.50975 0
M  V30 21396 N 2088.56 -1.06056 1.16576 0
M  V30 21397 C 2089.52 -2.11761 0.876928 0
M  V30 21398 C 2090.52 -1.60281 -0.129123 0
M  V30 21399 O 2091.71 -1.73901 0.102046 0
M  V30 21400 C 2088.84 -3.3947 0.311872 0
M  V30 21401 H 2090.03 -2.38816 1.81403 0
M  V30 21402 H 2087.59 -1.2216 0.975021 0
M  V30 21403 H 2088.32 -3.18066 -0.632797 0
M  V30 21404 H 2088.11 -3.78143 1.03683 0
M  V30 21405 H 2089.6 -4.17404 0.12782 0
M  V30 21406 N 2090.03 -0.964615 -1.24631 0
M  V30 21407 C 2091.28 -0.624816 -1.9262 0
M  V30 21408 C 2091.61 0.839576 -1.75446 0
M  V30 21409 O 2090.86 1.61908 -1.09929 0
M  V30 21410 C 2091.16 -0.941821 -3.44767 0
M  V30 21411 C 2090.83 -2.39386 -3.82106 0
M  V30 21412 C 2089.49 -2.79073 -3.9201 0
M  V30 21413 C 2091.84 -3.33637 -4.0042 0
M  V30 21414 C 2089.17 -4.12059 -4.17642 0
M  V30 21415 C 2091.52 -4.66247 -4.27547 0
M  V30 21416 C 2090.19 -5.05716 -4.35669 0
M  V30 21417 H 2089.46 -0.228636 -0.704845 0
M  V30 21418 H 2092.1 -1.21552 -1.47977 0
M  V30 21419 H 2090.41 -0.268835 -3.90877 0
M  V30 21420 H 2092.11 -0.657344 -3.95576 0
M  V30 21421 H 2088.7 -2.07611 -3.74961 0
M  V30 21422 H 2092.88 -3.0416 -3.92174 0
M  V30 21423 H 2088.14 -4.42268 -4.22148 0
M  V30 21424 H 2092.31 -5.39249 -4.40662 0
M  V30 21425 H 2089.94 -6.08786 -4.55284 0
M  V30 21426 N 2091.51 1.39445 -0.734362 0
M  V30 21427 C 2092.44 2.2816 -0.0427296 0
M  V30 21428 C 2093.42 1.44355 0.748363 0
M  V30 21429 O 2094.61 1.73746 0.731056 0
M  V30 21430 C 2091.73 3.25201 0.94667 0
M  V30 21431 C 2090.78 4.25801 0.244141 0
M  V30 21432 S 2091.61 5.25276 -1.04143 0
M  V30 21433 C 2092.77 6.25876 -0.0546136 0
M  V30 21434 H 2093 2.86471 -0.795072 0
M  V30 21435 H 2090.53 1.45159 -0.526134 0
M  V30 21436 H 2092.49 3.8163 1.51223 0
M  V30 21437 H 2091.15 2.6591 1.67185 0
M  V30 21438 H 2090.35 4.94126 0.992768 0
M  V30 21439 H 2089.95 3.73168 -0.249369 0
M  V30 21440 H 2092.24 6.72925 0.785984 0
M  V30 21441 H 2093.18 7.04582 -0.704988 0
M  V30 21442 H 2093.59 5.63606 0.317501 0
M  V30 21443 N 2092.99 0.481946 1.5005 0
M  V30 21444 C 2093.95 -0.295344 2.27289 0
M  V30 21445 C 2094.95 -0.910886 1.32512 0
M  V30 21446 O 2096.14 -0.778377 1.55843 0
M  V30 21447 C 2093.27 -1.42179 3.09835 0
M  V30 21448 H 2094.47 0.382176 2.97455 0
M  V30 21449 H 2092.02 0.236325 1.54503 0
M  V30 21450 H 2092.76 -2.13404 2.44191 0
M  V30 21451 H 2092.54 -0.986087 3.79498 0
M  V30 21452 H 2094.03 -1.96982 3.68223 0
M  V30 21453 N 2094.47 -1.56127 0.214985 0
M  V30 21454 C 2095.88 -1.8437 -0.294058 0
M  V30 21455 C 2096.23 -1.13621 -1.59952 0
M  V30 21456 O 2095.35 -0.403663 -2.12602 0
M  V30 21457 C 2095.95 -3.34464 -0.540311 0
M  V30 21458 C 2094.51 -3.63047 -0.993677 0
M  V30 21459 C 2093.66 -2.77249 -0.0531319 0
M  V30 21460 H 2096.61 -1.52527 0.43833 0
M  V30 21461 H 2096.63 -3.54314 -1.38716 0
M  V30 21462 H 2096.14 -3.85928 0.409992 0
M  V30 21463 H 2094.24 -3.17033 -1.95757 0
M  V30 21464 H 2094.35 -4.71086 -0.872629 0
M  V30 21465 H 2092.72 -2.48496 -0.558718 0
M  V30 21466 H 2093.5 -3.3151 0.891971 0
M  V30 21467 N 2095.95 0.0584645 -1.57492 0
M  V30 21468 C 2096.86 1.08563 -2.07969 0
M  V30 21469 C 2097.87 1.41545 -1.01198 0
M  V30 21470 O 2099.05 1.51455 -1.32753 0
M  V30 21471 C 2096.11 2.37616 -2.52467 0
M  V30 21472 C 2095.17 2.11485 -3.73594 0
M  V30 21473 C 2094.41 3.34384 -4.1596 0
M  V30 21474 O 2094.63 4.43997 -3.58083 0
M  V30 21475 O 2093.56 3.21812 -5.08646 0
M  V30 21476 H 2097.39 0.686764 -2.95833 0
M  V30 21477 H 2094.97 0.273502 -1.46875 0
M  V30 21478 H 2096.86 3.13541 -2.81549 0
M  V30 21479 H 2095.53 2.76857 -1.67726 0
M  V30 21480 H 2094.44 1.33222 -3.49575 0
M  V30 21481 H 2095.77 1.77117 -4.59228 0
M  V30 21482 N 2097.42 1.54103 0.330149 0
M  V30 21483 C 2098.67 1.72248 1.07045 0
M  V30 21484 C 2099 0.491265 1.87884 0
M  V30 21485 O 2098.28 -0.511764 1.87647 0
M  V30 21486 C 2098.56 2.99412 2.00061 0
M  V30 21487 C 2098.41 4.3277 1.22596 0
M  V30 21488 C 2099.73 3.22301 2.99683 0
M  V30 21489 H 2096.85 0.626746 0.387761 0
M  V30 21490 H 2099.49 1.86791 0.347722 0
M  V30 21491 H 2097.64 2.87144 2.61688 0
M  V30 21492 H 2099.32 4.56911 0.634799 0
M  V30 21493 H 2097.56 4.30573 0.528135 0
M  V30 21494 H 2098.23 5.17954 1.9086 0
M  V30 21495 H 2100.71 3.33988 2.48176 0
M  V30 21496 H 2099.58 4.12648 3.61956 0
M  V30 21497 H 2099.84 2.39221 3.71787 0
M  V30 21498 N 2098.9 -0.59187 1.46064 0
M  V30 21499 C 2099.83 -1.71199 1.58787 0
M  V30 21500 C 2100.81 -1.64348 0.438615 0
M  V30 21501 O 2102 -1.82506 0.663725 0
M  V30 21502 C 2099.13 -3.0983 1.56917 0
M  V30 21503 C 2098.08 -3.31505 2.70719 0
M  V30 21504 C 2097.41 -4.70569 2.53907 0
M  V30 21505 C 2098.71 -3.20228 4.12615 0
M  V30 21506 H 2100.4 -1.60807 2.5255 0
M  V30 21507 H 2097.95 -0.772206 1.21544 0
M  V30 21508 H 2099.9 -3.88003 1.64413 0
M  V30 21509 H 2098.63 -3.21099 0.596928 0
M  V30 21510 H 2097.28 -2.55727 2.62677 0
M  V30 21511 H 2096.93 -4.78592 1.54787 0
M  V30 21512 H 2096.63 -4.86025 3.30232 0
M  V30 21513 H 2098.16 -5.50923 2.6328 0
M  V30 21514 H 2099.57 -3.88257 4.21817 0
M  V30 21515 H 2097.97 -3.47209 4.89455 0
M  V30 21516 H 2099.04 -2.17437 4.33416 0
M  V30 21517 N 2100.38 -1.33616 -0.835729 0
M  V30 21518 C 2101.8 -1.13019 -1.12689 0
M  V30 21519 C 2102 0.0768335 -2.01353 0
M  V30 21520 O 2101.05 0.756169 -2.40911 0
M  V30 21521 C 2102.37 -2.41918 -1.78595 0
M  V30 21522 C 2103.91 -2.47854 -1.91147 0
M  V30 21523 C 2104.39 -3.76723 -2.60469 0
M  V30 21524 N 2105.88 -3.77811 -2.67979 0
M  V30 21525 C 2106.61 -4.74237 -3.22315 0
M  V30 21526 N 2106.11 -5.81039 -3.77313 0
M  V30 21527 N 2107.9 -4.61709 -3.20596 0
M  V30 21528 H 2100.05 -2.10974 -0.245697 0
M  V30 21529 H 2102.32 -0.932353 -0.171526 0
M  V30 21530 H 2102.02 -3.30264 -1.20906 0
M  V30 21531 H 2101.9 -2.54302 -2.78586 0
M  V30 21532 H 2104.28 -1.59955 -2.47989 0
M  V30 21533 H 2104.37 -2.39408 -0.900965 0
M  V30 21534 H 2104.01 -4.65005 -2.04286 0
M  V30 21535 H 2103.94 -3.82447 -3.61998 0
M  V30 21536 H 2106.43 -3.00626 -2.28982 0
M  V30 21537 H 2106.74 -6.50648 -4.16986 0
M  V30 21538 H 2105.09 -5.8477 -3.75592 0
M  V30 21539 H 2108.28 -3.77426 -2.76888 0
M  V30 21540 H 2108.45 -5.37026 -3.62639 0
M  V30 21541 N 2101.86 1.05436 -1.17136 0
M  V30 21542 C 2103.11 1.78041 -0.956331 0
M  V30 21543 C 2103.43 1.88035 0.516524 0
M  V30 21544 O 2102.7 1.39532 1.37505 0
M  V30 21545 H 2101.28 0.659483 -0.350843 0
M  V30 21546 H 2103.94 1.2732 -1.47566 0
M  V30 21547 H 2103.04 2.79808 -1.38253 0
M  V30 21548 N 2103.34 0.971211 1.24118 0
M  V30 21549 C 2104.27 0.462026 2.24495 0
M  V30 21550 C 2105.28 -0.431143 1.56987 0
M  V30 21551 O 2106.47 -0.236754 1.76923 0
M  V30 21552 C 2103.57 -0.351913 3.37068 0
M  V30 21553 C 2102.74 0.532187 4.3415 0
M  V30 21554 C 2101.8 -0.22634 5.25713 0
M  V30 21555 O 2100.83 0.380923 5.67924 0
M  V30 21556 N 2102.03 -1.51493 5.60384 0
M  V30 21557 H 2104.8 1.32507 2.68816 0
M  V30 21558 H 2102.36 0.843431 1.38195 0
M  V30 21559 H 2104.35 -0.867478 3.95293 0
M  V30 21560 H 2102.92 -1.1159 2.92004 0
M  V30 21561 H 2102.14 1.22869 3.74562 0
M  V30 21562 H 2103.43 1.13503 4.95978 0
M  V30 21563 H 2102.82 -2.02997 5.28023 0
M  V30 21564 H 2101.38 -1.97612 6.21122 0
M  V30 21565 N 2104.81 -1.39054 0.741747 0
M  V30 21566 C 2105.75 -2.29103 0.0665251 0
M  V30 21567 C 2106.76 -1.47157 -0.696331 0
M  V30 21568 O 2107.95 -1.70156 -0.539378 0
M  V30 21569 C 2105.05 -3.25891 -0.929959 0
M  V30 21570 C 2104.22 -4.36809 -0.227219 0
M  V30 21571 C 2103.28 -5.13863 -1.13276 0
M  V30 21572 O 2102.31 -5.65946 -0.607718 0
M  V30 21573 N 2103.51 -5.25709 -2.46192 0
M  V30 21574 H 2106.27 -2.87692 0.839836 0
M  V30 21575 H 2103.83 -1.50707 0.591532 0
M  V30 21576 H 2105.83 -3.74315 -1.53851 0
M  V30 21577 H 2104.4 -2.68285 -1.60443 0
M  V30 21578 H 2103.62 -3.90175 0.5619 0
M  V30 21579 H 2104.9 -5.08138 0.259523 0
M  V30 21580 H 2104.3 -4.84923 -2.91318 0
M  V30 21581 H 2102.86 -5.77549 -3.02127 0
M  V30 21582 N 2106.29 -0.489897 -1.49792 0
M  V30 21583 C 2107.52 0.055599 -2.06525 0
M  V30 21584 C 2107.93 1.32375 -1.3518 0
M  V30 21585 O 2107.27 1.78826 -0.420371 0
M  V30 21586 C 2107.34 0.390775 -3.5737 0
M  V30 21587 C 2107 -0.778051 -4.50328 0
M  V30 21588 C 2108 -1.66543 -4.92503 0
M  V30 21589 C 2105.68 -0.97371 -4.92772 0
M  V30 21590 C 2107.68 -2.73272 -5.75848 0
M  V30 21591 C 2105.36 -2.04419 -5.75896 0
M  V30 21592 C 2106.36 -2.92205 -6.17337 0
M  V30 21593 O 2106.05 -3.97407 -6.98801 0
M  V30 21594 H 2105.78 -0.012225 -0.675889 0
M  V30 21595 H 2108.33 -0.683211 -1.93704 0
M  V30 21596 H 2106.56 1.18303 -3.68159 0
M  V30 21597 H 2108.25 0.873568 -3.96388 0
M  V30 21598 H 2109.02 -1.52604 -4.60366 0
M  V30 21599 H 2104.9 -0.299832 -4.60024 0
M  V30 21600 H 2108.44 -3.41821 -6.08115 0
M  V30 21601 H 2104.34 -2.18358 -6.07446 0
M  V30 21602 H 2105.11 -3.94624 -7.17087 0
M  V30 21603 N 2107.77 1.56011 -0.223262 0
M  V30 21604 C 2109.02 1.97956 0.407171 0
M  V30 21605 C 2109.34 1.11219 1.60173 0
M  V30 21606 O 2108.61 0.189604 1.9498 0
M  V30 21607 H 2107.19 0.731075 0.153424 0
M  V30 21608 H 2109.85 1.92312 -0.316554 0
M  V30 21609 H 2108.95 3.03386 0.732342 0
M  V30 21610 N 2109.25 -0.0501116 1.5752 0
M  V30 21611 C 2110.66 -0.405366 1.54366 0
M  V30 21612 C 2110.86 -1.77885 0.946523 0
M  V30 21613 O 2109.92 -2.46248 0.558406 0
M  V30 21614 C 2111.23 -0.326523 2.98922 0
M  V30 21615 C 2112.78 -0.40514 3.10367 0
M  V30 21616 C 2113.26 -0.355974 4.56615 0
M  V30 21617 N 2114.75 -0.415404 4.61334 0
M  V30 21618 C 2115.48 -0.39992 5.72004 0
M  V30 21619 N 2114.98 -0.337966 6.91975 0
M  V30 21620 N 2116.77 -0.448091 5.60311 0
M  V30 21621 H 2108.92 0.848979 1.94695 0
M  V30 21622 H 2111.19 0.320787 0.892076 0
M  V30 21623 H 2110.89 0.616487 3.46255 0
M  V30 21624 H 2110.77 -1.12839 3.59927 0
M  V30 21625 H 2113.15 -1.33858 2.62995 0
M  V30 21626 H 2113.23 0.425702 2.52233 0
M  V30 21627 H 2112.88 0.573705 5.04649 0
M  V30 21628 H 2112.81 -1.20464 5.12636 0
M  V30 21629 H 2115.3 -0.466654 3.75008 0
M  V30 21630 H 2115.61 -0.330673 7.72092 0
M  V30 21631 H 2113.96 -0.304327 6.94333 0
M  V30 21632 H 2117.15 -0.494336 4.65482 0
M  V30 21633 H 2117.32 -0.432555 6.46555 0
M  V30 21634 N 2110.73 -1.54276 -0.321972 0
M  V30 21635 C 2111.95 -1.76841 -1.0836 0
M  V30 21636 C 2112.38 -0.5163 -1.80876 0
M  V30 21637 O 2111.73 0.532225 -1.73312 0
M  V30 21638 C 2111.78 -2.96236 -2.05613 0
M  V30 21639 O 2110.89 -2.67893 -3.1354 0
M  V30 21640 H 2110.23 -0.585948 -0.312347 0
M  V30 21641 H 2112.76 -2.01304 -0.365783 0
M  V30 21642 H 2112.77 -3.23627 -2.48455 0
M  V30 21643 H 2111.44 -3.87037 -1.52234 0
M  V30 21644 H 2110.02 -2.51456 -2.75362 0
M  V30 21645 N 2112.2 0.584116 -1.46376 0
M  V30 21646 C 2113.44 1.35344 -1.53171 0
M  V30 21647 C 2113.81 1.91168 -0.178507 0
M  V30 21648 O 2115.01 2.68527 -0.121206 0
M  V30 21649 C 2113.28 2.45362 -2.5987 0
M  V30 21650 S 2114.84 3.32739 -2.8606 0
M  V30 21651 H 2111.66 0.461125 -0.541188 0
M  V30 21652 H 2114.26 0.671631 -1.83601 0
M  V30 21653 H 2112.96 2.02739 -3.56826 0
M  V30 21654 H 2112.49 3.18316 -2.31167 0
M  V30 21655 H 2114.51 4.44156 -2.21223 0
M  V30 21656 N 2113.68 1.34058 0.828631 0
M  V30 21657 C 2114.96 1.1668 1.56988 0
M  V30 21658 C 2115.34 -0.262846 2.09457 0
M  V30 21659 O 2114.69 -1.26337 1.90398 0
M  V30 21660 C 2114.9 2.21657 2.69572 0
M  V30 21661 C 2116.25 2.56341 3.38489 0
M  V30 21662 O 2117.27 2.20402 2.79824 0
M  V30 21663 O 2116.13 3.18053 4.44415 0
M  V30 21664 H 2113.22 0.451944 0.692586 0
M  V30 21665 H 2115.77 1.45672 0.870498 0
M  V30 21666 H 2114.54 3.17643 2.28515 0
M  V30 21667 H 2114.16 1.93809 3.47166 0
M  V30 21668 N 2115.16 -1.04814 1.17694 0
M  V30 21669 C 2116.41 -1.78147 0.969105 0
M  V30 21670 C 2116.74 -1.87634 -0.500715 0
M  V30 21671 O 2116.02 -1.37892 -1.37172 0
M  V30 21672 C 2116.3 -3.2183 1.61548 0
M  V30 21673 C 2116.15 -3.20332 3.15765 0
M  V30 21674 C 2117.47 -4.19759 1.32251 0
M  V30 21675 H 2114.59 -0.646701 0.353479 0
M  V30 21676 H 2117.23 -1.22485 1.45249 0
M  V30 21677 H 2115.38 -3.69358 1.20445 0
M  V30 21678 H 2117.05 -2.8085 3.65952 0
M  V30 21679 H 2115.3 -2.58568 3.48318 0
M  V30 21680 H 2115.97 -4.21759 3.56123 0
M  V30 21681 H 2118.44 -3.80743 1.67851 0
M  V30 21682 H 2117.32 -5.18527 1.80057 0
M  V30 21683 H 2117.58 -4.41426 0.244002 0
M  V30 21684 N 2116.64 -0.977779 -1.23601 0
M  V30 21685 C 2117.89 -0.655785 -1.92538 0
M  V30 21686 C 2118.24 0.801577 -1.74907 0
M  V30 21687 O 2117.53 1.57037 -1.09773 0
M  V30 21688 C 2117.73 -0.978335 -3.43749 0
M  V30 21689 C 2117.56 -2.4655 -3.76089 0
M  V30 21690 C 2116.33 -3.12704 -3.96918 0
M  V30 21691 C 2118.52 -3.44607 -3.81773 0
M  V30 21692 N 2116.51 -4.51054 -4.16442 0
M  V30 21693 C 2117.88 -4.68353 -4.06258 0
M  V30 21694 C 2119.93 -3.39124 -3.64554 0
M  V30 21695 C 2118.64 -5.87289 -4.15312 0
M  V30 21696 C 2120.66 -4.57422 -3.74859 0
M  V30 21697 C 2120.02 -5.79963 -3.99778 0
M  V30 21698 H 2116.12 -0.290986 -0.725845 0
M  V30 21699 H 2118.71 -1.2547 -1.4888 0
M  V30 21700 H 2116.88 -0.408137 -3.8625 0
M  V30 21701 H 2118.61 -0.613882 -4.00017 0
M  V30 21702 H 2115.36 -2.63208 -3.93724 0
M  V30 21703 H 2115.79 -5.22771 -4.30163 0
M  V30 21704 H 2120.43 -2.45412 -3.44286 0
M  V30 21705 H 2118.15 -6.81419 -4.34388 0
M  V30 21706 H 2121.73 -4.54753 -3.62893 0
M  V30 21707 H 2120.61 -6.69972 -4.07563 0
M  V30 21708 N 2118.12 1.38658 -0.749111 0
M  V30 21709 C 2119.34 2.0503 -0.312666 0
M  V30 21710 C 2119.77 1.56125 1.04912 0
M  V30 21711 O 2119.13 0.711236 1.66767 0
M  V30 21712 C 2119.17 3.58997 -0.339658 0
M  V30 21713 O 2118.28 4.06956 0.667887 0
M  V30 21714 H 2117.62 0.649228 -0.139282 0
M  V30 21715 H 2120.15 1.7742 -1.01898 0
M  V30 21716 H 2120.16 4.07562 -0.188968 0
M  V30 21717 H 2118.83 3.93951 -1.33325 0
M  V30 21718 H 2117.41 3.69769 0.482177 0
M  V30 21719 N 2119.6 0.497834 1.49531 0
M  V30 21720 C 2120.84 -0.0478795 2.02743 0
M  V30 21721 C 2121.17 -1.36937 1.37702 0
M  V30 21722 O 2120.45 -1.8765 0.511637 0
M  V30 21723 C 2120.73 -0.203749 3.59523 0
M  V30 21724 C 2120.59 1.14064 4.35097 0
M  V30 21725 C 2121.9 -0.945869 4.29815 0
M  V30 21726 H 2119.02 -0.0159264 0.736828 0
M  V30 21727 H 2121.67 0.648629 1.78586 0
M  V30 21728 H 2119.82 -0.796987 3.80237 0
M  V30 21729 H 2121.49 1.77252 4.25887 0
M  V30 21730 H 2119.73 1.73071 3.9778 0
M  V30 21731 H 2120.4 0.984923 5.43142 0
M  V30 21732 H 2122.88 -0.44277 4.13738 0
M  V30 21733 H 2121.75 -1.02377 5.39268 0
M  V30 21734 H 2122.01 -1.98884 3.94839 0
M  V30 21735 N 2121.07 -1.5589 0.231532 0
M  V30 21736 C 2122.32 -1.98169 -0.396667 0
M  V30 21737 C 2122.64 -1.12067 -1.59581 0
M  V30 21738 O 2121.91 -0.199942 -1.94877 0
M  V30 21739 H 2120.49 -0.731878 -0.149544 0
M  V30 21740 H 2123.15 -1.92142 0.326749 0
M  V30 21741 H 2122.25 -3.0377 -0.716243 0
M  V30 21742 N 2122.55 0.0417572 -1.57545 0
M  V30 21743 C 2123.79 0.740092 -1.90531 0
M  V30 21744 C 2124.16 1.73194 -0.828727 0
M  V30 21745 O 2125.36 2.47759 -1.04254 0
M  V30 21746 C 2123.63 1.40329 -3.28698 0
M  V30 21747 S 2125.19 2.13254 -3.83495 0
M  V30 21748 H 2122 0.245468 -0.667283 0
M  V30 21749 H 2124.61 -0.00488991 -1.95499 0
M  V30 21750 H 2123.31 0.668013 -4.04927 0
M  V30 21751 H 2122.84 2.18709 -3.27002 0
M  V30 21752 H 2124.86 3.4022 -3.61199 0
M  V30 21753 N 2124.03 1.54445 0.313786 0
M  V30 21754 C 2124.99 1.8378 1.36959 0
M  V30 21755 C 2125.99 0.710053 1.44274 0
M  V30 21756 O 2127.18 0.978359 1.44131 0
M  V30 21757 C 2124.31 2.00661 2.75586 0
M  V30 21758 H 2125.51 2.78122 1.12197 0
M  V30 21759 H 2123.06 1.46311 0.549789 0
M  V30 21760 H 2123.8 1.08564 3.05589 0
M  V30 21761 H 2123.58 2.82734 2.71669 0
M  V30 21762 H 2125.07 2.24771 3.51948 0
M  V30 21763 N 2125.51 -0.576345 1.46683 0
M  V30 21764 C 2126.76 -1.33056 1.51588 0
M  V30 21765 C 2127.07 -1.94819 0.174653 0
M  V30 21766 O 2128.28 -2.7131 0.101545 0
M  V30 21767 C 2126.73 -2.4118 2.67133 0
M  V30 21768 C 2126.34 -1.85693 4.07703 0
M  V30 21769 C 2128.08 -3.17904 2.81314 0
M  V30 21770 C 2125.99 -2.91484 5.14579 0
M  V30 21771 H 2124.92 -0.500222 0.564175 0
M  V30 21772 H 2127.57 -0.614346 1.7291 0
M  V30 21773 H 2125.95 -3.1563 2.39152 0
M  V30 21774 H 2127.13 -1.17744 4.45503 0
M  V30 21775 H 2125.44 -1.21616 3.98244 0
M  V30 21776 H 2128.04 -3.96868 3.58329 0
M  V30 21777 H 2128.38 -3.70894 1.8906 0
M  V30 21778 H 2128.92 -2.50562 3.08971 0
M  V30 21779 H 2125.65 -2.43373 6.08646 0
M  V30 21780 H 2125.17 -3.57902 4.81317 0
M  V30 21781 H 2126.85 -3.55321 5.40699 0
M  V30 21782 N 2126.99 -1.34495 -0.82151 0
M  V30 21783 C 2128.23 -1.26273 -1.57284 0
M  V30 21784 C 2128.55 0.165151 -1.94902 0
M  V30 21785 O 2129.75 0.369538 -2.68973 0
M  V30 21786 C 2128.21 -2.21361 -2.83773 0
M  V30 21787 C 2127.82 -3.69414 -2.53451 0
M  V30 21788 C 2129.56 -2.2205 -3.61793 0
M  V30 21789 C 2127.47 -4.56367 -3.76142 0
M  V30 21790 H 2126.4 -0.46909 -0.590314 0
M  V30 21791 H 2129.05 -1.59669 -0.904328 0
M  V30 21792 H 2127.43 -1.80918 -3.52256 0
M  V30 21793 H 2128.61 -4.18403 -1.93069 0
M  V30 21794 H 2126.92 -3.71187 -1.88704 0
M  V30 21795 H 2129.52 -2.84237 -4.52895 0
M  V30 21796 H 2129.86 -1.22017 -3.98017 0
M  V30 21797 H 2130.39 -2.60945 -3.00254 0
M  V30 21798 H 2127.13 -5.57341 -3.45038 0
M  V30 21799 H 2126.65 -4.12112 -4.35802 0
M  V30 21800 H 2128.33 -4.71045 -4.43537 0
M  V30 21801 N 2128.46 1.04188 -1.18248 0
M  V30 21802 C 2129.37 2.15666 -0.923339 0
M  V30 21803 C 2130.39 1.73638 0.112112 0
M  V30 21804 O 2131.57 2.0128 -0.0695153 0
M  V30 21805 C 2128.63 3.43751 -0.451239 0
M  V30 21806 C 2127.69 4.00167 -1.55451 0
M  V30 21807 C 2126.93 5.22139 -1.10484 0
M  V30 21808 O 2127.15 5.70388 0.0369453 0
M  V30 21809 O 2126.08 5.71056 -1.90207 0
M  V30 21810 H 2129.91 2.40381 -1.85609 0
M  V30 21811 H 2127.49 1.14121 -0.9642 0
M  V30 21812 H 2129.38 4.20944 -0.195977 0
M  V30 21813 H 2128.05 3.20511 0.45323 0
M  V30 21814 H 2126.96 3.24368 -1.86377 0
M  V30 21815 H 2128.29 4.27745 -2.43506 0
M  V30 21816 N 2129.94 0.98432 1.23081 0
M  V30 21817 C 2130.88 0.472534 2.23254 0
M  V30 21818 C 2131.85 -0.462497 1.55884 0
M  V30 21819 O 2133.04 -0.390035 1.84421 0
M  V30 21820 C 2130.16 -0.315956 3.37223 0
M  V30 21821 C 2129.21 0.563795 4.22757 0
M  V30 21822 S 2130.04 2.01399 4.96184 0
M  V30 21823 C 2131.2 1.23475 6.136 0
M  V30 21824 H 2131.43 1.3214 2.6632 0
M  V30 21825 H 2128.97 0.790618 1.32622 0
M  V30 21826 H 2130.92 -0.764866 4.03311 0
M  V30 21827 H 2129.58 -1.13999 2.92682 0
M  V30 21828 H 2128.78 -0.0424403 5.03982 0
M  V30 21829 H 2128.38 0.949112 3.61757 0
M  V30 21830 H 2130.67 0.498049 6.75667 0
M  V30 21831 H 2131.61 2.02197 6.78618 0
M  V30 21832 H 2132.02 0.751814 5.59471 0
M  V30 21833 N 2131.42 -1.38259 0.756453 0
M  V30 21834 C 2132.38 -2.28779 0.138891 0
M  V30 21835 C 2133.38 -1.47321 -0.644449 0
M  V30 21836 O 2134.57 -1.67732 -0.470292 0
M  V30 21837 C 2131.71 -3.311 -0.811535 0
M  V30 21838 H 2132.9 -2.84898 0.936651 0
M  V30 21839 H 2130.45 -1.47267 0.52365 0
M  V30 21840 H 2131.19 -2.80076 -1.63487 0
M  V30 21841 H 2130.97 -3.91288 -0.252199 0
M  V30 21842 H 2132.46 -3.9878 -1.23953 0
M  V30 21843 N 2132.9 -0.505757 -1.49264 0
M  V30 21844 C 2134.14 0.0353761 -2.04369 0
M  V30 21845 C 2134.5 1.33838 -1.37664 0
M  V30 21846 O 2135.7 1.96405 -1.83517 0
M  V30 21847 C 2133.97 0.179725 -3.56948 0
M  V30 21848 S 2135.53 0.67442 -4.33586 0
M  V30 21849 H 2132.35 -0.000491907 -0.711 0
M  V30 21850 H 2134.95 -0.680807 -1.83263 0
M  V30 21851 H 2133.66 -0.773835 -4.03038 0
M  V30 21852 H 2133.19 0.921008 -3.82467 0
M  V30 21853 H 2135.2 1.94284 -4.56583 0
M  V30 21854 N 2134.38 1.55765 -0.239796 0
M  V30 21855 C 2135.34 2.19809 0.649364 0
M  V30 21856 C 2136.34 1.16526 1.10808 0
M  V30 21857 O 2137.53 1.41651 1.01394 0
M  V30 21858 C 2134.66 2.83599 1.89168 0
M  V30 21859 H 2135.85 2.99763 0.0907114 0
M  V30 21860 H 2133.41 1.56297 0.00977153 0
M  V30 21861 H 2134.14 2.07564 2.49174 0
M  V30 21862 H 2133.93 3.5925 1.57104 0
M  V30 21863 H 2135.42 3.32634 2.52477 0
M  V30 21864 N 2135.85 -0.0334016 1.57565 0
M  V30 21865 C 2136.8 -1.03536 2.06274 0
M  V30 21866 C 2137.77 -1.36182 0.950989 0
M  V30 21867 O 2138.96 -1.46593 1.22127 0
M  V30 21868 C 2136.1 -2.33256 2.54334 0
M  V30 21869 C 2135.21 -2.06807 3.79282 0
M  V30 21870 C 2134.34 -3.30365 4.15971 0
M  V30 21871 C 2133.38 -2.99452 5.33849 0
M  V30 21872 N 2132.52 -4.15449 5.65991 0
M  V30 21873 H 2137.36 -0.613034 2.91626 0
M  V30 21874 H 2134.9 -0.291083 1.44191 0
M  V30 21875 H 2136.86 -3.09044 2.80264 0
M  V30 21876 H 2135.49 -2.73219 1.71905 0
M  V30 21877 H 2134.54 -1.21536 3.60463 0
M  V30 21878 H 2135.85 -1.8 4.6519 0
M  V30 21879 H 2135 -4.14524 4.43007 0
M  V30 21880 H 2133.74 -3.60282 3.28706 0
M  V30 21881 H 2132.75 -2.13695 5.06571 0
M  V30 21882 H 2133.97 -2.70817 6.22764 0
M  V30 21883 H 2131.92 -4.45326 4.81686 0
M  V30 21884 H 2131.84 -3.9205 6.464 0
M  V30 21885 H 2133.1 -5.00494 5.976 0
M  V30 21886 N 2137.33 -1.54609 -0.305591 0
M  V30 21887 C 2138.74 -1.64719 -0.878888 0
M  V30 21888 C 2139.09 -0.552868 -1.88249 0
M  V30 21889 O 2138.22 0.311274 -2.1415 0
M  V30 21890 C 2138.81 -2.98593 -1.60087 0
M  V30 21891 C 2137.37 -3.10839 -2.12264 0
M  V30 21892 C 2136.52 -2.6038 -0.953822 0
M  V30 21893 H 2139.47 -1.58484 -0.0827074 0
M  V30 21894 H 2139.49 -2.89759 -2.46617 0
M  V30 21895 H 2139 -3.78219 -0.870185 0
M  V30 21896 H 2137.11 -2.35924 -2.88394 0
M  V30 21897 H 2137.22 -4.16924 -2.36031 0
M  V30 21898 H 2135.58 -2.16719 -1.33809 0
M  V30 21899 H 2136.37 -3.4248 -0.237166 0
M  V30 21900 N 2138.81 0.568558 -1.46987 0
M  V30 21901 C 2140.22 1.1507 -1.47023 0
M  V30 21902 C 2140.57 1.94977 -0.218726 0
M  V30 21903 O 2139.7 2.05531 0.677201 0
M  V30 21904 C 2140.29 2.09348 -2.66381 0
M  V30 21905 C 2138.85 2.62857 -2.69413 0
M  V30 21906 C 2138 1.39006 -2.39943 0
M  V30 21907 H 2140.95 0.355745 -1.54661 0
M  V30 21908 H 2140.97 2.93044 -2.42705 0
M  V30 21909 H 2140.48 1.51163 -3.57451 0
M  V30 21910 H 2138.58 3.24872 -1.82452 0
M  V30 21911 H 2138.7 3.04626 -3.69784 0
M  V30 21912 H 2137.06 1.69297 -1.90291 0
M  V30 21913 H 2137.84 0.826309 -3.33207 0
M  V30 21914 N 2140.29 1.34929 0.814366 0
M  V30 21915 C 2141.53 1.28964 1.57289 0
M  V30 21916 C 2141.89 -0.136931 1.91912 0
M  V30 21917 O 2141.18 -1.08538 1.57893 0
M  V30 21918 C 2141.38 2.12223 2.87569 0
M  V30 21919 C 2141.21 3.62832 2.65674 0
M  V30 21920 C 2139.98 4.32089 2.61968 0
M  V30 21921 C 2142.17 4.56649 2.36592 0
M  V30 21922 N 2140.16 5.68493 2.31708 0
M  V30 21923 C 2141.53 5.81119 2.16103 0
M  V30 21924 C 2143.58 4.45474 2.22391 0
M  V30 21925 C 2142.28 6.95671 1.8285 0
M  V30 21926 C 2144.31 5.59867 1.90535 0
M  V30 21927 C 2143.67 6.8336 1.70875 0
M  V30 21928 H 2139.77 0.52716 0.577604 0
M  V30 21929 H 2142.36 1.6973 0.953923 0
M  V30 21930 H 2140.53 1.7374 3.47374 0
M  V30 21931 H 2142.26 1.97837 3.53048 0
M  V30 21932 H 2139.01 3.84618 2.76344 0
M  V30 21933 H 2139.44 6.40465 2.19394 0
M  V30 21934 H 2144.08 3.50608 2.36292 0
M  V30 21935 H 2141.8 7.9051 1.67687 0
M  V30 21936 H 2145.38 5.53169 1.80266 0
M  V30 21937 H 2144.26 7.70379 1.46583 0
M  V30 21938 N 2141.77 -1.0356 1.18799 0
M  V30 21939 C 2142.71 -2.13799 0.916116 0
M  V30 21940 C 2143.71 -1.68934 -0.125535 0
M  V30 21941 O 2144.91 -1.79985 0.0230864 0
M  V30 21942 H 2141.29 -0.698404 0.278811 0
M  V30 21943 H 2143.26 -2.33925 1.85262 0
M  V30 21944 C 2142.01 -3.44591 0.463926 0
M  V30 21945 H 2141.33 -3.79526 1.25698 0
M  V30 21946 H 2142.77 -4.22845 0.312739 0
M  V30 21947 C 2141.23 -3.26743 -0.821008 0
M  V30 21948 O 2141.76 -3.54778 -1.88403 0
M  V30 21949 N 2139.97 -2.80058 -0.775608 0
M  V30 21950 H 2139.51 -2.57444 0.089694 0
M  V30 21951 H 2139.47 -2.68497 -1.63575 0
M  V30 21952 N 2143.25 -0.990834 -1.22557 0
M  V30 21953 C 2144.21 -0.544553 -2.22637 0
M  V30 21954 C 2145.21 0.371467 -1.56451 0
M  V30 21955 O 2146.4 0.163711 -1.73429 0
M  V30 21956 C 2143.53 0.20822 -3.40264 0
M  V30 21957 H 2144.72 -1.42959 -2.63634 0
M  V30 21958 H 2142.28 -0.77782 -1.35572 0
M  V30 21959 H 2143.01 1.10933 -3.04737 0
M  V30 21960 H 2142.8 -0.449464 -3.89515 0
M  V30 21961 H 2144.29 0.508696 -4.1449 0
M  V30 21962 N 2144.72 1.37856 -0.763775 0
M  V30 21963 C 2145.63 2.3415 -0.145216 0
M  V30 21964 C 2146.65 1.59782 0.688888 0
M  V30 21965 O 2147.83 1.91919 0.610668 0
M  V30 21966 C 2144.89 3.38934 0.729718 0
M  V30 21967 C 2143.95 4.29132 -0.119926 0
M  V30 21968 C 2143.18 5.28911 0.713343 0
M  V30 21969 O 2143.41 5.36002 1.95086 0
M  V30 21970 O 2142.34 6.01767 0.126758 0
M  V30 21971 H 2146.17 2.88763 -0.940736 0
M  V30 21972 H 2143.75 1.39879 -0.524814 0
M  V30 21973 H 2145.63 4.03066 1.22946 0
M  V30 21974 H 2144.31 2.86661 1.50356 0
M  V30 21975 H 2143.22 3.68127 -0.665843 0
M  V30 21976 H 2144.55 4.84688 -0.856664 0
M  V30 21977 N 2146.2 0.513665 1.48994 0
M  V30 21978 C 2147.15 -0.257967 2.29354 0
M  V30 21979 C 2148.12 -0.948815 1.36333 0
M  V30 21980 O 2149.3 -0.953018 1.65294 0
M  V30 21981 C 2146.44 -1.30885 3.19317 0
M  V30 21982 C 2145.56 -0.628503 4.27404 0
M  V30 21983 C 2144.69 -1.66091 5.04566 0
M  V30 21984 C 2143.73 -0.963129 6.04475 0
M  V30 21985 N 2142.87 -1.94033 6.74756 0
M  V30 21986 H 2147.71 0.433522 2.9483 0
M  V30 21987 H 2145.24 0.225633 1.45359 0
M  V30 21988 H 2147.2 -1.93026 3.69861 0
M  V30 21989 H 2145.83 -1.96894 2.55798 0
M  V30 21990 H 2144.88 0.10648 3.80251 0
M  V30 21991 H 2146.2 -0.0798289 4.98736 0
M  V30 21992 H 2145.35 -2.35704 5.59043 0
M  V30 21993 H 2144.09 -2.24346 4.33036 0
M  V30 21994 H 2143.09 -0.252846 5.49218 0
M  V30 21995 H 2144.32 -0.386911 6.77997 0
M  V30 21996 H 2142.27 -2.51226 6.05988 0
M  V30 21997 H 2142.18 -1.44265 7.42107 0
M  V30 21998 H 2143.45 -2.62894 7.3383 0
M  V30 21999 N 2147.68 -1.55636 0.248053 0
M  V30 22000 C 2148.63 -2.18088 -0.664956 0
M  V30 22001 C 2149.61 -1.13711 -1.13836 0
M  V30 22002 O 2150.81 -1.39617 -1.08794 0
M  V30 22003 C 2147.93 -2.88477 -1.86107 0
M  V30 22004 C 2147.02 -4.00112 -1.40611 0
M  V30 22005 N 2147.41 -5.01403 -0.665461 0
M  V30 22006 C 2145.71 -4.12688 -1.6913 0
M  V30 22007 C 2146.41 -5.8011 -0.429767 0
M  V30 22008 N 2145.39 -5.34429 -0.994315 0
M  V30 22009 H 2149.19 -2.93759 -0.0909433 0
M  V30 22010 H 2146.7 -1.62322 0.0504194 0
M  V30 22011 H 2148.7 -3.31648 -2.52617 0
M  V30 22012 H 2147.36 -2.14309 -2.4393 0
M  V30 22013 H 2148.37 -5.16938 -0.315457 0
M  V30 22014 H 2145.05 -3.49692 -2.28083 0
M  V30 22015 H 2146.44 -6.71706 0.161586 0
M  V30 22016 N 2149.16 0.0250451 -1.5758 0
M  V30 22017 C 2150.38 0.730408 -1.94113 0
M  V30 22018 C 2150.81 1.67882 -0.848362 0
M  V30 22019 O 2150.17 1.80242 0.195596 0
M  V30 22020 C 2150.21 1.46014 -3.29715 0
M  V30 22021 O 2149.32 2.57351 -3.22249 0
M  V30 22022 H 2148.66 0.196157 -0.634365 0
M  V30 22023 H 2151.19 -0.0206802 -2.0459 0
M  V30 22024 H 2151.2 1.82917 -3.64699 0
M  V30 22025 H 2149.87 0.764593 -4.08811 0
M  V30 22026 H 2148.45 2.22961 -2.98903 0
M  V30 22027 N 2150.64 1.54769 0.297388 0
M  V30 22028 C 2151.58 1.86729 1.3869 0
M  V30 22029 C 2152.58 0.741344 1.52317 0
M  V30 22030 O 2153.78 0.925384 1.54391 0
M  V30 22031 H 2150.16 0.592301 0.463339 0
M  V30 22032 H 2152.13 2.77791 1.08972 0
M  V30 22033 C 2150.88 2.13444 2.74475 0
M  V30 22034 H 2150.2 2.99558 2.64773 0
M  V30 22035 H 2151.64 2.39744 3.49712 0
M  V30 22036 C 2150.1 0.934151 3.2369 0
M  V30 22037 O 2150.63 0.156464 4.01395 0
M  V30 22038 N 2148.84 0.738537 2.81059 0
M  V30 22039 H 2148.38 1.37261 2.17984 0
M  V30 22040 H 2148.34 -0.0630002 3.14337 0
M  V30 22041 N 2152.11 -0.560755 1.47286 0
M  V30 22042 C 2153.06 -1.66355 1.55916 0
M  V30 22043 C 2154.05 -1.55367 0.418332 0
M  V30 22044 O 2155.24 -1.63909 0.668047 0
M  V30 22045 C 2152.37 -3.05134 1.57315 0
M  V30 22046 C 2151.45 -3.2134 2.7677 0
M  V30 22047 N 2151.85 -3.07623 4.01499 0
M  V30 22048 C 2150.14 -3.52332 2.73456 0
M  V30 22049 C 2150.84 -3.26423 4.8148 0
M  V30 22050 N 2149.82 -3.52594 4.13737 0
M  V30 22051 H 2153.62 -1.54314 2.50129 0
M  V30 22052 H 2151.14 -0.765413 1.43231 0
M  V30 22053 H 2153.13 -3.84312 1.61587 0
M  V30 22054 H 2151.79 -3.18291 0.64195 0
M  V30 22055 H 2152.8 -2.85025 4.32413 0
M  V30 22056 H 2149.48 -3.72037 1.89458 0
M  V30 22057 H 2150.87 -3.20816 5.90362 0
M  V30 22058 N 2153.59 -1.35359 -0.807199 0
M  V30 22059 C 2154.52 -1.30893 -1.93363 0
M  V30 22060 C 2155.5 -0.183475 -1.69108 0
M  V30 22061 O 2156.69 -0.378339 -1.90479 0
M  V30 22062 C 2153.82 -1.07954 -3.30096 0
M  V30 22063 C 2152.77 -2.17133 -3.68832 0
M  V30 22064 C 2152.1 -1.7936 -5.0372 0
M  V30 22065 C 2153.4 -3.59094 -3.79274 0
M  V30 22066 H 2155.09 -2.25145 -1.97357 0
M  V30 22067 H 2152.64 -1.08381 -0.948131 0
M  V30 22068 H 2154.59 -1.03469 -4.085 0
M  V30 22069 H 2153.31 -0.101468 -3.26442 0
M  V30 22070 H 2151.97 -2.20714 -2.92713 0
M  V30 22071 H 2151.62 -0.801733 -4.96569 0
M  V30 22072 H 2151.32 -2.52445 -5.30608 0
M  V30 22073 H 2152.85 -1.764 -5.84564 0
M  V30 22074 H 2154.26 -3.57839 -4.47911 0
M  V30 22075 H 2152.66 -4.30934 -4.17632 0
M  V30 22076 H 2153.73 -3.9529 -2.80845 0
M  V30 22077 N 2155.07 1.02928 -1.19346 0
M  V30 22078 C 2156.03 2.09361 -0.932765 0
M  V30 22079 C 2157.03 1.60567 0.086582 0
M  V30 22080 O 2158.22 1.73569 -0.148116 0
M  V30 22081 C 2155.35 3.38524 -0.401767 0
M  V30 22082 H 2156.55 2.33922 -1.87671 0
M  V30 22083 H 2154.1 1.19532 -1.00707 0
M  V30 22084 H 2154.84 3.19632 0.548245 0
M  V30 22085 H 2154.62 3.75261 -1.13672 0
M  V30 22086 H 2156.11 4.16919 -0.238443 0
M  V30 22087 N 2156.55 0.997319 1.2203 0
M  V30 22088 C 2157.48 0.571319 2.26403 0
M  V30 22089 C 2158.46 -0.404025 1.65232 0
M  V30 22090 O 2159.64 -0.293692 1.91966 0
M  V30 22091 C 2156.77 -0.110472 3.47124 0
M  V30 22092 C 2155.73 0.783865 4.20761 0
M  V30 22093 C 2155.05 -0.0310887 5.34691 0
M  V30 22094 C 2156.35 2.08283 4.78974 0
M  V30 22095 H 2158.05 1.44376 2.6229 0
M  V30 22096 H 2155.59 0.695656 1.26082 0
M  V30 22097 H 2157.55 -0.419919 4.19303 0
M  V30 22098 H 2156.27 -1.01749 3.10346 0
M  V30 22099 H 2154.93 1.07702 3.50422 0
M  V30 22100 H 2154.58 -0.939162 4.94155 0
M  V30 22101 H 2154.28 0.564316 5.84884 0
M  V30 22102 H 2155.8 -0.334528 6.09683 0
M  V30 22103 H 2157.22 1.83704 5.43071 0
M  V30 22104 H 2155.61 2.62743 5.39524 0
M  V30 22105 H 2156.68 2.75867 3.9878 0
M  V30 22106 N 2158.03 -1.37449 0.771075 0
M  V30 22107 C 2159.28 -1.98953 0.331779 0
M  V30 22108 C 2159.59 -1.61903 -1.09758 0
M  V30 22109 O 2160.79 -2.16505 -1.63823 0
M  V30 22110 C 2159.25 -3.55792 0.542247 0
M  V30 22111 C 2158.86 -4.01781 1.98183 0
M  V30 22112 C 2160.6 -4.24173 0.16654 0
M  V30 22113 C 2158.51 -5.51327 2.13993 0
M  V30 22114 H 2157.44 -0.74434 0.120306 0
M  V30 22115 H 2160.09 -1.56988 0.950108 0
M  V30 22116 H 2158.47 -3.95733 -0.145529 0
M  V30 22117 H 2159.65 -3.73086 2.7045 0
M  V30 22118 H 2157.96 -3.46179 2.31406 0
M  V30 22119 H 2160.56 -5.34052 0.263191 0
M  V30 22120 H 2160.9 -4.06825 -0.883113 0
M  V30 22121 H 2161.43 -3.89532 0.806838 0
M  V30 22122 H 2158.17 -5.736 3.17275 0
M  V30 22123 H 2157.69 -5.81707 1.46208 0
M  V30 22124 H 2159.37 -6.17286 1.93822 0
M  V30 22125 N 2159.5 -0.52156 -1.4872 0
M  V30 22126 C 2160.75 0.0155956 -2.02494 0
M  V30 22127 C 2161.08 1.35077 -1.39944 0
M  V30 22128 O 2160.33 1.88342 -0.531596 0
M  V30 22129 C 2160.63 0.195406 -3.56865 0
M  V30 22130 C 2160.3 -1.06435 -4.38158 0
M  V30 22131 C 2158.96 -1.40962 -4.6009 0
M  V30 22132 C 2161.31 -1.90076 -4.85305 0
M  V30 22133 C 2158.64 -2.59043 -5.26416 0
M  V30 22134 C 2160.99 -3.07328 -5.5293 0
M  V30 22135 C 2159.66 -3.42211 -5.73104 0
M  V30 22136 H 2158.93 0.00570684 -0.740978 0
M  V30 22137 H 2161.57 -0.68588 -1.78796 0
M  V30 22138 H 2159.88 0.979581 -3.79357 0
M  V30 22139 H 2161.58 0.625805 -3.96087 0
M  V30 22140 H 2158.17 -0.785439 -4.21342 0
M  V30 22141 H 2162.35 -1.64713 -4.6817 0
M  V30 22142 H 2157.61 -2.86282 -5.40234 0
M  V30 22143 H 2161.78 -3.72451 -5.88433 0
M  V30 22144 H 2159.41 -4.33809 -6.24271 0
M  V30 22145 N 2160.98 1.55502 -0.256304 0
M  V30 22146 C 2161.93 2.2177 0.63926 0
M  V30 22147 C 2162.9 1.18474 1.16418 0
M  V30 22148 O 2164.08 1.46954 1.21693 0
M  V30 22149 C 2161.22 2.92819 1.82623 0
M  V30 22150 C 2160.34 4.10791 1.33695 0
M  V30 22151 C 2159.47 4.69531 2.48423 0
M  V30 22152 C 2158.51 5.79735 1.96403 0
M  V30 22153 N 2157.65 6.32617 3.04533 0
M  V30 22154 H 2162.49 2.97924 0.0674772 0
M  V30 22155 H 2160.03 1.47084 0.0215424 0
M  V30 22156 H 2161.98 3.32216 2.52366 0
M  V30 22157 H 2160.61 2.19122 2.37034 0
M  V30 22158 H 2159.67 3.76644 0.533253 0
M  V30 22159 H 2160.98 4.90321 0.915786 0
M  V30 22160 H 2160.13 5.11551 3.26191 0
M  V30 22161 H 2158.87 3.89238 2.93845 0
M  V30 22162 H 2157.88 5.37183 1.17108 0
M  V30 22163 H 2159.1 6.61885 1.51939 0
M  V30 22164 H 2157.05 5.55225 3.49372 0
M  V30 22165 H 2156.96 7.07366 2.66776 0
M  V30 22166 H 2158.23 6.79295 3.82332 0
M  V30 22167 N 2162.46 -0.0166879 1.57591 0
M  V30 22168 C 2163.71 -0.704094 1.89012 0
M  V30 22169 C 2164.02 -1.75854 0.856437 0
M  V30 22170 O 2165.23 -2.4994 1.06029 0
M  V30 22171 C 2163.68 -1.30343 3.35468 0
M  V30 22172 C 2163.29 -0.284687 4.47095 0
M  V30 22173 C 2165.04 -1.96999 3.76021 0
M  V30 22174 C 2162.94 -0.893068 5.84618 0
M  V30 22175 H 2161.87 -0.266736 0.705243 0
M  V30 22176 H 2164.52 0.0411208 1.83454 0
M  V30 22177 H 2162.91 -2.09876 3.3581 0
M  V30 22178 H 2164.08 0.484835 4.58242 0
M  V30 22179 H 2162.4 0.280487 4.15454 0
M  V30 22180 H 2164.99 -2.43392 4.76093 0
M  V30 22181 H 2165.34 -2.79347 3.0866 0
M  V30 22182 H 2165.87 -1.24224 3.77906 0
M  V30 22183 H 2162.61 -0.108736 6.5541 0
M  V30 22184 H 2162.13 -1.63214 5.77167 0
M  V30 22185 H 2163.81 -1.39672 6.31744 0
M  V30 22186 N 2163.94 -1.54924 -0.289176 0
M  V30 22187 C 2164.9 -1.85935 -1.34017 0
M  V30 22188 C 2165.9 -0.732916 -1.43126 0
M  V30 22189 O 2167.09 -1.00116 -1.42556 0
M  V30 22190 C 2164.22 -2.0502 -2.72359 0
M  V30 22191 H 2165.42 -2.79872 -1.07758 0
M  V30 22192 H 2162.97 -1.47168 -0.526442 0
M  V30 22193 H 2163.7 -1.13412 -3.03823 0
M  V30 22194 H 2163.49 -2.8702 -2.67136 0
M  V30 22195 H 2164.98 -2.30342 -3.48328 0
M  V30 22196 N 2165.42 0.552936 -1.47582 0
M  V30 22197 C 2166.64 1.34003 -1.58297 0
M  V30 22198 C 2167.07 1.86625 -0.23511 0
M  V30 22199 O 2166.42 1.63197 0.789702 0
M  V30 22200 C 2166.47 2.48288 -2.61506 0
M  V30 22201 O 2165.58 3.50647 -2.17073 0
M  V30 22202 H 2164.92 0.397855 -0.531608 0
M  V30 22203 H 2167.45 0.667783 -1.93395 0
M  V30 22204 H 2167.46 2.94798 -2.8206 0
M  V30 22205 H 2166.13 2.09345 -3.59371 0
M  V30 22206 H 2164.71 3.10413 -2.06636 0
M  V30 22207 N 2166.89 1.35785 0.800009 0
M  V30 22208 C 2167.86 1.29109 1.89377 0
M  V30 22209 C 2168.86 0.201077 1.59538 0
M  V30 22210 O 2170.05 0.455197 1.68148 0
M  V30 22211 C 2167.18 0.99888 3.25937 0
M  V30 22212 H 2168.37 2.2637 1.96715 0
M  V30 22213 H 2165.93 1.20404 0.996618 0
M  V30 22214 H 2166.66 0.0304071 3.24286 0
M  V30 22215 H 2166.45 1.78756 3.48982 0
M  V30 22216 H 2167.94 0.977941 4.05988 0
M  V30 22217 N 2168.37 -1.02294 1.19891 0
M  V30 22218 C 2169.6 -1.79404 1.03062 0
M  V30 22219 C 2170.02 -1.84059 -0.420428 0
M  V30 22220 O 2169.37 -1.28896 -1.29198 0
M  V30 22221 C 2169.42 -3.24174 1.59979 0
M  V30 22222 O 2169.14 -3.19825 2.99405 0
M  V30 22223 C 2170.65 -4.17859 1.48016 0
M  V30 22224 H 2167.87 -0.564396 0.362902 0
M  V30 22225 H 2170.41 -1.28805 1.58838 0
M  V30 22226 H 2168.56 -3.71943 1.08338 0
M  V30 22227 H 2168.98 -4.10647 3.26296 0
M  V30 22228 H 2170.45 -5.17305 1.92611 0
M  V30 22229 H 2170.93 -4.37074 0.431619 0
M  V30 22230 H 2171.54 -3.75968 1.98817 0
M  V30 22231 N 2169.85 -1.00378 -1.21499 0
M  V30 22232 C 2171.08 -0.704573 -1.94534 0
M  V30 22233 C 2171.49 0.732632 -1.74006 0
M  V30 22234 O 2170.85 1.49556 -1.04591 0
M  V30 22235 C 2170.9 -1.01461 -3.4697 0
M  V30 22236 O 2170.62 -2.39535 -3.66817 0
M  V30 22237 C 2172.12 -0.734641 -4.3717 0
M  V30 22238 H 2169.34 -0.259747 -0.618686 0
M  V30 22239 H 2171.89 -1.34149 -1.54351 0
M  V30 22240 H 2170.04 -0.423313 -3.8508 0
M  V30 22241 H 2170.46 -2.50302 -4.60922 0
M  V30 22242 H 2171.93 -1.00176 -5.42834 0
M  V30 22243 H 2172.41 0.331329 -4.37948 0
M  V30 22244 H 2173.01 -1.30749 -4.04703 0
M  V30 22245 N 2171.33 1.37038 -0.778354 0
M  V30 22246 C 2172.29 2.28529 -0.175271 0
M  V30 22247 C 2173.29 1.48328 0.62093 0
M  V30 22248 O 2174.48 1.68459 0.443548 0
M  V30 22249 C 2171.61 3.32349 0.758757 0
M  V30 22250 H 2172.81 2.83372 -0.981858 0
M  V30 22251 H 2170.36 1.46415 -0.547012 0
M  V30 22252 H 2171.09 2.82642 1.5901 0
M  V30 22253 H 2170.88 3.9164 0.189916 0
M  V30 22254 H 2172.37 4.00701 1.17594 0
M  V30 22255 N 2172.81 0.529439 1.48441 0
M  V30 22256 C 2174.22 0.0888387 1.86489 0
M  V30 22257 C 2174.57 -1.33364 1.43905 0
M  V30 22258 O 2173.69 -1.9987 0.829524 0
M  V30 22259 C 2174.29 0.154445 3.38448 0
M  V30 22260 C 2172.85 -0.230958 3.75691 0
M  V30 22261 C 2172 0.514449 2.72486 0
M  V30 22262 H 2174.95 0.740717 1.40353 0
M  V30 22263 H 2174.97 -0.63398 3.75181 0
M  V30 22264 H 2174.48 1.18985 3.69411 0
M  V30 22265 H 2172.58 -1.26853 3.50341 0
M  V30 22266 H 2172.69 0.108275 4.78978 0
M  V30 22267 H 2171.06 -0.039218 2.5467 0
M  V30 22268 H 2171.84 1.55048 3.06293 0
M  V30 22269 N 2174.29 -1.55364 0.264547 0
M  V30 22270 C 2175.51 -2.0422 -0.361799 0
M  V30 22271 C 2175.94 -1.14203 -1.49464 0
M  V30 22272 O 2175.29 -0.138477 -1.8077 0
M  V30 22273 C 2175.34 -3.50911 -0.830308 0
M  V30 22274 O 2174.45 -3.64002 -1.93847 0
M  V30 22275 H 2173.79 -0.659588 -0.0764174 0
M  V30 22276 H 2176.32 -2.00736 0.39576 0
M  V30 22277 H 2176.33 -3.92072 -1.12887 0
M  V30 22278 H 2175 -4.159 -0.00142245 0
M  V30 22279 H 2173.58 -3.34741 -1.64325 0
M  V30 22280 N 2175.76 0.00833021 -1.57598 0
M  V30 22281 C 2177.01 0.69406 -1.89382 0
M  V30 22282 C 2177.33 1.75397 -0.865751 0
M  V30 22283 O 2178.53 2.49374 -1.07353 0
M  V30 22284 C 2176.99 1.28562 -3.36154 0
M  V30 22285 C 2176.6 0.260972 -4.47239 0
M  V30 22286 C 2178.34 1.95003 -3.7706 0
M  V30 22287 C 2176.25 0.862051 -5.85083 0
M  V30 22288 H 2175.18 0.262992 -0.706648 0
M  V30 22289 H 2177.83 -0.0508492 -1.8343 0
M  V30 22290 H 2176.21 2.08092 -3.36918 0
M  V30 22291 H 2177.38 -0.50913 -4.57979 0
M  V30 22292 H 2175.7 -0.302516 -4.153 0
M  V30 22293 H 2178.3 2.40863 -4.77377 0
M  V30 22294 H 2178.64 2.77706 -3.10137 0
M  V30 22295 H 2179.17 1.22218 -3.7856 0
M  V30 22296 H 2175.91 0.0739761 -6.55458 0
M  V30 22297 H 2175.43 1.60151 -5.78024 0
M  V30 22298 H 2177.11 1.3632 -6.32476 0
M  V30 22299 N 2177.24 1.55075 0.280956 0
M  V30 22300 C 2178.65 1.66097 0.852571 0
M  V30 22301 C 2179 0.582747 1.87346 0
M  V30 22302 O 2178.13 -0.277166 2.14618 0
M  V30 22303 C 2178.72 3.01102 1.55317 0
M  V30 22304 C 2177.28 3.14177 2.07292 0
M  V30 22305 C 2176.43 2.61864 0.912278 0
M  V30 22306 H 2179.38 1.58596 0.0574834 0
M  V30 22307 H 2179.4 2.93646 2.41976 0
M  V30 22308 H 2178.91 3.79555 0.809903 0
M  V30 22309 H 2177.01 2.40482 2.84604 0
M  V30 22310 H 2177.13 4.20627 2.29369 0
M  V30 22311 H 2175.49 2.1882 1.30345 0
M  V30 22312 H 2176.27 3.42814 0.18265 0
M  V30 22313 N 2178.72 -0.545102 1.47873 0
M  V30 22314 C 2179.94 -1.33162 1.59005 0
M  V30 22315 C 2180.37 -1.86498 0.245004 0
M  V30 22316 O 2179.73 -1.63614 -0.781037 0
M  V30 22317 C 2179.78 -2.46898 2.62819 0
M  V30 22318 O 2178.88 -3.49491 2.1893 0
M  V30 22319 H 2178.22 -0.395031 0.53371 0
M  V30 22320 H 2180.75 -0.657518 1.93747 0
M  V30 22321 H 2180.76 -2.93298 2.8362 0
M  V30 22322 H 2179.44 -2.07436 3.60476 0
M  V30 22323 H 2178.01 -3.09312 2.08279 0
M  V30 22324 N 2180.2 -1.36208 -0.792797 0
M  V30 22325 C 2181.15 -1.2679 -1.89495 0
M  V30 22326 C 2182.13 -0.160119 -1.60101 0
M  V30 22327 O 2183.32 -0.39262 -1.72591 0
M  V30 22328 C 2180.45 -1.05602 -3.26654 0
M  V30 22329 C 2179.54 -2.20832 -3.62069 0
M  V30 22330 N 2179.93 -3.46132 -3.68817 0
M  V30 22331 C 2178.23 -2.12523 -3.9211 0
M  V30 22332 C 2178.93 -4.21991 -4.00373 0
M  V30 22333 N 2177.9 -3.50895 -4.15179 0
M  V30 22334 H 2181.71 -2.21707 -1.92934 0
M  V30 22335 H 2179.22 -1.28878 -0.988137 0
M  V30 22336 H 2181.22 -0.969423 -4.05472 0
M  V30 22337 H 2179.88 -0.115827 -3.24493 0
M  V30 22338 H 2180.89 -3.8031 -3.51547 0
M  V30 22339 H 2177.57 -1.26439 -3.97894 0
M  V30 22340 H 2178.96 -5.30335 -4.12546 0
M  V30 22341 N 2181.68 1.01656 -1.20431 0
M  V30 22342 C 2182.61 2.12074 -0.977076 0
M  V30 22343 C 2183.59 1.6984 0.0939563 0
M  V30 22344 O 2184.77 1.94096 -0.0635618 0
M  V30 22345 C 2181.9 3.43257 -0.528392 0
M  V30 22346 C 2180.86 3.99231 -1.54267 0
M  V30 22347 C 2180.18 5.26182 -0.950621 0
M  V30 22348 C 2181.48 4.32619 -2.92639 0
M  V30 22349 H 2183.18 2.31342 -1.90056 0
M  V30 22350 H 2180.72 1.11175 -0.915209 0
M  V30 22351 H 2182.67 4.19888 -0.35665 0
M  V30 22352 H 2181.4 3.23747 0.430716 0
M  V30 22353 H 2180.06 3.24708 -1.70177 0
M  V30 22354 H 2179.71 5.02997 0.0164182 0
M  V30 22355 H 2179.41 5.64597 -1.62802 0
M  V30 22356 H 2180.93 6.05469 -0.789947 0
M  V30 22357 H 2182.34 5.00138 -2.8024 0
M  V30 22358 H 2180.74 4.82148 -3.57286 0
M  V30 22359 H 2181.81 3.41386 -3.4436 0
M  V30 22360 N 2183.15 1.01021 1.20965 0
M  V30 22361 C 2184.38 0.714661 1.94698 0
M  V30 22362 C 2184.8 -0.717235 1.73889 0
M  V30 22363 O 2184.16 -1.49265 1.02906 0
M  V30 22364 C 2184.21 1.04769 3.45045 0
M  V30 22365 O 2183.31 0.155818 4.12106 0
M  V30 22366 H 2182.65 0.265768 0.608493 0
M  V30 22367 H 2185.18 1.35186 1.53577 0
M  V30 22368 H 2185.19 0.996722 3.95638 0
M  V30 22369 H 2183.87 2.09099 3.59514 0
M  V30 22370 H 2182.45 0.263764 3.71966 0
M  V30 22371 N 2184.63 -1.36623 0.78561 0
M  V30 22372 C 2186.04 -1.81917 0.419903 0
M  V30 22373 C 2186.39 -1.65376 -1.0557 0
M  V30 22374 O 2185.52 -1.17258 -1.81878 0
M  V30 22375 C 2186.11 -3.30272 0.755384 0
M  V30 22376 C 2184.67 -3.73789 0.442556 0
M  V30 22377 C 2183.82 -2.58948 0.992018 0
M  V30 22378 H 2186.77 -1.24899 0.979084 0
M  V30 22379 H 2186.79 -3.80473 0.0450829 0
M  V30 22380 H 2186.3 -3.42278 1.8294 0
M  V30 22381 H 2184.4 -3.67345 -0.623584 0
M  V30 22382 H 2184.52 -4.69373 0.960503 0
M  V30 22383 H 2182.88 -2.51289 0.415458 0
M  V30 22384 H 2183.66 -2.73742 2.07172 0
M  V30 22385 N 2186.11 -0.537304 -1.48158 0
M  V30 22386 C 2187.36 -0.00587084 -2.02099 0
M  V30 22387 C 2187.68 1.3407 -1.41599 0
M  V30 22388 O 2186.95 1.86993 -0.583977 0
M  V30 22389 H 2185.53 0.000818022 -0.747 0
M  V30 22390 H 2188.19 -0.702798 -1.81788 0
M  V30 22391 H 2187.29 0.0970321 -3.11949 0
M  V30 22392 N 2187.59 1.55221 -0.272782 0
M  V30 22393 C 2188.52 2.25408 0.609392 0
M  V30 22394 C 2189.5 1.2434 1.16076 0
M  V30 22395 O 2190.68 1.53054 1.19533 0
M  V30 22396 C 2187.81 2.97338 1.79464 0
M  V30 22397 C 2186.77 4.05315 1.37491 0
M  V30 22398 C 2186.09 4.64808 2.64307 0
M  V30 22399 C 2187.39 5.19636 0.526828 0
M  V30 22400 H 2189.09 2.9939 0.0240678 0
M  V30 22401 H 2186.63 1.43996 0.0101357 0
M  V30 22402 H 2188.59 3.45149 2.41765 0
M  V30 22403 H 2187.31 2.20887 2.40576 0
M  V30 22404 H 2185.97 3.58312 0.775106 0
M  V30 22405 H 2185.62 3.85027 3.23672 0
M  V30 22406 H 2185.32 5.37713 2.36935 0
M  V30 22407 H 2186.84 5.15366 3.2746 0
M  V30 22408 H 2188.26 5.63513 1.05478 0
M  V30 22409 H 2186.65 5.9909 0.348095 0
M  V30 22410 H 2187.72 4.82761 -0.454948 0
M  V30 22411 N 2189.07 2.77022e-05 1.576 0
M  V30 22412 C 2190.48 -0.35605 1.55578 0
M  V30 22413 C 2190.68 -1.74784 1.00264 0
M  V30 22414 O 2189.74 -2.44347 0.636465 0
M  V30 22415 C 2191.05 -0.231258 2.99809 0
M  V30 22416 C 2192.6 -0.306194 3.11499 0
M  V30 22417 C 2193.07 -0.210525 4.57516 0
M  V30 22418 N 2194.57 -0.268424 4.62422 0
M  V30 22419 C 2195.3 -0.217739 5.72986 0
M  V30 22420 N 2194.8 -0.117649 6.927 0
M  V30 22421 N 2196.59 -0.269606 5.61453 0
M  V30 22422 H 2188.74 0.91049 1.91895 0
M  V30 22423 H 2191 0.349005 0.881419 0
M  V30 22424 H 2190.71 0.726333 3.44118 0
M  V30 22425 H 2190.58 -1.01332 3.63334 0
M  V30 22426 H 2192.97 -1.25423 2.6712 0
M  V30 22427 H 2193.05 0.505733 2.50751 0
M  V30 22428 H 2192.7 0.733965 5.02569 0
M  V30 22429 H 2192.63 -1.04094 5.16209 0
M  V30 22430 H 2195.12 -0.347112 3.76302 0
M  V30 22431 H 2195.43 -0.0848705 7.72753 0
M  V30 22432 H 2193.77 -0.0832758 6.9495 0
M  V30 22433 H 2196.97 -0.345996 4.6682 0
M  V30 22434 H 2197.14 -0.22664 6.47604 0
M  V30 22435 N 2190.54 -1.55222 -0.272728 0
M  V30 22436 C 2191.82 -1.66557 -1.02559 0
M  V30 22437 C 2192.2 -0.532225 -2.04281 0
M  V30 22438 O 2191.55 0.467678 -2.23663 0
M  V30 22439 C 2191.76 -3.05785 -1.68215 0
M  V30 22440 C 2193.11 -3.63543 -2.19367 0
M  V30 22441 O 2194.13 -3.0842 -1.78201 0
M  V30 22442 O 2192.99 -4.60121 -2.94875 0
M  V30 22443 H 2190.08 -0.67646 -0.475743 0
M  V30 22444 H 2192.63 -1.67561 -0.268564 0
M  V30 22445 H 2191.4 -3.79716 -0.945046 0
M  V30 22446 H 2191.03 -3.08681 -2.50603 0
M  V30 22447 N 2192.02 0.537252 -1.4816 0
M  V30 22448 C 2193.27 1.29538 -1.56038 0
M  V30 22449 C 2193.6 1.92828 -0.230411 0
M  V30 22450 O 2192.88 1.78913 0.762921 0
M  V30 22451 C 2193.16 2.39029 -2.69327 0
M  V30 22452 C 2193.01 1.80478 -4.12005 0
M  V30 22453 C 2194.33 3.40842 -2.78414 0
M  V30 22454 H 2191.45 0.469622 -0.568 0
M  V30 22455 H 2194.09 0.599245 -1.80303 0
M  V30 22456 H 2192.24 2.98407 -2.48768 0
M  V30 22457 H 2193.91 1.25207 -4.43983 0
M  V30 22458 H 2192.16 1.11048 -4.19346 0
M  V30 22459 H 2192.83 2.59722 -4.87082 0
M  V30 22460 H 2195.3 2.9141 -2.97017 0
M  V30 22461 H 2194.18 4.14857 -3.59423 0
M  V30 22462 H 2194.44 4.00941 -1.86276 0
M  V30 22463 N 2193.5 1.36626 0.785562 0
M  V30 22464 C 2194.46 1.3111 1.87997 0
M  V30 22465 C 2195.46 0.217987 1.59316 0
M  V30 22466 O 2196.65 0.473006 1.67655 0
M  V30 22467 C 2193.79 1.03339 3.2486 0
M  V30 22468 H 2194.98 2.28444 1.94303 0
M  V30 22469 H 2192.53 1.21455 0.983792 0
M  V30 22470 H 2193.27 0.0648002 3.24235 0
M  V30 22471 H 2193.05 1.82447 3.47067 0
M  V30 22472 H 2194.54 1.02095 4.04928 0
M  V30 22473 N 2194.98 -1.01016 1.20969 0
M  V30 22474 C 2195.91 -2.11553 0.988309 0
M  V30 22475 C 2196.89 -1.69888 -0.084948 0
M  V30 22476 O 2198.07 -1.9406 0.0738543 0
M  V30 22477 C 2195.2 -3.42972 0.546588 0
M  V30 22478 C 2194.16 -3.98408 1.56382 0
M  V30 22479 C 2193.48 -5.2567 0.978512 0
M  V30 22480 C 2194.78 -4.31061 2.9493 0
M  V30 22481 H 2196.48 -2.30331 1.9128 0
M  V30 22482 H 2194.02 -1.10688 0.921092 0
M  V30 22483 H 2195.98 -4.19693 0.378913 0
M  V30 22484 H 2194.7 -3.23971 -0.413541 0
M  V30 22485 H 2193.36 -3.23801 1.71897 0
M  V30 22486 H 2193.01 -5.02999 0.0102572 0
M  V30 22487 H 2192.71 -5.63725 1.65794 0
M  V30 22488 H 2194.23 -6.05041 0.822046 0
M  V30 22489 H 2195.65 -4.98645 2.82889 0
M  V30 22490 H 2194.04 -4.80246 3.59838 0
M  V30 22491 H 2195.11 -3.39555 3.46166 0
M  V30 22492 N 2196.46 -1.01661 -1.20428 0
M  V30 22493 C 2197.87 -0.731467 -1.41851 0
M  V30 22494 C 2198.07 0.688865 -1.89359 0
M  V30 22495 O 2197.13 1.45662 -2.06249 0
M  V30 22496 C 2198.44 -1.75718 -2.44016 0
M  V30 22497 C 2199.99 -1.77532 -2.57782 0
M  V30 22498 C 2200.46 -2.7903 -3.63189 0
M  V30 22499 N 2201.96 -2.7777 -3.70673 0
M  V30 22500 C 2202.69 -3.52962 -4.51891 0
M  V30 22501 N 2202.19 -4.3783 -5.36914 0
M  V30 22502 N 2203.98 -3.41559 -4.46424 0
M  V30 22503 H 2196.13 -1.93355 -0.879059 0
M  V30 22504 H 2198.39 -0.835244 -0.448411 0
M  V30 22505 H 2198.1 -2.77473 -2.16105 0
M  V30 22506 H 2197.97 -1.56933 -3.43004 0
M  V30 22507 H 2200.36 -0.764619 -2.85022 0
M  V30 22508 H 2200.44 -2.0039 -1.58989 0
M  V30 22509 H 2200.09 -3.80264 -3.36693 0
M  V30 22510 H 2200.02 -2.53433 -4.61605 0
M  V30 22511 H 2202.51 -2.16206 -3.09941 0
M  V30 22512 H 2202.82 -4.91973 -5.95972 0
M  V30 22513 H 2201.16 -4.41908 -5.36416 0
M  V30 22514 H 2204.36 -2.74679 -3.79037 0
M  V30 22515 H 2204.53 -4.00413 -5.09484 0
M  V30 22516 N 2197.93 1.36205 -0.792844 0
M  V30 22517 C 2199.17 2.00981 -0.372273 0
M  V30 22518 C 2199.54 1.61557 1.03746 0
M  V30 22519 O 2200.74 2.1895 1.5593 0
M  V30 22520 C 2199.01 3.53379 -0.534629 0
M  V30 22521 S 2200.57 4.38333 -0.202442 0
M  V30 22522 H 2197.39 0.696664 -0.142056 0
M  V30 22523 H 2199.99 1.66037 -1.03209 0
M  V30 22524 H 2198.69 3.79559 -1.56087 0
M  V30 22525 H 2198.22 3.93147 0.140996 0
M  V30 22526 H 2200.24 4.86126 0.994783 0
M  V30 22527 N 2199.41 0.545154 1.47871 0
M  V30 22528 C 2200.34 -0.197752 2.32661 0
M  V30 22529 C 2201.32 -0.920479 1.43043 0
M  V30 22530 O 2202.51 -0.9033 1.71913 0
M  V30 22531 C 2199.64 -1.23576 3.24571 0
M  V30 22532 C 2198.59 -0.630249 4.23334 0
M  V30 22533 C 2197.92 -1.77202 5.04483 0
M  V30 22534 C 2199.22 0.408065 5.20703 0
M  V30 22535 H 2200.91 0.510097 2.95023 0
M  V30 22536 H 2198.46 0.246756 1.4187 0
M  V30 22537 H 2200.41 -1.76355 3.82723 0
M  V30 22538 H 2199.14 -1.9734 2.6024 0
M  V30 22539 H 2197.79 -0.123857 3.66391 0
M  V30 22540 H 2197.44 -2.4984 4.36565 0
M  V30 22541 H 2197.14 -1.37271 5.71341 0
M  V30 22542 H 2198.67 -2.3033 5.65491 0
M  V30 22543 H 2200.08 -0.0332043 5.7329 0
M  V30 22544 H 2198.48 0.725591 5.95697 0
M  V30 22545 H 2199.55 1.30837 4.66915 0
M  V30 22546 N 2200.89 -1.55074 0.28101 0
M  V30 22547 C 2201.8 -2.26427 -0.61384 0
M  V30 22548 C 2202.82 -1.29226 -1.16519 0
M  V30 22549 O 2203.99 -1.62173 -1.19423 0
M  V30 22550 C 2201.06 -2.97593 -1.77875 0
M  V30 22551 C 2200.12 -4.10286 -1.26348 0
M  V30 22552 C 2199.35 -4.78049 -2.37287 0
M  V30 22553 O 2199.57 -4.45053 -3.56769 0
M  V30 22554 O 2198.51 -5.65874 -2.05109 0
M  V30 22555 H 2202.33 -3.03679 -0.0356398 0
M  V30 22556 H 2199.92 -1.49322 0.0481948 0
M  V30 22557 H 2201.8 -3.42297 -2.45785 0
M  V30 22558 H 2200.48 -2.23253 -2.34393 0
M  V30 22559 H 2199.38 -3.70025 -0.55067 0
M  V30 22560 H 2200.72 -4.86545 -0.743979 0
M  V30 22561 N 2202.37 -0.00838561 -1.57598 0
M  V30 22562 C 2203.3 0.979076 -2.11982 0
M  V30 22563 C 2204.28 1.35299 -1.03093 0
M  V30 22564 O 2205.47 1.43526 -1.3082 0
M  V30 22565 C 2202.6 2.26824 -2.62999 0
M  V30 22566 C 2201.55 2.03569 -3.76488 0
M  V30 22567 C 2200.88 3.38571 -4.13852 0
M  V30 22568 C 2202.18 1.39152 -5.03422 0
M  V30 22569 H 2203.87 0.52623 -2.94739 0
M  V30 22570 H 2201.42 0.251679 -1.41784 0
M  V30 22571 H 2203.37 2.96266 -2.99674 0
M  V30 22572 H 2202.09 2.74237 -1.77374 0
M  V30 22573 H 2200.75 1.36551 -3.4022 0
M  V30 22574 H 2200.4 3.83704 -3.25239 0
M  V30 22575 H 2200.1 3.23825 -4.90317 0
M  V30 22576 H 2201.62 4.09315 -4.53093 0
M  V30 22577 H 2203.04 1.98563 -5.37815 0
M  V30 22578 H 2201.43 1.34868 -5.84748 0
M  V30 22579 H 2202.5 0.361783 -4.83548 0
M  V30 22580 N 2203.85 1.55365 0.264492 0
M  V30 22581 C 2204.78 1.85251 1.34962 0
M  V30 22582 C 2205.79 0.737551 1.45135 0
M  V30 22583 O 2206.98 1.0155 1.46799 0
M  V30 22584 C 2204.08 2.00802 2.73005 0
M  V30 22585 C 2203.25 3.3153 2.85319 0
M  V30 22586 C 2202.31 3.37041 4.04091 0
M  V30 22587 O 2201.34 4.10365 3.94448 0
M  V30 22588 N 2202.54 2.65058 5.16454 0
M  V30 22589 H 2205.31 2.78915 1.09667 0
M  V30 22590 H 2202.87 1.55386 0.454608 0
M  V30 22591 H 2204.86 2.0185 3.50769 0
M  V30 22592 H 2203.43 1.13965 2.91085 0
M  V30 22593 H 2202.65 3.42948 1.94371 0
M  V30 22594 H 2203.94 4.17729 2.90483 0
M  V30 22595 H 2203.34 2.05185 5.27177 0
M  V30 22596 H 2201.89 2.71819 5.92417 0
M  V30 22597 N 2205.33 -0.529387 1.48443 0
M  V30 22598 C 2206.74 -1.11132 1.50022 0
M  V30 22599 C 2207.09 -1.94329 0.270344 0
M  V30 22600 O 2206.21 -2.07254 -0.62247 0
M  V30 22601 C 2206.81 -2.02212 2.71838 0
M  V30 22602 C 2205.37 -2.55622 2.76287 0
M  V30 22603 C 2204.51 -1.32596 2.43544 0
M  V30 22604 H 2207.46 -0.314614 1.5555 0
M  V30 22605 H 2207.49 -2.86506 2.50389 0
M  V30 22606 H 2207 -1.41633 3.61333 0
M  V30 22607 H 2205.1 -3.19921 1.91001 0
M  V30 22608 H 2205.21 -2.94715 3.7773 0
M  V30 22609 H 2203.58 -1.64193 1.94712 0
M  V30 22610 H 2204.36 -0.737675 3.35281 0
M  V30 22611 N 2206.8 -1.37041 -0.778305 0
M  V30 22612 C 2207.74 -1.28143 -1.90032 0
M  V30 22613 C 2208.75 -0.198586 -1.61584 0
M  V30 22614 O 2209.94 -0.454206 -1.72625 0
M  V30 22615 C 2207.04 -0.957025 -3.25107 0
M  V30 22616 C 2206.21 -2.14401 -3.81249 0
M  V30 22617 C 2205.27 -1.79091 -4.94786 0
M  V30 22618 O 2204.3 -2.5131 -5.10717 0
M  V30 22619 N 2205.5 -0.731144 -5.75877 0
M  V30 22620 H 2208.26 -2.24819 -1.98183 0
M  V30 22621 H 2205.82 -1.3058 -0.957106 0
M  V30 22622 H 2207.82 -0.701771 -3.98569 0
M  V30 22623 H 2206.39 -0.0790361 -3.125 0
M  V30 22624 H 2205.61 -2.56141 -2.99642 0
M  V30 22625 H 2206.89 -2.93675 -4.1549 0
M  V30 22626 H 2206.29 -0.131718 -5.65547 0
M  V30 22627 H 2204.85 -0.535736 -6.49595 0
M  V30 22628 N 2208.28 1.00373 -1.21503 0
M  V30 22629 C 2209.56 1.71435 -0.941775 0
M  V30 22630 C 2209.94 2.03915 0.546078 0
M  V30 22631 O 2209.29 1.71387 1.51125 0
M  V30 22632 C 2209.5 2.97286 -1.82817 0
M  V30 22633 C 2210.84 3.70289 -2.07777 0
M  V30 22634 O 2211.87 3.0727 -1.80176 0
M  V30 22635 O 2210.73 4.83642 -2.54465 0
M  V30 22636 H 2207.82 0.747756 -0.353256 0
M  V30 22637 H 2210.37 1.06105 -1.32438 0
M  V30 22638 H 2209.14 2.69704 -2.83506 0
M  V30 22639 H 2208.76 3.70356 -1.44646 0
M  V30 22640 N 2209.76 1.02298 1.19887 0
M  V30 22641 C 2211.18 0.738979 1.41461 0
M  V30 22642 C 2211.38 -0.678813 1.89722 0
M  V30 22643 O 2210.43 -1.44566 2.07019 0
M  V30 22644 C 2211.74 1.7701 2.4308 0
M  V30 22645 C 2213.29 1.78896 2.56837 0
M  V30 22646 C 2213.77 2.80952 3.61704 0
M  V30 22647 N 2215.26 2.79732 3.69194 0
M  V30 22648 C 2215.99 3.55353 4.50013 0
M  V30 22649 N 2215.49 4.40672 5.34584 0
M  V30 22650 N 2217.28 3.43922 4.44606 0
M  V30 22651 H 2209.43 1.93819 0.868793 0
M  V30 22652 H 2211.7 0.83761 0.443975 0
M  V30 22653 H 2211.4 2.78615 2.14631 0
M  V30 22654 H 2211.28 1.5875 3.42167 0
M  V30 22655 H 2213.66 0.779724 2.84613 0
M  V30 22656 H 2213.74 2.01231 1.57924 0
M  V30 22657 H 2213.39 3.82044 3.34671 0
M  V30 22658 H 2213.32 2.55878 4.60254 0
M  V30 22659 H 2215.81 2.17847 3.0879 0
M  V30 22660 H 2216.12 4.95127 5.93354 0
M  V30 22661 H 2214.47 4.44747 5.34065 0
M  V30 22662 H 2217.66 2.76685 3.77575 0
M  V30 22663 H 2217.83 4.03109 5.07353 0
M  V30 22664 N 2211.24 -1.35782 0.800057 0
M  V30 22665 C 2212.65 -1.81461 0.439174 0
M  V30 22666 C 2213 -1.66487 -1.0381 0
M  V30 22667 O 2212.12 -1.1918 -1.80624 0
M  V30 22668 C 2212.72 -3.29452 0.790372 0
M  V30 22669 C 2211.28 -3.73299 0.482177 0
M  V30 22670 C 2210.43 -2.57882 1.01943 0
M  V30 22671 H 2213.38 -1.23853 0.992276 0
M  V30 22672 H 2213.4 -3.80404 0.0854346 0
M  V30 22673 H 2212.91 -3.40319 1.8656 0
M  V30 22674 H 2211.01 -3.67986 -0.584587 0
M  V30 22675 H 2211.12 -4.68328 1.01023 0
M  V30 22676 H 2209.49 -2.50834 0.442087 0
M  V30 22677 H 2210.27 -2.71529 2.10064 0
M  V30 22678 N 2212.72 -0.552988 -1.4758 0
M  V30 22679 C 2214.13 -0.118496 -1.86324 0
M  V30 22680 C 2214.48 1.31057 -1.46008 0
M  V30 22681 O 2213.6 1.98525 -0.861217 0
M  V30 22682 C 2214.2 -0.208269 -3.38159 0
M  V30 22683 C 2212.76 0.17116 -3.76011 0
M  V30 22684 C 2211.9 -0.557734 -2.71633 0
M  V30 22685 H 2214.85 -0.762953 -1.39157 0
M  V30 22686 H 2214.88 0.574212 -3.76142 0
M  V30 22687 H 2214.39 -1.24847 -3.67471 0
M  V30 22688 H 2212.49 1.21263 -3.52315 0
M  V30 22689 H 2212.6 -0.184463 -4.78745 0
M  V30 22690 H 2210.97 -0.00130269 -2.547 0
M  V30 22691 H 2211.75 -1.59901 -3.03787 0
M  V30 22692 N 2214.19 1.54923 -0.28923 0
M  V30 22693 C 2215.42 2.0477 0.329263 0
M  V30 22694 C 2215.84 1.16566 1.47628 0
M  V30 22695 O 2215.2 0.167218 1.80527 0
M  V30 22696 C 2215.25 3.52187 0.774376 0
M  V30 22697 O 2214.35 3.6704 1.88031 0
M  V30 22698 H 2213.69 0.66072 0.0659143 0
M  V30 22699 H 2216.22 2.00081 -0.427645 0
M  V30 22700 H 2216.23 3.93818 1.06635 0
M  V30 22701 H 2214.91 4.1585 -0.0647438 0
M  V30 22702 H 2213.49 3.37313 1.58979 0
M  V30 22703 N 2215.67 0.0167433 1.57591 0
M  V30 22704 C 2217.09 -0.339529 1.55947 0
M  V30 22705 C 2217.29 -1.73711 1.02112 0
M  V30 22706 O 2216.34 -2.43658 0.662345 0
M  V30 22707 C 2217.66 -0.199446 3.00038 0
M  V30 22708 C 2219.2 -0.273139 3.11806 0
M  V30 22709 C 2219.68 -0.161988 4.57713 0
M  V30 22710 N 2221.17 -0.219363 4.6268 0
M  V30 22711 C 2221.91 -0.156954 5.73185 0
M  V30 22712 N 2221.4 -0.0441718 6.92786 0
M  V30 22713 N 2223.19 -0.210041 5.61707 0
M  V30 22714 H 2215.35 0.930792 1.90919 0
M  V30 22715 H 2217.61 0.358334 0.877668 0
M  V30 22716 H 2217.31 0.76279 3.43328 0
M  V30 22717 H 2217.19 -0.974722 3.64389 0
M  V30 22718 H 2219.58 -1.22583 2.68435 0
M  V30 22719 H 2219.66 0.5323 2.502 0
M  V30 22720 H 2219.3 0.787228 5.01762 0
M  V30 22721 H 2219.23 -0.986131 5.17284 0
M  V30 22722 H 2221.72 -0.30718 3.76649 0
M  V30 22723 H 2222.03 -0.00290485 7.728 0
M  V30 22724 H 2220.38 -0.00956241 6.94999 0
M  V30 22725 H 2223.57 -0.296464 4.6716 0
M  V30 22726 H 2223.74 -0.15794 6.47807 0
M  V30 22727 N 2217.15 -1.55503 -0.256249 0
M  V30 22728 C 2218.06 -1.92649 -1.33879 0
M  V30 22729 C 2219.08 -0.825754 -1.53158 0
M  V30 22730 O 2220.25 -1.12632 -1.66961 0
M  V30 22731 C 2217.32 -2.20548 -2.67506 0
M  V30 22732 C 2216.38 -3.44001 -2.5683 0
M  V30 22733 C 2215.61 -3.70559 -3.84085 0
M  V30 22734 O 2215.83 -2.99344 -4.8554 0
M  V30 22735 O 2214.77 -4.64091 -3.8328 0
M  V30 22736 H 2218.59 -2.84835 -1.05369 0
M  V30 22737 H 2216.18 -1.42264 -0.456212 0
M  V30 22738 H 2218.06 -2.39842 -3.46488 0
M  V30 22739 H 2216.74 -1.31542 -2.95768 0
M  V30 22740 H 2215.64 -3.30024 -1.76167 0
M  V30 22741 H 2216.98 -4.3328 -2.33516 0
M  V30 22742 N 2218.63 0.521507 -1.48721 0
M  V30 22743 C 2219.56 1.63428 -1.66774 0
M  V30 22744 C 2220.54 1.62068 -0.516528 0
M  V30 22745 O 2221.72 1.79131 -0.750045 0
M  V30 22746 C 2218.85 3.0199 -1.71521 0
M  V30 22747 C 2217.81 3.18211 -2.86227 0
M  V30 22748 C 2217.13 4.57919 -2.76069 0
M  V30 22749 C 2218.43 3.00177 -4.27424 0
M  V30 22750 H 2220.13 1.48574 -2.59935 0
M  V30 22751 H 2217.67 0.713336 -1.2509 0
M  V30 22752 H 2219.63 3.79717 -1.82738 0
M  V30 22753 H 2218.35 3.17885 -0.749449 0
M  V30 22754 H 2217.01 2.42903 -2.74579 0
M  V30 22755 H 2216.66 4.70662 -1.77445 0
M  V30 22756 H 2216.36 4.69716 -3.53045 0
M  V30 22757 H 2217.88 5.37734 -2.89266 0
M  V30 22758 H 2219.3 3.67689 -4.39861 0
M  V30 22759 H 2217.69 3.23461 -5.05463 0
M  V30 22760 H 2218.76 1.96511 -4.43296 0
M  V30 22761 N 2220.11 1.37452 0.771027 0
M  V30 22762 C 2221.04 1.35974 1.89825 0
M  V30 22763 C 2222.02 0.228246 1.68562 0
M  V30 22764 O 2223.2 0.428708 1.89409 0
M  V30 22765 C 2220.33 1.16668 3.27118 0
M  V30 22766 C 2219.29 2.26836 3.62946 0
M  V30 22767 C 2218.61 1.92652 4.98788 0
M  V30 22768 C 2219.91 3.69023 3.6962 0
M  V30 22769 H 2221.61 2.30299 1.91319 0
M  V30 22770 H 2219.15 1.10857 0.919062 0
M  V30 22771 H 2221.11 1.14263 4.05613 0
M  V30 22772 H 2219.83 0.187983 3.26059 0
M  V30 22773 H 2218.49 2.28397 2.86759 0
M  V30 22774 H 2218.14 0.933108 4.94269 0
M  V30 22775 H 2217.84 2.66425 5.23729 0
M  V30 22776 H 2219.36 1.91836 5.79682 0
M  V30 22777 H 2220.77 3.69588 4.38266 0
M  V30 22778 H 2219.17 4.41855 4.06059 0
M  V30 22779 H 2220.24 4.02597 2.70266 0
M  V30 22780 N 2221.58 -0.997276 1.22033 0
M  V30 22781 C 2222.53 -2.08655 0.986504 0
M  V30 22782 C 2223.5 -1.65855 -0.090238 0
M  V30 22783 O 2224.69 -1.9071 0.0584629 0
M  V30 22784 C 2221.83 -3.40433 0.565629 0
M  V30 22785 C 2220.94 -3.966 1.71266 0
M  V30 22786 C 2220.07 -5.1652 1.2402 0
M  V30 22787 C 2219.11 -5.64814 2.35906 0
M  V30 22788 N 2218.25 -6.75976 1.89738 0
M  V30 22789 H 2223.09 -2.27991 1.91896 0
M  V30 22790 H 2220.63 -1.1178 0.956219 0
M  V30 22791 H 2222.59 -4.161 0.302812 0
M  V30 22792 H 2221.22 -3.21111 -0.329823 0
M  V30 22793 H 2220.27 -3.17847 2.08992 0
M  V30 22794 H 2221.58 -4.28428 2.55443 0
M  V30 22795 H 2220.73 -5.9946 0.934501 0
M  V30 22796 H 2219.47 -4.86305 0.368573 0
M  V30 22797 H 2218.48 -4.80465 2.67269 0
M  V30 22798 H 2219.7 -5.97055 3.23577 0
M  V30 22799 H 2217.65 -6.47553 1.04931 0
M  V30 22800 H 2217.57 -7.07099 2.67483 0
M  V30 22801 H 2218.83 -7.62433 1.62224 0
M  V30 22802 N 2223.06 -1.02932 -1.19343 0
M  V30 22803 C 2224.01 -0.581079 -2.20471 0
M  V30 22804 C 2225 0.370415 -1.56578 0
M  V30 22805 O 2226.19 0.191313 -1.75963 0
M  V30 22806 C 2223.32 0.0662457 -3.43236 0
M  V30 22807 C 2222.4 -0.907715 -4.14272 0
M  V30 22808 N 2222.79 -2.07031 -4.61489 0
M  V30 22809 C 2221.09 -0.731255 -4.39964 0
M  V30 22810 C 2221.79 -2.68463 -5.16045 0
M  V30 22811 N 2220.77 -1.96423 -5.06872 0
M  V30 22812 H 2224.57 -1.46722 -2.54657 0
M  V30 22813 H 2222.09 -0.896368 -1.35422 0
M  V30 22814 H 2224.08 0.404995 -4.14928 0
M  V30 22815 H 2222.74 0.948064 -3.10551 0
M  V30 22816 H 2223.75 -2.44971 -4.563 0
M  V30 22817 H 2220.43 0.101434 -4.17377 0
M  V30 22818 H 2221.82 -3.66925 -5.62864 0
M  V30 22819 N 2224.54 1.35356 -0.807246 0
M  V30 22820 C 2225.95 1.81226 -0.448791 0
M  V30 22821 C 2226.3 1.67035 1.02926 0
M  V30 22822 O 2225.43 1.20137 1.79989 0
M  V30 22823 C 2226.02 3.29028 -0.807832 0
M  V30 22824 C 2224.58 3.73038 -0.501967 0
M  V30 22825 C 2223.73 2.57337 -1.03309 0
M  V30 22826 H 2226.68 1.23325 -0.99883 0
M  V30 22827 H 2226.7 3.80353 -0.105607 0
M  V30 22828 H 2226.21 3.39325 -1.88363 0
M  V30 22829 H 2224.31 3.6829 0.565063 0
M  V30 22830 H 2224.43 4.67786 -1.03505 0
M  V30 22831 H 2222.79 2.50596 -0.455383 0
M  V30 22832 H 2223.57 2.70411 -2.11501 0
M  V30 22833 N 2226.02 0.560807 1.47284 0
M  V30 22834 C 2227.26 0.038154 2.02764 0
M  V30 22835 C 2227.6 -1.30973 1.43386 0
M  V30 22836 O 2226.87 -1.85311 0.590766 0
M  V30 22837 C 2227.16 -0.0510795 3.60064 0
M  V30 22838 C 2227.01 1.32416 4.29868 0
M  V30 22839 C 2228.33 -0.762719 4.3344 0
M  V30 22840 H 2225.45 0.0153393 0.73684 0
M  V30 22841 H 2228.09 0.723789 1.75674 0
M  V30 22842 H 2226.24 -0.634998 3.83275 0
M  V30 22843 H 2227.91 1.95155 4.17986 0
M  V30 22844 H 2226.15 1.89787 3.90081 0
M  V30 22845 H 2226.82 1.2144 5.38476 0
M  V30 22846 H 2229.3 -0.266892 4.15243 0
M  V30 22847 H 2228.18 -0.794125 5.43125 0
M  V30 22848 H 2228.44 -1.81959 4.02919 0
M  V30 22849 N 2227.5 -1.54768 0.297442 0
M  V30 22850 C 2228.74 -2.00068 -0.312878 0
M  V30 22851 C 2229.07 -1.18584 -1.54169 0
M  V30 22852 O 2228.33 -0.249167 -1.94107 0
M  V30 22853 C 2228.63 -3.50124 -0.7175 0
M  V30 22854 C 2228.29 -4.4904 0.409174 0
M  V30 22855 C 2226.95 -4.75806 0.718483 0
M  V30 22856 C 2229.31 -5.07961 1.16726 0
M  V30 22857 C 2226.63 -5.58757 1.78906 0
M  V30 22858 C 2228.99 -5.92077 2.22772 0
M  V30 22859 C 2227.65 -6.17156 2.54313 0
M  V30 22860 H 2226.92 -0.732102 -0.11449 0
M  V30 22861 H 2229.57 -1.86931 0.4158 0
M  V30 22862 H 2227.87 -3.60852 -1.52621 0
M  V30 22863 H 2229.57 -3.82597 -1.20084 0
M  V30 22864 H 2226.16 -4.28309 0.157994 0
M  V30 22865 H 2230.34 -4.87287 0.941552 0
M  V30 22866 H 2225.6 -5.76426 2.0382 0
M  V30 22867 H 2229.77 -6.36761 2.81973 0
M  V30 22868 H 2227.4 -6.81223 3.37402 0
M  V30 22869 N 2228.97 -0.0251005 -1.5758 0
M  V30 22870 C 2230.39 0.331254 -1.56125 0
M  V30 22871 C 2230.59 1.73167 -1.03032 0
M  V30 22872 O 2229.65 2.43303 -0.675258 0
M  V30 22873 C 2230.96 0.183531 -3.00139 0
M  V30 22874 C 2232.51 0.256599 -3.11946 0
M  V30 22875 C 2232.98 0.137712 -4.57793 0
M  V30 22876 N 2234.47 0.194823 -4.6279 0
M  V30 22877 C 2235.21 0.126554 -5.7326 0
M  V30 22878 N 2234.7 0.0074311 -6.928 0
M  V30 22879 N 2236.5 0.180249 -5.61811 0
M  V30 22880 H 2228.65 -0.940904 -1.90423 0
M  V30 22881 H 2230.91 -0.362984 -0.875755 0
M  V30 22882 H 2230.62 -0.780987 -3.42919 0
M  V30 22883 H 2230.49 0.955384 -3.649 0
M  V30 22884 H 2232.88 1.21157 -2.69082 0
M  V30 22885 H 2232.96 -0.545561 -2.49915 0
M  V30 22886 H 2232.6 -0.813827 -5.01337 0
M  V30 22887 H 2232.53 0.958684 -5.178 0
M  V30 22888 H 2235.02 0.287201 -3.76807 0
M  V30 22889 H 2235.34 -0.0380786 -7.72791 0
M  V30 22890 H 2233.68 -0.0272952 -6.94995 0
M  V30 22891 H 2236.87 0.271685 -4.67311 0
M  V30 22892 H 2237.05 0.123583 -6.47882 0
M  V30 22893 N 2230.45 1.55637 0.247999 0
M  V30 22894 C 2231.68 1.81471 0.993776 0
M  V30 22895 C 2232.1 0.600672 1.7899 0
M  V30 22896 O 2231.45 -0.430651 1.77346 0
M  V30 22897 C 2231.5 3.05509 1.93252 0
M  V30 22898 O 2231.22 4.22226 1.16862 0
M  V30 22899 C 2232.73 3.44135 2.79438 0
M  V30 22900 H 2229.95 0.603903 0.292476 0
M  V30 22901 H 2232.49 2.02694 0.271217 0
M  V30 22902 H 2230.64 2.8634 2.60938 0
M  V30 22903 H 2231.06 4.92518 1.80351 0
M  V30 22904 H 2232.53 4.34032 3.41058 0
M  V30 22905 H 2233.01 2.64671 3.50494 0
M  V30 22906 H 2233.62 3.65652 2.17207 0
M  V30 22907 N 2231.93 -0.513613 1.48996 0
M  V30 22908 C 2233.16 -1.29285 1.61533 0
M  V30 22909 C 2233.57 -1.86685 0.281834 0
M  V30 22910 O 2232.93 -1.67217 -0.731082 0
M  V30 22911 C 2232.98 -2.4321 2.67453 0
M  V30 22912 O 2232.7 -1.88172 3.9563 0
M  V30 22913 C 2234.2 -3.3478 2.9058 0
M  V30 22914 H 2231.42 -0.392578 0.544172 0
M  V30 22915 H 2233.97 -0.617922 1.94941 0
M  V30 22916 H 2232.12 -3.06556 2.36859 0
M  V30 22917 H 2232.54 -2.62868 4.53873 0
M  V30 22918 H 2234.01 -4.11028 3.68456 0
M  V30 22919 H 2234.49 -3.91011 2.00018 0
M  V30 22920 H 2235.09 -2.77212 3.22542 0
M  V30 22921 N 2233.41 -1.37859 -0.763727 0
M  V30 22922 C 2234.66 -1.34713 -1.52394 0
M  V30 22923 C 2235.01 0.0656097 -1.92288 0
M  V30 22924 O 2234.3 1.02603 -1.61812 0
M  V30 22925 C 2234.5 -2.2275 -2.79495 0
M  V30 22926 C 2234.33 -3.72443 -2.52025 0
M  V30 22927 C 2233.1 -4.41514 -2.45751 0
M  V30 22928 C 2235.29 -4.65116 -2.19481 0
M  V30 22929 N 2233.28 -5.76701 -2.10449 0
M  V30 22930 C 2234.65 -5.88739 -1.94386 0
M  V30 22931 C 2236.7 -4.5342 -2.05704 0
M  V30 22932 C 2235.41 -7.01978 -1.56905 0
M  V30 22933 C 2237.43 -5.66552 -1.69624 0
M  V30 22934 C 2236.79 -6.89231 -1.45395 0
M  V30 22935 H 2232.89 -0.548234 -0.557641 0
M  V30 22936 H 2235.48 -1.73154 -0.890271 0
M  V30 22937 H 2233.65 -1.86513 -3.40687 0
M  V30 22938 H 2235.38 -2.10804 -3.45462 0
M  V30 22939 H 2232.13 -3.9461 -2.61878 0
M  V30 22940 H 2232.56 -6.48166 -1.95473 0
M  V30 22941 H 2237.2 -3.59136 -2.23116 0
M  V30 22942 H 2234.92 -7.96189 -1.38232 0
M  V30 22943 H 2238.5 -5.59478 -1.59611 0
M  V30 22944 H 2237.38 -7.75288 -1.1789 0
M  V30 22945 O 2234.93 0.904027 -1.33827 0
M  V30 22946 H 2235.62 1.53886 -1.17639 0
M  V30 END ATOM
M  V30 BEGIN BOND
M  V30 END BOND
M  V30 END CTAB
M  END
$$$$
