drugbank_target|O00222 Metabotropic glutamate receptor 8 (DB00142)
 OpenBabel12092119413D

  0  0  0     0  0            999 V3000
M  V30 BEGIN CTAB
M  V30 COUNTS 14332 14496 0 0 0
M  V30 BEGIN ATOM
M  V30 1 H -0.908 1.98254 -0.117106 0
M  V30 2 N 0 1.576 0 0
M  V30 3 C 0.933 2.03868 1.02534 0
M  V30 4 C 1.911 0.928543 1.3348 0
M  V30 5 O 3.095 1.19667 1.45644 0
M  V30 6 C 0.222 2.43627 2.35294 0
M  V30 7 C -0.732 3.65373 2.2001 0
M  V30 8 S 0.101 5.13292 1.52614 0
M  V30 9 C 1.257 5.56322 2.86805 0
M  V30 10 H 1.49 2.90518 0.631377 0
M  V30 11 H -0.977 1.52953 0.210867 0
M  V30 12 H 0.981 2.67203 3.11629 0
M  V30 13 H -0.358 1.57376 2.7183 0
M  V30 14 H -1.165 3.90944 3.18086 0
M  V30 15 H -1.563 3.418 1.51819 0
M  V30 16 H 0.729 5.58782 3.83104 0
M  V30 17 H 1.672 6.56266 2.65933 0
M  V30 18 H 2.08 4.83886 2.90714 0
M  V30 19 N 1.4781 -0.272755 1.55222 0
M  V30 20 C 2.7241 -1.00581 1.761 0
M  V30 21 C 3.0571 -1.85932 0.560625 0
M  V30 22 O 2.3321 -1.89416 -0.441801 0
M  V30 23 C 2.6151 -1.88816 3.06628 0
M  V30 24 C 2.4681 -1.06457 4.37021 0
M  V30 25 C 3.7871 -2.8752 3.33197 0
M  V30 26 H 0.9061 -0.364244 0.640699 0
M  V30 27 H 3.5481 -0.278189 1.87952 0
M  V30 28 H 1.6981 -2.50856 2.96654 0
M  V30 29 H 3.3701 -0.464863 4.58952 0
M  V30 30 H 1.6131 -0.368043 4.32236 0
M  V30 31 H 2.2841 -1.71514 5.24678 0
M  V30 32 H 4.7601 -2.35615 3.42965 0
M  V30 33 H 3.6361 -3.46399 4.25792 0
M  V30 34 H 3.8971 -3.62657 2.52849 0
M  V30 35 N 2.9562 -1.48159 -0.537278 0
M  V30 36 C 4.1962 -1.57397 -1.30405 0
M  V30 37 C 4.5602 -0.239202 -1.90504 0
M  V30 38 O 5.7612 -0.206528 -2.68005 0
M  V30 39 C 4.0322 -2.6754 -2.36974 0
M  V30 40 S 5.5912 -2.96496 -3.23475 0
M  V30 41 H 2.4092 -0.555577 -0.443684 0
M  V30 42 H 5.0112 -1.85644 -0.612912 0
M  V30 43 H 3.7152 -3.63092 -1.91291 0
M  V30 44 H 3.2462 -2.41172 -3.10805 0
M  V30 45 H 5.2612 -2.35234 -4.36897 0
M  V30 46 N 4.4343 0.785586 -1.36625 0
M  V30 47 C 5.3443 1.92964 -1.33425 0
M  V30 48 C 6.3603 1.72394 -0.235851 0
M  V30 49 O 7.5363 1.95866 -0.468878 0
M  V30 50 C 4.6013 3.27884 -1.12662 0
M  V30 51 C 3.6623 3.61204 -2.32013 0
M  V30 52 C 2.8953 4.89687 -2.12231 0
M  V30 53 O 3.1183 5.59704 -1.09945 0
M  V30 54 O 2.0523 5.21752 -3.00098 0
M  V30 55 H 5.8783 1.98613 -2.29753 0
M  V30 56 H 3.4633 0.926384 -1.17211 0
M  V30 57 H 5.3453 4.08614 -1.03016 0
M  V30 58 H 4.0203 3.23118 -0.193991 0
M  V30 59 H 2.9273 2.80765 -2.47228 0
M  V30 60 H 4.2603 3.70698 -3.23796 0
M  V30 61 N 5.9124 1.20967 1.01018 0
M  V30 62 C 7.1604 1.02172 1.74371 0
M  V30 63 C 7.4814 -0.446414 1.89821 0
M  V30 64 O 6.7514 -1.32234 1.44537 0
M  V30 65 H 5.3314 0.375066 0.646014 0
M  V30 66 H 7.9934 1.52187 1.21758 0
M  V30 67 H 7.0894 1.48538 2.74487 0
M  V30 68 N 7.3905 -1.2043 1.01659 0
M  V30 69 C 8.3375 -2.23215 0.586822 0
M  V30 70 C 9.3075 -1.61382 -0.393085 0
M  V30 71 O 10.4925 -1.88544 -0.292525 0
M  V30 72 C 7.6325 -3.45032 -0.0687464 0
M  V30 73 C 6.7455 -4.21296 0.955724 0
M  V30 74 C 5.8805 -5.30507 0.271208 0
M  V30 75 C 4.9195 -5.98515 1.28244 0
M  V30 76 N 4.0565 -6.99316 0.62459 0
M  V30 77 H 8.8965 -2.59336 1.46796 0
M  V30 78 H 6.4335 -1.27431 0.734836 0
M  V30 79 H 8.3915 -4.1459 -0.465965 0
M  V30 80 H 7.0215 -3.09604 -0.913529 0
M  V30 81 H 6.0735 -3.50803 1.4711 0
M  V30 82 H 7.3855 -4.6803 1.72479 0
M  V30 83 H 6.5395 -6.06428 -0.18151 0
M  V30 84 H 5.2785 -4.8481 -0.530163 0
M  V30 85 H 4.2835 -5.21355 1.74554 0
M  V30 86 H 5.5085 -6.46298 2.08509 0
M  V30 87 H 3.4545 -6.55812 -0.156914 0
M  V30 88 H 3.3715 -7.44178 1.33172 0
M  V30 89 H 4.6395 -7.79255 0.195462 0
M  V30 90 N 8.8686 -0.792821 -1.36206 0
M  V30 91 C 10.2846 -0.474903 -1.52371 0
M  V30 92 C 10.4846 1.00622 -1.74578 0
M  V30 93 O 9.5406 1.79162 -1.77924 0
M  V30 94 C 10.8536 -1.3083 -2.70747 0
M  V30 95 C 12.4016 -1.30234 -2.84619 0
M  V30 96 C 12.8766 -2.11956 -4.06004 0
M  V30 97 N 14.3676 -2.09419 -4.13156 0
M  V30 98 C 15.1026 -2.69419 -5.06163 0
M  V30 99 N 14.5986 -3.3829 -6.04592 0
M  V30 100 N 16.3916 -2.59134 -4.98804 0
M  V30 101 H 8.5426 -1.75222 -1.20046 0
M  V30 102 H 10.8056 -0.745024 -0.586211 0
M  V30 103 H 10.5116 -2.35881 -2.6087 0
M  V30 104 H 10.3856 -0.95196 -3.6499 0
M  V30 105 H 12.7726 -0.259748 -2.93955 0
M  V30 106 H 12.8536 -1.69847 -1.91274 0
M  V30 107 H 12.4976 -3.16248 -3.97429 0
M  V30 108 H 12.4276 -1.69711 -4.98503 0
M  V30 109 H 14.9186 -1.59297 -3.42685 0
M  V30 110 H 15.2316 -3.81394 -6.7213 0
M  V30 111 H 13.5766 -3.42393 -6.04807 0
M  V30 112 H 16.7676 -2.04927 -4.20859 0
M  V30 113 H 16.9406 -3.06185 -5.711 0
M  V30 114 N 10.3467 1.47872 -0.545128 0
M  V30 115 C 11.5717 2.07391 -0.0190611 0
M  V30 116 C 11.9967 1.39688 1.25971 0
M  V30 117 O 11.3547 0.467816 1.7516 0
M  V30 118 C 11.4027 3.60188 0.172335 0
M  V30 119 O 10.5067 3.9339 1.23766 0
M  V30 120 H 9.8477 0.662411 -0.0459059 0
M  V30 121 H 12.3777 1.90066 -0.757365 0
M  V30 122 H 12.3877 4.06129 0.390305 0
M  V30 123 H 11.0627 4.08865 -0.761725 0
M  V30 124 H 9.6397 3.5921 1.00114 0
M  V30 125 N 11.8248 0.280983 1.55075 0
M  V30 126 C 12.7878 -0.590896 2.21452 0
M  V30 127 C 13.7878 -1.07682 1.19421 0
M  V30 128 O 14.9778 -0.97605 1.44288 0
M  V30 129 C 12.1098 -1.81587 2.88511 0
M  V30 130 H 13.3028 -0.0112554 2.99898 0
M  V30 131 H 10.8558 0.0316438 1.56268 0
M  V30 132 H 11.5908 -2.43587 2.14093 0
M  V30 133 H 11.3758 -1.4753 3.63287 0
M  V30 134 H 12.8658 -2.43575 3.39206 0
M  V30 135 N 13.3029 -1.57598 0.00835791 0
M  V30 136 C 14.5279 -1.95617 -0.689103 0
M  V30 137 C 14.9529 -0.883753 -1.66046 0
M  V30 138 O 14.3109 0.157352 -1.80616 0
M  V30 139 C 14.3589 -3.32736 -1.38994 0
M  V30 140 O 13.4629 -3.27631 -2.50463 0
M  V30 141 H 12.8039 -0.638379 -0.182668 0
M  V30 142 H 15.3339 -2.045 0.064036 0
M  V30 143 H 15.3439 -3.68494 -1.75147 0
M  V30 144 H 14.0189 -4.1034 -0.677778 0
M  V30 145 H 12.5959 -3.03561 -2.16576 0
M  V30 146 N 14.781 0.264519 -1.55364 0
M  V30 147 C 16.021 1.00254 -1.78125 0
M  V30 148 C 16.385 1.83187 -0.575017 0
M  V30 149 O 17.586 2.60029 -0.681042 0
M  V30 150 C 15.857 1.85478 -3.05504 0
M  V30 151 S 17.416 2.6543 -3.49417 0
M  V30 152 H 14.234 0.337522 -0.625779 0
M  V30 153 H 16.836 0.272111 -1.93597 0
M  V30 154 H 15.54 1.23491 -3.9138 0
M  V30 155 H 15.071 2.62827 -2.92721 0
M  V30 156 H 17.086 3.87958 -3.09359 0
M  V30 157 N 16.2591 1.48442 0.529413 0
M  V30 158 C 17.6701 1.5002 1.11134 0
M  V30 159 C 18.0211 0.27031 1.94329 0
M  V30 160 O 17.1461 -0.622507 2.07253 0
M  V30 161 C 17.7411 2.71834 2.02217 0
M  V30 162 C 16.3001 2.76283 2.55627 0
M  V30 163 C 15.4471 2.43542 1.326 0
M  V30 164 H 18.3981 1.5555 0.314641 0
M  V30 165 H 18.4191 2.50384 2.8651 0
M  V30 166 H 17.9311 3.61331 1.41639 0
M  V30 167 H 16.0321 1.90995 3.19924 0
M  V30 168 H 16.1451 3.77725 2.94721 0
M  V30 169 H 14.5091 1.94709 1.64196 0
M  V30 170 H 15.2921 3.3528 0.737734 0
M  V30 171 N 17.7372 -0.778329 1.37039 0
M  V30 172 C 18.9772 -1.54973 1.33276 0
M  V30 173 C 19.3412 -1.91816 -0.0839376 0
M  V30 174 O 20.5422 -2.6767 -0.246228 0
M  V30 175 C 18.8132 -2.78517 2.23971 0
M  V30 176 S 20.3722 -3.6865 2.37997 0
M  V30 177 H 17.1902 -0.530639 0.473226 0
M  V30 178 H 19.7922 -0.915806 1.72723 0
M  V30 179 H 18.4962 -2.4952 3.25835 0
M  V30 180 H 18.0272 -3.46875 1.85584 0
M  V30 181 H 20.0422 -4.70182 1.58567 0
M  V30 182 N 19.2153 -1.21501 -1.00376 0
M  V30 183 C 20.4623 -1.03299 -1.74171 0
M  V30 184 C 20.7903 0.433326 -1.89612 0
M  V30 185 O 20.0453 1.33779 -1.42834 0
M  V30 186 C 20.3443 -1.67673 -3.15627 0
M  V30 187 C 20.0103 -3.17533 -3.2013 0
M  V30 188 C 18.6723 -3.58427 -3.21067 0
M  V30 189 C 21.0243 -4.13504 -3.17275 0
M  V30 190 C 18.3523 -4.93794 -3.16835 0
M  V30 191 C 20.7043 -5.48834 -3.14585 0
M  V30 192 C 19.3683 -5.89123 -3.13831 0
M  V30 193 H 18.6383 -0.377999 -0.637336 0
M  V30 194 H 21.2853 -1.51111 -1.17634 0
M  V30 195 H 19.5903 -1.12158 -3.75404 0
M  V30 196 H 21.2873 -1.51091 -3.71446 0
M  V30 197 H 17.8773 -2.84965 -3.20145 0
M  V30 198 H 22.0613 -3.82936 -3.15711 0
M  V30 199 H 17.3173 -5.24255 -3.1459 0
M  V30 200 H 21.4913 -6.22934 -3.1133 0
M  V30 201 H 19.1183 -6.93984 -3.10307 0
M  V30 202 N 20.6934 1.19889 -1.02296 0
M  V30 203 C 21.9404 1.8942 -0.715972 0
M  V30 204 C 22.2684 1.79251 0.754944 0
M  V30 205 O 21.5234 1.17526 1.56481 0
M  V30 206 C 21.8224 3.39883 -1.10518 0
M  V30 207 C 21.4884 3.70254 -2.57337 0
M  V30 208 C 20.1504 3.78254 -2.97452 0
M  V30 209 C 22.5024 3.84052 -3.52354 0
M  V30 210 C 19.8304 3.97514 -4.31509 0
M  V30 211 C 22.1824 4.04824 -4.86108 0
M  V30 212 C 20.8464 4.11054 -5.25919 0
M  V30 213 H 20.1164 0.693138 -0.261993 0
M  V30 214 H 22.7634 1.42012 -1.28472 0
M  V30 215 H 21.0684 3.8915 -0.454953 0
M  V30 216 H 22.7654 3.9199 -0.845261 0
M  V30 217 H 19.3554 3.64632 -2.25258 0
M  V30 218 H 23.5394 3.77221 -3.22518 0
M  V30 219 H 18.7954 4.00574 -4.61898 0
M  V30 220 H 22.9694 4.14442 -5.59653 0
M  V30 221 H 20.5964 4.2573 -6.29808 0
M  V30 222 N 22.1715 0.800033 1.35784 0
M  V30 223 C 23.1015 0.220184 2.3246 0
M  V30 224 C 24.0825 -0.65073 1.57161 0
M  V30 225 O 25.2675 -0.582359 1.85263 0
M  V30 226 C 22.3975 -0.637353 3.41402 0
M  V30 227 C 21.3515 0.134531 4.27789 0
M  V30 228 C 20.6775 -0.844285 5.27992 0
M  V30 229 C 21.9775 1.32979 5.05088 0
M  V30 230 H 23.6715 1.02787 2.81203 0
M  V30 231 H 21.2175 0.495717 1.35199 0
M  V30 232 H 23.1705 -1.05302 4.08031 0
M  V30 233 H 21.8945 -1.47785 2.91251 0
M  V30 234 H 20.5535 0.531296 3.6273 0
M  V30 235 H 20.2015 -1.68011 4.74111 0
M  V30 236 H 19.9015 -0.332184 5.8666 0
M  V30 237 H 21.4255 -1.2583 5.97494 0
M  V30 238 H 22.8395 0.98934 5.64699 0
M  V30 239 H 21.2365 1.77593 5.7322 0
M  V30 240 H 22.3065 2.11978 4.36111 0
M  V30 241 N 23.6496 -1.47581 0.552962 0
M  V30 242 C 24.5796 -2.32762 -0.185451 0
M  V30 243 C 25.5606 -1.43527 -0.912905 0
M  V30 244 O 26.7456 -1.72388 -0.894201 0
M  V30 245 C 23.8756 -3.25219 -1.21859 0
M  V30 246 C 22.8296 -4.23661 -0.607864 0
M  V30 247 C 22.1556 -5.05413 -1.74533 0
M  V30 248 C 23.4556 -5.20481 0.435582 0
M  V30 249 H 25.1496 -2.94749 0.525684 0
M  V30 250 H 22.6956 -1.41738 0.254251 0
M  V30 251 H 24.6486 -3.8365 -1.7433 0
M  V30 252 H 23.3726 -2.61279 -1.95961 0
M  V30 253 H 22.0316 -3.66451 -0.104489 0
M  V30 254 H 21.6796 -4.3788 -2.47529 0
M  V30 255 H 21.3796 -5.72059 -1.34249 0
M  V30 256 H 22.9036 -5.66701 -2.27338 0
M  V30 257 H 24.3176 -5.733 -0.00290157 0
M  V30 258 H 22.7146 -5.95305 0.757067 0
M  V30 259 H 23.7846 -4.66217 1.33303 0
M  V30 260 N 25.1277 -0.289203 -1.54924 0
M  V30 261 C 26.3557 0.326463 -2.04308 0
M  V30 262 C 26.7707 1.48413 -1.16701 0
M  V30 263 O 26.1277 1.81507 -0.190087 0
M  V30 264 C 26.1787 0.794014 -3.52672 0
M  V30 265 O 25.8997 -0.317564 -4.36948 0
M  V30 266 C 27.4007 1.47605 -4.18004 0
M  V30 267 H 24.6207 0.0726272 -0.667058 0
M  V30 268 H 27.1647 -0.425401 -2.00026 0
M  V30 269 H 25.3197 1.49593 -3.57352 0
M  V30 270 H 25.7337 0.0443186 -5.24481 0
M  V30 271 H 27.2077 1.75447 -5.23376 0
M  V30 272 H 27.6847 2.41224 -3.67025 0
M  V30 273 H 28.2907 0.81762 -4.17367 0
M  V30 274 N 26.6058 1.57591 -0.0167156 0
M  V30 275 C 27.5688 2.08393 0.954204 0
M  V30 276 C 28.5688 0.996531 1.26198 0
M  V30 277 O 29.7588 1.25858 1.20438 0
M  V30 278 C 26.8908 2.5394 2.27436 0
M  V30 279 H 28.0838 2.95455 0.514451 0
M  V30 280 H 25.6368 1.54582 0.231089 0
M  V30 281 H 26.3718 1.70171 2.76066 0
M  V30 282 H 26.1568 3.33371 2.06412 0
M  V30 283 H 27.6468 2.93512 2.97053 0
M  V30 284 N 28.0839 -0.256276 1.55502 0
M  V30 285 C 29.0309 -1.31714 1.89526 0
M  V30 286 C 30.0009 -1.4828 0.748479 0
M  V30 287 O 31.1859 -1.62416 1.00128 0
M  V30 288 C 28.3259 -2.66933 2.18725 0
M  V30 289 C 27.4389 -2.58452 3.4616 0
M  V30 290 C 26.5739 -3.85961 3.64976 0
M  V30 291 C 25.6129 -3.72059 4.86044 0
M  V30 292 N 24.7499 -4.9144 5.01429 0
M  V30 293 H 29.5899 -1.01998 2.80001 0
M  V30 294 H 27.1269 -0.492413 1.38613 0
M  V30 295 H 29.0849 -3.4563 2.33657 0
M  V30 296 H 27.7149 -2.94816 1.31466 0
M  V30 297 H 26.7669 -1.71374 3.3961 0
M  V30 298 H 28.0789 -2.44085 4.34999 0
M  V30 299 H 27.2329 -4.73101 3.79816 0
M  V30 300 H 25.9719 -4.03215 2.74353 0
M  V30 301 H 24.9769 -2.83302 4.7119 0
M  V30 302 H 26.2019 -3.56309 5.78118 0
M  V30 303 H 24.1479 -5.09072 4.13741 0
M  V30 304 H 24.0649 -4.79668 5.84341 0
M  V30 305 H 25.3329 -5.80104 5.20672 0
M  V30 306 N 29.562 -1.4872 -0.521534 0
M  V30 307 C 30.809 -1.57168 -1.27689 0
M  V30 308 C 31.137 -0.249275 -1.92896 0
M  V30 309 O 30.392 0.761162 -1.80291 0
M  V30 310 C 30.691 -2.66497 -2.38148 0
M  V30 311 C 30.357 -4.08664 -1.90538 0
M  V30 312 C 29.019 -4.47357 -1.77271 0
M  V30 313 C 31.371 -4.97724 -1.54663 0
M  V30 314 C 28.699 -5.72905 -1.26478 0
M  V30 315 C 31.051 -6.2377 -1.05329 0
M  V30 316 C 29.715 -6.61311 -0.906861 0
M  V30 317 H 28.985 -0.575117 -0.467249 0
M  V30 318 H 31.632 -1.82472 -0.581051 0
M  V30 319 H 29.937 -2.35085 -3.13437 0
M  V30 320 H 31.634 -2.70246 -2.96257 0
M  V30 321 H 28.224 -3.78111 -2.01816 0
M  V30 322 H 32.408 -4.68501 -1.63768 0
M  V30 323 H 27.664 -6.00709 -1.13835 0
M  V30 324 H 31.838 -6.9217 -0.76644 0
M  V30 325 H 29.465 -7.5848 -0.511083 0
M  V30 326 N 31.0401 0.771051 -1.3745 0
M  V30 327 C 32.2701 1.55789 -1.35696 0
M  V30 328 C 32.6781 1.89107 0.0594523 0
M  V30 329 O 32.0211 1.51984 1.03183 0
M  V30 330 C 32.0831 2.89515 -2.13123 0
M  V30 331 C 31.7471 2.78829 -3.62082 0
M  V30 332 C 32.7441 2.49812 -4.5595 0
M  V30 333 C 30.4291 2.9683 -4.05213 0
M  V30 334 C 32.4231 2.38923 -5.90927 0
M  V30 335 C 30.1101 2.85562 -5.40276 0
M  V30 336 C 31.1081 2.56649 -6.32946 0
M  V30 337 O 30.7961 2.45408 -7.65526 0
M  V30 338 H 30.5281 0.489257 -0.466481 0
M  V30 339 H 33.0821 0.963446 -1.81403 0
M  V30 340 H 31.3121 3.51081 -1.62107 0
M  V30 341 H 33.0011 3.50915 -2.03994 0
M  V30 342 H 33.7671 2.3559 -4.23937 0
M  V30 343 H 29.6461 3.18335 -3.33442 0
M  V30 344 H 33.1901 2.16277 -6.63227 0
M  V30 345 H 29.0871 2.99351 -5.71891 0
M  V30 346 H 29.8551 2.60753 -7.75855 0
M  V30 347 N 32.5182 1.22032 0.997298 0
M  V30 348 C 33.7642 1.05382 1.73972 0
M  V30 349 C 34.1192 -0.407419 1.88037 0
M  V30 350 O 33.4122 -1.29811 1.40924 0
M  V30 351 C 33.6062 1.69345 3.14733 0
M  V30 352 C 33.4352 3.21537 3.14395 0
M  V30 353 C 32.2052 3.9062 3.20537 0
M  V30 354 C 34.4032 4.18527 2.98897 0
M  V30 355 N 32.3852 5.29935 3.09906 0
M  V30 356 C 33.7562 5.44645 2.96247 0
M  V30 357 C 35.8112 4.09476 2.83255 0
M  V30 358 C 34.5142 6.62752 2.79557 0
M  V30 359 C 36.5402 5.27228 2.67926 0
M  V30 360 C 35.9022 6.52262 2.65959 0
M  V30 361 H 32.0012 0.440018 0.646458 0
M  V30 362 H 34.5852 1.54505 1.18475 0
M  V30 363 H 32.7562 1.22778 3.68484 0
M  V30 364 H 34.4882 1.45828 3.77513 0
M  V30 365 H 31.2432 3.41592 3.28043 0
M  V30 366 H 31.6672 6.02926 3.07912 0
M  V30 367 H 36.3092 3.13598 2.83577 0
M  V30 368 H 34.0272 7.58783 2.77982 0
M  V30 369 H 37.6132 5.22053 2.56812 0
M  V30 370 H 36.4932 7.41844 2.54239 0
M  V30 371 N 33.9963 -1.19345 1.0293 0
M  V30 372 C 35.2453 -1.88363 0.721256 0
M  V30 373 C 35.5583 -1.80514 -0.753254 0
M  V30 374 O 36.7643 -2.44788 -1.17436 0
M  V30 375 C 35.2203 -3.37872 1.23978 0
M  V30 376 C 34.8283 -3.54278 2.74211 0
M  V30 377 C 36.5723 -4.12365 1.00775 0
M  V30 378 C 34.4793 -4.97682 3.19479 0
M  V30 379 H 33.4093 -0.705484 0.266098 0
M  V30 380 H 36.0603 -1.34928 1.24365 0
M  V30 381 H 34.4423 -3.90707 0.6453 0
M  V30 382 H 35.6163 -3.11769 3.39318 0
M  V30 383 H 33.9313 -2.93174 2.95699 0
M  V30 384 H 36.5283 -5.18119 1.32123 0
M  V30 385 H 36.8713 -4.16263 -0.0554308 0
M  V30 386 H 37.4043 -3.65668 1.56625 0
M  V30 387 H 34.1433 -4.98945 4.25128 0
M  V30 388 H 33.6633 -5.4095 2.591 0
M  V30 389 H 35.3423 -5.66337 3.12845 0
M  V30 390 N 35.4744 -0.807222 -1.35358 0
M  V30 391 C 36.4044 -0.232509 -2.3234 0
M  V30 392 C 37.3854 0.642386 -1.57504 0
M  V30 393 O 38.5704 0.572526 -1.85569 0
M  V30 394 C 35.7004 0.619238 -3.41735 0
M  V30 395 C 34.6544 -0.157215 -4.27711 0
M  V30 396 C 33.9804 0.816273 -5.28433 0
M  V30 397 C 35.2804 -1.35656 -5.04376 0
M  V30 398 H 36.9744 -1.04276 -2.80654 0
M  V30 399 H 34.5204 -0.50288 -1.34934 0
M  V30 400 H 36.4734 1.03137 -4.08584 0
M  V30 401 H 35.1974 1.46239 -2.92031 0
M  V30 402 H 33.8564 -0.550525 -3.62443 0
M  V30 403 H 33.5044 1.65494 -4.74996 0
M  V30 404 H 33.2044 0.301067 -5.86828 0
M  V30 405 H 34.7284 1.22659 -5.98153 0
M  V30 406 H 36.1424 -1.01927 -5.64166 0
M  V30 407 H 34.5394 -1.8063 -5.7227 0
M  V30 408 H 35.6094 -2.14288 -4.34981 0
M  V30 409 N 36.9525 1.47285 -0.560781 0
M  V30 410 C 38.1805 2.06855 -0.0430262 0
M  V30 411 C 38.5955 1.41291 1.25229 0
M  V30 412 O 37.9525 0.510648 1.7521 0
M  V30 413 C 38.0035 3.61178 0.152518 0
M  V30 414 O 37.7245 4.24285 -1.0915 0
M  V30 415 C 39.2255 4.37624 0.707145 0
M  V30 416 H 36.4455 0.669319 -0.0474652 0
M  V30 417 H 38.9895 1.89237 -0.77521 0
M  V30 418 H 37.1445 3.78298 0.834843 0
M  V30 419 H 37.5585 5.16868 -0.891482 0
M  V30 420 H 39.0325 5.46271 0.793244 0
M  V30 421 H 39.5095 4.04152 1.71923 0
M  V30 422 H 40.1155 4.25257 0.0604027 0
M  V30 423 N 38.4306 0.297415 1.54768 0
M  V30 424 C 39.3636 -0.622188 2.19554 0
M  V30 425 C 40.3416 -1.13558 1.16376 0
M  V30 426 O 41.5256 -1.20444 1.45002 0
M  V30 427 C 38.6526 -1.8509 2.83653 0
M  V30 428 C 37.6986 -1.47106 4.00328 0
M  V30 429 S 38.5316 -0.53006 5.3287 0
M  V30 430 C 39.6876 -1.76665 6.0045 0
M  V30 431 H 39.9206 -0.0717806 2.97213 0
M  V30 432 H 37.4536 0.0815678 1.54184 0
M  V30 433 H 39.4116 -2.55605 3.21211 0
M  V30 434 H 38.0726 -2.37247 2.05846 0
M  V30 435 H 37.2656 -2.38594 4.43947 0
M  V30 436 H 36.8676 -0.845885 3.64309 0
M  V30 437 H 39.1596 -2.7077 6.21039 0
M  V30 438 H 40.1026 -1.37308 6.9466 0
M  V30 439 H 40.5106 -1.94174 5.30054 0
M  V30 440 N 39.9087 -1.5758 0.0250728 0
M  V30 441 C 40.8417 -2.05473 -0.992777 0
M  V30 442 C 41.8197 -0.949661 -1.31986 0
M  V30 443 O 43.0037 -1.21969 -1.43722 0
M  V30 444 C 40.1307 -2.4734 -2.31389 0
M  V30 445 C 39.1767 -3.68827 -2.1417 0
M  V30 446 S 40.0097 -5.15655 -1.44429 0
M  V30 447 C 41.1657 -5.60814 -2.77918 0
M  V30 448 H 41.3987 -2.91486 -0.585078 0
M  V30 449 H 38.9317 -1.53269 -0.186507 0
M  V30 450 H 40.8897 -2.72127 -3.07339 0
M  V30 451 H 39.5507 -1.6168 -2.69292 0
M  V30 452 H 38.7437 -3.95955 -3.11826 0
M  V30 453 H 38.3457 -3.44172 -1.46362 0
M  V30 454 H 40.6377 -5.64806 -3.74166 0
M  V30 455 H 41.5807 -6.60414 -2.55459 0
M  V30 456 H 41.9887 -4.8845 -2.82979 0
M  V30 457 N 41.3868 0.248026 -1.55636 0
M  V30 458 C 42.3188 1.32993 -1.8667 0
M  V30 459 C 43.3318 1.44345 -0.752877 0
M  V30 460 O 44.5208 1.45715 -1.03098 0
M  V30 461 C 41.6208 2.70863 -2.03682 0
M  V30 462 C 40.7938 2.81792 -3.34532 0
M  V30 463 C 39.8528 4.005 -3.41301 0
M  V30 464 O 38.8788 3.9008 -4.14519 0
M  V30 465 N 40.0808 5.13618 -2.70512 0
M  V30 466 H 42.8458 1.06707 -2.8006 0
M  V30 467 H 40.4068 0.438129 -1.55859 0
M  V30 468 H 42.3988 3.48612 -2.05553 0
M  V30 469 H 40.9688 2.89862 -1.17041 0
M  V30 470 H 40.1888 1.90729 -3.44987 0
M  V30 471 H 41.4768 2.86043 -4.20781 0
M  V30 472 H 40.8748 5.24975 -2.10755 0
M  V30 473 H 39.4318 5.89505 -2.78077 0
M  V30 474 N 42.8649 1.48995 0.513639 0
M  V30 475 C 44.2809 1.35478 0.843682 0
M  V30 476 C 44.4809 0.378213 1.97919 0
M  V30 477 O 43.5369 -0.194689 2.51748 0
M  V30 478 C 44.8499 2.75901 1.1958 0
M  V30 479 C 46.3979 2.84509 1.30474 0
M  V30 480 C 46.8729 4.25671 1.69021 0
M  V30 481 N 48.3639 4.28422 1.76094 0
M  V30 482 C 49.0989 5.34601 2.07338 0
M  V30 483 N 48.5949 6.5104 2.36894 0
M  V30 484 N 50.3879 5.22007 2.08483 0
M  V30 485 H 42.5389 2.11092 -0.235328 0
M  V30 486 H 44.8019 0.947039 -0.0426669 0
M  V30 487 H 44.5079 3.49001 0.434913 0
M  V30 488 H 44.3819 3.10467 2.1422 0
M  V30 489 H 46.7689 2.11655 2.05637 0
M  V30 490 H 46.8499 2.53542 0.339155 0
M  V30 491 H 46.4939 4.99048 0.944135 0
M  V30 492 H 46.4239 4.54094 2.66658 0
M  V30 493 H 48.9149 3.44441 1.55464 0
M  V30 494 H 49.2279 7.2779 2.59887 0
M  V30 495 H 47.5729 6.54287 2.34378 0
M  V30 496 H 50.7639 4.30051 1.84861 0
M  V30 497 H 50.9369 6.04854 2.325 0
M  V30 498 N 44.343 -0.763751 1.37857 0
M  V30 499 C 45.571 -1.55293 1.36718 0
M  V30 500 C 45.986 -1.88745 -0.0455434 0
M  V30 501 O 45.343 -1.52039 -1.00947 0
M  V30 502 C 45.394 -2.85831 2.2132 0
M  V30 503 O 45.115 -2.5381 3.57089 0
M  V30 504 C 46.616 -3.80023 2.28249 0
M  V30 505 H 43.836 -0.480841 0.468009 0
M  V30 506 H 46.38 -0.946009 1.81303 0
M  V30 507 H 44.535 -3.42926 1.80223 0
M  V30 508 H 44.949 -3.37459 4.01524 0
M  V30 509 H 46.423 -4.68599 2.91752 0
M  V30 510 H 46.9 -4.1973 1.2932 0
M  V30 511 H 47.506 -3.28855 2.69693 0
M  V30 512 N 45.8211 -1.22559 -0.990812 0
M  V30 513 C 46.7711 -0.964807 -2.0658 0
M  V30 514 C 47.7551 0.0853472 -1.60673 0
M  V30 515 O 48.9471 -0.125443 -1.76555 0
M  V30 516 C 46.0761 -0.546707 -3.38919 0
M  V30 517 C 45.1621 -1.6317 -3.91454 0
M  V30 518 N 45.5531 -2.85985 -4.17189 0
M  V30 519 C 43.8511 -1.50387 -4.19881 0
M  V30 520 C 44.5521 -3.56159 -4.59919 0
M  V30 521 N 43.5281 -2.83637 -4.63736 0
M  V30 522 H 47.3301 -1.89769 -2.24421 0
M  V30 523 H 44.8441 -1.12343 -1.17273 0
M  V30 524 H 46.8411 -0.34119 -4.15502 0
M  V30 525 H 45.5011 0.379254 -3.22478 0
M  V30 526 H 46.5121 -3.22392 -4.05319 0
M  V30 527 H 43.1891 -0.644254 -4.12499 0
M  V30 528 H 44.5791 -4.6139 -4.88435 0
M  V30 529 N 47.2992 1.18797 -1.03562 0
M  V30 530 C 48.5242 1.9314 -0.755764 0
M  V30 531 C 48.9492 1.7537 0.68022 0
M  V30 532 O 48.3072 1.06046 1.47051 0
M  V30 533 C 48.3552 3.42747 -1.12058 0
M  V30 534 O 47.4592 4.11683 -0.243124 0
M  V30 535 H 46.8002 0.602724 -0.278604 0
M  V30 536 H 49.3302 1.50678 -1.3841 0
M  V30 537 H 49.3402 3.93437 -1.08035 0
M  V30 538 H 48.0152 3.55002 -2.16672 0
M  V30 539 H 46.5922 3.71323 -0.342539 0
M  V30 540 N 48.7773 0.814389 1.34928 0
M  V30 541 C 49.7093 0.187834 2.28429 0
M  V30 542 C 50.7223 -0.617374 1.5064 0
M  V30 543 O 51.9113 -0.448454 1.72775 0
M  V30 544 C 49.0113 -0.755962 3.30361 0
M  V30 545 C 48.1843 0.00456686 4.374 0
M  V30 546 C 47.2433 -0.858876 5.19143 0
M  V30 547 O 46.2693 -0.306968 5.68372 0
M  V30 548 N 47.4713 -2.17988 5.38016 0
M  V30 549 H 50.2363 0.991105 2.82838 0
M  V30 550 H 47.7973 0.670561 1.4736 0
M  V30 551 H 49.7893 -1.338 3.81942 0
M  V30 552 H 48.3593 -1.46001 2.7641 0
M  V30 553 H 47.5793 0.767865 3.86649 0
M  V30 554 H 48.8673 0.528422 5.06049 0
M  V30 555 H 48.2653 -2.65212 4.99679 0
M  V30 556 H 46.8223 -2.71098 5.92747 0
M  V30 557 N 50.2554 -1.46986 0.568584 0
M  V30 558 C 51.1654 -2.33942 -0.17555 0
M  V30 559 C 52.1814 -1.48891 -0.90041 0
M  V30 560 O 53.3574 -1.81794 -0.86676 0
M  V30 561 C 50.4224 -3.25811 -1.18524 0
M  V30 562 C 49.4834 -4.26757 -0.466582 0
M  V30 563 C 48.7164 -5.14236 -1.42817 0
M  V30 564 O 48.9394 -5.04379 -2.66379 0
M  V30 565 O 47.8734 -5.94412 -0.946453 0
M  V30 566 H 51.6994 -2.98896 0.538036 0
M  V30 567 H 49.2844 -1.4573 0.329097 0
M  V30 568 H 51.1664 -3.82527 -1.76779 0
M  V30 569 H 49.8414 -2.63471 -1.88055 0
M  V30 570 H 48.7484 -3.73769 0.157451 0
M  V30 571 H 50.0814 -4.91843 0.187485 0
M  V30 572 N 51.7335 -0.305618 -1.54608 0
M  V30 573 C 52.9635 0.304333 -2.04346 0
M  V30 574 C 53.3715 1.47715 -1.18224 0
M  V30 575 O 52.7145 1.82591 -0.201577 0
M  V30 576 C 52.7765 0.819031 -3.50046 0
M  V30 577 C 52.4405 -0.22912 -4.56425 0
M  V30 578 C 53.4375 -1.05914 -5.08997 0
M  V30 579 C 51.1225 -0.372148 -5.0092 0
M  V30 580 C 53.1165 -2.01809 -6.04609 0
M  V30 581 C 50.8035 -1.33454 -5.9635 0
M  V30 582 C 51.8015 -2.15599 -6.48079 0
M  V30 583 O 51.4895 -3.10205 -7.41639 0
M  V30 584 H 51.2215 0.0693996 -0.672428 0
M  V30 585 H 53.7755 -0.444548 -2.00532 0
M  V30 586 H 52.0055 1.61852 -3.51199 0
M  V30 587 H 53.6945 1.34537 -3.82955 0
M  V30 588 H 54.4605 -0.959538 -4.75413 0
M  V30 589 H 50.3395 0.257304 -4.60281 0
M  V30 590 H 53.8835 -2.65966 -6.44909 0
M  V30 591 H 49.7805 -1.43485 -6.29351 0
M  V30 592 H 50.5485 -3.05237 -7.59455 0
M  V30 593 N 53.2116 1.57565 -0.0334293 0
M  V30 594 C 54.1746 2.09393 0.932048 0
M  V30 595 C 55.1746 1.00986 1.25134 0
M  V30 596 O 56.3646 1.27129 1.19096 0
M  V30 597 C 53.4966 2.56338 2.2473 0
M  V30 598 H 54.6896 2.95984 0.483085 0
M  V30 599 H 52.2426 1.54819 0.21468 0
M  V30 600 H 52.9776 1.7309 2.74245 0
M  V30 601 H 52.7626 3.35542 2.02865 0
M  V30 602 H 54.2526 2.96646 2.93923 0
M  V30 603 N 54.6897 -0.239769 1.55765 0
M  V30 604 C 55.6397 -1.30002 1.87306 0
M  V30 605 C 56.6237 -1.43156 0.73452 0
M  V30 606 O 57.8157 -1.46277 0.99659 0
M  V30 607 C 54.9447 -2.65409 2.17745 0
M  V30 608 C 54.0307 -2.56231 3.37945 0
M  V30 609 N 54.4217 -2.16689 4.57033 0
M  V30 610 C 52.7197 -2.87229 3.41197 0
M  V30 611 C 53.4207 -2.18318 5.39177 0
M  V30 612 N 52.3967 -2.58098 4.78421 0
M  V30 613 H 56.1987 -0.984912 2.76906 0
M  V30 614 H 53.7127 -0.448381 1.56087 0
M  V30 615 H 55.7097 -3.41934 2.38509 0
M  V30 616 H 54.3697 -2.97781 1.29448 0
M  V30 617 H 55.3807 -1.88116 4.82528 0
M  V30 618 H 52.0577 -3.24094 2.63191 0
M  V30 619 H 53.4477 -1.90025 6.44469 0
M  V30 620 N 56.1678 -1.49265 -0.50573 0
M  V30 621 C 57.3928 -1.62478 -1.28902 0
M  V30 622 C 57.8178 -0.294332 -1.85783 0
M  V30 623 O 57.1758 0.737412 -1.65626 0
M  V30 624 C 57.2238 -2.69268 -2.39848 0
M  V30 625 O 56.3278 -2.28113 -3.43567 0
M  V30 626 H 55.6688 -0.54399 -0.380751 0
M  V30 627 H 58.1988 -1.95421 -0.605952 0
M  V30 628 H 58.2088 -2.91291 -2.85681 0
M  V30 629 H 56.8838 -3.65846 -1.97812 0
M  V30 630 H 55.4608 -2.16401 -3.03685 0
M  V30 631 N 57.6459 0.756429 -1.3826 0
M  V30 632 C 58.8949 1.51082 -1.3363 0
M  V30 633 C 59.2079 1.95467 0.0720068 0
M  V30 634 O 60.4139 2.7043 0.240834 0
M  V30 635 C 58.8699 2.72893 -2.34644 0
M  V30 636 C 58.4779 2.35544 -3.81081 0
M  V30 637 C 60.2219 3.50791 -2.39052 0
M  V30 638 C 58.1289 3.53948 -4.73787 0
M  V30 639 H 57.0589 0.56727 -0.49671 0
M  V30 640 H 59.7099 0.827147 -1.638 0
M  V30 641 H 58.0919 3.43227 -1.97513 0
M  V30 642 H 59.2659 1.72894 -4.27135 0
M  V30 643 H 57.5809 1.70786 -3.79764 0
M  V30 644 H 60.1779 4.38823 -3.05513 0
M  V30 645 H 60.5209 3.91745 -1.40861 0
M  V30 646 H 61.0539 2.87467 -2.74968 0
M  V30 647 H 57.7929 3.18064 -5.73163 0
M  V30 648 H 57.3129 4.15651 -4.32428 0
M  V30 649 H 58.9919 4.20566 -4.91663 0
M  V30 650 N 59.124 1.23083 0.984299 0
M  V30 651 C 60.54 0.992637 1.24975 0
M  V30 652 C 60.74 -0.308618 1.99123 0
M  V30 653 O 59.796 -1.02905 2.30579 0
M  V30 654 C 61.109 2.19698 2.05312 0
M  V30 655 C 62.657 2.24147 2.18465 0
M  V30 656 C 63.132 3.44157 3.02192 0
M  V30 657 N 64.623 3.44372 3.09777 0
M  V30 658 C 65.358 4.33886 3.74874 0
M  V30 659 N 64.854 5.3363 4.41827 0
M  V30 660 N 66.647 4.21639 3.71721 0
M  V30 661 H 58.798 2.06731 0.487453 0
M  V30 662 H 61.061 0.906339 0.277944 0
M  V30 663 H 60.767 3.1411 1.58201 0
M  V30 664 H 60.641 2.20465 3.06064 0
M  V30 665 H 63.028 1.30277 2.64786 0
M  V30 666 H 63.109 2.27415 1.17115 0
M  V30 667 H 62.753 4.38332 2.56568 0
M  V30 668 H 62.683 3.3813 4.03702 0
M  V30 669 H 65.174 2.72201 2.62135 0
M  V30 670 H 65.487 5.98196 4.89266 0
M  V30 671 H 63.832 5.37534 4.40548 0
M  V30 672 H 67.023 3.42962 3.18582 0
M  V30 673 H 67.196 4.91604 4.22173 0
M  V30 674 N 60.6021 -1.18246 1.0419 0
M  V30 675 C 61.8481 -1.88536 0.747122 0
M  V30 676 C 62.1811 -1.80223 -0.723409 0
M  V30 677 O 61.4561 -1.20337 -1.52804 0
M  V30 678 C 61.7391 -3.38968 1.21544 0
M  V30 679 C 61.5921 -3.56084 2.74816 0
M  V30 680 C 62.9111 -4.32648 0.806482 0
M  V30 681 H 60.0301 -0.684619 0.272883 0
M  V30 682 H 62.6721 -1.39113 1.29413 0
M  V30 683 H 60.8221 -3.8119 0.750081 0
M  V30 684 H 62.4941 -3.22946 3.29399 0
M  V30 685 H 60.7371 -2.98699 3.14582 0
M  V30 686 H 61.4081 -4.61639 3.02644 0
M  V30 687 H 63.8841 -3.98211 1.20695 0
M  V30 688 H 62.7601 -5.36462 1.1619 0
M  V30 689 H 63.0211 -4.41146 -0.29029 0
M  V30 690 N 62.0802 -0.821533 -1.34494 0
M  V30 691 C 63.3572 -0.33159 -1.92769 0
M  V30 692 C 63.7372 1.18088 -1.74981 0
M  V30 693 O 63.0852 1.98733 -1.12772 0
M  V30 694 C 63.2952 -0.759398 -3.40638 0
M  V30 695 C 64.6432 -0.757433 -4.1779 0
M  V30 696 O 65.6672 -0.70189 -3.49216 0
M  V30 697 O 64.5262 -0.829361 -5.4017 0
M  V30 698 H 61.6202 -0.0902502 -0.822061 0
M  V30 699 H 64.1662 -0.906231 -1.43477 0
M  V30 700 H 62.9382 -1.8012 -3.47379 0
M  V30 701 H 62.5612 -0.160378 -3.97276 0
M  V30 702 N 63.5583 1.46682 -0.576371 0
M  V30 703 C 64.8063 2.02013 -0.0594163 0
M  V30 704 C 65.1273 1.45101 1.30271 0
M  V30 705 O 64.3973 0.633317 1.8538 0
M  V30 706 H 62.9773 0.746759 -0.0189745 0
M  V30 707 H 65.6393 1.79862 -0.750717 0
M  V30 708 H 64.7353 3.12097 0.014345 0
M  V30 709 N 65.0364 0.313813 1.54444 0
M  V30 710 C 66.3134 -0.345447 1.92525 0
M  V30 711 C 66.6934 -1.70667 1.24242 0
M  V30 712 O 66.0414 -2.25273 0.382654 0
M  V30 713 C 66.2514 -0.44737 3.46121 0
M  V30 714 C 67.5994 -0.712238 4.18584 0
M  V30 715 O 68.6234 -0.530678 3.52225 0
M  V30 716 O 67.4824 -1.06183 5.36085 0
M  V30 717 H 64.5764 -0.195407 0.803583 0
M  V30 718 H 67.1224 0.362813 1.65776 0
M  V30 719 H 65.8944 0.509043 3.87975 0
M  V30 720 H 65.5174 -1.20359 3.78945 0
M  V30 721 N 66.5145 -1.57545 0.0417849 0
M  V30 722 C 67.7635 -1.91494 -0.633492 0
M  V30 723 C 68.0765 -0.921084 -1.72556 0
M  V30 724 O 69.2825 -1.15228 -2.45835 0
M  V30 725 C 67.7385 -3.40072 -1.17808 0
M  V30 726 C 67.3465 -4.47843 -0.118633 0
M  V30 727 C 69.0905 -3.8307 -1.82915 0
M  V30 728 C 66.9975 -5.87529 -0.675578 0
M  V30 729 H 65.9275 -0.714653 -0.24039 0
M  V30 730 H 68.5785 -1.83175 0.109148 0
M  V30 731 H 66.9605 -3.43364 -1.97274 0
M  V30 732 H 68.1345 -4.56128 0.654494 0
M  V30 733 H 66.4495 -4.14128 0.434414 0
M  V30 734 H 69.0465 -4.84794 -2.25563 0
M  V30 735 H 69.3895 -3.1881 -2.67705 0
M  V30 736 H 69.9225 -3.82255 -1.10119 0
M  V30 737 H 66.6615 -6.55362 0.134475 0
M  V30 738 H 66.1815 -5.82824 -1.4169 0
M  V30 739 H 67.8605 -6.36491 -1.1614 0
M  V30 740 N 67.9926 0.231505 -1.5589 0
M  V30 741 C 69.2416 0.955346 -1.7764 0
M  V30 742 C 69.5546 1.85893 -0.608546 0
M  V30 743 O 70.7606 2.62067 -0.70943 0
M  V30 744 C 69.2166 1.74886 -3.14552 0
M  V30 745 C 68.8246 0.891915 -4.39032 0
M  V30 746 C 70.5686 2.46452 -3.45633 0
M  V30 747 C 68.4756 1.68221 -5.66971 0
M  V30 748 H 67.4056 0.360446 -0.662265 0
M  V30 749 H 70.0566 0.209516 -1.823 0
M  V30 750 H 68.4386 2.53723 -3.04041 0
M  V30 751 H 69.6126 0.144793 -4.60572 0
M  V30 752 H 67.9276 0.288863 -4.15397 0
M  V30 753 H 70.5246 3.06061 -4.38441 0
M  V30 754 H 70.8676 3.18841 -2.67668 0
M  V30 755 H 71.4006 1.74613 -3.57428 0
M  V30 756 H 68.1396 1.00178 -6.478 0
M  V30 757 H 67.6596 2.4042 -5.49507 0
M  V30 758 H 69.3386 2.24544 -6.06786 0
M  V30 759 N 69.4707 1.49531 0.497807 0
M  V30 760 C 70.4007 1.6935 1.60757 0
M  V30 761 C 71.3817 0.542218 1.61227 0
M  V30 762 O 72.5667 0.778417 1.77917 0
M  V30 763 C 69.6967 1.76298 2.99226 0
M  V30 764 C 68.6507 2.91248 3.13622 0
M  V30 765 C 67.9767 2.83312 4.53474 0
M  V30 766 C 69.2767 4.3214 2.93346 0
M  V30 767 H 70.9707 2.62263 1.44425 0
M  V30 768 H 68.5167 1.26208 0.693367 0
M  V30 769 H 70.4697 1.88749 3.76765 0
M  V30 770 H 69.1937 0.799871 3.16654 0
M  V30 771 H 67.8527 2.78404 2.38509 0
M  V30 772 H 67.5007 1.84902 4.67782 0
M  V30 773 H 67.2007 3.60465 4.64046 0
M  V30 774 H 68.7247 2.97775 5.33069 0
M  V30 775 H 70.1387 4.45649 3.60652 0
M  V30 776 H 68.5357 5.1054 3.15387 0
M  V30 777 H 69.6057 4.46363 1.89441 0
M  V30 778 N 70.9488 -0.749086 1.3866 0
M  V30 779 C 72.1968 -1.50535 1.34847 0
M  V30 780 C 72.5178 -1.94909 -0.0595016 0
M  V30 781 O 71.7878 -1.67973 -1.00806 0
M  V30 782 H 70.3678 -0.558395 0.49619 0
M  V30 783 H 73.0298 -0.890165 1.73384 0
M  V30 784 H 72.1258 -2.39413 2.00219 0
M  V30 785 N 72.4269 -1.23603 -0.977757 0
M  V30 786 C 73.6749 -1.06759 -1.71601 0
M  V30 787 C 73.9959 0.395929 -1.90938 0
M  V30 788 O 73.2659 1.28356 -1.47992 0
M  V30 789 H 71.8459 -0.392062 -0.635843 0
M  V30 790 H 74.5079 -1.55362 -1.1768 0
M  V30 791 H 73.6039 -1.55763 -2.70452 0
M  V30 792 N 73.905 1.17692 -1.04816 0
M  V30 793 C 74.835 2.23777 -0.666791 0
M  V30 794 C 75.816 1.66796 0.33361 0
M  V30 795 O 77.001 1.93039 0.212042 0
M  V30 796 C 74.131 3.47281 -0.0367933 0
M  V30 797 C 73.085 4.17059 -0.961546 0
M  V30 798 C 72.411 5.34342 -0.195626 0
M  V30 799 C 73.711 4.69713 -2.28402 0
M  V30 800 H 75.405 2.55933 -1.55367 0
M  V30 801 H 72.951 1.23019 -0.748484 0
M  V30 802 H 74.904 4.20706 0.241775 0
M  V30 803 H 73.628 3.14381 0.885004 0
M  V30 804 H 72.287 3.45541 -1.22462 0
M  V30 805 H 71.935 4.97692 0.728816 0
M  V30 806 H 71.635 5.81966 -0.811775 0
M  V30 807 H 73.159 6.10553 0.0757473 0
M  V30 808 H 74.573 5.34794 -2.06563 0
M  V30 809 H 72.97 5.279 -2.8538 0
M  V30 810 H 74.04 3.86726 -2.92525 0
M  V30 811 N 75.3831 0.828654 1.34056 0
M  V30 812 C 76.6301 0.419458 1.98108 0
M  V30 813 C 76.9581 -1.01886 1.65679 0
M  V30 814 O 76.2131 -1.72539 0.923512 0
M  V30 815 C 76.5121 0.575226 3.52741 0
M  V30 816 C 76.1781 1.98012 4.05095 0
M  V30 817 C 74.8401 2.36442 4.19104 0
M  V30 818 C 77.1921 2.89824 4.33188 0
M  V30 819 C 74.5201 3.66009 4.58535 0
M  V30 820 C 76.8721 4.1886 4.74066 0
M  V30 821 C 75.5361 4.5726 4.86281 0
M  V30 822 H 74.8061 0.153491 0.724929 0
M  V30 823 H 77.4531 1.05371 1.59904 0
M  V30 824 H 75.7581 -0.142385 3.91541 0
M  V30 825 H 77.4551 0.239057 4.00287 0
M  V30 826 H 74.0451 1.67162 3.94658 0
M  V30 827 H 78.2291 2.61375 4.21897 0
M  V30 828 H 73.4851 3.95579 4.66184 0
M  V30 829 H 77.6591 4.90086 4.94761 0
M  V30 830 H 75.2861 5.57707 5.16592 0
M  V30 831 N 76.8612 -1.46375 0.584142 0
M  V30 832 C 78.2722 -1.86031 0.157959 0
M  V30 833 C 78.6232 -1.48753 -1.27933 0
M  V30 834 O 77.7482 -0.903098 -1.96655 0
M  V30 835 C 78.3432 -3.37642 0.279892 0
M  V30 836 C 76.9022 -3.76289 -0.09143 0
M  V30 837 C 76.0492 -2.7039 0.615178 0
M  V30 838 H 79.0002 -1.37509 0.792274 0
M  V30 839 H 79.0212 -3.77275 -0.494364 0
M  V30 840 H 78.5332 -3.64742 1.32607 0
M  V30 841 H 76.6342 -3.54806 -1.13769 0
M  V30 842 H 76.7472 -4.78246 0.285886 0
M  V30 843 H 75.1112 -2.5464 0.0552833 0
M  V30 844 H 75.8942 -3.0033 1.66303 0
M  V30 845 N 78.3393 -0.321999 -1.54275 0
M  V30 846 C 79.5853 0.281461 -2.00837 0
M  V30 847 C 79.9183 1.51909 -1.20985 0
M  V30 848 O 79.1933 1.923 -0.291733 0
M  V30 849 C 79.4763 0.617162 -3.54772 0
M  V30 850 C 79.3293 -0.631064 -4.45351 0
M  V30 851 C 80.6483 1.43542 -4.16033 0
M  V30 852 H 77.7673 0.100826 -0.730071 0
M  V30 853 H 80.4093 -0.438268 -1.84876 0
M  V30 854 H 78.5593 1.23034 -3.68504 0
M  V30 855 H 80.2313 -1.26934 -4.43492 0
M  V30 856 H 78.4743 -1.26025 -4.15091 0
M  V30 857 H 79.1453 -0.351735 -5.50878 0
M  V30 858 H 81.6213 0.917134 -4.05867 0
M  V30 859 H 80.4973 1.63907 -5.23856 0
M  V30 860 H 80.7583 2.43108 -3.69257 0
M  V30 861 N 79.8174 1.5752 -0.0501392 0
M  V30 862 C 80.7674 2.07981 0.934231 0
M  V30 863 C 81.7514 0.984745 1.27246 0
M  V30 864 O 82.9434 1.24809 1.25506 0
M  V30 865 C 80.0724 2.62751 2.20945 0
M  V30 866 C 79.1584 3.79225 1.89865 0
M  V30 867 N 79.5494 4.89036 1.29142 0
M  V30 868 C 77.8474 3.88111 2.19741 0
M  V30 869 C 78.5484 5.70084 1.15669 0
M  V30 870 N 77.5244 5.17659 1.65923 0
M  V30 871 H 81.3264 2.90277 0.460053 0
M  V30 872 H 78.8404 1.61665 0.15434 0
M  V30 873 H 80.8374 2.97205 2.9236 0
M  V30 874 H 79.4974 1.81894 2.6897 0
M  V30 875 H 80.5084 5.08854 0.963756 0
M  V30 876 H 77.1854 3.18194 2.70293 0
M  V30 877 H 78.5754 6.68395 0.685356 0
M  V30 878 N 81.2955 -0.223234 1.56011 0
M  V30 879 C 82.2585 -1.26014 1.9145 0
M  V30 880 C 83.2585 -1.3989 0.792937 0
M  V30 881 O 84.4485 -1.38184 1.0607 0
M  V30 882 C 81.5805 -2.63422 2.16383 0
M  V30 883 H 82.7735 -0.95796 2.84189 0
M  V30 884 H 80.3265 -0.463576 1.49267 0
M  V30 885 H 81.0615 -2.98741 1.2619 0
M  V30 886 H 80.8465 -2.54728 2.98088 0
M  V30 887 H 82.3365 -3.38249 2.44903 0
M  V30 888 N 82.7736 -1.49793 -0.48987 0
M  V30 889 C 83.7206 -1.67281 -1.59014 0
M  V30 890 C 84.6906 -0.514177 -1.57941 0
M  V30 891 O 85.8756 -0.742533 -1.75759 0
M  V30 892 C 83.0156 -1.75569 -2.97102 0
M  V30 893 C 82.1286 -3.0281 -3.08107 0
M  V30 894 C 81.2636 -3.02008 -4.36995 0
M  V30 895 C 80.3026 -4.23782 -4.41673 0
M  V30 896 N 79.4396 -4.20826 -5.62005 0
M  V30 897 H 84.2796 -2.61224 -1.43409 0
M  V30 898 H 81.8166 -1.29508 -0.697565 0
M  V30 899 H 83.7746 -1.78354 -3.77155 0
M  V30 900 H 82.4046 -0.850827 -3.11385 0
M  V30 901 H 81.4566 -3.09584 -2.21047 0
M  V30 902 H 82.7686 -3.92801 -3.07423 0
M  V30 903 H 81.9226 -3.03418 -5.25378 0
M  V30 904 H 80.6616 -2.09815 -4.4026 0
M  V30 905 H 79.6666 -4.22604 -3.5169 0
M  V30 906 H 80.8916 -5.17181 -4.40115 0
M  V30 907 H 78.8376 -3.31476 -5.66091 0
M  V30 908 H 78.7546 -5.04564 -5.62984 0
M  V30 909 H 80.0226 -4.26355 -6.52565 0
M  V30 910 N 84.2517 0.741722 -1.39055 0
M  V30 911 C 85.4997 1.49818 -1.35643 0
M  V30 912 C 85.8207 1.94938 0.0491642 0
M  V30 913 O 85.0907 1.68505 0.999141 0
M  V30 914 H 83.6707 0.555755 -0.499144 0
M  V30 915 H 86.3327 0.880957 -1.73854 0
M  V30 916 H 85.4287 2.38348 -2.01486 0
M  V30 917 N 85.7298 1.2412 0.971189 0
M  V30 918 C 86.6398 1.04747 2.09917 0
M  V30 919 C 87.6558 -0.0107162 1.73997 0
M  V30 920 O 88.8318 0.186714 2.00533 0
M  V30 921 C 85.8968 0.650828 3.40537 0
M  V30 922 C 84.9578 1.7851 3.90426 0
M  V30 923 C 84.1908 1.40729 5.14812 0
M  V30 924 O 84.4138 0.29557 5.69634 0
M  V30 925 O 83.3478 2.23168 5.58999 0
M  V30 926 H 87.1738 1.99304 2.29154 0
M  V30 927 H 84.7588 1.02908 1.08307 0
M  V30 928 H 86.6408 0.440992 4.19086 0
M  V30 929 H 85.3158 -0.265649 3.22608 0
M  V30 930 H 84.2228 2.04966 3.12953 0
M  V30 931 H 85.5558 2.68023 4.12825 0
M  V30 932 N 87.2079 -1.17134 1.05439 0
M  V30 933 C 88.6239 -1.39454 0.776201 0
M  V30 934 C 88.8239 -1.91454 -0.628307 0
M  V30 935 O 87.8799 -2.10777 -1.39031 0
M  V30 936 C 89.1929 -2.38305 1.83388 0
M  V30 937 C 90.7409 -2.52006 1.85639 0
M  V30 938 C 91.2159 -3.54133 2.90437 0
M  V30 939 N 92.7069 -3.61653 2.89415 0
M  V30 940 C 93.4419 -4.4044 3.67152 0
M  V30 941 N 92.9379 -5.22721 4.54681 0
M  V30 942 N 94.7309 -4.35337 3.55581 0
M  V30 943 H 86.8819 -0.817134 1.96053 0
M  V30 944 H 89.1449 -0.421626 0.849079 0
M  V30 945 H 88.8509 -2.07173 2.84204 0
M  V30 946 H 88.7249 -3.37841 1.67761 0
M  V30 947 H 91.1119 -2.82447 0.85486 0
M  V30 948 H 91.1929 -1.52537 2.05344 0
M  V30 949 H 90.8369 -3.24431 3.90777 0
M  V30 950 H 90.7669 -4.53313 2.67983 0
M  V30 951 H 93.2579 -3.02909 2.25952 0
M  V30 952 H 93.5709 -5.80027 5.10674 0
M  V30 953 H 91.9159 -5.22093 4.58741 0
M  V30 954 H 95.1069 -3.70112 2.86592 0
M  V30 955 H 95.2799 -4.96494 4.1641 0
M  V30 956 N 88.686 -0.835752 -1.33615 0
M  V30 957 C 89.934 -0.429109 -1.97492 0
M  V30 958 C 90.255 1.01433 -1.66543 0
M  V30 959 O 89.525 1.70611 -0.962744 0
M  V30 960 H 88.105 -0.155686 -0.730596 0
M  V30 961 H 90.767 -1.06802 -1.63031 0
M  V30 962 H 89.863 -0.55861 -3.0706 0
M  V30 963 N 90.1641 1.46063 -0.591896 0
M  V30 964 C 91.4101 2.02638 -0.0811191 0
M  V30 965 C 91.7431 1.4613 1.27905 0
M  V30 966 O 91.0181 0.629908 1.84017 0
M  V30 967 C 91.3011 3.60091 -0.0252436 0
M  V30 968 C 91.1541 4.26965 -1.41496 0
M  V30 969 C 92.4731 4.3496 0.670685 0
M  V30 970 H 89.5921 0.73635 -0.0309524 0
M  V30 971 H 92.2341 1.741 -0.760859 0
M  V30 972 H 90.3841 3.84535 0.553624 0
M  V30 973 H 92.0561 4.13756 -2.0397 0
M  V30 974 H 90.2991 3.85971 -1.98011 0
M  V30 975 H 90.9701 5.35781 -1.32825 0
M  V30 976 H 93.4461 4.15716 0.178825 0
M  V30 977 H 92.3221 5.44686 0.678837 0
M  V30 978 H 92.5831 4.06685 1.73379 0
M  V30 979 N 91.6422 0.330177 1.54103 0
M  V30 980 C 93.0532 -0.15652 1.86043 0
M  V30 981 C 93.4042 -1.51086 1.2517 0
M  V30 982 O 92.5292 -2.09023 0.560217 0
M  V30 983 C 93.1242 -0.290784 3.3755 0
M  V30 984 C 91.6832 -0.721705 3.69416 0
M  V30 985 C 90.8302 0.152622 2.7688 0
M  V30 986 H 93.7812 0.550237 1.48856 0
M  V30 987 H 93.8022 -1.12058 3.63625 0
M  V30 988 H 93.3142 0.695068 3.81825 0
M  V30 989 H 91.4152 -1.71706 3.30678 0
M  V30 990 H 91.5282 -0.520869 4.7626 0
M  V30 991 H 89.8922 -0.372894 2.51956 0
M  V30 992 H 90.6752 1.13536 3.23982 0
M  V30 993 N 93.1203 -1.57491 0.0584922 0
M  V30 994 C 94.3603 -1.94851 -0.617458 0
M  V30 995 C 94.7243 -0.937165 -1.67575 0
M  V30 996 O 95.9253 -1.19795 -2.40629 0
M  V30 997 C 94.1963 -3.36955 -1.19147 0
M  V30 998 S 95.7553 -3.96277 -1.8844 0
M  V30 999 H 92.5733 -0.681539 -0.202547 0
M  V30 1000 H 95.1753 -1.95073 0.129176 0
M  V30 1001 H 93.8793 -4.08355 -0.409215 0
M  V30 1002 H 93.4103 -3.40245 -1.97476 0
M  V30 1003 H 95.4253 -3.82099 -3.16568 0
M  V30 1004 N 94.5984 0.214957 -1.56127 0
M  V30 1005 C 95.8464 0.936518 -1.79091 0
M  V30 1006 C 96.1674 1.84606 -0.628148 0
M  V30 1007 O 95.4374 1.92664 0.35462 0
M  V30 1008 H 94.0174 0.3488 -0.660566 0
M  V30 1009 H 96.6794 0.22523 -1.93594 0
M  V30 1010 H 95.7754 1.53943 -2.71492 0
M  V30 1011 N 96.0765 1.50051 0.48192 0
M  V30 1012 C 96.9865 1.7089 1.60728 0
M  V30 1013 C 98.0025 0.591788 1.63627 0
M  V30 1014 O 99.1785 0.868817 1.81696 0
M  V30 1015 C 96.2435 1.78855 2.97005 0
M  V30 1016 C 95.3045 3.02537 3.04581 0
M  V30 1017 C 94.5375 3.10112 4.34357 0
M  V30 1018 O 94.7605 2.24765 5.24249 0
M  V30 1019 O 93.6945 4.02747 4.47301 0
M  V30 1020 H 97.5205 2.66264 1.46072 0
M  V30 1021 H 95.1055 1.34018 0.660264 0
M  V30 1022 H 96.9875 1.86336 3.77964 0
M  V30 1023 H 95.6625 0.866628 3.11883 0
M  V30 1024 H 94.5695 3.00563 2.22739 0
M  V30 1025 H 95.9025 3.94272 2.94636 0
M  V30 1026 N 97.5546 -0.734337 1.39446 0
M  V30 1027 C 98.4846 -1.86155 1.40955 0
M  V30 1028 C 99.4656 -1.67898 0.272827 0
M  V30 1029 O 100.651 -1.88207 0.478743 0
M  V30 1030 C 97.7806 -3.23912 1.25294 0
M  V30 1031 C 96.7346 -3.56808 2.36373 0
M  V30 1032 C 96.0606 -4.93508 2.058 0
M  V30 1033 C 97.3606 -3.59713 3.78687 0
M  V30 1034 H 99.0546 -1.8515 2.35287 0
M  V30 1035 H 96.6006 -0.889367 1.13253 0
M  V30 1036 H 98.5536 -4.02443 1.2497 0
M  V30 1037 H 97.2776 -3.25446 0.274308 0
M  V30 1038 H 95.9366 -2.80606 2.35914 0
M  V30 1039 H 95.5846 -4.91623 1.06374 0
M  V30 1040 H 95.2846 -5.16486 2.80208 0
M  V30 1041 H 96.8086 -5.74396 2.07128 0
M  V30 1042 H 98.2226 -4.2832 3.81071 0
M  V30 1043 H 96.6196 -3.94209 4.52459 0
M  V30 1044 H 97.6896 -2.59504 4.09617 0
M  V30 1045 N 99.0327 -1.24633 -0.964593 0
M  V30 1046 C 99.9797 -1.04144 -2.05968 0
M  V30 1047 C 100.95 0.046262 -1.66036 0
M  V30 1048 O 102.135 -0.108972 -1.90489 0
M  V30 1049 C 99.2747 -0.65563 -3.38815 0
M  V30 1050 C 98.3877 -1.81714 -3.91923 0
M  V30 1051 C 97.5227 -1.37662 -5.13052 0
M  V30 1052 C 96.5617 -2.50788 -5.58365 0
M  V30 1053 N 95.6987 -2.07582 -6.70712 0
M  V30 1054 H 100.539 -1.9787 -2.22827 0
M  V30 1055 H 98.0757 -0.9855 -1.09208 0
M  V30 1056 H 100.034 -0.412954 -4.15151 0
M  V30 1057 H 98.6637 0.244627 -3.21872 0
M  V30 1058 H 97.7157 -2.1734 -3.12198 0
M  V30 1059 H 99.0277 -2.66705 -4.21509 0
M  V30 1060 H 98.1817 -1.093 -5.96773 0
M  V30 1061 H 96.9207 -0.497293 -4.85158 0
M  V30 1062 H 95.9257 -2.79906 -4.73215 0
M  V30 1063 H 97.1507 -3.39283 -5.88272 0
M  V30 1064 H 95.0967 -1.22051 -6.44546 0
M  V30 1065 H 95.0137 -2.86125 -6.99763 0
M  V30 1066 H 96.2817 -1.82369 -7.57867 0
M  V30 1067 N 100.511 1.16574 -1.06058 0
M  V30 1068 C 101.458 2.20883 -0.669263 0
M  V30 1069 C 102.428 1.62729 0.332918 0
M  V30 1070 O 103.613 1.895 0.222346 0
M  V30 1071 C 100.753 3.45049 -0.0593572 0
M  V30 1072 C 99.8658 4.17458 -1.11143 0
M  V30 1073 C 99.0008 5.29135 -0.467916 0
M  V30 1074 C 98.0398 5.93343 -1.50369 0
M  V30 1075 N 97.1768 6.96516 -0.883706 0
M  V30 1076 H 102.017 2.53709 -1.5632 0
M  V30 1077 H 99.5538 1.24616 -0.781625 0
M  V30 1078 H 101.512 4.16033 0.311771 0
M  V30 1079 H 100.142 3.12781 0.797992 0
M  V30 1080 H 99.1938 3.45101 -1.60029 0
M  V30 1081 H 100.506 4.61307 -1.89731 0
M  V30 1082 H 99.6598 6.06684 -0.0436871 0
M  V30 1083 H 98.3988 4.86443 0.349864 0
M  V30 1084 H 97.4038 5.14517 -1.93784 0
M  V30 1085 H 98.6288 6.38114 -2.32352 0
M  V30 1086 H 96.5748 6.55943 -0.086595 0
M  V30 1087 H 96.4918 7.38723 -1.607 0
M  V30 1088 H 97.7598 7.77993 -0.484543 0
M  V30 1089 N 101.989 0.842826 1.3317 0
M  V30 1090 C 102.899 0.281444 2.32906 0
M  V30 1091 C 103.915 -0.594587 1.63526 0
M  V30 1092 O 105.091 -0.49777 1.95152 0
M  V30 1093 C 102.156 -0.530929 3.42611 0
M  V30 1094 C 101.217 0.369843 4.27704 0
M  V30 1095 C 100.45 -0.403853 5.3217 0
M  V30 1096 O 100.673 -1.63513 5.46461 0
M  V30 1097 O 99.6069 0.224199 6.01482 0
M  V30 1098 H 103.433 1.10744 2.82789 0
M  V30 1099 H 101.018 0.60545 1.36582 0
M  V30 1100 H 102.9 -0.992437 4.09547 0
M  V30 1101 H 101.575 -1.33392 2.94938 0
M  V30 1102 H 100.482 0.879275 3.6362 0
M  V30 1103 H 101.815 1.13771 4.78871 0
M  V30 1104 N 103.467 -1.45747 0.599634 0
M  V30 1105 C 104.414 -2.30467 -0.123849 0
M  V30 1106 C 105.384 -1.41632 -0.86774 0
M  V30 1107 O 106.569 -1.70568 -0.855056 0
M  V30 1108 C 103.709 -3.26402 -1.12051 0
M  V30 1109 C 102.822 -4.3034 -0.37832 0
M  V30 1110 C 101.957 -5.13389 -1.364 0
M  V30 1111 C 100.996 -6.09061 -0.609171 0
M  V30 1112 N 100.133 -6.84918 -1.54374 0
M  V30 1113 H 104.973 -2.91802 0.604627 0
M  V30 1114 H 102.51 -1.43797 0.309972 0
M  V30 1115 H 104.468 -3.80482 -1.7114 0
M  V30 1116 H 103.098 -2.66839 -1.8165 0
M  V30 1117 H 102.15 -3.78984 0.327929 0
M  V30 1118 H 103.462 -4.98354 0.210997 0
M  V30 1119 H 102.616 -5.7183 -2.02719 0
M  V30 1120 H 101.355 -4.45376 -1.98725 0
M  V30 1121 H 100.36 -5.49758 0.0676979 0
M  V30 1122 H 101.585 -6.79099 0.00891991 0
M  V30 1123 H 99.531 -6.19601 -2.15478 0
M  V30 1124 H 99.448 -7.49254 -1.00766 0
M  V30 1125 H 100.716 -7.47906 -2.19676 0
M  V30 1126 N 104.945 -0.338344 -1.53925 0
M  V30 1127 C 106.193 0.259245 -2.0043 0
M  V30 1128 C 106.514 1.51484 -1.22791 0
M  V30 1129 O 105.784 1.93037 -0.33368 0
M  V30 1130 H 104.364 0.0987845 -0.740439 0
M  V30 1131 H 107.026 -0.458302 -1.89435 0
M  V30 1132 H 106.122 0.505334 -3.07982 0
M  V30 1133 N 106.423 1.57458 -0.0668435 0
M  V30 1134 C 107.672 1.92477 0.602947 0
M  V30 1135 C 107.985 0.948419 1.71068 0
M  V30 1136 O 109.191 1.19124 2.43971 0
M  V30 1137 C 107.647 3.41903 1.12383 0
M  V30 1138 C 107.255 4.47975 0.04737 0
M  V30 1139 C 108.999 3.85931 1.76797 0
M  V30 1140 C 106.906 5.88529 0.582022 0
M  V30 1141 H 105.836 0.718387 0.22899 0
M  V30 1142 H 108.487 1.82978 -0.138276 0
M  V30 1143 H 106.869 3.46459 1.91787 0
M  V30 1144 H 108.043 4.55029 -0.726978 0
M  V30 1145 H 106.358 4.13384 -0.500243 0
M  V30 1146 H 108.955 4.88322 2.17821 0
M  V30 1147 H 109.298 3.23029 2.62599 0
M  V30 1148 H 109.831 3.83958 1.04024 0
M  V30 1149 H 106.57 6.55065 -0.238721 0
M  V30 1150 H 106.09 5.85004 1.324 0
M  V30 1151 H 107.769 6.38258 1.05999 0
M  V30 1152 N 107.901 -0.206675 1.56239 0
M  V30 1153 C 108.851 -1.26 1.90021 0
M  V30 1154 C 109.835 -1.41566 0.764721 0
M  V30 1155 O 111.027 -1.44131 1.02739 0
M  V30 1156 C 108.156 -2.6073 2.23326 0
M  V30 1157 C 107.242 -2.49005 3.43304 0
M  V30 1158 N 107.633 -2.06946 4.61527 0
M  V30 1159 C 105.931 -2.79927 3.47213 0
M  V30 1160 C 106.632 -2.06832 5.43687 0
M  V30 1161 N 105.608 -2.47892 4.83788 0
M  V30 1162 H 109.41 -0.925955 2.78932 0
M  V30 1163 H 106.924 -0.415172 1.57003 0
M  V30 1164 H 108.921 -3.36798 2.45708 0
M  V30 1165 H 107.581 -2.94968 1.35735 0
M  V30 1166 H 108.592 -1.77839 4.86409 0
M  V30 1167 H 105.269 -3.18438 2.70006 0
M  V30 1168 H 106.659 -1.76312 6.48354 0
M  V30 1169 N 109.379 -1.50304 -0.473955 0
M  V30 1170 C 110.795 -1.37667 -0.807466 0
M  V30 1171 C 110.995 -0.430555 -1.96846 0
M  V30 1172 O 110.051 0.127874 -2.52176 0
M  V30 1173 C 111.364 -2.78974 -1.12223 0
M  V30 1174 C 112.912 -2.87868 -1.22885 0
M  V30 1175 C 113.387 -4.30003 -1.57676 0
M  V30 1176 N 114.878 -4.3294 -1.64673 0
M  V30 1177 C 115.613 -5.3991 -1.93091 0
M  V30 1178 N 115.109 -6.57092 -2.1955 0
M  V30 1179 N 116.902 -5.27351 -1.94569 0
M  V30 1180 H 109.053 -2.10394 0.291212 0
M  V30 1181 H 111.316 -0.945575 0.0677609 0
M  V30 1182 H 111.022 -3.50031 -0.342229 0
M  V30 1183 H 110.896 -3.16038 -2.05913 0
M  V30 1184 H 113.283 -2.17032 -1.99953 0
M  V30 1185 H 113.364 -2.54352 -0.271814 0
M  V30 1186 H 113.008 -5.01375 -0.81149 0
M  V30 1187 H 112.938 -4.61004 -2.54525 0
M  V30 1188 H 115.429 -3.48441 -1.46277 0
M  V30 1189 H 115.742 -7.34425 -2.405 0
M  V30 1190 H 114.087 -6.60272 -2.16948 0
M  V30 1191 H 117.278 -4.34801 -1.73394 0
M  V30 1192 H 117.451 -6.10805 -2.16381 0
M  V30 1193 N 110.857 0.726932 -1.39834 0
M  V30 1194 C 111.787 1.85405 -1.41941 0
M  V30 1195 C 112.768 1.67751 -0.281728 0
M  V30 1196 O 113.953 1.8795 -0.488717 0
M  V30 1197 C 111.083 3.23243 -1.2701 0
M  V30 1198 C 110.037 3.55549 -2.38262 0
M  V30 1199 C 109.363 4.9241 -2.08415 0
M  V30 1200 C 110.663 3.577 -3.80589 0
M  V30 1201 H 112.357 1.83899 -2.36266 0
M  V30 1202 H 109.903 0.883349 -1.13723 0
M  V30 1203 H 111.856 4.01775 -1.27103 0
M  V30 1204 H 110.58 3.25296 -0.291564 0
M  V30 1205 H 109.239 2.79351 -2.37399 0
M  V30 1206 H 108.887 4.91052 -1.0898 0
M  V30 1207 H 108.587 5.14992 -2.82943 0
M  V30 1208 H 110.111 5.73289 -2.10171 0
M  V30 1209 H 111.525 4.26293 -3.83337 0
M  V30 1210 H 109.922 3.91804 -4.54543 0
M  V30 1211 H 110.992 2.57328 -4.10987 0
M  V30 1212 N 112.336 1.25143 0.95797 0
M  V30 1213 C 113.246 1.06968 2.08794 0
M  V30 1214 C 114.262 0.00773911 1.73998 0
M  V30 1215 O 115.438 0.207972 2.00323 0
M  V30 1216 C 112.503 0.68691 3.39827 0
M  V30 1217 C 111.564 1.82641 3.88511 0
M  V30 1218 C 110.797 1.46181 5.1329 0
M  V30 1219 O 111.02 0.355971 5.69288 0
M  V30 1220 O 109.954 2.29085 5.566 0
M  V30 1221 H 113.78 2.01723 2.27027 0
M  V30 1222 H 111.365 1.04051 1.07209 0
M  V30 1223 H 113.247 0.485417 4.18595 0
M  V30 1224 H 111.922 -0.231417 3.22872 0
M  V30 1225 H 110.829 2.08274 3.10762 0
M  V30 1226 H 112.162 2.72386 4.09959 0
M  V30 1227 N 113.814 -1.1601 1.06675 0
M  V30 1228 C 114.777 -2.18724 0.685001 0
M  V30 1229 C 115.777 -1.58496 -0.271246 0
M  V30 1230 O 116.967 -1.74119 -0.0531156 0
M  V30 1231 C 114.099 -3.40899 0.00853648 0
M  V30 1232 H 115.292 -2.54011 1.59431 0
M  V30 1233 H 112.845 -1.30352 0.862441 0
M  V30 1234 H 113.58 -3.11173 -0.913337 0
M  V30 1235 H 113.365 -3.8587 0.696204 0
M  V30 1236 H 114.855 -4.16886 -0.24414 0
M  V30 1237 N 115.292 -0.849877 -1.32721 0
M  V30 1238 C 116.225 -0.235903 -2.26977 0
M  V30 1239 C 117.203 0.623355 -1.50177 0
M  V30 1240 O 118.387 0.581207 -1.79316 0
M  V30 1241 C 115.514 0.667712 -3.32053 0
M  V30 1242 C 114.56 -0.11753 -4.26338 0
M  V30 1243 S 115.393 -1.48277 -5.14562 0
M  V30 1244 C 116.549 -0.584741 -6.23163 0
M  V30 1245 H 116.782 -1.03495 -2.78704 0
M  V30 1246 H 114.315 -0.64724 -1.40179 0
M  V30 1247 H 116.273 1.18343 -3.93072 0
M  V30 1248 H 114.934 1.44052 -2.7912 0
M  V30 1249 H 114.127 0.57051 -5.00761 0
M  V30 1250 H 113.729 -0.564668 -3.69713 0
M  V30 1251 H 116.021 0.212968 -6.77165 0
M  V30 1252 H 116.964 -1.29947 -6.96074 0
M  V30 1253 H 117.372 -0.161202 -5.6427 0
M  V30 1254 N 116.77 1.45427 -0.607355 0
M  V30 1255 C 117.7 2.3329 0.0989352 0
M  V30 1256 C 118.681 1.46816 0.859007 0
M  V30 1257 O 119.866 1.75588 0.829604 0
M  V30 1258 C 116.996 3.29518 1.09705 0
M  V30 1259 C 115.95 4.25626 0.450206 0
M  V30 1260 C 115.276 5.11542 1.55655 0
M  V30 1261 C 116.576 5.18505 -0.628455 0
M  V30 1262 H 118.27 2.92595 -0.634716 0
M  V30 1263 H 115.816 1.40696 -0.306681 0
M  V30 1264 H 117.769 3.89855 1.59971 0
M  V30 1265 H 116.493 2.68372 1.86129 0
M  V30 1266 H 115.152 3.66586 -0.0315886 0
M  V30 1267 H 114.8 4.46765 2.31107 0
M  V30 1268 H 114.5 5.76647 1.12925 0
M  V30 1269 H 116.024 5.74748 2.06148 0
M  V30 1270 H 117.438 5.72916 -0.209877 0
M  V30 1271 H 115.835 5.92085 -0.977489 0
M  V30 1272 H 116.905 4.60948 -1.50514 0
M  V30 1273 N 118.248 0.346503 1.53744 0
M  V30 1274 C 119.478 -0.250047 2.05081 0
M  V30 1275 C 119.886 -1.44529 1.22098 0
M  V30 1276 O 119.229 -1.81992 0.249917 0
M  V30 1277 C 119.291 -0.725934 3.52094 0
M  V30 1278 C 118.955 0.350053 4.55657 0
M  V30 1279 C 119.952 1.19372 5.0601 0
M  V30 1280 C 117.637 0.504827 4.99757 0
M  V30 1281 C 119.631 2.17768 5.99046 0
M  V30 1282 C 117.318 1.49218 5.92602 0
M  V30 1283 C 118.316 2.32706 6.42135 0
M  V30 1284 O 118.004 3.2976 7.33153 0
M  V30 1285 H 117.736 -0.0515469 0.674032 0
M  V30 1286 H 120.29 0.497559 1.99282 0
M  V30 1287 H 118.52 -1.52483 3.55367 0
M  V30 1288 H 120.209 -1.24336 3.86388 0
M  V30 1289 H 120.975 1.08525 4.72702 0
M  V30 1290 H 116.854 -0.135178 4.60802 0
M  V30 1291 H 120.398 2.82971 6.37631 0
M  V30 1292 H 116.295 1.6012 6.25325 0
M  V30 1293 H 117.063 3.25265 7.51096 0
M  V30 1294 N 119.726 -1.57421 0.075193 0
M  V30 1295 C 120.689 -2.11791 -0.876203 0
M  V30 1296 C 121.689 -1.04268 -1.22412 0
M  V30 1297 O 122.879 -1.30242 -1.15684 0
M  V30 1298 C 120.011 -2.62207 -2.17854 0
M  V30 1299 H 121.204 -2.9716 -0.40444 0
M  V30 1300 H 118.757 -1.55333 -0.173557 0
M  V30 1301 H 119.492 -1.803 -2.6956 0
M  V30 1302 H 119.277 -3.40802 -1.93897 0
M  V30 1303 H 120.767 -3.04335 -2.85955 0
M  V30 1304 N 121.204 0.198386 -1.56346 0
M  V30 1305 C 122.453 0.917451 -1.79627 0
M  V30 1306 C 122.766 1.8456 -0.64784 0
M  V30 1307 O 123.972 2.60504 -0.764859 0
M  V30 1308 C 122.428 1.68175 -3.18191 0
M  V30 1309 C 122.036 0.798589 -4.40825 0
M  V30 1310 C 123.78 2.39065 -3.50782 0
M  V30 1311 C 121.687 1.56157 -5.70411 0
M  V30 1312 H 120.617 0.346317 -0.669762 0
M  V30 1313 H 123.268 0.170801 -1.82703 0
M  V30 1314 H 121.65 2.47216 -3.09354 0
M  V30 1315 H 122.824 0.0470665 -4.60776 0
M  V30 1316 H 121.139 0.200686 -4.15916 0
M  V30 1317 H 123.736 2.96692 -4.44835 0
M  V30 1318 H 124.079 3.13091 -2.74371 0
M  V30 1319 H 124.612 1.66993 -3.61052 0
M  V30 1320 H 121.351 0.864142 -6.49779 0
M  V30 1321 H 120.871 2.2871 -5.54483 0
M  V30 1322 H 122.55 2.11622 -6.11412 0
M  V30 1323 N 122.682 1.50554 0.465978 0
M  V30 1324 C 123.959 1.5232 1.22712 0
M  V30 1325 C 124.339 0.270807 2.09356 0
M  V30 1326 O 123.687 -0.745541 2.15995 0
M  V30 1327 C 123.897 2.82175 2.05374 0
M  V30 1328 C 125.245 3.33033 2.6339 0
M  V30 1329 O 126.269 2.83531 2.15612 0
M  V30 1330 O 125.128 4.19336 3.50456 0
M  V30 1331 H 122.222 0.611183 0.557122 0
M  V30 1332 H 124.768 1.62847 0.477381 0
M  V30 1333 H 123.54 3.64797 1.41558 0
M  V30 1334 H 123.163 2.74675 2.87471 0
M  V30 1335 N 124.16 -0.719506 1.40217 0
M  V30 1336 C 125.092 -1.84428 1.36084 0
M  V30 1337 C 126.105 -1.60597 0.266913 0
M  V30 1338 O 127.294 -1.70544 0.526983 0
M  V30 1339 C 124.394 -3.20757 1.094 0
M  V30 1340 C 123.567 -3.71817 2.30372 0
M  V30 1341 C 122.626 -4.86748 1.99907 0
M  V30 1342 O 121.652 -4.99603 2.72737 0
M  V30 1343 N 122.854 -5.7226 0.974635 0
M  V30 1344 H 125.619 -1.88473 2.33019 0
M  V30 1345 H 123.18 -0.900885 1.3452 0
M  V30 1346 H 125.172 -3.95235 0.870116 0
M  V30 1347 H 123.742 -3.11884 0.211452 0
M  V30 1348 H 122.962 -2.88514 2.68614 0
M  V30 1349 H 124.25 -4.02666 3.11026 0
M  V30 1350 H 123.648 -5.6448 0.371368 0
M  V30 1351 H 122.205 -6.46739 0.810656 0
M  V30 1352 N 125.638 -1.25649 -0.95132 0
M  V30 1353 C 126.887 -1.09988 -1.69073 0
M  V30 1354 C 127.2 0.358355 -1.92289 0
M  V30 1355 O 128.406 0.635466 -2.63958 0
M  V30 1356 C 126.862 -1.92012 -3.044 0
M  V30 1357 C 126.47 -3.42347 -2.88968 0
M  V30 1358 C 128.214 -1.8493 -3.82101 0
M  V30 1359 C 126.121 -4.16655 -4.19705 0
M  V30 1360 H 125.051 -0.407993 -0.63408 0
M  V30 1361 H 127.702 -1.49873 -1.05879 0
M  V30 1362 H 126.084 -1.44952 -3.68517 0
M  V30 1363 H 127.258 -3.97104 -2.33762 0
M  V30 1364 H 125.573 -3.50557 -2.24719 0
M  V30 1365 H 128.17 -2.37739 -4.78941 0
M  V30 1366 H 128.513 -0.817883 -4.08187 0
M  V30 1367 H 129.046 -2.29758 -3.2474 0
M  V30 1368 H 125.785 -5.20224 -3.98807 0
M  V30 1369 H 125.305 -3.66681 -4.74663 0
M  V30 1370 H 126.984 -4.24551 -4.88227 0
M  V30 1371 N 127.117 1.15442 -1.07289 0
M  V30 1372 C 128.065 2.22225 -0.686952 0
M  V30 1373 C 129.059 1.66688 0.30193 0
M  V30 1374 O 130.265 1.79236 0.165712 0
M  V30 1375 H 126.64 0.723783 -0.204064 0
M  V30 1376 H 128.611 2.52056 -1.5972 0
M  V30 1377 C 127.36 3.47556 -0.100149 0
M  V30 1378 H 126.683 3.90612 -0.852211 0
M  V30 1379 H 128.123 4.23794 0.132235 0
M  V30 1380 C 126.582 3.16337 1.159 0
M  V30 1381 O 127.112 3.33074 2.24555 0
M  V30 1382 N 125.318 2.70385 1.06491 0
M  V30 1383 H 124.865 2.56966 0.180668 0
M  V30 1384 H 124.823 2.49871 1.90819 0
M  V30 1385 N 128.595 0.856903 1.32268 0
M  V30 1386 C 129.542 0.301172 2.28827 0
M  V30 1387 C 130.512 -0.593104 1.5515 0
M  V30 1388 O 131.697 -0.527537 1.83362 0
M  V30 1389 C 128.837 -0.502523 3.41422 0
M  V30 1390 C 127.95 0.417797 4.29975 0
M  V30 1391 C 127.085 -0.398749 5.29701 0
M  V30 1392 C 126.124 0.518827 6.09897 0
M  V30 1393 N 125.261 -0.260674 7.01616 0
M  V30 1394 H 130.101 1.12983 2.75751 0
M  V30 1395 H 127.638 0.568582 1.35667 0
M  V30 1396 H 129.596 -0.984141 4.05426 0
M  V30 1397 H 128.226 -1.29599 2.95642 0
M  V30 1398 H 127.278 1.01781 3.66531 0
M  V30 1399 H 128.59 1.12191 4.86019 0
M  V30 1400 H 127.744 -0.943435 5.9932 0
M  V30 1401 H 126.483 -1.13622 4.7428 0
M  V30 1402 H 125.488 1.07538 5.39181 0
M  V30 1403 H 126.713 1.25495 6.67404 0
M  V30 1404 H 124.659 -0.981198 6.4862 0
M  V30 1405 H 124.576 0.384364 7.55022 0
M  V30 1406 H 125.844 -0.787014 7.75517 0
M  V30 1407 N 130.073 -1.45103 0.615059 0
M  V30 1408 C 131.35 -1.95549 0.0448276 0
M  V30 1409 C 131.73 -1.55737 -1.4251 0
M  V30 1410 O 131.078 -0.823556 -2.13143 0
M  V30 1411 C 131.288 -3.48098 0.250785 0
M  V30 1412 C 132.636 -4.24384 0.135509 0
M  V30 1413 O 133.66 -3.55738 0.181299 0
M  V30 1414 O 132.519 -5.46493 0.0268878 0
M  V30 1415 H 129.613 -0.8264 -0.0314845 0
M  V30 1416 H 132.159 -1.55232 0.685642 0
M  V30 1417 H 130.931 -3.7007 1.27139 0
M  V30 1418 H 130.554 -3.95323 -0.424937 0
M  V30 1419 N 131.551 -0.354651 -1.53558 0
M  V30 1420 C 132.962 0.126902 -1.86268 0
M  V30 1421 C 133.313 1.49075 -1.27558 0
M  V30 1422 O 132.438 2.08105 -0.5934 0
M  V30 1423 C 133.033 0.237046 -3.3797 0
M  V30 1424 C 131.592 0.662842 -3.70518 0
M  V30 1425 C 130.739 -0.196652 -2.76602 0
M  V30 1426 H 133.69 -0.573849 -1.47962 0
M  V30 1427 H 133.711 1.06259 -3.65362 0
M  V30 1428 H 133.223 -0.755725 -3.80671 0
M  V30 1429 H 131.324 1.66424 -3.33367 0
M  V30 1430 H 131.437 0.445034 -4.77029 0
M  V30 1431 H 129.801 0.332763 -2.52517 0
M  V30 1432 H 130.584 -1.18676 -3.22135 0
M  V30 1433 N 133.029 1.57378 -0.0835403 0
M  V30 1434 C 134.306 1.85363 0.624507 0
M  V30 1435 C 134.686 0.978239 1.87066 0
M  V30 1436 O 134.034 0.0475908 2.2845 0
M  V30 1437 C 134.244 3.35795 0.950947 0
M  V30 1438 C 135.592 4.03581 1.31939 0
M  V30 1439 O 136.616 3.40609 1.04232 0
M  V30 1440 O 135.475 5.14672 1.83779 0
M  V30 1441 H 132.569 0.766162 0.311329 0
M  V30 1442 H 135.115 1.69307 -0.115362 0
M  V30 1443 H 133.887 3.91244 0.0663899 0
M  V30 1444 H 133.51 3.57154 1.74719 0
M  V30 1445 N 134.507 -0.190092 1.56449 0
M  V30 1446 C 135.437 -1.23816 1.97969 0
M  V30 1447 C 136.418 -1.47201 0.852395 0
M  V30 1448 O 137.603 -1.58854 1.1171 0
M  V30 1449 C 134.733 -2.5813 2.3235 0
M  V30 1450 C 133.687 -2.49348 3.47864 0
M  V30 1451 C 133.013 -3.8798 3.67934 0
M  V30 1452 C 134.313 -2.01424 4.81898 0
M  V30 1453 H 136.007 -0.89311 2.85769 0
M  V30 1454 H 133.553 -0.428177 1.37487 0
M  V30 1455 H 135.506 -3.31637 2.59991 0
M  V30 1456 H 134.23 -2.94386 1.41438 0
M  V30 1457 H 132.889 -1.78297 3.20321 0
M  V30 1458 H 132.537 -4.21597 2.74344 0
M  V30 1459 H 132.237 -3.82978 4.45648 0
M  V30 1460 H 133.761 -4.63101 3.97957 0
M  V30 1461 H 135.175 -2.64693 5.08538 0
M  V30 1462 H 133.572 -2.07413 5.63116 0
M  V30 1463 H 134.642 -0.967677 4.75146 0
M  V30 1464 N 135.985 -1.50799 -0.457987 0
M  V30 1465 C 136.915 -1.73553 -1.5621 0
M  V30 1466 C 137.896 -0.584774 -1.59732 0
M  V30 1467 O 139.081 -0.825314 -1.7579 0
M  V30 1468 C 136.211 -1.84169 -2.94447 0
M  V30 1469 C 135.165 -2.99461 -3.0579 0
M  V30 1470 C 134.491 -2.95235 -4.45803 0
M  V30 1471 C 135.791 -4.39766 -2.81786 0
M  V30 1472 H 137.485 -2.66 -1.37421 0
M  V30 1473 H 135.031 -1.28002 -0.659662 0
M  V30 1474 H 136.984 -1.98672 -3.71628 0
M  V30 1475 H 135.708 -0.883545 -3.14422 0
M  V30 1476 H 134.367 -2.8463 -2.31044 0
M  V30 1477 H 134.015 -1.97239 -4.62715 0
M  V30 1478 H 133.715 -3.72642 -4.54326 0
M  V30 1479 H 135.239 -3.11803 -5.24987 0
M  V30 1480 H 136.653 -4.55054 -3.4871 0
M  V30 1481 H 135.05 -5.18722 -3.0174 0
M  V30 1482 H 136.12 -4.51229 -1.7754 0
M  V30 1483 N 137.463 0.71206 -1.40597 0
M  V30 1484 C 138.688 1.50617 -1.42581 0
M  V30 1485 C 139.113 1.88079 -0.0282102 0
M  V30 1486 O 138.471 1.53511 0.964579 0
M  V30 1487 C 138.519 2.7557 -2.3258 0
M  V30 1488 O 137.623 3.72414 -1.77148 0
M  V30 1489 H 136.964 0.453966 -0.484573 0
M  V30 1490 H 139.494 0.876649 -1.84868 0
M  V30 1491 H 139.504 3.2406 -2.47889 0
M  V30 1492 H 138.179 2.47639 -3.34138 0
M  V30 1493 H 136.756 3.31276 -1.71204 0
M  V30 1494 N 138.941 1.26152 0.944643 0
M  V30 1495 C 139.889 1.07215 2.06417 0
M  V30 1496 C 140.883 9.2007e-05 1.694 0
M  V30 1497 O 142.089 0.1565 1.79318 0
M  V30 1498 H 138.464 0.329837 0.675805 0
M  V30 1499 H 140.435 2.02099 2.19541 0
M  V30 1500 C 139.184 0.718197 3.40202 0
M  V30 1501 H 138.507 1.53497 3.69159 0
M  V30 1502 H 139.947 0.625459 4.19361 0
M  V30 1503 C 138.406 -0.576435 3.31932 0
M  V30 1504 O 138.936 -1.61574 3.67773 0
M  V30 1505 N 137.142 -0.565781 2.85039 0
M  V30 1506 H 136.689 0.280367 2.5607 0
M  V30 1507 H 136.647 -1.43213 2.79888 0
M  V30 1508 N 140.419 -1.14872 1.07899 0
M  V30 1509 C 141.668 -1.85135 0.800499 0
M  V30 1510 C 141.981 -1.83547 -0.676014 0
M  V30 1511 O 143.187 -2.49548 -1.06948 0
M  V30 1512 C 141.643 -3.3231 1.38197 0
M  V30 1513 C 141.251 -3.42329 2.8899 0
M  V30 1514 C 142.995 -4.0772 1.18174 0
M  V30 1515 C 140.902 -4.83684 3.403 0
M  V30 1516 H 139.832 -0.693563 0.29578 0
M  V30 1517 H 142.483 -1.29532 1.29976 0
M  V30 1518 H 140.865 -3.87618 0.810431 0
M  V30 1519 H 142.039 -2.97097 3.52236 0
M  V30 1520 H 140.354 -2.80369 3.07867 0
M  V30 1521 H 142.951 -5.12049 1.5398 0
M  V30 1522 H 143.294 -4.16124 0.12117 0
M  V30 1523 H 143.827 -3.58696 1.71994 0
M  V30 1524 H 140.566 -4.80465 4.45907 0
M  V30 1525 H 140.086 -5.29474 2.81811 0
M  V30 1526 H 141.765 -5.52558 3.36584 0
M  V30 1527 N 141.898 -0.863906 -1.31812 0
M  V30 1528 C 143.126 -0.486111 -2.01108 0
M  V30 1529 C 143.541 0.919755 -1.64882 0
M  V30 1530 O 142.898 1.60162 -0.874893 0
M  V30 1531 C 142.949 -0.626435 -3.56031 0
M  V30 1532 O 142.67 -1.97693 -3.90959 0
M  V30 1533 C 144.171 -0.248857 -4.42601 0
M  V30 1534 H 141.391 -0.190052 -0.643523 0
M  V30 1535 H 143.935 -1.1634 -1.68182 0
M  V30 1536 H 142.09 0.00322717 -3.874 0
M  V30 1537 H 142.504 -1.98034 -4.85678 0
M  V30 1538 H 143.978 -0.398016 -5.50563 0
M  V30 1539 H 144.455 0.811489 -4.31638 0
M  V30 1540 H 145.061 -0.853971 -4.16638 0
M  V30 1541 N 143.376 1.44774 -0.622745 0
M  V30 1542 C 144.306 2.33382 0.0741861 0
M  V30 1543 C 145.287 1.47719 0.843387 0
M  V30 1544 O 146.472 1.76458 0.810934 0
M  V30 1545 C 143.602 3.30663 1.06204 0
M  V30 1546 C 142.556 4.26079 0.405037 0
M  V30 1547 C 141.882 5.13165 1.5022 0
M  V30 1548 C 143.182 5.1781 -0.683414 0
M  V30 1549 H 144.876 2.91905 -0.665713 0
M  V30 1550 H 142.422 1.40363 -0.321587 0
M  V30 1551 H 144.375 3.9153 1.55827 0
M  V30 1552 H 143.099 2.70331 1.83272 0
M  V30 1553 H 141.758 3.66532 -0.0704683 0
M  V30 1554 H 141.406 4.49191 2.26355 0
M  V30 1555 H 141.106 5.77812 1.06803 0
M  V30 1556 H 142.63 5.76902 2.00041 0
M  V30 1557 H 144.044 5.72661 -0.270631 0
M  V30 1558 H 142.441 5.91015 -1.04023 0
M  V30 1559 H 143.511 4.59326 -1.55395 0
M  V30 1560 N 144.854 0.36279 1.53368 0
M  V30 1561 C 146.102 -0.227326 2.00817 0
M  V30 1562 C 146.423 -1.49511 1.25186 0
M  V30 1563 O 145.693 -1.92482 0.364348 0
M  V30 1564 H 144.273 -0.0869923 0.741917 0
M  V30 1565 H 146.935 0.488381 1.88682 0
M  V30 1566 H 146.031 -0.456273 3.08747 0
M  V30 1567 N 146.332 -1.57332 0.0918853 0
M  V30 1568 C 147.578 -1.94524 -0.573425 0
M  V30 1569 C 147.911 -0.973578 -1.68033 0
M  V30 1570 O 147.186 -0.00609226 -1.94499 0
M  V30 1571 C 147.469 -3.41858 -1.13161 0
M  V30 1572 C 147.322 -4.4979 -0.0299747 0
M  V30 1573 C 148.641 -3.90435 -2.03098 0
M  V30 1574 H 145.76 -0.70734 -0.206975 0
M  V30 1575 H 148.402 -1.89309 0.161942 0
M  V30 1576 H 146.552 -3.46433 -1.7583 0
M  V30 1577 H 148.224 -4.57327 0.604112 0
M  V30 1578 H 146.467 -4.291 0.636833 0
M  V30 1579 H 147.138 -5.50069 -0.461287 0
M  V30 1580 H 149.614 -3.87992 -1.50338 0
M  V30 1581 H 148.49 -4.94097 -2.39081 0
M  V30 1582 H 148.751 -3.29541 -2.94712 0
M  V30 1583 N 147.81 0.181792 -1.56548 0
M  V30 1584 C 149.226 0.53316 -1.50431 0
M  V30 1585 C 149.426 1.85184 -0.794297 0
M  V30 1586 O 148.482 2.50058 -0.350318 0
M  V30 1587 C 149.795 0.575597 -2.9514 0
M  V30 1588 C 151.343 0.663519 -3.05886 0
M  V30 1589 C 151.818 0.736946 -4.52032 0
M  V30 1590 N 153.309 0.800118 -4.56237 0
M  V30 1591 C 154.044 0.877327 -5.66649 0
M  V30 1592 N 153.54 0.916016 -6.86718 0
M  V30 1593 N 155.333 0.915542 -5.54594 0
M  V30 1594 H 147.484 -0.683025 -2.01118 0
M  V30 1595 H 149.747 -0.244988 -0.915797 0
M  V30 1596 H 149.453 -0.324482 -3.502 0
M  V30 1597 H 149.327 1.42572 -3.49218 0
M  V30 1598 H 151.714 1.55403 -2.50867 0
M  V30 1599 H 151.795 -0.21307 -2.54911 0
M  V30 1600 H 151.439 -0.149262 -5.07681 0
M  V30 1601 H 151.369 1.62953 -5.00753 0
M  V30 1602 H 153.86 0.778926 -3.69785 0
M  V30 1603 H 154.173 0.975813 -7.66614 0
M  V30 1604 H 152.518 0.884469 -6.89349 0
M  V30 1605 H 155.709 0.882245 -4.59711 0
M  V30 1606 H 155.882 0.972253 -6.40665 0
M  V30 1607 N 149.288 1.51039 0.449983 0
M  V30 1608 C 150.537 1.62317 1.19733 0
M  V30 1609 C 150.85 0.339101 1.92638 0
M  V30 1610 O 152.056 0.331069 2.69474 0
M  V30 1611 C 150.512 2.86608 2.17678 0
M  V30 1612 C 150.12 4.21972 1.50479 0
M  V30 1613 C 151.864 3.07239 2.92924 0
M  V30 1614 C 149.771 5.37426 2.46834 0
M  V30 1615 H 148.701 0.604532 0.450619 0
M  V30 1616 H 151.352 1.77494 0.465625 0
M  V30 1617 H 149.734 2.65037 2.94231 0
M  V30 1618 H 150.908 4.53878 0.795716 0
M  V30 1619 H 149.223 4.07117 0.874344 0
M  V30 1620 H 151.82 3.90668 3.65079 0
M  V30 1621 H 152.163 2.19807 3.5354 0
M  V30 1622 H 152.696 3.29091 2.23481 0
M  V30 1623 H 149.435 6.27079 1.90926 0
M  V30 1624 H 148.955 5.09912 3.15832 0
M  V30 1625 H 150.634 5.68862 3.08228 0
M  V30 1626 N 150.766 -0.704594 1.40972 0
M  V30 1627 C 151.696 -1.83124 1.44872 0
M  V30 1628 C 152.677 -1.67281 0.30838 0
M  V30 1629 O 153.862 -1.87149 0.518556 0
M  V30 1630 C 150.992 -3.21181 1.32136 0
M  V30 1631 C 149.946 -3.51714 2.43888 0
M  V30 1632 C 149.272 -4.89032 2.16222 0
M  V30 1633 C 150.572 -3.516 3.86232 0
M  V30 1634 H 152.266 -1.80117 2.39161 0
M  V30 1635 H 149.812 -0.865145 1.15114 0
M  V30 1636 H 151.765 -3.99702 1.33479 0
M  V30 1637 H 150.489 -3.24791 0.343279 0
M  V30 1638 H 149.148 -2.75539 2.41813 0
M  V30 1639 H 148.796 -4.89256 1.16778 0
M  V30 1640 H 148.496 -5.10426 2.911 0
M  V30 1641 H 150.02 -5.69873 2.19265 0
M  V30 1642 H 151.434 -4.2014 3.9007 0
M  V30 1643 H 149.831 -3.84523 4.60719 0
M  V30 1644 H 150.901 -2.50757 4.15029 0
M  V30 1645 N 152.244 -1.26651 -0.937939 0
M  V30 1646 C 153.521 -1.0313 -1.66204 0
M  V30 1647 C 153.901 0.437256 -2.06522 0
M  V30 1648 O 153.249 1.41831 -1.79154 0
M  V30 1649 C 153.459 -1.98314 -2.87181 0
M  V30 1650 C 154.807 -2.27107 -3.58758 0
M  V30 1651 O 155.831 -1.96205 -2.97291 0
M  V30 1652 O 154.69 -2.79736 -4.69479 0
M  V30 1653 H 151.784 -0.392384 -0.727986 0
M  V30 1654 H 154.33 -1.37874 -0.989382 0
M  V30 1655 H 153.102 -2.97399 -2.54302 0
M  V30 1656 H 152.725 -1.64068 -3.6217 0
M  V30 1657 N 153.722 1.14298 -1.08507 0
M  V30 1658 C 154.95 1.89219 -0.836876 0
M  V30 1659 C 155.365 1.78638 0.611054 0
M  V30 1660 O 154.722 1.14643 1.41998 0
M  V30 1661 C 154.773 3.39158 -1.25116 0
M  V30 1662 O 154.494 3.49449 -2.64229 0
M  V30 1663 C 155.995 4.31073 -1.03398 0
M  V30 1664 H 153.215 0.599328 -0.301739 0
M  V30 1665 H 155.759 1.44746 -1.44461 0
M  V30 1666 H 153.914 3.81251 -0.687514 0
M  V30 1667 H 154.328 4.42589 -2.81452 0
M  V30 1668 H 155.802 5.34646 -1.37323 0
M  V30 1669 H 156.279 4.3919 0.0289259 0
M  V30 1670 H 156.885 3.94738 -1.58311 0
M  V30 1671 N 155.201 0.870884 1.31352 0
M  V30 1672 C 156.441 0.488783 1.9847 0
M  V30 1673 C 156.805 -0.941536 1.67329 0
M  V30 1674 O 158.006 -1.42903 2.27667 0
M  V30 1675 C 156.277 0.739688 3.49662 0
M  V30 1676 S 157.836 0.457582 4.36408 0
M  V30 1677 H 154.654 0.18242 0.6872 0
M  V30 1678 H 157.256 1.12711 1.59739 0
M  V30 1679 H 155.96 1.77944 3.69816 0
M  V30 1680 H 155.491 0.0883905 3.93301 0
M  V30 1681 H 157.506 -0.709752 4.91098 0
M  V30 1682 N 156.679 -1.44442 0.630414 0
M  V30 1683 C 157.904 -2.06927 0.139944 0
M  V30 1684 C 158.329 -1.46795 -1.17613 0
M  V30 1685 O 157.687 -0.569144 -1.72135 0
M  V30 1686 C 157.735 -3.6058 0.0379581 0
M  V30 1687 O 156.839 -3.99937 -1.0062 0
M  V30 1688 H 156.18 -0.658608 0.0844483 0
M  V30 1689 H 158.71 -1.85327 0.866891 0
M  V30 1690 H 158.72 -4.07714 -0.152856 0
M  V30 1691 H 157.395 -4.03728 0.998809 0
M  V30 1692 H 155.972 -3.64436 -0.79001 0
M  V30 1693 N 158.157 -0.370918 -1.53173 0
M  V30 1694 C 159.573 -0.0200818 -1.59587 0
M  V30 1695 C 159.773 1.46279 -1.38581 0
M  V30 1696 O 158.829 2.22506 -1.19363 0
M  V30 1697 C 160.142 -0.4808 -2.96831 0
M  V30 1698 C 161.69 -0.435477 -3.09956 0
M  V30 1699 C 162.165 -0.872092 -4.4962 0
M  V30 1700 N 163.656 -0.827364 -4.55751 0
M  V30 1701 C 164.391 -1.13683 -5.62018 0
M  V30 1702 N 163.887 -1.51584 -6.76014 0
M  V30 1703 N 165.68 -1.05927 -5.52029 0
M  V30 1704 H 157.831 -1.33652 -1.65079 0
M  V30 1705 H 160.094 -0.546634 -0.774529 0
M  V30 1706 H 159.8 -1.51577 -3.1736 0
M  V30 1707 H 159.674 0.129796 -3.76977 0
M  V30 1708 H 162.061 0.590371 -2.89134 0
M  V30 1709 H 162.142 -1.08164 -2.31806 0
M  V30 1710 H 161.786 -1.89608 -4.71181 0
M  V30 1711 H 161.716 -0.203127 -5.26208 0
M  V30 1712 H 164.207 -0.548216 -3.73902 0
M  V30 1713 H 164.52 -1.73609 -7.53047 0
M  V30 1714 H 162.865 -1.55454 -6.77391 0
M  V30 1715 H 166.056 -0.762321 -4.61851 0
M  V30 1716 H 166.229 -1.30378 -6.34749 0
M  V30 1717 N 159.635 1.57281 -0.100228 0
M  V30 1718 C 160.912 1.86014 0.604812 0
M  V30 1719 C 161.292 0.998025 1.86018 0
M  V30 1720 O 160.64 0.0718184 2.28387 0
M  V30 1721 C 160.85 3.36784 0.915278 0
M  V30 1722 C 162.198 4.04957 1.27651 0
M  V30 1723 O 163.222 3.41695 1.00613 0
M  V30 1724 O 162.081 5.16593 1.7831 0
M  V30 1725 H 159.175 0.76942 0.303185 0
M  V30 1726 H 161.721 1.69176 -0.133313 0
M  V30 1727 H 160.493 3.91292 0.0248896 0
M  V30 1728 H 160.116 3.58987 1.70921 0
M  V30 1729 N 161.113 -0.173488 1.56642 0
M  V30 1730 C 162.341 -0.906095 1.86004 0
M  V30 1731 C 162.756 -1.75921 0.685355 0
M  V30 1732 O 162.113 -1.79198 -0.345578 0
M  V30 1733 C 162.164 -1.78462 3.14378 0
M  V30 1734 O 161.885 -0.965914 4.27319 0
M  V30 1735 C 163.386 -2.62707 3.57071 0
M  V30 1736 H 160.606 -0.263341 0.617165 0
M  V30 1737 H 163.15 -0.174236 2.03756 0
M  V30 1738 H 161.305 -2.46984 2.98459 0
M  V30 1739 H 161.719 -1.56655 5.00559 0
M  V30 1740 H 163.193 -3.19969 4.49804 0
M  V30 1741 H 163.67 -3.37472 2.81086 0
M  V30 1742 H 164.276 -1.99521 3.75595 0
M  V30 1743 N 162.591 -1.51276 -0.441967 0
M  V30 1744 C 163.821 -1.67273 -1.21257 0
M  V30 1745 C 164.229 -0.367624 -1.85594 0
M  V30 1746 O 163.572 0.663349 -1.71305 0
M  V30 1747 C 163.634 -2.72807 -2.34129 0
M  V30 1748 C 163.298 -4.1554 -1.90198 0
M  V30 1749 C 164.295 -5.00471 -1.40801 0
M  V30 1750 C 161.98 -4.61616 -1.9803 0
M  V30 1751 C 163.974 -6.29536 -0.998174 0
M  V30 1752 C 161.661 -5.90679 -1.56658 0
M  V30 1753 C 162.659 -6.74466 -1.07633 0
M  V30 1754 O 162.347 -8.01116 -0.668459 0
M  V30 1755 H 162.079 -0.564614 -0.371734 0
M  V30 1756 H 164.633 -1.9843 -0.530521 0
M  V30 1757 H 162.863 -2.36954 -3.05597 0
M  V30 1758 H 164.552 -2.77729 -2.96009 0
M  V30 1759 H 165.318 -4.66079 -1.34148 0
M  V30 1760 H 161.197 -3.96526 -2.35135 0
M  V30 1761 H 164.741 -6.94885 -0.61482 0
M  V30 1762 H 160.638 -6.24586 -1.62979 0
M  V30 1763 H 161.406 -8.14633 -0.794722 0
M  V30 1764 N 164.069 0.697108 -1.41344 0
M  V30 1765 C 165.032 1.79281 -1.42797 0
M  V30 1766 C 166.032 1.57607 -0.318837 0
M  V30 1767 O 167.222 1.64309 -0.578642 0
M  V30 1768 C 164.354 3.17632 -1.23785 0
M  V30 1769 H 165.547 1.79385 -2.40335 0
M  V30 1770 H 163.1 0.904582 -1.27464 0
M  V30 1771 H 163.835 3.23167 -0.270814 0
M  V30 1772 H 163.62 3.34765 -2.04144 0
M  V30 1773 H 165.11 3.97617 -1.27633 0
M  V30 1774 N 165.547 1.27147 0.931209 0
M  V30 1775 C 166.477 1.12081 2.04842 0
M  V30 1776 C 167.458 0.0232364 1.70084 0
M  V30 1777 O 168.643 0.197085 1.93197 0
M  V30 1778 C 165.773 0.76354 3.38803 0
M  V30 1779 C 164.727 1.81396 3.87659 0
M  V30 1780 C 164.053 1.31075 5.18385 0
M  V30 1781 C 165.353 3.21739 4.11438 0
M  V30 1782 H 167.047 2.05537 2.17703 0
M  V30 1783 H 164.593 0.989603 1.04608 0
M  V30 1784 H 166.546 0.644982 4.16435 0
M  V30 1785 H 165.27 -0.206727 3.25945 0
M  V30 1786 H 163.929 1.92136 3.12217 0
M  V30 1787 H 163.577 0.330037 5.01916 0
M  V30 1788 H 163.277 2.013 5.52044 0
M  V30 1789 H 164.801 1.20506 5.98591 0
M  V30 1790 H 166.215 3.14019 4.79651 0
M  V30 1791 H 164.612 3.89644 4.56397 0
M  V30 1792 H 165.682 3.67054 3.16859 0
M  V30 1793 N 167.025 -1.13721 1.09112 0
M  V30 1794 C 167.935 -2.22638 0.73957 0
M  V30 1795 C 168.951 -1.72091 -0.257068 0
M  V30 1796 O 170.127 -2.01155 -0.0992154 0
M  V30 1797 C 167.192 -3.46322 0.16191 0
M  V30 1798 C 166.253 -4.11775 1.21408 0
M  V30 1799 C 165.486 -5.29555 0.663891 0
M  V30 1800 O 165.709 -5.68077 -0.514274 0
M  V30 1801 O 164.643 -5.84973 1.41738 0
M  V30 1802 H 168.469 -2.55074 1.64836 0
M  V30 1803 H 166.054 -1.21791 0.865289 0
M  V30 1804 H 167.936 -4.21107 -0.157073 0
M  V30 1805 H 166.611 -3.15593 -0.719932 0
M  V30 1806 H 165.518 -3.3883 1.58571 0
M  V30 1807 H 166.851 -4.46627 2.06845 0
M  V30 1808 N 168.503 -0.877838 -1.30888 0
M  V30 1809 C 169.435 -0.296607 -2.27273 0
M  V30 1810 C 170.448 0.544799 -1.53414 0
M  V30 1811 O 171.637 0.365511 -1.74718 0
M  V30 1812 C 168.737 0.597481 -3.33592 0
M  V30 1813 C 167.91 -0.213251 -4.3688 0
M  V30 1814 C 166.969 0.610208 -5.2265 0
M  V30 1815 O 165.995 0.035441 -5.69189 0
M  V30 1816 N 167.197 1.92071 -5.47804 0
M  V30 1817 H 169.962 -1.12492 -2.77787 0
M  V30 1818 H 167.523 -0.740105 -1.43993 0
M  V30 1819 H 169.515 1.15425 -3.87891 0
M  V30 1820 H 168.085 1.32647 -2.83061 0
M  V30 1821 H 167.305 -0.951466 -3.82545 0
M  V30 1822 H 168.593 -0.769262 -5.02951 0
M  V30 1823 H 167.991 2.4107 -5.11763 0
M  V30 1824 H 166.548 2.42508 -6.05007 0
M  V30 1825 N 169.982 1.44106 -0.638065 0
M  V30 1826 C 171.207 2.0685 -0.150916 0
M  V30 1827 C 171.632 1.47417 1.16833 0
M  V30 1828 O 170.99 0.578264 1.71831 0
M  V30 1829 C 171.038 3.60555 -0.05708 0
M  V30 1830 O 170.142 4.00465 0.984972 0
M  V30 1831 H 169.483 0.658151 -0.0879399 0
M  V30 1832 H 172.013 1.84865 -0.876707 0
M  V30 1833 H 172.023 4.07789 0.131232 0
M  V30 1834 H 170.698 4.03193 -1.02021 0
M  V30 1835 H 169.275 3.64849 0.770672 0
M  V30 1836 N 171.46 0.379036 1.52974 0
M  V30 1837 C 172.39 -0.452706 2.29069 0
M  V30 1838 C 173.371 -1.07237 1.32039 0
M  V30 1839 O 174.556 -1.08708 1.60923 0
M  V30 1840 C 171.686 -1.5856 3.08992 0
M  V30 1841 C 170.64 -1.0925 4.13822 0
M  V30 1842 C 169.966 -2.31668 4.81907 0
M  V30 1843 C 171.266 -0.167702 5.22031 0
M  V30 1844 H 172.96 0.182181 2.98845 0
M  V30 1845 H 170.506 0.0890592 1.43724 0
M  V30 1846 H 172.459 -2.1742 3.6098 0
M  V30 1847 H 171.183 -2.24792 2.36931 0
M  V30 1848 H 169.842 -0.526494 3.628 0
M  V30 1849 H 169.49 -2.96386 4.06404 0
M  V30 1850 H 169.19 -1.9934 5.52754 0
M  V30 1851 H 170.714 -2.91189 5.36695 0
M  V30 1852 H 172.128 -0.664186 5.6944 0
M  V30 1853 H 170.525 0.0653265 6.00064 0
M  V30 1854 H 171.595 0.786347 4.78482 0
M  V30 1855 N 172.938 -1.57226 0.108567 0
M  V30 1856 C 174.166 -1.99179 -0.559954 0
M  V30 1857 C 174.581 -0.988022 -1.60884 0
M  V30 1858 O 173.938 0.0205512 -1.82488 0
M  V30 1859 C 173.989 -3.41159 -1.19552 0
M  V30 1860 O 173.71 -4.37694 -0.188577 0
M  V30 1861 C 175.211 -3.98188 -1.94837 0
M  V30 1862 H 172.431 -0.654228 -0.149088 0
M  V30 1863 H 174.975 -2.03598 0.19183 0
M  V30 1864 H 173.13 -3.37711 -1.89815 0
M  V30 1865 H 173.544 -5.20469 -0.649014 0
M  V30 1866 H 175.018 -4.99644 -2.34648 0
M  V30 1867 H 175.495 -3.3675 -2.81951 0
M  V30 1868 H 176.101 -4.0515 -1.2936 0
M  V30 1869 N 174.416 0.165178 -1.56732 0
M  V30 1870 C 175.663 0.880807 -1.8234 0
M  V30 1871 C 175.991 1.81977 -0.686621 0
M  V30 1872 O 175.246 1.92971 0.325697 0
M  V30 1873 C 175.545 1.70405 -3.1416 0
M  V30 1874 C 175.211 0.913475 -4.4155 0
M  V30 1875 C 173.873 0.695303 -4.7615 0
M  V30 1876 C 176.225 0.359349 -5.1996 0
M  V30 1877 C 173.553 -0.0879947 -5.86634 0
M  V30 1878 C 175.905 -0.410893 -6.31264 0
M  V30 1879 C 174.569 -0.639808 -6.64427 0
M  V30 1880 H 173.839 0.32231 -0.667231 0
M  V30 1881 H 176.486 0.145402 -1.90947 0
M  V30 1882 H 174.791 2.50903 -3.00923 0
M  V30 1883 H 176.488 2.26091 -3.31186 0
M  V30 1884 H 173.078 1.09357 -4.14414 0
M  V30 1885 H 177.262 0.515228 -4.93618 0
M  V30 1886 H 172.518 -0.27503 -6.10781 0
M  V30 1887 H 176.692 -0.847494 -6.91224 0
M  V30 1888 H 174.319 -1.24864 -7.49875 0
M  V30 1889 N 175.894 1.51508 0.433938 0
M  V30 1890 C 177.14 1.64588 1.18484 0
M  V30 1891 C 177.473 0.362666 1.90784 0
M  V30 1892 O 176.748 -0.637892 1.83742 0
M  V30 1893 C 177.031 2.85149 2.19913 0
M  V30 1894 C 176.884 4.23456 1.51674 0
M  V30 1895 C 178.203 3.01227 3.20858 0
M  V30 1896 H 175.322 0.598994 0.429389 0
M  V30 1897 H 177.964 1.84002 0.473647 0
M  V30 1898 H 176.114 2.68729 2.80566 0
M  V30 1899 H 177.786 4.51552 0.943322 0
M  V30 1900 H 176.029 4.25998 0.819035 0
M  V30 1901 H 176.7 5.03812 2.2556 0
M  V30 1902 H 179.176 3.16382 2.70263 0
M  V30 1903 H 178.052 3.87141 3.89118 0
M  V30 1904 H 178.313 2.13447 3.8716 0
M  V30 1905 N 177.372 -0.689602 1.41712 0
M  V30 1906 C 178.304 -1.815 1.39966 0
M  V30 1907 C 179.317 -1.59995 0.300917 0
M  V30 1908 O 180.506 -1.69387 0.563039 0
M  V30 1909 C 177.606 -3.18364 1.16179 0
M  V30 1910 C 176.779 -3.66847 2.38206 0
M  V30 1911 C 175.838 -4.82398 2.10186 0
M  V30 1912 O 174.864 -4.93706 2.83272 0
M  V30 1913 N 176.066 -5.70064 1.0958 0
M  V30 1914 H 178.831 -1.83488 2.36965 0
M  V30 1915 H 176.392 -0.872149 1.36401 0
M  V30 1916 H 178.384 -3.93301 0.953756 0
M  V30 1917 H 176.954 -3.11365 0.27756 0
M  V30 1918 H 176.174 -2.82751 2.74673 0
M  V30 1919 H 177.462 -3.95978 3.19498 0
M  V30 1920 H 176.86 -5.63565 0.491019 0
M  V30 1921 H 175.417 -6.44874 0.947656 0
M  V30 1922 N 178.85 -1.27639 -0.924453 0
M  V30 1923 C 179.813 -1.10681 -2.00705 0
M  V30 1924 C 180.813 -0.0497823 -1.60723 0
M  V30 1925 O 182.003 -0.294654 -1.7169 0
M  V30 1926 C 179.135 -0.687164 -3.33902 0
M  V30 1927 H 180.328 -2.06817 -2.17179 0
M  V30 1928 H 177.881 -1.10473 -1.10569 0
M  V30 1929 H 178.616 0.275439 -3.23128 0
M  V30 1930 H 178.401 -1.45061 -3.6428 0
M  V30 1931 H 179.891 -0.590853 -4.13399 0
M  V30 1932 N 180.328 1.1314 -1.09713 0
M  V30 1933 C 181.258 2.20748 -0.761102 0
M  V30 1934 C 182.239 1.68061 0.262566 0
M  V30 1935 O 183.424 1.93765 0.129977 0
M  V30 1936 C 180.554 3.46812 -0.184054 0
M  V30 1937 C 179.508 4.12606 -1.13757 0
M  V30 1938 C 178.834 5.33031 -0.422083 0
M  V30 1939 C 180.134 4.59603 -2.48118 0
M  V30 1940 H 181.828 2.49113 -1.66082 0
M  V30 1941 H 179.374 1.19734 -0.799987 0
M  V30 1942 H 181.327 4.21353 0.0631215 0
M  V30 1943 H 180.051 3.17851 0.750868 0
M  V30 1944 H 178.71 3.40036 -1.37007 0
M  V30 1945 H 178.358 5.00335 0.517072 0
M  V30 1946 H 178.058 5.77999 -1.05788 0
M  V30 1947 H 179.582 6.10325 -0.183277 0
M  V30 1948 H 180.996 5.25552 -2.29059 0
M  V30 1949 H 179.393 5.15321 -3.07514 0
M  V30 1950 H 180.463 3.73971 -3.08665 0
M  V30 1951 N 181.806 0.884767 1.30421 0
M  V30 1952 C 183.055 0.499164 1.95426 0
M  V30 1953 C 183.368 -0.95645 1.70621 0
M  V30 1954 O 184.574 -1.44889 2.29607 0
M  V30 1955 C 183.03 0.84177 3.49917 0
M  V30 1956 C 182.638 2.31514 3.83543 0
M  V30 1957 C 184.382 0.525355 4.21237 0
M  V30 1958 C 182.289 2.59939 5.31212 0
M  V30 1959 H 181.219 0.182944 0.73147 0
M  V30 1960 H 183.87 1.07971 1.48373 0
M  V30 1961 H 182.252 0.190311 3.95542 0
M  V30 1962 H 183.426 3.0109 3.48829 0
M  V30 1963 H 181.741 2.59907 3.25326 0
M  V30 1964 H 184.338 0.714762 5.29901 0
M  V30 1965 H 184.681 -0.535222 4.12845 0
M  V30 1966 H 185.214 1.134 3.81294 0
M  V30 1967 H 181.953 3.64736 5.44654 0
M  V30 1968 H 181.473 1.94972 5.67227 0
M  V30 1969 H 183.152 2.45429 5.98643 0
M  V30 1970 N 183.284 -1.43765 0.645699 0
M  V30 1971 C 184.194 -2.34544 -0.0512957 0
M  V30 1972 C 185.21 -1.53455 -0.82022 0
M  V30 1973 O 186.386 -1.86133 -0.769176 0
M  V30 1974 C 183.451 -3.31636 -1.01087 0
M  V30 1975 C 182.512 -4.2863 -0.239712 0
M  V30 1976 C 181.745 -5.21084 -1.15358 0
M  V30 1977 O 181.968 -5.1779 -2.39269 0
M  V30 1978 O 180.902 -5.98593 -0.630038 0
M  V30 1979 H 184.728 -2.95624 0.695718 0
M  V30 1980 H 182.313 -1.43781 0.405882 0
M  V30 1981 H 184.195 -3.9136 -1.56254 0
M  V30 1982 H 182.87 -2.73069 -1.73824 0
M  V30 1983 H 181.777 -3.72408 0.355356 0
M  V30 1984 H 183.11 -4.90157 0.447936 0
M  V30 1985 N 184.763 -0.387143 -1.52771 0
M  V30 1986 C 185.71 0.449048 -2.26389 0
M  V30 1987 C 186.68 1.05961 -1.27912 0
M  V30 1988 O 187.865 1.08804 -1.56737 0
M  V30 1989 C 185.005 1.57155 -3.0724 0
M  V30 1990 C 184.118 0.984066 -4.20643 0
M  V30 1991 C 183.253 2.07745 -4.88892 0
M  V30 1992 C 182.292 1.46574 -5.94292 0
M  V30 1993 N 181.429 2.49834 -6.56146 0
M  V30 1994 H 186.269 -0.185205 -2.97424 0
M  V30 1995 H 183.806 -0.103164 -1.46738 0
M  V30 1996 H 185.764 2.23309 -3.52405 0
M  V30 1997 H 184.394 2.17615 -2.38419 0
M  V30 1998 H 183.446 0.212193 -3.79808 0
M  V30 1999 H 184.758 0.497029 -4.96318 0
M  V30 2000 H 183.912 2.81673 -5.3735 0
M  V30 2001 H 182.651 2.59807 -4.12737 0
M  V30 2002 H 181.656 0.711696 -5.45174 0
M  V30 2003 H 182.881 0.953088 -6.72379 0
M  V30 2004 H 180.827 3.0107 -5.82832 0
M  V30 2005 H 180.744 2.05879 -7.27427 0
M  V30 2006 H 182.012 3.23399 -7.09249 0
M  V30 2007 N 186.241 1.57166 -0.116904 0
M  V30 2008 C 187.518 1.86645 0.585049 0
M  V30 2009 C 187.898 1.0177 1.84949 0
M  V30 2010 O 187.246 0.0960379 2.28298 0
M  V30 2011 C 187.456 3.37736 0.879507 0
M  V30 2012 C 188.804 4.06289 1.23348 0
M  V30 2013 O 189.828 3.42743 0.969836 0
M  V30 2014 O 188.687 5.18455 1.7282 0
M  V30 2015 H 185.781 0.772593 0.295007 0
M  V30 2016 H 188.327 1.69025 -0.151249 0
M  V30 2017 H 187.099 3.91296 -0.0166136 0
M  V30 2018 H 186.722 3.6078 1.67103 0
M  V30 2019 N 187.719 -0.156864 1.56817 0
M  V30 2020 C 188.682 -1.17781 1.96622 0
M  V30 2021 C 189.682 -1.36401 0.851555 0
M  V30 2022 O 190.872 -1.33561 1.11836 0
M  V30 2023 C 188.004 -2.54008 2.27361 0
M  V30 2024 H 189.197 -0.836564 2.87996 0
M  V30 2025 H 186.75 -0.39985 1.51099 0
M  V30 2026 H 187.485 -2.9312 1.38748 0
M  V30 2027 H 187.27 -2.41856 3.08623 0
M  V30 2028 H 188.76 -3.27558 2.59029 0
M  V30 2029 N 189.197 -1.51736 -0.425897 0
M  V30 2030 C 190.422 -1.69082 -1.20108 0
M  V30 2031 C 190.847 -0.392398 -1.83962 0
M  V30 2032 O 190.205 0.64858 -1.69302 0
M  V30 2033 C 190.253 -2.81604 -2.25237 0
M  V30 2034 O 189.357 -2.46004 -3.30992 0
M  V30 2035 H 188.698 -0.563408 -0.35138 0
M  V30 2036 H 191.228 -1.98358 -0.501512 0
M  V30 2037 H 191.238 -3.06025 -2.69838 0
M  V30 2038 H 189.913 -3.75817 -1.78142 0
M  V30 2039 H 188.49 -2.32195 -2.91787 0
M  V30 2040 N 190.675 0.682077 -1.42076 0
M  V30 2041 C 191.952 1.43755 -1.32642 0
M  V30 2042 C 192.332 2.11063 0.0396611 0
M  V30 2043 O 191.68 2.02701 1.05474 0
M  V30 2044 C 191.89 2.44596 -2.48946 0
M  V30 2045 C 193.238 3.09454 -2.9073 0
M  V30 2046 O 194.262 2.54922 -2.48783 0
M  V30 2047 O 193.121 4.08253 -3.63307 0
M  V30 2048 H 190.215 0.640857 -0.522715 0
M  V30 2049 H 192.761 0.711415 -1.54068 0
M  V30 2050 H 191.533 1.93609 -3.40046 0
M  V30 2051 H 191.156 3.24701 -2.29467 0
M  V30 2052 N 192.153 1.28127 0.917671 0
M  V30 2053 C 193.399 1.15223 1.66888 0
M  V30 2054 C 193.732 -0.299293 1.9188 0
M  V30 2055 O 193.007 -1.21805 1.51637 0
M  V30 2056 C 193.29 1.94706 3.02922 0
M  V30 2057 C 193.143 3.47898 2.85109 0
M  V30 2058 C 194.462 1.75939 4.03402 0
M  V30 2059 H 191.581 0.419946 0.605652 0
M  V30 2060 H 194.223 1.57398 1.06423 0
M  V30 2061 H 192.373 1.58864 3.54534 0
M  V30 2062 H 194.045 3.93624 2.40537 0
M  V30 2063 H 192.288 3.7373 2.20246 0
M  V30 2064 H 192.959 3.98765 3.81694 0
M  V30 2065 H 195.435 2.07209 3.60837 0
M  V30 2066 H 194.311 2.33931 4.96556 0
M  V30 2067 H 194.572 0.709877 4.36364 0
M  V30 2068 N 193.631 -1.12557 1.10312 0
M  V30 2069 C 194.578 -2.18247 0.750781 0
M  V30 2070 C 195.548 -1.63853 -0.272293 0
M  V30 2071 O 196.733 -1.90195 -0.151862 0
M  V30 2072 C 193.873 -3.44591 0.187379 0
M  V30 2073 C 192.986 -4.13046 1.2656 0
M  V30 2074 C 192.121 -5.27034 0.663978 0
M  V30 2075 C 191.16 -5.87353 1.72287 0
M  V30 2076 N 190.297 -6.92757 1.1416 0
M  V30 2077 H 195.137 -2.47732 1.65628 0
M  V30 2078 H 192.674 -1.21629 0.827337 0
M  V30 2079 H 194.632 -4.16904 -0.157148 0
M  V30 2080 H 193.262 -3.15527 -0.681355 0
M  V30 2081 H 192.314 -3.38924 1.72727 0
M  V30 2082 H 193.626 -4.53947 2.06721 0
M  V30 2083 H 192.78 -6.06104 0.268824 0
M  V30 2084 H 191.519 -4.87407 -0.169082 0
M  V30 2085 H 190.524 -5.06971 2.12746 0
M  V30 2086 H 191.749 -6.29051 2.55875 0
M  V30 2087 H 189.695 -6.5517 0.329984 0
M  V30 2088 H 189.612 -7.3225 1.88007 0
M  V30 2089 H 190.88 -7.75658 0.772956 0
M  V30 2090 N 195.109 -0.891671 -1.2995 0
M  V30 2091 C 196.349 -0.520296 -1.97667 0
M  V30 2092 C 196.713 0.914797 -1.68806 0
M  V30 2093 O 197.914 1.39263 -2.29911 0
M  V30 2094 C 196.185 -0.795222 -3.48441 0
M  V30 2095 S 197.744 -0.526953 -4.35624 0
M  V30 2096 H 194.562 -0.19333 -0.684211 0
M  V30 2097 H 197.164 -1.15238 -1.57926 0
M  V30 2098 H 195.868 -1.83805 -3.66938 0
M  V30 2099 H 195.399 -0.15095 -3.9311 0
M  V30 2100 H 197.414 0.631533 -4.92165 0
M  V30 2101 N 196.587 1.43421 -0.653314 0
M  V30 2102 C 197.55 2.29182 0.0287951 0
M  V30 2103 C 198.55 1.42213 0.750465 0
M  V30 2104 O 199.74 1.63843 0.591701 0
M  V30 2105 C 196.872 3.24278 1.05151 0
M  V30 2106 H 198.065 2.90985 -0.725786 0
M  V30 2107 H 195.618 1.50702 -0.414545 0
M  V30 2108 H 196.353 2.6737 1.83532 0
M  V30 2109 H 196.138 3.88396 0.537687 0
M  V30 2110 H 197.628 3.88647 1.52786 0
M  V30 2111 N 198.065 0.39524 1.52563 0
M  V30 2112 C 199.013 -0.451859 2.28169 0
M  V30 2113 C 200.007 -1.05792 1.32304 0
M  V30 2114 O 201.213 -0.997718 1.49818 0
M  V30 2115 H 197.588 -0.164481 0.733792 0
M  V30 2116 H 199.559 0.207199 2.9768 0
M  V30 2117 C 198.308 -1.56385 3.10546 0
M  V30 2118 H 197.631 -1.10682 3.84174 0
M  V30 2119 H 199.071 -2.13067 3.66577 0
M  V30 2120 C 197.53 -2.52328 2.23231 0
M  V30 2121 O 198.06 -3.5588 1.86312 0
M  V30 2122 N 196.266 -2.22209 1.87274 0
M  V30 2123 H 195.813 -1.38033 2.17496 0
M  V30 2124 H 195.771 -2.86652 1.29143 0
M  V30 2125 N 199.544 -1.57102 0.125237 0
M  V30 2126 C 200.792 -1.95021 -0.530198 0
M  V30 2127 C 201.113 -1.00982 -1.66816 0
M  V30 2128 O 200.383 -0.0672693 -1.95784 0
M  V30 2129 H 198.963 -0.720046 -0.198853 0
M  V30 2130 H 201.625 -1.93916 0.19564 0
M  V30 2131 H 200.721 -2.98211 -0.920681 0
M  V30 2132 N 201.022 0.148545 -1.56898 0
M  V30 2133 C 202.299 0.890019 -1.74178 0
M  V30 2134 C 202.679 1.99407 -0.692839 0
M  V30 2135 O 202.027 2.26671 0.288505 0
M  V30 2136 C 202.237 1.43389 -3.18183 0
M  V30 2137 C 203.585 1.89791 -3.79822 0
M  V30 2138 O 204.609 1.53134 -3.21603 0
M  V30 2139 O 203.468 2.57387 -4.82093 0
M  V30 2140 H 200.562 0.420496 -0.712118 0
M  V30 2141 H 203.108 0.134591 -1.69165 0
M  V30 2142 H 201.88 0.640383 -3.86024 0
M  V30 2143 H 201.503 2.25287 -3.27615 0
M  V30 2144 N 202.5 1.5196 0.417844 0
M  V30 2145 C 203.911 1.57851 0.997 0
M  V30 2146 C 204.262 0.413714 1.91789 0
M  V30 2147 O 203.387 -0.467057 2.113 0
M  V30 2148 C 203.982 2.86085 1.81496 0
M  V30 2149 C 202.541 2.94483 2.34428 0
M  V30 2150 C 201.688 2.52707 1.14169 0
M  V30 2151 H 204.639 1.57455 0.198392 0
M  V30 2152 H 204.66 2.70947 2.67148 0
M  V30 2153 H 204.172 3.70842 1.14446 0
M  V30 2154 H 202.273 2.142 3.04875 0
M  V30 2155 H 202.386 3.98546 2.65891 0
M  V30 2156 H 200.75 2.06353 1.49301 0
M  V30 2157 H 201.533 3.39828 0.486999 0
M  V30 2158 N 203.978 -0.674533 1.42435 0
M  V30 2159 C 205.389 -1.25514 1.38214 0
M  V30 2160 C 205.74 -1.96055 0.0755464 0
M  V30 2161 O 204.865 -2.00028 -0.8257 0
M  V30 2162 C 205.46 -2.28269 2.50357 0
M  V30 2163 C 204.019 -2.81856 2.49467 0
M  V30 2164 C 203.166 -1.56182 2.29134 0
M  V30 2165 H 206.117 -0.467902 1.51646 0
M  V30 2166 H 206.138 -3.10009 2.20624 0
M  V30 2167 H 205.65 -1.769 3.45439 0
M  V30 2168 H 203.751 -3.37346 1.58204 0
M  V30 2169 H 203.864 -3.30854 3.46515 0
M  V30 2170 H 202.228 -1.82761 1.774 0
M  V30 2171 H 203.011 -1.06778 3.26272 0
M  V30 2172 N 205.456 -1.28612 -0.910864 0
M  V30 2173 C 206.705 -1.15311 -1.65488 0
M  V30 2174 C 207.018 0.296999 -1.93332 0
M  V30 2175 O 208.224 0.551168 -2.65847 0
M  V30 2176 C 206.68 -2.01599 -2.98137 0
M  V30 2177 C 206.288 -3.51367 -2.7793 0
M  V30 2178 C 208.032 -1.96993 -3.76024 0
M  V30 2179 C 205.939 -4.29797 -4.06237 0
M  V30 2180 H 204.869 -0.42796 -0.620779 0
M  V30 2181 H 207.52 -1.53166 -1.01057 0
M  V30 2182 H 205.902 -1.56603 -3.63719 0
M  V30 2183 H 207.076 -4.0434 -2.21011 0
M  V30 2184 H 205.391 -3.57529 -2.13452 0
M  V30 2185 H 207.988 -2.52856 -4.71135 0
M  V30 2186 H 208.331 -0.94733 -4.05378 0
M  V30 2187 H 208.864 -2.39973 -3.17266 0
M  V30 2188 H 205.603 -5.32648 -3.82055 0
M  V30 2189 H 205.123 -3.81596 -4.62757 0
M  V30 2190 H 206.802 -4.39869 -4.74473 0
M  V30 2191 N 206.934 1.1197 -1.10907 0
M  V30 2192 C 208.181 1.83588 -0.854507 0
M  V30 2193 C 208.509 1.84357 0.6199 0
M  V30 2194 O 207.764 1.28809 1.47332 0
M  V30 2195 C 208.063 3.30749 -1.35425 0
M  V30 2196 C 207.729 3.50146 -2.84093 0
M  V30 2197 C 206.391 3.55148 -3.2469 0
M  V30 2198 C 208.743 3.56857 -3.79872 0
M  V30 2199 C 206.071 3.6441 -4.59806 0
M  V30 2200 C 208.423 3.6765 -5.14797 0
M  V30 2201 C 207.087 3.7091 -5.54961 0
M  V30 2202 H 206.357 0.671795 -0.312686 0
M  V30 2203 H 209.004 1.32091 -1.38652 0
M  V30 2204 H 207.309 3.84703 -0.742361 0
M  V30 2205 H 209.006 3.8464 -1.1337 0
M  V30 2206 H 205.596 3.46919 -2.51685 0
M  V30 2207 H 209.78 3.52258 -3.49611 0
M  V30 2208 H 205.036 3.65208 -4.9034 0
M  V30 2209 H 209.21 3.71786 -5.88853 0
M  V30 2210 H 206.837 3.7784 -6.59652 0
M  V30 2211 N 208.412 0.89855 1.29475 0
M  V30 2212 C 209.64 0.539261 1.99749 0
M  V30 2213 C 210.055 -0.875716 1.67262 0
M  V30 2214 O 209.412 -1.57786 0.917049 0
M  V30 2215 C 209.463 0.72061 3.54245 0
M  V30 2216 O 209.184 2.07989 3.8558 0
M  V30 2217 C 210.685 0.366118 4.41786 0
M  V30 2218 H 207.905 0.207047 0.638258 0
M  V30 2219 H 210.449 1.20758 1.65039 0
M  V30 2220 H 208.604 0.0994862 3.87272 0
M  V30 2221 H 209.018 2.10841 4.80257 0
M  V30 2222 H 210.492 0.543848 5.49314 0
M  V30 2223 H 210.969 -0.696763 4.33638 0
M  V30 2224 H 211.575 0.964135 4.14228 0
M  V30 2225 N 209.89 -1.43072 0.660911 0
M  V30 2226 C 210.837 -2.30785 -0.0259884 0
M  V30 2227 C 211.807 -1.45184 -0.806888 0
M  V30 2228 O 212.992 -1.74041 -0.781943 0
M  V30 2229 C 210.132 -3.30861 -0.981067 0
M  V30 2230 C 209.245 -4.31558 -0.195458 0
M  V30 2231 C 208.38 -5.18712 -1.14503 0
M  V30 2232 C 207.419 -6.11097 -0.350299 0
M  V30 2233 N 206.556 -6.90849 -1.25186 0
M  V30 2234 H 211.396 -2.88975 0.727846 0
M  V30 2235 H 208.933 -1.42353 0.370682 0
M  V30 2236 H 210.891 -3.87399 -1.54849 0
M  V30 2237 H 209.521 -2.74304 -1.70169 0
M  V30 2238 H 208.573 -3.77252 0.488374 0
M  V30 2239 H 209.885 -4.9701 0.422176 0
M  V30 2240 H 209.039 -5.79914 -1.78284 0
M  V30 2241 H 207.778 -4.53404 -1.79656 0
M  V30 2242 H 206.783 -5.48976 0.300808 0
M  V30 2243 H 208.008 -6.7845 0.296941 0
M  V30 2244 H 205.954 -6.28182 -1.89005 0
M  V30 2245 H 205.871 -7.52854 -0.688971 0
M  V30 2246 H 207.139 -7.5655 -1.87757 0
M  V30 2247 N 211.368 -0.403325 -1.52352 0
M  V30 2248 C 212.779 0.0675782 -1.86578 0
M  V30 2249 C 213.13 1.44941 -1.32236 0
M  V30 2250 O 212.255 2.06112 -0.659307 0
M  V30 2251 C 212.85 0.129404 -3.38553 0
M  V30 2252 C 211.409 0.544629 -3.72439 0
M  V30 2253 C 210.556 -0.284551 -2.75836 0
M  V30 2254 H 213.507 -0.620631 -1.46061 0
M  V30 2255 H 213.528 0.94581 -3.68558 0
M  V30 2256 H 213.04 -0.87645 -3.78074 0
M  V30 2257 H 211.141 1.55734 -3.38493 0
M  V30 2258 H 211.254 0.293046 -4.78203 0
M  V30 2259 H 209.618 0.252258 -2.53448 0
M  V30 2260 H 210.401 -1.28865 -3.18196 0
M  V30 2261 N 212.846 1.57033 -0.133567 0
M  V30 2262 C 214.123 1.87256 0.56522 0
M  V30 2263 C 214.503 1.03726 1.83859 0
M  V30 2264 O 213.851 0.120247 2.28183 0
M  V30 2265 C 214.061 3.3865 0.843636 0
M  V30 2266 C 215.409 4.07574 1.19032 0
M  V30 2267 O 216.433 3.43752 0.933429 0
M  V30 2268 O 215.292 5.20259 1.67312 0
M  V30 2269 H 212.386 0.775678 0.286796 0
M  V30 2270 H 214.932 1.68855 -0.169168 0
M  V30 2271 H 213.704 3.91257 -0.0581149 0
M  V30 2272 H 213.327 3.62532 1.63268 0
M  V30 2273 N 214.325 -0.140222 1.56975 0
M  V30 2274 C 215.272 -1.17292 1.98774 0
M  V30 2275 C 216.242 -1.4232 0.856408 0
M  V30 2276 O 217.427 -1.54541 1.119 0
M  V30 2277 C 214.567 -2.49973 2.37923 0
M  V30 2278 C 213.68 -2.32062 3.64378 0
M  V30 2279 C 212.815 -3.57825 3.926 0
M  V30 2280 C 211.854 -3.3498 5.12303 0
M  V30 2281 N 210.991 -4.52891 5.36502 0
M  V30 2282 H 215.831 -0.809472 2.86795 0
M  V30 2283 H 213.368 -0.388237 1.41884 0
M  V30 2284 H 215.326 -3.27346 2.58652 0
M  V30 2285 H 213.956 -2.84252 1.52972 0
M  V30 2286 H 213.008 -1.45711 3.51387 0
M  V30 2287 H 214.32 -2.11145 4.51906 0
M  V30 2288 H 213.474 -4.43624 4.13863 0
M  V30 2289 H 212.213 -3.81753 3.03506 0
M  V30 2290 H 211.218 -2.4757 4.90906 0
M  V30 2291 H 212.443 -3.12444 6.02956 0
M  V30 2292 H 210.389 -4.76979 4.50363 0
M  V30 2293 H 210.306 -4.35001 6.18312 0
M  V30 2294 H 211.574 -5.39884 5.62268 0
M  V30 2295 N 215.803 -1.52179 -0.40978 0
M  V30 2296 C 217.052 -1.65434 -1.15388 0
M  V30 2297 C 217.365 -0.390056 -1.91671 0
M  V30 2298 O 218.571 -0.402399 -2.68501 0
M  V30 2299 C 217.027 -2.92279 -2.10003 0
M  V30 2300 C 216.635 -4.25813 -1.39239 0
M  V30 2301 C 218.379 -3.14897 -2.84675 0
M  V30 2302 C 216.286 -5.43782 -2.32498 0
M  V30 2303 H 215.216 -0.616267 -0.434432 0
M  V30 2304 H 217.867 -1.78666 -0.418401 0
M  V30 2305 H 216.249 -2.72744 -2.871 0
M  V30 2306 H 217.423 -4.55828 -0.675099 0
M  V30 2307 H 215.738 -4.09292 -0.766097 0
M  V30 2308 H 218.335 -4.0021 -3.54593 0
M  V30 2309 H 218.678 -2.29103 -3.47588 0
M  V30 2310 H 219.211 -3.34901 -2.14677 0
M  V30 2311 H 215.95 -6.3192 -1.74233 0
M  V30 2312 H 215.47 -5.18106 -3.02201 0
M  V30 2313 H 217.149 -5.76834 -2.93038 0
M  V30 2314 N 217.281 0.66697 -1.42791 0
M  V30 2315 C 218.506 1.46004 -1.47301 0
M  V30 2316 C 218.931 1.87894 -0.0880317 0
M  V30 2317 O 218.289 1.56502 0.915253 0
M  V30 2318 C 218.337 2.68031 -2.41229 0
M  V30 2319 O 217.441 3.6659 -1.88906 0
M  V30 2320 H 216.782 0.43832 -0.49877 0
M  V30 2321 H 219.312 0.817391 -1.87563 0
M  V30 2322 H 219.322 3.1601 -2.58073 0
M  V30 2323 H 217.997 2.36883 -3.41847 0
M  V30 2324 H 216.574 3.25661 -1.81656 0
M  V30 2325 N 218.759 1.29093 0.90403 0
M  V30 2326 C 220.007 1.16583 1.65085 0
M  V30 2327 C 220.328 -0.283933 1.92922 0
M  V30 2328 O 219.598 -1.19509 1.55224 0
M  V30 2329 H 218.178 0.428467 0.611903 0
M  V30 2330 H 220.84 1.61959 1.08422 0
M  V30 2331 H 219.936 1.71266 2.6091 0
M  V30 2332 N 220.237 -1.11381 1.11499 0
M  V30 2333 C 221.483 -1.83403 0.865512 0
M  V30 2334 C 221.816 -1.84459 -0.607329 0
M  V30 2335 O 221.091 -1.29811 -1.44842 0
M  V30 2336 C 221.374 -3.30552 1.42855 0
M  V30 2337 C 221.227 -3.37886 2.96906 0
M  V30 2338 C 222.546 -4.26643 1.08 0
M  V30 2339 H 219.665 -0.665879 0.31587 0
M  V30 2340 H 222.307 -1.30601 1.37998 0
M  V30 2341 H 220.457 -3.75648 0.990985 0
M  V30 2342 H 222.129 -3.01343 3.49271 0
M  V30 2343 H 220.372 -2.78088 3.32941 0
M  V30 2344 H 221.043 -4.41458 3.31389 0
M  V30 2345 H 223.519 -3.89729 1.45775 0
M  V30 2346 H 222.395 -5.27986 1.50072 0
M  V30 2347 H 222.656 -4.42099 -0.00915037 0
M  V30 2348 N 221.715 -0.905404 -1.28997 0
M  V30 2349 C 222.964 -0.530191 -1.94607 0
M  V30 2350 C 223.277 0.929185 -1.72121 0
M  V30 2351 O 224.483 1.41218 -2.31883 0
M  V30 2352 C 222.939 -0.897333 -3.48534 0
M  V30 2353 C 222.547 -2.37587 -3.79811 0
M  V30 2354 C 224.291 -0.592304 -4.20347 0
M  V30 2355 C 222.198 -2.68357 -5.27009 0
M  V30 2356 H 221.128 -0.194558 -0.728466 0
M  V30 2357 H 223.779 -1.10318 -1.46636 0
M  V30 2358 H 222.161 -0.253214 -3.9519 0
M  V30 2359 H 223.335 -3.06602 -3.43994 0
M  V30 2360 H 221.65 -2.6505 -3.2115 0
M  V30 2361 H 224.247 -0.798975 -5.28697 0
M  V30 2362 H 224.59 0.469474 -4.13644 0
M  V30 2363 H 225.123 -1.19452 -3.79442 0
M  V30 2364 H 221.862 -3.73355 -5.38782 0
M  V30 2365 H 221.382 -2.03971 -5.64053 0
M  V30 2366 H 223.061 -2.54922 -5.94663 0
M  V30 2367 N 223.193 1.4272 -0.668489 0
M  V30 2368 C 224.441 2.01226 -0.187769 0
M  V30 2369 C 224.762 1.53092 1.2078 0
M  V30 2370 O 224.032 0.74993 1.80977 0
M  V30 2371 H 222.612 0.744041 -0.0664272 0
M  V30 2372 H 225.274 1.74723 -0.863583 0
M  V30 2373 H 224.37 3.11556 -0.184166 0
M  V30 2374 N 224.671 0.411399 1.52136 0
M  V30 2375 C 225.634 -0.401089 2.25663 0
M  V30 2376 C 226.634 -0.971732 1.28117 0
M  V30 2377 O 227.824 -0.850254 1.52041 0
M  V30 2378 C 224.956 -1.56483 3.02863 0
M  V30 2379 H 226.149 0.24295 2.98914 0
M  V30 2380 H 223.702 0.163968 1.55438 0
M  V30 2381 H 224.437 -2.24567 2.33967 0
M  V30 2382 H 224.222 -1.16211 3.74483 0
M  V30 2383 H 225.712 -2.13951 3.58629 0
M  V30 2384 N 226.149 -1.5696 0.141893 0
M  V30 2385 C 227.112 -2.15316 -0.785587 0
M  V30 2386 C 228.112 -1.09366 -1.1788 0
M  V30 2387 O 229.302 -1.35031 -1.10056 0
M  V30 2388 C 226.434 -2.71211 -2.06537 0
M  V30 2389 H 227.627 -2.98608 -0.278041 0
M  V30 2390 H 225.18 -1.5593 -0.107519 0
M  V30 2391 H 225.915 -1.91571 -2.6167 0
M  V30 2392 H 225.7 -3.4872 -1.79268 0
M  V30 2393 H 227.19 -3.16189 -2.72789 0
M  V30 2394 N 227.627 0.131896 -1.57047 0
M  V30 2395 C 228.59 1.14638 -1.98471 0
M  V30 2396 C 229.59 1.35029 -0.873148 0
M  V30 2397 O 230.78 1.31764 -1.13946 0
M  V30 2398 C 227.912 2.50358 -2.31373 0
M  V30 2399 H 229.105 0.79064 -2.8929 0
M  V30 2400 H 226.658 0.375761 -1.51716 0
M  V30 2401 H 227.393 2.90876 -1.43393 0
M  V30 2402 H 227.178 2.36915 -3.12432 0
M  V30 2403 H 228.668 3.23395 -2.64207 0
M  V30 2404 N 229.106 1.52395 0.401703 0
M  V30 2405 C 230.331 1.70972 1.17403 0
M  V30 2406 C 230.756 0.421615 1.83314 0
M  V30 2407 O 230.114 -0.621564 1.70312 0
M  V30 2408 C 230.162 2.85151 2.20728 0
M  V30 2409 O 229.266 2.51238 3.27037 0
M  V30 2410 H 228.607 0.568927 0.342372 0
M  V30 2411 H 231.137 1.99131 0.469891 0
M  V30 2412 H 231.147 3.10279 2.64936 0
M  V30 2413 H 229.822 3.78603 1.7214 0
M  V30 2414 H 228.399 2.36808 2.88057 0
M  V30 2415 N 230.584 -0.659388 1.43143 0
M  V30 2416 C 231.809 -1.45221 1.48073 0
M  V30 2417 C 232.234 -1.87845 0.097995 0
M  V30 2418 O 231.592 -1.56985 -0.90694 0
M  V30 2419 C 231.64 -2.66748 2.42647 0
M  V30 2420 O 230.744 -3.65583 1.90848 0
M  V30 2421 H 230.085 -0.435669 0.501088 0
M  V30 2422 H 232.615 -0.807432 1.87994 0
M  V30 2423 H 232.625 -3.14637 2.59745 0
M  V30 2424 H 231.3 -2.35067 3.43098 0
M  V30 2425 H 229.877 -3.24693 1.83381 0
M  V30 2426 N 232.062 -1.29571 -0.897171 0
M  V30 2427 C 233.308 -1.17863 -1.65034 0
M  V30 2428 C 233.641 0.268729 -1.92332 0
M  V30 2429 O 232.916 1.19378 -1.53555 0
M  V30 2430 C 233.199 -1.995 -2.99786 0
M  V30 2431 C 233.052 -3.5239 -2.79538 0
M  V30 2432 C 234.371 -1.82335 -4.00552 0
M  V30 2433 H 231.49 -0.429528 -0.598895 0
M  V30 2434 H 234.132 -1.59072 -1.03905 0
M  V30 2435 H 232.282 -1.64485 -3.51962 0
M  V30 2436 H 233.954 -3.97401 -2.34244 0
M  V30 2437 H 232.197 -3.77187 -2.14273 0
M  V30 2438 H 232.868 -4.04787 -3.75302 0
M  V30 2439 H 235.344 -2.12924 -3.57495 0
M  V30 2440 H 234.22 -2.41801 -4.92771 0
M  V30 2441 H 234.481 -0.779209 -4.35179 0
M  V30 2442 N 233.54 1.10788 -1.12088 0
M  V30 2443 C 234.765 1.87002 -0.896949 0
M  V30 2444 C 235.19 1.79933 0.548261 0
M  V30 2445 O 234.548 1.16662 1.38779 0
M  V30 2446 C 234.596 3.3349 -1.37174 0
M  V30 2447 O 233.7 4.08745 -0.547831 0
M  V30 2448 H 233.041 0.580397 -0.322545 0
M  V30 2449 H 235.571 1.39996 -1.49206 0
M  V30 2450 H 235.581 3.84339 -1.36922 0
M  V30 2451 H 234.256 3.37951 -2.42408 0
M  V30 2452 H 232.833 3.6776 -0.617034 0
M  V30 2453 N 235.018 0.912232 1.28515 0
M  V30 2454 C 236.267 0.540504 1.94323 0
M  V30 2455 C 236.58 -0.920044 1.72611 0
M  V30 2456 O 237.786 -1.39986 2.32629 0
M  V30 2457 C 236.242 0.915803 3.48053 0
M  V30 2458 C 235.85 2.39598 3.78546 0
M  V30 2459 C 237.594 0.614588 4.20027 0
M  V30 2460 C 235.501 2.71148 5.25578 0
M  V30 2461 H 234.431 0.198418 0.727424 0
M  V30 2462 H 237.082 1.11094 1.46049 0
M  V30 2463 H 235.464 0.274168 3.9505 0
M  V30 2464 H 236.638 3.08422 3.42364 0
M  V30 2465 H 234.953 2.66749 3.1974 0
M  V30 2466 H 237.55 0.827002 5.28266 0
M  V30 2467 H 237.893 -0.447531 4.13887 0
M  V30 2468 H 238.426 1.21462 3.78803 0
M  V30 2469 H 235.165 3.76207 5.36794 0
M  V30 2470 H 234.685 2.0696 5.62963 0
M  V30 2471 H 236.364 2.58072 5.93302 0
M  V30 2472 N 236.496 -1.42363 0.676048 0
M  V30 2473 C 237.429 -2.28141 -0.0516916 0
M  V30 2474 C 238.407 -1.41135 -0.807439 0
M  V30 2475 O 239.591 -1.70573 -0.802305 0
M  V30 2476 C 236.718 -3.21007 -1.08039 0
M  V30 2477 C 235.764 -4.24426 -0.420076 0
M  V30 2478 S 236.597 -5.29134 0.823246 0
M  V30 2479 C 237.753 -6.25566 -0.204344 0
M  V30 2480 H 237.986 -2.89515 0.675884 0
M  V30 2481 H 235.519 -1.47211 0.465635 0
M  V30 2482 H 237.477 -3.75048 -1.66881 0
M  V30 2483 H 236.138 -2.58766 -1.78042 0
M  V30 2484 H 235.331 -4.89596 -1.19633 0
M  V30 2485 H 234.933 -3.7388 0.0947845 0
M  V30 2486 H 237.225 -6.69098 -1.06369 0
M  V30 2487 H 238.168 -7.06895 0.412915 0
M  V30 2488 H 238.576 -5.61811 -0.55038 0
M  V30 2489 N 237.974 -0.419461 -1.51915 0
M  V30 2490 C 239.22 0.153166 -2.02221 0
M  V30 2491 C 239.553 1.43907 -1.30401 0
M  V30 2492 O 238.828 1.90055 -0.413438 0
M  V30 2493 C 239.111 0.390291 -3.57979 0
M  V30 2494 C 238.964 -0.913014 -4.40436 0
M  V30 2495 C 240.283 1.16794 -4.2432 0
M  V30 2496 H 237.402 0.0541924 -0.735005 0
M  V30 2497 H 240.044 -0.554955 -1.81715 0
M  V30 2498 H 238.194 0.993491 -3.75582 0
M  V30 2499 H 239.866 -1.54882 -4.34522 0
M  V30 2500 H 238.109 -1.52168 -4.06236 0
M  V30 2501 H 238.78 -0.701361 -5.47526 0
M  V30 2502 H 241.256 0.657161 -4.10878 0
M  V30 2503 H 240.132 1.3026 -5.3322 0
M  V30 2504 H 240.393 2.19132 -3.83971 0
M  V30 2505 N 239.452 1.56882 -0.150215 0
M  V30 2506 C 240.415 2.1573 0.774157 0
M  V30 2507 C 241.415 1.0999 1.17298 0
M  V30 2508 O 242.605 1.35613 1.09338 0
M  V30 2509 C 239.737 2.72302 2.05096 0
M  V30 2510 H 240.93 2.98752 0.262201 0
M  V30 2511 H 238.483 1.55985 0.099248 0
M  V30 2512 H 239.218 1.92956 2.6065 0
M  V30 2513 H 239.003 3.49665 1.77416 0
M  V30 2514 H 240.493 3.17632 2.71109 0
M  V30 2515 N 240.93 -0.123565 1.57115 0
M  V30 2516 C 241.878 -1.17082 2.00984 0
M  V30 2517 C 242.872 -1.43136 0.906009 0
M  V30 2518 O 244.078 -1.43152 1.09121 0
M  V30 2519 H 240.453 -0.394653 0.64012 0
M  V30 2520 H 242.424 -0.774292 2.88179 0
M  V30 2521 C 241.173 -2.49057 2.42623 0
M  V30 2522 H 240.496 -2.29846 3.27125 0
M  V30 2523 H 241.936 -3.20906 2.7712 0
M  V30 2524 C 240.395 -3.11305 1.28805 0
M  V30 2525 O 240.925 -3.97171 0.60153 0
M  V30 2526 N 239.131 -2.71111 1.04628 0
M  V30 2527 H 238.678 -2.01382 1.60634 0
M  V30 2528 H 238.636 -3.1309 0.286685 0
M  V30 2529 N 242.408 -1.52605 -0.393616 0
M  V30 2530 C 243.657 -1.66649 -1.13627 0
M  V30 2531 C 243.97 -0.410364 -1.91247 0
M  V30 2532 O 245.176 -0.430854 -2.68059 0
M  V30 2533 C 243.632 -2.9449 -2.06891 0
M  V30 2534 C 243.24 -4.27266 -1.34714 0
M  V30 2535 C 244.984 -3.17899 -2.81319 0
M  V30 2536 C 242.891 -5.46217 -2.26717 0
M  V30 2537 H 241.821 -0.62084 -0.427871 0
M  V30 2538 H 244.472 -1.791 -0.399428 0
M  V30 2539 H 242.854 -2.75774 -2.84191 0
M  V30 2540 H 244.028 -4.56518 -0.626714 0
M  V30 2541 H 242.343 -4.10081 -0.722643 0
M  V30 2542 H 244.94 -4.03949 -3.50328 0
M  V30 2543 H 245.283 -2.32777 -3.45139 0
M  V30 2544 H 245.816 -3.37159 -2.11113 0
M  V30 2545 H 242.555 -6.33733 -1.67521 0
M  V30 2546 H 242.075 -5.21283 -2.96689 0
M  V30 2547 H 243.754 -5.7991 -2.86903 0
M  V30 2548 N 243.887 0.651787 -1.4349 0
M  V30 2549 C 244.817 1.77621 -1.51569 0
M  V30 2550 C 245.798 1.66022 -0.370253 0
M  V30 2551 O 246.983 1.85095 -0.587658 0
M  V30 2552 C 244.113 3.16056 -1.43966 0
M  V30 2553 C 243.067 3.4242 -2.56774 0
M  V30 2554 C 242.393 4.8067 -2.34223 0
M  V30 2555 C 243.693 3.37023 -3.99015 0
M  V30 2556 H 245.387 1.71117 -2.45681 0
M  V30 2557 H 242.933 0.821825 -1.18246 0
M  V30 2558 H 244.886 3.94472 -1.48221 0
M  V30 2559 H 243.61 3.23293 -0.463586 0
M  V30 2560 H 242.269 2.66375 -2.51873 0
M  V30 2561 H 241.917 4.84585 -1.34856 0
M  V30 2562 H 241.617 4.9927 -3.09844 0
M  V30 2563 H 243.141 5.61342 -2.40265 0
M  V30 2564 H 244.555 4.05374 -4.05395 0
M  V30 2565 H 242.952 3.67159 -4.74673 0
M  V30 2566 H 244.022 2.3518 -4.2405 0
M  V30 2567 N 245.365 1.30045 0.890287 0
M  V30 2568 C 246.781 1.08261 1.17268 0
M  V30 2569 C 246.981 -0.160063 2.00863 0
M  V30 2570 O 246.037 -0.855181 2.37577 0
M  V30 2571 C 247.35 2.34323 1.8845 0
M  V30 2572 C 248.898 2.39735 2.01237 0
M  V30 2573 C 249.373 3.65625 2.7583 0
M  V30 2574 N 250.864 3.66402 2.83379 0
M  V30 2575 C 251.599 4.60498 3.41657 0
M  V30 2576 N 251.095 5.64933 4.01026 0
M  V30 2577 N 252.888 4.48051 3.39421 0
M  V30 2578 H 245.039 2.09777 0.332762 0
M  V30 2579 H 247.302 0.92446 0.209948 0
M  V30 2580 H 247.008 3.2498 1.34465 0
M  V30 2581 H 246.882 2.4256 2.88867 0
M  V30 2582 H 249.269 1.4956 2.54393 0
M  V30 2583 H 249.35 2.35476 0.999232 0
M  V30 2584 H 248.994 4.56156 2.23347 0
M  V30 2585 H 248.924 3.67144 3.77509 0
M  V30 2586 H 251.415 2.90896 2.41222 0
M  V30 2587 H 251.728 6.32841 4.43545 0
M  V30 2588 H 250.073 5.68732 3.99461 0
M  V30 2589 H 253.264 3.65649 2.92264 0
M  V30 2590 H 253.437 5.21565 3.84544 0
M  V30 2591 N 246.843 -1.10192 1.12674 0
M  V30 2592 C 247.773 -2.18652 0.819362 0
M  V30 2593 C 248.754 -1.68698 -0.217915 0
M  V30 2594 O 249.939 -1.94041 -0.0785581 0
M  V30 2595 C 247.069 -3.46202 0.27594 0
M  V30 2596 C 246.023 -4.09444 1.24656 0
M  V30 2597 C 245.349 -5.31725 0.563258 0
M  V30 2598 C 246.649 -4.52863 2.60217 0
M  V30 2599 H 248.343 -2.44622 1.72628 0
M  V30 2600 H 245.889 -1.17571 0.831451 0
M  V30 2601 H 247.842 -4.21372 0.0486149 0
M  V30 2602 H 246.566 -3.1973 -0.666331 0
M  V30 2603 H 245.225 -3.36284 1.45974 0
M  V30 2604 H 244.873 -5.0153 -0.384235 0
M  V30 2605 H 244.573 -5.74991 1.21075 0
M  V30 2606 H 246.097 -6.09624 0.34503 0
M  V30 2607 H 247.511 -5.19294 2.42913 0
M  V30 2608 H 245.908 -5.06986 3.21068 0
M  V30 2609 H 246.978 -3.65656 3.18471 0
M  V30 2610 N 248.321 -0.919034 -1.28029 0
M  V30 2611 C 249.568 -0.554934 -1.94748 0
M  V30 2612 C 249.896 0.90231 -1.72304 0
M  V30 2613 O 249.151 1.65767 -1.04018 0
M  V30 2614 C 249.45 -0.816855 -3.4794 0
M  V30 2615 C 249.116 -2.25448 -3.90492 0
M  V30 2616 C 247.778 -2.64752 -4.01821 0
M  V30 2617 C 250.13 -3.18977 -4.12193 0
M  V30 2618 C 247.458 -3.96727 -4.32232 0
M  V30 2619 C 249.81 -4.50523 -4.44086 0
M  V30 2620 C 248.474 -4.89673 -4.53626 0
M  V30 2621 H 247.744 -0.203065 -0.712633 0
M  V30 2622 H 250.391 -1.16136 -1.52265 0
M  V30 2623 H 248.696 -0.127677 -3.91592 0
M  V30 2624 H 250.393 -0.514238 -3.97689 0
M  V30 2625 H 246.983 -1.93952 -3.82205 0
M  V30 2626 H 251.167 -2.89817 -4.02889 0
M  V30 2627 H 246.423 -4.26754 -4.37825 0
M  V30 2628 H 250.597 -5.23005 -4.59825 0
M  V30 2629 H 248.224 -5.91969 -4.76946 0
M  V30 2630 N 249.799 1.42003 -0.683588 0
M  V30 2631 C 250.746 2.30798 -0.0107309 0
M  V30 2632 C 251.716 1.4645 0.783688 0
M  V30 2633 O 252.901 1.75263 0.754156 0
M  V30 2634 C 250.041 3.3238 0.928306 0
M  V30 2635 C 249.154 4.31814 0.126776 0
M  V30 2636 C 248.289 5.20468 1.06236 0
M  V30 2637 C 247.328 6.11577 0.253035 0
M  V30 2638 N 246.465 6.92754 1.14179 0
M  V30 2639 H 251.305 2.8778 -0.773727 0
M  V30 2640 H 248.842 1.41745 -0.393283 0
M  V30 2641 H 250.8 3.89813 1.48666 0
M  V30 2642 H 249.43 2.76976 1.65783 0
M  V30 2643 H 248.482 3.76427 -0.54833 0
M  V30 2644 H 249.794 4.96276 -0.501192 0
M  V30 2645 H 248.948 5.82677 1.69035 0
M  V30 2646 H 247.687 4.56204 1.7242 0
M  V30 2647 H 246.692 5.48428 -0.388108 0
M  V30 2648 H 247.917 6.77892 -0.404839 0
M  V30 2649 H 245.863 6.3111 1.78987 0
M  V30 2650 H 245.78 7.53855 0.569111 0
M  V30 2651 H 247.048 7.59441 1.75697 0
M  V30 2652 N 251.277 0.427512 1.51691 0
M  V30 2653 C 252.526 -0.143679 2.01188 0
M  V30 2654 C 252.839 -1.44642 1.31674 0
M  V30 2655 O 254.045 -2.09997 1.72086 0
M  V30 2656 C 252.501 -0.306602 3.58592 0
M  V30 2657 C 252.109 0.985125 4.37035 0
M  V30 2658 C 253.853 -0.832091 4.16265 0
M  V30 2659 C 251.76 0.788382 5.86122 0
M  V30 2660 H 250.69 -0.0574701 0.751807 0
M  V30 2661 H 253.341 0.555772 1.74881 0
M  V30 2662 H 251.723 -1.06882 3.81303 0
M  V30 2663 H 252.897 1.75492 4.26074 0
M  V30 2664 H 251.212 1.4384 3.90767 0
M  V30 2665 H 253.809 -0.995617 5.25349 0
M  V30 2666 H 254.152 -1.81186 3.74803 0
M  V30 2667 H 254.685 -0.128444 3.97593 0
M  V30 2668 H 251.424 1.74025 6.31978 0
M  V30 2669 H 250.944 0.0582143 5.99772 0
M  V30 2670 H 252.623 0.437722 6.45518 0
M  V30 2671 N 252.755 -1.56801 0.158532 0
M  V30 2672 C 254.166 -1.83189 -0.360366 0
M  V30 2673 C 254.517 -1.07778 -1.63946 0
M  V30 2674 O 253.642 -0.326718 -2.13919 0
M  V30 2675 C 254.237 -3.32297 -0.660595 0
M  V30 2676 C 252.796 -3.59227 -1.12398 0
M  V30 2677 C 251.943 -2.76877 -0.153097 0
M  V30 2678 H 254.894 -1.54008 0.383031 0
M  V30 2679 H 254.915 -3.4908 -1.51405 0
M  V30 2680 H 254.427 -3.87156 0.270527 0
M  V30 2681 H 252.528 -3.09766 -2.07064 0
M  V30 2682 H 252.641 -4.67632 -1.04197 0
M  V30 2683 H 251.005 -2.46319 -0.647983 0
M  V30 2684 H 251.788 -3.34511 0.77182 0
M  V30 2685 N 254.233 0.115231 -1.57178 0
M  V30 2686 C 255.165 1.16694 -1.97269 0
M  V30 2687 C 256.178 1.37445 -0.872502 0
M  V30 2688 O 257.367 1.36454 -1.15077 0
M  V30 2689 C 254.467 2.52627 -2.25905 0
M  V30 2690 C 253.64 2.52427 -3.57211 0
M  V30 2691 C 252.699 3.70134 -3.74016 0
M  V30 2692 O 251.725 3.53546 -4.46087 0
M  V30 2693 N 252.927 4.88844 -3.13068 0
M  V30 2694 H 255.692 0.82588 -2.88096 0
M  V30 2695 H 253.253 0.304461 -1.59011 0
M  V30 2696 H 255.245 3.29937 -2.34359 0
M  V30 2697 H 253.815 2.789 -1.41186 0
M  V30 2698 H 253.035 1.60805 -3.5991 0
M  V30 2699 H 254.323 2.49353 -4.43509 0
M  V30 2700 H 253.721 5.05225 -2.54489 0
M  V30 2701 H 252.278 5.63817 -3.27037 0
M  V30 2702 N 255.711 1.52812 0.385517 0
M  V30 2703 C 256.96 1.67249 1.12741 0
M  V30 2704 C 257.273 0.4205 1.91027 0
M  V30 2705 O 258.479 0.445064 2.67827 0
M  V30 2706 C 256.935 2.95583 2.05326 0
M  V30 2707 C 256.543 4.27974 1.32447 0
M  V30 2708 C 258.287 3.19386 2.7963 0
M  V30 2709 C 256.194 5.47412 2.23818 0
M  V30 2710 H 255.124 0.6231 0.424573 0
M  V30 2711 H 257.775 1.79309 0.389924 0
M  V30 2712 H 256.157 2.77277 2.82725 0
M  V30 2713 H 257.331 4.56844 0.602495 0
M  V30 2714 H 255.646 4.10459 0.700885 0
M  V30 2715 H 258.243 4.05801 3.48181 0
M  V30 2716 H 258.586 2.34604 3.43899 0
M  V30 2717 H 259.119 3.38274 2.09322 0
M  V30 2718 H 255.858 6.34612 1.64157 0
M  V30 2719 H 255.378 5.22849 2.93921 0
M  V30 2720 H 257.057 5.81423 2.83824 0
M  V30 2721 N 257.189 -0.644168 1.43834 0
M  V30 2722 C 258.414 -1.43642 1.49605 0
M  V30 2723 C 258.839 -1.8773 0.117913 0
M  V30 2724 O 258.197 -1.57938 -0.890239 0
M  V30 2725 C 258.245 -2.6416 2.45463 0
M  V30 2726 O 257.349 -3.63538 1.94714 0
M  V30 2727 H 256.69 -0.430329 0.50568 0
M  V30 2728 H 259.22 -0.787448 1.8884 0
M  V30 2729 H 259.23 -3.11864 2.63068 0
M  V30 2730 H 257.905 -2.31414 3.45572 0
M  V30 2731 H 256.482 -3.2273 1.86814 0
M  V30 2732 N 258.668 -1.30515 -0.883378 0
M  V30 2733 C 259.898 -1.22182 -1.66599 0
M  V30 2734 C 260.306 0.217507 -1.87946 0
M  V30 2735 O 259.649 1.1554 -1.42815 0
M  V30 2736 C 259.711 -1.88146 -3.06335 0
M  V30 2737 C 259.375 -3.37476 -3.08154 0
M  V30 2738 C 260.372 -4.33443 -2.87094 0
M  V30 2739 C 258.057 -3.7895 -3.29701 0
M  V30 2740 C 260.051 -5.68858 -2.8754 0
M  V30 2741 C 257.738 -5.14482 -3.29776 0
M  V30 2742 C 258.736 -6.09246 -3.0872 0
M  V30 2743 O 258.424 -7.42302 -3.08615 0
M  V30 2744 H 258.156 -0.423898 -0.52658 0
M  V30 2745 H 260.71 -1.72703 -1.11188 0
M  V30 2746 H 258.94 -1.32157 -3.63416 0
M  V30 2747 H 260.629 -1.7391 -3.66756 0
M  V30 2748 H 261.395 -4.02733 -2.70243 0
M  V30 2749 H 257.274 -3.05631 -3.45124 0
M  V30 2750 H 260.818 -6.428 -2.71024 0
M  V30 2751 H 256.715 -5.44832 -3.46163 0
M  V30 2752 H 257.483 -7.5131 -3.24769 0
M  V30 2753 N 260.146 1.09593 -1.13257 0
M  V30 2754 C 261.109 2.14359 -0.811358 0
M  V30 2755 C 262.109 1.59808 0.178377 0
M  V30 2756 O 263.299 1.74132 -0.0484911 0
M  V30 2757 C 260.431 3.40269 -0.207276 0
M  V30 2758 H 261.624 2.44284 -1.73969 0
M  V30 2759 H 259.177 1.25102 -0.936973 0
M  V30 2760 H 259.912 3.15969 0.73036 0
M  V30 2761 H 259.697 3.81154 -0.919992 0
M  V30 2762 H 261.187 4.176 0.000667944 0
M  V30 2763 N 261.624 0.925811 1.2754 0
M  V30 2764 C 262.849 0.580924 1.99098 0
M  V30 2765 C 263.274 -0.833555 1.68622 0
M  V30 2766 O 262.632 -1.55903 0.925422 0
M  V30 2767 C 262.68 0.811186 3.51358 0
M  V30 2768 O 261.784 -0.124129 4.12213 0
M  V30 2769 H 261.125 0.223873 0.625122 0
M  V30 2770 H 263.655 1.24455 1.62395 0
M  V30 2771 H 263.665 0.72601 4.01489 0
M  V30 2772 H 262.34 1.84227 3.72872 0
M  V30 2773 H 260.917 0.0108006 3.72898 0
M  V30 2774 N 263.102 -1.41638 0.69111 0
M  V30 2775 C 264.33 -2.05628 0.22909 0
M  V30 2776 C 264.745 -1.51992 -1.11999 0
M  V30 2777 O 264.102 -0.666322 -1.69901 0
M  V30 2778 C 264.153 -3.61084 0.173283 0
M  V30 2779 O 263.874 -4.12735 1.46907 0
M  V30 2780 C 265.375 -4.42213 -0.310266 0
M  V30 2781 H 262.595 -0.662327 0.107534 0
M  V30 2782 H 265.139 -1.81489 0.942438 0
M  V30 2783 H 263.294 -3.84278 -0.490858 0
M  V30 2784 H 263.708 -5.06743 1.35322 0
M  V30 2785 H 265.182 -5.51194 -0.298196 0
M  V30 2786 H 265.659 -4.1799 -1.34838 0
M  V30 2787 H 266.265 -4.24074 0.322716 0
M  V30 2788 N 264.58 -0.43555 -1.51462 0
M  V30 2789 C 265.543 0.365137 -2.26273 0
M  V30 2790 C 266.543 0.951227 -1.29647 0
M  V30 2791 O 267.733 0.825958 -1.53374 0
M  V30 2792 C 264.865 1.51645 -3.05314 0
M  V30 2793 H 266.058 -0.290474 -2.9849 0
M  V30 2794 H 263.611 -0.188676 -1.55157 0
M  V30 2795 H 264.346 2.20816 -2.3751 0
M  V30 2796 H 264.131 1.10238 -3.76284 0
M  V30 2797 H 265.621 2.08218 -3.61987 0
M  V30 2798 N 266.058 1.56714 -0.166846 0
M  V30 2799 C 267.469 1.83378 0.350646 0
M  V30 2800 C 267.82 1.08646 1.63372 0
M  V30 2801 O 266.945 0.338058 2.13743 0
M  V30 2802 C 267.54 3.32643 0.642963 0
M  V30 2803 C 266.099 3.59818 1.10491 0
M  V30 2804 C 265.246 2.76954 0.138411 0
M  V30 2805 H 268.197 1.53803 -0.391193 0
M  V30 2806 H 268.218 3.49878 1.49551 0
M  V30 2807 H 267.73 3.87007 -0.291055 0
M  V30 2808 H 265.831 3.1086 2.05418 0
M  V30 2809 H 265.944 4.68178 1.01716 0
M  V30 2810 H 264.308 2.4666 0.634911 0
M  V30 2811 H 265.091 3.34097 -0.789549 0
M  V30 2812 N 267.536 -0.106894 1.57237 0
M  V30 2813 C 268.446 -1.14911 2.0453 0
M  V30 2814 C 269.462 -1.44592 0.96795 0
M  V30 2815 O 270.638 -1.55468 1.2803 0
M  V30 2816 C 267.703 -2.45272 2.45036 0
M  V30 2817 C 266.764 -2.22879 3.66911 0
M  V30 2818 C 265.997 -3.47024 4.05475 0
M  V30 2819 O 266.22 -4.54804 3.44252 0
M  V30 2820 O 265.154 -3.3731 4.98504 0
M  V30 2821 H 268.98 -0.777461 2.9358 0
M  V30 2822 H 266.565 -0.318563 1.45964 0
M  V30 2823 H 268.447 -3.22055 2.71769 0
M  V30 2824 H 267.122 -2.81886 1.59129 0
M  V30 2825 H 266.029 -1.43915 3.45311 0
M  V30 2826 H 267.362 -1.91163 4.53561 0
M  V30 2827 N 269.014 -1.53014 -0.377408 0
M  V30 2828 C 269.944 -1.81589 -1.46791 0
M  V30 2829 C 270.925 -0.668622 -1.56408 0
M  V30 2830 O 272.11 -0.917337 -1.71168 0
M  V30 2831 C 269.24 -1.99519 -2.8427 0
M  V30 2832 C 268.194 -3.15249 -2.89486 0
M  V30 2833 C 267.52 -3.18451 -4.29527 0
M  V30 2834 C 268.82 -4.54084 -2.58079 0
M  V30 2835 H 270.514 -2.7291 -1.23127 0
M  V30 2836 H 268.06 -1.31319 -0.590883 0
M  V30 2837 H 270.013 -2.18092 -3.60575 0
M  V30 2838 H 268.737 -1.04897 -3.09296 0
M  V30 2839 H 267.396 -2.96477 -2.15631 0
M  V30 2840 H 267.044 -2.2149 -4.5161 0
M  V30 2841 H 266.744 -3.962 -4.33934 0
M  V30 2842 H 268.268 -3.39193 -5.07721 0
M  V30 2843 H 269.682 -4.72899 -3.24098 0
M  V30 2844 H 268.079 -5.33987 -2.7382 0
M  V30 2845 H 269.149 -4.60006 -1.53372 0
M  V30 2846 N 270.492 0.636531 -1.44174 0
M  V30 2847 C 271.717 1.42847 -1.50364 0
M  V30 2848 C 272.142 1.87665 -0.127867 0
M  V30 2849 O 271.5 1.58408 0.88185 0
M  V30 2850 C 271.548 2.62854 -2.4686 0
M  V30 2851 O 270.652 3.62501 -1.9664 0
M  V30 2852 H 269.993 0.427642 -0.507955 0
M  V30 2853 H 272.523 0.777422 -1.89255 0
M  V30 2854 H 272.533 3.10465 -2.64718 0
M  V30 2855 H 271.208 2.29578 -3.46795 0
M  V30 2856 H 269.785 3.21735 -1.88523 0
M  V30 2857 N 271.97 1.30982 0.876444 0
M  V30 2858 C 273.247 1.10942 1.61094 0
M  V30 2859 C 273.627 -0.338223 2.08373 0
M  V30 2860 O 272.975 -1.33122 1.85717 0
M  V30 2861 C 273.185 2.11789 2.77392 0
M  V30 2862 C 274.533 2.43965 3.47514 0
M  V30 2863 O 275.557 2.10166 2.87591 0
M  V30 2864 O 274.416 3.01817 4.55597 0
M  V30 2865 H 271.51 0.42667 0.708436 0
M  V30 2866 H 274.056 1.42438 0.922474 0
M  V30 2867 H 272.828 3.09194 2.39823 0
M  V30 2868 H 272.451 1.81161 3.5393 0
M  V30 2869 N 273.449 -1.08991 1.13837 0
M  V30 2870 C 274.397 -2.17841 0.815347 0
M  V30 2871 C 275.391 -1.68164 -0.204233 0
M  V30 2872 O 276.597 -1.79897 -0.0609304 0
M  V30 2873 H 272.972 -0.710654 0.245915 0
M  V30 2874 H 274.943 -2.42315 1.74143 0
M  V30 2875 C 273.692 -3.46381 0.302614 0
M  V30 2876 H 273.015 -3.84979 1.0785 0
M  V30 2877 H 274.455 -4.23844 0.115074 0
M  V30 2878 C 272.914 -3.22556 -0.972591 0
M  V30 2879 O 273.444 -3.45599 -2.04754 0
M  V30 2880 N 271.65 -2.76134 -0.905455 0
M  V30 2881 H 271.197 -2.57582 -0.0305421 0
M  V30 2882 H 271.155 -2.60571 -1.75926 0
M  V30 2883 N 274.927 -0.932562 -1.27047 0
M  V30 2884 C 276.155 -0.592031 -1.98249 0
M  V30 2885 C 276.57 0.831062 -1.69525 0
M  V30 2886 O 275.927 1.55299 -0.958561 0
M  V30 2887 C 275.978 -0.814279 -3.5221 0
M  V30 2888 O 275.699 -2.18139 -3.7993 0
M  V30 2889 C 277.2 -0.483121 -4.4066 0
M  V30 2890 H 274.42 -0.223896 -0.632544 0
M  V30 2891 H 276.964 -1.25091 -1.61779 0
M  V30 2892 H 275.119 -0.20213 -3.86872 0
M  V30 2893 H 275.533 -2.235 -4.74498 0
M  V30 2894 H 277.007 -0.689298 -5.47679 0
M  V30 2895 H 277.484 0.581546 -4.35333 0
M  V30 2896 H 278.09 -1.07362 -4.11526 0
M  V30 2897 N 276.405 1.4127 -0.698611 0
M  V30 2898 C 277.821 1.55241 -0.370462 0
M  V30 2899 C 278.021 1.67351 1.12231 0
M  V30 2900 O 277.077 1.65363 1.90818 0
M  V30 2901 C 278.39 2.78997 -1.12165 0
M  V30 2902 C 279.938 2.92797 -1.1063 0
M  V30 2903 C 280.413 4.19445 -1.8393 0
M  V30 2904 N 281.904 4.26409 -1.80914 0
M  V30 2905 C 282.639 5.23271 -2.34467 0
M  V30 2906 N 282.135 6.26145 -2.96504 0
M  V30 2907 N 283.928 5.15232 -2.24706 0
M  V30 2908 H 276.079 1.31654 -1.66676 0
M  V30 2909 H 278.342 0.635393 -0.703548 0
M  V30 2910 H 278.048 2.76268 -2.17644 0
M  V30 2911 H 277.922 3.70606 -0.702209 0
M  V30 2912 H 280.309 2.95039 -0.0597713 0
M  V30 2913 H 280.39 2.02353 -1.56483 0
M  V30 2914 H 280.034 4.17964 -2.88563 0
M  V30 2915 H 279.964 5.08866 -1.35509 0
M  V30 2916 H 282.455 3.527 -1.35687 0
M  V30 2917 H 282.768 6.96451 -3.34927 0
M  V30 2918 H 281.113 6.26638 -3.00583 0
M  V30 2919 H 284.304 4.33789 -1.7591 0
M  V30 2920 H 284.477 5.90552 -2.66745 0
M  V30 2921 N 277.883 0.443576 1.51229 0
M  V30 2922 C 279.113 -0.119117 2.06256 0
M  V30 2923 C 279.521 -1.36471 1.31043 0
M  V30 2924 O 278.864 -1.80034 0.365151 0
M  V30 2925 C 278.926 -0.500546 3.55998 0
M  V30 2926 C 278.59 0.639125 4.52509 0
M  V30 2927 C 279.587 1.51311 4.97394 0
M  V30 2928 C 277.272 0.821632 4.95535 0
M  V30 2929 C 279.266 2.55425 5.83984 0
M  V30 2930 C 276.953 1.86603 5.81913 0
M  V30 2931 C 277.951 2.73072 6.26036 0
M  V30 2932 O 277.639 3.75718 7.10698 0
M  V30 2933 H 277.371 -0.00857665 0.675946 0
M  V30 2934 H 279.925 0.623288 1.95715 0
M  V30 2935 H 278.155 -1.29575 3.64345 0
M  V30 2936 H 279.844 -0.995116 3.93513 0
M  V30 2937 H 280.61 1.38367 4.64844 0
M  V30 2938 H 276.489 0.158149 4.60729 0
M  V30 2939 H 280.033 3.22949 6.18344 0
M  V30 2940 H 275.93 1.99564 6.13876 0
M  V30 2941 H 276.698 3.72374 7.2889 0
M  V30 2942 N 279.361 -1.56624 0.175154 0
M  V30 2943 C 280.638 -1.88688 -0.515373 0
M  V30 2944 C 281.018 -1.08564 -1.81044 0
M  V30 2945 O 280.366 -0.180703 -2.27784 0
M  V30 2946 C 280.576 -3.40768 -0.753552 0
M  V30 2947 C 281.924 -4.10587 -1.08184 0
M  V30 2948 O 282.948 -3.46106 -0.841961 0
M  V30 2949 O 281.807 -5.24512 -1.53459 0
M  V30 2950 H 278.901 -0.78301 -0.26613 0
M  V30 2951 H 281.447 -1.68347 0.213877 0
M  V30 2952 H 280.219 -3.90965 0.161829 0
M  V30 2953 H 279.842 -3.66733 -1.53598 0
M  V30 2954 N 280.839 0.0985539 -1.57292 0
M  V30 2955 C 282.086 0.802678 -1.85912 0
M  V30 2956 C 282.414 1.78901 -0.763186 0
M  V30 2957 O 281.669 1.94178 0.243559 0
M  V30 2958 C 281.968 1.56927 -3.21105 0
M  V30 2959 C 281.634 0.725376 -4.45027 0
M  V30 2960 C 280.296 0.492726 -4.78671 0
M  V30 2961 C 282.648 0.138493 -5.21016 0
M  V30 2962 C 279.976 -0.336727 -5.85733 0
M  V30 2963 C 282.328 -0.678264 -6.28953 0
M  V30 2964 C 280.992 -0.921039 -6.61115 0
M  V30 2965 H 280.262 0.293721 -0.680301 0
M  V30 2966 H 282.909 0.0642841 -1.91392 0
M  V30 2967 H 281.214 2.37914 -3.11294 0
M  V30 2968 H 282.911 2.11841 -3.40477 0
M  V30 2969 H 279.501 0.916815 -4.18679 0
M  V30 2970 H 283.685 0.305404 -4.95359 0
M  V30 2971 H 278.941 -0.533836 -6.09065 0
M  V30 2972 H 283.115 -1.1399 -6.87007 0
M  V30 2973 H 280.742 -1.56556 -7.43905 0
M  V30 2974 N 282.317 1.53212 0.369288 0
M  V30 2975 C 283.564 1.69215 1.11232 0
M  V30 2976 C 283.892 0.442048 1.8941 0
M  V30 2977 O 283.147 -0.575944 1.87033 0
M  V30 2978 C 283.446 2.89101 2.10132 0
M  V30 2979 C 283.112 4.25758 1.48463 0
M  V30 2980 C 281.774 4.6292 1.31372 0
M  V30 2981 C 284.126 5.10757 1.03811 0
M  V30 2982 C 281.454 5.82722 0.68207 0
M  V30 2983 C 283.806 6.31201 0.420487 0
M  V30 2984 C 282.47 6.67079 0.237038 0
M  V30 2985 H 281.74 0.619201 0.407027 0
M  V30 2986 H 284.387 1.87391 0.394552 0
M  V30 2987 H 282.692 2.65421 2.88199 0
M  V30 2988 H 284.389 2.98676 2.6757 0
M  V30 2989 H 280.979 3.96494 1.62758 0
M  V30 2990 H 285.163 4.82599 1.1581 0
M  V30 2991 H 280.419 6.09113 0.528316 0
M  V30 2992 H 284.593 6.96368 0.0662874 0
M  V30 2993 H 282.22 7.59774 -0.254477 0
M  V30 2994 N 283.795 -0.628877 1.44509 0
M  V30 2995 C 285.02 -1.42048 1.5112 0
M  V30 2996 C 285.445 -1.87594 0.137818 0
M  V30 2997 O 284.803 -1.58873 -0.873437 0
M  V30 2998 C 284.851 -2.61541 2.48251 0
M  V30 2999 O 283.955 -3.61453 1.98559 0
M  V30 3000 H 283.296 -0.424942 0.510216 0
M  V30 3001 H 285.826 -0.767374 1.89664 0
M  V30 3002 H 285.836 -3.09057 2.66361 0
M  V30 3003 H 284.511 -2.27736 3.48007 0
M  V30 3004 H 283.088 -3.20731 1.90227 0
M  V30 3005 N 285.273 -1.31445 -0.869486 0
M  V30 3006 C 286.689 -1.10113 -1.15531 0
M  V30 3007 C 286.889 0.128087 -2.01092 0
M  V30 3008 O 285.945 0.817276 -2.38908 0
M  V30 3009 C 287.258 -2.37291 -1.84698 0
M  V30 3010 C 288.806 -2.42906 -1.97397 0
M  V30 3011 C 289.281 -3.69967 -2.69979 0
M  V30 3012 N 290.772 -3.70864 -2.77514 0
M  V30 3013 C 291.507 -4.65875 -3.34287 0
M  V30 3014 N 291.003 -5.71242 -3.91988 0
M  V30 3015 N 292.796 -4.53394 -3.3225 0
M  V30 3016 H 284.947 -2.1028 -0.299347 0
M  V30 3017 H 287.21 -0.927683 -0.195214 0
M  V30 3018 H 286.916 -3.27078 -1.29278 0
M  V30 3019 H 286.79 -2.47125 -2.84972 0
M  V30 3020 H 289.177 -1.53588 -2.51982 0
M  V30 3021 H 289.258 -2.37036 -0.961643 0
M  V30 3022 H 288.902 -4.59652 -2.16062 0
M  V30 3023 H 288.832 -3.73103 -3.7162 0
M  V30 3024 H 291.323 -2.94697 -2.36563 0
M  V30 3025 H 291.636 -6.39817 -4.33421 0
M  V30 3026 H 289.981 -5.75015 -3.90362 0
M  V30 3027 H 293.172 -3.70252 -2.8641 0
M  V30 3028 H 293.345 -5.27617 -3.76197 0
M  V30 3029 N 286.751 1.08385 -1.14413 0
M  V30 3030 C 287.997 1.81044 -0.913834 0
M  V30 3031 C 288.33 1.86004 0.558209 0
M  V30 3032 O 287.605 1.33606 1.4135 0
M  V30 3033 C 287.888 3.26648 -1.51569 0
M  V30 3034 C 287.741 3.29895 -3.0576 0
M  V30 3035 C 289.06 4.23629 -1.19273 0
M  V30 3036 H 286.179 0.65727 -0.333414 0
M  V30 3037 H 288.821 1.26896 -1.41412 0
M  V30 3038 H 286.971 3.72889 -1.09023 0
M  V30 3039 H 288.643 2.91977 -3.57137 0
M  V30 3040 H 286.886 2.69163 -3.40197 0
M  V30 3041 H 287.557 4.32516 -3.42977 0
M  V30 3042 H 290.033 3.85727 -1.56057 0
M  V30 3043 H 288.909 5.23822 -1.64017 0
M  V30 3044 H 289.17 4.41968 -0.108068 0
M  V30 3045 N 288.23 0.939286 1.26551 0
M  V30 3046 C 289.476 0.586715 1.94128 0
M  V30 3047 C 289.809 -0.8717 1.73537 0
M  V30 3048 O 289.084 -1.62339 1.07127 0
M  V30 3049 C 289.367 0.927497 3.4795 0
M  V30 3050 C 289.22 2.44052 3.77834 0
M  V30 3051 C 290.539 0.441569 4.37879 0
M  V30 3052 H 287.658 0.21463 0.705055 0
M  V30 3053 H 290.3 1.17316 1.49455 0
M  V30 3054 H 288.45 0.428431 3.8613 0
M  V30 3055 H 290.122 3.01216 3.4938 0
M  V30 3056 H 288.365 2.8848 3.23978 0
M  V30 3057 H 289.036 2.62947 4.85348 0
M  V30 3058 H 291.512 0.869448 4.06915 0
M  V30 3059 H 290.388 0.708856 5.44304 0
M  V30 3060 H 290.649 -0.658467 4.37169 0
M  V30 3061 N 289.708 -1.40897 0.706093 0
M  V30 3062 C 291.119 -1.84023 0.315052 0
M  V30 3063 C 291.47 -1.5906 -1.14866 0
M  V30 3064 O 290.595 -1.06651 -1.88293 0
M  V30 3065 C 291.19 -3.34055 0.565038 0
M  V30 3066 C 289.749 -3.7571 0.227806 0
M  V30 3067 C 288.896 -2.64204 0.842122 0
M  V30 3068 H 291.847 -1.303 0.905963 0
M  V30 3069 H 291.868 -3.80107 -0.172843 0
M  V30 3070 H 291.38 -3.52192 1.63042 0
M  V30 3071 H 289.481 -3.63172 -0.832895 0
M  V30 3072 H 289.594 -4.74103 0.690174 0
M  V30 3073 H 287.958 -2.53255 0.270893 0
M  V30 3074 H 288.741 -2.85155 1.91158 0
M  V30 3075 N 291.186 -0.45159 -1.50991 0
M  V30 3076 C 292.597 0.00818571 -1.86698 0
M  V30 3077 C 292.948 1.40661 -1.3678 0
M  V30 3078 O 292.073 2.0391 -0.724546 0
M  V30 3079 C 292.668 0.0216303 -3.38793 0
M  V30 3080 C 291.227 0.425865 -3.73983 0
M  V30 3081 C 290.374 -0.372163 -2.74791 0
M  V30 3082 H 293.325 -0.666785 -1.44013 0
M  V30 3083 H 293.346 0.828078 -3.7138 0
M  V30 3084 H 292.858 -0.996288 -3.75094 0
M  V30 3085 H 290.959 1.44886 -3.43277 0
M  V30 3086 H 291.072 0.140761 -4.78893 0
M  V30 3087 H 289.436 0.171498 -2.54122 0
M  V30 3088 H 290.219 -1.38922 -3.13935 0
M  V30 3089 N 292.664 1.56529 -0.183458 0
M  V30 3090 C 293.941 1.88959 0.50536 0
M  V30 3091 C 294.321 1.09523 1.80466 0
M  V30 3092 O 293.669 0.19278 2.27685 0
M  V30 3093 C 293.879 3.41162 0.73547 0
M  V30 3094 C 295.227 4.11155 1.06005 0
M  V30 3095 O 296.251 3.46548 0.823594 0
M  V30 3096 O 295.11 5.25318 1.50675 0
M  V30 3097 H 292.204 0.78441 0.261973 0
M  V30 3098 H 294.75 1.68231 -0.222802 0
M  V30 3099 H 293.522 3.90874 -0.182561 0
M  V30 3100 H 293.145 3.67543 1.51651 0
M  V30 3101 N 294.142 -0.090211 1.57342 0
M  V30 3102 C 295.367 -0.810082 1.90925 0
M  V30 3103 C 295.792 -1.71248 0.778187 0
M  V30 3104 O 295.15 -1.79278 -0.269991 0
M  V30 3105 C 295.198 -1.59529 3.23393 0
M  V30 3106 O 294.302 -2.70461 3.11327 0
M  V30 3107 H 293.643 -0.222231 0.625707 0
M  V30 3108 H 296.173 -0.0639716 2.045 0
M  V30 3109 H 296.183 -1.97847 3.5682 0
M  V30 3110 H 294.858 -0.933055 4.05299 0
M  V30 3111 H 293.435 -2.35135 2.89423 0
M  V30 3112 N 295.62 -1.53406 -0.361157 0
M  V30 3113 C 296.85 -1.73465 -1.1222 0
M  V30 3114 C 297.258 -0.465486 -1.83384 0
M  V30 3115 O 296.601 0.571611 -1.7458 0
M  V30 3116 C 296.663 -2.84834 -2.19339 0
M  V30 3117 C 296.327 -4.25038 -1.67903 0
M  V30 3118 C 297.324 -5.07231 -1.14074 0
M  V30 3119 C 295.009 -4.71464 -1.73282 0
M  V30 3120 C 297.003 -6.33942 -0.663068 0
M  V30 3121 C 294.69 -5.98153 -1.25127 0
M  V30 3122 C 295.688 -6.79223 -0.717296 0
M  V30 3123 O 295.376 -8.03533 -0.242865 0
M  V30 3124 H 295.108 -0.583526 -0.341283 0
M  V30 3125 H 297.662 -2.00964 -0.424591 0
M  V30 3126 H 295.892 -2.5282 -2.92607 0
M  V30 3127 H 297.581 -2.9303 -2.80871 0
M  V30 3128 H 298.347 -4.72534 -1.09254 0
M  V30 3129 H 294.226 -4.08432 -2.13786 0
M  V30 3130 H 297.77 -6.97167 -0.245612 0
M  V30 3131 H 293.667 -6.32347 -1.29642 0
M  V30 3132 H 294.435 -8.177 -0.361786 0
M  V30 3133 N 297.098 0.621204 -1.44841 0
M  V30 3134 C 298.03 1.74615 -1.48466 0
M  V30 3135 C 299.043 1.58377 -0.37691 0
M  V30 3136 O 300.232 1.66508 -0.643215 0
M  V30 3137 C 297.332 3.12459 -1.31236 0
M  V30 3138 C 296.505 3.55064 -2.55438 0
M  V30 3139 C 295.564 4.71821 -2.32963 0
M  V30 3140 O 294.59 4.79628 -3.06505 0
M  V30 3141 N 295.792 5.64186 -1.36654 0
M  V30 3142 H 298.557 1.71973 -2.45449 0
M  V30 3143 H 296.118 0.806077 -1.40407 0
M  V30 3144 H 298.11 3.88302 -1.14032 0
M  V30 3145 H 296.68 3.09686 -0.4258 0
M  V30 3146 H 295.9 2.69324 -2.87851 0
M  V30 3147 H 297.188 3.80284 -3.38026 0
M  V30 3148 H 296.586 5.6058 -0.759344 0
M  V30 3149 H 295.143 6.39618 -1.25425 0
M  V30 3150 N 298.576 1.31904 0.862503 0
M  V30 3151 C 299.539 1.20131 1.95195 0
M  V30 3152 C 300.539 0.126409 1.60302 0
M  V30 3153 O 301.729 0.376234 1.70089 0
M  V30 3154 C 298.861 0.845691 3.30244 0
M  V30 3155 H 300.054 2.16943 2.07064 0
M  V30 3156 H 297.607 1.15622 1.05172 0
M  V30 3157 H 298.342 -0.120957 3.24074 0
M  V30 3158 H 298.127 1.62276 3.56944 0
M  V30 3159 H 299.617 0.787418 4.10109 0
M  V30 3160 N 300.054 -1.07777 1.14986 0
M  V30 3161 C 300.986 -2.14769 0.800436 0
M  V30 3162 C 301.999 -1.61739 -0.185595 0
M  V30 3163 O 303.188 -1.78462 0.0370358 0
M  V30 3164 C 300.288 -3.38481 0.168533 0
M  V30 3165 C 299.461 -4.20876 1.1909 0
M  V30 3166 C 298.52 -5.22976 0.581575 0
M  V30 3167 O 297.546 -5.55388 1.24633 0
M  V30 3168 N 298.748 -5.76976 -0.638706 0
M  V30 3169 H 301.513 -2.45348 1.72118 0
M  V30 3170 H 299.074 -1.23645 1.04515 0
M  V30 3171 H 301.066 -4.03916 -0.251764 0
M  V30 3172 H 299.636 -3.05651 -0.655467 0
M  V30 3173 H 298.856 -3.51322 1.78791 0
M  V30 3174 H 300.144 -4.7274 1.88133 0
M  V30 3175 H 299.542 -5.52886 -1.19723 0
M  V30 3176 H 298.099 -6.44061 -1.00142 0
M  V30 3177 N 301.532 -0.945985 -1.26051 0
M  V30 3178 C 302.495 -0.463897 -2.24456 0
M  V30 3179 C 303.495 0.427655 -1.55009 0
M  V30 3180 O 304.685 0.226157 -1.72726 0
M  V30 3181 C 301.817 0.330812 -3.39291 0
M  V30 3182 H 303.01 -1.33357 -2.68619 0
M  V30 3183 H 300.563 -0.728416 -1.38289 0
M  V30 3184 H 301.298 1.21852 -3.00537 0
M  V30 3185 H 301.083 -0.308679 -3.90883 0
M  V30 3186 H 302.573 0.657865 -4.12386 0
M  V30 3187 N 303.011 1.40521 -0.713556 0
M  V30 3188 C 303.944 2.28198 -0.00881422 0
M  V30 3189 C 304.922 1.43227 0.769735 0
M  V30 3190 O 306.106 1.72641 0.756799 0
M  V30 3191 C 303.233 3.23758 0.994899 0
M  V30 3192 C 302.279 4.25391 0.3074 0
M  V30 3193 S 303.112 5.26765 -0.963247 0
M  V30 3194 C 304.268 6.25888 0.0384143 0
M  V30 3195 H 304.501 2.87622 -0.752407 0
M  V30 3196 H 302.034 1.45925 -0.504502 0
M  V30 3197 H 303.992 3.79341 1.56879 0
M  V30 3198 H 302.653 2.63396 1.71118 0
M  V30 3199 H 301.846 4.92596 1.0661 0
M  V30 3200 H 301.448 3.73497 -0.193879 0
M  V30 3201 H 303.74 6.71683 0.885912 0
M  V30 3202 H 304.683 7.05552 -0.60019 0
M  V30 3203 H 305.091 5.63072 0.401233 0
M  V30 3204 N 304.489 0.459591 1.5075 0
M  V30 3205 C 305.735 -0.0994966 2.02556 0
M  V30 3206 C 306.068 -1.40399 1.3417 0
M  V30 3207 O 305.343 -1.88892 0.463683 0
M  V30 3208 C 305.626 -0.295242 3.58888 0
M  V30 3209 C 305.479 1.02947 4.37861 0
M  V30 3210 C 306.798 -1.05502 4.27267 0
M  V30 3211 H 303.917 -0.034686 0.736183 0
M  V30 3212 H 306.559 0.602938 1.8018 0
M  V30 3213 H 304.709 -0.893563 3.78084 0
M  V30 3214 H 306.381 1.66348 4.30263 0
M  V30 3215 H 304.624 1.62885 4.02058 0
M  V30 3216 H 305.295 0.846281 5.45474 0
M  V30 3217 H 307.771 -0.547993 4.12476 0
M  V30 3218 H 306.647 -1.16077 5.36486 0
M  V30 3219 H 306.908 -2.08875 3.89645 0
M  V30 3220 N 305.967 -1.56429 0.191757 0
M  V30 3221 C 307.244 -1.89224 -0.495332 0
M  V30 3222 C 307.624 -1.10478 -1.79883 0
M  V30 3223 O 306.972 -0.204852 -2.2758 0
M  V30 3224 C 307.182 -3.41548 -0.717367 0
M  V30 3225 C 308.53 -4.11711 -1.03823 0
M  V30 3226 O 309.554 -3.4698 -0.805204 0
M  V30 3227 O 308.413 -5.2611 -1.47887 0
M  V30 3228 H 305.507 -0.785788 -0.25781 0
M  V30 3229 H 308.053 -1.68111 0.231721 0
M  V30 3230 H 306.825 -3.90772 0.203287 0
M  V30 3231 H 306.448 -3.68342 -1.497 0
M  V30 3232 N 307.445 0.0818655 -1.57387 0
M  V30 3233 C 308.694 0.781681 -1.85937 0
M  V30 3234 C 309.007 1.79246 -0.782957 0
M  V30 3235 O 310.213 2.54112 -0.955987 0
M  V30 3236 C 308.669 1.44109 -3.29789 0
M  V30 3237 C 308.277 0.469396 -4.45534 0
M  V30 3238 C 310.021 2.12386 -3.67549 0
M  V30 3239 C 307.928 1.13415 -5.80423 0
M  V30 3240 H 306.858 0.295682 -0.693605 0
M  V30 3241 H 309.509 0.0348051 -1.83467 0
M  V30 3242 H 307.891 2.23588 -3.2684 0
M  V30 3243 H 309.065 -0.294856 -4.59856 0
M  V30 3244 H 307.38 -0.108383 -4.16259 0
M  V30 3245 H 309.977 2.62878 -4.65617 0
M  V30 3246 H 310.32 2.91877 -2.96839 0
M  V30 3247 H 310.853 1.39751 -3.72444 0
M  V30 3248 H 307.592 0.379771 -6.54399 0
M  V30 3249 H 307.112 1.8695 -5.69921 0
M  V30 3250 H 308.791 1.65686 -6.25426 0
M  V30 3251 N 308.923 1.53595 0.353017 0
M  V30 3252 C 310.169 1.70638 1.09593 0
M  V30 3253 C 310.502 0.463286 1.88593 0
M  V30 3254 O 309.777 -0.539597 1.86865 0
M  V30 3255 C 310.06 2.96406 2.04489 0
M  V30 3256 C 309.913 4.30901 1.29014 0
M  V30 3257 C 311.232 3.17812 3.0444 0
M  V30 3258 H 308.351 0.620913 0.397034 0
M  V30 3259 H 310.993 1.86254 0.375446 0
M  V30 3260 H 309.143 2.83223 2.65927 0
M  V30 3261 H 310.815 4.55917 0.702638 0
M  V30 3262 H 309.058 4.29741 0.592071 0
M  V30 3263 H 309.729 5.1506 1.98537 0
M  V30 3264 H 312.205 3.30263 2.53112 0
M  V30 3265 H 311.081 4.07223 3.6805 0
M  V30 3266 H 311.342 2.33669 3.75301 0
M  V30 3267 N 310.401 -0.613514 1.45168 0
M  V30 3268 C 311.629 -1.39946 1.5239 0
M  V30 3269 C 312.044 -1.88167 0.154531 0
M  V30 3270 O 311.401 -1.61872 -0.842843 0
M  V30 3271 C 311.452 -2.60795 2.50337 0
M  V30 3272 O 311.173 -2.1458 3.81952 0
M  V30 3273 C 312.674 -3.53723 2.67198 0
M  V30 3274 H 309.894 -0.428593 0.516284 0
M  V30 3275 H 312.438 -0.748753 1.903 0
M  V30 3276 H 310.593 -3.21919 2.15515 0
M  V30 3277 H 311.007 -2.93055 4.34993 0
M  V30 3278 H 312.481 -4.35079 3.39721 0
M  V30 3279 H 312.958 -4.0368 1.73029 0
M  V30 3280 H 313.564 -2.98456 3.02992 0
M  V30 3281 N 311.879 -1.3236 -0.855495 0
M  V30 3282 C 312.842 -1.21164 -1.94556 0
M  V30 3283 C 313.842 -0.134908 -1.60233 0
M  V30 3284 O 315.032 -0.385249 -1.69887 0
M  V30 3285 C 312.164 -0.863192 -3.29791 0
M  V30 3286 H 313.357 -2.18038 -2.05911 0
M  V30 3287 H 310.91 -1.16179 -1.04557 0
M  V30 3288 H 311.645 0.103769 -3.24134 0
M  V30 3289 H 311.43 -1.64166 -3.56078 0
M  V30 3290 H 312.92 -0.809156 -4.09686 0
M  V30 3291 N 313.357 1.07166 -1.15556 0
M  V30 3292 C 314.287 2.16403 -0.877046 0
M  V30 3293 C 315.268 1.69217 0.173111 0
M  V30 3294 O 316.453 1.94181 0.027084 0
M  V30 3295 C 313.583 3.45349 -0.367632 0
M  V30 3296 C 312.537 4.05995 -1.35468 0
M  V30 3297 C 311.863 5.30045 -0.704038 0
M  V30 3298 C 313.163 4.45804 -2.72132 0
M  V30 3299 H 314.857 2.39959 -1.79053 0
M  V30 3300 H 312.403 1.15325 -0.862331 0
M  V30 3301 H 314.356 4.21095 -0.160317 0
M  V30 3302 H 313.08 3.21385 0.581326 0
M  V30 3303 H 311.739 3.32296 -1.54839 0
M  V30 3304 H 311.387 5.02373 0.251128 0
M  V30 3305 H 311.087 5.71579 -1.36277 0
M  V30 3306 H 312.611 6.08495 -0.50654 0
M  V30 3307 H 314.025 5.12671 -2.56595 0
M  V30 3308 H 312.422 4.98296 -3.34397 0
M  V30 3309 H 313.492 3.57083 -3.28054 0
M  V30 3310 N 314.835 0.952656 1.25548 0
M  V30 3311 C 316.083 0.605176 1.92826 0
M  V30 3312 C 316.404 -0.860261 1.74999 0
M  V30 3313 O 315.674 -1.6125 1.11244 0
M  V30 3314 H 314.254 0.220832 0.713612 0
M  V30 3315 H 316.916 1.21047 1.52754 0
M  V30 3316 H 316.012 0.832798 3.00784 0
M  V30 3317 N 316.313 -1.40141 0.720998 0
M  V30 3318 C 317.559 -2.01572 0.272075 0
M  V30 3319 C 317.914 -1.5616 -1.12391 0
M  V30 3320 O 317.207 -0.774198 -1.75262 0
M  V30 3321 C 317.401 -3.56165 0.296892 0
M  V30 3322 C 317.23 -4.16584 1.69375 0
M  V30 3323 C 316 -4.49783 2.30269 0
M  V30 3324 C 318.198 -4.41076 2.64493 0
M  V30 3325 N 316.18 -4.95626 3.62254 0
M  V30 3326 C 317.551 -4.88971 3.81192 0
M  V30 3327 C 319.606 -4.23122 2.62435 0
M  V30 3328 C 318.309 -5.20796 4.96149 0
M  V30 3329 C 320.335 -4.56052 3.76524 0
M  V30 3330 C 319.697 -5.04141 4.91956 0
M  V30 3331 H 315.796 -0.768343 0.145511 0
M  V30 3332 H 318.38 -1.70287 0.943959 0
M  V30 3333 H 316.551 -3.86868 -0.344578 0
M  V30 3334 H 318.283 -4.04346 -0.169254 0
M  V30 3335 H 315.038 -4.37101 1.82318 0
M  V30 3336 H 315.462 -5.22923 4.29977 0
M  V30 3337 H 320.104 -3.85158 1.74393 0
M  V30 3338 H 317.822 -5.57672 5.84831 0
M  V30 3339 H 321.408 -4.43796 3.76213 0
M  V30 3340 H 320.288 -5.29142 5.78774 0
M  V30 3341 N 317.792 -0.46758 -1.50504 0
M  V30 3342 C 318.74 0.342482 -2.30065 0
M  V30 3343 C 319.734 0.993596 -1.37201 0
M  V30 3344 O 320.94 0.925102 -1.54408 0
M  V30 3345 H 317.315 0.129283 -0.740803 0
M  V30 3346 H 319.286 -0.34899 -2.96352 0
M  V30 3347 C 318.035 1.4139 -3.17654 0
M  V30 3348 H 317.358 0.922264 -3.89017 0
M  V30 3349 H 318.798 1.95335 -3.76325 0
M  V30 3350 C 317.257 2.4139 -2.35016 0
M  V30 3351 O 317.787 3.46586 -2.03079 0
M  V30 3352 N 315.993 2.13021 -1.97662 0
M  V30 3353 H 315.54 1.27499 -2.23834 0
M  V30 3354 H 315.498 2.80164 -1.42673 0
M  V30 3355 N 319.27 1.56325 -0.20005 0
M  V30 3356 C 320.5 2.01811 0.442232 0
M  V30 3357 C 320.908 1.07932 1.55394 0
M  V30 3358 O 320.251 0.0772685 1.83537 0
M  V30 3359 C 320.313 3.43685 1.05457 0
M  V30 3360 C 319.977 4.56928 0.0809833 0
M  V30 3361 C 320.974 5.15009 -0.711471 0
M  V30 3362 C 318.659 5.0229 -0.0315364 0
M  V30 3363 C 320.653 6.16904 -1.60336 0
M  V30 3364 C 318.34 6.04028 -0.926981 0
M  V30 3365 C 319.338 6.6121 -1.71146 0
M  V30 3366 O 319.026 7.60971 -2.59189 0
M  V30 3367 H 318.758 0.666173 0.114848 0
M  V30 3368 H 321.312 2.03085 -0.307511 0
M  V30 3369 H 319.542 3.39413 1.85299 0
M  V30 3370 H 321.231 3.72948 1.60201 0
M  V30 3371 H 321.997 4.80827 -0.634873 0
M  V30 3372 H 317.876 4.57476 0.568902 0
M  V30 3373 H 321.42 6.61464 -2.21611 0
M  V30 3374 H 317.317 6.37634 -1.00468 0
M  V30 3375 H 318.085 7.7841 -2.53023 0
M  V30 3376 N 320.748 -0.0735177 1.57428 0
M  V30 3377 C 321.994 -0.774145 1.87443 0
M  V30 3378 C 322.327 -1.77311 0.792103 0
M  V30 3379 O 321.602 -1.93492 -0.197793 0
M  V30 3380 C 321.885 -1.48367 3.28115 0
M  V30 3381 C 321.738 -0.501227 4.46999 0
M  V30 3382 C 323.057 -2.429 3.66998 0
M  V30 3383 H 320.176 -0.279971 0.681752 0
M  V30 3384 H 322.818 -0.0373616 1.89963 0
M  V30 3385 H 320.968 -2.11171 3.26097 0
M  V30 3386 H 322.64 0.121468 4.6114 0
M  V30 3387 H 320.883 0.183593 4.33411 0
M  V30 3388 H 321.554 -1.03526 5.42205 0
M  V30 3389 H 324.03 -1.90175 3.70098 0
M  V30 3390 H 322.906 -2.89549 4.66318 0
M  V30 3391 H 323.167 -3.27628 2.96837 0
M  V30 3392 N 322.226 -1.5378 -0.344866 0
M  V30 3393 C 323.451 -1.75211 -1.10977 0
M  V30 3394 C 323.876 -0.48936 -1.81623 0
M  V30 3395 O 323.234 0.557925 -1.72502 0
M  V30 3396 C 323.282 -2.93147 -2.09993 0
M  V30 3397 O 322.386 -2.63203 -3.17487 0
M  V30 3398 H 321.727 -0.581241 -0.321021 0
M  V30 3399 H 324.257 -2.00738 -0.395661 0
M  V30 3400 H 324.267 -3.19898 -2.53237 0
M  V30 3401 H 322.942 -3.84731 -1.5797 0
M  V30 3402 H 321.519 -2.47336 -2.79069 0
M  V30 3403 N 323.704 0.605807 -1.45491 0
M  V30 3404 C 324.932 1.39136 -1.5313 0
M  V30 3405 C 325.347 1.88082 -0.164507 0
M  V30 3406 O 324.704 1.62316 0.834247 0
M  V30 3407 C 324.755 2.59463 -2.51716 0
M  V30 3408 O 324.476 2.12551 -3.83084 0
M  V30 3409 C 325.977 3.52301 -2.6907 0
M  V30 3410 H 323.197 0.425849 -0.51855 0
M  V30 3411 H 325.741 0.73865 -1.90694 0
M  V30 3412 H 323.896 3.20772 -2.17219 0
M  V30 3413 H 324.31 2.90744 -4.36541 0
M  V30 3414 H 325.784 4.33271 -3.42024 0
M  V30 3415 H 326.261 4.02757 -1.75167 0
M  V30 3416 H 326.867 2.96845 -3.04571 0
M  V30 3417 N 325.182 1.32811 0.848464 0
M  V30 3418 C 326.112 1.24882 1.97299 0
M  V30 3419 C 327.093 0.131357 1.69592 0
M  V30 3420 O 328.278 0.319553 1.91553 0
M  V30 3421 C 325.408 0.97746 3.33261 0
M  V30 3422 C 324.362 2.05682 3.75338 0
M  V30 3423 C 323.688 1.63777 5.09 0
M  V30 3424 C 324.988 3.47254 3.90144 0
M  V30 3425 H 326.682 2.18966 2.04191 0
M  V30 3426 H 324.228 1.05413 0.981029 0
M  V30 3427 H 326.181 0.908513 4.1149 0
M  V30 3428 H 324.905 0.000980011 3.266 0
M  V30 3429 H 323.564 2.11603 2.99366 0
M  V30 3430 H 323.212 0.648569 4.98801 0
M  V30 3431 H 322.912 2.36 5.38124 0
M  V30 3432 H 324.436 1.5833 5.89715 0
M  V30 3433 H 325.85 3.43888 4.58709 0
M  V30 3434 H 324.247 4.1788 4.30693 0
M  V30 3435 H 325.317 3.86462 2.92874 0
M  V30 3436 N 326.66 -1.06551 1.16123 0
M  V30 3437 C 327.623 -2.12132 0.867906 0
M  V30 3438 C 328.623 -1.60224 -0.135944 0
M  V30 3439 O 329.813 -1.73943 0.0946422 0
M  V30 3440 C 326.945 -3.396 0.297419 0
M  V30 3441 H 328.138 -2.39586 1.80385 0
M  V30 3442 H 325.691 -1.22574 0.969812 0
M  V30 3443 H 326.426 -3.17794 -0.64633 0
M  V30 3444 H 326.211 -3.78581 1.02073 0
M  V30 3445 H 327.701 -4.17455 0.110052 0
M  V30 3446 N 328.138 -0.959301 -1.25041 0
M  V30 3447 C 329.363 -0.633507 -1.97488 0
M  V30 3448 C 329.788 0.788555 -1.70773 0
M  V30 3449 O 329.146 1.53394 -0.966431 0
M  V30 3450 C 329.194 -0.904057 -3.49083 0
M  V30 3451 O 328.298 0.0147939 -4.12397 0
M  V30 3452 H 327.639 -0.240368 -0.618966 0
M  V30 3453 H 330.169 -1.28717 -1.59038 0
M  V30 3454 H 330.179 -0.832203 -3.99423 0
M  V30 3455 H 328.854 -1.94048 -3.67856 0
M  V30 3456 H 327.431 -0.109664 -3.72739 0
M  V30 3457 N 329.616 1.39756 -0.72842 0
M  V30 3458 C 330.526 2.34444 -0.0855374 0
M  V30 3459 C 331.542 1.57976 0.729356 0
M  V30 3460 O 332.718 1.90301 0.659346 0
M  V30 3461 C 329.783 3.36965 0.815798 0
M  V30 3462 C 328.844 4.29299 -0.0105996 0
M  V30 3463 C 328.077 5.26923 0.84781 0
M  V30 3464 O 328.3 5.30859 2.08673 0
M  V30 3465 O 327.234 6.01249 0.279969 0
M  V30 3466 H 331.06 2.91065 -0.866892 0
M  V30 3467 H 328.645 1.4117 -0.48902 0
M  V30 3468 H 330.527 3.99804 1.33171 0
M  V30 3469 H 329.202 2.82739 1.57608 0
M  V30 3470 H 328.109 3.69703 -0.571877 0
M  V30 3471 H 329.442 4.86712 -0.73295 0
M  V30 3472 N 331.094 0.475555 1.50254 0
M  V30 3473 C 332.342 -0.077738 2.0195 0
M  V30 3474 C 332.663 -1.39813 1.35931 0
M  V30 3475 O 331.933 -1.89249 0.506123 0
M  V30 3476 H 330.513 -0.031719 0.746326 0
M  V30 3477 H 333.175 0.626995 1.84539 0
M  V30 3478 H 332.271 -0.225995 3.11281 0
M  V30 3479 N 332.573 -1.56217 0.208337 0
M  V30 3480 C 333.521 -2.21053 -0.723769 0
M  V30 3481 C 334.515 -1.18578 -1.20978 0
M  V30 3482 O 335.721 -1.36691 -1.17114 0
M  V30 3483 H 332.096 -0.708595 -0.251788 0
M  V30 3484 H 334.067 -2.98006 -0.153365 0
M  V30 3485 C 332.816 -2.89417 -1.927 0
M  V30 3486 H 332.139 -3.68019 -1.56212 0
M  V30 3487 H 333.579 -3.38201 -2.55727 0
M  V30 3488 C 332.038 -1.91166 -2.77411 0
M  V30 3489 O 332.568 -1.42026 -3.75754 0
M  V30 3490 N 330.774 -1.59105 -2.43175 0
M  V30 3491 H 330.321 -1.99259 -1.63259 0
M  V30 3492 H 330.279 -0.936255 -3.00136 0
M  V30 3493 N 334.051 0.0651679 -1.57465 0
M  V30 3494 C 335.281 0.774683 -1.91526 0
M  V30 3495 C 335.689 1.71305 -0.803196 0
M  V30 3496 O 335.032 1.82231 0.231881 0
M  V30 3497 C 335.094 1.61645 -3.21109 0
M  V30 3498 C 334.758 0.846753 -4.49087 0
M  V30 3499 C 335.755 0.163024 -5.19644 0
M  V30 3500 C 333.44 0.811966 -4.95694 0
M  V30 3501 C 335.434 -0.54519 -6.35064 0
M  V30 3502 C 333.121 0.0999836 -6.11018 0
M  V30 3503 C 334.119 -0.577388 -6.80555 0
M  V30 3504 O 333.807 -1.27789 -7.93678 0
M  V30 3505 H 333.539 0.225031 -0.637446 0
M  V30 3506 H 336.093 0.0377134 -2.05365 0
M  V30 3507 H 334.323 2.39638 -3.03497 0
M  V30 3508 H 336.012 2.20525 -3.40769 0
M  V30 3509 H 336.778 0.181163 -4.84662 0
M  V30 3510 H 332.657 1.32867 -4.41438 0
M  V30 3511 H 336.201 -1.07446 -6.89276 0
M  V30 3512 H 332.098 0.0797945 -6.45451 0
M  V30 3513 H 332.866 -1.18784 -8.09835 0
M  V30 3514 N 335.529 1.53961 0.336706 0
M  V30 3515 C 336.777 1.71197 1.07405 0
M  V30 3516 C 337.098 0.481475 1.88962 0
M  V30 3517 O 336.368 -0.504585 1.8929 0
M  V30 3518 H 334.948 0.631185 0.399517 0
M  V30 3519 H 337.61 1.91232 0.376323 0
M  V30 3520 H 336.706 2.58587 1.74755 0
M  V30 3521 N 337.007 -0.598083 1.45811 0
M  V30 3522 C 337.917 -1.73632 1.57763 0
M  V30 3523 C 338.933 -1.67763 0.461676 0
M  V30 3524 O 340.109 -1.87949 0.723685 0
M  V30 3525 C 337.174 -3.10114 1.55018 0
M  V30 3526 C 336.235 -3.27364 2.77726 0
M  V30 3527 C 335.468 -4.57334 2.75102 0
M  V30 3528 O 335.691 -5.40258 1.8297 0
M  V30 3529 O 334.625 -4.77502 3.66437 0
M  V30 3530 H 338.451 -1.66498 2.53992 0
M  V30 3531 H 336.036 -0.763308 1.28429 0
M  V30 3532 H 337.918 -3.9141 1.56129 0
M  V30 3533 H 336.593 -3.17718 0.619431 0
M  V30 3534 H 335.5 -2.45619 2.82174 0
M  V30 3535 H 336.833 -3.24641 3.69958 0
M  V30 3536 N 338.485 -1.33259 -0.841409 0
M  V30 3537 C 339.71 -1.2775 -1.63385 0
M  V30 3538 C 340.135 0.149188 -1.87507 0
M  V30 3539 O 339.493 1.10498 -1.43736 0
M  V30 3540 C 339.541 -2.05571 -2.96265 0
M  V30 3541 O 338.645 -1.41257 -3.87453 0
M  V30 3542 H 337.986 -0.439627 -0.497618 0
M  V30 3543 H 340.516 -1.75782 -1.04699 0
M  V30 3544 H 340.526 -2.16241 -3.45982 0
M  V30 3545 H 339.201 -3.09309 -2.7803 0
M  V30 3546 H 337.778 -1.39217 -3.45938 0
M  V30 3547 N 339.963 1.05934 -1.16686 0
M  V30 3548 C 341.211 1.78447 -0.948744 0
M  V30 3549 C 341.532 1.87813 0.524523 0
M  V30 3550 O 340.802 1.38945 1.38098 0
M  V30 3551 H 339.382 0.660971 -0.348033 0
M  V30 3552 H 342.044 1.27947 -1.47022 0
M  V30 3553 H 341.14 2.80394 -1.37061 0
M  V30 3554 N 341.441 0.965919 1.2453 0
M  V30 3555 C 342.687 0.62776 1.92839 0
M  V30 3556 C 343.02 -0.834694 1.75347 0
M  V30 3557 O 342.295 -1.60031 1.10546 0
M  V30 3558 C 342.578 1.00109 3.45905 0
M  V30 3559 C 342.431 2.52011 3.72573 0
M  V30 3560 C 343.75 0.53435 4.36844 0
M  V30 3561 H 340.869 0.229537 0.700344 0
M  V30 3562 H 343.511 1.2046 1.46933 0
M  V30 3563 H 341.661 0.510238 3.85135 0
M  V30 3564 H 343.333 3.08559 3.42912 0
M  V30 3565 H 341.576 2.95287 3.17786 0
M  V30 3566 H 342.247 2.73183 4.79661 0
M  V30 3567 H 344.723 0.955565 4.04979 0
M  V30 3568 H 343.599 0.824152 5.42678 0
M  V30 3569 H 343.86 -0.565589 4.38467 0
M  V30 3570 N 342.919 -1.39368 0.735821 0
M  V30 3571 C 343.829 -2.34395 0.0979693 0
M  V30 3572 C 344.845 -1.58361 -0.720968 0
M  V30 3573 O 346.021 -1.90648 -0.649245 0
M  V30 3574 C 343.086 -3.37393 -0.797916 0
M  V30 3575 C 342.147 -4.29287 0.0333662 0
M  V30 3576 C 341.38 -5.27365 -0.819854 0
M  V30 3577 O 341.603 -5.31959 -2.05855 0
M  V30 3578 O 340.537 -6.01389 -0.248079 0
M  V30 3579 H 344.363 -2.90601 0.882315 0
M  V30 3580 H 341.948 -1.40909 0.4965 0
M  V30 3581 H 343.83 -4.00505 -1.31048 0
M  V30 3582 H 342.505 -2.83571 -1.56106 0
M  V30 3583 H 341.412 -3.69395 0.591475 0
M  V30 3584 H 342.745 -4.86317 0.758752 0
M  V30 3585 N 344.397 -0.483516 -1.5 0
M  V30 3586 C 345.36 0.292965 -2.2732 0
M  V30 3587 C 346.36 0.909499 -1.32608 0
M  V30 3588 O 347.55 0.776745 -1.55924 0
M  V30 3589 C 344.682 1.41854 -3.09984 0
M  V30 3590 H 345.875 -0.385289 -2.97415 0
M  V30 3591 H 343.428 -0.237942 -1.54478 0
M  V30 3592 H 344.163 2.13148 -2.44414 0
M  V30 3593 H 343.948 0.982114 -3.79601 0
M  V30 3594 H 345.438 1.96597 -3.68429 0
M  V30 3595 N 345.875 1.56104 -0.216619 0
M  V30 3596 C 347.122 1.98172 0.416416 0
M  V30 3597 C 347.45 1.10413 1.60122 0
M  V30 3598 O 346.705 0.147967 1.9514 0
M  V30 3599 C 347.004 3.45923 0.898464 0
M  V30 3600 C 346.67 4.50559 -0.175288 0
M  V30 3601 C 345.332 4.78897 -0.470271 0
M  V30 3602 C 347.684 5.1334 -0.901728 0
M  V30 3603 C 345.012 5.67299 -1.4963 0
M  V30 3604 C 347.364 6.02853 -1.91705 0
M  V30 3605 C 346.028 6.29537 -2.21901 0
M  V30 3606 H 345.298 0.725164 0.152377 0
M  V30 3607 H 347.945 1.88839 -0.318103 0
M  V30 3608 H 346.25 3.52434 1.71165 0
M  V30 3609 H 347.947 3.75841 1.39803 0
M  V30 3610 H 344.537 4.28551 0.0647806 0
M  V30 3611 H 348.721 4.91521 -0.687072 0
M  V30 3612 H 343.977 5.86239 -1.73592 0
M  V30 3613 H 348.151 6.50552 -2.48505 0
M  V30 3614 H 345.778 6.97835 -3.01548 0
M  V30 3615 N 347.353 -0.0568162 1.57498 0
M  V30 3616 C 348.581 -0.765626 1.92213 0
M  V30 3617 C 348.996 -1.70353 0.813961 0
M  V30 3618 O 348.353 -1.81268 -0.211701 0
M  V30 3619 C 348.404 -1.5465 3.2675 0
M  V30 3620 O 348.125 -0.646278 4.33307 0
M  V30 3621 C 349.626 -2.35497 3.75574 0
M  V30 3622 H 346.846 -0.216835 0.634999 0
M  V30 3623 H 349.39 -0.0226146 2.04487 0
M  V30 3624 H 347.545 -2.24165 3.15957 0
M  V30 3625 H 347.959 -1.19093 5.108 0
M  V30 3626 H 349.433 -2.85722 4.72299 0
M  V30 3627 H 349.91 -3.15692 3.05344 0
M  V30 3628 H 350.516 -1.7111 3.8936 0
M  V30 3629 N 348.832 -1.54138 -0.328536 0
M  V30 3630 C 349.764 -1.79509 -1.4251 0
M  V30 3631 C 350.777 -0.67688 -1.48061 0
M  V30 3632 O 351.966 -0.953898 -1.50874 0
M  V30 3633 C 349.066 -1.89337 -2.81078 0
M  V30 3634 C 348.239 -3.19443 -2.98789 0
M  V30 3635 C 347.298 -3.20036 -4.17688 0
M  V30 3636 O 346.324 -3.93697 -4.11086 0
M  V30 3637 N 347.526 -2.43467 -5.26976 0
M  V30 3638 H 350.291 -2.74139 -1.21111 0
M  V30 3639 H 347.852 -1.53373 -0.518499 0
M  V30 3640 H 349.844 -1.87167 -3.58818 0
M  V30 3641 H 348.414 -1.01826 -2.95551 0
M  V30 3642 H 347.634 -3.34614 -2.08391 0
M  V30 3643 H 348.922 -4.05354 -3.07515 0
M  V30 3644 H 348.32 -1.83201 -5.35214 0
M  V30 3645 H 346.877 -2.4708 -6.03154 0
M  V30 3646 N 350.31 0.590341 -1.46126 0
M  V30 3647 C 351.559 1.34499 -1.50309 0
M  V30 3648 C 351.872 1.94977 -0.156021 0
M  V30 3649 O 353.078 2.71395 -0.0756037 0
M  V30 3650 C 351.534 2.43723 -2.64815 0
M  V30 3651 C 351.142 1.89582 -4.0591 0
M  V30 3652 C 352.886 3.20579 -2.78262 0
M  V30 3653 C 350.793 2.9639 -5.11769 0
M  V30 3654 H 349.723 0.505593 -0.559368 0
M  V30 3655 H 352.374 0.630848 -1.72315 0
M  V30 3656 H 350.756 3.17902 -2.36124 0
M  V30 3657 H 351.93 1.21997 -4.44357 0
M  V30 3658 H 350.245 1.25418 -3.97063 0
M  V30 3659 H 352.842 4.00276 -3.54519 0
M  V30 3660 H 353.185 3.72684 -1.85505 0
M  V30 3661 H 353.718 2.53505 -3.06562 0
M  V30 3662 H 350.457 2.49181 -6.06291 0
M  V30 3663 H 349.977 3.62487 -4.77873 0
M  V30 3664 H 351.656 3.60474 -5.37278 0
M  V30 3665 N 351.788 1.33704 0.83433 0
M  V30 3666 C 353.013 1.28615 1.62705 0
M  V30 3667 C 353.438 -0.139242 1.87584 0
M  V30 3668 O 352.796 -1.09734 1.4432 0
M  V30 3669 C 352.844 2.07139 2.95171 0
M  V30 3670 O 351.948 1.4331 3.86699 0
M  V30 3671 H 351.289 0.44226 0.49528 0
M  V30 3672 H 353.819 1.76335 1.03766 0
M  V30 3673 H 353.829 2.18073 3.44831 0
M  V30 3674 H 352.504 3.10779 2.76386 0
M  V30 3675 H 351.081 1.4105 3.45195 0
M  V30 3676 N 353.266 -1.05314 1.17247 0
M  V30 3677 C 354.682 -1.30452 0.919473 0
M  V30 3678 C 354.882 -1.9703 -0.42209 0
M  V30 3679 O 353.938 -2.24311 -1.15935 0
M  V30 3680 C 355.251 -2.17551 2.07586 0
M  V30 3681 C 356.799 -2.30937 2.11275 0
M  V30 3682 C 357.274 -3.21396 3.26296 0
M  V30 3683 N 358.765 -3.28981 3.26076 0
M  V30 3684 C 359.5 -3.99095 4.11716 0
M  V30 3685 N 358.996 -4.71648 5.07465 0
M  V30 3686 N 360.789 -3.95247 3.9967 0
M  V30 3687 H 352.94 -0.604988 2.03602 0
M  V30 3688 H 355.203 -0.329368 0.888944 0
M  V30 3689 H 354.909 -1.75921 3.0454 0
M  V30 3690 H 354.783 -3.18182 2.02584 0
M  V30 3691 H 357.17 -2.71809 1.14907 0
M  V30 3692 H 357.251 -1.2994 2.20339 0
M  V30 3693 H 356.895 -2.81238 4.22927 0
M  V30 3694 H 356.825 -4.22395 3.14467 0
M  V30 3695 H 359.316 -2.77286 2.5675 0
M  V30 3696 H 359.629 -5.22705 5.6921 0
M  V30 3697 H 357.974 -4.70594 5.11435 0
M  V30 3698 H 361.165 -3.37691 3.24164 0
M  V30 3699 H 361.338 -4.4962 4.66632 0
M  V30 3700 N 354.744 -0.972509 -1.24016 0
M  V30 3701 C 355.654 -0.5143 -2.28893 0
M  V30 3702 C 356.67 0.427078 -1.68677 0
M  V30 3703 O 357.846 0.298939 -1.99169 0
M  V30 3704 C 354.911 0.183598 -3.46214 0
M  V30 3705 C 353.972 -0.798202 -4.21814 0
M  V30 3706 C 353.205 -0.133514 -5.33533 0
M  V30 3707 O 353.428 1.07714 -5.60137 0
M  V30 3708 O 352.362 -0.828103 -5.96176 0
M  V30 3709 H 356.188 -1.38629 -2.70214 0
M  V30 3710 H 353.773 -0.739769 -1.29799 0
M  V30 3711 H 355.655 0.575433 -4.17453 0
M  V30 3712 H 354.33 1.03048 -3.0686 0
M  V30 3713 H 353.237 -1.24059 -3.52931 0
M  V30 3714 H 354.57 -1.61364 -4.64997 0
M  V30 3715 N 356.222 1.38976 -0.743202 0
M  V30 3716 C 357.471 1.99581 -0.291592 0
M  V30 3717 C 357.784 1.59656 1.13001 0
M  V30 3718 O 358.99 2.13157 1.68156 0
M  V30 3719 C 357.446 3.56813 -0.470391 0
M  V30 3720 C 357.054 4.05695 -1.90041 0
M  V30 3721 C 358.798 4.24423 -0.0809709 0
M  V30 3722 C 356.705 5.5553 -2.02832 0
M  V30 3723 H 355.635 0.746615 -0.105272 0
M  V30 3724 H 358.286 1.58872 -0.918258 0
M  V30 3725 H 356.668 3.95359 0.225299 0
M  V30 3726 H 357.842 3.78464 -2.62872 0
M  V30 3727 H 356.157 3.50775 -2.24379 0
M  V30 3728 H 358.754 5.34474 -0.155445 0
M  V30 3729 H 359.097 4.04962 0.96497 0
M  V30 3730 H 359.63 3.9108 -0.728124 0
M  V30 3731 H 356.369 5.79881 -3.05643 0
M  V30 3732 H 355.889 5.84537 -1.34448 0
M  V30 3733 H 357.568 6.21069 -1.81335 0
M  V30 3734 N 357.7 0.491464 1.49741 0
M  V30 3735 C 358.948 -0.0563141 2.02022 0
M  V30 3736 C 359.269 -1.38363 1.37407 0
M  V30 3737 O 358.539 -1.88702 0.526166 0
M  V30 3738 H 357.119 -0.0238014 0.746621 0
M  V30 3739 H 359.781 0.646533 1.83864 0
M  V30 3740 H 358.877 -0.192967 3.11503 0
M  V30 3741 N 359.178 -1.55987 0.224894 0
M  V30 3742 C 360.426 -1.97998 -0.405099 0
M  V30 3743 C 360.747 -1.11387 -1.60056 0
M  V30 3744 O 360.017 -0.191645 -1.9496 0
M  V30 3745 H 358.597 -0.731235 -0.152658 0
M  V30 3746 H 361.259 -1.92279 0.318567 0
M  V30 3747 H 360.355 -3.03463 -0.729167 0
M  V30 3748 N 360.656 0.0484629 -1.57525 0
M  V30 3749 C 361.902 0.744226 -1.88651 0
M  V30 3750 C 362.235 1.76029 -0.820212 0
M  V30 3751 O 361.51 1.93782 0.166985 0
M  V30 3752 C 361.793 1.43128 -3.30434 0
M  V30 3753 C 361.646 0.43005 -4.47739 0
M  V30 3754 C 362.965 2.37031 -3.70816 0
M  V30 3755 H 360.084 0.269089 -0.68612 0
M  V30 3756 H 362.726 0.00713532 -1.89999 0
M  V30 3757 H 360.876 2.05956 -3.29415 0
M  V30 3758 H 362.548 -0.194816 -4.60888 0
M  V30 3759 H 360.791 -0.252522 -4.33064 0
M  V30 3760 H 361.462 0.948874 -5.43783 0
M  V30 3761 H 363.938 1.84263 -3.73077 0
M  V30 3762 H 362.814 2.82094 -4.70865 0
M  V30 3763 H 363.075 3.22864 -3.02012 0
M  V30 3764 N 362.134 1.5431 0.320358 0
M  V30 3765 C 363.374 1.74395 1.0661 0
M  V30 3766 C 363.738 0.508602 1.85141 0
M  V30 3767 O 364.939 0.586856 2.62316 0
M  V30 3768 C 363.21 2.98619 1.96371 0
M  V30 3769 S 364.769 3.39621 2.77854 0
M  V30 3770 H 361.587 0.613204 0.359863 0
M  V30 3771 H 364.189 1.9249 0.341727 0
M  V30 3772 H 362.893 3.86673 1.3752 0
M  V30 3773 H 362.424 2.83055 2.73209 0
M  V30 3774 H 364.439 2.95172 3.98858 0
M  V30 3775 N 363.613 -0.582584 1.46437 0
M  V30 3776 C 364.862 -1.337 1.5102 0
M  V30 3777 C 365.175 -1.94891 0.166359 0
M  V30 3778 O 366.381 -2.71351 0.0899954 0
M  V30 3779 C 364.837 -2.42315 2.66104 0
M  V30 3780 C 364.445 -1.87427 4.06909 0
M  V30 3781 C 366.189 -3.19099 2.79958 0
M  V30 3782 C 364.096 -2.93672 5.13333 0
M  V30 3783 H 363.026 -0.502619 0.562041 0
M  V30 3784 H 365.677 -0.621701 1.72647 0
M  V30 3785 H 364.059 -3.16645 2.37807 0
M  V30 3786 H 365.233 -1.19639 4.44998 0
M  V30 3787 H 363.548 -1.2331 3.97723 0
M  V30 3788 H 366.145 -3.9839 3.56636 0
M  V30 3789 H 366.488 -3.71695 1.87479 0
M  V30 3790 H 367.021 -2.51875 3.07902 0
M  V30 3791 H 363.76 -2.45962 6.07604 0
M  V30 3792 H 363.28 -3.59948 4.79789 0
M  V30 3793 H 364.959 -3.5762 5.39182 0
M  V30 3794 N 365.091 -1.34144 -0.827227 0
M  V30 3795 C 366.054 -1.25264 -1.91942 0
M  V30 3796 C 367.054 -0.168866 -1.59911 0
M  V30 3797 O 368.244 -0.421198 -1.69031 0
M  V30 3798 C 365.376 -0.932952 -3.27885 0
M  V30 3799 H 366.569 -2.22357 -2.0124 0
M  V30 3800 H 364.122 -1.1837 -1.0207 0
M  V30 3801 H 364.857 0.0349917 -3.24281 0
M  V30 3802 H 364.642 -1.71682 -3.52516 0
M  V30 3803 H 366.132 -0.895874 -4.07877 0
M  V30 3804 N 366.569 1.04691 -1.17803 0
M  V30 3805 C 367.501 2.12571 -0.857097 0
M  V30 3806 C 368.514 1.62174 0.142647 0
M  V30 3807 O 369.703 1.78301 -0.0843387 0
M  V30 3808 C 366.803 3.37915 -0.258216 0
M  V30 3809 C 365.976 4.1757 -1.30207 0
M  V30 3810 C 365.035 5.2125 -0.720029 0
M  V30 3811 O 364.061 5.51888 -1.39314 0
M  V30 3812 N 365.263 5.78466 0.485507 0
M  V30 3813 H 368.028 2.40698 -1.78562 0
M  V30 3814 H 365.589 1.20831 -1.07757 0
M  V30 3815 H 367.581 4.04442 0.144584 0
M  V30 3816 H 366.151 3.07281 0.574199 0
M  V30 3817 H 365.371 3.46458 -1.88043 0
M  V30 3818 H 366.659 4.67586 -2.00601 0
M  V30 3819 H 366.057 5.55866 1.05022 0
M  V30 3820 H 364.614 6.4649 0.830307 0
M  V30 3821 N 368.047 0.979072 1.23499 0
M  V30 3822 C 369.272 0.664845 1.96455 0
M  V30 3823 C 369.697 -0.761287 1.72006 0
M  V30 3824 O 369.055 -1.51837 0.990713 0
M  V30 3825 C 369.103 0.959479 3.47601 0
M  V30 3826 O 368.207 0.0508168 4.12369 0
M  V30 3827 H 367.548 0.250185 0.615064 0
M  V30 3828 H 370.078 1.31231 1.5697 0
M  V30 3829 H 370.088 0.895642 3.98048 0
M  V30 3830 H 368.763 1.99876 3.64723 0
M  V30 3831 H 367.34 0.16895 3.72517 0
M  V30 3832 N 369.525 -1.3858 0.750561 0
M  V30 3833 C 370.457 -2.29057 0.0810714 0
M  V30 3834 C 371.47 -1.47596 -0.686973 0
M  V30 3835 O 372.659 -1.70495 -0.528563 0
M  V30 3836 C 369.759 -3.26475 -0.909247 0
M  V30 3837 C 368.932 -4.36945 -0.199478 0
M  V30 3838 C 367.991 -5.14572 -1.10011 0
M  V30 3839 O 367.017 -5.66321 -0.57177 0
M  V30 3840 N 368.219 -5.27262 -2.42849 0
M  V30 3841 H 370.984 -2.87153 0.858087 0
M  V30 3842 H 368.545 -1.50328 0.60109 0
M  V30 3843 H 370.537 -3.75285 -1.51471 0
M  V30 3844 H 369.107 -2.69298 -1.58736 0
M  V30 3845 H 368.327 -3.8981 0.586664 0
M  V30 3846 H 369.615 -5.07963 0.291783 0
M  V30 3847 H 369.013 -4.86763 -2.88233 0
M  V30 3848 H 367.57 -5.79456 -2.98453 0
M  V30 3849 N 371.003 -0.499398 -1.49478 0
M  V30 3850 C 371.95 0.279881 -2.29097 0
M  V30 3851 C 372.92 0.961805 -1.3542 0
M  V30 3852 O 374.105 0.968777 -1.64376 0
M  V30 3853 C 371.245 1.33932 -3.18051 0
M  V30 3854 C 370.358 0.669333 -4.26783 0
M  V30 3855 C 369.493 1.70907 -5.02955 0
M  V30 3856 C 368.532 1.02087 -6.03527 0
M  V30 3857 N 367.669 2.00474 -6.7287 0
M  V30 3858 H 372.509 -0.405317 -2.95231 0
M  V30 3859 H 370.046 -0.211726 -1.45568 0
M  V30 3860 H 372.004 1.96553 -3.67998 0
M  V30 3861 H 370.634 1.9933 -2.53904 0
M  V30 3862 H 369.686 -0.0701234 -3.80335 0
M  V30 3863 H 370.998 0.127503 -4.98637 0
M  V30 3864 H 370.152 2.41037 -5.56764 0
M  V30 3865 H 368.891 2.28476 -4.30871 0
M  V30 3866 H 367.896 0.305338 -5.48951 0
M  V30 3867 H 369.121 0.451708 -6.77596 0
M  V30 3868 H 367.067 2.57007 -6.03559 0
M  V30 3869 H 366.984 1.51353 -7.40694 0
M  V30 3870 H 368.252 2.69897 -7.31284 0
M  V30 3871 N 372.481 1.55866 -0.233164 0
M  V30 3872 C 373.73 1.97779 0.39579 0
M  V30 3873 C 374.043 1.12419 1.60066 0
M  V30 3874 O 375.249 1.44283 2.29988 0
M  V30 3875 C 373.705 3.5188 0.755556 0
M  V30 3876 C 373.313 4.45959 -0.427152 0
M  V30 3877 C 375.057 4.02479 1.34946 0
M  V30 3878 C 372.964 5.91383 -0.0443043 0
M  V30 3879 H 371.894 0.738592 0.15165 0
M  V30 3880 H 374.545 1.80486 -0.331212 0
M  V30 3881 H 372.927 3.64816 1.5403 0
M  V30 3882 H 374.101 4.44776 -1.20462 0
M  V30 3883 H 372.416 4.05765 -0.935068 0
M  V30 3884 H 375.013 5.08637 1.649 0
M  V30 3885 H 375.356 3.49014 2.26925 0
M  V30 3886 H 375.889 3.92813 0.62791 0
M  V30 3887 H 372.628 6.48857 -0.930874 0
M  V30 3888 H 372.148 5.95734 0.697238 0
M  V30 3889 H 373.827 6.45893 0.378334 0
M  V30 3890 N 373.959 -0.0401083 1.57549 0
M  V30 3891 C 375.37 -0.588097 1.77196 0
M  V30 3892 C 375.721 -1.76209 0.862832 0
M  V30 3893 O 374.846 -2.16331 0.0548389 0
M  V30 3894 C 375.441 -1.07363 3.21339 0
M  V30 3895 C 374 -1.56723 3.42221 0
M  V30 3896 C 373.147 -0.50041 2.72747 0
M  V30 3897 H 376.098 0.186119 1.57605 0
M  V30 3898 H 376.119 -1.94143 3.27244 0
M  V30 3899 H 375.631 -0.218975 3.87482 0
M  V30 3900 H 373.732 -2.4441 2.81237 0
M  V30 3901 H 373.845 -1.62234 4.50796 0
M  V30 3902 H 372.209 -0.952894 2.36203 0
M  V30 3903 H 372.992 0.344599 3.41566 0
M  V30 3904 N 375.437 -1.54477 -0.31217 0
M  V30 3905 C 376.853 -1.45442 -0.657185 0
M  V30 3906 C 377.053 -0.63653 -1.91182 0
M  V30 3907 O 376.109 -0.139815 -2.52113 0
M  V30 3908 C 377.422 -2.89287 -0.82058 0
M  V30 3909 C 378.97 -2.9926 -0.917188 0
M  V30 3910 C 379.445 -4.44279 -1.11267 0
M  V30 3911 N 380.936 -4.4794 -1.17914 0
M  V30 3912 C 381.671 -5.57318 -1.34848 0
M  V30 3913 N 381.167 -6.76642 -1.48752 0
M  V30 3914 N 382.96 -5.44986 -1.37647 0
M  V30 3915 H 375.111 -2.06129 0.512313 0
M  V30 3916 H 377.374 -0.933088 0.167485 0
M  V30 3917 H 377.08 -3.51687 0.0302604 0
M  V30 3918 H 376.954 -3.36061 -1.71298 0
M  V30 3919 H 379.341 -2.36981 -1.75852 0
M  V30 3920 H 379.422 -2.558 -0.00101257 0
M  V30 3921 H 379.066 -5.07149 -0.27614 0
M  V30 3922 H 378.996 -4.85359 -2.04289 0
M  V30 3923 H 381.487 -3.61969 -1.08567 0
M  V30 3924 H 381.8 -7.55758 -1.61397 0
M  V30 3925 H 380.145 -6.79529 -1.45828 0
M  V30 3926 H 383.336 -4.50715 -1.26388 0
M  V30 3927 H 383.509 -6.3028 -1.50501 0
M  V30 3928 N 376.915 0.57481 -1.46744 0
M  V30 3929 C 377.825 1.711 -1.60505 0
M  V30 3930 C 378.841 1.67008 -0.488307 0
M  V30 3931 O 380.017 1.86774 -0.753495 0
M  V30 3932 C 377.082 3.07608 -1.59932 0
M  V30 3933 C 376.143 3.22904 -2.82898 0
M  V30 3934 C 375.376 4.529 -2.82343 0
M  V30 3935 O 375.599 5.37278 -1.91542 0
M  V30 3936 O 374.533 4.71611 -3.73987 0
M  V30 3937 H 378.359 1.62436 -2.56609 0
M  V30 3938 H 375.944 0.742779 -1.29627 0
M  V30 3939 H 377.826 3.88877 -1.62336 0
M  V30 3940 H 376.501 3.16692 -0.669898 0
M  V30 3941 H 375.408 2.41099 -2.86046 0
M  V30 3942 H 376.741 3.18715 -3.75076 0
M  V30 3943 N 378.394 1.34581 0.820102 0
M  V30 3944 C 379.805 1.24298 1.39309 0
M  V30 3945 C 380.156 -0.130351 1.95767 0
M  V30 3946 O 379.281 -1.0308 1.90272 0
M  V30 3947 C 379.876 2.25054 2.53251 0
M  V30 3948 C 378.435 2.18552 3.0645 0
M  V30 3949 C 377.582 2.11503 1.79337 0
M  V30 3950 H 380.533 1.45906 0.624262 0
M  V30 3951 H 380.554 1.86917 3.31425 0
M  V30 3952 H 380.066 3.24996 2.1213 0
M  V30 3953 H 378.167 1.21976 3.52069 0
M  V30 3954 H 378.28 3.0993 3.65349 0
M  V30 3955 H 376.644 1.57268 2.00347 0
M  V30 3956 H 377.427 3.13284 1.40386 0
M  V30 3957 N 379.872 -1.04064 1.18357 0
M  V30 3958 C 381.288 -1.2947 0.933258 0
M  V30 3959 C 381.488 -1.97466 -0.401169 0
M  V30 3960 O 380.544 -2.25528 -1.13549 0
M  V30 3961 C 381.857 -2.15337 2.09882 0
M  V30 3962 C 383.405 -2.28683 2.13712 0
M  V30 3963 C 383.88 -3.17917 3.29686 0
M  V30 3964 N 385.371 -3.25504 3.29547 0
M  V30 3965 C 386.106 -3.94706 4.15926 0
M  V30 3966 N 385.602 -4.66239 5.12439 0
M  V30 3967 N 387.395 -3.90986 4.0384 0
M  V30 3968 H 379.546 -0.583359 2.04232 0
M  V30 3969 H 381.809 -0.319921 0.892387 0
M  V30 3970 H 381.515 -1.72682 3.06389 0
M  V30 3971 H 381.389 -3.16015 2.05947 0
M  V30 3972 H 383.776 -2.70575 1.17784 0
M  V30 3973 H 383.857 -1.27596 2.21705 0
M  V30 3974 H 383.501 -2.76736 4.25887 0
M  V30 3975 H 383.431 -4.19036 3.1893 0
M  V30 3976 H 385.922 -2.74547 2.59677 0
M  V30 3977 H 386.235 -5.16638 5.74722 0
M  V30 3978 H 384.58 -4.65143 5.16398 0
M  V30 3979 H 387.771 -3.34234 3.27727 0
M  V30 3980 H 387.944 -4.44646 4.71375 0
M  V30 3981 N 381.35 -0.985608 -1.22978 0
M  V30 3982 C 382.761 -0.693593 -1.73338 0
M  V30 3983 C 383.112 0.789935 -1.79595 0
M  V30 3984 O 382.237 1.61771 -1.43733 0
M  V30 3985 C 382.832 -1.25235 -3.14804 0
M  V30 3986 C 381.391 -1.00987 -3.626 0
M  V30 3987 C 380.538 -1.37695 -2.40698 0
M  V30 3988 H 383.489 -1.15884 -1.08428 0
M  V30 3989 H 383.51 -0.627329 -3.75293 0
M  V30 3990 H 383.022 -2.33209 -3.10218 0
M  V30 3991 H 381.123 0.0535565 -3.72562 0
M  V30 3992 H 381.236 -1.66812 -4.49122 0
M  V30 3993 H 379.6 -0.795459 -2.4196 0
M  V30 3994 H 380.383 -2.46657 -2.38779 0
M  V30 3995 N 382.828 1.3818 -0.7579 0
M  V30 3996 C 384.076 1.99624 -0.315361 0
M  V30 3997 C 384.397 1.60464 1.10799 0
M  V30 3998 O 383.667 0.863507 1.75842 0
M  V30 3999 H 382.247 0.73831 -0.113611 0
M  V30 4000 H 384.909 1.68878 -0.972952 0
M  V30 4001 H 384.005 3.09754 -0.381931 0
M  V30 4002 N 384.306 0.507319 1.49211 0
M  V30 4003 C 385.216 -0.272136 2.33016 0
M  V30 4004 C 386.232 -0.961206 1.45041 0
M  V30 4005 O 387.408 -0.941191 1.78055 0
M  V30 4006 C 384.473 -1.31895 3.20631 0
M  V30 4007 C 383.534 -0.642648 4.24463 0
M  V30 4008 C 382.767 -1.63959 5.07891 0
M  V30 4009 O 382.99 -2.87007 4.92933 0
M  V30 4010 O 381.924 -1.19143 5.8999 0
M  V30 4011 H 385.75 0.413982 3.00865 0
M  V30 4012 H 383.335 0.268556 1.46966 0
M  V30 4013 H 385.217 -1.92446 3.7489 0
M  V30 4014 H 383.892 -1.98788 2.5547 0
M  V30 4015 H 382.799 0.00276252 3.741 0
M  V30 4016 H 384.132 -0.0160534 4.92197 0
M  V30 4017 N 385.784 -1.5574 0.241426 0
M  V30 4018 C 387.031 -1.9881 -0.384836 0
M  V30 4019 C 387.359 -1.12947 -1.58346 0
M  V30 4020 O 386.614 -0.178993 -1.9488 0
M  V30 4021 C 386.913 -3.47308 -0.843317 0
M  V30 4022 C 386.579 -4.50223 0.246946 0
M  V30 4023 C 385.241 -4.78088 0.546399 0
M  V30 4024 C 387.593 -5.11841 0.983282 0
M  V30 4025 C 384.921 -5.64846 1.58636 0
M  V30 4026 C 387.273 -5.99727 2.01272 0
M  V30 4027 C 385.937 -6.25927 2.31888 0
M  V30 4028 H 385.207 -0.727496 -0.140821 0
M  V30 4029 H 387.854 -1.8831 0.348106 0
M  V30 4030 H 386.159 -3.55112 -1.65537 0
M  V30 4031 H 387.856 -3.78017 -1.33806 0
M  V30 4032 H 384.446 -4.286 0.00340639 0
M  V30 4033 H 388.63 -4.90366 0.765182 0
M  V30 4034 H 383.886 -5.83403 1.82896 0
M  V30 4035 H 388.06 -6.46517 2.58823 0
M  V30 4036 H 385.687 -6.92949 3.12611 0
M  V30 4037 N 387.262 0.0317525 -1.57568 0
M  V30 4038 C 388.172 1.05021 -2.0978 0
M  V30 4039 C 389.188 1.39809 -1.03583 0
M  V30 4040 O 390.364 1.49182 -1.35302 0
M  V30 4041 C 387.429 2.33301 -2.56459 0
M  V30 4042 C 386.49 2.0512 -3.77127 0
M  V30 4043 C 385.723 3.27283 -4.2157 0
M  V30 4044 O 385.946 4.37861 -3.65559 0
M  V30 4045 O 384.88 3.13141 -5.14029 0
M  V30 4046 H 388.706 0.636505 -2.96955 0
M  V30 4047 H 386.291 0.248559 -1.47318 0
M  V30 4048 H 388.173 3.08722 -2.86825 0
M  V30 4049 H 386.848 2.73973 -1.72397 0
M  V30 4050 H 385.755 1.27276 -3.51784 0
M  V30 4051 H 387.088 1.69305 -4.62165 0
M  V30 4052 N 388.74 1.54641 0.303973 0
M  V30 4053 C 389.687 1.85386 1.37479 0
M  V30 4054 C 390.657 0.702528 1.50512 0
M  V30 4055 O 391.842 0.950867 1.65418 0
M  V30 4056 C 388.982 2.10413 2.73533 0
M  V30 4057 C 388.095 3.38049 2.68974 0
M  V30 4058 C 387.23 3.52934 3.97002 0
M  V30 4059 C 386.269 4.74373 3.86829 0
M  V30 4060 N 385.406 4.8608 5.06627 0
M  V30 4061 H 390.246 2.76732 1.1056 0
M  V30 4062 H 387.783 1.37034 0.534805 0
M  V30 4063 H 389.741 2.22919 3.52652 0
M  V30 4064 H 388.371 1.22338 2.98719 0
M  V30 4065 H 387.423 3.3418 1.81736 0
M  V30 4066 H 388.735 4.27288 2.57346 0
M  V30 4067 H 387.889 3.65088 4.84557 0
M  V30 4068 H 386.628 2.61824 4.1146 0
M  V30 4069 H 385.633 4.62255 2.97658 0
M  V30 4070 H 386.858 5.66888 3.73918 0
M  V30 4071 H 384.804 3.97891 5.21554 0
M  V30 4072 H 384.721 5.69315 4.9741 0
M  V30 4073 H 385.989 5.02587 5.95841 0
M  V30 4074 N 390.218 -0.567019 1.47046 0
M  V30 4075 C 391.467 -1.32091 1.5243 0
M  V30 4076 C 391.78 -1.94704 0.187021 0
M  V30 4077 O 392.986 -2.7124 0.118771 0
M  V30 4078 C 391.442 -2.39479 2.68659 0
M  V30 4079 C 391.05 -1.831 4.08874 0
M  V30 4080 C 392.794 -3.16111 2.83327 0
M  V30 4081 C 390.701 -2.8821 5.16419 0
M  V30 4082 H 389.631 -0.496629 0.56734 0
M  V30 4083 H 392.282 -0.603354 1.73297 0
M  V30 4084 H 390.664 -3.14105 2.41152 0
M  V30 4085 H 391.838 -1.14913 4.46242 0
M  V30 4086 H 390.153 -1.19085 3.99008 0
M  V30 4087 H 392.75 -3.94585 3.60842 0
M  V30 4088 H 393.093 -3.69686 1.91411 0
M  V30 4089 H 393.626 -2.48595 3.10556 0
M  V30 4090 H 390.365 -2.39504 6.10179 0
M  V30 4091 H 389.885 -3.54839 4.8358 0
M  V30 4092 H 391.564 -3.51881 5.42945 0
M  V30 4093 N 391.696 -1.35014 -0.812953 0
M  V30 4094 C 392.945 -1.27269 -1.56479 0
M  V30 4095 C 393.258 0.152771 -1.95002 0
M  V30 4096 O 394.464 0.352451 -2.69203 0
M  V30 4097 C 392.92 -2.23159 -2.82362 0
M  V30 4098 C 392.528 -3.71016 -2.511 0
M  V30 4099 C 394.272 -2.24342 -3.60376 0
M  V30 4100 C 392.179 -4.58746 -3.73237 0
M  V30 4101 H 391.109 -0.472829 -0.587324 0
M  V30 4102 H 393.76 -1.6024 -0.894171 0
M  V30 4103 H 392.142 -1.83151 -3.51101 0
M  V30 4104 H 393.316 -4.1962 -1.90409 0
M  V30 4105 H 391.631 -3.72378 -1.86343 0
M  V30 4106 H 394.228 -2.87107 -4.51081 0
M  V30 4107 H 394.571 -1.24542 -3.97234 0
M  V30 4108 H 395.104 -2.62846 -2.98591 0
M  V30 4109 H 391.843 -5.59521 -3.41492 0
M  V30 4110 H 391.363 -4.14871 -4.33176 0
M  V30 4111 H 393.042 -4.73852 -4.40537 0
M  V30 4112 N 393.175 1.03435 -1.18907 0
M  V30 4113 C 394.122 2.11591 -0.921837 0
M  V30 4114 C 395.092 1.65499 0.141226 0
M  V30 4115 O 396.277 1.908 0.000242829 0
M  V30 4116 C 393.417 3.42012 -0.460616 0
M  V30 4117 C 392.53 4.01682 -1.58982 0
M  V30 4118 C 391.665 5.20091 -1.08069 0
M  V30 4119 C 390.704 5.71805 -2.18416 0
M  V30 4120 N 389.841 6.81494 -1.68849 0
M  V30 4121 H 394.681 2.33787 -1.8479 0
M  V30 4122 H 392.218 1.1467 -0.921373 0
M  V30 4123 H 394.176 4.16834 -0.174642 0
M  V30 4124 H 392.806 3.19944 0.428467 0
M  V30 4125 H 391.858 3.24127 -1.99113 0
M  V30 4126 H 393.17 4.36084 -2.4214 0
M  V30 4127 H 392.324 6.02051 -0.749615 0
M  V30 4128 H 391.063 4.87209 -0.218771 0
M  V30 4129 H 390.068 4.88461 -2.5236 0
M  V30 4130 H 391.293 6.06728 -3.05054 0
M  V30 4131 H 389.239 6.50475 -0.849572 0
M  V30 4132 H 389.156 7.14994 -2.45601 0
M  V30 4133 H 390.424 7.67063 -1.38689 0
M  V30 4134 N 394.653 0.992116 1.22453 0
M  V30 4135 C 396.069 0.702713 1.43297 0
M  V30 4136 C 396.269 -0.726909 1.87932 0
M  V30 4137 O 395.325 -1.49792 2.0327 0
M  V30 4138 C 396.638 1.70762 2.47509 0
M  V30 4139 C 398.186 1.72298 2.61309 0
M  V30 4140 C 398.661 2.71649 3.68742 0
M  V30 4141 N 400.152 2.70239 3.76199 0
M  V30 4142 C 400.887 3.43778 4.58917 0
M  V30 4143 N 400.383 4.26914 5.45633 0
M  V30 4144 N 402.176 3.32487 4.5322 0
M  V30 4145 H 394.327 1.91543 0.917871 0
M  V30 4146 H 396.59 0.826031 0.465162 0
M  V30 4147 H 396.296 2.73059 2.21657 0
M  V30 4148 H 396.17 1.49985 3.46099 0
M  V30 4149 H 398.557 0.706989 2.86506 0
M  V30 4150 H 398.638 1.97143 1.62997 0
M  V30 4151 H 398.282 3.73397 3.44292 0
M  V30 4152 H 398.212 2.44074 4.66622 0
M  V30 4153 H 400.703 2.09912 3.14237 0
M  V30 4154 H 401.016 4.79855 6.05771 0
M  V30 4155 H 399.361 4.31002 5.45218 0
M  V30 4156 H 402.552 2.6698 3.84499 0
M  V30 4157 H 402.725 3.90058 5.17454 0
M  V30 4158 N 396.131 -1.37776 0.765217 0
M  V30 4159 C 397.061 -2.32945 0.160953 0
M  V30 4160 C 398.042 -1.55454 -0.690516 0
M  V30 4161 O 399.227 -1.83721 -0.629318 0
M  V30 4162 C 396.357 -3.39669 -0.724031 0
M  V30 4163 C 395.311 -4.27992 0.0256173 0
M  V30 4164 C 394.637 -5.25673 -0.978383 0
M  V30 4165 C 395.937 -5.08309 1.20082 0
M  V30 4166 H 397.631 -2.83728 0.955969 0
M  V30 4167 H 395.177 -1.36416 0.461149 0
M  V30 4168 H 397.13 -4.05219 -1.15652 0
M  V30 4169 H 395.854 -2.87396 -1.5515 0
M  V30 4170 H 394.513 -3.63964 0.438812 0
M  V30 4171 H 394.161 -4.69682 -1.80022 0
M  V30 4172 H 393.861 -5.85625 -0.481378 0
M  V30 4173 H 395.385 -5.94098 -1.40995 0
M  V30 4174 H 396.799 -5.67034 0.845307 0
M  V30 4175 H 395.196 -5.77554 1.62947 0
M  V30 4176 H 396.266 -4.41365 2.00811 0
M  V30 4177 N 397.609 -0.515225 -1.4894 0
M  V30 4178 C 398.539 0.244628 -2.32215 0
M  V30 4179 C 399.52 0.949136 -1.41157 0
M  V30 4180 O 400.705 0.937783 -1.70057 0
M  V30 4181 C 397.835 1.30096 -3.22013 0
M  V30 4182 C 396.789 0.715486 -4.21977 0
M  V30 4183 C 396.115 1.87339 -5.00808 0
M  V30 4184 C 397.415 -0.302982 -5.2142 0
M  V30 4185 H 399.109 -0.450501 -2.95991 0
M  V30 4186 H 396.655 -0.218098 -1.42339 0
M  V30 4187 H 398.608 1.84037 -3.79089 0
M  V30 4188 H 397.332 2.02547 -2.56207 0
M  V30 4189 H 395.991 0.197715 -3.66066 0
M  V30 4190 H 395.639 2.58592 -4.31438 0
M  V30 4191 H 395.339 1.48764 -5.68457 0
M  V30 4192 H 396.863 2.41686 -5.60732 0
M  V30 4193 H 398.277 0.148802 -5.73107 0
M  V30 4194 H 396.674 -0.60532 -5.97039 0
M  V30 4195 H 397.744 -1.21395 -4.69459 0
M  V30 4196 N 399.087 1.5561 -0.249682 0
M  V30 4197 C 399.997 2.25143 0.659375 0
M  V30 4198 C 401.013 1.2685 1.19101 0
M  V30 4199 O 402.189 1.59732 1.22669 0
M  V30 4200 C 399.254 2.93945 1.8384 0
M  V30 4201 C 398.315 4.07655 1.34596 0
M  V30 4202 C 397.548 4.73167 2.46878 0
M  V30 4203 O 397.771 4.37768 3.65671 0
M  V30 4204 O 396.705 5.61623 2.16478 0
M  V30 4205 H 400.531 3.03545 0.0968698 0
M  V30 4206 H 398.116 1.49389 -0.018074 0
M  V30 4207 H 399.998 3.37271 2.52638 0
M  V30 4208 H 398.673 2.18481 2.38847 0
M  V30 4209 H 397.58 3.68839 0.625174 0
M  V30 4210 H 398.913 4.84946 0.841941 0
M  V30 4211 N 400.565 -0.0233959 1.57583 0
M  V30 4212 C 401.793 -0.724682 1.93794 0
M  V30 4213 C 402.208 -1.68588 0.849912 0
M  V30 4214 O 401.565 -1.81676 -0.173204 0
M  V30 4215 C 401.616 -1.47684 3.29957 0
M  V30 4216 O 401.337 -0.554222 4.3458 0
M  V30 4217 C 402.838 -2.27477 3.80485 0
M  V30 4218 H 400.058 -0.203317 0.639455 0
M  V30 4219 H 402.602 0.0207653 2.04489 0
M  V30 4220 H 400.757 -2.17412 3.20641 0
M  V30 4221 H 401.171 -1.08232 5.13212 0
M  V30 4222 H 402.645 -2.7564 4.78254 0
M  V30 4223 H 403.122 -3.09144 3.11972 0
M  V30 4224 H 403.728 -1.62813 3.92902 0
M  V30 4225 N 402.043 -1.548 -0.295768 0
M  V30 4226 C 403.454 -1.65274 -0.868411 0
M  V30 4227 C 403.805 -0.56481 -1.87894 0
M  V30 4228 O 402.93 0.29767 -2.14343 0
M  V30 4229 C 403.525 -2.99603 -1.58188 0
M  V30 4230 C 402.084 -3.12181 -2.10286 0
M  V30 4231 C 401.231 -2.6098 -0.93727 0
M  V30 4232 H 404.182 -1.58534 -0.0726422 0
M  V30 4233 H 404.203 -2.91319 -2.44772 0
M  V30 4234 H 403.715 -3.78764 -0.846151 0
M  V30 4235 H 401.816 -2.3775 -2.8689 0
M  V30 4236 H 401.929 -4.18415 -2.33379 0
M  V30 4237 H 400.293 -2.17564 -1.32431 0
M  V30 4238 H 401.076 -3.42623 -0.215414 0
M  V30 4239 N 403.521 0.559213 -1.47345 0
M  V30 4240 C 404.469 1.68747 -1.60085 0
M  V30 4241 C 405.463 1.628 -0.46825 0
M  V30 4242 O 406.669 1.68009 -0.645977 0
M  V30 4243 H 403.044 0.558329 -0.503759 0
M  V30 4244 H 405.015 1.55138 -2.54902 0
M  V30 4245 C 403.764 3.07103 -1.63042 0
M  V30 4246 H 403.087 3.12361 -2.49541 0
M  V30 4247 H 404.527 3.85743 -1.76006 0
M  V30 4248 C 402.986 3.34935 -0.363357 0
M  V30 4249 O 403.516 3.98102 0.536416 0
M  V30 4250 N 401.722 2.89574 -0.244 0
M  V30 4251 H 401.269 2.38348 -0.977133 0
M  V30 4252 H 401.227 3.08566 0.602836 0
M  V30 4253 N 404.999 1.35443 0.805782 0
M  V30 4254 C 405.962 1.28301 1.89925 0
M  V30 4255 C 406.962 0.194285 1.59622 0
M  V30 4256 O 408.152 0.448036 1.6834 0
M  V30 4257 C 405.284 0.984997 3.2636 0
M  V30 4258 H 406.477 2.2553 1.97677 0
M  V30 4259 H 404.03 1.19979 1.00173 0
M  V30 4260 H 404.765 0.016603 3.24296 0
M  V30 4261 H 404.55 1.77269 3.4974 0
M  V30 4262 H 406.04 0.960651 4.064 0
M  V30 4263 N 406.477 -1.02803 1.19454 0
M  V30 4264 C 407.893 -1.28473 0.946937 0
M  V30 4265 C 408.093 -1.97881 -0.380202 0
M  V30 4266 O 407.149 -2.26719 -1.11151 0
M  V30 4267 C 408.462 -2.13099 2.12154 0
M  V30 4268 C 410.01 -2.26404 2.16126 0
M  V30 4269 C 410.485 -3.14402 3.33039 0
M  V30 4270 N 411.976 -3.21991 3.32981 0
M  V30 4271 C 412.711 -3.90272 4.20089 0
M  V30 4272 N 412.207 -4.60777 5.17355 0
M  V30 4273 N 414 -3.8668 4.07964 0
M  V30 4274 H 406.151 -0.561665 2.04839 0
M  V30 4275 H 408.414 -0.310438 0.89573 0
M  V30 4276 H 408.12 -1.69422 3.08203 0
M  V30 4277 H 407.994 -3.13813 2.09287 0
M  V30 4278 H 410.381 -2.69311 1.20647 0
M  V30 4279 H 410.462 -1.25237 2.23045 0
M  V30 4280 H 410.106 -2.72204 4.28798 0
M  V30 4281 H 410.036 -4.1563 3.23356 0
M  V30 4282 H 412.527 -2.71778 2.62574 0
M  V30 4283 H 412.84 -5.10513 5.80169 0
M  V30 4284 H 411.185 -4.5964 5.21302 0
M  V30 4285 H 414.376 -3.30739 3.31254 0
M  V30 4286 H 414.549 -4.39621 4.76064 0
M  V30 4287 N 407.956 -0.998596 -1.21925 0
M  V30 4288 C 408.919 -0.558679 -2.22287 0
M  V30 4289 C 409.919 0.361525 -1.56683 0
M  V30 4290 O 411.109 0.152695 -1.73529 0
M  V30 4291 C 408.241 0.18661 -3.40389 0
M  V30 4292 H 409.434 -1.4463 -2.62721 0
M  V30 4293 H 406.987 -0.786413 -1.35075 0
M  V30 4294 H 407.722 1.08996 -3.05435 0
M  V30 4295 H 407.507 -0.474188 -3.89222 0
M  V30 4296 H 408.997 0.482367 -4.14805 0
M  V30 4297 N 409.434 1.37368 -0.772513 0
M  V30 4298 C 410.68 1.99969 -0.337681 0
M  V30 4299 C 411.013 1.61184 1.08321 0
M  V30 4300 O 410.288 0.858395 1.74533 0
M  V30 4301 C 410.571 3.56858 -0.482121 0
M  V30 4302 C 410.424 4.0555 -1.94549 0
M  V30 4303 C 411.743 4.39955 0.113143 0
M  V30 4304 H 408.862 0.726464 -0.124171 0
M  V30 4305 H 411.504 1.63034 -0.975699 0
M  V30 4306 H 409.654 3.88452 0.0610361 0
M  V30 4307 H 411.326 3.84518 -2.54841 0
M  V30 4308 H 409.569 3.57715 -2.45403 0
M  V30 4309 H 410.24 5.14587 -1.9976 0
M  V30 4310 H 412.716 4.14623 -0.35031 0
M  V30 4311 H 411.592 5.48897 -0.0180514 0
M  V30 4312 H 411.853 4.25403 1.20354 0
M  V30 4313 N 410.912 0.523116 1.48665 0
M  V30 4314 C 412.161 -0.01544 2.01694 0
M  V30 4315 C 412.474 -1.35975 1.40606 0
M  V30 4316 O 413.68 -1.98627 1.85093 0
M  V30 4317 C 412.136 -0.0779303 3.59816 0
M  V30 4318 C 411.744 1.26107 4.29885 0
M  V30 4319 C 413.488 -0.565678 4.20714 0
M  V30 4320 C 411.395 1.15954 5.79921 0
M  V30 4321 H 410.325 -0.00954163 0.75394 0
M  V30 4322 H 412.976 0.665865 1.70993 0
M  V30 4323 H 411.358 -0.824165 3.87329 0
M  V30 4324 H 412.532 2.02233 4.14051 0
M  V30 4325 H 410.847 1.68401 3.80828 0
M  V30 4326 H 413.444 -0.6595 5.30617 0
M  V30 4327 H 413.787 -1.56984 3.85567 0
M  V30 4328 H 414.32 0.12467 3.97605 0
M  V30 4329 H 411.059 2.13864 6.19631 0
M  V30 4330 H 410.579 0.439529 5.98187 0
M  V30 4331 H 412.258 0.847361 6.41427 0
M  V30 4332 N 412.39 -1.55475 0.257931 0
M  V30 4333 C 413.323 -2.179 -0.677862 0
M  V30 4334 C 414.301 -1.13448 -1.16483 0
M  V30 4335 O 415.485 -1.41889 -1.24095 0
M  V30 4336 C 412.612 -2.78851 -1.92249 0
M  V30 4337 C 411.658 -3.96454 -1.57246 0
M  V30 4338 S 412.491 -5.31349 -0.665501 0
M  V30 4339 C 413.647 -5.9576 -1.91889 0
M  V30 4340 H 413.88 -2.96934 -0.147396 0
M  V30 4341 H 411.413 -1.54342 0.0423023 0
M  V30 4342 H 413.371 -3.14602 -2.63697 0
M  V30 4343 H 412.032 -1.99742 -2.42409 0
M  V30 4344 H 411.225 -4.37731 -2.49814 0
M  V30 4345 H 410.827 -3.62038 -0.938325 0
M  V30 4346 H 413.119 -6.13947 -2.86487 0
M  V30 4347 H 414.062 -6.9094 -1.54942 0
M  V30 4348 H 414.47 -5.2494 -2.076 0
M  V30 4349 N 413.868 0.0150385 -1.57593 0
M  V30 4350 C 415.115 0.703001 -1.89906 0
M  V30 4351 C 415.443 1.74604 -0.856944 0
M  V30 4352 O 414.698 1.95197 0.140287 0
M  V30 4353 C 414.997 1.39686 -3.28972 0
M  V30 4354 C 414.663 0.488457 -4.48246 0
M  V30 4355 C 413.325 0.2383 -4.8061 0
M  V30 4356 C 415.677 -0.137881 -5.21018 0
M  V30 4357 C 413.005 -0.646738 -5.83125 0
M  V30 4358 C 415.357 -1.0107 -6.24474 0
M  V30 4359 C 414.021 -1.27019 -6.55303 0
M  V30 4360 H 413.291 0.257246 -0.694914 0
M  V30 4361 H 415.938 -0.037259 -1.91464 0
M  V30 4362 H 414.243 2.21079 -3.23468 0
M  V30 4363 H 415.94 1.93495 -3.51227 0
M  V30 4364 H 412.53 0.693593 -4.22951 0
M  V30 4365 H 416.714 0.0423953 -4.96282 0
M  V30 4366 H 411.97 -0.855937 -6.05379 0
M  V30 4367 H 416.144 -1.50247 -6.79999 0
M  V30 4368 H 413.771 -1.95769 -7.3456 0
M  V30 4369 N 415.346 1.54954 0.287554 0
M  V30 4370 C 416.309 1.86076 1.33823 0
M  V30 4371 C 417.309 0.734414 1.43049 0
M  V30 4372 O 418.499 1.00266 1.42452 0
M  V30 4373 C 415.631 2.05305 2.72144 0
M  V30 4374 H 416.824 2.79984 1.07465 0
M  V30 4375 H 414.377 1.47223 0.524902 0
M  V30 4376 H 415.112 1.1373 3.03704 0
M  V30 4377 H 414.897 2.873 2.66836 0
M  V30 4378 H 416.387 2.30706 3.48087 0
M  V30 4379 N 416.824 -0.551391 1.4764 0
M  V30 4380 C 417.772 -1.67896 1.60978 0
M  V30 4381 C 418.766 -1.62549 0.476877 0
M  V30 4382 O 419.972 -1.67664 0.654878 0
M  V30 4383 H 416.347 -0.555649 0.506713 0
M  V30 4384 H 418.318 -1.53784 2.55721 0
M  V30 4385 C 417.067 -3.06234 1.64669 0
M  V30 4386 H 416.39 -3.11033 2.51194 0
M  V30 4387 H 417.83 -3.84804 1.7805 0
M  V30 4388 C 416.289 -3.34737 0.381115 0
M  V30 4389 O 416.819 -3.98381 -0.515297 0
M  V30 4390 N 415.025 -2.8944 0.259354 0
M  V30 4391 H 414.572 -2.37827 0.98976 0
M  V30 4392 H 414.53 -3.08882 -0.586464 0
M  V30 4393 N 418.302 -1.35869 -0.798587 0
M  V30 4394 C 419.212 -1.31578 -1.94228 0
M  V30 4395 C 420.228 -0.21939 -1.72611 0
M  V30 4396 O 421.404 -0.450167 -1.96305 0
M  V30 4397 C 418.469 -1.09528 -3.28944 0
M  V30 4398 C 417.53 -2.28556 -3.63402 0
M  V30 4399 C 416.763 -2.07549 -4.9169 0
M  V30 4400 O 416.986 -1.046 -5.60727 0
M  V30 4401 O 415.92 -2.95106 -5.24591 0
M  V30 4402 H 419.746 -2.27847 -2.00796 0
M  V30 4403 H 417.331 -1.16322 -0.937526 0
M  V30 4404 H 419.213 -0.991127 -4.09579 0
M  V30 4405 H 417.888 -0.16315 -3.23289 0
M  V30 4406 H 416.795 -2.44538 -2.83112 0
M  V30 4407 H 418.128 -3.20244 -3.73771 0
M  V30 4408 N 419.78 1.02168 -1.19998 0
M  V30 4409 C 421.057 1.72816 -0.916191 0
M  V30 4410 C 421.437 2.03081 0.576325 0
M  V30 4411 O 420.785 1.69122 1.53656 0
M  V30 4412 C 420.995 2.9997 -1.78378 0
M  V30 4413 C 422.343 3.73336 -2.02251 0
M  V30 4414 O 423.367 3.09914 -1.75589 0
M  V30 4415 O 422.226 4.87371 -2.47249 0
M  V30 4416 H 419.32 0.752924 -0.342103 0
M  V30 4417 H 421.866 1.08062 -1.30846 0
M  V30 4418 H 420.638 2.73888 -2.79466 0
M  V30 4419 H 420.261 3.72464 -1.39126 0
M  V30 4420 N 421.258 1.00505 1.21394 0
M  V30 4421 C 422.535 0.603277 1.86064 0
M  V30 4422 C 422.915 -0.919095 1.90042 0
M  V30 4423 O 422.263 -1.80607 1.39977 0
M  V30 4424 C 422.473 1.23772 3.26315 0
M  V30 4425 C 423.821 1.34586 4.02705 0
M  V30 4426 O 424.845 1.19304 3.35626 0
M  V30 4427 O 423.704 1.59169 5.22807 0
M  V30 4428 H 420.798 0.206634 0.800769 0
M  V30 4429 H 423.344 1.1017 1.29076 0
M  V30 4430 H 422.116 2.27848 3.18121 0
M  V30 4431 H 421.739 0.725648 3.90922 0
M  V30 4432 N 422.737 -1.36956 0.779787 0
M  V30 4433 C 423.986 -1.98738 0.344405 0
M  V30 4434 C 424.299 -1.62596 -1.08728 0
M  V30 4435 O 425.505 -2.1754 -1.62445 0
M  V30 4436 C 423.961 -3.5544 0.564829 0
M  V30 4437 C 423.569 -4.00514 2.0073 0
M  V30 4438 C 425.313 -4.24059 0.193471 0
M  V30 4439 C 423.22 -5.49957 2.17489 0
M  V30 4440 H 422.15 -0.743561 0.12503 0
M  V30 4441 H 424.801 -1.56381 0.960057 0
M  V30 4442 H 423.183 -3.95817 -0.120397 0
M  V30 4443 H 424.357 -3.71362 2.72814 0
M  V30 4444 H 422.672 -3.44703 2.336 0
M  V30 4445 H 425.269 -5.33874 0.297097 0
M  V30 4446 H 425.612 -4.07378 -0.857263 0
M  V30 4447 H 426.145 -3.89012 0.831556 0
M  V30 4448 H 422.884 -5.71574 3.2091 0
M  V30 4449 H 422.404 -5.80767 1.49899 0
M  V30 4450 H 424.083 -6.16043 1.97738 0
M  V30 4451 N 424.215 -0.530993 -1.48385 0
M  V30 4452 C 425.631 -0.188919 -1.58478 0
M  V30 4453 C 425.831 1.30786 -1.53288 0
M  V30 4454 O 424.887 2.08619 -1.42248 0
M  V30 4455 C 426.2 -0.792343 -2.90073 0
M  V30 4456 C 427.748 -0.76117 -3.03604 0
M  V30 4457 C 428.223 -1.34319 -4.37861 0
M  V30 4458 N 429.714 -1.3052 -4.44431 0
M  V30 4459 C 430.449 -1.72543 -5.46824 0
M  V30 4460 N 429.945 -2.22299 -6.56167 0
M  V30 4461 N 431.738 -1.63773 -5.37712 0
M  V30 4462 H 423.889 -1.50377 -1.50002 0
M  V30 4463 H 426.152 -0.625559 -0.712306 0
M  V30 4464 H 425.858 -1.84323 -2.99529 0
M  V30 4465 H 425.732 -0.270026 -3.76232 0
M  V30 4466 H 428.119 0.280957 -2.93759 0
M  V30 4467 H 428.2 -1.32097 -2.19053 0
M  V30 4468 H 427.844 -2.38425 -4.4846 0
M  V30 4469 H 427.774 -0.759064 -5.21101 0
M  V30 4470 H 430.265 -0.940973 -3.65997 0
M  V30 4471 H 430.578 -2.52356 -7.30436 0
M  V30 4472 H 428.923 -2.26293 -6.57127 0
M  V30 4473 H 432.114 -1.24698 -4.51185 0
M  V30 4474 H 432.287 -1.96844 -6.17379 0
M  V30 4475 N 425.693 1.55336 -0.266172 0
M  V30 4476 C 427.109 1.59356 0.0882065 0
M  V30 4477 C 427.309 1.2834 1.55342 0
M  V30 4478 O 426.365 1.03996 2.30089 0
M  V30 4479 C 427.678 2.99409 -0.278364 0
M  V30 4480 C 429.226 3.12196 -0.224243 0
M  V30 4481 C 429.701 4.545 -0.565123 0
M  V30 4482 N 431.192 4.60313 -0.51634 0
M  V30 4483 C 431.927 5.68434 -0.753013 0
M  V30 4484 N 431.423 6.84738 -1.05383 0
M  V30 4485 N 433.216 5.57942 -0.682414 0
M  V30 4486 H 425.367 1.73764 -1.22147 0
M  V30 4487 H 427.63 0.809822 -0.492841 0
M  V30 4488 H 427.336 3.2691 -1.29703 0
M  V30 4489 H 427.21 3.75228 0.385186 0
M  V30 4490 H 429.597 2.84464 0.78512 0
M  V30 4491 H 429.678 2.38609 -0.921922 0
M  V30 4492 H 429.322 4.82956 -1.57213 0
M  V30 4493 H 429.252 5.26374 0.154248 0
M  V30 4494 H 431.743 3.7676 -0.29335 0
M  V30 4495 H 432.056 7.63088 -1.22133 0
M  V30 4496 H 430.401 6.86375 -1.09151 0
M  V30 4497 H 433.592 4.65958 -0.44731 0
M  V30 4498 H 433.765 6.4213 -0.870248 0
M  V30 4499 N 427.171 -0.0066808 1.57599 0
M  V30 4500 C 428.42 -0.692078 1.89455 0
M  V30 4501 C 428.733 -1.75306 0.867586 0
M  V30 4502 O 429.939 -2.49262 1.07614 0
M  V30 4503 C 428.395 -1.2821 3.36289 0
M  V30 4504 C 428.003 -0.256291 4.47266 0
M  V30 4505 C 429.747 -1.94608 3.77264 0
M  V30 4506 C 427.654 -0.855927 5.85173 0
M  V30 4507 H 426.584 -0.262252 0.706923 0
M  V30 4508 H 429.235 0.052769 1.83424 0
M  V30 4509 H 427.617 -2.0774 3.37135 0
M  V30 4510 H 428.791 0.513923 4.57925 0
M  V30 4511 H 427.106 0.306862 4.15268 0
M  V30 4512 H 429.703 -2.40364 4.77629 0
M  V30 4513 H 430.046 -2.77382 3.10427 0
M  V30 4514 H 430.579 -1.21822 3.78688 0
M  V30 4515 H 427.318 -0.0671161 6.55466 0
M  V30 4516 H 426.838 -1.59546 5.78191 0
M  V30 4517 H 428.517 -1.35658 6.32618 0
M  V30 4518 N 428.649 -1.55105 -0.279332 0
M  V30 4519 C 429.579 -1.90557 -1.34945 0
M  V30 4520 C 430.56 -0.766738 -1.51839 0
M  V30 4521 O 431.745 -1.02434 -1.64988 0
M  V30 4522 C 428.875 -2.17193 -2.71006 0
M  V30 4523 C 427.829 -3.33021 -2.68851 0
M  V30 4524 C 427.155 -3.45123 -4.08405 0
M  V30 4525 C 428.455 -4.69578 -2.28678 0
M  V30 4526 H 430.149 -2.80188 -1.05522 0
M  V30 4527 H 427.695 -1.34811 -0.506173 0
M  V30 4528 H 429.648 -2.40581 -3.45975 0
M  V30 4529 H 428.372 -1.24355 -3.01999 0
M  V30 4530 H 427.031 -3.0959 -1.9634 0
M  V30 4531 H 426.679 -2.49762 -4.3661 0
M  V30 4532 H 426.379 -4.22995 -4.07859 0
M  V30 4533 H 427.903 -3.70796 -4.85121 0
M  V30 4534 H 429.317 -4.92553 -2.93368 0
M  V30 4535 H 427.714 -5.5032 -2.39306 0
M  V30 4536 H 428.784 -4.68828 -1.23807 0
M  V30 4537 N 430.127 0.543554 -1.4793 0
M  V30 4538 C 431.037 1.67657 -1.64098 0
M  V30 4539 C 432.053 1.65934 -0.523622 0
M  V30 4540 O 433.229 1.85133 -0.792943 0
M  V30 4541 C 430.294 3.04146 -1.66421 0
M  V30 4542 C 429.355 3.16831 -2.89684 0
M  V30 4543 C 428.588 4.46809 -2.91886 0
M  V30 4544 O 428.811 5.33095 -2.02895 0
M  V30 4545 O 427.745 4.63573 -3.83906 0
M  V30 4546 H 431.571 1.56957 -2.59997 0
M  V30 4547 H 429.156 0.715116 -1.31173 0
M  V30 4548 H 431.038 3.85346 -1.70548 0
M  V30 4549 H 429.713 3.152 -0.736923 0
M  V30 4550 H 428.62 2.34977 -2.91095 0
M  V30 4551 H 429.953 3.10687 -3.81752 0
M  V30 4552 N 431.605 1.3629 0.791371 0
M  V30 4553 C 432.568 1.30309 1.88553 0
M  V30 4554 C 433.568 0.211204 1.59407 0
M  V30 4555 O 434.758 0.465865 1.67855 0
M  V30 4556 C 431.89 1.01956 3.25297 0
M  V30 4557 H 433.083 2.27614 1.95273 0
M  V30 4558 H 430.636 1.21035 0.988953 0
M  V30 4559 H 431.371 0.050998 3.2426 0
M  V30 4560 H 431.156 1.80968 3.4784 0
M  V30 4561 H 432.646 1.0037 4.05359 0
M  V30 4562 N 433.083 -1.0153 1.20538 0
M  V30 4563 C 434.046 -2.0826 0.957098 0
M  V30 4564 C 435.046 -1.60657 -0.0678655 0
M  V30 4565 O 436.236 -1.73385 0.168332 0
M  V30 4566 C 433.368 -3.38033 0.441188 0
M  V30 4567 H 434.561 -2.31719 1.90384 0
M  V30 4568 H 432.114 -1.1835 1.02093 0
M  V30 4569 H 432.849 -3.20249 -0.510961 0
M  V30 4570 H 432.634 -3.73911 1.18038 0
M  V30 4571 H 434.124 -4.16613 0.287009 0
M  V30 4572 N 434.561 -1.01147 -1.20859 0
M  V30 4573 C 435.508 -0.577354 -2.23462 0
M  V30 4574 C 436.478 0.399922 -1.61214 0
M  V30 4575 O 437.663 0.300515 -1.88419 0
M  V30 4576 C 434.803 0.083372 -3.44999 0
M  V30 4577 C 433.916 -0.937856 -4.21697 0
M  V30 4578 C 433.051 -0.248717 -5.30617 0
M  V30 4579 C 432.09 -1.25705 -5.99053 0
M  V30 4580 N 431.227 -0.594939 -6.99575 0
M  V30 4581 H 436.067 -1.45695 -2.59956 0
M  V30 4582 H 433.604 -0.729428 -1.27741 0
M  V30 4583 H 435.562 0.483535 -4.14388 0
M  V30 4584 H 434.192 0.926645 -3.09214 0
M  V30 4585 H 433.244 -1.45622 -3.51423 0
M  V30 4586 H 434.556 -1.70493 -4.68757 0
M  V30 4587 H 433.71 0.207215 -6.06346 0
M  V30 4588 H 432.449 0.55071 -4.84581 0
M  V30 4589 H 431.454 -1.72343 -5.2209 0
M  V30 4590 H 432.679 -2.05767 -6.47176 0
M  V30 4591 H 430.625 0.184713 -6.5574 0
M  V30 4592 H 430.542 -1.30017 -7.44736 0
M  V30 4593 H 431.81 -0.162427 -7.79331 0
M  V30 4594 N 436.039 1.36541 -0.78704 0
M  V30 4595 C 436.986 2.30082 -0.181901 0
M  V30 4596 C 437.956 1.5186 0.672896 0
M  V30 4597 O 439.141 1.80374 0.622072 0
M  V30 4598 C 436.281 3.3835 0.679197 0
M  V30 4599 C 435.394 4.31565 -0.193882 0
M  V30 4600 C 434.529 5.26915 0.673364 0
M  V30 4601 C 433.568 6.11769 -0.201315 0
M  V30 4602 N 432.705 6.99315 0.624777 0
M  V30 4603 H 437.545 2.81248 -0.985064 0
M  V30 4604 H 435.082 1.38437 -0.497342 0
M  V30 4605 H 437.04 3.99767 1.19341 0
M  V30 4606 H 435.67 2.8851 1.44781 0
M  V30 4607 H 434.722 3.71323 -0.826044 0
M  V30 4608 H 436.034 4.91191 -0.867937 0
M  V30 4609 H 435.188 5.9361 1.25348 0
M  V30 4610 H 433.927 4.67737 1.38105 0
M  V30 4611 H 432.932 5.44039 -0.793849 0
M  V30 4612 H 434.157 6.73022 -0.906568 0
M  V30 4613 H 432.103 6.42648 1.3168 0
M  V30 4614 H 432.02 7.56 0.00835237 0
M  V30 4615 H 433.288 7.70382 1.18879 0
M  V30 4616 N 437.518 0.538854 1.48102 0
M  V30 4617 C 438.448 -0.207654 2.32575 0
M  V30 4618 C 439.429 -0.926559 1.4265 0
M  V30 4619 O 440.614 -0.91061 1.71527 0
M  V30 4620 C 437.744 -1.24957 3.24042 0
M  V30 4621 C 436.698 -0.648263 4.23062 0
M  V30 4622 C 436.024 -1.79348 5.03725 0
M  V30 4623 C 437.324 0.385897 5.20872 0
M  V30 4624 H 439.018 0.497534 2.95237 0
M  V30 4625 H 436.564 0.240715 1.41974 0
M  V30 4626 H 438.517 -1.77983 3.81969 0
M  V30 4627 H 437.241 -1.98446 2.59397 0
M  V30 4628 H 435.9 -0.139452 3.66335 0
M  V30 4629 H 435.548 -2.51696 4.35498 0
M  V30 4630 H 435.248 -1.39702 5.70751 0
M  V30 4631 H 436.772 -2.32735 5.64506 0
M  V30 4632 H 438.186 -0.057607 5.73271 0
M  V30 4633 H 436.583 0.700227 5.96001 0
M  V30 4634 H 437.653 1.28848 4.67468 0
M  V30 4635 N 438.996 -1.55193 0.274407 0
M  V30 4636 C 439.944 -2.23924 -0.629362 0
M  V30 4637 C 440.938 -1.23602 -1.1584 0
M  V30 4638 O 442.144 -1.41535 -1.11211 0
M  V30 4639 H 438.519 -0.718637 -0.221507 0
M  V30 4640 H 440.49 -2.98388 -0.0268322 0
M  V30 4641 C 439.239 -2.97329 -1.80252 0
M  V30 4642 H 438.562 -3.74313 -1.40462 0
M  V30 4643 H 440.002 -3.48743 -2.41152 0
M  V30 4644 C 438.461 -2.0276 -2.69054 0
M  V30 4645 O 438.991 -1.57836 -3.69392 0
M  V30 4646 N 437.197 -1.69275 -2.36208 0
M  V30 4647 H 436.744 -2.06004 -1.54661 0
M  V30 4648 H 436.702 -1.06271 -2.95895 0
M  V30 4649 N 440.474 -0.00167713 -1.576 0
M  V30 4650 C 441.406 1.0174 -2.05382 0
M  V30 4651 C 442.419 1.30595 -0.972052 0
M  V30 4652 O 443.608 1.27542 -1.24882 0
M  V30 4653 C 440.708 2.35174 -2.44022 0
M  V30 4654 C 439.881 2.25234 -3.74951 0
M  V30 4655 C 438.94 3.4137 -4.00441 0
M  V30 4656 O 437.966 3.19483 -4.71083 0
M  V30 4657 N 439.168 4.64275 -3.48467 0
M  V30 4658 H 441.933 0.609902 -2.93428 0
M  V30 4659 H 439.494 0.185672 -1.60832 0
M  V30 4660 H 441.486 3.11643 -2.58187 0
M  V30 4661 H 440.056 2.67659 -1.61485 0
M  V30 4662 H 439.276 1.33664 -3.70847 0
M  V30 4663 H 440.564 2.15767 -4.60784 0
M  V30 4664 H 439.962 4.84955 -2.91264 0
M  V30 4665 H 438.519 5.38005 -3.67959 0
M  V30 4666 N 441.952 1.55251 0.271103 0
M  V30 4667 C 443.177 1.80306 1.02491 0
M  V30 4668 C 443.602 0.575457 1.79081 0
M  V30 4669 O 442.96 -0.474987 1.74967 0
M  V30 4670 C 443.008 3.02832 1.95768 0
M  V30 4671 O 442.112 2.78051 3.04568 0
M  V30 4672 H 441.453 0.595896 0.292923 0
M  V30 4673 H 443.983 2.02397 0.299436 0
M  V30 4674 H 443.993 3.31616 2.37686 0
M  V30 4675 H 442.668 3.9183 1.39434 0
M  V30 4676 H 441.245 2.60369 2.66951 0
M  V30 4677 N 443.43 -0.535701 1.48216 0
M  V30 4678 C 444.678 -1.28928 1.55634 0
M  V30 4679 C 444.999 -1.93645 0.229514 0
M  V30 4680 O 444.269 -1.81038 -0.74846 0
M  V30 4681 H 442.849 -0.47884 0.573342 0
M  V30 4682 H 445.511 -0.623853 1.84646 0
M  V30 4683 H 444.607 -2.07157 2.33436 0
M  V30 4684 N 444.908 -1.36708 -0.784132 0
M  V30 4685 C 445.858 -1.2799 -1.88686 0
M  V30 4686 C 446.842 -0.170282 -1.59996 0
M  V30 4687 O 448.034 -0.403571 -1.72338 0
M  V30 4688 C 445.163 -1.07674 -3.25977 0
M  V30 4689 C 444.249 -2.23127 -3.60659 0
M  V30 4690 N 444.64 -3.48467 -3.66612 0
M  V30 4691 C 442.938 -2.15009 -3.90752 0
M  V30 4692 C 443.639 -4.24525 -3.97685 0
M  V30 4693 N 442.615 -3.53524 -4.12943 0
M  V30 4694 H 446.417 -2.22927 -1.91522 0
M  V30 4695 H 443.931 -1.29503 -0.979933 0
M  V30 4696 H 445.928 -0.995151 -4.04849 0
M  V30 4697 H 444.588 -0.13643 -3.24413 0
M  V30 4698 H 445.599 -3.82534 -3.49125 0
M  V30 4699 H 442.276 -1.28963 -3.97083 0
M  V30 4700 H 443.666 -5.32944 -4.0917 0
M  V30 4701 N 446.386 1.0089 -1.21074 0
M  V30 4702 C 447.633 1.74607 -1.0256 0
M  V30 4703 C 447.961 1.89426 0.44136 0
M  V30 4704 O 447.216 1.42266 1.34384 0
M  V30 4705 C 447.515 3.16335 -1.66334 0
M  V30 4706 C 447.181 3.21474 -3.16173 0
M  V30 4707 C 445.843 3.22583 -3.57062 0
M  V30 4708 C 448.195 3.19025 -4.12156 0
M  V30 4709 C 445.523 3.18925 -4.92446 0
M  V30 4710 C 447.875 3.16909 -5.47496 0
M  V30 4711 C 446.539 3.16326 -5.87787 0
M  V30 4712 H 445.809 0.638933 -0.375294 0
M  V30 4713 H 448.456 1.18274 -1.50611 0
M  V30 4714 H 446.761 3.75876 -1.10566 0
M  V30 4715 H 448.458 3.72083 -1.49516 0
M  V30 4716 H 445.048 3.2135 -2.83605 0
M  V30 4717 H 449.232 3.17332 -3.81595 0
M  V30 4718 H 444.488 3.16809 -5.22917 0
M  V30 4719 H 448.662 3.13968 -6.21609 0
M  V30 4720 H 446.289 3.13246 -6.92662 0
M  V30 4721 N 447.864 1.01787 1.20321 0
M  V30 4722 C 448.794 0.609625 2.25401 0
M  V30 4723 C 449.775 -0.375951 1.65893 0
M  V30 4724 O 450.96 -0.261101 1.92437 0
M  V30 4725 C 448.09 -0.0515995 3.47262 0
M  V30 4726 C 447.044 0.855095 4.19371 0
M  V30 4727 C 446.37 0.0595757 5.34667 0
M  V30 4728 C 447.67 2.16374 4.75373 0
M  V30 4729 H 449.364 1.48803 2.59804 0
M  V30 4730 H 446.91 0.716934 1.24884 0
M  V30 4731 H 448.863 -0.348764 4.19954 0
M  V30 4732 H 447.587 -0.964726 3.12027 0
M  V30 4733 H 446.246 1.13628 3.48546 0
M  V30 4734 H 445.894 -0.85524 4.95676 0
M  V30 4735 H 445.594 0.663406 5.83843 0
M  V30 4736 H 447.118 -0.231105 6.10162 0
M  V30 4737 H 448.532 1.92885 5.39878 0
M  V30 4738 H 446.929 2.71853 5.34991 0
M  V30 4739 H 447.999 2.82589 3.94045 0
M  V30 4740 N 449.342 -1.36122 0.79427 0
M  V30 4741 C 450.588 -1.99846 0.378542 0
M  V30 4742 C 450.943 -1.61898 -1.03955 0
M  V30 4743 O 450.236 -0.866013 -1.70912 0
M  V30 4744 C 450.43 -3.5409 0.48527 0
M  V30 4745 C 450.259 -4.0702 1.91219 0
M  V30 4746 C 449.029 -4.36944 2.53787 0
M  V30 4747 C 451.227 -4.26435 2.87502 0
M  V30 4748 N 449.209 -4.75727 3.88017 0
M  V30 4749 C 450.58 -4.68077 4.06576 0
M  V30 4750 C 452.635 -4.08616 2.84495 0
M  V30 4751 C 451.338 -4.93765 5.23057 0
M  V30 4752 C 453.364 -4.35453 4.00169 0
M  V30 4753 C 452.726 -4.77355 5.17988 0
M  V30 4754 H 448.825 -0.759549 0.186034 0
M  V30 4755 H 451.409 -1.65043 1.0329 0
M  V30 4756 H 449.58 -3.88151 -0.139023 0
M  V30 4757 H 451.312 -4.04675 0.0453192 0
M  V30 4758 H 448.067 -4.26822 2.05231 0
M  V30 4759 H 448.491 -4.99396 4.57092 0
M  V30 4760 H 453.133 -3.75373 1.94564 0
M  V30 4761 H 450.851 -5.25887 6.1357 0
M  V30 4762 H 454.437 -4.2323 3.99208 0
M  V30 4763 H 453.317 -4.97718 6.06008 0
M  V30 4764 N 450.82 -0.546701 -1.47814 0
M  V30 4765 C 452.069 -0.0166497 -2.01693 0
M  V30 4766 C 452.382 1.33721 -1.42752 0
M  V30 4767 O 453.588 1.95658 -1.8823 0
M  V30 4768 C 452.044 0.0206769 -3.59894 0
M  V30 4769 C 451.652 -1.3293 -4.27824 0
M  V30 4770 C 453.396 0.498674 -4.21561 0
M  V30 4771 C 451.303 -1.25165 -5.78003 0
M  V30 4772 H 450.233 -0.0024541 -0.753996 0
M  V30 4773 H 452.884 -0.692984 -1.69912 0
M  V30 4774 H 451.266 0.76244 -3.88591 0
M  V30 4775 H 452.44 -2.08795 -4.10781 0
M  V30 4776 H 450.755 -1.74438 -3.78101 0
M  V30 4777 H 453.352 0.575 -5.31599 0
M  V30 4778 H 453.695 1.5083 -3.88016 0
M  V30 4779 H 454.228 -0.18791 -3.97356 0
M  V30 4780 H 450.967 -2.23695 -6.1615 0
M  V30 4781 H 450.487 -0.53464 -5.97412 0
M  V30 4782 H 452.166 -0.949299 -6.39998 0
M  V30 4783 N 452.299 1.55045 -0.282633 0
M  V30 4784 C 453.547 1.99365 0.331334 0
M  V30 4785 C 453.868 1.1725 1.55812 0
M  V30 4786 O 453.138 0.263871 1.94115 0
M  V30 4787 H 451.718 0.736397 0.125414 0
M  V30 4788 H 454.38 1.90964 -0.389711 0
M  V30 4789 H 453.476 3.0596 0.616036 0
M  V30 4790 N 453.777 0.010035 1.57597 0
M  V30 4791 C 455.002 -0.687021 1.95691 0
M  V30 4792 C 455.427 -1.65952 0.885519 0
M  V30 4793 O 454.785 -1.80633 -0.15543 0
M  V30 4794 C 454.833 -1.3864 3.32884 0
M  V30 4795 O 453.937 -2.50115 3.27897 0
M  V30 4796 H 453.278 -0.181989 0.638573 0
M  V30 4797 H 455.808 0.0662122 2.04493 0
M  V30 4798 H 455.818 -1.74754 3.6868 0
M  V30 4799 H 454.493 -0.673411 4.10412 0
M  V30 4800 H 453.07 -2.16253 3.03791 0
M  V30 4801 N 455.255 -1.55392 -0.262866 0
M  V30 4802 C 456.532 -1.67204 -1.01499 0
M  V30 4803 C 456.912 -0.545186 -2.03939 0
M  V30 4804 O 456.26 0.453467 -2.23955 0
M  V30 4805 C 456.47 -3.06847 -1.6627 0
M  V30 4806 C 457.818 -3.64928 -2.17054 0
M  V30 4807 O 458.842 -3.09545 -1.76239 0
M  V30 4808 O 457.701 -4.61984 -2.91947 0
M  V30 4809 H 454.795 -0.679467 -0.471438 0
M  V30 4810 H 457.341 -1.67729 -0.257918 0
M  V30 4811 H 456.113 -3.80309 -0.920915 0
M  V30 4812 H 455.736 -3.10266 -2.48638 0
M  V30 4813 N 456.733 0.527833 -1.48498 0
M  V30 4814 C 457.958 1.313 -1.60546 0
M  V30 4815 C 458.383 1.86199 -0.26672 0
M  V30 4816 O 457.741 1.64513 0.761918 0
M  V30 4817 C 457.789 2.43818 -2.65678 0
M  V30 4818 O 456.893 3.46916 -2.22987 0
M  V30 4819 H 456.234 0.388784 -0.538277 0
M  V30 4820 H 458.764 0.634896 -1.945 0
M  V30 4821 H 458.774 2.89973 -2.87018 0
M  V30 4822 H 457.449 2.03222 -3.62869 0
M  V30 4823 H 456.026 3.06864 -2.11869 0
M  V30 4824 N 458.211 1.37122 0.776871 0
M  V30 4825 C 459.457 1.3325 1.53675 0
M  V30 4826 C 459.812 -0.0839891 1.92217 0
M  V30 4827 O 459.105 -1.04145 1.60824 0
M  V30 4828 C 459.299 2.20068 2.81611 0
M  V30 4829 C 459.128 3.70016 2.55574 0
M  V30 4830 C 457.898 4.39144 2.4996 0
M  V30 4831 C 460.096 4.62996 2.23917 0
M  V30 4832 N 458.078 5.74663 2.15953 0
M  V30 4833 C 459.449 5.86854 2.00005 0
M  V30 4834 C 461.504 4.51433 2.1003 0
M  V30 4835 C 460.207 7.00446 1.63609 0
M  V30 4836 C 462.233 5.64905 1.75033 0
M  V30 4837 C 461.595 6.8781 1.51977 0
M  V30 4838 H 457.694 0.542878 0.562856 0
M  V30 4839 H 460.278 1.72295 0.906784 0
M  V30 4840 H 458.449 1.83248 3.42454 0
M  V30 4841 H 460.181 2.07492 3.47461 0
M  V30 4842 H 456.936 3.92088 2.65639 0
M  V30 4843 H 457.36 6.46268 2.0166 0
M  V30 4844 H 462.002 3.56987 2.26539 0
M  V30 4845 H 459.72 7.94831 1.45837 0
M  V30 4846 H 463.306 5.57926 1.64952 0
M  V30 4847 H 462.186 7.74126 1.25296 0
M  V30 4848 N 459.689 -1.00246 1.21608 0
M  V30 4849 C 460.937 -1.73717 1.0328 0
M  V30 4850 C 461.258 -1.90102 -0.434318 0
M  V30 4851 O 460.528 -1.45376 -1.31311 0
M  V30 4852 H 459.108 -0.643613 0.379172 0
M  V30 4853 H 461.77 -1.20787 1.52959 0
M  V30 4854 H 460.866 -2.73535 1.50283 0
M  V30 4855 N 461.167 -1.02423 -1.1978 0
M  V30 4856 C 462.392 -0.7373 -1.93852 0
M  V30 4857 C 462.817 0.696923 -1.74713 0
M  V30 4858 O 462.175 1.48056 -1.04638 0
M  V30 4859 C 462.223 -1.08783 -3.438 0
M  V30 4860 O 461.327 -0.20383 -4.11896 0
M  V30 4861 H 460.668 -0.27284 -0.605355 0
M  V30 4862 H 463.198 -1.36966 -1.51992 0
M  V30 4863 H 463.208 -1.04276 -3.9445 0
M  V30 4864 H 461.883 -2.13274 -3.57053 0
M  V30 4865 H 460.46 -0.307091 -3.71633 0
M  V30 4866 N 462.645 1.35699 -0.801477 0
M  V30 4867 C 463.592 2.29876 -0.206294 0
M  V30 4868 C 464.562 1.52565 0.656752 0
M  V30 4869 O 465.747 1.81024 0.602906 0
M  V30 4870 C 462.887 3.39052 0.643272 0
M  V30 4871 C 462 4.31335 -0.239644 0
M  V30 4872 C 461.135 5.27599 0.61744 0
M  V30 4873 C 460.174 6.11521 -0.26619 0
M  V30 4874 N 459.311 6.99938 0.550571 0
M  V30 4875 H 464.151 2.80187 -1.01484 0
M  V30 4876 H 461.688 1.37902 -0.511997 0
M  V30 4877 H 463.646 4.0101 1.15094 0
M  V30 4878 H 462.276 2.9003 1.41713 0
M  V30 4879 H 461.328 3.70426 -0.865381 0
M  V30 4880 H 462.64 4.90243 -0.919985 0
M  V30 4881 H 461.794 5.94906 1.19045 0
M  V30 4882 H 460.533 4.69176 1.33137 0
M  V30 4883 H 459.538 5.43166 -0.851507 0
M  V30 4884 H 460.763 6.72022 -0.9779 0
M  V30 4885 H 458.709 6.44008 1.24856 0
M  V30 4886 H 458.626 7.55966 -0.071832 0
M  V30 4887 H 459.894 7.71599 1.10702 0
M  V30 4888 N 464.123 0.554532 1.47522 0
M  V30 4889 C 465.372 0.0273458 2.01681 0
M  V30 4890 C 465.685 -1.32962 1.43459 0
M  V30 4891 O 466.891 -1.94657 1.89265 0
M  V30 4892 C 465.347 -0.00159057 3.599 0
M  V30 4893 C 464.955 1.35197 4.27113 0
M  V30 4894 C 466.699 -0.476311 4.21819 0
M  V30 4895 C 464.606 1.28229 5.77331 0
M  V30 4896 H 463.536 0.00645269 0.753972 0
M  V30 4897 H 466.187 0.701985 1.69542 0
M  V30 4898 H 464.569 -0.741821 3.8899 0
M  V30 4899 H 465.743 2.1097 4.09668 0
M  V30 4900 H 464.058 1.76441 3.77171 0
M  V30 4901 H 466.655 -0.5468 5.31897 0
M  V30 4902 H 466.998 -1.4877 3.8881 0
M  V30 4903 H 467.531 0.20898 3.97251 0
M  V30 4904 H 464.27 2.26959 6.14955 0
M  V30 4905 H 463.79 0.566314 5.97121 0
M  V30 4906 H 465.469 0.983226 6.39485 0
M  V30 4907 N 465.601 -1.54893 0.290851 0
M  V30 4908 C 466.564 -2.21824 -0.576784 0
M  V30 4909 C 467.564 -1.20104 -1.06919 0
M  V30 4910 O 468.754 -1.44906 -0.966843 0
M  V30 4911 C 465.886 -2.89662 -1.79747 0
M  V30 4912 H 467.079 -2.99899 0.00784051 0
M  V30 4913 H 464.632 -1.56245 0.0415934 0
M  V30 4914 H 465.367 -2.15639 -2.42219 0
M  V30 4915 H 465.152 -3.64219 -1.45214 0
M  V30 4916 H 466.642 -3.4075 -2.4141 0
M  V30 4917 N 467.08 -0.0183926 -1.57589 0
M  V30 4918 C 468.491 0.521927 -1.79256 0
M  V30 4919 C 468.842 1.72885 -0.927636 0
M  V30 4920 O 467.967 2.15978 -0.135091 0
M  V30 4921 C 468.562 0.953632 -3.25102 0
M  V30 4922 C 467.121 1.43913 -3.47801 0
M  V30 4923 C 466.268 0.398837 -2.74417 0
M  V30 4924 H 469.219 -0.244485 -1.56805 0
M  V30 4925 H 469.24 1.81863 -3.34224 0
M  V30 4926 H 468.752 0.0750123 -3.88028 0
M  V30 4927 H 466.853 2.33804 -2.90115 0
M  V30 4928 H 466.966 1.45391 -4.56507 0
M  V30 4929 H 465.33 0.864572 -2.39577 0
M  V30 4930 H 466.113 -0.471132 -3.40052 0
M  V30 4931 N 468.558 1.5553 0.254621 0
M  V30 4932 C 469.804 1.77262 0.985193 0
M  V30 4933 C 470.137 0.582286 1.85265 0
M  V30 4934 O 469.412 -0.419666 1.89919 0
M  V30 4935 C 469.695 3.0881 1.85225 0
M  V30 4936 C 469.548 4.38233 1.0135 0
M  V30 4937 C 470.867 3.3653 2.83612 0
M  V30 4938 H 467.986 0.644906 0.356742 0
M  V30 4939 H 470.628 1.88264 0.256236 0
M  V30 4940 H 468.778 2.99562 2.47376 0
M  V30 4941 H 470.45 4.59463 0.411269 0
M  V30 4942 H 468.693 4.32636 0.317574 0
M  V30 4943 H 469.364 5.26644 1.65379 0
M  V30 4944 H 471.84 3.45691 2.31596 0
M  V30 4945 H 470.716 4.29805 3.41407 0
M  V30 4946 H 470.977 2.57064 3.59681 0
M  V30 4947 N 470.036 -0.519951 1.48776 0
M  V30 4948 C 471.266 -1.29783 1.60748 0
M  V30 4949 C 471.674 -1.87253 0.27072 0
M  V30 4950 O 471.017 -1.67628 -0.751438 0
M  V30 4951 C 471.079 -2.47984 2.60277 0
M  V30 4952 C 470.743 -2.11526 4.051 0
M  V30 4953 C 471.74 -1.66608 4.92481 0
M  V30 4954 C 469.425 -2.21742 4.50706 0
M  V30 4955 C 471.419 -1.32384 6.23501 0
M  V30 4956 C 469.106 -1.87129 5.81744 0
M  V30 4957 C 470.104 -1.42523 6.67964 0
M  V30 4958 O 469.792 -1.0837 7.96562 0
M  V30 4959 H 469.524 -0.400562 0.544542 0
M  V30 4960 H 472.078 -0.632879 1.95407 0
M  V30 4961 H 470.308 -3.17493 2.2076 0
M  V30 4962 H 471.997 -3.10036 2.61978 0
M  V30 4963 H 472.763 -1.58178 4.58481 0
M  V30 4964 H 468.642 -2.55415 3.83776 0
M  V30 4965 H 472.186 -0.974949 6.90754 0
M  V30 4966 H 468.083 -1.95204 6.15277 0
M  V30 4967 H 468.851 -1.21681 8.09405 0
M  V30 4968 N 471.514 -1.37532 -0.769588 0
M  V30 4969 C 472.446 -1.29347 -1.89214 0
M  V30 4970 C 473.459 -0.208842 -1.61455 0
M  V30 4971 O 474.648 -0.465158 -1.72333 0
M  V30 4972 C 471.748 -0.977649 -3.24492 0
M  V30 4973 C 470.921 -2.16817 -3.7988 0
M  V30 4974 C 469.98 -1.82229 -4.93639 0
M  V30 4975 O 469.006 -2.54548 -5.09111 0
M  V30 4976 N 470.208 -0.767696 -5.75401 0
M  V30 4977 H 472.973 -2.26073 -1.96751 0
M  V30 4978 H 470.534 -1.31185 -0.948795 0
M  V30 4979 H 472.526 -0.727065 -3.98115 0
M  V30 4980 H 471.096 -0.0988777 -3.12444 0
M  V30 4981 H 470.316 -2.58038 -2.9801 0
M  V30 4982 H 471.604 -2.96308 -4.13617 0
M  V30 4983 H 471.002 -0.167626 -5.65452 0
M  V30 4984 H 469.559 -0.576973 -6.49241 0
M  V30 4985 N 472.992 0.995999 -1.22138 0
M  V30 4986 C 473.924 2.08745 -0.946485 0
M  V30 4987 C 474.937 1.62633 0.0737356 0
M  V30 4988 O 476.126 1.77782 -0.159886 0
M  V30 4989 C 473.226 3.36516 -0.401305 0
M  V30 4990 C 472.399 4.11672 -1.47801 0
M  V30 4991 C 471.458 5.17728 -0.940461 0
M  V30 4992 O 470.484 5.45482 -1.62596 0
M  V30 4993 N 471.686 5.80005 0.239723 0
M  V30 4994 H 474.451 2.32908 -1.88611 0
M  V30 4995 H 472.012 1.16152 -1.12785 0
M  V30 4996 H 474.004 4.04691 -0.0270837 0
M  V30 4997 H 472.574 3.0944 0.443354 0
M  V30 4998 H 471.794 3.38171 -2.02568 0
M  V30 4999 H 473.082 4.58657 -2.20253 0
M  V30 5000 H 472.48 5.5982 0.813518 0
M  V30 5001 H 471.037 6.4943 0.555361 0
M  V30 5002 N 474.47 1.03057 1.19235 0
M  V30 5003 C 475.38 0.622922 2.26179 0
M  V30 5004 C 476.396 -0.346113 1.70523 0
M  V30 5005 O 477.572 -0.203572 2.00369 0
M  V30 5006 C 474.637 -0.0182063 3.46695 0
M  V30 5007 C 473.698 0.998546 4.17526 0
M  V30 5008 C 472.931 0.387917 5.32288 0
M  V30 5009 O 473.154 -0.808668 5.64639 0
M  V30 5010 O 472.088 1.1116 5.91546 0
M  V30 5011 H 475.914 1.51363 2.63292 0
M  V30 5012 H 473.499 0.800856 1.26122 0
M  V30 5013 H 475.381 -0.375606 4.19723 0
M  V30 5014 H 474.056 -0.882895 3.11427 0
M  V30 5015 H 472.963 1.40756 3.4661 0
M  V30 5016 H 474.296 1.83366 4.56769 0
M  V30 5017 N 475.948 -1.35272 0.808662 0
M  V30 5018 C 476.858 -2.33546 0.222079 0
M  V30 5019 C 477.874 -1.6196 -0.636011 0
M  V30 5020 O 479.05 -1.93822 -0.547274 0
M  V30 5021 C 476.115 -3.41148 -0.61795 0
M  V30 5022 C 475.176 -4.28507 0.260875 0
M  V30 5023 C 474.409 -5.3097 -0.539156 0
M  V30 5024 O 474.632 -5.42123 -1.77367 0
M  V30 5025 O 473.566 -6.01858 0.0710526 0
M  V30 5026 H 477.392 -2.85515 1.03512 0
M  V30 5027 H 474.977 -1.38079 0.570495 0
M  V30 5028 H 476.859 -4.06889 -1.09634 0
M  V30 5029 H 475.534 -2.91447 -1.40855 0
M  V30 5030 H 474.441 -3.6574 0.786451 0
M  V30 5031 H 475.774 -4.81611 1.01547 0
M  V30 5032 N 477.426 -0.562348 -1.47226 0
M  V30 5033 C 478.675 -0.038041 -2.01664 0
M  V30 5034 C 478.988 1.32199 -1.44162 0
M  V30 5035 O 480.194 1.9365 -1.90294 0
M  V30 5036 C 478.65 -0.0174958 -3.59896 0
M  V30 5037 C 478.258 -1.3746 -4.2639 0
M  V30 5038 C 480.002 0.453934 -4.22066 0
M  V30 5039 C 477.909 -1.31289 -5.76643 0
M  V30 5040 H 476.839 -0.0104511 -0.753928 0
M  V30 5041 H 479.49 -0.710966 -1.69167 0
M  V30 5042 H 477.872 0.721182 -3.89378 0
M  V30 5043 H 479.046 -2.1314 -4.08544 0
M  V30 5044 H 477.361 -1.78438 -3.7623 0
M  V30 5045 H 479.958 0.518584 -5.32179 0
M  V30 5046 H 480.301 1.46706 -3.89594 0
M  V30 5047 H 480.834 -0.230044 -3.97134 0
M  V30 5048 H 477.573 -2.30217 -6.13743 0
M  V30 5049 H 477.093 -0.597973 -5.96812 0
M  V30 5050 H 478.772 -1.01713 -6.38955 0
M  V30 5051 N 478.904 1.54736 -0.299062 0
M  V30 5052 C 479.867 2.22127 0.565012 0
M  V30 5053 C 480.867 1.20669 1.06281 0
M  V30 5054 O 482.057 1.45417 0.959145 0
M  V30 5055 C 479.189 2.90611 1.78208 0
M  V30 5056 H 480.382 2.99891 -0.0237448 0
M  V30 5057 H 477.935 1.5622 -0.0498788 0
M  V30 5058 H 478.67 2.16921 2.41072 0
M  V30 5059 H 478.455 3.64984 1.43281 0
M  V30 5060 H 479.945 3.42026 2.396 0
M  V30 5061 N 480.382 0.0267497 1.57577 0
M  V30 5062 C 481.292 -0.971633 2.13533 0
M  V30 5063 C 482.308 -1.35868 1.08701 0
M  V30 5064 O 483.484 -1.44058 1.40746 0
M  V30 5065 C 480.549 -2.23622 2.64941 0
M  V30 5066 C 479.61 -1.90982 3.8448 0
M  V30 5067 C 478.843 -3.11411 4.33427 0
M  V30 5068 O 479.066 -4.23992 3.81558 0
M  V30 5069 O 478 -2.93848 5.25297 0
M  V30 5070 H 481.826 -0.525853 2.99113 0
M  V30 5071 H 479.411 -0.193712 1.48139 0
M  V30 5072 H 481.293 -2.97864 2.98086 0
M  V30 5073 H 479.968 -2.67386 1.82446 0
M  V30 5074 H 478.875 -1.14132 3.56265 0
M  V30 5075 H 480.208 -1.52036 4.6813 0
M  V30 5076 N 481.861 -1.55662 -0.24637 0
M  V30 5077 C 483.109 -1.77168 -0.972411 0
M  V30 5078 C 483.43 -0.590827 -1.85834 0
M  V30 5079 O 482.7 0.393365 -1.9191 0
M  V30 5080 H 481.28 -0.653405 -0.362038 0
M  V30 5081 H 483.942 -1.93101 -0.264189 0
M  V30 5082 H 483.038 -2.68335 -1.59382 0
M  V30 5083 N 483.339 0.512053 -1.4905 0
M  V30 5084 C 484.302 1.59704 -1.64399 0
M  V30 5085 C 485.302 1.52285 -0.516317 0
M  V30 5086 O 486.492 1.55635 -0.782527 0
M  V30 5087 C 483.624 2.9935 -1.63102 0
M  V30 5088 H 484.817 1.47428 -2.61161 0
M  V30 5089 H 482.37 0.735469 -1.37915 0
M  V30 5090 H 483.105 3.17116 -0.678836 0
M  V30 5091 H 482.89 3.06144 -2.44986 0
M  V30 5092 H 484.38 3.782 -1.77072 0
M  V30 5093 N 484.817 1.37938 0.762283 0
M  V30 5094 C 486.063 1.33866 1.52341 0
M  V30 5095 C 486.396 -0.0738961 1.94059 0
M  V30 5096 O 485.671 -1.03326 1.64785 0
M  V30 5097 C 485.954 2.28644 2.78197 0
M  V30 5098 C 485.807 3.78722 2.42672 0
M  V30 5099 C 487.126 2.21702 3.80179 0
M  V30 5100 H 484.245 0.487593 0.55265 0
M  V30 5101 H 486.887 1.68717 0.873767 0
M  V30 5102 H 485.037 1.99055 3.33631 0
M  V30 5103 H 486.709 4.18948 1.93081 0
M  V30 5104 H 484.952 3.96827 1.75244 0
M  V30 5105 H 485.623 4.40486 3.3268 0
M  V30 5106 H 488.099 2.47805 3.34263 0
M  V30 5107 H 486.975 2.90143 4.65949 0
M  V30 5108 H 487.236 1.21301 4.25133 0
M  V30 5109 N 486.295 -0.989507 1.22664 0
M  V30 5110 C 487.523 -1.76496 1.07967 0
M  V30 5111 C 487.938 -1.85148 -0.369543 0
M  V30 5112 O 487.295 -1.32408 -1.25596 0
M  V30 5113 C 487.346 -3.19642 1.68853 0
M  V30 5114 O 487.067 -3.11453 3.08105 0
M  V30 5115 C 488.568 -4.13621 1.59475 0
M  V30 5116 H 485.788 -0.55418 0.378319 0
M  V30 5117 H 488.332 -1.24378 1.62328 0
M  V30 5118 H 486.487 -3.68816 1.18547 0
M  V30 5119 H 486.901 -4.01499 3.37489 0
M  V30 5120 H 488.375 -5.11801 2.06795 0
M  V30 5121 H 488.852 -4.35718 0.55191 0
M  V30 5122 H 489.458 -3.70346 2.09103 0
M  V30 5123 N 487.773 -1.03688 -1.18687 0
M  V30 5124 C 489.022 -0.733235 -1.879 0
M  V30 5125 C 489.335 0.741745 -1.8099 0
M  V30 5126 O 490.541 1.15875 -2.4553 0
M  V30 5127 C 488.997 -1.26127 -3.37076 0
M  V30 5128 C 488.605 -2.76461 -3.52524 0
M  V30 5129 C 490.349 -1.03398 -4.11715 0
M  V30 5130 C 488.256 -3.22642 -4.95637 0
M  V30 5131 H 487.186 -0.270584 -0.703776 0
M  V30 5132 H 489.837 -1.25222 -1.34133 0
M  V30 5133 H 488.219 -0.670165 -3.90288 0
M  V30 5134 H 489.393 -3.41296 -3.09602 0
M  V30 5135 H 487.708 -2.97559 -2.91286 0
M  V30 5136 H 490.305 -1.3542 -5.17267 0
M  V30 5137 H 490.648 0.0289246 -4.1629 0
M  V30 5138 H 491.181 -1.5895 -3.64664 0
M  V30 5139 H 487.92 -4.28296 -4.96228 0
M  V30 5140 H 487.44 -2.62539 -5.39289 0
M  V30 5141 H 489.119 -3.16444 -5.64333 0
M  V30 5142 N 489.251 1.34841 -0.815825 0
M  V30 5143 C 490.181 2.32187 -0.247298 0
M  V30 5144 C 491.162 1.5791 0.632344 0
M  V30 5145 O 492.347 1.8593 0.560698 0
M  V30 5146 C 489.477 3.42122 0.597466 0
M  V30 5147 C 488.431 4.27602 -0.184446 0
M  V30 5148 C 487.757 5.28942 0.782609 0
M  V30 5149 C 489.057 5.03502 -1.38865 0
M  V30 5150 H 490.751 2.79985 -1.06061 0
M  V30 5151 H 488.297 1.34611 -0.511461 0
M  V30 5152 H 490.25 4.09232 1.00533 0
M  V30 5153 H 488.974 2.92956 1.44376 0
M  V30 5154 H 487.633 3.62085 -0.573592 0
M  V30 5155 H 487.281 4.7604 1.62466 0
M  V30 5156 H 486.981 5.87008 0.263695 0
M  V30 5157 H 488.505 5.98922 1.18848 0
M  V30 5158 H 489.919 5.63506 -1.05518 0
M  V30 5159 H 488.316 5.71108 -1.8427 0
M  V30 5160 H 489.386 4.33608 -2.17054 0
M  V30 5161 N 490.729 0.570148 1.46925 0
M  V30 5162 C 492.14 0.1402 1.86173 0
M  V30 5163 C 492.491 -1.29347 1.47526 0
M  V30 5164 O 491.616 -1.97508 0.884292 0
M  V30 5165 C 492.211 0.247661 3.37894 0
M  V30 5166 C 490.77 -0.127332 3.76185 0
M  V30 5167 C 489.917 0.589349 2.70965 0
M  V30 5168 H 492.868 0.779117 1.38259 0
M  V30 5169 H 492.889 -0.530341 3.76786 0
M  V30 5170 H 492.401 1.29121 3.65991 0
M  V30 5171 H 490.502 -1.17149 3.53704 0
M  V30 5172 H 490.615 0.240238 4.78497 0
M  V30 5173 H 488.979 0.0309824 2.54681 0
M  V30 5174 H 489.762 1.6343 3.01903 0
M  V30 5175 N 492.207 -1.54576 0.307264 0
M  V30 5176 C 493.154 -2.23751 -0.56604 0
M  V30 5177 C 494.124 -1.22235 -1.12462 0
M  V30 5178 O 495.309 -1.50873 -1.16799 0
M  V30 5179 C 492.449 -2.98661 -1.72903 0
M  V30 5180 C 491.562 -4.14963 -1.20124 0
M  V30 5181 C 490.697 -4.77441 -2.3286 0
M  V30 5182 C 489.736 -5.85875 -1.77247 0
M  V30 5183 N 488.873 -6.42282 -2.8358 0
M  V30 5184 H 493.713 -2.97984 0.0304578 0
M  V30 5185 H 491.25 -1.47076 0.0268015 0
M  V30 5186 H 493.208 -3.40329 -2.41313 0
M  V30 5187 H 491.838 -2.26793 -2.29706 0
M  V30 5188 H 490.89 -3.78193 -0.409198 0
M  V30 5189 H 492.202 -4.93066 -0.754171 0
M  V30 5190 H 491.356 -5.21993 -3.09205 0
M  V30 5191 H 490.095 -3.98684 -2.80896 0
M  V30 5192 H 489.1 -5.40741 -0.993926 0
M  V30 5193 H 490.325 -6.6652 -1.30107 0
M  V30 5194 H 488.271 -5.66406 -3.30939 0
M  V30 5195 H 488.188 -7.1575 -2.43388 0
M  V30 5196 H 489.456 -6.91492 -3.59804 0
M  V30 5197 N 493.685 -0.035106 -1.57561 0
M  V30 5198 C 495.101 0.321334 -1.56332 0
M  V30 5199 C 495.301 1.72509 -1.04129 0
M  V30 5200 O 494.357 2.4287 -0.690694 0
M  V30 5201 C 495.67 0.164469 -3.0025 0
M  V30 5202 C 497.218 0.236786 -3.12103 0
M  V30 5203 C 497.693 0.10864 -4.57871 0
M  V30 5204 N 499.184 0.165433 -4.62904 0
M  V30 5205 C 499.919 0.0901506 -5.73329 0
M  V30 5206 N 499.415 -0.0365606 -6.9279 0
M  V30 5207 N 501.208 0.144572 -5.61914 0
M  V30 5208 H 493.359 -0.952976 -1.89821 0
M  V30 5209 H 495.622 -0.368537 -0.873432 0
M  V30 5210 H 495.328 -0.802746 -3.42416 0
M  V30 5211 H 495.202 0.932194 -3.655 0
M  V30 5212 H 497.589 1.19446 -2.69845 0
M  V30 5213 H 497.67 -0.561419 -2.49563 0
M  V30 5214 H 497.314 -0.845644 -5.00811 0
M  V30 5215 H 497.244 0.925786 -5.18398 0
M  V30 5216 H 499.735 0.263269 -3.76982 0
M  V30 5217 H 500.048 -0.0871487 -7.72751 0
M  V30 5218 H 498.393 -0.0714256 -6.94963 0
M  V30 5219 H 501.584 0.242006 -4.67474 0
M  V30 5220 H 501.757 0.0824413 -6.47948 0
M  V30 5221 N 495.163 1.55791 0.238111 0
M  V30 5222 C 496.126 1.90239 1.27835 0
M  V30 5223 C 497.126 0.779552 1.4064 0
M  V30 5224 O 498.316 1.04747 1.3919 0
M  V30 5225 C 495.448 2.13859 2.65475 0
M  V30 5226 H 496.641 2.83262 0.985034 0
M  V30 5227 H 494.194 1.48818 0.477799 0
M  V30 5228 H 494.929 1.23334 2.99932 0
M  V30 5229 H 494.714 2.95643 2.57561 0
M  V30 5230 H 496.204 2.41664 3.40571 0
M  V30 5231 N 496.642 -0.504142 1.49319 0
M  V30 5232 C 497.867 -1.28729 1.62615 0
M  V30 5233 C 498.292 -1.85752 0.296309 0
M  V30 5234 O 497.65 -1.65704 -0.735649 0
M  V30 5235 C 497.698 -2.39561 2.69524 0
M  V30 5236 O 496.802 -3.43324 2.28478 0
M  V30 5237 H 496.143 -0.380172 0.544395 0
M  V30 5238 H 498.673 -0.603872 1.95485 0
M  V30 5239 H 498.683 -2.8537 2.91595 0
M  V30 5240 H 497.358 -1.97423 3.66056 0
M  V30 5241 H 495.935 -3.03455 2.16725 0
M  V30 5242 N 498.12 -1.38341 -0.754957 0
M  V30 5243 C 499.369 -1.33791 -1.5094 0
M  V30 5244 C 499.682 0.0699267 -1.95475 0
M  V30 5245 O 500.888 0.237956 -2.70455 0
M  V30 5246 C 499.344 -2.34934 -2.72643 0
M  V30 5247 C 498.952 -3.81332 -2.35138 0
M  V30 5248 C 500.696 -2.39425 -3.50536 0
M  V30 5249 C 498.603 -4.74164 -3.53444 0
M  V30 5250 H 497.533 -0.497314 -0.566741 0
M  V30 5251 H 500.184 -1.63888 -0.825403 0
M  V30 5252 H 498.566 -1.97878 -3.43017 0
M  V30 5253 H 499.74 -4.27319 -1.7244 0
M  V30 5254 H 498.055 -3.79946 -1.70382 0
M  V30 5255 H 500.652 -3.0598 -4.38498 0
M  V30 5256 H 500.995 -1.41278 -3.91594 0
M  V30 5257 H 501.528 -2.75274 -2.87174 0
M  V30 5258 H 498.267 -5.73501 -3.17453 0
M  V30 5259 H 497.787 -4.3287 -4.15191 0
M  V30 5260 H 499.466 -4.92111 -4.20043 0
M  V30 5261 N 499.598 0.982988 -1.23187 0
M  V30 5262 C 500.875 1.69814 -0.970707 0
M  V30 5263 C 501.255 2.04811 0.511424 0
M  V30 5264 O 500.603 1.73924 1.48198 0
M  V30 5265 C 500.813 2.94143 -1.87831 0
M  V30 5266 C 502.161 3.66712 -2.14026 0
M  V30 5267 O 503.185 3.04171 -1.8536 0
M  V30 5268 O 502.044 4.79258 -2.62629 0
M  V30 5269 H 499.138 0.741659 -0.365884 0
M  V30 5270 H 501.684 1.03844 -1.34218 0
M  V30 5271 H 500.456 2.64858 -2.88038 0
M  V30 5272 H 500.079 3.6785 -1.50905 0
M  V30 5273 N 501.076 1.04316 1.18135 0
M  V30 5274 C 502.324 0.746542 1.87806 0
M  V30 5275 C 502.645 -0.728082 1.80898 0
M  V30 5276 O 501.915 -1.52554 1.22899 0
M  V30 5277 H 500.495 0.273157 0.695265 0
M  V30 5278 H 503.157 1.32044 1.43354 0
M  V30 5279 H 502.253 1.05362 2.93778 0
M  V30 5280 N 502.554 -1.34406 0.822964 0
M  V30 5281 C 503.801 -1.98284 0.411057 0
M  V30 5282 C 504.129 -1.65245 -1.02588 0
M  V30 5283 O 503.384 -0.91619 -1.72929 0
M  V30 5284 C 503.683 -3.52981 0.560268 0
M  V30 5285 C 503.349 -4.05931 1.96293 0
M  V30 5286 C 502.011 -4.20103 2.34664 0
M  V30 5287 C 504.363 -4.34412 2.87985 0
M  V30 5288 C 501.691 -4.60082 3.64062 0
M  V30 5289 C 504.043 -4.75838 4.16847 0
M  V30 5290 C 502.707 -4.88215 4.55195 0
M  V30 5291 H 501.977 -0.725573 0.150416 0
M  V30 5292 H 504.624 -1.60349 1.04692 0
M  V30 5293 H 502.929 -3.91477 -0.158982 0
M  V30 5294 H 504.626 -4.00385 0.222087 0
M  V30 5295 H 501.216 -3.95363 1.65487 0
M  V30 5296 H 505.4 -4.23001 2.59584 0
M  V30 5297 H 500.656 -4.67856 3.93599 0
M  V30 5298 H 504.83 -4.96834 4.87984 0
M  V30 5299 H 502.457 -5.18952 5.55512 0
M  V30 5300 N 504.032 -0.577932 -1.46621 0
M  V30 5301 C 505.309 0.00495287 -1.95599 0
M  V30 5302 C 505.689 1.46428 -1.5206 0
M  V30 5303 O 505.037 2.1517 -0.769046 0
M  V30 5304 C 505.247 -0.162114 -3.48623 0
M  V30 5305 C 506.595 -0.0274623 -4.24591 0
M  V30 5306 O 507.619 -0.0907067 -3.56084 0
M  V30 5307 O 506.478 0.1122 -5.46385 0
M  V30 5308 H 503.572 0.0525057 -0.825332 0
M  V30 5309 H 506.118 -0.645914 -1.56927 0
M  V30 5310 H 504.89 -1.17679 -3.73185 0
M  V30 5311 H 504.513 0.525407 -3.94113 0
M  V30 5312 N 505.51 1.54411 -0.315457 0
M  V30 5313 C 506.926 1.59556 0.037464 0
M  V30 5314 C 507.126 1.33217 1.5118 0
M  V30 5315 O 506.182 1.11264 2.26664 0
M  V30 5316 C 507.495 2.98372 -0.373477 0
M  V30 5317 C 509.043 3.11324 -0.323452 0
M  V30 5318 C 509.518 4.52472 -0.709433 0
M  V30 5319 N 511.009 4.58437 -0.662524 0
M  V30 5320 C 511.744 5.65751 -0.933474 0
M  V30 5321 N 511.24 6.81039 -1.27114 0
M  V30 5322 N 513.033 5.55489 -0.859573 0
M  V30 5323 H 505.184 1.6979 -1.27614 0
M  V30 5324 H 507.447 0.793732 -0.518356 0
M  V30 5325 H 507.153 3.22618 -1.40037 0
M  V30 5326 H 507.027 3.76264 0.265615 0
M  V30 5327 H 509.414 2.86818 0.694223 0
M  V30 5328 H 509.495 2.35555 -0.997367 0
M  V30 5329 H 509.139 4.7771 -1.72498 0
M  V30 5330 H 509.069 5.26598 -0.0132923 0
M  V30 5331 H 511.56 3.75636 -0.413065 0
M  V30 5332 H 511.873 7.58816 -1.46348 0
M  V30 5333 H 510.218 6.82555 -1.30932 0
M  V30 5334 H 513.409 4.64299 -0.595324 0
M  V30 5335 H 513.582 6.39036 -1.0741 0
M  V30 5336 N 506.988 0.0434614 1.5754 0
M  V30 5337 C 508.218 -0.640905 1.96408 0
M  V30 5338 C 508.626 -1.65365 0.919297 0
M  V30 5339 O 507.969 -1.83395 -0.105795 0
M  V30 5340 C 508.031 -1.39141 3.31482 0
M  V30 5341 C 507.695 -0.535375 4.53853 0
M  V30 5342 C 508.692 0.195335 5.19533 0
M  V30 5343 C 506.377 -0.468564 5.0011 0
M  V30 5344 C 508.371 0.981377 6.298 0
M  V30 5345 C 506.058 0.321171 6.10255 0
M  V30 5346 C 507.056 1.04484 6.74961 0
M  V30 5347 O 506.744 1.8216 7.8299 0
M  V30 5348 H 506.476 -0.180584 0.651433 0
M  V30 5349 H 509.03 0.103848 2.05137 0
M  V30 5350 H 507.26 -2.18162 3.19284 0
M  V30 5351 H 508.949 -1.96526 3.55151 0
M  V30 5352 H 509.715 0.15314 4.84758 0
M  V30 5353 H 505.594 -1.02142 4.49542 0
M  V30 5354 H 509.138 1.54674 6.80237 0
M  V30 5355 H 505.035 0.365032 6.44467 0
M  V30 5356 H 505.803 1.74289 7.99728 0
M  V30 5357 N 508.466 -1.55915 -0.229846 0
M  V30 5358 C 509.713 -1.78542 -0.955452 0
M  V30 5359 C 510.041 -0.610785 -1.84661 0
M  V30 5360 O 509.296 0.405213 -1.91459 0
M  V30 5361 C 509.595 -3.06845 -1.8325 0
M  V30 5362 C 509.261 -4.37395 -1.09528 0
M  V30 5363 C 507.923 -4.72868 -0.891598 0
M  V30 5364 C 510.275 -5.18029 -0.574046 0
M  V30 5365 C 507.603 -5.86496 -0.154655 0
M  V30 5366 C 509.955 -6.32423 0.149513 0
M  V30 5367 C 508.619 -6.66504 0.364519 0
M  V30 5368 H 507.889 -0.653333 -0.349625 0
M  V30 5369 H 510.536 -1.90183 -0.224235 0
M  V30 5370 H 508.841 -2.90291 -2.63132 0
M  V30 5371 H 510.538 -3.21553 -2.39592 0
M  V30 5372 H 507.128 -4.09538 -1.26399 0
M  V30 5373 H 511.312 -4.91066 -0.718899 0
M  V30 5374 H 506.568 -6.11396 0.0222356 0
M  V30 5375 H 510.742 -6.94137 0.560947 0
M  V30 5376 H 508.369 -7.54397 0.937495 0
M  V30 5377 N 509.944 0.496216 -1.49584 0
M  V30 5378 C 511.36 0.827814 -1.36453 0
M  V30 5379 C 511.56 1.97464 -0.401285 0
M  V30 5380 O 510.616 2.51958 0.165296 0
M  V30 5381 C 511.929 1.16352 -2.77277 0
M  V30 5382 C 513.477 1.27145 -2.86013 0
M  V30 5383 C 513.952 1.64042 -4.27615 0
M  V30 5384 N 515.443 1.71082 -4.30448 0
M  V30 5385 C 516.178 2.01085 -5.36984 0
M  V30 5386 N 515.674 2.2928 -6.5376 0
M  V30 5387 N 517.467 2.02376 -5.24405 0
M  V30 5388 H 509.618 -0.259947 -2.10803 0
M  V30 5389 H 511.881 -0.0537163 -0.946477 0
M  V30 5390 H 511.587 0.394153 -3.49484 0
M  V30 5391 H 511.461 2.10582 -3.12946 0
M  V30 5392 H 513.848 2.03152 -2.1404 0
M  V30 5393 H 513.929 0.309542 -2.5392 0
M  V30 5394 H 513.573 0.88583 -5.00115 0
M  V30 5395 H 513.503 2.6134 -4.57175 0
M  V30 5396 H 515.994 1.51434 -3.46232 0
M  V30 5397 H 516.307 2.51376 -7.30774 0
M  V30 5398 H 514.652 2.26726 -6.56978 0
M  V30 5399 H 517.843 1.79829 -4.32179 0
M  V30 5400 H 518.016 2.25425 -6.07526 0
M  V30 5401 N 511.423 1.38739 0.74761 0
M  V30 5402 C 512.648 1.38702 1.54197 0
M  V30 5403 C 513.073 -0.019664 1.8809 0
M  V30 5404 O 512.431 -1.00333 1.51006 0
M  V30 5405 C 512.479 2.25492 2.814 0
M  V30 5406 O 511.583 1.67613 3.76802 0
M  V30 5407 H 510.924 0.472863 0.466151 0
M  V30 5408 H 513.454 1.82577 0.923413 0
M  V30 5409 H 513.464 2.39561 3.30264 0
M  V30 5410 H 512.139 3.27727 2.56062 0
M  V30 5411 H 510.716 1.62718 3.35526 0
M  V30 5412 N 512.901 -0.976442 1.23707 0
M  V30 5413 C 514.317 -1.24341 1.00058 0
M  V30 5414 C 514.517 -1.99315 -0.295932 0
M  V30 5415 O 513.573 -2.3123 -1.01435 0
M  V30 5416 C 514.886 -2.03909 2.21001 0
M  V30 5417 C 516.434 -2.17034 2.25534 0
M  V30 5418 C 516.909 -2.99994 3.46075 0
M  V30 5419 N 518.4 -3.07578 3.46338 0
M  V30 5420 C 519.135 -3.72104 4.36264 0
M  V30 5421 N 518.631 -4.3842 5.36432 0
M  V30 5422 N 520.424 -3.69029 4.23998 0
M  V30 5423 H 512.575 -0.47428 2.07037 0
M  V30 5424 H 514.838 -0.272167 0.908091 0
M  V30 5425 H 514.544 -1.56198 3.15111 0
M  V30 5426 H 514.418 -3.04654 2.22409 0
M  V30 5427 H 516.805 -2.63951 1.31961 0
M  V30 5428 H 516.886 -1.15664 2.28156 0
M  V30 5429 H 516.53 -2.53772 4.39957 0
M  V30 5430 H 516.46 -4.01541 3.40694 0
M  V30 5431 H 518.951 -2.60397 2.73865 0
M  V30 5432 H 519.264 -4.85447 6.013 0
M  V30 5433 H 517.609 -4.37116 5.40328 0
M  V30 5434 H 520.8 -3.16392 3.44984 0
M  V30 5435 H 520.973 -4.19034 4.94282 0
M  V30 5436 N 514.379 -1.04941 -1.1758 0
M  V30 5437 C 515.607 -0.778294 -1.91703 0
M  V30 5438 C 516.022 0.665697 -1.76675 0
M  V30 5439 O 515.379 1.45456 -1.10222 0
M  V30 5440 C 515.43 -1.14628 -3.42845 0
M  V30 5441 O 515.151 -2.53359 -3.57409 0
M  V30 5442 C 516.652 -0.900931 -4.34049 0
M  V30 5443 H 513.872 -0.283167 -0.608323 0
M  V30 5444 H 516.416 -1.39942 -1.49119 0
M  V30 5445 H 514.571 -0.569953 -3.83184 0
M  V30 5446 H 514.985 -2.67709 -4.51035 0
M  V30 5447 H 516.459 -1.20817 -5.38616 0
M  V30 5448 H 516.936 0.163966 -4.38894 0
M  V30 5449 H 517.542 -1.46097 -3.99419 0
M  V30 5450 N 515.857 1.33968 -0.830081 0
M  V30 5451 C 516.787 2.31911 -0.271911 0
M  V30 5452 C 517.768 1.58571 0.61556 0
M  V30 5453 O 518.953 1.86514 0.540946 0
M  V30 5454 C 516.083 3.42737 0.561146 0
M  V30 5455 C 515.037 4.27383 -0.229789 0
M  V30 5456 C 514.363 5.29742 0.726463 0
M  V30 5457 C 515.663 5.02 -1.44197 0
M  V30 5458 H 517.357 2.78844 -1.09025 0
M  V30 5459 H 514.903 1.34061 -0.52571 0
M  V30 5460 H 516.856 4.10276 0.961867 0
M  V30 5461 H 515.58 2.94471 1.41261 0
M  V30 5462 H 514.239 3.61456 -0.611964 0
M  V30 5463 H 513.887 4.77736 1.57408 0
M  V30 5464 H 513.587 5.87255 0.20142 0
M  V30 5465 H 515.111 6.00149 1.12489 0
M  V30 5466 H 516.525 5.62355 -1.11488 0
M  V30 5467 H 514.922 5.69122 -1.90317 0
M  V30 5468 H 515.992 4.31281 -2.2164 0
M  V30 5469 N 517.335 0.585699 1.46312 0
M  V30 5470 C 518.298 -0.135673 2.28798 0
M  V30 5471 C 519.298 -0.815988 1.38558 0
M  V30 5472 O 520.488 -0.667487 1.60904 0
M  V30 5473 C 517.62 -1.20163 3.1902 0
M  V30 5474 H 518.813 0.589257 2.94054 0
M  V30 5475 H 516.366 0.343794 1.52472 0
M  V30 5476 H 517.101 -1.95804 2.58517 0
M  V30 5477 H 516.886 -0.718282 3.85465 0
M  V30 5478 H 518.376 -1.70749 3.81096 0
M  V30 5479 N 518.813 -1.54241 0.323641 0
M  V30 5480 C 519.761 -2.25813 -0.557804 0
M  V30 5481 C 520.755 -1.27225 -1.11849 0
M  V30 5482 O 521.961 -1.45001 -1.06652 0
M  V30 5483 H 518.336 -0.72532 -0.198532 0
M  V30 5484 H 520.307 -2.98322 0.0681112 0
M  V30 5485 C 519.056 -3.02913 -1.70701 0
M  V30 5486 H 518.379 -3.78593 -1.28482 0
M  V30 5487 H 519.819 -3.56238 -2.29935 0
M  V30 5488 C 518.278 -2.11217 -2.62467 0
M  V30 5489 O 518.808 -1.69508 -3.64184 0
M  V30 5490 N 517.014 -1.76704 -2.30703 0
M  V30 5491 H 516.561 -2.1082 -1.48029 0
M  V30 5492 H 516.519 -1.15631 -2.92364 0
M  V30 5493 N 520.291 -0.0518155 -1.57515 0
M  V30 5494 C 521.239 0.940195 -2.12751 0
M  V30 5495 C 522.233 1.3218 -1.05948 0
M  V30 5496 O 523.439 1.30138 -1.24355 0
M  V30 5497 H 519.814 0.321066 -0.680015 0
M  V30 5498 H 521.785 0.449217 -2.94999 0
M  V30 5499 C 520.534 2.2055 -2.68799 0
M  V30 5500 H 519.857 1.92066 -3.50643 0
M  V30 5501 H 521.297 2.88119 -3.11068 0
M  V30 5502 C 519.756 2.95061 -1.62605 0
M  V30 5503 O 520.286 3.88025 -1.03921 0
M  V30 5504 N 518.492 2.57804 -1.34111 0
M  V30 5505 H 518.039 1.82281 -1.8202 0
M  V30 5506 H 517.997 3.07964 -0.632872 0
M  V30 5507 N 521.769 1.56035 0.221574 0
M  V30 5508 C 523.185 1.49026 0.571271 0
M  V30 5509 C 523.385 0.746912 1.87146 0
M  V30 5510 O 522.441 0.286566 2.50869 0
M  V30 5511 C 523.754 2.93579 0.650522 0
M  V30 5512 C 525.302 3.04099 0.741151 0
M  V30 5513 C 525.777 4.5001 0.851747 0
M  V30 5514 N 527.268 4.54053 0.915968 0
M  V30 5515 C 528.003 5.64232 1.02125 0
M  V30 5516 N 527.499 6.84164 1.09049 0
M  V30 5517 N 529.292 5.52084 1.05639 0
M  V30 5518 H 521.443 2.02791 -0.63162 0
M  V30 5519 H 523.706 0.921736 -0.221602 0
M  V30 5520 H 523.412 3.50912 -0.235253 0
M  V30 5521 H 523.286 3.45476 1.51413 0
M  V30 5522 H 525.673 2.4683 1.61737 0
M  V30 5523 H 525.754 2.55371 -0.148128 0
M  V30 5524 H 525.398 5.07896 -0.0200117 0
M  V30 5525 H 525.328 4.96444 1.75644 0
M  V30 5526 H 527.819 3.67683 0.872782 0
M  V30 5527 H 528.132 7.63883 1.1706 0
M  V30 5528 H 526.477 6.86875 1.05962 0
M  V30 5529 H 529.668 4.57317 0.998953 0
M  V30 5530 H 529.841 6.37983 1.13498 0
M  V30 5531 N 523.247 -0.488276 1.49845 0
M  V30 5532 C 524.663 -0.820566 1.3689 0
M  V30 5533 C 524.863 -1.97248 0.411752 0
M  V30 5534 O 523.919 -2.52042 -0.151931 0
M  V30 5535 C 525.232 -1.1488 2.77891 0
M  V30 5536 C 526.78 -1.25626 2.86683 0
M  V30 5537 C 527.255 -1.61772 4.28479 0
M  V30 5538 N 528.746 -1.68797 4.31349 0
M  V30 5539 C 529.481 -1.98235 5.38043 0
M  V30 5540 N 528.977 -2.2581 6.54967 0
M  V30 5541 N 530.77 -1.99593 5.2547 0
M  V30 5542 H 522.921 0.271123 2.10662 0
M  V30 5543 H 525.184 0.058735 0.946179 0
M  V30 5544 H 524.89 -0.375614 3.49688 0
M  V30 5545 H 524.764 -2.08919 3.14058 0
M  V30 5546 H 527.151 -2.02014 2.15114 0
M  V30 5547 H 527.232 -0.296072 2.54081 0
M  V30 5548 H 526.876 -0.859295 5.00578 0
M  V30 5549 H 526.806 -2.58912 4.58554 0
M  V30 5550 H 529.297 -1.49595 3.4703 0
M  V30 5551 H 529.61 -2.47497 7.32096 0
M  V30 5552 H 527.955 -2.23239 6.58171 0
M  V30 5553 H 531.146 -1.77535 4.33127 0
M  V30 5554 H 531.319 -2.222 6.08713 0
M  V30 5555 N 524.725 -1.39134 -0.740242 0
M  V30 5556 C 525.673 -1.3757 -1.87556 0
M  V30 5557 C 526.667 -0.259593 -1.67399 0
M  V30 5558 O 527.873 -0.429349 -1.74804 0
M  V30 5559 H 524.248 -0.42947 -0.6173 0
M  V30 5560 H 526.219 -2.33345 -1.85991 0
M  V30 5561 C 524.968 -1.23087 -3.25184 0
M  V30 5562 H 524.291 -2.08237 -3.41288 0
M  V30 5563 H 525.731 -1.26049 -4.0483 0
M  V30 5564 C 524.19 0.0611471 -3.36845 0
M  V30 5565 O 524.72 1.03328 -3.88183 0
M  V30 5566 N 522.926 0.122454 -2.90342 0
M  V30 5567 H 522.473 -0.669329 -2.48752 0
M  V30 5568 H 522.431 0.986463 -2.98523 0
M  V30 5569 N 526.204 0.969867 -1.24223 0
M  V30 5570 C 527.45 1.7151 -1.08223 0
M  V30 5571 C 527.783 1.90478 0.37838 0
M  V30 5572 O 527.058 1.4647 1.27971 0
M  V30 5573 C 527.341 3.10714 -1.82013 0
M  V30 5574 C 527.194 2.9925 -3.35811 0
M  V30 5575 C 528.513 4.10332 -1.59108 0
M  V30 5576 H 525.632 0.622499 -0.394543 0
M  V30 5577 H 528.274 1.1284 -1.52863 0
M  V30 5578 H 526.424 3.608 -1.44068 0
M  V30 5579 H 528.096 2.56608 -3.83341 0
M  V30 5580 H 526.339 2.35512 -3.64303 0
M  V30 5581 H 527.01 3.97857 -3.82641 0
M  V30 5582 H 529.486 3.69097 -1.92111 0
M  V30 5583 H 528.362 5.05804 -2.13198 0
M  V30 5584 H 528.623 4.38926 -0.528832 0
M  V30 5585 N 527.682 1.05563 1.17022 0
M  V30 5586 C 528.928 0.778872 1.87897 0
M  V30 5587 C 529.283 -0.686839 1.79723 0
M  V30 5588 O 528.576 -1.49612 1.19694 0
M  V30 5589 C 528.77 1.19849 3.36706 0
M  V30 5590 C 528.599 2.70345 3.59366 0
M  V30 5591 C 527.369 3.37707 3.75875 0
M  V30 5592 C 529.567 3.68564 3.58699 0
M  V30 5593 N 527.549 4.7703 3.86414 0
M  V30 5594 C 528.92 4.93634 3.75134 0
M  V30 5595 C 530.975 3.6198 3.4187 0
M  V30 5596 C 529.678 6.12907 3.76481 0
M  V30 5597 C 531.704 4.80697 3.44507 0
M  V30 5598 C 531.066 6.04592 3.61453 0
M  V30 5599 H 527.165 0.337297 0.705517 0
M  V30 5600 H 529.749 1.34832 1.40458 0
M  V30 5601 H 527.92 0.656958 3.82804 0
M  V30 5602 H 529.652 0.871172 3.95212 0
M  V30 5603 H 526.407 2.88108 3.75887 0
M  V30 5604 H 526.831 5.49483 3.95471 0
M  V30 5605 H 531.473 2.67154 3.27702 0
M  V30 5606 H 529.191 7.08073 3.89432 0
M  V30 5607 H 532.777 4.77259 3.32738 0
M  V30 5608 H 531.657 6.94916 3.63403 0
M  V30 5609 N 529.16 -1.33526 0.837174 0
M  V30 5610 C 530.407 -1.97837 0.432064 0
M  V30 5611 C 530.735 -1.66324 -1.00829 0
M  V30 5612 O 529.99 -0.93448 -1.71948 0
M  V30 5613 C 530.289 -3.52367 0.597675 0
M  V30 5614 C 529.955 -4.03826 2.00587 0
M  V30 5615 C 528.617 -4.1759 2.39106 0
M  V30 5616 C 530.969 -4.31333 2.92576 0
M  V30 5617 C 528.297 -4.56195 3.68921 0
M  V30 5618 C 530.649 -4.7139 4.2187 0
M  V30 5619 C 529.313 -4.8336 4.60347 0
M  V30 5620 H 528.583 -0.723937 0.158104 0
M  V30 5621 H 531.23 -1.5923 1.06387 0
M  V30 5622 H 529.535 -3.91624 -0.117452 0
M  V30 5623 H 531.232 -4.00126 0.26454 0
M  V30 5624 H 527.822 -3.93586 1.69671 0
M  V30 5625 H 532.006 -4.20224 2.64056 0
M  V30 5626 H 527.262 -4.63655 3.9854 0
M  V30 5627 H 531.436 -4.91631 4.93226 0
M  V30 5628 H 529.063 -5.1303 5.60985 0
M  V30 5629 N 530.638 -0.59345 -1.46 0
M  V30 5630 C 531.601 0.123538 -2.28867 0
M  V30 5631 C 532.601 0.808628 -1.38989 0
M  V30 5632 O 533.791 0.658945 -1.61256 0
M  V30 5633 C 530.923 1.1847 -3.19653 0
M  V30 5634 H 532.116 -0.604843 -2.93737 0
M  V30 5635 H 529.669 -0.351875 -1.52288 0
M  V30 5636 H 530.404 1.94431 -2.59552 0
M  V30 5637 H 530.189 0.69783 -3.8584 0
M  V30 5638 H 531.679 1.68726 -3.81997 0
M  V30 5639 N 532.116 1.54067 -0.331816 0
M  V30 5640 C 533.026 2.28322 0.539104 0
M  V30 5641 C 534.042 1.32985 1.1221 0
M  V30 5642 O 535.218 1.6601 1.1403 0
M  V30 5643 C 532.283 3.03277 1.68 0
M  V30 5644 C 531.344 4.14216 1.12798 0
M  V30 5645 C 530.577 4.85588 2.2145 0
M  V30 5646 O 530.8 4.56536 3.41952 0
M  V30 5647 O 529.734 5.72309 1.86404 0
M  V30 5648 H 533.56 3.03632 -0.0641692 0
M  V30 5649 H 531.145 1.49083 -0.0972365 0
M  V30 5650 H 533.027 3.50189 2.34405 0
M  V30 5651 H 531.702 2.30834 2.2693 0
M  V30 5652 H 530.609 3.71635 0.428782 0
M  V30 5653 H 531.942 4.88727 0.583698 0
M  V30 5654 N 533.594 0.0601682 1.57485 0
M  V30 5655 C 534.841 -0.611594 1.93043 0
M  V30 5656 C 535.169 -1.70317 0.939274 0
M  V30 5657 O 534.424 -1.95644 -0.046996 0
M  V30 5658 C 534.723 -1.23831 3.35262 0
M  V30 5659 C 534.389 -0.274037 4.50066 0
M  V30 5660 C 533.051 -0.00872394 4.81199 0
M  V30 5661 C 535.403 0.386308 5.19766 0
M  V30 5662 C 532.731 0.924218 5.79375 0
M  V30 5663 C 535.083 1.3075 6.1894 0
M  V30 5664 C 533.747 1.58139 6.48497 0
M  V30 5665 H 533.017 -0.223798 0.706396 0
M  V30 5666 H 535.664 0.128566 1.91068 0
M  V30 5667 H 533.969 -2.05394 3.33647 0
M  V30 5668 H 535.666 -1.76517 3.60059 0
M  V30 5669 H 532.256 -0.491008 4.25778 0
M  V30 5670 H 536.44 0.194436 4.95919 0
M  V30 5671 H 531.696 1.1438 6.00606 0
M  V30 5672 H 535.87 1.82519 6.72056 0
M  V30 5673 H 533.497 2.30593 7.24383 0
M  V30 5674 N 535.072 -1.5615 -0.213296 0
M  V30 5675 C 536.318 -1.80718 -0.933402 0
M  V30 5676 C 536.673 -0.634441 -1.81639 0
M  V30 5677 O 535.966 0.371182 -1.8797 0
M  V30 5678 C 536.16 -3.08772 -1.79985 0
M  V30 5679 C 535.989 -4.38389 -1.00224 0
M  V30 5680 C 534.759 -5.00513 -0.693885 0
M  V30 5681 C 536.957 -5.13013 -0.363598 0
M  V30 5682 N 534.939 -6.13774 0.124266 0
M  V30 5683 C 536.31 -6.19186 0.31757 0
M  V30 5684 C 538.365 -4.97126 -0.277468 0
M  V30 5685 C 537.068 -7.11197 1.07664 0
M  V30 5686 C 539.094 -5.89544 0.468155 0
M  V30 5687 C 538.456 -6.95149 1.13784 0
M  V30 5688 H 534.555 -0.712833 -0.321549 0
M  V30 5689 H 537.139 -1.93633 -0.203588 0
M  V30 5690 H 535.31 -2.97126 -2.50142 0
M  V30 5691 H 537.042 -3.21499 -2.45806 0
M  V30 5692 H 533.797 -4.62619 -1.01391 0
M  V30 5693 H 534.221 -6.74981 0.522418 0
M  V30 5694 H 538.863 -4.15526 -0.78087 0
M  V30 5695 H 536.581 -7.92273 1.59153 0
M  V30 5696 H 540.167 -5.79327 0.535911 0
M  V30 5697 H 539.047 -7.65428 1.70557 0
M  V30 5698 N 536.55 0.480323 -1.50102 0
M  V30 5699 C 537.46 1.60547 -1.71061 0
M  V30 5700 C 538.476 1.63564 -0.593529 0
M  V30 5701 O 539.652 1.81604 -0.870751 0
M  V30 5702 C 536.717 2.96814 -1.79171 0
M  V30 5703 C 535.778 3.04259 -3.02861 0
M  V30 5704 C 535.011 4.34027 -3.10574 0
M  V30 5705 O 535.234 5.24009 -2.25323 0
M  V30 5706 O 534.168 4.46873 -4.03223 0
M  V30 5707 H 537.994 1.45788 -2.6642 0
M  V30 5708 H 535.579 0.658838 -1.34088 0
M  V30 5709 H 537.461 3.77765 -1.86738 0
M  V30 5710 H 536.136 3.11791 -0.869947 0
M  V30 5711 H 535.043 2.22419 -3.008 0
M  V30 5712 H 536.376 2.94216 -3.94586 0
M  V30 5713 N 538.028 1.39524 0.732853 0
M  V30 5714 C 538.938 1.40695 1.87729 0
M  V30 5715 C 539.954 0.301496 1.71368 0
M  V30 5716 O 541.13 0.543313 1.93933 0
M  V30 5717 C 538.195 1.25098 3.23344 0
M  V30 5718 C 537.256 2.45634 3.52083 0
M  V30 5719 C 536.489 2.30772 4.81228 0
M  V30 5720 O 536.712 1.31233 5.55098 0
M  V30 5721 O 535.646 3.19799 5.09914 0
M  V30 5722 H 539.472 2.37168 1.89697 0
M  V30 5723 H 537.057 1.20663 0.880959 0
M  V30 5724 H 538.939 1.18541 4.04383 0
M  V30 5725 H 537.614 0.317209 3.22142 0
M  V30 5726 H 536.521 2.57767 2.71122 0
M  V30 5727 H 537.854 3.37712 3.58066 0
M  V30 5728 N 539.506 -0.963266 1.24736 0
M  V30 5729 C 540.454 -2.07985 1.04139 0
M  V30 5730 C 541.448 -1.69381 -0.0250556 0
M  V30 5731 O 542.654 -1.79531 0.129863 0
M  V30 5732 H 539.029 -0.680627 0.319768 0
M  V30 5733 H 541 -2.22517 1.98818 0
M  V30 5734 C 539.749 -3.4123 0.667615 0
M  V30 5735 H 539.072 -3.71397 1.48 0
M  V30 5736 H 540.512 -4.20244 0.563136 0
M  V30 5737 C 538.971 -3.3104 -0.625647 0
M  V30 5738 O 539.501 -3.65334 -1.67016 0
M  V30 5739 N 537.707 -2.84168 -0.608033 0
M  V30 5740 H 537.254 -2.56458 0.242323 0
M  V30 5741 H 537.212 -2.77732 -1.47352 0
M  V30 5742 N 540.985 -1.06182 -1.16461 0
M  V30 5743 C 542.232 -0.777863 -1.86964 0
M  V30 5744 C 542.56 0.695602 -1.81636 0
M  V30 5745 O 541.815 1.52532 -1.22607 0
M  V30 5746 C 542.114 -1.21633 -3.36066 0
M  V30 5747 C 541.78 -2.69371 -3.61594 0
M  V30 5748 C 540.442 -3.09727 -3.6827 0
M  V30 5749 C 542.794 -3.64791 -3.7226 0
M  V30 5750 C 540.122 -4.44345 -3.83112 0
M  V30 5751 C 542.474 -4.99155 -3.88623 0
M  V30 5752 C 541.138 -5.39149 -3.93541 0
M  V30 5753 H 540.408 -0.28464 -0.68415 0
M  V30 5754 H 543.055 -1.33071 -1.37711 0
M  V30 5755 H 541.36 -0.582651 -3.87443 0
M  V30 5756 H 543.057 -0.973682 -3.88999 0
M  V30 5757 H 539.647 -2.37124 -3.57029 0
M  V30 5758 H 543.831 -3.34746 -3.66413 0
M  V30 5759 H 539.087 -4.74819 -3.85172 0
M  V30 5760 H 543.261 -5.72976 -3.95817 0
M  V30 5761 H 540.888 -6.43464 -4.04794 0
M  V30 5762 N 542.463 1.3308 -0.844243 0
M  V30 5763 C 543.711 1.97215 -0.441676 0
M  V30 5764 C 544.032 1.67185 1.0037 0
M  V30 5765 O 543.302 0.973588 1.69994 0
M  V30 5766 H 541.882 0.72959 -0.160335 0
M  V30 5767 H 544.544 1.62348 -1.07838 0
M  V30 5768 H 543.64 3.06698 -0.57815 0
M  V30 5769 N 543.941 0.601185 1.45683 0
M  V30 5770 C 545.181 0.0968037 2.04171 0
M  V30 5771 C 545.545 -1.2466 1.46027 0
M  V30 5772 O 546.746 -1.84132 1.95829 0
M  V30 5773 C 545.017 0.051384 3.57363 0
M  V30 5774 S 546.576 -0.392737 4.37039 0
M  V30 5775 H 543.394 0.0464504 0.709481 0
M  V30 5776 H 545.996 0.797846 1.78479 0
M  V30 5777 H 544.7 1.03274 3.97193 0
M  V30 5778 H 544.231 -0.671853 3.87621 0
M  V30 5779 H 546.246 -1.64364 4.68187 0
M  V30 5780 N 545.419 -1.53889 0.339982 0
M  V30 5781 C 546.366 -2.24902 -0.518452 0
M  V30 5782 C 547.336 -1.24593 -1.09844 0
M  V30 5783 O 548.521 -1.53317 -1.13572 0
M  V30 5784 C 545.661 -3.02262 -1.66529 0
M  V30 5785 C 544.774 -4.17418 -1.11295 0
M  V30 5786 C 543.909 -4.82273 -2.2268 0
M  V30 5787 C 542.948 -5.89503 -1.6478 0
M  V30 5788 N 542.085 -6.48153 -2.69893 0
M  V30 5789 H 546.925 -2.97853 0.0936579 0
M  V30 5790 H 544.462 -1.46986 0.0579924 0
M  V30 5791 H 546.42 -3.45371 -2.3404 0
M  V30 5792 H 545.05 -2.31614 -2.24844 0
M  V30 5793 H 544.102 -3.78976 -0.328886 0
M  V30 5794 H 545.414 -4.94554 -0.649414 0
M  V30 5795 H 544.568 -5.28435 -2.98063 0
M  V30 5796 H 543.307 -4.04552 -2.72376 0
M  V30 5797 H 542.312 -5.42728 -0.879004 0
M  V30 5798 H 543.537 -6.6913 -1.1594 0
M  V30 5799 H 541.483 -5.73298 -3.1885 0
M  V30 5800 H 541.4 -7.20752 -2.28151 0
M  V30 5801 H 542.668 -6.98968 -3.45056 0
M  V30 5802 N 546.897 -0.0685191 -1.57451 0
M  V30 5803 C 547.827 0.89747 -2.15564 0
M  V30 5804 C 548.808 1.31266 -1.08181 0
M  V30 5805 O 549.993 1.38429 -1.36202 0
M  V30 5806 C 547.123 2.16623 -2.71463 0
M  V30 5807 C 546.077 1.89054 -3.83982 0
M  V30 5808 C 545.403 3.22532 -4.26471 0
M  V30 5809 C 546.703 1.1984 -5.08366 0
M  V30 5810 H 548.397 0.413373 -2.96533 0
M  V30 5811 H 545.943 0.197391 -1.42641 0
M  V30 5812 H 547.896 2.84614 -3.10761 0
M  V30 5813 H 546.62 2.67269 -1.8771 0
M  V30 5814 H 545.279 1.23469 -3.45183 0
M  V30 5815 H 544.927 3.71013 -3.39644 0
M  V30 5816 H 544.627 3.04879 -5.02317 0
M  V30 5817 H 546.151 3.91727 -4.68383 0
M  V30 5818 H 547.565 1.77896 -5.45001 0
M  V30 5819 H 545.962 1.12456 -5.89469 0
M  V30 5820 H 547.032 0.176996 -4.84577 0
M  V30 5821 N 548.375 1.56261 0.205012 0
M  V30 5822 C 549.623 1.79684 0.925096 0
M  V30 5823 C 549.944 0.63989 1.84202 0
M  V30 5824 O 549.214 -0.342345 1.92885 0
M  V30 5825 H 547.794 0.662774 0.344587 0
M  V30 5826 H 550.456 1.93734 0.212899 0
M  V30 5827 H 549.552 2.72467 1.52211 0
M  V30 5828 N 549.853 -0.472356 1.50355 0
M  V30 5829 C 551.078 -1.25251 1.65309 0
M  V30 5830 C 551.503 -1.85081 0.335643 0
M  V30 5831 O 550.861 -1.67227 -0.700335 0
M  V30 5832 C 550.909 -2.3379 2.74544 0
M  V30 5833 O 550.013 -3.38401 2.35709 0
M  V30 5834 H 549.354 -0.368539 0.552336 0
M  V30 5835 H 551.884 -0.562271 1.96722 0
M  V30 5836 H 551.894 -2.79121 2.97583 0
M  V30 5837 H 550.569 -1.89614 3.70161 0
M  V30 5838 H 549.146 -2.9879 2.23112 0
M  V30 5839 N 551.331 -1.39911 -0.725443 0
M  V30 5840 C 552.281 -1.35878 -1.83088 0
M  V30 5841 C 553.265 -0.237989 -1.5913 0
M  V30 5842 O 554.457 -0.476302 -1.70471 0
M  V30 5843 C 551.586 -1.21403 -3.21117 0
M  V30 5844 C 550.672 -2.38223 -3.50871 0
M  V30 5845 N 551.063 -3.63703 -3.51502 0
M  V30 5846 C 549.361 -2.31388 -3.81281 0
M  V30 5847 C 550.062 -4.4101 -3.79322 0
M  V30 5848 N 549.038 -3.7072 -3.97577 0
M  V30 5849 H 552.84 -2.3085 -1.81895 0
M  V30 5850 H 550.354 -1.33543 -0.924125 0
M  V30 5851 H 552.351 -1.16597 -4.00263 0
M  V30 5852 H 551.011 -0.273902 -3.23543 0
M  V30 5853 H 552.022 -3.96998 -3.32586 0
M  V30 5854 H 548.699 -1.45689 -3.91256 0
M  V30 5855 H 550.089 -5.49819 -3.86198 0
M  V30 5856 N 552.809 0.956637 -1.25245 0
M  V30 5857 C 554.057 1.69764 -1.09657 0
M  V30 5858 C 554.378 1.91583 0.363464 0
M  V30 5859 O 553.648 1.50149 1.25825 0
M  V30 5860 H 552.228 0.629097 -0.402798 0
M  V30 5861 H 554.89 1.15026 -1.57337 0
M  V30 5862 H 553.986 2.67769 -1.60331 0
M  V30 5863 N 554.287 1.06798 1.15896 0
M  V30 5864 C 555.234 0.683314 2.20453 0
M  V30 5865 C 556.204 -0.32255 1.62938 0
M  V30 5866 O 557.389 -0.210276 1.89638 0
M  V30 5867 C 554.529 0.0813266 3.45004 0
M  V30 5868 C 553.642 1.13799 4.16742 0
M  V30 5869 C 552.777 0.501598 5.28826 0
M  V30 5870 C 551.816 1.54144 5.92373 0
M  V30 5871 N 550.953 0.928038 6.9594 0
M  V30 5872 H 555.793 1.57932 2.52708 0
M  V30 5873 H 553.33 0.789544 1.24115 0
M  V30 5874 H 555.288 -0.285274 4.16224 0
M  V30 5875 H 553.918 -0.77806 3.13283 0
M  V30 5876 H 552.97 1.62223 3.44075 0
M  V30 5877 H 554.282 1.92664 4.60089 0
M  V30 5878 H 553.436 0.0823162 6.06644 0
M  V30 5879 H 552.175 -0.318883 4.86656 0
M  V30 5880 H 551.18 1.97056 5.13273 0
M  V30 5881 H 552.405 2.3641 6.36621 0
M  V30 5882 H 550.351 0.12836 6.55874 0
M  V30 5883 H 550.268 1.65401 7.37685 0
M  V30 5884 H 551.536 0.534071 7.77668 0
M  V30 5885 N 555.766 -1.3263 0.851289 0
M  V30 5886 C 557.182 -1.50162 0.5407 0
M  V30 5887 C 557.382 -1.78788 -0.929369 0
M  V30 5888 O 556.438 -1.85545 -1.71258 0
M  V30 5889 C 557.751 -2.64803 1.42478 0
M  V30 5890 C 559.299 -2.78688 1.42485 0
M  V30 5891 C 559.774 -3.96405 2.29407 0
M  V30 5892 N 561.265 -4.0366 2.27184 0
M  V30 5893 C 562 -4.93971 2.9117 0
M  V30 5894 N 561.496 -5.89313 3.64256 0
M  V30 5895 N 563.289 -4.87066 2.80576 0
M  V30 5896 H 555.44 -1.12315 1.80275 0
M  V30 5897 H 557.703 -0.553266 0.769806 0
M  V30 5898 H 557.409 -2.50368 2.46999 0
M  V30 5899 H 557.283 -3.60506 1.10974 0
M  V30 5900 H 559.67 -2.92547 0.387304 0
M  V30 5901 H 559.751 -1.83708 1.78002 0
M  V30 5902 H 559.395 -3.83304 3.33228 0
M  V30 5903 H 559.325 -4.90654 1.91224 0
M  V30 5904 H 561.816 -3.35435 1.74045 0
M  V30 5905 H 562.129 -6.54913 4.10255 0
M  V30 5906 H 560.474 -5.8935 3.68364 0
M  V30 5907 H 563.665 -4.11552 2.23031 0
M  V30 5908 H 563.838 -5.57248 3.30725 0
M  V30 5909 N 557.244 -0.608902 -1.45362 0
M  V30 5910 C 558.192 0.121639 -2.32282 0
M  V30 5911 C 559.186 0.858301 -1.46046 0
M  V30 5912 O 560.392 0.773718 -1.62523 0
M  V30 5913 H 556.767 0.058086 -0.749753 0
M  V30 5914 H 558.738 -0.629866 -2.91677 0
M  V30 5915 C 557.487 1.1047 -3.29684 0
M  V30 5916 H 556.81 0.547278 -3.96036 0
M  V30 5917 H 558.25 1.58576 -3.9323 0
M  V30 5918 C 556.709 2.17891 -2.56954 0
M  V30 5919 O 557.239 3.25652 -2.35189 0
M  V30 5920 N 555.445 1.93211 -2.17066 0
M  V30 5921 H 554.992 1.05584 -2.34967 0
M  V30 5922 H 554.95 2.6529 -1.68727 0
M  V30 5923 N 558.722 1.53707 -0.348139 0
M  V30 5924 C 559.947 2.05877 0.250883 0
M  V30 5925 C 560.372 1.22115 1.43072 0
M  V30 5926 O 559.73 0.235986 1.79758 0
M  V30 5927 C 559.778 3.54886 0.639416 0
M  V30 5928 O 558.882 3.73948 1.73888 0
M  V30 5929 H 558.223 0.662754 0.040653 0
M  V30 5930 H 560.753 1.98303 -0.503685 0
M  V30 5931 H 560.763 3.97601 0.915295 0
M  V30 5932 H 559.438 4.153 -0.223386 0
M  V30 5933 H 558.015 3.43134 1.45991 0
M  V30 5934 N 560.2 0.0768682 1.57412 0
M  V30 5935 C 561.15 -0.898795 2.09537 0
M  V30 5936 C 562.134 -1.25556 1.0062 0
M  V30 5937 O 563.326 -1.23369 1.26921 0
M  V30 5938 C 560.455 -2.16453 2.66464 0
M  V30 5939 C 559.541 -1.83401 3.82393 0
M  V30 5940 N 559.932 -1.20823 4.91157 0
M  V30 5941 C 558.23 -2.13121 3.91785 0
M  V30 5942 C 558.931 -1.05976 5.71965 0
M  V30 5943 N 557.907 -1.57113 5.204 0
M  V30 5944 H 561.709 -0.410718 2.91016 0
M  V30 5945 H 559.223 -0.126878 1.61904 0
M  V30 5946 H 561.22 -2.87274 3.02125 0
M  V30 5947 H 559.88 -2.65844 1.86433 0
M  V30 5948 H 560.891 -0.877249 5.10416 0
M  V30 5949 H 557.568 -2.64854 3.22736 0
M  V30 5950 H 558.958 -0.571809 6.69462 0
M  V30 5951 N 561.678 -1.56367 -0.196722 0
M  V30 5952 C 562.927 -1.79724 -0.915539 0
M  V30 5953 C 563.24 -0.649804 -1.84491 0
M  V30 5954 O 564.446 -0.767631 -2.60422 0
M  V30 5955 C 562.902 -3.18369 -1.67836 0
M  V30 5956 C 562.51 -4.4091 -0.793897 0
M  V30 5957 C 564.254 -3.51037 -2.38691 0
M  V30 5958 C 562.161 -5.70577 -1.55549 0
M  V30 5959 H 561.091 -0.67013 -0.345604 0
M  V30 5960 H 563.742 -1.82721 -0.168856 0
M  V30 5961 H 562.124 -3.09617 -2.46887 0
M  V30 5962 H 563.298 -4.60781 -0.042163 0
M  V30 5963 H 561.613 -4.15937 -0.19626 0
M  V30 5964 H 564.21 -4.4515 -2.96219 0
M  V30 5965 H 564.553 -2.74704 -3.12799 0
M  V30 5966 H 565.086 -3.61229 -1.66608 0
M  V30 5967 H 561.825 -6.49871 -0.857226 0
M  V30 5968 H 561.345 -5.54726 -2.2812 0
M  V30 5969 H 563.024 -6.11637 -2.10971 0
M  V30 5970 N 563.156 0.464375 -1.50603 0
M  V30 5971 C 564.103 1.56152 -1.69956 0
M  V30 5972 C 565.073 1.57046 -0.54091 0
M  V30 5973 O 566.258 1.74473 -0.772258 0
M  V30 5974 C 563.398 2.94079 -1.80586 0
M  V30 5975 C 562.511 3.02923 -3.07996 0
M  V30 5976 C 561.646 4.31806 -3.09382 0
M  V30 5977 C 560.685 4.34417 -4.31218 0
M  V30 5978 N 559.822 5.54782 -4.30304 0
M  V30 5979 H 564.662 1.38955 -2.6362 0
M  V30 5980 H 562.199 0.675482 -1.30674 0
M  V30 5981 H 564.157 3.74073 -1.8473 0
M  V30 5982 H 562.787 3.09896 -0.903556 0
M  V30 5983 H 561.839 2.1576 -3.13292 0
M  V30 5984 H 563.151 3.00712 -3.97962 0
M  V30 5985 H 562.305 5.20153 -3.12292 0
M  V30 5986 H 561.044 4.36636 -2.17257 0
M  V30 5987 H 560.049 3.44467 -4.28512 0
M  V30 5988 H 561.274 4.31273 -5.24576 0
M  V30 5989 H 559.22 5.60384 -3.41037 0
M  V30 5990 H 559.137 5.54339 -5.14047 0
M  V30 5991 H 560.405 6.45235 -4.3737 0
M  V30 5992 N 564.634 1.40294 0.718013 0
M  V30 5993 C 565.581 1.40367 1.8321 0
M  V30 5994 C 566.551 0.260952 1.64037 0
M  V30 5995 O 567.736 0.458648 1.85205 0
M  V30 5996 C 564.876 1.26965 3.20895 0
M  V30 5997 C 563.989 2.50922 3.51656 0
M  V30 5998 C 563.124 2.29981 4.78834 0
M  V30 5999 C 562.163 3.49527 5.02491 0
M  V30 6000 N 561.3 3.27796 6.20882 0
M  V30 6001 H 566.14 2.35593 1.82482 0
M  V30 6002 H 563.677 1.17012 0.891444 0
M  V30 6003 H 565.635 1.17202 4.00399 0
M  V30 6004 H 564.265 0.353591 3.20858 0
M  V30 6005 H 563.317 2.71223 2.66725 0
M  V30 6006 H 564.629 3.39913 3.65048 0
M  V30 6007 H 563.783 2.17558 5.66351 0
M  V30 6008 H 562.522 1.38411 4.67647 0
M  V30 6009 H 561.527 3.6243 4.1343 0
M  V30 6010 H 562.752 4.42021 5.15553 0
M  V30 6011 H 560.698 2.38906 6.1095 0
M  V30 6012 H 560.615 4.10351 6.34939 0
M  V30 6013 H 561.883 3.19101 7.11193 0
M  V30 6014 N 566.112 -0.949982 1.2575 0
M  V30 6015 C 567.352 -1.70994 1.11984 0
M  V30 6016 C 567.716 -1.89095 -0.332746 0
M  V30 6017 O 568.917 -2.62192 -0.592331 0
M  V30 6018 C 567.188 -3.05286 1.85837 0
M  V30 6019 S 568.747 -3.96477 1.88019 0
M  V30 6020 H 565.565 -0.587689 0.400178 0
M  V30 6021 H 568.167 -1.13271 1.59342 0
M  V30 6022 H 566.871 -2.89785 2.90608 0
M  V30 6023 H 566.402 -3.68069 1.38885 0
M  V30 6024 H 568.417 -4.86814 0.96057 0
M  V30 6025 N 567.59 -1.07411 -1.15328 0
M  V30 6026 C 568.818 -0.818782 -1.90009 0
M  V30 6027 C 569.233 0.628072 -1.78047 0
M  V30 6028 O 568.59 1.43085 -1.13282 0
M  V30 6029 C 568.641 -1.21874 -3.40337 0
M  V30 6030 O 568.362 -2.60883 -3.51954 0
M  V30 6031 C 569.863 -0.992796 -4.3204 0
M  V30 6032 H 567.083 -0.296007 -0.60218 0
M  V30 6033 H 569.627 -1.43073 -1.46117 0
M  V30 6034 H 567.782 -0.651103 -3.81889 0
M  V30 6035 H 568.196 -2.77216 -4.45255 0
M  V30 6036 H 569.67 -1.32215 -5.35932 0
M  V30 6037 H 570.147 0.0708331 -4.39143 0
M  V30 6038 H 570.753 -1.54537 -3.9623 0
M  V30 6039 N 569.068 1.32177 -0.85831 0
M  V30 6040 C 570.316 1.96735 -0.462568 0
M  V30 6041 C 570.637 1.6824 0.985911 0
M  V30 6042 O 569.907 0.991564 1.68952 0
M  V30 6043 H 568.487 0.727849 -0.168064 0
M  V30 6044 H 571.149 1.61195 -1.09554 0
M  V30 6045 H 570.245 3.06068 -0.610647 0
M  V30 6046 N 570.547 0.616602 1.45037 0
M  V30 6047 C 571.477 -0.0840787 2.33349 0
M  V30 6048 C 572.458 -0.849641 1.4736 0
M  V30 6049 O 573.643 -0.818407 1.76113 0
M  V30 6050 C 570.773 -1.07604 3.3021 0
M  V30 6051 C 569.727 -0.423096 4.25904 0
M  V30 6052 C 569.053 -1.52394 5.12523 0
M  V30 6053 C 570.353 0.661457 5.18095 0
M  V30 6054 H 572.047 0.653333 2.92185 0
M  V30 6055 H 569.593 0.315634 1.40498 0
M  V30 6056 H 571.546 -1.57485 3.90866 0
M  V30 6057 H 570.27 -1.84416 2.69552 0
M  V30 6058 H 568.929 0.05493 3.66559 0
M  V30 6059 H 568.577 -2.28257 4.48227 0
M  V30 6060 H 568.277 -1.09251 5.77354 0
M  V30 6061 H 569.801 -2.02485 5.76049 0
M  V30 6062 H 571.215 0.246353 5.7277 0
M  V30 6063 H 569.612 1.01517 5.91451 0
M  V30 6064 H 570.682 1.53446 4.59981 0
M  V30 6065 N 572.025 -1.5352 0.356285 0
M  V30 6066 C 572.935 -2.29151 -0.502712 0
M  V30 6067 C 573.951 -1.34753 -1.1008 0
M  V30 6068 O 575.127 -1.67803 -1.11374 0
M  V30 6069 C 572.192 -3.05911 -1.63154 0
M  V30 6070 C 571.253 -4.15958 -1.06194 0
M  V30 6071 C 570.486 -4.8905 -2.13696 0
M  V30 6072 O 570.709 -4.61919 -3.34645 0
M  V30 6073 O 569.643 -5.75202 -1.77275 0
M  V30 6074 H 573.469 -3.03492 0.112466 0
M  V30 6075 H 571.054 -1.4891 0.120942 0
M  V30 6076 H 572.936 -3.53874 -2.28804 0
M  V30 6077 H 571.611 -2.34415 -2.23229 0
M  V30 6078 H 570.518 -3.7227 -0.369603 0
M  V30 6079 H 571.851 -4.89593 -0.505872 0
M  V30 6080 N 573.503 -0.0852151 -1.57369 0
M  V30 6081 C 574.919 0.271436 -1.57275 0
M  V30 6082 C 575.119 1.69109 -1.09565 0
M  V30 6083 O 574.175 2.40549 -0.767611 0
M  V30 6084 C 575.488 0.0688638 -3.00621 0
M  V30 6085 C 577.036 0.137373 -3.12698 0
M  V30 6086 C 577.511 -0.0370832 -4.57985 0
M  V30 6087 N 579.002 0.0180794 -4.63196 0
M  V30 6088 C 579.737 -0.0922953 -5.73326 0
M  V30 6089 N 579.233 -0.256948 -6.92323 0
M  V30 6090 N 581.026 -0.0342702 -5.6209 0
M  V30 6091 H 573.177 -1.01288 -1.86693 0
M  V30 6092 H 575.44 -0.396138 -0.861266 0
M  V30 6093 H 575.146 -0.911277 -3.39689 0
M  V30 6094 H 575.02 0.815442 -3.6828 0
M  V30 6095 H 577.407 1.10801 -2.73509 0
M  V30 6096 H 577.488 -0.640532 -2.47651 0
M  V30 6097 H 577.132 -1.00455 -4.97867 0
M  V30 6098 H 577.062 0.760392 -5.21081 0
M  V30 6099 H 579.553 0.143202 -3.77629 0
M  V30 6100 H 579.866 -0.332949 -7.72082 0
M  V30 6101 H 578.211 -0.292487 -6.94384 0
M  V30 6102 H 581.402 0.0931605 -4.68007 0
M  V30 6103 H 581.575 -0.12374 -6.47882 0
M  V30 6104 N 574.981 1.5647 0.188427 0
M  V30 6105 C 576.23 1.80207 0.905995 0
M  V30 6106 C 576.543 0.659579 1.84144 0
M  V30 6107 O 577.749 0.781431 2.60011 0
M  V30 6108 C 576.205 3.19255 1.66145 0
M  V30 6109 C 575.813 4.41324 0.770504 0
M  V30 6110 C 577.557 3.52298 2.36826 0
M  V30 6111 C 575.464 5.71394 1.52521 0
M  V30 6112 H 574.394 0.671953 0.342045 0
M  V30 6113 H 577.045 1.82808 0.159164 0
M  V30 6114 H 575.427 3.10922 2.45242 0
M  V30 6115 H 576.601 4.60797 0.0177261 0
M  V30 6116 H 574.916 4.16035 0.174199 0
M  V30 6117 H 577.513 4.46715 2.93854 0
M  V30 6118 H 577.856 2.76359 3.11338 0
M  V30 6119 H 578.389 3.62108 1.6469 0
M  V30 6120 H 575.128 6.50316 0.82275 0
M  V30 6121 H 574.648 5.55928 2.25175 0
M  V30 6122 H 576.327 6.12747 2.07725 0
M  V30 6123 N 576.459 -0.456382 1.50847 0
M  V30 6124 C 577.422 -1.53493 1.70213 0
M  V30 6125 C 578.422 -1.50264 0.572481 0
M  V30 6126 O 579.612 -1.52623 0.839751 0
M  V30 6127 C 576.744 -2.93091 1.741 0
M  V30 6128 H 577.937 -1.37633 2.66453 0
M  V30 6129 H 575.49 -0.683776 1.4055 0
M  V30 6130 H 576.225 -3.14378 0.796063 0
M  V30 6131 H 576.01 -2.9684 2.5618 0
M  V30 6132 H 577.5 -3.71368 1.90987 0
M  V30 6133 N 577.937 -1.40673 -0.710563 0
M  V30 6134 C 579.353 -1.22813 -1.01928 0
M  V30 6135 C 579.553 -0.10687 -2.01216 0
M  V30 6136 O 578.609 0.533614 -2.46797 0
M  V30 6137 C 579.922 -2.57178 -1.5582 0
M  V30 6138 C 581.47 -2.64233 -1.67779 0
M  V30 6139 C 581.945 -3.98879 -2.25076 0
M  V30 6140 N 583.436 -4.00647 -2.32456 0
M  V30 6141 C 584.171 -5.01621 -2.77784 0
M  V30 6142 N 583.667 -6.12989 -3.22826 0
M  V30 6143 N 585.46 -4.88988 -2.77213 0
M  V30 6144 H 577.611 -2.12335 -0.05253 0
M  V30 6145 H 579.874 -0.9441 -0.085898 0
M  V30 6146 H 579.58 -3.39903 -0.903249 0
M  V30 6147 H 579.454 -2.78618 -2.54267 0
M  V30 6148 H 581.841 -1.81876 -2.3239 0
M  V30 6149 H 581.922 -2.46619 -0.679178 0
M  V30 6150 H 581.566 -4.81678 -1.61086 0
M  V30 6151 H 581.496 -4.13826 -3.25661 0
M  V30 6152 H 583.987 -3.20231 -2.0065 0
M  V30 6153 H 584.3 -6.85921 -3.55995 0
M  V30 6154 H 582.645 -6.16547 -3.20773 0
M  V30 6155 H 585.836 -4.01075 -2.41363 0
M  V30 6156 H 586.009 -5.67822 -3.12221 0
M  V30 6157 N 579.415 0.9433 -1.26252 0
M  V30 6158 C 580.692 1.66639 -1.02424 0
M  V30 6159 C 581.072 2.06335 0.446006 0
M  V30 6160 O 580.42 1.78551 1.42589 0
M  V30 6161 C 580.63 2.88019 -1.97094 0
M  V30 6162 C 581.978 3.59718 -2.25584 0
M  V30 6163 O 583.002 2.9812 -1.94943 0
M  V30 6164 O 581.861 4.7066 -2.77743 0
M  V30 6165 H 578.955 0.729643 -0.389294 0
M  V30 6166 H 581.501 0.995218 -1.37454 0
M  V30 6167 H 580.273 2.5556 -2.96319 0
M  V30 6168 H 579.896 3.62863 -1.62532 0
M  V30 6169 N 580.893 1.08022 1.14757 0
M  V30 6170 C 582.118 0.82895 1.90114 0
M  V30 6171 C 582.543 -0.612772 1.77839 0
M  V30 6172 O 581.901 -1.42895 1.11583 0
M  V30 6173 C 581.949 1.25062 3.38219 0
M  V30 6174 O 581.053 0.400119 4.10454 0
M  V30 6175 H 580.394 0.301412 0.591648 0
M  V30 6176 H 582.924 1.44062 1.45284 0
M  V30 6177 H 582.934 1.22977 3.89025 0
M  V30 6178 H 581.609 2.30067 3.46471 0
M  V30 6179 H 580.186 0.484052 3.69745 0
M  V30 6180 N 582.371 -1.3172 0.865308 0
M  V30 6181 C 583.596 -2.01591 0.487415 0
M  V30 6182 C 584.021 -1.6455 -0.911307 0
M  V30 6183 O 583.379 -0.851689 -1.6005 0
M  V30 6184 C 583.427 -3.54759 0.646401 0
M  V30 6185 O 582.531 -4.11185 -0.316284 0
M  V30 6186 H 581.872 -0.634884 0.194468 0
M  V30 6187 H 584.402 -1.68024 1.16744 0
M  V30 6188 H 584.412 -4.04438 0.537932 0
M  V30 6189 H 583.087 -3.8106 1.66632 0
M  V30 6190 H 581.664 -3.72543 -0.163162 0
M  V30 6191 N 583.85 -0.624285 -1.44708 0
M  V30 6192 C 585.08 -0.132726 -2.06173 0
M  V30 6193 C 585.488 1.19513 -1.46674 0
M  V30 6194 O 584.831 1.74254 -0.581491 0
M  V30 6195 C 584.893 0.0636732 -3.59444 0
M  V30 6196 C 584.557 -1.18496 -4.4137 0
M  V30 6197 C 585.553 -2.10706 -4.75288 0
M  V30 6198 C 583.239 -1.41846 -4.81856 0
M  V30 6199 C 585.233 -3.24582 -5.48567 0
M  V30 6200 C 582.92 -2.5602 -5.54885 0
M  V30 6201 C 583.918 -3.47215 -5.88159 0
M  V30 6202 O 583.606 -4.59399 -6.59703 0
M  V30 6203 H 583.338 -0.0737313 -0.671967 0
M  V30 6204 H 585.892 -0.856789 -1.86677 0
M  V30 6205 H 584.122 0.842809 -3.77404 0
M  V30 6206 H 585.811 0.508924 -4.02697 0
M  V30 6207 H 586.577 -1.93898 -4.44554 0
M  V30 6208 H 582.456 -0.717556 -4.55381 0
M  V30 6209 H 586 -3.95785 -5.74456 0
M  V30 6210 H 581.897 -2.72774 -5.85034 0
M  V30 6211 H 582.665 -4.58293 -6.78166 0
M  V30 6212 N 585.328 1.53329 -0.364422 0
M  V30 6213 C 586.238 2.29414 0.490552 0
M  V30 6214 C 587.254 1.35335 1.09363 0
M  V30 6215 O 588.43 1.68391 1.10483 0
M  V30 6216 C 585.495 3.06772 1.61529 0
M  V30 6217 C 584.556 4.16516 1.03986 0
M  V30 6218 C 583.789 4.90176 2.111 0
M  V30 6219 O 584.012 4.63687 3.32191 0
M  V30 6220 O 582.946 5.76134 1.74222 0
M  V30 6221 H 586.772 3.03428 -0.12856 0
M  V30 6222 H 584.357 1.48843 -0.128837 0
M  V30 6223 H 586.239 3.55082 2.26924 0
M  V30 6224 H 584.914 2.35596 2.21983 0
M  V30 6225 H 583.821 3.7246 0.349856 0
M  V30 6226 H 585.154 4.89855 0.4799 0
M  V30 6227 N 586.806 0.0935595 1.57322 0
M  V30 6228 C 587.738 -0.895923 2.10964 0
M  V30 6229 C 588.751 -1.24705 1.04654 0
M  V30 6230 O 589.94 -1.20044 1.32105 0
M  V30 6231 C 587.04 -2.20546 2.57318 0
M  V30 6232 C 586.213 -2.0299 3.87445 0
M  V30 6233 C 585.272 -3.17443 4.19662 0
M  V30 6234 O 584.298 -2.91474 4.88909 0
M  V30 6235 N 585.5 -4.43168 3.74943 0
M  V30 6236 H 588.265 -0.437788 2.96485 0
M  V30 6237 H 585.826 -0.0915863 1.61641 0
M  V30 6238 H 587.818 -2.9606 2.75917 0
M  V30 6239 H 586.388 -2.57789 1.76816 0
M  V30 6240 H 585.608 -1.11815 3.78009 0
M  V30 6241 H 586.896 -1.88535 4.7258 0
M  V30 6242 H 586.294 -4.67149 3.19043 0
M  V30 6243 H 584.851 -5.15637 3.987 0
M  V30 6244 N 588.284 -1.56567 -0.180126 0
M  V30 6245 C 589.194 -1.98947 -1.24327 0
M  V30 6246 C 590.21 -0.899446 -1.4895 0
M  V30 6247 O 591.386 -1.20639 -1.61271 0
M  V30 6248 C 588.451 -2.33328 -2.56435 0
M  V30 6249 C 587.512 -3.56114 -2.39752 0
M  V30 6250 C 586.745 -3.88845 -3.65561 0
M  V30 6251 O 586.968 -3.22662 -4.70368 0
M  V30 6252 O 585.902 -4.82226 -3.60197 0
M  V30 6253 H 589.728 -2.89634 -0.913565 0
M  V30 6254 H 587.313 -1.44319 -0.386306 0
M  V30 6255 H 589.195 -2.5645 -3.34382 0
M  V30 6256 H 587.87 -1.45806 -2.89002 0
M  V30 6257 H 586.777 -3.38221 -1.59866 0
M  V30 6258 H 588.11 -4.4415 -2.12113 0
M  V30 6259 N 589.762 0.448376 -1.51087 0
M  V30 6260 C 591.01 1.19635 -1.62886 0
M  V30 6261 C 591.331 1.91977 -0.342024 0
M  V30 6262 O 590.601 1.85094 0.641636 0
M  V30 6263 H 589.181 0.444598 -0.600285 0
M  V30 6264 H 591.843 0.515138 -1.87969 0
M  V30 6265 H 590.939 1.93194 -2.45117 0
M  V30 6266 N 591.24 1.41047 0.703093 0
M  V30 6267 C 592.187 1.42302 1.81711 0
M  V30 6268 C 593.157 0.278336 1.63751 0
M  V30 6269 O 594.342 0.478266 1.84709 0
M  V30 6270 C 591.482 1.30362 3.19531 0
M  V30 6271 C 590.595 2.54638 3.48975 0
M  V30 6272 C 589.73 2.35047 4.76368 0
M  V30 6273 C 588.769 3.54837 4.98756 0
M  V30 6274 N 587.906 3.34363 6.1737 0
M  V30 6275 H 592.746 2.37516 1.79973 0
M  V30 6276 H 590.283 1.1795 0.878983 0
M  V30 6277 H 592.241 1.21443 3.99134 0
M  V30 6278 H 590.871 0.387602 3.20464 0
M  V30 6279 H 589.923 2.74037 2.63833 0
M  V30 6280 H 591.235 3.43766 3.61423 0
M  V30 6281 H 590.389 2.23552 5.64012 0
M  V30 6282 H 589.128 1.43363 4.66153 0
M  V30 6283 H 588.133 3.66795 4.09563 0
M  V30 6284 H 589.358 4.47464 5.10835 0
M  V30 6285 H 587.304 2.45373 6.08382 0
M  V30 6286 H 587.221 4.17063 6.30551 0
M  V30 6287 H 588.489 3.26626 7.07768 0
M  V30 6288 N 592.718 -0.936591 1.26751 0
M  V30 6289 C 593.964 -1.6858 1.12733 0
M  V30 6290 C 594.297 -1.91414 -0.327745 0
M  V30 6291 O 593.572 -1.49812 -1.24043 0
M  V30 6292 C 593.855 -3.05779 1.90187 0
M  V30 6293 C 593.708 -2.90242 3.43627 0
M  V30 6294 C 595.027 -4.0597 1.69931 0
M  V30 6295 H 592.146 -0.61182 0.410908 0
M  V30 6296 H 594.788 -1.08747 1.55801 0
M  V30 6297 H 592.938 -3.56853 1.53584 0
M  V30 6298 H 594.61 -2.46354 3.9001 0
M  V30 6299 H 592.853 -2.2577 3.70419 0
M  V30 6300 H 593.524 -3.87572 3.93055 0
M  V30 6301 H 596 -3.63874 2.0183 0
M  V30 6302 H 594.876 -4.99974 2.26534 0
M  V30 6303 H 595.137 -4.37369 0.64502 0
M  V30 6304 N 594.196 -1.08629 -1.14182 0
M  V30 6305 C 595.128 -0.676189 -2.18998 0
M  V30 6306 C 596.141 0.277871 -1.60411 0
M  V30 6307 O 597.33 0.0651771 -1.78381 0
M  V30 6308 C 594.43 0.0254916 -3.3889 0
M  V30 6309 C 593.603 -0.948039 -4.27002 0
M  V30 6310 C 592.662 -0.281268 -5.25448 0
M  V30 6311 O 591.688 -0.926378 -5.61611 0
M  V30 6312 N 592.89 0.967923 -5.72374 0
M  V30 6313 H 595.655 -1.57792 -2.54798 0
M  V30 6314 H 593.216 -0.972665 -1.29425 0
M  V30 6315 H 595.208 0.482554 -4.01813 0
M  V30 6316 H 593.778 0.829348 -3.01398 0
M  V30 6317 H 592.998 -1.58388 -3.6098 0
M  V30 6318 H 594.286 -1.60765 -4.82734 0
M  V30 6319 H 593.684 1.51175 -5.45126 0
M  V30 6320 H 592.241 1.36844 -6.37273 0
M  V30 6321 N 595.674 1.31259 -0.872281 0
M  V30 6322 C 596.921 1.96622 -0.484365 0
M  V30 6323 C 597.249 1.68939 0.963841 0
M  V30 6324 O 596.504 0.97974 1.6941 0
M  V30 6325 C 596.803 3.50659 -0.690889 0
M  V30 6326 C 596.469 3.98366 -2.11224 0
M  V30 6327 C 595.131 4.11104 -2.50094 0
M  V30 6328 C 597.483 4.23425 -3.0391 0
M  V30 6329 C 594.811 4.46254 -3.80887 0
M  V30 6330 C 597.163 4.60039 -4.3422 0
M  V30 6331 C 595.827 4.70984 -4.73001 0
M  V30 6332 H 595.097 0.71949 -0.177242 0
M  V30 6333 H 597.744 1.56353 -1.10571 0
M  V30 6334 H 596.049 3.91798 0.0135782 0
M  V30 6335 H 597.746 3.99284 -0.370534 0
M  V30 6336 H 594.336 3.88949 -1.80047 0
M  V30 6337 H 598.52 4.13075 -2.75104 0
M  V30 6338 H 593.776 4.52926 -4.10692 0
M  V30 6339 H 597.95 4.78381 -5.06088 0
M  V30 6340 H 595.577 4.97977 -5.7439 0
M  V30 6341 N 597.152 0.631951 1.44375 0
M  V30 6342 C 598.398 0.13697 2.02337 0
M  V30 6343 C 598.731 -1.23826 1.49602 0
M  V30 6344 O 598.006 -1.8221 0.680415 0
M  V30 6345 C 598.289 0.124536 3.59885 0
M  V30 6346 C 598.142 1.53217 4.229 0
M  V30 6347 C 599.461 -0.550481 4.36644 0
M  V30 6348 H 596.58 0.051247 0.735216 0
M  V30 6349 H 599.222 0.808581 1.71936 0
M  V30 6350 H 597.372 -0.44737 3.85916 0
M  V30 6351 H 599.044 2.15303 4.07973 0
M  V30 6352 H 597.287 2.0858 3.80364 0
M  V30 6353 H 597.958 1.4755 5.31914 0
M  V30 6354 H 600.434 -0.0641154 4.16051 0
M  V30 6355 H 599.31 -0.528371 5.46351 0
M  V30 6356 H 599.571 -1.62097 4.11311 0
M  V30 6357 N 598.631 -1.53133 0.372548 0
M  V30 6358 C 599.88 -2.00539 -0.216115 0
M  V30 6359 C 600.193 -1.26374 -1.49295 0
M  V30 6360 O 601.399 -1.64404 -2.16064 0
M  V30 6361 C 599.855 -3.57253 -0.435678 0
M  V30 6362 C 599.463 -4.40302 0.82693 0
M  V30 6363 C 601.207 -4.12995 -0.981618 0
M  V30 6364 C 599.114 -5.88583 0.576567 0
M  V30 6365 H 598.044 -0.749246 -0.084536 0
M  V30 6366 H 600.695 -1.76771 0.492364 0
M  V30 6367 H 599.077 -3.77202 -1.20559 0
M  V30 6368 H 600.251 -4.32124 1.60017 0
M  V30 6369 H 598.566 -3.95699 1.29659 0
M  V30 6370 H 601.163 -5.21418 -1.18436 0
M  V30 6371 H 601.506 -3.68027 -1.94581 0
M  V30 6372 H 602.039 -3.96871 -0.271696 0
M  V30 6373 H 598.778 -6.37841 1.51128 0
M  V30 6374 H 598.298 -5.99592 -0.158047 0
M  V30 6375 H 599.977 -6.46676 0.204722 0
M  V30 6376 N 600.109 -0.101901 -1.5727 0
M  V30 6377 C 601.386 0.602832 -1.86079 0
M  V30 6378 C 601.766 1.85912 -1 0
M  V30 6379 O 601.114 2.28379 -0.0742488 0
M  V30 6380 C 601.324 0.911694 -3.36881 0
M  V30 6381 C 602.672 1.2722 -4.05093 0
M  V30 6382 O 603.696 1.0025 -3.41802 0
M  V30 6383 O 602.555 1.7776 -5.16782 0
M  V30 6384 H 599.649 0.302366 -0.769743 0
M  V30 6385 H 602.195 -0.135113 -1.69161 0
M  V30 6386 H 600.967 0.0207256 -3.91295 0
M  V30 6387 H 600.59 1.70538 -3.59169 0
M  V30 6388 N 601.587 1.56661 0.17182 0
M  V30 6389 C 602.55 1.9549 1.19651 0
M  V30 6390 C 603.55 0.838501 1.37207 0
M  V30 6391 O 604.74 1.10556 1.34622 0
M  V30 6392 C 601.872 2.24927 2.56166 0
M  V30 6393 H 603.065 2.87184 0.864007 0
M  V30 6394 H 600.618 1.50711 0.41425 0
M  V30 6395 H 601.353 1.35944 2.94431 0
M  V30 6396 H 601.138 3.06301 2.4479 0
M  V30 6397 H 602.628 2.55891 3.30014 0
M  V30 6398 N 603.065 -0.440357 1.51323 0
M  V30 6399 C 604.311 -1.19181 1.64085 0
M  V30 6400 C 604.644 -1.90936 0.354575 0
M  V30 6401 O 603.919 -1.8347 -0.645675 0
M  V30 6402 C 604.202 -2.2112 2.84215 0
M  V30 6403 C 604.055 -1.53468 4.22809 0
M  V30 6404 C 605.374 -3.22133 2.99864 0
M  V30 6405 H 602.493 -0.431924 0.597169 0
M  V30 6406 H 605.135 -0.481443 1.83799 0
M  V30 6407 H 603.285 -2.81703 2.67537 0
M  V30 6408 H 604.957 -0.962455 4.51148 0
M  V30 6409 H 603.2 -0.837086 4.25647 0
M  V30 6410 H 603.871 -2.27694 5.02852 0
M  V30 6411 H 606.347 -2.71601 3.15233 0
M  V30 6412 H 605.223 -3.90756 3.85488 0
M  V30 6413 H 605.484 -3.88061 2.11804 0
M  V30 6414 N 604.543 -1.41418 -0.695603 0
M  V30 6415 C 605.773 -1.43921 -1.48224 0
M  V30 6416 C 606.181 -0.0428855 -1.89151 0
M  V30 6417 O 605.524 0.948138 -1.5734 0
M  V30 6418 C 605.586 -2.28466 -2.77567 0
M  V30 6419 C 605.25 -3.76629 -2.58844 0
M  V30 6420 C 606.247 -4.6879 -2.24793 0
M  V30 6421 C 603.932 -4.2067 -2.74485 0
M  V30 6422 C 605.926 -6.02981 -2.06622 0
M  V30 6423 C 603.613 -5.54926 -2.55931 0
M  V30 6424 C 604.611 -6.45897 -2.2205 0
M  V30 6425 O 604.299 -7.77675 -2.03657 0
M  V30 6426 H 604.031 -0.492252 -0.463318 0
M  V30 6427 H 606.585 -1.86347 -0.863952 0
M  V30 6428 H 604.815 -1.80853 -3.41802 0
M  V30 6429 H 606.504 -2.2267 -3.39371 0
M  V30 6430 H 607.27 -4.36055 -2.12323 0
M  V30 6431 H 603.149 -3.50167 -2.9984 0
M  V30 6432 H 606.693 -6.73951 -1.80099 0
M  V30 6433 H 602.59 -5.8724 -2.67991 0
M  V30 6434 H 603.358 -7.88819 -2.1842 0
M  V30 6435 N 606.021 0.929856 -1.27246 0
M  V30 6436 C 607.246 1.71674 -1.16374 0
M  V30 6437 C 607.671 1.86064 0.276024 0
M  V30 6438 O 607.029 1.3591 1.19992 0
M  V30 6439 C 607.077 3.09526 -1.85003 0
M  V30 6440 O 606.181 3.96142 -1.14653 0
M  V30 6441 H 605.522 0.52629 -0.404863 0
M  V30 6442 H 608.052 1.16381 -1.68276 0
M  V30 6443 H 608.062 3.59852 -1.92276 0
M  V30 6444 H 606.737 2.98369 -2.89739 0
M  V30 6445 H 605.314 3.54584 -1.15433 0
M  V30 6446 N 607.499 1.09233 1.13605 0
M  V30 6447 C 608.432 0.6739 2.18023 0
M  V30 6448 C 609.41 -0.318603 1.59448 0
M  V30 6449 O 610.594 -0.220452 1.87206 0
M  V30 6450 C 607.721 -0.00751458 3.38699 0
M  V30 6451 C 606.767 0.946481 4.15865 0
M  V30 6452 S 607.6 2.45753 4.75779 0
M  V30 6453 C 608.756 1.78846 5.99804 0
M  V30 6454 H 608.989 1.55846 2.53178 0
M  V30 6455 H 606.522 0.908118 1.2487 0
M  V30 6456 H 608.48 -0.394368 4.08601 0
M  V30 6457 H 607.141 -0.868693 3.01849 0
M  V30 6458 H 606.334 0.416742 5.02274 0
M  V30 6459 H 605.936 1.27464 3.51609 0
M  V30 6460 H 608.228 1.11135 6.68323 0
M  V30 6461 H 609.171 2.63163 6.57382 0
M  V30 6462 H 609.579 1.25823 5.50299 0
M  V30 6463 N 608.977 -1.30795 0.87923 0
M  V30 6464 C 609.94 -2.26563 0.346676 0
M  V30 6465 C 610.94 -1.52578 -0.507597 0
M  V30 6466 O 612.13 -1.71318 -0.315575 0
M  V30 6467 C 609.262 -3.37115 -0.506611 0
M  V30 6468 H 610.455 -2.75183 1.19223 0
M  V30 6469 H 608.008 -1.41886 0.655598 0
M  V30 6470 H 608.743 -2.93802 -1.37299 0
M  V30 6471 H 608.528 -3.91959 0.105218 0
M  V30 6472 H 610.018 -4.08412 -0.871192 0
M  V30 6473 N 610.455 -0.639598 -1.44038 0
M  V30 6474 C 611.685 -0.154586 -2.06021 0
M  V30 6475 C 612.093 1.17951 -1.47933 0
M  V30 6476 O 611.436 1.73627 -0.59994 0
M  V30 6477 C 611.498 0.0255459 -3.59491 0
M  V30 6478 C 611.162 -1.2317 -4.40089 0
M  V30 6479 C 612.159 -2.15735 -4.73027 0
M  V30 6480 C 609.844 -1.46949 -4.80324 0
M  V30 6481 C 611.838 -3.30382 -5.45093 0
M  V30 6482 C 609.525 -2.61891 -5.52138 0
M  V30 6483 C 610.523 -3.53433 -5.84443 0
M  V30 6484 O 610.211 -4.6637 -6.54793 0
M  V30 6485 H 609.943 -0.0808543 -0.671147 0
M  V30 6486 H 612.497 -0.876541 -1.85758 0
M  V30 6487 H 610.727 0.802733 -3.78276 0
M  V30 6488 H 612.416 0.466184 -4.03214 0
M  V30 6489 H 613.182 -1.98602 -4.42473 0
M  V30 6490 H 609.061 -0.765815 -4.54595 0
M  V30 6491 H 612.605 -4.01856 -5.70226 0
M  V30 6492 H 608.502 -2.78964 -5.82108 0
M  V30 6493 H 609.27 -4.6546 -6.73267 0
M  V30 6494 N 611.933 1.52934 -0.380664 0
M  V30 6495 C 612.896 2.24809 0.446473 0
M  V30 6496 C 613.896 1.26133 0.997347 0
M  V30 6497 O 615.086 1.50297 0.880714 0
M  V30 6498 C 612.218 2.99649 1.62553 0
M  V30 6499 H 613.411 2.99343 -0.182677 0
M  V30 6500 H 610.964 1.55736 -0.132618 0
M  V30 6501 H 611.699 2.29395 2.29235 0
M  V30 6502 H 611.484 3.72066 1.23732 0
M  V30 6503 H 612.974 3.54246 2.21133 0
M  V30 6504 N 613.412 0.11024 1.57214 0
M  V30 6505 C 614.342 -0.840002 2.17867 0
M  V30 6506 C 615.323 -1.28352 1.11624 0
M  V30 6507 O 616.508 -1.3477 1.39824 0
M  V30 6508 C 613.638 -2.09349 2.77111 0
M  V30 6509 C 612.592 -1.78807 3.8886 0
M  V30 6510 C 611.918 -3.11112 4.34872 0
M  V30 6511 C 613.218 -1.0632 5.11364 0
M  V30 6512 H 614.912 -0.334608 2.97524 0
M  V30 6513 H 612.458 -0.159502 1.43114 0
M  V30 6514 H 614.411 -2.76275 3.18198 0
M  V30 6515 H 613.135 -2.62198 1.9473 0
M  V30 6516 H 611.794 -1.14273 3.48335 0
M  V30 6517 H 611.442 -3.61877 3.49362 0
M  V30 6518 H 611.142 -2.91453 5.10224 0
M  V30 6519 H 612.666 -3.79171 4.78604 0
M  V30 6520 H 614.08 -1.63383 5.49526 0
M  V30 6521 H 612.477 -0.967876 5.92243 0
M  V30 6522 H 613.547 -0.0484569 4.84876 0
M  V30 6523 N 614.89 -1.56749 -0.16351 0
M  V30 6524 C 615.84 -1.93424 -1.20712 0
M  V30 6525 C 616.824 -0.803469 -1.39403 0
M  V30 6526 O 618.016 -1.06675 -1.41243 0
M  V30 6527 C 615.145 -2.30431 -2.54473 0
M  V30 6528 C 614.231 -3.5004 -2.39443 0
M  V30 6529 N 614.622 -4.67058 -1.9414 0
M  V30 6530 C 612.92 -3.548 -2.70246 0
M  V30 6531 C 613.621 -5.49184 -1.9176 0
M  V30 6532 N 612.597 -4.9044 -2.34457 0
M  V30 6533 H 616.399 -2.8138 -0.848681 0
M  V30 6534 H 613.913 -1.58089 -0.371717 0
M  V30 6535 H 615.91 -2.54903 -3.29894 0
M  V30 6536 H 614.57 -1.43818 -2.91112 0
M  V30 6537 H 615.581 -4.91128 -1.64357 0
M  V30 6538 H 612.258 -2.78685 -3.10871 0
M  V30 6539 H 613.648 -6.5297 -1.58366 0
M  V30 6540 N 616.368 0.432326 -1.51554 0
M  V30 6541 C 617.316 1.54572 -1.73811 0
M  V30 6542 C 618.31 1.58246 -0.604539 0
M  V30 6543 O 619.516 1.6193 -0.786041 0
M  V30 6544 H 615.891 0.513626 -0.549265 0
M  V30 6545 H 617.862 1.32977 -2.67132 0
M  V30 6546 C 616.611 2.92181 -1.88483 0
M  V30 6547 H 615.934 2.90088 -2.75116 0
M  V30 6548 H 617.374 3.69439 -2.08065 0
M  V30 6549 C 615.833 3.3065 -0.645909 0
M  V30 6550 O 616.363 4.01216 0.197093 0
M  V30 6551 N 614.569 2.86464 -0.488538 0
M  V30 6552 H 614.116 2.29209 -1.17562 0
M  V30 6553 H 614.074 3.12565 0.339156 0
M  V30 6554 N 617.846 1.41785 0.688094 0
M  V30 6555 C 618.779 1.38643 1.81255 0
M  V30 6556 C 619.757 0.252583 1.60626 0
M  V30 6557 O 620.941 0.440691 1.83276 0
M  V30 6558 C 618.068 1.16449 3.18053 0
M  V30 6559 C 617.114 2.32651 3.57457 0
M  V30 6560 S 617.947 3.95152 3.61407 0
M  V30 6561 C 619.103 3.75275 5.00919 0
M  V30 6562 H 619.336 2.33799 1.83644 0
M  V30 6563 H 616.869 1.28398 0.857513 0
M  V30 6564 H 618.827 1.0433 3.97021 0
M  V30 6565 H 617.488 0.229002 3.13264 0
M  V30 6566 H 616.681 2.12835 4.56856 0
M  V30 6567 H 616.283 2.41215 2.85817 0
M  V30 6568 H 618.575 3.35443 5.88629 0
M  V30 6569 H 619.518 4.74302 5.25778 0
M  V30 6570 H 619.926 3.08401 4.7281 0
M  V30 6571 N 619.324 -0.923095 1.27737 0
M  V30 6572 C 620.274 -2.01061 1.0751 0
M  V30 6573 C 621.258 -1.609 0.00165451 0
M  V30 6574 O 622.45 -1.75618 0.220724 0
M  V30 6575 C 619.579 -3.35467 0.729162 0
M  V30 6576 C 618.665 -3.82059 1.84098 0
M  V30 6577 N 619.056 -4.01115 3.08124 0
M  V30 6578 C 617.354 -4.11135 1.7287 0
M  V30 6579 C 618.055 -4.39989 3.80506 0
M  V30 6580 N 617.031 -4.47721 3.08297 0
M  V30 6581 H 620.833 -2.13832 2.01626 0
M  V30 6582 H 618.347 -1.11027 1.18519 0
M  V30 6583 H 620.344 -4.13049 0.565355 0
M  V30 6584 H 619.004 -3.24056 -0.204334 0
M  V30 6585 H 620.015 -3.87294 3.43836 0
M  V30 6586 H 616.692 -4.08412 0.866352 0
M  V30 6587 H 618.082 -4.62773 4.87125 0
M  V30 6588 N 620.802 -1.09834 -1.13024 0
M  V30 6589 C 621.749 -0.741522 -2.18564 0
M  V30 6590 C 622.719 0.279236 -1.63736 0
M  V30 6591 O 623.904 0.159923 -1.90129 0
M  V30 6592 C 621.044 -0.17277 -3.44667 0
M  V30 6593 C 620.157 -1.24808 -4.13578 0
M  V30 6594 C 619.292 -0.641631 -5.27311 0
M  V30 6595 C 618.331 -1.69795 -5.88078 0
M  V30 6596 N 617.468 -1.11223 -6.93234 0
M  V30 6597 H 622.308 -1.64576 -2.48432 0
M  V30 6598 H 619.845 -0.822174 -1.21978 0
M  V30 6599 H 621.803 0.17482 -4.16834 0
M  V30 6600 H 620.433 0.694725 -3.15235 0
M  V30 6601 H 619.485 -1.71288 -3.39653 0
M  V30 6602 H 620.797 -2.04795 -4.54819 0
M  V30 6603 H 619.951 -0.243128 -6.06213 0
M  V30 6604 H 618.69 0.189742 -4.87331 0
M  V30 6605 H 617.695 -2.10595 -5.07868 0
M  V30 6606 H 618.92 -2.53206 -6.3013 0
M  V30 6607 H 616.866 -0.302208 -6.55304 0
M  V30 6608 H 616.783 -1.84901 -7.3304 0
M  V30 6609 H 618.051 -0.740068 -7.75979 0
M  V30 6610 N 622.28 1.30327 -0.886154 0
M  V30 6611 C 623.557 1.90922 -0.425217 0
M  V30 6612 C 623.937 1.80533 1.09413 0
M  V30 6613 O 623.285 1.2233 1.92996 0
M  V30 6614 C 623.495 3.36529 -0.924638 0
M  V30 6615 C 624.843 4.13598 -0.960305 0
M  V30 6616 O 625.867 3.45377 -0.871382 0
M  V30 6617 O 624.726 5.35482 -1.09184 0
M  V30 6618 H 621.82 0.81668 -0.130238 0
M  V30 6619 H 624.366 1.38886 -0.975132 0
M  V30 6620 H 623.138 3.38181 -1.96849 0
M  V30 6621 H 622.761 3.96021 -0.353955 0
M  V30 6622 N 623.758 0.647228 1.43697 0
M  V30 6623 C 624.688 -0.0345631 2.33474 0
M  V30 6624 C 625.669 -0.818193 1.4913 0
M  V30 6625 O 626.854 -0.780867 1.77809 0
M  V30 6626 C 623.984 -1.00576 3.32418 0
M  V30 6627 C 622.938 -0.33266 4.26705 0
M  V30 6628 C 622.264 -1.41489 5.1564 0
M  V30 6629 C 623.564 0.771204 5.16575 0
M  V30 6630 H 625.258 0.715163 2.90733 0
M  V30 6631 H 622.804 0.345364 1.39797 0
M  V30 6632 H 624.757 -1.49159 3.94119 0
M  V30 6633 H 623.481 -1.78657 2.73403 0
M  V30 6634 H 622.14 0.13267 3.6636 0
M  V30 6635 H 621.788 -2.18698 4.52968 0
M  V30 6636 H 621.488 -0.969799 5.79542 0
M  V30 6637 H 623.012 -1.9022 5.80214 0
M  V30 6638 H 624.426 0.36779 5.72119 0
M  V30 6639 H 622.823 1.1404 5.89165 0
M  V30 6640 H 623.893 1.63169 4.56622 0
M  V30 6641 N 625.236 -1.5273 0.388769 0
M  V30 6642 C 626.476 -2.03483 -0.193372 0
M  V30 6643 C 626.84 -1.26897 -1.44087 0
M  V30 6644 O 628.041 -1.67773 -2.10014 0
M  V30 6645 C 626.312 -3.54488 -0.455325 0
M  V30 6646 S 627.871 -4.27069 -1.00783 0
M  V30 6647 H 624.689 -0.708907 -0.0545131 0
M  V30 6648 H 627.291 -1.8798 0.536993 0
M  V30 6649 H 625.995 -4.07817 0.459722 0
M  V30 6650 H 625.526 -3.74196 -1.21413 0
M  V30 6651 H 627.541 -4.40185 -2.29023 0
M  V30 6652 N 626.714 -0.118576 -1.57153 0
M  V30 6653 C 628.125 0.40687 -1.82213 0
M  V30 6654 C 628.476 1.66636 -1.03571 0
M  V30 6655 O 627.601 2.14682 -0.272171 0
M  V30 6656 C 628.196 0.744949 -3.30509 0
M  V30 6657 C 626.755 1.21503 -3.5625 0
M  V30 6658 C 625.902 0.223511 -2.76398 0
M  V30 6659 H 628.853 -0.343712 -1.54933 0
M  V30 6660 H 628.874 1.6024 -3.45114 0
M  V30 6661 H 628.386 -0.171911 -3.87719 0
M  V30 6662 H 626.487 2.1488 -3.04396 0
M  V30 6663 H 626.6 1.16065 -4.64829 0
M  V30 6664 H 624.964 0.71046 -2.44591 0
M  V30 6665 H 625.747 -0.686439 -3.36367 0
M  V30 6666 N 628.193 1.56834 0.155195 0
M  V30 6667 C 629.441 1.82536 0.867462 0
M  V30 6668 C 629.762 0.698168 1.82073 0
M  V30 6669 O 629.032 -0.280807 1.93877 0
M  V30 6670 H 627.612 0.673401 0.323327 0
M  V30 6671 H 630.274 1.94313 0.151156 0
M  V30 6672 H 629.37 2.77171 1.43466 0
M  V30 6673 N 629.671 -0.424282 1.51781 0
M  V30 6674 C 630.901 -1.19297 1.68677 0
M  V30 6675 C 631.309 -1.85152 0.389258 0
M  V30 6676 O 630.652 -1.72067 -0.643311 0
M  V30 6677 C 630.714 -2.30929 2.75521 0
M  V30 6678 C 630.378 -1.85335 4.17732 0
M  V30 6679 C 631.375 -1.34951 5.0208 0
M  V30 6680 C 629.06 -1.92629 4.63896 0
M  V30 6681 C 631.054 -0.924636 6.30658 0
M  V30 6682 C 628.741 -1.49754 5.92467 0
M  V30 6683 C 629.739 -0.997543 6.75676 0
M  V30 6684 O 629.427 -0.57492 8.01842 0
M  V30 6685 H 629.159 -0.36512 0.568914 0
M  V30 6686 H 631.713 -0.507327 1.99036 0
M  V30 6687 H 629.943 -3.02811 2.40505 0
M  V30 6688 H 631.632 -2.92748 2.81165 0
M  V30 6689 H 632.398 -1.287 4.67612 0
M  V30 6690 H 628.277 -2.30491 3.99243 0
M  V30 6691 H 631.821 -0.533682 6.95556 0
M  V30 6692 H 627.718 -1.55679 6.26446 0
M  V30 6693 H 628.486 -0.699597 8.15505 0
M  V30 6694 N 631.149 -1.42148 -0.680565 0
M  V30 6695 C 632.398 -1.41604 -1.43636 0
M  V30 6696 C 632.711 -0.0337887 -1.95571 0
M  V30 6697 O 633.917 0.0942588 -2.71336 0
M  V30 6698 C 632.373 -2.49056 -2.59806 0
M  V30 6699 C 631.981 -3.9326 -2.14594 0
M  V30 6700 C 633.725 -2.5767 -3.37352 0
M  V30 6701 C 631.632 -4.92232 -3.27813 0
M  V30 6702 H 630.562 -0.526656 -0.539583 0
M  V30 6703 H 633.213 -1.68033 -0.737369 0
M  V30 6704 H 631.595 -2.15782 -3.32045 0
M  V30 6705 H 632.769 -4.35858 -1.49546 0
M  V30 6706 H 631.084 -3.88443 -1.50002 0
M  V30 6707 H 633.681 -3.28794 -4.21662 0
M  V30 6708 H 634.024 -1.61837 -3.83555 0
M  V30 6709 H 634.557 -2.90109 -2.72179 0
M  V30 6710 H 631.296 -5.89522 -2.86607 0
M  V30 6711 H 630.816 -4.5427 -3.91661 0
M  V30 6712 H 632.495 -5.13684 -3.93367 0
M  V30 6713 N 632.627 0.916307 -1.28225 0
M  V30 6714 C 633.875 1.6619 -1.15002 0
M  V30 6715 C 634.196 1.92642 0.302329 0
M  V30 6716 O 633.466 1.54076 1.20985 0
M  V30 6717 H 632.046 0.615964 -0.422608 0
M  V30 6718 H 634.708 1.09963 -1.60917 0
M  V30 6719 H 633.804 2.62533 -1.68769 0
M  V30 6720 N 634.105 1.10431 1.1244 0
M  V30 6721 C 635.035 0.775143 2.20258 0
M  V30 6722 C 636.016 -0.25186 1.68225 0
M  V30 6723 O 637.201 -0.117637 1.93843 0
M  V30 6724 C 634.331 0.206133 3.46688 0
M  V30 6725 C 633.285 1.16382 4.11873 0
M  V30 6726 C 632.611 0.456014 5.32752 0
M  V30 6727 C 633.911 2.5104 4.58013 0
M  V30 6728 H 635.605 1.67665 2.4805 0
M  V30 6729 H 633.151 0.807595 1.19222 0
M  V30 6730 H 635.104 -0.036291 4.21384 0
M  V30 6731 H 633.828 -0.730614 3.18323 0
M  V30 6732 H 632.487 1.39169 3.39157 0
M  V30 6733 H 632.135 -0.485203 5.00654 0
M  V30 6734 H 631.835 1.09466 5.77314 0
M  V30 6735 H 633.359 0.222135 6.10196 0
M  V30 6736 H 634.773 2.32401 5.24083 0
M  V30 6737 H 633.17 3.10789 5.13352 0
M  V30 6738 H 634.24 3.11039 3.71998 0
M  V30 6739 N 635.583 -1.29855 0.893053 0
M  V30 6740 C 636.823 -1.97612 0.522399 0
M  V30 6741 C 637.187 -1.68903 -0.913 0
M  V30 6742 O 638.388 -2.30059 -1.39019 0
M  V30 6743 C 636.659 -3.48356 0.79893 0
M  V30 6744 S 638.218 -4.35568 0.531588 0
M  V30 6745 H 635.036 -0.684005 0.194058 0
M  V30 6746 H 637.638 -1.57803 1.15406 0
M  V30 6747 H 636.342 -3.66743 1.84196 0
M  V30 6748 H 635.873 -3.93094 0.155133 0
M  V30 6749 H 637.888 -4.92232 -0.626295 0
M  V30 6750 N 637.061 -0.65484 -1.43351 0
M  V30 6751 C 638.472 -0.248506 -1.85039 0
M  V30 6752 C 638.823 1.20526 -1.54816 0
M  V30 6753 O 637.948 1.92016 -0.99794 0
M  V30 6754 C 638.543 -0.444241 -3.35875 0
M  V30 6755 C 637.102 -0.0922108 -3.76287 0
M  V30 6756 C 636.249 -0.746327 -2.67068 0
M  V30 6757 H 639.2 -0.8584 -1.33481 0
M  V30 6758 H 639.221 0.309762 -3.79237 0
M  V30 6759 H 638.733 -1.50239 -3.5784 0
M  V30 6760 H 636.834 0.96328 -3.59933 0
M  V30 6761 H 636.947 -0.518807 -4.76283 0
M  V30 6762 H 635.311 -0.179416 -2.54067 0
M  V30 6763 H 636.094 -1.80754 -2.91861 0
M  V30 6764 N 638.539 1.52521 -0.396863 0
M  V30 6765 C 639.955 1.5953 -0.0471659 0
M  V30 6766 C 640.155 1.41044 1.43906 0
M  V30 6767 O 639.211 1.23122 2.20448 0
M  V30 6768 C 640.524 2.95972 -0.531113 0
M  V30 6769 C 642.072 3.09172 -0.488024 0
M  V30 6770 C 642.547 4.48075 -0.948281 0
M  V30 6771 N 644.038 4.54281 -0.9046 0
M  V30 6772 C 644.773 5.60007 -1.23205 0
M  V30 6773 N 644.269 6.73343 -1.63036 0
M  V30 6774 N 646.062 5.50151 -1.15282 0
M  V30 6775 H 638.213 1.62786 -1.36435 0
M  V30 6776 H 640.476 0.76514 -0.559701 0
M  V30 6777 H 640.182 3.14741 -1.56942 0
M  V30 6778 H 640.056 3.77143 0.0657922 0
M  V30 6779 H 642.443 2.90095 0.541211 0
M  V30 6780 H 642.524 2.29937 -1.12083 0
M  V30 6781 H 642.168 4.67894 -1.97578 0
M  V30 6782 H 642.098 5.25788 -0.292412 0
M  V30 6783 H 644.589 3.72918 -0.6116 0
M  V30 6784 H 644.902 7.49992 -1.86365 0
M  V30 6785 H 643.247 6.74655 -1.66929 0
M  V30 6786 H 646.438 4.6049 -0.840602 0
M  V30 6787 H 646.611 6.32444 -1.41133 0
M  V30 6788 N 640.017 0.126909 1.57088 0
M  V30 6789 C 640.95 -0.857844 2.11462 0
M  V30 6790 C 641.928 -1.25569 1.03301 0
M  V30 6791 O 643.112 -1.35535 1.31006 0
M  V30 6792 C 640.239 -2.14912 2.61784 0
M  V30 6793 C 639.285 -1.89874 3.81903 0
M  V30 6794 S 640.118 -1.10785 5.23915 0
M  V30 6795 C 641.274 -2.41075 5.7761 0
M  V30 6796 H 641.507 -0.395384 2.94659 0
M  V30 6797 H 639.04 -0.0870151 1.54155 0
M  V30 6798 H 640.998 -2.89101 2.91429 0
M  V30 6799 H 639.659 -2.58275 1.78754 0
M  V30 6800 H 638.852 -2.85572 4.15289 0
M  V30 6801 H 638.454 -1.23802 3.52915 0
M  V30 6802 H 640.746 -3.36864 5.87817 0
M  V30 6803 H 641.689 -2.12223 6.75549 0
M  V30 6804 H 642.097 -2.50804 5.05725 0
M  V30 6805 N 641.495 -1.56914 -0.146875 0
M  V30 6806 C 642.72 -1.87881 -0.878386 0
M  V30 6807 C 643.145 -0.715945 -1.73942 0
M  V30 6808 O 642.503 0.334447 -1.78189 0
M  V30 6809 C 642.551 -3.17431 -1.71084 0
M  V30 6810 O 641.655 -3.01374 -2.81509 0
M  V30 6811 H 640.996 -0.617289 -0.244644 0
M  V30 6812 H 643.526 -2.04136 -0.137654 0
M  V30 6813 H 643.536 -3.49455 -2.10582 0
M  V30 6814 H 642.211 -4.01671 -1.07856 0
M  V30 6815 H 640.788 -2.80758 -2.45416 0
M  V30 6816 N 642.974 0.416227 -1.52004 0
M  V30 6817 C 644.202 1.18573 -1.69553 0
M  V30 6818 C 644.617 1.84472 -0.401919 0
M  V30 6819 O 643.974 1.71593 0.621463 0
M  V30 6820 C 644.025 2.25413 -2.82615 0
M  V30 6821 O 643.746 1.62205 -4.06966 0
M  V30 6822 C 645.247 3.15297 -3.11613 0
M  V30 6823 H 642.467 0.356582 -0.56841 0
M  V30 6824 H 645.011 0.490618 -1.98528 0
M  V30 6825 H 643.166 2.90604 -2.56179 0
M  V30 6826 H 643.58 2.3298 -4.69916 0
M  V30 6827 H 645.054 3.86351 -3.94255 0
M  V30 6828 H 645.531 3.77264 -2.24874 0
M  V30 6829 H 646.137 2.55783 -3.39787 0
M  V30 6830 N 644.452 1.42507 0.673017 0
M  V30 6831 C 645.701 1.42364 1.42883 0
M  V30 6832 C 646.014 0.0441598 1.9555 0
M  V30 6833 O 647.22 -0.0798679 2.71382 0
M  V30 6834 C 645.676 2.5043 2.58482 0
M  V30 6835 C 645.284 3.94392 2.12506 0
M  V30 6836 C 647.028 2.59455 3.35981 0
M  V30 6837 C 644.935 4.93964 3.25198 0
M  V30 6838 H 643.865 0.52951 0.536782 0
M  V30 6839 H 646.516 1.68422 0.728448 0
M  V30 6840 H 644.898 2.1754 3.30896 0
M  V30 6841 H 646.072 4.36645 1.47233 0
M  V30 6842 H 644.387 3.89233 1.4794 0
M  V30 6843 H 646.984 3.31025 4.19912 0
M  V30 6844 H 647.327 1.63869 3.82691 0
M  V30 6845 H 647.86 2.91549 2.70637 0
M  V30 6846 H 644.599 5.91034 2.83477 0
M  V30 6847 H 644.119 4.56341 3.89247 0
M  V30 6848 H 645.798 5.15763 3.90637 0
M  V30 6849 N 645.93 -0.909495 1.28709 0
M  V30 6850 C 647.207 -1.63865 1.06806 0
M  V30 6851 C 647.587 -2.07445 -0.391143 0
M  V30 6852 O 646.935 -1.82269 -1.37805 0
M  V30 6853 C 647.145 -2.82692 2.04661 0
M  V30 6854 C 648.493 -3.5361 2.35042 0
M  V30 6855 O 649.517 -2.92847 2.02779 0
M  V30 6856 O 648.376 -4.63131 2.90124 0
M  V30 6857 H 645.47 -0.719065 0.408502 0
M  V30 6858 H 648.016 -0.958424 1.40044 0
M  V30 6859 H 646.788 -2.47614 3.0299 0
M  V30 6860 H 646.411 -3.58426 1.72095 0
M  V30 6861 N 647.408 -1.11026 -1.11852 0
M  V30 6862 C 648.656 -0.854769 -1.83134 0
M  V30 6863 C 648.977 0.621375 -1.84835 0
M  V30 6864 O 648.247 1.45129 -1.31584 0
M  V30 6865 H 646.827 -0.313229 -0.678157 0
M  V30 6866 H 649.489 -1.40178 -1.35411 0
M  V30 6867 H 648.585 -1.22311 -2.87135 0
M  V30 6868 N 648.886 1.2938 -0.899927 0
M  V30 6869 C 649.833 2.27713 -0.376243 0
M  V30 6870 C 650.803 1.57016 0.541774 0
M  V30 6871 O 651.988 1.84997 0.466966 0
M  V30 6872 C 649.128 3.42889 0.39 0
M  V30 6873 C 648.241 4.28369 -0.558938 0
M  V30 6874 C 647.376 5.30726 0.224379 0
M  V30 6875 C 646.415 6.07862 -0.719068 0
M  V30 6876 N 645.552 7.02094 0.0298569 0
M  V30 6877 H 650.392 2.71888 -1.21988 0
M  V30 6878 H 647.929 1.33724 -0.612879 0
M  V30 6879 H 649.887 4.08443 0.850314 0
M  V30 6880 H 648.517 2.99743 1.19809 0
M  V30 6881 H 647.569 3.62986 -1.13777 0
M  V30 6882 H 648.881 4.82068 -1.2811 0
M  V30 6883 H 648.035 6.02098 0.745881 0
M  V30 6884 H 646.774 4.77759 0.979674 0
M  V30 6885 H 645.779 5.35353 -1.25207 0
M  V30 6886 H 647.004 6.62917 -1.4737 0
M  V30 6887 H 644.95 6.51496 0.767415 0
M  V30 6888 H 644.867 7.5335 -0.632391 0
M  V30 6889 H 646.135 7.77685 0.531615 0
M  V30 6890 N 650.364 0.662433 1.43002 0
M  V30 6891 C 651.274 -0.0239199 2.34588 0
M  V30 6892 C 652.29 -0.802255 1.54402 0
M  V30 6893 O 653.466 -0.747401 1.87018 0
M  V30 6894 C 650.531 -0.972098 3.32793 0
M  V30 6895 C 649.592 -0.189673 4.28881 0
M  V30 6896 C 648.825 -1.09269 5.22395 0
M  V30 6897 O 649.048 -2.33209 5.20547 0
M  V30 6898 O 647.982 -0.560136 5.99288 0
M  V30 6899 H 651.808 0.730171 2.94792 0
M  V30 6900 H 649.393 0.422635 1.43297 0
M  V30 6901 H 651.275 -1.51676 3.93157 0
M  V30 6902 H 649.95 -1.70626 2.75079 0
M  V30 6903 H 648.857 0.398794 3.71968 0
M  V30 6904 H 650.19 0.50511 4.89601 0
M  V30 6905 N 651.842 -1.52309 0.404946 0
M  V30 6906 C 652.772 -2.29805 -0.41376 0
M  V30 6907 C 653.753 -1.3384 -1.0498 0
M  V30 6908 O 654.938 -1.62745 -1.05961 0
M  V30 6909 C 652.068 -3.11639 -1.53292 0
M  V30 6910 C 651.022 -4.15616 -1.02211 0
M  V30 6911 C 650.348 -4.8577 -2.23455 0
M  V30 6912 C 651.648 -5.2224 -0.0790725 0
M  V30 6913 H 653.342 -2.98493 0.232878 0
M  V30 6914 H 650.888 -1.43552 0.113441 0
M  V30 6915 H 652.841 -3.64618 -2.11262 0
M  V30 6916 H 651.565 -2.40712 -2.20738 0
M  V30 6917 H 650.224 -3.63641 -0.46484 0
M  V30 6918 H 649.872 -4.11376 -2.89445 0
M  V30 6919 H 649.572 -5.56058 -1.89929 0
M  V30 6920 H 651.096 -5.4156 -2.82038 0
M  V30 6921 H 652.51 -5.70485 -0.567438 0
M  V30 6922 H 650.907 -5.99867 0.167167 0
M  V30 6923 H 651.977 -4.77078 0.867447 0
M  V30 6924 N 653.32 -0.135238 -1.57019 0
M  V30 6925 C 654.25 0.805235 -2.19176 0
M  V30 6926 C 655.231 1.2656 -1.13651 0
M  V30 6927 O 656.416 1.32528 -1.4195 0
M  V30 6928 C 653.546 2.04914 -2.80406 0
M  V30 6929 C 652.5 1.72598 -3.91655 0
M  V30 6930 C 651.826 3.04154 -4.39766 0
M  V30 6931 C 653.126 0.981709 -5.12991 0
M  V30 6932 H 654.82 0.287232 -2.98019 0
M  V30 6933 H 652.366 0.136714 -1.4335 0
M  V30 6934 H 654.319 2.71178 -3.22553 0
M  V30 6935 H 653.043 2.59067 -1.98877 0
M  V30 6936 H 651.702 1.08717 -3.50109 0
M  V30 6937 H 651.35 3.56274 -3.55075 0
M  V30 6938 H 651.05 2.83299 -5.14796 0
M  V30 6939 H 652.574 3.71509 -4.84576 0
M  V30 6940 H 653.988 1.5462 -5.52056 0
M  V30 6941 H 652.385 0.873533 -5.93708 0
M  V30 6942 H 653.455 -0.0286887 -4.84892 0
M  V30 6943 N 654.798 1.5699 0.138552 0
M  V30 6944 C 656.046 1.83446 0.848053 0
M  V30 6945 C 656.367 0.71744 1.81322 0
M  V30 6946 O 655.637 -0.260228 1.94164 0
M  V30 6947 H 654.217 0.676792 0.316166 0
M  V30 6948 H 656.879 1.94462 0.130538 0
M  V30 6949 H 655.975 2.78677 1.40518 0
M  V30 6950 N 656.276 -0.40816 1.52223 0
M  V30 6951 C 657.506 -1.17501 1.69932 0
M  V30 6952 C 657.914 -1.84729 0.408874 0
M  V30 6953 O 657.257 -1.7274 -0.625025 0
M  V30 6954 C 657.319 -2.27994 2.77955 0
M  V30 6955 C 656.983 -1.80894 4.19674 0
M  V30 6956 C 657.98 -1.29618 5.03483 0
M  V30 6957 C 655.665 -1.87698 4.65913 0
M  V30 6958 C 657.659 -0.857695 6.31603 0
M  V30 6959 C 655.346 -1.43461 5.94022 0
M  V30 6960 C 656.344 -0.925822 6.76696 0
M  V30 6961 O 656.032 -0.489841 8.02406 0
M  V30 6962 H 655.764 -0.359065 0.572755 0
M  V30 6963 H 658.318 -0.486188 1.99563 0
M  V30 6964 H 656.548 -3.00243 2.43703 0
M  V30 6965 H 658.237 -2.89749 2.84254 0
M  V30 6966 H 659.003 -1.23733 4.68951 0
M  V30 6967 H 654.882 -2.26244 4.01665 0
M  V30 6968 H 658.426 -0.459879 6.96083 0
M  V30 6969 H 654.323 -1.49026 6.28062 0
M  V30 6970 H 655.091 -0.613062 8.16201 0
M  V30 6971 N 657.755 -1.42862 -0.66545 0
M  V30 6972 C 659.004 -1.43119 -1.42126 0
M  V30 6973 C 659.317 -0.0545297 -1.95524 0
M  V30 6974 O 660.523 0.0654747 -2.71421 0
M  V30 6975 C 658.979 -2.51797 -2.5715 0
M  V30 6976 C 658.587 -3.95514 -2.10411 0
M  V30 6977 C 660.331 -2.61233 -3.346 0
M  V30 6978 C 658.238 -4.95682 -3.22573 0
M  V30 6979 H 657.168 -0.532349 -0.533966 0
M  V30 6980 H 659.819 -1.68806 -0.719506 0
M  V30 6981 H 658.201 -2.19292 -3.29738 0
M  V30 6982 H 659.375 -4.3742 -1.44915 0
M  V30 6983 H 657.69 -3.90012 -1.45874 0
M  V30 6984 H 660.287 -3.33248 -4.18151 0
M  V30 6985 H 660.63 -1.65896 -3.81817 0
M  V30 6986 H 661.163 -2.9298 -2.69087 0
M  V30 6987 H 657.902 -5.92529 -2.80338 0
M  V30 6988 H 657.422 -4.58399 -3.86821 0
M  V30 6989 H 659.101 -5.17828 -3.87896 0
M  V30 6990 N 659.233 0.902656 -1.29189 0
M  V30 6991 C 660.649 1.18296 -1.07137 0
M  V30 6992 C 660.849 2.00701 0.179223 0
M  V30 6993 O 659.905 2.3675 0.877812 0
M  V30 6994 C 661.218 1.90677 -2.32514 0
M  V30 6995 C 662.766 2.03515 -2.37804 0
M  V30 6996 C 663.241 2.79307 -3.62976 0
M  V30 6997 N 664.732 2.86862 -3.63681 0
M  V30 6998 C 665.467 3.46035 -4.57217 0
M  V30 6999 N 664.963 4.06399 -5.61081 0
M  V30 7000 N 666.756 3.43681 -4.44792 0
M  V30 7001 H 658.907 0.352765 -2.0945 0
M  V30 7002 H 661.17 0.21876 -0.922414 0
M  V30 7003 H 660.876 1.3756 -3.23682 0
M  V30 7004 H 660.75 2.91169 -2.39793 0
M  V30 7005 H 663.137 2.55809 -1.47125 0
M  V30 7006 H 663.218 1.02166 -2.34512 0
M  V30 7007 H 662.862 2.2769 -4.54004 0
M  V30 7008 H 662.792 3.80995 -3.63525 0
M  V30 7009 H 665.283 2.43987 -2.88581 0
M  V30 7010 H 665.596 4.49564 -6.2858 0
M  V30 7011 H 663.941 4.0487 -5.64894 0
M  V30 7012 H 667.132 2.9574 -3.62843 0
M  V30 7013 H 667.305 3.89503 -5.17872 0
M  V30 7014 N 660.711 1.11618 1.11262 0
M  V30 7015 C 661.674 0.779447 2.15539 0
M  V30 7016 C 662.674 -0.202081 1.59525 0
M  V30 7017 O 663.864 0.0226356 1.74185 0
M  V30 7018 C 660.996 0.15674 3.40539 0
M  V30 7019 H 662.189 1.70324 2.4684 0
M  V30 7020 H 659.742 0.918298 1.26479 0
M  V30 7021 H 660.477 -0.777186 3.1485 0
M  V30 7022 H 660.262 0.863308 3.82478 0
M  V30 7023 H 661.752 -0.062661 4.17553 0
M  V30 7024 N 662.189 -1.289 0.906776 0
M  V30 7025 C 663.435 -1.95558 0.53712 0
M  V30 7026 C 663.768 -1.71262 -0.915582 0
M  V30 7027 O 663.043 -1.02961 -1.65013 0
M  V30 7028 C 663.326 -3.50198 0.838645 0
M  V30 7029 C 663.179 -3.83923 2.34357 0
M  V30 7030 C 664.498 -4.38861 0.329988 0
M  V30 7031 H 661.617 -0.710289 0.196617 0
M  V30 7032 H 664.259 -1.52392 1.13475 0
M  V30 7033 H 662.409 -3.87096 0.330024 0
M  V30 7034 H 664.081 -3.56933 2.92227 0
M  V30 7035 H 662.324 -3.31215 2.80141 0
M  V30 7036 H 662.995 -4.91883 2.5051 0
M  V30 7037 H 665.471 -4.08996 0.765609 0
M  V30 7038 H 664.347 -5.45931 0.570105 0
M  V30 7039 H 664.608 -4.35352 -0.769511 0
M  V30 7040 N 663.667 -0.670007 -1.42649 0
M  V30 7041 C 664.615 0.0230106 -2.32589 0
M  V30 7042 C 665.609 0.795585 -1.49555 0
M  V30 7043 O 666.815 0.70409 -1.65658 0
M  V30 7044 H 663.19 0.0262342 -0.751542 0
M  V30 7045 H 665.161 -0.753009 -2.88743 0
M  V30 7046 C 663.91 0.963872 -3.34073 0
M  V30 7047 H 663.233 0.378813 -3.98001 0
M  V30 7048 H 664.673 1.41755 -3.99602 0
M  V30 7049 C 663.132 2.06797 -2.65964 0
M  V30 7050 O 663.662 3.15383 -2.48789 0
M  V30 7051 N 661.868 1.83831 -2.25066 0
M  V30 7052 H 661.415 0.955235 -2.39234 0
M  V30 7053 H 661.373 2.57895 -1.79827 0
M  V30 7054 N 665.145 1.52092 -0.413018 0
M  V30 7055 C 666.392 2.01855 0.161497 0
M  V30 7056 C 666.72 1.29845 1.44812 0
M  V30 7057 O 665.975 0.394471 1.91683 0
M  V30 7058 C 666.274 3.54529 0.4521 0
M  V30 7059 C 665.94 4.4469 -0.745788 0
M  V30 7060 C 664.602 4.69053 -1.07435 0
M  V30 7061 C 666.954 4.97742 -1.54604 0
M  V30 7062 C 664.282 5.43717 -2.20429 0
M  V30 7063 C 666.634 5.73642 -2.66678 0
M  V30 7064 C 665.298 5.96277 -3.00016 0
M  V30 7065 H 664.568 0.73864 0.0590961 0
M  V30 7066 H 667.215 1.83274 -0.555234 0
M  V30 7067 H 665.52 3.7131 1.25045 0
M  V30 7068 H 667.217 3.90546 0.909647 0
M  V30 7069 H 663.807 4.25907 -0.479725 0
M  V30 7070 H 667.991 4.78824 -1.30543 0
M  V30 7071 H 663.247 5.59462 -2.46602 0
M  V30 7072 H 667.421 6.13746 -3.29072 0
M  V30 7073 H 665.048 6.53913 -3.87688 0
M  V30 7074 N 666.623 0.143563 1.56945 0
M  V30 7075 C 667.571 -0.814556 2.17871 0
M  V30 7076 C 668.565 -1.25778 1.13474 0
M  V30 7077 O 669.771 -1.22666 1.31731 0
M  V30 7078 H 666.146 -0.280873 0.697578 0
M  V30 7079 H 668.117 -0.276459 2.97117 0
M  V30 7080 C 666.866 -2.04503 2.81201 0
M  V30 7081 H 666.189 -1.71296 3.61245 0
M  V30 7082 H 667.629 -2.69493 3.27337 0
M  V30 7083 C 666.088 -2.85079 1.79532 0
M  V30 7084 O 666.618 -3.81306 1.26368 0
M  V30 7085 N 664.824 -2.49546 1.48913 0
M  V30 7086 H 664.371 -1.71359 1.92338 0
M  V30 7087 H 664.329 -3.03751 0.811348 0
M  V30 7088 N 668.101 -1.57061 -0.130224 0
M  V30 7089 C 669.349 -1.83893 -0.838313 0
M  V30 7090 C 669.67 -0.727046 -1.80939 0
M  V30 7091 O 668.94 0.249927 -1.94299 0
M  V30 7092 H 667.52 -0.67846 -0.312573 0
M  V30 7093 H 670.182 -1.94529 -0.120224 0
M  V30 7094 H 669.278 -2.79419 -1.39038 0
M  V30 7095 N 669.579 0.400081 -1.52437 0
M  V30 7096 C 670.804 1.17221 -1.71096 0
M  V30 7097 C 671.229 1.83269 -0.423565 0
M  V30 7098 O 670.587 1.70378 0.619751 0
M  V30 7099 C 670.635 2.20425 -2.85386 0
M  V30 7100 O 669.739 3.26769 -2.51586 0
M  V30 7101 H 669.08 0.341766 -0.569291 0
M  V30 7102 H 671.61 0.467772 -1.99181 0
M  V30 7103 H 671.62 2.64605 -3.10561 0
M  V30 7104 H 670.295 1.71737 -3.78786 0
M  V30 7105 H 668.872 2.87804 -2.37114 0
M  V30 7106 N 671.057 1.43213 0.657864 0
M  V30 7107 C 672.02 1.47687 1.75275 0
M  V30 7108 C 673.02 0.362179 1.56668 0
M  V30 7109 O 674.21 0.623734 1.62651 0
M  V30 7110 C 671.342 1.32497 3.14098 0
M  V30 7111 H 672.535 2.4519 1.7269 0
M  V30 7112 H 670.088 1.2991 0.869087 0
M  V30 7113 H 670.823 0.359831 3.22298 0
M  V30 7114 H 670.608 2.13299 3.29008 0
M  V30 7115 H 672.098 1.38549 3.93946 0
M  V30 7116 N 672.536 -0.895792 1.29666 0
M  V30 7117 C 673.784 -1.64339 1.17631 0
M  V30 7118 C 674.105 -1.93099 -0.271643 0
M  V30 7119 O 673.375 -1.55981 -1.18518 0
M  V30 7120 H 671.955 -0.609162 0.432354 0
M  V30 7121 H 674.617 -1.07389 1.62646 0
M  V30 7122 H 673.713 -2.59815 1.72924 0
M  V30 7123 N 674.014 -1.12206 -1.10668 0
M  V30 7124 C 675.242 -0.898635 -1.86366 0
M  V30 7125 C 675.657 0.551991 -1.80551 0
M  V30 7126 O 675.014 1.38152 -1.19249 0
M  V30 7127 C 675.065 -1.36199 -3.34861 0
M  V30 7128 O 674.786 -2.75576 -3.40573 0
M  V30 7129 C 676.287 -1.17515 -4.2744 0
M  V30 7130 H 673.507 -0.321281 -0.589084 0
M  V30 7131 H 676.051 -1.49142 -1.39918 0
M  V30 7132 H 674.206 -0.81249 -3.78784 0
M  V30 7133 H 674.62 -2.95851 -4.33096 0
M  V30 7134 H 676.094 -1.54827 -5.29842 0
M  V30 7135 H 676.571 -0.115486 -4.39048 0
M  V30 7136 H 677.177 -1.71203 -3.89319 0
M  V30 7137 N 675.492 1.28418 -0.913599 0
M  V30 7138 C 676.903 1.77024 -0.593237 0
M  V30 7139 C 677.254 1.74779 0.891441 0
M  V30 7140 O 676.379 1.34237 1.69733 0
M  V30 7141 C 676.974 3.21456 -1.07011 0
M  V30 7142 C 675.533 3.67786 -0.800664 0
M  V30 7143 C 674.68 2.48185 -1.23691 0
M  V30 7144 H 677.631 1.14883 -1.09487 0
M  V30 7145 H 677.652 3.78269 -0.411481 0
M  V30 7146 H 677.164 3.23058 -2.1507 0
M  V30 7147 H 675.265 3.71644 0.266725 0
M  V30 7148 H 675.378 4.57934 -1.4083 0
M  V30 7149 H 673.742 2.46116 -0.655655 0
M  V30 7150 H 674.525 2.52506 -2.32585 0
M  V30 7151 N 676.97 0.677563 1.42291 0
M  V30 7152 C 678.216 0.201272 2.01799 0
M  V30 7153 C 678.549 -1.19004 1.53465 0
M  V30 7154 O 677.824 -1.79953 0.738039 0
M  V30 7155 C 678.107 0.238968 3.59306 0
M  V30 7156 C 677.96 1.66594 4.17812 0
M  V30 7157 C 679.279 -0.411287 4.38174 0
M  V30 7158 H 676.398 0.0746114 0.733214 0
M  V30 7159 H 679.04 0.862872 1.69276 0
M  V30 7160 H 677.19 -0.324368 3.87144 0
M  V30 7161 H 678.862 2.28173 4.00917 0
M  V30 7162 H 677.105 2.20576 3.73536 0
M  V30 7163 H 677.776 1.64398 5.26951 0
M  V30 7164 H 680.252 0.0682804 4.16044 0
M  V30 7165 H 679.128 -0.354286 5.47755 0
M  V30 7166 H 679.389 -1.4893 4.1626 0
M  V30 7167 N 678.448 -1.51871 0.421078 0
M  V30 7168 C 679.676 -2.06356 -0.14994 0
M  V30 7169 C 680.091 -1.29006 -1.37851 0
M  V30 7170 O 679.448 -0.345139 -1.79207 0
M  V30 7171 C 679.499 -3.58185 -0.488454 0
M  V30 7172 O 679.22 -4.32611 0.691341 0
M  V30 7173 C 680.721 -4.29129 -1.11191 0
M  V30 7174 H 677.941 -0.67083 -0.0151186 0
M  V30 7175 H 680.485 -1.95638 0.595476 0
M  V30 7176 H 678.64 -3.68871 -1.18376 0
M  V30 7177 H 679.054 -5.22927 0.405906 0
M  V30 7178 H 680.528 -5.36501 -1.29889 0
M  V30 7179 H 681.005 -3.86371 -2.0884 0
M  V30 7180 H 681.611 -4.22843 -0.456458 0
M  V30 7181 N 679.926 -0.151884 -1.56866 0
M  V30 7182 C 681.173 0.498004 -1.96281 0
M  V30 7183 C 681.501 1.64551 -1.03698 0
M  V30 7184 O 680.756 1.95585 -0.0671497 0
M  V30 7185 C 681.055 1.04074 -3.41911 0
M  V30 7186 C 680.721 0.0111688 -4.50899 0
M  V30 7187 C 679.383 -0.271844 -4.80432 0
M  V30 7188 C 681.735 -0.68869 -5.1663 0
M  V30 7189 C 679.063 -1.26044 -5.73001 0
M  V30 7190 C 681.415 -1.66613 -6.10264 0
M  V30 7191 C 680.079 -1.9568 -6.38174 0
M  V30 7192 H 679.349 0.182233 -0.718242 0
M  V30 7193 H 681.996 -0.239746 -1.89993 0
M  V30 7194 H 680.301 1.85592 -3.45055 0
M  V30 7195 H 681.998 1.55224 -3.69738 0
M  V30 7196 H 678.588 0.241932 -4.27917 0
M  V30 7197 H 682.772 -0.48324 -4.93942 0
M  V30 7198 H 678.028 -1.49202 -5.92915 0
M  V30 7199 H 682.202 -2.21392 -6.60272 0
M  V30 7200 H 679.829 -2.72434 -7.09707 0
M  V30 7201 N 681.404 1.57128 0.121893 0
M  V30 7202 C 682.352 2.01109 1.16868 0
M  V30 7203 C 683.346 0.907532 1.43039 0
M  V30 7204 O 684.552 1.09274 1.43036 0
M  V30 7205 H 680.927 0.640539 0.393971 0
M  V30 7206 H 682.898 2.88261 0.771224 0
M  V30 7207 C 681.647 2.42887 2.48799 0
M  V30 7208 H 680.97 3.2737 2.29498 0
M  V30 7209 H 682.41 2.77461 3.20611 0
M  V30 7210 C 680.869 1.29137 3.11168 0
M  V30 7211 O 681.399 0.605756 3.97106 0
M  V30 7212 N 679.605 1.04916 2.71 0
M  V30 7213 H 679.152 1.60848 2.01211 0
M  V30 7214 H 679.11 0.290016 3.1306 0
M  V30 7215 N 682.882 -0.391992 1.52647 0
M  V30 7216 C 683.792 -1.503 1.80131 0
M  V30 7217 C 684.808 -1.59825 0.687882 0
M  V30 7218 O 685.984 -1.76218 0.975149 0
M  V30 7219 C 683.049 -2.85863 1.96171 0
M  V30 7220 C 682.11 -2.86084 3.20085 0
M  V30 7221 C 681.343 -4.15181 3.35351 0
M  V30 7222 O 681.566 -5.09981 2.55491 0
M  V30 7223 O 680.5 -4.22603 4.28591 0
M  V30 7224 H 684.326 -1.30007 2.74466 0
M  V30 7225 H 681.911 -0.579539 1.37701 0
M  V30 7226 H 683.793 -3.66236 2.08445 0
M  V30 7227 H 682.468 -3.06189 1.05025 0
M  V30 7228 H 681.375 -2.04504 3.13256 0
M  V30 7229 H 682.708 -2.7071 4.11068 0
M  V30 7230 N 684.36 -1.4356 -0.65026 0
M  V30 7231 C 685.308 -1.49219 -1.78427 0
M  V30 7232 C 686.302 -0.365528 -1.65409 0
M  V30 7233 O 687.508 -0.539649 -1.7172 0
M  V30 7234 H 683.883 -0.467858 -0.588738 0
M  V30 7235 H 685.854 -2.44701 -1.70774 0
M  V30 7236 C 684.603 -1.43519 -3.16698 0
M  V30 7237 H 683.926 -2.2952 -3.27354 0
M  V30 7238 H 685.366 -1.5154 -3.95995 0
M  V30 7239 C 683.825 -0.153197 -3.36552 0
M  V30 7240 O 684.355 0.784317 -3.93969 0
M  V30 7241 N 682.561 -0.0624402 -2.90533 0
M  V30 7242 H 682.108 -0.826172 -2.43992 0
M  V30 7243 H 682.066 0.794616 -3.04193 0
M  V30 7244 N 685.838 0.888903 -1.30139 0
M  V30 7245 C 687.086 1.63713 -1.18501 0
M  V30 7246 C 687.407 1.9324 0.261399 0
M  V30 7247 O 686.677 1.56608 1.17689 0
M  V30 7248 H 685.257 0.606861 -0.435579 0
M  V30 7249 H 687.919 1.06525 -1.63213 0
M  V30 7250 H 687.015 2.58894 -1.743 0
M  V30 7251 N 687.317 1.12792 1.10072 0
M  V30 7252 C 688.594 0.796867 1.78632 0
M  V30 7253 C 688.974 -0.712739 1.98704 0
M  V30 7254 O 688.322 -1.64773 1.5831 0
M  V30 7255 C 688.532 1.57622 3.11378 0
M  V30 7256 C 689.88 1.76463 3.86194 0
M  V30 7257 O 690.904 1.54165 3.2111 0
M  V30 7258 O 689.763 2.13623 5.03018 0
M  V30 7259 H 686.857 0.290248 0.774394 0
M  V30 7260 H 689.403 1.23215 1.16688 0
M  V30 7261 H 688.175 2.60246 2.92212 0
M  V30 7262 H 687.798 1.13543 3.81043 0
M  V30 7263 N 688.795 -1.27931 0.920396 0
M  V30 7264 C 689.758 -2.25345 0.41858 0
M  V30 7265 C 690.758 -1.54116 -0.458798 0
M  V30 7266 O 691.948 -1.72235 -0.260912 0
M  V30 7267 C 689.08 -3.38556 -0.399104 0
M  V30 7268 H 690.273 -2.71251 1.27918 0
M  V30 7269 H 687.826 -1.39728 0.700406 0
M  V30 7270 H 688.561 -2.98021 -1.27882 0
M  V30 7271 H 688.346 -3.91426 0.229863 0
M  V30 7272 H 689.836 -4.10976 -0.740817 0
M  V30 7273 N 690.273 -0.685099 -1.4193 0
M  V30 7274 C 691.684 -0.287699 -1.8447 0
M  V30 7275 C 692.035 1.17215 -1.57338 0
M  V30 7276 O 691.16 1.89856 -1.03845 0
M  V30 7277 C 691.755 -0.515385 -3.34857 0
M  V30 7278 C 690.314 -0.172006 -3.76007 0
M  V30 7279 C 689.461 -0.802808 -2.65425 0
M  V30 7280 H 692.412 -0.88652 -1.3163 0
M  V30 7281 H 692.433 0.229251 -3.79809 0
M  V30 7282 H 691.945 -1.57796 -3.54573 0
M  V30 7283 H 690.046 0.886716 -3.61895 0
M  V30 7284 H 690.159 -0.619717 -4.75075 0
M  V30 7285 H 688.523 -0.233267 -2.5363 0
M  V30 7286 H 689.306 -1.86904 -2.87961 0
M  V30 7287 N 691.751 1.51645 -0.429126 0
M  V30 7288 C 692.999 2.01616 0.139802 0
M  V30 7289 C 693.32 1.31568 1.43927 0
M  V30 7290 O 692.59 0.447688 1.90716 0
M  V30 7291 H 691.17 0.744998 0.054654 0
M  V30 7292 H 693.832 1.8638 -0.569952 0
M  V30 7293 H 692.928 3.10439 0.321609 0
M  V30 7294 N 693.229 0.160201 1.56784 0
M  V30 7295 C 694.645 -0.196089 1.58391 0
M  V30 7296 C 694.845 -1.63689 1.17508 0
M  V30 7297 O 693.901 -2.36613 0.881506 0
M  V30 7298 C 695.214 0.0746449 3.00607 0
M  V30 7299 C 696.762 0.0119762 3.12998 0
M  V30 7300 C 697.237 0.255551 4.57286 0
M  V30 7301 N 698.728 0.202938 4.62755 0
M  V30 7302 C 699.463 0.365731 5.72232 0
M  V30 7303 N 698.959 0.586972 6.90309 0
M  V30 7304 N 700.752 0.302411 5.61286 0
M  V30 7305 H 692.903 1.1008 1.81648 0
M  V30 7306 H 695.166 0.436779 0.841384 0
M  V30 7307 H 694.872 1.07231 3.34954 0
M  V30 7308 H 694.746 -0.638802 3.71751 0
M  V30 7309 H 697.133 -0.976254 2.78484 0
M  V30 7310 H 697.214 0.75796 2.44313 0
M  V30 7311 H 696.858 1.24094 4.92507 0
M  V30 7312 H 696.788 -0.510912 5.24116 0
M  V30 7313 H 699.279 0.0371328 3.77882 0
M  V30 7314 H 699.592 0.700941 7.69615 0
M  V30 7315 H 697.937 0.623453 6.92198 0
M  V30 7316 H 701.128 0.130238 4.67919 0
M  V30 7317 H 701.301 0.432712 6.46554 0
M  V30 7318 N 694.707 -1.5719 -0.113559 0
M  V30 7319 C 695.937 -1.89053 -0.833212 0
M  V30 7320 C 696.345 -0.750139 -1.73694 0
M  V30 7321 O 695.688 0.287808 -1.81431 0
M  V30 7322 C 695.75 -3.15986 -1.71443 0
M  V30 7323 C 695.414 -4.46271 -0.984449 0
M  V30 7324 C 696.411 -5.18897 -0.322741 0
M  V30 7325 C 694.096 -4.92963 -0.964011 0
M  V30 7326 C 696.09 -6.3644 0.349646 0
M  V30 7327 C 693.777 -6.10422 -0.287828 0
M  V30 7328 C 694.775 -6.82009 0.36784 0
M  V30 7329 O 694.463 -7.97233 1.03322 0
M  V30 7330 H 694.195 -0.630225 -0.244526 0
M  V30 7331 H 696.749 -2.05152 -0.100847 0
M  V30 7332 H 694.979 -2.95984 -2.48858 0
M  V30 7333 H 696.668 -3.33826 -2.309 0
M  V30 7334 H 697.434 -4.83875 -0.330114 0
M  V30 7335 H 693.313 -4.37143 -1.46379 0
M  V30 7336 H 696.857 -6.92254 0.861996 0
M  V30 7337 H 692.754 -6.449 -0.278237 0
M  V30 7338 H 693.522 -8.13105 0.938247 0
M  V30 7339 N 696.185 0.383891 -1.52853 0
M  V30 7340 C 697.462 1.14296 -1.58732 0
M  V30 7341 C 697.842 2.07585 -0.383611 0
M  V30 7342 O 697.19 2.1971 0.627661 0
M  V30 7343 C 697.4 1.89816 -2.92867 0
M  V30 7344 C 698.748 2.44998 -3.46787 0
M  V30 7345 O 699.772 1.99966 -2.94774 0
M  V30 7346 O 698.631 3.2727 -4.37672 0
M  V30 7347 H 695.725 0.52326 -0.640413 0
M  V30 7348 H 698.271 0.388631 -1.6519 0
M  V30 7349 H 697.043 1.21626 -3.71918 0
M  V30 7350 H 696.666 2.72199 -2.89816 0
M  V30 7351 N 697.663 1.43903 0.642637 0
M  V30 7352 C 698.912 1.45362 1.39831 0
M  V30 7353 C 699.225 0.0856289 1.95412 0
M  V30 7354 O 700.431 -0.0222856 2.71491 0
M  V30 7355 C 698.887 2.55857 2.53111 0
M  V30 7356 C 698.495 3.98811 2.04092 0
M  V30 7357 C 700.239 2.66524 3.30402 0
M  V30 7358 C 698.146 5.00751 3.14647 0
M  V30 7359 H 697.076 0.540777 0.52543 0
M  V30 7360 H 699.727 1.69929 0.692559 0
M  V30 7361 H 698.109 2.2451 3.26207 0
M  V30 7362 H 699.283 4.3967 1.37938 0
M  V30 7363 H 697.598 3.92284 1.39651 0
M  V30 7364 H 700.195 3.39858 4.12796 0
M  V30 7365 H 700.538 1.71949 3.79129 0
M  V30 7366 H 701.071 2.97224 2.64392 0
M  V30 7367 H 697.81 5.96914 2.70876 0
M  V30 7368 H 697.33 4.64495 3.79479 0
M  V30 7369 H 699.009 5.23933 3.79609 0
M  V30 7370 N 699.141 -0.881989 1.30609 0
M  V30 7371 C 700.388 -1.63405 1.19604 0
M  V30 7372 C 700.716 -1.92905 -0.248574 0
M  V30 7373 O 699.971 -1.55062 -1.19391 0
M  V30 7374 C 700.27 -2.97999 1.97311 0
M  V30 7375 C 699.936 -2.88039 3.46907 0
M  V30 7376 C 698.598 -2.85029 3.877 0
M  V30 7377 C 700.95 -2.75948 4.42156 0
M  V30 7378 C 698.278 -2.67772 5.2203 0
M  V30 7379 C 700.63 -2.60228 5.76597 0
M  V30 7380 C 699.294 -2.55595 6.16626 0
M  V30 7381 H 698.564 -0.597941 0.437662 0
M  V30 7382 H 701.211 -1.02524 1.61744 0
M  V30 7383 H 699.516 -3.62847 1.47815 0
M  V30 7384 H 701.213 -3.55156 1.86186 0
M  V30 7385 H 697.803 -2.91192 3.14492 0
M  V30 7386 H 701.987 -2.77337 4.1158 0
M  V30 7387 H 697.243 -2.62601 5.52133 0
M  V30 7388 H 701.417 -2.49847 6.50038 0
M  V30 7389 H 699.044 -2.41981 7.20659 0
M  V30 7390 N 700.619 -1.13374 -1.09472 0
M  V30 7391 C 701.551 -0.768466 -2.15933 0
M  V30 7392 C 702.564 0.209585 -1.61445 0
M  V30 7393 O 703.753 -0.010539 -1.78497 0
M  V30 7394 C 700.853 -0.118266 -3.38694 0
M  V30 7395 C 700.026 -1.12829 -4.22597 0
M  V30 7396 C 699.085 -0.503875 -5.23782 0
M  V30 7397 O 698.111 -1.16374 -5.57177 0
M  V30 7398 N 699.313 0.724288 -5.75964 0
M  V30 7399 H 702.078 -1.68457 -2.47876 0
M  V30 7400 H 699.639 -1.02668 -1.25183 0
M  V30 7401 H 701.631 0.311698 -4.03498 0
M  V30 7402 H 700.201 0.700769 -3.04644 0
M  V30 7403 H 699.421 -1.73556 -3.53938 0
M  V30 7404 H 700.709 -1.81095 -4.75481 0
M  V30 7405 H 700.107 1.27918 -5.51048 0
M  V30 7406 H 698.664 1.09692 -6.42504 0
M  V30 7407 N 702.098 1.27442 -0.927168 0
M  V30 7408 C 703.328 1.9821 -0.582775 0
M  V30 7409 C 703.736 1.69361 0.843406 0
M  V30 7410 O 703.079 0.950381 1.57205 0
M  V30 7411 C 703.141 3.52048 -0.728165 0
M  V30 7412 C 702.805 4.04518 -2.12637 0
M  V30 7413 C 703.802 4.17332 -3.10048 0
M  V30 7414 C 701.487 4.38879 -2.44317 0
M  V30 7415 C 703.481 4.6378 -4.37249 0
M  V30 7416 C 701.168 4.85018 -3.71753 0
M  V30 7417 C 702.166 4.97428 -4.68033 0
M  V30 7418 O 701.854 5.42556 -5.93202 0
M  V30 7419 H 701.586 0.639314 -0.219667 0
M  V30 7420 H 704.14 1.63272 -1.24626 0
M  V30 7421 H 702.37 3.86699 -0.00758143 0
M  V30 7422 H 704.059 4.04033 -0.388906 0
M  V30 7423 H 704.825 3.91046 -2.86894 0
M  V30 7424 H 700.704 4.28462 -1.70121 0
M  V30 7425 H 704.248 4.73382 -5.12402 0
M  V30 7426 H 700.145 5.10746 -3.94726 0
M  V30 7427 H 700.913 5.60811 -5.96182 0
M  V30 7428 N 703.576 0.692616 1.41565 0
M  V30 7429 C 704.508 -0.0137132 2.29196 0
M  V30 7430 C 705.521 -0.747417 1.44629 0
M  V30 7431 O 706.71 -0.598611 1.68163 0
M  V30 7432 C 703.81 -1.04347 3.22436 0
M  V30 7433 C 702.983 -0.379985 4.35746 0
M  V30 7434 C 702.042 -1.31195 5.09583 0
M  V30 7435 O 701.068 -0.805455 5.63472 0
M  V30 7436 N 702.27 -2.64443 5.16769 0
M  V30 7437 H 705.035 0.738614 2.90456 0
M  V30 7438 H 702.596 0.538415 1.52685 0
M  V30 7439 H 704.588 -1.6686 3.687 0
M  V30 7440 H 703.158 -1.69736 2.62504 0
M  V30 7441 H 702.378 0.424975 3.91903 0
M  V30 7442 H 703.666 0.0814904 5.08735 0
M  V30 7443 H 703.064 -3.08114 4.74428 0
M  V30 7444 H 701.621 -3.22159 5.66619 0
M  V30 7445 N 705.054 -1.51416 0.437162 0
M  V30 7446 C 706.303 -2.01275 -0.130865 0
M  V30 7447 C 706.616 -1.32593 -1.438 0
M  V30 7448 O 707.822 -1.7342 -2.08897 0
M  V30 7449 C 706.278 -3.5878 -0.283763 0
M  V30 7450 C 705.886 -4.36399 1.01293 0
M  V30 7451 C 707.63 -4.16786 -0.805569 0
M  V30 7452 C 705.537 -5.85608 0.825687 0
M  V30 7453 H 704.467 -0.752157 -0.0526818 0
M  V30 7454 H 707.118 -1.74524 0.566896 0
M  V30 7455 H 705.5 -3.81976 -1.04452 0
M  V30 7456 H 706.674 -4.24948 1.78201 0
M  V30 7457 H 704.989 -3.89843 1.46326 0
M  V30 7458 H 707.586 -5.25972 -0.962146 0
M  V30 7459 H 707.929 -3.75949 -1.78796 0
M  V30 7460 H 708.462 -3.97666 -0.103125 0
M  V30 7461 H 705.201 -6.30857 1.78045 0
M  V30 7462 H 704.721 -5.99723 0.0964029 0
M  V30 7463 H 706.4 -6.45226 0.478815 0
M  V30 7464 N 706.532 -0.168513 -1.56696 0
M  V30 7465 C 707.76 0.483503 -2.01171 0
M  V30 7466 C 708.175 1.56994 -1.04872 0
M  V30 7467 O 707.532 1.82434 -0.0491337 0
M  V30 7468 C 707.583 1.0644 -3.45475 0
M  V30 7469 O 707.304 0.0213375 -4.38095 0
M  V30 7470 C 708.805 1.79493 -4.05336 0
M  V30 7471 H 706.025 0.124002 -0.659443 0
M  V30 7472 H 708.569 -0.269419 -2.02717 0
M  V30 7473 H 706.724 1.76784 -3.44712 0
M  V30 7474 H 707.138 0.449837 -5.22567 0
M  V30 7475 H 708.612 2.15401 -5.08238 0
M  V30 7476 H 709.089 2.68889 -3.47269 0
M  V30 7477 H 709.695 1.13798 -4.09793 0
M  V30 7478 N 708.01 1.57248 0.105221 0
M  V30 7479 C 708.958 2.02337 1.14728 0
M  V30 7480 C 709.952 0.922652 1.42069 0
M  V30 7481 O 711.158 1.10785 1.41869 0
M  V30 7482 H 707.533 0.644682 0.387155 0
M  V30 7483 H 709.504 2.89063 0.740607 0
M  V30 7484 C 708.253 2.45513 2.46209 0
M  V30 7485 H 707.576 3.29785 2.26013 0
M  V30 7486 H 709.016 2.80846 3.1765 0
M  V30 7487 C 707.475 1.3243 3.09781 0
M  V30 7488 O 708.005 0.647841 3.96442 0
M  V30 7489 N 706.211 1.07785 2.69872 0
M  V30 7490 H 705.758 1.62973 1.99493 0
M  V30 7491 H 705.716 0.323204 3.12734 0
M  V30 7492 N 709.488 -0.375779 1.53054 0
M  V30 7493 C 710.435 -1.45978 1.78771 0
M  V30 7494 C 711.405 -1.53625 0.631552 0
M  V30 7495 O 712.59 -1.69674 0.872667 0
M  V30 7496 C 709.73 -2.8305 1.97425 0
M  V30 7497 C 708.843 -2.84451 3.25134 0
M  V30 7498 C 707.978 -4.13034 3.34031 0
M  V30 7499 C 707.017 -4.08536 4.55812 0
M  V30 7500 N 706.154 -5.2875 4.61918 0
M  V30 7501 H 710.994 -1.23349 2.71273 0
M  V30 7502 H 708.531 -0.598147 1.3439 0
M  V30 7503 H 710.489 -3.62666 2.06225 0
M  V30 7504 H 709.119 -3.04101 1.0827 0
M  V30 7505 H 708.171 -1.97127 3.25338 0
M  V30 7506 H 709.483 -2.76998 4.14818 0
M  V30 7507 H 708.637 -5.0106 3.42087 0
M  V30 7508 H 707.376 -4.23226 2.42345 0
M  V30 7509 H 706.381 -3.18897 4.47867 0
M  V30 7510 H 707.606 -3.99955 5.48828 0
M  V30 7511 H 705.552 -5.39547 3.73129 0
M  V30 7512 H 705.469 -5.23426 5.45492 0
M  V30 7513 H 706.737 -6.18637 4.74245 0
M  V30 7514 N 710.966 -1.44241 -0.634997 0
M  V30 7515 C 712.191 -1.50516 -1.42687 0
M  V30 7516 C 712.616 -0.129864 -1.87651 0
M  V30 7517 O 711.974 0.880164 -1.58502 0
M  V30 7518 C 712.022 -2.4714 -2.62591 0
M  V30 7519 O 711.126 -1.97025 -3.62291 0
M  V30 7520 H 710.467 -0.50841 -0.427101 0
M  V30 7521 H 712.997 -1.89337 -0.775408 0
M  V30 7522 H 713.007 -2.65048 -3.10183 0
M  V30 7523 H 711.682 -3.47039 -2.29209 0
M  V30 7524 H 710.259 -1.88866 -3.21534 0
M  V30 7525 N 712.444 0.87505 -1.31075 0
M  V30 7526 C 713.672 1.66058 -1.23419 0
M  V30 7527 C 714.087 1.87723 0.201347 0
M  V30 7528 O 713.444 1.43178 1.13165 0
M  V30 7529 C 713.495 3.03142 -1.96945 0
M  V30 7530 O 713.216 2.82448 -3.34895 0
M  V30 7531 C 714.717 3.97583 -1.96067 0
M  V30 7532 H 711.937 0.517868 -0.426677 0
M  V30 7533 H 714.481 1.09258 -1.72867 0
M  V30 7534 H 712.636 3.56645 -1.51271 0
M  V30 7535 H 713.05 3.69483 -3.72267 0
M  V30 7536 H 714.524 4.91104 -2.52034 0
M  V30 7537 H 715.001 4.2898 -0.941961 0
M  V30 7538 H 715.607 3.50015 -2.41597 0
M  V30 7539 N 713.922 1.13953 1.08869 0
M  V30 7540 C 714.832 0.835666 2.19212 0
M  V30 7541 C 715.848 -0.182005 1.73045 0
M  V30 7542 O 717.024 -0.0116661 2.01397 0
M  V30 7543 C 714.089 0.312325 3.4529 0
M  V30 7544 C 713.15 1.39196 4.06107 0
M  V30 7545 C 712.383 0.893496 5.26168 0
M  V30 7546 O 712.606 -0.266807 5.69776 0
M  V30 7547 O 711.54 1.67037 5.78258 0
M  V30 7548 H 715.366 1.75769 2.47667 0
M  V30 7549 H 712.951 0.917421 1.17914 0
M  V30 7550 H 714.833 0.0261582 4.21392 0
M  V30 7551 H 713.508 -0.582042 3.18424 0
M  V30 7552 H 712.415 1.73152 3.31616 0
M  V30 7553 H 713.748 2.26068 4.37212 0
M  V30 7554 N 715.4 -1.26948 0.933913 0
M  V30 7555 C 716.63 -1.97898 0.593279 0
M  V30 7556 C 717.038 -1.69806 -0.834412 0
M  V30 7557 O 716.381 -0.958704 -1.56699 0
M  V30 7558 C 716.443 -3.51657 0.746825 0
M  V30 7559 C 716.107 -4.03384 2.14779 0
M  V30 7560 C 717.104 -4.15682 3.12257 0
M  V30 7561 C 714.789 -4.37577 2.46641 0
M  V30 7562 C 716.783 -4.61455 4.39702 0
M  V30 7563 C 714.47 -4.8304 3.7432 0
M  V30 7564 C 715.468 -4.94939 4.70664 0
M  V30 7565 O 715.156 -5.39403 5.96071 0
M  V30 7566 H 714.888 -0.63814 0.223055 0
M  V30 7567 H 717.442 -1.62608 1.2549 0
M  V30 7568 H 715.672 -3.8669 0.0280889 0
M  V30 7569 H 717.361 -4.03821 0.410328 0
M  V30 7570 H 718.127 -3.89519 2.88964 0
M  V30 7571 H 714.006 -4.27554 1.72391 0
M  V30 7572 H 717.55 -4.70658 5.14905 0
M  V30 7573 H 713.447 -5.08646 3.97429 0
M  V30 7574 H 714.215 -5.57641 5.99148 0
M  V30 7575 N 716.879 -0.700114 -1.41195 0
M  V30 7576 C 717.826 -0.0376652 -2.30769 0
M  V30 7577 C 718.796 0.766544 -1.47354 0
M  V30 7578 O 719.981 0.73365 -1.76131 0
M  V30 7579 C 717.121 0.889452 -3.33441 0
M  V30 7580 C 716.234 0.076373 -4.31932 0
M  V30 7581 C 715.369 1.00155 -5.21673 0
M  V30 7582 C 714.408 0.181644 -6.1183 0
M  V30 7583 N 713.545 1.06087 -6.94039 0
M  V30 7584 H 718.385 -0.80726 -2.86858 0
M  V30 7585 H 715.922 -0.409798 -1.41277 0
M  V30 7586 H 717.88 1.44107 -3.91522 0
M  V30 7587 H 716.51 1.6254 -2.78892 0
M  V30 7588 H 715.562 -0.592223 -3.75762 0
M  V30 7589 H 716.874 -0.559076 -4.95657 0
M  V30 7590 H 716.028 1.62223 -5.8461 0
M  V30 7591 H 714.767 1.67085 -4.58186 0
M  V30 7592 H 713.772 -0.452085 -5.47938 0
M  V30 7593 H 714.997 -0.483925 -6.77374 0
M  V30 7594 H 712.943 1.7161 -6.33156 0
M  V30 7595 H 712.86 0.481094 -7.54468 0
M  V30 7596 H 714.128 1.66822 -7.6144 0
M  V30 7597 N 718.357 1.51182 -0.445186 0
M  V30 7598 C 719.603 2.02452 0.11882 0
M  V30 7599 C 719.936 1.32824 1.41673 0
M  V30 7600 O 719.211 0.445637 1.89326 0
M  V30 7601 C 719.494 3.5859 0.329475 0
M  V30 7602 C 719.347 4.38823 -0.987638 0
M  V30 7603 C 720.666 4.26241 1.09575 0
M  V30 7604 H 717.785 0.735819 0.0417092 0
M  V30 7605 H 720.427 1.80747 -0.585718 0
M  V30 7606 H 718.577 3.77214 0.9296 0
M  V30 7607 H 720.249 4.3183 -1.62235 0
M  V30 7608 H 718.492 4.03594 -1.59041 0
M  V30 7609 H 719.163 5.46257 -0.794192 0
M  V30 7610 H 721.639 4.11934 0.587328 0
M  V30 7611 H 720.515 5.35354 1.21191 0
M  V30 7612 H 720.776 3.87635 2.12584 0
M  V30 7613 N 719.835 0.176821 1.56605 0
M  V30 7614 C 721.084 -0.466833 1.96223 0
M  V30 7615 C 721.397 -1.64015 1.06576 0
M  V30 7616 O 722.603 -2.3504 1.35898 0
M  V30 7617 C 721.059 -0.881921 3.48927 0
M  V30 7618 C 720.667 0.266102 4.47209 0
M  V30 7619 C 722.411 -1.49368 3.97353 0
M  V30 7620 C 720.318 -0.168923 5.91159 0
M  V30 7621 H 719.248 -0.178178 0.732645 0
M  V30 7622 H 721.899 0.265929 1.81563 0
M  V30 7623 H 720.281 -1.67082 3.59026 0
M  V30 7624 H 721.455 1.04349 4.4883 0
M  V30 7625 H 719.77 0.788178 4.08872 0
M  V30 7626 H 722.367 -1.8313 5.02362 0
M  V30 7627 H 722.71 -2.3936 3.40606 0
M  V30 7628 H 723.243 -0.769114 3.90294 0
M  V30 7629 H 719.982 0.696351 6.51791 0
M  V30 7630 H 719.502 -0.911552 5.92833 0
M  V30 7631 H 721.181 -0.610938 6.44109 0
M  V30 7632 N 721.313 -1.57302 -0.09688 0
M  V30 7633 C 722.561 -1.8563 -0.799117 0
M  V30 7634 C 722.882 -0.765263 -1.79356 0
M  V30 7635 O 722.152 0.208657 -1.94786 0
M  V30 7636 H 720.732 -0.684937 -0.298111 0
M  V30 7637 H 723.394 -1.9474 -0.0789341 0
M  V30 7638 H 722.49 -2.82305 -1.3308 0
M  V30 7639 N 722.791 0.367657 -1.53252 0
M  V30 7640 C 723.741 1.45035 -1.75923 0
M  V30 7641 C 724.725 1.48736 -0.613719 0
M  V30 7642 O 725.917 1.54012 -0.872313 0
M  V30 7643 C 723.046 2.82493 -1.9507 0
M  V30 7644 C 722.132 2.83279 -3.15617 0
M  V30 7645 N 722.523 2.53712 -4.37566 0
M  V30 7646 C 720.821 3.1444 -3.16297 0
M  V30 7647 C 721.522 2.62123 -5.19294 0
M  V30 7648 N 720.498 2.96747 -4.55458 0
M  V30 7649 H 724.3 1.21035 -2.6782 0
M  V30 7650 H 721.814 0.575822 -1.51849 0
M  V30 7651 H 723.811 3.60473 -2.0944 0
M  V30 7652 H 722.471 3.07459 -1.044 0
M  V30 7653 H 723.482 2.27344 -4.65333 0
M  V30 7654 H 720.159 3.44733 -2.35511 0
M  V30 7655 H 721.549 2.42628 -6.26563 0
M  V30 7656 N 724.269 1.44576 0.627338 0
M  V30 7657 C 725.515 1.4877 1.38705 0
M  V30 7658 C 725.87 0.119976 1.92026 0
M  V30 7659 O 725.163 -0.865341 1.70946 0
M  V30 7660 C 725.357 2.48644 2.56731 0
M  V30 7661 C 725.186 3.94994 2.14965 0
M  V30 7662 C 723.956 4.63139 2.02065 0
M  V30 7663 C 726.154 4.841 1.73643 0
M  V30 7664 N 724.136 5.94296 1.53902 0
M  V30 7665 C 725.507 6.0473 1.36753 0
M  V30 7666 C 727.562 4.71131 1.61058 0
M  V30 7667 C 726.265 7.13831 0.885353 0
M  V30 7668 C 728.291 5.8026 1.14244 0
M  V30 7669 C 727.653 7.00034 0.783067 0
M  V30 7670 H 723.752 0.599415 0.50222 0
M  V30 7671 H 726.336 1.80926 0.719285 0
M  V30 7672 H 724.507 2.18472 3.2113 0
M  V30 7673 H 726.239 2.4311 3.23542 0
M  V30 7674 H 722.994 4.18007 2.22637 0
M  V30 7675 H 723.418 6.63985 1.32108 0
M  V30 7676 H 728.06 3.78964 1.87473 0
M  V30 7677 H 725.778 8.05804 0.608716 0
M  V30 7678 H 729.364 5.72254 1.0496 0
M  V30 7679 H 728.244 7.8304 0.426381 0
M  V30 7680 N 725.747 -0.868086 1.31537 0
M  V30 7681 C 726.975 -1.65402 1.24298 0
M  V30 7682 C 727.39 -1.87827 -0.191389 0
M  V30 7683 O 726.747 -1.43776 -1.12404 0
M  V30 7684 C 726.798 -3.02093 1.9855 0
M  V30 7685 O 726.519 -2.80668 3.36388 0
M  V30 7686 C 728.02 -3.96538 1.98173 0
M  V30 7687 H 725.24 -0.515598 0.429417 0
M  V30 7688 H 727.784 -1.0834 1.73444 0
M  V30 7689 H 725.939 -3.55838 1.53161 0
M  V30 7690 H 726.353 -3.67504 3.74221 0
M  V30 7691 H 727.827 -4.8976 2.54635 0
M  V30 7692 H 728.304 -4.28474 0.964697 0
M  V30 7693 H 728.91 -3.48729 2.4345 0
M  V30 7694 N 727.225 -1.14528 -1.08264 0
M  V30 7695 C 728.173 -0.829201 -2.17318 0
M  V30 7696 C 729.167 0.193521 -1.68291 0
M  V30 7697 O 730.373 0.0494744 -1.79932 0
M  V30 7698 H 726.748 -0.250435 -0.709074 0
M  V30 7699 H 728.719 -1.75683 -2.41201 0
M  V30 7700 C 727.468 -0.324663 -3.46181 0
M  V30 7701 H 726.791 -1.10299 -3.84284 0
M  V30 7702 H 728.231 -0.142059 -4.23762 0
M  V30 7703 C 726.69 0.952033 -3.23169 0
M  V30 7704 O 727.22 2.02549 -3.46896 0
M  V30 7705 N 725.426 0.887854 -2.76705 0
M  V30 7706 H 724.973 0.0141402 -2.57596 0
M  V30 7707 H 724.931 1.74263 -2.61686 0
M  V30 7708 N 728.703 1.26451 -0.940633 0
M  V30 7709 C 729.635 2.25556 -0.407104 0
M  V30 7710 C 730.648 1.55888 0.469324 0
M  V30 7711 O 731.837 1.76292 0.279858 0
M  V30 7712 C 728.937 3.36109 0.434064 0
M  V30 7713 C 728.11 4.3532 -0.426082 0
M  V30 7714 C 727.169 5.25004 0.354563 0
M  V30 7715 O 726.195 5.68684 -0.242219 0
M  V30 7716 N 727.397 5.5652 1.65123 0
M  V30 7717 H 730.162 2.7197 -1.25907 0
M  V30 7718 H 727.723 1.40212 -0.809456 0
M  V30 7719 H 729.715 3.93059 0.963684 0
M  V30 7720 H 728.285 2.89194 1.18683 0
M  V30 7721 H 727.505 3.77449 -1.13692 0
M  V30 7722 H 728.793 4.986 -1.01366 0
M  V30 7723 H 728.191 5.22912 2.15822 0
M  V30 7724 H 726.748 6.16115 2.12711 0
M  V30 7725 N 730.181 0.707592 1.40822 0
M  V30 7726 C 731.111 0.0644925 2.33411 0
M  V30 7727 C 732.092 -0.754205 1.52466 0
M  V30 7728 O 733.277 -0.704749 1.80961 0
M  V30 7729 C 730.407 -0.863865 3.36385 0
M  V30 7730 C 729.361 -0.15138 4.27732 0
M  V30 7731 C 728.687 -1.19491 5.21177 0
M  V30 7732 C 729.987 0.989607 5.12839 0
M  V30 7733 H 731.681 0.837829 2.87438 0
M  V30 7734 H 729.227 0.404346 1.38207 0
M  V30 7735 H 731.18 -1.32309 4.0009 0
M  V30 7736 H 729.904 -1.66901 2.80734 0
M  V30 7737 H 728.563 0.287937 3.65467 0
M  V30 7738 H 728.211 -1.9929 4.61836 0
M  V30 7739 H 727.911 -0.723123 5.83134 0
M  V30 7740 H 729.435 -1.6544 5.8776 0
M  V30 7741 H 730.849 0.610114 5.70044 0
M  V30 7742 H 729.246 1.38926 5.83798 0
M  V30 7743 H 730.316 1.82389 4.49291 0
M  V30 7744 N 731.66 -1.50943 0.453197 0
M  V30 7745 C 732.61 -2.25003 -0.368467 0
M  V30 7746 C 733.594 -1.27864 -0.976714 0
M  V30 7747 O 734.786 -1.52867 -0.892228 0
M  V30 7748 C 731.915 -3.10701 -1.46014 0
M  V30 7749 C 731.001 -4.15278 -0.860506 0
M  V30 7750 N 731.392 -5.05799 0.00849611 0
M  V30 7751 C 729.69 -4.31542 -1.1264 0
M  V30 7752 C 730.391 -5.80664 0.346951 0
M  V30 7753 N 729.367 -5.42912 -0.273426 0
M  V30 7754 H 733.169 -2.92352 0.301246 0
M  V30 7755 H 730.683 -1.60203 0.266233 0
M  V30 7756 H 732.68 -3.62348 -2.06179 0
M  V30 7757 H 731.34 -2.44898 -2.13202 0
M  V30 7758 H 732.351 -5.16533 0.376077 0
M  V30 7759 H 729.028 -3.76962 -1.7946 0
M  V30 7760 H 730.418 -6.63565 1.05507 0
M  V30 7761 N 733.138 -0.185124 -1.56509 0
M  V30 7762 C 734.068 0.735098 -2.21627 0
M  V30 7763 C 735.049 1.2288 -1.1762 0
M  V30 7764 O 736.234 1.27945 -1.46095 0
M  V30 7765 C 733.364 1.95889 -2.86783 0
M  V30 7766 C 732.318 1.6005 -3.96948 0
M  V30 7767 C 731.644 2.90009 -4.4922 0
M  V30 7768 C 732.944 0.818008 -5.15855 0
M  V30 7769 H 734.638 0.192274 -2.98782 0
M  V30 7770 H 732.184 0.0910393 -1.43712 0
M  V30 7771 H 734.137 2.60779 -3.31017 0
M  V30 7772 H 732.861 2.52608 -2.07018 0
M  V30 7773 H 731.52 0.975237 -3.5339 0
M  V30 7774 H 731.168 3.44797 -3.6623 0
M  V30 7775 H 730.868 2.66778 -5.23549 0
M  V30 7776 H 732.392 3.55904 -4.9615 0
M  V30 7777 H 733.806 1.36979 -5.56695 0
M  V30 7778 H 732.203 0.684207 -5.96187 0
M  V30 7779 H 733.273 -0.182939 -4.84555 0
M  V30 7780 N 734.616 1.57351 0.0885366 0
M  V30 7781 C 735.563 2.02523 1.10693 0
M  V30 7782 C 736.533 0.902736 1.39427 0
M  V30 7783 O 737.718 1.16921 1.50779 0
M  V30 7784 C 734.858 2.46013 2.42016 0
M  V30 7785 C 733.971 3.7181 2.19957 0
M  V30 7786 C 733.106 4.04152 3.44724 0
M  V30 7787 C 732.145 5.2304 3.17956 0
M  V30 7788 N 731.282 5.51102 4.35007 0
M  V30 7789 H 736.122 2.89302 0.714742 0
M  V30 7790 H 733.659 1.43084 0.341378 0
M  V30 7791 H 735.617 2.69274 3.18665 0
M  V30 7792 H 734.247 1.62235 2.79069 0
M  V30 7793 H 733.299 3.55987 1.34079 0
M  V30 7794 H 734.611 4.58604 1.96173 0
M  V30 7795 H 733.765 4.28225 4.29777 0
M  V30 7796 H 732.504 3.15893 3.71568 0
M  V30 7797 H 731.509 4.98781 2.31296 0
M  V30 7798 H 732.734 6.12902 2.92451 0
M  V30 7799 H 730.68 4.65802 4.61914 0
M  V30 7800 H 730.597 6.3228 4.14437 0
M  V30 7801 H 731.865 5.79714 5.21106 0
M  V30 7802 N 736.094 -0.359525 1.53444 0
M  V30 7803 C 737.34 -1.10315 1.70172 0
M  V30 7804 C 737.673 -1.88788 0.455287 0
M  V30 7805 O 736.948 -1.86635 -0.547514 0
M  V30 7806 C 737.231 -2.05744 2.95536 0
M  V30 7807 C 737.084 -1.3084 4.3035 0
M  V30 7808 C 738.403 -3.05784 3.16518 0
M  V30 7809 H 735.522 -0.399662 0.619225 0
M  V30 7810 H 738.164 -0.383338 1.86093 0
M  V30 7811 H 736.314 -2.67125 2.82093 0
M  V30 7812 H 737.986 -0.721959 4.55615 0
M  V30 7813 H 736.229 -0.610283 4.29486 0
M  V30 7814 H 736.9 -2.00718 5.14214 0
M  V30 7815 H 739.376 -2.5451 3.29187 0
M  V30 7816 H 738.252 -3.69772 4.05659 0
M  V30 7817 H 738.513 -3.76289 2.32076 0
M  V30 7818 N 737.572 -1.44907 -0.619662 0
M  V30 7819 C 738.482 -1.55168 -1.75955 0
M  V30 7820 C 739.498 -0.43672 -1.6843 0
M  V30 7821 O 740.674 -0.695704 -1.89002 0
M  V30 7822 C 737.739 -1.50397 -3.12381 0
M  V30 7823 C 736.8 -2.72835 -3.31451 0
M  V30 7824 C 736.033 -2.68283 -4.61368 0
M  V30 7825 O 736.256 -1.74929 -5.42914 0
M  V30 7826 O 735.19 -3.59308 -4.82889 0
M  V30 7827 H 739.016 -2.51493 -1.7025 0
M  V30 7828 H 736.601 -1.27282 -0.782289 0
M  V30 7829 H 738.483 -1.50301 -3.93685 0
M  V30 7830 H 737.158 -0.572197 -3.18603 0
M  V30 7831 H 736.065 -2.78496 -2.49781 0
M  V30 7832 H 737.398 -3.65098 -3.30098 0
M  V30 7833 N 739.05 0.861098 -1.31996 0
M  V30 7834 C 740.327 1.59788 -1.12814 0
M  V30 7835 C 740.707 2.08753 0.313882 0
M  V30 7836 O 740.055 1.87258 1.30946 0
M  V30 7837 C 740.265 2.74901 -2.15012 0
M  V30 7838 C 741.613 3.44643 -2.48004 0
M  V30 7839 O 742.637 2.85119 -2.13508 0
M  V30 7840 O 741.496 4.52044 -3.07113 0
M  V30 7841 H 738.59 0.703408 -0.434909 0
M  V30 7842 H 741.136 0.905788 -1.43505 0
M  V30 7843 H 739.908 2.36198 -3.11971 0
M  V30 7844 H 739.531 3.51792 -1.85279 0
M  V30 7845 N 740.528 1.15101 1.07655 0
M  V30 7846 C 741.461 0.788522 2.14144 0
M  V30 7847 C 742.439 -0.233635 1.60913 0
M  V30 7848 O 743.623 -0.120908 1.88112 0
M  V30 7849 C 740.75 0.172033 3.38263 0
M  V30 7850 C 739.796 1.16559 4.10264 0
M  V30 7851 S 740.629 2.70627 4.62084 0
M  V30 7852 C 741.785 2.10389 5.8948 0
M  V30 7853 H 742.018 1.69047 2.44561 0
M  V30 7854 H 739.551 0.973033 1.19881 0
M  V30 7855 H 741.509 -0.177223 4.10117 0
M  V30 7856 H 740.17 -0.707468 3.06029 0
M  V30 7857 H 739.363 0.6824 4.99359 0
M  V30 7858 H 738.965 1.45923 3.44358 0
M  V30 7859 H 741.257 1.46405 6.61492 0
M  V30 7860 H 742.2 2.97639 6.42508 0
M  V30 7861 H 742.608 1.54816 5.42856 0
M  V30 7862 N 742.006 -1.2595 0.947325 0
M  V30 7863 C 742.938 -2.25336 0.41906 0
M  V30 7864 C 743.951 -1.56135 -0.461051 0
M  V30 7865 O 745.14 -1.76438 -0.270505 0
M  V30 7866 C 742.24 -3.36334 -0.416233 0
M  V30 7867 C 741.413 -4.35088 0.449162 0
M  V30 7868 C 740.472 -5.25185 -0.326716 0
M  V30 7869 O 739.498 -5.68548 0.272374 0
M  V30 7870 N 740.7 -5.57388 -1.6217 0
M  V30 7871 H 743.465 -2.71298 1.27348 0
M  V30 7872 H 741.026 -1.39781 0.81688 0
M  V30 7873 H 743.018 -3.93564 -0.942826 0
M  V30 7874 H 741.588 -2.89819 -1.17148 0
M  V30 7875 H 740.808 -3.76841 1.15692 0
M  V30 7876 H 742.096 -4.98056 1.04008 0
M  V30 7877 H 741.494 -5.2405 -2.13046 0
M  V30 7878 H 740.051 -6.17234 -2.0944 0
M  V30 7879 N 743.484 -0.715051 -1.40445 0
M  V30 7880 C 744.73 -0.263528 -2.01686 0
M  V30 7881 C 745.085 1.13052 -1.55683 0
M  V30 7882 O 744.378 1.75588 -0.766762 0
M  V30 7883 C 744.572 -0.281791 -3.56287 0
M  V30 7884 C 744.401 -1.67607 -4.17298 0
M  V30 7885 C 743.171 -2.2836 -4.50755 0
M  V30 7886 C 745.369 -2.62621 -4.42193 0
M  V30 7887 N 743.351 -3.6015 -4.97157 0
M  V30 7888 C 744.722 -3.79116 -4.90582 0
M  V30 7889 C 746.777 -2.60639 -4.24231 0
M  V30 7890 C 745.48 -4.93937 -5.22895 0
M  V30 7891 C 747.506 -3.74587 -4.57644 0
M  V30 7892 C 746.868 -4.89815 -5.06222 0
M  V30 7893 H 742.967 -0.142252 -0.768953 0
M  V30 7894 H 745.551 -0.936732 -1.70685 0
M  V30 7895 H 743.722 0.360975 -3.86719 0
M  V30 7896 H 745.454 0.186393 -4.04271 0
M  V30 7897 H 742.209 -1.80463 -4.3787 0
M  V30 7898 H 742.633 -4.27757 -5.24741 0
M  V30 7899 H 747.275 -1.72759 -3.85894 0
M  V30 7900 H 744.993 -5.82462 -5.60146 0
M  V30 7901 H 748.579 -3.74328 -4.45387 0
M  V30 7902 H 747.459 -5.76525 -5.3159 0
M  V30 7903 N 744.962 1.50701 -0.461195 0
M  V30 7904 C 745.925 2.2686 0.326679 0
M  V30 7905 C 746.925 1.31243 0.929085 0
M  V30 7906 O 748.115 1.54754 0.799807 0
M  V30 7907 C 745.247 3.07844 1.46441 0
M  V30 7908 H 746.44 2.97954 -0.341095 0
M  V30 7909 H 743.993 1.54814 -0.214984 0
M  V30 7910 H 744.728 2.41223 2.16753 0
M  V30 7911 H 744.513 3.78101 1.03836 0
M  V30 7912 H 746.003 3.65469 2.02044 0
M  V30 7913 N 746.441 0.193421 1.56409 0
M  V30 7914 C 747.391 -0.74089 2.15627 0
M  V30 7915 C 748.375 -1.17747 1.09656 0
M  V30 7916 O 749.567 -1.13615 1.35723 0
M  V30 7917 C 746.696 -1.96091 2.81786 0
M  V30 7918 C 745.782 -1.54531 3.94944 0
M  V30 7919 N 746.173 -0.840569 4.98767 0
M  V30 7920 C 744.471 -1.83473 4.06514 0
M  V30 7921 C 745.172 -0.632571 5.7825 0
M  V30 7922 N 744.148 -1.18078 5.30621 0
M  V30 7923 H 747.95 -0.193718 2.93261 0
M  V30 7924 H 745.464 -0.00643211 1.62399 0
M  V30 7925 H 747.461 -2.64071 3.22602 0
M  V30 7926 H 746.121 -2.51282 2.05639 0
M  V30 7927 H 747.132 -0.496218 5.15517 0
M  V30 7928 H 743.809 -2.40184 3.41493 0
M  V30 7929 H 745.199 -0.0736433 6.7186 0
M  V30 7930 N 747.919 -1.57396 -0.0801906 0
M  V30 7931 C 749.335 -1.53564 -0.434778 0
M  V30 7932 C 749.535 -0.912372 -1.79661 0
M  V30 7933 O 748.591 -0.511268 -2.4727 0
M  V30 7934 C 749.904 -2.98244 -0.383561 0
M  V30 7935 C 751.452 -3.09536 -0.46435 0
M  V30 7936 C 751.927 -4.55851 -0.443128 0
M  V30 7937 N 753.418 -4.60456 -0.503448 0
M  V30 7938 C 754.153 -5.71135 -0.509106 0
M  V30 7939 N 753.649 -6.91203 -0.47008 0
M  V30 7940 N 755.442 -5.59353 -0.555035 0
M  V30 7941 H 747.593 -1.96281 0.811635 0
M  V30 7942 H 749.856 -0.898041 0.303689 0
M  V30 7943 H 749.562 -3.47369 0.550236 0
M  V30 7944 H 749.436 -3.57705 -1.19694 0
M  V30 7945 H 751.823 -2.6039 -1.38857 0
M  V30 7946 H 751.904 -2.53 0.377445 0
M  V30 7947 H 751.548 -5.05653 0.477207 0
M  V30 7948 H 751.478 -5.10242 -1.30234 0
M  V30 7949 H 753.969 -3.74048 -0.538199 0
M  V30 7950 H 754.282 -7.7132 -0.478091 0
M  V30 7951 H 752.627 -6.93625 -0.436897 0
M  V30 7952 H 755.818 -4.64453 -0.583158 0
M  V30 7953 H 755.991 -6.4561 -0.555976 0
M  V30 7954 N 749.397 0.351382 -1.53633 0
M  V30 7955 C 750.307 1.45471 -1.84052 0
M  V30 7956 C 751.323 1.57945 -0.730015 0
M  V30 7957 O 752.499 1.73571 -1.02153 0
M  V30 7958 C 749.564 2.80562 -2.03681 0
M  V30 7959 C 748.625 2.77497 -3.27558 0
M  V30 7960 C 747.858 4.06144 -3.46241 0
M  V30 7961 O 748.081 5.03028 -2.68922 0
M  V30 7962 O 747.015 4.11092 -4.39645 0
M  V30 7963 H 750.841 1.22684 -2.77817 0
M  V30 7964 H 748.426 0.542827 -1.3919 0
M  V30 7965 H 750.308 3.6058 -2.18082 0
M  V30 7966 H 748.983 3.03296 -1.13106 0
M  V30 7967 H 747.89 1.96126 -3.18568 0
M  V30 7968 H 749.223 2.59716 -4.18101 0
M  V30 7969 N 750.875 1.45233 0.611969 0
M  V30 7970 C 751.825 1.49997 1.71711 0
M  V30 7971 C 752.809 0.363689 1.56736 0
M  V30 7972 O 754.001 0.610261 1.66147 0
M  V30 7973 C 751.13 1.46537 3.10454 0
M  V30 7974 C 750.216 2.65351 3.30831 0
M  V30 7975 N 750.607 3.90485 3.21489 0
M  V30 7976 C 748.905 2.60955 3.61688 0
M  V30 7977 C 749.606 4.69758 3.43078 0
M  V30 7978 N 748.582 4.01141 3.66861 0
M  V30 7979 H 752.384 2.44574 1.62975 0
M  V30 7980 H 749.898 1.40464 0.815082 0
M  V30 7981 H 751.895 1.48035 3.89732 0
M  V30 7982 H 750.555 0.530139 3.20343 0
M  V30 7983 H 751.566 4.22171 2.99987 0
M  V30 7984 H 748.243 1.76319 3.78441 0
M  V30 7985 H 749.633 5.7877 3.41285 0
M  V30 7986 N 752.353 -0.854086 1.3245 0
M  V30 7987 C 753.581 -1.64074 1.26045 0
M  V30 7988 C 753.996 -1.8802 -0.171456 0
M  V30 7989 O 753.353 -1.4496 -1.10873 0
M  V30 7990 C 753.404 -2.9997 2.01743 0
M  V30 7991 O 753.125 -2.77084 3.39346 0
M  V30 7992 C 754.626 -3.94414 2.02368 0
M  V30 7993 H 751.846 -0.511015 0.434862 0
M  V30 7994 H 754.39 -1.06494 1.74583 0
M  V30 7995 H 752.545 -3.54193 1.56926 0
M  V30 7996 H 752.959 -3.63514 3.78098 0
M  V30 7997 H 754.433 -4.87032 2.59815 0
M  V30 7998 H 754.91 -4.27427 1.01009 0
M  V30 7999 H 755.516 -3.46127 2.47135 0
M  V30 8000 N 753.831 -1.1567 -1.07043 0
M  V30 8001 C 754.781 -0.824733 -2.12561 0
M  V30 8002 C 755.765 0.19243 -1.59745 0
M  V30 8003 O 756.957 -0.00728759 -1.76998 0
M  V30 8004 C 754.086 -0.31921 -3.41813 0
M  V30 8005 C 753.172 -1.36671 -4.01475 0
M  V30 8006 N 753.563 -2.57493 -4.35351 0
M  V30 8007 C 751.861 -1.22018 -4.28984 0
M  V30 8008 C 752.562 -3.24658 -4.82672 0
M  V30 8009 N 751.538 -2.52043 -4.81638 0
M  V30 8010 H 755.34 -1.74363 -2.3659 0
M  V30 8011 H 752.854 -1.04262 -1.24511 0
M  V30 8012 H 754.851 -0.0630216 -4.16852 0
M  V30 8013 H 753.511 0.593708 -3.19226 0
M  V30 8014 H 754.522 -2.94612 -4.25939 0
M  V30 8015 H 751.199 -0.367414 -4.1588 0
M  V30 8016 H 752.589 -4.2775 -5.1815 0
M  V30 8017 N 755.309 1.25446 -0.953992 0
M  V30 8018 C 756.72 1.75047 -0.649255 0
M  V30 8019 C 757.071 1.77527 0.835385 0
M  V30 8020 O 756.196 1.39569 1.65377 0
M  V30 8021 C 756.791 3.17889 -1.17183 0
M  V30 8022 C 755.35 3.65052 -0.917267 0
M  V30 8023 C 754.497 2.44124 -1.31525 0
M  V30 8024 H 757.448 1.11342 -1.13087 0
M  V30 8025 H 757.469 3.76768 -0.531616 0
M  V30 8026 H 756.981 3.16052 -2.25239 0
M  V30 8027 H 755.082 3.72305 0.148354 0
M  V30 8028 H 755.195 4.53222 -1.55328 0
M  V30 8029 H 753.559 2.43906 -0.733624 0
M  V30 8030 H 754.342 2.44979 -2.405 0
M  V30 8031 N 756.787 0.722489 1.40064 0
M  V30 8032 C 757.75 0.0830209 2.2905 0
M  V30 8033 C 758.75 -0.680208 1.45705 0
M  V30 8034 O 759.94 -0.511084 1.66534 0
M  V30 8035 C 757.072 -0.892092 3.29021 0
M  V30 8036 H 758.265 0.866848 2.87099 0
M  V30 8037 H 755.818 0.487556 1.48501 0
M  V30 8038 H 756.553 -1.70273 2.76003 0
M  V30 8039 H 756.338 -0.34761 3.90556 0
M  V30 8040 H 757.828 -1.33648 3.95636 0
M  V30 8041 N 758.265 -1.50454 0.469181 0
M  V30 8042 C 759.49 -2.0722 -0.0864892 0
M  V30 8043 C 759.915 -1.33098 -1.32916 0
M  V30 8044 O 759.273 -0.378084 -1.77314 0
M  V30 8045 C 759.321 -3.58845 -0.355384 0
M  V30 8046 O 758.425 -3.86583 -1.43622 0
M  V30 8047 H 757.766 -0.663889 0.0121414 0
M  V30 8048 H 760.296 -1.93674 0.659674 0
M  V30 8049 H 760.306 -4.03617 -0.596447 0
M  V30 8050 H 758.981 -4.12211 0.552698 0
M  V30 8051 H 757.558 -3.5365 -1.18262 0
M  V30 8052 N 759.743 -0.201713 -1.56304 0
M  V30 8053 C 760.989 0.435952 -1.98059 0
M  V30 8054 C 761.322 1.60811 -1.08873 0
M  V30 8055 O 760.597 1.9398 -0.142128 0
M  V30 8056 C 760.88 0.889706 -3.48936 0
M  V30 8057 C 760.733 -0.284725 -4.48898 0
M  V30 8058 C 762.052 1.7529 -4.03685 0
M  V30 8059 H 759.171 0.15699 -0.720085 0
M  V30 8060 H 761.813 -0.293965 -1.87712 0
M  V30 8061 H 759.963 1.51166 -3.57884 0
M  V30 8062 H 761.635 -0.922531 -4.51981 0
M  V30 8063 H 759.878 -0.935427 -4.23594 0
M  V30 8064 H 760.549 0.0753865 -5.51949 0
M  V30 8065 H 763.025 1.2283 -3.97558 0
M  V30 8066 H 761.901 2.03933 -5.0961 0
M  V30 8067 H 762.162 2.70939 -3.49348 0
M  V30 8068 N 761.222 1.57436 0.0718424 0
M  V30 8069 C 762.462 1.89082 0.776351 0
M  V30 8070 C 762.826 0.795494 1.74745 0
M  V30 8071 O 764.027 0.995025 2.49705 0
M  V30 8072 C 762.298 3.25958 1.46582 0
M  V30 8073 S 763.857 3.79352 2.2054 0
M  V30 8074 H 760.675 0.662472 0.25817 0
M  V30 8075 H 763.277 1.95473 0.0324536 0
M  V30 8076 H 761.981 4.03577 0.745237 0
M  V30 8077 H 761.512 3.22764 2.24915 0
M  V30 8078 H 763.527 3.54634 3.47058 0
M  V30 8079 N 762.7 -0.34323 1.53817 0
M  V30 8080 C 763.925 -1.1079 1.75329 0
M  V30 8081 C 764.35 -1.81571 0.491293 0
M  V30 8082 O 763.708 -1.72561 -0.556089 0
M  V30 8083 C 763.756 -2.09681 2.9337 0
M  V30 8084 O 762.86 -3.17207 2.63541 0
M  V30 8085 H 762.201 -0.320402 0.581583 0
M  V30 8086 H 764.731 -0.393525 2.0078 0
M  V30 8087 H 764.741 -2.52897 3.20168 0
M  V30 8088 H 763.416 -1.5756 3.84899 0
M  V30 8089 H 761.993 -2.78806 2.47632 0
M  V30 8090 N 764.178 -1.45556 -0.604258 0
M  V30 8091 C 765.108 -1.57327 -1.72541 0
M  V30 8092 C 766.089 -0.424637 -1.64714 0
M  V30 8093 O 767.274 -0.648196 -1.83063 0
M  V30 8094 C 764.404 -1.54279 -3.11152 0
M  V30 8095 C 763.358 -2.67893 -3.33792 0
M  V30 8096 C 762.684 -2.499 -4.72709 0
M  V30 8097 C 763.984 -4.0988 -3.23722 0
M  V30 8098 H 765.678 -2.51175 -1.62947 0
M  V30 8099 H 763.224 -1.20884 -0.782504 0
M  V30 8100 H 765.177 -1.6111 -3.89386 0
M  V30 8101 H 763.901 -0.569627 -3.21594 0
M  V30 8102 H 762.56 -2.60495 -2.57949 0
M  V30 8103 H 762.208 -1.50715 -4.79889 0
M  V30 8104 H 761.908 -3.26091 -4.88813 0
M  V30 8105 H 763.432 -2.5859 -5.5314 0
M  V30 8106 H 764.846 -4.18503 -3.91826 0
M  V30 8107 H 763.243 -4.86487 -3.51355 0
M  V30 8108 H 764.313 -4.31553 -2.21111 0
M  V30 8109 N 765.656 0.84705 -1.32902 0
M  V30 8110 C 767.067 1.41785 -1.21466 0
M  V30 8111 C 767.418 1.95464 0.169767 0
M  V30 8112 O 766.543 1.88157 1.06892 0
M  V30 8113 C 767.138 2.57734 -2.19906 0
M  V30 8114 C 765.697 3.10791 -2.12334 0
M  V30 8115 C 764.844 1.83562 -2.07847 0
M  V30 8116 H 767.795 0.653532 -1.44619 0
M  V30 8117 H 767.816 3.35123 -1.80202 0
M  V30 8118 H 767.328 2.18635 -3.20656 0
M  V30 8119 H 765.429 3.54455 -1.14858 0
M  V30 8120 H 765.542 3.71519 -3.02506 0
M  V30 8121 H 763.906 2.03475 -1.53199 0
M  V30 8122 H 764.689 1.4667 -3.10392 0
M  V30 8123 N 767.134 1.16236 1.06428 0
M  V30 8124 C 768.374 0.95369 1.80787 0
M  V30 8125 C 768.738 -0.509495 1.85117 0
M  V30 8126 O 769.939 -0.836822 2.55442 0
M  V30 8127 C 768.21 1.56235 3.21443 0
M  V30 8128 S 769.769 1.49812 4.12434 0
M  V30 8129 H 766.587 0.343004 0.622792 0
M  V30 8130 H 769.189 1.47957 1.27785 0
M  V30 8131 H 767.893 2.62 3.15886 0
M  V30 8132 H 767.424 1.03574 3.79521 0
M  V30 8133 H 769.439 0.49745 4.937 0
M  V30 8134 N 768.612 -1.24939 0.960631 0
M  V30 8135 C 769.559 -2.25658 0.484459 0
M  V30 8136 C 770.529 -1.59422 -0.466242 0
M  V30 8137 O 771.714 -1.87015 -0.378169 0
M  V30 8138 C 768.854 -3.44359 -0.225958 0
M  V30 8139 C 767.967 -4.25214 0.762682 0
M  V30 8140 C 767.102 -5.31192 0.0290931 0
M  V30 8141 C 766.141 -6.03739 1.00827 0
M  V30 8142 N 765.278 -7.01437 0.305155 0
M  V30 8143 H 770.118 -2.65758 1.34821 0
M  V30 8144 H 767.655 -1.30648 0.675983 0
M  V30 8145 H 769.613 -4.12035 -0.654472 0
M  V30 8146 H 768.243 -3.05118 -1.05371 0
M  V30 8147 H 767.295 -3.57144 1.30966 0
M  V30 8148 H 768.607 -4.75406 1.50964 0
M  V30 8149 H 767.761 -6.04971 -0.457763 0
M  V30 8150 H 766.5 -4.81889 -0.750614 0
M  V30 8151 H 765.505 -5.2877 1.50607 0
M  V30 8152 H 766.73 -6.55131 1.7883 0
M  V30 8153 H 764.676 -6.54415 -0.455704 0
M  V30 8154 H 764.593 -7.49475 0.991104 0
M  V30 8155 H 765.861 -7.79336 -0.159966 0
M  V30 8156 N 770.09 -0.729906 -1.39679 0
M  V30 8157 C 771.501 -0.346241 -1.83461 0
M  V30 8158 C 771.852 1.1215 -1.60987 0
M  V30 8159 O 770.977 1.86456 -1.09832 0
M  V30 8160 C 771.572 -0.621656 -3.33048 0
M  V30 8161 C 770.131 -0.291543 -3.75269 0
M  V30 8162 C 769.278 -0.886844 -2.62736 0
M  V30 8163 H 772.229 -0.927949 -1.28743 0
M  V30 8164 H 772.25 0.108301 -3.80346 0
M  V30 8165 H 771.762 -1.68996 -3.49373 0
M  V30 8166 H 769.863 0.771133 -3.64533 0
M  V30 8167 H 769.976 -0.770544 -4.72863 0
M  V30 8168 H 768.34 -0.313839 -2.52759 0
M  V30 8169 H 769.123 -1.95971 -2.81869 0
M  V30 8170 N 771.568 1.50203 -0.477153 0
M  V30 8171 C 772.816 2.01959 0.0755889 0
M  V30 8172 C 773.137 1.3608 1.39668 0
M  V30 8173 O 772.407 0.508136 1.89195 0
M  V30 8174 H 770.987 0.74636 0.0309248 0
M  V30 8175 H 773.649 1.84473 -0.628959 0
M  V30 8176 H 772.745 3.11305 0.222683 0
M  V30 8177 N 773.046 0.209999 1.56195 0
M  V30 8178 C 773.956 -0.716459 2.23392 0
M  V30 8179 C 774.972 -1.22291 1.23778 0
M  V30 8180 O 776.148 -1.26694 1.56558 0
M  V30 8181 C 773.213 -1.91261 2.89172 0
M  V30 8182 C 772.274 -1.44927 4.04097 0
M  V30 8183 C 771.507 -2.5884 4.66731 0
M  V30 8184 O 771.73 -3.76693 4.2832 0
M  V30 8185 O 770.664 -2.30701 5.55932 0
M  V30 8186 H 774.49 -0.174089 3.03201 0
M  V30 8187 H 772.075 -0.0199505 1.49387 0
M  V30 8188 H 773.957 -2.6114 3.30733 0
M  V30 8189 H 772.632 -2.4433 2.12331 0
M  V30 8190 H 771.539 -0.718839 3.67129 0
M  V30 8191 H 772.872 -0.965084 4.82646 0
M  V30 8192 N 774.524 -1.57472 -0.0634922 0
M  V30 8193 C 775.94 -1.54016 -0.418466 0
M  V30 8194 C 776.14 -0.931376 -1.78683 0
M  V30 8195 O 775.196 -0.537465 -2.46714 0
M  V30 8196 C 776.509 -2.98634 -0.351906 0
M  V30 8197 C 778.057 -3.10012 -0.431494 0
M  V30 8198 C 778.532 -4.56296 -0.394754 0
M  V30 8199 N 780.023 -4.60964 -0.454583 0
M  V30 8200 C 780.758 -5.71643 -0.448501 0
M  V30 8201 N 780.254 -6.91663 -0.396742 0
M  V30 8202 N 782.047 -5.5991 -0.495677 0
M  V30 8203 H 774.198 -1.95409 0.832408 0
M  V30 8204 H 776.461 -0.894769 0.313197 0
M  V30 8205 H 776.167 -3.46766 0.587048 0
M  V30 8206 H 776.041 -3.58955 -1.15893 0
M  V30 8207 H 778.428 -2.61848 -1.36087 0
M  V30 8208 H 778.509 -2.52585 0.404258 0
M  V30 8209 H 778.153 -5.05119 0.530811 0
M  V30 8210 H 778.083 -5.11594 -1.24815 0
M  V30 8211 H 780.574 -3.74598 -0.498496 0
M  V30 8212 H 780.887 -7.71783 -0.396256 0
M  V30 8213 H 779.232 -6.9405 -0.363304 0
M  V30 8214 H 782.423 -4.65046 -0.533864 0
M  V30 8215 H 782.596 -6.46164 -0.487469 0
M  V30 8216 N 776.003 0.335068 -1.53997 0
M  V30 8217 C 776.95 1.41187 -1.82579 0
M  V30 8218 C 777.92 1.51897 -0.672061 0
M  V30 8219 O 779.105 1.673 -0.917346 0
M  V30 8220 C 776.245 2.77717 -2.0486 0
M  V30 8221 C 775.358 2.7573 -3.32561 0
M  V30 8222 C 774.493 4.04032 -3.44864 0
M  V30 8223 C 773.532 3.96308 -4.66483 0
M  V30 8224 N 772.669 5.16317 -4.75774 0
M  V30 8225 H 777.509 1.16113 -2.74448 0
M  V30 8226 H 775.046 0.562305 -1.35928 0
M  V30 8227 H 777.004 3.57071 -2.15768 0
M  V30 8228 H 775.634 3.01124 -1.16294 0
M  V30 8229 H 774.686 1.88432 -3.3045 0
M  V30 8230 H 775.998 2.65902 -4.22016 0
M  V30 8231 H 775.152 4.91814 -3.55251 0
M  V30 8232 H 773.891 4.16652 -2.53481 0
M  V30 8233 H 772.896 3.06911 -4.56164 0
M  V30 8234 H 774.121 3.85263 -5.5924 0
M  V30 8235 H 772.067 5.29464 -3.87303 0
M  V30 8236 H 771.984 5.08779 -5.59178 0
M  V30 8237 H 773.252 6.05846 -4.9048 0
M  V30 8238 N 777.481 1.45874 0.596531 0
M  V30 8239 C 778.428 1.55389 1.70655 0
M  V30 8240 C 779.398 0.399036 1.61236 0
M  V30 8241 O 780.583 0.61396 1.80652 0
M  V30 8242 C 777.723 1.53705 3.0898 0
M  V30 8243 C 776.836 2.79823 3.29125 0
M  V30 8244 C 775.971 2.69735 4.5762 0
M  V30 8245 C 775.01 3.90856 4.71061 0
M  V30 8246 N 774.147 3.79237 5.90867 0
M  V30 8247 H 778.987 2.50211 1.61859 0
M  V30 8248 H 776.524 1.24146 0.789069 0
M  V30 8249 H 778.482 1.50715 3.89026 0
M  V30 8250 H 777.112 0.624247 3.16706 0
M  V30 8251 H 776.164 2.92852 2.42779 0
M  V30 8252 H 777.476 3.69628 3.34927 0
M  V30 8253 H 776.63 2.64773 5.45875 0
M  V30 8254 H 775.369 1.77547 4.54234 0
M  V30 8255 H 774.374 3.96164 3.81227 0
M  V30 8256 H 775.599 4.84124 4.76236 0
M  V30 8257 H 773.545 2.89825 5.88504 0
M  V30 8258 H 773.462 4.62686 5.97877 0
M  V30 8259 H 774.73 3.78227 6.8159 0
M  V30 8260 N 778.959 -0.83999 1.33349 0
M  V30 8261 C 780.187 -1.62728 1.27778 0
M  V30 8262 C 780.602 -1.88191 -0.151505 0
M  V30 8263 O 779.959 -1.46128 -1.09329 0
M  V30 8264 C 780.01 -2.97813 2.04913 0
M  V30 8265 O 779.731 -2.73469 3.42266 0
M  V30 8266 C 781.232 -3.92245 2.0654 0
M  V30 8267 H 778.452 -0.506374 0.440257 0
M  V30 8268 H 780.996 -1.04637 1.75703 0
M  V30 8269 H 779.151 -3.52509 1.60674 0
M  V30 8270 H 779.565 -3.59483 3.81932 0
M  V30 8271 H 781.039 -4.84249 2.64966 0
M  V30 8272 H 781.516 -4.26332 1.05537 0
M  V30 8273 H 782.122 -3.43487 2.50793 0
M  V30 8274 N 780.437 -1.16799 -1.0581 0
M  V30 8275 C 781.683 -0.953935 -1.78963 0
M  V30 8276 C 782.016 0.516638 -1.87202 0
M  V30 8277 O 781.291 1.38338 -1.36721 0
M  V30 8278 C 781.574 -1.58808 -3.23191 0
M  V30 8279 C 781.427 -3.13032 -3.23003 0
M  V30 8280 C 782.746 -1.2868 -4.20867 0
M  V30 8281 H 779.865 -0.347972 -0.64968 0
M  V30 8282 H 782.507 -1.44204 -1.23715 0
M  V30 8283 H 780.657 -1.17303 -3.70368 0
M  V30 8284 H 782.329 -3.63553 -2.83949 0
M  V30 8285 H 780.572 -3.46108 -2.61518 0
M  V30 8286 H 781.243 -3.52527 -4.24769 0
M  V30 8287 H 783.719 -1.6461 -3.82155 0
M  V30 8288 H 782.595 -1.75645 -5.20038 0
M  V30 8289 H 782.856 -0.206491 -4.41618 0
M  V30 8290 N 781.915 1.24427 -0.967243 0
M  V30 8291 C 782.862 2.25398 -0.496419 0
M  V30 8292 C 783.832 1.59667 0.457781 0
M  V30 8293 O 785.017 1.87213 0.368246 0
M  V30 8294 C 782.157 3.44474 0.207693 0
M  V30 8295 C 781.27 4.24804 -0.785221 0
M  V30 8296 C 780.405 5.31169 -0.0572631 0
M  V30 8297 C 779.444 6.03195 -1.04027 0
M  V30 8298 N 778.581 7.01265 -0.34235 0
M  V30 8299 H 783.421 2.65039 -1.36229 0
M  V30 8300 H 780.958 1.30288 -0.682902 0
M  V30 8301 H 782.916 4.12376 0.632612 0
M  V30 8302 H 781.546 3.05672 1.03752 0
M  V30 8303 H 780.598 3.56445 -1.32858 0
M  V30 8304 H 781.91 4.74599 -1.53483 0
M  V30 8305 H 781.064 6.05205 0.425674 0
M  V30 8306 H 779.803 4.8228 0.725047 0
M  V30 8307 H 778.808 5.27964 -1.53409 0
M  V30 8308 H 780.033 6.54173 -1.82302 0
M  V30 8309 H 777.979 6.54648 0.420993 0
M  V30 8310 H 777.896 7.48939 -1.03084 0
M  V30 8311 H 779.164 7.7941 0.118634 0
M  V30 8312 N 783.393 0.737304 1.3929 0
M  V30 8313 C 784.641 0.285691 2.00071 0
M  V30 8314 C 784.962 -1.13169 1.58801 0
M  V30 8315 O 784.232 -1.77104 0.837308 0
M  V30 8316 H 782.812 0.102638 0.739915 0
M  V30 8317 H 785.474 0.947775 1.70303 0
M  V30 8318 H 784.57 0.335906 3.10287 0
M  V30 8319 N 784.871 -1.49948 0.485112 0
M  V30 8320 C 786.117 -2.02695 -0.0651022 0
M  V30 8321 C 786.45 -1.36534 -1.38102 0
M  V30 8322 O 785.725 -0.495677 -1.88078 0
M  V30 8323 C 786.008 -3.59337 -0.234285 0
M  V30 8324 C 785.861 -4.3605 1.10364 0
M  V30 8325 C 787.18 -4.28996 -0.982351 0
M  V30 8326 H 784.299 -0.736666 -0.0221856 0
M  V30 8327 H 786.941 -1.7913 0.633433 0
M  V30 8328 H 785.091 -3.79546 -0.829262 0
M  V30 8329 H 786.763 -4.27377 1.73627 0
M  V30 8330 H 785.006 -3.99236 1.69686 0
M  V30 8331 H 785.677 -5.43959 0.938743 0
M  V30 8332 H 788.153 -4.13346 -0.477904 0
M  V30 8333 H 787.029 -5.38379 -1.06955 0
M  V30 8334 H 787.29 -3.93135 -2.02231 0
M  V30 8335 N 786.349 -0.21828 -1.56081 0
M  V30 8336 C 787.76 0.290166 -1.84431 0
M  V30 8337 C 788.111 1.59712 -1.13958 0
M  V30 8338 O 787.236 2.12516 -0.40815 0
M  V30 8339 C 787.831 0.53325 -3.34577 0
M  V30 8340 C 786.39 0.986011 -3.63256 0
M  V30 8341 C 785.537 0.0472798 -2.7726 0
M  V30 8342 H 788.488 -0.441548 -1.52434 0
M  V30 8343 H 788.509 1.37967 -3.54606 0
M  V30 8344 H 788.021 -0.418137 -3.85841 0
M  V30 8345 H 786.122 1.95087 -3.17446 0
M  V30 8346 H 786.235 0.862684 -4.71269 0
M  V30 8347 H 784.599 0.553471 -2.48614 0
M  V30 8348 H 785.382 -0.898966 -3.31321 0
M  V30 8349 N 787.827 1.57504 0.0551401 0
M  V30 8350 C 789.067 1.89895 0.756252 0
M  V30 8351 C 789.431 0.813983 1.73892 0
M  V30 8352 O 790.632 1.02145 2.48636 0
M  V30 8353 C 788.903 3.27494 1.43116 0
M  V30 8354 S 790.462 3.81669 2.16504 0
M  V30 8355 H 787.28 0.665173 0.251129 0
M  V30 8356 H 789.882 1.95496 0.0117193 0
M  V30 8357 H 788.586 4.04345 0.702391 0
M  V30 8358 H 788.117 3.25132 2.21479 0
M  V30 8359 H 790.132 3.58295 3.43277 0
M  V30 8360 N 789.305 -0.326896 1.54172 0
M  V30 8361 C 790.545 -1.07349 1.73941 0
M  V30 8362 C 790.909 -1.85355 0.50075 0
M  V30 8363 O 792.11 -2.62562 0.575731 0
M  V30 8364 C 790.381 -1.97636 2.97783 0
M  V30 8365 S 791.94 -2.79292 3.3844 0
M  V30 8366 H 788.758 -0.362459 0.611673 0
M  V30 8367 H 791.36 -0.349884 1.92344 0
M  V30 8368 H 790.064 -1.39158 3.86087 0
M  V30 8369 H 789.595 -2.74406 2.81895 0
M  V30 8370 H 791.61 -4.00106 2.93478 0
M  V30 8371 N 790.784 -1.46188 -0.588786 0
M  V30 8372 C 792.03 -1.52396 -1.34711 0
M  V30 8373 C 792.385 -0.170846 -1.9164 0
M  V30 8374 O 791.678 0.819714 -1.7318 0
M  V30 8375 C 791.872 -2.55364 -2.50048 0
M  V30 8376 C 791.701 -4.00554 -2.04417 0
M  V30 8377 C 790.471 -4.68334 -1.89715 0
M  V30 8378 C 792.669 -4.88533 -1.60747 0
M  V30 8379 N 790.651 -5.98167 -1.38091 0
M  V30 8380 C 792.022 -6.08143 -1.20672 0
M  V30 8381 C 794.077 -4.75236 -1.4851 0
M  V30 8382 C 792.78 -7.15927 -0.695782 0
M  V30 8383 C 794.806 -5.83085 -0.988196 0
M  V30 8384 C 794.168 -7.01864 -0.59719 0
M  V30 8385 H 790.267 -0.61252 -0.486151 0
M  V30 8386 H 792.851 -1.8277 -0.671063 0
M  V30 8387 H 791.022 -2.2691 -3.15225 0
M  V30 8388 H 792.754 -2.51603 -3.16983 0
M  V30 8389 H 789.509 -4.23763 -2.11476 0
M  V30 8390 H 789.933 -6.67254 -1.14458 0
M  V30 8391 H 794.575 -3.83801 -1.7736 0
M  V30 8392 H 792.293 -8.07135 -0.394857 0
M  V30 8393 H 795.879 -5.74836 -0.897504 0
M  V30 8394 H 794.759 -7.83895 -0.218621 0
M  V30 8395 N 792.262 0.832906 -1.33792 0
M  V30 8396 C 793.212 1.93178 -1.21105 0
M  V30 8397 C 794.196 1.60506 -0.112491 0
M  V30 8398 O 795.388 1.73681 -0.341179 0
M  V30 8399 C 792.517 3.29647 -0.958526 0
M  V30 8400 C 791.603 3.68469 -2.0998 0
M  V30 8401 N 791.994 3.78936 -3.35024 0
M  V30 8402 C 790.292 3.98249 -2.00782 0
M  V30 8403 C 790.993 4.12731 -4.09912 0
M  V30 8404 N 789.969 4.25419 -3.38407 0
M  V30 8405 H 793.771 1.99434 -2.15878 0
M  V30 8406 H 791.285 1.02598 -1.25886 0
M  V30 8407 H 793.282 4.08173 -0.848552 0
M  V30 8408 H 791.942 3.24694 -0.019387 0
M  V30 8409 H 792.953 3.62688 -3.69699 0
M  V30 8410 H 789.63 4.01474 -1.14564 0
M  V30 8411 H 791.02 4.28117 -5.17847 0
M  V30 8412 N 793.74 1.17359 1.05189 0
M  V30 8413 C 794.98 0.972812 1.79766 0
M  V30 8414 C 795.344 -0.489832 1.85647 0
M  V30 8415 O 796.545 -0.809682 2.56315 0
M  V30 8416 C 794.816 1.59636 3.19767 0
M  V30 8417 S 796.375 1.54178 4.10822 0
M  V30 8418 H 793.193 0.34959 0.619119 0
M  V30 8419 H 795.795 1.49304 1.26209 0
M  V30 8420 H 794.499 2.65336 3.13089 0
M  V30 8421 H 794.03 1.07594 3.78401 0
M  V30 8422 H 796.045 0.549785 4.93145 0
M  V30 8423 N 795.218 -1.23913 0.973828 0
M  V30 8424 C 796.128 -2.28838 0.516735 0
M  V30 8425 C 797.144 -1.68723 -0.425282 0
M  V30 8426 O 798.32 -1.99201 -0.296819 0
M  V30 8427 C 795.385 -3.46233 -0.179914 0
M  V30 8428 C 794.446 -4.21729 0.80269 0
M  V30 8429 C 793.679 -5.33518 0.139191 0
M  V30 8430 O 793.902 -5.60252 -1.07118 0
M  V30 8431 O 792.836 -5.96088 0.834447 0
M  V30 8432 H 796.662 -2.70067 1.38916 0
M  V30 8433 H 794.247 -1.2972 0.74115 0
M  V30 8434 H 796.129 -4.17514 -0.570991 0
M  V30 8435 H 794.804 -3.06969 -1.02721 0
M  V30 8436 H 793.711 -3.52799 1.24434 0
M  V30 8437 H 795.044 -4.64825 1.61859 0
M  V30 8438 N 796.696 -0.74468 -1.38897 0
M  V30 8439 C 798.112 -0.421302 -1.53939 0
M  V30 8440 C 798.312 1.06668 -1.70951 0
M  V30 8441 O 797.368 1.85278 -1.71547 0
M  V30 8442 C 798.681 -1.21278 -2.75159 0
M  V30 8443 C 800.229 -1.20196 -2.89001 0
M  V30 8444 C 800.704 -1.97621 -4.13171 0
M  V30 8445 N 802.195 -1.94836 -4.2023 0
M  V30 8446 C 802.93 -2.51545 -5.15279 0
M  V30 8447 N 802.426 -3.1693 -6.16058 0
M  V30 8448 N 804.219 -2.41524 -5.07565 0
M  V30 8449 H 796.37 -1.70914 -1.26103 0
M  V30 8450 H 798.633 -0.724058 -0.611919 0
M  V30 8451 H 798.339 -2.26609 -2.68963 0
M  V30 8452 H 798.213 -0.823677 -3.68097 0
M  V30 8453 H 800.6 -0.156742 -2.94683 0
M  V30 8454 H 800.681 -1.63051 -1.97099 0
M  V30 8455 H 800.325 -3.02149 -4.0825 0
M  V30 8456 H 800.255 -1.52166 -5.04136 0
M  V30 8457 H 802.746 -1.4721 -3.48048 0
M  V30 8458 H 803.059 -3.57644 -6.85062 0
M  V30 8459 H 801.404 -3.21023 -6.16417 0
M  V30 8460 H 804.595 -1.90077 -4.27771 0
M  V30 8461 H 804.768 -2.86016 -5.81462 0
M  V30 8462 N 798.174 1.49689 -0.493057 0
M  V30 8463 C 799.414 2.04332 0.0527374 0
M  V30 8464 C 799.778 1.36522 1.35003 0
M  V30 8465 O 800.979 1.81842 1.97957 0
M  V30 8466 C 799.25 3.56782 0.210044 0
M  V30 8467 S 800.809 4.32998 0.711232 0
M  V30 8468 H 797.627 0.710978 0.00554853 0
M  V30 8469 H 800.229 1.83835 -0.665213 0
M  V30 8470 H 798.933 4.03681 -0.739566 0
M  V30 8471 H 798.464 3.81671 0.953468 0
M  V30 8472 H 800.479 4.54916 1.98156 0
M  V30 8473 N 799.652 0.226554 1.55963 0
M  V30 8474 C 800.562 -0.692725 2.24139 0
M  V30 8475 C 801.578 -1.20971 1.25068 0
M  V30 8476 O 802.754 -1.25027 1.57893 0
M  V30 8477 C 799.819 -1.88183 2.91184 0
M  V30 8478 C 798.88 -1.40633 4.05612 0
M  V30 8479 C 798.113 -2.53875 4.6945 0
M  V30 8480 O 798.336 -3.72129 4.32292 0
M  V30 8481 O 797.27 -2.24792 5.58348 0
M  V30 8482 H 801.096 -0.141921 3.03368 0
M  V30 8483 H 798.681 -0.0041049 1.49399 0
M  V30 8484 H 800.563 -2.57617 3.33484 0
M  V30 8485 H 799.238 -2.42064 2.14911 0
M  V30 8486 H 798.145 -0.67986 3.67871 0
M  V30 8487 H 799.478 -0.913838 4.83642 0
M  V30 8488 N 801.13 -1.57531 -0.0467866 0
M  V30 8489 C 802.378 -1.88078 -0.739656 0
M  V30 8490 C 802.699 -0.821936 -1.76831 0
M  V30 8491 O 801.969 0.146582 -1.95351 0
M  V30 8492 H 800.549 -0.694075 -0.276169 0
M  V30 8493 H 803.211 -1.94893 -0.0169391 0
M  V30 8494 H 802.307 -2.86396 -1.24031 0
M  V30 8495 N 802.608 0.318715 -1.54344 0
M  V30 8496 C 803.838 1.07394 -1.76494 0
M  V30 8497 C 804.246 1.82031 -0.515881 0
M  V30 8498 O 803.589 1.7609 0.52325 0
M  V30 8499 C 803.651 2.11401 -2.90775 0
M  V30 8500 C 803.315 1.56118 -4.29507 0
M  V30 8501 C 804.312 1.00043 -5.10184 0
M  V30 8502 C 801.997 1.60215 -4.76063 0
M  V30 8503 C 803.991 0.487993 -6.35529 0
M  V30 8504 C 801.678 1.08584 -6.01376 0
M  V30 8505 C 802.676 0.529714 -6.80943 0
M  V30 8506 O 802.364 0.0211823 -8.03897 0
M  V30 8507 H 802.096 0.325061 -0.592715 0
M  V30 8508 H 804.65 0.36901 -2.02058 0
M  V30 8509 H 802.88 2.85524 -2.60793 0
M  V30 8510 H 804.569 2.72683 -3.00664 0
M  V30 8511 H 805.335 0.961811 -4.75367 0
M  V30 8512 H 801.214 2.02441 -4.14172 0
M  V30 8513 H 804.758 0.0532608 -6.9758 0
M  V30 8514 H 800.655 1.12155 -6.35682 0
M  V30 8515 H 801.423 0.136151 -8.18387 0
M  V30 8516 N 804.086 1.46499 0.581025 0
M  V30 8517 C 805.034 1.57562 1.71105 0
M  V30 8518 C 806.028 0.44403 1.63477 0
M  V30 8519 O 807.234 0.620964 1.6895 0
M  V30 8520 H 803.609 0.495415 0.565746 0
M  V30 8521 H 805.58 2.5257 1.58905 0
M  V30 8522 C 804.329 1.58465 3.0949 0
M  V30 8523 H 803.652 2.44877 3.16031 0
M  V30 8524 H 805.092 1.70261 3.88313 0
M  V30 8525 C 803.551 0.313596 3.35437 0
M  V30 8526 O 804.081 -0.595456 3.97262 0
M  V30 8527 N 802.287 0.200986 2.89904 0
M  V30 8528 H 801.834 0.941643 2.39773 0
M  V30 8529 H 801.792 -0.648577 3.07638 0
M  V30 8530 N 805.565 -0.825799 1.34232 0
M  V30 8531 C 806.795 -1.61129 1.29309 0
M  V30 8532 C 807.203 -1.88714 -0.135589 0
M  V30 8533 O 806.546 -1.47703 -1.09222 0
M  V30 8534 C 806.608 -2.97866 2.01287 0
M  V30 8535 C 806.272 -2.9319 3.50555 0
M  V30 8536 C 807.269 -2.67978 4.45515 0
M  V30 8537 C 804.954 -3.12913 3.92926 0
M  V30 8538 C 806.948 -2.62536 5.80822 0
M  V30 8539 C 804.635 -3.07096 5.28333 0
M  V30 8540 C 805.633 -2.8194 6.22092 0
M  V30 8541 O 805.321 -2.7605 7.55018 0
M  V30 8542 H 805.053 -0.507652 0.446391 0
M  V30 8543 H 807.607 -1.03575 1.77374 0
M  V30 8544 H 805.837 -3.57327 1.47832 0
M  V30 8545 H 807.526 -3.58848 1.89691 0
M  V30 8546 H 808.292 -2.52478 4.14101 0
M  V30 8547 H 804.171 -3.3151 3.20347 0
M  V30 8548 H 807.715 -2.42821 6.53975 0
M  V30 8549 H 803.612 -3.22148 5.59367 0
M  V30 8550 H 804.38 -2.91798 7.6472 0
M  V30 8551 N 807.043 -1.17915 -1.04565 0
M  V30 8552 C 807.975 -0.859359 -2.1248 0
M  V30 8553 C 808.988 0.140922 -1.62189 0
M  V30 8554 O 810.177 -0.0862361 -1.78292 0
M  V30 8555 C 807.277 -0.261811 -3.37887 0
M  V30 8556 C 806.45 -1.30651 -4.17431 0
M  V30 8557 C 805.509 -0.725575 -5.21174 0
M  V30 8558 O 804.535 -1.39901 -5.51739 0
M  V30 8559 N 805.737 0.479351 -5.78517 0
M  V30 8560 H 808.502 -1.78818 -2.40508 0
M  V30 8561 H 806.063 -1.07885 -1.20716 0
M  V30 8562 H 808.055 0.14028 -4.04457 0
M  V30 8563 H 806.625 0.570929 -3.07342 0
M  V30 8564 H 805.845 -1.88412 -3.46258 0
M  V30 8565 H 807.133 -2.01099 -4.67372 0
M  V30 8566 H 806.531 1.04431 -5.55977 0
M  V30 8567 H 805.088 0.823427 -6.46578 0
M  V30 8568 N 808.521 1.23394 -0.980386 0
M  V30 8569 C 809.767 1.92094 -0.650223 0
M  V30 8570 C 810.1 1.76309 0.814173 0
M  V30 8571 O 809.375 1.12406 1.5873 0
M  V30 8572 C 809.658 3.44713 -1.04139 0
M  V30 8573 C 809.511 3.69606 -2.56342 0
M  V30 8574 C 810.83 4.36191 -0.585296 0
M  V30 8575 H 807.949 0.697618 -0.237695 0
M  V30 8576 H 810.591 1.45517 -1.22167 0
M  V30 8577 H 808.741 3.84513 -0.55515 0
M  V30 8578 H 810.413 3.39288 -3.1254 0
M  V30 8579 H 808.656 3.14318 -2.98976 0
M  V30 8580 H 809.327 4.76441 -2.78762 0
M  V30 8581 H 811.803 4.03836 -1.00276 0
M  V30 8582 H 810.679 5.41679 -0.887428 0
M  V30 8583 H 810.94 4.39097 0.51438 0
M  V30 8584 N 809.999 0.752036 1.385 0
M  V30 8585 C 811.276 0.233075 1.94206 0
M  V30 8586 C 811.656 -1.26838 1.68746 0
M  V30 8587 O 811.004 -2.04214 1.02513 0
M  V30 8588 C 811.214 0.58509 3.44061 0
M  V30 8589 C 812.562 0.543871 4.21102 0
M  V30 8590 O 813.586 0.523291 3.52335 0
M  V30 8591 O 812.445 0.553436 5.4369 0
M  V30 8592 H 809.539 0.0483049 0.825588 0
M  V30 8593 H 812.085 0.832053 1.47902 0
M  V30 8594 H 810.857 1.62212 3.56094 0
M  V30 8595 H 810.48 -0.0419738 3.97578 0
M  V30 8596 N 811.477 -1.49425 0.500989 0
M  V30 8597 C 812.387 -2.32899 -0.282011 0
M  V30 8598 C 813.403 -1.44632 -0.967346 0
M  V30 8599 O 814.579 -1.77654 -0.94873 0
M  V30 8600 C 811.644 -3.20069 -1.33253 0
M  V30 8601 C 810.705 -4.24186 -0.660636 0
M  V30 8602 C 809.938 -5.07191 -1.6611 0
M  V30 8603 O 810.161 -4.91712 -2.89094 0
M  V30 8604 O 809.095 -5.8948 -1.21643 0
M  V30 8605 H 812.921 -3.01038 0.401224 0
M  V30 8606 H 810.506 -1.47079 0.262323 0
M  V30 8607 H 812.388 -3.74071 -1.94033 0
M  V30 8608 H 811.063 -2.54625 -1.9987 0
M  V30 8609 H 809.97 -3.74098 -0.0130959 0
M  V30 8610 H 811.303 -4.92186 -0.0369179 0
M  V30 8611 N 812.955 -0.234822 -1.55841 0
M  V30 8612 C 813.885 0.664217 -2.23854 0
M  V30 8613 C 814.866 1.19076 -1.2147 0
M  V30 8614 O 816.051 1.23232 -1.50091 0
M  V30 8615 C 813.181 1.86666 -2.9287 0
M  V30 8616 C 812.135 1.47341 -4.01839 0
M  V30 8617 C 811.461 2.75571 -4.58219 0
M  V30 8618 C 812.761 0.653479 -5.18196 0
M  V30 8619 H 814.455 0.0971213 -2.99242 0
M  V30 8620 H 812.001 0.0452724 -1.43929 0
M  V30 8621 H 813.954 2.50116 -3.39146 0
M  V30 8622 H 812.678 2.45894 -2.1495 0
M  V30 8623 H 811.337 0.862314 -3.56314 0
M  V30 8624 H 810.985 3.32971 -3.77014 0
M  V30 8625 H 810.685 2.49987 -5.31771 0
M  V30 8626 H 812.209 3.39939 -5.07221 0
M  V30 8627 H 813.623 1.19198 -5.60771 0
M  V30 8628 H 812.02 0.494188 -5.98062 0
M  V30 8629 H 813.09 -0.337004 -4.83728 0
M  V30 8630 N 814.433 1.57553 0.0384317 0
M  V30 8631 C 815.658 1.93485 0.746872 0
M  V30 8632 C 816.083 0.834069 1.68597 0
M  V30 8633 O 815.441 -0.210902 1.80069 0
M  V30 8634 C 815.489 3.28463 1.4881 0
M  V30 8635 O 814.593 3.20051 2.60079 0
M  V30 8636 H 813.934 0.632675 0.201539 0
M  V30 8637 H 816.464 2.046 -0.00329815 0
M  V30 8638 H 816.474 3.63132 1.86009 0
M  V30 8639 H 815.149 4.08147 0.799297 0
M  V30 8640 H 813.726 2.96998 2.25492 0
M  V30 8641 N 815.911 -0.310526 1.54511 0
M  V30 8642 C 817.151 -1.05498 1.7507 0
M  V30 8643 C 817.515 -1.84814 0.520381 0
M  V30 8644 O 818.716 -2.61937 0.603547 0
M  V30 8645 C 816.987 -1.94466 2.99863 0
M  V30 8646 S 818.546 -2.75686 3.41383 0
M  V30 8647 H 815.364 -0.355951 0.615483 0
M  V30 8648 H 817.966 -0.329464 1.92704 0
M  V30 8649 H 816.67 -1.35055 3.87541 0
M  V30 8650 H 816.201 -2.71401 2.84789 0
M  V30 8651 H 818.216 -3.96971 2.97706 0
M  V30 8652 N 817.389 -1.46805 -0.573248 0
M  V30 8653 C 818.299 -1.60687 -1.70929 0
M  V30 8654 C 819.315 -0.490084 -1.66956 0
M  V30 8655 O 820.491 -0.755482 -1.86693 0
M  V30 8656 C 817.556 -1.60259 -3.07438 0
M  V30 8657 C 816.617 -2.83242 -3.22603 0
M  V30 8658 C 815.85 -2.82825 -4.52599 0
M  V30 8659 O 816.073 -1.92113 -5.37074 0
M  V30 8660 O 815.007 -3.74489 -4.71213 0
M  V30 8661 H 818.833 -2.56782 -1.62163 0
M  V30 8662 H 816.418 -1.29706 -0.741399 0
M  V30 8663 H 818.3 -1.6275 -3.88704 0
M  V30 8664 H 816.975 -0.673268 -3.16621 0
M  V30 8665 H 815.882 -2.86302 -2.40794 0
M  V30 8666 H 817.215 -3.75415 -3.18315 0
M  V30 8667 N 818.867 0.818669 -1.34668 0
M  V30 8668 C 819.797 1.94468 -1.29245 0
M  V30 8669 C 820.778 1.69257 -0.169101 0
M  V30 8670 O 821.963 1.90794 -0.362143 0
M  V30 8671 C 819.093 3.31001 -1.05145 0
M  V30 8672 C 818.047 3.70663 -2.13992 0
M  V30 8673 C 817.373 5.05226 -1.75074 0
M  V30 8674 C 818.673 3.82312 -3.55858 0
M  V30 8675 H 820.367 1.99263 -2.2346 0
M  V30 8676 H 817.913 0.957304 -1.07572 0
M  V30 8677 H 819.866 4.09364 -0.999949 0
M  V30 8678 H 818.59 3.26517 -0.0737312 0
M  V30 8679 H 817.249 2.94578 -2.18219 0
M  V30 8680 H 816.897 4.97233 -0.759518 0
M  V30 8681 H 816.597 5.32734 -2.47928 0
M  V30 8682 H 818.121 5.86042 -1.71427 0
M  V30 8683 H 819.535 4.50935 -3.5402 0
M  V30 8684 H 817.932 4.21278 -4.2737 0
M  V30 8685 H 819.002 2.84193 -3.9289 0
M  V30 8686 N 820.346 1.18468 1.03938 0
M  V30 8687 C 821.586 0.991823 1.78724 0
M  V30 8688 C 821.95 -0.470115 1.86156 0
M  V30 8689 O 823.151 -0.782451 2.5716 0
M  V30 8690 C 821.422 1.63018 3.18056 0
M  V30 8691 S 822.981 1.58527 4.09163 0
M  V30 8692 H 819.799 0.356137 0.615376 0
M  V30 8693 H 822.401 1.50634 1.24618 0
M  V30 8694 H 821.105 2.68642 3.10258 0
M  V30 8695 H 820.636 1.11601 3.77238 0
M  V30 8696 H 822.651 0.602059 4.92534 0
M  V30 8697 N 821.824 -1.22873 0.986916 0
M  V30 8698 C 823.235 -1.73264 0.695438 0
M  V30 8699 C 823.586 -1.79679 -0.788023 0
M  V30 8700 O 822.711 -1.43905 -1.61618 0
M  V30 8701 C 823.306 -3.14671 1.2557 0
M  V30 8702 C 821.865 -3.62492 1.01373 0
M  V30 8703 C 821.012 -2.40551 1.37951 0
M  V30 8704 H 823.963 -1.08304 1.15999 0
M  V30 8705 H 823.984 -3.75226 0.631322 0
M  V30 8706 H 823.496 -3.0997 2.33539 0
M  V30 8707 H 821.597 -3.72567 -0.0495917 0
M  V30 8708 H 821.71 -4.48944 1.67289 0
M  V30 8709 H 820.074 -2.41875 0.798033 0
M  V30 8710 H 820.857 -2.38516 2.46911 0
M  V30 8711 N 823.302 -0.75937 -1.38099 0
M  V30 8712 C 824.232 -0.151077 -2.33011 0
M  V30 8713 C 825.213 0.697099 -1.5516 0
M  V30 8714 O 826.398 0.637101 -1.83452 0
M  V30 8715 C 823.528 0.738423 -3.39359 0
M  V30 8716 C 822.482 -0.0074741 -4.27999 0
M  V30 8717 C 821.808 1.00066 -5.25253 0
M  V30 8718 C 823.108 -1.17926 -5.08813 0
M  V30 8719 H 824.802 -0.943933 -2.84131 0
M  V30 8720 H 822.348 -0.455362 -1.36611 0
M  V30 8721 H 824.301 1.17369 -4.04725 0
M  V30 8722 H 823.025 1.56366 -2.86735 0
M  V30 8723 H 821.684 -0.423379 -3.64147 0
M  V30 8724 H 821.332 1.82012 -4.68914 0
M  V30 8725 H 821.032 0.506199 -5.85416 0
M  V30 8726 H 822.556 1.43512 -5.93495 0
M  V30 8727 H 823.97 -0.821262 -5.67387 0
M  V30 8728 H 822.367 -1.60497 -5.78239 0
M  V30 8729 H 823.437 -1.98938 -4.42212 0
M  V30 8730 N 824.78 1.49157 -0.508906 0
M  V30 8731 C 826.057 1.95363 0.0961913 0
M  V30 8732 C 826.437 1.45064 1.53362 0
M  V30 8733 O 825.785 0.667835 2.18523 0
M  V30 8734 C 825.995 3.49 0.000688881 0
M  V30 8735 C 827.343 4.24257 0.170632 0
M  V30 8736 O 828.367 3.5612 0.0754994 0
M  V30 8737 O 827.226 5.45267 0.366957 0
M  V30 8738 H 824.32 0.821984 0.0909489 0
M  V30 8739 H 826.866 1.59769 -0.572007 0
M  V30 8740 H 825.638 3.78269 -1.00143 0
M  V30 8741 H 825.261 3.91233 0.708682 0
M  V30 8742 N 826.258 0.243083 1.55714 0
M  V30 8743 C 827.19 -0.690766 2.18543 0
M  V30 8744 C 828.203 -1.14163 1.16064 0
M  V30 8745 O 829.392 -1.06906 1.42946 0
M  V30 8746 C 826.492 -1.95016 2.77168 0
M  V30 8747 C 825.665 -1.65137 4.05029 0
M  V30 8748 C 824.724 -2.75998 4.48009 0
M  V30 8749 O 823.75 -2.43547 5.14464 0
M  V30 8750 N 824.952 -4.05414 4.15476 0
M  V30 8751 H 827.717 -0.153203 2.99308 0
M  V30 8752 H 825.278 0.0628968 1.61778 0
M  V30 8753 H 827.27 -2.68414 3.0288 0
M  V30 8754 H 825.84 -2.39762 2.00582 0
M  V30 8755 H 825.06 -0.752768 3.86946 0
M  V30 8756 H 826.348 -1.42633 4.88399 0
M  V30 8757 H 825.746 -4.34613 3.62116 0
M  V30 8758 H 824.303 -4.75288 4.46032 0
M  V30 8759 N 827.736 -1.57571 -0.0300757 0
M  V30 8760 C 829.152 -1.54869 -0.385703 0
M  V30 8761 C 829.352 -0.969068 -1.76667 0
M  V30 8762 O 828.408 -0.589676 -2.45518 0
M  V30 8763 C 829.721 -2.99313 -0.288482 0
M  V30 8764 C 831.269 -3.10857 -0.365638 0
M  V30 8765 C 831.744 -4.5703 -0.297878 0
M  V30 8766 N 833.235 -4.61825 -0.356703 0
M  V30 8767 C 833.97 -5.72466 -0.327146 0
M  V30 8768 N 833.466 -6.92349 -0.249941 0
M  V30 8769 N 835.259 -5.60836 -0.376801 0
M  V30 8770 H 827.41 -1.936 0.87367 0
M  V30 8771 H 829.673 -0.887924 0.332106 0
M  V30 8772 H 829.379 -3.45443 0.66047 0
M  V30 8773 H 829.253 -3.61332 -1.08253 0
M  V30 8774 H 831.64 -2.64676 -1.30502 0
M  V30 8775 H 831.721 -2.51671 0.457744 0
M  V30 8776 H 831.365 -5.03879 0.637835 0
M  V30 8777 H 831.295 -5.14127 -1.13935 0
M  V30 8778 H 833.786 -3.75571 -0.418926 0
M  V30 8779 H 834.099 -7.7245 -0.23246 0
M  V30 8780 H 832.444 -6.94664 -0.216004 0
M  V30 8781 H 835.635 -4.66073 -0.435101 0
M  V30 8782 H 835.808 -6.47052 -0.350298 0
M  V30 8783 N 829.214 0.302327 -1.54673 0
M  V30 8784 C 830.625 0.875409 -1.64904 0
M  V30 8785 C 830.976 1.88132 -0.55684 0
M  V30 8786 O 830.101 2.14215 0.306754 0
M  V30 8787 C 830.696 1.59457 -2.9893 0
M  V30 8788 C 829.255 2.11607 -3.11287 0
M  V30 8789 C 828.402 0.948324 -2.6058 0
M  V30 8790 H 831.353 0.079362 -1.58501 0
M  V30 8791 H 831.374 2.46005 -2.90279 0
M  V30 8792 H 830.886 0.8622 -3.78402 0
M  V30 8793 H 828.987 2.87895 -2.36532 0
M  V30 8794 H 829.1 2.35151 -4.17422 0
M  V30 8795 H 827.464 1.33352 -2.17001 0
M  V30 8796 H 828.247 0.229936 -3.42529 0
M  V30 8797 N 830.692 1.47107 0.565454 0
M  V30 8798 C 831.64 1.59368 1.69424 0
M  V30 8799 C 832.634 0.461344 1.62997 0
M  V30 8800 O 833.84 0.638849 1.68282 0
M  V30 8801 H 830.215 0.501387 0.560459 0
M  V30 8802 H 832.186 2.54242 1.56217 0
M  V30 8803 C 830.935 1.61739 3.07792 0
M  V30 8804 H 830.258 2.48215 3.13416 0
M  V30 8805 H 831.698 1.7437 3.86486 0
M  V30 8806 C 830.157 0.349156 3.35086 0
M  V30 8807 O 830.687 -0.553287 3.97871 0
M  V30 8808 N 828.893 0.231723 2.89675 0
M  V30 8809 H 828.44 0.967021 2.3876 0
M  V30 8810 H 828.398 -0.615911 3.08308 0
M  V30 8811 N 832.17 -0.811516 1.35101 0
M  V30 8812 C 833.103 -1.92872 1.21966 0
M  V30 8813 C 834.081 -1.62236 0.108667 0
M  V30 8814 O 835.265 -1.8647 0.275875 0
M  V30 8815 C 832.392 -3.27152 0.876886 0
M  V30 8816 C 831.438 -3.7674 1.99924 0
M  V30 8817 S 832.271 -3.95132 3.61429 0
M  V30 8818 C 833.427 -5.32322 3.29218 0
M  V30 8819 H 833.66 -2.03718 2.16532 0
M  V30 8820 H 831.193 -0.968352 1.20259 0
M  V30 8821 H 833.151 -4.04729 0.685917 0
M  V30 8822 H 831.812 -3.14059 -0.0506289 0
M  V30 8823 H 831.005 -4.73981 1.71343 0
M  V30 8824 H 830.607 -3.06145 2.14829 0
M  V30 8825 H 832.899 -6.1614 2.8174 0
M  V30 8826 H 833.842 -5.65893 4.25641 0
M  V30 8827 H 834.25 -4.98374 2.65111 0
M  V30 8828 N 833.648 -1.19017 -1.03309 0
M  V30 8829 C 834.596 -0.920627 -2.13605 0
M  V30 8830 C 835.59 0.121969 -1.6896 0
M  V30 8831 O 836.796 -0.0268854 -1.7998 0
M  V30 8832 H 833.171 -0.280284 -0.697814 0
M  V30 8833 H 835.142 -1.85755 -2.33533 0
M  V30 8834 C 833.891 -0.471198 -3.44492 0
M  V30 8835 H 833.214 -1.26499 -3.7926 0
M  V30 8836 H 834.654 -0.321663 -4.22778 0
M  V30 8837 C 833.113 0.81411 -3.26916 0
M  V30 8838 O 833.643 1.87654 -3.55175 0
M  V30 8839 N 831.849 0.769695 -2.80221 0
M  V30 8840 H 831.396 -0.0951278 -2.57424 0
M  V30 8841 H 831.354 1.63008 -2.68842 0
M  V30 8842 N 835.127 1.22348 -0.993418 0
M  V30 8843 C 836.543 1.43222 -0.704238 0
M  V30 8844 C 836.743 1.88009 0.724909 0
M  V30 8845 O 835.799 2.03429 1.49575 0
M  V30 8846 C 837.112 2.47328 -1.71025 0
M  V30 8847 C 838.66 2.61126 -1.72576 0
M  V30 8848 C 839.135 3.68453 -2.72041 0
M  V30 8849 N 840.626 3.75911 -2.70639 0
M  V30 8850 C 841.361 4.58551 -3.44266 0
M  V30 8851 N 840.857 5.45179 -4.27495 0
M  V30 8852 N 842.65 4.52866 -3.32969 0
M  V30 8853 H 834.801 0.915832 -1.91641 0
M  V30 8854 H 837.064 0.464283 -0.826526 0
M  V30 8855 H 836.77 2.21366 -2.73295 0
M  V30 8856 H 836.644 3.45939 -1.50353 0
M  V30 8857 H 839.031 2.86431 -0.710037 0
M  V30 8858 H 839.112 1.62787 -1.97317 0
M  V30 8859 H 838.756 3.43895 -3.73763 0
M  V30 8860 H 838.686 4.66362 -2.4457 0
M  V30 8861 H 841.177 3.14014 -2.10247 0
M  V30 8862 H 841.49 6.0526 -4.80499 0
M  V30 8863 H 839.835 5.44759 -4.31582 0
M  V30 8864 H 843.026 3.84215 -2.67389 0
M  V30 8865 H 843.199 5.17039 -3.90608 0
M  V30 8866 N 836.605 0.766683 1.37694 0
M  V30 8867 C 837.833 0.339939 2.04088 0
M  V30 8868 C 838.248 -1.03617 1.57826 0
M  V30 8869 O 837.605 -1.6605 0.757214 0
M  V30 8870 C 837.656 0.368269 3.59619 0
M  V30 8871 O 837.377 1.69009 4.04188 0
M  V30 8872 C 838.878 -0.0707053 4.43244 0
M  V30 8873 H 836.098 0.143189 0.655544 0
M  V30 8874 H 838.642 1.03919 1.76128 0
M  V30 8875 H 836.797 -0.282359 3.8637 0
M  V30 8876 H 837.211 1.62523 4.98685 0
M  V30 8877 H 838.685 0.000273538 5.52 0
M  V30 8878 H 839.162 -1.1204 4.24669 0
M  V30 8879 H 839.768 0.551543 4.21709 0
M  V30 8880 N 838.083 -1.48885 0.516809 0
M  V30 8881 C 839.331 -2.02088 -0.0220166 0
M  V30 8882 C 839.652 -1.39735 -1.36011 0
M  V30 8883 O 838.922 -0.558119 -1.87781 0
M  V30 8884 H 837.502 -0.746917 -0.0111255 0
M  V30 8885 H 840.164 -1.8274 0.677647 0
M  V30 8886 H 839.26 -3.11786 -0.140067 0
M  V30 8887 N 839.561 -0.251338 -1.55583 0
M  V30 8888 C 840.801 0.373651 -2.00956 0
M  V30 8889 C 841.165 1.54806 -1.13574 0
M  V30 8890 O 842.366 2.24108 -1.48422 0
M  V30 8891 C 840.637 0.768919 -3.49031 0
M  V30 8892 S 842.196 1.38381 -4.16409 0
M  V30 8893 H 839.014 0.117371 -0.701245 0
M  V30 8894 H 841.616 -0.367611 -1.92013 0
M  V30 8895 H 840.32 -0.0950492 -4.1029 0
M  V30 8896 H 839.851 1.54225 -3.61909 0
M  V30 8897 H 841.866 2.6728 -4.18062 0
M  V30 8898 N 841.039 1.57585 0.0217189 0
M  V30 8899 C 841.971 2.03849 1.04777 0
M  V30 8900 C 842.984 0.952558 1.32023 0
M  V30 8901 O 844.173 1.22974 1.29381 0
M  V30 8902 C 841.273 2.40504 2.3877 0
M  V30 8903 C 840.446 3.71566 2.30775 0
M  V30 8904 C 839.505 3.95329 3.47277 0
M  V30 8905 O 838.531 4.66289 3.26441 0
M  V30 8906 N 839.733 3.41536 4.69397 0
M  V30 8907 H 842.498 2.92491 0.653395 0
M  V30 8908 H 840.059 1.60538 0.209527 0
M  V30 8909 H 842.051 2.53532 3.15442 0
M  V30 8910 H 840.621 1.57494 2.70027 0
M  V30 8911 H 839.841 3.68822 1.39155 0
M  V30 8912 H 841.129 4.5753 2.22584 0
M  V30 8913 H 840.527 2.84033 4.89226 0
M  V30 8914 H 839.084 3.59932 5.43408 0
M  V30 8915 N 842.517 -0.29412 1.54831 0
M  V30 8916 C 843.447 -1.36757 1.89261 0
M  V30 8917 C 844.428 -1.52564 0.752214 0
M  V30 8918 O 845.613 -1.65958 1.00855 0
M  V30 8919 C 842.743 -2.73066 2.14597 0
M  V30 8920 C 841.697 -2.72017 3.3044 0
M  V30 8921 C 841.023 -4.11679 3.4121 0
M  V30 8922 C 842.323 -2.33149 4.67375 0
M  V30 8923 H 844.017 -1.08191 2.79169 0
M  V30 8924 H 841.563 -0.519014 1.34321 0
M  V30 8925 H 843.516 -3.48255 2.37269 0
M  V30 8926 H 842.24 -3.03172 1.21467 0
M  V30 8927 H 840.899 -1.99285 3.07703 0
M  V30 8928 H 840.547 -4.38973 2.45584 0
M  V30 8929 H 840.247 -4.11877 4.19084 0
M  V30 8930 H 841.771 -4.88637 3.6615 0
M  V30 8931 H 843.185 -2.98054 4.89731 0
M  V30 8932 H 841.582 -2.44546 5.48012 0
M  V30 8933 H 842.652 -1.28275 4.67626 0
M  V30 8934 N 843.995 -1.47404 -0.557645 0
M  V30 8935 C 845.244 -1.53268 -1.31118 0
M  V30 8936 C 845.557 -0.199414 -1.94581 0
M  V30 8937 O 846.763 -0.136039 -2.71159 0
M  V30 8938 C 845.219 -2.70178 -2.37764 0
M  V30 8939 C 844.827 -4.10032 -1.80493 0
M  V30 8940 C 846.571 -2.85334 -3.14301 0
M  V30 8941 C 844.478 -5.18244 -2.84916 0
M  V30 8942 H 843.408 -0.570491 -0.493007 0
M  V30 8943 H 846.059 -1.73678 -0.592308 0
M  V30 8944 H 844.441 -2.43147 -3.12563 0
M  V30 8945 H 845.615 -4.46964 -1.12069 0
M  V30 8946 H 843.93 -3.99759 -1.16542 0
M  V30 8947 H 846.527 -3.63347 -3.92279 0
M  V30 8948 H 846.87 -1.93761 -3.68459 0
M  V30 8949 H 847.403 -3.12133 -2.46613 0
M  V30 8950 H 844.142 -6.11691 -2.35614 0
M  V30 8951 H 843.662 -4.85829 -3.51753 0
M  V30 8952 H 845.341 -5.45174 -3.48417 0
M  V30 8953 N 845.473 0.80434 -1.35529 0
M  V30 8954 C 846.884 1.37849 -1.25915 0
M  V30 8955 C 847.235 1.95905 0.107495 0
M  V30 8956 O 846.36 1.91462 1.00852 0
M  V30 8957 C 846.955 2.50608 -2.27994 0
M  V30 8958 C 845.514 3.03879 -2.22114 0
M  V30 8959 C 844.661 1.76856 -2.13582 0
M  V30 8960 H 847.612 0.607192 -1.46625 0
M  V30 8961 H 847.633 3.29221 -1.90772 0
M  V30 8962 H 847.145 2.08323 -3.27449 0
M  V30 8963 H 845.246 3.50622 -1.26077 0
M  V30 8964 H 845.359 3.61707 -3.14173 0
M  V30 8965 H 843.723 1.98498 -1.59595 0
M  V30 8966 H 844.506 1.36721 -3.14901 0
M  V30 8967 N 846.951 1.19563 1.02676 0
M  V30 8968 C 848.2 0.993864 1.75514 0
M  V30 8969 C 848.513 -0.475882 1.89723 0
M  V30 8970 O 849.719 -0.796525 2.59553 0
M  V30 8971 C 848.175 1.72937 3.15628 0
M  V30 8972 C 847.783 3.23937 3.09466 0
M  V30 8973 C 849.527 1.61092 3.92746 0
M  V30 8974 C 847.434 3.90067 4.44524 0
M  V30 8975 H 846.364 0.368244 0.657961 0
M  V30 8976 H 849.015 1.43081 1.14891 0
M  V30 8977 H 847.397 1.22025 3.76731 0
M  V30 8978 H 848.571 3.81983 2.57731 0
M  V30 8979 H 846.886 3.3608 2.45843 0
M  V30 8980 H 849.483 2.07848 4.92649 0
M  V30 8981 H 849.826 0.565415 4.12442 0
M  V30 8982 H 850.359 2.09361 3.3825 0
M  V30 8983 H 847.098 4.94725 4.30032 0
M  V30 8984 H 846.618 3.36809 4.96306 0
M  V30 8985 H 848.297 3.93736 5.13401 0
M  V30 8986 N 848.429 -1.21819 0.999893 0
M  V30 8987 C 849.678 -1.90066 0.675108 0
M  V30 8988 C 849.991 -1.78624 -0.79705 0
M  V30 8989 O 851.197 -2.41851 -1.23371 0
M  V30 8990 C 849.653 -3.40795 1.15702 0
M  V30 8991 C 849.261 -3.60859 2.6549 0
M  V30 8992 C 851.005 -4.147 0.906889 0
M  V30 8993 C 848.912 -5.05324 3.07248 0
M  V30 8994 H 847.842 -0.711763 0.248815 0
M  V30 8995 H 850.493 -1.3792 1.21038 0
M  V30 8996 H 848.875 -3.92164 0.549832 0
M  V30 8997 H 850.049 -3.19951 3.31614 0
M  V30 8998 H 848.364 -3.00298 2.88461 0
M  V30 8999 H 850.961 -5.21187 1.1945 0
M  V30 9000 H 851.304 -4.16004 -0.156923 0
M  V30 9001 H 851.837 -3.69379 1.47662 0
M  V30 9002 H 848.576 -5.09164 4.12834 0
M  V30 9003 H 848.096 -5.47108 2.45832 0
M  V30 9004 H 849.775 -5.73797 2.98941 0
M  V30 9005 N 849.908 -0.773975 -1.37286 0
M  V30 9006 C 850.855 -0.159938 -2.30245 0
M  V30 9007 C 851.825 0.687356 -1.51211 0
M  V30 9008 O 853.01 0.639255 -1.79773 0
M  V30 9009 C 850.15 0.711452 -3.37687 0
M  V30 9010 C 849.263 -0.152692 -4.3173 0
M  V30 9011 C 848.398 0.723613 -5.26248 0
M  V30 9012 C 847.437 -0.14293 -6.11933 0
M  V30 9013 N 846.574 0.691479 -6.98687 0
M  V30 9014 H 851.414 -0.958182 -2.82175 0
M  V30 9015 H 848.951 -0.48411 -1.38906 0
M  V30 9016 H 850.909 1.2315 -3.9861 0
M  V30 9017 H 849.539 1.47528 -2.87116 0
M  V30 9018 H 848.591 -0.790574 -3.72094 0
M  V30 9019 H 849.903 -0.821027 -4.91997 0
M  V30 9020 H 849.057 1.31006 -5.92387 0
M  V30 9021 H 847.796 1.42562 -4.66398 0
M  V30 9022 H 846.801 -0.7419 -5.44771 0
M  V30 9023 H 848.026 -0.842305 -6.73856 0
M  V30 9024 H 845.972 1.37806 -6.41362 0
M  V30 9025 H 845.889 0.0804911 -7.55957 0
M  V30 9026 H 847.157 1.26225 -7.69212 0
M  V30 9027 N 851.386 1.48609 -0.524698 0
M  V30 9028 C 852.316 2.32366 0.229837 0
M  V30 9029 C 853.297 1.41759 0.940129 0
M  V30 9030 O 854.482 1.7065 0.926936 0
M  V30 9031 C 851.612 3.22835 1.28043 0
M  V30 9032 C 850.566 4.22424 0.688603 0
M  V30 9033 C 849.892 5.0199 1.84146 0
M  V30 9034 C 851.192 5.21217 -0.336176 0
M  V30 9035 H 852.886 2.95698 -0.469339 0
M  V30 9036 H 850.432 1.42197 -0.227156 0
M  V30 9037 H 852.385 3.80253 1.8162 0
M  V30 9038 H 851.109 2.57492 2.00912 0
M  V30 9039 H 849.768 3.66185 0.174402 0
M  V30 9040 H 849.416 4.33076 2.5584 0
M  V30 9041 H 849.116 5.69392 1.45142 0
M  V30 9042 H 850.64 5.62259 2.38111 0
M  V30 9043 H 852.054 5.7319 0.112307 0
M  V30 9044 H 850.451 5.96642 -0.643324 0
M  V30 9045 H 851.521 4.68676 -1.24381 0
M  V30 9046 N 852.864 0.259585 1.55447 0
M  V30 9047 C 853.774 -0.645026 2.25558 0
M  V30 9048 C 854.79 -1.18291 1.27606 0
M  V30 9049 O 855.966 -1.21649 1.6051 0
M  V30 9050 C 853.031 -1.81964 2.9511 0
M  V30 9051 C 852.092 -1.31997 4.08504 0
M  V30 9052 C 851.325 -2.43861 4.74729 0
M  V30 9053 O 851.548 -3.62876 4.40088 0
M  V30 9054 O 850.482 -2.12898 5.6299 0
M  V30 9055 H 854.308 -0.0775399 3.03601 0
M  V30 9056 H 851.893 0.0275859 1.49375 0
M  V30 9057 H 853.775 -2.50485 3.38873 0
M  V30 9058 H 852.45 -2.37451 2.19997 0
M  V30 9059 H 851.357 -0.601676 3.6923 0
M  V30 9060 H 852.69 -0.811045 4.85472 0
M  V30 9061 N 854.342 -1.57594 -0.0133615 0
M  V30 9062 C 855.588 -1.91105 -0.696457 0
M  V30 9063 C 855.943 -0.859872 -1.72116 0
M  V30 9064 O 855.236 0.129579 -1.91161 0
M  V30 9065 C 855.43 -3.29121 -1.39336 0
M  V30 9066 C 855.259 -4.47565 -0.437666 0
M  V30 9067 C 854.029 -5.05272 -0.0529454 0
M  V30 9068 C 856.227 -5.13479 0.290537 0
M  V30 9069 N 854.209 -6.07232 0.902355 0
M  V30 9070 C 855.58 -6.10147 1.10097 0
M  V30 9071 C 857.635 -4.96627 0.355804 0
M  V30 9072 C 856.338 -6.91778 1.97069 0
M  V30 9073 C 858.364 -5.78833 1.21271 0
M  V30 9074 C 857.726 -6.75083 2.01102 0
M  V30 9075 H 853.825 -0.747882 -0.228464 0
M  V30 9076 H 856.409 -1.94651 0.0438462 0
M  V30 9077 H 854.58 -3.26474 -2.10403 0
M  V30 9078 H 856.312 -3.501 -2.03008 0
M  V30 9079 H 853.067 -4.71747 -0.418486 0
M  V30 9080 H 853.491 -6.6289 1.37498 0
M  V30 9081 H 858.133 -4.22077 -0.247105 0
M  V30 9082 H 855.851 -7.65662 2.58433 0
M  V30 9083 H 859.437 -5.67838 1.26694 0
M  V30 9084 H 858.317 -7.37587 2.66337 0
M  V30 9085 N 855.82 0.285905 -1.54985 0
M  V30 9086 C 856.77 1.35505 -1.83364 0
M  V30 9087 C 857.754 1.45273 -0.691698 0
M  V30 9088 O 858.946 1.49172 -0.952725 0
M  V30 9089 C 856.075 2.71756 -2.0977 0
M  V30 9090 C 855.161 2.6615 -3.30189 0
M  V30 9091 N 855.552 2.30161 -4.50399 0
M  V30 9092 C 853.85 2.97232 -3.3252 0
M  V30 9093 C 854.551 2.34228 -5.32459 0
M  V30 9094 N 853.527 2.72187 -4.70548 0
M  V30 9095 H 857.329 1.06668 -2.7386 0
M  V30 9096 H 854.843 0.494521 -1.54688 0
M  V30 9097 H 856.84 3.48864 -2.28253 0
M  V30 9098 H 855.5 3.01492 -1.20551 0
M  V30 9099 H 856.511 2.02358 -4.7673 0
M  V30 9100 H 853.188 3.31764 -2.53454 0
M  V30 9101 H 854.578 2.09074 -6.38543 0
M  V30 9102 N 857.298 1.47698 0.54982 0
M  V30 9103 C 858.523 1.58579 1.33669 0
M  V30 9104 C 858.948 0.239049 1.86575 0
M  V30 9105 O 858.306 -0.786256 1.63364 0
M  V30 9106 C 858.354 2.62029 2.47736 0
M  V30 9107 O 857.458 2.17813 3.50188 0
M  V30 9108 H 856.799 0.532447 0.396732 0
M  V30 9109 H 859.329 1.93536 0.6637 0
M  V30 9110 H 859.339 2.82682 2.94202 0
M  V30 9111 H 858.014 3.59812 2.08586 0
M  V30 9112 H 856.591 2.07291 3.09976 0
M  V30 9113 N 858.776 -0.797141 1.35954 0
M  V30 9114 C 860.187 -1.37179 1.26644 0
M  V30 9115 C 860.538 -1.9596 -0.0971046 0
M  V30 9116 O 859.663 -1.91994 -0.998355 0
M  V30 9117 C 860.258 -2.49395 2.2932 0
M  V30 9118 C 858.817 -3.02697 2.23722 0
M  V30 9119 C 857.964 -1.75721 2.14517 0
M  V30 9120 H 860.915 -0.599407 1.46945 0
M  V30 9121 H 860.936 -3.28204 1.92515 0
M  V30 9122 H 860.448 -2.06584 3.2855 0
M  V30 9123 H 858.549 -3.49948 1.27934 0
M  V30 9124 H 858.662 -3.60036 3.16087 0
M  V30 9125 H 857.026 -1.97649 1.60646 0
M  V30 9126 H 857.809 -1.35049 3.15621 0
M  V30 9127 N 860.254 -1.20106 -1.0204 0
M  V30 9128 C 861.5 -1.02042 -1.75951 0
M  V30 9129 C 861.855 0.443229 -1.87225 0
M  V30 9130 O 861.148 1.32477 -1.38421 0
M  V30 9131 C 861.342 -1.63308 -3.17908 0
M  V30 9132 C 861.171 -3.15478 -3.20474 0
M  V30 9133 C 859.941 -3.84432 -3.27933 0
M  V30 9134 C 862.139 -4.12747 -3.06829 0
M  V30 9135 N 860.121 -5.23925 -3.19963 0
M  V30 9136 C 861.492 -5.38892 -3.06586 0
M  V30 9137 C 863.547 -4.03996 -2.91018 0
M  V30 9138 C 862.25 -6.57296 -2.92154 0
M  V30 9139 C 864.276 -5.22019 -2.77938 0
M  V30 9140 C 863.638 -6.47067 -2.78358 0
M  V30 9141 H 859.737 -0.427602 -0.654737 0
M  V30 9142 H 862.321 -1.52216 -1.21402 0
M  V30 9143 H 860.492 -1.15723 -3.7076 0
M  V30 9144 H 862.224 -1.38597 -3.80227 0
M  V30 9145 H 858.979 -3.35269 -3.34502 0
M  V30 9146 H 859.403 -5.9694 -3.19362 0
M  V30 9147 H 864.045 -3.0813 -2.8951 0
M  V30 9148 H 861.763 -7.5334 -2.92412 0
M  V30 9149 H 865.349 -5.17057 -2.66728 0
M  V30 9150 H 864.229 -7.36857 -2.6835 0
M  V30 9151 N 861.732 1.21287 -1.00634 0
M  V30 9152 C 862.695 2.21927 -0.572821 0
M  V30 9153 C 863.695 1.5691 0.351541 0
M  V30 9154 O 864.885 1.73623 0.141643 0
M  V30 9155 C 862.017 3.40501 0.164932 0
M  V30 9156 H 863.21 2.61795 -1.463 0
M  V30 9157 H 860.763 1.34571 -0.794998 0
M  V30 9158 H 861.498 3.06123 1.07049 0
M  V30 9159 H 861.283 3.88912 -0.498962 0
M  V30 9160 H 862.773 4.15103 0.455945 0
M  V30 9161 N 863.21 0.781244 1.36873 0
M  V30 9162 C 864.456 0.350407 1.9975 0
M  V30 9163 C 864.789 -1.07293 1.6187 0
M  V30 9164 O 864.064 -1.73983 0.869491 0
M  V30 9165 C 864.347 0.504834 3.56544 0
M  V30 9166 C 864.2 1.97127 4.04303 0
M  V30 9167 C 865.519 -0.0851272 4.40018 0
M  V30 9168 H 862.638 0.128794 0.725659 0
M  V30 9169 H 865.28 0.98606 1.6241 0
M  V30 9170 H 863.43 -0.0363006 3.88483 0
M  V30 9171 H 865.102 2.57284 3.82887 0
M  V30 9172 H 863.345 2.47676 3.56145 0
M  V30 9173 H 864.016 2.03033 5.13305 0
M  V30 9174 H 866.492 0.376704 4.14391 0
M  V30 9175 H 865.368 0.0530015 5.48874 0
M  V30 9176 H 865.629 -1.17642 4.2616 0
M  V30 9177 N 864.689 -1.48329 0.532571 0
M  V30 9178 C 865.935 -2.028 -0.000583219 0
M  V30 9179 C 866.268 -1.40858 -1.33688 0
M  V30 9180 O 865.543 -0.555261 -1.86406 0
M  V30 9181 C 865.826 -3.59901 -0.119846 0
M  V30 9182 C 865.679 -4.32318 1.2418 0
M  V30 9183 C 866.998 -4.31904 -0.845372 0
M  V30 9184 H 864.117 -0.736999 0.00126205 0
M  V30 9185 H 866.759 -1.77024 0.690102 0
M  V30 9186 H 864.909 -3.81993 -0.708092 0
M  V30 9187 H 866.581 -4.21637 1.87136 0
M  V30 9188 H 864.824 -3.93635 1.82301 0
M  V30 9189 H 865.495 -5.40697 1.11132 0
M  V30 9190 H 867.971 -4.14658 -0.346159 0
M  V30 9191 H 866.847 -5.41509 -0.897723 0
M  V30 9192 H 867.108 -3.99369 -1.89622 0
M  V30 9193 N 866.167 -0.267825 -1.55308 0
M  V30 9194 C 867.578 0.231344 -1.85261 0
M  V30 9195 C 867.929 1.56006 -1.18982 0
M  V30 9196 O 867.054 2.1111 -0.475554 0
M  V30 9197 C 867.649 0.426537 -3.36104 0
M  V30 9198 C 866.208 0.869945 -3.66209 0
M  V30 9199 C 865.355 -0.0409522 -2.7727 0
M  V30 9200 H 868.306 -0.489821 -1.50952 0
M  V30 9201 H 868.327 1.26616 -3.58816 0
M  V30 9202 H 867.839 -0.540678 -3.84315 0
M  V30 9203 H 865.94 1.84889 -3.23492 0
M  V30 9204 H 866.053 0.712316 -4.73775 0
M  V30 9205 H 864.417 0.474097 -2.50249 0
M  V30 9206 H 865.2 -1.00392 -3.28293 0
M  V30 9207 N 867.645 1.57599 0.00500368 0
M  V30 9208 C 868.891 1.90631 0.691919 0
M  V30 9209 C 869.224 0.868443 1.737 0
M  V30 9210 O 868.499 -0.113482 1.94169 0
M  V30 9211 C 868.782 3.34255 1.33961 0
M  V30 9212 C 868.635 4.48755 0.306413 0
M  V30 9213 C 869.954 3.77211 2.26715 0
M  V30 9214 H 867.073 0.693279 0.250066 0
M  V30 9215 H 869.715 1.89946 -0.0452634 0
M  V30 9216 H 867.865 3.3497 1.96793 0
M  V30 9217 H 869.537 4.60176 -0.321841 0
M  V30 9218 H 867.78 4.32203 -0.371852 0
M  V30 9219 H 868.451 5.46193 0.798554 0
M  V30 9220 H 870.927 3.78017 1.73904 0
M  V30 9221 H 869.803 4.78466 2.69002 0
M  V30 9222 H 870.064 3.10801 3.14413 0
M  V30 9223 N 869.123 -0.277682 1.55134 0
M  V30 9224 C 870.37 -1.0099 1.7552 0
M  V30 9225 C 870.698 -1.86452 0.553712 0
M  V30 9226 O 869.953 -1.90122 -0.463896 0
M  V30 9227 C 870.252 -1.92599 3.01065 0
M  V30 9228 C 869.918 -1.22926 4.3382 0
M  V30 9229 C 868.58 -1.03659 4.69902 0
M  V30 9230 C 870.932 -0.733071 5.16019 0
M  V30 9231 C 868.26 -0.334933 5.85743 0
M  V30 9232 C 870.612 -0.0450319 6.32584 0
M  V30 9233 C 869.276 0.159393 6.6731 0
M  V30 9234 H 868.546 -0.36955 0.642273 0
M  V30 9235 H 871.193 -0.282611 1.89403 0
M  V30 9236 H 869.498 -2.71934 2.82062 0
M  V30 9237 H 871.195 -2.49367 3.14034 0
M  V30 9238 H 867.785 -1.38933 4.05457 0
M  V30 9239 H 871.969 -0.869565 4.88623 0
M  V30 9240 H 867.225 -0.165783 6.11175 0
M  V30 9241 H 871.399 0.34723 6.95534 0
M  V30 9242 H 869.026 0.70507 7.56923 0
M  V30 9243 N 870.601 -1.47988 -0.541979 0
M  V30 9244 C 871.847 -1.55623 -1.30036 0
M  V30 9245 C 872.18 -0.224254 -1.92901 0
M  V30 9246 O 871.455 0.768629 -1.78668 0
M  V30 9247 C 871.738 -2.68562 -2.39888 0
M  V30 9248 C 871.591 -4.11426 -1.81792 0
M  V30 9249 C 872.91 -2.77325 -3.41729 0
M  V30 9250 H 870.029 -0.566498 -0.471433 0
M  V30 9251 H 872.671 -1.8011 -0.604998 0
M  V30 9252 H 870.821 -2.47814 -2.992 0
M  V30 9253 H 872.493 -4.43581 -1.26624 0
M  V30 9254 H 870.736 -4.18989 -1.12386 0
M  V30 9255 H 871.407 -4.8625 -2.61276 0
M  V30 9256 H 873.883 -2.96085 -2.92357 0
M  V30 9257 H 872.759 -3.58097 -4.16002 0
M  V30 9258 H 873.02 -1.84995 -4.01534 0
M  V30 9259 N 872.079 0.78992 -1.36375 0
M  V30 9260 C 873.042 1.88414 -1.30509 0
M  V30 9261 C 874.042 1.59384 -0.2129 0
M  V30 9262 O 875.232 1.67805 -0.467651 0
M  V30 9263 C 872.364 3.25188 -1.02302 0
M  V30 9264 H 873.557 1.95031 -2.27822 0
M  V30 9265 H 871.11 0.987664 -1.2114 0
M  V30 9266 H 871.845 3.24254 -0.0544486 0
M  V30 9267 H 871.63 3.47647 -1.81338 0
M  V30 9268 H 873.12 4.05252 -1.00801 0
M  V30 9269 N 873.557 1.20646 1.01402 0
M  V30 9270 C 874.806 1.01242 1.7445 0
M  V30 9271 C 875.119 -0.455732 1.90217 0
M  V30 9272 O 876.325 -0.768951 2.60383 0
M  V30 9273 C 874.781 1.76275 3.13776 0
M  V30 9274 C 874.389 3.27201 3.06013 0
M  V30 9275 C 876.133 1.65248 3.91016 0
M  V30 9276 C 874.04 3.9476 4.40362 0
M  V30 9277 H 872.97 0.375202 0.654018 0
M  V30 9278 H 875.621 1.44292 1.13367 0
M  V30 9279 H 874.003 1.26013 3.75415 0
M  V30 9280 H 875.177 3.84695 2.53665 0
M  V30 9281 H 873.492 3.38669 2.42265 0
M  V30 9282 H 876.089 2.13061 4.90417 0
M  V30 9283 H 876.432 0.609128 4.1182 0
M  V30 9284 H 876.965 2.12937 3.3601 0
M  V30 9285 H 873.704 4.99258 4.24761 0
M  V30 9286 H 873.224 3.42054 4.92706 0
M  V30 9287 H 874.903 3.99159 5.09196 0
M  V30 9288 N 875.035 -1.20752 1.01276 0
M  V30 9289 C 875.965 -2.25658 0.600064 0
M  V30 9290 C 876.946 -1.65733 -0.38298 0
M  V30 9291 O 878.131 -1.92324 -0.269256 0
M  V30 9292 C 875.261 -3.47237 -0.0663197 0
M  V30 9293 C 874.215 -4.1973 0.83731 0
M  V30 9294 C 873.541 -5.34687 0.0369102 0
M  V30 9295 C 874.841 -4.76286 2.14357 0
M  V30 9296 H 876.535 -2.60432 1.477 0
M  V30 9297 H 874.081 -1.25187 0.711634 0
M  V30 9298 H 876.034 -4.19803 -0.366563 0
M  V30 9299 H 874.758 -3.11615 -0.977944 0
M  V30 9300 H 873.417 -3.49024 1.1215 0
M  V30 9301 H 873.065 -4.95309 -0.876244 0
M  V30 9302 H 872.765 -5.84119 0.63865 0
M  V30 9303 H 874.289 -6.10059 -0.256968 0
M  V30 9304 H 875.703 -5.40691 1.90595 0
M  V30 9305 H 874.1 -5.36139 2.69583 0
M  V30 9306 H 875.17 -3.9524 2.80916 0
M  V30 9307 N 876.513 -0.788492 -1.36457 0
M  V30 9308 C 877.761 -0.359749 -1.98872 0
M  V30 9309 C 878.082 1.07197 -1.62892 0
M  V30 9310 O 877.352 1.73875 -0.902463 0
M  V30 9311 H 875.932 -0.130029 -0.735596 0
M  V30 9312 H 878.594 -1.01033 -1.66668 0
M  V30 9313 H 877.69 -0.450835 -3.08827 0
M  V30 9314 N 877.991 1.48044 -0.54043 0
M  V30 9315 C 879.24 2.01698 -0.00809961 0
M  V30 9316 C 879.553 1.42184 1.34325 0
M  V30 9317 O 880.759 1.87398 1.96454 0
M  V30 9318 C 879.215 3.59882 0.035933 0
M  V30 9319 C 878.823 4.28384 -1.31115 0
M  V30 9320 C 880.567 4.21346 0.51654 0
M  V30 9321 C 878.474 5.78529 -1.22714 0
M  V30 9322 H 877.404 0.754 0.000742174 0
M  V30 9323 H 880.055 1.70204 -0.685775 0
M  V30 9324 H 878.437 3.88264 0.778906 0
M  V30 9325 H 879.611 4.11663 -2.07051 0
M  V30 9326 H 877.926 3.78837 -1.72834 0
M  V30 9327 H 880.523 5.31351 0.597529 0
M  V30 9328 H 880.866 3.87373 1.52473 0
M  V30 9329 H 881.399 3.97432 -0.171064 0
M  V30 9330 H 878.138 6.17093 -2.21081 0
M  V30 9331 H 877.658 5.97634 -0.50931 0
M  V30 9332 H 879.337 6.40395 -0.92216 0
M  V30 9333 N 879.47 0.276058 1.55163 0
M  V30 9334 C 880.719 -0.341098 1.98795 0
M  V30 9335 C 881.032 -1.56905 1.16791 0
M  V30 9336 O 882.238 -2.25922 1.50571 0
M  V30 9337 C 880.694 -0.658231 3.5383 0
M  V30 9338 C 880.302 0.549972 4.44611 0
M  V30 9339 C 882.046 -1.23796 4.06048 0
M  V30 9340 C 879.953 0.207373 5.91036 0
M  V30 9341 H 878.883 -0.131224 0.742493 0
M  V30 9342 H 881.534 0.380858 1.79504 0
M  V30 9343 H 879.916 -1.43911 3.68925 0
M  V30 9344 H 881.09 1.32681 4.41285 0
M  V30 9345 H 879.405 1.04661 4.03032 0
M  V30 9346 H 882.002 -1.50811 5.12991 0
M  V30 9347 H 882.345 -2.17214 3.55139 0
M  V30 9348 H 882.878 -0.519345 3.94395 0
M  V30 9349 H 879.617 1.10946 6.46043 0
M  V30 9350 H 879.137 -0.532687 5.9743 0
M  V30 9351 H 880.816 -0.200072 6.46691 0
M  V30 9352 N 880.948 -1.576 0.00335426 0
M  V30 9353 C 881.911 -2.07576 -0.971838 0
M  V30 9354 C 882.911 -0.985796 -1.27038 0
M  V30 9355 O 884.101 -1.24833 -1.21501 0
M  V30 9356 C 881.233 -2.52003 -2.29581 0
M  V30 9357 H 882.426 -2.95008 -0.539481 0
M  V30 9358 H 879.979 -1.54381 -0.244186 0
M  V30 9359 H 880.714 -1.67825 -2.77498 0
M  V30 9360 H 880.499 -3.31609 -2.09231 0
M  V30 9361 H 881.989 -2.90983 -2.99531 0
M  V30 9362 N 882.426 0.269451 -1.5528 0
M  V30 9363 C 883.654 1.01872 -1.80082 0
M  V30 9364 C 884.069 1.79802 -0.575917 0
M  V30 9365 O 883.426 1.76735 0.455081 0
M  V30 9366 C 883.477 1.9745 -3.02813 0
M  V30 9367 O 883.198 1.22677 -4.20573 0
M  V30 9368 C 884.699 2.8416 -3.40247 0
M  V30 9369 H 881.919 0.300781 -0.59981 0
M  V30 9370 H 884.463 0.29916 -2.023 0
M  V30 9371 H 882.618 2.64864 -2.82712 0
M  V30 9372 H 883.032 1.87129 -4.89982 0
M  V30 9373 H 884.506 3.47014 -4.29284 0
M  V30 9374 H 884.983 3.54113 -2.59809 0
M  V30 9375 H 885.589 2.22232 -3.6262 0
M  V30 9376 N 883.904 1.48273 0.534124 0
M  V30 9377 C 885.132 1.59734 1.31501 0
M  V30 9378 C 885.547 0.256047 1.87056 0
M  V30 9379 O 884.904 -0.754086 1.66192 0
M  V30 9380 C 884.955 2.64072 2.46877 0
M  V30 9381 O 884.676 3.92995 1.93613 0
M  V30 9382 C 886.177 2.85933 3.38758 0
M  V30 9383 H 883.397 0.538703 0.40005 0
M  V30 9384 H 885.941 1.9407 0.644762 0
M  V30 9385 H 884.096 2.32606 3.09795 0
M  V30 9386 H 884.51 4.50203 2.69106 0
M  V30 9387 H 885.984 3.62749 4.16073 0
M  V30 9388 H 886.461 1.94603 3.93734 0
M  V30 9389 H 887.067 3.18687 2.81636 0
M  V30 9390 N 885.382 -0.782676 1.36792 0
M  V30 9391 C 886.629 -1.54083 1.31395 0
M  V30 9392 C 886.957 -1.94217 -0.104797 0
M  V30 9393 O 886.212 -1.63491 -1.0756 0
M  V30 9394 C 886.511 -2.82542 2.18872 0
M  V30 9395 C 886.177 -2.61512 3.67317 0
M  V30 9396 C 884.839 -2.55486 4.07775 0
M  V30 9397 C 887.191 -2.42389 4.61407 0
M  V30 9398 C 884.519 -2.28311 5.40454 0
M  V30 9399 C 886.871 -2.1674 5.94312 0
M  V30 9400 C 885.535 -2.09151 6.33887 0
M  V30 9401 H 884.805 -0.563829 0.48081 0
M  V30 9402 H 887.452 -0.902436 1.68903 0
M  V30 9403 H 885.757 -3.50883 1.74323 0
M  V30 9404 H 887.454 -3.40367 2.12017 0
M  V30 9405 H 884.044 -2.67062 3.35225 0
M  V30 9406 H 888.228 -2.46043 4.31018 0
M  V30 9407 H 883.484 -2.20922 5.70091 0
M  V30 9408 H 887.658 -2.0094 6.6678 0
M  V30 9409 H 885.285 -1.87857 7.36623 0
M  V30 9410 N 886.86 -1.21182 -1.00761 0
M  V30 9411 C 888.106 -1.02898 -1.74756 0
M  V30 9412 C 888.439 0.436774 -1.89225 0
M  V30 9413 O 887.714 1.32415 -1.42466 0
M  V30 9414 C 887.997 -1.72372 -3.16164 0
M  V30 9415 C 887.85 -3.2645 -3.09435 0
M  V30 9416 C 889.169 -1.46415 -4.15031 0
M  V30 9417 H 886.288 -0.375214 -0.634337 0
M  V30 9418 H 888.93 -1.49321 -1.17487 0
M  V30 9419 H 887.08 -1.32906 -3.65059 0
M  V30 9420 H 888.752 -3.75269 -2.68274 0
M  V30 9421 H 886.995 -3.56889 -2.46603 0
M  V30 9422 H 887.666 -3.70226 -4.09435 0
M  V30 9423 H 890.142 -1.80671 -3.7483 0
M  V30 9424 H 889.018 -1.97544 -5.12121 0
M  V30 9425 H 889.279 -0.39361 -4.40344 0
M  V30 9426 N 888.338 1.20213 -1.01915 0
M  V30 9427 C 889.587 1.88968 -0.705261 0
M  V30 9428 C 889.9 1.79869 0.768531 0
M  V30 9429 O 891.106 2.43783 1.19508 0
M  V30 9430 C 889.562 3.38911 -1.21109 0
M  V30 9431 C 889.17 3.5659 -2.71197 0
M  V30 9432 C 890.914 4.13204 -0.97275 0
M  V30 9433 C 888.821 5.00372 -3.15248 0
M  V30 9434 H 887.751 0.707715 -0.260107 0
M  V30 9435 H 890.402 1.35977 -1.23217 0
M  V30 9436 H 888.784 3.9124 -0.612152 0
M  V30 9437 H 889.958 3.14635 -3.36662 0
M  V30 9438 H 888.273 2.95671 -2.93202 0
M  V30 9439 H 890.87 5.19221 -1.27726 0
M  V30 9440 H 891.213 4.16201 0.09072 0
M  V30 9441 H 891.746 3.66983 -1.5352 0
M  V30 9442 H 888.485 5.02532 -4.20882 0
M  V30 9443 H 888.005 5.43127 -2.54505 0
M  V30 9444 H 889.684 5.68969 -3.08032 0
M  V30 9445 N 889.816 0.795718 1.36037 0
M  V30 9446 C 891.062 0.371574 1.99367 0
M  V30 9447 C 891.395 -1.0557 1.62999 0
M  V30 9448 O 890.67 -1.73051 0.887895 0
M  V30 9449 C 890.953 0.542622 3.55988 0
M  V30 9450 C 890.806 2.01404 4.0219 0
M  V30 9451 C 892.125 -0.0384527 4.40083 0
M  V30 9452 H 889.244 0.136483 0.724252 0
M  V30 9453 H 891.886 1.00323 1.61355 0
M  V30 9454 H 890.036 0.0049053 3.885 0
M  V30 9455 H 891.708 2.6133 3.80137 0
M  V30 9456 H 889.951 2.51439 3.53498 0
M  V30 9457 H 890.622 2.08466 5.11122 0
M  V30 9458 H 893.098 0.420634 4.13968 0
M  V30 9459 H 891.974 0.111214 5.48787 0
M  V30 9460 H 892.235 -1.13116 4.27384 0
M  V30 9461 N 891.294 -1.47756 0.548274 0
M  V30 9462 C 892.522 -2.06884 0.0254873 0
M  V30 9463 C 892.937 -1.40225 -1.26422 0
M  V30 9464 O 892.294 -0.495776 -1.75637 0
M  V30 9465 C 892.345 -3.61036 -0.183134 0
M  V30 9466 O 892.066 -4.25195 1.05549 0
M  V30 9467 C 893.567 -4.37008 -0.744222 0
M  V30 9468 H 890.787 -0.669697 0.041789 0
M  V30 9469 H 893.331 -1.89888 0.759138 0
M  V30 9470 H 891.486 -3.77576 -0.866886 0
M  V30 9471 H 891.9 -5.17606 0.847629 0
M  V30 9472 H 893.374 -5.45579 -0.839529 0
M  V30 9473 H 893.851 -4.0268 -1.75344 0
M  V30 9474 H 894.457 -4.25191 -0.0964542 0
M  V30 9475 N 892.772 -0.284283 -1.55015 0
M  V30 9476 C 894.019 0.329864 -1.99795 0
M  V30 9477 C 894.347 1.55171 -1.1727 0
M  V30 9478 O 893.602 1.94312 -0.232667 0
M  V30 9479 C 893.901 0.747219 -3.49502 0
M  V30 9480 C 893.567 -0.37101 -4.49371 0
M  V30 9481 C 892.229 -0.678034 -4.76399 0
M  V30 9482 C 894.581 -1.12406 -5.08935 0
M  V30 9483 C 891.909 -1.74152 -5.60257 0
M  V30 9484 C 894.261 -2.17734 -5.93948 0
M  V30 9485 C 892.925 -2.49061 -6.19294 0
M  V30 9486 H 892.195 0.120706 -0.731103 0
M  V30 9487 H 894.842 -0.399904 -1.87278 0
M  V30 9488 H 893.147 1.55681 -3.59542 0
M  V30 9489 H 894.844 1.2333 -3.81563 0
M  V30 9490 H 891.434 -0.1216 -4.28427 0
M  V30 9491 H 895.618 -0.900119 -4.88069 0
M  V30 9492 H 890.874 -1.98915 -5.78137 0
M  V30 9493 H 895.048 -2.76553 -6.39133 0
M  V30 9494 H 892.675 -3.31602 -6.84064 0
M  V30 9495 N 894.251 1.57596 -0.0117121 0
M  V30 9496 C 895.497 1.91355 0.671661 0
M  V30 9497 C 895.83 0.886818 1.72769 0
M  V30 9498 O 895.105 -0.0928813 1.94278 0
M  V30 9499 C 895.388 3.35657 1.30409 0
M  V30 9500 C 895.241 4.49055 0.2588 0
M  V30 9501 C 896.56 3.79595 2.22701 0
M  V30 9502 H 893.679 0.695893 0.242698 0
M  V30 9503 H 896.321 1.89887 -0.0654071 0
M  V30 9504 H 894.471 3.37038 1.9323 0
M  V30 9505 H 896.143 4.59809 -0.370631 0
M  V30 9506 H 894.386 4.31785 -0.417672 0
M  V30 9507 H 895.057 5.4701 0.740578 0
M  V30 9508 H 897.533 3.7984 1.69885 0
M  V30 9509 H 896.409 4.81292 2.63912 0
M  V30 9510 H 896.67 3.14118 3.11098 0
M  V30 9511 N 895.729 -0.261212 1.5542 0
M  V30 9512 C 897.145 -0.609012 1.47524 0
M  V30 9513 C 897.345 -1.88986 0.699042 0
M  V30 9514 O 896.401 -2.51517 0.222628 0
M  V30 9515 C 897.714 -0.725025 2.91828 0
M  V30 9516 C 899.262 -0.818302 3.02114 0
M  V30 9517 C 899.737 -0.965996 4.47697 0
M  V30 9518 N 901.228 -1.03123 4.51575 0
M  V30 9519 C 901.963 -1.16451 5.6145 0
M  V30 9520 N 901.459 -1.26425 6.81167 0
M  V30 9521 N 903.252 -1.19655 5.49217 0
M  V30 9522 H 895.403 0.579807 2.04333 0
M  V30 9523 H 897.666 0.198072 0.927077 0
M  V30 9524 H 897.372 0.145871 3.51397 0
M  V30 9525 H 897.246 -1.60156 3.41511 0
M  V30 9526 H 899.633 -1.67966 2.42634 0
M  V30 9527 H 899.714 0.0830895 2.55665 0
M  V30 9528 H 899.358 -0.109251 5.07782 0
M  V30 9529 H 899.288 -1.88221 4.91813 0
M  V30 9530 H 901.779 -0.966072 3.65343 0
M  V30 9531 H 902.092 -1.36462 7.60656 0
M  V30 9532 H 900.437 -1.23408 6.83956 0
M  V30 9533 H 903.628 -1.11501 4.54626 0
M  V30 9534 H 903.801 -1.29698 6.34888 0
M  V30 9535 N 897.207 -1.48554 -0.526253 0
M  V30 9536 C 898.437 -1.60197 -1.30463 0
M  V30 9537 C 898.845 -0.26278 -1.87366 0
M  V30 9538 O 898.188 0.758537 -1.67308 0
M  V30 9539 C 898.25 -2.59223 -2.49085 0
M  V30 9540 C 897.914 -4.04199 -2.13241 0
M  V30 9541 C 898.911 -4.91771 -1.68694 0
M  V30 9542 C 896.596 -4.49762 -2.2365 0
M  V30 9543 C 898.59 -6.22934 -1.35026 0
M  V30 9544 C 896.277 -5.80945 -1.89594 0
M  V30 9545 C 897.275 -6.67354 -1.45353 0
M  V30 9546 O 896.963 -7.96096 -1.11745 0
M  V30 9547 H 896.695 -0.54284 -0.402866 0
M  V30 9548 H 899.249 -1.95137 -0.641157 0
M  V30 9549 H 897.479 -2.19412 -3.18426 0
M  V30 9550 H 899.168 -2.60661 -3.11144 0
M  V30 9551 H 899.934 -4.57806 -1.6012 0
M  V30 9552 H 895.813 -3.8269 -2.5704 0
M  V30 9553 H 899.357 -6.90334 -1.00422 0
M  V30 9554 H 895.254 -6.14444 -1.9781 0
M  V30 9555 H 896.022 -8.08882 -1.25111 0
M  V30 9556 N 898.685 0.775411 -1.37205 0
M  V30 9557 C 899.633 1.90996 -1.32752 0
M  V30 9558 C 900.627 1.68006 -0.216907 0
M  V30 9559 O 901.833 1.7584 -0.384723 0
M  V30 9560 H 898.208 0.62803 -0.413621 0
M  V30 9561 H 900.179 1.91869 -2.28536 0
M  V30 9562 C 898.928 3.28211 -1.14772 0
M  V30 9563 H 898.251 3.46477 -1.99484 0
M  V30 9564 H 899.691 4.07907 -1.15706 0
M  V30 9565 C 898.15 3.3658 0.146852 0
M  V30 9566 O 898.68 3.85428 1.13173 0
M  V30 9567 N 896.886 2.89936 0.196305 0
M  V30 9568 H 896.433 2.50375 -0.605807 0
M  V30 9569 H 896.391 2.95916 1.06212 0
M  V30 9570 N 900.163 1.21714 1.00117 0
M  V30 9571 C 901.44 0.945391 1.71236 0
M  V30 9572 C 901.82 -0.541772 2.0403 0
M  V30 9573 O 901.168 -1.50763 1.71705 0
M  V30 9574 C 901.378 1.83444 2.96899 0
M  V30 9575 C 902.726 2.08558 3.69849 0
M  V30 9576 O 903.75 1.80824 3.06889 0
M  V30 9577 O 902.609 2.55485 4.83104 0
M  V30 9578 H 899.703 0.354834 0.747009 0
M  V30 9579 H 902.249 1.32661 1.05825 0
M  V30 9580 H 901.021 2.84075 2.69105 0
M  V30 9581 H 900.644 1.45428 3.70049 0
M  V30 9582 N 901.641 -1.19671 1.02551 0
M  V30 9583 C 902.869 -1.93233 0.739513 0
M  V30 9584 C 903.284 -1.75298 -0.701158 0
M  V30 9585 O 902.641 -1.07269 -1.47647 0
M  V30 9586 C 902.692 -3.45085 1.07697 0
M  V30 9587 O 902.413 -3.62441 2.46106 0
M  V30 9588 C 903.914 -4.35776 0.813298 0
M  V30 9589 H 901.134 -0.613905 0.270853 0
M  V30 9590 H 903.678 -1.51909 1.36909 0
M  V30 9591 H 901.833 -3.84255 0.492635 0
M  V30 9592 H 902.247 -4.56337 2.58567 0
M  V30 9593 H 903.721 -5.40941 1.09941 0
M  V30 9594 H 904.198 -4.38474 -0.252359 0
M  V30 9595 H 904.804 -4.02282 1.38021 0
M  V30 9596 N 903.119 -0.802921 -1.35613 0
M  V30 9597 C 904.53 -0.443004 -1.81368 0
M  V30 9598 C 904.881 1.03459 -1.66706 0
M  V30 9599 O 904.006 1.80372 -1.19561 0
M  V30 9600 C 904.601 -0.797324 -3.29284 0
M  V30 9601 C 903.16 -0.490055 -3.73196 0
M  V30 9602 C 902.307 -1.02487 -2.57666 0
M  V30 9603 H 905.258 -0.994888 -1.23643 0
M  V30 9604 H 905.279 -0.0934638 -3.80385 0
M  V30 9605 H 904.791 -1.87278 -3.39924 0
M  V30 9606 H 902.892 0.576818 -3.68108 0
M  V30 9607 H 903.005 -1.02012 -4.68114 0
M  V30 9608 H 901.369 -0.44738 -2.5074 0
M  V30 9609 H 902.152 -2.10636 -2.71085 0
M  V30 9610 N 904.597 1.47463 -0.556102 0
M  V30 9611 C 905.846 2.01678 -0.029492 0
M  V30 9612 C 906.159 1.436 1.32809 0
M  V30 9613 O 907.365 1.89472 1.94455 0
M  V30 9614 C 905.821 3.599 -0.00223937 0
M  V30 9615 C 905.429 4.26969 -1.35651 0
M  V30 9616 C 907.173 4.2187 0.471822 0
M  V30 9617 C 905.08 5.77194 -1.28843 0
M  V30 9618 H 904.01 0.753965 -0.00725504 0
M  V30 9619 H 906.661 1.69467 -0.703789 0
M  V30 9620 H 905.043 3.89068 0.737682 0
M  V30 9621 H 906.217 4.09444 -2.11406 0
M  V30 9622 H 904.532 3.76983 -1.76842 0
M  V30 9623 H 907.129 5.31955 0.541139 0
M  V30 9624 H 907.472 3.88968 1.48356 0
M  V30 9625 H 908.005 3.97228 -0.213207 0
M  V30 9626 H 904.744 6.14713 -2.27613 0
M  V30 9627 H 904.264 5.9706 -0.572668 0
M  V30 9628 H 905.943 6.3938 -0.990031 0
M  V30 9629 N 906.075 0.2925 1.54862 0
M  V30 9630 C 907.321 -0.319736 2.00264 0
M  V30 9631 C 907.654 -1.5419 1.18064 0
M  V30 9632 O 906.929 -1.92821 0.254983 0
M  V30 9633 C 907.212 -0.684753 3.5353 0
M  V30 9634 C 907.065 0.545961 4.46474 0
M  V30 9635 C 908.384 -1.51456 4.13218 0
M  V30 9636 H 905.503 -0.11474 0.728014 0
M  V30 9637 H 908.145 0.402907 1.85679 0
M  V30 9638 H 906.295 -1.30044 3.66089 0
M  V30 9639 H 907.967 1.18448 4.45834 0
M  V30 9640 H 906.21 1.1808 4.1742 0
M  V30 9641 H 906.881 0.246544 5.51449 0
M  V30 9642 H 909.357 -0.994421 4.04043 0
M  V30 9643 H 908.233 -1.73875 5.20633 0
M  V30 9644 H 908.494 -2.5011 3.64551 0
M  V30 9645 N 907.553 -1.57587 0.0200696 0
M  V30 9646 C 908.969 -1.56018 -0.336237 0
M  V30 9647 C 909.169 -1.02478 -1.73495 0
M  V30 9648 O 908.225 -0.667487 -2.43518 0
M  V30 9649 C 909.538 -3.00079 -0.193112 0
M  V30 9650 C 911.086 -3.11863 -0.266557 0
M  V30 9651 C 911.561 -4.57747 -0.152326 0
M  V30 9652 N 913.052 -4.62726 -0.209596 0
M  V30 9653 C 913.787 -5.73217 -0.144855 0
M  V30 9654 N 913.283 -6.92794 -0.0295487 0
M  V30 9655 N 915.076 -5.61751 -0.198184 0
M  V30 9656 H 907.227 -1.90722 0.93482 0
M  V30 9657 H 909.49 -0.876909 0.360186 0
M  V30 9658 H 909.196 -3.43167 0.770036 0
M  V30 9659 H 909.07 -3.64593 -0.967029 0
M  V30 9660 H 911.457 -2.68693 -1.22016 0
M  V30 9661 H 911.538 -2.50087 0.53758 0
M  V30 9662 H 911.182 -5.01595 0.797817 0
M  V30 9663 H 911.112 -5.17491 -0.97521 0
M  V30 9664 H 913.603 -3.76713 -0.299229 0
M  V30 9665 H 913.916 -7.72799 0.0134071 0
M  V30 9666 H 912.261 -6.95 0.00510737 0
M  V30 9667 H 915.452 -4.67222 -0.286603 0
M  V30 9668 H 915.625 -6.47839 -0.144266 0
M  V30 9669 N 909.032 0.252966 -1.55557 0
M  V30 9670 C 909.995 1.29645 -1.8901 0
M  V30 9671 C 910.995 1.41378 -0.766096 0
M  V30 9672 O 912.185 1.40183 -1.03414 0
M  V30 9673 C 909.317 2.67504 -2.11316 0
M  V30 9674 H 910.51 1.01202 -2.82309 0
M  V30 9675 H 908.063 0.491977 -1.48355 0
M  V30 9676 H 908.798 3.01095 -1.20466 0
M  V30 9677 H 908.583 2.6037 -2.93172 0
M  V30 9678 H 910.073 3.42861 -2.38403 0
M  V30 9679 N 910.51 1.48831 0.518367 0
M  V30 9680 C 911.735 1.61379 1.30275 0
M  V30 9681 C 912.16 0.278571 1.86026 0
M  V30 9682 O 911.518 -0.751427 1.64995 0
M  V30 9683 C 911.566 2.67225 2.42122 0
M  V30 9684 O 910.67 2.25192 3.45489 0
M  V30 9685 H 910.011 0.540742 0.385349 0
M  V30 9686 H 912.541 1.949 0.622498 0
M  V30 9687 H 912.551 2.88859 2.8814 0
M  V30 9688 H 911.226 3.64155 2.00907 0
M  V30 9689 H 909.803 2.13819 3.05509 0
M  V30 9690 N 911.988 -0.768124 1.37614 0
M  V30 9691 C 913.236 -1.52379 1.3276 0
M  V30 9692 C 913.557 -1.94809 -0.0863564 0
M  V30 9693 O 912.827 -1.66568 -1.03112 0
M  V30 9694 H 911.407 -0.565179 0.488448 0
M  V30 9695 H 914.069 -0.913974 1.72141 0
M  V30 9696 H 913.165 -2.4215 1.96901 0
M  V30 9697 N 913.466 -1.22244 -0.994698 0
M  V30 9698 C 914.882 -0.982006 -1.25813 0
M  V30 9699 C 915.082 0.325488 -1.98854 0
M  V30 9700 O 914.138 1.04857 -2.29698 0
M  V30 9701 C 915.451 -2.1795 -2.07167 0
M  V30 9702 C 916.999 -2.22287 -2.20358 0
M  V30 9703 C 917.474 -3.41583 -3.05098 0
M  V30 9704 N 918.965 -3.41734 -3.12686 0
M  V30 9705 C 919.7 -4.30692 -3.78539 0
M  V30 9706 N 919.196 -5.29865 -4.46335 0
M  V30 9707 N 920.989 -4.18473 -3.75283 0
M  V30 9708 H 913.14 -2.0631 -0.504963 0
M  V30 9709 H 915.403 -0.90395 -0.285618 0
M  V30 9710 H 915.109 -3.12758 -1.60858 0
M  V30 9711 H 914.983 -2.17862 -3.07922 0
M  V30 9712 H 917.37 -1.28028 -2.65881 0
M  V30 9713 H 917.451 -2.26414 -1.19039 0
M  V30 9714 H 917.095 -4.36141 -2.60275 0
M  V30 9715 H 917.025 -3.34695 -4.06555 0
M  V30 9716 H 919.516 -2.69969 -2.64433 0
M  V30 9717 H 919.829 -5.94027 -4.9432 0
M  V30 9718 H 918.174 -5.3378 -4.45089 0
M  V30 9719 H 921.365 -3.40249 -3.21478 0
M  V30 9720 H 921.538 -4.88007 -4.26326 0
M  V30 9721 N 914.944 1.19125 -1.03184 0
M  V30 9722 C 915.854 2.26112 -0.625329 0
M  V30 9723 C 916.87 1.7056 0.344298 0
M  V30 9724 O 918.046 2.0039 0.20144 0
M  V30 9725 C 915.111 3.46697 0.0145169 0
M  V30 9726 C 914.172 4.17419 -1.00299 0
M  V30 9727 C 913.405 5.32247 -0.393581 0
M  V30 9728 O 913.628 5.64724 0.802659 0
M  V30 9729 O 912.562 5.91428 -1.1179 0
M  V30 9730 H 916.388 2.63131 -1.51643 0
M  V30 9731 H 913.973 1.26036 -0.802197 0
M  V30 9732 H 915.855 4.19762 0.371139 0
M  V30 9733 H 914.53 3.11521 0.879581 0
M  V30 9734 H 913.437 3.4646 -1.41125 0
M  V30 9735 H 914.77 4.56573 -1.83852 0
M  V30 9736 N 916.422 0.810101 1.35185 0
M  V30 9737 C 917.352 0.237453 2.32289 0
M  V30 9738 C 918.333 -0.639032 1.5764 0
M  V30 9739 O 919.518 -0.568575 1.8569 0
M  V30 9740 C 916.648 -0.611964 3.41866 0
M  V30 9741 C 915.602 0.166318 4.27677 0
M  V30 9742 C 914.928 -0.805024 5.28605 0
M  V30 9743 C 916.228 1.36729 5.04086 0
M  V30 9744 H 917.922 1.04874 2.80432 0
M  V30 9745 H 915.468 0.505751 1.34826 0
M  V30 9746 H 917.421 -1.02267 4.08802 0
M  V30 9747 H 916.145 -1.45617 2.92341 0
M  V30 9748 H 914.804 0.558238 3.62325 0
M  V30 9749 H 914.452 -1.64483 4.75347 0
M  V30 9750 H 914.152 -0.288577 5.86891 0
M  V30 9751 H 915.676 -1.21386 5.98413 0
M  V30 9752 H 917.09 1.03128 5.63948 0
M  V30 9753 H 915.487 1.81848 5.71884 0
M  V30 9754 H 916.557 2.15214 4.34524 0
M  V30 9755 N 917.9 -1.47166 0.563914 0
M  V30 9756 C 919.125 -2.0735 0.0454698 0
M  V30 9757 C 919.55 -1.41281 -1.24182 0
M  V30 9758 O 918.908 -0.490084 -1.7455 0
M  V30 9759 C 918.956 -3.60378 -0.126453 0
M  V30 9760 O 918.06 -3.94934 -1.18746 0
M  V30 9761 H 917.401 -0.661773 0.0543377 0
M  V30 9762 H 919.931 -1.89086 0.781508 0
M  V30 9763 H 919.941 -4.06593 -0.338554 0
M  V30 9764 H 918.616 -4.07862 0.81373 0
M  V30 9765 H 917.193 -3.60455 -0.955318 0
M  V30 9766 N 919.378 -0.300708 -1.54705 0
M  V30 9767 C 920.608 0.310819 -2.04249 0
M  V30 9768 C 921.016 1.4809 -1.17754 0
M  V30 9769 O 920.359 1.82654 -0.195779 0
M  V30 9770 C 920.421 0.83014 -3.49784 0
M  V30 9771 C 920.085 -0.214628 -4.56496 0
M  V30 9772 C 921.082 -1.04298 -5.09331 0
M  V30 9773 C 918.767 -0.356242 -5.01035 0
M  V30 9774 C 920.761 -1.99889 -6.05246 0
M  V30 9775 C 918.448 -1.3156 -5.96771 0
M  V30 9776 C 919.446 -2.1354 -6.4876 0
M  V30 9777 O 919.134 -3.07849 -7.4262 0
M  V30 9778 H 918.866 0.0715341 -0.672204 0
M  V30 9779 H 921.42 -0.438179 -2.00672 0
M  V30 9780 H 919.65 1.62966 -3.50684 0
M  V30 9781 H 921.339 1.35752 -3.82526 0
M  V30 9782 H 922.105 -0.944439 -4.75716 0
M  V30 9783 H 917.984 0.271916 -4.60197 0
M  V30 9784 H 921.528 -2.63917 -6.45751 0
M  V30 9785 H 917.425 -1.41486 -6.29803 0
M  V30 9786 H 918.193 -3.02824 -7.60421 0
M  V30 9787 N 920.856 1.57574 -0.0284266 0
M  V30 9788 C 922.102 1.92056 0.651327 0
M  V30 9789 C 922.435 0.905092 1.71819 0
M  V30 9790 O 921.71 -0.0722703 1.94366 0
M  V30 9791 C 921.993 3.37021 1.26841 0
M  V30 9792 C 921.846 4.49304 0.211157 0
M  V30 9793 C 923.165 3.81936 2.18662 0
M  V30 9794 H 920.284 0.698428 0.235304 0
M  V30 9795 H 922.926 1.89807 -0.0855435 0
M  V30 9796 H 921.076 3.39068 1.89644 0
M  V30 9797 H 922.748 4.5939 -0.419379 0
M  V30 9798 H 920.991 4.31317 -0.463445 0
M  V30 9799 H 921.662 5.47764 0.682518 0
M  V30 9800 H 924.138 3.8162 1.65847 0
M  V30 9801 H 923.014 4.84064 2.58792 0
M  V30 9802 H 923.275 3.174 3.07749 0
M  V30 9803 N 922.334 -0.244713 1.55689 0
M  V30 9804 C 923.264 -1.30667 1.93516 0
M  V30 9805 C 924.245 -1.50094 0.800371 0
M  V30 9806 O 925.43 -1.62665 1.06083 0
M  V30 9807 C 922.56 -2.66101 2.23176 0
M  V30 9808 C 921.514 -2.61366 3.38927 0
M  V30 9809 C 920.84 -4.00616 3.54134 0
M  V30 9810 C 922.14 -2.18161 4.74555 0
M  V30 9811 H 923.834 -0.992546 2.82469 0
M  V30 9812 H 921.38 -0.476018 1.35905 0
M  V30 9813 H 923.333 -3.4053 2.48228 0
M  V30 9814 H 922.057 -2.99154 1.31051 0
M  V30 9815 H 920.716 -1.89395 3.13887 0
M  V30 9816 H 920.364 -4.30938 2.59426 0
M  V30 9817 H 920.064 -3.98335 4.31975 0
M  V30 9818 H 921.588 -4.76741 3.8151 0
M  V30 9819 H 923.002 -2.82323 4.98965 0
M  V30 9820 H 921.399 -2.26988 5.55515 0
M  V30 9821 H 922.469 -1.13333 4.7147 0
M  V30 9822 N 923.813 -1.49104 -0.510467 0
M  V30 9823 C 924.743 -1.67981 -1.62187 0
M  V30 9824 C 925.724 -0.528529 -1.6168 0
M  V30 9825 O 926.909 -0.763305 -1.7857 0
M  V30 9826 C 924.039 -1.73755 -3.0071 0
M  V30 9827 C 922.993 -2.88579 -3.1608 0
M  V30 9828 C 922.319 -2.79457 -4.5586 0
M  V30 9829 C 923.619 -4.29638 -2.97 0
M  V30 9830 H 925.313 -2.61029 -1.46643 0
M  V30 9831 H 922.859 -1.25615 -0.704042 0
M  V30 9832 H 924.812 -1.85548 -3.78352 0
M  V30 9833 H 923.536 -0.772996 -3.17321 0
M  V30 9834 H 922.195 -2.76372 -2.40861 0
M  V30 9835 H 921.843 -1.80929 -4.69333 0
M  V30 9836 H 921.543 -3.56518 -4.67086 0
M  V30 9837 H 923.067 -2.93245 -5.35574 0
M  V30 9838 H 924.481 -4.42575 -3.64418 0
M  V30 9839 H 922.878 -5.07847 -3.19704 0
M  V30 9840 H 923.948 -4.44741 -1.93219 0
M  V30 9841 N 925.291 0.760815 -1.38019 0
M  V30 9842 C 926.519 1.55001 -1.37048 0
M  V30 9843 C 926.934 1.88754 0.0415261 0
M  V30 9844 O 926.291 1.52254 1.00624 0
M  V30 9845 C 926.342 2.8536 -2.21928 0
M  V30 9846 O 926.063 2.53049 -3.57628 0
M  V30 9847 C 927.564 3.79536 -2.29057 0
M  V30 9848 H 924.784 0.479844 -0.469032 0
M  V30 9849 H 927.328 0.942148 -1.81504 0
M  V30 9850 H 925.483 3.42542 -1.80953 0
M  V30 9851 H 925.897 3.36604 -4.02241 0
M  V30 9852 H 927.371 4.67977 -2.92749 0
M  V30 9853 H 927.848 4.19453 -1.30213 0
M  V30 9854 H 928.454 3.28281 -2.70392 0
M  V30 9855 N 926.769 1.22769 0.988202 0
M  V30 9856 C 928.017 1.05301 1.725 0
M  V30 9857 C 928.338 -0.412103 1.90596 0
M  V30 9858 O 927.608 -1.29606 1.46898 0
M  V30 9859 H 926.188 0.386658 0.639144 0
M  V30 9860 H 928.85 1.54359 1.18993 0
M  V30 9861 H 927.946 1.53465 2.71763 0
M  V30 9862 N 928.247 -1.18576 1.03814 0
M  V30 9863 C 929.496 -1.87822 0.735235 0
M  V30 9864 C 929.809 -1.81069 -0.739819 0
M  V30 9865 O 931.015 -2.45654 -1.15614 0
M  V30 9866 C 929.471 -3.36941 1.26486 0
M  V30 9867 C 929.079 -3.5223 2.76836 0
M  V30 9868 C 930.823 -4.11604 1.03836 0
M  V30 9869 C 928.73 -4.95294 3.23169 0
M  V30 9870 H 927.66 -0.703487 0.271333 0
M  V30 9871 H 930.311 -1.34 1.25365 0
M  V30 9872 H 928.693 -3.90217 0.674318 0
M  V30 9873 H 929.867 -3.09239 3.41625 0
M  V30 9874 H 928.182 -2.90969 2.97869 0
M  V30 9875 H 930.779 -5.17123 1.3597 0
M  V30 9876 H 931.122 -4.16293 -0.0244945 0
M  V30 9877 H 931.655 -3.64494 1.59338 0
M  V30 9878 H 928.394 -4.95772 4.28824 0
M  V30 9879 H 927.914 -5.3901 2.63113 0
M  V30 9880 H 929.593 -5.63996 3.17045 0
M  V30 9881 N 929.725 -0.817259 -1.34754 0
M  V30 9882 C 930.972 -0.402648 -1.98457 0
M  V30 9883 C 931.3 1.03287 -1.64809 0
M  V30 9884 O 930.555 1.73316 -0.908851 0
M  V30 9885 C 930.854 -0.5453 -3.53216 0
M  V30 9886 C 930.52 -1.9457 -4.06759 0
M  V30 9887 C 929.182 -2.32881 -4.21094 0
M  V30 9888 C 931.534 -2.86141 -4.35629 0
M  V30 9889 C 928.862 -3.62108 -4.61622 0
M  V30 9890 C 931.214 -4.14826 -4.776 0
M  V30 9891 C 929.878 -4.53121 -4.9014 0
M  V30 9892 H 929.148 -0.147339 -0.726204 0
M  V30 9893 H 931.795 -1.04011 -1.60791 0
M  V30 9894 H 930.1 0.175576 -3.91406 0
M  V30 9895 H 931.797 -0.205112 -4.00475 0
M  V30 9896 H 928.387 -1.6381 -3.96061 0
M  V30 9897 H 932.571 -2.57788 -4.24098 0
M  V30 9898 H 927.827 -3.91613 -4.69521 0
M  V30 9899 H 932.001 -4.85874 -4.98899 0
M  V30 9900 H 929.628 -5.53307 -5.21302 0
M  V30 9901 N 931.203 1.46865 -0.571711 0
M  V30 9902 C 932.133 2.3298 0.155795 0
M  V30 9903 C 933.114 1.44678 0.894553 0
M  V30 9904 O 934.299 1.73513 0.872176 0
M  V30 9905 C 931.429 3.26745 1.17708 0
M  V30 9906 C 930.383 4.24401 0.553863 0
M  V30 9907 C 929.709 5.07595 1.68083 0
M  V30 9908 C 931.009 5.19884 -0.501827 0
M  V30 9909 H 932.703 2.94056 -0.563176 0
M  V30 9910 H 930.249 1.41402 -0.27228 0
M  V30 9911 H 932.202 3.85838 1.6943 0
M  V30 9912 H 930.926 2.63753 1.92618 0
M  V30 9913 H 929.585 3.66554 0.057815 0
M  V30 9914 H 929.233 4.40996 2.41933 0
M  V30 9915 H 928.933 5.73722 1.26953 0
M  V30 9916 H 930.457 5.6955 2.20103 0
M  V30 9917 H 931.871 5.73257 -0.0701057 0
M  V30 9918 H 930.268 5.94293 -0.832815 0
M  V30 9919 H 931.338 4.64482 -1.39229 0
M  V30 9920 N 932.681 0.308908 1.54543 0
M  V30 9921 C 933.921 -0.298811 2.02204 0
M  V30 9922 C 934.285 -1.50484 1.19242 0
M  V30 9923 O 935.486 -2.18445 1.56637 0
M  V30 9924 C 933.757 -0.638849 3.51644 0
M  V30 9925 S 935.316 -1.22831 4.21258 0
M  V30 9926 H 932.134 -0.0912638 0.705118 0
M  V30 9927 H 934.736 0.438622 1.90516 0
M  V30 9928 H 933.44 0.24726 4.09654 0
M  V30 9929 H 932.971 -1.40687 3.67384 0
M  V30 9930 H 934.986 -2.51579 4.27694 0
M  V30 9931 N 934.159 -1.57557 0.0367827 0
M  V30 9932 C 935.389 -1.96134 -0.649225 0
M  V30 9933 C 935.797 -0.912279 -1.65753 0
M  V30 9934 O 935.14 0.113569 -1.83349 0
M  V30 9935 C 935.202 -3.30889 -1.40545 0
M  V30 9936 C 934.866 -4.53622 -0.554609 0
M  V30 9937 C 935.863 -5.19611 0.17331 0
M  V30 9938 C 933.548 -4.99907 -0.48976 0
M  V30 9939 C 935.542 -6.3021 0.95467 0
M  V30 9940 C 933.229 -6.10386 0.295299 0
M  V30 9941 C 934.227 -6.75398 1.01621 0
M  V30 9942 O 933.915 -7.83755 1.78839 0
M  V30 9943 H 933.647 -0.650662 -0.183344 0
M  V30 9944 H 936.201 -2.05179 0.0951512 0
M  V30 9945 H 934.431 -3.18356 -2.19513 0
M  V30 9946 H 936.12 -3.54315 -1.9803 0
M  V30 9947 H 936.886 -4.84819 0.132589 0
M  V30 9948 H 932.765 -4.49105 -1.04046 0
M  V30 9949 H 936.309 -6.80886 1.51789 0
M  V30 9950 H 932.206 -6.44616 0.33771 0
M  V30 9951 H 932.974 -8.0046 1.70898 0
M  V30 9952 N 935.637 0.236453 -1.55816 0
M  V30 9953 C 936.862 0.98449 -1.82545 0
M  V30 9954 C 937.287 1.77755 -0.615206 0
M  V30 9955 O 936.645 1.75982 0.435895 0
M  V30 9956 C 936.693 1.88973 -3.07118 0
M  V30 9957 O 935.797 2.98298 -2.84766 0
M  V30 9958 H 935.138 0.279577 -0.602273 0
M  V30 9959 H 937.668 0.254277 -2.03014 0
M  V30 9960 H 937.678 2.3024 -3.36829 0
M  V30 9961 H 936.353 1.30671 -3.94839 0
M  V30 9962 H 934.93 2.61085 -2.6625 0
M  V30 9963 N 937.115 1.49373 0.502552 0
M  V30 9964 C 938.364 1.58028 1.25339 0
M  V30 9965 C 938.677 0.271494 1.93707 0
M  V30 9966 O 939.883 0.236584 2.70467 0
M  V30 9967 C 938.339 2.78817 2.27572 0
M  V30 9968 C 937.947 4.16448 1.65151 0
M  V30 9969 C 939.691 2.96802 3.03494 0
M  V30 9970 C 937.598 5.28461 2.65486 0
M  V30 9971 H 936.528 0.588396 0.471494 0
M  V30 9972 H 939.179 1.75756 0.52744 0
M  V30 9973 H 937.561 2.5458 3.03323 0
M  V30 9974 H 938.735 4.50816 0.954029 0
M  V30 9975 H 937.05 4.03809 1.01625 0
M  V30 9976 H 939.647 3.77656 3.78524 0
M  V30 9977 H 939.99 2.07303 3.61014 0
M  V30 9978 H 940.523 3.21071 2.34858 0
M  V30 9979 H 937.262 6.20015 2.12749 0
M  V30 9980 H 936.782 4.9855 3.33479 0
M  V30 9981 H 938.461 5.5773 3.27943 0
M  V30 9982 N 938.594 -0.753485 1.38421 0
M  V30 9983 C 939.822 -1.54272 1.37868 0
M  V30 9984 C 940.237 -1.88774 -0.0315155 0
M  V30 9985 O 939.594 -1.52785 -0.998148 0
M  V30 9986 C 939.645 -2.84179 2.23438 0
M  V30 9987 O 939.366 -2.51149 3.58965 0
M  V30 9988 C 940.867 -3.78316 2.31067 0
M  V30 9989 H 938.087 -0.47735 0.47157 0
M  V30 9990 H 940.631 -0.932509 1.82001 0
M  V30 9991 H 938.786 -3.41577 1.82767 0
M  V30 9992 H 939.2 -3.34466 4.04021 0
M  V30 9993 H 940.674 -4.66418 2.95226 0
M  V30 9994 H 941.151 -4.18757 1.32436 0
M  V30 9995 H 941.757 -3.26842 2.72129 0
M  V30 9996 N 940.072 -1.23292 -0.981677 0
M  V30 9997 C 941.319 -1.06424 -1.72279 0
M  V30 9998 C 941.647 0.399055 -1.90362 0
M  V30 9999 O 940.902 1.31181 -1.45224 0
M  V30 10000 C 941.201 -1.73339 -3.12551 0
M  V30 10001 C 940.867 -3.23256 -3.14351 0
M  V30 10002 C 939.529 -3.64159 -3.14549 0
M  V30 10003 C 941.881 -4.1916 -3.09765 0
M  V30 10004 C 939.209 -4.99428 -3.07877 0
M  V30 10005 C 941.561 -5.54419 -3.04635 0
M  V30 10006 C 940.225 -5.94688 -3.03154 0
M  V30 10007 H 939.495 -0.389434 -0.630415 0
M  V30 10008 H 942.142 -1.53208 -1.1489 0
M  V30 10009 H 940.447 -1.18911 -3.73319 0
M  V30 10010 H 942.144 -1.57767 -3.68661 0
M  V30 10011 H 938.734 -2.90693 -3.14953 0
M  V30 10012 H 942.918 -3.88569 -3.08753 0
M  V30 10013 H 938.174 -5.29844 -3.05083 0
M  V30 10014 H 942.348 -6.28448 -3.00043 0
M  V30 10015 H 939.975 -6.99468 -2.97739 0
M  V30 10016 N 941.55 1.18024 -1.04442 0
M  V30 10017 C 942.48 2.23988 -0.659683 0
M  V30 10018 C 943.461 1.6669 0.338904 0
M  V30 10019 O 944.646 1.92971 0.21817 0
M  V30 10020 C 941.776 3.4729 -0.0257672 0
M  V30 10021 C 940.73 4.17362 -0.948299 0
M  V30 10022 C 940.056 5.34401 -0.17866 0
M  V30 10023 C 941.356 4.70435 -2.26909 0
M  V30 10024 H 943.05 2.56425 -1.54553 0
M  V30 10025 H 940.596 1.23256 -0.744575 0
M  V30 10026 H 942.549 4.20627 0.255131 0
M  V30 10027 H 941.273 3.14098 0.894981 0
M  V30 10028 H 939.932 3.45928 -1.21364 0
M  V30 10029 H 939.58 4.97458 0.744614 0
M  V30 10030 H 939.28 5.8222 -0.793294 0
M  V30 10031 H 940.804 6.10526 0.0951315 0
M  V30 10032 H 942.218 5.35447 -2.04864 0
M  V30 10033 H 940.615 5.28803 -2.83703 0
M  V30 10034 H 941.685 3.87653 -2.91296 0
M  V30 10035 N 943.028 0.824394 1.34319 0
M  V30 10036 C 943.961 0.192544 2.27386 0
M  V30 10037 C 944.939 -0.651901 1.4896 0
M  V30 10038 O 946.123 -0.615321 1.78174 0
M  V30 10039 C 943.25 -0.730958 3.30718 0
M  V30 10040 C 942.296 0.0361484 4.26485 0
M  V30 10041 S 943.129 1.3843 5.17298 0
M  V30 10042 C 944.285 0.465713 6.24165 0
M  V30 10043 H 944.518 0.981573 2.80629 0
M  V30 10044 H 942.051 0.620371 1.41389 0
M  V30 10045 H 944.009 -1.25822 3.90742 0
M  V30 10046 H 942.67 -1.49352 2.7632 0
M  V30 10047 H 941.863 -0.665969 4.99581 0
M  V30 10048 H 941.465 0.494011 3.70723 0
M  V30 10049 H 943.757 -0.342157 6.76635 0
M  V30 10050 H 944.7 1.16639 6.98427 0
M  V30 10051 H 945.108 0.0534895 5.64475 0
M  V30 10052 N 944.506 -1.46559 0.579492 0
M  V30 10053 C 945.755 -2.01606 0.0615735 0
M  V30 10054 C 946.068 -1.45695 -1.30508 0
M  V30 10055 O 947.274 -1.92541 -1.91416 0
M  V30 10056 C 945.73 -3.59851 0.059496 0
M  V30 10057 C 945.338 -4.24757 1.42427 0
M  V30 10058 C 947.082 -4.22567 -0.404646 0
M  V30 10059 C 944.989 -5.75072 1.38009 0
M  V30 10060 H 943.919 -0.753754 0.0192491 0
M  V30 10061 H 946.57 -1.68326 0.73066 0
M  V30 10062 H 944.952 -3.90193 -0.675691 0
M  V30 10063 H 946.126 -4.06029 2.17893 0
M  V30 10064 H 944.441 -3.74121 1.82817 0
M  V30 10065 H 947.038 -5.32748 -0.456441 0
M  V30 10066 H 947.381 -3.91279 -1.42149 0
M  V30 10067 H 947.914 -3.96839 0.276376 0
M  V30 10068 H 944.653 -6.11014 2.37364 0
M  V30 10069 H 944.173 -5.96073 0.667583 0
M  V30 10070 H 945.852 -6.37724 1.09163 0
M  V30 10071 N 945.984 -0.3171 -1.54377 0
M  V30 10072 C 946.947 0.53905 -2.22771 0
M  V30 10073 C 947.947 1.04865 -1.21901 0
M  V30 10074 O 949.137 0.942108 -1.46526 0
M  V30 10075 C 946.269 1.74804 -2.92671 0
M  V30 10076 H 947.462 -0.0587417 -2.99842 0
M  V30 10077 H 945.015 -0.068107 -1.56152 0
M  V30 10078 H 945.75 2.38524 -2.1972 0
M  V30 10079 H 945.535 1.39011 -3.66631 0
M  V30 10080 H 947.025 2.35592 -3.44799 0
M  V30 10081 N 947.462 1.57535 -0.0451378 0
M  V30 10082 C 948.425 2.1008 0.916461 0
M  V30 10083 C 949.425 1.01913 1.2438 0
M  V30 10084 O 950.615 1.2801 1.18148 0
M  V30 10085 C 947.747 2.58001 2.22818 0
M  V30 10086 H 948.94 2.96334 0.461076 0
M  V30 10087 H 946.493 1.54974 0.203169 0
M  V30 10088 H 947.228 1.75123 2.72951 0
M  V30 10089 H 947.013 3.3704 2.00366 0
M  V30 10090 H 948.503 2.98822 2.9171 0
M  V30 10091 N 948.94 -0.228186 1.55939 0
M  V30 10092 C 950.351 -0.795734 1.68893 0
M  V30 10093 C 950.702 -1.85261 0.645967 0
M  V30 10094 O 949.827 -2.15434 -0.2042 0
M  V30 10095 C 950.422 -1.45013 3.06197 0
M  V30 10096 C 948.981 -1.96514 3.21028 0
M  V30 10097 C 948.128 -0.822918 2.64808 0
M  V30 10098 H 951.079 -0.0036485 1.587 0
M  V30 10099 H 951.1 -2.31875 3.01685 0
M  V30 10100 H 950.612 -0.680678 3.82084 0
M  V30 10101 H 948.713 -2.76282 2.49998 0
M  V30 10102 H 948.826 -2.14967 4.28166 0
M  V30 10103 H 947.19 -1.22846 2.23116 0
M  V30 10104 H 947.973 -0.0662493 3.43236 0
M  V30 10105 N 950.418 -1.49637 -0.494624 0
M  V30 10106 C 951.695 -1.4995 -1.25596 0
M  V30 10107 C 952.075 -0.230805 -2.09834 0
M  V30 10108 O 951.423 0.786625 -2.14533 0
M  V30 10109 C 951.633 -2.78204 -2.10721 0
M  V30 10110 C 952.981 -3.27946 -2.69698 0
M  V30 10111 O 954.005 -2.79365 -2.20984 0
M  V30 10112 O 952.864 -4.12571 -3.58395 0
M  V30 10113 H 949.958 -0.60044 -0.568684 0
M  V30 10114 H 952.504 -1.61906 -0.508371 0
M  V30 10115 H 951.276 -3.62029 -1.48494 0
M  V30 10116 H 950.899 -2.69139 -2.92661 0
M  V30 10117 N 951.896 0.746133 -1.38819 0
M  V30 10118 C 953.124 1.53539 -1.38685 0
M  V30 10119 C 953.539 1.88788 0.0215039 0
M  V30 10120 O 952.896 1.53312 0.990031 0
M  V30 10121 C 952.947 2.8299 -2.24942 0
M  V30 10122 O 952.668 2.49242 -3.60292 0
M  V30 10123 C 954.169 3.77085 -2.3307 0
M  V30 10124 H 951.389 0.474842 -0.474095 0
M  V30 10125 H 953.933 0.922844 -1.82493 0
M  V30 10126 H 952.088 3.40603 -1.84576 0
M  V30 10127 H 952.502 3.32319 -4.05789 0
M  V30 10128 H 953.976 4.64845 -2.97696 0
M  V30 10129 H 954.453 4.18049 -1.34655 0
M  V30 10130 H 955.059 3.25394 -2.73859 0
M  V30 10131 N 953.375 1.23811 0.975125 0
M  V30 10132 C 954.624 1.06741 1.71141 0
M  V30 10133 C 954.937 -0.394986 1.9157 0
M  V30 10134 O 956.143 -0.685723 2.62698 0
M  V30 10135 C 954.599 1.86168 3.08009 0
M  V30 10136 C 954.207 3.36771 2.95448 0
M  V30 10137 C 955.951 1.77604 3.85561 0
M  V30 10138 C 953.858 4.0857 4.2758 0
M  V30 10139 H 952.788 0.395819 0.64175 0
M  V30 10140 H 955.439 1.47825 1.0872 0
M  V30 10141 H 953.821 1.37893 3.71216 0
M  V30 10142 H 954.995 3.92571 2.41298 0
M  V30 10143 H 953.31 3.46205 2.31368 0
M  V30 10144 H 955.907 2.28556 4.83391 0
M  V30 10145 H 956.25 0.739837 4.09673 0
M  V30 10146 H 956.783 2.23519 3.29065 0
M  V30 10147 H 953.522 5.12518 4.08663 0
M  V30 10148 H 953.042 3.57556 4.81574 0
M  V30 10149 H 954.721 4.15157 4.9624 0
M  V30 10150 N 954.853 -1.17469 1.05066 0
M  V30 10151 C 956.102 -1.87032 0.755114 0
M  V30 10152 C 956.415 -1.81844 -0.720572 0
M  V30 10153 O 957.621 -2.46866 -1.13002 0
M  V30 10154 C 956.077 -3.35581 1.30052 0
M  V30 10155 C 955.685 -3.49274 2.80556 0
M  V30 10156 C 957.429 -4.1048 1.08196 0
M  V30 10157 C 955.336 -4.91838 3.28404 0
M  V30 10158 H 954.266 -0.70057 0.278779 0
M  V30 10159 H 956.917 -1.32663 1.26779 0
M  V30 10160 H 955.299 -3.89479 0.715667 0
M  V30 10161 H 956.473 -3.05598 3.44886 0
M  V30 10162 H 954.788 -2.87793 3.00939 0
M  V30 10163 H 957.385 -5.15652 1.41447 0
M  V30 10164 H 957.728 -4.16295 0.0196603 0
M  V30 10165 H 958.261 -3.62784 1.63195 0
M  V30 10166 H 955 -4.91196 4.34058 0
M  V30 10167 H 954.52 -5.36189 2.68815 0
M  V30 10168 H 956.199 -5.60602 3.23009 0
M  V30 10169 N 956.331 -0.831506 -1.3388 0
M  V30 10170 C 957.571 -0.429648 -1.99833 0
M  V30 10171 C 957.935 0.990796 -1.6446 0
M  V30 10172 O 959.136 1.49599 -2.23324 0
M  V30 10173 C 957.407 -0.635558 -3.51704 0
M  V30 10174 S 958.966 -0.327824 -4.37574 0
M  V30 10175 H 955.784 -0.161939 -0.692313 0
M  V30 10176 H 958.386 -1.07919 -1.63015 0
M  V30 10177 H 957.09 -1.66887 -3.74936 0
M  V30 10178 H 956.621 0.0284073 -3.9339 0
M  V30 10179 H 958.636 0.855231 -4.88774 0
M  V30 10180 N 957.809 1.4625 -0.587256 0
M  V30 10181 C 959.034 2.07252 -0.0784517 0
M  V30 10182 C 959.459 1.43239 1.21919 0
M  V30 10183 O 958.817 0.517791 1.73749 0
M  V30 10184 C 958.865 3.60534 0.0691037 0
M  V30 10185 O 957.969 3.96773 1.12448 0
M  V30 10186 H 957.31 0.660825 -0.064859 0
M  V30 10187 H 959.84 1.87819 -0.811491 0
M  V30 10188 H 959.85 4.0708 0.273826 0
M  V30 10189 H 958.525 4.06516 -0.878514 0
M  V30 10190 H 957.102 3.6193 0.897852 0
M  V30 10191 N 959.287 0.325282 1.54207 0
M  V30 10192 C 960.534 -0.276775 2.006 0
M  V30 10193 C 960.862 -1.52007 1.21343 0
M  V30 10194 O 960.117 -1.93627 0.284104 0
M  V30 10195 C 960.416 -0.654292 3.5136 0
M  V30 10196 C 960.082 0.490023 4.48229 0
M  V30 10197 C 958.744 0.804104 4.74434 0
M  V30 10198 C 961.096 1.2586 5.05775 0
M  V30 10199 C 958.424 1.88945 5.55443 0
M  V30 10200 C 960.776 2.33405 5.87967 0
M  V30 10201 C 959.44 2.65393 6.12473 0
M  V30 10202 H 958.71 -0.101279 0.734046 0
M  V30 10203 H 961.357 0.449416 1.86152 0
M  V30 10204 H 959.662 -1.46093 3.63544 0
M  V30 10205 H 961.359 -1.13171 3.84699 0
M  V30 10206 H 957.949 0.235147 4.27954 0
M  V30 10207 H 962.133 1.02921 4.85511 0
M  V30 10208 H 957.389 2.14174 5.7266 0
M  V30 10209 H 961.563 2.93402 6.31576 0
M  V30 10210 H 959.19 3.49622 6.75032 0
M  V30 10211 N 960.765 -1.57509 0.0534917 0
M  V30 10212 C 962.181 -1.56696 -0.303067 0
M  V30 10213 C 962.381 -1.06135 -1.71282 0
M  V30 10214 O 961.437 -0.71899 -2.42047 0
M  V30 10215 C 962.75 -3.00421 -0.129418 0
M  V30 10216 C 964.298 -3.12358 -0.200346 0
M  V30 10217 C 964.773 -4.57967 -0.0551971 0
M  V30 10218 N 966.264 -4.63066 -0.111398 0
M  V30 10219 C 966.999 -5.73395 -0.0232344 0
M  V30 10220 N 966.495 -6.92701 0.11741 0
M  V30 10221 N 968.288 -5.62045 -0.078984 0
M  V30 10222 H 960.439 -1.88696 0.975064 0
M  V30 10223 H 962.702 -0.869072 0.378706 0
M  V30 10224 H 962.408 -3.41456 0.842653 0
M  V30 10225 H 962.282 -3.66563 -0.889476 0
M  V30 10226 H 964.669 -2.71221 -1.16289 0
M  V30 10227 H 964.75 -2.48891 0.590506 0
M  V30 10228 H 964.394 -4.9979 0.904034 0
M  V30 10229 H 964.324 -5.19443 -0.865223 0
M  V30 10230 H 966.815 -3.77263 -0.219256 0
M  V30 10231 H 967.128 -7.72597 0.177326 0
M  V30 10232 H 965.473 -6.94833 0.152526 0
M  V30 10233 H 968.664 -4.67725 -0.187434 0
M  V30 10234 H 968.837 -6.48 -0.00681731 0
M  V30 10235 N 962.243 0.219913 -1.56058 0
M  V30 10236 C 963.659 0.569685 -1.49086 0
M  V30 10237 C 963.859 1.87066 -0.748903 0
M  V30 10238 O 962.915 2.50838 -0.289235 0
M  V30 10239 C 964.228 0.647397 -2.93648 0
M  V30 10240 C 965.776 0.737914 -3.04177 0
M  V30 10241 C 966.251 0.846957 -4.50101 0
M  V30 10242 N 967.742 0.911136 -4.5415 0
M  V30 10243 C 968.477 1.01525 -5.64341 0
M  V30 10244 N 967.973 1.0832 -6.8428 0
M  V30 10245 N 969.766 1.05051 -5.52196 0
M  V30 10246 H 961.917 -0.633778 -2.02724 0
M  V30 10247 H 964.18 -0.222583 -0.921499 0
M  V30 10248 H 963.886 -0.238987 -3.50887 0
M  V30 10249 H 963.76 1.51046 -3.45637 0
M  V30 10250 H 966.147 1.61474 -2.47002 0
M  V30 10251 H 966.228 -0.150845 -2.55355 0
M  V30 10252 H 965.872 -0.0254166 -5.07894 0
M  V30 10253 H 965.802 1.75116 -4.96631 0
M  V30 10254 H 968.293 0.868869 -3.67776 0
M  V30 10255 H 968.606 1.16247 -7.64007 0
M  V30 10256 H 966.951 1.05231 -6.86987 0
M  V30 10257 H 970.142 0.994086 -4.57423 0
M  V30 10258 H 970.315 1.12819 -6.38103 0
M  V30 10259 N 963.721 1.49897 0.486681 0
M  V30 10260 C 964.967 1.60342 1.2417 0
M  V30 10261 C 965.3 0.295694 1.91936 0
M  V30 10262 O 964.575 -0.701788 1.81398 0
M  V30 10263 C 964.858 2.77281 2.29755 0
M  V30 10264 C 964.711 4.1789 1.66397 0
M  V30 10265 C 966.03 2.89817 3.31201 0
M  V30 10266 H 963.149 0.583605 0.450083 0
M  V30 10267 H 965.791 1.82232 0.537734 0
M  V30 10268 H 963.941 2.58748 2.89796 0
M  V30 10269 H 965.613 4.47975 1.10073 0
M  V30 10270 H 963.856 4.22872 0.967579 0
M  V30 10271 H 964.527 4.95612 2.43049 0
M  V30 10272 H 967.003 3.06732 2.81167 0
M  V30 10273 H 965.879 3.7329 4.02425 0
M  V30 10274 H 966.14 1.9977 3.94391 0
M  V30 10275 N 965.199 -0.738761 1.39212 0
M  V30 10276 C 966.446 -1.49824 1.36231 0
M  V30 10277 C 966.774 -1.94453 -0.0429552 0
M  V30 10278 O 966.029 -1.6683 -1.02304 0
M  V30 10279 C 966.328 -2.75435 2.2775 0
M  V30 10280 C 965.994 -2.49694 3.75451 0
M  V30 10281 C 964.656 -2.42383 4.15697 0
M  V30 10282 C 967.008 -2.27587 4.68885 0
M  V30 10283 C 964.336 -2.11001 5.47444 0
M  V30 10284 C 966.688 -1.97723 6.00906 0
M  V30 10285 C 965.352 -1.88879 6.4022 0
M  V30 10286 H 964.622 -0.548247 0.498504 0
M  V30 10287 H 967.269 -0.848244 1.71689 0
M  V30 10288 H 965.574 -3.45159 1.85398 0
M  V30 10289 H 967.271 -3.33449 2.22739 0
M  V30 10290 H 963.861 -2.56261 3.43552 0
M  V30 10291 H 968.045 -2.32206 4.38628 0
M  V30 10292 H 963.301 -2.02673 5.76831 0
M  V30 10293 H 967.475 -1.79625 6.72836 0
M  V30 10294 H 965.102 -1.64327 7.42227 0
M  V30 10295 N 966.677 -1.24326 -0.968545 0
M  V30 10296 C 967.607 -1.05951 -2.08079 0
M  V30 10297 C 968.588 0.0272666 -1.70078 0
M  V30 10298 O 969.773 -0.139644 -1.93697 0
M  V30 10299 C 966.903 -0.662623 -3.4092 0
M  V30 10300 C 965.857 -1.69807 -3.92873 0
M  V30 10301 C 965.183 -1.15628 -5.22048 0
M  V30 10302 C 966.483 -3.09383 -4.20808 0
M  V30 10303 H 968.177 -1.98984 -2.23709 0
M  V30 10304 H 965.723 -0.958112 -1.075 0
M  V30 10305 H 967.676 -0.521071 -4.18166 0
M  V30 10306 H 966.4 0.303399 -3.25188 0
M  V30 10307 H 965.059 -1.82783 -3.17783 0
M  V30 10308 H 964.707 -0.180888 -5.02675 0
M  V30 10309 H 964.407 -1.84822 -5.57776 0
M  V30 10310 H 965.931 -1.02683 -6.01904 0
M  V30 10311 H 967.345 -2.99642 -4.88761 0
M  V30 10312 H 965.742 -3.75923 -4.67763 0
M  V30 10313 H 966.812 -3.57486 -3.27616 0
M  V30 10314 N 968.156 1.1691 -1.05688 0
M  V30 10315 C 969.404 1.86922 -0.768409 0
M  V30 10316 C 969.725 1.81735 0.706921 0
M  V30 10317 O 968.995 1.24671 1.51109 0
M  V30 10318 H 967.575 0.69203 -0.281253 0
M  V30 10319 H 970.237 1.41803 -1.33708 0
M  V30 10320 H 969.333 2.92528 -1.08783 0
M  V30 10321 N 969.634 0.838594 1.33437 0
M  V30 10322 C 970.564 0.286672 2.31734 0
M  V30 10323 C 971.545 -0.605451 1.5896 0
M  V30 10324 O 972.73 -0.529059 1.86854 0
M  V30 10325 C 969.86 -0.539311 3.43087 0
M  V30 10326 C 968.814 0.256997 4.27228 0
M  V30 10327 C 968.14 -0.692718 5.30194 0
M  V30 10328 C 969.44 1.47391 5.01072 0
M  V30 10329 H 971.134 1.10798 2.78144 0
M  V30 10330 H 968.68 0.534235 1.33723 0
M  V30 10331 H 970.633 -0.935724 4.1088 0
M  V30 10332 H 969.357 -1.39383 2.95364 0
M  V30 10333 H 968.016 0.634967 3.61059 0
M  V30 10334 H 967.664 -1.54363 4.78729 0
M  V30 10335 H 967.364 -0.164023 5.87371 0
M  V30 10336 H 968.888 -1.08665 6.00853 0
M  V30 10337 H 970.302 1.15067 5.61634 0
M  V30 10338 H 968.699 1.93937 5.67898 0
M  V30 10339 H 969.769 2.24382 4.29861 0
M  V30 10340 N 971.112 -1.45937 0.595003 0
M  V30 10341 C 972.36 -2.01921 0.0851368 0
M  V30 10342 C 972.681 -1.46748 -1.28413 0
M  V30 10343 O 971.951 -0.656873 -1.84559 0
M  V30 10344 H 970.531 -0.746457 0.0284826 0
M  V30 10345 H 973.193 -1.78891 0.773561 0
M  V30 10346 H 972.289 -3.1209 0.0254002 0
M  V30 10347 N 972.59 -0.333456 -1.54032 0
M  V30 10348 C 973.523 0.570776 -2.20947 0
M  V30 10349 C 974.501 1.10811 -1.18994 0
M  V30 10350 O 975.685 1.17027 -1.47773 0
M  V30 10351 C 972.812 1.7842 -2.87896 0
M  V30 10352 C 971.858 1.37722 -4.03652 0
M  V30 10353 S 972.691 0.405548 -5.33962 0
M  V30 10354 C 973.847 1.62603 -6.0441 0
M  V30 10355 H 974.08 0.0023936 -2.973 0
M  V30 10356 H 971.613 -0.117531 -1.53952 0
M  V30 10357 H 973.571 2.48038 -3.27089 0
M  V30 10358 H 972.232 2.32378 -2.11327 0
M  V30 10359 H 971.425 2.28167 -4.49395 0
M  V30 10360 H 971.027 0.760628 -3.66184 0
M  V30 10361 H 973.319 2.56202 -6.2719 0
M  V30 10362 H 974.262 1.21058 -6.97675 0
M  V30 10363 H 974.67 1.8175 -5.34441 0
M  V30 10364 N 974.068 1.57479 -0.061844 0
M  V30 10365 C 975.308 1.94982 0.613309 0
M  V30 10366 C 975.672 0.940729 1.67375 0
M  V30 10367 O 976.873 1.20307 2.40374 0
M  V30 10368 C 975.144 3.37208 1.18429 0
M  V30 10369 S 976.703 3.96678 1.87596 0
M  V30 10370 H 973.521 0.681969 0.201096 0
M  V30 10371 H 976.123 1.95045 -0.133328 0
M  V30 10372 H 974.827 4.08441 0.400522 0
M  V30 10373 H 974.358 3.40665 1.96751 0
M  V30 10374 H 976.373 3.82772 3.15754 0
M  V30 10375 N 975.546 -0.211634 1.56173 0
M  V30 10376 C 976.793 -0.93455 1.79645 0
M  V30 10377 C 977.121 -1.83936 0.632294 0
M  V30 10378 O 976.376 -1.91919 -0.382841 0
M  V30 10379 C 976.675 -1.79657 3.08963 0
M  V30 10380 C 976.341 -1.04415 4.38644 0
M  V30 10381 C 975.003 -0.836351 4.73876 0
M  V30 10382 C 977.355 -0.51355 5.18664 0
M  V30 10383 C 974.683 -0.0861976 5.86637 0
M  V30 10384 C 977.035 0.223309 6.32206 0
M  V30 10385 C 975.699 0.442279 6.66033 0
M  V30 10386 H 974.969 -0.341976 0.657368 0
M  V30 10387 H 977.616 -0.202024 1.90431 0
M  V30 10388 H 975.921 -2.59726 2.93342 0
M  V30 10389 H 977.618 -2.35823 3.24328 0
M  V30 10390 H 974.208 -1.21611 4.10985 0
M  V30 10391 H 978.392 -0.661541 4.91871 0
M  V30 10392 H 973.648 0.0935866 6.11328 0
M  V30 10393 H 977.822 0.641917 6.93435 0
M  V30 10394 H 975.449 1.02547 7.53252 0
M  V30 10395 N 977.024 -1.50153 -0.478725 0
M  V30 10396 C 978.249 -1.64776 -1.2595 0
M  V30 10397 C 978.674 -0.327794 -1.85222 0
M  V30 10398 O 978.032 0.707418 -1.66929 0
M  V30 10399 C 978.08 -2.73551 -2.34952 0
M  V30 10400 O 977.184 -2.34273 -3.39397 0
M  V30 10401 H 976.525 -0.550769 -0.370877 0
M  V30 10402 H 979.055 -1.96482 -0.570605 0
M  V30 10403 H 979.065 -2.96397 -2.8038 0
M  V30 10404 H 977.74 -3.69354 -1.91181 0
M  V30 10405 H 976.317 -2.21844 -2.99733 0
M  V30 10406 N 978.502 0.731368 -1.39602 0
M  V30 10407 C 979.732 1.51839 -1.40102 0
M  V30 10408 C 980.14 1.89199 0.00526634 0
M  V30 10409 O 979.483 1.54877 0.987874 0
M  V30 10410 C 979.545 2.83292 -2.21328 0
M  V30 10411 C 979.209 2.68345 -3.69919 0
M  V30 10412 C 980.206 2.36651 -4.62917 0
M  V30 10413 C 977.891 2.85102 -4.13548 0
M  V30 10414 C 979.885 2.21901 -5.97527 0
M  V30 10415 C 977.572 2.69971 -5.48233 0
M  V30 10416 C 978.57 2.38416 -6.40037 0
M  V30 10417 O 978.258 2.23383 -7.72241 0
M  V30 10418 H 977.99 0.475695 -0.480302 0
M  V30 10419 H 980.544 0.911096 -1.84087 0
M  V30 10420 H 978.774 3.46294 -1.72096 0
M  V30 10421 H 980.463 3.44928 -2.13961 0
M  V30 10422 H 981.229 2.23352 -4.3051 0
M  V30 10423 H 977.108 3.08655 -3.42423 0
M  V30 10424 H 980.652 1.97193 -6.69149 0
M  V30 10425 H 976.549 2.82849 -5.8023 0
M  V30 10426 H 977.317 2.38425 -7.83004 0
M  V30 10427 N 979.98 1.24838 0.961938 0
M  V30 10428 C 980.943 1.04674 2.03902 0
M  V30 10429 C 981.943 0.00204674 1.608 0
M  V30 10430 O 983.133 0.243555 1.72489 0
M  V30 10431 C 980.265 0.587736 3.35795 0
M  V30 10432 H 981.458 2.00278 2.23223 0
M  V30 10433 H 979.011 1.07142 1.138 0
M  V30 10434 H 979.746 -0.371244 3.22168 0
M  V30 10435 H 979.531 1.34182 3.68426 0
M  V30 10436 H 981.021 0.467867 4.14971 0
M  V30 10437 N 981.458 -1.16348 1.06306 0
M  V30 10438 C 982.421 -2.18941 0.678053 0
M  V30 10439 C 983.421 -1.58409 -0.276277 0
M  V30 10440 O 984.611 -1.74101 -0.0586435 0
M  V30 10441 C 981.743 -3.409 -0.00228684 0
M  V30 10442 H 982.936 -2.54516 1.58624 0
M  V30 10443 H 980.489 -1.30625 0.858298 0
M  V30 10444 H 981.224 -3.10881 -0.923212 0
M  V30 10445 H 981.009 -3.86089 0.683949 0
M  V30 10446 H 982.499 -4.16806 -0.257374 0
M  V30 10447 N 982.937 -0.845659 -1.3299 0
M  V30 10448 C 983.867 -0.298957 -2.31578 0
M  V30 10449 C 984.848 0.597012 -1.59279 0
M  V30 10450 O 986.033 0.519142 -1.87132 0
M  V30 10451 C 983.163 0.521109 -3.43368 0
M  V30 10452 C 982.117 -0.279651 -4.27085 0
M  V30 10453 C 981.443 0.664591 -5.30554 0
M  V30 10454 C 982.743 -1.50046 -5.00283 0
M  V30 10455 H 984.437 -1.12272 -2.77552 0
M  V30 10456 H 981.983 -0.54132 -1.33438 0
M  V30 10457 H 983.936 0.913921 -4.1137 0
M  V30 10458 H 982.66 1.37815 -2.96099 0
M  V30 10459 H 981.319 -0.654106 -3.60717 0
M  V30 10460 H 980.967 1.51822 -4.79541 0
M  V30 10461 H 980.667 0.132871 -5.8745 0
M  V30 10462 H 982.191 1.05477 -6.01421 0
M  V30 10463 H 983.605 -1.18044 -5.61016 0
M  V30 10464 H 982.002 -1.96946 -5.66862 0
M  V30 10465 H 983.072 -2.26659 -4.28665 0
M  V30 10466 N 984.415 1.45619 -0.602734 0
M  V30 10467 C 985.345 2.33258 0.106342 0
M  V30 10468 C 986.326 1.46543 0.863664 0
M  V30 10469 O 987.511 1.75324 0.835175 0
M  V30 10470 C 984.641 3.29168 1.10751 0
M  V30 10471 C 983.595 4.25481 0.463717 0
M  V30 10472 C 982.921 5.11046 1.57278 0
M  V30 10473 C 984.221 5.18702 -0.61199 0
M  V30 10474 H 985.915 2.92795 -0.625423 0
M  V30 10475 H 983.461 1.40793 -0.302213 0
M  V30 10476 H 985.414 3.89346 1.61208 0
M  V30 10477 H 984.138 2.6778 1.8698 0
M  V30 10478 H 982.797 3.66595 -0.0199496 0
M  V30 10479 H 982.445 4.46029 2.32524 0
M  V30 10480 H 982.145 5.76286 1.14755 0
M  V30 10481 H 983.669 5.74091 2.07972 0
M  V30 10482 H 985.083 5.72979 -0.191686 0
M  V30 10483 H 983.48 5.92393 -0.958686 0
M  V30 10484 H 984.55 4.61424 -1.4905 0
M  V30 10485 N 985.893 0.34162 1.53853 0
M  V30 10486 C 987.121 -0.256929 2.05299 0
M  V30 10487 C 987.536 -1.44366 1.21671 0
M  V30 10488 O 986.893 -1.80758 0.251584 0
M  V30 10489 C 986.944 -0.673854 3.55164 0
M  V30 10490 O 986.665 0.465687 4.35618 0
M  V30 10491 C 988.166 -1.33332 4.22773 0
M  V30 10492 H 985.386 -0.0499445 0.669139 0
M  V30 10493 H 987.93 0.493048 1.98467 0
M  V30 10494 H 986.085 -1.37378 3.62224 0
M  V30 10495 H 986.499 0.133723 5.2433 0
M  V30 10496 H 987.973 -1.57582 5.29029 0
M  V30 10497 H 988.45 -2.28628 3.75001 0
M  V30 10498 H 989.056 -0.675489 4.19901 0
M  V30 10499 N 987.371 -1.57444 0.0701946 0
M  V30 10500 C 988.318 -2.12631 -0.897599 0
M  V30 10501 C 989.288 -1.03841 -1.29639 0
M  V30 10502 O 990.473 -1.31495 -1.38253 0
M  V30 10503 C 987.613 -2.6911 -2.16041 0
M  V30 10504 C 986.726 -3.9205 -1.8144 0
M  V30 10505 C 985.861 -4.36778 -3.02321 0
M  V30 10506 C 984.9 -5.52371 -2.63729 0
M  V30 10507 N 984.037 -5.92065 -3.77364 0
M  V30 10508 H 988.877 -2.95024 -0.420104 0
M  V30 10509 H 986.414 -1.45792 -0.195716 0
M  V30 10510 H 988.372 -2.99963 -2.89962 0
M  V30 10511 H 987.002 -1.89484 -2.61334 0
M  V30 10512 H 986.054 -3.67669 -0.975896 0
M  V30 10513 H 987.366 -4.76011 -1.49046 0
M  V30 10514 H 986.52 -4.69285 -3.84521 0
M  V30 10515 H 985.259 -3.51668 -3.37907 0
M  V30 10516 H 984.264 -5.19517 -1.7995 0
M  V30 10517 H 985.489 -6.39212 -2.29315 0
M  V30 10518 H 983.435 -5.09904 -4.12715 0
M  V30 10519 H 983.352 -6.70762 -3.48733 0
M  V30 10520 H 984.62 -6.29193 -4.60148 0
M  V30 10521 N 988.849 0.203349 -1.56283 0
M  V30 10522 C 990.077 0.941426 -1.84241 0
M  V30 10523 C 990.492 1.77197 -0.651658 0
M  V30 10524 O 989.849 1.78506 0.379713 0
M  V30 10525 C 989.9 1.84429 -3.10915 0
M  V30 10526 O 989.621 1.04729 -4.25398 0
M  V30 10527 C 991.122 2.69474 -3.51993 0
M  V30 10528 H 988.342 0.27507 -0.612027 0
M  V30 10529 H 990.886 0.213088 -2.03387 0
M  V30 10530 H 989.041 2.52635 -2.93691 0
M  V30 10531 H 989.455 1.66179 -4.97478 0
M  V30 10532 H 990.929 3.28495 -4.43616 0
M  V30 10533 H 991.406 3.42775 -2.74594 0
M  V30 10534 H 992.012 2.06652 -3.71719 0
M  V30 10535 N 990.327 1.50405 0.470755 0
M  V30 10536 C 991.275 1.6982 1.58946 0
M  V30 10537 C 992.269 0.56407 1.59733 0
M  V30 10538 O 993.475 0.744576 1.63878 0
M  V30 10539 H 989.85 0.536016 0.527438 0
M  V30 10540 H 991.821 2.63662 1.39732 0
M  V30 10541 C 990.57 1.80986 2.96883 0
M  V30 10542 H 989.893 2.67645 2.96996 0
M  V30 10543 H 991.333 1.98596 3.74614 0
M  V30 10544 C 989.792 0.561551 3.32187 0
M  V30 10545 O 990.322 -0.299136 4.00585 0
M  V30 10546 N 988.528 0.415476 2.87615 0
M  V30 10547 H 988.075 1.11691 2.32127 0
M  V30 10548 H 988.033 -0.418592 3.11601 0
M  V30 10549 N 991.805 -0.723954 1.39988 0
M  V30 10550 C 993.221 -1.03095 1.21834 0
M  V30 10551 C 993.421 -2.01309 0.0876647 0
M  V30 10552 O 992.477 -2.46277 -0.55714 0
M  V30 10553 C 993.79 -1.58267 2.5568 0
M  V30 10554 C 995.338 -1.70293 2.6262 0
M  V30 10555 C 995.813 -2.28872 3.96713 0
M  V30 10556 N 997.304 -2.36269 3.98411 0
M  V30 10557 C 998.039 -2.82557 4.98948 0
M  V30 10558 N 997.535 -3.28661 6.0988 0
M  V30 10559 N 999.328 -2.81866 4.86321 0
M  V30 10560 H 991.479 -0.0727891 2.12275 0
M  V30 10561 H 993.742 -0.0949029 0.943238 0
M  V30 10562 H 993.448 -0.935642 3.39026 0
M  V30 10563 H 993.322 -2.56914 2.76179 0
M  V30 10564 H 995.709 -2.34115 1.7965 0
M  V30 10565 H 995.79 -0.70268 2.45959 0
M  V30 10566 H 995.434 -1.65675 4.80119 0
M  V30 10567 H 995.364 -3.29595 4.107 0
M  V30 10568 H 997.855 -2.03697 3.18302 0
M  V30 10569 H 998.168 -3.62524 6.82493 0
M  V30 10570 H 996.513 -3.26641 6.13458 0
M  V30 10571 H 999.704 -2.45179 3.98754 0
M  V30 10572 H 999.877 -3.17626 5.64817 0
M  V30 10573 N 993.283 -1.25346 -0.955304 0
M  V30 10574 C 994.532 -1.0945 -1.69421 0
M  V30 10575 C 994.845 0.364459 -1.92175 0
M  V30 10576 O 996.051 0.643843 -2.63755 0
M  V30 10577 C 994.507 -1.91045 -3.05008 0
M  V30 10578 C 994.115 -3.41428 -2.90053 0
M  V30 10579 C 995.859 -1.83716 -3.82686 0
M  V30 10580 C 993.766 -4.1532 -4.21026 0
M  V30 10581 H 992.696 -0.405978 -0.635372 0
M  V30 10582 H 995.347 -1.49536 -1.06354 0
M  V30 10583 H 993.729 -1.43781 -3.68975 0
M  V30 10584 H 994.903 -3.9636 -2.35022 0
M  V30 10585 H 993.218 -3.49842 -2.25831 0
M  V30 10586 H 995.815 -2.36217 -4.79693 0
M  V30 10587 H 996.158 -0.804919 -4.08444 0
M  V30 10588 H 996.691 -2.28726 -3.25468 0
M  V30 10589 H 993.43 -5.18955 -4.00457 0
M  V30 10590 H 992.95 -3.65172 -4.75825 0
M  V30 10591 H 994.629 -4.22999 -4.89572 0
M  V30 10592 N 994.761 1.15782 -1.06922 0
M  V30 10593 C 995.711 2.18373 -0.655537 0
M  V30 10594 C 996.695 1.57745 0.317084 0
M  V30 10595 O 997.887 1.76511 0.131509 0
M  V30 10596 C 995.016 3.43263 -0.0502314 0
M  V30 10597 C 994.102 4.10954 -1.04773 0
M  V30 10598 N 994.493 4.542 -2.22567 0
M  V30 10599 C 992.791 4.3723 -0.880087 0
M  V30 10600 C 993.492 5.06641 -2.85815 0
M  V30 10601 N 992.468 4.99917 -2.13505 0
M  V30 10602 H 996.27 2.49533 -1.55276 0
M  V30 10603 H 993.784 1.32303 -0.941793 0
M  V30 10604 H 995.781 4.16063 0.264003 0
M  V30 10605 H 994.441 3.13588 0.842167 0
M  V30 10606 H 995.452 4.47727 -2.60309 0
M  V30 10607 H 992.129 4.17481 -0.0402148 0
M  V30 10608 H 993.519 5.50092 -3.85808 0
M  V30 10609 N 996.239 0.8527 1.3254 0
M  V30 10610 C 997.655 0.542298 1.50104 0
M  V30 10611 C 997.855 -0.927465 1.78886 0
M  V30 10612 O 996.911 -1.7106 1.85728 0
M  V30 10613 C 998.224 1.4276 2.64651 0
M  V30 10614 C 999.772 1.42782 2.78536 0
M  V30 10615 C 1000.25 2.29828 3.9616 0
M  V30 10616 N 1001.74 2.27613 4.03418 0
M  V30 10617 C 1002.47 2.91696 4.93661 0
M  V30 10618 N 1001.97 3.64883 5.88925 0
M  V30 10619 N 1003.76 2.81094 4.86768 0
M  V30 10620 H 995.913 1.80395 1.12123 0
M  V30 10621 H 998.176 0.770394 0.552446 0
M  V30 10622 H 997.882 2.47266 2.50105 0
M  V30 10623 H 997.756 1.11358 3.60388 0
M  V30 10624 H 1000.14 0.390417 2.92506 0
M  V30 10625 H 1000.22 1.78198 1.83519 0
M  V30 10626 H 999.868 3.33635 3.82949 0
M  V30 10627 H 999.798 1.91746 4.9045 0
M  V30 10628 H 1002.29 1.74402 3.3525 0
M  V30 10629 H 1002.6 4.10952 6.54476 0
M  V30 10630 H 1000.95 3.68991 5.88957 0
M  V30 10631 H 1004.14 2.23469 4.11314 0
M  V30 10632 H 1004.31 3.31318 5.56895 0
M  V30 10633 N 997.718 -1.45297 0.610449 0
M  V30 10634 C 998.967 -2.0143 0.104323 0
M  V30 10635 C 999.28 -1.48431 -1.27388 0
M  V30 10636 O 1000.49 -1.96558 -1.87289 0
M  V30 10637 C 998.942 -3.59644 0.135812 0
M  V30 10638 C 998.55 -4.2164 1.51405 0
M  V30 10639 C 1000.29 -4.2333 -0.314922 0
M  V30 10640 C 998.201 -5.72015 1.50176 0
M  V30 10641 H 997.131 -0.753176 0.035233 0
M  V30 10642 H 999.782 -1.66738 0.7662 0
M  V30 10643 H 998.164 -3.91538 -0.592773 0
M  V30 10644 H 999.338 -4.01315 2.26457 0
M  V30 10645 H 997.653 -3.70159 1.90712 0
M  V30 10646 H 1000.25 -5.33597 -0.343335 0
M  V30 10647 H 1000.59 -3.94206 -1.33817 0
M  V30 10648 H 1001.13 -3.96163 0.360489 0
M  V30 10649 H 997.865 -6.05842 2.50271 0
M  V30 10650 H 997.385 -5.94523 0.793869 0
M  V30 10651 H 999.064 -6.35266 1.22665 0
M  V30 10652 N 999.196 -0.349774 -1.5367 0
M  V30 10653 C 1000.44 0.244827 -2.01015 0
M  V30 10654 C 1000.77 1.50057 -1.23746 0
M  V30 10655 O 1000.03 1.9315 -0.314872 0
M  V30 10656 C 1000.32 0.598311 -3.52356 0
M  V30 10657 C 999.991 -0.56127 -4.47393 0
M  V30 10658 C 998.653 -0.879481 -4.73095 0
M  V30 10659 C 1001 -1.3389 -5.03709 0
M  V30 10660 C 998.333 -1.97758 -5.52366 0
M  V30 10661 C 1000.68 -2.4273 -5.84179 0
M  V30 10662 C 999.349 -2.75103 -6.08173 0
M  V30 10663 H 998.619 0.0895884 -0.735564 0
M  V30 10664 H 1001.27 -0.478975 -1.85413 0
M  V30 10665 H 999.571 1.40291 -3.65822 0
M  V30 10666 H 1001.27 1.07036 -3.86451 0
M  V30 10667 H 997.858 -0.303201 -4.27526 0
M  V30 10668 H 1002.04 -1.10632 -4.83812 0
M  V30 10669 H 997.298 -2.23257 -5.6918 0
M  V30 10670 H 1001.47 -3.03412 -6.26828 0
M  V30 10671 H 999.099 -3.60317 -6.69385 0
M  V30 10672 N 1000.67 1.57404 -0.0785433 0
M  V30 10673 C 1001.58 2.16612 0.900902 0
M  V30 10674 C 1002.6 1.13109 1.32221 0
M  V30 10675 O 1003.78 1.45406 1.39352 0
M  V30 10676 C 1000.84 2.7215 2.14791 0
M  V30 10677 C 999.902 3.90551 1.78237 0
M  V30 10678 C 999.135 4.43431 2.96993 0
M  V30 10679 O 999.358 3.95292 4.11218 0
M  V30 10680 O 998.292 5.34674 2.76418 0
M  V30 10681 H 1002.12 3.0068 0.427227 0
M  V30 10682 H 999.703 1.48696 0.144902 0
M  V30 10683 H 1001.58 3.07718 2.87902 0
M  V30 10684 H 1000.26 1.91139 2.61243 0
M  V30 10685 H 999.167 3.59825 1.02357 0
M  V30 10686 H 1000.5 4.72876 1.36562 0
M  V30 10687 N 1002.15 -0.195058 1.56388 0
M  V30 10688 C 1003.08 -1.26581 1.91076 0
M  V30 10689 C 1004.1 -1.41707 0.801436 0
M  V30 10690 O 1005.29 -1.42132 1.07985 0
M  V30 10691 C 1002.39 -2.63794 2.12758 0
M  V30 10692 C 1001.56 -2.70275 3.43904 0
M  V30 10693 C 1000.62 -3.88685 3.54698 0
M  V30 10694 O 999.644 -3.75786 4.2752 0
M  V30 10695 N 1000.85 -5.04141 2.87789 0
M  V30 10696 H 1003.61 -0.971401 2.83521 0
M  V30 10697 H 1001.17 -0.384976 1.57256 0
M  V30 10698 H 1003.16 -3.41434 2.17267 0
M  V30 10699 H 1001.73 -2.85723 1.26812 0
M  V30 10700 H 1000.95 -1.78909 3.51262 0
M  V30 10701 H 1002.24 -2.71597 4.30247 0
M  V30 10702 H 1001.64 -5.17519 2.28452 0
M  V30 10703 H 1000.2 -5.79727 2.97925 0
M  V30 10704 N 1003.63 -1.50653 -0.462772 0
M  V30 10705 C 1004.88 -1.61737 -1.21184 0
M  V30 10706 C 1005.2 -0.32369 -1.92295 0
M  V30 10707 O 1004.47 0.659269 -1.84473 0
M  V30 10708 H 1003.05 -0.596015 -0.450306 0
M  V30 10709 H 1005.71 -1.87469 -0.533051 0
M  V30 10710 H 1004.81 -2.43262 -1.95525 0
M  V30 10711 N 1005.11 0.71652 -1.4037 0
M  V30 10712 C 1006.06 1.8306 -1.40562 0
M  V30 10713 C 1007.03 1.64009 -0.262697 0
M  V30 10714 O 1008.21 1.85157 -0.460619 0
M  V30 10715 C 1005.35 3.2076 -1.27307 0
M  V30 10716 C 1004.46 3.51389 -2.51296 0
M  V30 10717 C 1003.6 4.78589 -2.30491 0
M  V30 10718 C 1002.64 5.02119 -3.50061 0
M  V30 10719 N 1001.77 6.20533 -3.28457 0
M  V30 10720 H 1006.61 1.82231 -2.35788 0
M  V30 10721 H 1004.15 0.890198 -1.17106 0
M  V30 10722 H 1006.11 4.00274 -1.17628 0
M  V30 10723 H 1004.74 3.2082 -0.357005 0
M  V30 10724 H 1003.79 2.66436 -2.71507 0
M  V30 10725 H 1005.1 3.64686 -3.40302 0
M  V30 10726 H 1004.26 5.66119 -2.1816 0
M  V30 10727 H 1003 4.67499 -1.38909 0
M  V30 10728 H 1002 4.13044 -3.6287 0
M  V30 10729 H 1003.23 5.15082 -4.42569 0
M  V30 10730 H 1001.17 6.10695 -2.39556 0
M  V30 10731 H 1001.09 6.34502 -4.11027 0
M  V30 10732 H 1002.36 7.10853 -3.19857 0
M  V30 10733 N 1006.59 1.25851 0.948643 0
M  V30 10734 C 1007.53 1.06759 2.04625 0
M  V30 10735 C 1008.5 -0.0251144 1.66081 0
M  V30 10736 O 1009.69 0.133221 1.90334 0
M  V30 10737 C 1006.83 0.698724 3.37952 0
M  V30 10738 C 1005.94 1.8669 3.89578 0
M  V30 10739 C 1005.08 1.44184 5.11258 0
M  V30 10740 C 1004.12 2.57878 5.55126 0
M  V30 10741 N 1003.25 2.16106 6.68014 0
M  V30 10742 H 1008.09 2.00691 2.20289 0
M  V30 10743 H 1005.63 0.999327 1.07944 0
M  V30 10744 H 1007.59 0.465788 4.14592 0
M  V30 10745 H 1006.22 -0.203618 3.22157 0
M  V30 10746 H 1005.27 2.21298 3.09405 0
M  V30 10747 H 1006.58 2.72051 4.18079 0
M  V30 10748 H 1005.74 1.16891 5.95333 0
M  V30 10749 H 1004.47 0.559035 4.84485 0
M  V30 10750 H 1003.48 2.85909 4.69612 0
M  V30 10751 H 1004.7 3.46747 5.83904 0
M  V30 10752 H 1002.65 1.3025 6.42939 0
M  V30 10753 H 1002.57 2.95012 6.96063 0
M  V30 10754 H 1003.84 1.92005 7.55483 0
M  V30 10755 N 1008.06 -1.15214 1.07534 0
M  V30 10756 C 1009.29 -1.90463 0.820883 0
M  V30 10757 C 1009.71 -1.77578 -0.620305 0
M  V30 10758 O 1009.07 -1.10976 -1.43366 0
M  V30 10759 C 1009.12 -3.38746 1.23627 0
M  V30 10760 O 1008.22 -4.1062 0.382715 0
M  V30 10761 H 1007.57 -0.59292 0.298901 0
M  V30 10762 H 1010.1 -1.45893 1.43445 0
M  V30 10763 H 1010.11 -3.89543 1.21327 0
M  V30 10764 H 1008.78 -3.47443 2.28596 0
M  V30 10765 H 1007.36 -3.69947 0.468374 0
M  V30 10766 N 1009.54 -0.859717 -1.32086 0
M  V30 10767 C 1010.79 -0.466271 -1.97367 0
M  V30 10768 C 1011.12 0.976728 -1.6785 0
M  V30 10769 O 1010.4 1.68618 -0.969449 0
M  V30 10770 C 1010.68 -0.711851 -3.52994 0
M  V30 10771 C 1010.53 -2.20364 -3.92122 0
M  V30 10772 C 1011.85 -0.17156 -4.39765 0
M  V30 10773 H 1008.97 -0.170883 -0.716916 0
M  V30 10774 H 1011.61 -1.07907 -1.56384 0
M  V30 10775 H 1009.76 -0.190258 -3.88034 0
M  V30 10776 H 1011.43 -2.7917 -3.67236 0
M  V30 10777 H 1009.68 -2.68019 -3.41099 0
M  V30 10778 H 1010.35 -2.32615 -5.00594 0
M  V30 10779 H 1012.82 -0.617665 -4.1149 0
M  V30 10780 H 1011.7 -0.372921 -5.47632 0
M  V30 10781 H 1011.96 0.925959 -4.32294 0
M  V30 10782 N 1011.02 1.44971 -0.618145 0
M  V30 10783 C 1012.25 2.06527 -0.124165 0
M  V30 10784 C 1012.66 1.46097 1.19588 0
M  V30 10785 O 1012.02 0.57901 1.73071 0
M  V30 10786 C 1012.07 3.61498 0.0106701 0
M  V30 10787 O 1011.79 4.19675 -1.25716 0
M  V30 10788 C 1013.29 4.40061 0.534872 0
M  V30 10789 H 1010.51 0.666941 -0.0736935 0
M  V30 10790 H 1013.06 1.8605 -0.848871 0
M  V30 10791 H 1011.21 3.81282 0.685752 0
M  V30 10792 H 1011.63 5.12972 -1.09362 0
M  V30 10793 H 1013.1 5.48963 0.57827 0
M  V30 10794 H 1013.58 4.10587 1.55931 0
M  V30 10795 H 1014.18 4.25167 -0.10652 0
M  V30 10796 N 1012.5 0.357919 1.53482 0
M  V30 10797 C 1013.46 -0.479797 2.24122 0
M  V30 10798 C 1014.46 -1.01596 1.24639 0
M  V30 10799 O 1015.65 -0.902928 1.48973 0
M  V30 10800 C 1012.78 -1.66983 2.97203 0
M  V30 10801 H 1013.98 0.138219 2.99581 0
M  V30 10802 H 1011.53 0.109484 1.55916 0
M  V30 10803 H 1012.26 -2.32615 2.25966 0
M  V30 10804 H 1012.05 -1.29242 3.70188 0
M  V30 10805 H 1013.54 -2.26367 3.50924 0
M  V30 10806 N 1013.98 -1.5736 0.0868897 0
M  V30 10807 C 1015.39 -1.81356 -0.443499 0
M  V30 10808 C 1015.74 -1.00192 -1.68689 0
M  V30 10809 O 1014.86 -0.228863 -2.15186 0
M  V30 10810 C 1015.46 -3.28941 -0.811387 0
M  V30 10811 C 1014.02 -3.53729 -1.28656 0
M  V30 10812 C 1013.16 -2.75891 -0.279153 0
M  V30 10813 H 1016.12 -1.55594 0.312427 0
M  V30 10814 H 1016.14 -3.41815 -1.6716 0
M  V30 10815 H 1015.65 -3.87987 0.0937598 0
M  V30 10816 H 1013.75 -3.00005 -2.2097 0
M  V30 10817 H 1013.86 -4.62396 -1.25406 0
M  V30 10818 H 1012.23 -2.4311 -0.759595 0
M  V30 10819 H 1013.01 -3.37682 0.618529 0
M  V30 10820 N 1015.45 0.186762 -1.56489 0
M  V30 10821 C 1016.4 1.23141 -1.95205 0
M  V30 10822 C 1017.37 1.44799 -0.81378 0
M  V30 10823 O 1018.56 1.57795 -1.07263 0
M  V30 10824 C 1015.7 2.56926 -2.30397 0
M  V30 10825 C 1014.81 2.42777 -3.57328 0
M  V30 10826 C 1013.94 3.69323 -3.81804 0
M  V30 10827 C 1012.98 3.50041 -5.02133 0
M  V30 10828 N 1012.12 4.68619 -5.2282 0
M  V30 10829 H 1016.96 0.894256 -2.84266 0
M  V30 10830 H 1014.5 0.430187 -1.40669 0
M  V30 10831 H 1016.46 3.3488 -2.4882 0
M  V30 10832 H 1015.09 2.88668 -1.44466 0
M  V30 10833 H 1014.14 1.56078 -3.46906 0
M  V30 10834 H 1015.45 2.24468 -4.45439 0
M  V30 10835 H 1014.6 4.55715 -4.00511 0
M  V30 10836 H 1013.34 3.90595 -2.92039 0
M  V30 10837 H 1012.35 2.62034 -4.8334 0
M  V30 10838 H 1013.57 3.30206 -5.93414 0
M  V30 10839 H 1011.52 4.90139 -4.36005 0
M  V30 10840 H 1011.44 4.53165 -6.05126 0
M  V30 10841 H 1012.7 5.56338 -5.45993 0
M  V30 10842 N 1016.93 1.50896 0.454776 0
M  V30 10843 C 1018.18 1.62699 1.20562 0
M  V30 10844 C 1018.51 0.334943 1.91594 0
M  V30 10845 O 1017.76 -0.680106 1.83502 0
M  V30 10846 C 1018.06 2.76839 2.26042 0
M  V30 10847 C 1017.73 4.16745 1.72147 0
M  V30 10848 C 1016.39 4.54809 1.5717 0
M  V30 10849 C 1018.74 5.04118 1.32341 0
M  V30 10850 C 1016.07 5.7797 1.00835 0
M  V30 10851 C 1018.42 6.27842 0.774419 0
M  V30 10852 C 1017.09 6.64694 0.611415 0
M  V30 10853 H 1016.36 0.595358 0.441169 0
M  V30 10854 H 1019 1.84879 0.499202 0
M  V30 10855 H 1017.31 2.48812 3.02655 0
M  V30 10856 H 1019 2.83173 2.83926 0
M  V30 10857 H 1015.59 3.86725 1.84775 0
M  V30 10858 H 1019.78 4.75331 1.42739 0
M  V30 10859 H 1015.03 6.05183 0.869669 0
M  V30 10860 H 1019.21 6.94896 0.457389 0
M  V30 10861 H 1016.84 7.60004 0.172751 0
M  V30 10862 N 1018.41 -0.709066 1.40748 0
M  V30 10863 C 1019.66 -1.4646 1.38681 0
M  V30 10864 C 1019.97 -1.95599 -0.0056209 0
M  V30 10865 O 1021.18 -2.71091 -0.148907 0
M  V30 10866 C 1019.63 -2.64771 2.43771 0
M  V30 10867 C 1019.24 -2.22474 3.88856 0
M  V30 10868 C 1020.99 -3.42475 2.50821 0
M  V30 10869 C 1018.89 -3.37663 4.85528 0
M  V30 10870 H 1017.82 -0.550084 0.515678 0
M  V30 10871 H 1020.47 -0.771074 1.66513 0
M  V30 10872 H 1018.86 -3.36325 2.09048 0
M  V30 10873 H 1020.03 -1.58297 4.32757 0
M  V30 10874 H 1018.35 -1.57798 3.85342 0
M  V30 10875 H 1020.94 -4.28201 3.20232 0
M  V30 10876 H 1021.29 -3.86738 1.54076 0
M  V30 10877 H 1021.82 -2.77969 2.84567 0
M  V30 10878 H 1018.56 -2.98426 5.83628 0
M  V30 10879 H 1018.08 -4.00734 4.46287 0
M  V30 10880 H 1019.76 -4.03636 5.05655 0
M  V30 10881 N 1019.89 -1.26353 -0.941956 0
M  V30 10882 C 1021.11 -1.14731 -1.72776 0
M  V30 10883 C 1021.54 0.293766 -1.85792 0
M  V30 10884 O 1020.9 1.21284 -1.34759 0
M  V30 10885 C 1020.95 -1.82041 -3.11277 0
M  V30 10886 O 1020.05 -1.10867 -3.97218 0
M  V30 10887 H 1019.39 -0.399823 -0.53013 0
M  V30 10888 H 1021.92 -1.67157 -1.17981 0
M  V30 10889 H 1021.93 -1.88834 -3.61671 0
M  V30 10890 H 1020.61 -2.86879 -3.0112 0
M  V30 10891 H 1019.18 -1.12044 -3.55669 0
M  V30 10892 N 1021.37 1.14642 -1.08144 0
M  V30 10893 C 1022.78 1.6719 -0.830923 0
M  V30 10894 C 1023.13 1.85373 0.642749 0
M  V30 10895 O 1022.25 1.56293 1.49671 0
M  V30 10896 C 1022.85 3.03697 -1.50179 0
M  V30 10897 C 1021.41 3.5329 -1.29858 0
M  V30 10898 C 1020.56 2.28828 -1.5663 0
M  V30 10899 H 1023.51 0.987441 -1.24239 0
M  V30 10900 H 1023.53 3.69023 -0.9275 0
M  V30 10901 H 1023.04 2.90431 -2.57432 0
M  V30 10902 H 1021.14 3.71783 -0.246626 0
M  V30 10903 H 1021.25 4.34231 -2.02436 0
M  V30 10904 H 1019.62 2.34769 -0.987716 0
M  V30 10905 H 1020.4 2.18141 -2.65084 0
M  V30 10906 N 1022.85 0.866709 1.31628 0
M  V30 10907 C 1023.81 0.325041 2.26883 0
M  V30 10908 C 1024.81 -0.522133 1.52087 0
M  V30 10909 O 1026 -0.331908 1.71009 0
M  V30 10910 C 1023.13 -0.538756 3.36616 0
M  V30 10911 H 1024.32 1.16592 2.76308 0
M  V30 10912 H 1021.88 0.642029 1.42505 0
M  V30 10913 H 1022.61 -1.40096 2.92478 0
M  V30 10914 H 1022.4 0.0678115 3.92041 0
M  V30 10915 H 1023.89 -0.910123 4.07562 0
M  V30 10916 N 1024.32 -1.44642 0.625825 0
M  V30 10917 C 1025.55 -2.06971 0.133373 0
M  V30 10918 C 1025.97 -1.46421 -1.18078 0
M  V30 10919 O 1025.33 -0.563676 -1.72315 0
M  V30 10920 C 1025.38 -3.6059 0.0265097 0
M  V30 10921 O 1024.48 -3.99615 -1.01889 0
M  V30 10922 H 1023.82 -0.658873 0.0823568 0
M  V30 10923 H 1026.35 -1.85601 0.861002 0
M  V30 10924 H 1026.36 -4.07663 -0.1658 0
M  V30 10925 H 1025.04 -4.04043 0.985986 0
M  V30 10926 H 1023.62 -3.64183 -0.801577 0
M  V30 10927 N 1025.8 -0.366053 -1.5329 0
M  V30 10928 C 1026.73 0.514916 -2.23341 0
M  V30 10929 C 1027.75 1.04579 -1.24768 0
M  V30 10930 O 1028.94 0.952084 -1.50989 0
M  V30 10931 C 1026.04 1.72374 -2.91788 0
M  V30 10932 C 1025.21 1.32429 -4.16871 0
M  V30 10933 C 1024.27 2.39524 -4.68524 0
M  V30 10934 O 1023.29 2.01895 -5.32191 0
M  V30 10935 N 1024.5 3.71116 -4.46378 0
M  V30 10936 H 1027.26 -0.0851272 -2.99579 0
M  V30 10937 H 1024.82 -0.191255 -1.60766 0
M  V30 10938 H 1026.81 2.43496 -3.23252 0
M  V30 10939 H 1025.38 2.23064 -2.19 0
M  V30 10940 H 1024.6 0.442901 -3.91704 0
M  V30 10941 H 1025.89 1.03372 -4.98188 0
M  V30 10942 H 1025.29 4.04463 -3.95508 0
M  V30 10943 H 1023.85 4.38341 -4.82391 0
M  V30 10944 N 1027.28 1.57312 -0.0952337 0
M  V30 10945 C 1028.21 2.17056 0.860753 0
M  V30 10946 C 1029.19 1.10394 1.29411 0
M  V30 10947 O 1030.38 1.38532 1.36098 0
M  V30 10948 C 1027.51 2.751 2.11984 0
M  V30 10949 C 1026.46 3.87136 1.8251 0
M  V30 10950 C 1025.79 4.31883 3.15247 0
M  V30 10951 C 1027.09 5.10326 1.11194 0
M  V30 10952 H 1028.78 2.97192 0.362983 0
M  V30 10953 H 1026.33 1.42955 0.173151 0
M  V30 10954 H 1028.28 3.15547 2.79299 0
M  V30 10955 H 1027 1.92219 2.64044 0
M  V30 10956 H 1025.66 3.47229 1.17592 0
M  V30 10957 H 1025.31 3.45893 3.65195 0
M  V30 10958 H 1025.01 5.0742 2.96309 0
M  V30 10959 H 1026.53 4.74964 3.83721 0
M  V30 10960 H 1027.95 5.47942 1.6862 0
M  V30 10961 H 1026.34 5.91293 1.02435 0
M  V30 10962 H 1027.41 4.84807 0.0947227 0
M  V30 10963 N 1028.76 -0.17846 1.56586 0
M  V30 10964 C 1030 -0.897562 1.81856 0
M  V30 10965 C 1030.34 -1.82204 0.671955 0
M  V30 10966 O 1029.61 -1.91739 -0.326535 0
M  V30 10967 C 1029.89 -1.69942 3.17477 0
M  V30 10968 C 1029.75 -0.798545 4.42655 0
M  V30 10969 C 1031.07 -2.66861 3.49962 0
M  V30 10970 H 1028.19 -0.324863 0.661539 0
M  V30 10971 H 1030.83 -0.164106 1.8929 0
M  V30 10972 H 1028.98 -2.32471 3.11271 0
M  V30 10973 H 1030.65 -0.18668 4.60922 0
M  V30 10974 H 1028.89 -0.106181 4.3367 0
M  V30 10975 H 1029.56 -1.39496 5.34083 0
M  V30 10976 H 1032.04 -2.1446 3.56576 0
M  V30 10977 H 1030.92 -3.20037 4.45946 0
M  V30 10978 H 1031.18 -3.46715 2.74301 0
M  V30 10979 N 1030.24 -1.51135 -0.446768 0
M  V30 10980 C 1031.48 -1.62571 -1.19388 0
M  V30 10981 C 1031.8 -0.3432 -1.92566 0
M  V30 10982 O 1033 -0.336804 -2.69403 0
M  V30 10983 C 1031.46 -2.87071 -2.17068 0
M  V30 10984 C 1031.07 -4.22291 -1.49581 0
M  V30 10985 C 1032.81 -3.07862 -2.9227 0
M  V30 10986 C 1030.72 -5.3795 -2.45689 0
M  V30 10987 H 1029.65 -0.60549 -0.449331 0
M  V30 10988 H 1032.3 -1.77593 -0.461846 0
M  V30 10989 H 1030.68 -2.65662 -2.93666 0
M  V30 10990 H 1031.86 -4.54046 -0.786054 0
M  V30 10991 H 1030.17 -4.07302 -0.865677 0
M  V30 10992 H 1032.77 -3.91444 -3.64246 0
M  V30 10993 H 1033.11 -2.20559 -3.53072 0
M  V30 10994 H 1033.64 -3.29566 -2.2278 0
M  V30 10995 H 1030.38 -6.27484 -1.89591 0
M  V30 10996 H 1029.9 -5.10583 -3.14746 0
M  V30 10997 H 1031.58 -5.69517 -3.07017 0
M  V30 10998 N 1031.71 0.701592 -1.41122 0
M  V30 10999 C 1032.94 1.49049 -1.43499 0
M  V30 11000 C 1033.36 1.88761 -0.0385684 0
M  V30 11001 O 1032.71 1.56384 0.940755 0
M  V30 11002 C 1032.76 2.7569 -2.33832 0
M  V30 11003 O 1032.49 2.37653 -3.68039 0
M  V30 11004 C 1033.99 3.69479 -2.44949 0
M  V30 11005 H 1031.21 0.459519 -0.488961 0
M  V30 11006 H 1033.75 0.864318 -1.85337 0
M  V30 11007 H 1031.91 3.34559 -1.95318 0
M  V30 11008 H 1032.32 3.19241 -4.16156 0
M  V30 11009 H 1033.79 4.55139 -3.12334 0
M  V30 11010 H 1034.27 4.13553 -1.47887 0
M  V30 11011 H 1034.88 3.16517 -2.84072 0
M  V30 11012 N 1033.19 1.2685 0.935242 0
M  V30 11013 C 1034.44 1.12745 1.68211 0
M  V30 11014 C 1034.77 -0.328128 1.91712 0
M  V30 11015 O 1034.02 -1.25701 1.49993 0
M  V30 11016 C 1034.32 1.8482 3.05903 0
M  V30 11017 C 1033.99 3.347 3.02137 0
M  V30 11018 C 1032.65 3.75583 3.00817 0
M  V30 11019 C 1035 4.30368 2.93995 0
M  V30 11020 C 1032.33 5.10511 2.89129 0
M  V30 11021 C 1034.68 5.65343 2.83848 0
M  V30 11022 C 1033.34 6.0553 2.80874 0
M  V30 11023 H 1032.61 0.412563 0.615527 0
M  V30 11024 H 1035.26 1.57366 1.09124 0
M  V30 11025 H 1033.57 1.32685 3.68649 0
M  V30 11026 H 1035.26 1.71341 3.62551 0
M  V30 11027 H 1031.85 3.02182 3.03947 0
M  V30 11028 H 1036.04 3.9976 2.94118 0
M  V30 11029 H 1031.29 5.40802 2.85208 0
M  V30 11030 H 1035.47 6.39151 2.76512 0
M  V30 11031 H 1033.09 7.10037 2.71573 0
M  V30 11032 N 1034.67 -1.14067 1.0875 0
M  V30 11033 C 1035.9 -1.89582 0.841038 0
M  V30 11034 C 1036.32 -1.78226 -0.601436 0
M  V30 11035 O 1035.68 -1.12491 -1.42181 0
M  V30 11036 C 1035.73 -3.37415 1.27213 0
M  V30 11037 O 1034.83 -4.10191 0.426246 0
M  V30 11038 H 1034.17 -0.589716 0.305173 0
M  V30 11039 H 1036.7 -1.44364 1.44984 0
M  V30 11040 H 1036.71 -3.88234 1.25451 0
M  V30 11041 H 1035.39 -3.44999 2.32268 0
M  V30 11042 H 1033.96 -3.69429 0.507585 0
M  V30 11043 N 1036.15 -0.873678 -1.31166 0
M  V30 11044 C 1037.08 -0.348011 -2.30892 0
M  V30 11045 C 1038.06 0.563092 -1.60509 0
M  V30 11046 O 1039.24 0.479332 -1.88192 0
M  V30 11047 C 1036.37 0.448158 -3.44396 0
M  V30 11048 C 1035.33 -0.370179 -4.26396 0
M  V30 11049 C 1034.65 0.551903 -5.31844 0
M  V30 11050 C 1035.95 -1.60624 -4.96988 0
M  V30 11051 H 1037.65 -1.18134 -2.75109 0
M  V30 11052 H 1035.19 -0.569502 -1.3226 0
M  V30 11053 H 1037.15 0.826458 -4.13216 0
M  V30 11054 H 1035.87 1.31503 -2.98956 0
M  V30 11055 H 1034.53 -0.730472 -3.59249 0
M  V30 11056 H 1034.18 1.41616 -4.82653 0
M  V30 11057 H 1033.88 0.00823478 -5.87599 0
M  V30 11058 H 1035.4 0.926965 -6.03523 0
M  V30 11059 H 1036.82 -1.29917 -5.58386 0
M  V30 11060 H 1035.21 -2.08926 -5.62557 0
M  V30 11061 H 1036.28 -2.357 -4.23761 0
M  V30 11062 N 1037.63 1.44308 -0.633487 0
M  V30 11063 C 1038.88 2.01239 -0.136356 0
M  V30 11064 C 1039.19 1.50438 1.25011 0
M  V30 11065 O 1040.39 1.99513 1.84138 0
M  V30 11066 C 1038.85 3.59382 -0.193011 0
M  V30 11067 C 1038.46 4.19178 -1.58093 0
M  V30 11068 C 1040.2 4.23778 0.247534 0
M  V30 11069 C 1038.11 5.69553 -1.59258 0
M  V30 11070 H 1037.04 0.752521 -0.0472109 0
M  V30 11071 H 1039.69 1.65498 -0.79263 0
M  V30 11072 H 1038.07 3.92432 0.530408 0
M  V30 11073 H 1039.25 3.97662 -2.32813 0
M  V30 11074 H 1037.56 3.67079 -1.96576 0
M  V30 11075 H 1040.16 5.34075 0.258401 0
M  V30 11076 H 1040.5 3.96285 1.27529 0
M  V30 11077 H 1041.03 3.9554 -0.423469 0
M  V30 11078 H 1037.77 6.01784 -2.59878 0
M  V30 11079 H 1037.29 5.93185 -0.888352 0
M  V30 11080 H 1038.97 6.33234 -1.32756 0
M  V30 11081 N 1039.1 0.374177 1.53094 0
M  V30 11082 C 1040.33 -0.215903 2.06273 0
M  V30 11083 C 1040.75 -1.40979 1.24526 0
M  V30 11084 O 1040.11 -1.79331 0.266462 0
M  V30 11085 C 1040.16 -0.579089 3.5592 0
M  V30 11086 O 1039.26 -1.67516 3.76845 0
M  V30 11087 H 1038.61 -0.0293981 0.663349 0
M  V30 11088 H 1041.14 0.537271 1.9742 0
M  V30 11089 H 1041.15 -0.847678 3.99097 0
M  V30 11090 H 1039.82 0.293843 4.14861 0
M  V30 11091 H 1038.4 -1.40146 3.45563 0
M  V30 11092 N 1040.58 -1.57259 0.103575 0
M  V30 11093 C 1041.83 -1.94945 -0.558953 0
M  V30 11094 C 1042.16 -0.986038 -1.67305 0
M  V30 11095 O 1041.44 -0.0205464 -1.94489 0
M  V30 11096 C 1041.72 -3.42689 -1.10617 0
M  V30 11097 C 1041.57 -4.498 0.00345246 0
M  V30 11098 C 1042.89 -3.91933 -2.00191 0
M  V30 11099 H 1040.01 -0.708859 -0.201713 0
M  V30 11100 H 1042.65 -1.89183 0.176006 0
M  V30 11101 H 1040.8 -3.4773 -1.73251 0
M  V30 11102 H 1042.47 -4.56866 0.638082 0
M  V30 11103 H 1040.72 -4.28615 0.668705 0
M  V30 11104 H 1041.39 -5.50397 -0.420396 0
M  V30 11105 H 1043.86 -3.89098 -1.4745 0
M  V30 11106 H 1042.74 -4.9586 -2.35402 0
M  V30 11107 H 1043 -3.31722 -2.92255 0
M  V30 11108 N 1042.06 0.170153 -1.56679 0
M  V30 11109 C 1042.99 1.23525 -1.93066 0
M  V30 11110 C 1044.01 1.40414 -0.823879 0
M  V30 11111 O 1045.19 1.40396 -1.10232 0
M  V30 11112 C 1042.29 2.60376 -2.16928 0
M  V30 11113 C 1041.47 2.6477 -3.4816 0
M  V30 11114 C 1040.53 3.82993 -3.60837 0
M  V30 11115 O 1039.55 3.68937 -4.33444 0
M  V30 11116 N 1040.75 4.99498 -2.95773 0
M  V30 11117 H 1043.52 0.926172 -2.8503 0
M  V30 11118 H 1041.08 0.359909 -1.57849 0
M  V30 11119 H 1043.07 3.37934 -2.22672 0
M  V30 11120 H 1041.64 2.83669 -1.31342 0
M  V30 11121 H 1040.86 1.73298 -3.54064 0
M  V30 11122 H 1042.15 2.64717 -4.34514 0
M  V30 11123 H 1041.55 5.13819 -2.36657 0
M  V30 11124 H 1040.11 5.74914 -3.07111 0
M  V30 11125 N 1043.54 1.5137 0.438746 0
M  V30 11126 C 1044.47 1.75528 1.53987 0
M  V30 11127 C 1045.45 0.605067 1.58975 0
M  V30 11128 O 1046.63 0.847634 1.74725 0
M  V30 11129 C 1043.76 1.87904 2.92078 0
M  V30 11130 C 1042.72 3.0333 3.01951 0
M  V30 11131 C 1042.04 3.00888 4.42007 0
M  V30 11132 C 1043.34 4.43319 2.76163 0
M  V30 11133 H 1045.04 2.67728 1.34022 0
M  V30 11134 H 1042.58 1.28831 0.643308 0
M  V30 11135 H 1044.54 2.03388 3.69068 0
M  V30 11136 H 1043.26 0.923514 3.13271 0
M  V30 11137 H 1041.92 2.87549 2.274 0
M  V30 11138 H 1041.57 2.03116 4.60166 0
M  V30 11139 H 1041.27 3.78397 4.49544 0
M  V30 11140 H 1042.79 3.18464 5.20973 0
M  V30 11141 H 1044.21 4.59458 3.42887 0
M  V30 11142 H 1042.6 5.22523 2.9511 0
M  V30 11143 H 1043.67 4.53453 1.71779 0
M  V30 11144 N 1045.02 -0.694098 1.41492 0
M  V30 11145 C 1045.95 -1.82042 1.46229 0
M  V30 11146 C 1046.93 -1.67047 0.320803 0
M  V30 11147 O 1048.11 -1.86758 0.53245 0
M  V30 11148 C 1045.24 -3.2019 1.34519 0
M  V30 11149 C 1044.2 -3.49892 2.46495 0
M  V30 11150 C 1043.52 -4.87411 2.1985 0
M  V30 11151 C 1044.82 -3.4872 3.88834 0
M  V30 11152 H 1046.52 -1.78335 2.40493 0
M  V30 11153 H 1044.06 -0.856566 1.15754 0
M  V30 11154 H 1046.02 -3.98699 1.36445 0
M  V30 11155 H 1044.74 -3.24527 0.367406 0
M  V30 11156 H 1043.4 -2.73734 2.43854 0
M  V30 11157 H 1043.05 -4.88375 1.20411 0
M  V30 11158 H 1042.75 -5.08248 2.94885 0
M  V30 11159 H 1044.27 -5.68228 2.23494 0
M  V30 11160 H 1045.68 -4.1723 3.93182 0
M  V30 11161 H 1044.08 -3.81089 4.63564 0
M  V30 11162 H 1045.15 -2.47665 4.16881 0
M  V30 11163 N 1046.49 -1.27344 -0.928501 0
M  V30 11164 C 1047.74 -1.13411 -1.67279 0
M  V30 11165 C 1048.06 0.320698 -1.92345 0
M  V30 11166 O 1047.33 1.2245 -1.52915 0
M  V30 11167 H 1045.91 -0.416712 -0.619968 0
M  V30 11168 H 1048.58 -1.5986 -1.11493 0
M  V30 11169 H 1047.67 -1.66256 -2.64131 0
M  V30 11170 N 1047.97 1.13488 -1.09353 0
M  V30 11171 C 1049.22 1.85022 -0.830354 0
M  V30 11172 C 1049.55 1.83266 0.64242 0
M  V30 11173 O 1048.83 1.27024 1.47293 0
M  V30 11174 C 1049.11 3.33218 -1.36521 0
M  V30 11175 C 1048.96 3.43491 -2.90404 0
M  V30 11176 C 1050.28 4.28626 -0.998381 0
M  V30 11177 H 1047.4 0.671786 -0.303105 0
M  V30 11178 H 1050.04 1.33211 -1.3548 0
M  V30 11179 H 1048.19 3.77471 -0.919117 0
M  V30 11180 H 1049.86 3.07954 -3.43456 0
M  V30 11181 H 1048.11 2.84391 -3.27573 0
M  V30 11182 H 1048.78 4.47702 -3.22905 0
M  V30 11183 H 1051.25 3.9244 -1.38311 0
M  V30 11184 H 1050.13 5.30754 -1.39968 0
M  V30 11185 H 1050.39 4.42001 0.093517 0
M  V30 11186 N 1049.45 0.880621 1.30701 0
M  V30 11187 C 1050.7 0.496875 1.96309 0
M  V30 11188 C 1051.03 -0.953064 1.69549 0
M  V30 11189 O 1050.28 -1.68782 0.990507 0
M  V30 11190 C 1050.58 0.713203 3.50212 0
M  V30 11191 C 1050.25 2.13756 3.97013 0
M  V30 11192 C 1048.91 2.52706 4.09503 0
M  V30 11193 C 1051.26 3.066 4.21481 0
M  V30 11194 C 1048.59 3.8372 4.43819 0
M  V30 11195 C 1050.94 4.3714 4.57265 0
M  V30 11196 C 1049.6 4.7599 4.67963 0
M  V30 11197 H 1048.87 0.18182 0.718347 0
M  V30 11198 H 1051.52 1.11564 1.55646 0
M  V30 11199 H 1049.83 0.0113694 3.91798 0
M  V30 11200 H 1051.52 0.39595 3.9904 0
M  V30 11201 H 1048.11 1.8252 3.87794 0
M  V30 11202 H 1052.3 2.77729 4.11315 0
M  V30 11203 H 1047.55 4.13568 4.50301 0
M  V30 11204 H 1051.73 5.09123 4.75149 0
M  V30 11205 H 1049.35 5.77549 4.94309 0
M  V30 11206 N 1050.93 -1.4397 0.641131 0
M  V30 11207 C 1052.18 -2.02246 0.14985 0
M  V30 11208 C 1052.51 -1.50387 -1.22871 0
M  V30 11209 O 1051.78 -0.692003 -1.81773 0
M  V30 11210 C 1052.07 -3.59798 0.147449 0
M  V30 11211 C 1051.92 -4.21916 1.55907 0
M  V30 11212 C 1053.24 -4.36985 -0.522667 0
M  V30 11213 H 1050.36 -0.734875 0.0559274 0
M  V30 11214 H 1053 -1.71418 0.819513 0
M  V30 11215 H 1051.15 -3.86193 -0.422789 0
M  V30 11216 H 1052.82 -4.06594 2.17896 0
M  V30 11217 H 1051.06 -3.79028 2.10998 0
M  V30 11218 H 1051.74 -5.30964 1.50934 0
M  V30 11219 H 1054.21 -4.16083 -0.0376226 0
M  V30 11220 H 1053.09 -5.46676 -0.493572 0
M  V30 11221 H 1053.35 -4.12335 -1.59475 0
M  V30 11222 N 1052.41 -0.382291 -1.52893 0
M  V30 11223 C 1053.65 0.194935 -2.02464 0
M  V30 11224 C 1054.01 1.45051 -1.26404 0
M  V30 11225 O 1053.3 1.88302 -0.353968 0
M  V30 11226 C 1053.5 0.523437 -3.53546 0
M  V30 11227 C 1053.32 -0.698754 -4.44238 0
M  V30 11228 C 1052.09 -1.2159 -4.90453 0
M  V30 11229 C 1054.29 -1.56899 -4.89783 0
M  V30 11230 N 1052.27 -2.39637 -5.65197 0
M  V30 11231 C 1053.65 -2.59595 -5.63037 0
M  V30 11232 C 1055.7 -1.58991 -4.71833 0
M  V30 11233 C 1054.4 -3.6426 -6.20248 0
M  V30 11234 C 1056.43 -2.62559 -5.29922 0
M  V30 11235 C 1055.79 -3.63977 -6.03076 0
M  V30 11236 H 1051.89 0.0336043 -0.781278 0
M  V30 11237 H 1054.47 -0.530603 -1.8733 0
M  V30 11238 H 1052.65 1.21804 -3.68807 0
M  V30 11239 H 1054.38 1.0872 -3.89823 0
M  V30 11240 H 1051.13 -0.777967 -4.67167 0
M  V30 11241 H 1051.56 -2.99348 -6.07223 0
M  V30 11242 H 1056.2 -0.819305 -4.14786 0
M  V30 11243 H 1053.92 -4.42192 -6.76382 0
M  V30 11244 H 1057.5 -2.65052 -5.17918 0
M  V30 11245 H 1056.38 -4.42802 -6.47222 0
M  V30 11246 N 1053.89 1.57202 -0.111913 0
M  V30 11247 C 1055.13 1.9495 0.547795 0
M  V30 11248 C 1055.46 0.994763 1.67137 0
M  V30 11249 O 1054.72 0.0173528 1.95692 0
M  V30 11250 C 1055.01 3.39152 1.12741 0
M  V30 11251 C 1054.68 4.50724 0.125916 0
M  V30 11252 C 1053.34 4.80968 -0.149489 0
M  V30 11253 C 1055.69 5.18215 -0.556987 0
M  V30 11254 C 1053.02 5.76023 -1.1142 0
M  V30 11255 C 1055.37 6.14307 -1.51029 0
M  V30 11256 C 1054.04 6.42947 -1.79375 0
M  V30 11257 H 1053.31 0.713372 0.200453 0
M  V30 11258 H 1055.96 1.90542 -0.191316 0
M  V30 11259 H 1054.26 3.4022 1.94313 0
M  V30 11260 H 1055.96 3.65668 1.64584 0
M  V30 11261 H 1052.55 4.27162 0.350756 0
M  V30 11262 H 1056.73 4.95012 -0.357378 0
M  V30 11263 H 1051.99 5.9652 -1.34064 0
M  V30 11264 H 1056.16 6.65692 -2.04516 0
M  V30 11265 H 1053.79 7.1641 -2.54284 0
M  V30 11266 N 1055.36 -0.161842 1.56767 0
M  V30 11267 C 1056.61 -0.878224 1.82798 0
M  V30 11268 C 1056.94 -1.81481 0.691242 0
M  V30 11269 O 1056.22 -1.92075 -0.30618 0
M  V30 11270 C 1056.5 -1.66565 3.19262 0
M  V30 11271 C 1056.35 -0.751551 4.43477 0
M  V30 11272 C 1057.67 -2.63134 3.52773 0
M  V30 11273 H 1054.79 -0.317828 0.664947 0
M  V30 11274 H 1057.43 -0.14402 1.89453 0
M  V30 11275 H 1055.58 -2.29157 3.13719 0
M  V30 11276 H 1057.26 -0.137783 4.61094 0
M  V30 11277 H 1055.5 -0.0601785 4.33758 0
M  V30 11278 H 1056.17 -1.33823 5.35533 0
M  V30 11279 H 1058.65 -2.10666 3.5883 0
M  V30 11280 H 1057.52 -3.15289 4.49315 0
M  V30 11281 H 1057.78 -3.43786 2.77963 0
M  V30 11282 N 1056.84 -1.516 -0.430713 0
M  V30 11283 C 1058.09 -1.6484 -1.18134 0
M  V30 11284 C 1058.42 -0.366725 -1.90706 0
M  V30 11285 O 1057.7 0.63398 -1.83878 0
M  V30 11286 C 1057.98 -2.85617 -2.19306 0
M  V30 11287 C 1057.83 -4.23778 -1.50773 0
M  V30 11288 C 1059.15 -3.01909 -3.20217 0
M  V30 11289 H 1056.27 -0.599907 -0.428113 0
M  V30 11290 H 1058.91 -1.84102 -0.46973 0
M  V30 11291 H 1057.06 -2.69325 -2.79993 0
M  V30 11292 H 1058.73 -4.51752 -0.93371 0
M  V30 11293 H 1056.98 -4.26171 -0.809966 0
M  V30 11294 H 1057.65 -5.04291 -2.24487 0
M  V30 11295 H 1060.12 -3.16956 -2.69589 0
M  V30 11296 H 1059 -3.87968 -3.88293 0
M  V30 11297 H 1059.26 -2.1427 -3.86705 0
M  V30 11298 N 1058.32 0.686584 -1.41858 0
M  V30 11299 C 1059.6 1.44176 -1.32185 0
M  V30 11300 C 1059.98 2.11049 0.046362 0
M  V30 11301 O 1059.32 2.02365 1.06117 0
M  V30 11302 C 1059.53 2.45385 -2.48168 0
M  V30 11303 C 1060.88 3.10375 -2.89746 0
M  V30 11304 O 1061.91 2.55711 -2.47973 0
M  V30 11305 O 1060.77 4.09404 -3.62009 0
M  V30 11306 H 1057.86 0.642513 -0.520678 0
M  V30 11307 H 1060.41 0.716303 -1.53841 0
M  V30 11308 H 1059.18 1.94687 -3.3943 0
M  V30 11309 H 1058.8 3.25428 -2.28435 0
M  V30 11310 N 1059.8 1.27835 0.921735 0
M  V30 11311 C 1061.21 1.13151 1.48505 0
M  V30 11312 C 1061.56 -0.281373 1.94172 0
M  V30 11313 O 1060.68 -1.17487 1.8173 0
M  V30 11314 C 1061.28 2.04792 2.69899 0
M  V30 11315 C 1059.84 1.94196 3.22436 0
M  V30 11316 C 1058.99 1.96999 1.95158 0
M  V30 11317 H 1061.94 1.40641 0.735241 0
M  V30 11318 H 1061.96 1.60724 3.44889 0
M  V30 11319 H 1061.47 3.07615 2.36631 0
M  V30 11320 H 1059.57 0.943805 3.60448 0
M  V30 11321 H 1059.68 2.80744 3.88226 0
M  V30 11322 H 1058.05 1.41301 2.11911 0
M  V30 11323 H 1058.83 3.01487 1.64196 0
M  V30 11324 N 1061.28 -1.12907 1.09954 0
M  V30 11325 C 1062.69 -1.65847 0.857417 0
M  V30 11326 C 1063.04 -1.86372 -0.613176 0
M  V30 11327 O 1062.16 -1.58654 -1.47166 0
M  V30 11328 C 1062.76 -3.01269 1.54991 0
M  V30 11329 C 1061.32 -3.51179 1.35462 0
M  V30 11330 C 1060.46 -2.26307 1.60251 0
M  V30 11331 H 1063.41 -0.96755 1.25794 0
M  V30 11332 H 1063.44 -3.675 0.986091 0
M  V30 11333 H 1062.95 -2.86299 2.6202 0
M  V30 11334 H 1061.05 -3.71343 0.305742 0
M  V30 11335 H 1061.16 -4.30955 2.09318 0
M  V30 11336 H 1059.53 -2.33167 1.02494 0
M  V30 11337 H 1060.31 -2.13896 2.68521 0
M  V30 11338 N 1062.75 -0.88754 -1.30232 0
M  V30 11339 C 1063.7 -0.327649 -2.25633 0
M  V30 11340 C 1064.69 0.545362 -1.51376 0
M  V30 11341 O 1065.88 0.389366 -1.72664 0
M  V30 11342 C 1063.01 0.454546 -3.40277 0
M  V30 11343 C 1062.09 -0.432698 -4.21887 0
M  V30 11344 N 1062.49 -1.53434 -4.81966 0
M  V30 11345 C 1060.78 -0.228275 -4.45415 0
M  V30 11346 C 1061.48 -2.08292 -5.43129 0
M  V30 11347 N 1060.46 -1.37754 -5.25856 0
M  V30 11348 H 1064.26 -1.16937 -2.69635 0
M  V30 11349 H 1061.78 -0.737232 -1.44702 0
M  V30 11350 H 1063.77 0.87231 -4.07672 0
M  V30 11351 H 1062.43 1.29367 -2.97816 0
M  V30 11352 H 1063.44 -1.91717 -4.81108 0
M  V30 11353 H 1060.12 0.573475 -4.13543 0
M  V30 11354 H 1061.51 -3.00818 -6.00798 0
M  V30 11355 N 1064.23 1.43628 -0.648757 0
M  V30 11356 C 1065.48 2.01083 -0.157692 0
M  V30 11357 C 1065.79 1.51756 1.23408 0
M  V30 11358 O 1067 2.01455 1.82012 0
M  V30 11359 C 1065.46 3.59157 -0.231118 0
M  V30 11360 C 1065.06 4.17478 -1.6253 0
M  V30 11361 C 1066.81 4.24016 0.202573 0
M  V30 11362 C 1064.72 5.67832 -1.6529 0
M  V30 11363 H 1063.65 0.751977 -0.0551897 0
M  V30 11364 H 1066.3 1.64648 -0.810139 0
M  V30 11365 H 1064.68 3.92972 0.488755 0
M  V30 11366 H 1065.85 3.9517 -2.37017 0
M  V30 11367 H 1064.17 3.64973 -2.00459 0
M  V30 11368 H 1066.76 5.34319 0.20174 0
M  V30 11369 H 1067.11 3.97616 1.23319 0
M  V30 11370 H 1067.64 3.95068 -0.465398 0
M  V30 11371 H 1064.38 5.98994 -2.66246 0
M  V30 11372 H 1063.9 5.92209 -0.951217 0
M  V30 11373 H 1065.58 6.3179 -1.39465 0
M  V30 11374 N 1065.71 0.390394 1.52688 0
M  V30 11375 C 1066.96 -0.192697 2.00777 0
M  V30 11376 C 1067.27 -1.4781 1.28108 0
M  V30 11377 O 1068.48 -2.1413 1.66914 0
M  V30 11378 C 1066.93 -0.393955 3.57737 0
M  V30 11379 C 1066.54 0.878259 4.39307 0
M  V30 11380 C 1068.29 -0.933352 4.14112 0
M  V30 11381 C 1066.19 0.645218 5.8787 0
M  V30 11382 H 1065.12 -0.0757862 0.750182 0
M  V30 11383 H 1067.77 0.512961 1.76184 0
M  V30 11384 H 1066.16 -1.16149 3.78583 0
M  V30 11385 H 1067.33 1.65049 4.30227 0
M  V30 11386 H 1065.65 1.34269 3.94158 0
M  V30 11387 H 1068.24 -1.12343 5.22765 0
M  V30 11388 H 1068.59 -1.90272 3.70273 0
M  V30 11389 H 1069.12 -0.225361 3.97161 0
M  V30 11390 H 1065.86 1.58562 6.36033 0
M  V30 11391 H 1065.38 -0.0880609 5.99735 0
M  V30 11392 H 1067.06 0.280178 6.46393 0
M  V30 11393 N 1067.19 -1.57141 0.120249 0
M  V30 11394 C 1068.44 -1.94413 -0.53727 0
M  V30 11395 C 1068.75 -1.00594 -1.67751 0
M  V30 11396 O 1069.96 -1.27336 -2.39787 0
M  V30 11397 C 1068.41 -3.45521 -1.00714 0
M  V30 11398 C 1068.02 -4.47878 0.104706 0
M  V30 11399 C 1069.76 -3.9171 -1.63596 0
M  V30 11400 C 1067.67 -5.90165 -0.381932 0
M  V30 11401 H 1066.6 -0.725745 -0.204475 0
M  V30 11402 H 1069.25 -1.82404 0.200302 0
M  V30 11403 H 1067.63 -3.52769 -1.79917 0
M  V30 11404 H 1068.81 -4.523 0.881002 0
M  V30 11405 H 1067.12 -4.11448 0.640264 0
M  V30 11406 H 1069.72 -4.95433 -2.01122 0
M  V30 11407 H 1070.06 -3.31756 -2.51483 0
M  V30 11408 H 1070.6 -3.87268 -0.909319 0
M  V30 11409 H 1067.34 -6.53877 0.460921 0
M  V30 11410 H 1066.86 -5.89161 -1.12468 0
M  V30 11411 H 1068.53 -6.41488 -0.842748 0
M  V30 11412 N 1068.67 0.153526 -1.5685 0
M  V30 11413 C 1069.94 0.895545 -1.73895 0
M  V30 11414 C 1070.32 1.99625 -0.686504 0
M  V30 11415 O 1069.67 2.26579 0.2957 0
M  V30 11416 C 1069.88 1.44399 -3.17726 0
M  V30 11417 C 1071.23 1.90996 -3.79217 0
M  V30 11418 O 1072.25 1.54155 -3.21115 0
M  V30 11419 O 1071.11 2.58917 -4.81274 0
M  V30 11420 H 1068.21 0.422755 -0.710779 0
M  V30 11421 H 1070.75 0.139961 -1.69122 0
M  V30 11422 H 1069.52 0.652635 -3.85819 0
M  V30 11423 H 1069.15 2.26326 -3.26898 0
M  V30 11424 N 1070.14 1.51827 0.422667 0
M  V30 11425 C 1071.37 1.68803 1.19117 0
M  V30 11426 C 1071.78 0.391228 1.85111 0
M  V30 11427 O 1071.13 -0.64148 1.72136 0
M  V30 11428 C 1071.19 2.75767 2.30636 0
M  V30 11429 C 1070.85 4.17929 1.8489 0
M  V30 11430 C 1071.85 5.02223 1.34416 0
M  V30 11431 C 1069.53 4.641 1.92136 0
M  V30 11432 C 1071.53 6.30756 0.917925 0
M  V30 11433 C 1069.21 5.92626 1.49123 0
M  V30 11434 C 1070.21 6.75782 0.990352 0
M  V30 11435 O 1069.9 8.01902 0.566386 0
M  V30 11436 H 1069.63 0.569303 0.364514 0
M  V30 11437 H 1072.19 1.9909 0.505208 0
M  V30 11438 H 1070.42 2.40827 3.02555 0
M  V30 11439 H 1072.11 2.81476 2.92448 0
M  V30 11440 H 1072.87 4.67749 1.28202 0
M  V30 11441 H 1068.75 3.99488 2.30066 0
M  V30 11442 H 1072.29 6.95612 0.52628 0
M  V30 11443 H 1068.19 6.26611 1.55012 0
M  V30 11444 H 1068.96 8.15579 0.690918 0
M  V30 11445 N 1071.62 -0.679052 1.4222 0
M  V30 11446 C 1072.87 -1.43627 1.42182 0
M  V30 11447 C 1073.19 -1.94964 0.0377095 0
M  V30 11448 O 1072.46 -1.72788 -0.923098 0
M  V30 11449 H 1071.04 -0.532972 0.523402 0
M  V30 11450 H 1073.7 -0.802649 1.77605 0
M  V30 11451 H 1072.8 -2.29137 2.11902 0
M  V30 11452 N 1073.1 -1.28322 -0.914942 0
M  V30 11453 C 1074.01 -1.13993 -2.05043 0
M  V30 11454 C 1075.03 -0.0667921 -1.73872 0
M  V30 11455 O 1076.2 -0.275845 -1.99502 0
M  V30 11456 C 1073.27 -0.801856 -3.373 0
M  V30 11457 C 1072.33 -1.95723 -3.82088 0
M  V30 11458 C 1071.56 -1.63519 -5.08033 0
M  V30 11459 O 1071.78 -0.54899 -5.67752 0
M  V30 11460 O 1070.72 -2.47844 -5.48504 0
M  V30 11461 H 1074.54 -2.09313 -2.2005 0
M  V30 11462 H 1072.13 -1.0763 -1.03616 0
M  V30 11463 H 1074.01 -0.627214 -4.16706 0
M  V30 11464 H 1072.69 0.121696 -3.23471 0
M  V30 11465 H 1071.59 -2.18702 -3.03514 0
M  V30 11466 H 1072.93 -2.86144 -4.00478 0
M  V30 11467 N 1074.58 1.12322 -1.10551 0
M  V30 11468 C 1075.51 2.17819 -0.713263 0
M  V30 11469 C 1076.52 1.6086 0.250604 0
M  V30 11470 O 1077.71 1.78466 0.0348909 0
M  V30 11471 C 1074.81 3.38885 -0.0320325 0
M  V30 11472 C 1073.99 4.25332 -1.02038 0
M  V30 11473 C 1073.04 5.24895 -0.370412 0
M  V30 11474 O 1072.07 5.59958 -1.02157 0
M  V30 11475 N 1073.27 5.73934 0.870633 0
M  V30 11476 H 1076.04 2.52083 -1.62094 0
M  V30 11477 H 1073.6 1.27755 -0.994492 0
M  V30 11478 H 1075.59 4.02574 0.414285 0
M  V30 11479 H 1074.16 3.02762 0.778072 0
M  V30 11480 H 1073.38 3.5824 -1.64492 0
M  V30 11481 H 1074.67 4.79936 -1.68936 0
M  V30 11482 H 1074.07 5.47614 1.419 0
M  V30 11483 H 1072.62 6.39504 1.26008 0
M  V30 11484 N 1076.06 0.894434 1.2976 0
M  V30 11485 C 1077.47 0.589778 1.48303 0
M  V30 11486 C 1077.67 -0.870085 1.81746 0
M  V30 11487 O 1076.73 -1.65065 1.91076 0
M  V30 11488 C 1078.04 1.51107 2.59975 0
M  V30 11489 C 1079.59 1.51571 2.73853 0
M  V30 11490 C 1080.06 2.42316 3.88648 0
M  V30 11491 N 1081.56 2.40333 3.95973 0
M  V30 11492 C 1082.29 3.07254 4.84131 0
M  V30 11493 N 1081.79 3.83435 5.77018 0
M  V30 11494 N 1083.58 2.96438 4.77578 0
M  V30 11495 H 1075.73 1.83871 1.06327 0
M  V30 11496 H 1077.99 0.78758 0.527657 0
M  V30 11497 H 1077.7 2.55097 2.42112 0
M  V30 11498 H 1077.57 1.22767 3.56662 0
M  V30 11499 H 1079.96 0.483277 2.91116 0
M  V30 11500 H 1080.04 1.83946 1.77757 0
M  V30 11501 H 1079.69 3.4565 3.72141 0
M  V30 11502 H 1079.62 2.07252 4.84101 0
M  V30 11503 H 1082.11 1.84979 3.29532 0
M  V30 11504 H 1082.42 4.31565 6.4107 0
M  V30 11505 H 1080.76 3.87542 5.7692 0
M  V30 11506 H 1083.96 2.36442 4.03996 0
M  V30 11507 H 1084.13 3.48867 5.46073 0
M  V30 11508 N 1077.53 -1.43282 0.656365 0
M  V30 11509 C 1078.76 -2.06125 0.178879 0
M  V30 11510 C 1079.18 -1.49216 -1.15672 0
M  V30 11511 O 1078.53 -0.624693 -1.71475 0
M  V30 11512 C 1078.59 -3.614 0.0851785 0
M  V30 11513 O 1078.31 -4.16194 1.36798 0
M  V30 11514 C 1079.81 -4.41325 -0.41801 0
M  V30 11515 H 1077.03 -0.664753 0.0913504 0
M  V30 11516 H 1079.57 -1.83733 0.897901 0
M  V30 11517 H 1077.73 -3.82966 -0.584421 0
M  V30 11518 H 1078.14 -5.09892 1.22924 0
M  V30 11519 H 1079.61 -5.50303 -0.432519 0
M  V30 11520 H 1080.09 -4.14577 -1.44991 0
M  V30 11521 H 1080.7 -4.24735 0.219208 0
M  V30 11522 N 1079.01 -0.398486 -1.52479 0
M  V30 11523 C 1079.94 0.423498 -2.29627 0
M  V30 11524 C 1080.92 1.05547 -1.33394 0
M  V30 11525 O 1082.11 1.0665 -1.62294 0
M  V30 11526 C 1079.24 1.54612 -3.10986 0
M  V30 11527 C 1078.19 1.03971 -4.15179 0
M  V30 11528 C 1077.52 2.25512 -4.84818 0
M  V30 11529 C 1078.82 0.10121 -5.22202 0
M  V30 11530 H 1080.51 -0.220222 -2.98589 0
M  V30 11531 H 1078.06 -0.107355 -1.43599 0
M  V30 11532 H 1080.01 2.12806 -3.63719 0
M  V30 11533 H 1078.74 2.21756 -2.39774 0
M  V30 11534 H 1077.4 0.480251 -3.63441 0
M  V30 11535 H 1077.04 2.91187 -4.10145 0
M  V30 11536 H 1076.74 1.92285 -5.55248 0
M  V30 11537 H 1078.27 2.84331 -5.40359 0
M  V30 11538 H 1079.68 0.591617 -5.70239 0
M  V30 11539 H 1078.08 -0.141737 -5.99933 0
M  V30 11540 H 1079.15 -0.847216 -4.77441 0
M  V30 11541 N 1080.49 1.57075 -0.12858 0
M  V30 11542 C 1081.77 1.87075 0.571162 0
M  V30 11543 C 1082.15 1.03141 1.84188 0
M  V30 11544 O 1081.5 0.113001 2.2822 0
M  V30 11545 C 1081.71 3.3838 0.854383 0
M  V30 11546 C 1083.05 4.07194 1.20326 0
M  V30 11547 O 1084.08 3.43454 0.944338 0
M  V30 11548 O 1082.94 5.19725 1.68963 0
M  V30 11549 H 1080.03 0.774764 0.289258 0
M  V30 11550 H 1082.58 1.68908 -0.163806 0
M  V30 11551 H 1081.35 3.91273 -0.0456925 0
M  V30 11552 H 1080.97 3.62012 1.64418 0
M  V30 11553 N 1081.97 -0.145205 1.5693 0
M  V30 11554 C 1083.38 -0.705089 1.72874 0
M  V30 11555 C 1083.73 -1.81577 0.743261 0
M  V30 11556 O 1082.86 -2.16214 -0.0897153 0
M  V30 11557 C 1083.45 -1.28578 3.13454 0
M  V30 11558 C 1082.01 -1.79221 3.30994 0
M  V30 11559 C 1081.16 -0.681392 2.68798 0
M  V30 11560 H 1084.11 0.0804798 1.58496 0
M  V30 11561 H 1084.13 -2.15558 3.13552 0
M  V30 11562 H 1083.64 -0.477186 3.85155 0
M  V30 11563 H 1081.74 -2.62642 2.64292 0
M  V30 11564 H 1081.86 -1.91969 4.38959 0
M  V30 11565 H 1080.22 -1.10847 2.29314 0
M  V30 11566 H 1081 0.115786 3.43105 0
M  V30 11567 N 1083.45 -1.52049 -0.414609 0
M  V30 11568 C 1084.36 -1.7788 -1.52958 0
M  V30 11569 C 1085.37 -0.66408 -1.60829 0
M  V30 11570 O 1086.55 -0.948882 -1.77646 0
M  V30 11571 C 1083.61 -1.91906 -2.88744 0
M  V30 11572 C 1082.68 -3.15803 -2.90804 0
M  V30 11573 C 1081.91 -3.29151 -4.20114 0
M  V30 11574 O 1082.13 -2.47892 -5.13718 0
M  V30 11575 O 1081.07 -4.2227 -4.28919 0
M  V30 11576 H 1084.89 -2.72506 -1.34067 0
M  V30 11577 H 1082.48 -1.36826 -0.599918 0
M  V30 11578 H 1084.36 -2.02986 -3.6929 0
M  V30 11579 H 1083.03 -1.00468 -3.07714 0
M  V30 11580 H 1081.94 -3.10185 -2.09131 0
M  V30 11581 H 1083.27 -4.07004 -2.76783 0
M  V30 11582 N 1084.93 0.6715 -1.42579 0
M  V30 11583 C 1085.87 1.78496 -1.46314 0
M  V30 11584 C 1086.84 1.63091 -0.314743 0
M  V30 11585 O 1088.03 1.83597 -0.519292 0
M  V30 11586 C 1085.17 3.16548 -1.37447 0
M  V30 11587 C 1084.28 3.43216 -2.62348 0
M  V30 11588 C 1083.42 4.71014 -2.456 0
M  V30 11589 C 1082.45 4.90728 -3.65859 0
M  V30 11590 N 1081.59 6.09769 -3.48032 0
M  V30 11591 H 1086.43 1.74638 -2.41466 0
M  V30 11592 H 1083.97 0.852491 -1.19879 0
M  V30 11593 H 1085.93 3.96329 -1.30303 0
M  V30 11594 H 1084.56 3.19522 -0.458891 0
M  V30 11595 H 1083.61 2.57664 -2.79846 0
M  V30 11596 H 1084.92 3.53675 -3.51732 0
M  V30 11597 H 1084.07 5.58892 -2.3606 0
M  V30 11598 H 1082.81 4.62843 -1.53712 0
M  V30 11599 H 1081.82 4.01291 -3.75827 0
M  V30 11600 H 1083.04 5.00741 -4.58732 0
M  V30 11601 H 1080.99 6.02765 -2.58864 0
M  V30 11602 H 1080.91 6.21104 -4.31005 0
M  V30 11603 H 1082.17 7.00317 -3.42311 0
M  V30 11604 N 1086.4 1.28806 0.908124 0
M  V30 11605 C 1087.37 1.13228 1.99279 0
M  V30 11606 C 1088.37 0.0702456 1.60646 0
M  V30 11607 O 1089.56 0.316494 1.71301 0
M  V30 11608 C 1086.69 0.729629 3.33 0
M  V30 11609 H 1087.88 2.09566 2.14528 0
M  V30 11610 H 1085.43 1.11872 1.09153 0
M  V30 11611 H 1086.17 -0.234268 3.23453 0
M  V30 11612 H 1085.95 1.49688 3.62403 0
M  V30 11613 H 1087.44 0.643449 4.12613 0
M  V30 11614 N 1087.88 -1.11734 1.11145 0
M  V30 11615 C 1089.3 -1.35412 0.844736 0
M  V30 11616 C 1089.5 -1.94347 -0.532111 0
M  V30 11617 O 1088.55 -2.17443 -1.28353 0
M  V30 11618 C 1089.87 -2.28869 1.95037 0
M  V30 11619 C 1091.41 -2.42442 1.97967 0
M  V30 11620 C 1091.89 -3.39219 3.07725 0
M  V30 11621 N 1093.38 -3.4678 3.07079 0
M  V30 11622 C 1094.12 -4.21595 3.88646 0
M  V30 11623 N 1093.61 -4.99411 4.80167 0
M  V30 11624 N 1095.4 -4.17075 3.76835 0
M  V30 11625 H 1087.56 -0.718412 1.99881 0
M  V30 11626 H 1089.82 -0.378787 0.869037 0
M  V30 11627 H 1089.52 -1.92752 2.94176 0
M  V30 11628 H 1089.4 -3.2906 1.84389 0
M  V30 11629 H 1091.79 -2.77835 0.994561 0
M  V30 11630 H 1091.87 -1.42113 2.12691 0
M  V30 11631 H 1091.51 -3.04553 4.0646 0
M  V30 11632 H 1091.44 -4.39394 2.90242 0
M  V30 11633 H 1093.93 -2.91272 2.40767 0
M  V30 11634 H 1094.24 -5.53856 5.38946 0
M  V30 11635 H 1092.59 -4.98582 4.84191 0
M  V30 11636 H 1095.78 -3.55369 3.04681 0
M  V30 11637 H 1095.95 -4.75125 4.40637 0
M  V30 11638 N 1089.36 -0.901303 -1.29284 0
M  V30 11639 C 1090.61 -0.527 -1.95108 0
M  V30 11640 C 1090.93 0.930065 -1.71391 0
M  V30 11641 O 1090.2 1.65601 -1.04658 0
M  V30 11642 H 1088.78 -0.191903 -0.721929 0
M  V30 11643 H 1091.44 -1.14795 -1.57506 0
M  V30 11644 H 1090.54 -0.710945 -3.03895 0
M  V30 11645 N 1090.84 1.42931 -0.663954 0
M  V30 11646 C 1092.08 2.01982 -0.182007 0
M  V30 11647 C 1092.42 1.52323 1.20463 0
M  V30 11648 O 1091.69 0.720834 1.80649 0
M  V30 11649 C 1091.97 3.59518 -0.204671 0
M  V30 11650 C 1091.83 4.19382 -1.62599 0
M  V30 11651 C 1093.15 4.37762 0.45308 0
M  V30 11652 H 1090.27 0.733892 -0.0676115 0
M  V30 11653 H 1092.91 1.70092 -0.84668 0
M  V30 11654 H 1091.06 3.86816 0.361295 0
M  V30 11655 H 1092.73 4.03076 -2.24337 0
M  V30 11656 H 1090.97 3.75623 -2.17001 0
M  V30 11657 H 1091.64 5.28496 -1.59362 0
M  V30 11658 H 1094.12 4.1609 -0.0285774 0
M  V30 11659 H 1093 5.47392 0.406538 0
M  V30 11660 H 1093.26 4.1482 1.52895 0
M  V30 11661 N 1092.32 0.406567 1.52266 0
M  V30 11662 C 1093.25 -0.411314 2.29849 0
M  V30 11663 C 1094.23 -1.04838 1.33952 0
M  V30 11664 O 1095.41 -1.05788 1.62857 0
M  V30 11665 C 1092.54 -1.52961 3.11802 0
M  V30 11666 C 1091.5 -1.01768 4.15725 0
M  V30 11667 C 1090.82 -2.22938 4.86007 0
M  V30 11668 C 1092.12 -0.073515 5.22248 0
M  V30 11669 H 1093.82 0.236054 2.98468 0
M  V30 11670 H 1091.36 0.114968 1.4354 0
M  V30 11671 H 1093.31 -2.10874 3.64843 0
M  V30 11672 H 1092.04 -2.20482 2.40947 0
M  V30 11673 H 1090.7 -0.46097 3.6369 0
M  V30 11674 H 1090.35 -2.89007 4.11684 0
M  V30 11675 H 1090.05 -1.89338 5.5626 0
M  V30 11676 H 1091.57 -2.81462 5.41859 0
M  V30 11677 H 1092.98 -0.561367 5.70545 0
M  V30 11678 H 1091.38 0.173551 5.99849 0
M  V30 11679 H 1092.45 0.872524 4.76985 0
M  V30 11680 N 1093.79 -1.57004 0.136909 0
M  V30 11681 C 1094.74 -2.16246 -0.806607 0
M  V30 11682 C 1095.71 -1.09246 -1.25118 0
M  V30 11683 O 1096.9 -1.3724 -1.32551 0
M  V30 11684 C 1094.04 -2.78031 -2.04433 0
M  V30 11685 C 1093.15 -3.99393 -1.64649 0
M  V30 11686 C 1092.28 -4.49208 -2.83524 0
M  V30 11687 C 1091.32 -5.63059 -2.40064 0
M  V30 11688 N 1090.46 -6.07537 -3.51913 0
M  V30 11689 H 1095.3 -2.9654 -0.294596 0
M  V30 11690 H 1092.84 -1.46491 -0.133705 0
M  V30 11691 H 1094.8 -3.11992 -2.76978 0
M  V30 11692 H 1093.43 -2.00398 -2.53062 0
M  V30 11693 H 1092.48 -3.71477 -0.819077 0
M  V30 11694 H 1093.79 -4.81904 -1.28723 0
M  V30 11695 H 1092.94 -4.85171 -3.64271 0
M  V30 11696 H 1091.68 -3.65683 -3.22688 0
M  V30 11697 H 1090.69 -5.26682 -1.57754 0
M  V30 11698 H 1091.91 -6.48362 -2.01997 0
M  V30 11699 H 1089.86 -5.2695 -3.90717 0
M  V30 11700 H 1089.78 -6.84949 -3.1997 0
M  V30 11701 H 1091.04 -6.48143 -4.33048 0
M  V30 11702 N 1095.27 0.136881 -1.57004 0
M  V30 11703 C 1096.51 0.853873 -1.8571 0
M  V30 11704 C 1096.88 1.77885 -0.722556 0
M  V30 11705 O 1098.08 2.53606 -0.89092 0
M  V30 11706 C 1096.35 1.59935 -3.19618 0
M  V30 11707 S 1097.91 2.36038 -3.69908 0
M  V30 11708 H 1094.73 0.285342 -0.65123 0
M  V30 11709 H 1097.33 0.113254 -1.95172 0
M  V30 11710 H 1096.03 0.91148 -4.0015 0
M  V30 11711 H 1095.56 2.38069 -3.13188 0
M  V30 11712 H 1097.58 3.61425 -3.3998 0
M  V30 11713 N 1096.75 1.52266 0.40654 0
M  V30 11714 C 1098.03 1.57018 1.1664 0
M  V30 11715 C 1098.41 0.352752 2.08132 0
M  V30 11716 O 1097.76 -0.660208 2.18754 0
M  V30 11717 C 1097.97 2.90016 1.94143 0
M  V30 11718 C 1099.31 3.43112 2.50119 0
M  V30 11719 O 1100.34 2.91773 2.0432 0
M  V30 11720 O 1099.2 4.32765 3.33731 0
M  V30 11721 H 1096.29 0.632574 0.532709 0
M  V30 11722 H 1098.84 1.64595 0.413111 0
M  V30 11723 H 1097.61 3.70071 1.27134 0
M  V30 11724 H 1097.23 2.85744 2.76471 0
M  V30 11725 N 1098.23 -0.663929 1.42933 0
M  V30 11726 C 1099.48 -1.41973 1.43271 0
M  V30 11727 C 1099.79 -1.95518 0.0566103 0
M  V30 11728 O 1101 -2.71428 -0.0625862 0
M  V30 11729 C 1099.45 -2.56882 2.52071 0
M  V30 11730 C 1099.06 -2.0999 3.95737 0
M  V30 11731 C 1100.8 -3.34322 2.61589 0
M  V30 11732 C 1098.71 -3.22046 4.96025 0
M  V30 11733 H 1097.64 -0.5334 0.532917 0
M  V30 11734 H 1100.29 -0.717709 1.68882 0
M  V30 11735 H 1098.67 -3.29504 2.19643 0
M  V30 11736 H 1099.85 -1.44449 4.37574 0
M  V30 11737 H 1098.16 -1.45459 3.90168 0
M  V30 11738 H 1100.76 -4.17796 3.33692 0
M  V30 11739 H 1101.1 -3.8164 1.66302 0
M  V30 11740 H 1101.64 -2.68775 2.93266 0
M  V30 11741 H 1098.38 -2.79708 5.92827 0
M  V30 11742 H 1097.9 -3.86333 4.5881 0
M  V30 11743 H 1099.57 -3.87345 5.1824 0
M  V30 11744 N 1099.71 -1.29285 -0.901281 0
M  V30 11745 C 1100.93 -1.20169 -1.69039 0
M  V30 11746 C 1101.36 0.234509 -1.86632 0
M  V30 11747 O 1100.71 1.16935 -1.38549 0
M  V30 11748 C 1100.76 -1.91852 -3.05328 0
M  V30 11749 O 1099.87 -1.23448 -3.9349 0
M  V30 11750 H 1099.21 -0.416486 -0.517141 0
M  V30 11751 H 1101.74 -1.70826 -1.12603 0
M  V30 11752 H 1101.75 -2.00244 -3.5548 0
M  V30 11753 H 1100.42 -2.96313 -2.91841 0
M  V30 11754 H 1099 -1.23303 -3.51924 0
M  V30 11755 N 1101.18 1.11143 -1.11736 0
M  V30 11756 C 1102.46 1.79384 -0.779785 0
M  V30 11757 C 1102.84 1.98015 0.731668 0
M  V30 11758 O 1102.19 1.56731 1.66276 0
M  V30 11759 C 1102.4 3.12868 -1.54643 0
M  V30 11760 C 1103.75 3.8786 -1.7277 0
M  V30 11761 O 1104.77 3.22566 -1.51094 0
M  V30 11762 O 1103.63 5.05034 -2.08813 0
M  V30 11763 H 1100.72 0.777128 -0.282845 0
M  V30 11764 H 1103.27 1.17858 -1.22096 0
M  V30 11765 H 1102.04 2.94682 -2.57446 0
M  V30 11766 H 1101.67 3.82109 -1.09901 0
M  V30 11767 N 1102.66 0.908147 1.28804 0
M  V30 11768 C 1103.59 0.409106 2.29888 0
M  V30 11769 C 1104.57 -0.520338 1.61946 0
M  V30 11770 O 1105.76 -0.429268 1.89396 0
M  V30 11771 C 1102.89 -0.35669 3.45463 0
M  V30 11772 C 1101.84 0.4831 4.25265 0
M  V30 11773 C 1101.17 -0.4107 5.3312 0
M  V30 11774 C 1102.47 1.73744 4.92555 0
M  V30 11775 H 1104.16 1.25386 2.7188 0
M  V30 11776 H 1101.71 0.604368 1.30703 0
M  V30 11777 H 1103.66 -0.71661 4.15262 0
M  V30 11778 H 1102.39 -1.2353 3.02337 0
M  V30 11779 H 1101.04 0.825464 3.57186 0
M  V30 11780 H 1100.69 -1.28769 4.86238 0
M  V30 11781 H 1100.39 0.14756 5.87415 0
M  V30 11782 H 1101.92 -0.766626 6.05768 0
M  V30 11783 H 1103.33 1.44676 5.54745 0
M  V30 11784 H 1101.73 2.23767 5.5682 0
M  V30 11785 H 1102.8 2.46853 4.17363 0
M  V30 11786 N 1104.14 -1.42577 0.671525 0
M  V30 11787 C 1105.37 -2.06442 0.199152 0
M  V30 11788 C 1105.79 -1.50104 -1.1336 0
M  V30 11789 O 1105.15 -0.618211 -1.70434 0
M  V30 11790 C 1105.2 -3.60323 0.141215 0
M  V30 11791 O 1104.3 -4.02655 -0.891238 0
M  V30 11792 H 1103.64 -0.655919 0.103277 0
M  V30 11793 H 1106.17 -1.82768 0.919614 0
M  V30 11794 H 1106.18 -4.07984 -0.0360209 0
M  V30 11795 H 1104.86 -4.00702 1.11403 0
M  V30 11796 H 1103.43 -3.66549 -0.685309 0
M  V30 11797 N 1105.62 -0.414636 -1.52048 0
M  V30 11798 C 1106.55 0.399119 -2.30064 0
M  V30 11799 C 1107.53 1.04126 -1.34506 0
M  V30 11800 O 1108.71 1.04923 -1.63416 0
M  V30 11801 C 1105.84 1.51305 -3.12608 0
M  V30 11802 C 1104.8 0.995621 -4.16259 0
M  V30 11803 C 1104.12 2.20357 -4.87183 0
M  V30 11804 C 1105.42 0.0458178 -5.2228 0
M  V30 11805 H 1107.12 -0.251879 -2.98339 0
M  V30 11806 H 1104.66 -0.122579 -1.43477 0
M  V30 11807 H 1106.62 2.08936 -3.65956 0
M  V30 11808 H 1105.34 2.19201 -2.42113 0
M  V30 11809 H 1104 0.441676 -3.6393 0
M  V30 11810 H 1103.65 2.8682 -4.13211 0
M  V30 11811 H 1103.35 1.86385 -5.57256 0
M  V30 11812 H 1104.87 2.78584 -5.43345 0
M  V30 11813 H 1106.29 0.531102 -5.70835 0
M  V30 11814 H 1104.68 -0.20536 -5.99749 0
M  V30 11815 H 1105.75 -0.897807 -4.76516 0
M  V30 11816 N 1107.1 1.56929 -0.145233 0
M  V30 11817 C 1108.35 1.95243 0.506273 0
M  V30 11818 C 1108.66 1.0325 1.66129 0
M  V30 11819 O 1109.86 1.31135 2.37731 0
M  V30 11820 C 1108.32 3.47079 0.952042 0
M  V30 11821 C 1107.93 4.47654 -0.175947 0
M  V30 11822 C 1109.67 3.94263 1.57344 0
M  V30 11823 C 1107.58 5.90698 0.287993 0
M  V30 11824 H 1106.51 0.728906 0.192903 0
M  V30 11825 H 1109.16 1.82062 -0.229295 0
M  V30 11826 H 1107.54 3.55587 1.74282 0
M  V30 11827 H 1108.72 4.50841 -0.952848 0
M  V30 11828 H 1107.03 4.10377 -0.70564 0
M  V30 11829 H 1109.63 4.9857 1.93214 0
M  V30 11830 H 1109.97 3.35714 2.46174 0
M  V30 11831 H 1110.5 3.88665 0.847593 0
M  V30 11832 H 1107.24 6.53061 -0.564889 0
M  V30 11833 H 1106.76 5.90876 1.03081 0
M  V30 11834 H 1108.44 6.42747 0.740586 0
M  V30 11835 N 1108.58 -0.128553 1.57075 0
M  V30 11836 C 1109.82 -0.844012 1.86161 0
M  V30 11837 C 1110.18 -1.77499 0.73198 0
M  V30 11838 O 1111.38 -2.5313 0.904357 0
M  V30 11839 C 1109.65 -1.58238 3.20462 0
M  V30 11840 S 1111.21 -2.34073 3.71154 0
M  V30 11841 H 1108.03 -0.281884 0.652734 0
M  V30 11842 H 1110.63 -0.102902 1.95229 0
M  V30 11843 H 1109.33 -0.890246 4.00628 0
M  V30 11844 H 1108.87 -2.36404 3.14446 0
M  V30 11845 H 1110.88 -3.59617 3.41892 0
M  V30 11846 N 1110.05 -1.5248 -0.398459 0
M  V30 11847 C 1111.28 -1.71221 -1.17039 0
M  V30 11848 C 1111.7 -0.425515 -1.83224 0
M  V30 11849 O 1111.06 0.617938 -1.70444 0
M  V30 11850 C 1111.11 -2.8562 -2.20121 0
M  V30 11851 O 1110.21 -2.51934 -3.26501 0
M  V30 11852 H 1109.55 -0.569654 -0.34116 0
M  V30 11853 H 1112.08 -1.99231 -0.465652 0
M  V30 11854 H 1112.09 -3.10842 -2.64275 0
M  V30 11855 H 1110.77 -3.78969 -1.71334 0
M  V30 11856 H 1109.35 -2.3742 -2.87552 0
M  V30 11857 N 1111.53 0.65634 -1.43283 0
M  V30 11858 C 1112.46 1.78101 -1.51004 0
M  V30 11859 C 1113.44 1.66138 -0.36498 0
M  V30 11860 O 1114.63 1.85281 -0.581778 0
M  V30 11861 C 1111.76 3.16511 -1.42961 0
M  V30 11862 C 1110.71 3.43233 -2.55685 0
M  V30 11863 C 1110.04 4.81411 -2.32696 0
M  V30 11864 C 1111.34 3.38288 -3.97943 0
M  V30 11865 H 1113.03 1.71896 -2.45137 0
M  V30 11866 H 1110.58 0.825575 -1.17984 0
M  V30 11867 H 1112.53 3.94941 -1.46968 0
M  V30 11868 H 1111.25 3.23439 -0.45332 0
M  V30 11869 H 1109.91 2.67173 -2.51026 0
M  V30 11870 H 1109.56 4.85011 -1.33317 0
M  V30 11871 H 1109.26 5.00251 -3.08257 0
M  V30 11872 H 1110.79 5.62102 -2.38481 0
M  V30 11873 H 1112.2 4.06659 -4.04106 0
M  V30 11874 H 1110.6 3.68664 -4.73505 0
M  V30 11875 H 1111.67 2.36525 -4.23301 0
M  V30 11876 N 1113.01 1.29761 0.894412 0
M  V30 11877 C 1114.26 1.17806 1.64214 0
M  V30 11878 C 1114.58 -0.269588 1.93127 0
M  V30 11879 O 1113.85 -1.18352 1.56107 0
M  V30 11880 H 1112.43 0.433002 0.608702 0
M  V30 11881 H 1115.09 1.6276 1.07216 0
M  V30 11882 H 1114.19 1.73201 2.5963 0
M  V30 11883 N 1114.49 -1.10549 1.12324 0
M  V30 11884 C 1115.72 -1.86 0.899312 0
M  V30 11885 C 1116.13 -1.80881 -0.554854 0
M  V30 11886 O 1115.47 -1.19485 -1.39531 0
M  V30 11887 C 1115.53 -3.35384 1.29452 0
M  V30 11888 C 1115.19 -3.64263 2.75974 0
M  V30 11889 C 1116.19 -3.60962 3.74169 0
M  V30 11890 C 1113.88 -3.92976 3.1285 0
M  V30 11891 C 1115.87 -3.85966 5.07256 0
M  V30 11892 C 1113.56 -4.17637 4.4612 0
M  V30 11893 C 1114.56 -4.14122 5.43132 0
M  V30 11894 O 1114.24 -4.38156 6.73999 0
M  V30 11895 H 1113.98 -0.594743 0.321337 0
M  V30 11896 H 1116.53 -1.40674 1.49667 0
M  V30 11897 H 1114.76 -3.81361 0.640358 0
M  V30 11898 H 1116.45 -3.9222 1.04491 0
M  V30 11899 H 1117.21 -3.38819 3.47025 0
M  V30 11900 H 1113.09 -3.94843 2.3795 0
M  V30 11901 H 1116.64 -3.83138 5.82967 0
M  V30 11902 H 1112.53 -4.39258 4.72993 0
M  V30 11903 H 1113.3 -4.55677 6.79927 0
M  V30 11904 N 1115.97 -0.914965 -1.28321 0
M  V30 11905 C 1117.19 -0.564023 -1.99583 0
M  V30 11906 C 1117.62 0.847821 -1.6791 0
M  V30 11907 O 1116.97 1.56682 -0.912171 0
M  V30 11908 C 1117.02 -0.781368 -3.52033 0
M  V30 11909 O 1116.13 0.159072 -4.12093 0
M  V30 11910 H 1115.47 -0.218565 -0.626997 0
M  V30 11911 H 1118 -1.23074 -1.63444 0
M  V30 11912 H 1118.01 -0.691946 -4.0209 0
M  V30 11913 H 1116.68 -1.81059 -3.7442 0
M  V30 11914 H 1115.26 0.0208145 -3.72894 0
M  V30 11915 N 1117.44 1.42219 -0.679077 0
M  V30 11916 C 1118.69 2.00703 -0.200309 0
M  V30 11917 C 1119.01 1.54339 1.20161 0
M  V30 11918 O 1120.21 2.0527 1.77698 0
M  V30 11919 C 1118.67 3.58586 -0.307248 0
M  V30 11920 C 1118.28 4.13937 -1.71349 0
M  V30 11921 C 1120.02 4.24351 0.112588 0
M  V30 11922 C 1117.93 5.64198 -1.77297 0
M  V30 11923 H 1116.86 0.750638 -0.0711279 0
M  V30 11924 H 1119.51 1.62893 -0.844881 0
M  V30 11925 H 1117.89 3.93921 0.40529 0
M  V30 11926 H 1119.06 3.90054 -2.45346 0
M  V30 11927 H 1117.38 3.60639 -2.08155 0
M  V30 11928 H 1119.98 5.34627 0.0883578 0
M  V30 11929 H 1120.32 4.00142 1.14857 0
M  V30 11930 H 1120.85 3.93992 -0.549093 0
M  V30 11931 H 1117.59 5.93211 -2.78892 0
M  V30 11932 H 1117.11 5.90058 -1.07662 0
M  V30 11933 H 1118.79 6.2869 -1.52835 0
M  V30 11934 N 1118.92 0.422693 1.51826 0
M  V30 11935 C 1119.85 -0.386913 2.30272 0
M  V30 11936 C 1120.83 -1.03411 1.35056 0
M  V30 11937 O 1122.02 -1.04055 1.6397 0
M  V30 11938 C 1119.15 -1.49645 3.13407 0
M  V30 11939 C 1118.1 -0.973532 4.16781 0
M  V30 11940 C 1117.43 -2.1777 4.88344 0
M  V30 11941 C 1118.73 -0.0181194 5.22297 0
M  V30 11942 H 1120.42 0.267697 2.98201 0
M  V30 11943 H 1117.97 0.130186 1.4341 0
M  V30 11944 H 1119.92 -2.06993 3.67059 0
M  V30 11945 H 1118.64 -2.17914 2.43272 0
M  V30 11946 H 1117.3 -0.42237 3.64159 0
M  V30 11947 H 1116.95 -2.84625 4.14726 0
M  V30 11948 H 1116.65 -1.83427 5.58237 0
M  V30 11949 H 1118.18 -2.75699 5.44814 0
M  V30 11950 H 1119.59 -0.500822 5.71108 0
M  V30 11951 H 1117.99 0.237163 5.99631 0
M  V30 11952 H 1119.06 0.923065 4.76033 0
M  V30 11953 N 1120.4 -1.5685 0.153553 0
M  V30 11954 C 1121.33 -2.20101 -0.779601 0
M  V30 11955 C 1122.31 -1.15121 -1.25225 0
M  V30 11956 O 1123.5 -1.43487 -1.30862 0
M  V30 11957 C 1120.63 -2.82778 -2.01628 0
M  V30 11958 C 1119.58 -3.93643 -1.68015 0
M  V30 11959 C 1118.91 -4.43286 -2.99001 0
M  V30 11960 C 1120.21 -5.14102 -0.921774 0
M  V30 11961 H 1121.9 -2.98334 -0.252432 0
M  V30 11962 H 1119.45 -1.43499 -0.119975 0
M  V30 11963 H 1121.4 -3.25696 -2.67395 0
M  V30 11964 H 1120.12 -2.01887 -2.56728 0
M  V30 11965 H 1118.78 -3.51354 -1.04624 0
M  V30 11966 H 1118.43 -3.59208 -3.52106 0
M  V30 11967 H 1118.13 -5.18068 -2.77272 0
M  V30 11968 H 1119.65 -4.88878 -3.65828 0
M  V30 11969 H 1121.07 -5.53823 -1.48167 0
M  V30 11970 H 1119.46 -5.94687 -0.804185 0
M  V30 11971 H 1120.53 -4.84825 0.0852757 0
M  V30 11972 N 1121.88 0.120221 -1.57141 0
M  V30 11973 C 1122.81 1.17787 -1.95452 0
M  V30 11974 C 1123.79 1.40174 -0.824016 0
M  V30 11975 O 1124.97 1.54348 -1.08208 0
M  V30 11976 C 1122.1 2.53193 -2.24969 0
M  V30 11977 C 1121.15 2.47241 -3.47526 0
M  V30 11978 S 1121.98 1.91325 -5.00155 0
M  V30 11979 C 1123.13 3.28406 -5.32823 0
M  V30 11980 H 1123.37 0.851152 -2.84856 0
M  V30 11981 H 1120.9 0.326929 -1.50899 0
M  V30 11982 H 1122.86 3.31104 -2.42652 0
M  V30 11983 H 1121.52 2.83043 -1.36181 0
M  V30 11984 H 1120.71 3.46981 -3.65541 0
M  V30 11985 H 1120.31 1.7745 -3.29223 0
M  V30 11986 H 1122.61 4.24613 -5.2793 0
M  V30 11987 H 1123.55 3.1522 -6.34068 0
M  V30 11988 H 1123.96 3.26779 -4.603 0
M  V30 11989 N 1123.36 1.52689 0.390367 0
M  V30 11990 C 1124.6 1.67914 1.13722 0
M  V30 11991 C 1124.94 0.417159 1.89667 0
M  V30 11992 O 1124.21 -0.585005 1.85494 0
M  V30 11993 C 1124.49 2.91331 2.11656 0
M  V30 11994 C 1124.35 4.27626 1.39484 0
M  V30 11995 C 1125.67 3.10293 3.12099 0
M  V30 11996 H 1122.78 0.611047 0.412057 0
M  V30 11997 H 1125.43 1.85283 0.420753 0
M  V30 11998 H 1123.58 2.76654 2.72754 0
M  V30 11999 H 1125.25 4.54068 0.813607 0
M  V30 12000 H 1123.49 4.28169 0.69669 0
M  V30 12001 H 1124.16 5.10066 2.11038 0
M  V30 12002 H 1126.64 3.23992 2.6109 0
M  V30 12003 H 1125.51 3.98127 3.7787 0
M  V30 12004 H 1125.78 2.24448 3.80888 0
M  V30 12005 N 1124.83 -0.648732 1.43629 0
M  V30 12006 C 1126.06 -1.4362 1.48932 0
M  V30 12007 C 1126.48 -1.88487 0.108599 0
M  V30 12008 O 1125.83 -1.59768 -0.882066 0
M  V30 12009 C 1125.89 -2.66822 2.43903 0
M  V30 12010 O 1125.61 -2.2383 3.76606 0
M  V30 12011 C 1127.11 -3.60134 2.58493 0
M  V30 12012 H 1124.33 -0.441055 0.505679 0
M  V30 12013 H 1126.87 -0.794936 1.88417 0
M  V30 12014 H 1125.03 -3.27079 2.07601 0
M  V30 12015 H 1125.44 -3.03575 4.27718 0
M  V30 12016 H 1126.91 -4.43234 3.29011 0
M  V30 12017 H 1127.39 -4.07779 1.63134 0
M  V30 12018 H 1128 -3.05756 2.95624 0
M  V30 12019 N 1126.31 -1.30234 -0.887518 0
M  V30 12020 C 1127.55 -1.20191 -1.65328 0
M  V30 12021 C 1127.92 0.240121 -1.90493 0
M  V30 12022 O 1129.12 0.463744 -2.64769 0
M  V30 12023 C 1127.39 -2.00506 -2.95858 0
M  V30 12024 S 1128.95 -2.07133 -3.86835 0
M  V30 12025 H 1125.77 -0.428366 -0.567472 0
M  V30 12026 H 1128.37 -1.64677 -1.05364 0
M  V30 12027 H 1127.07 -3.04396 -2.75266 0
M  V30 12028 H 1126.6 -1.56672 -3.60857 0
M  V30 12029 H 1128.62 -1.19687 -4.81549 0
M  V30 12030 N 1127.79 1.09952 -1.12909 0
M  V30 12031 C 1129.02 1.8579 -0.910483 0
M  V30 12032 C 1129.43 1.80898 0.540484 0
M  V30 12033 O 1128.79 1.20126 1.3739 0
M  V30 12034 C 1128.84 3.33987 -1.38329 0
M  V30 12035 O 1128.56 3.38811 -2.77739 0
M  V30 12036 C 1130.06 4.26683 -1.20234 0
M  V30 12037 H 1127.28 0.587026 -0.325025 0
M  V30 12038 H 1129.83 1.38965 -1.5003 0
M  V30 12039 H 1127.98 3.78259 -0.836592 0
M  V30 12040 H 1128.4 4.31204 -2.98603 0
M  V30 12041 H 1129.87 5.28846 -1.58197 0
M  V30 12042 H 1130.35 4.38966 -0.14344 0
M  V30 12043 H 1130.95 3.88221 -1.73679 0
M  V30 12044 N 1129.27 0.921757 1.27833 0
M  V30 12045 C 1130.51 0.559906 1.94918 0
M  V30 12046 C 1130.85 -0.895532 1.72319 0
M  V30 12047 O 1130.12 -1.638 1.04879 0
M  V30 12048 C 1130.41 0.879458 3.49196 0
M  V30 12049 C 1130.26 2.38821 3.81162 0
M  V30 12050 C 1131.58 0.381183 4.38446 0
M  V30 12051 H 1128.7 0.204893 0.707946 0
M  V30 12052 H 1131.34 1.15246 1.51058 0
M  V30 12053 H 1129.49 0.375177 3.86684 0
M  V30 12054 H 1131.16 2.96373 3.53498 0
M  V30 12055 H 1129.4 2.83988 3.27923 0
M  V30 12056 H 1130.07 2.56234 4.88926 0
M  V30 12057 H 1132.55 0.813289 4.08075 0
M  V30 12058 H 1131.43 0.633778 5.45229 0
M  V30 12059 H 1131.69 -0.718651 4.3622 0
M  V30 12060 N 1130.75 -1.41857 0.686609 0
M  V30 12061 C 1131.98 -2.05401 0.222238 0
M  V30 12062 C 1132.38 -1.51731 -1.13023 0
M  V30 12063 O 1131.73 -0.656701 -1.71561 0
M  V30 12064 C 1131.79 -3.59381 0.0926608 0
M  V30 12065 C 1131.45 -4.35801 1.37573 0
M  V30 12066 C 1132.45 -4.65678 2.31171 0
M  V30 12067 C 1130.14 -4.75233 1.62661 0
M  V30 12068 C 1132.13 -5.33936 3.48125 0
M  V30 12069 C 1129.82 -5.43229 2.79902 0
M  V30 12070 C 1130.81 -5.72507 3.72458 0
M  V30 12071 O 1130.5 -6.39106 4.87646 0
M  V30 12072 H 1130.23 -0.668126 0.102876 0
M  V30 12073 H 1132.79 -1.82775 0.93714 0
M  V30 12074 H 1131.02 -3.80711 -0.67793 0
M  V30 12075 H 1132.71 -4.04529 -0.333364 0
M  V30 12076 H 1133.47 -4.35704 2.13042 0
M  V30 12077 H 1129.35 -4.51831 0.914862 0
M  V30 12078 H 1132.9 -5.56706 4.20386 0
M  V30 12079 H 1128.79 -5.72621 2.97951 0
M  V30 12080 H 1129.56 -6.576 4.87344 0
M  V30 12081 N 1132.22 -0.430739 -1.51599 0
M  V30 12082 C 1133.19 0.372319 -2.26156 0
M  V30 12083 C 1134.19 0.955338 -1.29344 0
M  V30 12084 O 1135.38 0.830823 -1.53111 0
M  V30 12085 C 1132.51 1.52613 -3.04831 0
M  V30 12086 H 1133.7 -0.280996 -2.98581 0
M  V30 12087 H 1131.26 -0.183749 -1.55216 0
M  V30 12088 H 1131.99 2.21569 -2.36807 0
M  V30 12089 H 1131.78 1.11433 -3.75932 0
M  V30 12090 H 1133.27 2.09366 -3.61325 0
M  V30 12091 N 1133.7 1.56767 -0.161869 0
M  V30 12092 C 1134.95 1.95769 0.485536 0
M  V30 12093 C 1135.26 1.05006 1.65025 0
M  V30 12094 O 1136.47 1.33649 2.36326 0
M  V30 12095 C 1134.93 3.4807 0.915176 0
M  V30 12096 C 1134.53 4.47443 -0.223416 0
M  V30 12097 C 1136.28 3.95909 1.53153 0
M  V30 12098 C 1134.19 5.90971 0.225325 0
M  V30 12099 H 1133.12 0.730911 0.185161 0
M  V30 12100 H 1135.77 1.81808 -0.248592 0
M  V30 12101 H 1134.15 3.57415 1.705 0
M  V30 12102 H 1135.32 4.49805 -1.00061 0
M  V30 12103 H 1133.64 4.09606 -0.749127 0
M  V30 12104 H 1136.23 5.00592 1.87915 0
M  V30 12105 H 1136.58 3.38307 2.42599 0
M  V30 12106 H 1137.11 3.89542 0.806322 0
M  V30 12107 H 1133.85 6.52426 -0.634124 0
M  V30 12108 H 1133.37 5.91936 0.96808 0
M  V30 12109 H 1135.05 6.43497 0.672373 0
M  V30 12110 N 1135.18 -0.111886 1.57202 0
M  V30 12111 C 1136.13 -1.13688 2.00858 0
M  V30 12112 C 1137.1 -1.40752 0.881939 0
M  V30 12113 O 1138.28 -1.52498 1.14669 0
M  V30 12114 C 1135.42 -2.45641 2.42393 0
M  V30 12115 C 1134.54 -2.25452 3.68504 0
M  V30 12116 C 1133.67 -3.50686 3.9899 0
M  V30 12117 C 1132.71 -3.25685 5.18262 0
M  V30 12118 N 1131.85 -4.4314 5.44583 0
M  V30 12119 H 1136.69 -0.757611 2.88209 0
M  V30 12120 H 1134.22 -0.362582 1.42561 0
M  V30 12121 H 1136.18 -3.22627 2.64514 0
M  V30 12122 H 1134.81 -2.81447 1.58074 0
M  V30 12123 H 1133.86 -1.39349 3.53958 0
M  V30 12124 H 1135.18 -2.0296 4.55641 0
M  V30 12125 H 1134.33 -4.36087 4.21797 0
M  V30 12126 H 1133.07 -3.76216 3.10343 0
M  V30 12127 H 1132.07 -2.38675 4.95292 0
M  V30 12128 H 1133.3 -3.01518 6.08493 0
M  V30 12129 H 1131.24 -4.68778 4.58893 0
M  V30 12130 H 1131.16 -4.23778 6.26058 0
M  V30 12131 H 1132.43 -5.29654 5.71915 0
M  V30 12132 N 1136.66 -1.52894 -0.382264 0
M  V30 12133 C 1137.89 -1.72152 -1.14766 0
M  V30 12134 C 1138.3 -0.442911 -1.83531 0
M  V30 12135 O 1137.66 0.583085 -1.72935 0
M  V30 12136 C 1137.71 -2.87566 -2.19062 0
M  V30 12137 O 1137.43 -4.10478 -1.53099 0
M  V30 12138 C 1138.93 -3.18559 -3.08277 0
M  V30 12139 H 1136.15 -0.576212 -0.343832 0
M  V30 12140 H 1138.7 -1.99571 -0.446273 0
M  V30 12141 H 1136.85 -2.62589 -2.84826 0
M  V30 12142 H 1137.26 -4.74989 -2.22454 0
M  V30 12143 H 1138.74 -4.02763 -3.77473 0
M  V30 12144 H 1139.22 -2.33222 -3.72161 0
M  V30 12145 H 1139.82 -3.454 -2.48151 0
M  V30 12146 N 1138.14 0.641106 -1.43971 0
M  V30 12147 C 1139.55 0.958161 -1.27638 0
M  V30 12148 C 1139.75 2.00456 -0.204885 0
M  V30 12149 O 1138.81 2.49106 0.412606 0
M  V30 12150 C 1140.12 1.43091 -2.64472 0
M  V30 12151 C 1141.67 1.54692 -2.72102 0
M  V30 12152 C 1142.15 2.05353 -4.09382 0
M  V30 12153 N 1143.64 2.12638 -4.11509 0
M  V30 12154 C 1144.37 2.52987 -5.14573 0
M  V30 12155 N 1143.87 2.92544 -6.28005 0
M  V30 12156 N 1145.66 2.53033 -5.01927 0
M  V30 12157 H 1137.81 -0.0510973 -2.12339 0
M  V30 12158 H 1140.07 0.039748 -0.947166 0
M  V30 12159 H 1139.78 0.736389 -3.43904 0
M  V30 12160 H 1139.65 2.40375 -2.90688 0
M  V30 12161 H 1142.04 2.23242 -1.92994 0
M  V30 12162 H 1142.12 0.558083 -2.49638 0
M  V30 12163 H 1141.77 1.37401 -4.88962 0
M  V30 12164 H 1141.7 3.0509 -4.29218 0
M  V30 12165 H 1144.19 1.84792 -3.29636 0
M  V30 12166 H 1144.5 3.22116 -7.02468 0
M  V30 12167 H 1142.85 2.90319 -6.31458 0
M  V30 12168 H 1146.04 2.21514 -4.1237 0
M  V30 12169 H 1146.21 2.84155 -5.82375 0
M  V30 12170 N 1139.62 1.30703 0.880598 0
M  V30 12171 C 1140.86 1.19541 1.62955 0
M  V30 12172 C 1141.18 -0.249089 1.93403 0
M  V30 12173 O 1140.45 -1.1669 1.57354 0
M  V30 12174 H 1139.03 0.439434 0.604075 0
M  V30 12175 H 1141.7 1.63888 1.05483 0
M  V30 12176 H 1140.79 1.75945 2.57779 0
M  V30 12177 N 1141.09 -1.09351 1.1349 0
M  V30 12178 C 1142.34 -1.81812 0.898452 0
M  V30 12179 C 1142.67 -1.85525 -0.573959 0
M  V30 12180 O 1141.95 -1.32403 -1.42477 0
M  V30 12181 C 1142.23 -3.27921 1.48794 0
M  V30 12182 C 1142.08 -3.32476 3.02952 0
M  V30 12183 C 1143.4 -4.24625 1.15678 0
M  V30 12184 H 1140.52 -0.660074 0.327829 0
M  V30 12185 H 1143.16 -1.28091 1.40331 0
M  V30 12186 H 1141.31 -3.738 1.05858 0
M  V30 12187 H 1142.99 -2.94994 3.54649 0
M  V30 12188 H 1141.23 -2.72037 3.37903 0
M  V30 12189 H 1141.9 -4.35409 3.39298 0
M  V30 12190 H 1144.38 -3.87036 1.52781 0
M  V30 12191 H 1143.25 -5.25194 1.59571 0
M  V30 12192 H 1143.51 -4.42044 0.0705933 0
M  V30 12193 N 1142.57 -0.928524 -1.27343 0
M  V30 12194 C 1143.98 -0.613856 -1.7632 0
M  V30 12195 C 1144.33 0.870983 -1.75808 0
M  V30 12196 O 1143.46 1.68155 -1.36209 0
M  V30 12197 C 1144.05 -1.10755 -3.20186 0
M  V30 12198 C 1142.61 -0.843532 -3.66826 0
M  V30 12199 C 1141.76 -1.26579 -2.46724 0
M  V30 12200 H 1144.71 -1.10821 -1.13598 0
M  V30 12201 H 1144.73 -0.455598 -3.77763 0
M  V30 12202 H 1144.24 -2.18825 -3.20526 0
M  V30 12203 H 1142.34 0.223334 -3.7193 0
M  V30 12204 H 1142.46 -1.46165 -4.56259 0
M  V30 12205 H 1140.82 -0.684334 -2.45334 0
M  V30 12206 H 1141.6 -2.35516 -2.49774 0
M  V30 12207 N 1144.05 1.41491 -0.694123 0
M  V30 12208 C 1144.96 2.34583 -0.0283414 0
M  V30 12209 C 1145.98 1.5615 0.767662 0
M  V30 12210 O 1147.15 1.88637 0.705556 0
M  V30 12211 C 1144.22 3.34876 0.897726 0
M  V30 12212 C 1143.28 4.29197 0.0940905 0
M  V30 12213 C 1142.51 5.24699 0.976051 0
M  V30 12214 O 1142.73 5.25613 2.21556 0
M  V30 12215 O 1141.67 6.00387 0.426503 0
M  V30 12216 H 1145.49 2.93092 -0.795656 0
M  V30 12217 H 1143.08 1.4232 -0.45445 0
M  V30 12218 H 1144.96 3.96438 1.4288 0
M  V30 12219 H 1143.64 2.78812 1.64456 0
M  V30 12220 H 1142.54 3.70988 -0.481552 0
M  V30 12221 H 1143.88 4.88355 -0.614045 0
M  V30 12222 N 1145.53 0.438773 1.51369 0
M  V30 12223 C 1146.76 -0.125847 2.06517 0
M  V30 12224 C 1147.17 -1.36336 1.30606 0
M  V30 12225 O 1146.53 -1.78792 0.36603 0
M  V30 12226 C 1146.58 -0.446619 3.5873 0
M  V30 12227 O 1146.3 0.741781 4.31775 0
M  V30 12228 C 1147.8 -1.06175 4.30397 0
M  V30 12229 H 1145.02 -0.00728868 0.67096 0
M  V30 12230 H 1147.56 0.618267 1.9493 0
M  V30 12231 H 1145.72 -1.14064 3.70227 0
M  V30 12232 H 1146.13 0.466907 5.22418 0
M  V30 12233 H 1147.61 -1.23619 5.3798 0
M  V30 12234 H 1148.08 -2.04317 3.88782 0
M  V30 12235 H 1148.69 -0.40708 4.23347 0
M  V30 12236 N 1147.01 -1.56678 0.170181 0
M  V30 12237 C 1148.25 -1.96849 -0.475064 0
M  V30 12238 C 1148.58 -1.05611 -1.6333 0
M  V30 12239 O 1147.84 -0.0899708 -1.95493 0
M  V30 12240 C 1148.13 -3.43103 -1.00076 0
M  V30 12241 C 1147.8 -4.50881 0.0414538 0
M  V30 12242 C 1146.46 -4.80082 0.327894 0
M  V30 12243 C 1148.81 -5.15791 0.748936 0
M  V30 12244 C 1146.14 -5.71491 1.32722 0
M  V30 12245 C 1148.49 -6.08278 1.73724 0
M  V30 12246 C 1147.16 -6.35847 2.03114 0
M  V30 12247 H 1146.43 -0.72032 -0.173838 0
M  V30 12248 H 1149.08 -1.89701 0.261903 0
M  V30 12249 H 1147.38 -3.47197 -1.81553 0
M  V30 12250 H 1149.08 -3.71525 -1.50899 0
M  V30 12251 H 1145.67 -4.2817 -0.191976 0
M  V30 12252 H 1149.85 -4.93344 0.540852 0
M  V30 12253 H 1145.11 -5.91134 1.56112 0
M  V30 12254 H 1149.28 -6.57643 2.29082 0
M  V30 12255 H 1146.91 -7.06479 2.80698 0
M  V30 12256 N 1148.48 0.103547 -1.57259 0
M  V30 12257 C 1149.43 1.14513 -2.02459 0
M  V30 12258 C 1150.43 1.4197 -0.924163 0
M  V30 12259 O 1151.63 1.41751 -1.10936 0
M  V30 12260 H 1148.01 0.386469 -0.645094 0
M  V30 12261 H 1149.98 0.737531 -2.89142 0
M  V30 12262 C 1148.73 2.45948 -2.45775 0
M  V30 12263 H 1148.05 2.25662 -3.30026 0
M  V30 12264 H 1149.49 3.17351 -2.81184 0
M  V30 12265 C 1147.95 3.09639 -1.32759 0
M  V30 12266 O 1148.48 3.96372 -0.652059 0
M  V30 12267 N 1146.68 2.69757 -1.08072 0
M  V30 12268 H 1146.23 1.9932 -1.63185 0
M  V30 12269 H 1146.19 3.127 -0.326532 0
M  V30 12270 N 1149.96 1.53094 0.37415 0
M  V30 12271 C 1150.87 1.81872 1.48188 0
M  V30 12272 C 1151.89 0.706487 1.59012 0
M  V30 12273 O 1153.06 0.995648 1.75068 0
M  V30 12274 C 1150.13 1.99494 2.83554 0
M  V30 12275 C 1149.19 3.23402 2.82329 0
M  V30 12276 C 1148.42 3.40174 4.11239 0
M  V30 12277 O 1148.65 2.61425 5.06965 0
M  V30 12278 O 1147.58 4.33493 4.17573 0
M  V30 12279 H 1151.41 2.75965 1.26795 0
M  V30 12280 H 1148.99 1.38368 0.56343 0
M  V30 12281 H 1150.87 2.12705 3.63778 0
M  V30 12282 H 1149.55 1.08591 3.04942 0
M  V30 12283 H 1148.45 3.15621 2.00834 0
M  V30 12284 H 1149.79 4.14199 2.65894 0
M  V30 12285 N 1151.44 -0.633461 1.44309 0
M  V30 12286 C 1152.4 -1.72743 1.50641 0
M  V30 12287 C 1153.4 -1.56031 0.388718 0
M  V30 12288 O 1154.59 -1.61568 0.651251 0
M  V30 12289 C 1151.72 -3.11804 1.37809 0
M  V30 12290 H 1152.92 -1.68503 2.48086 0
M  V30 12291 H 1150.47 -0.846912 1.31366 0
M  V30 12292 H 1151.21 -3.2164 0.414483 0
M  V30 12293 H 1150.99 -3.2534 2.18852 0
M  V30 12294 H 1152.48 -3.91538 1.45216 0
M  V30 12295 N 1152.92 -1.31168 -0.873655 0
M  V30 12296 C 1153.87 -1.18507 -1.98052 0
M  V30 12297 C 1154.84 -0.0717583 -1.65945 0
M  V30 12298 O 1156.02 -0.243965 -1.89234 0
M  V30 12299 C 1153.16 -0.894571 -3.33304 0
M  V30 12300 C 1152.27 -2.09086 -3.7803 0
M  V30 12301 C 1151.41 -1.73747 -5.01982 0
M  V30 12302 C 1150.45 -2.89805 -5.39147 0
M  V30 12303 N 1149.58 -2.54686 -6.54278 0
M  V30 12304 H 1154.42 -2.13193 -2.08213 0
M  V30 12305 H 1151.96 -1.06056 -1.01934 0
M  V30 12306 H 1153.92 -0.706714 -4.11171 0
M  V30 12307 H 1152.55 0.0154449 -3.22796 0
M  V30 12308 H 1151.6 -2.38961 -2.95976 0
M  V30 12309 H 1152.91 -2.95963 -4.01506 0
M  V30 12310 H 1152.07 -1.51402 -5.87505 0
M  V30 12311 H 1150.81 -0.840553 -4.80402 0
M  V30 12312 H 1149.81 -3.12803 -4.52144 0
M  V30 12313 H 1151.04 -3.802 -5.62694 0
M  V30 12314 H 1148.98 -1.67513 -6.34252 0
M  V30 12315 H 1148.9 -3.35093 -6.77679 0
M  V30 12316 H 1150.17 -2.35725 -7.43003 0
M  V30 12317 N 1154.4 1.08748 -1.14068 0
M  V30 12318 C 1155.81 1.62551 -0.918379 0
M  V30 12319 C 1156.16 1.8852 0.543583 0
M  V30 12320 O 1155.28 1.64007 1.41176 0
M  V30 12321 C 1155.88 2.95309 -1.66066 0
M  V30 12322 C 1154.44 3.4591 -1.48403 0
M  V30 12323 C 1153.58 2.20204 -1.6854 0
M  V30 12324 H 1156.54 0.920196 -1.29298 0
M  V30 12325 H 1156.56 3.63587 -1.12181 0
M  V30 12326 H 1156.07 2.76377 -2.72465 0
M  V30 12327 H 1154.17 3.69953 -0.443353 0
M  V30 12328 H 1154.28 4.2289 -2.25169 0
M  V30 12329 H 1152.65 2.29203 -1.11077 0
M  V30 12330 H 1153.43 2.03783 -2.76274 0
M  V30 12331 N 1155.87 0.935264 1.26849 0
M  V30 12332 C 1157.12 0.575467 1.93317 0
M  V30 12333 C 1157.44 -0.88876 1.74242 0
M  V30 12334 O 1158.64 -1.35767 2.35116 0
M  V30 12335 C 1157.1 0.978433 3.46345 0
M  V30 12336 C 1156.71 2.46386 3.74163 0
M  V30 12337 C 1158.45 0.690249 4.18851 0
M  V30 12338 C 1156.36 2.80584 5.20602 0
M  V30 12339 H 1155.29 0.211506 0.723727 0
M  V30 12340 H 1157.94 1.1371 1.44022 0
M  V30 12341 H 1156.32 0.345379 3.94491 0
M  V30 12342 H 1157.49 3.14547 3.36745 0
M  V30 12343 H 1155.81 2.72473 3.14877 0
M  V30 12344 H 1158.41 0.922151 5.26688 0
M  V30 12345 H 1158.75 -0.372805 4.14627 0
M  V30 12346 H 1159.28 1.28275 3.76551 0
M  V30 12347 H 1156.02 3.85828 5.29921 0
M  V30 12348 H 1155.54 2.1708 5.59139 0
M  V30 12349 H 1157.22 2.68732 5.88551 0
M  V30 12350 N 1157.35 -1.41121 0.701616 0
M  V30 12351 C 1158.6 -2.00733 0.234682 0
M  V30 12352 C 1158.92 -1.55869 -1.17174 0
M  V30 12353 O 1158.19 -0.791965 -1.79178 0
M  V30 12354 H 1156.77 -0.742288 0.0837745 0
M  V30 12355 H 1159.43 -1.7266 0.904127 0
M  V30 12356 H 1158.53 -3.11041 0.256831 0
M  V30 12357 N 1158.83 -0.446794 -1.51134 0
M  V30 12358 C 1160.08 0.116493 -2.02165 0
M  V30 12359 C 1160.41 1.41884 -1.33039 0
M  V30 12360 O 1159.66 1.90757 -0.437071 0
M  V30 12361 C 1159.96 0.373015 -3.55448 0
M  V30 12362 C 1159.63 -0.844659 -4.42918 0
M  V30 12363 C 1158.29 -1.17857 -4.66544 0
M  V30 12364 C 1160.64 -1.65653 -4.94174 0
M  V30 12365 C 1157.97 -2.32486 -5.38672 0
M  V30 12366 C 1160.32 -2.7939 -5.6756 0
M  V30 12367 C 1158.98 -3.13224 -5.89446 0
M  V30 12368 H 1158.25 0.0426279 -0.739773 0
M  V30 12369 H 1160.9 -0.595921 -1.81992 0
M  V30 12370 H 1159.21 1.16742 -3.74003 0
M  V30 12371 H 1160.9 0.822425 -3.92476 0
M  V30 12372 H 1157.49 -0.574478 -4.24733 0
M  V30 12373 H 1161.68 -1.41176 -4.75797 0
M  V30 12374 H 1156.93 -2.59003 -5.5383 0
M  V30 12375 H 1161.11 -3.42662 -6.06264 0
M  V30 12376 H 1158.73 -4.02158 -6.45115 0
M  V30 12377 N 1160.31 1.56586 -0.178487 0
M  V30 12378 C 1161.54 2.01475 0.470684 0
M  V30 12379 C 1161.95 1.0587 1.56323 0
M  V30 12380 O 1161.31 0.060749 1.82399 0
M  V30 12381 C 1161.36 3.46145 1.04238 0
M  V30 12382 O 1161.08 4.381 -0.0065582 0
M  V30 12383 C 1162.58 4.06471 1.76908 0
M  V30 12384 H 1159.8 0.660219 0.119801 0
M  V30 12385 H 1162.35 2.02542 -0.282322 0
M  V30 12386 H 1160.5 3.45831 1.74585 0
M  V30 12387 H 1160.91 5.22843 0.416554 0
M  V30 12388 H 1162.39 5.096 2.12161 0
M  V30 12389 H 1162.87 3.48974 2.66672 0
M  V30 12390 H 1163.47 4.10509 1.11186 0
M  V30 12391 N 1161.79 -0.095206 1.57312 0
M  V30 12392 C 1162.72 -1.14662 1.97301 0
M  V30 12393 C 1163.7 -1.38845 0.846212 0
M  V30 12394 O 1164.88 -1.52607 1.1065 0
M  V30 12395 C 1162.01 -2.49582 2.28968 0
M  V30 12396 C 1161.05 -2.41681 3.51415 0
M  V30 12397 S 1161.89 -1.83343 5.03136 0
M  V30 12398 C 1163.04 -3.19888 5.3798 0
M  V30 12399 H 1163.28 -0.805726 2.86174 0
M  V30 12400 H 1160.81 -0.302881 1.514 0
M  V30 12401 H 1162.77 -3.27202 2.47889 0
M  V30 12402 H 1161.43 -2.80841 1.40667 0
M  V30 12403 H 1160.62 -3.41122 3.71015 0
M  V30 12404 H 1160.22 -1.7219 3.32004 0
M  V30 12405 H 1162.52 -4.16161 5.34618 0
M  V30 12406 H 1163.46 -3.05093 6.39002 0
M  V30 12407 H 1163.87 -3.19414 4.6544 0
M  V30 12408 N 1163.26 -1.53291 -0.366026 0
M  V30 12409 C 1164.49 -1.73108 -1.1277 0
M  V30 12410 C 1164.9 -0.459662 -1.83531 0
M  V30 12411 O 1164.25 0.577151 -1.74398 0
M  V30 12412 C 1164.31 -2.84137 -2.20242 0
M  V30 12413 C 1163.97 -4.24503 -1.69252 0
M  V30 12414 C 1164.97 -5.06866 -1.15684 0
M  V30 12415 C 1162.65 -4.70912 -1.74778 0
M  V30 12416 C 1164.65 -6.33728 -0.683191 0
M  V30 12417 C 1162.33 -5.97752 -1.27025 0
M  V30 12418 C 1163.33 -6.78992 -0.738858 0
M  V30 12419 O 1163.02 -8.03452 -0.268375 0
M  V30 12420 H 1162.75 -0.582439 -0.343134 0
M  V30 12421 H 1165.31 -2.00828 -0.430969 0
M  V30 12422 H 1163.54 -2.5189 -2.93408 0
M  V30 12423 H 1165.23 -2.92136 -2.818 0
M  V30 12424 H 1165.99 -4.72185 -1.10753 0
M  V30 12425 H 1161.87 -4.07751 -2.15081 0
M  V30 12426 H 1165.41 -6.97086 -0.267746 0
M  V30 12427 H 1161.31 -6.31933 -1.31649 0
M  V30 12428 H 1162.08 -8.17581 -0.387745 0
M  V30 12429 N 1164.74 0.6258 -1.44643 0
M  V30 12430 C 1165.97 1.41233 -1.51198 0
M  V30 12431 C 1166.39 1.88291 -0.138572 0
M  V30 12432 O 1165.74 1.61151 0.856537 0
M  V30 12433 C 1165.79 2.62908 -2.48117 0
M  V30 12434 O 1165.51 2.1781 -3.80119 0
M  V30 12435 C 1167.02 3.55976 -2.6419 0
M  V30 12436 H 1164.24 0.432954 -0.512632 0
M  V30 12437 H 1166.78 0.76486 -1.89658 0
M  V30 12438 H 1164.93 3.23735 -2.12778 0
M  V30 12439 H 1165.35 2.96732 -4.32493 0
M  V30 12440 H 1166.82 4.37943 -3.3602 0
M  V30 12441 H 1167.3 4.05133 -1.696 0
M  V30 12442 H 1167.91 3.01014 -3.00451 0
M  V30 12443 N 1166.22 1.31629 0.866686 0
M  V30 12444 C 1167.45 1.24474 1.65269 0
M  V30 12445 C 1167.86 -0.18939 1.87848 0
M  V30 12446 O 1167.22 -1.12251 1.43895 0
M  V30 12447 C 1167.27 1.98872 3.01881 0
M  V30 12448 O 1166.99 3.36687 2.8031 0
M  V30 12449 C 1168.49 1.98595 3.96327 0
M  V30 12450 H 1165.71 0.429966 0.515141 0
M  V30 12451 H 1168.26 1.73559 1.08156 0
M  V30 12452 H 1166.41 1.53539 3.55675 0
M  V30 12453 H 1166.83 3.74612 3.67105 0
M  V30 12454 H 1168.3 2.55156 4.89489 0
M  V30 12455 H 1168.78 0.969257 4.28371 0
M  V30 12456 H 1169.38 2.43821 3.4847 0
M  V30 12457 N 1167.7 -1.08142 1.14644 0
M  V30 12458 C 1168.94 -1.82183 0.926747 0
M  V30 12459 C 1169.3 -1.8434 -0.53692 0
M  V30 12460 O 1170.5 -2.54172 -0.874651 0
M  V30 12461 C 1168.78 -3.23726 1.51446 0
M  V30 12462 S 1170.33 -4.14612 1.43673 0
M  V30 12463 H 1167.15 -0.627815 0.333721 0
M  V30 12464 H 1169.75 -1.29968 1.46043 0
M  V30 12465 H 1168.46 -3.19741 2.57282 0
M  V30 12466 H 1167.99 -3.81016 0.979289 0
M  V30 12467 H 1170 -4.94384 0.424105 0
M  V30 12468 N 1169.18 -0.941978 -1.26351 0
M  V30 12469 C 1170.43 -0.585711 -1.93009 0
M  V30 12470 C 1170.74 0.879507 -1.74711 0
M  V30 12471 O 1171.95 1.34518 -2.35833 0
M  V30 12472 C 1170.4 -0.996787 -3.45821 0
M  V30 12473 C 1170.01 -2.48367 -3.72851 0
M  V30 12474 C 1171.75 -0.712452 -4.18479 0
M  V30 12475 C 1169.66 -2.83341 -5.19107 0
M  V30 12476 H 1168.59 -0.215342 -0.722595 0
M  V30 12477 H 1171.24 -1.14472 -1.43417 0
M  V30 12478 H 1169.62 -0.366295 -3.94302 0
M  V30 12479 H 1170.8 -3.16328 -3.35072 0
M  V30 12480 H 1169.11 -2.74139 -3.13427 0
M  V30 12481 H 1171.71 -0.95007 -5.26192 0
M  V30 12482 H 1172.05 0.350811 -4.14819 0
M  V30 12483 H 1172.59 -1.3027 -3.75865 0
M  V30 12484 H 1169.32 -3.88633 -5.27868 0
M  V30 12485 H 1168.84 -2.20043 -5.5798 0
M  V30 12486 H 1170.52 -2.71849 -5.87118 0
M  V30 12487 N 1170.66 1.40747 -0.709091 0
M  V30 12488 C 1171.9 2.00233 -0.242836 0
M  V30 12489 C 1172.22 1.56853 1.1686 0
M  V30 12490 O 1173.42 2.08993 1.73304 0
M  V30 12491 C 1171.88 3.57854 -0.383241 0
M  V30 12492 C 1171.49 4.10209 -1.80091 0
M  V30 12493 C 1173.23 4.24494 0.0225511 0
M  V30 12494 C 1171.14 5.60311 -1.89225 0
M  V30 12495 H 1170.07 0.74896 -0.087034 0
M  V30 12496 H 1172.72 1.61064 -0.879243 0
M  V30 12497 H 1171.1 3.94692 0.321642 0
M  V30 12498 H 1172.28 3.84762 -2.53564 0
M  V30 12499 H 1170.59 3.56142 -2.15758 0
M  V30 12500 H 1173.19 5.34694 -0.0250644 0
M  V30 12501 H 1173.53 4.02488 1.06344 0
M  V30 12502 H 1174.06 3.92739 -0.632541 0
M  V30 12503 H 1170.8 5.87162 -2.91412 0
M  V30 12504 H 1170.32 5.87642 -1.20154 0
M  V30 12505 H 1172 6.25306 -1.66136 0
M  V30 12506 N 1172.13 0.454803 1.50895 0
M  V30 12507 C 1173.38 -0.0981148 2.03163 0
M  V30 12508 C 1173.73 -1.38855 1.3318 0
M  V30 12509 O 1173.03 -1.86399 0.443407 0
M  V30 12510 C 1173.22 -0.354159 3.55641 0
M  V30 12511 C 1173.05 0.90991 4.40398 0
M  V30 12512 C 1171.82 1.44852 4.84093 0
M  V30 12513 C 1174.02 1.80088 4.81739 0
M  V30 12514 N 1172 2.66331 5.53119 0
M  V30 12515 C 1173.37 2.86162 5.5001 0
M  V30 12516 C 1175.43 1.81321 4.6371 0
M  V30 12517 C 1174.13 3.93438 6.02162 0
M  V30 12518 C 1176.16 2.87543 5.16791 0
M  V30 12519 C 1175.52 3.92336 5.85023 0
M  V30 12520 H 1171.62 0.00370972 0.781991 0
M  V30 12521 H 1174.2 0.619376 1.84586 0
M  V30 12522 H 1172.37 -1.04069 3.74198 0
M  V30 12523 H 1174.1 -0.899976 3.94566 0
M  V30 12524 H 1170.86 0.999972 4.62923 0
M  V30 12525 H 1171.28 3.27978 5.92249 0
M  V30 12526 H 1175.92 1.01627 4.10404 0
M  V30 12527 H 1173.64 4.73959 6.54514 0
M  V30 12528 H 1177.23 2.8946 5.04682 0
M  V30 12529 H 1176.11 4.73178 6.25358 0
M  V30 12530 N 1173.61 -1.56489 0.186789 0
M  V30 12531 C 1174.54 -2.21705 -0.732739 0
M  V30 12532 C 1175.52 -1.17751 -1.22755 0
M  V30 12533 O 1176.71 -1.46231 -1.27789 0
M  V30 12534 C 1173.84 -2.86992 -1.95584 0
M  V30 12535 C 1172.79 -3.97118 -1.59628 0
M  V30 12536 C 1172.12 -4.49529 -2.89531 0
M  V30 12537 C 1173.42 -5.15941 -0.812518 0
M  V30 12538 H 1175.11 -2.98802 -0.189094 0
M  V30 12539 H 1172.66 -1.43722 -0.0895099 0
M  V30 12540 H 1174.61 -3.31295 -2.60426 0
M  V30 12541 H 1173.33 -2.07287 -2.52388 0
M  V30 12542 H 1171.99 -3.53494 -0.971475 0
M  V30 12543 H 1171.64 -3.66596 -3.44407 0
M  V30 12544 H 1171.34 -5.23832 -2.66221 0
M  V30 12545 H 1172.87 -4.96528 -3.55376 0
M  V30 12546 H 1174.28 -5.56841 -1.36386 0
M  V30 12547 H 1172.68 -5.96259 -0.677862 0
M  V30 12548 H 1173.75 -4.84535 0.188095 0
M  V30 12549 N 1175.09 0.086862 -1.5736 0
M  V30 12550 C 1176.05 1.08906 -2.01673 0
M  V30 12551 C 1177.05 1.32473 -0.911463 0
M  V30 12552 O 1178.24 1.28447 -1.17673 0
M  V30 12553 C 1175.37 2.43629 -2.38449 0
M  V30 12554 H 1176.57 0.707461 -2.91436 0
M  V30 12555 H 1174.12 0.332154 -1.5273 0
M  V30 12556 H 1174.86 2.8665 -1.51665 0
M  V30 12557 H 1174.64 2.2787 -3.19089 0
M  V30 12558 H 1176.13 3.15695 -2.73361 0
M  V30 12559 N 1176.57 1.53483 0.357892 0
M  V30 12560 C 1177.81 1.70037 1.09971 0
M  V30 12561 C 1178.14 0.456112 1.89076 0
M  V30 12562 O 1177.4 -0.562029 1.87456 0
M  V30 12563 C 1177.7 2.90654 2.07978 0
M  V30 12564 C 1177.36 4.26849 1.45295 0
M  V30 12565 C 1176.02 4.63884 1.27928 0
M  V30 12566 C 1178.38 5.11514 1.00013 0
M  V30 12567 C 1175.7 5.83213 0.638745 0
M  V30 12568 C 1178.06 6.31496 0.373568 0
M  V30 12569 C 1176.72 6.67237 0.187457 0
M  V30 12570 H 1175.99 0.622209 0.402414 0
M  V30 12571 H 1178.64 1.87679 0.380615 0
M  V30 12572 H 1176.94 2.67556 2.86219 0
M  V30 12573 H 1178.64 3.00656 2.65343 0
M  V30 12574 H 1175.23 3.97693 1.59807 0
M  V30 12575 H 1179.41 4.83446 1.12221 0
M  V30 12576 H 1174.67 6.09489 0.483035 0
M  V30 12577 H 1178.84 6.96398 0.0145346 0
M  V30 12578 H 1176.47 7.59564 -0.310933 0
M  V30 12579 N 1178.05 -0.61812 1.44973 0
M  V30 12580 C 1179.29 -1.37343 1.47715 0
M  V30 12581 C 1179.61 -1.95239 0.118784 0
M  V30 12582 O 1180.81 -2.7149 0.0237981 0
M  V30 12583 C 1179.27 -2.48732 2.60116 0
M  V30 12584 C 1178.88 -1.97294 4.02218 0
M  V30 12585 C 1180.62 -3.25831 2.72093 0
M  V30 12586 C 1178.53 -3.06102 5.06019 0
M  V30 12587 H 1177.46 -0.516175 0.549617 0
M  V30 12588 H 1180.11 -0.663617 1.7108 0
M  V30 12589 H 1178.49 -3.2235 2.30014 0
M  V30 12590 H 1179.67 -1.30455 4.41948 0
M  V30 12591 H 1177.98 -1.32972 3.94598 0
M  V30 12592 H 1180.58 -4.06968 3.46815 0
M  V30 12593 H 1180.92 -3.76156 1.7836 0
M  V30 12594 H 1181.45 -2.59309 3.01668 0
M  V30 12595 H 1178.19 -2.60706 6.01426 0
M  V30 12596 H 1177.71 -3.71541 4.70869 0
M  V30 12597 H 1179.39 -3.70662 5.30301 0
M  V30 12598 N 1179.52 -1.32087 -0.859693 0
M  V30 12599 C 1180.93 -1.20107 -1.42938 0
M  V30 12600 C 1181.29 0.188411 -1.95293 0
M  V30 12601 O 1180.41 1.08683 -1.87128 0
M  V30 12602 C 1181.01 -2.17436 -2.59821 0
M  V30 12603 C 1179.56 -2.09359 -3.12803 0
M  V30 12604 C 1178.71 -2.06086 -1.85537 0
M  V30 12605 H 1181.66 -1.43989 -0.667302 0
M  V30 12606 H 1181.68 -1.76996 -3.36828 0
M  V30 12607 H 1181.2 -3.18555 -2.21685 0
M  V30 12608 H 1179.3 -1.1147 -3.55535 0
M  V30 12609 H 1179.41 -2.98947 -3.74389 0
M  V30 12610 H 1177.77 -1.51251 -2.04928 0
M  V30 12611 H 1178.56 -3.08978 -1.49625 0
M  V30 12612 N 1181 1.07532 -1.15215 0
M  V30 12613 C 1182.25 1.79474 -0.920439 0
M  V30 12614 C 1182.56 1.87593 0.553926 0
M  V30 12615 O 1183.77 2.56037 0.903169 0
M  V30 12616 C 1182.23 3.22509 -1.59738 0
M  V30 12617 C 1181.83 3.22596 -3.10863 0
M  V30 12618 C 1183.58 3.99072 -1.44714 0
M  V30 12619 C 1181.48 4.60273 -3.71352 0
M  V30 12620 H 1180.41 0.672625 -0.340722 0
M  V30 12621 H 1183.07 1.2071 -1.38208 0
M  V30 12622 H 1181.45 3.81454 -1.06342 0
M  V30 12623 H 1182.62 2.73306 -3.70999 0
M  V30 12624 H 1180.94 2.5953 -3.25627 0
M  V30 12625 H 1183.53 5.00823 -1.87299 0
M  V30 12626 H 1183.88 4.14428 -0.394386 0
M  V30 12627 H 1184.41 3.46617 -1.95195 0
M  V30 12628 H 1181.15 4.50122 -4.76519 0
M  V30 12629 H 1180.67 5.09809 -3.15998 0
M  V30 12630 H 1182.35 5.29243 -3.7217 0
M  V30 12631 N 1182.48 0.948665 1.2585 0
M  V30 12632 C 1183.73 0.600236 1.934 0
M  V30 12633 C 1184.06 -0.86185 1.74363 0
M  V30 12634 O 1183.31 -1.63294 1.07858 0
M  V30 12635 C 1183.61 0.89784 3.45939 0
M  V30 12636 C 1183.28 2.345 3.85124 0
M  V30 12637 C 1181.94 2.74058 3.95532 0
M  V30 12638 C 1184.29 3.2851 4.04636 0
M  V30 12639 C 1181.62 4.06707 4.22855 0
M  V30 12640 C 1183.97 4.60764 4.3345 0
M  V30 12641 C 1182.63 5.00127 4.42074 0
M  V30 12642 H 1181.9 0.219642 0.707699 0
M  V30 12643 H 1184.55 1.19658 1.49513 0
M  V30 12644 H 1182.86 0.219037 3.91187 0
M  V30 12645 H 1184.55 0.606916 3.96381 0
M  V30 12646 H 1181.14 2.02819 3.77574 0
M  V30 12647 H 1185.33 2.99141 3.96015 0
M  V30 12648 H 1180.58 4.36856 4.27746 0
M  V30 12649 H 1184.76 5.33594 4.47493 0
M  V30 12650 H 1182.38 6.02939 4.63 0
M  V30 12651 N 1183.96 -1.40369 0.716545 0
M  V30 12652 C 1185.21 -2.00869 0.256466 0
M  V30 12653 C 1185.53 -1.56816 -1.15061 0
M  V30 12654 O 1184.79 -0.779696 -1.79497 0
M  V30 12655 C 1185.09 -3.56257 0.285583 0
M  V30 12656 C 1184.75 -4.19897 1.64309 0
M  V30 12657 C 1183.42 -4.36994 2.01469 0
M  V30 12658 C 1185.77 -4.55385 2.53524 0
M  V30 12659 C 1183.1 -4.86862 3.27387 0
M  V30 12660 C 1185.45 -5.06653 3.78795 0
M  V30 12661 C 1184.11 -5.21959 4.16071 0
M  V30 12662 H 1183.38 -0.735033 0.0938475 0
M  V30 12663 H 1186.03 -1.67966 0.919765 0
M  V30 12664 H 1184.33 -3.89075 -0.461287 0
M  V30 12665 H 1186.03 -4.00903 -0.0882496 0
M  V30 12666 H 1182.62 -4.06978 1.34413 0
M  V30 12667 H 1186.8 -4.41811 2.2609 0
M  V30 12668 H 1182.06 -4.96897 3.56235 0
M  V30 12669 H 1186.23 -5.33089 4.48095 0
M  V30 12670 H 1183.86 -5.60362 5.1371 0
M  V30 12671 N 1185.44 -0.462799 -1.50652 0
M  V30 12672 C 1186.68 0.0948568 -2.01877 0
M  V30 12673 C 1187.01 1.4096 -1.34741 0
M  V30 12674 O 1186.28 1.89671 -0.49006 0
M  V30 12675 H 1184.86 0.0380453 -0.746031 0
M  V30 12676 H 1187.52 -0.611327 -1.85064 0
M  V30 12677 H 1186.61 0.252378 -3.11078 0
M  V30 12678 N 1186.91 1.56388 -0.195085 0
M  V30 12679 C 1188.14 2.01963 0.449289 0
M  V30 12680 C 1188.56 1.07522 1.55192 0
M  V30 12681 O 1187.91 0.0800915 1.82324 0
M  V30 12682 C 1187.97 3.47231 1.00561 0
M  V30 12683 O 1187.69 4.38068 -0.0530241 0
M  V30 12684 C 1189.19 4.08324 1.72587 0
M  V30 12685 H 1186.41 0.661452 0.112792 0
M  V30 12686 H 1188.95 2.02231 -0.303788 0
M  V30 12687 H 1187.11 3.47663 1.70907 0
M  V30 12688 H 1187.52 5.23256 0.361076 0
M  V30 12689 H 1188.99 5.11821 2.06744 0
M  V30 12690 H 1189.47 3.51782 2.62956 0
M  V30 12691 H 1190.08 4.11665 1.06826 0
M  V30 12692 N 1188.39 -0.0785156 1.57404 0
M  V30 12693 C 1189.36 -1.07835 2.02248 0
M  V30 12694 C 1190.36 -1.31987 0.918475 0
M  V30 12695 O 1191.55 -1.27821 1.18353 0
M  V30 12696 C 1188.68 -2.42361 2.39737 0
M  V30 12697 H 1189.87 -0.691995 2.91807 0
M  V30 12698 H 1187.42 -0.32405 1.52904 0
M  V30 12699 H 1188.16 -2.85841 1.53183 0
M  V30 12700 H 1187.94 -2.26174 3.20293 0
M  V30 12701 H 1189.43 -3.14241 2.75031 0
M  V30 12702 N 1189.87 -1.5367 -0.349747 0
M  V30 12703 C 1190.8 -1.77528 -1.4497 0
M  V30 12704 C 1191.82 -0.656412 -1.4898 0
M  V30 12705 O 1193 -0.933016 -1.52174 0
M  V30 12706 C 1190.1 -1.85445 -2.8366 0
M  V30 12707 C 1189.28 -3.15295 -3.03163 0
M  V30 12708 C 1188.34 -3.1425 -4.22059 0
M  V30 12709 O 1187.36 -3.87994 -4.16472 0
M  V30 12710 N 1188.56 -2.36181 -5.30282 0
M  V30 12711 H 1191.33 -2.72444 -1.24877 0
M  V30 12712 H 1188.89 -1.52644 -0.539586 0
M  V30 12713 H 1190.88 -1.82204 -3.61364 0
M  V30 12714 H 1189.45 -0.977436 -2.96926 0
M  V30 12715 H 1188.67 -3.31711 -2.12983 0
M  V30 12716 H 1189.96 -4.01078 -3.13072 0
M  V30 12717 H 1189.36 -1.75808 -5.37688 0
M  V30 12718 H 1187.92 -2.38744 -6.06502 0
M  V30 12719 N 1191.35 0.610423 -1.45298 0
M  V30 12720 C 1192.57 1.40112 -1.52917 0
M  V30 12721 C 1193 1.87404 -0.161696 0
M  V30 12722 O 1192.36 1.59973 0.853135 0
M  V30 12723 C 1192.4 2.58359 -2.51561 0
M  V30 12724 O 1191.51 3.58895 -2.03146 0
M  V30 12725 H 1190.85 0.41841 -0.515586 0
M  V30 12726 H 1193.38 0.743159 -1.90626 0
M  V30 12727 H 1193.39 3.0564 -2.70275 0
M  V30 12728 H 1192.06 2.23286 -3.50879 0
M  V30 12729 H 1190.64 3.18282 -1.94296 0
M  V30 12730 N 1192.83 1.32541 0.852676 0
M  V30 12731 C 1193.79 1.21578 1.94297 0
M  V30 12732 C 1194.79 0.138318 1.60204 0
M  V30 12733 O 1195.98 0.388864 1.69804 0
M  V30 12734 C 1193.11 0.870209 3.29606 0
M  V30 12735 H 1194.3 2.18476 2.05446 0
M  V30 12736 H 1191.86 1.16401 1.0431 0
M  V30 12737 H 1192.59 -0.0968698 3.24155 0
M  V30 12738 H 1192.38 1.64924 3.55728 0
M  V30 12739 H 1193.87 0.817874 4.09513 0
M  V30 12740 N 1194.3 -1.0692 1.15784 0
M  V30 12741 C 1195.21 -2.17762 0.872753 0
M  V30 12742 C 1196.23 -1.73329 -0.152608 0
M  V30 12743 O 1197.41 -2.01387 0.022519 0
M  V30 12744 C 1194.47 -3.4471 0.370887 0
M  V30 12745 C 1193.53 -4.03686 1.46069 0
M  V30 12746 C 1192.77 -5.24575 0.982675 0
M  V30 12747 O 1192.99 -5.70146 -0.17006 0
M  V30 12748 O 1191.92 -5.7534 1.76828 0
M  V30 12749 H 1195.75 -2.44648 1.79948 0
M  V30 12750 H 1193.33 -1.1634 0.937303 0
M  V30 12751 H 1195.22 -4.21287 0.0976779 0
M  V30 12752 H 1193.89 -3.19366 -0.527912 0
M  V30 12753 H 1192.8 -3.28629 1.78756 0
M  V30 12754 H 1194.13 -4.33312 2.33456 0
M  V30 12755 N 1195.78 -0.955326 -1.25345 0
M  V30 12756 C 1196.73 -0.474888 -2.25862 0
M  V30 12757 C 1197.7 0.472996 -1.59223 0
M  V30 12758 O 1198.88 0.386094 -1.86853 0
M  V30 12759 C 1196.02 0.240554 -3.44261 0
M  V30 12760 C 1195.14 -0.74465 -4.25534 0
M  V30 12761 C 1194.27 -0.00657513 -5.312 0
M  V30 12762 C 1193.31 -0.982666 -6.04161 0
M  V30 12763 N 1192.45 -0.275418 -7.0156 0
M  V30 12764 H 1197.29 -1.33693 -2.66327 0
M  V30 12765 H 1194.83 -0.670439 -1.30933 0
M  V30 12766 H 1196.78 0.671933 -4.11753 0
M  V30 12767 H 1195.41 1.06664 -3.04668 0
M  V30 12768 H 1194.47 -1.29451 -3.57696 0
M  V30 12769 H 1195.78 -1.48948 -4.76042 0
M  V30 12770 H 1194.93 0.483404 -6.04771 0
M  V30 12771 H 1193.67 0.771035 -4.81567 0
M  V30 12772 H 1192.68 -1.48364 -5.29404 0
M  V30 12773 H 1193.9 -1.76052 -6.55883 0
M  V30 12774 H 1191.85 0.483441 -6.54216 0
M  V30 12775 H 1191.76 -0.959324 -7.49889 0
M  V30 12776 H 1193.03 0.193002 -7.79261 0
M  V30 12777 N 1197.26 1.39987 -0.723979 0
M  V30 12778 C 1198.19 2.28185 -0.0257726 0
M  V30 12779 C 1199.17 1.43795 0.75907 0
M  V30 12780 O 1200.36 1.73198 0.743948 0
M  V30 12781 C 1197.48 3.24489 0.970811 0
M  V30 12782 C 1196.53 4.25607 0.275778 0
M  V30 12783 S 1197.36 5.26035 -1.00237 0
M  V30 12784 C 1198.52 6.25899 -0.00809987 0
M  V30 12785 H 1198.75 2.87054 -0.773761 0
M  V30 12786 H 1196.28 1.45546 -0.515332 0
M  V30 12787 H 1198.24 3.80496 1.54055 0
M  V30 12788 H 1196.9 2.6466 1.69156 0
M  V30 12789 H 1196.1 4.93374 1.02946 0
M  V30 12790 H 1195.7 3.73343 -0.22163 0
M  V30 12791 H 1197.99 6.72323 0.835971 0
M  V30 12792 H 1198.93 7.05086 -0.652607 0
M  V30 12793 H 1199.34 5.63355 0.359377 0
M  V30 12794 N 1198.74 0.470782 1.50404 0
M  V30 12795 C 1199.97 -0.0818945 2.06438 0
M  V30 12796 C 1200.38 -1.34085 1.33483 0
M  V30 12797 O 1199.72 -1.79346 0.397565 0
M  V30 12798 C 1199.78 -0.436252 3.56843 0
M  V30 12799 C 1199.45 0.720641 4.51282 0
M  V30 12800 C 1200.44 1.60258 4.94584 0
M  V30 12801 C 1198.13 0.910879 4.93972 0
M  V30 12802 C 1200.12 2.65916 5.79282 0
M  V30 12803 C 1197.81 1.97069 5.78452 0
M  V30 12804 C 1198.81 2.84319 6.21008 0
M  V30 12805 O 1198.5 3.88476 7.03805 0
M  V30 12806 H 1198.23 0.00361688 0.67599 0
M  V30 12807 H 1200.78 0.658488 1.94559 0
M  V30 12808 H 1199.01 -1.22982 3.66623 0
M  V30 12809 H 1200.7 -0.923976 3.95244 0
M  V30 12810 H 1201.47 1.46729 4.62272 0
M  V30 12811 H 1197.35 0.241225 4.60368 0
M  V30 12812 H 1200.89 3.3405 6.12419 0
M  V30 12813 H 1196.79 2.10605 6.10177 0
M  V30 12814 H 1197.55 3.8546 7.22054 0
M  V30 12815 N 1200.22 -1.56282 0.203376 0
M  V30 12816 C 1201.47 -1.96987 -0.433461 0
M  V30 12817 C 1201.78 -1.09344 -1.62183 0
M  V30 12818 O 1202.99 -1.39868 -2.327 0
M  V30 12819 C 1201.44 -3.50374 -0.82257 0
M  V30 12820 C 1201.05 -4.46693 0.341969 0
M  V30 12821 C 1202.79 -3.99831 -1.42603 0
M  V30 12822 C 1200.7 -5.9136 -0.0685608 0
M  V30 12823 H 1199.63 -0.735564 -0.165717 0
M  V30 12824 H 1202.28 -1.81085 0.296708 0
M  V30 12825 H 1200.66 -3.6181 -1.60964 0
M  V30 12826 H 1201.84 -4.46994 1.11952 0
M  V30 12827 H 1200.15 -4.07476 0.857463 0
M  V30 12828 H 1202.75 -5.05398 -1.74577 0
M  V30 12829 H 1203.09 -3.4462 -2.33544 0
M  V30 12830 H 1203.63 -3.91543 -0.702758 0
M  V30 12831 H 1200.36 -6.50515 0.80688 0
M  V30 12832 H 1199.88 -5.94295 -0.810798 0
M  V30 12833 H 1201.56 -6.45053 -0.501525 0
M  V30 12834 N 1201.7 0.070167 -1.57444 0
M  V30 12835 C 1202.63 1.10996 -2.0053 0
M  V30 12836 C 1203.64 1.3489 -0.91151 0
M  V30 12837 O 1204.83 1.33102 -1.18938 0
M  V30 12838 C 1201.93 2.46053 -2.33048 0
M  V30 12839 C 1201.1 2.42092 -3.64294 0
M  V30 12840 C 1200.16 3.5927 -3.84463 0
M  V30 12841 O 1199.19 3.40625 -4.5603 0
M  V30 12842 N 1200.39 4.79677 -3.26941 0
M  V30 12843 H 1203.15 0.743029 -2.90343 0
M  V30 12844 H 1200.72 0.258794 -1.59818 0
M  V30 12845 H 1202.71 3.23089 -2.43712 0
M  V30 12846 H 1201.28 2.74742 -1.49116 0
M  V30 12847 H 1200.5 1.5043 -3.64368 0
M  V30 12848 H 1201.79 2.36548 -4.50469 0
M  V30 12849 H 1201.18 4.97729 -2.68855 0
M  V30 12850 H 1199.74 5.54219 -3.43051 0
M  V30 12851 N 1203.17 1.53854 0.341593 0
M  V30 12852 C 1204.4 1.75134 1.10162 0
M  V30 12853 C 1204.82 0.491415 1.82292 0
M  V30 12854 O 1204.17 -0.53703 1.7442 0
M  V30 12855 C 1204.22 2.93273 2.1136 0
M  V30 12856 O 1203.95 4.14393 1.42162 0
M  V30 12857 C 1205.45 3.26621 2.99723 0
M  V30 12858 H 1202.67 0.585126 0.328434 0
M  V30 12859 H 1205.21 2.00684 0.393204 0
M  V30 12860 H 1203.37 2.70048 2.77764 0
M  V30 12861 H 1203.78 4.8072 2.09783 0
M  V30 12862 H 1205.25 4.12629 3.66662 0
M  V30 12863 H 1205.73 2.43008 3.65847 0
M  V30 12864 H 1206.34 3.51858 2.38906 0
M  V30 12865 N 1204.65 -0.602709 1.4562 0
M  V30 12866 C 1205.88 -1.3881 1.53426 0
M  V30 12867 C 1206.29 -1.88046 0.16851 0
M  V30 12868 O 1205.65 -1.62493 -0.830791 0
M  V30 12869 C 1205.7 -2.58927 2.52268 0
M  V30 12870 O 1205.42 -2.11735 3.83536 0
M  V30 12871 C 1206.92 -3.51728 2.69819 0
M  V30 12872 H 1204.14 -0.424744 0.519455 0
M  V30 12873 H 1206.69 -0.73459 1.90851 0
M  V30 12874 H 1204.84 -3.20309 2.17902 0
M  V30 12875 H 1205.26 -2.89814 4.37159 0
M  V30 12876 H 1206.73 -4.32542 3.42945 0
M  V30 12877 H 1207.21 -4.02383 1.76024 0
M  V30 12878 H 1207.81 -2.96196 3.05202 0
M  V30 12879 N 1206.13 -1.32992 -0.845635 0
M  V30 12880 C 1207.36 -1.27087 -1.63268 0
M  V30 12881 C 1207.77 0.159481 -1.88125 0
M  V30 12882 O 1207.13 1.09948 -1.45663 0
M  V30 12883 C 1207.18 -2.03649 -2.98679 0
M  V30 12884 O 1206.9 -3.41104 -2.74918 0
M  V30 12885 C 1208.4 -2.04875 -3.93117 0
M  V30 12886 H 1205.62 -0.438107 -0.508236 0
M  V30 12887 H 1208.17 -1.75257 -1.05381 0
M  V30 12888 H 1206.32 -1.59178 -3.53187 0
M  V30 12889 H 1206.74 -3.80405 -3.61099 0
M  V30 12890 H 1208.21 -2.62911 -4.85368 0
M  V30 12891 H 1208.69 -1.03728 -4.26775 0
M  V30 12892 H 1209.29 -2.49334 -3.44547 0
M  V30 12893 N 1207.61 1.06304 -1.1635 0
M  V30 12894 C 1208.54 2.15745 -0.893103 0
M  V30 12895 C 1209.52 1.69341 0.160531 0
M  V30 12896 O 1210.7 1.94196 0.0126526 0
M  V30 12897 C 1207.83 3.45066 -0.393287 0
M  V30 12898 C 1206.79 4.04978 -1.38482 0
M  V30 12899 C 1206.11 5.29507 -0.743409 0
M  V30 12900 C 1207.41 4.4377 -2.75438 0
M  V30 12901 H 1209.11 2.38622 -1.80831 0
M  V30 12902 H 1206.65 1.14681 -0.870878 0
M  V30 12903 H 1208.61 4.20964 -0.191607 0
M  V30 12904 H 1207.33 3.21808 0.557426 0
M  V30 12905 H 1205.99 3.31136 -1.57304 0
M  V30 12906 H 1205.64 5.02545 0.213787 0
M  V30 12907 H 1205.34 5.7055 -1.40521 0
M  V30 12908 H 1206.86 6.08102 -0.551746 0
M  V30 12909 H 1208.28 5.1075 -2.60398 0
M  V30 12910 H 1206.67 4.95797 -3.38091 0
M  V30 12911 H 1207.74 3.54636 -3.30699 0
M  V30 12912 N 1209.09 0.96196 1.24836 0
M  V30 12913 C 1210.31 0.63814 1.96813 0
M  V30 12914 C 1210.73 -0.79127 1.71419 0
M  V30 12915 O 1210.09 -1.5302 0.994546 0
M  V30 12916 C 1210.14 0.89626 3.50213 0
M  V30 12917 O 1209.86 2.26947 3.74735 0
M  V30 12918 C 1211.36 0.585836 4.39412 0
M  V30 12919 H 1208.58 0.238598 0.627146 0
M  V30 12920 H 1211.12 1.28833 1.58815 0
M  V30 12921 H 1209.28 0.292368 3.86295 0
M  V30 12922 H 1209.69 2.34514 4.69152 0
M  V30 12923 H 1211.17 0.816935 5.45921 0
M  V30 12924 H 1211.64 -0.479784 4.36572 0
M  V30 12925 H 1212.25 1.16938 4.08908 0
M  V30 12926 N 1210.56 -1.39601 0.731392 0
M  V30 12927 C 1211.81 -2.00883 0.278168 0
M  V30 12928 C 1212.14 -1.57897 -1.13059 0
M  V30 12929 O 1211.42 -0.806203 -1.77005 0
M  V30 12930 C 1211.7 -3.58132 0.375969 0
M  V30 12931 C 1211.55 -4.11147 1.82423 0
M  V30 12932 C 1212.87 -4.39425 -0.243702 0
M  V30 12933 H 1209.99 -0.729831 0.102549 0
M  V30 12934 H 1212.63 -1.65859 0.926869 0
M  V30 12935 H 1210.78 -3.881 -0.176329 0
M  V30 12936 H 1212.46 -3.91914 2.43313 0
M  V30 12937 H 1210.7 -3.64842 2.34675 0
M  V30 12938 H 1211.37 -5.20291 1.84396 0
M  V30 12939 H 1213.85 -4.1548 0.227067 0
M  V30 12940 H 1212.72 -5.48709 -0.144907 0
M  V30 12941 H 1212.98 -4.21642 -1.32929 0
M  V30 12942 N 1212.04 -0.478751 -1.50152 0
M  V30 12943 C 1213.27 0.0732929 -2.0727 0
M  V30 12944 C 1213.69 1.32066 -1.33941 0
M  V30 12945 O 1213.05 1.7707 -0.389367 0
M  V30 12946 C 1213.1 0.332528 -3.59064 0
M  V30 12947 O 1212.2 1.41158 -3.8749 0
M  V30 12948 H 1211.54 -0.0163684 -0.663798 0
M  V30 12949 H 1214.07 -0.671993 -1.9325 0
M  V30 12950 H 1214.08 0.570735 -4.03988 0
M  V30 12951 H 1212.76 -0.578934 -4.11851 0
M  V30 12952 H 1211.34 1.16008 -3.54396 0
M  V30 12953 N 1213.52 1.56172 -0.211661 0
M  V30 12954 C 1214.45 2.15791 0.74225 0
M  V30 12955 C 1215.43 1.0994 1.198 0
M  V30 12956 O 1216.62 1.38143 1.28253 0
M  V30 12957 C 1213.74 2.73021 2.00443 0
M  V30 12958 C 1212.79 3.91611 1.68946 0
M  V30 12959 S 1213.62 5.29139 0.822949 0
M  V30 12960 C 1214.78 5.898 2.09491 0
M  V30 12961 H 1215.01 2.96366 0.235482 0
M  V30 12962 H 1212.54 1.544 0.0035357 0
M  V30 12963 H 1214.5 3.06635 2.7292 0
M  V30 12964 H 1213.16 1.92457 2.48232 0
M  V30 12965 H 1212.36 4.30122 2.62699 0
M  V30 12966 H 1211.96 3.59093 1.04539 0
M  V30 12967 H 1214.25 6.05172 3.04587 0
M  V30 12968 H 1215.19 6.86036 1.75386 0
M  V30 12969 H 1215.6 5.18546 2.23093 0
M  V30 12970 N 1215 -0.0618163 1.57479 0
M  V30 12971 C 1216.22 -0.775513 1.92355 0
M  V30 12972 C 1216.65 -1.69816 0.808949 0
M  V30 12973 O 1216.01 -1.79736 -0.23761 0
M  V30 12974 C 1216.05 -1.5367 3.26218 0
M  V30 12975 O 1215.16 -2.64802 3.16155 0
M  V30 12976 H 1214.5 -0.210909 0.629614 0
M  V30 12977 H 1217.03 -0.0270752 2.04582 0
M  V30 12978 H 1217.04 -1.91379 3.6033 0
M  V30 12979 H 1215.71 -0.859798 4.06916 0
M  V30 12980 H 1214.29 -2.29876 2.93618 0
M  V30 12981 N 1216.48 -1.54033 -0.333429 0
M  V30 12982 C 1217.41 -1.85719 -1.4153 0
M  V30 12983 C 1218.39 -0.713144 -1.54429 0
M  V30 12984 O 1219.57 -0.965984 -1.68471 0
M  V30 12985 C 1216.7 -2.07578 -2.78439 0
M  V30 12986 C 1215.66 -3.23411 -2.80338 0
M  V30 12987 C 1214.98 -3.30622 -4.2023 0
M  V30 12988 C 1216.28 -4.6129 -2.44968 0
M  V30 12989 H 1217.98 -2.76325 -1.15261 0
M  V30 12990 H 1215.52 -1.32957 -0.55303 0
M  V30 12991 H 1217.48 -2.28329 -3.5418 0
M  V30 12992 H 1216.2 -1.13713 -3.06165 0
M  V30 12993 H 1214.86 -3.02531 -2.07052 0
M  V30 12994 H 1214.51 -2.34333 -4.45081 0
M  V30 12995 H 1214.21 -4.08466 -4.22409 0
M  V30 12996 H 1215.73 -3.53596 -4.97798 0
M  V30 12997 H 1217.14 -4.81987 -3.10421 0
M  V30 12998 H 1215.54 -5.41611 -2.58414 0
M  V30 12999 H 1216.61 -4.6421 -1.40134 0
M  V30 13000 N 1217.95 0.594978 -1.45938 0
M  V30 13001 C 1219.18 1.38482 -1.54394 0
M  V30 13002 C 1219.6 1.87222 -0.181563 0
M  V30 13003 O 1218.96 1.60869 0.836119 0
M  V30 13004 C 1219.01 2.55676 -2.54287 0
M  V30 13005 O 1218.11 3.5672 -2.06941 0
M  V30 13006 H 1217.46 0.412918 -0.519995 0
M  V30 13007 H 1219.99 0.722899 -1.91404 0
M  V30 13008 H 1220 3.02756 -2.73501 0
M  V30 13009 H 1218.67 2.19552 -3.53228 0
M  V30 13010 H 1217.25 3.16204 -1.97661 0
M  V30 13011 N 1219.43 1.33438 0.838571 0
M  V30 13012 C 1220.4 1.23632 1.92997 0
M  V30 13013 C 1221.4 0.155302 1.60048 0
M  V30 13014 O 1222.59 0.406852 1.69382 0
M  V30 13015 C 1219.72 0.90512 3.28665 0
M  V30 13016 H 1220.91 2.20643 2.03117 0
M  V30 13017 H 1218.46 1.17501 1.03069 0
M  V30 13018 H 1219.2 -0.0624833 3.2424 0
M  V30 13019 H 1218.98 1.68688 3.53959 0
M  V30 13020 H 1220.47 0.861262 4.08622 0
M  V30 13021 N 1220.91 -1.05686 1.16912 0
M  V30 13022 C 1222.14 -1.82821 0.979348 0
M  V30 13023 C 1222.56 -1.82196 -0.467575 0
M  V30 13024 O 1221.92 -1.22727 -1.33445 0
M  V30 13025 C 1221.97 -3.2705 1.51891 0
M  V30 13026 O 1221.07 -4.05899 0.729341 0
M  V30 13027 H 1220.41 -0.565455 0.348076 0
M  V30 13028 H 1222.94 -1.33211 1.55293 0
M  V30 13029 H 1222.95 -3.77859 1.53904 0
M  V30 13030 H 1221.63 -3.26819 2.5722 0
M  V30 13031 H 1220.2 -3.64646 0.780221 0
M  V30 13032 N 1222.39 -0.968567 -1.24324 0
M  V30 13033 C 1223.63 -0.631863 -1.92705 0
M  V30 13034 C 1223.97 0.83096 -1.75524 0
M  V30 13035 O 1223.24 1.59795 -1.10887 0
M  V30 13036 C 1223.53 -1.00845 -3.45691 0
M  V30 13037 C 1223.38 -2.52803 -3.72036 0
M  V30 13038 C 1224.7 -0.543647 -4.36729 0
M  V30 13039 H 1221.82 -0.231027 -0.699854 0
M  V30 13040 H 1224.46 -1.20773 -1.46676 0
M  V30 13041 H 1222.61 -0.518434 -3.85025 0
M  V30 13042 H 1224.28 -3.09289 -3.42255 0
M  V30 13043 H 1222.52 -2.95963 -3.17157 0
M  V30 13044 H 1223.19 -2.74203 -4.79079 0
M  V30 13045 H 1225.67 -0.964182 -4.04775 0
M  V30 13046 H 1224.55 -0.8357 -5.42501 0
M  V30 13047 H 1224.81 0.556256 -4.38587 0
M  V30 13048 N 1223.87 1.39211 -0.738786 0
M  V30 13049 C 1225.09 2.05256 -0.297421 0
M  V30 13050 C 1225.52 1.55341 1.06069 0
M  V30 13051 O 1224.87 0.698823 1.67291 0
M  V30 13052 C 1224.92 3.59239 -0.312969 0
M  V30 13053 O 1224.03 4.06448 0.698112 0
M  V30 13054 H 1223.37 0.650245 -0.134454 0
M  V30 13055 H 1225.9 1.78173 -1.00577 0
M  V30 13056 H 1225.91 4.07691 -0.158675 0
M  V30 13057 H 1224.58 3.94931 -1.30394 0
M  V30 13058 H 1223.16 3.69401 0.509643 0
M  V30 13059 N 1225.34 0.486708 1.49896 0
M  V30 13060 C 1226.27 -0.288898 2.31706 0
M  V30 13061 C 1227.26 -0.975901 1.3932 0
M  V30 13062 O 1228.44 -0.970065 1.68236 0
M  V30 13063 C 1225.57 -1.36218 3.19471 0
M  V30 13064 C 1224.52 -0.795884 4.20535 0
M  V30 13065 C 1223.85 -1.96862 4.97141 0
M  V30 13066 C 1225.15 0.203421 5.21904 0
M  V30 13067 H 1226.84 0.393934 2.96797 0
M  V30 13068 H 1224.39 0.190894 1.42729 0
M  V30 13069 H 1226.34 -1.91238 3.75508 0
M  V30 13070 H 1225.07 -2.074 2.52295 0
M  V30 13071 H 1223.73 -0.267538 3.65622 0
M  V30 13072 H 1223.37 -2.66779 4.26425 0
M  V30 13073 H 1223.07 -1.59585 5.65514 0
M  V30 13074 H 1224.6 -2.52343 5.56017 0
M  V30 13075 H 1226.01 -0.258144 5.72719 0
M  V30 13076 H 1224.41 0.491273 5.98086 0
M  V30 13077 H 1225.48 1.12414 4.7169 0
M  V30 13078 N 1226.82 -1.56058 0.219941 0
M  V30 13079 C 1228.07 -1.97869 -0.411383 0
M  V30 13080 C 1228.39 -1.10878 -1.60409 0
M  V30 13081 O 1227.66 -0.185454 -1.9502 0
M  V30 13082 H 1226.24 -0.730747 -0.154979 0
M  V30 13083 H 1228.9 -1.92379 0.312461 0
M  V30 13084 H 1228 -3.0323 -0.738798 0
M  V30 13085 N 1228.3 0.053464 -1.57509 0
M  V30 13086 C 1229.23 1.09391 -2.00272 0
M  V30 13087 C 1230.21 1.36553 -0.882727 0
M  V30 13088 O 1231.4 1.4962 -1.14657 0
M  V30 13089 C 1228.52 2.43424 -2.35505 0
M  V30 13090 C 1227.57 2.32278 -3.577 0
M  V30 13091 S 1228.4 1.69939 -5.0782 0
M  V30 13092 C 1229.56 3.05512 -5.46272 0
M  V30 13093 H 1229.79 0.729569 -2.88209 0
M  V30 13094 H 1227.32 0.262633 -1.5215 0
M  V30 13095 H 1229.28 3.20515 -2.56477 0
M  V30 13096 H 1227.94 2.77013 -1.48064 0
M  V30 13097 H 1227.14 3.31165 -3.79928 0
M  V30 13098 H 1226.74 1.63327 -3.36453 0
M  V30 13099 H 1229.03 4.0184 -5.45464 0
M  V30 13100 H 1229.97 2.88043 -6.46867 0
M  V30 13101 H 1230.38 3.06962 -4.73745 0
M  V30 13102 N 1229.78 1.54207 0.325255 0
M  V30 13103 C 1230.71 1.86467 1.40543 0
M  V30 13104 C 1231.69 0.721324 1.54048 0
M  V30 13105 O 1232.88 0.974905 1.67956 0
M  V30 13106 C 1230.01 2.09052 2.77335 0
M  V30 13107 C 1228.96 3.24893 2.78619 0
M  V30 13108 C 1228.29 3.32846 4.1847 0
M  V30 13109 C 1229.59 4.62582 2.42518 0
M  V30 13110 H 1231.28 2.76932 1.13794 0
M  V30 13111 H 1228.83 1.33248 0.545971 0
M  V30 13112 H 1230.78 2.30204 3.52964 0
M  V30 13113 H 1229.5 1.15335 3.05558 0
M  V30 13114 H 1228.16 3.03625 2.05444 0
M  V30 13115 H 1227.81 2.3669 4.43832 0
M  V30 13116 H 1227.51 4.10701 4.20237 0
M  V30 13117 H 1229.03 3.56231 4.95915 0
M  V30 13118 H 1230.45 4.83627 3.07861 0
M  V30 13119 H 1228.84 5.42974 2.55538 0
M  V30 13120 H 1229.91 4.64946 1.3767 0
M  V30 13121 N 1231.26 -0.58723 1.46251 0
M  V30 13122 C 1232.49 -1.36976 1.54665 0
M  V30 13123 C 1232.9 -1.88293 0.185079 0
M  V30 13124 O 1232.24 -1.64028 -0.82707 0
M  V30 13125 C 1232.3 -2.59591 2.48702 0
M  V30 13126 C 1231.96 -2.29773 3.95036 0
M  V30 13127 C 1232.96 -1.88885 4.84374 0
M  V30 13128 C 1230.65 -2.42057 4.40129 0
M  V30 13129 C 1232.64 -1.60669 6.16818 0
M  V30 13130 C 1230.33 -2.13454 5.72609 0
M  V30 13131 C 1231.33 -1.72824 6.60773 0
M  V30 13132 O 1231.01 -1.44569 7.90794 0
M  V30 13133 H 1230.75 -0.424968 0.525717 0
M  V30 13134 H 1233.3 -0.721298 1.92319 0
M  V30 13135 H 1231.53 -3.27226 2.06058 0
M  V30 13136 H 1233.22 -3.21656 2.47573 0
M  V30 13137 H 1233.98 -1.78913 4.50794 0
M  V30 13138 H 1229.86 -2.72644 3.71734 0
M  V30 13139 H 1233.41 -1.28882 6.85591 0
M  V30 13140 H 1229.3 -2.23048 6.05739 0
M  V30 13141 H 1230.07 -1.58452 8.03016 0
M  V30 13142 N 1232.74 -1.33881 -0.831482 0
M  V30 13143 C 1233.67 -1.19089 -1.94661 0
M  V30 13144 C 1234.65 -0.0845706 -1.6238 0
M  V30 13145 O 1235.83 -0.248163 -1.86859 0
M  V30 13146 C 1232.96 -0.828223 -3.28418 0
M  V30 13147 C 1232 -1.94309 -3.79666 0
M  V30 13148 S 1232.84 -3.55524 -4.00454 0
M  V30 13149 C 1233.99 -3.21279 -5.3715 0
M  V30 13150 H 1234.23 -2.13484 -2.0691 0
M  V30 13151 H 1231.76 -1.18809 -0.986098 0
M  V30 13152 H 1233.72 -0.625759 -4.05702 0
M  V30 13153 H 1232.38 0.0972457 -3.13949 0
M  V30 13154 H 1231.57 -1.64288 -4.76472 0
M  V30 13155 H 1231.17 -2.1026 -3.093 0
M  V30 13156 H 1233.46 -2.72563 -6.20255 0
M  V30 13157 H 1234.41 -4.17193 -5.7215 0
M  V30 13158 H 1234.82 -2.57683 -5.02255 0
M  V30 13159 N 1234.21 1.05064 -1.1747 0
M  V30 13160 C 1235.62 1.59547 -0.969628 0
M  V30 13161 C 1235.98 1.90153 0.483332 0
M  V30 13162 O 1235.1 1.68415 1.35887 0
M  V30 13163 C 1235.7 2.89877 -1.75377 0
M  V30 13164 C 1234.25 3.41013 -1.59332 0
M  V30 13165 C 1233.4 2.1473 -1.7546 0
M  V30 13166 H 1236.35 0.878595 -1.3216 0
M  V30 13167 H 1236.37 3.59834 -1.23691 0
M  V30 13168 H 1235.89 2.67569 -2.8112 0
M  V30 13169 H 1233.99 3.68355 -0.560827 0
M  V30 13170 H 1234.1 4.15512 -2.38509 0
M  V30 13171 H 1232.46 2.25553 -1.18313 0
M  V30 13172 H 1233.25 1.9489 -2.82618 0
M  V30 13173 N 1235.69 0.975146 1.23809 0
M  V30 13174 C 1236.64 0.510761 2.25077 0
M  V30 13175 C 1237.61 -0.447605 1.59955 0
M  V30 13176 O 1238.79 -0.356318 1.87443 0
M  V30 13177 C 1235.93 -0.185755 3.446 0
M  V30 13178 C 1235.05 0.812254 4.24295 0
M  V30 13179 C 1234.18 0.0910835 5.31122 0
M  V30 13180 C 1233.22 1.07866 6.02521 0
M  V30 13181 N 1232.36 0.386995 7.01033 0
M  V30 13182 H 1237.2 1.37913 2.64166 0
M  V30 13183 H 1234.73 0.691184 1.2985 0
M  V30 13184 H 1236.69 -0.606341 4.1277 0
M  V30 13185 H 1235.32 -1.01803 3.06327 0
M  V30 13186 H 1234.37 1.35125 3.55592 0
M  V30 13187 H 1235.69 1.56502 4.73612 0
M  V30 13188 H 1234.84 -0.387129 6.05464 0
M  V30 13189 H 1233.58 -0.694324 4.82732 0
M  V30 13190 H 1232.58 1.56767 5.26976 0
M  V30 13191 H 1233.81 1.86464 6.52999 0
M  V30 13192 H 1231.76 -0.3793 6.54903 0
M  V30 13193 H 1231.67 1.0785 7.48268 0
M  V30 13194 H 1232.94 -0.0690036 7.79469 0
M  V30 13195 N 1237.17 -1.38817 0.746158 0
M  V30 13196 C 1238.42 -2.00577 0.299458 0
M  V30 13197 C 1238.75 -1.59087 -1.11378 0
M  V30 13198 O 1238.02 -0.824932 -1.7614 0
M  V30 13199 C 1238.31 -3.57713 0.413932 0
M  V30 13200 C 1238.16 -4.09189 1.86774 0
M  V30 13201 C 1239.48 -4.39659 -0.197082 0
M  V30 13202 H 1236.6 -0.728702 0.110285 0
M  V30 13203 H 1239.24 -1.64866 0.944408 0
M  V30 13204 H 1237.39 -3.88265 -0.135155 0
M  V30 13205 H 1239.06 -3.89311 2.47456 0
M  V30 13206 H 1237.3 -3.62333 2.38532 0
M  V30 13207 H 1237.98 -5.18305 1.89904 0
M  V30 13208 H 1240.45 -4.15216 0.271121 0
M  V30 13209 H 1239.33 -5.48832 -0.0867011 0
M  V30 13210 H 1239.59 -4.23028 -1.2845 0
M  V30 13211 N 1238.65 -0.49465 -1.49636 0
M  V30 13212 C 1239.88 0.0490417 -2.06542 0
M  V30 13213 C 1240.29 1.31945 -1.35599 0
M  V30 13214 O 1239.63 1.78691 -0.426047 0
M  V30 13215 C 1239.69 0.379426 -3.57492 0
M  V30 13216 C 1239.35 -0.792345 -4.50079 0
M  V30 13217 C 1240.35 -1.68106 -4.91972 0
M  V30 13218 C 1238.04 -0.98935 -4.9246 0
M  V30 13219 C 1240.03 -2.75099 -5.74978 0
M  V30 13220 C 1237.72 -2.06247 -5.75244 0
M  V30 13221 C 1238.72 -2.94163 -6.16407 0
M  V30 13222 O 1238.4 -3.99623 -6.97536 0
M  V30 13223 H 1238.14 -0.0143708 -0.675847 0
M  V30 13224 H 1240.69 -0.689358 -1.93486 0
M  V30 13225 H 1238.92 1.17133 -3.68533 0
M  V30 13226 H 1240.61 0.860979 -3.96664 0
M  V30 13227 H 1241.37 -1.54065 -4.59879 0
M  V30 13228 H 1237.25 -0.314435 -4.59926 0
M  V30 13229 H 1240.8 -3.4375 -6.07027 0
M  V30 13230 H 1236.69 -2.20285 -6.06749 0
M  V30 13231 H 1237.46 -3.96899 -7.15831 0
M  V30 13232 N 1240.13 1.55939 -0.228214 0
M  V30 13233 C 1241.37 1.97652 0.402067 0
M  V30 13234 C 1241.69 1.11911 1.60422 0
M  V30 13235 O 1242.89 1.43552 2.30445 0
M  V30 13236 C 1241.35 3.51638 0.766724 0
M  V30 13237 C 1240.96 4.46092 -0.412991 0
M  V30 13238 C 1242.7 4.02049 1.36224 0
M  V30 13239 C 1240.61 5.91394 -0.0255281 0
M  V30 13240 H 1239.54 0.738107 0.153994 0
M  V30 13241 H 1242.19 1.8059 -0.32548 0
M  V30 13242 H 1240.57 3.64325 1.55188 0
M  V30 13243 H 1241.75 4.45156 -1.19049 0
M  V30 13244 H 1240.06 4.0606 -0.92218 0
M  V30 13245 H 1242.66 5.08111 1.66514 0
M  V30 13246 H 1243 3.48292 2.28032 0
M  V30 13247 H 1243.53 3.92612 0.640378 0
M  V30 13248 H 1240.27 6.49149 -0.910269 0
M  V30 13249 H 1239.79 5.95509 0.716149 0
M  V30 13250 H 1241.47 6.4577 0.398839 0
M  V30 13251 N 1241.6 -0.0451101 1.57535 0
M  V30 13252 C 1242.85 -0.738072 1.87711 0
M  V30 13253 C 1243.17 -1.7737 0.824579 0
M  V30 13254 O 1244.37 -2.51812 1.01503 0
M  V30 13255 C 1242.83 -1.36373 3.33062 0
M  V30 13256 C 1242.44 -0.365283 4.46508 0
M  V30 13257 C 1244.18 -2.0375 3.72406 0
M  V30 13258 C 1242.09 -0.998371 5.82912 0
M  V30 13259 H 1241.02 -0.279413 0.700317 0
M  V30 13260 H 1243.67 0.00802425 1.83498 0
M  V30 13261 H 1242.05 -2.15899 3.31969 0
M  V30 13262 H 1243.22 0.402102 4.59042 0
M  V30 13263 H 1241.54 0.205505 4.15893 0
M  V30 13264 H 1244.14 -2.51939 4.71625 0
M  V30 13265 H 1244.48 -2.84869 3.03571 0
M  V30 13266 H 1245.01 -1.3102 3.75604 0
M  V30 13267 H 1241.75 -0.226935 6.55107 0
M  V30 13268 H 1241.27 -1.73598 5.74129 0
M  V30 13269 H 1242.95 -1.51044 6.29122 0
M  V30 13270 N 1243.08 -1.54377 -0.317073 0
M  V30 13271 C 1244.33 -1.72105 -1.0518 0
M  V30 13272 C 1244.64 -0.505166 -1.88964 0
M  V30 13273 O 1245.85 -0.563912 -2.65579 0
M  V30 13274 C 1244.31 -3.04435 -1.91957 0
M  V30 13275 C 1243.91 -4.33449 -1.13253 0
M  V30 13276 C 1245.66 -3.31524 -2.65127 0
M  V30 13277 C 1243.57 -5.56837 -1.99214 0
M  V30 13278 H 1242.5 -0.641392 -0.396399 0
M  V30 13279 H 1245.15 -1.80868 -0.309673 0
M  V30 13280 H 1243.53 -2.89595 -2.70094 0
M  V30 13281 H 1244.7 -4.59074 -0.39842 0
M  V30 13282 H 1243.02 -4.13173 -0.517372 0
M  V30 13283 H 1245.61 -4.20906 -3.29761 0
M  V30 13284 H 1245.96 -2.49688 -3.33109 0
M  V30 13285 H 1246.49 -3.47261 -1.94048 0
M  V30 13286 H 1243.23 -6.41294 -1.35729 0
M  V30 13287 H 1242.75 -5.35421 -2.70341 0
M  V30 13288 H 1244.43 -5.93488 -2.57646 0
M  V30 13289 N 1244.56 0.579466 -1.4656 0
M  V30 13290 C 1245.81 1.33756 -1.52038 0
M  V30 13291 C 1246.14 1.93725 -0.173423 0
M  V30 13292 O 1245.39 1.77167 0.831293 0
M  V30 13293 C 1245.69 2.48417 -2.56951 0
M  V30 13294 C 1245.36 2.0642 -4.00876 0
M  V30 13295 C 1244.02 1.94682 -4.4006 0
M  V30 13296 C 1246.37 1.74066 -4.91274 0
M  V30 13297 C 1243.7 1.48852 -5.67503 0
M  V30 13298 C 1246.05 1.29714 -6.19158 0
M  V30 13299 C 1244.71 1.16555 -6.57245 0
M  V30 13300 H 1243.98 0.489447 -0.556347 0
M  V30 13301 H 1246.63 0.652176 -1.80053 0
M  V30 13302 H 1244.94 3.22416 -2.2261 0
M  V30 13303 H 1246.63 3.06629 -2.58418 0
M  V30 13304 H 1243.22 2.16492 -3.69904 0
M  V30 13305 H 1247.41 1.82019 -4.61717 0
M  V30 13306 H 1242.66 1.3731 -5.95782 0
M  V30 13307 H 1246.84 1.03734 -6.88631 0
M  V30 13308 H 1244.46 0.808193 -7.55892 0
M  V30 13309 N 1246.04 1.3432 0.824371 0
M  V30 13310 C 1246.99 1.22332 1.92403 0
M  V30 13311 C 1247.97 0.122709 1.60431 0
M  V30 13312 O 1249.16 0.352231 1.7346 0
M  V30 13313 C 1246.29 0.979497 3.2903 0
M  V30 13314 C 1245.38 2.12322 3.67124 0
M  V30 13315 N 1245.77 3.3743 3.76795 0
M  V30 13316 C 1244.07 2.03314 3.96963 0
M  V30 13317 C 1244.77 4.12532 4.10113 0
M  V30 13318 N 1243.75 3.41109 4.23256 0
M  V30 13319 H 1247.55 2.17143 1.98056 0
M  V30 13320 H 1245.06 1.26537 1.01795 0
M  V30 13321 H 1247.06 0.874525 4.07624 0
M  V30 13322 H 1245.72 0.0400611 3.24675 0
M  V30 13323 H 1246.73 3.72001 3.60327 0
M  V30 13324 H 1243.41 1.17118 4.00736 0
M  V30 13325 H 1244.8 5.20562 4.24811 0
M  V30 13326 N 1247.52 -1.0444 1.18026 0
M  V30 13327 C 1248.93 -1.5903 0.978076 0
M  V30 13328 C 1249.28 -1.90407 -0.473241 0
M  V30 13329 O 1248.4 -1.69133 -1.34992 0
M  V30 13330 C 1249 -2.88942 1.76912 0
M  V30 13331 C 1247.56 -3.40164 1.61139 0
M  V30 13332 C 1246.7 -2.13797 1.76596 0
M  V30 13333 H 1249.66 -0.871574 1.32625 0
M  V30 13334 H 1249.68 -3.59173 1.25598 0
M  V30 13335 H 1249.19 -2.66074 2.82535 0
M  V30 13336 H 1247.29 -3.68053 0.580353 0
M  V30 13337 H 1247.4 -4.14241 2.40709 0
M  V30 13338 H 1245.77 -2.24922 1.19507 0
M  V30 13339 H 1246.55 -1.93389 2.83647 0
M  V30 13340 N 1248.99 -0.981699 -1.2329 0
M  V30 13341 C 1249.9 -0.531296 -2.28505 0
M  V30 13342 C 1250.92 0.414531 -1.6899 0
M  V30 13343 O 1252.1 0.284129 -1.99386 0
M  V30 13344 C 1249.16 0.157864 -3.4634 0
M  V30 13345 C 1248.22 -0.829527 -4.21209 0
M  V30 13346 C 1247.46 -0.17316 -5.33419 0
M  V30 13347 O 1247.68 1.03549 -5.60922 0
M  V30 13348 O 1246.61 -0.872385 -5.95544 0
M  V30 13349 H 1250.44 -1.40633 -2.69177 0
M  V30 13350 H 1248.02 -0.749395 -1.29246 0
M  V30 13351 H 1249.91 0.544394 -4.17869 0
M  V30 13352 H 1248.58 1.00764 -3.07617 0
M  V30 13353 H 1247.49 -1.26678 -3.51999 0
M  V30 13354 H 1248.82 -1.64815 -4.63785 0
M  V30 13355 N 1250.47 1.3842 -0.753509 0
M  V30 13356 C 1251.4 2.29039 -0.0859463 0
M  V30 13357 C 1252.42 1.47742 0.68383 0
M  V30 13358 O 1253.61 1.70607 0.524933 0
M  V30 13359 C 1250.71 3.26668 0.902296 0
M  V30 13360 C 1249.88 4.36986 0.190178 0
M  V30 13361 C 1248.94 5.14805 1.08916 0
M  V30 13362 O 1247.96 5.66441 0.559715 0
M  V30 13363 N 1249.17 5.27777 2.41726 0
M  V30 13364 H 1251.93 2.8697 -0.864196 0
M  V30 13365 H 1249.49 1.502 -0.604288 0
M  V30 13366 H 1251.48 3.75606 1.50672 0
M  V30 13367 H 1250.05 2.69636 1.58163 0
M  V30 13368 H 1249.27 3.89684 -0.594959 0
M  V30 13369 H 1250.56 5.07899 -0.302594 0
M  V30 13370 H 1249.96 4.87376 2.87196 0
M  V30 13371 H 1248.52 5.8009 2.97219 0
M  V30 13372 N 1251.95 0.502579 1.49372 0
M  V30 13373 C 1252.9 -0.288693 2.30801 0
M  V30 13374 C 1253.89 -0.961303 1.39482 0
M  V30 13375 O 1255.1 -0.888812 1.56525 0
M  V30 13376 H 1251.47 -0.111958 0.743619 0
M  V30 13377 H 1253.44 0.418062 2.95457 0
M  V30 13378 C 1252.19 -1.33938 3.20867 0
M  V30 13379 H 1251.52 -0.831219 3.91064 0
M  V30 13380 H 1252.96 -1.86498 3.80781 0
M  V30 13381 C 1251.42 -2.35839 2.40586 0
M  V30 13382 O 1251.95 -3.41752 2.11113 0
M  V30 13383 N 1250.15 -2.0835 2.0258 0
M  V30 13384 H 1249.7 -1.2224 2.26749 0
M  V30 13385 H 1249.66 -2.76758 1.49173 0
M  V30 13386 N 1253.43 -1.55816 0.23648 0
M  V30 13387 C 1254.67 -1.98981 -0.391725 0
M  V30 13388 C 1255.01 -1.12428 -1.58346 0
M  V30 13389 O 1254.28 -0.185303 -1.93615 0
M  V30 13390 C 1254.57 -3.50831 -0.811759 0
M  V30 13391 C 1254.42 -4.48152 0.384648 0
M  V30 13392 C 1255.74 -4.07489 -1.66254 0
M  V30 13393 H 1252.86 -0.723404 -0.140911 0
M  V30 13394 H 1255.5 -1.87011 0.335706 0
M  V30 13395 H 1253.65 -3.61162 -1.43157 0
M  V30 13396 H 1255.32 -4.49814 1.02298 0
M  V30 13397 H 1253.56 -4.21406 1.02955 0
M  V30 13398 H 1254.23 -5.51979 0.0475809 0
M  V30 13399 H 1256.71 -4.00195 -1.13944 0
M  V30 13400 H 1255.59 -5.14026 -1.92531 0
M  V30 13401 H 1255.85 -3.55297 -2.6309 0
M  V30 13402 N 1254.91 0.036755 -1.57557 0
M  V30 13403 C 1255.84 1.06718 -2.0284 0
M  V30 13404 C 1256.85 1.32926 -0.939917 0
M  V30 13405 O 1258.04 1.30549 -1.21734 0
M  V30 13406 C 1255.14 2.41054 -2.38214 0
M  V30 13407 C 1254.31 2.3431 -3.69347 0
M  V30 13408 C 1253.37 3.51034 -3.91997 0
M  V30 13409 O 1252.4 3.30875 -4.63152 0
M  V30 13410 N 1253.6 4.72634 -3.37042 0
M  V30 13411 H 1256.37 0.681275 -2.91854 0
M  V30 13412 H 1253.93 0.224836 -1.60331 0
M  V30 13413 H 1255.92 3.17847 -2.5051 0
M  V30 13414 H 1254.49 2.71517 -1.5491 0
M  V30 13415 H 1253.71 1.42668 -3.67477 0
M  V30 13416 H 1255 2.2694 -4.55385 0
M  V30 13417 H 1254.39 4.91914 -2.79352 0
M  V30 13418 H 1252.95 5.46818 -3.5473 0
M  V30 13419 N 1256.39 1.54543 0.308881 0
M  V30 13420 C 1257.33 1.84949 1.38067 0
M  V30 13421 C 1258.3 0.697746 1.50734 0
M  V30 13422 O 1259.49 0.94561 1.65719 0
M  V30 13423 C 1256.63 2.09544 2.74199 0
M  V30 13424 C 1255.74 3.37193 2.70046 0
M  V30 13425 C 1254.88 3.51672 3.98121 0
M  V30 13426 C 1253.91 4.73143 3.88333 0
M  V30 13427 N 1253.05 4.84469 5.08167 0
M  V30 13428 H 1257.89 2.76379 1.11438 0
M  V30 13429 H 1255.43 1.36863 0.539153 0
M  V30 13430 H 1257.39 2.21798 3.53358 0
M  V30 13431 H 1256.02 1.21389 2.99106 0
M  V30 13432 H 1255.07 3.33601 1.82796 0
M  V30 13433 H 1256.38 4.26468 2.58701 0
M  V30 13434 H 1255.53 3.63548 4.85714 0
M  V30 13435 H 1254.27 2.60516 4.1229 0
M  V30 13436 H 1253.28 4.61308 2.99124 0
M  V30 13437 H 1254.5 5.65698 3.75716 0
M  V30 13438 H 1252.45 3.96234 5.22814 0
M  V30 13439 H 1252.37 5.67733 4.99215 0
M  V30 13440 H 1253.63 5.00693 5.97434 0
M  V30 13441 N 1257.86 -0.571685 1.46866 0
M  V30 13442 C 1259.28 -0.896172 1.32064 0
M  V30 13443 C 1259.48 -1.9925 0.300291 0
M  V30 13444 O 1258.54 -2.50791 -0.293284 0
M  V30 13445 C 1259.85 -1.3031 2.70998 0
M  V30 13446 C 1261.4 -1.41533 2.79173 0
M  V30 13447 C 1261.87 -1.85587 4.18714 0
M  V30 13448 N 1263.36 -1.92762 4.21185 0
M  V30 13449 C 1264.1 -2.28148 5.26057 0
M  V30 13450 N 1263.59 -2.62248 6.41247 0
M  V30 13451 N 1265.39 -2.28797 5.13428 0
M  V30 13452 H 1257.54 0.152349 2.11853 0
M  V30 13453 H 1259.8 0.00548777 0.947984 0
M  V30 13454 H 1259.51 -0.571469 3.47026 0
M  V30 13455 H 1259.38 -2.26233 3.01826 0
M  V30 13456 H 1261.77 -2.1378 2.03426 0
M  V30 13457 H 1261.85 -0.438342 2.52016 0
M  V30 13458 H 1261.49 -1.13915 4.9496 0
M  V30 13459 H 1261.42 -2.84264 4.43285 0
M  V30 13460 H 1263.91 -1.68854 3.38078 0
M  V30 13461 H 1264.23 -2.88234 7.17036 0
M  V30 13462 H 1262.57 -2.59861 6.44591 0
M  V30 13463 H 1265.76 -2.01587 4.22469 0
M  V30 13464 H 1265.94 -2.56045 5.95269 0
M  V30 13465 N 1259.34 -1.34755 -0.817236 0
M  V30 13466 C 1260.29 -1.26801 -1.92848 0
M  V30 13467 C 1261.26 -0.142077 -1.65491 0
M  V30 13468 O 1262.44 -0.324006 -1.88029 0
M  V30 13469 C 1259.58 -1.03513 -3.2921 0
M  V30 13470 C 1258.7 -2.24932 -3.68822 0
M  V30 13471 C 1257.83 -1.94881 -4.94161 0
M  V30 13472 C 1256.87 -3.12411 -5.2637 0
M  V30 13473 N 1256.01 -2.82207 -6.42887 0
M  V30 13474 H 1260.85 -2.21832 -1.98983 0
M  V30 13475 H 1258.38 -1.10284 -0.973439 0
M  V30 13476 H 1260.34 -0.88047 -4.07803 0
M  V30 13477 H 1258.97 -0.121478 -3.22571 0
M  V30 13478 H 1258.02 -2.51299 -2.85575 0
M  V30 13479 H 1259.34 -3.12726 -3.88592 0
M  V30 13480 H 1258.49 -1.76184 -5.80555 0
M  V30 13481 H 1257.23 -1.04355 -4.76405 0
M  V30 13482 H 1256.23 -3.31698 -4.3847 0
M  V30 13483 H 1257.46 -4.03724 -5.46062 0
M  V30 13484 H 1255.41 -1.94263 -6.26576 0
M  V30 13485 H 1255.32 -3.63534 -6.62857 0
M  V30 13486 H 1256.59 -2.67026 -7.32337 0
M  V30 13487 N 1260.82 1.03812 -1.18578 0
M  V30 13488 C 1262.24 1.29271 -0.936011 0
M  V30 13489 C 1262.44 1.97551 0.396965 0
M  V30 13490 O 1261.49 2.25769 1.13069 0
M  V30 13491 C 1262.8 2.1489 -2.1034 0
M  V30 13492 C 1264.35 2.28228 -2.14198 0
M  V30 13493 C 1264.83 3.17214 -3.30362 0
M  V30 13494 N 1266.32 3.24802 -3.30239 0
M  V30 13495 C 1267.05 3.9382 -4.16765 0
M  V30 13496 N 1266.55 4.65147 -5.1343 0
M  V30 13497 N 1268.34 3.90125 -4.04671 0
M  V30 13498 H 1260.49 0.579011 -2.04356 0
M  V30 13499 H 1262.76 0.318021 -0.893066 0
M  V30 13500 H 1262.46 1.72029 -3.06755 0
M  V30 13501 H 1262.34 3.15576 -2.06619 0
M  V30 13502 H 1264.72 2.70324 -1.18359 0
M  V30 13503 H 1264.8 1.27124 -2.21976 0
M  V30 13504 H 1264.45 2.75829 -4.26475 0
M  V30 13505 H 1264.38 4.18356 -3.19821 0
M  V30 13506 H 1266.87 2.73994 -2.60261 0
M  V30 13507 H 1267.18 5.15414 -5.7582 0
M  V30 13508 H 1265.53 4.64043 -5.17387 0
M  V30 13509 H 1268.72 3.33536 -3.28438 0
M  V30 13510 H 1268.89 4.43641 -4.7232 0
M  V30 13511 N 1262.3 0.988223 1.22768 0
M  V30 13512 C 1263.52 0.679426 1.95955 0
M  V30 13513 C 1263.95 -0.748483 1.72567 0
M  V30 13514 O 1263.31 -1.51097 1.00197 0
M  V30 13515 C 1263.35 0.985284 3.46878 0
M  V30 13516 O 1262.46 0.0814607 4.1232 0
M  V30 13517 H 1261.8 0.254749 0.613188 0
M  V30 13518 H 1264.33 1.32393 1.55991 0
M  V30 13519 H 1264.34 0.925198 3.97371 0
M  V30 13520 H 1263.01 2.02581 3.63227 0
M  V30 13521 H 1261.59 0.196629 3.72381 0
M  V30 13522 N 1263.78 -1.38018 0.760839 0
M  V30 13523 C 1265.02 -1.99952 0.320241 0
M  V30 13524 C 1265.35 -1.60397 -1.10014 0
M  V30 13525 O 1264.61 -0.836407 -1.76926 0
M  V30 13526 C 1264.9 -3.55168 0.398778 0
M  V30 13527 C 1264.57 -4.14457 1.77585 0
M  V30 13528 C 1263.23 -4.30363 2.15269 0
M  V30 13529 C 1265.58 -4.47089 2.67883 0
M  V30 13530 C 1262.91 -4.762 3.4271 0
M  V30 13531 C 1265.26 -4.94345 3.94722 0
M  V30 13532 C 1263.93 -5.08458 4.32466 0
M  V30 13533 H 1263.2 -0.731675 0.117185 0
M  V30 13534 H 1265.85 -1.64955 0.972736 0
M  V30 13535 H 1264.15 -3.90346 -0.337273 0
M  V30 13536 H 1265.85 -4.00981 0.0393393 0
M  V30 13537 H 1262.44 -4.02496 1.47292 0
M  V30 13538 H 1266.62 -4.34395 2.40031 0
M  V30 13539 H 1261.88 -4.85312 3.71863 0
M  V30 13540 H 1266.05 -5.18563 4.64828 0
M  V30 13541 H 1263.68 -5.43735 5.31278 0
M  V30 13542 N 1265.25 -0.510493 -1.49103 0
M  V30 13543 C 1266.2 0.262848 -2.29298 0
M  V30 13544 C 1267.17 0.951714 -1.36131 0
M  V30 13545 O 1268.36 0.956534 -1.65091 0
M  V30 13546 C 1265.5 1.31565 -3.19037 0
M  V30 13547 C 1264.61 0.637598 -4.27269 0
M  V30 13548 C 1263.74 1.67165 -5.04212 0
M  V30 13549 C 1262.78 0.975992 -6.04269 0
M  V30 13550 N 1261.92 1.95468 -6.74342 0
M  V30 13551 H 1266.76 -0.427246 -2.94921 0
M  V30 13552 H 1264.3 -0.222538 -1.45407 0
M  V30 13553 H 1266.25 1.93813 -3.69449 0
M  V30 13554 H 1264.88 1.97438 -2.55379 0
M  V30 13555 H 1263.94 -0.0983863 -3.80273 0
M  V30 13556 H 1265.25 0.0904435 -4.98718 0
M  V30 13557 H 1264.4 2.36893 -5.5854 0
M  V30 13558 H 1263.14 2.25267 -4.32557 0
M  V30 13559 H 1262.15 0.264534 -5.49163 0
M  V30 13560 H 1263.37 0.40134 -6.77913 0
M  V30 13561 H 1261.32 2.52515 -6.05452 0
M  V30 13562 H 1261.23 1.45845 -7.41799 0
M  V30 13563 H 1262.5 2.64455 -7.33269 0
M  V30 13564 N 1266.73 1.55688 -0.24474 0
M  V30 13565 C 1267.69 2.20014 0.642382 0
M  V30 13566 C 1268.69 1.16877 1.10437 0
M  V30 13567 O 1269.88 1.41972 1.00943 0
M  V30 13568 C 1267.02 2.84198 1.88267 0
M  V30 13569 H 1268.21 2.9979 0.0811937 0
M  V30 13570 H 1265.76 1.56299 0.00480917 0
M  V30 13571 H 1266.5 2.08354 2.48514 0
M  V30 13572 H 1266.28 3.59747 1.55963 0
M  V30 13573 H 1267.77 3.33434 2.5142 0
M  V30 13574 N 1268.21 -0.0283989 1.57574 0
M  V30 13575 C 1269.46 -0.720142 1.89583 0
M  V30 13576 C 1269.79 -1.7497 0.842562 0
M  V30 13577 O 1269.06 -1.93979 -0.142294 0
M  V30 13578 C 1269.35 -1.38909 3.32229 0
M  V30 13579 C 1269.2 -0.372998 4.48251 0
M  V30 13580 C 1270.52 -2.32289 3.73804 0
M  V30 13581 H 1267.64 -0.26033 0.689491 0
M  V30 13582 H 1270.28 0.0170607 1.89992 0
M  V30 13583 H 1268.43 -2.01744 3.32011 0
M  V30 13584 H 1270.1 0.253492 4.60603 0
M  V30 13585 H 1268.34 0.30765 4.32708 0
M  V30 13586 H 1269.02 -0.879549 5.44948 0
M  V30 13587 H 1271.49 -1.79497 3.75393 0
M  V30 13588 H 1270.37 -2.76075 4.74419 0
M  V30 13589 H 1270.63 -3.18992 3.06099 0
M  V30 13590 N 1269.69 -1.54705 -0.300681 0
M  V30 13591 C 1270.93 -1.74259 -1.03738 0
M  V30 13592 C 1271.27 -0.52703 -1.86912 0
M  V30 13593 O 1270.54 0.475862 -1.88589 0
M  V30 13594 C 1270.82 -3.03175 -1.94311 0
M  V30 13595 C 1270.68 -4.35031 -1.14315 0
M  V30 13596 C 1272 -3.27962 -2.93478 0
M  V30 13597 H 1269.12 -0.634031 -0.37573 0
M  V30 13598 H 1271.76 -1.87421 -0.312012 0
M  V30 13599 H 1269.91 -2.92086 -2.5616 0
M  V30 13600 H 1271.58 -4.5804 -0.547489 0
M  V30 13601 H 1269.82 -4.31503 -0.44587 0
M  V30 13602 H 1270.49 -5.21502 -1.80941 0
M  V30 13603 H 1272.97 -3.38663 -2.41757 0
M  V30 13604 H 1271.85 -4.19481 -3.54016 0
M  V30 13605 H 1272.11 -2.46273 -3.67154 0
M  V30 13606 N 1271.17 0.563888 -1.47167 0
M  V30 13607 C 1272.39 1.34693 -1.57052 0
M  V30 13608 C 1272.81 1.87534 -0.218308 0
M  V30 13609 O 1272.17 1.64639 0.787416 0
M  V30 13610 C 1272.22 2.52148 -2.59044 0
M  V30 13611 O 1271.94 2.01492 -3.89015 0
M  V30 13612 C 1273.44 3.4445 -2.7905 0
M  V30 13613 H 1270.66 0.410822 -0.530534 0
M  V30 13614 H 1273.2 0.683731 -1.92731 0
M  V30 13615 H 1271.36 3.14419 -2.26317 0
M  V30 13616 H 1271.77 2.78122 -4.44689 0
M  V30 13617 H 1273.25 4.23297 -3.54293 0
M  V30 13618 H 1273.72 3.97575 -1.86631 0
M  V30 13619 H 1274.33 2.88 -3.12948 0
M  V30 13620 N 1272.64 1.35187 0.810078 0
M  V30 13621 C 1273.61 1.27698 1.90331 0
M  V30 13622 C 1274.61 0.189216 1.59683 0
M  V30 13623 O 1275.8 0.442689 1.68481 0
M  V30 13624 C 1272.93 0.974631 3.26671 0
M  V30 13625 H 1274.12 2.24902 1.98392 0
M  V30 13626 H 1271.68 1.1966 1.00554 0
M  V30 13627 H 1272.41 0.0063068 3.24299 0
M  V30 13628 H 1272.2 1.76158 3.50301 0
M  V30 13629 H 1273.69 0.947743 4.06703 0
M  V30 13630 N 1274.12 -1.03182 1.19127 0
M  V30 13631 C 1275.09 -2.09559 0.928307 0
M  V30 13632 C 1276.09 -1.60548 -0.0899992 0
M  V30 13633 O 1277.28 -1.736 0.144422 0
M  V30 13634 C 1274.41 -3.38609 0.394561 0
M  V30 13635 H 1275.6 -2.34321 1.87173 0
M  V30 13636 H 1273.15 -1.19746 1.00452 0
M  V30 13637 H 1273.89 -3.19515 -0.555046 0
M  V30 13638 H 1273.67 -3.75502 1.12873 0
M  V30 13639 H 1275.16 -4.16969 0.229569 0
M  V30 13640 N 1275.6 -0.99472 -1.22242 0
M  V30 13641 C 1276.83 -0.690097 -1.95052 0
M  V30 13642 C 1277.24 0.745543 -1.73456 0
M  V30 13643 O 1276.6 1.50329 -1.03477 0
M  V30 13644 C 1276.65 -0.988798 -3.47714 0
M  V30 13645 O 1276.37 -2.36803 -3.68587 0
M  V30 13646 C 1277.87 -0.702132 -4.37704 0
M  V30 13647 H 1275.09 -0.255142 -0.620599 0
M  V30 13648 H 1277.64 -1.32998 -1.55344 0
M  V30 13649 H 1275.79 -0.394684 -3.85384 0
M  V30 13650 H 1276.21 -2.4687 -4.62769 0
M  V30 13651 H 1277.68 -0.961389 -5.43564 0
M  V30 13652 H 1278.16 0.363866 -4.3769 0
M  V30 13653 H 1278.76 -1.27738 -4.05664 0
M  V30 13654 N 1277.08 1.37613 -0.768148 0
M  V30 13655 C 1278.01 2.27988 -0.098355 0
M  V30 13656 C 1278.99 1.46137 0.712939 0
M  V30 13657 O 1280.17 1.75477 0.68847 0
M  V30 13658 C 1277.3 3.27413 0.867086 0
M  V30 13659 C 1276.35 4.26269 0.140235 0
M  V30 13660 S 1277.18 5.2258 -1.16921 0
M  V30 13661 C 1278.34 6.25557 -0.207221 0
M  V30 13662 H 1278.57 2.84447 -0.864693 0
M  V30 13663 H 1276.1 1.43833 -0.561376 0
M  V30 13664 H 1278.06 3.85205 1.41872 0
M  V30 13665 H 1276.72 2.69908 1.6065 0
M  V30 13666 H 1275.91 4.964 0.871977 0
M  V30 13667 H 1275.52 3.72449 -0.340294 0
M  V30 13668 H 1277.81 6.74642 0.621654 0
M  V30 13669 H 1278.75 7.02653 -0.876595 0
M  V30 13670 H 1279.16 5.64213 0.179968 0
M  V30 13671 N 1278.56 0.518393 1.4883 0
M  V30 13672 C 1279.49 -0.287642 2.27388 0
M  V30 13673 C 1280.5 -0.914974 1.34655 0
M  V30 13674 O 1281.69 -0.795373 1.598 0
M  V30 13675 C 1278.79 -1.42149 3.07647 0
M  V30 13676 C 1277.96 -0.898238 4.28078 0
M  V30 13677 C 1277.02 -1.91179 4.90242 0
M  V30 13678 O 1276.05 -1.47337 5.498 0
M  V30 13679 N 1277.25 -3.24331 4.81445 0
M  V30 13680 H 1280.02 0.386047 2.97203 0
M  V30 13681 H 1277.58 0.352002 1.58027 0
M  V30 13682 H 1279.57 -2.09745 3.46106 0
M  V30 13683 H 1278.14 -1.99903 2.40328 0
M  V30 13684 H 1277.36 -0.0466326 3.94172 0
M  V30 13685 H 1278.65 -0.527338 5.0606 0
M  V30 13686 H 1278.04 -3.62627 4.34187 0
M  V30 13687 H 1276.6 -3.87593 5.24037 0
M  V30 13688 N 1280.03 -1.55556 0.252993 0
M  V30 13689 C 1281.26 -2.03945 -0.376965 0
M  V30 13690 C 1281.68 -1.13089 -1.50308 0
M  V30 13691 O 1281.04 -0.125039 -1.80868 0
M  V30 13692 C 1281.09 -3.50284 -0.856363 0
M  V30 13693 O 1280.19 -3.62551 -1.96546 0
M  V30 13694 H 1279.54 -0.659002 -0.081317 0
M  V30 13695 H 1282.07 -2.01024 0.380831 0
M  V30 13696 H 1282.08 -3.91222 -1.15798 0
M  V30 13697 H 1280.75 -4.15887 -0.0323302 0
M  V30 13698 H 1279.33 -3.33511 -1.66808 0
M  V30 13699 N 1281.51 0.0200419 -1.57587 0
M  V30 13700 C 1282.46 1.01784 -2.07144 0
M  V30 13701 C 1283.43 1.3537 -0.962501 0
M  V30 13702 O 1284.61 1.45553 -1.23365 0
M  V30 13703 C 1281.75 2.31091 -2.56302 0
M  V30 13704 C 1280.87 2.03584 -3.81022 0
M  V30 13705 C 1280 3.26827 -4.18757 0
M  V30 13706 C 1279.04 2.94915 -5.36369 0
M  V30 13707 N 1278.18 4.10636 -5.69493 0
M  V30 13708 H 1283.02 0.588288 -2.92136 0
M  V30 13709 H 1280.56 0.278848 -1.44433 0
M  V30 13710 H 1282.51 3.06656 -2.82874 0
M  V30 13711 H 1281.14 2.71752 -1.74215 0
M  V30 13712 H 1280.2 1.18475 -3.6148 0
M  V30 13713 H 1281.51 1.76049 -4.66699 0
M  V30 13714 H 1280.66 4.10753 -4.46505 0
M  V30 13715 H 1279.4 3.57483 -3.31749 0
M  V30 13716 H 1278.41 2.09392 -5.08365 0
M  V30 13717 H 1279.63 2.65528 -6.25037 0
M  V30 13718 H 1277.58 4.41226 -4.85444 0
M  V30 13719 H 1277.49 3.86556 -6.497 0
M  V30 13720 H 1278.76 4.95409 -6.01822 0
M  V30 13721 N 1282.99 1.54862 0.292472 0
M  V30 13722 C 1283.92 1.89406 1.36556 0
M  V30 13723 C 1284.9 0.753838 1.52484 0
M  V30 13724 O 1286.09 1.01031 1.6585 0
M  V30 13725 C 1283.22 2.14888 2.72838 0
M  V30 13726 C 1282.17 3.3073 2.71665 0
M  V30 13727 C 1281.5 3.41648 4.11316 0
M  V30 13728 C 1282.8 4.67622 2.32651 0
M  V30 13729 H 1284.49 2.79284 1.07894 0
M  V30 13730 H 1282.04 1.34377 0.517585 0
M  V30 13731 H 1283.99 2.3764 3.48002 0
M  V30 13732 H 1282.71 1.2179 3.03042 0
M  V30 13733 H 1281.37 3.07915 1.98958 0
M  V30 13734 H 1281.02 2.46051 4.38711 0
M  V30 13735 H 1280.72 4.19522 4.11431 0
M  V30 13736 H 1282.24 3.6667 4.88248 0
M  V30 13737 H 1283.66 4.90048 2.97533 0
M  V30 13738 H 1282.06 5.48272 2.43963 0
M  V30 13739 H 1283.13 4.67762 1.27777 0
M  V30 13740 N 1284.47 -0.556076 1.47464 0
M  V30 13741 C 1285.72 -1.30955 1.53407 0
M  V30 13742 C 1286.03 -1.94559 0.201485 0
M  V30 13743 O 1287.24 -2.71144 0.138925 0
M  V30 13744 C 1285.69 -2.37476 2.70431 0
M  V30 13745 C 1285.3 -1.80057 4.10224 0
M  V30 13746 C 1287.04 -3.13997 2.85668 0
M  V30 13747 C 1284.95 -2.84365 5.18547 0
M  V30 13748 H 1283.88 -0.4924 0.571015 0
M  V30 13749 H 1286.53 -0.590459 1.73741 0
M  V30 13750 H 1284.91 -3.12304 2.43479 0
M  V30 13751 H 1286.09 -1.11593 4.47083 0
M  V30 13752 H 1284.4 -1.16116 3.99882 0
M  V30 13753 H 1287 -3.91892 3.63764 0
M  V30 13754 H 1287.34 -3.68253 1.94153 0
M  V30 13755 H 1287.88 -2.46281 3.12395 0
M  V30 13756 H 1284.62 -2.34963 6.11942 0
M  V30 13757 H 1284.14 -3.51235 4.86203 0
M  V30 13758 H 1285.81 -3.47836 5.45545 0
M  V30 13759 N 1285.95 -1.35615 -0.802897 0
M  V30 13760 C 1286.88 -1.24695 -1.92312 0
M  V30 13761 C 1287.89 -0.169409 -1.61916 0
M  V30 13762 O 1289.08 -0.422995 -1.73416 0
M  V30 13763 C 1286.18 -0.898229 -3.2678 0
M  V30 13764 C 1285.35 -2.07489 -3.85054 0
M  V30 13765 C 1284.41 -1.70137 -4.97936 0
M  V30 13766 O 1283.44 -2.42057 -5.15167 0
M  V30 13767 N 1284.64 -0.627153 -5.77102 0
M  V30 13768 H 1287.41 -2.21208 -2.02205 0
M  V30 13769 H 1284.97 -1.28832 -0.980503 0
M  V30 13770 H 1286.96 -0.629766 -3.9977 0
M  V30 13771 H 1285.53 -0.0226571 -3.12592 0
M  V30 13772 H 1284.75 -2.50694 -3.04214 0
M  V30 13773 H 1286.04 -2.86133 -4.2072 0
M  V30 13774 H 1285.44 -0.0296879 -5.65692 0
M  V30 13775 H 1283.99 -0.41848 -6.50455 0
M  V30 13776 N 1287.43 1.02549 -1.19673 0
M  V30 13777 C 1288.37 2.109 -0.937536 0
M  V30 13778 C 1289.34 1.65599 0.128923 0
M  V30 13779 O 1290.53 1.90795 -0.0139366 0
M  V30 13780 C 1287.67 3.4166 -0.48602 0
M  V30 13781 C 1286.78 4.0049 -1.61963 0
M  V30 13782 C 1285.92 5.19273 -1.11931 0
M  V30 13783 C 1284.95 5.70166 -2.22659 0
M  V30 13784 N 1284.09 6.80221 -1.73909 0
M  V30 13785 H 1288.93 2.32408 -1.86523 0
M  V30 13786 H 1286.47 1.13982 -0.929869 0
M  V30 13787 H 1288.43 4.16693 -0.205614 0
M  V30 13788 H 1287.06 3.20253 0.404678 0
M  V30 13789 H 1286.11 3.22638 -2.01516 0
M  V30 13790 H 1287.42 4.34273 -2.45374 0
M  V30 13791 H 1286.57 6.01478 -0.794336 0
M  V30 13792 H 1285.31 4.87033 -0.254972 0
M  V30 13793 H 1284.32 4.86572 -2.55983 0
M  V30 13794 H 1285.54 6.04444 -3.09554 0
M  V30 13795 H 1283.49 6.49826 -0.897889 0
M  V30 13796 H 1283.41 7.13149 -2.50907 0
M  V30 13797 H 1284.67 7.66011 -1.44386 0
M  V30 13798 N 1288.9 1.00119 1.21713 0
M  V30 13799 C 1290.15 0.680377 1.90303 0
M  V30 13800 C 1290.47 -0.790927 1.7824 0
M  V30 13801 O 1289.74 -1.5676 1.17486 0
M  V30 13802 H 1288.32 0.248665 0.704397 0
M  V30 13803 H 1290.98 1.26948 1.47886 0
M  V30 13804 H 1290.08 0.950188 2.97284 0
M  V30 13805 N 1290.38 -1.37203 0.775435 0
M  V30 13806 C 1291.33 -2.32102 0.152051 0
M  V30 13807 C 1292.32 -1.55117 -0.680806 0
M  V30 13808 O 1293.53 -1.70486 -0.577455 0
M  V30 13809 H 1289.9 -0.751386 0.0303853 0
M  V30 13810 H 1291.88 -2.82259 0.968121 0
M  V30 13811 C 1290.62 -3.40378 -0.709788 0
M  V30 13812 H 1289.95 -3.99723 -0.0782879 0
M  V30 13813 H 1291.39 -4.09134 -1.11288 0
M  V30 13814 C 1289.85 -2.80769 -1.862 0
M  V30 13815 O 1290.38 -2.71813 -2.95771 0
M  V30 13816 N 1288.58 -2.38259 -1.66376 0
M  V30 13817 H 1288.13 -2.45743 -0.772531 0
M  V30 13818 H 1288.09 -1.98721 -2.43634 0
M  V30 13819 N 1291.86 -0.526279 -1.48553 0
M  V30 13820 C 1293.14 0.073385 -1.95462 0
M  V30 13821 C 1293.52 1.51658 -1.46843 0
M  V30 13822 O 1292.86 2.17729 -0.693293 0
M  V30 13823 C 1293.07 -0.040041 -3.48977 0
M  V30 13824 C 1294.42 0.121108 -4.24427 0
M  V30 13825 O 1295.45 0.0339335 -3.56184 0
M  V30 13826 O 1294.31 0.303297 -5.45658 0
M  V30 13827 H 1291.4 0.0813498 -0.822989 0
M  V30 13828 H 1293.95 -0.590614 -1.59091 0
M  V30 13829 H 1292.72 -1.0455 -3.77074 0
M  V30 13830 H 1292.34 0.662975 -3.92034 0
M  V30 13831 N 1293.34 1.5542 -0.261239 0
M  V30 13832 C 1294.75 1.59327 0.0932655 0
M  V30 13833 C 1294.95 1.27846 1.55748 0
M  V30 13834 O 1294.01 1.03265 2.30418 0
M  V30 13835 C 1295.32 2.99496 -0.268856 0
M  V30 13836 C 1296.87 3.12265 -0.21433 0
M  V30 13837 C 1297.35 4.54677 -0.55069 0
M  V30 13838 N 1298.84 4.60475 -0.501723 0
M  V30 13839 C 1299.57 5.6867 -0.734961 0
M  V30 13840 N 1299.07 6.85069 -1.03209 0
M  V30 13841 N 1300.86 5.58156 -0.664696 0
M  V30 13842 H 1293.01 1.7415 -1.21595 0
M  V30 13843 H 1295.27 0.811382 -0.490268 0
M  V30 13844 H 1294.98 3.2732 -1.28664 0
M  V30 13845 H 1294.85 3.75104 0.397097 0
M  V30 13846 H 1297.24 2.84213 0.794148 0
M  V30 13847 H 1297.32 2.389 -0.914342 0
M  V30 13848 H 1296.97 4.83453 -1.55679 0
M  V30 13849 H 1296.9 5.26322 0.170959 0
M  V30 13850 H 1299.39 3.76851 -0.281387 0
M  V30 13851 H 1299.7 7.63472 -1.19709 0
M  V30 13852 H 1298.05 6.86718 -1.06971 0
M  V30 13853 H 1301.24 4.66098 -0.432513 0
M  V30 13854 H 1301.41 6.42403 -0.849857 0
M  V30 13855 N 1294.82 -0.0116844 1.57596 0
M  V30 13856 C 1296.23 -0.55604 1.78228 0
M  V30 13857 C 1296.58 -1.74624 0.894474 0
M  V30 13858 O 1295.7 -2.16196 0.0938498 0
M  V30 13859 C 1296.3 -1.0155 3.23223 0
M  V30 13860 C 1294.86 -1.50525 3.44992 0
M  V30 13861 C 1294 -0.451133 2.73606 0
M  V30 13862 H 1296.95 0.214516 1.57243 0
M  V30 13863 H 1296.98 -1.88208 3.30693 0
M  V30 13864 H 1296.49 -0.149048 3.87814 0
M  V30 13865 H 1294.59 -2.39298 2.856 0
M  V30 13866 H 1294.7 -1.54076 4.53649 0
M  V30 13867 H 1293.07 -0.910135 2.37884 0
M  V30 13868 H 1293.85 0.406152 3.40889 0
M  V30 13869 N 1296.29 -1.55015 -0.284256 0
M  V30 13870 C 1297.24 -1.87898 -1.37102 0
M  V30 13871 C 1298.24 -0.754231 -1.51683 0
M  V30 13872 O 1299.44 -0.93844 -1.53601 0
M  V30 13873 H 1295.82 -0.596208 -0.458301 0
M  V30 13874 H 1297.79 -2.78704 -1.06613 0
M  V30 13875 C 1296.54 -2.15764 -2.72656 0
M  V30 13876 H 1295.86 -3.01792 -2.62224 0
M  V30 13877 H 1297.3 -2.42701 -3.47667 0
M  V30 13878 C 1295.76 -0.961561 -3.22886 0
M  V30 13879 O 1296.29 -0.190489 -4.01248 0
M  V30 13880 N 1294.49 -0.762338 -2.80422 0
M  V30 13881 H 1294.04 -1.39104 -2.16813 0
M  V30 13882 H 1294 0.0363482 -3.14379 0
M  V30 13883 N 1297.77 0.548248 -1.47757 0
M  V30 13884 C 1299.02 1.30243 -1.54535 0
M  V30 13885 C 1299.34 1.93832 -0.213089 0
M  V30 13886 O 1298.61 1.80397 0.763782 0
M  V30 13887 H 1297.19 0.483684 -0.569262 0
M  V30 13888 H 1299.85 0.639485 -1.8411 0
M  V30 13889 H 1298.95 2.09128 -2.31672 0
M  V30 13890 N 1299.25 1.36039 0.795694 0
M  V30 13891 C 1300.16 1.31991 1.93948 0
M  V30 13892 C 1301.18 0.223064 1.72564 0
M  V30 13893 O 1302.35 0.454344 1.96208 0
M  V30 13894 C 1299.42 1.10228 3.28711 0
M  V30 13895 C 1298.48 2.29328 3.62914 0
M  V30 13896 C 1297.71 2.08595 4.91247 0
M  V30 13897 O 1297.93 1.05793 5.60503 0
M  V30 13898 O 1296.87 2.96222 5.23962 0
M  V30 13899 H 1300.69 2.28274 2.00311 0
M  V30 13900 H 1298.28 1.16521 0.935048 0
M  V30 13901 H 1300.16 0.999842 4.09367 0
M  V30 13902 H 1298.84 0.17003 3.23253 0
M  V30 13903 H 1297.74 2.4514 2.8259 0
M  V30 13904 H 1299.08 3.21038 3.73089 0
M  V30 13905 N 1300.73 -1.01913 1.20215 0
M  V30 13906 C 1301.97 -1.7573 1.01226 0
M  V30 13907 C 1302.31 -1.88799 -0.45481 0
M  V30 13908 O 1301.58 -1.41196 -1.33768 0
M  V30 13909 C 1301.87 -3.17795 1.69348 0
M  V30 13910 C 1301.72 -3.12536 3.23483 0
M  V30 13911 C 1303.04 -4.16409 1.42448 0
M  V30 13912 H 1300.16 -0.637889 0.369144 0
M  V30 13913 H 1302.8 -1.18907 1.48193 0
M  V30 13914 H 1300.95 -3.66311 1.29416 0
M  V30 13915 H 1302.62 -2.71843 3.72692 0
M  V30 13916 H 1300.86 -2.49997 3.54519 0
M  V30 13917 H 1301.53 -4.12949 3.66302 0
M  V30 13918 H 1304.01 -3.76537 1.77086 0
M  V30 13919 H 1302.89 -5.13983 1.92648 0
M  V30 13920 H 1303.15 -4.407 0.351574 0
M  V30 13921 N 1302.21 -1.00763 -1.2118 0
M  V30 13922 C 1303.15 -0.570257 -2.23644 0
M  V30 13923 C 1304.12 0.405039 -1.61086 0
M  V30 13924 O 1305.31 0.306496 -1.88322 0
M  V30 13925 C 1302.45 0.094325 -3.44971 0
M  V30 13926 C 1301.56 -0.924463 -4.21993 0
M  V30 13927 C 1300.7 -0.231869 -5.30694 0
M  V30 13928 C 1299.74 -1.23803 -5.99449 0
M  V30 13929 N 1298.87 -0.572725 -6.9976 0
M  V30 13930 H 1303.71 -1.44869 -2.60417 0
M  V30 13931 H 1301.25 -0.725369 -1.27972 0
M  V30 13932 H 1303.21 0.496689 -4.14233 0
M  V30 13933 H 1301.84 0.936457 -3.08918 0
M  V30 13934 H 1300.89 -1.44505 -3.51884 0
M  V30 13935 H 1302.2 -1.69004 -4.69296 0
M  V30 13936 H 1301.36 0.226465 -6.06277 0
M  V30 13937 H 1300.09 0.566092 -4.84403 0
M  V30 13938 H 1299.1 -1.70684 -5.22635 0
M  V30 13939 H 1300.32 -2.03711 -6.47826 0
M  V30 13940 H 1298.27 0.205531 -6.55678 0
M  V30 13941 H 1298.19 -1.27651 -7.45145 0
M  V30 13942 H 1299.46 -0.137683 -7.79378 0
M  V30 13943 N 1303.68 1.3679 -0.7827 0
M  V30 13944 C 1304.91 2.04206 -0.362571 0
M  V30 13945 C 1305.33 1.58637 1.01074 0
M  V30 13946 O 1304.69 0.751692 1.64983 0
M  V30 13947 C 1304.74 3.58062 -0.4271 0
M  V30 13948 O 1303.84 4.08463 0.56845 0
M  V30 13949 H 1303.19 0.645638 -0.155073 0
M  V30 13950 H 1305.72 1.74883 -1.06194 0
M  V30 13951 H 1305.73 4.0698 -0.288298 0
M  V30 13952 H 1304.4 3.90582 -1.42893 0
M  V30 13953 H 1302.98 3.70835 0.391863 0
M  V30 13954 N 1305.16 0.53415 1.48272 0
M  V30 13955 C 1306.07 -0.230062 2.33469 0
M  V30 13956 C 1307.09 -0.934889 1.46751 0
M  V30 13957 O 1308.26 -0.908921 1.79724 0
M  V30 13958 C 1305.33 -1.2609 3.22958 0
M  V30 13959 C 1304.39 -0.565983 4.25553 0
M  V30 13960 C 1303.62 -1.54771 5.10766 0
M  V30 13961 O 1303.85 -2.7807 4.9803 0
M  V30 13962 O 1302.78 -1.08482 5.92043 0
M  V30 13963 H 1306.61 0.468182 3.0007 0
M  V30 13964 H 1304.19 0.29502 1.46458 0
M  V30 13965 H 1306.07 -1.85652 3.783 0
M  V30 13966 H 1304.75 -1.94148 2.59014 0
M  V30 13967 H 1303.66 0.0702391 3.74034 0
M  V30 13968 H 1304.99 0.0727277 4.92146 0
M  V30 13969 N 1306.64 -1.55279 0.269478 0
M  V30 13970 C 1307.57 -2.25278 -0.614188 0
M  V30 13971 C 1308.55 -1.24092 -1.1634 0
M  V30 13972 O 1309.74 -1.52799 -1.19858 0
M  V30 13973 C 1306.87 -2.96956 -1.80096 0
M  V30 13974 C 1305.82 -4.05021 -1.38353 0
M  V30 13975 C 1305.15 -4.64244 -2.65295 0
M  V30 13976 C 1306.45 -5.19523 -0.537886 0
M  V30 13977 H 1308.14 -2.99385 -0.0304397 0
M  V30 13978 H 1305.69 -1.43994 -0.0132004 0
M  V30 13979 H 1307.64 -3.44633 -2.42499 0
M  V30 13980 H 1306.36 -2.20374 -2.41045 0
M  V30 13981 H 1305.02 -3.58146 -0.78273 0
M  V30 13982 H 1304.67 -3.84337 -3.2449 0
M  V30 13983 H 1304.37 -5.37208 -2.38079 0
M  V30 13984 H 1305.89 -5.14668 -3.28557 0
M  V30 13985 H 1307.31 -5.63287 -1.06677 0
M  V30 13986 H 1305.71 -5.99014 -0.360845 0
M  V30 13987 H 1306.78 -4.82857 0.444672 0
M  V30 13988 N 1308.12 0.00332656 -1.576 0
M  V30 13989 C 1309.36 0.69341 -1.92279 0
M  V30 13990 C 1309.72 1.71121 -0.870715 0
M  V30 13991 O 1310.92 2.45143 -1.10265 0
M  V30 13992 C 1309.19 1.32272 -3.32022 0
M  V30 13993 S 1310.75 2.03838 -3.88581 0
M  V30 13994 H 1307.57 0.229123 -0.67307 0
M  V30 13995 H 1310.17 -0.0525621 -1.95429 0
M  V30 13996 H 1308.88 0.569071 -4.06435 0
M  V30 13997 H 1308.41 2.10669 -3.32238 0
M  V30 13998 H 1310.42 3.31311 -3.69388 0
M  V30 13999 N 1309.6 1.55164 0.276031 0
M  V30 14000 C 1310.51 1.90928 1.36321 0
M  V30 14001 C 1311.52 0.806183 1.54197 0
M  V30 14002 O 1312.7 1.10497 1.68382 0
M  V30 14003 C 1309.76 2.17123 2.70293 0
M  V30 14004 C 1308.82 3.40703 2.6119 0
M  V30 14005 C 1308.06 3.65638 3.88773 0
M  V30 14006 O 1308.28 2.93137 4.89313 0
M  V30 14007 O 1307.21 4.59172 3.89159 0
M  V30 14008 H 1311.04 2.8347 1.08988 0
M  V30 14009 H 1308.63 1.41672 0.474292 0
M  V30 14010 H 1310.51 2.3541 3.49514 0
M  V30 14011 H 1309.18 1.27765 2.97419 0
M  V30 14012 H 1308.09 3.27754 1.80355 0
M  V30 14013 H 1309.42 4.30271 2.39014 0
M  V30 14014 N 1311.07 -0.540404 1.48045 0
M  V30 14015 C 1312.3 -1.32656 1.59427 0
M  V30 14016 C 1312.72 -1.86419 0.250924 0
M  V30 14017 O 1312.08 -1.63861 -0.775838 0
M  V30 14018 C 1312.13 -2.46062 2.63602 0
M  V30 14019 O 1311.23 -3.48794 2.20038 0
M  V30 14020 H 1310.58 -0.393334 0.534962 0
M  V30 14021 H 1313.11 -0.651363 1.93955 0
M  V30 14022 H 1313.12 -2.92396 2.84549 0
M  V30 14023 H 1311.79 -2.06291 3.61133 0
M  V30 14024 H 1310.37 -3.0865 2.0926 0
M  V30 14025 N 1312.55 -1.36459 -0.788468 0
M  V30 14026 C 1313.48 -1.33545 -1.91541 0
M  V30 14027 C 1314.46 -0.206762 -1.68839 0
M  V30 14028 O 1315.65 -0.404553 -1.89939 0
M  V30 14029 C 1312.78 -1.12492 -3.28577 0
M  V30 14030 C 1311.73 -2.22196 -3.65805 0
M  V30 14031 C 1311.06 -1.86285 -5.01201 0
M  V30 14032 C 1312.36 -3.64286 -3.7429 0
M  V30 14033 H 1314.05 -2.27844 -1.94236 0
M  V30 14034 H 1311.6 -1.09677 -0.933105 0
M  V30 14035 H 1313.55 -1.09089 -4.07035 0
M  V30 14036 H 1312.28 -0.146446 -3.26272 0
M  V30 14037 H 1310.93 -2.24727 -2.89644 0
M  V30 14038 H 1310.58 -0.87009 -4.95417 0
M  V30 14039 H 1310.28 -2.59734 -5.27079 0
M  V30 14040 H 1311.81 -1.84439 -5.82078 0
M  V30 14041 H 1313.22 -3.63977 -4.42937 0
M  V30 14042 H 1311.62 -4.36648 -4.11653 0
M  V30 14043 H 1312.69 -3.99123 -2.75371 0
M  V30 14044 N 1314.03 1.01274 -1.20754 0
M  V30 14045 C 1314.94 2.1335 -0.975656 0
M  V30 14046 C 1315.96 1.7386 0.0697364 0
M  V30 14047 O 1317.13 2.01051 -0.118578 0
M  V30 14048 C 1314.2 3.42548 -0.534931 0
M  V30 14049 C 1313.26 3.96257 -1.65163 0
M  V30 14050 C 1312.49 5.19289 -1.23184 0
M  V30 14051 O 1312.71 5.70309 -0.102158 0
M  V30 14052 O 1311.65 5.66248 -2.04076 0
M  V30 14053 H 1315.47 2.35783 -1.91415 0
M  V30 14054 H 1313.06 1.11736 -0.991743 0
M  V30 14055 H 1314.94 4.20341 -0.298568 0
M  V30 14056 H 1313.62 3.21521 0.374937 0
M  V30 14057 H 1312.52 3.19726 -1.94232 0
M  V30 14058 H 1313.86 4.2168 -2.53864 0
M  V30 14059 N 1315.51 1.01404 1.20644 0
M  V30 14060 C 1316.74 0.72104 1.93929 0
M  V30 14061 C 1317.15 -0.717853 1.7462 0
M  V30 14062 O 1316.51 -1.48664 1.05855 0
M  V30 14063 C 1316.56 1.04399 3.46097 0
M  V30 14064 O 1316.28 2.42637 3.64773 0
M  V30 14065 C 1317.78 0.771678 4.36532 0
M  V30 14066 H 1315 0.264983 0.616462 0
M  V30 14067 H 1317.55 1.35453 1.53208 0
M  V30 14068 H 1315.7 0.455946 3.84708 0
M  V30 14069 H 1316.12 2.54201 4.58783 0
M  V30 14070 H 1317.59 1.04774 5.41965 0
M  V30 14071 H 1318.07 -0.294188 4.38214 0
M  V30 14072 H 1318.67 1.34176 4.0358 0
M  V30 14073 N 1316.99 -1.36373 0.789944 0
M  V30 14074 C 1317.94 -2.31928 0.17666 0
M  V30 14075 C 1318.93 -1.55831 -0.664316 0
M  V30 14076 O 1320.14 -1.71089 -0.559341 0
M  V30 14077 H 1316.51 -0.751021 0.038353 0
M  V30 14078 H 1318.48 -2.81216 0.998004 0
M  V30 14079 C 1317.23 -3.41112 -0.673646 0
M  V30 14080 H 1316.55 -3.99784 -0.0358875 0
M  V30 14081 H 1317.99 -4.10292 -1.06942 0
M  V30 14082 C 1316.45 -2.82728 -1.83211 0
M  V30 14083 O 1316.98 -2.74935 -2.92871 0
M  V30 14084 N 1315.19 -2.4001 -1.6384 0
M  V30 14085 H 1314.74 -2.46549 -0.746423 0
M  V30 14086 H 1314.69 -2.01294 -2.41512 0
M  V30 14087 N 1318.47 -0.542005 -1.47987 0
M  V30 14088 C 1319.69 -0.016717 -2.06893 0
M  V30 14089 C 1320.11 1.27015 -1.39687 0
M  V30 14090 O 1319.47 1.75845 -0.488326 0
M  V30 14091 C 1319.52 0.198437 -3.60955 0
M  V30 14092 O 1319.24 -1.03746 -4.25639 0
M  V30 14093 C 1320.74 0.762741 -4.36689 0
M  V30 14094 H 1317.96 -0.0389497 -0.669869 0
M  V30 14095 H 1320.5 -0.751082 -1.90208 0
M  V30 14096 H 1318.66 0.882884 -3.77205 0
M  V30 14097 H 1319.07 -0.82568 -5.1796 0
M  V30 14098 H 1320.55 0.862649 -5.45218 0
M  V30 14099 H 1321.02 1.77049 -4.01933 0
M  V30 14100 H 1321.63 0.114478 -4.25146 0
M  V30 14101 N 1319.94 1.55134 -0.277709 0
M  V30 14102 C 1321.17 2.04519 0.344472 0
M  V30 14103 C 1321.59 1.15466 1.4849 0
M  V30 14104 O 1320.95 0.153798 1.80646 0
M  V30 14105 C 1321 3.51602 0.800527 0
M  V30 14106 O 1320.1 3.65632 1.90754 0
M  V30 14107 H 1319.44 0.660212 0.0708226 0
M  V30 14108 H 1321.97 2.00393 -0.412764 0
M  V30 14109 H 1321.98 3.93015 1.09559 0
M  V30 14110 H 1320.66 4.15886 -0.033838 0
M  V30 14111 H 1319.24 3.36122 1.61481 0
M  V30 14112 N 1321.42 0.00503138 1.57599 0
M  V30 14113 C 1322.65 -0.693231 1.95471 0
M  V30 14114 C 1323.07 -1.66233 0.880246 0
M  V30 14115 O 1322.43 -1.80582 -0.161164 0
M  V30 14116 C 1322.48 -1.39696 3.32442 0
M  V30 14117 O 1321.58 -2.51154 3.27101 0
M  V30 14118 H 1320.92 -0.184015 0.637992 0
M  V30 14119 H 1323.45 0.0597194 2.04513 0
M  V30 14120 H 1323.46 -1.75924 3.68123 0
M  V30 14121 H 1322.14 -0.686438 4.10196 0
M  V30 14122 H 1320.71 -2.17216 3.03103 0
M  V30 14123 N 1322.9 -1.55308 -0.267798 0
M  V30 14124 C 1324.13 -1.80191 -1.01681 0
M  V30 14125 C 1324.54 -0.57783 -1.7974 0
M  V30 14126 O 1323.9 0.4532 -1.76783 0
M  V30 14127 C 1323.95 -3.03023 -1.97127 0
M  V30 14128 O 1323.67 -4.20704 -1.22229 0
M  V30 14129 C 1325.17 -3.40549 -2.83798 0
M  V30 14130 H 1322.39 -0.60013 -0.300142 0
M  V30 14131 H 1324.94 -2.02332 -0.297007 0
M  V30 14132 H 1323.09 -2.82993 -2.64563 0
M  V30 14133 H 1323.51 -4.90181 -1.86608 0
M  V30 14134 H 1324.98 -4.29653 -3.46557 0
M  V30 14135 H 1325.46 -2.60186 -3.53836 0
M  V30 14136 H 1326.06 -3.62856 -2.21846 0
M  V30 14137 N 1324.38 0.532545 -1.4833 0
M  V30 14138 C 1325.32 1.63737 -1.62661 0
M  V30 14139 C 1326.29 1.59348 -0.468758 0
M  V30 14140 O 1327.48 1.77812 -0.691921 0
M  V30 14141 C 1324.62 3.02006 -1.66993 0
M  V30 14142 C 1323.73 3.16648 -2.93867 0
M  V30 14143 C 1322.87 4.4546 -2.89376 0
M  V30 14144 C 1321.91 4.53622 -4.10966 0
M  V30 14145 N 1321.04 5.7382 -4.04567 0
M  V30 14146 H 1325.88 1.50828 -2.57012 0
M  V30 14147 H 1323.42 0.734348 -1.27459 0
M  V30 14148 H 1325.38 3.82105 -1.67486 0
M  V30 14149 H 1324.01 3.13693 -0.76135 0
M  V30 14150 H 1323.06 2.29817 -3.0313 0
M  V30 14151 H 1324.37 3.1854 -3.8384 0
M  V30 14152 H 1323.53 5.33848 -2.88256 0
M  V30 14153 H 1322.27 4.46085 -1.97127 0
M  V30 14154 H 1321.27 3.63642 -4.12364 0
M  V30 14155 H 1322.5 4.54738 -5.04371 0
M  V30 14156 H 1320.44 5.75347 -3.15137 0
M  V30 14157 H 1320.36 5.77196 -4.88243 0
M  V30 14158 H 1321.63 6.64502 -4.07502 0
M  V30 14159 N 1325.86 1.36875 0.78122 0
M  V30 14160 C 1327.08 1.34732 1.57019 0
M  V30 14161 C 1327.5 -0.0695423 1.88672 0
M  V30 14162 O 1326.86 -1.02873 1.50743 0
M  V30 14163 C 1326.91 2.17668 2.88623 0
M  V30 14164 O 1326.63 3.53832 2.5833 0
M  V30 14165 C 1328.13 2.23398 3.82895 0
M  V30 14166 H 1325.35 0.461857 0.486754 0
M  V30 14167 H 1327.89 1.80086 0.968989 0
M  V30 14168 H 1326.05 1.75848 3.4519 0
M  V30 14169 H 1326.46 3.972 3.42538 0
M  V30 14170 H 1327.94 2.85769 4.72271 0
M  V30 14171 H 1328.41 1.23972 4.2134 0
M  V30 14172 H 1329.02 2.65489 3.32258 0
M  V30 14173 N 1327.33 -1.00632 1.21289 0
M  V30 14174 C 1328.56 -1.77967 1.05524 0
M  V30 14175 C 1328.98 -1.84621 -0.395023 0
M  V30 14176 O 1328.33 -1.30664 -1.27409 0
M  V30 14177 C 1328.38 -3.21939 1.64432 0
M  V30 14178 O 1328.11 -3.15669 3.03784 0
M  V30 14179 C 1329.61 -4.1578 1.5376 0
M  V30 14180 H 1326.83 -0.559341 0.370646 0
M  V30 14181 H 1329.37 -1.26604 1.60598 0
M  V30 14182 H 1327.53 -3.70415 1.13453 0
M  V30 14183 H 1327.94 -4.06112 3.31924 0
M  V30 14184 H 1329.41 -5.14602 1.99722 0
M  V30 14185 H 1329.89 -4.36438 0.491811 0
M  V30 14186 H 1330.5 -3.73192 2.0398 0
M  V30 14187 N 1328.81 -1.02043 -1.20104 0
M  V30 14188 C 1330.04 -0.730255 -1.93264 0
M  V30 14189 C 1330.45 0.71359 -1.75227 0
M  V30 14190 O 1329.79 1.49609 -1.06597 0
M  V30 14191 C 1329.85 -0.990978 -3.45572 0
M  V30 14192 C 1329.52 -2.4247 -3.87373 0
M  V30 14193 C 1330.52 -3.40569 -3.92822 0
M  V30 14194 C 1328.2 -2.76645 -4.19253 0
M  V30 14195 C 1330.19 -4.70904 -4.29568 0
M  V30 14196 C 1327.88 -4.07192 -4.55673 0
M  V30 14197 C 1328.88 -5.04132 -4.60804 0
M  V30 14198 O 1328.57 -6.32341 -4.96386 0
M  V30 14199 H 1328.3 -0.267146 -0.620974 0
M  V30 14200 H 1330.85 -1.36557 -1.53432 0
M  V30 14201 H 1329.08 -0.298508 -3.85546 0
M  V30 14202 H 1330.77 -0.691793 -3.99961 0
M  V30 14203 H 1331.54 -3.15503 -3.68352 0
M  V30 14204 H 1327.42 -2.01876 -4.14448 0
M  V30 14205 H 1330.96 -5.46566 -4.33487 0
M  V30 14206 H 1326.86 -4.32035 -4.796 0
M  V30 14207 H 1327.63 -6.36687 -5.14365 0
M  V30 14208 N 1330.29 1.35952 -0.797165 0
M  V30 14209 C 1331.54 1.98283 -0.369685 0
M  V30 14210 C 1331.85 1.63968 1.06649 0
M  V30 14211 O 1333.06 2.19591 1.59662 0
M  V30 14212 C 1331.51 3.54692 -0.610046 0
M  V30 14213 C 1331.12 3.97925 -2.05814 0
M  V30 14214 C 1332.87 4.23778 -0.247457 0
M  V30 14215 C 1330.77 5.47142 -2.24475 0
M  V30 14216 H 1329.7 0.741909 -0.134489 0
M  V30 14217 H 1332.35 1.55146 -0.979893 0
M  V30 14218 H 1330.74 3.95938 0.0699822 0
M  V30 14219 H 1331.91 3.67857 -2.77521 0
M  V30 14220 H 1330.23 3.417 -2.37971 0
M  V30 14221 H 1332.82 5.33452 -0.365059 0
M  V30 14222 H 1333.17 4.08436 0.805315 0
M  V30 14223 H 1333.7 3.87921 -0.881028 0
M  V30 14224 H 1330.44 5.67441 -3.28163 0
M  V30 14225 H 1329.96 5.78811 -1.57282 0
M  V30 14226 H 1331.64 6.13475 -2.05567 0
M  V30 14227 N 1331.77 0.549846 1.47697 0
M  V30 14228 C 1332.99 0.0256819 2.07384 0
M  V30 14229 C 1333.42 -1.25525 1.4009 0
M  V30 14230 O 1332.78 -1.7501 0.473406 0
M  V30 14231 C 1332.82 -0.160835 3.60241 0
M  V30 14232 O 1331.93 -1.22509 3.93783 0
M  V30 14233 H 1331.27 0.0480204 0.662261 0
M  V30 14234 H 1333.8 0.763429 1.89823 0
M  V30 14235 H 1333.81 -0.377337 4.06251 0
M  V30 14236 H 1332.48 0.774774 4.0862 0
M  V30 14237 H 1331.06 -0.98967 3.59527 0
M  V30 14238 N 1333.25 -1.54984 0.285932 0
M  V30 14239 C 1334.48 -2.03943 -0.330295 0
M  V30 14240 C 1334.88 -1.16336 -1.49207 0
M  V30 14241 O 1334.23 -0.178341 -1.82832 0
M  V30 14242 C 1334.29 -3.48976 -0.863479 0
M  V30 14243 C 1333.95 -4.5668 0.171058 0
M  V30 14244 C 1334.95 -5.10303 0.994329 0
M  V30 14245 C 1332.64 -5.01352 0.308416 0
M  V30 14246 C 1334.63 -6.07126 1.94104 0
M  V30 14247 C 1332.32 -5.97999 1.25859 0
M  V30 14248 C 1333.31 -6.50768 2.0734 0
M  V30 14249 O 1333 -7.45524 3.00749 0
M  V30 14250 H 1332.73 -0.671491 -0.0779452 0
M  V30 14251 H 1335.29 -2.01081 0.419011 0
M  V30 14252 H 1333.52 -3.49113 -1.66305 0
M  V30 14253 H 1335.21 -3.81213 -1.39396 0
M  V30 14254 H 1335.97 -4.76595 0.899002 0
M  V30 14255 H 1331.85 -4.59917 -0.315817 0
M  V30 14256 H 1335.4 -6.48239 2.57743 0
M  V30 14257 H 1331.29 -6.31125 1.35469 0
M  V30 14258 H 1332.06 -7.63276 2.95554 0
M  V30 14259 N 1334.72 -0.0133892 -1.57594 0
M  V30 14260 C 1335.95 0.682855 -1.95836 0
M  V30 14261 C 1336.37 1.65763 -0.889049 0
M  V30 14262 O 1335.73 1.80665 0.151585 0
M  V30 14263 C 1335.78 1.37931 -3.33178 0
M  V30 14264 O 1334.88 2.49416 -3.28429 0
M  V30 14265 H 1334.23 0.180629 -0.638959 0
M  V30 14266 H 1336.76 -0.0705644 -2.04478 0
M  V30 14267 H 1336.77 1.73969 -3.69051 0
M  V30 14268 H 1335.44 0.664675 -4.10554 0
M  V30 14269 H 1334.02 2.15606 -3.04251 0
M  V30 14270 N 1336.2 1.55448 0.259558 0
M  V30 14271 C 1337.15 1.90056 1.34096 0
M  V30 14272 C 1338.14 0.778267 1.50464 0
M  V30 14273 O 1339.35 0.962758 1.52089 0
M  V30 14274 H 1335.73 0.603424 0.448758 0
M  V30 14275 H 1337.7 2.80365 1.02166 0
M  V30 14276 C 1336.45 2.20074 2.69189 0
M  V30 14277 H 1335.77 3.05926 2.57389 0
M  V30 14278 H 1337.21 2.48201 3.43762 0
M  V30 14279 C 1335.67 1.01281 3.21316 0
M  V30 14280 O 1336.2 0.2543 4.00894 0
M  V30 14281 N 1334.4 0.806855 2.79174 0
M  V30 14282 H 1333.95 1.42536 2.14572 0
M  V30 14283 H 1333.91 0.0136714 3.14397 0
M  V30 14284 N 1337.68 -0.524672 1.4861 0
M  V30 14285 C 1338.63 -1.62504 1.59927 0
M  V30 14286 C 1339.61 -1.543 0.456094 0
M  V30 14287 O 1340.81 -1.62231 0.707818 0
M  V30 14288 C 1337.94 -3.01207 1.64709 0
M  V30 14289 C 1337.02 -3.14495 2.84523 0
M  V30 14290 N 1337.41 -2.97741 4.08882 0
M  V30 14291 C 1335.71 -3.45559 2.81967 0
M  V30 14292 C 1336.41 -3.14585 4.89297 0
M  V30 14293 N 1335.39 -3.424 4.22212 0
M  V30 14294 H 1339.19 -1.48168 2.53818 0
M  V30 14295 H 1336.7 -0.730258 1.45055 0
M  V30 14296 H 1338.7 -3.80257 1.7091 0
M  V30 14297 H 1337.36 -3.16631 0.719376 0
M  V30 14298 H 1338.37 -2.74395 4.39235 0
M  V30 14299 H 1335.05 -3.67307 1.98474 0
M  V30 14300 H 1336.44 -3.06324 5.98009 0
M  V30 14301 N 1339.16 -1.37287 -0.77395 0
M  V30 14302 C 1340.38 -1.35734 -1.56815 0
M  V30 14303 C 1340.81 0.0555546 -1.88018 0
M  V30 14304 O 1340.17 1.03197 -1.49064 0
M  V30 14305 C 1340.21 -2.2008 -2.85652 0
M  V30 14306 O 1339.32 -1.60391 -3.79932 0
M  V30 14307 H 1338.66 -0.463881 -0.47509 0
M  V30 14308 H 1341.19 -1.80781 -0.958087 0
M  V30 14309 H 1341.2 -2.33215 -3.34776 0
M  V30 14310 H 1339.87 -3.22781 -2.6227 0
M  V30 14311 H 1338.45 -1.56285 -3.3857 0
M  V30 14312 N 1340.64 0.999871 -1.21821 0
M  V30 14313 C 1341.89 1.73257 -1.03271 0
M  V30 14314 C 1342.2 1.90736 0.433502 0
M  V30 14315 O 1343.4 2.61263 0.738511 0
M  V30 14316 C 1341.86 3.11697 -1.79925 0
M  V30 14317 C 1341.47 3.02173 -3.3075 0
M  V30 14318 C 1343.21 3.89061 -1.698 0
M  V30 14319 C 1341.12 4.35725 -3.99872 0
M  V30 14320 H 1340.05 0.649595 -0.382809 0
M  V30 14321 H 1342.7 1.11676 -1.45605 0
M  V30 14322 H 1341.08 3.73919 -1.30386 0
M  V30 14323 H 1342.26 2.49158 -3.8763 0
M  V30 14324 H 1340.57 2.38296 -3.41473 0
M  V30 14325 H 1343.17 4.87897 -2.1877 0
M  V30 14326 H 1343.51 4.11081 -0.657148 0
M  V30 14327 H 1344.04 3.33502 -2.16844 0
M  V30 14328 H 1340.78 4.18906 -5.04181 0
M  V30 14329 H 1340.3 4.8868 -3.47781 0
M  V30 14330 H 1341.98 5.04503 -4.05075 0
M  V30 14331 O 1342.15 1.15324 1.1306 0
M  V30 14332 H 1342.84 0.879509 1.72581 0
M  V30 END ATOM
M  V30 BEGIN BOND
M  V30 END BOND
M  V30 END CTAB
M  END
$$$$
