drugbank_target|Q8TCT1 Phosphoethanolamine/phosphocholine phosphatase (DB00122)
 OpenBabel12092120073D

  0  0  0     0  0            999 V3000
M  V30 BEGIN CTAB
M  V30 COUNTS 4130 4180 0 0 0
M  V30 BEGIN ATOM
M  V30 1 H -0.908 1.98254 -0.117106 0
M  V30 2 N 0 1.576 0 0
M  V30 3 C 0.933 2.03868 1.02534 0
M  V30 4 C 1.911 0.928543 1.3348 0
M  V30 5 O 3.095 1.19667 1.45644 0
M  V30 6 C 0.222 2.43627 2.35294 0
M  V30 7 C -0.732 3.65373 2.2001 0
M  V30 8 S 0.101 5.13292 1.52614 0
M  V30 9 C 1.257 5.56322 2.86805 0
M  V30 10 H 1.49 2.90518 0.631377 0
M  V30 11 H -0.977 1.52953 0.210867 0
M  V30 12 H 0.981 2.67203 3.11629 0
M  V30 13 H -0.358 1.57376 2.7183 0
M  V30 14 H -1.165 3.90944 3.18086 0
M  V30 15 H -1.563 3.418 1.51819 0
M  V30 16 H 0.729 5.58782 3.83104 0
M  V30 17 H 1.672 6.56266 2.65933 0
M  V30 18 H 2.08 4.83886 2.90714 0
M  V30 19 N 1.4781 -0.272755 1.55222 0
M  V30 20 C 2.7031 -1.02683 1.80197 0
M  V30 21 C 3.1281 -1.79142 0.573551 0
M  V30 22 O 2.4861 -1.74917 -0.476849 0
M  V30 23 C 2.5341 -1.9609 3.02624 0
M  V30 24 O 1.6381 -3.04863 2.77727 0
M  V30 25 H 0.9791 -0.293557 0.595584 0
M  V30 26 H 3.5091 -0.30159 2.02365 0
M  V30 27 H 3.5191 -2.38039 3.31363 0
M  V30 28 H 2.1941 -1.39851 3.91682 0
M  V30 29 H 0.7711 -2.67228 2.60084 0
M  V30 30 N 2.9562 -1.48159 -0.537278 0
M  V30 31 C 4.2042 -1.55497 -1.29094 0
M  V30 32 C 4.5252 -0.227454 -1.93669 0
M  V30 33 O 3.7952 0.750386 -1.80959 0
M  V30 34 H 2.3752 -0.572832 -0.47945 0
M  V30 35 H 5.0372 -1.84579 -0.625818 0
M  V30 36 H 4.1332 -2.33216 -2.07405 0
M  V30 37 N 4.4343 0.785586 -1.36625 0
M  V30 38 C 5.6743 1.55678 -1.32453 0
M  V30 39 C 6.0383 1.91769 0.0941089 0
M  V30 40 O 7.2393 2.67536 0.26042 0
M  V30 41 C 5.5103 2.79701 -2.22491 0
M  V30 42 S 7.0693 3.69907 -2.36038 0
M  V30 43 H 3.8873 0.533141 -0.470405 0
M  V30 44 H 6.4893 0.924953 -1.72235 0
M  V30 45 H 5.1933 2.51244 -3.24507 0
M  V30 46 H 4.7243 3.47854 -1.83742 0
M  V30 47 H 6.7393 4.71016 -1.56072 0
M  V30 48 N 5.9124 1.20967 1.01018 0
M  V30 49 C 7.1594 1.02374 1.74716 0
M  V30 50 C 7.4874 -0.443375 1.89379 0
M  V30 51 O 6.7424 -1.34535 1.42123 0
M  V30 52 C 7.0414 1.65997 3.16512 0
M  V30 53 C 6.7074 3.15831 3.2181 0
M  V30 54 C 5.3694 3.56719 3.22963 0
M  V30 55 C 7.7214 4.11816 3.19464 0
M  V30 56 C 5.0494 4.92107 3.19449 0
M  V30 57 C 7.4014 5.47158 3.17491 0
M  V30 58 C 6.0654 5.87451 3.16951 0
M  V30 59 H 5.3354 0.374614 0.639332 0
M  V30 60 H 7.9824 1.50485 1.18434 0
M  V30 61 H 6.2874 1.10166 3.75993 0
M  V30 62 H 7.9844 1.49119 3.72242 0
M  V30 63 H 4.5744 2.83263 3.21652 0
M  V30 64 H 8.7584 3.81257 3.17737 0
M  V30 65 H 4.0144 5.22579 3.17366 0
M  V30 66 H 8.1884 6.21274 3.14629 0
M  V30 67 H 5.8154 6.92329 3.13983 0
M  V30 68 N 7.3905 -1.2043 1.01659 0
M  V30 69 C 8.8015 -1.71517 0.737482 0
M  V30 70 C 9.1525 -1.81547 -0.743973 0
M  V30 71 O 8.2775 -1.47803 -1.58061 0
M  V30 72 C 8.8725 -3.11515 1.33206 0
M  V30 73 C 7.4315 -3.59912 1.10183 0
M  V30 74 C 6.5785 -2.37116 1.43776 0
M  V30 75 H 9.5295 -1.05444 1.18606 0
M  V30 76 H 9.5505 -3.73575 0.722636 0
M  V30 77 H 9.0625 -3.04182 2.41028 0
M  V30 78 H 7.1635 -3.72577 0.0412756 0
M  V30 79 H 7.2765 -4.44731 1.78188 0
M  V30 80 H 5.6405 -2.39857 0.856778 0
M  V30 81 H 6.4235 -2.32424 2.52654 0
M  V30 82 N 8.8686 -0.792821 -1.36206 0
M  V30 83 C 10.1146 -0.36733 -1.99446 0
M  V30 84 C 10.4476 1.05917 -1.62774 0
M  V30 85 O 9.7226 1.7324 -0.88421 0
M  V30 86 C 10.0056 -0.535044 -3.56103 0
M  V30 87 C 9.8586 -2.00548 -4.02617 0
M  V30 88 C 11.1776 0.0478191 -4.40074 0
M  V30 89 H 8.2966 -0.134941 -0.724541 0
M  V30 90 H 10.9386 -0.999794 -1.61568 0
M  V30 91 H 9.0886 0.00336329 -3.885 0
M  V30 92 H 10.7606 -2.60521 -3.80692 0
M  V30 93 H 9.0036 -2.50686 -3.54032 0
M  V30 94 H 9.6746 -2.07377 -5.11565 0
M  V30 95 H 12.1506 -0.411822 -4.14057 0
M  V30 96 H 11.0266 -0.0995336 -5.4881 0
M  V30 97 H 11.2876 1.14025 -4.27142 0
M  V30 98 N 10.3467 1.47872 -0.545128 0
M  V30 99 C 11.5717 2.07391 -0.0190611 0
M  V30 100 C 11.9967 1.39688 1.25971 0
M  V30 101 O 11.3547 0.467816 1.7516 0
M  V30 102 C 11.4027 3.60188 0.172335 0
M  V30 103 O 10.5067 3.9339 1.23766 0
M  V30 104 H 9.8477 0.662411 -0.0459059 0
M  V30 105 H 12.3777 1.90066 -0.757365 0
M  V30 106 H 12.3877 4.06129 0.390305 0
M  V30 107 H 11.0627 4.08865 -0.761725 0
M  V30 108 H 9.6397 3.5921 1.00114 0
M  V30 109 N 11.8248 0.280983 1.55075 0
M  V30 110 C 13.0728 -0.333455 1.9933 0
M  V30 111 C 13.3938 -1.55937 1.17085 0
M  V30 112 O 12.6638 -1.94143 0.261805 0
M  V30 113 H 11.2438 -0.126197 0.736263 0
M  V30 114 H 13.9058 0.387678 1.91005 0
M  V30 115 H 13.0018 -0.619292 3.05894 0
M  V30 116 N 13.3029 -1.57598 0.00835791 0
M  V30 117 C 14.2329 -2.1198 -0.979113 0
M  V30 118 C 15.2139 -1.03091 -1.35301 0
M  V30 119 O 16.3989 -1.30818 -1.43528 0
M  V30 120 C 13.5289 -2.62995 -2.26828 0
M  V30 121 C 12.4829 -3.76485 -2.03576 0
M  V30 122 C 11.8089 -4.13846 -3.38579 0
M  V30 123 C 13.1089 -5.0342 -1.39161 0
M  V30 124 H 14.8029 -2.94738 -0.526281 0
M  V30 125 H 12.3489 -1.41783 -0.251704 0
M  V30 126 H 14.3019 -2.99669 -2.96271 0
M  V30 127 H 13.0259 -1.7737 -2.7424 0
M  V30 128 H 11.6849 -3.40217 -1.36557 0
M  V30 129 H 11.3329 -3.25232 -3.83709 0
M  V30 130 H 11.0329 -4.90312 -3.23834 0
M  V30 131 H 12.5569 -4.53086 -4.09323 0
M  V30 132 H 13.9709 -5.37812 -1.98573 0
M  V30 133 H 12.3679 -5.84746 -1.34878 0
M  V30 134 H 13.4379 -4.83548 -0.361868 0
M  V30 135 N 14.781 0.264519 -1.55364 0
M  V30 136 C 16.197 0.61215 -1.47394 0
M  V30 137 C 16.397 1.89134 -0.695018 0
M  V30 138 O 15.453 2.51563 -0.217275 0
M  V30 139 C 16.766 0.731235 -2.91674 0
M  V30 140 C 18.314 0.82473 -3.01939 0
M  V30 141 C 18.789 0.975522 -4.4749 0
M  V30 142 N 20.28 1.04083 -4.51354 0
M  V30 143 C 21.015 1.17646 -5.61201 0
M  V30 144 N 20.511 1.27874 -6.80896 0
M  V30 145 N 22.304 1.20823 -5.48961 0
M  V30 146 H 14.455 -0.575456 -2.04456 0
M  V30 147 H 16.718 -0.196099 -0.927496 0
M  V30 148 H 16.424 -0.138392 -3.51428 0
M  V30 149 H 16.298 1.60883 -3.41169 0
M  V30 150 H 18.685 1.68482 -2.42276 0
M  V30 151 H 18.766 -0.0776479 -2.55682 0
M  V30 152 H 18.41 0.120058 -5.07758 0
M  V30 153 H 18.34 1.89268 -4.91412 0
M  V30 154 H 20.831 0.973846 -3.65136 0
M  V30 155 H 21.144 1.38081 -7.60364 0
M  V30 156 H 19.489 1.24863 -6.83692 0
M  V30 157 H 22.68 1.12469 -4.54388 0
M  V30 158 H 22.853 1.31049 -6.3461 0
M  V30 159 N 16.2591 1.48442 0.529413 0
M  V30 160 C 17.4991 1.58086 1.29569 0
M  V30 161 C 17.8631 0.249302 1.90375 0
M  V30 162 O 19.0641 0.220738 2.67892 0
M  V30 163 C 17.3351 2.68793 2.35552 0
M  V30 164 S 18.8941 2.98207 3.21898 0
M  V30 165 H 15.7121 0.557922 0.440732 0
M  V30 166 H 18.3141 1.85966 0.603059 0
M  V30 167 H 17.0181 3.64102 1.89363 0
M  V30 168 H 16.5491 2.42817 3.09522 0
M  V30 169 H 18.5641 2.37548 4.35644 0
M  V30 170 N 17.7372 -0.778329 1.37039 0
M  V30 171 C 18.6672 -1.90546 1.34962 0
M  V30 172 C 19.6482 -1.68681 0.219274 0
M  V30 173 O 20.8332 -1.89634 0.418624 0
M  V30 174 C 17.9632 -3.27734 1.14925 0
M  V30 175 C 16.9172 -3.64147 2.24902 0
M  V30 176 C 16.2432 -4.99806 1.89996 0
M  V30 177 C 17.5432 -3.71579 3.67051 0
M  V30 178 H 19.2372 -1.92541 2.29277 0
M  V30 179 H 16.7832 -0.924948 1.10366 0
M  V30 180 H 18.7362 -4.06215 1.12104 0
M  V30 181 H 17.4602 -3.26154 0.170631 0
M  V30 182 H 16.1192 -2.8797 2.26868 0
M  V30 183 H 15.7672 -4.94759 0.906796 0
M  V30 184 H 15.4672 -5.25139 2.63634 0
M  V30 185 H 16.9912 -5.80694 1.88749 0
M  V30 186 H 18.4052 -4.40227 3.67251 0
M  V30 187 H 16.8022 -4.08405 4.39688 0
M  V30 188 H 17.8722 -2.72404 4.01154 0
M  V30 189 N 19.2153 -1.21501 -1.00376 0
M  V30 190 C 20.4403 -1.05977 -1.78279 0
M  V30 191 C 20.8653 0.385994 -1.84097 0
M  V30 192 O 20.2233 1.27849 -1.28547 0
M  V30 193 C 20.2713 -1.66302 -3.19963 0
M  V30 194 O 19.3753 -0.909333 -4.0225 0
M  V30 195 H 18.7163 -0.372906 -0.549397 0
M  V30 196 H 21.2463 -1.6107 -1.26165 0
M  V30 197 H 21.2563 -1.70574 -3.70632 0
M  V30 198 H 19.9313 -2.71515 -3.15043 0
M  V30 199 H 18.5083 -0.941795 -3.60811 0
M  V30 200 N 20.6934 1.19889 -1.02296 0
M  V30 201 C 22.1094 1.41462 -0.738954 0
M  V30 202 C 22.3094 1.89721 0.678846 0
M  V30 203 O 21.3654 2.07016 1.4457 0
M  V30 204 C 22.6784 2.43083 -1.77005 0
M  V30 205 C 24.2264 2.5684 -1.78892 0
M  V30 206 C 24.7014 3.61709 -2.80945 0
M  V30 207 N 26.1924 3.69199 -2.79725 0
M  V30 208 C 26.9274 4.50019 -3.55345 0
M  V30 209 N 26.4234 5.34592 -4.40662 0
M  V30 210 N 28.2164 4.44612 -3.43914 0
M  V30 211 H 20.3674 0.868827 -1.93817 0
M  V30 212 H 22.6304 0.44399 -0.837602 0
M  V30 213 H 22.3364 2.14636 -2.78612 0
M  V30 214 H 22.2104 3.4217 -1.58744 0
M  V30 215 H 24.5974 2.84614 -0.779674 0
M  V30 216 H 24.6784 1.57927 -2.01228 0
M  V30 217 H 24.3224 3.34678 -3.82038 0
M  V30 218 H 24.2524 4.60259 -2.5587 0
M  V30 219 H 26.7434 3.08794 -2.17842 0
M  V30 220 H 27.0564 5.93363 -4.95116 0
M  V30 221 H 25.4014 5.34073 -4.44737 0
M  V30 222 H 28.5924 3.7758 -2.76679 0
M  V30 223 H 28.7654 5.0736 -4.031 0
M  V30 224 N 22.1715 0.800033 1.35784 0
M  V30 225 C 23.4485 0.30088 1.93272 0
M  V30 226 C 23.8285 -1.20857 1.73081 0
M  V30 227 O 23.1765 -2.00502 1.09596 0
M  V30 228 C 23.3865 0.70511 3.41803 0
M  V30 229 C 24.7345 0.690871 4.18942 0
M  V30 230 O 25.7585 0.646244 3.50289 0
M  V30 231 O 24.6175 0.74332 5.41421 0
M  V30 232 H 21.7115 0.0771605 0.823393 0
M  V30 233 H 24.2575 0.88329 1.449 0
M  V30 234 H 23.0295 1.74571 3.50201 0
M  V30 235 H 22.6525 0.0971541 3.97481 0
M  V30 236 N 23.6496 -1.47581 0.552962 0
M  V30 237 C 24.8976 -2.02082 0.0272703 0
M  V30 238 C 25.2186 -1.4301 -1.32563 0
M  V30 239 O 24.4886 -0.603745 -1.86365 0
M  V30 240 H 23.0686 -0.746966 0.00709182 0
M  V30 241 H 25.7306 -1.81033 0.722008 0
M  V30 242 H 24.8266 -3.12034 -0.0639951 0
M  V30 243 N 25.1277 -0.289203 -1.54924 0
M  V30 244 C 26.5437 0.0645403 -1.59469 0
M  V30 245 C 26.7437 1.53419 -1.30632 0
M  V30 246 O 25.7997 2.2852 -1.074 0
M  V30 247 C 27.1127 -0.32278 -2.98963 0
M  V30 248 C 28.6607 -0.270564 -3.11828 0
M  V30 249 C 29.1357 -0.632532 -4.53611 0
M  V30 250 N 30.6267 -0.584617 -4.59496 0
M  V30 251 C 31.3617 -0.837314 -5.67254 0
M  V30 252 N 30.8577 -1.15536 -6.83098 0
M  V30 253 N 32.6507 -0.765166 -5.56868 0
M  V30 254 H 24.8017 -1.24714 -1.71931 0
M  V30 255 H 27.0647 -0.504809 -0.802416 0
M  V30 256 H 26.7707 -1.34541 -3.24948 0
M  V30 257 H 26.6447 0.32944 -3.75759 0
M  V30 258 H 29.0317 0.742805 -2.85598 0
M  V30 259 H 29.1127 -0.957242 -2.37214 0
M  V30 260 H 28.7567 -1.64365 -4.80569 0
M  V30 261 H 28.6867 0.07609 -5.26545 0
M  V30 262 H 31.1777 -0.349248 -3.76283 0
M  V30 263 H 31.4907 -1.33447 -7.61191 0
M  V30 264 H 29.8357 -1.19328 -6.84679 0
M  V30 265 H 33.0267 -0.516432 -4.65243 0
M  V30 266 H 33.1997 -0.965477 -6.40767 0
M  V30 267 N 26.6058 1.57591 -0.0167156 0
M  V30 268 C 27.5388 2.04944 1.00366 0
M  V30 269 C 28.5168 0.942648 1.32487 0
M  V30 270 O 29.7008 1.21205 1.44367 0
M  V30 271 C 26.8278 2.46109 2.32697 0
M  V30 272 C 25.8738 3.67686 2.16123 0
M  V30 273 S 26.7068 5.14882 1.47161 0
M  V30 274 C 27.8628 5.59332 2.80888 0
M  V30 275 H 28.0958 2.91172 0.600528 0
M  V30 276 H 25.6288 1.53168 0.194632 0
M  V30 277 H 27.5868 2.70493 3.08778 0
M  V30 278 H 26.2478 1.6025 2.70146 0
M  V30 279 H 25.4408 3.94296 3.13922 0
M  V30 280 H 25.0428 3.43391 1.48185 0
M  V30 281 H 27.3348 5.62814 3.77156 0
M  V30 282 H 28.2778 6.5905 2.58958 0
M  V30 283 H 28.6858 4.86942 2.85565 0
M  V30 284 N 28.0839 -0.256276 1.55502 0
M  V30 285 C 29.0469 -1.30047 1.88734 0
M  V30 286 C 30.0469 -1.4154 0.763086 0
M  V30 287 O 31.2369 -1.40403 1.03115 0
M  V30 288 C 28.3689 -2.67953 2.10747 0
M  V30 289 H 29.5619 -1.01802 2.82093 0
M  V30 290 H 27.1149 -0.495134 1.4825 0
M  V30 291 H 27.8499 -3.01351 1.19825 0
M  V30 292 H 27.6349 -2.60993 2.92617 0
M  V30 293 H 29.1249 -3.43368 2.37673 0
M  V30 294 N 29.562 -1.4872 -0.521534 0
M  V30 295 C 30.525 -1.63379 -1.60748 0
M  V30 296 C 31.525 -0.50661 -1.52611 0
M  V30 297 O 32.715 -0.772601 -1.5613 0
M  V30 298 C 29.847 -1.61192 -3.00383 0
M  V30 299 H 31.04 -2.60217 -1.49087 0
M  V30 300 H 28.593 -1.37444 -0.744235 0
M  V30 301 H 29.328 -0.65863 -3.17541 0
M  V30 302 H 29.113 -2.43032 -3.07698 0
M  V30 303 H 30.603 -1.7466 -3.7932 0
M  V30 304 N 31.0401 0.771051 -1.3745 0
M  V30 305 C 31.9721 1.89352 -1.29146 0
M  V30 306 C 32.9851 1.61477 -0.207124 0
M  V30 307 O 34.1741 1.72382 -0.463324 0
M  V30 308 C 31.2741 3.24596 -0.974195 0
M  V30 309 C 30.4471 3.80111 -2.16413 0
M  V30 310 C 29.5061 4.93832 -1.81703 0
M  V30 311 O 28.5321 5.09382 -2.54006 0
M  V30 312 N 29.7341 5.75483 -0.761573 0
M  V30 313 H 32.4991 1.96991 -2.25864 0
M  V30 314 H 30.0601 0.950191 -1.31084 0
M  V30 315 H 32.0521 3.98193 -0.722828 0
M  V30 316 H 30.6221 3.12454 -0.0955527 0
M  V30 317 H 29.8421 2.98284 -2.57721 0
M  V30 318 H 31.1301 4.13932 -2.95867 0
M  V30 319 H 30.5281 5.65469 -0.161609 0
M  V30 320 H 29.0851 6.49302 -0.570064 0
M  V30 321 N 32.5182 1.22032 0.997298 0
M  V30 322 C 33.7662 1.04016 1.73278 0
M  V30 323 C 34.0872 -0.426255 1.90284 0
M  V30 324 O 33.3572 -1.30694 1.45931 0
M  V30 325 H 31.9372 0.381897 0.642 0
M  V30 326 H 34.5992 1.5347 1.20137 0
M  V30 327 H 33.6952 1.51441 2.72896 0
M  V30 328 N 33.9963 -1.19345 1.0293 0
M  V30 329 C 34.9593 -2.20793 0.615069 0
M  V30 330 C 35.9593 -1.57553 -0.321533 0
M  V30 331 O 37.1493 -1.73862 -0.108483 0
M  V30 332 C 34.2813 -3.40754 -0.0999222 0
M  V30 333 H 35.4743 -2.58955 1.51269 0
M  V30 334 H 33.0273 -1.3303 0.820534 0
M  V30 335 H 33.7623 -3.0811 -1.01187 0
M  V30 336 H 33.5473 -3.87889 0.57309 0
M  V30 337 H 35.0373 -4.15898 -0.376645 0
M  V30 338 N 35.4744 -0.807222 -1.35358 0
M  V30 339 C 36.8854 -0.44876 -1.81226 0
M  V30 340 C 37.2364 1.02929 -1.67033 0
M  V30 341 O 36.3614 1.79991 -1.20133 0
M  V30 342 C 36.9564 -0.807774 -3.2903 0
M  V30 343 C 35.5154 -0.501901 -3.73039 0
M  V30 344 C 34.6624 -1.03304 -2.57339 0
M  V30 345 H 37.6134 -0.998808 -1.23327 0
M  V30 346 H 37.6344 -0.10554 -3.80354 0
M  V30 347 H 37.1464 -1.88357 -3.39328 0
M  V30 348 H 35.2474 0.565128 -3.68289 0
M  V30 349 H 35.3604 -1.03497 -4.67787 0
M  V30 350 H 33.7244 -0.455339 -2.50597 0
M  V30 351 H 34.5074 -2.11496 -2.70415 0
M  V30 352 N 36.9525 1.47285 -0.560781 0
M  V30 353 C 38.3685 1.58065 -0.22081 0
M  V30 354 C 38.5685 1.55892 1.27671 0
M  V30 355 O 37.6245 1.46422 2.0571 0
M  V30 356 C 38.9375 2.88418 -0.850625 0
M  V30 357 C 40.4855 3.02009 -0.822184 0
M  V30 358 C 40.9605 4.35066 -1.43113 0
M  V30 359 N 42.4515 4.41711 -1.39448 0
M  V30 360 C 43.1865 5.43237 -1.83525 0
M  V30 361 N 42.6825 6.51555 -2.35474 0
M  V30 362 N 44.4755 5.34304 -1.74574 0
M  V30 363 H 36.6265 1.46941 -1.53369 0
M  V30 364 H 38.8895 0.699558 -0.639783 0
M  V30 365 H 38.5955 2.95755 -1.9032 0
M  V30 366 H 38.4695 3.75612 -0.345773 0
M  V30 367 H 40.8565 2.94266 0.221714 0
M  V30 368 H 40.9375 2.16347 -1.36483 0
M  V30 369 H 40.5815 4.43565 -2.47412 0
M  V30 370 H 40.5115 5.19465 -0.863899 0
M  V30 371 H 43.0025 3.64027 -1.01452 0
M  V30 372 H 43.3155 7.25203 -2.67021 0
M  V30 373 H 41.6605 6.52435 -2.39487 0
M  V30 374 H 44.8515 4.48581 -1.33763 0
M  V30 375 H 45.0245 6.13288 -2.09242 0
M  V30 376 N 38.4306 0.297415 1.54768 0
M  V30 377 C 39.6776 -0.312913 2.00068 0
M  V30 378 C 40.0056 -1.54171 1.18582 0
M  V30 379 O 39.2606 -1.94108 0.249133 0
M  V30 380 C 39.5596 -0.717561 3.50123 0
M  V30 381 C 39.2256 0.409095 4.4904 0
M  V30 382 C 37.8876 0.718399 4.75807 0
M  V30 383 C 40.2396 1.16717 5.07963 0
M  V30 384 C 37.5676 1.78896 5.5876 0
M  V30 385 C 39.9196 2.22762 5.92081 0
M  V30 386 C 38.5836 2.54303 6.1716 0
M  V30 387 H 37.8536 -0.114503 0.7321 0
M  V30 388 H 40.5006 0.415767 1.86932 0
M  V30 389 H 38.8056 -1.52627 3.60849 0
M  V30 390 H 40.5026 -1.20091 3.82595 0
M  V30 391 H 37.0926 0.157918 4.28309 0
M  V30 392 H 41.2766 0.941466 4.87289 0
M  V30 393 H 36.5326 2.0381 5.7643 0
M  V30 394 H 40.7066 2.81962 6.36765 0
M  V30 395 H 38.3336 3.3739 6.81229 0
M  V30 396 N 39.9087 -1.5758 0.0250728 0
M  V30 397 C 40.8387 -2.13007 -0.956575 0
M  V30 398 C 41.8197 -1.0452 -1.342 0
M  V30 399 O 43.0047 -1.32332 -1.42133 0
M  V30 400 C 40.1347 -2.65386 -2.24026 0
M  V30 401 C 39.0887 -3.78623 -1.99571 0
M  V30 402 C 38.4147 -4.17414 -3.3417 0
M  V30 403 C 39.7147 -5.04867 -1.33814 0
M  V30 404 H 41.4087 -2.9528 -0.494991 0
M  V30 405 H 38.9547 -1.42042 -0.236651 0
M  V30 406 H 40.9077 -3.02794 -2.93076 0
M  V30 407 H 39.6317 -1.80268 -2.72343 0
M  V30 408 H 38.2907 -3.41646 -1.32941 0
M  V30 409 H 37.9387 -3.29284 -3.80238 0
M  V30 410 H 37.6387 -4.93719 -3.18615 0
M  V30 411 H 39.1627 -4.57402 -4.04495 0
M  V30 412 H 40.5767 -5.39888 -1.92857 0
M  V30 413 H 38.9737 -5.86144 -1.28669 0
M  V30 414 H 40.0437 -4.83904 -0.310561 0
M  V30 415 N 41.3868 0.248026 -1.55636 0
M  V30 416 C 42.3168 1.31079 -1.93237 0
M  V30 417 C 43.2978 1.50264 -0.797174 0
M  V30 418 O 44.4828 1.62891 -1.05737 0
M  V30 419 C 41.6128 2.66575 -2.22609 0
M  V30 420 C 40.5668 2.62087 -3.3837 0
M  V30 421 C 39.8928 4.01369 -3.53281 0
M  V30 422 C 41.1928 2.19171 -4.7409 0
M  V30 423 H 42.8868 0.998556 -2.82257 0
M  V30 424 H 40.4328 0.47891 -1.35803 0
M  V30 425 H 42.3858 3.41057 -2.47503 0
M  V30 426 H 41.1098 2.99432 -1.30414 0
M  V30 427 H 39.7688 1.90063 -3.13483 0
M  V30 428 H 39.4168 4.31489 -2.58508 0
M  V30 429 H 39.1168 3.99254 -4.31127 0
M  V30 430 H 40.6408 4.77552 -3.80495 0
M  V30 431 H 42.0548 2.83384 -4.98363 0
M  V30 432 H 40.4518 2.2817 -5.5503 0
M  V30 433 H 41.5218 1.14336 -4.71227 0
M  V30 434 N 42.8649 1.48995 0.513639 0
M  V30 435 C 44.0929 1.61531 1.29288 0
M  V30 436 C 44.5079 0.281801 1.86685 0
M  V30 437 O 43.8649 -0.731111 1.67215 0
M  V30 438 C 43.9159 2.67449 2.43215 0
M  V30 439 O 43.6369 3.95626 1.88179 0
M  V30 440 C 45.1379 2.90575 3.34785 0
M  V30 441 H 42.3579 0.544165 0.392588 0
M  V30 442 H 44.9019 1.9494 0.617956 0
M  V30 443 H 43.0569 2.36853 3.0656 0
M  V30 444 H 43.4709 4.53868 2.62876 0
M  V30 445 H 44.9449 3.68449 4.11035 0
M  V30 446 H 45.4219 2.00011 3.91015 0
M  V30 447 H 46.0279 3.22538 2.77218 0
M  V30 448 N 44.343 -0.763751 1.37857 0
M  V30 449 C 45.59 -1.52257 1.33506 0
M  V30 450 C 45.918 -1.94343 -0.078022 0
M  V30 451 O 45.173 -1.64958 -1.05297 0
M  V30 452 C 45.472 -2.79499 2.22745 0
M  V30 453 C 45.138 -2.56426 3.70886 0
M  V30 454 C 43.8 -2.49842 4.11257 0
M  V30 455 C 46.152 -2.36008 4.64704 0
M  V30 456 C 43.48 -2.20841 5.43549 0
M  V30 457 C 45.832 -2.0853 5.97242 0
M  V30 458 C 44.496 -2.00396 6.36709 0
M  V30 459 H 43.766 -0.557149 0.488534 0
M  V30 460 H 46.413 -0.879073 1.70131 0
M  V30 461 H 44.718 -3.48447 1.79142 0
M  V30 462 H 46.415 -3.37413 2.16688 0
M  V30 463 H 43.005 -2.62416 3.38874 0
M  V30 464 H 47.189 -2.40079 4.34368 0
M  V30 465 H 42.445 -2.13045 5.73081 0
M  V30 466 H 46.619 -1.91732 6.69486 0
M  V30 467 H 44.246 -1.77688 7.39142 0
M  V30 468 N 45.8211 -1.22559 -0.990812 0
M  V30 469 C 47.0981 -0.959875 -1.70428 0
M  V30 470 C 47.4781 0.524455 -2.04481 0
M  V30 471 O 46.8261 1.49302 -1.72977 0
M  V30 472 C 47.0361 -1.85955 -2.95333 0
M  V30 473 C 48.3841 -2.11687 -3.68068 0
M  V30 474 O 49.4081 -1.8342 -3.05345 0
M  V30 475 O 48.2671 -2.59572 -4.80921 0
M  V30 476 H 45.3611 -0.361154 -0.743974 0
M  V30 477 H 47.9071 -1.33554 -1.04697 0
M  V30 478 H 46.6791 -2.86346 -2.66687 0
M  V30 479 H 46.3021 -1.4856 -3.68803 0
M  V30 480 N 47.2992 1.18797 -1.03562 0
M  V30 481 C 48.5462 1.8865 -0.736023 0
M  V30 482 C 48.8742 1.80041 0.735889 0
M  V30 483 O 48.1292 1.19179 1.55225 0
M  V30 484 C 48.4282 3.38692 -1.14117 0
M  V30 485 C 48.0942 3.67504 -2.6125 0
M  V30 486 C 46.7562 3.75078 -3.01447 0
M  V30 487 C 49.1082 3.80293 -3.56408 0
M  V30 488 C 46.4362 3.92915 -4.35701 0
M  V30 489 C 48.7882 3.99645 -4.90374 0
M  V30 490 C 47.4522 4.05453 -5.30249 0
M  V30 491 H 46.7222 0.690321 -0.26933 0
M  V30 492 H 49.3692 1.40641 -1.29971 0
M  V30 493 H 47.6742 3.88645 -0.496202 0
M  V30 494 H 49.3712 3.91072 -0.886789 0
M  V30 495 H 45.9612 3.62223 -2.29113 0
M  V30 496 H 50.1452 3.73779 -3.26501 0
M  V30 497 H 45.4012 3.95653 -4.66121 0
M  V30 498 H 49.5752 4.08482 -5.64017 0
M  V30 499 H 47.2022 4.19027 -6.34288 0
M  V30 500 N 48.7773 0.814389 1.34928 0
M  V30 501 C 50.0543 0.321363 1.92942 0
M  V30 502 C 50.4343 -1.19014 1.74353 0
M  V30 503 O 49.7823 -1.99328 1.11716 0
M  V30 504 C 49.9923 0.741323 3.41036 0
M  V30 505 C 51.3403 0.735266 4.18185 0
M  V30 506 O 52.3643 0.68336 3.49584 0
M  V30 507 O 51.2233 0.800703 5.40602 0
M  V30 508 H 48.3173 0.0858893 0.822528 0
M  V30 509 H 50.8633 0.898609 1.43955 0
M  V30 510 H 49.6353 1.78276 3.4833 0
M  V30 511 H 49.2583 0.139307 3.97356 0
M  V30 512 N 50.2554 -1.46986 0.568584 0
M  V30 513 C 51.1654 -2.33942 -0.17555 0
M  V30 514 C 52.1814 -1.48891 -0.90041 0
M  V30 515 O 53.3574 -1.81794 -0.86676 0
M  V30 516 C 50.4224 -3.25811 -1.18524 0
M  V30 517 C 49.4834 -4.26757 -0.466582 0
M  V30 518 C 48.7164 -5.14236 -1.42817 0
M  V30 519 O 48.9394 -5.04379 -2.66379 0
M  V30 520 O 47.8734 -5.94412 -0.946453 0
M  V30 521 H 51.6994 -2.98896 0.538036 0
M  V30 522 H 49.2844 -1.4573 0.329097 0
M  V30 523 H 51.1664 -3.82527 -1.76779 0
M  V30 524 H 49.8414 -2.63471 -1.88055 0
M  V30 525 H 48.7484 -3.73769 0.157451 0
M  V30 526 H 50.0814 -4.91843 0.187485 0
M  V30 527 N 51.7335 -0.305618 -1.54608 0
M  V30 528 C 52.9615 0.304775 -2.04643 0
M  V30 529 C 53.3765 1.47167 -1.18268 0
M  V30 530 O 52.7335 1.81296 -0.209328 0
M  V30 531 C 52.7845 0.756564 -3.53495 0
M  V30 532 O 52.5055 -0.36389 -4.36586 0
M  V30 533 C 54.0065 1.43163 -4.19546 0
M  V30 534 H 51.2265 0.0655481 -0.667791 0
M  V30 535 H 53.7705 -0.446592 -1.99564 0
M  V30 536 H 51.9255 1.45794 -3.58919 0
M  V30 537 H 52.3395 -0.0113121 -5.24499 0
M  V30 538 H 53.8135 1.69886 -5.25207 0
M  V30 539 H 54.2905 2.37318 -3.69563 0
M  V30 540 H 54.8965 0.773307 -4.18211 0
M  V30 541 N 53.2116 1.57565 -0.0334293 0
M  V30 542 C 54.4606 1.91155 0.643639 0
M  V30 543 C 54.7736 0.91192 1.73042 0
M  V30 544 O 55.9796 1.13923 2.46442 0
M  V30 545 C 54.4356 3.39443 1.1961 0
M  V30 546 C 54.0436 4.47774 0.142381 0
M  V30 547 C 55.7876 3.82094 1.84944 0
M  V30 548 C 53.6946 5.87162 0.706727 0
M  V30 549 H 52.6246 0.713368 0.244176 0
M  V30 550 H 55.2756 1.8323 -0.0994323 0
M  V30 551 H 53.6576 3.42313 1.99092 0
M  V30 552 H 54.8316 4.56469 -0.630296 0
M  V30 553 H 53.1466 4.14352 -0.412446 0
M  V30 554 H 55.7436 4.83591 2.2813 0
M  V30 555 H 56.0866 3.17386 2.69392 0
M  V30 556 H 56.6196 3.81665 1.12145 0
M  V30 557 H 53.3586 6.55424 -0.0997178 0
M  V30 558 H 52.8786 5.82064 1.44779 0
M  V30 559 H 54.5576 6.35866 1.19514 0
M  V30 560 N 54.6897 -0.239769 1.55765 0
M  V30 561 C 55.9357 -0.968234 1.78194 0
M  V30 562 C 56.2687 -1.84701 0.599938 0
M  V30 563 O 55.5437 -1.9031 -0.401524 0
M  V30 564 C 55.8267 -1.8227 3.10564 0
M  V30 565 C 55.6797 -0.971633 4.3918 0
M  V30 566 C 56.9987 -2.80388 3.39221 0
M  V30 567 H 54.1177 -0.350572 0.648281 0
M  V30 568 H 56.7597 -0.238259 1.885 0
M  V30 569 H 54.9097 -2.44507 3.01908 0
M  V30 570 H 56.5817 -0.367408 4.59835 0
M  V30 571 H 54.8247 -0.276276 4.32919 0
M  V30 572 H 55.4957 -1.60346 5.28198 0
M  V30 573 H 57.9717 -2.28287 3.47885 0
M  V30 574 H 56.8477 -3.3729 4.33044 0
M  V30 575 H 57.1087 -3.57212 2.60484 0
M  V30 576 N 56.1678 -1.49265 -0.50573 0
M  V30 577 C 57.4448 -1.49012 -1.26707 0
M  V30 578 C 57.8248 -0.215205 -2.1 0
M  V30 579 O 57.1728 0.802547 -2.13943 0
M  V30 580 C 57.3828 -2.7663 -2.12783 0
M  V30 581 C 58.7308 -3.25932 -2.72127 0
M  V30 582 O 59.7548 -2.77715 -2.23054 0
M  V30 583 O 58.6138 -4.09897 -3.61451 0
M  V30 584 H 55.7078 -0.596197 -0.57313 0
M  V30 585 H 58.2538 -1.61524 -0.52039 0
M  V30 586 H 57.0258 -3.60916 -1.5118 0
M  V30 587 H 56.6488 -2.66956 -2.94653 0
M  V30 588 N 57.6459 0.756429 -1.3826 0
M  V30 589 C 58.5559 1.9009 -1.37488 0
M  V30 590 C 59.5719 1.71855 -0.272366 0
M  V30 591 O 60.7479 1.94827 -0.510318 0
M  V30 592 C 57.8129 3.25421 -1.19592 0
M  V30 593 C 56.8739 3.56202 -2.39622 0
M  V30 594 C 56.1069 4.85075 -2.2257 0
M  V30 595 O 56.3299 5.57246 -1.21793 0
M  V30 596 O 55.2639 5.15269 -3.11098 0
M  V30 597 H 59.0899 1.93695 -2.33914 0
M  V30 598 H 56.6749 0.901313 -1.1915 0
M  V30 599 H 58.5569 4.06337 -1.11661 0
M  V30 600 H 57.2319 3.22634 -0.262486 0
M  V30 601 H 56.1389 2.75458 -2.53128 0
M  V30 602 H 57.4719 3.63747 -3.31586 0
M  V30 603 N 59.124 1.23083 0.984299 0
M  V30 604 C 60.072 1.00593 2.09723 0
M  V30 605 C 61.066 -0.0538014 1.69315 0
M  V30 606 O 62.272 0.0993719 1.79725 0
M  V30 607 H 58.647 0.30817 0.685956 0
M  V30 608 H 60.618 1.95012 2.2586 0
M  V30 609 C 59.367 0.609601 3.42314 0
M  V30 610 H 58.69 1.41675 3.73856 0
M  V30 611 H 60.13 0.491726 4.21139 0
M  V30 612 C 58.589 -0.681745 3.2993 0
M  V30 613 O 59.119 -1.73192 3.62446 0
M  V30 614 N 57.325 -0.656178 2.83095 0
M  V30 615 H 56.872 0.198759 2.56832 0
M  V30 616 H 56.83 -1.52044 2.75191 0
M  V30 617 N 60.6021 -1.18246 1.0419 0
M  V30 618 C 61.8271 -1.92736 0.765996 0
M  V30 619 C 62.2521 -1.75728 -0.67091 0
M  V30 620 O 61.6101 -1.06825 -1.46486 0
M  V30 621 C 61.6581 -3.42148 1.13875 0
M  V30 622 O 60.7621 -4.11548 0.264954 0
M  V30 623 H 60.1031 -0.601238 0.281797 0
M  V30 624 H 62.6331 -1.49942 1.39207 0
M  V30 625 H 62.6431 -3.92858 1.1012 0
M  V30 626 H 61.3181 -3.53848 2.18551 0
M  V30 627 H 59.8951 -3.71137 0.362226 0
M  V30 628 N 62.0802 -0.821533 -1.34494 0
M  V30 629 C 63.3572 -0.33159 -1.92769 0
M  V30 630 C 63.7372 1.18088 -1.74981 0
M  V30 631 O 63.0852 1.98733 -1.12772 0
M  V30 632 C 63.2952 -0.759398 -3.40638 0
M  V30 633 C 64.6432 -0.757433 -4.1779 0
M  V30 634 O 65.6672 -0.70189 -3.49216 0
M  V30 635 O 64.5262 -0.829361 -5.4017 0
M  V30 636 H 61.6202 -0.0902502 -0.822061 0
M  V30 637 H 64.1662 -0.906231 -1.43477 0
M  V30 638 H 62.9382 -1.8012 -3.47379 0
M  V30 639 H 62.5612 -0.160378 -3.97276 0
M  V30 640 N 63.5583 1.46682 -0.576371 0
M  V30 641 C 64.8353 1.95599 0.00703437 0
M  V30 642 C 65.2153 1.51904 1.46589 0
M  V30 643 O 64.5633 0.766755 2.15251 0
M  V30 644 C 64.7733 3.4864 -0.158404 0
M  V30 645 C 66.1213 4.24594 -0.0229439 0
M  V30 646 O 67.1453 3.56094 -0.0869173 0
M  V30 647 O 66.0043 5.46373 0.118015 0
M  V30 648 H 63.0983 0.825275 0.053384 0
M  V30 649 H 65.6443 1.56996 -0.644244 0
M  V30 650 H 64.4163 3.7331 -1.17282 0
M  V30 651 H 64.0393 3.94057 0.5296 0
M  V30 652 N 65.0364 0.313813 1.54444 0
M  V30 653 C 66.2614 -0.296681 2.05267 0
M  V30 654 C 66.6864 -1.45757 1.18897 0
M  V30 655 O 66.0444 -1.80239 0.195886 0
M  V30 656 C 66.0924 -0.71831 3.53373 0
M  V30 657 O 65.1964 -1.82175 3.69981 0
M  V30 658 H 64.5374 -0.0554061 0.661684 0
M  V30 659 H 67.0674 0.459387 1.99376 0
M  V30 660 H 67.0774 -1.00364 3.95463 0
M  V30 661 H 65.7524 0.130821 4.15694 0
M  V30 662 H 64.3294 -1.53598 3.39797 0
M  V30 663 N 66.5145 -1.57545 0.0417849 0
M  V30 664 C 67.7635 -1.91494 -0.633492 0
M  V30 665 C 68.0765 -0.921084 -1.72556 0
M  V30 666 O 69.2825 -1.15228 -2.45835 0
M  V30 667 C 67.7385 -3.40072 -1.17808 0
M  V30 668 C 67.3465 -4.47843 -0.118633 0
M  V30 669 C 69.0905 -3.8307 -1.82915 0
M  V30 670 C 66.9975 -5.87529 -0.675578 0
M  V30 671 H 65.9275 -0.714653 -0.24039 0
M  V30 672 H 68.5785 -1.83175 0.109148 0
M  V30 673 H 66.9605 -3.43364 -1.97274 0
M  V30 674 H 68.1345 -4.56128 0.654494 0
M  V30 675 H 66.4495 -4.14128 0.434414 0
M  V30 676 H 69.0465 -4.84794 -2.25563 0
M  V30 677 H 69.3895 -3.1881 -2.67705 0
M  V30 678 H 69.9225 -3.82255 -1.10119 0
M  V30 679 H 66.6615 -6.55362 0.134475 0
M  V30 680 H 66.1815 -5.82824 -1.4169 0
M  V30 681 H 67.8605 -6.36491 -1.1614 0
M  V30 682 N 67.9926 0.231505 -1.5589 0
M  V30 683 C 69.2386 0.95877 -1.78705 0
M  V30 684 C 69.5716 1.8438 -0.609725 0
M  V30 685 O 68.8466 1.90521 0.391426 0
M  V30 686 C 69.1296 1.8062 -3.11526 0
M  V30 687 C 68.9826 0.948328 -4.39689 0
M  V30 688 C 70.3016 2.78585 -3.40703 0
M  V30 689 H 67.4206 0.347129 -0.650131 0
M  V30 690 H 70.0626 0.228259 -1.88624 0
M  V30 691 H 68.2126 2.42902 -3.03201 0
M  V30 692 H 69.8846 0.343016 -4.60023 0
M  V30 693 H 68.1276 0.253314 -4.3306 0
M  V30 694 H 68.7986 1.57543 -5.29041 0
M  V30 695 H 71.2746 2.26439 -3.49091 0
M  V30 696 H 70.1506 3.34988 -4.34826 0
M  V30 697 H 70.4116 3.55825 -2.62375 0
M  V30 698 N 69.4707 1.49531 0.497807 0
M  V30 699 C 70.8867 1.36365 0.829266 0
M  V30 700 C 71.0867 0.399184 1.97506 0
M  V30 701 O 70.1427 -0.167977 2.51941 0
M  V30 702 C 71.4557 2.77153 1.16647 0
M  V30 703 C 73.0037 2.85877 1.27449 0
M  V30 704 C 73.4787 4.2744 1.64497 0
M  V30 705 N 74.9697 4.30265 1.7154 0
M  V30 706 C 75.7047 5.3677 2.01656 0
M  V30 707 N 75.2007 6.53516 2.29976 0
M  V30 708 N 76.9937 5.24189 2.02934 0
M  V30 709 H 69.1447 2.10831 -0.257703 0
M  V30 710 H 71.4077 0.946534 -0.0527091 0
M  V30 711 H 71.1137 3.49442 0.397872 0
M  V30 712 H 70.9877 3.12722 2.10915 0
M  V30 713 H 73.3747 2.13824 2.0338 0
M  V30 714 H 73.4557 2.53887 0.312244 0
M  V30 715 H 73.0997 5.00021 0.891151 0
M  V30 716 H 73.0297 4.56896 2.61827 0
M  V30 717 H 75.5207 3.4607 1.51802 0
M  V30 718 H 75.8337 7.30506 2.52153 0
M  V30 719 H 74.1787 6.56737 2.27425 0
M  V30 720 H 77.3697 4.31988 1.80289 0
M  V30 721 H 77.5427 6.07286 2.26071 0
M  V30 722 N 70.9488 -0.749086 1.3866 0
M  V30 723 C 71.9118 -1.84457 1.36045 0
M  V30 724 C 72.9118 -1.58682 0.260122 0
M  V30 725 O 74.1018 -1.66343 0.517261 0
M  V30 726 C 71.2338 -3.22008 1.11911 0
M  V30 727 H 72.4268 -1.88182 2.33512 0
M  V30 728 H 69.9798 -0.951266 1.24019 0
M  V30 729 H 70.7148 -3.2395 0.150686 0
M  V30 730 H 70.4998 -3.42111 1.91579 0
M  V30 731 H 71.9898 -4.0208 1.12788 0
M  V30 732 N 72.4269 -1.23603 -0.977757 0
M  V30 733 C 73.3899 -1.02069 -2.05218 0
M  V30 734 C 74.3899 0.0184305 -1.60789 0
M  V30 735 O 75.5799 -0.221569 -1.72785 0
M  V30 736 C 72.7119 -0.544926 -3.36517 0
M  V30 737 H 73.9049 -1.9742 -2.25755 0
M  V30 738 H 71.4579 -1.05684 -1.15155 0
M  V30 739 H 72.1929 0.412241 -3.21669 0
M  V30 740 H 71.9779 -1.2948 -3.70105 0
M  V30 741 H 73.4679 -0.414985 -4.15533 0
M  V30 742 N 73.905 1.17692 -1.04816 0
M  V30 743 C 75.316 1.69501 -0.782698 0
M  V30 744 C 75.667 1.83456 0.695577 0
M  V30 745 O 74.792 1.51942 1.54086 0
M  V30 746 C 75.387 3.07874 -1.41419 0
M  V30 747 C 73.946 3.56864 -1.19686 0
M  V30 748 C 73.093 2.3322 -1.50012 0
M  V30 749 H 76.044 1.02262 -1.2136 0
M  V30 750 H 76.065 3.71528 -0.821428 0
M  V30 751 H 75.577 2.97685 -2.49009 0
M  V30 752 H 73.678 3.72337 -0.140043 0
M  V30 753 H 73.791 4.39851 -1.89916 0
M  V30 754 H 72.155 2.37501 -0.920071 0
M  V30 755 H 72.938 2.25644 -2.58727 0
M  V30 756 N 75.3831 0.828654 1.34056 0
M  V30 757 C 76.6311 0.41863 1.97717 0
M  V30 758 C 76.9521 -1.02314 1.66002 0
M  V30 759 O 76.2221 -1.71119 0.953683 0
M  V30 760 H 74.8021 0.151809 0.731412 0
M  V30 761 H 77.4641 1.05936 1.63596 0
M  V30 762 H 76.5601 0.542318 3.07352 0
M  V30 763 N 76.8612 -1.46375 0.584142 0
M  V30 764 C 77.7932 -2.28443 -0.186119 0
M  V30 765 C 78.8062 -1.38596 -0.854115 0
M  V30 766 O 79.9952 -1.63183 -0.723438 0
M  V30 767 C 77.0952 -3.13671 -1.28311 0
M  V30 768 C 76.2682 -4.31652 -0.706758 0
M  V30 769 C 75.3272 -4.98267 -1.69163 0
M  V30 770 O 74.3532 -5.55815 -1.22712 0
M  V30 771 N 75.5552 -4.95408 -3.02575 0
M  V30 772 H 78.3202 -2.9519 0.517986 0
M  V30 773 H 75.8812 -1.56303 0.42201 0
M  V30 774 H 77.8732 -3.55101 -1.94128 0
M  V30 775 H 76.4432 -2.48989 -1.89005 0
M  V30 776 H 75.6632 -3.93989 0.128908 0
M  V30 777 H 76.9512 -5.07906 -0.301506 0
M  V30 778 H 76.3492 -4.49902 -3.42936 0
M  V30 779 H 74.9062 -5.40774 -3.63877 0
M  V30 780 N 78.3393 -0.321999 -1.54275 0
M  V30 781 C 79.7553 0.0306999 -1.5957 0
M  V30 782 C 79.9553 1.50614 -1.33857 0
M  V30 783 O 79.0113 2.2619 -1.12223 0
M  V30 784 C 80.3243 -0.386122 -2.98211 0
M  V30 785 C 81.8723 -0.336647 -3.11184 0
M  V30 786 C 82.3473 -0.728607 -4.52167 0
M  V30 787 N 83.8383 -0.681952 -4.58152 0
M  V30 788 C 84.5733 -0.957449 -5.6535 0
M  V30 789 N 84.0693 -1.3 -6.80494 0
M  V30 790 N 85.8623 -0.883113 -5.55119 0
M  V30 791 H 78.0133 -1.28332 -1.69247 0
M  V30 792 H 80.2763 -0.521716 -0.791528 0
M  V30 793 H 79.9823 -1.41404 -3.22022 0
M  V30 794 H 79.8563 0.249662 -3.76373 0
M  V30 795 H 82.2433 0.682058 -2.8711 0
M  V30 796 H 82.3243 -1.00734 -2.3513 0
M  V30 797 H 81.9683 -1.74522 -4.76974 0
M  V30 798 H 81.8983 -0.0356152 -5.26588 0
M  V30 799 H 84.3893 -0.428985 -3.75457 0
M  V30 800 H 84.7023 -1.49563 -7.58189 0
M  V30 801 H 83.0473 -1.33824 -6.81994 0
M  V30 802 H 86.2383 -0.615001 -4.64042 0
M  V30 803 H 86.4113 -1.10118 -6.38575 0
M  V30 804 N 79.8174 1.5752 -0.0501392 0
M  V30 805 C 80.7474 2.14502 0.922566 0
M  V30 806 C 81.7284 1.06642 1.3252 0
M  V30 807 O 82.9134 1.34577 1.4001 0
M  V30 808 C 80.0434 2.68916 2.19776 0
M  V30 809 C 78.9974 3.8175 1.93523 0
M  V30 810 C 78.3234 4.22677 3.27487 0
M  V30 811 C 79.6234 5.06932 1.25765 0
M  V30 812 H 81.3174 2.9603 0.447952 0
M  V30 813 H 78.8634 1.42401 0.214024 0
M  V30 814 H 80.8164 3.07419 2.88222 0
M  V30 815 H 79.5404 1.84578 2.69441 0
M  V30 816 H 78.1994 3.43718 1.27489 0
M  V30 817 H 77.8474 3.35291 3.74952 0
M  V30 818 H 77.5474 4.98725 3.1072 0
M  V30 819 H 79.0714 4.63779 3.97166 0
M  V30 820 H 80.4854 5.42888 1.84244 0
M  V30 821 H 78.8824 5.88116 1.19328 0
M  V30 822 H 79.9524 4.84337 0.233536 0
M  V30 823 N 81.2955 -0.223234 1.56011 0
M  V30 824 C 82.7065 -0.790368 1.69145 0
M  V30 825 C 83.0575 -1.85055 0.651845 0
M  V30 826 O 82.1825 -2.15498 -0.197359 0
M  V30 827 C 82.7775 -1.4404 3.06656 0
M  V30 828 C 81.3365 -1.95494 3.2165 0
M  V30 829 C 80.4835 -0.814506 2.65068 0
M  V30 830 H 83.4345 0.00139011 1.587 0
M  V30 831 H 83.4555 -2.30916 3.0242 0
M  V30 832 H 82.9675 -0.668543 3.82298 0
M  V30 833 H 81.0685 -2.75487 2.50874 0
M  V30 834 H 81.1815 -2.13607 4.28846 0
M  V30 835 H 79.5455 -1.22137 2.23505 0
M  V30 836 H 80.3285 -0.0553515 3.43255 0
M  V30 837 N 82.7736 -1.49793 -0.48987 0
M  V30 838 C 83.6836 -1.70036 -1.61632 0
M  V30 839 C 84.6996 -0.583102 -1.63939 0
M  V30 840 O 85.8756 -0.859169 -1.82154 0
M  V30 841 C 82.9406 -1.77277 -2.97949 0
M  V30 842 C 82.0016 -3.00918 -3.06181 0
M  V30 843 C 81.2346 -3.07804 -4.35996 0
M  V30 844 O 81.4576 -2.21982 -5.25433 0
M  V30 845 O 80.3916 -4.00369 -4.49431 0
M  V30 846 H 84.2176 -2.65486 -1.47482 0
M  V30 847 H 81.8026 -1.33666 -0.667362 0
M  V30 848 H 83.6846 -1.84329 -3.78947 0
M  V30 849 H 82.3596 -0.850076 -3.12339 0
M  V30 850 H 81.2666 -2.99377 -2.2433 0
M  V30 851 H 82.5996 -3.92704 -2.96723 0
M  V30 852 N 84.2517 0.741722 -1.39055 0
M  V30 853 C 85.4767 1.53607 -1.39354 0
M  V30 854 C 85.9017 1.88096 0.0116905 0
M  V30 855 O 85.2597 1.5143 0.996924 0
M  V30 856 C 85.3077 2.80441 -2.26682 0
M  V30 857 O 84.4117 3.76088 -1.69208 0
M  V30 858 H 83.7527 0.464142 -0.474835 0
M  V30 859 H 86.2827 0.915665 -1.82967 0
M  V30 860 H 86.2927 3.29246 -2.40959 0
M  V30 861 H 84.9677 2.5467 -3.2881 0
M  V30 862 H 83.5447 3.34833 -1.64138 0
M  V30 863 N 85.7298 1.2412 0.971189 0
M  V30 864 C 86.6598 1.05508 2.08304 0
M  V30 865 C 87.6408 -0.0308864 1.70072 0
M  V30 866 O 88.8258 0.135521 1.93727 0
M  V30 867 C 85.9558 0.655365 3.4106 0
M  V30 868 C 84.9098 1.68971 3.93234 0
M  V30 869 C 84.2358 1.14516 5.22293 0
M  V30 870 C 85.5358 3.08487 4.21465 0
M  V30 871 H 87.2298 1.98507 2.24132 0
M  V30 872 H 84.7758 0.955821 1.07704 0
M  V30 873 H 86.7288 0.51217 4.18276 0
M  V30 874 H 85.4528 -0.31032 3.25122 0
M  V30 875 H 84.1118 1.82106 3.18171 0
M  V30 876 H 83.7598 0.170189 5.02712 0
M  V30 877 H 83.4598 1.83635 5.58168 0
M  V30 878 H 84.9838 1.01401 6.02121 0
M  V30 879 H 86.3978 2.98601 4.89398 0
M  V30 880 H 84.7948 3.74926 4.68562 0
M  V30 881 H 85.8648 3.56787 3.28376 0
M  V30 882 N 87.2079 -1.17134 1.05439 0
M  V30 883 C 88.6239 -1.39454 0.776201 0
M  V30 884 C 88.8239 -1.91454 -0.628307 0
M  V30 885 O 87.8799 -2.10777 -1.39031 0
M  V30 886 C 89.1929 -2.38305 1.83388 0
M  V30 887 C 90.7409 -2.52006 1.85639 0
M  V30 888 C 91.2159 -3.54133 2.90437 0
M  V30 889 N 92.7069 -3.61653 2.89415 0
M  V30 890 C 93.4419 -4.4044 3.67152 0
M  V30 891 N 92.9379 -5.22721 4.54681 0
M  V30 892 N 94.7309 -4.35337 3.55581 0
M  V30 893 H 86.8819 -0.817134 1.96053 0
M  V30 894 H 89.1449 -0.421626 0.849079 0
M  V30 895 H 88.8509 -2.07173 2.84204 0
M  V30 896 H 88.7249 -3.37841 1.67761 0
M  V30 897 H 91.1119 -2.82447 0.85486 0
M  V30 898 H 91.1929 -1.52537 2.05344 0
M  V30 899 H 90.8369 -3.24431 3.90777 0
M  V30 900 H 90.7669 -4.53313 2.67983 0
M  V30 901 H 93.2579 -3.02909 2.25952 0
M  V30 902 H 93.5709 -5.80027 5.10674 0
M  V30 903 H 91.9159 -5.22093 4.58741 0
M  V30 904 H 95.1069 -3.70112 2.86592 0
M  V30 905 H 95.2799 -4.96494 4.1641 0
M  V30 906 N 88.686 -0.835752 -1.33615 0
M  V30 907 C 89.649 -0.272 -2.2758 0
M  V30 908 C 90.649 0.557487 -1.50827 0
M  V30 909 O 91.839 0.37173 -1.70188 0
M  V30 910 C 88.971 0.617173 -3.35267 0
M  V30 911 H 90.164 -1.10111 -2.78954 0
M  V30 912 H 87.717 -0.608594 -1.43965 0
M  V30 913 H 88.452 1.46884 -2.89129 0
M  V30 914 H 88.237 0.0237066 -3.92093 0
M  V30 915 H 89.727 1.005 -4.05326 0
M  V30 916 N 90.1641 1.46063 -0.591896 0
M  V30 917 C 91.3921 2.06717 -0.0868936 0
M  V30 918 C 91.8071 1.43916 1.22203 0
M  V30 919 O 91.1641 0.547698 1.74088 0
M  V30 920 C 91.2151 3.6142 0.0758725 0
M  V30 921 O 90.9361 4.21874 -1.18126 0
M  V30 922 C 92.4371 4.39025 0.61416 0
M  V30 923 H 89.6571 0.668162 -0.0616518 0
M  V30 924 H 92.2011 1.8755 -0.815175 0
M  V30 925 H 90.3561 3.79983 0.754413 0
M  V30 926 H 90.7701 5.14861 -1.00092 0
M  V30 927 H 92.2441 5.4783 0.677193 0
M  V30 928 H 92.7211 4.07708 1.63312 0
M  V30 929 H 93.3271 4.2529 -0.0298142 0
M  V30 930 N 91.6422 0.330177 1.54103 0
M  V30 931 C 92.8722 -0.271784 2.04805 0
M  V30 932 C 93.2802 -1.45816 1.20559 0
M  V30 933 O 92.6232 -1.82247 0.2306 0
M  V30 934 C 92.6852 -0.763238 3.51305 0
M  V30 935 C 92.3492 0.301705 4.56003 0
M  V30 936 C 93.3462 1.13999 5.07248 0
M  V30 937 C 91.0312 0.451793 5.00264 0
M  V30 938 C 93.0252 2.11402 6.01322 0
M  V30 939 C 90.7122 1.42924 5.94151 0
M  V30 940 C 91.7102 2.25882 6.44567 0
M  V30 941 O 91.3982 3.21965 7.3661 0
M  V30 942 H 91.1302 -0.058693 0.673447 0
M  V30 943 H 93.6842 0.476395 1.99799 0
M  V30 944 H 91.9142 -1.56244 3.5373 0
M  V30 945 H 93.6032 -1.28427 3.85047 0
M  V30 946 H 94.3692 1.03505 4.73827 0
M  V30 947 H 90.2482 -0.184044 4.60632 0
M  V30 948 H 93.7922 2.76192 6.40596 0
M  V30 949 H 89.6892 1.53479 6.26988 0
M  V30 950 H 90.4572 3.17281 7.54503 0
M  V30 951 N 93.1203 -1.57491 0.0584922 0
M  V30 952 C 94.5363 -1.56792 -0.298091 0
M  V30 953 C 94.7363 -1.06679 -1.70944 0
M  V30 954 O 93.7923 -0.726672 -2.41818 0
M  V30 955 C 95.1053 -3.00461 -0.119879 0
M  V30 956 C 96.6533 -3.1242 -0.190428 0
M  V30 957 C 97.1283 -4.57982 -0.0406567 0
M  V30 958 N 98.6193 -4.63099 -0.0966958 0
M  V30 959 C 99.3543 -5.734 -0.00502943 0
M  V30 960 N 98.8503 -6.9266 0.139402 0
M  V30 961 N 100.643 -5.62067 -0.0611391 0
M  V30 962 H 92.7943 -1.88386 0.98105 0
M  V30 963 H 95.0573 -0.867865 0.381463 0
M  V30 964 H 94.7633 -3.41187 0.85349 0
M  V30 965 H 94.6373 -3.66843 -0.877833 0
M  V30 966 H 97.0243 -2.71589 -1.15427 0
M  V30 967 H 97.1053 -2.48702 0.598405 0
M  V30 968 H 96.7493 -4.995 0.919897 0
M  V30 969 H 96.6793 -5.19715 -0.848727 0
M  V30 970 H 99.1703 -3.77331 -0.207277 0
M  V30 971 H 99.4833 -7.72536 0.201855 0
M  V30 972 H 97.8283 -6.94781 0.174586 0
M  V30 973 H 101.019 -4.67782 -0.172583 0
M  V30 974 H 101.192 -6.47999 0.0137562 0
M  V30 975 N 94.5984 0.214957 -1.56127 0
M  V30 976 C 95.5084 1.28727 -1.96129 0
M  V30 977 C 96.5244 1.50916 -0.866044 0
M  V30 978 O 97.7004 1.63918 -1.17016 0
M  V30 979 C 94.7654 2.61569 -2.27558 0
M  V30 980 C 93.8264 2.47625 -3.50685 0
M  V30 981 C 93.0594 3.74132 -3.80606 0
M  V30 982 O 93.2824 4.77438 -3.12104 0
M  V30 983 O 92.2164 3.70849 -4.74083 0
M  V30 984 H 96.0424 0.977855 -2.87527 0
M  V30 985 H 93.6274 0.418358 -1.43423 0
M  V30 986 H 95.5094 3.40012 -2.48938 0
M  V30 987 H 94.1844 2.92178 -1.39332 0
M  V30 988 H 93.0914 1.67361 -3.34576 0
M  V30 989 H 94.4244 2.21954 -4.39315 0
M  V30 990 N 96.0765 1.50051 0.48192 0
M  V30 991 C 97.3245 1.60181 1.23234 0
M  V30 992 C 97.6455 0.299176 1.92691 0
M  V30 993 O 96.9155 -0.682708 1.83619 0
M  V30 994 H 95.4955 0.590232 0.457859 0
M  V30 995 H 98.1575 1.86775 0.556881 0
M  V30 996 H 97.2535 2.40753 1.98607 0
M  V30 997 N 97.5546 -0.734337 1.39446 0
M  V30 998 C 98.8016 -1.49391 1.36706 0
M  V30 999 C 99.1296 -1.94465 -0.0367813 0
M  V30 1000 O 98.3846 -1.67154 -1.01774 0
M  V30 1001 C 98.6836 -2.74711 2.28623 0
M  V30 1002 C 98.3496 -2.48501 3.76242 0
M  V30 1003 C 97.0116 -2.41062 4.16464 0
M  V30 1004 C 99.3636 -2.26098 4.69606 0
M  V30 1005 C 96.6916 -2.09262 5.48112 0
M  V30 1006 C 99.0436 -1.95814 6.01531 0
M  V30 1007 C 97.7076 -1.86845 6.40816 0
M  V30 1008 H 96.9776 -0.546661 0.500243 0
M  V30 1009 H 99.6246 -0.842788 1.71957 0
M  V30 1010 H 97.9296 -3.44569 1.86492 0
M  V30 1011 H 99.6266 -3.32741 2.23796 0
M  V30 1012 H 96.2166 -2.55169 3.44364 0
M  V30 1013 H 100.401 -2.30812 4.39363 0
M  V30 1014 H 95.6566 -2.00841 5.77471 0
M  V30 1015 H 99.8306 -1.77488 6.73403 0
M  V30 1016 H 97.4576 -1.6197 7.42745 0
M  V30 1017 N 99.0327 -1.24633 -0.964593 0
M  V30 1018 C 100.263 -1.11339 -1.74032 0
M  V30 1019 C 100.671 0.336593 -1.86182 0
M  V30 1020 O 100.014 1.24389 -1.35178 0
M  V30 1021 C 100.076 -1.68284 -3.1768 0
M  V30 1022 C 99.7397 -3.17196 -3.28992 0
M  V30 1023 C 100.737 -4.14308 -3.14078 0
M  V30 1024 C 98.4217 -3.57215 -3.53133 0
M  V30 1025 C 100.416 -5.4942 -3.23135 0
M  V30 1026 C 98.1027 -4.92468 -3.61827 0
M  V30 1027 C 99.1007 -5.8838 -3.46841 0
M  V30 1028 O 98.7887 -7.21173 -3.55197 0
M  V30 1029 H 98.5207 -0.389551 -0.552472 0
M  V30 1030 H 101.075 -1.65282 -1.21946 0
M  V30 1031 H 99.3047 -1.08777 -3.71085 0
M  V30 1032 H 100.994 -1.50234 -3.77074 0
M  V30 1033 H 101.76 -3.84731 -2.95308 0
M  V30 1034 H 97.6387 -2.83063 -3.63863 0
M  V30 1035 H 101.183 -6.24263 -3.11355 0
M  V30 1036 H 97.0797 -5.21714 -3.80111 0
M  V30 1037 H 97.8477 -7.29135 -3.71892 0
M  V30 1038 N 100.511 1.16574 -1.06058 0
M  V30 1039 C 101.459 2.22941 -0.663343 0
M  V30 1040 C 102.453 1.66358 0.319593 0
M  V30 1041 O 103.659 1.7905 0.184713 0
M  V30 1042 H 100.034 0.725907 -0.196376 0
M  V30 1043 H 102.005 2.53736 -1.57037 0
M  V30 1044 C 100.754 3.47642 -0.0632808 0
M  V30 1045 H 100.077 3.91493 -0.810733 0
M  V30 1046 H 101.517 4.2363 0.177177 0
M  V30 1047 C 99.9758 3.1509 1.19248 0
M  V30 1048 O 100.506 3.30673 2.28075 0
M  V30 1049 N 98.7118 2.6924 1.09353 0
M  V30 1050 H 98.2588 2.5676 0.207912 0
M  V30 1051 H 98.2168 2.47833 1.93458 0
M  V30 1052 N 101.989 0.842826 1.3317 0
M  V30 1053 C 102.899 0.281444 2.32906 0
M  V30 1054 C 103.915 -0.594587 1.63526 0
M  V30 1055 O 105.091 -0.49777 1.95152 0
M  V30 1056 C 102.156 -0.530929 3.42611 0
M  V30 1057 C 101.217 0.369843 4.27704 0
M  V30 1058 C 100.45 -0.403853 5.3217 0
M  V30 1059 O 100.673 -1.63513 5.46461 0
M  V30 1060 O 99.6069 0.224199 6.01482 0
M  V30 1061 H 103.433 1.10744 2.82789 0
M  V30 1062 H 101.018 0.60545 1.36582 0
M  V30 1063 H 102.9 -0.992437 4.09547 0
M  V30 1064 H 101.575 -1.33392 2.94938 0
M  V30 1065 H 100.482 0.879275 3.6362 0
M  V30 1066 H 101.815 1.13771 4.78871 0
M  V30 1067 N 103.467 -1.45747 0.599634 0
M  V30 1068 C 104.697 -2.06369 0.0977132 0
M  V30 1069 C 105.105 -1.44624 -1.21985 0
M  V30 1070 O 104.448 -0.551831 -1.75216 0
M  V30 1071 C 104.51 -3.59284 -0.124673 0
M  V30 1072 C 104.174 -4.43318 1.10987 0
M  V30 1073 C 105.171 -4.78796 2.02609 0
M  V30 1074 C 102.856 -4.84194 1.33647 0
M  V30 1075 C 104.85 -5.53997 3.15224 0
M  V30 1076 C 102.537 -5.5915 2.46565 0
M  V30 1077 C 103.535 -5.93968 3.37182 0
M  V30 1078 O 103.223 -6.67405 4.48136 0
M  V30 1079 H 102.955 -0.673122 0.0623153 0
M  V30 1080 H 105.509 -1.88104 0.824981 0
M  V30 1081 H 103.739 -3.75919 -0.906745 0
M  V30 1082 H 105.428 -4.01775 -0.577201 0
M  V30 1083 H 106.194 -4.47781 1.86325 0
M  V30 1084 H 102.073 -4.56534 0.64016 0
M  V30 1085 H 105.617 -5.81091 3.85978 0
M  V30 1086 H 101.514 -5.89579 2.62805 0
M  V30 1087 H 102.282 -6.85847 4.46717 0
M  V30 1088 N 104.945 -0.338344 -1.53925 0
M  V30 1089 C 105.878 0.563758 -2.21127 0
M  V30 1090 C 106.856 1.10433 -1.19345 0
M  V30 1091 O 108.04 1.16557 -1.48144 0
M  V30 1092 C 105.167 1.77505 -2.88461 0
M  V30 1093 C 104.213 1.3644 -4.04087 0
M  V30 1094 S 105.046 0.388593 -5.34088 0
M  V30 1095 C 106.202 1.60683 -6.04923 0
M  V30 1096 H 106.435 -0.00704546 -2.97299 0
M  V30 1097 H 103.968 -0.122418 -1.53914 0
M  V30 1098 H 105.926 2.46999 -3.27875 0
M  V30 1099 H 104.587 2.31706 -2.12064 0
M  V30 1100 H 103.78 2.26739 -4.50117 0
M  V30 1101 H 103.382 0.748998 -3.66423 0
M  V30 1102 H 105.674 2.54209 -6.28 0
M  V30 1103 H 106.617 1.18842 -6.98056 0
M  V30 1104 H 107.025 1.80052 -5.35015 0
M  V30 1105 N 106.423 1.57458 -0.0668435 0
M  V30 1106 C 107.355 2.09413 0.931601 0
M  V30 1107 C 108.368 1.02522 1.26464 0
M  V30 1108 O 109.557 1.30049 1.22269 0
M  V30 1109 C 106.657 2.53537 2.24882 0
M  V30 1110 C 105.83 3.83944 2.09537 0
M  V30 1111 C 104.889 4.14214 3.2452 0
M  V30 1112 O 103.915 4.83891 2.9973 0
M  V30 1113 N 105.117 3.67367 4.49469 0
M  V30 1114 H 107.882 2.95699 0.488048 0
M  V30 1115 H 105.443 1.61462 0.119009 0
M  V30 1116 H 107.435 2.70853 3.00701 0
M  V30 1117 H 106.005 1.72415 2.60753 0
M  V30 1118 H 105.225 3.76057 1.18215 0
M  V30 1119 H 106.513 4.69312 1.96529 0
M  V30 1120 H 105.911 3.11068 4.72497 0
M  V30 1121 H 104.468 3.89891 5.2233 0
M  V30 1122 N 107.901 -0.206675 1.56239 0
M  V30 1123 C 109.317 -0.557025 1.49564 0
M  V30 1124 C 109.517 -1.86424 0.764735 0
M  V30 1125 O 108.573 -2.50584 0.310491 0
M  V30 1126 C 109.886 -0.622478 2.94186 0
M  V30 1127 C 111.434 -0.712099 3.04792 0
M  V30 1128 C 111.909 -0.808767 4.50803 0
M  V30 1129 N 113.4 -0.8726 4.54907 0
M  V30 1130 C 114.135 -0.967365 5.65181 0
M  V30 1131 N 113.631 -1.02515 6.85173 0
M  V30 1132 N 115.424 -1.00366 5.53067 0
M  V30 1133 H 107.575 0.650943 2.02179 0
M  V30 1134 H 109.838 0.230387 0.919579 0
M  V30 1135 H 109.544 0.268727 3.50672 0
M  V30 1136 H 109.418 -1.4811 3.46905 0
M  V30 1137 H 111.805 -1.59374 2.48363 0
M  V30 1138 H 111.886 0.172489 2.55218 0
M  V30 1139 H 111.53 0.0684754 5.07854 0
M  V30 1140 H 111.46 -1.70899 4.98098 0
M  V30 1141 H 113.951 -0.837657 3.68499 0
M  V30 1142 H 114.264 -1.09765 7.64965 0
M  V30 1143 H 112.609 -0.994026 6.87855 0
M  V30 1144 H 115.8 -0.95527 4.58249 0
M  V30 1145 H 115.973 -1.07405 6.39037 0
M  V30 1146 N 109.379 -1.50304 -0.473955 0
M  V30 1147 C 110.625 -1.61389 -1.22806 0
M  V30 1148 C 110.958 -0.311955 -1.91678 0
M  V30 1149 O 110.233 0.686384 -1.81986 0
M  V30 1150 C 110.516 -2.79219 -2.27396 0
M  V30 1151 C 110.369 -4.19286 -1.62848 0
M  V30 1152 C 111.688 -2.92614 -3.28732 0
M  V30 1153 H 108.807 -0.587399 -0.445119 0
M  V30 1154 H 111.449 -1.82681 -0.522265 0
M  V30 1155 H 109.599 -2.61195 -2.87592 0
M  V30 1156 H 111.271 -4.48892 -1.06271 0
M  V30 1157 H 109.514 -4.23677 -0.931693 0
M  V30 1158 H 110.185 -4.97655 -2.38838 0
M  V30 1159 H 112.661 -3.09105 -2.78556 0
M  V30 1160 H 111.537 -3.76688 -3.99246 0
M  V30 1161 H 111.798 -2.03107 -3.92683 0
M  V30 1162 N 110.857 0.726932 -1.39834 0
M  V30 1163 C 112.104 1.48664 -1.37496 0
M  V30 1164 C 112.432 1.94482 0.0264678 0
M  V30 1165 O 111.687 1.67692 1.00886 0
M  V30 1166 C 111.986 2.73495 -2.30077 0
M  V30 1167 C 111.652 2.46502 -3.77555 0
M  V30 1168 C 110.314 2.3885 -4.17737 0
M  V30 1169 C 112.666 2.23604 -4.70798 0
M  V30 1170 C 109.994 2.06352 -5.49214 0
M  V30 1171 C 112.346 1.92622 -6.02561 0
M  V30 1172 C 111.01 1.83444 -6.41798 0
M  V30 1173 H 110.28 0.544001 -0.503135 0
M  V30 1174 H 112.927 0.833657 -1.72402 0
M  V30 1175 H 111.232 3.43575 -1.88317 0
M  V30 1176 H 112.929 3.31549 -2.25558 0
M  V30 1177 H 109.519 2.5334 -3.45712 0
M  V30 1178 H 113.703 2.28479 -4.40581 0
M  V30 1179 H 108.959 1.97776 -5.78528 0
M  V30 1180 H 113.133 1.73914 -6.74334 0
M  V30 1181 H 110.76 1.58029 -7.43593 0
M  V30 1182 N 112.336 1.25143 0.95797 0
M  V30 1183 C 113.283 1.05235 2.05412 0
M  V30 1184 C 114.253 -0.0374561 1.66058 0
M  V30 1185 O 115.438 0.119073 1.90428 0
M  V30 1186 C 112.578 0.673589 3.38462 0
M  V30 1187 C 111.691 1.8379 3.90954 0
M  V30 1188 C 110.826 1.40381 5.12315 0
M  V30 1189 C 109.865 2.53746 5.57027 0
M  V30 1190 N 109.002 2.11136 6.69601 0
M  V30 1191 H 113.842 1.99048 2.21774 0
M  V30 1192 H 111.379 0.991277 1.08683 0
M  V30 1193 H 113.337 0.434964 4.14926 0
M  V30 1194 H 111.967 -0.227554 3.21997 0
M  V30 1195 H 111.019 2.18992 3.11041 0
M  V30 1196 H 112.331 2.68937 4.20089 0
M  V30 1197 H 111.485 1.12464 5.96185 0
M  V30 1198 H 110.224 0.523015 4.84887 0
M  V30 1199 H 109.229 2.82412 4.71724 0
M  V30 1200 H 110.454 3.42398 5.86464 0
M  V30 1201 H 108.4 1.25468 6.4389 0
M  V30 1202 H 108.317 2.89832 6.98236 0
M  V30 1203 H 109.585 1.86385 7.56889 0
M  V30 1204 N 113.814 -1.1601 1.06675 0
M  V30 1205 C 115.044 -1.90251 0.805497 0
M  V30 1206 C 115.452 -1.77891 -0.64431 0
M  V30 1207 O 114.795 -1.12383 -1.45313 0
M  V30 1208 C 114.857 -3.41419 1.12576 0
M  V30 1209 C 114.521 -3.77564 2.57477 0
M  V30 1210 C 115.518 -3.79161 3.55715 0
M  V30 1211 C 113.203 -4.08079 2.92877 0
M  V30 1212 C 115.197 -4.10767 4.8739 0
M  V30 1213 C 112.884 -4.39351 4.24751 0
M  V30 1214 C 113.882 -4.40675 5.21818 0
M  V30 1215 O 113.57 -4.71202 6.51325 0
M  V30 1216 H 113.302 -0.610018 0.291297 0
M  V30 1217 H 115.856 -1.47958 1.4247 0
M  V30 1218 H 114.086 -3.84079 0.449503 0
M  V30 1219 H 115.775 -3.9694 0.84814 0
M  V30 1220 H 116.541 -3.55693 3.29708 0
M  V30 1221 H 112.42 -4.06211 2.17976 0
M  V30 1222 H 115.964 -4.11715 5.63148 0
M  V30 1223 H 111.861 -4.62285 4.50514 0
M  V30 1224 H 112.629 -4.88996 6.56373 0
M  V30 1225 N 115.292 -0.849877 -1.32721 0
M  V30 1226 C 116.222 -0.306308 -2.31482 0
M  V30 1227 C 117.203 0.591952 -1.59468 0
M  V30 1228 O 118.388 0.513199 -1.87296 0
M  V30 1229 C 115.518 0.510204 -3.43532 0
M  V30 1230 C 114.472 -0.293209 -4.26994 0
M  V30 1231 C 113.798 0.647743 -5.30762 0
M  V30 1232 C 115.098 -1.51634 -4.99804 0
M  V30 1233 H 116.792 -1.13153 -2.77195 0
M  V30 1234 H 114.338 -0.545553 -1.33266 0
M  V30 1235 H 116.291 0.900856 -4.11658 0
M  V30 1236 H 115.015 1.36874 -2.96535 0
M  V30 1237 H 113.674 -0.665555 -3.60508 0
M  V30 1238 H 113.322 1.50299 -4.8002 0
M  V30 1239 H 113.022 0.11422 -5.87489 0
M  V30 1240 H 114.546 1.03567 -6.01753 0
M  V30 1241 H 115.96 -1.19824 -5.60638 0
M  V30 1242 H 114.357 -1.98745 -5.66234 0
M  V30 1243 H 115.427 -2.28018 -4.27943 0
M  V30 1244 N 116.77 1.45427 -0.607355 0
M  V30 1245 C 118.018 2.01841 -0.102253 0
M  V30 1246 C 118.339 1.47832 1.27164 0
M  V30 1247 O 117.609 0.672497 1.83995 0
M  V30 1248 H 116.189 0.746188 -0.0348101 0
M  V30 1249 H 118.851 1.78229 -0.7887 0
M  V30 1250 H 117.947 3.12057 -0.0518585 0
M  V30 1251 N 118.248 0.346503 1.53744 0
M  V30 1252 C 119.158 -0.517293 2.28826 0
M  V30 1253 C 120.174 -1.10935 1.3405 0
M  V30 1254 O 121.35 -1.1244 1.6709 0
M  V30 1255 C 118.415 -1.65098 3.04866 0
M  V30 1256 C 117.476 -1.0884 4.15274 0
M  V30 1257 C 116.709 -2.16806 4.87679 0
M  V30 1258 O 116.932 -3.3758 4.59778 0
M  V30 1259 O 115.866 -1.80934 5.74061 0
M  V30 1260 H 119.692 0.0931396 3.03557 0
M  V30 1261 H 117.277 0.111458 1.48984 0
M  V30 1262 H 119.159 -2.31053 3.5241 0
M  V30 1263 H 117.834 -2.24717 2.32989 0
M  V30 1264 H 116.741 -0.3933 3.72027 0
M  V30 1265 H 118.074 -0.537036 4.89261 0
M  V30 1266 N 119.726 -1.57421 0.075193 0
M  V30 1267 C 120.658 -2.09904 -0.920483 0
M  V30 1268 C 121.671 -1.03191 -1.25918 0
M  V30 1269 O 122.86 -1.30695 -1.21577 0
M  V30 1270 C 119.96 -2.54726 -2.23534 0
M  V30 1271 C 119.133 -3.8505 -2.07498 0
M  V30 1272 C 118.192 -4.15929 -3.22319 0
M  V30 1273 O 117.218 -4.85474 -2.9716 0
M  V30 1274 N 118.42 -3.69745 -4.47514 0
M  V30 1275 H 121.185 -2.95954 -0.472359 0
M  V30 1276 H 118.746 -1.61523 -0.110444 0
M  V30 1277 H 120.738 -2.72443 -2.9926 0
M  V30 1278 H 119.308 -1.73795 -2.59835 0
M  V30 1279 H 118.528 -3.76679 -1.16219 0
M  V30 1280 H 119.816 -4.70348 -1.94038 0
M  V30 1281 H 119.214 -3.13569 -4.7084 0
M  V30 1282 H 117.771 -3.92655 -5.20255 0
M  V30 1283 N 121.204 0.198386 -1.56346 0
M  V30 1284 C 122.452 0.91747 -1.80075 0
M  V30 1285 C 122.773 1.83929 -0.647692 0
M  V30 1286 O 122.043 1.93029 0.334166 0
M  V30 1287 H 120.623 0.341774 -0.664228 0
M  V30 1288 H 123.285 0.204684 -1.93822 0
M  V30 1289 H 122.381 1.51055 -2.7311 0
M  V30 1290 N 122.682 1.50554 0.465978 0
M  V30 1291 C 123.928 1.62038 1.21949 0
M  V30 1292 C 124.261 0.322116 1.9151 0
M  V30 1293 O 123.536 -0.676723 1.82348 0
M  V30 1294 C 123.819 2.80421 2.25912 0
M  V30 1295 C 123.672 4.20144 1.60622 0
M  V30 1296 C 124.991 2.94354 3.27176 0
M  V30 1297 H 122.11 0.589752 0.441998 0
M  V30 1298 H 124.752 1.82956 0.51257 0
M  V30 1299 H 122.902 2.62717 2.86203 0
M  V30 1300 H 124.574 4.49449 1.03889 0
M  V30 1301 H 122.817 4.24165 0.909211 0
M  V30 1302 H 123.488 4.98914 2.36196 0
M  V30 1303 H 125.964 3.10578 2.76913 0
M  V30 1304 H 124.84 3.788 3.97242 0
M  V30 1305 H 125.101 2.05186 3.916 0
M  V30 1306 N 124.16 -0.719506 1.40217 0
M  V30 1307 C 125.576 -1.02707 1.22161 0
M  V30 1308 C 125.776 -2.0128 0.0940557 0
M  V30 1309 O 124.832 -2.46452 -0.549318 0
M  V30 1310 C 126.145 -1.57454 2.56181 0
M  V30 1311 C 127.693 -1.69458 2.63159 0
M  V30 1312 C 128.168 -2.27611 3.97438 0
M  V30 1313 N 129.659 -2.35002 3.99159 0
M  V30 1314 C 130.394 -2.80972 4.99842 0
M  V30 1315 N 129.89 -3.26723 6.10921 0
M  V30 1316 N 131.683 -2.80321 4.87213 0
M  V30 1317 H 123.834 -0.0660492 2.12297 0
M  V30 1318 H 126.097 -0.0919077 0.943534 0
M  V30 1319 H 125.803 -0.924873 3.39321 0
M  V30 1320 H 125.677 -2.56036 2.76993 0
M  V30 1321 H 128.064 -2.33543 1.80393 0
M  V30 1322 H 128.145 -0.694867 2.46181 0
M  V30 1323 H 127.789 -1.6415 4.80643 0
M  V30 1324 H 127.719 -3.2829 4.11744 0
M  V30 1325 H 130.21 -2.02685 3.18947 0
M  V30 1326 H 130.523 -3.60355 6.8364 0
M  V30 1327 H 128.868 -3.24692 6.14492 0
M  V30 1328 H 132.059 -2.43912 3.9953 0
M  V30 1329 H 132.232 -3.15831 5.65822 0
M  V30 1330 N 125.638 -1.25649 -0.95132 0
M  V30 1331 C 127.049 -1.09654 -1.51106 0
M  V30 1332 C 127.4 0.326615 -1.93462 0
M  V30 1333 O 126.525 1.21697 -1.78938 0
M  V30 1334 C 127.12 -1.98437 -2.74605 0
M  V30 1335 C 125.679 -1.86618 -3.2688 0
M  V30 1336 C 124.826 -1.9239 -1.99703 0
M  V30 1337 H 127.777 -1.38887 -0.767865 0
M  V30 1338 H 127.798 -1.5263 -3.48546 0
M  V30 1339 H 127.31 -3.02009 -2.43746 0
M  V30 1340 H 125.411 -0.859421 -3.62553 0
M  V30 1341 H 125.524 -2.71607 -3.94673 0
M  V30 1342 H 123.888 -1.36317 -2.15151 0
M  V30 1343 H 124.671 -2.97573 -1.71188 0
M  V30 1344 N 127.117 1.15442 -1.07289 0
M  V30 1345 C 128.533 1.38201 -0.798288 0
M  V30 1346 C 128.733 1.92429 0.597769 0
M  V30 1347 O 127.789 2.12962 1.3566 0
M  V30 1348 C 129.102 2.35357 -1.87156 0
M  V30 1349 C 130.65 2.49021 -1.89624 0
M  V30 1350 C 131.125 3.49468 -2.96034 0
M  V30 1351 N 132.616 3.57003 -2.95132 0
M  V30 1352 C 133.351 4.34543 -3.74112 0
M  V30 1353 N 132.847 5.15421 -4.6294 0
M  V30 1354 N 134.64 4.29625 -3.62462 0
M  V30 1355 H 126.791 0.78584 -1.97328 0
M  V30 1356 H 129.054 0.408065 -0.855679 0
M  V30 1357 H 128.76 2.02626 -2.87464 0
M  V30 1358 H 128.634 3.35129 -1.73114 0
M  V30 1359 H 131.021 2.81051 -0.899687 0
M  V30 1360 H 131.102 1.4925 -2.07745 0
M  V30 1361 H 130.746 3.18173 -3.95889 0
M  V30 1362 H 130.676 4.48992 -2.75161 0
M  V30 1363 H 133.167 2.99276 -2.30743 0
M  V30 1364 H 133.48 5.7183 -5.19837 0
M  V30 1365 H 131.825 5.14729 -4.66989 0
M  V30 1366 H 135.016 3.65505 -2.92444 0
M  V30 1367 H 135.189 4.89807 -4.24256 0
M  V30 1368 N 128.595 0.856903 1.32268 0
M  V30 1369 C 129.872 0.382583 1.91822 0
M  V30 1370 C 130.252 -1.13407 1.78051 0
M  V30 1371 O 129.6 -1.95673 1.18001 0
M  V30 1372 C 129.81 0.849446 3.38505 0
M  V30 1373 C 131.158 0.867936 4.15634 0
M  V30 1374 O 132.182 0.794232 3.47232 0
M  V30 1375 O 131.041 0.972286 5.37781 0
M  V30 1376 H 128.135 0.112014 0.819379 0
M  V30 1377 H 130.681 0.943952 1.41024 0
M  V30 1378 H 129.453 1.89267 3.42482 0
M  V30 1379 H 129.076 0.265652 3.96712 0
M  V30 1380 N 130.073 -1.45103 0.615059 0
M  V30 1381 C 131.003 -2.33339 -0.0865619 0
M  V30 1382 C 131.984 -1.4727 -0.851209 0
M  V30 1383 O 133.169 -1.76026 -0.820281 0
M  V30 1384 C 130.299 -3.30095 -1.07956 0
M  V30 1385 C 129.253 -4.25858 -0.427628 0
M  V30 1386 C 128.579 -5.12361 -1.5294 0
M  V30 1387 C 129.879 -5.18165 0.655944 0
M  V30 1388 H 131.573 -2.92254 0.650224 0
M  V30 1389 H 129.119 -1.40532 0.314138 0
M  V30 1390 H 131.072 -3.90698 -1.57901 0
M  V30 1391 H 129.796 -2.69355 -1.84703 0
M  V30 1392 H 128.455 -3.66564 0.0510292 0
M  V30 1393 H 128.103 -4.47984 -2.28734 0
M  V30 1394 H 127.803 -5.77238 -1.09865 0
M  V30 1395 H 129.327 -5.75833 -2.03098 0
M  V30 1396 H 130.741 -5.72796 0.240257 0
M  V30 1397 H 129.138 -5.91559 1.00888 0
M  V30 1398 H 130.208 -4.60144 1.52957 0
M  V30 1399 N 131.551 -0.354651 -1.53558 0
M  V30 1400 C 132.776 0.242153 -2.05981 0
M  V30 1401 C 133.201 1.42553 -1.2272 0
M  V30 1402 O 132.559 1.79656 -0.243604 0
M  V30 1403 C 132.607 0.624367 -3.55154 0
M  V30 1404 O 131.711 1.72301 -3.74681 0
M  V30 1405 H 131.052 0.0378432 -0.662921 0
M  V30 1406 H 133.582 -0.512087 -1.98088 0
M  V30 1407 H 133.592 0.898433 -3.97985 0
M  V30 1408 H 132.267 -0.240989 -4.15201 0
M  V30 1409 H 130.844 1.44535 -3.4375 0
M  V30 1410 N 133.029 1.57378 -0.0835403 0
M  V30 1411 C 133.992 2.12252 0.864959 0
M  V30 1412 C 134.992 1.04916 1.21858 0
M  V30 1413 O 136.182 1.30853 1.14991 0
M  V30 1414 C 133.314 2.63358 2.16461 0
M  V30 1415 H 134.507 2.97371 0.388676 0
M  V30 1416 H 132.06 1.55423 0.165317 0
M  V30 1417 H 132.795 1.81727 2.686 0
M  V30 1418 H 132.58 3.41826 1.92087 0
M  V30 1419 H 134.07 3.05847 2.84337 0
M  V30 1420 N 134.507 -0.190092 1.56449 0
M  V30 1421 C 135.756 -0.907912 1.80111 0
M  V30 1422 C 136.069 -1.84214 0.657619 0
M  V30 1423 O 137.275 -2.60094 0.778663 0
M  V30 1424 C 135.731 -1.66485 3.19078 0
M  V30 1425 C 135.339 -0.7752 4.41242 0
M  V30 1426 C 137.083 -2.37201 3.52045 0
M  V30 1427 C 134.99 -1.53129 5.71231 0
M  V30 1428 H 133.92 -0.34276 0.671589 0
M  V30 1429 H 136.571 -0.161109 1.82791 0
M  V30 1430 H 134.953 -2.45572 3.10661 0
M  V30 1431 H 136.127 -0.0226298 4.60794 0
M  V30 1432 H 134.442 -0.178627 4.16017 0
M  V30 1433 H 137.039 -2.94329 4.46402 0
M  V30 1434 H 137.382 -3.11632 2.76028 0
M  V30 1435 H 137.915 -1.65075 3.61932 0
M  V30 1436 H 134.654 -0.82967 6.50228 0
M  V30 1437 H 134.174 -2.25767 5.55688 0
M  V30 1438 H 135.853 -2.08377 6.12526 0
M  V30 1439 N 135.985 -1.50799 -0.457987 0
M  V30 1440 C 137.215 -1.65977 -1.23025 0
M  V30 1441 C 137.623 -0.347918 -1.85974 0
M  V30 1442 O 136.966 0.68148 -1.70592 0
M  V30 1443 C 137.028 -2.70309 -2.3701 0
M  V30 1444 C 136.692 -4.135 -1.94594 0
M  V30 1445 C 137.689 -4.98949 -1.46101 0
M  V30 1446 C 135.374 -4.5949 -2.02915 0
M  V30 1447 C 137.368 -6.28442 -1.06489 0
M  V30 1448 C 135.055 -5.88984 -1.62914 0
M  V30 1449 C 136.053 -6.73286 -1.1478 0
M  V30 1450 O 135.741 -8.00362 -0.75339 0
M  V30 1451 H 135.473 -0.56064 -0.377702 0
M  V30 1452 H 138.027 -1.97857 -0.551537 0
M  V30 1453 H 136.257 -2.337 -3.08093 0
M  V30 1454 H 137.946 -2.74574 -2.98938 0
M  V30 1455 H 138.712 -4.6463 -1.39084 0
M  V30 1456 H 134.591 -3.94009 -2.39328 0
M  V30 1457 H 138.135 -6.94194 -0.688488 0
M  V30 1458 H 134.032 -6.22822 -1.69595 0
M  V30 1459 H 134.8 -8.13744 -0.88108 0
M  V30 1460 N 137.463 0.71206 -1.40597 0
M  V30 1461 C 138.373 1.8562 -1.43466 0
M  V30 1462 C 139.389 1.70902 -0.326902 0
M  V30 1463 O 140.565 1.93105 -0.572043 0
M  V30 1464 C 137.63 3.21451 -1.29884 0
M  V30 1465 C 136.691 3.48398 -2.50833 0
M  V30 1466 C 135.924 4.77749 -2.3789 0
M  V30 1467 O 136.147 5.53089 -1.39459 0
M  V30 1468 O 135.081 5.05111 -3.27333 0
M  V30 1469 H 138.907 1.86155 -2.39958 0
M  V30 1470 H 136.492 0.86295 -1.21957 0
M  V30 1471 H 138.374 4.02579 -1.24531 0
M  V30 1472 H 137.049 3.21636 -0.364997 0
M  V30 1473 H 135.956 2.67265 -2.61763 0
M  V30 1474 H 137.289 3.53014 -3.4299 0
M  V30 1475 N 138.941 1.26152 0.944643 0
M  V30 1476 C 139.904 1.07474 2.0244 0
M  V30 1477 C 140.904 0.0242064 1.60782 0
M  V30 1478 O 142.094 0.267302 1.72137 0
M  V30 1479 C 139.226 0.633956 3.34953 0
M  V30 1480 H 140.419 2.03336 2.20442 0
M  V30 1481 H 137.972 1.087 1.12312 0
M  V30 1482 H 138.707 -0.326811 3.22649 0
M  V30 1483 H 138.492 1.39247 3.66542 0
M  V30 1484 H 139.982 0.52501 4.14287 0
M  V30 1485 N 140.419 -1.14872 1.07899 0
M  V30 1486 C 141.668 -1.85135 0.800499 0
M  V30 1487 C 141.981 -1.83547 -0.676014 0
M  V30 1488 O 143.187 -2.49548 -1.06948 0
M  V30 1489 C 141.643 -3.3231 1.38197 0
M  V30 1490 C 141.251 -3.42329 2.8899 0
M  V30 1491 C 142.995 -4.0772 1.18174 0
M  V30 1492 C 140.902 -4.83684 3.403 0
M  V30 1493 H 139.832 -0.693563 0.29578 0
M  V30 1494 H 142.483 -1.29532 1.29976 0
M  V30 1495 H 140.865 -3.87618 0.810431 0
M  V30 1496 H 142.039 -2.97097 3.52236 0
M  V30 1497 H 140.354 -2.80369 3.07867 0
M  V30 1498 H 142.951 -5.12049 1.5398 0
M  V30 1499 H 143.294 -4.16124 0.12117 0
M  V30 1500 H 143.827 -3.58696 1.71994 0
M  V30 1501 H 140.566 -4.80465 4.45907 0
M  V30 1502 H 140.086 -5.29474 2.81811 0
M  V30 1503 H 141.765 -5.52558 3.36584 0
M  V30 1504 N 141.898 -0.863906 -1.31812 0
M  V30 1505 C 143.309 -0.52522 -1.7916 0
M  V30 1506 C 143.66 0.957518 -1.71248 0
M  V30 1507 O 142.785 1.74734 -1.27659 0
M  V30 1508 C 143.38 -0.9466 -3.25307 0
M  V30 1509 C 141.939 -0.659668 -3.70574 0
M  V30 1510 C 141.086 -1.14126 -2.52726 0
M  V30 1511 H 144.037 -1.05022 -1.1898 0
M  V30 1512 H 144.058 -0.266766 -3.79564 0
M  V30 1513 H 143.57 -2.02579 -3.31034 0
M  V30 1514 H 141.671 0.408416 -3.70355 0
M  V30 1515 H 141.784 -1.23245 -4.62977 0
M  V30 1516 H 140.148 -0.561216 -2.4844 0
M  V30 1517 H 140.931 -2.22775 -2.61201 0
M  V30 1518 N 143.376 1.44774 -0.622745 0
M  V30 1519 C 144.306 2.33382 0.0741861 0
M  V30 1520 C 145.287 1.47719 0.843387 0
M  V30 1521 O 146.472 1.76458 0.810934 0
M  V30 1522 C 143.602 3.30663 1.06204 0
M  V30 1523 C 142.556 4.26079 0.405037 0
M  V30 1524 C 141.882 5.13165 1.5022 0
M  V30 1525 C 143.182 5.1781 -0.683414 0
M  V30 1526 H 144.876 2.91905 -0.665713 0
M  V30 1527 H 142.422 1.40363 -0.321587 0
M  V30 1528 H 144.375 3.9153 1.55827 0
M  V30 1529 H 143.099 2.70331 1.83272 0
M  V30 1530 H 141.758 3.66532 -0.0704683 0
M  V30 1531 H 141.406 4.49191 2.26355 0
M  V30 1532 H 141.106 5.77812 1.06803 0
M  V30 1533 H 142.63 5.76902 2.00041 0
M  V30 1534 H 144.044 5.72661 -0.270631 0
M  V30 1535 H 142.441 5.91015 -1.04023 0
M  V30 1536 H 143.511 4.59326 -1.55395 0
M  V30 1537 N 144.854 0.36279 1.53368 0
M  V30 1538 C 146.079 -0.231226 2.06107 0
M  V30 1539 C 146.504 -1.419 1.23474 0
M  V30 1540 O 145.862 -1.79524 0.253128 0
M  V30 1541 C 145.91 -0.605523 3.5548 0
M  V30 1542 O 145.014 -1.70312 3.7559 0
M  V30 1543 H 144.355 -0.034327 0.663112 0
M  V30 1544 H 146.885 0.522584 1.97814 0
M  V30 1545 H 146.895 -0.877314 3.98456 0
M  V30 1546 H 145.57 0.263004 4.15068 0
M  V30 1547 H 144.147 -1.4271 3.44512 0
M  V30 1548 N 146.332 -1.57332 0.0918853 0
M  V30 1549 C 147.743 -1.81496 -0.437739 0
M  V30 1550 C 148.094 -1.00727 -1.6837 0
M  V30 1551 O 147.219 -0.235694 -2.15113 0
M  V30 1552 C 147.814 -3.29197 -0.800939 0
M  V30 1553 C 146.373 -3.54136 -1.27532 0
M  V30 1554 C 145.52 -2.75979 -0.270392 0
M  V30 1555 H 148.471 -1.55494 0.317366 0
M  V30 1556 H 148.492 -3.42344 -1.66074 0
M  V30 1557 H 148.004 -3.87955 0.106078 0
M  V30 1558 H 146.105 -3.00705 -2.20016 0
M  V30 1559 H 146.218 -4.62792 -1.23938 0
M  V30 1560 H 144.582 -2.43349 -0.751872 0
M  V30 1561 H 145.365 -3.37484 0.629248 0
M  V30 1562 N 147.81 0.181792 -1.56548 0
M  V30 1563 C 149.058 0.89832 -1.81038 0
M  V30 1564 C 149.379 1.83232 -0.667164 0
M  V30 1565 O 148.649 1.93372 0.313673 0
M  V30 1566 H 147.229 0.33471 -0.667816 0
M  V30 1567 H 149.891 0.184116 -1.94028 0
M  V30 1568 H 148.987 1.4815 -2.74696 0
M  V30 1569 N 149.288 1.51039 0.449983 0
M  V30 1570 C 150.221 1.66105 1.56474 0
M  V30 1571 C 151.199 0.508776 1.54435 0
M  V30 1572 O 152.383 0.731005 1.73749 0
M  V30 1573 C 149.51 1.66304 2.9506 0
M  V30 1574 C 148.556 2.87346 3.15174 0
M  V30 1575 S 149.389 4.4835 2.92818 0
M  V30 1576 C 150.545 4.51274 4.33708 0
M  V30 1577 H 150.778 2.60397 1.43459 0
M  V30 1578 H 148.311 1.40565 0.638805 0
M  V30 1579 H 150.269 1.67103 3.74949 0
M  V30 1580 H 148.93 0.732108 3.05449 0
M  V30 1581 H 148.123 2.83849 4.16468 0
M  V30 1582 H 147.725 2.84223 2.43091 0
M  V30 1583 H 150.017 4.26136 5.26701 0
M  V30 1584 H 150.96 5.53017 4.42242 0
M  V30 1585 H 151.368 3.80738 4.16772 0
M  V30 1586 N 150.766 -0.704594 1.40972 0
M  V30 1587 C 151.991 -1.49858 1.43378 0
M  V30 1588 C 152.416 -1.88061 0.038184 0
M  V30 1589 O 151.774 -1.5402 -0.956425 0
M  V30 1590 C 151.822 -2.74333 2.34038 0
M  V30 1591 O 150.926 -3.7147 1.7912 0
M  V30 1592 H 150.267 -0.45139 0.486974 0
M  V30 1593 H 152.797 -0.866832 1.8533 0
M  V30 1594 H 152.807 -3.22741 2.49604 0
M  V30 1595 H 151.482 -2.45863 3.35446 0
M  V30 1596 H 150.059 -3.30363 1.72958 0
M  V30 1597 N 152.244 -1.26651 -0.937939 0
M  V30 1598 C 153.521 -1.0313 -1.66204 0
M  V30 1599 C 153.901 0.437256 -2.06522 0
M  V30 1600 O 153.249 1.41831 -1.79154 0
M  V30 1601 C 153.459 -1.98314 -2.87181 0
M  V30 1602 C 154.807 -2.27107 -3.58758 0
M  V30 1603 O 155.831 -1.96205 -2.97291 0
M  V30 1604 O 154.69 -2.79736 -4.69479 0
M  V30 1605 H 151.784 -0.392384 -0.727986 0
M  V30 1606 H 154.33 -1.37874 -0.989382 0
M  V30 1607 H 153.102 -2.97399 -2.54302 0
M  V30 1608 H 152.725 -1.64068 -3.6217 0
M  V30 1609 N 153.722 1.14298 -1.08507 0
M  V30 1610 C 154.652 2.21542 -0.737646 0
M  V30 1611 C 155.633 1.67773 0.280377 0
M  V30 1612 O 156.818 1.93616 0.150521 0
M  V30 1613 C 153.948 3.46988 -0.147259 0
M  V30 1614 C 152.902 4.13789 -1.09374 0
M  V30 1615 C 152.228 5.33449 -0.365524 0
M  V30 1616 C 153.528 4.62208 -2.4323 0
M  V30 1617 H 155.222 2.5086 -1.6343 0
M  V30 1618 H 152.768 1.20576 -0.787243 0
M  V30 1619 H 154.721 4.21262 0.107808 0
M  V30 1620 H 153.445 3.17037 0.784538 0
M  V30 1621 H 152.104 3.4147 -1.33393 0
M  V30 1622 H 151.752 4.99759 0.57011 0
M  V30 1623 H 151.452 5.79088 -0.996512 0
M  V30 1624 H 152.976 6.10485 -0.118534 0
M  V30 1625 H 154.39 5.27952 -2.23472 0
M  V30 1626 H 152.787 5.18553 -3.02031 0
M  V30 1627 H 153.857 3.77224 -3.04681 0
M  V30 1628 N 155.201 0.870884 1.31352 0
M  V30 1629 C 156.131 0.343096 2.30966 0
M  V30 1630 C 157.112 -0.566507 1.60389 0
M  V30 1631 O 158.297 -0.483336 1.88089 0
M  V30 1632 C 155.427 -0.455487 3.443 0
M  V30 1633 C 154.381 0.361103 4.26474 0
M  V30 1634 C 153.707 -0.563221 5.31725 0
M  V30 1635 C 155.007 1.59566 4.97329 0
M  V30 1636 H 156.701 1.17548 2.75359 0
M  V30 1637 H 154.247 0.566686 1.32381 0
M  V30 1638 H 156.2 -0.83525 4.13039 0
M  V30 1639 H 154.924 -1.32139 2.98675 0
M  V30 1640 H 153.583 0.722825 3.59403 0
M  V30 1641 H 153.231 -1.42643 4.82351 0
M  V30 1642 H 152.931 -0.0207409 5.87596 0
M  V30 1643 H 154.455 -0.939808 6.03324 0
M  V30 1644 H 155.869 1.28728 5.58661 0
M  V30 1645 H 154.266 2.07728 5.63 0
M  V30 1646 H 155.336 2.34798 4.24262 0
M  V30 1647 N 156.679 -1.44442 0.630414 0
M  V30 1648 C 157.611 -2.2892 -0.113347 0
M  V30 1649 C 158.624 -1.41243 -0.80959 0
M  V30 1650 O 159.813 -1.65402 -0.671156 0
M  V30 1651 C 156.913 -3.17594 -1.18266 0
M  V30 1652 C 156.086 -4.33682 -0.569073 0
M  V30 1653 C 155.145 -5.03397 -1.53226 0
M  V30 1654 O 154.171 -5.59438 -1.04967 0
M  V30 1655 N 155.373 -5.04783 -2.86661 0
M  V30 1656 H 158.138 -2.93392 0.611636 0
M  V30 1657 H 155.699 -1.54881 0.471523 0
M  V30 1658 H 157.691 -3.61097 -1.82732 0
M  V30 1659 H 156.261 -2.54876 -1.80988 0
M  V30 1660 H 155.481 -3.9338 0.254187 0
M  V30 1661 H 156.769 -5.08608 -0.139767 0
M  V30 1662 H 156.167 -4.60584 -3.28449 0
M  V30 1663 H 154.724 -5.52077 -3.46489 0
M  V30 1664 N 158.157 -0.370918 -1.53173 0
M  V30 1665 C 159.404 0.217102 -2.01333 0
M  V30 1666 C 159.732 1.48338 -1.25802 0
M  V30 1667 O 158.987 1.92698 -0.34146 0
M  V30 1668 C 159.286 0.549696 -3.53147 0
M  V30 1669 C 158.952 -0.622872 -4.46577 0
M  V30 1670 C 157.614 -0.944595 -4.71838 0
M  V30 1671 C 159.966 -1.40819 -5.01816 0
M  V30 1672 C 157.294 -2.05351 -5.49589 0
M  V30 1673 C 159.646 -2.50757 -5.80778 0
M  V30 1674 C 158.31 -2.83458 -6.04324 0
M  V30 1675 H 157.58 0.0794431 -0.736729 0
M  V30 1676 H 160.227 -0.504481 -1.84736 0
M  V30 1677 H 158.532 1.35237 -3.6772 0
M  V30 1678 H 160.229 1.017 -3.87889 0
M  V30 1679 H 156.819 -0.36209 -4.27068 0
M  V30 1680 H 161.003 -1.17289 -4.82242 0
M  V30 1681 H 156.259 -2.3108 -5.6605 0
M  V30 1682 H 160.433 -3.12022 -6.22588 0
M  V30 1683 H 158.06 -3.69508 -6.64355 0
M  V30 1684 N 159.635 1.57281 -0.100228 0
M  V30 1685 C 160.881 1.94826 0.563101 0
M  V30 1686 C 161.214 0.982475 1.67514 0
M  V30 1687 O 160.489 0.0164069 1.94493 0
M  V30 1688 C 160.772 3.42453 1.11346 0
M  V30 1689 C 160.625 4.498 0.00612081 0
M  V30 1690 C 161.944 3.91506 2.01024 0
M  V30 1691 H 159.063 0.708428 0.203221 0
M  V30 1692 H 161.705 1.8922 -0.171979 0
M  V30 1693 H 159.855 3.47361 1.7399 0
M  V30 1694 H 161.527 4.57 -0.628357 0
M  V30 1695 H 159.77 4.28756 -0.659581 0
M  V30 1696 H 160.441 5.50306 0.432109 0
M  V30 1697 H 162.917 3.88784 1.48278 0
M  V30 1698 H 161.793 4.95358 2.36457 0
M  V30 1699 H 162.054 3.31099 2.92961 0
M  V30 1700 N 161.113 -0.173488 1.56642 0
M  V30 1701 C 162.076 -1.19859 1.95362 0
M  V30 1702 C 163.076 -1.37296 0.83704 0
M  V30 1703 O 164.266 -1.34739 1.10413 0
M  V30 1704 C 161.398 -2.56405 2.24654 0
M  V30 1705 H 162.591 -0.867062 2.87092 0
M  V30 1706 H 160.144 -0.415853 1.50666 0
M  V30 1707 H 160.879 -2.94576 1.35631 0
M  V30 1708 H 160.664 -2.45115 3.06041 0
M  V30 1709 H 162.154 -3.30287 2.5554 0
M  V30 1710 N 162.591 -1.51276 -0.441967 0
M  V30 1711 C 163.538 -1.72256 -1.53612 0
M  V30 1712 C 164.508 -0.564164 -1.56225 0
M  V30 1713 O 165.693 -0.798074 -1.73307 0
M  V30 1714 C 162.833 -1.84932 -2.91366 0
M  V30 1715 C 161.946 -3.12459 -2.98317 0
M  V30 1716 C 161.081 -3.15758 -4.27166 0
M  V30 1717 C 160.12 -4.37619 -4.27967 0
M  V30 1718 N 159.257 -4.38493 -5.48333 0
M  V30 1719 H 164.097 -2.65654 -1.35026 0
M  V30 1720 H 161.634 -1.31662 -0.656009 0
M  V30 1721 H 163.592 -1.90263 -3.7129 0
M  V30 1722 H 162.222 -0.949461 -3.08521 0
M  V30 1723 H 161.274 -3.1646 -2.11086 0
M  V30 1724 H 162.586 -4.02382 -2.94771 0
M  V30 1725 H 161.74 -3.19979 -5.15459 0
M  V30 1726 H 160.479 -2.23715 -4.33362 0
M  V30 1727 H 159.484 -4.33579 -3.38067 0
M  V30 1728 H 160.709 -5.30921 -4.23438 0
M  V30 1729 H 158.655 -3.49318 -5.55259 0
M  V30 1730 H 158.572 -5.22219 -5.46647 0
M  V30 1731 H 159.84 -4.469 -6.38671 0
M  V30 1732 N 164.069 0.697108 -1.41344 0
M  V30 1733 C 165.001 1.8224 -1.39001 0
M  V30 1734 C 166.014 1.60152 -0.292428 0
M  V30 1735 O 167.203 1.69684 -0.554048 0
M  V30 1736 C 164.303 3.18976 -1.14489 0
M  V30 1737 C 163.476 3.68105 -2.36258 0
M  V30 1738 C 162.535 4.83506 -2.07625 0
M  V30 1739 O 161.561 4.95201 -2.8065 0
M  V30 1740 N 162.763 5.70637 -1.06555 0
M  V30 1741 H 165.528 1.84742 -2.35988 0
M  V30 1742 H 163.089 0.87937 -1.35936 0
M  V30 1743 H 165.081 3.93801 -0.932885 0
M  V30 1744 H 163.651 3.11508 -0.261043 0
M  V30 1745 H 162.871 2.84204 -2.7317 0
M  V30 1746 H 164.159 3.97667 -3.17393 0
M  V30 1747 H 163.557 5.63817 -0.461125 0
M  V30 1748 H 162.114 6.45368 -0.913444 0
M  V30 1749 N 165.547 1.27147 0.931209 0
M  V30 1750 C 166.795 1.13055 1.6752 0
M  V30 1751 C 167.116 -0.324791 1.92276 0
M  V30 1752 O 166.386 -1.22775 1.52654 0
M  V30 1753 H 164.966 0.415391 0.620854 0
M  V30 1754 H 167.628 1.59623 1.11833 0
M  V30 1755 H 166.724 1.65694 2.64485 0
M  V30 1756 N 167.025 -1.13721 1.09112 0
M  V30 1757 C 167.988 -2.17222 0.731241 0
M  V30 1758 C 168.988 -1.59035 -0.237566 0
M  V30 1759 O 170.178 -1.74192 -0.0161704 0
M  V30 1760 C 167.31 -3.40804 0.0808443 0
M  V30 1761 H 168.503 -2.50573 1.64783 0
M  V30 1762 H 166.056 -1.28493 0.889897 0
M  V30 1763 H 166.791 -3.1304 -0.847127 0
M  V30 1764 H 166.576 -3.84306 0.777896 0
M  V30 1765 H 168.066 -4.1731 -0.155657 0
M  V30 1766 N 168.503 -0.877838 -1.30888 0
M  V30 1767 C 169.743 -0.499301 -1.98208 0
M  V30 1768 C 170.107 0.932649 -1.67826 0
M  V30 1769 O 171.308 1.41694 -2.28421 0
M  V30 1770 C 169.579 -0.758221 -3.49265 0
M  V30 1771 S 171.138 -0.480719 -4.36159 0
M  V30 1772 H 167.956 -0.186062 -0.686223 0
M  V30 1773 H 170.558 -1.13556 -1.59139 0
M  V30 1774 H 169.262 -1.79903 -3.68867 0
M  V30 1775 H 168.793 -0.109247 -3.93248 0
M  V30 1776 H 170.808 0.683698 -4.91467 0
M  V30 1777 N 169.982 1.44106 -0.638065 0
M  V30 1778 C 171.229 2.01978 -0.14533 0
M  V30 1779 C 171.557 1.50234 1.23532 0
M  V30 1780 O 170.812 0.679548 1.83523 0
M  V30 1781 C 171.111 3.5729 -0.0887327 0
M  V30 1782 C 170.777 4.28317 -1.40909 0
M  V30 1783 C 169.439 4.47437 -1.77069 0
M  V30 1784 C 171.791 4.6867 -2.28031 0
M  V30 1785 C 169.119 5.04171 -3.00047 0
M  V30 1786 C 171.471 5.26766 -3.50286 0
M  V30 1787 C 170.135 5.44104 -3.86661 0
M  V30 1788 H 169.405 0.739089 -0.0531801 0
M  V30 1789 H 172.052 1.72781 -0.825761 0
M  V30 1790 H 170.357 3.8594 0.675095 0
M  V30 1791 H 172.054 3.99807 0.309145 0
M  V30 1792 H 168.644 4.1377 -1.1177 0
M  V30 1793 H 172.828 4.53604 -2.01388 0
M  V30 1794 H 168.084 5.15782 -3.28298 0
M  V30 1795 H 172.258 5.56983 -4.18023 0
M  V30 1796 H 169.885 5.87832 -4.82034 0
M  V30 1797 N 171.46 0.379036 1.52974 0
M  V30 1798 C 172.37 -0.468639 2.29872 0
M  V30 1799 C 173.386 -1.08067 1.36373 0
M  V30 1800 O 174.562 -1.08871 1.69438 0
M  V30 1801 C 171.627 -1.58594 3.083 0
M  V30 1802 C 170.688 -1.00007 4.17489 0
M  V30 1803 C 169.921 -2.06413 4.92168 0
M  V30 1804 O 170.144 -3.27751 4.66835 0
M  V30 1805 O 169.078 -1.68717 5.7777 0
M  V30 1806 H 172.904 0.157508 3.03291 0
M  V30 1807 H 170.489 0.143035 1.48714 0
M  V30 1808 H 172.371 -2.23525 3.57232 0
M  V30 1809 H 171.046 -2.19724 2.37703 0
M  V30 1810 H 169.953 -0.314299 3.72777 0
M  V30 1811 H 171.286 -0.433135 4.90291 0
M  V30 1812 N 172.938 -1.57226 0.108567 0
M  V30 1813 C 174.184 -1.95121 -0.552761 0
M  V30 1814 C 174.517 -0.991345 -1.66991 0
M  V30 1815 O 173.792 -0.0267211 -1.94482 0
M  V30 1816 C 174.075 -3.43039 -1.09528 0
M  V30 1817 C 173.928 -4.49797 0.0177332 0
M  V30 1818 C 175.247 -3.92567 -1.98945 0
M  V30 1819 H 172.366 -0.709496 -0.199461 0
M  V30 1820 H 175.008 -1.89126 0.182011 0
M  V30 1821 H 173.158 -3.48279 -1.72146 0
M  V30 1822 H 174.83 -4.56661 0.652584 0
M  V30 1823 H 173.073 -4.284 0.682309 0
M  V30 1824 H 173.744 -5.50528 -0.402919 0
M  V30 1825 H 176.22 -3.89565 -1.46214 0
M  V30 1826 H 175.096 -4.96605 -2.33827 0
M  V30 1827 H 175.357 -3.32648 -2.91201 0
M  V30 1828 N 174.416 0.165178 -1.56732 0
M  V30 1829 C 175.665 0.879143 -1.81532 0
M  V30 1830 C 175.978 1.83144 -0.686842 0
M  V30 1831 O 177.184 2.58823 -0.819944 0
M  V30 1832 C 175.64 1.61388 -3.21686 0
M  V30 1833 C 175.248 0.704904 -4.4242 0
M  V30 1834 C 176.992 2.3157 -3.55774 0
M  V30 1835 C 174.899 1.44022 -5.73595 0
M  V30 1836 H 173.829 0.332033 -0.676957 0
M  V30 1837 H 176.48 0.132008 -1.83025 0
M  V30 1838 H 174.862 2.40599 -3.14529 0
M  V30 1839 H 176.036 -0.0506815 -4.60772 0
M  V30 1840 H 174.351 0.112419 -4.16248 0
M  V30 1841 H 176.948 2.8719 -4.51028 0
M  V30 1842 H 177.291 3.07201 -2.8095 0
M  V30 1843 H 177.824 1.59297 -3.64513 0
M  V30 1844 H 174.563 0.72612 -6.51466 0
M  V30 1845 H 174.083 2.16898 -5.5921 0
M  V30 1846 H 175.762 1.98606 -6.15764 0
M  V30 1847 N 175.894 1.51508 0.433938 0
M  V30 1848 C 176.824 1.76016 1.53429 0
M  V30 1849 C 177.805 0.610112 1.58782 0
M  V30 1850 O 178.99 0.853177 1.74455 0
M  V30 1851 C 176.12 1.88831 2.9148 0
M  V30 1852 C 175.074 3.04288 3.00987 0
M  V30 1853 C 174.4 3.0229 4.4105 0
M  V30 1854 C 175.7 4.44193 2.74754 0
M  V30 1855 H 177.394 2.68152 1.33171 0
M  V30 1856 H 174.94 1.29035 0.639214 0
M  V30 1857 H 176.893 2.04559 3.6842 0
M  V30 1858 H 175.617 0.933455 3.12976 0
M  V30 1859 H 174.276 2.8827 2.26486 0
M  V30 1860 H 173.924 2.04576 4.59519 0
M  V30 1861 H 173.624 3.79822 4.4834 0
M  V30 1862 H 175.148 3.20116 5.1996 0
M  V30 1863 H 176.562 4.60544 3.41426 0
M  V30 1864 H 174.959 5.23457 2.9345 0
M  V30 1865 H 176.029 4.53996 1.70339 0
M  V30 1866 N 177.372 -0.689602 1.41712 0
M  V30 1867 C 178.621 -1.44534 1.40686 0
M  V30 1868 C 178.934 -1.95588 0.0213352 0
M  V30 1869 O 180.14 -2.71271 -0.111534 0
M  V30 1870 C 178.596 -2.61387 2.47396 0
M  V30 1871 C 178.204 -2.17094 3.91885 0
M  V30 1872 C 179.948 -3.38986 2.55517 0
M  V30 1873 C 177.855 -3.3094 4.90135 0
M  V30 1874 H 176.785 -0.542925 0.52321 0
M  V30 1875 H 179.436 -0.748054 1.6756 0
M  V30 1876 H 177.818 -3.33412 2.13664 0
M  V30 1877 H 178.992 -1.52318 4.34897 0
M  V30 1878 H 177.307 -1.52473 3.8748 0
M  V30 1879 H 179.904 -4.23747 3.26102 0
M  V30 1880 H 180.247 -3.84578 1.59391 0
M  V30 1881 H 180.78 -2.74021 2.8837 0
M  V30 1882 H 177.519 -2.90355 5.87685 0
M  V30 1883 H 177.039 -3.94546 4.51767 0
M  V30 1884 H 178.718 -3.9663 5.11169 0
M  V30 1885 N 178.85 -1.27639 -0.924453 0
M  V30 1886 C 180.075 -1.17101 -1.71179 0
M  V30 1887 C 180.5 0.268134 -1.86179 0
M  V30 1888 O 179.858 1.19415 -1.36418 0
M  V30 1889 C 179.906 -1.86313 -3.08739 0
M  V30 1890 O 179.01 -1.16331 -3.95652 0
M  V30 1891 H 178.351 -0.407091 -0.524569 0
M  V30 1892 H 180.881 -1.68767 -1.15666 0
M  V30 1893 H 180.891 -1.938 -3.59034 0
M  V30 1894 H 179.566 -2.91001 -2.97138 0
M  V30 1895 H 178.143 -1.16935 -3.54091 0
M  V30 1896 N 180.328 1.1314 -1.09713 0
M  V30 1897 C 181.605 1.80762 -0.747302 0
M  V30 1898 C 181.985 1.96663 0.767265 0
M  V30 1899 O 181.333 1.53706 1.69076 0
M  V30 1900 C 181.543 3.15606 -1.48975 0
M  V30 1901 C 182.891 3.90914 -1.65746 0
M  V30 1902 O 183.915 3.25239 -1.45251 0
M  V30 1903 O 182.774 5.08718 -1.9967 0
M  V30 1904 H 179.868 0.782103 -0.268782 0
M  V30 1905 H 182.414 1.20041 -1.19951 0
M  V30 1906 H 181.186 2.99278 -2.52088 0
M  V30 1907 H 180.809 3.84029 -1.02991 0
M  V30 1908 N 181.806 0.884767 1.30421 0
M  V30 1909 C 182.769 0.356277 2.26414 0
M  V30 1910 C 183.769 -0.501124 1.52792 0
M  V30 1911 O 184.959 -0.30831 1.7145 0
M  V30 1912 C 182.091 -0.492316 3.37326 0
M  V30 1913 H 183.284 1.20389 2.74675 0
M  V30 1914 H 180.837 0.661607 1.41607 0
M  V30 1915 H 181.572 -1.36052 2.94381 0
M  V30 1916 H 181.357 0.121832 3.91911 0
M  V30 1917 H 182.847 -0.853871 4.08777 0
M  V30 1918 N 183.284 -1.43765 0.645699 0
M  V30 1919 C 184.232 -2.32516 -0.0624849 0
M  V30 1920 C 185.226 -1.48183 -0.820855 0
M  V30 1921 O 186.432 -1.64439 -0.732106 0
M  V30 1922 H 182.807 -0.750989 -0.0389864 0
M  V30 1923 H 184.778 -2.89979 0.703892 0
M  V30 1924 C 183.527 -3.32389 -1.02044 0
M  V30 1925 H 182.85 -3.97301 -0.446312 0
M  V30 1926 H 184.29 -3.97138 -1.48517 0
M  V30 1927 C 182.749 -2.62416 -2.11281 0
M  V30 1928 O 183.279 -2.434 -3.19561 0
M  V30 1929 N 181.485 -2.21913 -1.87624 0
M  V30 1930 H 181.032 -2.37578 -0.995703 0
M  V30 1931 H 180.99 -1.75424 -2.6091 0
M  V30 1932 N 184.763 -0.387143 -1.52771 0
M  V30 1933 C 185.991 0.195869 -2.05971 0
M  V30 1934 C 186.406 1.40691 -1.25903 0
M  V30 1935 O 185.763 1.79931 -0.305134 0
M  V30 1936 C 185.814 0.56812 -3.57008 0
M  V30 1937 O 185.535 -0.594803 -4.34043 0
M  V30 1938 C 187.036 1.20723 -4.26545 0
M  V30 1939 H 184.256 0.0300578 -0.670326 0
M  V30 1940 H 186.8 -0.551749 -1.96916 0
M  V30 1941 H 184.955 1.26564 -3.66143 0
M  V30 1942 H 185.369 -0.289322 -5.23701 0
M  V30 1943 H 186.843 1.41807 -5.33474 0
M  V30 1944 H 187.32 2.17395 -3.81623 0
M  V30 1945 H 187.926 0.550535 -4.21722 0
M  V30 1946 N 186.241 1.57166 -0.116904 0
M  V30 1947 C 187.488 1.95123 0.541603 0
M  V30 1948 C 187.816 1.00006 1.6682 0
M  V30 1949 O 187.071 0.0235658 1.95686 0
M  V30 1950 C 187.37 3.39508 1.11664 0
M  V30 1951 C 187.036 4.50762 0.111606 0
M  V30 1952 C 185.698 4.80918 -0.164758 0
M  V30 1953 C 188.05 5.18036 -0.573438 0
M  V30 1954 C 185.378 5.75666 -1.13249 0
M  V30 1955 C 187.73 6.13824 -1.52978 0
M  V30 1956 C 186.394 6.42374 -1.81415 0
M  V30 1957 H 185.664 0.714005 0.198187 0
M  V30 1958 H 188.311 1.9048 -0.197365 0
M  V30 1959 H 186.616 3.40835 1.93232 0
M  V30 1960 H 188.313 3.66189 1.63422 0
M  V30 1961 H 184.903 4.27272 0.337192 0
M  V30 1962 H 189.087 4.94896 -0.373092 0
M  V30 1963 H 184.343 5.96092 -1.35958 0
M  V30 1964 H 188.517 6.65039 -2.06629 0
M  V30 1965 H 186.144 7.15599 -2.56557 0
M  V30 1966 N 187.719 -0.156864 1.56817 0
M  V30 1967 C 188.967 -0.869404 1.82444 0
M  V30 1968 C 189.288 -1.82147 0.69623 0
M  V30 1969 O 188.558 -1.93847 -0.28287 0
M  V30 1970 H 187.138 -0.324043 0.673056 0
M  V30 1971 H 189.8 -0.153224 1.94297 0
M  V30 1972 H 188.896 -1.43761 2.77019 0
M  V30 1973 N 189.197 -1.51736 -0.425897 0
M  V30 1974 C 190.443 -1.65214 -1.1761 0
M  V30 1975 C 190.776 -0.372778 -1.90589 0
M  V30 1976 O 190.051 0.628139 -1.84078 0
M  V30 1977 C 190.334 -2.86312 -2.18398 0
M  V30 1978 C 190.187 -4.24254 -1.49426 0
M  V30 1979 C 191.506 -3.02925 -3.19256 0
M  V30 1980 H 188.625 -0.601263 -0.426206 0
M  V30 1981 H 191.267 -1.8425 -0.463882 0
M  V30 1982 H 189.417 -2.70213 -2.79137 0
M  V30 1983 H 191.089 -4.52046 -0.919362 0
M  V30 1984 H 189.332 -4.26426 -0.796432 0
M  V30 1985 H 190.003 -5.05001 -2.22885 0
M  V30 1986 H 192.479 -3.1781 -2.68581 0
M  V30 1987 H 191.355 -3.89199 -3.8706 0
M  V30 1988 H 191.616 -2.15497 -3.86023 0
M  V30 1989 N 190.675 0.682077 -1.42076 0
M  V30 1990 C 191.585 1.82535 -1.47371 0
M  V30 1991 C 192.601 1.7017 -0.363079 0
M  V30 1992 O 193.777 1.91848 -0.612875 0
M  V30 1993 C 190.842 3.18624 -1.36674 0
M  V30 1994 C 189.903 3.42999 -2.58167 0
M  V30 1995 C 189.136 4.72595 -2.4797 0
M  V30 1996 O 189.359 5.50006 -1.5116 0
M  V30 1997 O 188.293 4.98054 -3.37974 0
M  V30 1998 H 192.119 1.81023 -2.43853 0
M  V30 1999 H 189.704 0.836887 -1.2376 0
M  V30 2000 H 191.586 3.99847 -1.33043 0
M  V30 2001 H 190.261 3.20789 -0.433138 0
M  V30 2002 H 189.168 2.61653 -2.67373 0
M  V30 2003 H 190.501 3.45659 -3.50401 0
M  V30 2004 N 192.153 1.28127 0.917671 0
M  V30 2005 C 193.378 1.18007 1.70555 0
M  V30 2006 C 193.803 -0.258257 1.86319 0
M  V30 2007 O 193.161 -1.1869 1.37049 0
M  V30 2008 C 193.209 1.87948 3.07746 0
M  V30 2009 O 192.313 1.18427 3.9503 0
M  V30 2010 H 191.654 0.409867 0.522403 0
M  V30 2011 H 194.184 1.69379 1.1477 0
M  V30 2012 H 194.194 1.95701 3.58001 0
M  V30 2013 H 192.869 2.92573 2.95591 0
M  V30 2014 H 191.446 1.18811 3.53466 0
M  V30 2015 N 193.631 -1.12557 1.10312 0
M  V30 2016 C 194.856 -1.88405 0.867085 0
M  V30 2017 C 195.281 -1.79038 -0.576817 0
M  V30 2018 O 194.639 -1.14439 -1.40618 0
M  V30 2019 C 194.687 -3.3563 1.31851 0
M  V30 2020 O 193.791 -4.09565 0.482734 0
M  V30 2021 H 193.132 -0.585455 0.313271 0
M  V30 2022 H 195.662 -1.42352 1.4696 0
M  V30 2023 H 195.672 -3.86469 1.3079 0
M  V30 2024 H 194.347 -3.41765 2.37001 0
M  V30 2025 H 192.924 -3.68695 0.558448 0
M  V30 2026 N 195.109 -0.891671 -1.2995 0
M  V30 2027 C 196.039 -0.379797 -2.30391 0
M  V30 2028 C 197.02 0.540919 -1.6127 0
M  V30 2029 O 198.205 0.453352 -1.88834 0
M  V30 2030 C 195.335 0.400654 -3.44981 0
M  V30 2031 C 194.289 -0.428905 -4.25846 0
M  V30 2032 C 193.615 0.478557 -5.32554 0
M  V30 2033 C 194.915 -1.67458 -4.94727 0
M  V30 2034 H 196.609 -1.21914 -2.73454 0
M  V30 2035 H 194.155 -0.587675 -1.31462 0
M  V30 2036 H 196.108 0.769434 -4.14316 0
M  V30 2037 H 194.832 1.27371 -3.0074 0
M  V30 2038 H 193.491 -0.779911 -3.58208 0
M  V30 2039 H 193.139 1.34951 -4.84559 0
M  V30 2040 H 192.839 -0.0727433 -5.87555 0
M  V30 2041 H 194.363 0.843705 -6.04743 0
M  V30 2042 H 195.777 -1.376 -5.56542 0
M  V30 2043 H 194.174 -2.16659 -5.59624 0
M  V30 2044 H 195.244 -2.41518 -4.20473 0
M  V30 2045 N 196.587 1.43421 -0.653314 0
M  V30 2046 C 198.003 1.56341 -0.320886 0
M  V30 2047 C 198.203 1.63696 1.17499 0
M  V30 2048 O 197.259 1.59208 1.95982 0
M  V30 2049 C 198.572 2.82424 -1.03233 0
M  V30 2050 C 200.12 2.96168 -1.01259 0
M  V30 2051 C 200.595 4.25084 -1.70492 0
M  V30 2052 N 202.086 4.31948 -1.67257 0
M  V30 2053 C 202.821 5.30466 -2.17701 0
M  V30 2054 N 202.317 6.35261 -2.76434 0
M  V30 2055 N 204.11 5.2212 -2.082 0
M  V30 2056 H 196.261 1.3689 -1.62403 0
M  V30 2057 H 198.524 0.657455 -0.682977 0
M  V30 2058 H 198.23 2.83053 -2.08744 0
M  V30 2059 H 198.104 3.72653 -0.583948 0
M  V30 2060 H 200.491 2.9508 0.0341235 0
M  V30 2061 H 200.572 2.07229 -1.49966 0
M  V30 2062 H 200.216 4.26932 -2.7512 0
M  V30 2063 H 200.146 5.1292 -1.19251 0
M  V30 2064 H 202.637 3.56838 -1.24398 0
M  V30 2065 H 202.95 7.06754 -3.12601 0
M  V30 2066 H 201.295 6.35884 -2.80495 0
M  V30 2067 H 204.486 4.39166 -1.62021 0
M  V30 2068 H 204.659 5.98739 -2.47822 0
M  V30 2069 N 198.065 0.39524 1.52563 0
M  V30 2070 C 199.028 -0.425001 2.25225 0
M  V30 2071 C 200.028 -0.985266 1.27079 0
M  V30 2072 O 201.218 -0.866332 1.5113 0
M  V30 2073 C 198.35 -1.59686 3.01186 0
M  V30 2074 H 199.543 0.211233 2.99155 0
M  V30 2075 H 197.096 0.147472 1.55603 0
M  V30 2076 H 197.831 -2.27035 2.31572 0
M  V30 2077 H 197.616 -1.20176 3.73229 0
M  V30 2078 H 199.106 -2.17743 3.5634 0
M  V30 2079 N 199.544 -1.57102 0.125237 0
M  V30 2080 C 200.507 -2.14471 -0.80838 0
M  V30 2081 C 201.507 -1.0811 -1.19033 0
M  V30 2082 O 202.697 -1.33856 -1.11482 0
M  V30 2083 C 199.829 -2.69005 -2.09402 0
M  V30 2084 H 201.022 -2.98297 -0.309696 0
M  V30 2085 H 198.575 -1.55807 -0.124051 0
M  V30 2086 H 199.31 -1.88785 -2.63687 0
M  V30 2087 H 199.095 -3.46799 -1.82957 0
M  V30 2088 H 200.585 -3.13278 -2.76128 0
M  V30 2089 N 201.022 0.148545 -1.56898 0
M  V30 2090 C 202.27 0.859717 -1.82902 0
M  V30 2091 C 202.591 1.81775 -0.70588 0
M  V30 2092 O 201.861 1.93994 0.272586 0
M  V30 2093 H 200.441 0.320469 -0.674766 0
M  V30 2094 H 203.103 0.142918 -1.94375 0
M  V30 2095 H 202.199 1.4229 -2.77777 0
M  V30 2096 N 202.5 1.5196 0.417844 0
M  V30 2097 C 203.45 1.7106 1.5074 0
M  V30 2098 C 204.434 0.564487 1.50673 0
M  V30 2099 O 205.626 0.821206 1.56797 0
M  V30 2100 C 202.755 1.85677 2.88754 0
M  V30 2101 C 201.841 3.06133 2.93502 0
M  V30 2102 N 202.232 4.28987 2.67962 0
M  V30 2103 C 200.53 3.05787 3.24669 0
M  V30 2104 C 201.231 5.10395 2.79055 0
M  V30 2105 N 200.207 4.45455 3.11561 0
M  V30 2106 H 204.009 2.63696 1.29775 0
M  V30 2107 H 201.523 1.49873 0.625436 0
M  V30 2108 H 203.52 1.97475 3.67164 0
M  V30 2109 H 202.18 0.942348 3.10725 0
M  V30 2110 H 203.191 4.57607 2.4252 0
M  V30 2111 H 199.868 2.2405 3.52289 0
M  V30 2112 H 201.258 6.18247 2.63097 0
M  V30 2113 N 203.978 -0.674533 1.42435 0
M  V30 2114 C 204.928 -1.7807 1.4239 0
M  V30 2115 C 205.912 -1.58169 0.295202 0
M  V30 2116 O 207.104 -1.68643 0.537449 0
M  V30 2117 C 204.233 -3.16532 1.32901 0
M  V30 2118 C 203.319 -3.42055 2.50717 0
M  V30 2119 N 203.71 -3.38162 3.76139 0
M  V30 2120 C 202.008 -3.72692 2.44983 0
M  V30 2121 C 202.709 -3.63177 4.54398 0
M  V30 2122 N 201.685 -3.83954 3.84812 0
M  V30 2123 H 205.487 -1.73454 2.37257 0
M  V30 2124 H 203.001 -0.875381 1.36788 0
M  V30 2125 H 204.998 -3.958 1.30951 0
M  V30 2126 H 203.658 -3.22345 0.390363 0
M  V30 2127 H 204.669 -3.18057 4.0873 0
M  V30 2128 H 201.346 -3.85749 1.59699 0
M  V30 2129 H 202.736 -3.66125 5.63384 0
M  V30 2130 N 205.456 -1.28612 -0.910864 0
M  V30 2131 C 206.681 -1.1891 -1.69927 0
M  V30 2132 C 207.106 0.248372 -1.86453 0
M  V30 2133 O 206.464 1.17961 -1.37676 0
M  V30 2134 C 206.512 -1.89578 -3.06745 0
M  V30 2135 O 205.616 -1.20521 -3.94396 0
M  V30 2136 H 204.957 -0.412632 -0.520222 0
M  V30 2137 H 207.487 -1.69985 -1.1387 0
M  V30 2138 H 207.497 -1.97597 -3.56958 0
M  V30 2139 H 206.172 -2.94136 -2.94035 0
M  V30 2140 H 204.749 -1.20684 -3.52831 0
M  V30 2141 N 206.934 1.1197 -1.10907 0
M  V30 2142 C 207.864 2.19928 -0.784473 0
M  V30 2143 C 208.845 1.6833 0.244726 0
M  V30 2144 O 210.03 1.93892 0.109418 0
M  V30 2145 C 207.16 3.46597 -0.220827 0
M  V30 2146 C 206.114 4.11376 -1.18127 0
M  V30 2147 C 205.44 5.32554 -0.478594 0
M  V30 2148 C 206.74 4.56945 -2.52979 0
M  V30 2149 H 208.434 2.47337 -1.68715 0
M  V30 2150 H 205.98 1.18879 -0.812642 0
M  V30 2151 H 207.933 4.21396 0.0184278 0
M  V30 2152 H 206.657 3.1863 0.717113 0
M  V30 2153 H 205.316 3.38564 -1.40606 0
M  V30 2154 H 204.964 5.00856 0.463976 0
M  V30 2155 H 204.664 5.76844 -1.11912 0
M  V30 2156 H 206.188 6.10096 -0.248 0
M  V30 2157 H 207.602 5.23093 -2.3462 0
M  V30 2158 H 205.999 5.1203 -3.12962 0
M  V30 2159 H 207.069 3.70676 -3.12614 0
M  V30 2160 N 208.412 0.89855 1.29475 0
M  V30 2161 C 209.659 0.523882 1.95606 0
M  V30 2162 C 209.987 -0.929608 1.70847 0
M  V30 2163 O 209.242 -1.67401 1.01367 0
M  V30 2164 C 209.541 0.761398 3.49195 0
M  V30 2165 C 209.207 2.19207 3.94029 0
M  V30 2166 C 207.869 2.58326 4.05982 0
M  V30 2167 C 210.221 3.12379 4.17216 0
M  V30 2168 C 207.549 3.898 4.38489 0
M  V30 2169 C 209.901 4.43401 4.51197 0
M  V30 2170 C 208.565 4.82394 4.61359 0
M  V30 2171 H 207.835 0.191702 0.715773 0
M  V30 2172 H 210.482 1.13699 1.54094 0
M  V30 2173 H 208.787 0.0653622 3.91745 0
M  V30 2174 H 210.484 0.450904 3.98457 0
M  V30 2175 H 207.074 1.87846 3.85242 0
M  V30 2176 H 211.258 2.83371 4.07449 0
M  V30 2177 H 206.514 4.19734 4.44559 0
M  V30 2178 H 210.688 5.15623 4.68087 0
M  V30 2179 H 208.315 5.84306 4.86303 0
M  V30 2180 N 209.89 -1.43072 0.660911 0
M  V30 2181 C 211.306 -1.56169 0.329173 0
M  V30 2182 C 211.506 -1.64317 -1.16629 0
M  V30 2183 O 210.562 -1.60245 -1.95135 0
M  V30 2184 C 211.875 -2.81873 1.04729 0
M  V30 2185 C 213.423 -2.95627 1.02828 0
M  V30 2186 C 213.898 -4.24174 1.72744 0
M  V30 2187 N 215.389 -4.31055 1.69545 0
M  V30 2188 C 216.124 -5.29304 2.20511 0
M  V30 2189 N 215.62 -6.33786 2.79799 0
M  V30 2190 N 217.413 -5.21008 2.10966 0
M  V30 2191 H 209.564 -1.36027 1.63127 0
M  V30 2192 H 211.827 -0.653823 0.686454 0
M  V30 2193 H 211.533 -2.81942 2.10242 0
M  V30 2194 H 211.407 -3.72338 0.603702 0
M  V30 2195 H 213.794 -2.95094 -0.0184742 0
M  V30 2196 H 213.875 -2.06431 1.51063 0
M  V30 2197 H 213.519 -4.25467 2.7738 0
M  V30 2198 H 213.449 -5.1228 1.2197 0
M  V30 2199 H 215.94 -3.56174 1.26288 0
M  V30 2200 H 216.253 -7.05086 3.16344 0
M  V30 2201 H 214.598 -6.34387 2.83863 0
M  V30 2202 H 217.789 -4.38301 1.64347 0
M  V30 2203 H 217.962 -5.97416 2.50993 0
M  V30 2204 N 211.368 -0.403325 -1.52352 0
M  V30 2205 C 212.784 -0.0539281 -1.59509 0
M  V30 2206 C 212.984 1.43307 -1.41652 0
M  V30 2207 O 212.04 2.19924 -1.24056 0
M  V30 2208 C 213.353 -0.543654 -2.95745 0
M  V30 2209 C 214.901 -0.501125 -3.08962 0
M  V30 2210 C 215.376 -0.967267 -4.47669 0
M  V30 2211 N 216.867 -0.923849 -4.53893 0
M  V30 2212 C 217.602 -1.25578 -5.5948 0
M  V30 2213 N 217.098 -1.65889 -6.72646 0
M  V30 2214 N 218.891 -1.17613 -5.49658 0
M  V30 2215 H 211.042 -1.37123 -1.62206 0
M  V30 2216 H 213.305 -0.56294 -0.76276 0
M  V30 2217 H 213.011 -1.58275 -3.14073 0
M  V30 2218 H 212.885 0.0498042 -3.77167 0
M  V30 2219 H 215.272 0.528909 -2.90321 0
M  V30 2220 H 215.353 -1.13056 -2.2946 0
M  V30 2221 H 214.997 -1.9956 -4.67053 0
M  V30 2222 H 214.927 -0.314698 -5.25659 0
M  V30 2223 H 217.418 -0.627403 -3.72655 0
M  V30 2224 H 217.731 -1.89543 -7.49195 0
M  V30 2225 H 216.076 -1.69787 -6.73942 0
M  V30 2226 H 219.267 -0.860115 -4.6013 0
M  V30 2227 H 219.44 -1.43812 -6.3184 0
M  V30 2228 N 212.846 1.57033 -0.133567 0
M  V30 2229 C 214.095 1.94861 0.520768 0
M  V30 2230 C 214.408 1.02012 1.66892 0
M  V30 2231 O 215.614 1.29365 2.38699 0
M  V30 2232 C 214.07 3.46362 0.977809 0
M  V30 2233 C 213.678 4.47773 -0.142674 0
M  V30 2234 C 215.422 3.93083 1.60269 0
M  V30 2235 C 213.329 5.90468 0.331883 0
M  V30 2236 H 212.259 0.727453 0.198315 0
M  V30 2237 H 214.91 1.82227 -0.215759 0
M  V30 2238 H 213.292 3.54282 1.7692 0
M  V30 2239 H 214.466 4.51536 -0.919317 0
M  V30 2240 H 212.781 4.10891 -0.675124 0
M  V30 2241 H 215.378 4.97121 1.96914 0
M  V30 2242 H 215.721 3.33876 2.48662 0
M  V30 2243 H 216.254 3.88025 0.876453 0
M  V30 2244 H 212.993 6.53463 -0.516341 0
M  V30 2245 H 212.513 5.90094 1.07469 0
M  V30 2246 H 214.192 6.42179 0.788332 0
M  V30 2247 N 214.325 -0.140222 1.56975 0
M  V30 2248 C 215.255 -1.17456 2.01808 0
M  V30 2249 C 216.236 -1.44415 0.898794 0
M  V30 2250 O 217.421 -1.5522 1.16707 0
M  V30 2251 C 214.551 -2.50607 2.40444 0
M  V30 2252 C 213.505 -2.38155 3.55621 0
M  V30 2253 C 212.831 -3.76078 3.80091 0
M  V30 2254 C 214.131 -1.85991 4.88062 0
M  V30 2255 H 215.825 -0.801743 2.88466 0
M  V30 2256 H 213.371 -0.38422 1.38779 0
M  V30 2257 H 215.324 -3.23197 2.7041 0
M  V30 2258 H 214.048 -2.89737 1.50732 0
M  V30 2259 H 212.707 -1.68016 3.25832 0
M  V30 2260 H 212.355 -4.12656 2.87618 0
M  V30 2261 H 212.055 -3.68606 4.57606 0
M  V30 2262 H 213.579 -4.50206 4.12488 0
M  V30 2263 H 214.993 -2.4838 5.16701 0
M  V30 2264 H 213.39 -1.89393 5.6943 0
M  V30 2265 H 214.46 -0.816023 4.77984 0
M  V30 2266 N 215.803 -1.52179 -0.40978 0
M  V30 2267 C 217.028 -1.70347 -1.18308 0
M  V30 2268 C 217.453 -0.411887 -1.83535 0
M  V30 2269 O 216.811 0.630587 -1.6998 0
M  V30 2270 C 216.859 -2.83977 -2.22238 0
M  V30 2271 O 215.963 -2.495 -3.28365 0
M  V30 2272 H 215.304 -0.567103 -0.345384 0
M  V30 2273 H 217.834 -1.98879 -0.480445 0
M  V30 2274 H 217.844 -3.0887 -2.66577 0
M  V30 2275 H 216.519 -3.77685 -1.74146 0
M  V30 2276 H 215.096 -2.35277 -2.89308 0
M  V30 2277 N 217.281 0.66697 -1.42791 0
M  V30 2278 C 218.229 1.80157 -1.47127 0
M  V30 2279 C 219.223 1.65825 -0.346199 0
M  V30 2280 O 220.429 1.72338 -0.519572 0
M  V30 2281 H 216.804 0.594158 -0.460956 0
M  V30 2282 H 218.775 1.73619 -2.42692 0
M  V30 2283 C 217.524 3.18351 -1.39813 0
M  V30 2284 H 216.847 3.3001 -2.25684 0
M  V30 2285 H 218.287 3.97736 -1.46908 0
M  V30 2286 C 216.746 3.36707 -0.11391 0
M  V30 2287 O 217.276 3.93027 0.830241 0
M  V30 2288 N 215.482 2.90586 -0.0285295 0
M  V30 2289 H 215.029 2.4494 -0.79764 0
M  V30 2290 H 214.987 3.03245 0.830063 0
M  V30 2291 N 218.759 1.29093 0.90403 0
M  V30 2292 C 220.17 1.15186 1.46932 0
M  V30 2293 C 220.521 -0.254587 1.94541 0
M  V30 2294 O 219.646 -1.14972 1.83332 0
M  V30 2295 C 220.241 2.08492 2.67051 0
M  V30 2296 C 218.8 1.98621 3.19729 0
M  V30 2297 C 217.947 1.9967 1.92425 0
M  V30 2298 H 220.898 1.41641 0.715789 0
M  V30 2299 H 220.919 1.65461 3.42641 0
M  V30 2300 H 220.431 3.10847 2.3237 0
M  V30 2301 H 218.532 0.993389 3.59114 0
M  V30 2302 H 218.645 2.86068 3.8432 0
M  V30 2303 H 217.009 1.44208 2.09943 0
M  V30 2304 H 217.792 3.03721 1.60026 0
M  V30 2305 N 220.237 -1.11381 1.11499 0
M  V30 2306 C 221.462 -1.87475 0.887019 0
M  V30 2307 C 221.887 -1.79639 -0.557796 0
M  V30 2308 O 221.245 -1.15924 -1.39396 0
M  V30 2309 C 221.293 -3.34213 1.35403 0
M  V30 2310 O 220.397 -4.0903 0.526146 0
M  V30 2311 H 219.738 -0.582099 0.319463 0
M  V30 2312 H 222.268 -1.40785 1.48461 0
M  V30 2313 H 222.278 -3.8506 1.34881 0
M  V30 2314 H 220.953 -3.39232 2.40612 0
M  V30 2315 H 219.53 -3.68082 0.597522 0
M  V30 2316 N 221.715 -0.905404 -1.28997 0
M  V30 2317 C 222.963 -0.533192 -1.9494 0
M  V30 2318 C 223.284 0.924618 -1.71685 0
M  V30 2319 O 222.554 1.65268 -1.05183 0
M  V30 2320 H 221.134 -0.194194 -0.721317 0
M  V30 2321 H 223.796 -1.15294 -1.57141 0
M  V30 2322 H 222.892 -0.72059 -3.03667 0
M  V30 2323 N 223.193 1.4272 -0.668489 0
M  V30 2324 C 224.604 1.84793 -0.266151 0
M  V30 2325 C 224.955 1.55959 1.19043 0
M  V30 2326 O 224.08 1.01622 1.91055 0
M  V30 2327 C 224.675 3.35436 -0.476271 0
M  V30 2328 C 223.234 3.76182 -0.128113 0
M  V30 2329 C 222.381 2.66344 -0.771777 0
M  V30 2330 H 225.332 1.32656 -0.871098 0
M  V30 2331 H 225.353 3.79515 0.273561 0
M  V30 2332 H 224.865 3.5639 -1.53647 0
M  V30 2333 H 222.966 3.60836 0.928891 0
M  V30 2334 H 223.079 4.75766 -0.564231 0
M  V30 2335 H 221.443 2.53885 -0.203652 0
M  V30 2336 H 222.226 2.90123 -1.83531 0
M  V30 2337 N 224.671 0.411399 1.52136 0
M  V30 2338 C 225.948 -0.222308 1.94333 0
M  V30 2339 C 226.328 -1.6242 1.34844 0
M  V30 2340 O 225.676 -2.22384 0.525145 0
M  V30 2341 C 225.886 -0.226345 3.48265 0
M  V30 2342 C 227.234 -0.444592 4.22266 0
M  V30 2343 O 228.258 -0.305602 3.54887 0
M  V30 2344 O 227.117 -0.718749 5.41753 0
M  V30 2345 H 224.211 -0.143907 0.814383 0
M  V30 2346 H 226.757 0.467506 1.63133 0
M  V30 2347 H 225.529 0.75475 3.83952 0
M  V30 2348 H 225.152 -0.960163 3.85832 0
M  V30 2349 N 226.149 -1.5696 0.141893 0
M  V30 2350 C 227.112 -2.15316 -0.785587 0
M  V30 2351 C 228.112 -1.09366 -1.1788 0
M  V30 2352 O 229.302 -1.35031 -1.10056 0
M  V30 2353 C 226.434 -2.71211 -2.06537 0
M  V30 2354 H 227.627 -2.98608 -0.278041 0
M  V30 2355 H 225.18 -1.5593 -0.107519 0
M  V30 2356 H 225.915 -1.91571 -2.6167 0
M  V30 2357 H 225.7 -3.4872 -1.79268 0
M  V30 2358 H 227.19 -3.16189 -2.72789 0
M  V30 2359 N 227.627 0.131896 -1.57047 0
M  V30 2360 C 229.043 0.485031 -1.52051 0
M  V30 2361 C 229.243 1.82563 -0.85281 0
M  V30 2362 O 228.299 2.48817 -0.429694 0
M  V30 2363 C 229.612 0.481409 -2.96821 0
M  V30 2364 C 231.16 0.565868 -3.07842 0
M  V30 2365 C 231.635 0.592762 -4.54148 0
M  V30 2366 N 233.126 0.654564 -4.58552 0
M  V30 2367 C 233.861 0.696608 -5.69153 0
M  V30 2368 N 233.357 0.697078 -6.89284 0
M  V30 2369 N 235.15 0.738639 -5.57226 0
M  V30 2370 H 227.301 -0.746664 -1.98843 0
M  V30 2371 H 229.564 -0.273999 -0.90754 0
M  V30 2372 H 229.27 -0.435731 -3.4899 0
M  V30 2373 H 229.144 1.3139 -3.53577 0
M  V30 2374 H 231.531 1.47343 -2.55684 0
M  V30 2375 H 231.612 -0.29406 -2.54104 0
M  V30 2376 H 231.256 -0.310701 -5.06949 0
M  V30 2377 H 231.186 1.46939 -5.05684 0
M  V30 2378 H 233.677 0.660887 -3.72076 0
M  V30 2379 H 233.99 0.731426 -7.69331 0
M  V30 2380 H 232.335 0.66471 -6.91814 0
M  V30 2381 H 235.526 0.735545 -4.62285 0
M  V30 2382 H 235.699 0.767938 -6.43434 0
M  V30 2383 N 229.106 1.52395 0.401703 0
M  V30 2384 C 230.354 1.66488 1.14569 0
M  V30 2385 C 230.675 0.400897 1.90835 0
M  V30 2386 O 229.945 -0.584415 1.8698 0
M  V30 2387 H 228.525 0.613672 0.425929 0
M  V30 2388 H 231.187 1.89464 0.457093 0
M  V30 2389 H 230.283 2.50942 1.85566 0
M  V30 2390 N 230.584 -0.659388 1.43143 0
M  V30 2391 C 231.514 -1.78422 1.50625 0
M  V30 2392 C 232.495 -1.66216 0.361443 0
M  V30 2393 O 233.68 -1.85404 0.577834 0
M  V30 2394 C 230.81 -3.16815 1.42287 0
M  V30 2395 C 229.764 -3.43777 2.54954 0
M  V30 2396 C 229.09 -4.81905 2.31671 0
M  V30 2397 C 230.39 -3.39134 3.97222 0
M  V30 2398 H 232.084 -1.72417 2.44771 0
M  V30 2399 H 229.63 -0.828084 1.17808 0
M  V30 2400 H 231.583 -3.95253 1.46127 0
M  V30 2401 H 230.307 -3.23534 0.446435 0
M  V30 2402 H 228.966 -2.67707 2.50457 0
M  V30 2403 H 228.614 -4.85294 1.32284 0
M  V30 2404 H 228.314 -5.00906 3.07192 0
M  V30 2405 H 229.838 -5.62609 2.37284 0
M  V30 2406 H 231.252 -4.07518 4.03239 0
M  V30 2407 H 229.649 -3.69671 4.72719 0
M  V30 2408 H 230.719 -2.37426 4.22797 0
M  V30 2409 N 232.062 -1.29571 -0.897171 0
M  V30 2410 C 232.992 -1.17473 -2.01798 0
M  V30 2411 C 233.973 -0.068323 -1.69963 0
M  V30 2412 O 235.158 -0.248239 -1.92607 0
M  V30 2413 C 232.288 -0.853099 -3.36659 0
M  V30 2414 C 231.242 -1.9161 -3.82713 0
M  V30 2415 C 230.568 -1.44773 -5.14728 0
M  V30 2416 C 231.868 -3.32535 -4.02763 0
M  V30 2417 H 233.562 -2.11237 -2.12177 0
M  V30 2418 H 231.108 -1.01699 -1.01948 0
M  V30 2419 H 233.061 -0.755165 -4.14578 0
M  V30 2420 H 231.785 0.120236 -3.26379 0
M  V30 2421 H 230.444 -2.00346 -3.07013 0
M  V30 2422 H 230.092 -0.462995 -5.00865 0
M  V30 2423 H 229.792 -2.15865 -5.46513 0
M  V30 2424 H 231.316 -1.36334 -5.95185 0
M  V30 2425 H 232.73 -3.26626 -4.71156 0
M  V30 2426 H 231.127 -4.01607 -4.45905 0
M  V30 2427 H 232.197 -3.75326 -3.07016 0
M  V30 2428 N 233.54 1.10788 -1.12088 0
M  V30 2429 C 234.503 2.15207 -0.788577 0
M  V30 2430 C 235.503 1.59609 0.195317 0
M  V30 2431 O 236.693 1.74174 -0.0300193 0
M  V30 2432 C 233.825 3.4047 -0.171174 0
M  V30 2433 H 235.018 2.46116 -1.71368 0
M  V30 2434 H 232.571 1.26089 -0.923652 0
M  V30 2435 H 233.306 3.15176 0.763832 0
M  V30 2436 H 233.091 3.82109 -0.879514 0
M  V30 2437 H 234.581 4.17576 0.04496 0
M  V30 2438 N 235.018 0.912232 1.28515 0
M  V30 2439 C 235.948 0.416403 2.29757 0
M  V30 2440 C 236.929 -0.515194 1.6211 0
M  V30 2441 O 238.114 -0.423253 1.89532 0
M  V30 2442 C 235.244 -0.34572 3.45575 0
M  V30 2443 C 234.198 0.496599 4.25109 0
M  V30 2444 C 233.524 -0.393771 5.33248 0
M  V30 2445 C 234.824 1.75307 4.92001 0
M  V30 2446 H 236.518 1.26249 2.7148 0
M  V30 2447 H 234.064 0.608515 1.30511 0
M  V30 2448 H 236.017 -0.703422 4.15488 0
M  V30 2449 H 234.741 -1.2257 3.02728 0
M  V30 2450 H 233.4 0.8368 3.56922 0
M  V30 2451 H 233.048 -1.27225 4.86644 0
M  V30 2452 H 232.748 0.166209 5.87365 0
M  V30 2453 H 234.272 -0.747389 6.06009 0
M  V30 2454 H 235.686 1.46437 5.54283 0
M  V30 2455 H 234.083 2.25534 5.56106 0
M  V30 2456 H 235.153 2.48176 4.16577 0
M  V30 2457 N 236.496 -1.42363 0.676048 0
M  V30 2458 C 237.912 -1.55811 0.345718 0
M  V30 2459 C 238.112 -1.65544 -1.14879 0
M  V30 2460 O 237.168 -1.62306 -1.93424 0
M  V30 2461 C 238.481 -2.80746 1.07713 0
M  V30 2462 C 240.029 -2.9452 1.05958 0
M  V30 2463 C 240.504 -4.22318 1.77233 0
M  V30 2464 N 241.995 -4.29233 1.74108 0
M  V30 2465 C 242.73 -5.26935 2.26113 0
M  V30 2466 N 242.226 -6.30783 2.86505 0
M  V30 2467 N 244.019 -5.18741 2.1648 0
M  V30 2468 H 236.17 -1.34289 1.6456 0
M  V30 2469 H 238.433 -0.646506 0.69335 0
M  V30 2470 H 238.139 -2.79696 2.13221 0
M  V30 2471 H 238.013 -3.71676 0.64316 0
M  V30 2472 H 240.4 -2.95097 0.0128255 0
M  V30 2473 H 240.481 -2.04817 1.53244 0
M  V30 2474 H 240.125 -4.22502 2.81877 0
M  V30 2475 H 240.055 -5.10958 1.27396 0
M  V30 2476 H 242.546 -3.54814 1.30059 0
M  V30 2477 H 242.859 -7.01691 3.23805 0
M  V30 2478 H 241.204 -6.31341 2.90575 0
M  V30 2479 H 244.395 -4.36533 1.68987 0
M  V30 2480 H 244.568 -5.94721 2.57316 0
M  V30 2481 N 237.974 -0.419461 -1.51915 0
M  V30 2482 C 239.385 0.0477853 -1.86639 0
M  V30 2483 C 239.736 1.43531 -1.33766 0
M  V30 2484 O 238.861 2.05401 -0.68113 0
M  V30 2485 C 239.456 0.0934885 -3.38671 0
M  V30 2486 C 238.015 0.505097 -3.72996 0
M  V30 2487 C 237.162 -0.313792 -2.75519 0
M  V30 2488 H 240.113 -0.636088 -1.45395 0
M  V30 2489 H 240.134 0.906667 -3.6954 0
M  V30 2490 H 239.646 -0.916501 -3.77123 0
M  V30 2491 H 237.747 1.52135 -3.40126 0
M  V30 2492 H 237.86 0.242309 -4.78487 0
M  V30 2493 H 236.224 0.225363 -2.53701 0
M  V30 2494 H 237.007 -1.32232 -3.16812 0
M  V30 2495 N 239.452 1.56882 -0.150215 0
M  V30 2496 C 240.699 1.96228 0.500093 0
M  V30 2497 C 241.027 1.03522 1.64661 0
M  V30 2498 O 240.282 0.0650683 1.95592 0
M  V30 2499 C 240.581 3.41801 1.04437 0
M  V30 2500 C 240.247 4.50897 0.0159671 0
M  V30 2501 C 238.909 4.8046 -0.266731 0
M  V30 2502 C 241.261 5.16703 -0.683192 0
M  V30 2503 C 238.589 5.73135 -1.25434 0
M  V30 2504 C 240.941 6.10441 -1.65964 0
M  V30 2505 C 239.605 6.38382 -1.95 0
M  V30 2506 H 238.875 0.718048 0.182997 0
M  V30 2507 H 241.522 1.90019 -0.237724 0
M  V30 2508 H 239.827 3.44857 1.85959 0
M  V30 2509 H 241.524 3.69573 1.55618 0
M  V30 2510 H 238.114 4.27891 0.246485 0
M  V30 2511 H 242.298 4.93993 -0.477983 0
M  V30 2512 H 237.554 5.93074 -1.48571 0
M  V30 2513 H 241.728 6.60507 -2.20689 0
M  V30 2514 H 239.355 7.09996 -2.71679 0
M  V30 2515 N 240.93 -0.123565 1.57115 0
M  V30 2516 C 241.88 -1.1575 1.96433 0
M  V30 2517 C 242.864 -1.37313 0.838686 0
M  V30 2518 O 244.056 -1.38482 1.10235 0
M  V30 2519 C 241.185 -2.48526 2.36833 0
M  V30 2520 C 240.271 -2.30457 3.5602 0
M  V30 2521 N 240.662 -1.8219 4.71848 0
M  V30 2522 C 238.96 -2.61129 3.61563 0
M  V30 2523 C 239.661 -1.77721 5.53886 0
M  V30 2524 N 238.637 -2.21899 4.96248 0
M  V30 2525 H 242.439 -0.776797 2.83449 0
M  V30 2526 H 239.953 -0.331364 1.58983 0
M  V30 2527 H 241.95 -3.233 2.63216 0
M  V30 2528 H 240.61 -2.87358 1.5118 0
M  V30 2529 H 241.621 -1.51805 4.95152 0
M  V30 2530 H 238.298 -3.03678 2.86507 0
M  V30 2531 H 239.688 -1.41697 6.56789 0
M  V30 2532 N 242.408 -1.52605 -0.393616 0
M  V30 2533 C 243.636 -1.71294 -1.16043 0
M  V30 2534 C 244.051 -0.429259 -1.83855 0
M  V30 2535 O 243.408 0.595921 -1.72496 0
M  V30 2536 C 243.459 -2.8593 -2.21193 0
M  V30 2537 O 243.18 -4.09329 -1.56146 0
M  V30 2538 C 244.681 -3.16259 -3.10636 0
M  V30 2539 H 241.901 -0.573641 -0.348104 0
M  V30 2540 H 244.445 -1.99234 -0.461092 0
M  V30 2541 H 242.6 -2.60465 -2.86769 0
M  V30 2542 H 243.014 -4.73323 -2.25978 0
M  V30 2543 H 244.488 -3.99946 -3.80456 0
M  V30 2544 H 244.965 -2.3045 -3.73884 0
M  V30 2545 H 245.571 -3.43547 -2.50711 0
M  V30 2546 N 243.887 0.651787 -1.4349 0
M  V30 2547 C 244.837 1.75783 -1.45205 0
M  V30 2548 C 245.821 1.57679 -0.320328 0
M  V30 2549 O 247.013 1.67767 -0.564211 0
M  V30 2550 C 244.142 3.14377 -1.3792 0
M  V30 2551 C 243.228 3.38023 -2.56127 0
M  V30 2552 N 243.619 3.32135 -3.81471 0
M  V30 2553 C 241.917 3.68747 -2.50882 0
M  V30 2554 C 242.618 3.55902 -4.60118 0
M  V30 2555 N 241.594 3.77783 -3.90872 0
M  V30 2556 H 245.396 1.69657 -2.39987 0
M  V30 2557 H 242.91 0.853508 -1.38163 0
M  V30 2558 H 244.907 3.93666 -1.37231 0
M  V30 2559 H 243.567 3.21683 -0.441596 0
M  V30 2560 H 244.578 3.11515 -4.13738 0
M  V30 2561 H 241.255 3.8316 -1.65816 0
M  V30 2562 H 242.645 3.57116 -5.69138 0
M  V30 2563 N 245.365 1.30045 0.890287 0
M  V30 2564 C 246.59 1.21598 1.68014 0
M  V30 2565 C 247.015 -0.218678 1.86825 0
M  V30 2566 O 246.373 -1.15756 1.39536 0
M  V30 2567 C 246.421 1.94434 3.03691 0
M  V30 2568 O 245.525 1.2678 3.92429 0
M  V30 2569 H 244.866 0.420856 0.513592 0
M  V30 2570 H 247.396 1.71775 1.11151 0
M  V30 2571 H 247.406 2.03251 3.5377 0
M  V30 2572 H 246.081 2.98777 2.89318 0
M  V30 2573 H 244.658 1.26282 3.50866 0
M  V30 2574 N 246.843 -1.10192 1.12674 0
M  V30 2575 C 248.083 -1.83825 0.893736 0
M  V30 2576 C 248.447 -1.83341 -0.570082 0
M  V30 2577 O 249.648 -2.52553 -0.920354 0
M  V30 2578 C 247.919 -3.26405 1.45582 0
M  V30 2579 S 249.478 -4.17136 1.36171 0
M  V30 2580 H 246.296 -0.633732 0.322342 0
M  V30 2581 H 248.898 -1.32581 1.43675 0
M  V30 2582 H 247.602 -3.24329 2.51473 0
M  V30 2583 H 247.133 -3.82721 0.910405 0
M  V30 2584 H 249.148 -4.95069 0.334863 0
M  V30 2585 N 248.321 -0.919034 -1.28029 0
M  V30 2586 C 249.284 -0.416182 -2.2539 0
M  V30 2587 C 250.284 0.460438 -1.54067 0
M  V30 2588 O 251.474 0.262744 -1.72207 0
M  V30 2589 C 248.606 0.402707 -3.38513 0
M  V30 2590 H 249.799 -1.27629 -2.71387 0
M  V30 2591 H 247.352 -0.698919 -1.39803 0
M  V30 2592 H 248.087 1.282 -2.97885 0
M  V30 2593 H 247.872 -0.225698 -3.9145 0
M  V30 2594 H 249.362 0.745191 -4.10897 0
M  V30 2595 N 249.799 1.42003 -0.683588 0
M  V30 2596 C 251.215 1.55625 -0.353976 0
M  V30 2597 C 251.415 1.66151 1.14 0
M  V30 2598 O 250.471 1.63329 1.92561 0
M  V30 2599 C 251.784 2.80171 -1.092 0
M  V30 2600 C 253.332 2.93954 -1.07518 0
M  V30 2601 C 253.807 4.21372 -1.79471 0
M  V30 2602 N 255.298 4.28303 -1.76381 0
M  V30 2603 C 256.033 5.25729 -2.28904 0
M  V30 2604 N 255.529 6.29254 -2.89846 0
M  V30 2605 N 257.322 5.17586 -2.19228 0
M  V30 2606 H 249.473 1.33415 -1.6527 0
M  V30 2607 H 251.736 0.64282 -0.696769 0
M  V30 2608 H 251.442 2.78561 -2.14701 0
M  V30 2609 H 251.316 3.7133 -0.662862 0
M  V30 2610 H 253.703 2.95086 -0.028475 0
M  V30 2611 H 253.784 2.04002 -1.54328 0
M  V30 2612 H 253.428 4.21001 -2.84114 0
M  V30 2613 H 253.358 5.10275 -1.30104 0
M  V30 2614 H 255.849 3.54119 -1.31939 0
M  V30 2615 H 256.162 6.99964 -3.27522 0
M  V30 2616 H 254.507 6.29791 -2.93919 0
M  V30 2617 H 257.698 4.35631 -1.71299 0
M  V30 2618 H 257.871 5.93348 -2.60466 0
M  V30 2619 N 251.277 0.427512 1.51691 0
M  V30 2620 C 252.517 -0.141524 2.03909 0
M  V30 2621 C 252.881 -1.40811 1.30523 0
M  V30 2622 O 254.082 -2.05676 1.73063 0
M  V30 2623 C 252.353 -0.364962 3.55532 0
M  V30 2624 S 253.912 -0.898812 4.29496 0
M  V30 2625 H 250.73 -0.0364542 0.710065 0
M  V30 2626 H 253.332 0.584659 1.86553 0
M  V30 2627 H 252.036 0.56336 4.06515 0
M  V30 2628 H 251.567 -1.1185 3.77164 0
M  V30 2629 H 253.582 -2.17747 4.45871 0
M  V30 2630 N 252.755 -1.56801 0.158532 0
M  V30 2631 C 254.166 -1.83189 -0.360366 0
M  V30 2632 C 254.517 -1.07778 -1.63946 0
M  V30 2633 O 253.642 -0.326718 -2.13919 0
M  V30 2634 C 254.237 -3.32297 -0.660595 0
M  V30 2635 C 252.796 -3.59227 -1.12398 0
M  V30 2636 C 251.943 -2.76877 -0.153097 0
M  V30 2637 H 254.894 -1.54008 0.383031 0
M  V30 2638 H 254.915 -3.4908 -1.51405 0
M  V30 2639 H 254.427 -3.87156 0.270527 0
M  V30 2640 H 252.528 -3.09766 -2.07064 0
M  V30 2641 H 252.641 -4.67632 -1.04197 0
M  V30 2642 H 251.005 -2.46319 -0.647983 0
M  V30 2643 H 251.788 -3.34511 0.77182 0
M  V30 2644 N 254.233 0.115231 -1.57178 0
M  V30 2645 C 255.196 1.12526 -1.99676 0
M  V30 2646 C 256.196 1.34095 -0.88742 0
M  V30 2647 O 257.386 1.30548 -1.15337 0
M  V30 2648 C 254.518 2.4789 -2.34015 0
M  V30 2649 H 255.711 0.759912 -2.90113 0
M  V30 2650 H 253.264 0.359648 -1.52106 0
M  V30 2651 H 253.999 2.89339 -1.4647 0
M  V30 2652 H 253.784 2.33588 -3.14927 0
M  V30 2653 H 255.274 3.20575 -2.67622 0
M  V30 2654 N 255.711 1.52812 0.385517 0
M  V30 2655 C 256.659 1.78482 1.49155 0
M  V30 2656 C 257.653 0.652914 1.56312 0
M  V30 2657 O 258.859 0.835464 1.59436 0
M  V30 2658 H 255.234 0.5648 0.496493 0
M  V30 2659 H 257.205 2.71095 1.24699 0
M  V30 2660 C 255.954 1.97378 2.86247 0
M  V30 2661 H 255.277 2.83907 2.81491 0
M  V30 2662 H 256.717 2.19327 3.62866 0
M  V30 2663 C 255.176 0.74728 3.28508 0
M  V30 2664 O 255.706 -0.0736232 4.01633 0
M  V30 2665 N 253.912 0.576396 2.84826 0
M  V30 2666 H 253.459 1.24555 2.25486 0
M  V30 2667 H 253.417 -0.24288 3.1346 0
M  V30 2668 N 257.189 -0.644168 1.43834 0
M  V30 2669 C 258.122 -1.76906 1.44151 0
M  V30 2670 C 259.1 -1.59774 0.301857 0
M  V30 2671 O 260.284 -1.81834 0.496841 0
M  V30 2672 C 257.411 -3.14321 1.26174 0
M  V30 2673 C 256.457 -3.50134 2.43533 0
M  V30 2674 S 257.29 -3.49085 4.06079 0
M  V30 2675 C 258.446 -4.89142 3.90501 0
M  V30 2676 H 258.679 -1.76368 2.39336 0
M  V30 2677 H 256.212 -0.817624 1.30974 0
M  V30 2678 H 258.17 -3.93625 1.16489 0
M  V30 2679 H 256.831 -3.12412 0.325224 0
M  V30 2680 H 256.024 -4.50095 2.26783 0
M  V30 2681 H 255.626 -2.78264 2.4989 0
M  V30 2682 H 257.918 -5.78036 3.53385 0
M  V30 2683 H 258.861 -5.10945 4.90246 0
M  V30 2684 H 259.269 -4.63102 3.22795 0
M  V30 2685 N 258.668 -1.30515 -0.883378 0
M  V30 2686 C 259.908 -1.20716 -1.64946 0
M  V30 2687 C 260.272 0.234072 -1.90568 0
M  V30 2688 O 261.473 0.455335 -2.64915 0
M  V30 2689 C 259.744 -2.01444 -2.9522 0
M  V30 2690 S 261.303 -2.0836 -3.86175 0
M  V30 2691 H 258.121 -0.430165 -0.566109 0
M  V30 2692 H 260.723 -1.65011 -1.04841 0
M  V30 2693 H 259.427 -3.05268 -2.74298 0
M  V30 2694 H 258.958 -1.57817 -3.60357 0
M  V30 2695 H 260.973 -1.21215 -4.81167 0
M  V30 2696 N 260.146 1.09593 -1.13257 0
M  V30 2697 C 261.093 2.1618 -0.808381 0
M  V30 2698 C 262.063 1.64517 0.228754 0
M  V30 2699 O 263.248 1.9053 0.101381 0
M  V30 2700 C 260.388 3.43973 -0.278675 0
M  V30 2701 C 259.501 4.09545 -1.37466 0
M  V30 2702 C 258.636 5.25088 -0.803479 0
M  V30 2703 C 257.675 5.82579 -1.87799 0
M  V30 2704 N 256.812 6.89486 -1.32488 0
M  V30 2705 H 261.652 2.43254 -1.72138 0
M  V30 2706 H 259.189 1.19392 -0.859294 0
M  V30 2707 H 261.147 4.17174 0.0465583 0
M  V30 2708 H 259.777 3.17223 0.597459 0
M  V30 2709 H 258.829 3.34226 -1.81652 0
M  V30 2710 H 260.141 4.48307 -2.18684 0
M  V30 2711 H 259.295 6.05178 -0.429427 0
M  V30 2712 H 258.034 4.87684 0.0397956 0
M  V30 2713 H 257.039 5.01152 -2.26113 0
M  V30 2714 H 258.264 6.22045 -2.72463 0
M  V30 2715 H 256.21 6.54064 -0.503575 0
M  V30 2716 H 256.127 7.27007 -2.07355 0
M  V30 2717 H 257.395 7.73336 -0.978336 0
M  V30 2718 N 261.624 0.925811 1.2754 0
M  V30 2719 C 262.574 0.394488 2.24561 0
M  V30 2720 C 263.558 -0.500183 1.52928 0
M  V30 2721 O 264.75 -0.337936 1.73744 0
M  V30 2722 C 261.879 -0.353328 3.41477 0
M  V30 2723 C 260.965 0.557752 4.20416 0
M  V30 2724 N 261.356 1.67674 4.77199 0
M  V30 2725 C 259.654 0.360404 4.44541 0
M  V30 2726 C 260.355 2.24324 5.36706 0
M  V30 2727 N 259.331 1.53305 5.21535 0
M  V30 2728 H 263.133 1.2489 2.66045 0
M  V30 2729 H 260.647 0.779864 1.4245 0
M  V30 2730 H 262.644 -0.7509 4.10082 0
M  V30 2731 H 261.304 -1.20469 3.01525 0
M  V30 2732 H 262.315 2.05915 4.75204 0
M  V30 2733 H 258.992 -0.450454 4.15063 0
M  V30 2734 H 260.382 3.18521 5.91603 0
M  V30 2735 N 263.102 -1.41638 0.69111 0
M  V30 2736 C 264.049 -2.30789 0.0229705 0
M  V30 2737 C 265.019 -1.46863 -0.775911 0
M  V30 2738 O 266.204 -1.75661 -0.74485 0
M  V30 2739 C 263.344 -3.32868 -0.910666 0
M  V30 2740 C 262.457 -4.31875 -0.103874 0
M  V30 2741 C 261.592 -5.21024 -1.03475 0
M  V30 2742 C 260.631 -6.11702 -0.220598 0
M  V30 2743 N 259.768 -6.93349 -1.10504 0
M  V30 2744 H 264.608 -2.87366 0.788978 0
M  V30 2745 H 262.145 -1.41535 0.400794 0
M  V30 2746 H 264.103 -3.90596 -1.46597 0
M  V30 2747 H 262.733 -2.77851 -1.64312 0
M  V30 2748 H 261.785 -3.76131 0.568285 0
M  V30 2749 H 263.097 -4.96003 0.527504 0
M  V30 2750 H 262.251 -5.83565 -1.65943 0
M  V30 2751 H 260.99 -4.57112 -1.69999 0
M  V30 2752 H 259.995 -5.48215 0.417187 0
M  V30 2753 H 261.22 -6.77668 0.440784 0
M  V30 2754 H 259.166 -6.3205 -1.75638 0
M  V30 2755 H 259.083 -7.54146 -0.529125 0
M  V30 2756 H 260.351 -7.60362 -1.71667 0
M  V30 2757 N 264.58 -0.43555 -1.51462 0
M  V30 2758 C 265.826 0.131709 -2.02372 0
M  V30 2759 C 266.159 1.42516 -1.3192 0
M  V30 2760 O 265.434 1.89606 -0.433573 0
M  V30 2761 C 265.717 0.352301 -3.58373 0
M  V30 2762 C 265.57 -0.959676 -4.39443 0
M  V30 2763 C 266.889 1.12286 -4.25535 0
M  V30 2764 H 264.008 0.0463936 -0.735538 0
M  V30 2765 H 266.65 -0.574197 -1.81116 0
M  V30 2766 H 264.8 0.9536 -3.76615 0
M  V30 2767 H 266.472 -1.59482 -4.32855 0
M  V30 2768 H 264.715 -1.56468 -4.04599 0
M  V30 2769 H 265.386 -0.759394 -5.46752 0
M  V30 2770 H 267.862 0.613545 -4.11552 0
M  V30 2771 H 266.738 1.24598 -5.34571 0
M  V30 2772 H 266.999 2.15048 -3.86273 0
M  V30 2773 N 266.058 1.56714 -0.166846 0
M  V30 2774 C 266.988 2.20754 0.760913 0
M  V30 2775 C 267.969 1.16178 1.24244 0
M  V30 2776 O 269.154 1.44592 1.29641 0
M  V30 2777 C 266.284 2.84478 1.99223 0
M  V30 2778 C 265.238 3.95053 1.64672 0
M  V30 2779 C 264.564 4.45805 2.95232 0
M  V30 2780 C 265.864 5.14865 0.878155 0
M  V30 2781 H 267.558 2.98537 0.22713 0
M  V30 2782 H 265.104 1.43596 0.107805 0
M  V30 2783 H 267.057 3.27951 2.64624 0
M  V30 2784 H 265.781 2.04056 2.55007 0
M  V30 2785 H 264.44 3.52228 1.01641 0
M  V30 2786 H 264.088 3.62181 3.49047 0
M  V30 2787 H 263.788 5.204 2.7287 0
M  V30 2788 H 265.312 4.91962 3.6167 0
M  V30 2789 H 266.726 5.55059 1.43466 0
M  V30 2790 H 265.123 5.95348 0.753738 0
M  V30 2791 H 266.193 4.84735 -0.126377 0
M  V30 2792 N 267.536 -0.106894 1.57237 0
M  V30 2793 C 268.761 -0.830287 1.90055 0
M  V30 2794 C 269.186 -1.72064 0.75998 0
M  V30 2795 O 268.544 -1.78982 -0.288991 0
M  V30 2796 C 268.592 -1.6295 3.21683 0
M  V30 2797 O 267.696 -2.73748 3.08441 0
M  V30 2798 H 267.037 -0.228855 0.623315 0
M  V30 2799 H 269.567 -0.085658 2.04421 0
M  V30 2800 H 269.577 -2.01621 3.54701 0
M  V30 2801 H 268.252 -0.975989 4.04286 0
M  V30 2802 H 266.829 -2.38192 2.86913 0
M  V30 2803 N 269.014 -1.53014 -0.377408 0
M  V30 2804 C 270.291 -1.59215 -1.13622 0
M  V30 2805 C 270.671 -0.392407 -2.07421 0
M  V30 2806 O 270.019 0.618342 -2.19975 0
M  V30 2807 C 270.229 -2.93669 -1.88573 0
M  V30 2808 C 271.577 -3.47822 -2.43526 0
M  V30 2809 O 272.601 -2.9562 -1.98715 0
M  V30 2810 O 271.46 -4.39055 -3.25412 0
M  V30 2811 H 268.554 -0.642625 -0.52054 0
M  V30 2812 H 271.1 -1.65353 -0.381625 0
M  V30 2813 H 269.872 -3.7243 -1.20048 0
M  V30 2814 H 269.495 -2.90968 -2.70968 0
M  V30 2815 N 270.492 0.636531 -1.44174 0
M  V30 2816 C 271.722 1.42146 -1.49927 0
M  V30 2817 C 272.13 1.88812 -0.121063 0
M  V30 2818 O 271.473 1.61126 0.882267 0
M  V30 2819 C 271.535 2.67883 -2.39748 0
M  V30 2820 C 271.199 2.43048 -3.8701 0
M  V30 2821 C 272.196 2.05216 -4.77684 0
M  V30 2822 C 269.881 2.56856 -4.3166 0
M  V30 2823 C 271.875 1.81512 -6.11009 0
M  V30 2824 C 269.562 2.32766 -5.65034 0
M  V30 2825 C 270.56 1.95152 -6.54526 0
M  V30 2826 O 270.248 1.71326 -7.85431 0
M  V30 2827 H 269.98 0.442567 -0.51099 0
M  V30 2828 H 272.534 0.786158 -1.8976 0
M  V30 2829 H 270.764 3.34032 -1.94832 0
M  V30 2830 H 272.453 3.29874 -2.36513 0
M  V30 2831 H 273.219 1.94111 -4.44462 0
M  V30 2832 H 269.098 2.85104 -3.62266 0
M  V30 2833 H 272.642 1.52077 -6.80822 0
M  V30 2834 H 268.539 2.43479 -5.97819 0
M  V30 2835 H 269.307 1.85616 -7.97176 0
M  V30 2836 N 271.97 1.30982 0.876444 0
M  V30 2837 C 272.9 1.20668 1.99903 0
M  V30 2838 C 273.881 0.095354 1.69833 0
M  V30 2839 O 275.066 0.27885 1.92188 0
M  V30 2840 C 272.196 0.90655 3.3526 0
M  V30 2841 C 271.15 1.97675 3.79617 0
M  V30 2842 C 270.476 1.52943 5.1236 0
M  V30 2843 C 271.776 3.389 3.97422 0
M  V30 2844 H 273.47 2.14586 2.0879 0
M  V30 2845 H 271.016 1.03308 1.00317 0
M  V30 2846 H 272.969 0.821025 4.13324 0
M  V30 2847 H 271.693 -0.0682969 3.26529 0
M  V30 2848 H 270.352 2.05205 3.03787 0
M  V30 2849 H 270 0.54262 5.00065 0
M  V30 2850 H 269.7 2.24532 5.43009 0
M  V30 2851 H 271.224 1.45786 5.92941 0
M  V30 2852 H 272.638 3.34081 4.659 0
M  V30 2853 H 271.035 4.0865 4.3946 0
M  V30 2854 H 272.105 3.80163 3.01006 0
M  V30 2855 N 273.449 -1.08991 1.13837 0
M  V30 2856 C 274.865 -1.33312 0.877506 0
M  V30 2857 C 275.065 -1.95587 -0.48456 0
M  V30 2858 O 274.121 -2.20509 -1.23013 0
M  V30 2859 C 275.434 -2.24045 2.0056 0
M  V30 2860 C 276.982 -2.37542 2.03821 0
M  V30 2861 C 277.457 -3.31614 3.15905 0
M  V30 2862 N 278.948 -3.39189 3.15445 0
M  V30 2863 C 279.683 -4.11992 3.98811 0
M  V30 2864 N 279.179 -4.87553 4.92203 0
M  V30 2865 N 280.972 -4.07762 3.86894 0
M  V30 2866 H 273.123 -0.669456 2.01574 0
M  V30 2867 H 275.386 -0.357482 0.878015 0
M  V30 2868 H 275.092 -1.85521 2.98789 0
M  V30 2869 H 274.966 -3.24466 1.92359 0
M  V30 2870 H 277.353 -2.75327 1.06202 0
M  V30 2871 H 277.434 -1.36884 2.16093 0
M  V30 2872 H 277.078 -2.94551 4.13766 0
M  V30 2873 H 277.008 -4.32186 3.0087 0
M  V30 2874 H 279.499 -2.85314 2.47799 0
M  V30 2875 H 279.812 -5.40549 5.52292 0
M  V30 2876 H 278.157 -4.86627 4.96205 0
M  V30 2877 H 281.348 -3.47833 3.13257 0
M  V30 2878 H 281.521 -4.64238 4.52092 0
M  V30 2879 N 274.927 -0.932562 -1.27047 0
M  V30 2880 C 275.837 -0.441219 -2.30414 0
M  V30 2881 C 276.853 0.480525 -1.67233 0
M  V30 2882 O 278.029 0.362151 -1.98117 0
M  V30 2883 C 275.094 0.293651 -3.45454 0
M  V30 2884 C 274.155 -0.663601 -4.2414 0
M  V30 2885 C 273.388 0.0362932 -5.33688 0
M  V30 2886 O 273.611 1.2548 -5.56427 0
M  V30 2887 O 272.545 -0.638015 -5.98509 0
M  V30 2888 H 276.371 -1.29962 -2.74488 0
M  V30 2889 H 273.956 -0.6981 -1.32087 0
M  V30 2890 H 275.838 0.707951 -4.15411 0
M  V30 2891 H 274.513 1.12758 -3.03426 0
M  V30 2892 H 273.42 -1.12768 -3.56699 0
M  V30 2893 H 274.753 -1.46489 -4.69896 0
M  V30 2894 N 276.405 1.4127 -0.698611 0
M  V30 2895 C 277.821 1.55241 -0.370462 0
M  V30 2896 C 278.021 1.67351 1.12231 0
M  V30 2897 O 277.077 1.65363 1.90818 0
M  V30 2898 C 278.39 2.78997 -1.12165 0
M  V30 2899 C 279.938 2.92797 -1.1063 0
M  V30 2900 C 280.413 4.19445 -1.8393 0
M  V30 2901 N 281.904 4.26409 -1.80914 0
M  V30 2902 C 282.639 5.23271 -2.34467 0
M  V30 2903 N 282.135 6.26145 -2.96504 0
M  V30 2904 N 283.928 5.15232 -2.24706 0
M  V30 2905 H 276.079 1.31654 -1.66676 0
M  V30 2906 H 278.342 0.635393 -0.703548 0
M  V30 2907 H 278.048 2.76268 -2.17644 0
M  V30 2908 H 277.922 3.70606 -0.702209 0
M  V30 2909 H 280.309 2.95039 -0.0597713 0
M  V30 2910 H 280.39 2.02353 -1.56483 0
M  V30 2911 H 280.034 4.17964 -2.88563 0
M  V30 2912 H 279.964 5.08866 -1.35509 0
M  V30 2913 H 282.455 3.527 -1.35687 0
M  V30 2914 H 282.768 6.96451 -3.34927 0
M  V30 2915 H 281.113 6.26638 -3.00583 0
M  V30 2916 H 284.304 4.33789 -1.7591 0
M  V30 2917 H 284.477 5.90552 -2.66745 0
M  V30 2918 N 277.883 0.443576 1.51229 0
M  V30 2919 C 278.846 -0.353132 2.26463 0
M  V30 2920 C 279.846 -0.944338 1.3015 0
M  V30 2921 O 281.036 -0.817813 1.5381 0
M  V30 2922 C 278.168 -1.50023 3.06114 0
M  V30 2923 H 279.361 0.3063 2.98332 0
M  V30 2924 H 276.914 0.196902 1.55055 0
M  V30 2925 H 277.649 -2.19553 2.38677 0
M  V30 2926 H 277.434 -1.08241 3.76864 0
M  V30 2927 H 278.924 -2.06296 3.63087 0
M  V30 2928 N 279.361 -1.56624 0.175154 0
M  V30 2929 C 280.311 -2.14747 -0.766004 0
M  V30 2930 C 281.295 -1.08275 -1.19018 0
M  V30 2931 O 282.487 -1.34388 -1.15191 0
M  V30 2932 C 279.616 -2.79478 -1.99366 0
M  V30 2933 C 278.702 -3.93114 -1.5913 0
M  V30 2934 N 279.093 -4.97752 -0.89872 0
M  V30 2935 C 277.391 -4.04345 -1.88204 0
M  V30 2936 C 278.092 -5.77473 -0.700012 0
M  V30 2937 N 277.068 -5.29207 -1.24263 0
M  V30 2938 H 280.87 -2.93015 -0.22793 0
M  V30 2939 H 278.384 -1.6238 -0.0253843 0
M  V30 2940 H 280.381 -3.19498 -2.67818 0
M  V30 2941 H 279.041 -2.02692 -2.53665 0
M  V30 2942 H 280.052 -5.14903 -0.556347 0
M  V30 2943 H 276.729 -3.38667 -2.44153 0
M  V30 2944 H 278.119 -6.71728 -0.152047 0
M  V30 2945 N 280.839 0.0985539 -1.57292 0
M  V30 2946 C 282.116 0.834155 -1.76921 0
M  V30 2947 C 282.496 1.97101 -0.755928 0
M  V30 2948 O 281.844 2.27474 0.216245 0
M  V30 2949 C 282.054 1.33194 -3.22584 0
M  V30 2950 C 283.402 1.77611 -3.85668 0
M  V30 2951 O 284.426 1.42825 -3.26312 0
M  V30 2952 O 283.285 2.4192 -4.90038 0
M  V30 2953 H 280.379 0.397628 -0.725135 0
M  V30 2954 H 282.925 0.0807044 -1.69508 0
M  V30 2955 H 281.697 0.517248 -3.87866 0
M  V30 2956 H 281.32 2.1475 -3.34616 0
M  V30 2957 N 282.317 1.53212 0.369288 0
M  V30 2958 C 283.565 1.68881 1.11012 0
M  V30 2959 C 283.886 0.441285 1.89941 0
M  V30 2960 O 283.156 -0.544623 1.88177 0
M  V30 2961 H 281.736 0.622569 0.412816 0
M  V30 2962 H 284.398 1.90391 0.416802 0
M  V30 2963 H 283.494 2.54822 1.80201 0
M  V30 2964 N 283.795 -0.628877 1.44509 0
M  V30 2965 C 285.041 -1.39045 1.47629 0
M  V30 2966 C 285.374 -1.93892 0.109343 0
M  V30 2967 O 284.649 -1.7379 -0.87334 0
M  V30 2968 C 284.932 -2.55408 2.53848 0
M  V30 2969 C 284.785 -2.05896 3.99909 0
M  V30 2970 C 286.104 -3.5759 2.56549 0
M  V30 2971 H 283.223 -0.504232 0.537512 0
M  V30 2972 H 285.865 -0.710854 1.76201 0
M  V30 2973 H 284.015 -3.13384 2.29615 0
M  V30 2974 H 285.687 -1.52734 4.35282 0
M  V30 2975 H 283.93 -1.37061 4.11578 0
M  V30 2976 H 284.601 -2.89681 4.69882 0
M  V30 2977 H 287.077 -3.09419 2.78207 0
M  V30 2978 H 285.953 -4.36527 3.32769 0
M  V30 2979 H 286.214 -4.11808 1.60832 0
M  V30 2980 N 285.273 -1.31445 -0.869486 0
M  V30 2981 C 286.223 -1.15731 -1.96444 0
M  V30 2982 C 287.207 -0.0681855 -1.60755 0
M  V30 2983 O 288.399 -0.293154 -1.74555 0
M  V30 2984 C 285.528 -0.867255 -3.32165 0
M  V30 2985 C 284.614 -1.99738 -3.74119 0
M  V30 2986 N 285.005 -3.24447 -3.88031 0
M  V30 2987 C 283.303 -1.89723 -4.03635 0
M  V30 2988 C 284.004 -3.98374 -4.23879 0
M  V30 2989 N 282.98 -3.26547 -4.3459 0
M  V30 2990 H 286.782 -2.10296 -2.05312 0
M  V30 2991 H 284.296 -1.23009 -1.06031 0
M  V30 2992 H 286.293 -0.735668 -4.10358 0
M  V30 2993 H 284.953 0.0701614 -3.24624 0
M  V30 2994 H 285.964 -3.59557 -3.72746 0
M  V30 2995 H 282.641 -1.03449 -4.04481 0
M  V30 2996 H 284.031 -5.05844 -4.42235 0
M  V30 2997 N 286.751 1.08385 -1.14413 0
M  V30 2998 C 287.998 1.80776 -0.912482 0
M  V30 2999 C 288.326 1.86236 0.560934 0
M  V30 3000 O 287.581 1.33431 1.43159 0
M  V30 3001 C 287.88 3.26273 -1.45879 0
M  V30 3002 C 287.546 3.4093 -2.95089 0
M  V30 3003 C 286.208 3.44638 -3.35824 0
M  V30 3004 C 288.56 3.44591 -3.91033 0
M  V30 3005 C 285.888 3.49597 -4.71167 0
M  V30 3006 C 288.24 3.51086 -5.26233 0
M  V30 3007 C 286.904 3.53067 -5.6648 0
M  V30 3008 H 286.174 0.661507 -0.333901 0
M  V30 3009 H 288.821 1.27613 -1.42784 0
M  V30 3010 H 287.126 3.82146 -0.864376 0
M  V30 3011 H 288.823 3.80839 -1.2555 0
M  V30 3012 H 285.413 3.38736 -2.62594 0
M  V30 3013 H 289.597 3.40957 -3.60641 0
M  V30 3014 H 284.853 3.49424 -5.0171 0
M  V30 3015 H 289.027 3.52864 -6.00383 0
M  V30 3016 H 286.654 3.56662 -6.71339 0
M  V30 3017 N 288.23 0.939286 1.26551 0
M  V30 3018 C 289.14 0.453432 2.30176 0
M  V30 3019 C 290.156 -0.471649 1.67486 0
M  V30 3020 O 291.332 -0.35164 1.98306 0
M  V30 3021 C 288.397 -0.275326 3.45605 0
M  V30 3022 C 287.458 0.686084 4.23782 0
M  V30 3023 C 286.691 -0.00798994 5.33699 0
M  V30 3024 O 286.914 -1.22528 5.57085 0
M  V30 3025 O 285.848 0.669746 5.98162 0
M  V30 3026 H 289.674 1.31416 2.73795 0
M  V30 3027 H 287.259 0.705095 1.31715 0
M  V30 3028 H 289.141 -0.685911 4.1578 0
M  V30 3029 H 287.816 -1.11147 3.0402 0
M  V30 3030 H 286.723 1.14658 3.56096 0
M  V30 3031 H 288.056 1.48979 4.69112 0
M  V30 3032 N 289.708 -1.40897 0.706093 0
M  V30 3033 C 291.124 -1.55042 0.37869 0
M  V30 3034 C 291.324 -1.67944 -1.11342 0
M  V30 3035 O 290.38 -1.66372 -1.89938 0
M  V30 3036 C 291.693 -2.78398 1.13643 0
M  V30 3037 C 293.241 -2.92206 1.12181 0
M  V30 3038 C 293.716 -4.18463 1.86152 0
M  V30 3039 N 295.207 -4.25443 1.83173 0
M  V30 3040 C 295.942 -5.2202 2.37239 0
M  V30 3041 N 295.438 -6.24563 2.99821 0
M  V30 3042 N 297.231 -5.14033 2.27435 0
M  V30 3043 H 289.382 -1.30769 1.67372 0
M  V30 3044 H 291.645 -0.631653 0.706907 0
M  V30 3045 H 291.351 -2.7511 2.19106 0
M  V30 3046 H 291.225 -3.70228 0.721853 0
M  V30 3047 H 293.612 -2.95004 0.0754171 0
M  V30 3048 H 293.693 -2.01521 1.57554 0
M  V30 3049 H 293.337 -4.16427 2.90776 0
M  V30 3050 H 293.267 -5.08141 1.38206 0
M  V30 3051 H 295.758 -3.51976 1.37556 0
M  V30 3052 H 296.071 -6.94665 3.38616 0
M  V30 3053 H 294.416 -6.25035 3.03902 0
M  V30 3054 H 297.607 -4.3285 1.78208 0
M  V30 3055 H 297.78 -5.89129 2.69873 0
M  V30 3056 N 291.186 -0.45159 -1.50991 0
M  V30 3057 C 292.116 0.342898 -2.30969 0
M  V30 3058 C 293.097 1.00815 -1.37005 0
M  V30 3059 O 294.282 1.00907 -1.65926 0
M  V30 3060 C 291.412 1.43637 -3.16205 0
M  V30 3061 C 290.366 0.893818 -4.18563 0
M  V30 3062 C 289.692 2.08411 -4.92411 0
M  V30 3063 C 290.992 -0.0815568 -5.22236 0
M  V30 3064 H 292.686 -0.324556 -2.97636 0
M  V30 3065 H 290.232 -0.157531 -1.43136 0
M  V30 3066 H 292.185 1.9995 -3.70942 0
M  V30 3067 H 290.909 2.13232 -2.47386 0
M  V30 3068 H 289.568 0.352798 -3.64898 0
M  V30 3069 H 289.216 2.76658 -4.20082 0
M  V30 3070 H 288.916 1.72741 -5.61636 0
M  V30 3071 H 290.44 2.65251 -5.49976 0
M  V30 3072 H 291.854 0.391742 -5.7196 0
M  V30 3073 H 290.251 -0.351551 -5.99069 0
M  V30 3074 H 291.321 -1.01374 -4.74185 0
M  V30 3075 N 292.664 1.56529 -0.183458 0
M  V30 3076 C 293.911 1.97244 0.458357 0
M  V30 3077 C 294.239 1.06992 1.62428 0
M  V30 3078 O 293.494 0.106542 1.9541 0
M  V30 3079 C 293.793 3.43939 0.971637 0
M  V30 3080 C 293.459 4.5083 -0.0796784 0
M  V30 3081 C 292.121 4.79786 -0.368584 0
M  V30 3082 C 294.473 5.15138 -0.792638 0
M  V30 3083 C 291.801 5.70345 -1.37563 0
M  V30 3084 C 294.153 6.06784 -1.78875 0
M  V30 3085 C 292.817 6.34102 -2.08497 0
M  V30 3086 H 292.087 0.721768 0.167725 0
M  V30 3087 H 294.734 1.89472 -0.277976 0
M  V30 3088 H 293.039 3.48724 1.78602 0
M  V30 3089 H 294.736 3.72791 1.47744 0
M  V30 3090 H 291.326 4.28317 0.155668 0
M  V30 3091 H 295.51 4.92868 -0.582659 0
M  V30 3092 H 290.766 5.89789 -1.61118 0
M  V30 3093 H 294.94 6.55677 -2.3465 0
M  V30 3094 H 292.567 7.04074 -2.86678 0
M  V30 3095 N 294.142 -0.090211 1.57342 0
M  V30 3096 C 295.372 -0.805055 1.90269 0
M  V30 3097 C 295.78 -1.72561 0.775842 0
M  V30 3098 O 295.123 -1.81839 -0.260843 0
M  V30 3099 C 295.185 -1.66734 3.18497 0
M  V30 3100 C 294.849 -0.918092 4.47683 0
M  V30 3101 C 295.846 -0.245674 5.19319 0
M  V30 3102 C 293.531 -0.890724 4.94339 0
M  V30 3103 C 295.525 0.444088 6.35851 0
M  V30 3104 C 293.212 -0.197179 6.10782 0
M  V30 3105 C 294.21 0.469044 6.81388 0
M  V30 3106 O 293.898 1.15146 7.95611 0
M  V30 3107 H 293.63 -0.235143 0.633785 0
M  V30 3108 H 296.184 -0.0703805 2.05279 0
M  V30 3109 H 294.414 -2.44437 2.99646 0
M  V30 3110 H 296.103 -2.25919 3.37217 0
M  V30 3111 H 296.869 -0.258246 4.84312 0
M  V30 3112 H 292.748 -1.39873 4.39268 0
M  V30 3113 H 296.292 0.964667 6.90898 0
M  V30 3114 H 292.189 -0.18247 6.45242 0
M  V30 3115 H 292.957 1.05885 8.11622 0
M  V30 3116 N 295.62 -1.53406 -0.361157 0
M  V30 3117 C 296.866 -1.70054 -1.10496 0
M  V30 3118 C 297.199 -0.453278 -1.88836 0
M  V30 3119 O 296.474 0.5495 -1.86576 0
M  V30 3120 C 296.757 -2.95317 -2.06058 0
M  V30 3121 C 296.61 -4.3021 -1.31298 0
M  V30 3122 C 297.929 -3.16193 -3.06121 0
M  V30 3123 H 295.048 -0.618799 -0.400321 0
M  V30 3124 H 297.69 -1.86052 -0.385318 0
M  V30 3125 H 295.84 -2.81809 -2.67425 0
M  V30 3126 H 297.512 -4.55538 -0.726807 0
M  V30 3127 H 295.755 -4.29421 -0.614853 0
M  V30 3128 H 296.426 -5.14 -2.01265 0
M  V30 3129 H 298.902 -3.28916 -2.5486 0
M  V30 3130 H 297.778 -4.05266 -3.70204 0
M  V30 3131 H 298.039 -2.31676 -3.76535 0
M  V30 3132 N 297.098 0.621204 -1.44841 0
M  V30 3133 C 298.346 1.37783 -1.47852 0
M  V30 3134 C 298.667 1.94653 -0.116224 0
M  V30 3135 O 297.937 1.76367 0.852737 0
M  V30 3136 H 296.517 0.511453 -0.544449 0
M  V30 3137 H 299.179 0.730446 -1.80694 0
M  V30 3138 H 298.275 2.20414 -2.20961 0
M  V30 3139 N 298.576 1.31904 0.862503 0
M  V30 3140 C 299.853 1.12644 1.59908 0
M  V30 3141 C 300.233 -0.316104 2.0872 0
M  V30 3142 O 299.581 -1.31145 1.87118 0
M  V30 3143 C 299.791 2.1472 2.7513 0
M  V30 3144 C 301.139 2.47637 3.44907 0
M  V30 3145 O 302.163 2.13205 2.85346 0
M  V30 3146 O 301.022 3.06632 4.52371 0
M  V30 3147 H 298.116 0.43416 0.703871 0
M  V30 3148 H 300.662 1.43408 0.907314 0
M  V30 3149 H 299.434 3.1172 2.3653 0
M  V30 3150 H 299.057 1.84905 3.51989 0
M  V30 3151 N 300.054 -1.07777 1.14986 0
M  V30 3152 C 301.302 -1.79934 0.920235 0
M  V30 3153 C 301.623 -1.86955 -0.554336 0
M  V30 3154 O 300.893 -1.36731 -1.40291 0
M  V30 3155 H 299.473 -0.666424 0.337473 0
M  V30 3156 H 302.135 -1.3027 1.44968 0
M  V30 3157 H 301.231 -2.82539 1.32583 0
M  V30 3158 N 301.532 -0.945985 -1.26051 0
M  V30 3159 C 302.495 -0.463897 -2.24456 0
M  V30 3160 C 303.495 0.427655 -1.55009 0
M  V30 3161 O 304.685 0.226157 -1.72726 0
M  V30 3162 C 301.817 0.330812 -3.39291 0
M  V30 3163 H 303.01 -1.33357 -2.68619 0
M  V30 3164 H 300.563 -0.728416 -1.38289 0
M  V30 3165 H 301.298 1.21852 -3.00537 0
M  V30 3166 H 301.083 -0.308679 -3.90883 0
M  V30 3167 H 302.573 0.657865 -4.12386 0
M  V30 3168 N 303.011 1.40521 -0.713556 0
M  V30 3169 C 303.959 2.32549 -0.0485227 0
M  V30 3170 C 304.953 1.51931 0.74922 0
M  V30 3171 O 306.159 1.67745 0.652816 0
M  V30 3172 H 302.534 0.751994 0.00311138 0
M  V30 3173 H 304.505 2.86291 -0.841443 0
M  V30 3174 C 303.254 3.36879 0.860687 0
M  V30 3175 H 302.577 3.98978 0.256246 0
M  V30 3176 H 304.017 4.03772 1.294 0
M  V30 3177 C 302.476 2.72197 1.9852 0
M  V30 3178 O 303.006 2.5837 3.07584 0
M  V30 3179 N 301.212 2.30612 1.76823 0
M  V30 3180 H 300.759 2.42059 0.881217 0
M  V30 3181 H 300.717 1.87672 2.52243 0
M  V30 3182 N 304.489 0.459591 1.5075 0
M  V30 3183 C 305.766 -0.160371 1.94941 0
M  V30 3184 C 306.146 -1.58048 1.39943 0
M  V30 3185 O 305.494 -2.206 0.595629 0
M  V30 3186 C 305.704 -0.115432 3.48809 0
M  V30 3187 C 307.052 -0.310026 4.23467 0
M  V30 3188 O 308.076 -0.192543 3.55679 0
M  V30 3189 O 306.935 -0.546031 5.43765 0
M  V30 3190 H 304.029 -0.117925 0.818549 0
M  V30 3191 H 306.575 0.519169 1.61563 0
M  V30 3192 H 305.347 0.87652 3.81357 0
M  V30 3193 H 304.97 -0.836928 3.88692 0
M  V30 3194 N 305.967 -1.56429 0.191757 0
M  V30 3195 C 307.214 -1.97485 -0.447891 0
M  V30 3196 C 307.542 -1.07852 -1.61859 0
M  V30 3197 O 306.797 -0.116903 -1.95351 0
M  V30 3198 C 307.096 -3.44449 -0.953384 0
M  V30 3199 C 306.762 -4.50781 0.103586 0
M  V30 3200 C 305.424 -4.79584 0.394023 0
M  V30 3201 C 307.776 -5.1471 0.819946 0
M  V30 3202 C 305.104 -5.69607 1.40585 0
M  V30 3203 C 307.456 -6.05827 1.8209 0
M  V30 3204 C 306.12 -6.32987 2.11857 0
M  V30 3205 H 305.39 -0.722648 -0.163895 0
M  V30 3206 H 308.037 -1.89322 0.28802 0
M  V30 3207 H 306.342 -3.49666 -1.76751 0
M  V30 3208 H 308.039 -3.73569 -1.45765 0
M  V30 3209 H 304.629 -4.28394 -0.132951 0
M  V30 3210 H 308.813 -4.92552 0.608789 0
M  V30 3211 H 304.069 -5.88926 1.64243 0
M  V30 3212 H 308.243 -6.54424 2.38123 0
M  V30 3213 H 305.87 -7.02544 2.90407 0
M  V30 3214 N 307.445 0.0818655 -1.57387 0
M  V30 3215 C 308.685 0.788375 -1.88584 0
M  V30 3216 C 309.049 1.75248 -0.784351 0
M  V30 3217 O 310.25 2.50334 -0.979105 0
M  V30 3218 C 308.521 1.48654 -3.25018 0
M  V30 3219 S 310.08 2.22951 -3.7794 0
M  V30 3220 H 306.898 0.262383 -0.660815 0
M  V30 3221 H 309.5 0.0448995 -1.95448 0
M  V30 3222 H 308.204 0.770919 -4.03094 0
M  V30 3223 H 307.735 2.26965 -3.21326 0
M  V30 3224 H 309.75 3.49309 -3.52417 0
M  V30 3225 N 308.923 1.53595 0.353017 0
M  V30 3226 C 310.334 1.61937 0.929153 0
M  V30 3227 C 310.685 0.494686 1.89861 0
M  V30 3228 O 309.81 -0.377017 2.1309 0
M  V30 3229 C 310.405 2.93526 1.69199 0
M  V30 3230 C 308.964 3.04161 2.21727 0
M  V30 3231 C 308.111 2.57322 1.03348 0
M  V30 3232 H 311.062 1.58155 0.131431 0
M  V30 3233 H 311.083 2.82034 2.55416 0
M  V30 3234 H 310.595 3.75362 0.986144 0
M  V30 3235 H 308.696 2.26938 2.95516 0
M  V30 3236 H 308.809 4.09465 2.48748 0
M  V30 3237 H 307.173 2.12499 1.40414 0
M  V30 3238 H 307.956 3.41588 0.342428 0
M  V30 3239 N 310.401 -0.613514 1.45168 0
M  V30 3240 C 311.334 -1.73809 1.47871 0
M  V30 3241 C 312.312 -1.59097 0.33568 0
M  V30 3242 O 313.496 -1.8074 0.535299 0
M  V30 3243 C 310.623 -3.11574 1.32813 0
M  V30 3244 C 309.669 -3.4489 2.50905 0
M  V30 3245 S 310.502 -3.40393 4.13392 0
M  V30 3246 C 311.658 -4.80749 4.00789 0
M  V30 3247 H 311.891 -1.71252 2.43023 0
M  V30 3248 H 309.424 -0.789658 1.32679 0
M  V30 3249 H 311.382 -3.91065 1.24812 0
M  V30 3250 H 310.043 -3.11652 0.391418 0
M  V30 3251 H 309.236 -4.45183 2.36279 0
M  V30 3252 H 308.838 -2.72901 2.55736 0
M  V30 3253 H 311.13 -5.7041 3.65567 0
M  V30 3254 H 312.073 -5.00431 5.00974 0
M  V30 3255 H 312.481 -4.56151 3.32545 0
M  V30 3256 N 311.879 -1.3236 -0.855495 0
M  V30 3257 C 313.127 -1.22629 -1.60644 0
M  V30 3258 C 313.448 0.212136 -1.93843 0
M  V30 3259 O 312.718 1.13666 -1.59552 0
M  V30 3260 H 311.298 -0.450882 -0.595579 0
M  V30 3261 H 313.96 -1.65871 -1.02337 0
M  V30 3262 H 313.056 -1.80832 -2.54374 0
M  V30 3263 N 313.357 1.07166 -1.15556 0
M  V30 3264 C 314.287 2.16403 -0.877046 0
M  V30 3265 C 315.268 1.69217 0.173111 0
M  V30 3266 O 316.453 1.94181 0.027084 0
M  V30 3267 C 313.583 3.45349 -0.367632 0
M  V30 3268 C 312.537 4.05995 -1.35468 0
M  V30 3269 C 311.863 5.30045 -0.704038 0
M  V30 3270 C 313.163 4.45804 -2.72132 0
M  V30 3271 H 314.857 2.39959 -1.79053 0
M  V30 3272 H 312.403 1.15325 -0.862331 0
M  V30 3273 H 314.356 4.21095 -0.160317 0
M  V30 3274 H 313.08 3.21385 0.581326 0
M  V30 3275 H 311.739 3.32296 -1.54839 0
M  V30 3276 H 311.387 5.02373 0.251128 0
M  V30 3277 H 311.087 5.71579 -1.36277 0
M  V30 3278 H 312.611 6.08495 -0.50654 0
M  V30 3279 H 314.025 5.12671 -2.56595 0
M  V30 3280 H 312.422 4.98296 -3.34397 0
M  V30 3281 H 313.492 3.57083 -3.28054 0
M  V30 3282 N 314.835 0.952656 1.25548 0
M  V30 3283 C 315.765 0.489287 2.28316 0
M  V30 3284 C 316.746 -0.463359 1.63667 0
M  V30 3285 O 317.931 -0.36274 1.90782 0
M  V30 3286 C 315.061 -0.235603 3.465 0
M  V30 3287 C 314.015 0.631593 4.23314 0
M  V30 3288 C 313.341 -0.223923 5.34231 0
M  V30 3289 C 314.641 1.90871 4.86174 0
M  V30 3290 H 316.335 1.34822 2.67326 0
M  V30 3291 H 313.881 0.649728 1.28509 0
M  V30 3292 H 315.834 -0.570882 4.17515 0
M  V30 3293 H 314.558 -1.12877 3.06474 0
M  V30 3294 H 313.217 0.949929 3.54079 0
M  V30 3295 H 312.865 -1.11678 4.90446 0
M  V30 3296 H 312.565 0.35299 5.86539 0
M  V30 3297 H 314.089 -0.554214 6.0808 0
M  V30 3298 H 315.503 1.63997 5.49343 0
M  V30 3299 H 313.9 2.43112 5.4865 0
M  V30 3300 H 314.97 2.61304 4.08471 0
M  V30 3301 N 316.313 -1.40141 0.720998 0
M  V30 3302 C 317.276 -2.29058 0.0805834 0
M  V30 3303 C 318.276 -1.45632 -0.681758 0
M  V30 3304 O 319.466 -1.6648 -0.512856 0
M  V30 3305 C 316.598 -3.28925 -0.895593 0
M  V30 3306 H 317.791 -2.87191 0.863793 0
M  V30 3307 H 315.344 -1.48553 0.485975 0
M  V30 3308 H 316.079 -2.75822 -1.70566 0
M  V30 3309 H 315.864 -3.90519 -0.351766 0
M  V30 3310 H 317.354 -3.95494 -1.34069 0
M  V30 3311 N 317.792 -0.46758 -1.50504 0
M  V30 3312 C 319.04 0.0884469 -2.01906 0
M  V30 3313 C 319.361 1.40532 -1.35188 0
M  V30 3314 O 318.631 1.89515 -0.496079 0
M  V30 3315 H 317.211 0.0356765 -0.746148 0
M  V30 3316 H 319.873 -0.6172 -1.84869 0
M  V30 3317 H 318.969 0.2425 -3.11156 0
M  V30 3318 N 319.27 1.56325 -0.20005 0
M  V30 3319 C 320.518 1.97329 0.436547 0
M  V30 3320 C 320.839 1.08826 1.61808 0
M  V30 3321 O 320.109 0.160604 1.95241 0
M  V30 3322 H 318.689 0.728714 0.164272 0
M  V30 3323 H 321.351 1.92761 -0.287937 0
M  V30 3324 H 320.447 3.02264 0.777353 0
M  V30 3325 N 320.748 -0.0735177 1.57428 0
M  V30 3326 C 322.025 -0.805903 1.78226 0
M  V30 3327 C 322.405 -1.95874 0.787189 0
M  V30 3328 O 321.753 -2.2779 -0.180029 0
M  V30 3329 C 321.963 -1.28045 3.24662 0
M  V30 3330 C 323.311 -1.71453 3.88444 0
M  V30 3331 O 324.335 -1.37616 3.28543 0
M  V30 3332 O 323.194 -2.34093 4.93825 0
M  V30 3333 H 320.288 -0.386041 0.73137 0
M  V30 3334 H 322.834 -0.0537269 1.69615 0
M  V30 3335 H 321.606 -0.455476 3.8864 0
M  V30 3336 H 321.229 -2.094 3.37991 0
M  V30 3337 N 322.226 -1.5378 -0.344866 0
M  V30 3338 C 323.472 -1.71216 -1.08687 0
M  V30 3339 C 323.805 -0.473281 -1.88345 0
M  V30 3340 O 323.08 0.52968 -1.87149 0
M  V30 3341 C 323.363 -2.97486 -2.02914 0
M  V30 3342 C 323.216 -4.31579 -1.26727 0
M  V30 3343 C 324.535 -3.19422 -3.0275 0
M  V30 3344 H 321.654 -0.62301 -0.393735 0
M  V30 3345 H 324.296 -1.8645 -0.365563 0
M  V30 3346 H 322.446 -2.84629 -2.64421 0
M  V30 3347 H 324.118 -4.56284 -0.67845 0
M  V30 3348 H 322.361 -4.30049 -0.569273 0
M  V30 3349 H 323.032 -5.16106 -1.95803 0
M  V30 3350 H 325.508 -3.316 -2.51357 0
M  V30 3351 H 324.384 -4.09169 -3.65885 0
M  V30 3352 H 324.645 -2.35656 -3.74057 0
M  V30 3353 N 323.704 0.605807 -1.45491 0
M  V30 3354 C 324.667 1.69836 -1.5391 0
M  V30 3355 C 325.667 1.55261 -0.418424 0
M  V30 3356 O 326.857 1.60296 -0.681965 0
M  V30 3357 C 323.989 3.09117 -1.43734 0
M  V30 3358 H 325.182 1.63738 -2.51257 0
M  V30 3359 H 322.735 0.821689 -1.32959 0
M  V30 3360 H 323.47 3.20791 -0.475788 0
M  V30 3361 H 323.255 3.21104 -2.25021 0
M  V30 3362 H 324.745 3.88696 -1.52661 0
M  V30 3363 N 325.182 1.32811 0.848464 0
M  V30 3364 C 326.429 1.23724 1.60308 0
M  V30 3365 C 326.757 -0.1994 1.93475 0
M  V30 3366 O 326.012 -1.15406 1.5805 0
M  V30 3367 C 326.311 2.04831 2.92881 0
M  V30 3368 C 325.977 3.54125 2.79117 0
M  V30 3369 C 324.639 3.94829 2.7507 0
M  V30 3370 C 326.991 4.49036 2.64606 0
M  V30 3371 C 324.319 5.28675 2.544 0
M  V30 3372 C 326.671 5.83033 2.4547 0
M  V30 3373 C 325.335 6.22931 2.39819 0
M  V30 3374 H 324.605 0.452737 0.586609 0
M  V30 3375 H 327.252 1.64301 0.983743 0
M  V30 3376 H 325.557 1.57001 3.58968 0
M  V30 3377 H 327.254 1.95164 3.50303 0
M  V30 3378 H 323.844 3.21801 2.83094 0
M  V30 3379 H 328.028 4.18505 2.66772 0
M  V30 3380 H 323.284 5.58637 2.48465 0
M  V30 3381 H 327.458 6.56186 2.33222 0
M  V30 3382 H 325.085 7.26584 2.23562 0
M  V30 3383 N 326.66 -1.06551 1.16123 0
M  V30 3384 C 328.071 -1.60768 0.949232 0
M  V30 3385 C 328.422 -1.89523 -0.507508 0
M  V30 3386 O 327.547 -1.66671 -1.38021 0
M  V30 3387 C 328.142 -2.92086 1.71671 0
M  V30 3388 C 326.701 -3.43015 1.54977 0
M  V30 3389 C 325.848 -2.16947 1.72711 0
M  V30 3390 H 328.799 -0.895354 1.31031 0
M  V30 3391 H 328.82 -3.6138 1.19099 0
M  V30 3392 H 328.332 -2.71127 2.7769 0
M  V30 3393 H 326.433 -3.69039 0.513873 0
M  V30 3394 H 326.546 -4.18516 2.33198 0
M  V30 3395 H 324.91 -2.27041 1.15431 0
M  V30 3396 H 325.693 -1.98473 2.80113 0
M  V30 3397 N 328.138 -0.959301 -1.25041 0
M  V30 3398 C 329.554 -0.664474 -1.4511 0
M  V30 3399 C 329.754 0.776481 -1.85938 0
M  V30 3400 O 328.81 1.55128 -1.99227 0
M  V30 3401 C 330.123 -1.64139 -2.5195 0
M  V30 3402 C 331.671 -1.65309 -2.65786 0
M  V30 3403 C 332.146 -2.61777 -3.75815 0
M  V30 3404 N 333.637 -2.60169 -3.83231 0
M  V30 3405 C 334.372 -3.31489 -4.6787 0
M  V30 3406 N 333.868 -4.12298 -5.56761 0
M  V30 3407 N 335.661 -3.20354 -4.61876 0
M  V30 3408 H 327.812 -1.89043 -0.968332 0
M  V30 3409 H 330.075 -0.813408 -0.4869 0
M  V30 3410 H 329.781 -2.67086 -2.28819 0
M  V30 3411 H 329.655 -1.40756 -3.49954 0
M  V30 3412 H 332.042 -0.630778 -2.8828 0
M  V30 3413 H 332.123 -1.92753 -1.68167 0
M  V30 3414 H 331.767 -3.64137 -3.54071 0
M  V30 3415 H 331.697 -2.31616 -4.72929 0
M  V30 3416 H 334.188 -2.01507 -3.19692 0
M  V30 3417 H 334.501 -4.63625 -6.18281 0
M  V30 3418 H 332.846 -4.16395 -5.56454 0
M  V30 3419 H 336.037 -2.56692 -3.91442 0
M  V30 3420 H 336.21 -3.76201 -5.27614 0
M  V30 3421 N 329.616 1.39756 -0.72842 0
M  V30 3422 C 331.032 1.5442 -0.403308 0
M  V30 3423 C 331.232 1.69694 1.08656 0
M  V30 3424 O 330.288 1.69373 1.87267 0
M  V30 3425 C 331.601 2.76555 -1.18058 0
M  V30 3426 C 333.149 2.90384 -1.16815 0
M  V30 3427 C 333.624 4.15449 -1.92785 0
M  V30 3428 N 335.115 4.22475 -1.89918 0
M  V30 3429 C 335.85 5.1818 -2.45514 0
M  V30 3430 N 335.346 6.19714 -3.09719 0
M  V30 3431 N 337.139 5.1035 -2.35584 0
M  V30 3432 H 329.29 1.28089 -1.69431 0
M  V30 3433 H 331.553 0.620327 -0.716867 0
M  V30 3434 H 331.259 2.7159 -2.23455 0
M  V30 3435 H 331.133 3.69033 -0.780662 0
M  V30 3436 H 333.52 2.94846 -0.12234 0
M  V30 3437 H 333.601 1.98988 -1.6074 0
M  V30 3438 H 333.245 4.11749 -2.97364 0
M  V30 3439 H 333.175 5.05877 -1.46272 0
M  V30 3440 H 335.666 3.49743 -1.43138 0
M  V30 3441 H 335.979 6.8919 -3.49625 0
M  V30 3442 H 334.324 6.20121 -3.13807 0
M  V30 3443 H 337.515 4.2996 -1.85072 0
M  V30 3444 H 337.688 5.84761 -2.79211 0
M  V30 3445 N 331.094 0.475555 1.50254 0
M  V30 3446 C 332.342 -0.077738 2.0195 0
M  V30 3447 C 332.663 -1.39813 1.35931 0
M  V30 3448 O 331.933 -1.89249 0.506123 0
M  V30 3449 H 330.513 -0.031719 0.746326 0
M  V30 3450 H 333.175 0.626995 1.84539 0
M  V30 3451 H 332.271 -0.225995 3.11281 0
M  V30 3452 N 332.573 -1.56217 0.208337 0
M  V30 3453 C 333.803 -2.02043 -0.431523 0
M  V30 3454 C 334.211 -1.08755 -1.54819 0
M  V30 3455 O 333.554 -0.0870009 -1.83494 0
M  V30 3456 C 333.616 -3.44239 -1.03633 0
M  V30 3457 C 333.28 -4.56965 -0.0567502 0
M  V30 3458 C 334.277 -5.14624 0.738773 0
M  V30 3459 C 331.962 -5.02266 0.0581736 0
M  V30 3460 C 333.956 -6.16045 1.63605 0
M  V30 3461 C 331.643 -6.03528 0.959001 0
M  V30 3462 C 332.641 -6.60293 1.7465 0
M  V30 3463 O 332.329 -7.59586 2.6322 0
M  V30 3464 H 332.061 -0.666772 -0.111313 0
M  V30 3465 H 334.615 -2.02919 0.318277 0
M  V30 3466 H 332.845 -3.40391 -1.83497 0
M  V30 3467 H 334.534 -3.73793 -1.58221 0
M  V30 3468 H 335.3 -4.80483 0.660364 0
M  V30 3469 H 331.179 -4.57771 -0.544633 0
M  V30 3470 H 334.723 -6.60279 2.25116 0
M  V30 3471 H 330.62 -6.37092 1.03848 0
M  V30 3472 H 331.388 -7.77057 2.57148 0
M  V30 3473 N 334.051 0.0651679 -1.57465 0
M  V30 3474 C 335.462 0.616213 -1.76238 0
M  V30 3475 C 335.813 1.7756 -0.834689 0
M  V30 3476 O 334.938 2.1639 -0.0204156 0
M  V30 3477 C 335.533 1.12462 -3.1959 0
M  V30 3478 C 334.092 1.62147 -3.39684 0
M  V30 3479 C 333.239 0.543739 -2.71917 0
M  V30 3480 H 336.19 -0.161022 -1.57881 0
M  V30 3481 H 336.211 1.99324 -3.24114 0
M  V30 3482 H 335.723 0.280592 -3.87084 0
M  V30 3483 H 333.824 2.48854 -2.77313 0
M  V30 3484 H 333.937 1.69385 -4.48158 0
M  V30 3485 H 332.301 0.990352 -2.34657 0
M  V30 3486 H 333.084 -0.290216 -3.42071 0
M  V30 3487 N 335.529 1.53961 0.336706 0
M  V30 3488 C 336.462 1.77255 1.43722 0
M  V30 3489 C 337.44 0.62193 1.50236 0
M  V30 3490 O 338.624 0.857874 1.67847 0
M  V30 3491 C 335.751 1.87733 2.81912 0
M  V30 3492 C 334.797 3.09933 2.92991 0
M  V30 3493 S 335.63 4.68836 2.58753 0
M  V30 3494 C 336.786 4.82202 3.99039 0
M  V30 3495 H 337.019 2.70322 1.23748 0
M  V30 3496 H 334.552 1.44917 0.532777 0
M  V30 3497 H 336.51 1.94455 3.61521 0
M  V30 3498 H 335.171 0.956666 2.99177 0
M  V30 3499 H 334.364 3.1396 3.94265 0
M  V30 3500 H 333.966 3.01472 2.21338 0
M  V30 3501 H 336.258 4.64032 4.9364 0
M  V30 3502 H 337.201 5.84298 4.00002 0
M  V30 3503 H 337.609 4.10604 3.87382 0
M  V30 3504 N 337.007 -0.598083 1.45811 0
M  V30 3505 C 337.957 -1.70272 1.51629 0
M  V30 3506 C 338.941 -1.56382 0.378629 0
M  V30 3507 O 340.133 -1.65557 0.626087 0
M  V30 3508 C 337.262 -3.09042 1.49493 0
M  V30 3509 C 336.348 -3.28284 2.68496 0
M  V30 3510 N 336.739 -3.17748 3.93535 0
M  V30 3511 C 335.037 -3.59182 2.64394 0
M  V30 3512 C 335.738 -3.38579 4.7301 0
M  V30 3513 N 334.714 -3.63016 4.04624 0
M  V30 3514 H 338.516 -1.60634 2.46118 0
M  V30 3515 H 336.03 -0.801642 1.41235 0
M  V30 3516 H 338.027 -3.88302 1.51747 0
M  V30 3517 H 336.687 -3.19823 0.560683 0
M  V30 3518 H 337.698 -2.95944 4.25014 0
M  V30 3519 H 334.375 -3.76742 1.79922 0
M  V30 3520 H 335.765 -3.35747 5.82 0
M  V30 3521 N 338.485 -1.33259 -0.841409 0
M  V30 3522 C 339.901 -1.12538 -1.13169 0
M  V30 3523 C 340.101 0.0854037 -2.01319 0
M  V30 3524 O 339.157 0.766417 -2.40587 0
M  V30 3525 C 340.47 -2.41156 -1.79623 0
M  V30 3526 C 342.018 -2.47038 -1.922 0
M  V30 3527 C 342.493 -3.7561 -2.6207 0
M  V30 3528 N 343.984 -3.76667 -2.69585 0
M  V30 3529 C 344.719 -4.72861 -3.2433 0
M  V30 3530 N 344.215 -5.79428 -3.79783 0
M  V30 3531 N 346.008 -4.6034 -3.22558 0
M  V30 3532 H 338.159 -2.10868 -0.254676 0
M  V30 3533 H 340.422 -0.931615 -0.175493 0
M  V30 3534 H 340.128 -3.29747 -1.22311 0
M  V30 3535 H 340.002 -2.53114 -2.79666 0
M  V30 3536 H 342.389 -1.58898 -2.48667 0
M  V30 3537 H 342.47 -2.39022 -0.911148 0
M  V30 3538 H 342.114 -4.64131 -2.06263 0
M  V30 3539 H 342.044 -3.80902 -3.63622 0
M  V30 3540 H 344.535 -2.99648 -2.30259 0
M  V30 3541 H 344.848 -6.48867 -4.19752 0
M  V30 3542 H 343.193 -5.83166 -3.78078 0
M  V30 3543 H 346.384 -3.76244 -2.78492 0
M  V30 3544 H 346.557 -5.35478 -3.64921 0
M  V30 3545 N 339.963 1.05934 -1.16686 0
M  V30 3546 C 340.893 2.1546 -0.899949 0
M  V30 3547 C 341.874 1.69391 0.155154 0
M  V30 3548 O 343.059 1.94199 0.00648693 0
M  V30 3549 C 340.189 3.44939 -0.404241 0
M  V30 3550 C 339.143 4.04536 -1.39767 0
M  V30 3551 C 338.469 5.29268 -0.760216 0
M  V30 3552 C 339.769 4.42893 -2.76845 0
M  V30 3553 H 341.463 2.38046 -1.81588 0
M  V30 3554 H 339.009 1.14404 -0.874514 0
M  V30 3555 H 340.962 4.20901 -0.204971 0
M  V30 3556 H 339.686 3.21983 0.547206 0
M  V30 3557 H 338.345 3.30635 -1.58355 0
M  V30 3558 H 337.993 5.02611 0.197831 0
M  V30 3559 H 337.693 5.70101 -1.42332 0
M  V30 3560 H 339.217 6.07924 -0.57105 0
M  V30 3561 H 340.631 5.09921 -2.62019 0
M  V30 3562 H 339.028 4.94721 -3.39663 0
M  V30 3563 H 340.098 3.53584 -3.31823 0
M  V30 3564 N 341.441 0.965919 1.2453 0
M  V30 3565 C 342.69 0.622437 1.91856 0
M  V30 3566 C 343.003 -0.846006 1.76358 0
M  V30 3567 O 344.209 -1.29993 2.38357 0
M  V30 3568 C 342.665 1.0626 3.43856 0
M  V30 3569 C 342.273 2.55437 3.68043 0
M  V30 3570 C 344.017 0.792183 4.17043 0
M  V30 3571 C 341.924 2.93196 5.13605 0
M  V30 3572 H 340.854 0.229092 0.718354 0
M  V30 3573 H 343.505 1.17189 1.41206 0
M  V30 3574 H 341.887 0.441476 3.93531 0
M  V30 3575 H 343.061 3.22665 3.28974 0
M  V30 3576 H 341.376 2.8007 3.08139 0
M  V30 3577 H 343.973 1.05031 5.24283 0
M  V30 3578 H 344.316 -0.271584 4.15413 0
M  V30 3579 H 344.849 1.37419 3.73311 0
M  V30 3580 H 341.588 3.98636 5.20355 0
M  V30 3581 H 341.108 2.30651 5.53679 0
M  V30 3582 H 342.787 2.83004 5.81823 0
M  V30 3583 N 342.919 -1.39368 0.735821 0
M  V30 3584 C 343.851 -2.2913 0.0567723 0
M  V30 3585 C 344.864 -1.46859 -0.702589 0
M  V30 3586 O 346.053 -1.69925 -0.546616 0
M  V30 3587 C 343.153 -3.25492 -0.943823 0
M  V30 3588 C 342.326 -4.36709 -0.24581 0
M  V30 3589 C 341.385 -5.13376 -1.15463 0
M  V30 3590 O 340.411 -5.65683 -0.631803 0
M  V30 3591 N 341.613 -5.24656 -2.48427 0
M  V30 3592 H 344.378 -2.88047 0.827582 0
M  V30 3593 H 341.939 -1.50957 0.585112 0
M  V30 3594 H 343.931 -3.73657 -1.55443 0
M  V30 3595 H 342.501 -2.676 -1.61583 0
M  V30 3596 H 341.721 -3.9041 0.545286 0
M  V30 3597 H 343.009 -5.08244 0.237891 0
M  V30 3598 H 342.407 -4.83679 -2.93379 0
M  V30 3599 H 340.964 -5.76258 -3.04582 0
M  V30 3600 N 344.397 -0.483516 -1.5 0
M  V30 3601 C 345.307 0.309172 -2.32554 0
M  V30 3602 C 346.323 0.984159 -1.43493 0
M  V30 3603 O 347.499 0.969399 -1.76535 0
M  V30 3604 C 344.564 1.36979 -3.18493 0
M  V30 3605 C 343.625 0.710095 -4.23387 0
M  V30 3606 C 342.858 1.72018 -5.05218 0
M  V30 3607 O 343.081 2.94813 -4.88305 0
M  V30 3608 O 342.015 1.28515 -5.8802 0
M  V30 3609 H 345.841 -0.366064 -3.01486 0
M  V30 3610 H 343.426 -0.24514 -1.47375 0
M  V30 3611 H 345.308 1.98385 -3.71781 0
M  V30 3612 H 343.983 2.02828 -2.52275 0
M  V30 3613 H 342.89 0.0567539 -3.74057 0
M  V30 3614 H 344.223 0.0943557 -4.9211 0
M  V30 3615 N 345.875 1.56104 -0.216619 0
M  V30 3616 C 346.838 2.18819 0.681962 0
M  V30 3617 C 347.838 1.14866 1.12528 0
M  V30 3618 O 349.028 1.40128 1.03488 0
M  V30 3619 C 346.16 2.80756 1.93362 0
M  V30 3620 H 347.353 2.99595 0.135254 0
M  V30 3621 H 344.906 1.56265 0.0330003 0
M  V30 3622 H 345.641 2.03837 2.52232 0
M  V30 3623 H 345.426 3.56876 1.62426 0
M  V30 3624 H 346.916 3.28844 2.57393 0
M  V30 3625 N 347.353 -0.0568162 1.57498 0
M  V30 3626 C 348.285 -1.09292 2.01464 0
M  V30 3627 C 349.298 -1.34112 0.922913 0
M  V30 3628 O 350.487 -1.32089 1.20062 0
M  V30 3629 C 347.587 -2.44068 2.35125 0
M  V30 3630 C 346.76 -2.38995 3.66333 0
M  V30 3631 C 345.819 -3.55997 3.87495 0
M  V30 3632 O 344.845 -3.36746 4.58901 0
M  V30 3633 N 346.047 -4.76888 3.30996 0
M  V30 3634 H 348.812 -0.718386 2.90963 0
M  V30 3635 H 346.373 -0.245235 1.60032 0
M  V30 3636 H 348.365 -3.21011 2.46443 0
M  V30 3637 H 346.935 -2.73468 1.5144 0
M  V30 3638 H 346.155 -1.47336 3.65631 0
M  V30 3639 H 347.443 -2.3272 4.52458 0
M  V30 3640 H 346.841 -4.95431 2.73065 0
M  V30 3641 H 345.398 -5.51291 3.47738 0
M  V30 3642 N 348.832 -1.54138 -0.328536 0
M  V30 3643 C 349.779 -1.83176 -1.40411 0
M  V30 3644 C 350.749 -0.678494 -1.5161 0
M  V30 3645 O 351.934 -0.92443 -1.6691 0
M  V30 3646 C 349.074 -2.06035 -2.76846 0
M  V30 3647 C 348.187 -3.33727 -2.74318 0
M  V30 3648 C 347.322 -3.46574 -4.02567 0
M  V30 3649 C 346.361 -4.68159 -3.94327 0
M  V30 3650 N 345.498 -4.77959 -5.14296 0
M  V30 3651 H 350.338 -2.74938 -1.14948 0
M  V30 3652 H 347.875 -1.36166 -0.556538 0
M  V30 3653 H 349.833 -2.1728 -3.56153 0
M  V30 3654 H 348.463 -1.1757 -3.00628 0
M  V30 3655 H 347.515 -3.31246 -1.8703 0
M  V30 3656 H 348.827 -4.23139 -2.64111 0
M  V30 3657 H 347.981 -3.57333 -4.90304 0
M  V30 3658 H 346.72 -2.55245 -4.15574 0
M  V30 3659 H 345.725 -4.57461 -3.04974 0
M  V30 3660 H 346.95 -5.60868 -3.82889 0
M  V30 3661 H 344.896 -3.89544 -5.27818 0
M  V30 3662 H 344.813 -5.6133 -5.06404 0
M  V30 3663 H 346.081 -4.93044 -6.03761 0
M  V30 3664 N 350.31 0.590341 -1.46126 0
M  V30 3665 C 351.273 1.68194 -1.55703 0
M  V30 3666 C 352.273 1.54808 -0.434868 0
M  V30 3667 O 353.463 1.59564 -0.698928 0
M  V30 3668 C 350.595 3.07575 -1.47005 0
M  V30 3669 H 351.788 1.61064 -2.52979 0
M  V30 3670 H 349.341 0.807541 -1.33823 0
M  V30 3671 H 350.076 3.20268 -0.509785 0
M  V30 3672 H 349.861 3.187 -2.28414 0
M  V30 3673 H 351.351 3.87055 -1.56776 0
M  V30 3674 N 351.788 1.33704 0.83433 0
M  V30 3675 C 352.698 1.26382 1.97648 0
M  V30 3676 C 353.714 0.173548 1.73132 0
M  V30 3677 O 354.89 0.397962 1.97429 0
M  V30 3678 C 351.955 1.00769 3.31733 0
M  V30 3679 C 351.016 2.1884 3.69334 0
M  V30 3680 C 350.249 1.9444 4.9702 0
M  V30 3681 O 350.472 0.896961 5.63303 0
M  V30 3682 O 349.406 2.81093 5.32231 0
M  V30 3683 H 353.232 2.22444 2.06767 0
M  V30 3684 H 350.817 1.13795 0.968037 0
M  V30 3685 H 352.699 0.882186 4.12062 0
M  V30 3686 H 351.374 0.0773783 3.23608 0
M  V30 3687 H 350.281 2.36946 2.89495 0
M  V30 3688 H 351.614 3.10221 3.82131 0
M  V30 3689 N 353.266 -1.05314 1.17247 0
M  V30 3690 C 354.677 -1.59753 0.96623 0
M  V30 3691 C 355.028 -1.9005 -0.487378 0
M  V30 3692 O 354.153 -1.68126 -1.36245 0
M  V30 3693 C 354.748 -2.90249 1.74759 0
M  V30 3694 C 353.307 -3.41352 1.58606 0
M  V30 3695 C 352.454 -2.15103 1.75002 0
M  V30 3696 H 355.405 -0.881406 1.31973 0
M  V30 3697 H 355.426 -3.60097 1.22925 0
M  V30 3698 H 354.938 -2.68166 2.8055 0
M  V30 3699 H 353.039 -3.68474 0.552985 0
M  V30 3700 H 353.152 -4.16019 2.37624 0
M  V30 3701 H 351.516 -2.25804 1.17833 0
M  V30 3702 H 352.299 -1.95491 2.82202 0
M  V30 3703 N 354.744 -0.972509 -1.24016 0
M  V30 3704 C 355.969 -0.654417 -1.96805 0
M  V30 3705 C 356.394 0.770398 -1.716 0
M  V30 3706 O 355.752 1.52361 -0.982647 0
M  V30 3707 C 355.8 -0.941031 -3.48105 0
M  V30 3708 O 354.904 -0.0289472 -4.1239 0
M  V30 3709 H 354.245 -0.24692 -0.616382 0
M  V30 3710 H 356.775 -1.30396 -1.57664 0
M  V30 3711 H 356.785 -0.87452 -3.98517 0
M  V30 3712 H 355.46 -1.97939 -3.65777 0
M  V30 3713 H 354.037 -0.149192 -3.72601 0
M  V30 3714 N 356.222 1.38976 -0.743202 0
M  V30 3715 C 357.447 2.05161 -0.303936 0
M  V30 3716 C 357.872 1.55677 1.05576 0
M  V30 3717 O 357.23 0.704131 1.67068 0
M  V30 3718 C 357.278 3.59138 -0.324373 0
M  V30 3719 O 356.382 4.06668 0.685204 0
M  V30 3720 H 355.723 0.649815 -0.136518 0
M  V30 3721 H 358.253 1.77852 -1.01142 0
M  V30 3722 H 358.263 4.07639 -0.171618 0
M  V30 3723 H 356.938 3.94515 -1.31647 0
M  V30 3724 H 355.515 3.69561 0.497913 0
M  V30 3725 N 357.7 0.491464 1.49741 0
M  V30 3726 C 358.947 -0.0564256 2.02421 0
M  V30 3727 C 359.275 -1.37872 1.37192 0
M  V30 3728 O 358.53 -1.89375 0.493508 0
M  V30 3729 C 358.829 -0.267329 3.56399 0
M  V30 3730 C 358.495 0.975775 4.40215 0
M  V30 3731 C 357.157 1.31655 4.62839 0
M  V30 3732 C 359.509 1.80251 4.89039 0
M  V30 3733 C 356.837 2.48375 5.31532 0
M  V30 3734 C 359.189 2.96116 5.59015 0
M  V30 3735 C 357.853 3.30585 5.79888 0
M  V30 3736 H 357.123 -0.0206476 0.740712 0
M  V30 3737 H 359.77 0.649686 1.80143 0
M  V30 3738 H 358.075 -1.05588 3.77304 0
M  V30 3739 H 359.772 -0.705549 3.94744 0
M  V30 3740 H 356.362 0.700315 4.2284 0
M  V30 3741 H 360.546 1.55239 4.71396 0
M  V30 3742 H 355.802 2.7533 5.45897 0
M  V30 3743 H 359.976 3.60509 5.95824 0
M  V30 3744 H 357.603 4.21132 6.32892 0
M  V30 3745 N 359.178 -1.55987 0.224894 0
M  V30 3746 C 360.594 -1.59066 -0.130426 0
M  V30 3747 C 360.794 -1.24176 -1.5869 0
M  V30 3748 O 359.85 -0.978592 -2.32766 0
M  V30 3749 C 361.163 -3.00042 0.198883 0
M  V30 3750 C 362.711 -3.1268 0.141391 0
M  V30 3751 C 363.186 -4.55839 0.444422 0
M  V30 3752 N 364.677 -4.6152 0.394115 0
M  V30 3753 C 365.412 -5.70231 0.602038 0
M  V30 3754 N 364.908 -6.87291 0.871914 0
M  V30 3755 N 366.701 -5.59555 0.534245 0
M  V30 3756 H 358.852 -1.76941 1.17497 0
M  V30 3757 H 361.115 -0.822604 0.471197 0
M  V30 3758 H 360.821 -3.30234 1.2099 0
M  V30 3759 H 360.695 -3.74075 -0.484535 0
M  V30 3760 H 363.082 -2.82283 -0.860265 0
M  V30 3761 H 363.163 -2.40969 0.858335 0
M  V30 3762 H 362.807 -4.86954 1.44353 0
M  V30 3763 H 362.737 -5.2578 -0.293752 0
M  V30 3764 H 365.228 -3.77405 0.193356 0
M  V30 3765 H 365.541 -7.66058 1.01858 0
M  V30 3766 H 363.886 -6.89028 0.909145 0
M  V30 3767 H 367.077 -4.6698 0.323612 0
M  V30 3768 H 367.25 -6.44211 0.699693 0
M  V30 3769 N 360.656 0.0484629 -1.57525 0
M  V30 3770 C 361.619 1.03956 -2.04269 0
M  V30 3771 C 362.619 1.30211 -0.943496 0
M  V30 3772 O 363.809 1.25539 -1.20771 0
M  V30 3773 C 360.941 2.37742 -2.44319 0
M  V30 3774 H 362.134 0.636182 -2.93075 0
M  V30 3775 H 359.687 0.294811 -1.53494 0
M  V30 3776 H 360.422 2.82866 -1.5861 0
M  V30 3777 H 360.207 2.20021 -3.24551 0
M  V30 3778 H 361.697 3.08936 -2.80978 0
M  V30 3779 N 362.134 1.5431 0.320358 0
M  V30 3780 C 363.359 1.76954 1.08175 0
M  V30 3781 C 363.784 0.518193 1.80821 0
M  V30 3782 O 363.142 -0.530411 1.73368 0
M  V30 3783 C 363.19 2.96451 2.05303 0
M  V30 3784 O 362.294 2.68221 3.13259 0
M  V30 3785 H 361.635 0.586275 0.311733 0
M  V30 3786 H 364.165 2.01342 0.363676 0
M  V30 3787 H 364.175 3.23887 2.48116 0
M  V30 3788 H 362.85 3.87196 1.51829 0
M  V30 3789 H 361.427 2.51744 2.75099 0
M  V30 3790 N 363.613 -0.582584 1.46437 0
M  V30 3791 C 364.859 -1.34278 1.51978 0
M  V30 3792 C 365.192 -1.93446 0.170973 0
M  V30 3793 O 364.467 -1.76481 -0.817608 0
M  V30 3794 C 364.75 -2.47203 2.61845 0
M  V30 3795 C 364.603 -1.93069 4.06257 0
M  V30 3796 C 365.922 -3.49247 2.67795 0
M  V30 3797 H 363.041 -0.486876 0.553282 0
M  V30 3798 H 365.683 -0.654437 1.78374 0
M  V30 3799 H 363.833 -3.0592 2.39469 0
M  V30 3800 H 365.505 -1.38808 4.3992 0
M  V30 3801 H 363.748 -1.23898 4.1573 0
M  V30 3802 H 364.419 -2.74586 4.7886 0
M  V30 3803 H 366.895 -3.00411 2.8791 0
M  V30 3804 H 365.771 -4.25719 3.46489 0
M  V30 3805 H 366.032 -4.06482 1.73852 0
M  V30 3806 N 365.091 -1.34144 -0.827227 0
M  V30 3807 C 366.337 -1.26446 -1.58554 0
M  V30 3808 C 366.67 0.1664 -1.93486 0
M  V30 3809 O 365.945 1.1107 -1.59667 0
M  V30 3810 C 366.228 -2.15111 -2.8879 0
M  V30 3811 C 366.081 -3.66712 -2.60465 0
M  V30 3812 C 367.4 -2.03311 -3.90324 0
M  V30 3813 H 364.519 -0.46067 -0.575284 0
M  V30 3814 H 367.161 -1.64356 -0.953269 0
M  V30 3815 H 365.311 -1.8291 -3.42748 0
M  V30 3816 H 366.983 -4.09259 -2.1285 0
M  V30 3817 H 365.226 -3.88014 -1.93978 0
M  V30 3818 H 365.897 -4.24112 -3.53317 0
M  V30 3819 H 368.373 -2.31574 -3.45706 0
M  V30 3820 H 367.249 -2.67582 -4.79261 0
M  V30 3821 H 367.51 -1.00879 -4.30437 0
M  V30 3822 N 366.569 1.04691 -1.17803 0
M  V30 3823 C 367.98 1.59238 -0.974689 0
M  V30 3824 C 368.331 1.90306 0.477292 0
M  V30 3825 O 367.456 1.68846 1.35352 0
M  V30 3826 C 368.051 2.89318 -1.76296 0
M  V30 3827 C 366.61 3.40506 -1.60414 0
M  V30 3828 C 365.757 2.14172 -1.76141 0
M  V30 3829 H 368.708 0.874395 -1.32439 0
M  V30 3830 H 368.729 3.5944 -1.24833 0
M  V30 3831 H 368.241 2.66675 -2.81968 0
M  V30 3832 H 366.342 3.68175 -0.572519 0
M  V30 3833 H 366.455 4.14753 -2.39827 0
M  V30 3834 H 364.819 2.25176 -1.19028 0
M  V30 3835 H 365.602 1.93992 -2.83235 0
M  V30 3836 N 368.047 0.979072 1.23499 0
M  V30 3837 C 369.293 0.6578 1.9247 0
M  V30 3838 C 369.648 -0.799746 1.74991 0
M  V30 3839 O 368.941 -1.56922 1.09937 0
M  V30 3840 C 369.135 0.981932 3.43646 0
M  V30 3841 C 368.964 2.46944 3.75831 0
M  V30 3842 C 367.734 3.13119 3.96591 0
M  V30 3843 C 369.932 3.45006 3.81412 0
M  V30 3844 N 367.914 4.51489 4.15969 0
M  V30 3845 C 369.285 4.68778 4.05768 0
M  V30 3846 C 371.34 3.39505 3.64198 0
M  V30 3847 C 370.043 5.87723 4.14697 0
M  V30 3848 C 372.069 4.57814 3.7438 0
M  V30 3849 C 371.431 5.80381 3.99171 0
M  V30 3850 H 367.53 0.291746 0.72554 0
M  V30 3851 H 370.114 1.25626 1.48749 0
M  V30 3852 H 368.285 0.412179 3.86207 0
M  V30 3853 H 370.017 0.618068 3.99953 0
M  V30 3854 H 366.772 2.63619 3.93449 0
M  V30 3855 H 367.196 5.23221 4.29615 0
M  V30 3856 H 371.838 2.45773 3.44029 0
M  V30 3857 H 369.556 6.81874 4.33675 0
M  V30 3858 H 373.142 4.55132 3.62417 0
M  V30 3859 H 372.022 6.70398 4.06861 0
M  V30 3860 N 369.525 -1.3858 0.750561 0
M  V30 3861 C 370.435 -2.34278 0.122825 0
M  V30 3862 C 371.451 -1.59116 -0.704131 0
M  V30 3863 O 372.627 -1.91326 -0.628987 0
M  V30 3864 C 369.692 -3.38221 -0.762086 0
M  V30 3865 C 368.753 -4.29227 0.078896 0
M  V30 3866 C 367.986 -5.28205 -0.763874 0
M  V30 3867 O 368.209 -5.34112 -2.00201 0
M  V30 3868 O 367.143 -6.01618 -0.18428 0
M  V30 3869 H 370.969 -2.89649 0.913088 0
M  V30 3870 H 368.554 -1.40374 0.511417 0
M  V30 3871 H 370.436 -4.01872 -1.26793 0
M  V30 3872 H 369.111 -2.85211 -1.5309 0
M  V30 3873 H 368.018 -3.68747 0.630621 0
M  V30 3874 H 369.351 -4.85484 0.810289 0
M  V30 3875 N 371.003 -0.499398 -1.49478 0
M  V30 3876 C 372.231 0.0425456 -2.06856 0
M  V30 3877 C 372.646 1.30964 -1.35992 0
M  V30 3878 O 372.003 1.77172 -0.437762 0
M  V30 3879 C 372.054 0.301735 -3.60239 0
M  V30 3880 O 371.775 -0.915127 -4.28436 0
M  V30 3881 C 373.276 0.887499 -4.34325 0
M  V30 3882 H 370.496 -0.0197482 -0.670709 0
M  V30 3883 H 373.04 -0.696297 -1.92281 0
M  V30 3884 H 371.195 0.990556 -3.74522 0
M  V30 3885 H 371.609 -0.676993 -5.20113 0
M  V30 3886 H 373.083 1.01845 -5.42523 0
M  V30 3887 H 373.56 1.88488 -3.96698 0
M  V30 3888 H 374.166 0.236196 -4.24644 0
M  V30 3889 N 372.481 1.55866 -0.233164 0
M  V30 3890 C 373.444 2.1953 0.658715 0
M  V30 3891 C 374.444 1.16053 1.11303 0
M  V30 3892 O 375.634 1.41218 1.01996 0
M  V30 3893 C 372.766 2.82791 1.90373 0
M  V30 3894 H 373.959 2.99721 0.10347 0
M  V30 3895 H 371.512 1.56291 0.0164245 0
M  V30 3896 H 372.247 2.06501 2.50056 0
M  V30 3897 H 372.032 3.58578 1.58632 0
M  V30 3898 H 373.522 3.31556 2.53891 0
M  V30 3899 N 373.959 -0.0401083 1.57549 0
M  V30 3900 C 374.922 -1.02871 2.04817 0
M  V30 3901 C 375.922 -1.29708 0.950388 0
M  V30 3902 O 377.112 -1.24897 1.21435 0
M  V30 3903 C 374.244 -2.36443 2.45576 0
M  V30 3904 H 375.437 -0.620631 2.93408 0
M  V30 3905 H 372.99 -0.286667 1.53649 0
M  V30 3906 H 373.725 -2.82021 1.60108 0
M  V30 3907 H 373.51 -2.18296 3.25713 0
M  V30 3908 H 375 -3.07441 2.82612 0
M  V30 3909 N 375.437 -1.54477 -0.31217 0
M  V30 3910 C 376.714 -1.63891 -1.06767 0
M  V30 3911 C 377.094 -0.480028 -2.0557 0
M  V30 3912 O 376.442 0.524487 -2.22399 0
M  V30 3913 C 376.652 -3.01402 -1.75948 0
M  V30 3914 C 378 -3.57838 -2.28554 0
M  V30 3915 O 379.024 -3.03782 -1.85998 0
M  V30 3916 O 377.883 -4.52462 -3.06497 0
M  V30 3917 H 374.977 -0.664125 -0.492816 0
M  V30 3918 H 377.523 -1.66823 -0.311149 0
M  V30 3919 H 376.295 -3.77187 -1.04144 0
M  V30 3920 H 375.918 -3.02199 -2.58383 0
M  V30 3921 N 376.915 0.57481 -1.46744 0
M  V30 3922 C 378.161 1.3347 -1.52688 0
M  V30 3923 C 378.494 1.93353 -0.181229 0
M  V30 3924 O 377.769 1.76912 0.808237 0
M  V30 3925 C 378.052 2.45811 -2.63152 0
M  V30 3926 C 377.905 1.90912 -4.07275 0
M  V30 3927 C 379.224 3.47822 -2.69644 0
M  V30 3928 H 376.343 0.483935 -0.555856 0
M  V30 3929 H 378.985 0.644968 -1.78718 0
M  V30 3930 H 377.135 3.04646 -2.41088 0
M  V30 3931 H 378.807 1.36473 -4.4065 0
M  V30 3932 H 377.05 1.21691 -4.16382 0
M  V30 3933 H 377.721 2.72042 -4.80309 0
M  V30 3934 H 380.197 2.9888 -2.895 0
M  V30 3935 H 379.073 4.23876 -3.48742 0
M  V30 3936 H 379.334 4.05555 -1.76005 0
M  V30 3937 N 378.394 1.34581 0.820102 0
M  V30 3938 C 379.81 1.14325 1.11364 0
M  V30 3939 C 380.01 -0.0533648 2.01429 0
M  V30 3940 O 379.066 -0.728044 2.41776 0
M  V30 3941 C 380.379 2.43983 1.75764 0
M  V30 3942 C 381.927 2.50065 1.88246 0
M  V30 3943 C 382.402 3.79732 2.56061 0
M  V30 3944 N 383.893 3.80908 2.63558 0
M  V30 3945 C 384.628 4.77961 3.16766 0
M  V30 3946 N 384.124 5.85397 3.70517 0
M  V30 3947 N 385.917 4.65413 3.15194 0
M  V30 3948 H 378.068 2.11246 0.221096 0
M  V30 3949 H 380.331 0.934289 0.160649 0
M  V30 3950 H 380.037 3.31651 1.1705 0
M  V30 3951 H 379.911 2.57531 2.75604 0
M  V30 3952 H 382.298 1.62834 2.46108 0
M  V30 3953 H 382.379 2.40442 0.873006 0
M  V30 3954 H 382.023 4.67354 1.98853 0
M  V30 3955 H 381.953 3.86639 3.57516 0
M  V30 3956 H 384.444 3.03274 2.25463 0
M  V30 3957 H 384.757 6.55463 4.09376 0
M  V30 3958 H 383.102 5.89107 3.68752 0
M  V30 3959 H 386.293 3.80627 2.72471 0
M  V30 3960 H 386.466 5.41216 3.56356 0
M  V30 3961 N 379.872 -1.04064 1.18357 0
M  V30 3962 C 380.802 -2.14001 0.934113 0
M  V30 3963 C 381.783 -1.69616 -0.128186 0
M  V30 3964 O 382.968 -1.94185 0.0244093 0
M  V30 3965 C 380.098 -3.44253 0.459066 0
M  V30 3966 C 379.052 -4.02261 1.46185 0
M  V30 3967 C 378.378 -5.27992 0.844322 0
M  V30 3968 C 379.678 -4.38432 2.83856 0
M  V30 3969 H 381.372 -2.35127 1.85352 0
M  V30 3970 H 378.918 -1.12998 0.892604 0
M  V30 3971 H 380.871 -4.20522 0.271907 0
M  V30 3972 H 379.595 -3.22813 -0.495912 0
M  V30 3973 H 378.254 -3.28074 1.63595 0
M  V30 3974 H 377.902 -5.02862 -0.117845 0
M  V30 3975 H 377.602 -5.67765 1.51384 0
M  V30 3976 H 379.126 -6.06938 0.667693 0
M  V30 3977 H 380.54 -5.05688 2.70098 0
M  V30 3978 H 378.937 -4.89254 3.47491 0
M  V30 3979 H 380.007 -3.4826 3.37406 0
M  V30 3980 N 381.35 -0.985608 -1.22978 0
M  V30 3981 C 382.3 -0.50118 -2.22423 0
M  V30 3982 C 383.284 0.426649 -1.5514 0
M  V30 3983 O 384.476 0.254656 -1.75159 0
M  V30 3984 C 381.605 0.190003 -3.42774 0
M  V30 3985 C 380.691 -0.757703 -4.17276 0
M  V30 3986 N 381.082 -1.90251 -4.68656 0
M  V30 3987 C 379.38 -0.57209 -4.42316 0
M  V30 3988 C 380.081 -2.49676 -5.25392 0
M  V30 3989 N 379.057 -1.78013 -5.13627 0
M  V30 3990 H 382.859 -1.37441 -2.59783 0
M  V30 3991 H 380.373 -0.846941 -1.38567 0
M  V30 3992 H 382.37 0.55439 -4.13197 0
M  V30 3993 H 381.03 1.05946 -3.06929 0
M  V30 3994 H 382.041 -2.28354 -4.64839 0
M  V30 3995 H 378.718 0.251909 -4.16739 0
M  V30 3996 H 380.108 -3.46384 -5.75732 0
M  V30 3997 N 382.828 1.3818 -0.7579 0
M  V30 3998 C 383.758 2.33027 -0.148597 0
M  V30 3999 C 384.739 1.55085 0.69875 0
M  V30 4000 O 385.924 1.83384 0.639053 0
M  V30 4001 C 383.054 3.3928 0.742034 0
M  V30 4002 C 382.008 4.28 -0.00291946 0
M  V30 4003 C 381.334 5.25146 1.00625 0
M  V30 4004 C 382.634 5.08938 -1.17385 0
M  V30 4005 H 384.328 2.84231 -0.940909 0
M  V30 4006 H 381.874 1.36659 -0.453908 0
M  V30 4007 H 383.827 4.046 1.17799 0
M  V30 4008 H 382.551 2.86569 1.56671 0
M  V30 4009 H 381.21 3.64192 -0.419504 0
M  V30 4010 H 380.858 4.68721 1.8251 0
M  V30 4011 H 380.558 5.85361 0.512428 0
M  V30 4012 H 382.082 5.93342 1.44143 0
M  V30 4013 H 383.496 5.67474 -0.815224 0
M  V30 4014 H 381.893 5.7841 -1.59882 0
M  V30 4015 H 382.963 4.42424 -1.98468 0
M  V30 4016 N 384.306 0.507319 1.49211 0
M  V30 4017 C 385.238 -0.304532 2.27168 0
M  V30 4018 C 386.251 -0.924956 1.33972 0
M  V30 4019 O 387.44 -0.807227 1.59205 0
M  V30 4020 C 384.54 -1.44431 3.06583 0
M  V30 4021 C 383.713 -0.930026 4.27398 0
M  V30 4022 C 382.772 -1.94817 4.88807 0
M  V30 4023 O 381.798 -1.51418 5.4869 0
M  V30 4024 N 383 -3.279 4.79022 0
M  V30 4025 H 385.765 0.36395 2.97482 0
M  V30 4026 H 383.326 0.340249 1.58284 0
M  V30 4027 H 385.318 -2.12311 3.44537 0
M  V30 4028 H 383.888 -2.01684 2.38835 0
M  V30 4029 H 383.108 -0.0759244 3.94127 0
M  V30 4030 H 384.396 -0.564932 5.05654 0
M  V30 4031 H 383.794 -3.65843 4.3148 0
M  V30 4032 H 382.351 -3.91476 5.21142 0
M  V30 4033 N 385.784 -1.5574 0.241426 0
M  V30 4034 C 386.716 -2.18469 -0.693091 0
M  V30 4035 C 387.729 -1.15942 -1.14286 0
M  V30 4036 O 388.918 -1.42832 -1.07058 0
M  V30 4037 C 386.018 -2.7696 -1.95311 0
M  V30 4038 C 385.191 -4.04853 -1.65568 0
M  V30 4039 C 384.25 -4.47715 -2.76474 0
M  V30 4040 O 383.276 -5.14205 -2.44094 0
M  V30 4041 N 384.478 -4.15044 -4.05855 0
M  V30 4042 H 387.243 -2.99292 -0.156388 0
M  V30 4043 H 384.804 -1.61784 0.0611752 0
M  V30 4044 H 386.796 -3.02594 -2.68736 0
M  V30 4045 H 385.366 -2.00326 -2.39975 0
M  V30 4046 H 384.586 -3.86865 -0.756886 0
M  V30 4047 H 385.874 -4.88246 -1.43153 0
M  V30 4048 H 385.272 -3.61654 -4.34998 0
M  V30 4049 H 383.829 -4.45526 -4.75762 0
M  V30 4050 N 387.262 0.0317525 -1.57568 0
M  V30 4051 C 388.508 0.724175 -1.8943 0
M  V30 4052 C 388.841 1.75149 -0.838836 0
M  V30 4053 O 388.116 1.93948 0.146422 0
M  V30 4054 C 388.399 1.39615 -3.31933 0
M  V30 4055 C 388.252 0.382537 -4.4817 0
M  V30 4056 C 389.571 2.33084 -3.73309 0
M  V30 4057 H 386.69 0.261797 -0.688935 0
M  V30 4058 H 389.332 -0.013017 -1.89996 0
M  V30 4059 H 387.482 2.02451 -3.31581 0
M  V30 4060 H 389.154 -0.243689 -4.60656 0
M  V30 4061 H 387.397 -0.29844 -4.32772 0
M  V30 4062 H 388.068 0.891145 -5.44759 0
M  V30 4063 H 390.544 1.80295 -3.7501 0
M  V30 4064 H 389.42 2.77084 -4.73831 0
M  V30 4065 H 389.681 3.19643 -3.05419 0
M  V30 4066 N 388.74 1.54641 0.303973 0
M  V30 4067 C 389.67 1.88386 1.3796 0
M  V30 4068 C 390.651 0.742485 1.5304 0
M  V30 4069 O 391.836 0.997959 1.66597 0
M  V30 4070 C 388.966 2.12854 2.74427 0
M  V30 4071 C 387.92 3.28702 2.74115 0
M  V30 4072 C 387.246 3.38582 4.13844 0
M  V30 4073 C 388.546 4.65881 2.3612 0
M  V30 4074 H 390.24 2.78474 1.09966 0
M  V30 4075 H 387.786 1.33988 0.527556 0
M  V30 4076 H 389.739 2.35047 3.49758 0
M  V30 4077 H 388.463 1.19535 3.03939 0
M  V30 4078 H 387.122 3.06428 2.0124 0
M  V30 4079 H 386.77 2.42784 4.40528 0
M  V30 4080 H 386.47 4.16453 4.14537 0
M  V30 4081 H 387.994 3.63031 4.90959 0
M  V30 4082 H 389.408 4.87823 3.01167 0
M  V30 4083 H 387.805 5.46444 2.48031 0
M  V30 4084 H 388.875 4.66799 1.3125 0
M  V30 4085 N 390.218 -0.567019 1.47046 0
M  V30 4086 C 391.165 -1.67489 1.58796 0
M  V30 4087 C 392.135 -1.60399 0.43144 0
M  V30 4088 O 393.32 -1.79378 0.650233 0
M  V30 4089 C 390.46 -3.05821 1.59899 0
M  V30 4090 C 389.573 -3.2342 2.86397 0
M  V30 4091 C 388.708 -4.52093 2.789 0
M  V30 4092 C 387.747 -4.6309 4.00267 0
M  V30 4093 N 386.884 -5.83106 3.91064 0
M  V30 4094 H 391.724 -1.56785 2.53422 0
M  V30 4095 H 389.261 -0.763896 1.2571 0
M  V30 4096 H 391.219 -3.8591 1.58522 0
M  V30 4097 H 389.849 -3.15384 0.687929 0
M  V30 4098 H 388.901 -2.3683 2.97684 0
M  V30 4099 H 390.213 -3.27412 3.76301 0
M  V30 4100 H 389.367 -5.4043 2.75718 0
M  V30 4101 H 388.106 -4.50565 1.86662 0
M  V30 4102 H 387.111 -3.73168 4.03765 0
M  V30 4103 H 388.336 -4.66386 4.93621 0
M  V30 4104 H 386.282 -5.82546 3.01623 0
M  V30 4105 H 386.199 -5.88434 4.74638 0
M  V30 4106 H 387.467 -6.73831 3.91882 0
M  V30 4107 N 391.696 -1.35014 -0.812953 0
M  V30 4108 C 392.921 -1.31187 -1.60639 0
M  V30 4109 C 393.346 0.109382 -1.87782 0
M  V30 4110 O 392.704 1.07424 -1.46047 0
M  V30 4111 C 392.752 -2.11809 -2.91838 0
M  V30 4112 O 391.856 -1.49444 -3.8437 0
M  V30 4113 H 391.197 -0.450084 -0.488181 0
M  V30 4114 H 393.727 -1.77963 -1.00947 0
M  V30 4115 H 393.737 -2.23531 -3.41318 0
M  V30 4116 H 392.412 -3.15137 -2.71407 0
M  V30 4117 H 390.989 -1.46524 -3.42907 0
M  V30 4118 N 393.175 1.03435 -1.18907 0
M  V30 4119 C 394.415 1.78302 -0.999391 0
M  V30 4120 C 394.779 1.86353 0.462219 0
M  V30 4121 O 395.98 2.57489 0.771543 0
M  V30 4122 C 394.251 3.17362 -1.64365 0
M  V30 4123 S 395.81 4.08488 -1.6026 0
M  V30 4124 H 392.628 0.613861 -0.358742 0
M  V30 4125 H 395.23 1.23979 -1.51161 0
M  V30 4126 H 393.934 3.09116 -2.69955 0
M  V30 4127 H 393.465 3.76762 -1.13199 0
M  V30 4128 H 395.48 4.92274 -0.622932 0
M  V30 4129 O 394.692 1.12039 1.16316 0
M  V30 4130 H 395.383 0.829719 1.7503 0
M  V30 END ATOM
M  V30 BEGIN BOND
M  V30 END BOND
M  V30 END CTAB
M  END
$$$$
