drugbank_target|P08164 NH(3)-dependent NAD(+) synthetase (DB00798; DB02596; DB04099)
 OpenBabel12092119563D

  0  0  0     0  0            999 V3000
M  V30 BEGIN CTAB
M  V30 COUNTS 4257 4293 0 0 0
M  V30 BEGIN ATOM
M  V30 1 H -0.908 1.98254 -0.117106 0
M  V30 2 N 0 1.576 0 0
M  V30 3 C 0.933 2.03868 1.02534 0
M  V30 4 C 1.911 0.928543 1.3348 0
M  V30 5 O 3.095 1.19667 1.45644 0
M  V30 6 C 0.222 2.43627 2.35294 0
M  V30 7 C -0.732 3.65373 2.2001 0
M  V30 8 S 0.101 5.13292 1.52614 0
M  V30 9 C 1.257 5.56322 2.86805 0
M  V30 10 H 1.49 2.90518 0.631377 0
M  V30 11 H -0.977 1.52953 0.210867 0
M  V30 12 H 0.981 2.67203 3.11629 0
M  V30 13 H -0.358 1.57376 2.7183 0
M  V30 14 H -1.165 3.90944 3.18086 0
M  V30 15 H -1.563 3.418 1.51819 0
M  V30 16 H 0.729 5.58782 3.83104 0
M  V30 17 H 1.672 6.56266 2.65933 0
M  V30 18 H 2.08 4.83886 2.90714 0
M  V30 19 N 1.4781 -0.272755 1.55222 0
M  V30 20 C 2.7031 -1.02683 1.80197 0
M  V30 21 C 3.1281 -1.79142 0.573551 0
M  V30 22 O 2.4861 -1.74917 -0.476849 0
M  V30 23 C 2.5341 -1.9609 3.02624 0
M  V30 24 O 1.6381 -3.04863 2.77727 0
M  V30 25 H 0.9791 -0.293557 0.595584 0
M  V30 26 H 3.5091 -0.30159 2.02365 0
M  V30 27 H 3.5191 -2.38039 3.31363 0
M  V30 28 H 2.1941 -1.39851 3.91682 0
M  V30 29 H 0.7711 -2.67228 2.60084 0
M  V30 30 N 2.9562 -1.48159 -0.537278 0
M  V30 31 C 3.8892 -1.567 -1.65893 0
M  V30 32 C 4.8672 -0.41787 -1.57139 0
M  V30 33 O 6.0512 -0.628461 -1.77715 0
M  V30 34 C 3.1782 -1.48818 -3.04255 0
M  V30 35 C 2.2242 -2.68482 -3.31391 0
M  V30 36 S 3.0572 -4.30516 -3.1846 0
M  V30 37 C 4.2132 -4.2522 -4.59281 0
M  V30 38 H 4.4462 -2.5159 -1.58397 0
M  V30 39 H 1.9792 -1.36602 -0.719672 0
M  V30 40 H 3.9372 -1.44958 -3.84054 0
M  V30 41 H 2.5982 -0.552777 -3.09198 0
M  V30 42 H 1.7912 -2.59085 -4.32309 0
M  V30 43 H 1.3932 -2.69567 -2.59248 0
M  V30 44 H 3.6852 -3.94703 -5.5065 0
M  V30 45 H 4.6282 -5.26292 -4.73732 0
M  V30 46 H 5.0362 -3.55791 -4.38261 0
M  V30 47 N 4.4343 0.785586 -1.36625 0
M  V30 48 C 5.3663 1.90711 -1.2713 0
M  V30 49 C 6.3793 1.61688 -0.189986 0
M  V30 50 O 7.5683 1.72864 -0.445014 0
M  V30 51 C 4.6683 3.25611 -0.939713 0
M  V30 52 C 3.8413 3.82385 -2.12369 0
M  V30 53 C 2.9003 4.95732 -1.76456 0
M  V30 54 O 1.9263 5.12047 -2.48589 0
M  V30 55 N 3.1283 5.76258 -0.700492 0
M  V30 56 H 5.8933 1.99376 -2.23762 0
M  V30 57 H 3.4543 0.964041 -1.30069 0
M  V30 58 H 5.4463 3.98937 -0.680554 0
M  V30 59 H 4.0163 3.12538 -0.0624074 0
M  V30 60 H 3.2363 3.01001 -2.54543 0
M  V30 61 H 4.5243 4.17047 -2.9146 0
M  V30 62 H 3.9223 5.65609 -0.101624 0
M  V30 63 H 2.4793 6.4987 -0.501165 0
M  V30 64 N 5.9124 1.20967 1.01018 0
M  V30 65 C 6.8224 0.980157 2.13143 0
M  V30 66 C 7.8384 -0.0660665 1.73875 0
M  V30 67 O 9.0144 0.122821 2.01025 0
M  V30 68 C 6.0794 0.54216 3.42435 0
M  V30 69 C 5.1404 1.65999 3.95908 0
M  V30 70 C 4.3734 1.2428 5.19028 0
M  V30 71 O 4.5964 0.114196 5.70286 0
M  V30 72 O 3.5304 2.05271 5.65816 0
M  V30 73 H 7.3564 1.91913 2.35379 0
M  V30 74 H 4.9414 0.994099 1.11526 0
M  V30 75 H 6.8234 0.30744 4.20277 0
M  V30 76 H 5.4984 -0.36815 3.216 0
M  V30 77 H 4.4054 1.94906 3.19316 0
M  V30 78 H 5.7384 2.54753 4.21143 0
M  V30 79 N 7.3905 -1.2043 1.01659 0
M  V30 80 C 8.3375 -2.23215 0.586822 0
M  V30 81 C 9.3075 -1.61382 -0.393085 0
M  V30 82 O 10.4925 -1.88544 -0.292525 0
M  V30 83 C 7.6325 -3.45032 -0.0687464 0
M  V30 84 C 6.7455 -4.21296 0.955724 0
M  V30 85 C 5.8805 -5.30507 0.271208 0
M  V30 86 C 4.9195 -5.98515 1.28244 0
M  V30 87 N 4.0565 -6.99316 0.62459 0
M  V30 88 H 8.8965 -2.59336 1.46796 0
M  V30 89 H 6.4335 -1.27431 0.734836 0
M  V30 90 H 8.3915 -4.1459 -0.465965 0
M  V30 91 H 7.0215 -3.09604 -0.913529 0
M  V30 92 H 6.0735 -3.50803 1.4711 0
M  V30 93 H 7.3855 -4.6803 1.72479 0
M  V30 94 H 6.5395 -6.06428 -0.18151 0
M  V30 95 H 5.2785 -4.8481 -0.530163 0
M  V30 96 H 4.2835 -5.21355 1.74554 0
M  V30 97 H 5.5085 -6.46298 2.08509 0
M  V30 98 H 3.4545 -6.55812 -0.156914 0
M  V30 99 H 3.3715 -7.44178 1.33172 0
M  V30 100 H 4.6395 -7.79255 0.195462 0
M  V30 101 N 8.8686 -0.792821 -1.36206 0
M  V30 102 C 10.1176 -0.363353 -1.984 0
M  V30 103 C 10.4306 1.07172 -1.63626 0
M  V30 104 O 11.6366 1.60362 -2.19081 0
M  V30 105 C 10.0926 -0.59872 -3.54885 0
M  V30 106 C 9.7006 -2.04543 -3.9858 0
M  V30 107 C 11.4446 -0.233926 -4.23855 0
M  V30 108 C 9.3516 -2.22727 -5.47856 0
M  V30 109 H 8.2816 -0.13212 -0.742334 0
M  V30 110 H 10.9326 -0.974935 -1.55458 0
M  V30 111 H 9.3146 0.0826222 -3.95914 0
M  V30 112 H 10.4886 -2.76345 -3.68741 0
M  V30 113 H 8.8036 -2.36879 -3.42458 0
M  V30 114 H 11.4006 -0.348027 -5.33566 0
M  V30 115 H 11.7436 0.818351 -4.08177 0
M  V30 116 H 12.2766 -0.868639 -3.882 0
M  V30 117 H 9.0156 -3.2635 -5.68486 0
M  V30 118 H 8.5356 -1.55434 -5.7931 0
M  V30 119 H 10.2146 -2.03607 -6.14128 0
M  V30 120 N 10.3467 1.47872 -0.545128 0
M  V30 121 C 11.2797 2.2675 0.256885 0
M  V30 122 C 12.2577 1.33293 0.931228 0
M  V30 123 O 13.4417 1.62657 0.95262 0
M  V30 124 C 10.5687 3.09976 1.36501 0
M  V30 125 C 9.6147 4.1892 0.800496 0
M  V30 126 S 10.4477 5.34397 -0.343505 0
M  V30 127 C 11.6037 6.21186 0.766733 0
M  V30 128 H 11.8367 2.94425 -0.412479 0
M  V30 129 H 9.3697 1.50806 -0.331204 0
M  V30 130 H 11.3277 3.585 1.9997 0
M  V30 131 H 9.9887 2.41686 2.00616 0
M  V30 132 H 9.1817 4.76836 1.63227 0
M  V30 133 H 8.7837 3.73215 0.242217 0
M  V30 134 H 11.0757 6.56804 1.66178 0
M  V30 135 H 12.0187 7.07742 0.225204 0
M  V30 136 H 12.4267 5.54574 1.05396 0
M  V30 137 N 11.8248 0.280983 1.55075 0
M  V30 138 C 13.2408 -0.0729964 1.59433 0
M  V30 139 C 13.4408 -1.5411 1.29817 0
M  V30 140 O 12.4968 -2.29086 1.06187 0
M  V30 141 C 13.8098 0.306921 2.9913 0
M  V30 142 C 15.3578 0.254023 3.11968 0
M  V30 143 C 15.8328 0.608467 4.5394 0
M  V30 144 N 17.3238 0.560241 4.59799 0
M  V30 145 C 18.0588 0.80722 5.6769 0
M  V30 146 N 17.5548 1.11912 6.83701 0
M  V30 147 N 19.3478 0.735623 5.57266 0
M  V30 148 H 11.4988 1.238 1.7259 0
M  V30 149 H 13.7618 0.500547 0.805082 0
M  V30 150 H 13.4678 1.32816 3.25657 0
M  V30 151 H 13.3418 -0.349363 3.75579 0
M  V30 152 H 15.7288 -0.75794 2.852 0
M  V30 153 H 15.8098 0.944649 2.37718 0
M  V30 154 H 15.4538 1.61814 4.81434 0
M  V30 155 H 15.3838 -0.104013 5.26497 0
M  V30 156 H 17.8748 0.329288 3.76463 0
M  V30 157 H 18.1878 1.29409 7.61888 0
M  V30 158 H 16.5328 1.15695 6.85303 0
M  V30 159 H 19.7238 0.491752 4.6551 0
M  V30 160 H 19.8968 0.931482 6.4127 0
M  V30 161 N 13.3029 -1.57598 0.00835791 0
M  V30 162 C 14.2129 -2.12385 -0.996487 0
M  V30 163 C 15.2289 -1.07108 -1.37127 0
M  V30 164 O 16.4049 -1.39055 -1.4569 0
M  V30 165 C 13.4699 -2.62314 -2.26699 0
M  V30 166 C 12.5309 -3.82225 -1.95456 0
M  V30 167 C 11.7639 -4.29763 -3.16449 0
M  V30 168 O 11.9869 -3.76584 -4.28416 0
M  V30 169 O 10.9209 -5.21832 -2.99958 0
M  V30 170 H 14.7469 -2.98479 -0.560725 0
M  V30 171 H 12.3319 -1.47903 -0.210987 0
M  V30 172 H 14.2139 -2.94589 -3.01322 0
M  V30 173 H 12.8889 -1.79313 -2.69497 0
M  V30 174 H 11.7959 -3.54909 -1.18282 0
M  V30 175 H 13.1289 -4.66324 -1.57489 0
M  V30 176 N 14.781 0.264519 -1.55364 0
M  V30 177 C 15.711 1.33121 -1.91836 0
M  V30 178 C 16.692 1.51101 -0.781192 0
M  V30 179 O 17.877 1.64003 -1.04003 0
M  V30 180 C 15.007 2.68921 -2.19769 0
M  V30 181 C 13.961 2.65661 -3.35571 0
M  V30 182 C 13.287 4.05093 -3.49004 0
M  V30 183 C 14.587 2.24187 -4.71739 0
M  V30 184 H 16.281 1.02844 -2.81182 0
M  V30 185 H 13.827 0.493286 -1.35287 0
M  V30 186 H 15.78 3.43663 -2.43872 0
M  V30 187 H 14.504 3.00799 -1.27231 0
M  V30 188 H 13.163 1.93377 -3.1145 0
M  V30 189 H 12.811 4.34206 -2.53917 0
M  V30 190 H 12.511 4.03804 -4.26868 0
M  V30 191 H 14.035 4.81561 -3.75408 0
M  V30 192 H 15.449 2.88654 -4.9533 0
M  V30 193 H 13.846 2.34044 -5.52579 0
M  V30 194 H 14.916 1.19327 -4.69988 0
M  V30 195 N 16.2591 1.48442 0.529413 0
M  V30 196 C 17.2091 1.59407 1.63014 0
M  V30 197 C 18.1931 0.451166 1.54445 0
M  V30 198 O 19.3851 0.702635 1.62456 0
M  V30 199 C 16.5141 1.63746 3.01732 0
M  V30 200 C 15.6001 2.83518 3.15402 0
M  V30 201 N 15.9911 4.07929 2.99045 0
M  V30 202 C 14.2891 2.80862 3.46457 0
M  V30 203 C 14.9901 4.8829 3.16146 0
M  V30 204 N 13.9661 4.21117 3.43746 0
M  V30 205 H 17.7681 2.53343 1.48978 0
M  V30 206 H 15.2821 1.44821 0.734885 0
M  V30 207 H 17.2791 1.69695 3.80801 0
M  V30 208 H 15.9391 0.709264 3.16859 0
M  V30 209 H 16.9501 4.38357 2.75796 0
M  V30 210 H 13.6271 1.97301 3.67938 0
M  V30 211 H 15.0171 5.97028 3.08232 0
M  V30 212 N 17.7372 -0.778329 1.37039 0
M  V30 213 C 18.9832 -1.53892 1.32079 0
M  V30 214 C 19.3162 -1.9396 -0.0965386 0
M  V30 215 O 18.5912 -1.63568 -1.05242 0
M  V30 216 C 18.8742 -2.80847 2.25382 0
M  V30 217 C 18.7272 -2.47076 3.75864 0
M  V30 218 C 20.0462 -3.82741 2.1725 0
M  V30 219 H 17.1652 -0.558303 0.48111 0
M  V30 220 H 19.8072 -0.893397 1.67685 0
M  V30 221 H 17.9572 -3.35931 1.95148 0
M  V30 222 H 19.6292 -1.97957 4.16666 0
M  V30 223 H 17.8722 -1.79863 3.94755 0
M  V30 224 H 18.5432 -3.37798 4.36574 0
M  V30 225 H 21.0192 -3.37133 2.43887 0
M  V30 226 H 19.8952 -4.69303 2.84686 0
M  V30 227 H 20.1562 -4.2652 1.16331 0
M  V30 228 N 19.2153 -1.21501 -1.00376 0
M  V30 229 C 20.1623 -0.975387 -2.09177 0
M  V30 230 C 21.1323 0.0990615 -1.65804 0
M  V30 231 O 22.3173 -0.0483147 -1.90739 0
M  V30 232 C 19.4573 -0.547507 -3.40729 0
M  V30 233 C 18.5703 -1.69153 -3.97506 0
M  V30 234 C 17.7053 -1.2127 -5.17172 0
M  V30 235 C 16.7443 -2.32897 -5.66061 0
M  V30 236 N 15.8813 -1.86138 -6.76976 0
M  V30 237 H 20.7213 -1.9068 -2.29009 0
M  V30 238 H 18.2583 -0.950257 -1.12288 0
M  V30 239 H 20.2163 -0.280667 -4.16255 0
M  V30 240 H 18.8463 0.346904 -3.20931 0
M  V30 241 H 17.8983 -2.07298 -3.18954 0
M  V30 242 H 19.2103 -2.5316 -4.29781 0
M  V30 243 H 18.3643 -0.902591 -5.99948 0
M  V30 244 H 17.1033 -0.342692 -4.86495 0
M  V30 245 H 16.1083 -2.64709 -4.81881 0
M  V30 246 H 17.3333 -3.20396 -5.98768 0
M  V30 247 H 15.2793 -1.01484 -6.48103 0
M  V30 248 H 15.1963 -2.63717 -7.08512 0
M  V30 249 H 16.4643 -1.58165 -7.63285 0
M  V30 250 N 20.6934 1.19889 -1.02296 0
M  V30 251 C 22.1044 1.71124 -0.746568 0
M  V30 252 C 22.4554 1.81939 0.734335 0
M  V30 253 O 21.5804 1.48639 1.57275 0
M  V30 254 C 22.1754 3.10804 -1.34857 0
M  V30 255 C 20.7344 3.59323 -1.1209 0
M  V30 256 C 19.8814 2.3635 -1.45031 0
M  V30 257 H 22.8324 1.04813 -1.19163 0
M  V30 258 H 22.8534 3.73186 -0.742437 0
M  V30 259 H 22.3654 3.029 -2.42638 0
M  V30 260 H 20.4664 3.7255 -0.0610337 0
M  V30 261 H 20.5794 4.4378 -1.80544 0
M  V30 262 H 18.9434 2.39399 -0.869487 0
M  V30 263 H 19.7264 2.31081 -2.53883 0
M  V30 264 N 22.1715 0.800033 1.35784 0
M  V30 265 C 23.3965 0.388511 2.03729 0
M  V30 266 C 23.8215 -0.990481 1.5991 0
M  V30 267 O 23.1795 -1.64013 0.772612 0
M  V30 268 C 23.2275 0.4726 3.5749 0
M  V30 269 O 22.3315 -0.51646 4.09153 0
M  V30 270 H 21.6725 0.163271 0.643614 0
M  V30 271 H 24.2025 1.0841 1.73518 0
M  V30 272 H 24.2125 0.34003 4.06581 0
M  V30 273 H 22.8875 1.47848 3.88734 0
M  V30 274 H 21.4645 -0.344673 3.71304 0
M  V30 275 N 23.6496 -1.47581 0.552962 0
M  V30 276 C 24.8986 -2.01684 0.0251995 0
M  V30 277 C 25.2116 -1.43317 -1.33115 0
M  V30 278 O 26.4176 -1.89057 -1.94858 0
M  V30 279 C 24.8736 -3.599 -0.00542052 0
M  V30 280 C 24.4816 -4.27257 1.34742 0
M  V30 281 C 26.2256 -4.21768 -0.4808 0
M  V30 282 C 24.1326 -5.77467 1.27614 0
M  V30 283 H 23.0626 -0.753979 0.00565033 0
M  V30 284 H 25.7136 -1.69616 0.70018 0
M  V30 285 H 24.0956 -3.88911 -0.745961 0
M  V30 286 H 25.2696 -4.09893 2.10534 0
M  V30 287 H 23.5846 -3.77358 1.76039 0
M  V30 288 H 26.1816 -5.31838 -0.55246 0
M  V30 289 H 26.5246 -3.88651 -1.49184 0
M  V30 290 H 27.0576 -3.97273 0.204752 0
M  V30 291 H 23.7966 -6.15196 2.26304 0
M  V30 292 H 23.3166 -5.9718 0.55996 0
M  V30 293 H 24.9956 -6.3959 0.976421 0
M  V30 294 N 25.1277 -0.289203 -1.54924 0
M  V30 295 C 26.4047 0.376032 -1.91951 0
M  V30 296 C 26.7847 1.72622 -1.21511 0
M  V30 297 O 26.1327 2.25853 -0.346767 0
M  V30 298 C 26.3427 0.502378 -3.45365 0
M  V30 299 C 27.6907 0.778741 -4.17398 0
M  V30 300 O 28.7147 0.586647 -3.51336 0
M  V30 301 O 27.5737 1.14698 -5.34328 0
M  V30 302 H 24.6677 0.208167 -0.800372 0
M  V30 303 H 27.2137 -0.336394 -1.66332 0
M  V30 304 H 25.9857 -0.447255 -3.88736 0
M  V30 305 H 25.6087 1.26373 -3.76982 0
M  V30 306 N 26.6058 1.57591 -0.0167156 0
M  V30 307 C 28.0168 1.79201 0.523834 0
M  V30 308 C 28.3678 0.925796 1.72984 0
M  V30 309 O 27.4928 0.132792 2.15992 0
M  V30 310 C 28.0878 3.25 0.957091 0
M  V30 311 C 26.6468 3.47648 1.44283 0
M  V30 312 C 25.7938 2.74374 0.401757 0
M  V30 313 H 28.7448 1.56831 -0.242816 0
M  V30 314 H 28.7658 3.34031 1.82219 0
M  V30 315 H 28.2778 3.88019 0.0791415 0
M  V30 316 H 26.3788 2.89866 2.34113 0
M  V30 317 H 26.4918 4.56352 1.45877 0
M  V30 318 H 24.8558 2.39485 0.867121 0
M  V30 319 H 25.6388 3.40102 -0.467513 0
M  V30 320 N 28.0839 -0.256276 1.55502 0
M  V30 321 C 29.0309 -1.31714 1.89526 0
M  V30 322 C 30.0009 -1.4828 0.748479 0
M  V30 323 O 31.1859 -1.62416 1.00128 0
M  V30 324 C 28.3259 -2.66933 2.18725 0
M  V30 325 C 27.4389 -2.58452 3.4616 0
M  V30 326 C 26.5739 -3.85961 3.64976 0
M  V30 327 C 25.6129 -3.72059 4.86044 0
M  V30 328 N 24.7499 -4.9144 5.01429 0
M  V30 329 H 29.5899 -1.01998 2.80001 0
M  V30 330 H 27.1269 -0.492413 1.38613 0
M  V30 331 H 29.0849 -3.4563 2.33657 0
M  V30 332 H 27.7149 -2.94816 1.31466 0
M  V30 333 H 26.7669 -1.71374 3.3961 0
M  V30 334 H 28.0789 -2.44085 4.34999 0
M  V30 335 H 27.2329 -4.73101 3.79816 0
M  V30 336 H 25.9719 -4.03215 2.74353 0
M  V30 337 H 24.9769 -2.83302 4.7119 0
M  V30 338 H 26.2019 -3.56309 5.78118 0
M  V30 339 H 24.1479 -5.09072 4.13741 0
M  V30 340 H 24.0649 -4.79668 5.84341 0
M  V30 341 H 25.3329 -5.80104 5.20672 0
M  V30 342 N 29.562 -1.4872 -0.521534 0
M  V30 343 C 30.494 -1.59968 -1.64143 0
M  V30 344 C 31.507 -0.483463 -1.55456 0
M  V30 345 O 32.696 -0.75467 -1.61762 0
M  V30 346 C 29.796 -1.52127 -3.02838 0
M  V30 347 C 28.969 -2.78932 -3.36921 0
M  V30 348 C 28.028 -2.64428 -4.54933 0
M  V30 349 O 27.054 -3.38331 -4.57735 0
M  V30 350 N 28.256 -1.74606 -5.53618 0
M  V30 351 H 31.021 -2.56548 -1.54929 0
M  V30 352 H 28.582 -1.45551 -0.708988 0
M  V30 353 H 30.574 -1.40106 -3.79674 0
M  V30 354 H 29.144 -0.634868 -3.06085 0
M  V30 355 H 28.364 -3.05455 -2.4918 0
M  V30 356 H 29.652 -3.63041 -3.56481 0
M  V30 357 H 29.05 -1.13782 -5.54139 0
M  V30 358 H 27.607 -1.6852 -6.29638 0
M  V30 359 N 31.0401 0.771051 -1.3745 0
M  V30 360 C 31.9501 1.91538 -1.35464 0
M  V30 361 C 32.9661 1.72134 -0.254123 0
M  V30 362 O 34.1421 1.95358 -0.489626 0
M  V30 363 C 31.2071 3.26671 -1.16134 0
M  V30 364 C 30.2681 3.58723 -2.35831 0
M  V30 365 C 29.5011 4.87409 -2.17413 0
M  V30 366 O 29.7241 5.58506 -1.15876 0
M  V30 367 O 28.6581 5.18539 -3.05615 0
M  V30 368 H 32.4841 1.96165 -2.31847 0
M  V30 369 H 30.0691 0.9139 -1.18187 0
M  V30 370 H 31.9511 4.07499 -1.07345 0
M  V30 371 H 30.6261 3.22894 -0.228251 0
M  V30 372 H 29.5331 2.78127 -2.50192 0
M  V30 373 H 30.8661 3.67243 -3.27709 0
M  V30 374 N 32.5182 1.22032 0.997298 0
M  V30 375 C 33.7672 1.03637 1.73038 0
M  V30 376 C 34.0802 -0.429475 1.90827 0
M  V30 377 O 35.2862 -0.732995 2.61418 0
M  V30 378 C 33.7422 1.80582 3.11317 0
M  V30 379 C 33.3502 3.31387 3.01474 0
M  V30 380 C 35.0942 1.70621 3.88701 0
M  V30 381 C 33.0012 4.00791 4.3488 0
M  V30 382 H 31.9312 0.384179 0.648785 0
M  V30 383 H 34.5822 1.4584 1.11368 0
M  V30 384 H 32.9642 1.31175 3.73643 0
M  V30 385 H 34.1382 3.88155 2.4834 0
M  V30 386 H 32.4532 3.41976 2.37575 0
M  V30 387 H 35.0502 2.19799 4.87434 0
M  V30 388 H 35.3932 0.665823 4.10941 0
M  V30 389 H 35.9262 2.17547 3.33044 0
M  V30 390 H 32.6652 5.05064 4.1784 0
M  V30 391 H 32.1852 3.48811 4.87945 0
M  V30 392 H 33.8642 4.06139 5.03647 0
M  V30 393 N 33.9963 -1.19345 1.0293 0
M  V30 394 C 34.9063 -2.26245 0.620515 0
M  V30 395 C 35.9223 -1.70486 -0.347928 0
M  V30 396 O 37.0983 -2.00347 -0.205704 0
M  V30 397 C 34.1633 -3.46693 -0.0218957 0
M  V30 398 C 33.2243 -4.17632 0.994102 0
M  V30 399 C 32.4573 -5.32329 0.382253 0
M  V30 400 O 32.6803 -5.64552 -0.814676 0
M  V30 401 O 31.6143 -5.91664 1.10531 0
M  V30 402 H 35.4403 -2.63453 1.51083 0
M  V30 403 H 33.0253 -1.26207 0.799513 0
M  V30 404 H 34.9073 -4.19683 -0.380072 0
M  V30 405 H 33.5823 -3.11333 -0.886209 0
M  V30 406 H 32.4893 -3.4676 1.40387 0
M  V30 407 H 33.8223 -4.56964 1.8288 0
M  V30 408 N 35.4744 -0.807222 -1.35358 0
M  V30 409 C 36.7514 -0.311126 -1.9311 0
M  V30 410 C 37.1314 1.19937 -1.73719 0
M  V30 411 O 36.4794 1.99918 -1.10657 0
M  V30 412 C 36.6894 -0.723226 -3.41424 0
M  V30 413 C 38.0374 -0.713078 -4.18569 0
M  V30 414 O 39.0614 -0.664811 -3.49941 0
M  V30 415 O 37.9204 -0.772022 -5.41019 0
M  V30 416 H 35.0144 -0.081526 -0.822972 0
M  V30 417 H 37.5604 -0.890962 -1.4443 0
M  V30 418 H 36.3324 -1.76426 -3.4927 0
M  V30 419 H 35.9554 -0.118232 -3.97424 0
M  V30 420 N 36.9525 1.47285 -0.560781 0
M  V30 421 C 38.3685 1.58065 -0.22081 0
M  V30 422 C 38.5685 1.55892 1.27671 0
M  V30 423 O 37.6245 1.46422 2.0571 0
M  V30 424 C 38.9375 2.88418 -0.850625 0
M  V30 425 C 40.4855 3.02009 -0.822184 0
M  V30 426 C 40.9605 4.35066 -1.43113 0
M  V30 427 N 42.4515 4.41711 -1.39448 0
M  V30 428 C 43.1865 5.43237 -1.83525 0
M  V30 429 N 42.6825 6.51555 -2.35474 0
M  V30 430 N 44.4755 5.34304 -1.74574 0
M  V30 431 H 36.6265 1.46941 -1.53369 0
M  V30 432 H 38.8895 0.699558 -0.639783 0
M  V30 433 H 38.5955 2.95755 -1.9032 0
M  V30 434 H 38.4695 3.75612 -0.345773 0
M  V30 435 H 40.8565 2.94266 0.221714 0
M  V30 436 H 40.9375 2.16347 -1.36483 0
M  V30 437 H 40.5815 4.43565 -2.47412 0
M  V30 438 H 40.5115 5.19465 -0.863899 0
M  V30 439 H 43.0025 3.64027 -1.01452 0
M  V30 440 H 43.3155 7.25203 -2.67021 0
M  V30 441 H 41.6605 6.52435 -2.39487 0
M  V30 442 H 44.8515 4.48581 -1.33763 0
M  V30 443 H 45.0245 6.13288 -2.09242 0
M  V30 444 N 38.4306 0.297415 1.54768 0
M  V30 445 C 39.6766 -0.313376 2.00364 0
M  V30 446 C 40.0096 -1.53815 1.18553 0
M  V30 447 O 39.2846 -1.92739 0.261103 0
M  V30 448 C 39.5676 -0.673525 3.53745 0
M  V30 449 C 39.4206 0.560133 4.46299 0
M  V30 450 C 40.7396 -1.50143 4.13697 0
M  V30 451 H 37.8586 -0.112428 0.728374 0
M  V30 452 H 40.5006 0.4088 1.8555 0
M  V30 453 H 38.6506 -1.28881 3.665 0
M  V30 454 H 40.3226 1.19863 4.45455 0
M  V30 455 H 38.5656 1.19405 4.17043 0
M  V30 456 H 39.2366 0.26405 5.51368 0
M  V30 457 H 41.7126 -0.981588 4.04356 0
M  V30 458 H 40.5886 -1.72221 5.21182 0
M  V30 459 H 40.8496 -2.48952 3.65343 0
M  V30 460 N 39.9087 -1.5758 0.0250728 0
M  V30 461 C 40.8567 -2.11125 -0.97617 0
M  V30 462 C 41.8507 -1.03689 -1.33959 0
M  V30 463 O 43.0567 -1.22128 -1.3223 0
M  V30 464 H 39.4317 -0.674468 -0.332561 0
M  V30 465 H 41.4027 -2.94194 -0.499223 0
M  V30 466 C 40.1517 -2.65017 -2.2508 0
M  V30 467 H 39.4747 -3.47333 -1.9799 0
M  V30 468 H 40.9147 -3.06133 -2.93357 0
M  V30 469 C 39.3737 -1.57574 -2.97779 0
M  V30 470 O 39.9037 -0.973203 -3.89733 0
M  V30 471 N 38.1097 -1.29716 -2.60043 0
M  V30 472 H 37.6567 -1.789 -1.85345 0
M  V30 473 H 37.6147 -0.58051 -3.08994 0
M  V30 474 N 41.3868 0.248026 -1.55636 0
M  V30 475 C 42.6338 0.976224 -1.77415 0
M  V30 476 C 42.9618 1.85361 -0.589193 0
M  V30 477 O 42.2168 1.90973 0.427529 0
M  V30 478 C 42.5158 1.86819 -3.04686 0
M  V30 479 C 42.1818 1.14625 -4.36087 0
M  V30 480 C 40.8438 0.946723 -4.71795 0
M  V30 481 C 43.1958 0.634463 -5.17324 0
M  V30 482 C 40.5238 0.223091 -5.86276 0
M  V30 483 C 42.8758 -0.0756959 -6.32555 0
M  V30 484 C 41.5398 -0.286711 -6.66884 0
M  V30 485 H 40.8098 0.357226 -0.649208 0
M  V30 486 H 43.4568 0.246415 -1.89908 0
M  V30 487 H 41.7618 2.66502 -2.872 0
M  V30 488 H 43.4588 2.43329 -3.18735 0
M  V30 489 H 40.0488 1.3117 -4.08035 0
M  V30 490 H 44.2328 0.77616 -4.90193 0
M  V30 491 H 39.4888 0.0491185 -6.1138 0
M  V30 492 H 43.6628 -0.479899 -6.94745 0
M  V30 493 H 41.2898 -0.849389 -7.5544 0
M  V30 494 N 42.8649 1.48995 0.513639 0
M  V30 495 C 43.7949 1.67636 1.62544 0
M  V30 496 C 44.7759 0.525087 1.61793 0
M  V30 497 O 45.9609 0.759502 1.78732 0
M  V30 498 C 43.0909 1.73114 3.01079 0
M  V30 499 C 42.0449 2.87905 3.16693 0
M  V30 500 C 41.3709 2.78486 4.56453 0
M  V30 501 C 42.6709 4.29005 2.97913 0
M  V30 502 H 44.3649 2.60716 1.47198 0
M  V30 503 H 41.9109 1.25465 0.706714 0
M  V30 504 H 43.8639 1.84742 3.78746 0
M  V30 505 H 42.5879 0.766241 3.17484 0
M  V30 506 H 41.2469 2.75859 2.41448 0
M  V30 507 H 40.8949 1.7993 4.69717 0
M  V30 508 H 40.5949 3.55523 4.67843 0
M  V30 509 H 42.1189 2.92104 5.36197 0
M  V30 510 H 43.5329 4.41798 3.65359 0
M  V30 511 H 41.9299 5.07166 3.20785 0
M  V30 512 H 42.9999 4.44329 1.94165 0
M  V30 513 N 44.343 -0.763751 1.37857 0
M  V30 514 C 45.29 -1.87726 1.34267 0
M  V30 515 C 46.26 -1.64807 0.206879 0
M  V30 516 O 47.445 -1.86613 0.397508 0
M  V30 517 C 44.585 -3.24896 1.16346 0
M  V30 518 C 43.698 -3.59716 2.39225 0
M  V30 519 C 42.833 -4.86137 2.14114 0
M  V30 520 C 41.872 -5.13711 3.32817 0
M  V30 521 N 41.009 -6.31323 3.07206 0
M  V30 522 H 45.849 -1.90129 2.29466 0
M  V30 523 H 43.386 -0.929433 1.14017 0
M  V30 524 H 45.344 -4.04036 1.03975 0
M  V30 525 H 43.974 -3.21847 0.247909 0
M  V30 526 H 43.026 -2.75498 2.62307 0
M  V30 527 H 44.338 -3.76027 3.27728 0
M  V30 528 H 43.492 -5.73198 1.9882 0
M  V30 529 H 42.231 -4.71945 1.22961 0
M  V30 530 H 41.236 -4.25123 3.48641 0
M  V30 531 H 42.461 -5.29807 4.24832 0
M  V30 532 H 40.407 -6.18474 2.1869 0
M  V30 533 H 40.324 -6.48087 3.89254 0
M  V30 534 H 41.592 -7.213 2.95546 0
M  V30 535 N 45.8211 -1.22559 -0.990812 0
M  V30 536 C 46.7531 -0.955325 -2.08342 0
M  V30 537 C 47.7661 0.0668408 -1.62663 0
M  V30 538 O 48.9551 -0.167421 -1.77713 0
M  V30 539 C 46.0551 -0.415566 -3.36342 0
M  V30 540 C 45.2281 -1.49544 -4.11042 0
M  V30 541 C 44.2871 -0.962399 -5.17324 0
M  V30 542 O 43.3131 -1.64907 -5.44788 0
M  V30 543 N 44.5151 0.215134 -5.80101 0
M  V30 544 H 47.2801 -1.89596 -2.32106 0
M  V30 545 H 44.8411 -1.13276 -1.15673 0
M  V30 546 H 46.8331 -0.0442386 -4.04676 0
M  V30 547 H 45.4031 0.430232 -3.09625 0
M  V30 548 H 44.6231 -2.04 -3.37309 0
M  V30 549 H 45.9111 -2.22195 -4.57719 0
M  V30 550 H 45.3091 0.789779 -5.6016 0
M  V30 551 H 43.8661 0.527826 -6.49659 0
M  V30 552 N 47.2992 1.18797 -1.03562 0
M  V30 553 C 48.5292 1.92319 -0.754773 0
M  V30 554 C 48.9372 1.7612 0.691248 0
M  V30 555 O 48.2802 1.08491 1.48241 0
M  V30 556 C 48.3422 3.44284 -1.03484 0
M  V30 557 C 48.0062 3.84258 -2.47376 0
M  V30 558 C 49.0032 3.88459 -3.45537 0
M  V30 559 C 46.6882 4.15701 -2.81954 0
M  V30 560 C 48.6822 4.23545 -4.76328 0
M  V30 561 C 46.3692 4.50458 -4.12954 0
M  V30 562 C 47.3672 4.54356 -5.09951 0
M  V30 563 O 47.0552 4.88305 -6.38603 0
M  V30 564 H 46.7872 0.617527 -0.275021 0
M  V30 565 H 49.3412 1.51683 -1.38497 0
M  V30 566 H 47.5712 3.85135 -0.347513 0
M  V30 567 H 49.2602 3.99049 -0.7426 0
M  V30 568 H 50.0262 3.6431 -3.20162 0
M  V30 569 H 45.9052 4.11847 -2.0713 0
M  V30 570 H 49.4492 4.26502 -5.52035 0
M  V30 571 H 45.3462 4.74067 -4.38099 0
M  V30 572 H 46.1142 5.06227 -6.43177 0
M  V30 573 N 48.7773 0.814389 1.34928 0
M  V30 574 C 50.0233 0.399013 1.98836 0
M  V30 575 C 50.3563 -1.03314 1.64438 0
M  V30 576 O 49.6313 -1.71811 0.911659 0
M  V30 577 C 49.9143 0.591629 3.55207 0
M  V30 578 C 49.7673 2.06928 3.99376 0
M  V30 579 C 51.0863 0.022199 4.40094 0
M  V30 580 H 48.2053 0.146451 0.722303 0
M  V30 581 H 50.8473 1.02537 1.59957 0
M  V30 582 H 48.9973 0.0584441 3.88456 0
M  V30 583 H 50.6693 2.66544 3.76499 0
M  V30 584 H 48.9123 2.56287 3.49999 0
M  V30 585 H 49.5833 2.1549 5.08201 0
M  V30 586 H 52.0593 0.477643 4.13349 0
M  V30 587 H 50.9353 0.186832 5.48582 0
M  V30 588 H 51.1963 -1.07215 4.28902 0
M  V30 589 N 50.2554 -1.46986 0.568584 0
M  V30 590 C 51.2024 -2.30153 -0.172707 0
M  V30 591 C 52.1724 -1.39759 -0.897586 0
M  V30 592 O 53.3574 -1.68716 -0.891044 0
M  V30 593 C 50.4974 -3.23952 -1.1895 0
M  V30 594 C 49.6104 -4.29441 -0.469517 0
M  V30 595 C 48.7454 -5.1038 -1.47259 0
M  V30 596 C 47.7844 -6.07632 -0.738225 0
M  V30 597 N 46.9214 -6.8149 -1.68868 0
M  V30 598 H 51.7614 -2.93019 0.542596 0
M  V30 599 H 49.2984 -1.44422 0.279401 0
M  V30 600 H 51.2564 -3.76767 -1.79173 0
M  V30 601 H 49.8864 -2.62926 -1.87269 0
M  V30 602 H 48.9384 -3.79594 0.247467 0
M  V30 603 H 50.2504 -4.98689 0.105241 0
M  V30 604 H 49.4044 -5.67402 -2.14803 0
M  V30 605 H 48.1434 -4.4106 -2.08128 0
M  V30 606 H 47.1484 -5.49778 -0.0489293 0
M  V30 607 H 48.3734 -6.78966 -0.135129 0
M  V30 608 H 46.3194 -6.14891 -2.28573 0
M  V30 609 H 46.2364 -7.46948 -1.16636 0
M  V30 610 H 47.5044 -7.43078 -2.3549 0
M  V30 611 N 51.7335 -0.305618 -1.54608 0
M  V30 612 C 52.6805 0.568421 -2.23691 0
M  V30 613 C 53.6505 1.12592 -1.22116 0
M  V30 614 O 54.8355 1.16959 -1.50749 0
M  V30 615 C 51.9755 1.7322 -2.98477 0
M  V30 616 C 51.0885 1.20566 -4.14835 0
M  V30 617 C 50.2235 2.33368 -4.77193 0
M  V30 618 C 49.2625 1.7787 -5.85686 0
M  V30 619 N 48.3995 2.84263 -6.4198 0
M  V30 620 H 53.2395 -0.0272867 -2.97988 0
M  V30 621 H 50.7765 -0.0252363 -1.47078 0
M  V30 622 H 52.7345 2.41675 -3.40072 0
M  V30 623 H 51.3645 2.29947 -2.26548 0
M  V30 624 H 50.4165 0.413223 -3.78149 0
M  V30 625 H 51.7285 0.759417 -4.92985 0
M  V30 626 H 50.8825 3.09761 -5.21664 0
M  V30 627 H 49.6215 2.8132 -3.98385 0
M  V30 628 H 48.6265 0.99968 -5.40635 0
M  V30 629 H 49.8515 1.30816 -6.66381 0
M  V30 630 H 47.7975 3.31541 -5.66053 0
M  V30 631 H 47.7145 2.44149 -7.15491 0
M  V30 632 H 48.9825 3.6054 -6.91109 0
M  V30 633 N 53.2116 1.57565 -0.0334293 0
M  V30 634 C 54.4396 1.9628 0.654347 0
M  V30 635 C 54.8546 0.910138 1.65414 0
M  V30 636 O 54.2116 -0.107595 1.82183 0
M  V30 637 C 54.2626 3.35067 1.35693 0
M  V30 638 O 53.9836 4.36296 0.397191 0
M  V30 639 C 55.4846 3.88439 2.13613 0
M  V30 640 H 52.7046 0.646369 0.180132 0
M  V30 641 H 55.2486 2.04282 -0.0944721 0
M  V30 642 H 53.4036 3.2827 2.05712 0
M  V30 643 H 53.8176 5.1678 0.896597 0
M  V30 644 H 55.2916 4.8788 2.58219 0
M  V30 645 H 55.7686 3.22914 2.97696 0
M  V30 646 H 56.3746 3.98516 1.48543 0
M  V30 647 N 54.6897 -0.239769 1.55765 0
M  V30 648 C 55.9377 -0.964892 1.77579 0
M  V30 649 C 56.2587 -1.85582 0.598699 0
M  V30 650 O 55.5287 -1.92075 -0.385226 0
M  V30 651 H 54.1087 -0.359265 0.654933 0
M  V30 652 H 56.7707 -0.256001 1.93211 0
M  V30 653 H 55.8667 -1.58243 2.69009 0
M  V30 654 N 56.1678 -1.49265 -0.50573 0
M  V30 655 C 57.1308 -1.65075 -1.59006 0
M  V30 656 C 58.1308 -0.522768 -1.52065 0
M  V30 657 O 59.3208 -0.789117 -1.55302 0
M  V30 658 C 56.4528 -1.64369 -2.98656 0
M  V30 659 H 57.6458 -2.61784 -1.46319 0
M  V30 660 H 55.1988 -1.38226 -0.729616 0
M  V30 661 H 55.9338 -0.692272 -3.16825 0
M  V30 662 H 55.7188 -2.46282 -3.05103 0
M  V30 663 H 57.2088 -1.78674 -3.77446 0
M  V30 664 N 57.6459 0.756429 -1.3826 0
M  V30 665 C 58.5929 1.87011 -1.35261 0
M  V30 666 C 59.5629 1.64695 -0.215616 0
M  V30 667 O 60.7479 1.864 -0.407399 0
M  V30 668 C 57.8879 3.24275 -1.18068 0
M  V30 669 C 57.0009 3.58442 -2.41129 0
M  V30 670 C 56.1359 4.84994 -2.16689 0
M  V30 671 C 55.1749 5.11939 -3.35537 0
M  V30 672 N 54.3119 6.29685 -3.10549 0
M  V30 673 H 59.1519 1.8891 -2.30472 0
M  V30 674 H 56.6889 0.923373 -1.14509 0
M  V30 675 H 58.6469 4.03479 -1.06116 0
M  V30 676 H 57.2769 3.21711 -0.264973 0
M  V30 677 H 56.3289 2.74103 -2.63764 0
M  V30 678 H 57.6409 3.74283 -3.29717 0
M  V30 679 H 56.7949 5.72135 -2.01857 0
M  V30 680 H 55.5339 4.71286 -1.25462 0
M  V30 681 H 54.5389 4.23268 -3.50891 0
M  V30 682 H 55.7639 5.27546 -4.27635 0
M  V30 683 H 53.7099 6.17306 -2.21967 0
M  V30 684 H 53.6269 6.46014 -3.92686 0
M  V30 685 H 54.8949 7.19722 -2.99367 0
M  V30 686 N 59.124 1.23083 0.984299 0
M  V30 687 C 60.372 1.05848 1.72165 0
M  V30 688 C 60.693 -0.406049 1.90726 0
M  V30 689 O 59.963 -1.29139 1.47309 0
M  V30 690 H 58.543 0.388685 0.637913 0
M  V30 691 H 61.205 1.54736 1.18503 0
M  V30 692 H 60.301 1.54327 2.71274 0
M  V30 693 N 60.6021 -1.18246 1.0419 0
M  V30 694 C 61.8491 -1.88257 0.746017 0
M  V30 695 C 62.1771 -1.80429 -0.726331 0
M  V30 696 O 61.4321 -1.2 -1.54591 0
M  V30 697 C 61.7311 -3.38082 1.15911 0
M  V30 698 C 61.3971 -3.66114 2.63195 0
M  V30 699 C 60.0591 -3.73474 3.03432 0
M  V30 700 C 62.4111 -3.78398 3.5842 0
M  V30 701 C 59.7391 -3.90599 4.37778 0
M  V30 702 C 62.0911 -3.97039 4.92487 0
M  V30 703 C 60.7551 -4.02635 5.32392 0
M  V30 704 H 60.0251 -0.688883 0.272987 0
M  V30 705 H 62.6721 -1.3995 1.30715 0
M  V30 706 H 60.9771 -3.88377 0.516806 0
M  V30 707 H 62.6741 -3.90596 0.907516 0
M  V30 708 H 59.2641 -3.61003 2.3103 0
M  V30 709 H 63.4481 -3.72042 3.28479 0
M  V30 710 H 58.7041 -3.93175 4.68213 0
M  V30 711 H 62.8781 -4.05486 5.66175 0
M  V30 712 H 60.5051 -4.15657 6.36501 0
M  V30 713 N 62.0802 -0.821533 -1.34494 0
M  V30 714 C 63.3262 -0.409552 -1.98622 0
M  V30 715 C 63.6592 1.0244 -1.64984 0
M  V30 716 O 62.9342 1.71325 -0.920758 0
M  V30 717 C 63.2172 -0.610458 -3.54888 0
M  V30 718 C 63.0702 -2.09043 -3.98273 0
M  V30 719 C 64.3892 -0.0455379 -4.40076 0
M  V30 720 H 61.5082 -0.15028 -0.721516 0
M  V30 721 H 64.1502 -1.03384 -1.59411 0
M  V30 722 H 62.3002 -0.079044 -3.8842 0
M  V30 723 H 63.9722 -2.68537 -3.75081 0
M  V30 724 H 62.2152 -2.58139 -3.48635 0
M  V30 725 H 62.8862 -2.18182 -5.07051 0
M  V30 726 H 65.3622 -0.499557 -4.1309 0
M  V30 727 H 64.2382 -0.215922 -5.48475 0
M  V30 728 H 64.4992 1.04939 -4.29465 0
M  V30 729 N 63.5583 1.46682 -0.576371 0
M  V30 730 C 64.4883 2.33028 0.148397 0
M  V30 731 C 65.4693 1.44961 0.889956 0
M  V30 732 O 66.6543 1.73789 0.866662 0
M  V30 733 C 63.7843 3.27117 1.1667 0
M  V30 734 C 62.7383 4.24575 0.540386 0
M  V30 735 C 62.0643 5.08126 1.6647 0
M  V30 736 C 63.3643 5.19722 -0.518331 0
M  V30 737 H 65.0583 2.93875 -0.572509 0
M  V30 738 H 62.6043 1.41315 -0.276768 0
M  V30 739 H 64.5573 3.86374 1.68204 0
M  V30 740 H 63.2813 2.64364 1.9178 0
M  V30 741 H 61.9403 3.66571 0.0461769 0
M  V30 742 H 61.5883 4.41762 2.40531 0
M  V30 743 H 61.2883 5.74122 1.25131 0
M  V30 744 H 62.8123 5.70246 2.18293 0
M  V30 745 H 64.2263 5.73232 -0.0883058 0
M  V30 746 H 62.6233 5.94026 -0.851679 0
M  V30 747 H 63.6933 4.64037 -1.40703 0
M  V30 748 N 65.0364 0.313813 1.54444 0
M  V30 749 C 66.2844 -0.291099 1.99993 0
M  V30 750 C 66.6054 -1.53418 1.20366 0
M  V30 751 O 65.8754 -1.93544 0.302927 0
M  V30 752 H 64.4554 -0.110552 0.738774 0
M  V30 753 H 67.1174 0.428106 1.9014 0
M  V30 754 H 66.2134 -0.554268 3.07139 0
M  V30 755 N 66.5145 -1.57545 0.0417849 0
M  V30 756 C 67.7635 -1.91494 -0.633492 0
M  V30 757 C 68.0765 -0.921084 -1.72556 0
M  V30 758 O 69.2825 -1.15228 -2.45835 0
M  V30 759 C 67.7385 -3.40072 -1.17808 0
M  V30 760 C 67.3465 -4.47843 -0.118633 0
M  V30 761 C 69.0905 -3.8307 -1.82915 0
M  V30 762 C 66.9975 -5.87529 -0.675578 0
M  V30 763 H 65.9275 -0.714653 -0.24039 0
M  V30 764 H 68.5785 -1.83175 0.109148 0
M  V30 765 H 66.9605 -3.43364 -1.97274 0
M  V30 766 H 68.1345 -4.56128 0.654494 0
M  V30 767 H 66.4495 -4.14128 0.434414 0
M  V30 768 H 69.0465 -4.84794 -2.25563 0
M  V30 769 H 69.3895 -3.1881 -2.67705 0
M  V30 770 H 69.9225 -3.82255 -1.10119 0
M  V30 771 H 66.6615 -6.55362 0.134475 0
M  V30 772 H 66.1815 -5.82824 -1.4169 0
M  V30 773 H 67.8605 -6.36491 -1.1614 0
M  V30 774 N 67.9926 0.231505 -1.5589 0
M  V30 775 C 69.2176 0.978689 -1.82856 0
M  V30 776 C 69.6426 1.77559 -0.620846 0
M  V30 777 O 69.0006 1.76119 0.430305 0
M  V30 778 C 69.0486 1.87997 -3.07716 0
M  V30 779 O 68.1526 2.97393 -2.85712 0
M  V30 780 H 67.4936 0.277663 -0.603158 0
M  V30 781 H 70.0236 0.24783 -2.03093 0
M  V30 782 H 70.0336 2.2917 -3.37558 0
M  V30 783 H 68.7086 1.29417 -3.95252 0
M  V30 784 H 67.2856 2.60238 -2.67078 0
M  V30 785 N 69.4707 1.49531 0.497807 0
M  V30 786 C 70.7187 1.58865 1.24926 0
M  V30 787 C 71.0397 0.278721 1.92998 0
M  V30 788 O 70.3097 -0.702144 1.82885 0
M  V30 789 H 68.8897 0.585343 0.464094 0
M  V30 790 H 71.5517 1.86174 0.57666 0
M  V30 791 H 70.6477 2.38633 2.01149 0
M  V30 792 N 70.9488 -0.749086 1.3866 0
M  V30 793 C 72.1968 -1.50535 1.34847 0
M  V30 794 C 72.5178 -1.94909 -0.0595016 0
M  V30 795 O 71.7878 -1.67973 -1.00806 0
M  V30 796 H 70.3678 -0.558395 0.49619 0
M  V30 797 H 73.0298 -0.890165 1.73384 0
M  V30 798 H 72.1258 -2.39413 2.00219 0
M  V30 799 N 72.4269 -1.23603 -0.977757 0
M  V30 800 C 73.3589 -0.977369 -2.07317 0
M  V30 801 C 74.3719 0.0495845 -1.62724 0
M  V30 802 O 75.5609 -0.186261 -1.77526 0
M  V30 803 C 72.6609 -0.451216 -3.35883 0
M  V30 804 C 71.8339 -1.53896 -4.09432 0
M  V30 805 C 70.8929 -1.01721 -5.16274 0
M  V30 806 O 69.9189 -1.70676 -5.43009 0
M  V30 807 N 71.1209 0.153594 -5.80297 0
M  V30 808 H 73.8859 -1.92047 -2.30082 0
M  V30 809 H 71.4469 -1.14497 -1.14465 0
M  V30 810 H 73.4389 -0.0871574 -4.04606 0
M  V30 811 H 72.0089 0.397368 -3.10064 0
M  V30 812 H 71.2289 -2.07566 -3.35127 0
M  V30 813 H 72.5169 -2.27037 -4.55337 0
M  V30 814 H 71.9149 0.730323 -5.60966 0
M  V30 815 H 70.4719 0.458892 -6.50183 0
M  V30 816 N 73.905 1.17692 -1.04816 0
M  V30 817 C 75.182 1.83768 -0.669963 0
M  V30 818 C 75.562 1.93232 0.849986 0
M  V30 819 O 74.91 1.46397 1.75443 0
M  V30 820 C 75.12 3.21641 -1.35455 0
M  V30 821 C 76.468 3.97592 -1.49017 0
M  V30 822 O 77.492 3.31107 -1.31326 0
M  V30 823 O 76.351 5.16729 -1.77914 0
M  V30 824 H 73.445 0.792799 -0.235368 0
M  V30 825 H 75.991 1.25021 -1.14751 0
M  V30 826 H 74.763 3.097 -2.39168 0
M  V30 827 H 74.386 3.88052 -0.866107 0
M  V30 828 N 75.3831 0.828654 1.34056 0
M  V30 829 C 76.6081 0.431637 2.02859 0
M  V30 830 C 77.0331 -0.956339 1.61975 0
M  V30 831 O 76.3911 -1.62338 0.807228 0
M  V30 832 C 76.4391 0.548323 3.56407 0
M  V30 833 O 75.5431 -0.429556 4.10157 0
M  V30 834 H 74.8841 0.176886 0.640006 0
M  V30 835 H 77.4141 1.12066 1.71179 0
M  V30 836 H 77.4241 0.426196 4.05768 0
M  V30 837 H 76.0991 1.5606 3.8551 0
M  V30 838 H 74.6761 -0.265836 3.71951 0
M  V30 839 N 76.8612 -1.46375 0.584142 0
M  V30 840 C 78.0892 -2.06761 0.0759296 0
M  V30 841 C 78.5042 -1.43266 -1.22965 0
M  V30 842 O 77.8612 -0.538458 -1.74376 0
M  V30 843 C 77.9122 -3.61375 -0.0950384 0
M  V30 844 O 77.6332 -4.22495 1.15887 0
M  V30 845 C 79.1342 -4.38693 -0.637434 0
M  V30 846 H 76.3542 -0.668479 0.0581075 0
M  V30 847 H 78.8982 -1.8798 0.805218 0
M  V30 848 H 77.0532 -3.79578 -0.774554 0
M  V30 849 H 77.4672 -5.15385 0.973598 0
M  V30 850 H 78.9412 -5.47464 -0.706237 0
M  V30 851 H 79.4182 -4.06836 -1.65472 0
M  V30 852 H 80.0242 -4.25299 0.00725967 0
M  V30 853 N 78.3393 -0.321999 -1.54275 0
M  V30 854 C 79.2693 0.537411 -2.27231 0
M  V30 855 C 80.2503 1.12064 -1.27968 0
M  V30 856 O 81.4353 1.14606 -1.56777 0
M  V30 857 C 78.5653 1.69919 -3.02894 0
M  V30 858 C 77.5193 1.24534 -4.09482 0
M  V30 859 C 76.8453 2.49394 -4.72977 0
M  V30 860 C 78.1453 0.361335 -5.21049 0
M  V30 861 H 79.8393 -0.0711406 -2.99315 0
M  V30 862 H 77.3853 -0.0356555 -1.43956 0
M  V30 863 H 79.3383 2.30668 -3.52662 0
M  V30 864 H 78.0623 2.33431 -2.28424 0
M  V30 865 H 76.7213 0.660782 -3.60596 0
M  V30 866 H 76.3693 3.11265 -3.95124 0
M  V30 867 H 76.0693 2.19718 -5.44975 0
M  V30 868 H 77.5933 3.10908 -5.25517 0
M  V30 869 H 79.0073 0.875072 -5.66582 0
M  V30 870 H 77.4043 0.157428 -5.99893 0
M  V30 871 H 78.4743 -0.60822 -4.8107 0
M  V30 872 N 79.8174 1.5752 -0.0501392 0
M  V30 873 C 80.7804 2.1037 0.909786 0
M  V30 874 C 81.7804 1.02308 1.24056 0
M  V30 875 O 82.9704 1.28385 1.17741 0
M  V30 876 C 80.1024 2.58708 2.21998 0
M  V30 877 H 81.2954 2.96479 0.451665 0
M  V30 878 H 78.8484 1.55038 0.198248 0
M  V30 879 H 79.5834 1.75989 2.72394 0
M  V30 880 H 79.3684 3.37675 1.99295 0
M  V30 881 H 80.8584 2.99747 2.9076 0
M  V30 882 N 81.2955 -0.223234 1.56011 0
M  V30 883 C 82.5435 -0.946003 1.78592 0
M  V30 884 C 82.8645 -1.84936 0.618349 0
M  V30 885 O 82.1345 -1.92473 -0.364833 0
M  V30 886 H 80.7145 -0.352298 0.658707 0
M  V30 887 H 83.3765 -0.235494 1.93472 0
M  V30 888 H 82.4725 -1.55381 2.70672 0
M  V30 889 N 82.7736 -1.49793 -0.48987 0
M  V30 890 C 84.1896 -1.36803 -0.822022 0
M  V30 891 C 84.3896 -0.409652 -1.97292 0
M  V30 892 O 83.4456 0.154614 -2.52026 0
M  V30 893 C 84.7586 -2.77768 -1.15175 0
M  V30 894 C 86.3066 -2.86549 -1.25931 0
M  V30 895 C 86.7816 -4.28306 -1.62228 0
M  V30 896 N 88.2726 -4.31169 -1.69256 0
M  V30 897 C 89.0076 -5.37832 -1.98807 0
M  V30 898 N 88.5036 -6.54726 -2.26507 0
M  V30 899 N 90.2966 -5.25258 -2.00152 0
M  V30 900 H 82.4476 -2.10691 0.268881 0
M  V30 901 H 84.7106 -0.946241 0.057728 0
M  V30 902 H 84.4166 -3.49648 -0.379335 0
M  V30 903 H 84.2906 -3.13836 -2.09253 0
M  V30 904 H 86.6776 -2.14899 -2.02243 0
M  V30 905 H 86.7586 -2.54049 -0.298776 0
M  V30 906 H 86.4026 -5.00486 -0.864622 0
M  V30 907 H 86.3326 -4.58279 -2.594 0
M  V30 908 H 88.8236 -3.4687 -1.49965 0
M  V30 909 H 89.1366 -7.31833 -2.48276 0
M  V30 910 H 87.4816 -6.57933 -2.23939 0
M  V30 911 H 90.6726 -4.32938 -1.77996 0
M  V30 912 H 90.8456 -6.08476 -2.22848 0
M  V30 913 N 84.2517 0.741722 -1.39055 0
M  V30 914 C 85.1817 1.869 -1.39966 0
M  V30 915 C 86.1627 1.6804 -0.26392 0
M  V30 916 O 87.3477 1.88458 -0.468755 0
M  V30 917 C 84.4777 3.24572 -1.23574 0
M  V30 918 C 83.4317 3.58056 -2.34477 0
M  V30 919 C 82.7577 4.94593 -2.0318 0
M  V30 920 C 84.0577 3.61716 -3.76774 0
M  V30 921 H 85.7517 1.86395 -2.34302 0
M  V30 922 H 83.2977 0.895361 -1.1278 0
M  V30 923 H 85.2507 4.031 -1.22834 0
M  V30 924 H 83.9747 3.25587 -0.257045 0
M  V30 925 H 82.6337 2.81854 -2.34423 0
M  V30 926 H 82.2817 4.92181 -1.03765 0
M  V30 927 H 81.9817 5.17964 -2.77465 0
M  V30 928 H 83.5057 5.75486 -2.04079 0
M  V30 929 H 84.9197 4.30335 -3.78794 0
M  V30 930 H 83.3167 3.96603 -4.50362 0
M  V30 931 H 84.3867 2.61672 -4.08235 0
M  V30 932 N 85.7298 1.2412 0.971189 0
M  V30 933 C 86.6928 1.03156 2.04674 0
M  V30 934 C 87.6928 -0.00990322 1.60797 0
M  V30 935 O 88.8828 0.230729 1.72665 0
M  V30 936 C 86.0148 0.562765 3.36223 0
M  V30 937 H 87.2078 1.98614 2.24705 0
M  V30 938 H 84.7608 1.06293 1.14593 0
M  V30 939 H 85.4958 -0.395176 3.21883 0
M  V30 940 H 85.2808 1.31441 3.69413 0
M  V30 941 H 86.7708 0.437015 4.15307 0
M  V30 942 N 87.2079 -1.17134 1.05439 0
M  V30 943 C 88.1399 -2.2078 0.615539 0
M  V30 944 C 89.1529 -1.59584 -0.322001 0
M  V30 945 O 90.3419 -1.78133 -0.114344 0
M  V30 946 C 87.4419 -3.38691 -0.118938 0
M  V30 947 C 86.6149 -4.29454 0.829924 0
M  V30 948 C 85.6739 -5.26024 0.136258 0
M  V30 949 O 84.6999 -5.63952 0.77115 0
M  V30 950 N 85.9019 -5.69487 -1.1254 0
M  V30 951 H 88.6669 -2.59052 1.50705 0
M  V30 952 H 86.2279 -1.32058 0.936603 0
M  V30 953 H 88.2199 -4.00329 -0.593179 0
M  V30 954 H 86.7899 -2.98996 -0.91215 0
M  V30 955 H 86.0099 -3.65211 1.48373 0
M  V30 956 H 87.2979 -4.86984 1.47392 0
M  V30 957 H 86.6959 -5.4075 -1.6615 0
M  V30 958 H 85.2529 -6.33257 -1.54366 0
M  V30 959 N 88.686 -0.835752 -1.33615 0
M  V30 960 C 89.616 -0.281739 -2.31794 0
M  V30 961 C 90.597 0.608833 -1.58831 0
M  V30 962 O 91.782 0.533035 -1.86741 0
M  V30 963 C 88.912 0.546612 -3.42971 0
M  V30 964 C 87.866 -0.247904 -4.27281 0
M  V30 965 C 87.192 0.704001 -5.30045 0
M  V30 966 C 88.492 -1.46324 -5.01385 0
M  V30 967 H 90.186 -1.10206 -2.78379 0
M  V30 968 H 87.732 -0.531388 -1.33837 0
M  V30 969 H 89.685 0.944467 -4.1068 0
M  V30 970 H 88.409 1.40011 -2.95067 0
M  V30 971 H 87.068 -0.627281 -3.61194 0
M  V30 972 H 86.716 1.55381 -4.78399 0
M  V30 973 H 86.416 0.176524 -5.87335 0
M  V30 974 H 87.94 1.09944 -6.0062 0
M  V30 975 H 89.354 -1.13871 -5.61877 0
M  V30 976 H 87.751 -1.92728 -5.6831 0
M  V30 977 H 88.821 -2.23467 -4.30338 0
M  V30 978 N 90.1641 1.46063 -0.591896 0
M  V30 979 C 91.1271 2.28854 0.125973 0
M  V30 980 C 92.1271 1.38903 0.810107 0
M  V30 981 O 93.3171 1.61186 0.66066 0
M  V30 982 C 90.4491 3.19526 1.1881 0
M  V30 983 H 91.6421 2.93802 -0.601717 0
M  V30 984 H 89.1951 1.52325 -0.350254 0
M  V30 985 H 89.9301 2.59345 1.94707 0
M  V30 986 H 89.7151 3.85766 0.701936 0
M  V30 987 H 91.2051 3.81817 1.69132 0
M  V30 988 N 91.6422 0.330177 1.54103 0
M  V30 989 C 92.8882 -0.270806 2.00984 0
M  V30 990 C 93.2212 -1.51265 1.21789 0
M  V30 991 O 92.4962 -1.92142 0.301927 0
M  V30 992 C 92.7792 -0.598339 3.55094 0
M  V30 993 C 92.6322 0.654674 4.4501 0
M  V30 994 C 93.9512 -1.41334 4.16789 0
M  V30 995 H 91.0702 -0.0969531 0.730595 0
M  V30 996 H 93.7122 0.448066 1.84641 0
M  V30 997 H 91.8622 -1.21078 3.69151 0
M  V30 998 H 93.5342 1.29285 4.42813 0
M  V30 999 H 91.7772 1.28224 4.14416 0
M  V30 1000 H 92.4482 0.380944 5.50684 0
M  V30 1001 H 94.9242 -0.895597 4.06347 0
M  V30 1002 H 93.8002 -1.61127 5.24718 0
M  V30 1003 H 94.0612 -2.41146 3.70541 0
M  V30 1004 N 93.1203 -1.57491 0.0584922 0
M  V30 1005 C 94.0303 -2.15448 -0.928414 0
M  V30 1006 C 95.0463 -1.11416 -1.3365 0
M  V30 1007 O 96.2223 -1.4362 -1.41193 0
M  V30 1008 C 93.2873 -2.69393 -2.18239 0
M  V30 1009 C 92.3483 -3.88249 -1.83196 0
M  V30 1010 C 91.5813 -4.39613 -3.02616 0
M  V30 1011 O 91.8043 -3.90023 -4.16219 0
M  V30 1012 O 90.7383 -5.31111 -2.83204 0
M  V30 1013 H 94.5643 -3.00112 -0.465483 0
M  V30 1014 H 92.1493 -1.48499 -0.163826 0
M  V30 1015 H 94.0313 -3.04026 -2.91798 0
M  V30 1016 H 92.7063 -1.87796 -2.63656 0
M  V30 1017 H 91.6133 -3.58492 -1.06931 0
M  V30 1018 H 92.9463 -4.71098 -1.42573 0
M  V30 1019 N 94.5984 0.214957 -1.56127 0
M  V30 1020 C 95.8234 0.95924 -1.83884 0
M  V30 1021 C 96.2484 1.7689 -0.639644 0
M  V30 1022 O 95.6064 1.76566 0.411601 0
M  V30 1023 C 95.6544 1.84723 -3.09693 0
M  V30 1024 O 94.7584 2.94346 -2.8885 0
M  V30 1025 H 94.0994 0.27125 -0.606069 0
M  V30 1026 H 96.6294 0.226276 -2.03345 0
M  V30 1027 H 96.6394 2.25576 -3.39969 0
M  V30 1028 H 95.3144 1.25218 -3.96602 0
M  V30 1029 H 93.8914 2.57391 -2.69823 0
M  V30 1030 N 96.0765 1.50051 0.48192 0
M  V30 1031 C 97.3255 1.59741 1.23149 0
M  V30 1032 C 97.6385 0.298163 1.93314 0
M  V30 1033 O 98.8445 0.273835 2.70116 0
M  V30 1034 C 97.3005 2.81926 2.23708 0
M  V30 1035 C 96.9085 4.18685 1.59396 0
M  V30 1036 C 98.6525 3.00956 2.99375 0
M  V30 1037 C 96.5595 5.3207 2.58178 0
M  V30 1038 H 95.4895 0.594838 0.46334 0
M  V30 1039 H 98.1405 1.76467 0.503169 0
M  V30 1040 H 96.5225 2.58736 2.99786 0
M  V30 1041 H 97.6965 4.52088 0.891811 0
M  V30 1042 H 96.0115 4.05171 0.960503 0
M  V30 1043 H 98.6085 3.82836 3.73283 0
M  V30 1044 H 98.9515 2.12258 3.58123 0
M  V30 1045 H 99.4845 3.24277 2.30411 0
M  V30 1046 H 96.2235 6.22888 2.04184 0
M  V30 1047 H 95.7435 5.03098 3.26577 0
M  V30 1048 H 97.4225 5.62196 3.20225 0
M  V30 1049 N 97.5546 -0.734337 1.39446 0
M  V30 1050 C 98.9706 -1.03997 1.21065 0
M  V30 1051 C 99.1706 -2.01369 0.0727019 0
M  V30 1052 O 98.2266 -2.45856 -0.575426 0
M  V30 1053 C 99.5396 -1.60163 2.54496 0
M  V30 1054 C 101.088 -1.7224 2.61347 0
M  V30 1055 C 101.563 -2.31814 3.95002 0
M  V30 1056 N 103.054 -2.39223 3.96644 0
M  V30 1057 C 103.789 -2.86258 4.96834 0
M  V30 1058 N 103.285 -3.33184 6.07421 0
M  V30 1059 N 105.078 -2.85473 4.84213 0
M  V30 1060 H 97.2286 -0.0885624 2.12215 0
M  V30 1061 H 99.4916 -0.10191 0.942506 0
M  V30 1062 H 99.1976 -0.960811 3.38321 0
M  V30 1063 H 99.0716 -2.5896 2.74262 0
M  V30 1064 H 101.459 -2.35443 1.77906 0
M  V30 1065 H 101.54 -0.720939 2.4543 0
M  V30 1066 H 101.184 -1.69238 4.78875 0
M  V30 1067 H 101.114 -3.32638 4.08239 0
M  V30 1068 H 103.605 -2.06057 3.16779 0
M  V30 1069 H 103.918 -3.67586 6.7978 0
M  V30 1070 H 102.263 -3.31191 6.11013 0
M  V30 1071 H 105.454 -2.48136 3.96921 0
M  V30 1072 H 105.627 -3.21814 5.62441 0
M  V30 1073 N 99.0327 -1.24633 -0.964593 0
M  V30 1074 C 99.9427 -1.05859 -2.09359 0
M  V30 1075 C 100.959 0.00148855 -1.74 0
M  V30 1076 O 102.135 -0.197346 -2.00431 0
M  V30 1077 C 99.1997 -0.668879 -3.40187 0
M  V30 1078 C 98.2607 -1.80578 -3.89474 0
M  V30 1079 C 97.4937 -1.43457 -5.14058 0
M  V30 1080 O 97.7167 -0.325775 -5.69469 0
M  V30 1081 O 96.6507 -2.2613 -5.57807 0
M  V30 1082 H 100.477 -2.00516 -2.28094 0
M  V30 1083 H 98.0617 -1.03481 -1.0776 0
M  V30 1084 H 99.9437 -0.463211 -4.18846 0
M  V30 1085 H 98.6187 0.248536 -3.22744 0
M  V30 1086 H 97.5257 -2.06623 -3.11862 0
M  V30 1087 H 98.8587 -2.70208 -4.11398 0
M  V30 1088 N 100.511 1.16574 -1.06058 0
M  V30 1089 C 101.421 2.2452 -0.680282 0
M  V30 1090 C 102.437 1.71348 0.302604 0
M  V30 1091 O 103.613 2.00822 0.152513 0
M  V30 1092 C 100.678 3.46629 -0.0700315 0
M  V30 1093 C 99.7388 4.14849 -1.10448 0
M  V30 1094 C 98.9718 5.31129 -0.523256 0
M  V30 1095 O 99.1948 5.66514 0.664709 0
M  V30 1096 O 98.1288 5.88526 -1.26179 0
M  V30 1097 H 101.955 2.59355 -1.58015 0
M  V30 1098 H 99.5398 1.24043 -0.832694 0
M  V30 1099 H 101.422 4.20543 0.268667 0
M  V30 1100 H 100.097 3.13573 0.803353 0
M  V30 1101 H 99.0038 3.42916 -1.49532 0
M  V30 1102 H 100.337 4.51954 -1.94931 0
M  V30 1103 N 101.989 0.842826 1.3317 0
M  V30 1104 C 103.237 0.439577 1.97262 0
M  V30 1105 C 103.558 -1.00548 1.67078 0
M  V30 1106 O 102.828 -1.70098 0.971779 0
M  V30 1107 H 101.408 0.159558 0.72976 0
M  V30 1108 H 104.07 1.07665 1.62463 0
M  V30 1109 H 103.166 0.574886 3.0676 0
M  V30 1110 N 103.467 -1.45747 0.599634 0
M  V30 1111 C 104.715 -2.01893 0.0915472 0
M  V30 1112 C 105.036 -1.47155 -1.27946 0
M  V30 1113 O 104.306 -0.66273 -1.84349 0
M  V30 1114 H 102.886 -0.746363 0.0308524 0
M  V30 1115 H 105.548 -1.78645 0.779237 0
M  V30 1116 H 104.644 -3.1208 0.0353086 0
M  V30 1117 N 104.945 -0.338344 -1.53925 0
M  V30 1118 C 106.222 0.314774 -1.93051 0
M  V30 1119 C 106.602 1.68669 -1.26941 0
M  V30 1120 O 105.95 2.24636 -0.418445 0
M  V30 1121 C 106.16 0.392249 -3.46789 0
M  V30 1122 C 107.508 0.645554 -4.19664 0
M  V30 1123 O 108.532 0.474575 -3.53024 0
M  V30 1124 O 107.391 0.976408 -5.37707 0
M  V30 1125 H 104.485 0.182598 -0.80659 0
M  V30 1126 H 107.031 -0.389141 -1.65178 0
M  V30 1127 H 105.803 -0.570702 -3.87116 0
M  V30 1128 H 105.426 1.14316 -3.80812 0
M  V30 1129 N 106.423 1.57458 -0.0668435 0
M  V30 1130 C 107.386 2.11323 0.887422 0
M  V30 1131 C 108.386 1.03618 1.22964 0
M  V30 1132 O 109.576 1.29626 1.16373 0
M  V30 1133 C 106.708 2.61048 2.19242 0
M  V30 1134 H 107.901 2.96942 0.420194 0
M  V30 1135 H 105.454 1.55239 0.181793 0
M  V30 1136 H 106.189 1.78868 2.70512 0
M  V30 1137 H 105.974 3.39769 1.95702 0
M  V30 1138 H 107.464 3.02814 2.87565 0
M  V30 1139 N 107.901 -0.206675 1.56239 0
M  V30 1140 C 108.833 -1.27997 1.9013 0
M  V30 1141 C 109.846 -1.42299 0.790883 0
M  V30 1142 O 111.035 -1.42931 1.06925 0
M  V30 1143 C 108.135 -2.65368 2.10792 0
M  V30 1144 C 107.308 -2.72824 3.41886 0
M  V30 1145 C 106.367 -3.9131 3.51799 0
M  V30 1146 O 105.393 -3.78953 4.24716 0
M  V30 1147 N 106.595 -5.06265 2.84035 0
M  V30 1148 H 109.36 -0.992444 2.82791 0
M  V30 1149 H 106.921 -0.396652 1.56966 0
M  V30 1150 H 108.913 -3.43039 2.14724 0
M  V30 1151 H 107.483 -2.86657 1.24685 0
M  V30 1152 H 106.703 -1.81515 3.49923 0
M  V30 1153 H 107.991 -2.74786 4.28217 0
M  V30 1154 H 107.389 -5.19203 2.246 0
M  V30 1155 H 105.946 -5.81925 2.93609 0
M  V30 1156 N 109.379 -1.50304 -0.473955 0
M  V30 1157 C 110.626 -1.6115 -1.22625 0
M  V30 1158 C 110.954 -0.310517 -1.92005 0
M  V30 1159 O 110.209 0.703419 -1.82621 0
M  V30 1160 C 110.508 -2.73938 -2.29549 0
M  V30 1161 C 110.174 -4.14519 -1.7744 0
M  V30 1162 C 108.836 -4.5277 -1.62949 0
M  V30 1163 C 111.188 -5.02392 -1.3875 0
M  V30 1164 C 108.516 -5.76639 -1.08187 0
M  V30 1165 C 110.868 -6.26805 -0.854309 0
M  V30 1166 C 109.532 -6.63861 -0.696011 0
M  V30 1167 H 108.802 -0.589691 -0.448715 0
M  V30 1168 H 111.449 -1.84228 -0.522705 0
M  V30 1169 H 109.754 -2.44937 -3.05799 0
M  V30 1170 H 111.451 -2.79534 -2.87509 0
M  V30 1171 H 108.041 -3.8434 -1.89685 0
M  V30 1172 H 112.225 -4.73474 -1.4878 0
M  V30 1173 H 107.481 -6.04027 -0.946666 0
M  V30 1174 H 111.655 -6.94258 -0.545843 0
M  V30 1175 H 109.282 -7.59722 -0.26952 0
M  V30 1176 N 110.857 0.726932 -1.39834 0
M  V30 1177 C 112.106 1.48214 -1.36805 0
M  V30 1178 C 112.419 1.95576 0.0305291 0
M  V30 1179 O 113.625 2.7088 0.183417 0
M  V30 1180 C 112.081 2.67854 -2.40379 0
M  V30 1181 C 111.689 2.27408 -3.85992 0
M  V30 1182 C 113.433 3.45641 -2.46439 0
M  V30 1183 C 111.34 3.43819 -4.81189 0
M  V30 1184 H 110.27 0.556606 -0.508631 0
M  V30 1185 H 112.921 0.792216 -1.65518 0
M  V30 1186 H 111.303 3.3896 -2.04749 0
M  V30 1187 H 112.477 1.63795 -4.30706 0
M  V30 1188 H 110.792 1.62692 -3.83302 0
M  V30 1189 H 113.389 4.32244 -3.14753 0
M  V30 1190 H 113.732 3.88669 -1.49139 0
M  V30 1191 H 114.265 2.8157 -2.81004 0
M  V30 1192 H 111.004 3.05834 -5.79781 0
M  V30 1193 H 110.524 4.06385 -4.41148 0
M  V30 1194 H 112.203 4.10043 -5.00474 0
M  V30 1195 N 112.336 1.25143 0.95797 0
M  V30 1196 C 113.299 1.05321 2.03569 0
M  V30 1197 C 114.299 0.007152 1.60798 0
M  V30 1198 O 115.489 0.24903 1.72411 0
M  V30 1199 C 112.621 0.598394 3.35607 0
M  V30 1200 H 113.814 2.00986 2.22586 0
M  V30 1201 H 111.367 1.07502 1.13459 0
M  V30 1202 H 112.102 -0.361014 3.22284 0
M  V30 1203 H 111.887 1.35351 3.67998 0
M  V30 1204 H 113.377 0.48104 4.1482 0
M  V30 1205 N 113.814 -1.1601 1.06675 0
M  V30 1206 C 115.06 -1.86909 0.786945 0
M  V30 1207 C 115.393 -1.81717 -0.685018 0
M  V30 1208 O 114.668 -1.23551 -1.50218 0
M  V30 1209 C 114.951 -3.36313 1.28707 0
M  V30 1210 C 114.804 -3.50175 2.82308 0
M  V30 1211 C 116.123 -4.3084 0.898071 0
M  V30 1212 H 113.242 -0.678677 0.287343 0
M  V30 1213 H 115.884 -1.36336 1.32334 0
M  V30 1214 H 114.034 -3.79513 0.830768 0
M  V30 1215 H 115.706 -3.15886 3.36175 0
M  V30 1216 H 113.949 -2.91959 3.20847 0
M  V30 1217 H 114.62 -4.55116 3.12368 0
M  V30 1218 H 117.096 -3.95561 1.29114 0
M  V30 1219 H 115.972 -5.33876 1.27543 0
M  V30 1220 H 116.233 -4.41662 -0.196651 0
M  V30 1221 N 115.292 -0.849877 -1.32721 0
M  V30 1222 C 116.708 -0.539102 -1.50219 0
M  V30 1223 C 116.908 0.931271 -1.78689 0
M  V30 1224 O 115.964 1.71455 -1.85363 0
M  V30 1225 C 117.277 -1.42196 -2.64954 0
M  V30 1226 C 118.825 -1.42189 -2.78839 0
M  V30 1227 C 119.3 -2.28985 -3.96648 0
M  V30 1228 N 120.791 -2.26754 -4.03902 0
M  V30 1229 C 121.526 -2.90644 -4.94281 0
M  V30 1230 N 121.022 -3.63629 -5.897 0
M  V30 1231 N 122.815 -2.80057 -4.87365 0
M  V30 1232 H 114.966 -1.80156 -1.12506 0
M  V30 1233 H 117.229 -0.769217 -0.554085 0
M  V30 1234 H 116.935 -2.46733 -2.50631 0
M  V30 1235 H 116.809 -1.10591 -3.60624 0
M  V30 1236 H 119.196 -0.38419 -2.92588 0
M  V30 1237 H 119.277 -1.77807 -1.83898 0
M  V30 1238 H 118.921 -3.32819 -3.83658 0
M  V30 1239 H 118.851 -1.90702 -4.90857 0
M  V30 1240 H 121.342 -1.73688 -3.3562 0
M  V30 1241 H 121.655 -4.09558 -6.55349 0
M  V30 1242 H 120 -3.67737 -5.89741 0
M  V30 1243 H 123.191 -2.22593 -4.11789 0
M  V30 1244 H 123.364 -3.30132 -5.57599 0
M  V30 1245 N 116.77 1.45427 -0.607355 0
M  V30 1246 C 117.7 2.3329 0.0989352 0
M  V30 1247 C 118.681 1.46816 0.859007 0
M  V30 1248 O 119.866 1.75588 0.829604 0
M  V30 1249 C 116.996 3.29518 1.09705 0
M  V30 1250 C 115.95 4.25626 0.450206 0
M  V30 1251 C 115.276 5.11542 1.55655 0
M  V30 1252 C 116.576 5.18505 -0.628455 0
M  V30 1253 H 118.27 2.92595 -0.634716 0
M  V30 1254 H 115.816 1.40696 -0.306681 0
M  V30 1255 H 117.769 3.89855 1.59971 0
M  V30 1256 H 116.493 2.68372 1.86129 0
M  V30 1257 H 115.152 3.66586 -0.0315886 0
M  V30 1258 H 114.8 4.46765 2.31107 0
M  V30 1259 H 114.5 5.76647 1.12925 0
M  V30 1260 H 116.024 5.74748 2.06148 0
M  V30 1261 H 117.438 5.72916 -0.209877 0
M  V30 1262 H 115.835 5.92085 -0.977489 0
M  V30 1263 H 116.905 4.60948 -1.50514 0
M  V30 1264 N 118.248 0.346503 1.53744 0
M  V30 1265 C 119.659 -0.136779 1.86198 0
M  V30 1266 C 120.01 -1.49749 1.26766 0
M  V30 1267 O 119.135 -2.08417 0.582355 0
M  V30 1268 C 119.73 -0.254966 3.37839 0
M  V30 1269 C 118.289 -0.682482 3.70161 0
M  V30 1270 C 117.436 0.181981 2.76702 0
M  V30 1271 H 120.387 0.565994 1.48264 0
M  V30 1272 H 120.408 -1.08195 3.64793 0
M  V30 1273 H 119.92 0.735526 3.81066 0
M  V30 1274 H 118.021 -1.68189 3.3248 0
M  V30 1275 H 118.134 -0.470326 4.76786 0
M  V30 1276 H 116.498 -0.34615 2.52337 0
M  V30 1277 H 117.281 1.16966 3.2276 0
M  V30 1278 N 119.726 -1.57421 0.075193 0
M  V30 1279 C 120.676 -2.09441 -0.901025 0
M  V30 1280 C 121.66 -1.00486 -1.25663 0
M  V30 1281 O 122.852 -1.2679 -1.23504 0
M  V30 1282 C 119.981 -2.66233 -2.16737 0
M  V30 1283 C 119.067 -3.82198 -1.83808 0
M  V30 1284 N 119.458 -4.91028 -1.21345 0
M  V30 1285 C 117.756 -3.91558 -2.13538 0
M  V30 1286 C 118.457 -5.71852 -1.06585 0
M  V30 1287 N 117.433 -5.20233 -1.57667 0
M  V30 1288 H 121.235 -2.90972 -0.413815 0
M  V30 1289 H 118.749 -1.6189 -0.128601 0
M  V30 1290 H 120.746 -3.01819 -2.87595 0
M  V30 1291 H 119.406 -1.8615 -2.66042 0
M  V30 1292 H 120.417 -5.10323 -0.88268 0
M  V30 1293 H 117.094 -3.22454 -2.65197 0
M  V30 1294 H 118.484 -6.69401 -0.578933 0
M  V30 1295 N 121.204 0.198386 -1.56346 0
M  V30 1296 C 122.452 0.91747 -1.80075 0
M  V30 1297 C 122.773 1.83929 -0.647692 0
M  V30 1298 O 122.043 1.93029 0.334166 0
M  V30 1299 H 120.623 0.341774 -0.664228 0
M  V30 1300 H 123.285 0.204684 -1.93822 0
M  V30 1301 H 122.381 1.51055 -2.7311 0
M  V30 1302 N 122.682 1.50554 0.465978 0
M  V30 1303 C 123.91 1.65563 1.24083 0
M  V30 1304 C 124.325 0.341051 1.85694 0
M  V30 1305 O 123.682 -0.677543 1.69457 0
M  V30 1306 C 123.733 2.75051 2.34583 0
M  V30 1307 O 123.454 4.01413 1.75497 0
M  V30 1308 C 124.955 3.01078 3.25372 0
M  V30 1309 H 122.175 0.55638 0.375077 0
M  V30 1310 H 124.719 1.96807 0.555624 0
M  V30 1311 H 122.874 2.46486 2.9887 0
M  V30 1312 H 123.288 4.62002 2.48303 0
M  V30 1313 H 124.762 3.81339 3.99105 0
M  V30 1314 H 125.239 2.12349 3.84453 0
M  V30 1315 H 125.845 3.31194 2.66816 0
M  V30 1316 N 124.16 -0.719506 1.40217 0
M  V30 1317 C 125.092 -1.84428 1.36084 0
M  V30 1318 C 126.105 -1.60597 0.266913 0
M  V30 1319 O 127.294 -1.70544 0.526983 0
M  V30 1320 C 124.394 -3.20757 1.094 0
M  V30 1321 C 123.567 -3.71817 2.30372 0
M  V30 1322 C 122.626 -4.86748 1.99907 0
M  V30 1323 O 121.652 -4.99603 2.72737 0
M  V30 1324 N 122.854 -5.7226 0.974635 0
M  V30 1325 H 125.619 -1.88473 2.33019 0
M  V30 1326 H 123.18 -0.900885 1.3452 0
M  V30 1327 H 125.172 -3.95235 0.870116 0
M  V30 1328 H 123.742 -3.11884 0.211452 0
M  V30 1329 H 122.962 -2.88514 2.68614 0
M  V30 1330 H 124.25 -4.02666 3.11026 0
M  V30 1331 H 123.648 -5.6448 0.371368 0
M  V30 1332 H 122.205 -6.46739 0.810656 0
M  V30 1333 N 125.638 -1.25649 -0.95132 0
M  V30 1334 C 126.57 -1.02112 -2.05197 0
M  V30 1335 C 127.583 0.0150571 -1.62793 0
M  V30 1336 O 128.772 -0.223874 -1.77091 0
M  V30 1337 C 125.872 -0.522361 -3.3485 0
M  V30 1338 C 125.045 -1.62546 -4.06076 0
M  V30 1339 C 124.104 -1.12649 -5.14001 0
M  V30 1340 O 123.13 -1.82156 -5.39266 0
M  V30 1341 N 124.332 0.03047 -5.80492 0
M  V30 1342 H 127.097 -1.96885 -2.25957 0
M  V30 1343 H 124.658 -1.16899 -1.1201 0
M  V30 1344 H 126.65 -0.172961 -4.0433 0
M  V30 1345 H 125.22 0.33151 -3.10837 0
M  V30 1346 H 124.44 -2.14628 -3.30649 0
M  V30 1347 H 125.728 -2.36644 -4.50419 0
M  V30 1348 H 125.126 0.611169 -5.62389 0
M  V30 1349 H 123.683 0.320875 -6.5101 0
M  V30 1350 N 127.117 1.15442 -1.07289 0
M  V30 1351 C 128.394 1.82306 -0.708792 0
M  V30 1352 C 128.774 1.94991 0.808807 0
M  V30 1353 O 128.122 1.50085 1.72298 0
M  V30 1354 C 128.332 3.18695 -1.42247 0
M  V30 1355 C 129.68 3.94341 -1.57417 0
M  V30 1356 O 130.704 3.28247 -1.38319 0
M  V30 1357 O 129.563 5.12839 -1.88834 0
M  V30 1358 H 126.657 0.787628 -0.252132 0
M  V30 1359 H 129.203 1.22559 -1.17377 0
M  V30 1360 H 127.975 3.04557 -2.45684 0
M  V30 1361 H 127.598 3.86128 -0.948223 0
M  V30 1362 N 128.595 0.856903 1.32268 0
M  V30 1363 C 129.505 0.306131 2.32594 0
M  V30 1364 C 130.521 -0.577209 1.64147 0
M  V30 1365 O 131.697 -0.477043 1.95669 0
M  V30 1366 C 128.762 -0.494561 3.43154 0
M  V30 1367 C 127.823 0.415186 4.27288 0
M  V30 1368 C 127.056 -0.347387 5.32568 0
M  V30 1369 O 127.279 -1.57708 5.48165 0
M  V30 1370 O 126.213 0.287982 6.01211 0
M  V30 1371 H 130.039 1.13737 2.81598 0
M  V30 1372 H 127.624 0.619902 1.35932 0
M  V30 1373 H 129.506 -0.948944 4.10576 0
M  V30 1374 H 128.181 -1.30257 2.96336 0
M  V30 1375 H 127.088 0.917793 3.62667 0
M  V30 1376 H 128.421 1.18844 4.77637 0
M  V30 1377 N 130.073 -1.45103 0.615059 0
M  V30 1378 C 131.35 -1.95549 0.0448276 0
M  V30 1379 C 131.73 -1.55737 -1.4251 0
M  V30 1380 O 131.078 -0.823556 -2.13143 0
M  V30 1381 C 131.288 -3.48098 0.250785 0
M  V30 1382 C 132.636 -4.24384 0.135509 0
M  V30 1383 O 133.66 -3.55738 0.181299 0
M  V30 1384 O 132.519 -5.46493 0.0268878 0
M  V30 1385 H 129.613 -0.8264 -0.0314845 0
M  V30 1386 H 132.159 -1.55232 0.685642 0
M  V30 1387 H 130.931 -3.7007 1.27139 0
M  V30 1388 H 130.554 -3.95323 -0.424937 0
M  V30 1389 N 131.551 -0.354651 -1.53558 0
M  V30 1390 C 132.828 0.294281 -1.93374 0
M  V30 1391 C 133.208 1.67313 -1.28723 0
M  V30 1392 O 132.556 2.24179 -0.442247 0
M  V30 1393 C 132.766 0.355445 -3.47185 0
M  V30 1394 C 134.114 0.601007 -4.20325 0
M  V30 1395 O 135.138 0.437106 -3.53508 0
M  V30 1396 O 133.997 0.919322 -5.38712 0
M  V30 1397 H 131.091 0.174033 -0.808481 0
M  V30 1398 H 133.637 -0.406638 -1.64756 0
M  V30 1399 H 132.409 -0.611729 -3.86489 0
M  V30 1400 H 132.032 1.1027 -3.82003 0
M  V30 1401 N 133.029 1.57378 -0.0835403 0
M  V30 1402 C 133.992 2.12252 0.864959 0
M  V30 1403 C 134.992 1.04916 1.21858 0
M  V30 1404 O 136.182 1.30853 1.14991 0
M  V30 1405 C 133.314 2.63358 2.16461 0
M  V30 1406 H 134.507 2.97371 0.388676 0
M  V30 1407 H 132.06 1.55423 0.165317 0
M  V30 1408 H 132.795 1.81727 2.686 0
M  V30 1409 H 132.58 3.41826 1.92087 0
M  V30 1410 H 134.07 3.05847 2.84337 0
M  V30 1411 N 134.507 -0.190092 1.56449 0
M  V30 1412 C 135.439 -1.25973 1.91477 0
M  V30 1413 C 136.452 -1.41452 0.805931 0
M  V30 1414 O 137.641 -1.41789 1.08435 0
M  V30 1415 C 134.741 -2.63117 2.13594 0
M  V30 1416 C 133.914 -2.69182 3.4476 0
M  V30 1417 C 132.973 -3.87557 3.5593 0
M  V30 1418 O 131.999 -3.74427 4.28711 0
M  V30 1419 N 133.201 -5.03224 2.89388 0
M  V30 1420 H 135.966 -0.962394 2.83828 0
M  V30 1421 H 133.527 -0.379981 1.57378 0
M  V30 1422 H 135.519 -3.40742 2.1835 0
M  V30 1423 H 134.089 -2.85319 1.27719 0
M  V30 1424 H 133.309 -1.77793 3.51828 0
M  V30 1425 H 134.597 -2.70229 4.31107 0
M  V30 1426 H 133.995 -5.16791 2.30094 0
M  V30 1427 H 132.552 -5.78778 2.99764 0
M  V30 1428 N 135.985 -1.50799 -0.457987 0
M  V30 1429 C 136.915 -1.73553 -1.5621 0
M  V30 1430 C 137.896 -0.584774 -1.59732 0
M  V30 1431 O 139.081 -0.825314 -1.7579 0
M  V30 1432 C 136.211 -1.84169 -2.94447 0
M  V30 1433 C 135.165 -2.99461 -3.0579 0
M  V30 1434 C 134.491 -2.95235 -4.45803 0
M  V30 1435 C 135.791 -4.39766 -2.81786 0
M  V30 1436 H 137.485 -2.66 -1.37421 0
M  V30 1437 H 135.031 -1.28002 -0.659662 0
M  V30 1438 H 136.984 -1.98672 -3.71628 0
M  V30 1439 H 135.708 -0.883545 -3.14422 0
M  V30 1440 H 134.367 -2.8463 -2.31044 0
M  V30 1441 H 134.015 -1.97239 -4.62715 0
M  V30 1442 H 133.715 -3.72642 -4.54326 0
M  V30 1443 H 135.239 -3.11803 -5.24987 0
M  V30 1444 H 136.653 -4.55054 -3.4871 0
M  V30 1445 H 135.05 -5.18722 -3.0174 0
M  V30 1446 H 136.12 -4.51229 -1.7754 0
M  V30 1447 N 137.463 0.71206 -1.40597 0
M  V30 1448 C 138.426 1.80785 -1.40888 0
M  V30 1449 C 139.426 1.57937 -0.302103 0
M  V30 1450 O 140.616 1.64913 -0.561182 0
M  V30 1451 C 137.748 3.18927 -1.20409 0
M  V30 1452 H 138.941 1.81924 -2.38419 0
M  V30 1453 H 136.494 0.91805 -1.26497 0
M  V30 1454 H 137.229 3.23436 -0.236522 0
M  V30 1455 H 137.014 3.36911 -2.00582 0
M  V30 1456 H 138.504 3.98949 -1.23408 0
M  V30 1457 N 138.941 1.26152 0.944643 0
M  V30 1458 C 139.871 1.09902 2.06019 0
M  V30 1459 C 140.852 0.00519538 1.70099 0
M  V30 1460 O 142.037 0.176583 1.93396 0
M  V30 1461 C 139.167 0.727562 3.39594 0
M  V30 1462 C 138.121 1.77274 3.89561 0
M  V30 1463 C 137.447 1.25569 5.19747 0
M  V30 1464 C 138.747 3.17357 4.14827 0
M  V30 1465 H 140.441 2.03217 2.19871 0
M  V30 1466 H 137.987 0.978452 1.05652 0
M  V30 1467 H 139.94 0.600777 4.17095 0
M  V30 1468 H 138.664 -0.241287 3.25707 0
M  V30 1469 H 137.323 1.88814 3.14237 0
M  V30 1470 H 136.971 0.276783 5.02238 0
M  V30 1471 H 136.671 1.95433 5.54148 0
M  V30 1472 H 138.195 1.1415 5.99835 0
M  V30 1473 H 139.609 3.08914 4.82954 0
M  V30 1474 H 138.006 3.84781 4.60504 0
M  V30 1475 H 139.076 3.63673 3.20734 0
M  V30 1476 N 140.419 -1.14872 1.07899 0
M  V30 1477 C 141.366 -2.19791 0.704319 0
M  V30 1478 C 142.336 -1.63238 -0.306987 0
M  V30 1479 O 143.521 -1.8983 -0.192171 0
M  V30 1480 C 140.661 -3.44911 0.114244 0
M  V30 1481 C 139.774 -4.15637 1.1777 0
M  V30 1482 C 138.909 -5.28324 0.552037 0
M  V30 1483 C 137.948 -5.90875 1.59789 0
M  V30 1484 N 137.085 -6.95022 0.994404 0
M  V30 1485 H 141.925 -2.5119 1.60336 0
M  V30 1486 H 139.462 -1.23356 0.801352 0
M  V30 1487 H 141.42 -4.16477 -0.245544 0
M  V30 1488 H 140.05 -3.14011 -0.74813 0
M  V30 1489 H 139.102 -3.42512 1.65499 0
M  V30 1490 H 140.414 -4.5823 1.97046 0
M  V30 1491 H 139.568 -6.06538 0.1402 0
M  V30 1492 H 138.307 -4.86939 -0.272431 0
M  V30 1493 H 137.312 -5.11369 2.01945 0
M  V30 1494 H 138.537 -6.34337 2.42474 0
M  V30 1495 H 136.483 -6.55722 0.190939 0
M  V30 1496 H 136.4 -7.36073 1.72432 0
M  V30 1497 H 137.668 -7.77123 0.608253 0
M  V30 1498 N 141.898 -0.863906 -1.31812 0
M  V30 1499 C 143.145 -0.471836 -1.96926 0
M  V30 1500 C 143.473 0.974578 -1.68322 0
M  V30 1501 O 142.728 1.7003 -0.968933 0
M  V30 1502 C 143.027 -0.668547 -3.51091 0
M  V30 1503 C 142.693 -2.08683 -3.99703 0
M  V30 1504 C 141.355 -2.47471 -4.12688 0
M  V30 1505 C 143.707 -3.01207 -4.25351 0
M  V30 1506 C 141.035 -3.78037 -4.4867 0
M  V30 1507 C 143.387 -4.31282 -4.62794 0
M  V30 1508 C 142.051 -4.69992 -4.73987 0
M  V30 1509 H 141.321 -0.172657 -0.720604 0
M  V30 1510 H 143.968 -1.09573 -1.57054 0
M  V30 1511 H 142.273 0.0385252 -3.91781 0
M  V30 1512 H 143.97 -0.345102 -3.99512 0
M  V30 1513 H 140.56 -1.77566 -3.90087 0
M  V30 1514 H 144.744 -2.72469 -4.14819 0
M  V30 1515 H 140 -4.078 -4.55532 0
M  V30 1516 H 144.174 -5.03031 -4.81594 0
M  V30 1517 H 141.801 -5.71207 -5.01624 0
M  V30 1518 N 143.376 1.44774 -0.622745 0
M  V30 1519 C 144.625 2.01334 -0.121397 0
M  V30 1520 C 144.938 1.49505 1.26125 0
M  V30 1521 O 146.144 1.98139 1.85616 0
M  V30 1522 C 144.6 3.59516 -0.166298 0
M  V30 1523 C 144.208 4.20342 -1.54974 0
M  V30 1524 C 145.952 4.23582 0.279021 0
M  V30 1525 C 143.859 5.70721 -1.55021 0
M  V30 1526 H 142.789 0.752851 -0.0416172 0
M  V30 1527 H 145.44 1.66083 -0.780309 0
M  V30 1528 H 143.822 3.92027 0.559557 0
M  V30 1529 H 144.996 3.99381 -2.29851 0
M  V30 1530 H 143.311 3.68529 -1.93843 0
M  V30 1531 H 145.908 5.33868 0.298083 0
M  V30 1532 H 146.251 3.95327 1.30471 0
M  V30 1533 H 146.784 3.95843 -0.394063 0
M  V30 1534 H 143.523 6.03698 -2.55399 0
M  V30 1535 H 143.043 5.93829 -0.844245 0
M  V30 1536 H 144.722 6.34203 -1.28047 0
M  V30 1537 N 144.854 0.36279 1.53368 0
M  V30 1538 C 145.801 -0.485008 2.25646 0
M  V30 1539 C 146.771 -1.07982 1.2621 0
M  V30 1540 O 147.956 -1.11284 1.54986 0
M  V30 1541 C 145.096 -1.62023 3.04701 0
M  V30 1542 C 144.209 -1.05086 4.19024 0
M  V30 1543 C 143.344 -2.15496 4.85525 0
M  V30 1544 C 142.383 -1.5601 5.91884 0
M  V30 1545 N 141.52 -2.60241 6.52088 0
M  V30 1546 H 146.36 0.137864 2.97681 0
M  V30 1547 H 143.897 0.0798061 1.46883 0
M  V30 1548 H 145.855 -2.28887 3.48807 0
M  V30 1549 H 144.485 -2.2138 2.34927 0
M  V30 1550 H 143.537 -0.27259 3.79422 0
M  V30 1551 H 144.849 -0.575926 4.95464 0
M  V30 1552 H 144.003 -2.90186 5.32801 0
M  V30 1553 H 142.742 -2.66341 4.08551 0
M  V30 1554 H 141.747 -0.798338 5.43973 0
M  V30 1555 H 142.972 -1.05994 6.70777 0
M  V30 1556 H 140.918 -3.10304 5.77968 0
M  V30 1557 H 140.835 -2.17426 7.24059 0
M  V30 1558 H 142.103 -3.34641 7.04014 0
M  V30 1559 N 146.332 -1.57332 0.0918853 0
M  V30 1560 C 147.743 -1.81496 -0.437739 0
M  V30 1561 C 148.094 -1.00727 -1.6837 0
M  V30 1562 O 147.219 -0.235694 -2.15113 0
M  V30 1563 C 147.814 -3.29197 -0.800939 0
M  V30 1564 C 146.373 -3.54136 -1.27532 0
M  V30 1565 C 145.52 -2.75979 -0.270392 0
M  V30 1566 H 148.471 -1.55494 0.317366 0
M  V30 1567 H 148.492 -3.42344 -1.66074 0
M  V30 1568 H 148.004 -3.87955 0.106078 0
M  V30 1569 H 146.105 -3.00705 -2.20016 0
M  V30 1570 H 146.218 -4.62792 -1.23938 0
M  V30 1571 H 144.582 -2.43349 -0.751872 0
M  V30 1572 H 145.365 -3.37484 0.629248 0
M  V30 1573 N 147.81 0.181792 -1.56548 0
M  V30 1574 C 149.087 0.926765 -1.72251 0
M  V30 1575 C 149.467 2.00831 -0.650386 0
M  V30 1576 O 148.815 2.26008 0.336521 0
M  V30 1577 C 149.025 1.50106 -3.1507 0
M  V30 1578 C 150.373 1.97805 -3.75711 0
M  V30 1579 O 151.397 1.59922 -3.18282 0
M  V30 1580 O 150.256 2.67555 -4.76525 0
M  V30 1581 H 147.35 0.435506 -0.703039 0
M  V30 1582 H 149.896 0.170443 -1.68842 0
M  V30 1583 H 148.668 0.72212 -3.84579 0
M  V30 1584 H 148.291 2.32186 -3.22763 0
M  V30 1585 N 149.288 1.51039 0.449983 0
M  V30 1586 C 150.235 1.71439 1.54523 0
M  V30 1587 C 151.205 0.555871 1.56522 0
M  V30 1588 O 152.39 0.788871 1.73728 0
M  V30 1589 C 149.53 1.83384 2.92343 0
M  V30 1590 C 148.643 3.10873 2.9997 0
M  V30 1591 C 147.778 3.13488 4.28834 0
M  V30 1592 C 146.817 4.35343 4.30282 0
M  V30 1593 N 145.954 4.35579 5.5065 0
M  V30 1594 H 150.794 2.64934 1.36433 0
M  V30 1595 H 148.331 1.31312 0.662982 0
M  V30 1596 H 150.289 1.88291 3.72293 0
M  V30 1597 H 148.919 0.933086 3.0902 0
M  V30 1598 H 147.971 3.15336 2.12761 0
M  V30 1599 H 149.283 4.00814 2.96901 0
M  V30 1600 H 148.437 3.17241 5.17149 0
M  V30 1601 H 147.176 2.21414 4.34543 0
M  V30 1602 H 146.181 4.3178 3.40362 0
M  V30 1603 H 147.406 5.28668 4.26248 0
M  V30 1604 H 145.352 3.46369 5.57104 0
M  V30 1605 H 145.269 5.19313 5.49409 0
M  V30 1606 H 146.537 4.43507 6.41032 0
M  V30 1607 N 150.766 -0.704594 1.40972 0
M  V30 1608 C 151.991 -1.49858 1.43378 0
M  V30 1609 C 152.416 -1.88061 0.038184 0
M  V30 1610 O 151.774 -1.5402 -0.956425 0
M  V30 1611 C 151.822 -2.74333 2.34038 0
M  V30 1612 O 150.926 -3.7147 1.7912 0
M  V30 1613 H 150.267 -0.45139 0.486974 0
M  V30 1614 H 152.797 -0.866832 1.8533 0
M  V30 1615 H 152.807 -3.22741 2.49604 0
M  V30 1616 H 151.482 -2.45863 3.35446 0
M  V30 1617 H 150.059 -3.30363 1.72958 0
M  V30 1618 N 152.244 -1.26651 -0.937939 0
M  V30 1619 C 153.49 -1.13562 -1.68746 0
M  V30 1620 C 153.845 0.317241 -1.89767 0
M  V30 1621 O 153.138 1.22939 -1.46957 0
M  V30 1622 C 153.332 -1.84168 -3.06295 0
M  V30 1623 C 153.161 -3.36171 -2.98696 0
M  V30 1624 C 151.931 -4.05468 -3.01535 0
M  V30 1625 C 154.129 -4.32312 -2.78588 0
M  V30 1626 N 152.111 -5.44118 -2.84269 0
M  V30 1627 C 153.482 -5.58159 -2.69924 0
M  V30 1628 C 155.537 -4.22524 -2.63396 0
M  V30 1629 C 154.24 -6.75335 -2.47618 0
M  V30 1630 C 156.266 -5.39411 -2.42466 0
M  V30 1631 C 155.628 -6.64208 -2.34536 0
M  V30 1632 H 151.727 -0.470361 -0.624728 0
M  V30 1633 H 154.311 -1.59982 -1.10968 0
M  V30 1634 H 152.482 -1.40219 -3.62206 0
M  V30 1635 H 154.214 -1.63674 -3.70126 0
M  V30 1636 H 150.969 -3.56854 -3.11372 0
M  V30 1637 H 151.393 -6.1693 -2.78795 0
M  V30 1638 H 156.035 -3.26771 -2.68292 0
M  V30 1639 H 153.753 -7.71182 -2.41463 0
M  V30 1640 H 157.339 -5.33711 -2.31611 0
M  V30 1641 H 156.219 -7.53129 -2.18555 0
M  V30 1642 N 153.722 1.14298 -1.08507 0
M  V30 1643 C 154.669 2.19414 -0.715965 0
M  V30 1644 C 155.639 1.63399 0.298326 0
M  V30 1645 O 156.824 1.89929 0.182101 0
M  V30 1646 C 153.964 3.44845 -0.132534 0
M  V30 1647 C 153.077 4.15007 -1.19973 0
M  V30 1648 C 152.212 5.28024 -0.580048 0
M  V30 1649 C 151.251 5.9002 -1.62921 0
M  V30 1650 N 150.388 6.94485 -1.03125 0
M  V30 1651 H 155.228 2.50336 -1.61666 0
M  V30 1652 H 152.765 1.2293 -0.807882 0
M  V30 1653 H 154.723 4.16601 0.223454 0
M  V30 1654 H 153.353 3.14403 0.731467 0
M  V30 1655 H 152.405 3.41629 -1.67313 0
M  V30 1656 H 153.717 4.57178 -1.99473 0
M  V30 1657 H 152.871 6.06455 -0.172364 0
M  V30 1658 H 151.61 4.87076 0.246603 0
M  V30 1659 H 150.615 5.10291 -2.04654 0
M  V30 1660 H 151.84 6.33042 -2.45835 0
M  V30 1661 H 149.786 6.55612 -0.225711 0
M  V30 1662 H 149.703 7.35148 -1.76334 0
M  V30 1663 H 150.971 7.7679 -0.649458 0
M  V30 1664 N 155.201 0.870884 1.31352 0
M  V30 1665 C 156.448 0.482273 1.96673 0
M  V30 1666 C 156.776 -0.965638 1.68836 0
M  V30 1667 O 156.031 -1.69514 0.977937 0
M  V30 1668 C 156.33 0.687157 3.50732 0
M  V30 1669 C 155.996 2.108 3.9859 0
M  V30 1670 C 154.658 2.49656 4.1137 0
M  V30 1671 C 157.01 3.03459 4.23748 0
M  V30 1672 C 154.338 3.80412 4.46659 0
M  V30 1673 C 156.69 4.3373 4.60501 0
M  V30 1674 C 155.354 4.725 4.71487 0
M  V30 1675 H 154.624 0.176476 0.719679 0
M  V30 1676 H 157.271 1.10405 1.56471 0
M  V30 1677 H 155.576 -0.0177476 3.91796 0
M  V30 1678 H 157.273 0.366284 3.99324 0
M  V30 1679 H 153.863 1.79633 3.8914 0
M  V30 1680 H 158.047 2.74665 4.13368 0
M  V30 1681 H 153.303 4.1021 4.53362 0
M  V30 1682 H 157.477 5.05578 4.78919 0
M  V30 1683 H 155.104 5.73859 4.98588 0
M  V30 1684 N 156.679 -1.44442 0.630414 0
M  V30 1685 C 157.956 -1.9549 0.0655657 0
M  V30 1686 C 158.336 -1.5724 -1.40851 0
M  V30 1687 O 157.684 -0.846116 -2.12257 0
M  V30 1688 C 157.894 -3.47812 0.287691 0
M  V30 1689 C 159.242 -4.24216 0.180513 0
M  V30 1690 O 160.266 -3.55526 0.219019 0
M  V30 1691 O 159.125 -5.46434 0.0848493 0
M  V30 1692 H 156.219 -0.826688 -0.0227177 0
M  V30 1693 H 158.765 -1.54496 0.702068 0
M  V30 1694 H 157.537 -3.687 1.31056 0
M  V30 1695 H 157.16 -3.95751 -0.382984 0
M  V30 1696 N 158.157 -0.370918 -1.53173 0
M  V30 1697 C 159.406 0.218249 -2.00516 0
M  V30 1698 C 159.719 1.49429 -1.26215 0
M  V30 1699 O 160.925 2.16239 -1.64174 0
M  V30 1700 C 159.381 0.43948 -3.57207 0
M  V30 1701 C 158.989 -0.822244 -4.4039 0
M  V30 1702 C 160.733 0.986012 -4.1289 0
M  V30 1703 C 158.64 -0.570304 -5.88644 0
M  V30 1704 H 157.57 0.0853333 -0.749156 0
M  V30 1705 H 160.221 -0.490483 -1.76823 0
M  V30 1706 H 158.603 1.20961 -3.77074 0
M  V30 1707 H 159.777 -1.59557 -4.32294 0
M  V30 1708 H 158.092 -1.29238 -3.95836 0
M  V30 1709 H 160.689 1.18991 -5.21292 0
M  V30 1710 H 161.032 1.94972 -3.6782 0
M  V30 1711 H 161.565 0.27592 -3.96842 0
M  V30 1712 H 158.304 -1.50449 -6.38001 0
M  V30 1713 H 157.824 0.164427 -5.99575 0
M  V30 1714 H 159.503 -0.19784 -6.46697 0
M  V30 1715 N 159.635 1.57281 -0.100228 0
M  V30 1716 C 160.582 2.14305 0.856858 0
M  V30 1717 C 161.552 1.06296 1.27634 0
M  V30 1718 O 162.737 1.34109 1.35718 0
M  V30 1719 C 159.877 2.73184 2.10866 0
M  V30 1720 C 158.99 3.95442 1.73925 0
M  V30 1721 C 158.125 4.42468 2.93931 0
M  V30 1722 C 157.164 5.57303 2.5314 0
M  V30 1723 N 156.301 5.99158 3.65997 0
M  V30 1724 H 161.141 2.95772 0.363726 0
M  V30 1725 H 158.678 1.46139 0.167858 0
M  V30 1726 H 160.636 3.05442 2.84185 0
M  V30 1727 H 159.266 1.94437 2.57671 0
M  V30 1728 H 158.318 3.69464 0.905554 0
M  V30 1729 H 159.63 4.78769 1.39935 0
M  V30 1730 H 158.784 4.76537 3.75496 0
M  V30 1731 H 157.523 3.58052 3.31134 0
M  V30 1732 H 156.528 5.22857 1.70003 0
M  V30 1733 H 157.753 6.43471 2.17075 0
M  V30 1734 H 155.699 5.17687 4.02909 0
M  V30 1735 H 155.616 6.77295 3.35869 0
M  V30 1736 H 156.884 6.3786 4.48057 0
M  V30 1737 N 161.113 -0.173488 1.56642 0
M  V30 1738 C 162.338 -0.910149 1.86363 0
M  V30 1739 C 162.763 -1.75132 0.686318 0
M  V30 1740 O 162.121 -1.77595 -0.364643 0
M  V30 1741 C 162.169 -1.76447 3.14482 0
M  V30 1742 O 161.273 -2.86584 2.96553 0
M  V30 1743 H 160.614 -0.255086 0.613047 0
M  V30 1744 H 163.144 -0.172283 2.03873 0
M  V30 1745 H 163.154 -2.16483 3.45831 0
M  V30 1746 H 161.829 -1.14658 3.99783 0
M  V30 1747 H 160.406 -2.50146 2.76553 0
M  V30 1748 N 162.591 -1.51276 -0.441967 0
M  V30 1749 C 163.819 -1.67516 -1.21434 0
M  V30 1750 C 164.234 -0.37055 -1.85128 0
M  V30 1751 O 163.591 0.650498 -1.70513 0
M  V30 1752 C 163.642 -2.78748 -2.30177 0
M  V30 1753 O 163.363 -4.04154 -1.69089 0
M  V30 1754 C 164.864 -3.06217 -3.20541 0
M  V30 1755 H 162.084 -0.562276 -0.366178 0
M  V30 1756 H 164.628 -1.97666 -0.524244 0
M  V30 1757 H 162.783 -2.5121 -2.94911 0
M  V30 1758 H 163.197 -4.65894 -2.40922 0
M  V30 1759 H 164.671 -3.8764 -3.92987 0
M  V30 1760 H 165.148 -2.18439 -3.81026 0
M  V30 1761 H 165.754 -3.35397 -2.61513 0
M  V30 1762 N 164.069 0.697108 -1.41344 0
M  V30 1763 C 165.315 1.4593 -1.40827 0
M  V30 1764 C 165.648 1.94193 -0.0167098 0
M  V30 1765 O 164.923 1.69425 0.955263 0
M  V30 1766 C 165.206 2.67229 -2.41373 0
M  V30 1767 C 165.059 2.24741 -3.8963 0
M  V30 1768 C 166.378 3.69423 -2.39196 0
M  V30 1769 H 163.497 0.529303 -0.512842 0
M  V30 1770 H 166.139 0.794112 -1.72609 0
M  V30 1771 H 164.289 3.23982 -2.14401 0
M  V30 1772 H 165.961 1.73327 -4.27499 0
M  V30 1773 H 164.204 1.56542 -4.0457 0
M  V30 1774 H 164.875 3.1177 -4.55525 0
M  V30 1775 H 167.351 3.2234 -2.63128 0
M  V30 1776 H 166.227 4.51907 -3.11563 0
M  V30 1777 H 166.488 4.19012 -1.41001 0
M  V30 1778 N 165.547 1.27147 0.931209 0
M  V30 1779 C 166.772 1.16191 1.71797 0
M  V30 1780 C 167.197 -0.278004 1.86034 0
M  V30 1781 O 166.555 -1.20137 1.35782 0
M  V30 1782 C 166.603 1.84673 3.09723 0
M  V30 1783 O 165.707 1.14231 3.96264 0
M  V30 1784 H 165.048 0.404303 0.526721 0
M  V30 1785 H 167.578 1.68152 1.1656 0
M  V30 1786 H 167.588 1.91893 3.60057 0
M  V30 1787 H 166.263 2.89421 2.98677 0
M  V30 1788 H 164.84 1.15056 3.54706 0
M  V30 1789 N 167.025 -1.13721 1.09112 0
M  V30 1790 C 167.988 -2.17222 0.731241 0
M  V30 1791 C 168.988 -1.59035 -0.237566 0
M  V30 1792 O 170.178 -1.74192 -0.0161704 0
M  V30 1793 C 167.31 -3.40804 0.0808443 0
M  V30 1794 H 168.503 -2.50573 1.64783 0
M  V30 1795 H 166.056 -1.28493 0.889897 0
M  V30 1796 H 166.791 -3.1304 -0.847127 0
M  V30 1797 H 166.576 -3.84306 0.777896 0
M  V30 1798 H 168.066 -4.1731 -0.155657 0
M  V30 1799 N 168.503 -0.877838 -1.30888 0
M  V30 1800 C 169.75 -0.492696 -1.96415 0
M  V30 1801 C 170.078 0.956671 -1.69346 0
M  V30 1802 O 169.333 1.68993 -0.986913 0
M  V30 1803 C 169.632 -0.705748 -3.50363 0
M  V30 1804 C 169.298 -2.1291 -3.97467 0
M  V30 1805 C 167.96 -2.51834 -4.1004 0
M  V30 1806 C 170.312 -3.05702 -4.22132 0
M  V30 1807 C 167.64 -3.82775 -4.44635 0
M  V30 1808 C 169.992 -4.36166 -4.58194 0
M  V30 1809 C 168.656 -4.74993 -4.68975 0
M  V30 1810 H 167.926 -0.18029 -0.718733 0
M  V30 1811 H 170.573 -1.11233 -1.55883 0
M  V30 1812 H 168.878 -0.00303058 -3.918 0
M  V30 1813 H 170.575 -0.387456 -3.99124 0
M  V30 1814 H 167.165 -1.81694 -3.88182 0
M  V30 1815 H 171.349 -2.76853 -4.11906 0
M  V30 1816 H 166.605 -4.12609 -4.51181 0
M  V30 1817 H 170.779 -5.08111 -4.76231 0
M  V30 1818 H 168.406 -5.76495 -4.95537 0
M  V30 1819 N 169.982 1.44106 -0.638065 0
M  V30 1820 C 171.207 2.0685 -0.150916 0
M  V30 1821 C 171.632 1.47417 1.16833 0
M  V30 1822 O 170.99 0.578264 1.71831 0
M  V30 1823 C 171.038 3.60555 -0.05708 0
M  V30 1824 O 170.142 4.00465 0.984972 0
M  V30 1825 H 169.483 0.658151 -0.0879399 0
M  V30 1826 H 172.013 1.84865 -0.876707 0
M  V30 1827 H 172.023 4.07789 0.131232 0
M  V30 1828 H 170.698 4.03193 -1.02021 0
M  V30 1829 H 169.275 3.64849 0.770672 0
M  V30 1830 N 171.46 0.379036 1.52974 0
M  V30 1831 C 172.737 -0.263479 1.93817 0
M  V30 1832 C 173.117 -1.65244 1.31368 0
M  V30 1833 O 172.465 -2.23448 0.477856 0
M  V30 1834 C 172.675 -0.300166 3.47707 0
M  V30 1835 C 174.023 -0.534061 4.21228 0
M  V30 1836 O 175.047 -0.38081 3.54159 0
M  V30 1837 O 173.906 -0.833501 5.40106 0
M  V30 1838 H 171 -0.161149 0.811147 0
M  V30 1839 H 173.546 0.432798 1.64088 0
M  V30 1840 H 172.318 0.673138 3.85467 0
M  V30 1841 H 171.941 -1.04179 3.83709 0
M  V30 1842 N 172.938 -1.57226 0.108567 0
M  V30 1843 C 173.87 -2.11809 -0.875752 0
M  V30 1844 C 174.883 -1.05839 -1.23701 0
M  V30 1845 O 176.072 -1.33245 -1.18778 0
M  V30 1846 C 173.172 -2.59411 -2.18081 0
M  V30 1847 C 172.345 -3.89364 -1.99284 0
M  V30 1848 C 171.404 -4.22672 -3.13424 0
M  V30 1849 O 170.43 -4.91668 -2.86795 0
M  V30 1850 N 171.632 -3.79154 -4.3957 0
M  V30 1851 H 174.397 -2.9689 -0.409477 0
M  V30 1852 H 171.958 -1.61721 -0.076158 0
M  V30 1853 H 173.95 -2.7873 -2.93414 0
M  V30 1854 H 172.52 -1.79268 -2.5609 0
M  V30 1855 H 171.74 -3.79059 -1.08203 0
M  V30 1856 H 173.028 -4.74358 -1.84017 0
M  V30 1857 H 172.426 -3.23486 -4.64083 0
M  V30 1858 H 170.983 -4.03602 -5.11809 0
M  V30 1859 N 174.416 0.165178 -1.56732 0
M  V30 1860 C 175.646 0.894919 -1.86212 0
M  V30 1861 C 176.054 1.76066 -0.692627 0
M  V30 1862 O 175.397 1.80387 0.347303 0
M  V30 1863 C 175.459 1.8174 -3.10179 0
M  V30 1864 C 175.123 1.13064 -4.42793 0
M  V30 1865 C 176.12 0.493169 -5.17556 0
M  V30 1866 C 173.805 1.12556 -4.89527 0
M  V30 1867 C 175.799 -0.140209 -6.37246 0
M  V30 1868 C 173.486 0.488366 -6.09145 0
M  V30 1869 C 174.484 -0.143411 -6.82849 0
M  V30 1870 O 174.172 -0.77055 -8.00199 0
M  V30 1871 H 173.904 0.265114 -0.621844 0
M  V30 1872 H 176.458 0.168242 -2.0471 0
M  V30 1873 H 174.688 2.58455 -2.87642 0
M  V30 1874 H 176.377 2.4175 -3.26055 0
M  V30 1875 H 177.143 0.489023 -4.82528 0
M  V30 1876 H 173.022 1.60672 -4.32094 0
M  V30 1877 H 176.566 -0.633932 -6.94714 0
M  V30 1878 H 172.463 0.490116 -6.43637 0
M  V30 1879 H 173.231 -0.670408 -8.1575 0
M  V30 1880 N 175.894 1.51508 0.433938 0
M  V30 1881 C 176.826 1.69266 1.54537 0
M  V30 1882 C 177.839 0.573276 1.52373 0
M  V30 1883 O 179.028 0.847698 1.57087 0
M  V30 1884 C 176.128 1.69524 2.93453 0
M  V30 1885 C 175.301 2.98101 3.20085 0
M  V30 1886 C 174.36 2.90502 4.38742 0
M  V30 1887 O 173.386 3.64442 4.3723 0
M  V30 1888 N 174.588 2.06586 5.42496 0
M  V30 1889 H 177.353 2.65145 1.39708 0
M  V30 1890 H 174.914 1.49437 0.622922 0
M  V30 1891 H 176.906 1.62004 3.70859 0
M  V30 1892 H 175.476 0.812245 3.01863 0
M  V30 1893 H 174.696 3.19464 2.30947 0
M  V30 1894 H 175.984 3.83207 3.34708 0
M  V30 1895 H 175.382 1.45896 5.46563 0
M  V30 1896 H 173.939 2.04943 6.18742 0
M  V30 1897 N 177.372 -0.689602 1.41712 0
M  V30 1898 C 178.304 -1.815 1.39966 0
M  V30 1899 C 179.317 -1.59995 0.300917 0
M  V30 1900 O 180.506 -1.69387 0.563039 0
M  V30 1901 C 177.606 -3.18364 1.16179 0
M  V30 1902 C 176.779 -3.66847 2.38206 0
M  V30 1903 C 175.838 -4.82398 2.10186 0
M  V30 1904 O 174.864 -4.93706 2.83272 0
M  V30 1905 N 176.066 -5.70064 1.0958 0
M  V30 1906 H 178.831 -1.83488 2.36965 0
M  V30 1907 H 176.392 -0.872149 1.36401 0
M  V30 1908 H 178.384 -3.93301 0.953756 0
M  V30 1909 H 176.954 -3.11365 0.27756 0
M  V30 1910 H 176.174 -2.82751 2.74673 0
M  V30 1911 H 177.462 -3.95978 3.19498 0
M  V30 1912 H 176.86 -5.63565 0.491019 0
M  V30 1913 H 175.417 -6.44874 0.947656 0
M  V30 1914 N 178.85 -1.27639 -0.924453 0
M  V30 1915 C 179.76 -1.12466 -2.05885 0
M  V30 1916 C 180.776 -0.053869 -1.73917 0
M  V30 1917 O 181.952 -0.261012 -1.99702 0
M  V30 1918 C 179.017 -0.776768 -3.37886 0
M  V30 1919 C 178.078 -1.92878 -3.83532 0
M  V30 1920 C 177.311 -1.59739 -5.09234 0
M  V30 1921 O 177.534 -0.506782 -5.68144 0
M  V30 1922 O 176.468 -2.43761 -5.50331 0
M  V30 1923 H 180.294 -2.07671 -2.21599 0
M  V30 1924 H 177.879 -1.06857 -1.04413 0
M  V30 1925 H 179.761 -0.596229 -4.17161 0
M  V30 1926 H 178.436 0.145732 -3.23372 0
M  V30 1927 H 177.343 -2.1644 -3.0513 0
M  V30 1928 H 178.676 -2.8316 -4.02593 0
M  V30 1929 N 180.328 1.1314 -1.09713 0
M  V30 1930 C 181.556 1.88321 -0.856898 0
M  V30 1931 C 181.971 1.79276 0.592073 0
M  V30 1932 O 181.328 1.16142 1.40774 0
M  V30 1933 C 181.379 3.37812 -1.28706 0
M  V30 1934 O 181.1 3.46627 -2.67921 0
M  V30 1935 C 182.601 4.29952 -1.07964 0
M  V30 1936 H 179.821 0.596094 -0.308079 0
M  V30 1937 H 182.365 1.43205 -1.45988 0
M  V30 1938 H 180.52 3.805 -0.727912 0
M  V30 1939 H 180.934 4.39579 -2.8613 0
M  V30 1940 H 182.408 5.33159 -1.42986 0
M  V30 1941 H 182.885 4.39196 -0.0176577 0
M  V30 1942 H 183.491 3.93036 -1.62489 0
M  V30 1943 N 181.806 0.884767 1.30421 0
M  V30 1944 C 183.054 0.502112 1.95763 0
M  V30 1945 C 183.375 -0.951815 1.70192 0
M  V30 1946 O 182.645 -1.6692 1.0254 0
M  V30 1947 H 181.225 0.182694 0.724315 0
M  V30 1948 H 183.887 1.1278 1.58955 0
M  V30 1949 H 182.983 0.672188 3.04775 0
M  V30 1950 N 183.284 -1.43765 0.645699 0
M  V30 1951 C 184.561 -1.9541 0.0862963 0
M  V30 1952 C 184.941 -1.58725 -1.39175 0
M  V30 1953 O 184.289 -0.868581 -2.11348 0
M  V30 1954 C 184.499 -3.47488 0.324565 0
M  V30 1955 C 185.847 -4.24001 0.225497 0
M  V30 1956 O 186.871 -3.55274 0.256715 0
M  V30 1957 O 185.73 -5.46313 0.142801 0
M  V30 1958 H 182.824 -0.826882 -0.0139483 0
M  V30 1959 H 185.37 -1.53743 0.718415 0
M  V30 1960 H 184.142 -3.67289 1.3496 0
M  V30 1961 H 183.765 -3.96135 -0.340987 0
M  V30 1962 N 184.763 -0.387143 -1.52771 0
M  V30 1963 C 185.695 0.484089 -2.2403 0
M  V30 1964 C 186.708 1.02849 -1.26198 0
M  V30 1965 O 187.897 0.931186 -1.52286 0
M  V30 1966 C 184.997 1.68337 -2.94136 0
M  V30 1967 C 184.17 1.26672 -4.18656 0
M  V30 1968 C 183.229 2.33045 -4.7178 0
M  V30 1969 O 182.255 1.94541 -5.34923 0
M  V30 1970 N 183.457 3.64929 -4.5145 0
M  V30 1971 H 186.222 -0.126404 -2.99433 0
M  V30 1972 H 183.783 -0.213392 -1.60488 0
M  V30 1973 H 185.775 2.39019 -3.26577 0
M  V30 1974 H 184.345 2.20025 -2.22053 0
M  V30 1975 H 183.565 0.388878 -3.92277 0
M  V30 1976 H 184.853 0.964964 -4.99566 0
M  V30 1977 H 184.251 3.98974 -4.01044 0
M  V30 1978 H 182.808 4.31651 -4.88386 0
M  V30 1979 N 186.241 1.57166 -0.116904 0
M  V30 1980 C 187.171 2.18222 0.830759 0
M  V30 1981 C 188.152 1.12167 1.27877 0
M  V30 1982 O 189.337 1.40394 1.34176 0
M  V30 1983 C 186.467 2.77996 2.08172 0
M  V30 1984 C 185.421 3.89614 1.77157 0
M  V30 1985 C 184.747 4.36187 3.09265 0
M  V30 1986 C 186.047 5.1181 1.04151 0
M  V30 1987 H 187.741 2.97664 0.321992 0
M  V30 1988 H 185.287 1.4318 0.153434 0
M  V30 1989 H 187.24 3.19366 2.74924 0
M  V30 1990 H 185.964 1.9584 2.6137 0
M  V30 1991 H 184.623 3.48816 1.12796 0
M  V30 1992 H 184.271 3.50893 3.60393 0
M  V30 1993 H 183.971 5.11455 2.89288 0
M  V30 1994 H 185.495 4.80207 3.77139 0
M  V30 1995 H 186.909 5.50214 1.61052 0
M  V30 1996 H 185.306 5.92648 0.942762 0
M  V30 1997 H 186.376 4.84892 0.0279022 0
M  V30 1998 N 187.719 -0.156864 1.56817 0
M  V30 1999 C 188.947 -0.886316 1.86955 0
M  V30 2000 C 189.362 -1.75185 0.703975 0
M  V30 2001 O 188.719 -1.79555 -0.326552 0
M  V30 2002 C 188.77 -1.75117 3.16253 0
M  V30 2003 O 188.491 -0.920537 4.2832 0
M  V30 2004 C 189.992 -2.58905 3.59837 0
M  V30 2005 H 187.212 -0.25678 0.619923 0
M  V30 2006 H 189.756 -0.152615 2.0393 0
M  V30 2007 H 187.911 -2.43805 3.01062 0
M  V30 2008 H 188.325 -1.51337 5.02192 0
M  V30 2009 H 189.799 -3.1518 4.53172 0
M  V30 2010 H 190.276 -3.34472 2.84649 0
M  V30 2011 H 190.882 -1.95526 3.7769 0
M  V30 2012 N 189.197 -1.51736 -0.425897 0
M  V30 2013 C 190.474 -1.55519 -1.1863 0
M  V30 2014 C 190.854 -0.326219 -2.08564 0
M  V30 2015 O 190.202 0.688012 -2.17896 0
M  V30 2016 C 190.412 -2.87521 -1.9782 0
M  V30 2017 C 191.76 -3.39899 -2.54468 0
M  V30 2018 O 192.784 -2.89148 -2.08019 0
M  V30 2019 O 191.643 -4.2848 -3.39215 0
M  V30 2020 H 188.737 -0.625739 -0.540721 0
M  V30 2021 H 191.283 -1.64055 -0.434038 0
M  V30 2022 H 190.055 -3.68422 -1.31836 0
M  V30 2023 H 189.678 -2.822 -2.80088 0
M  V30 2024 N 190.675 0.682077 -1.42076 0
M  V30 2025 C 191.922 1.44215 -1.42156 0
M  V30 2026 C 192.25 1.94468 -0.0354186 0
M  V30 2027 O 191.505 1.70816 0.955002 0
M  V30 2028 C 191.804 2.66036 -2.38662 0
M  V30 2029 C 191.47 2.34366 -3.85206 0
M  V30 2030 C 190.132 2.25439 -4.25124 0
M  V30 2031 C 192.484 2.08513 -4.77673 0
M  V30 2032 C 189.812 1.88775 -5.55501 0
M  V30 2033 C 192.164 1.73354 -6.08384 0
M  V30 2034 C 190.828 1.62933 -6.47309 0
M  V30 2035 H 190.098 0.527718 -0.520187 0
M  V30 2036 H 192.745 0.778387 -1.74967 0
M  V30 2037 H 191.05 3.3741 -1.99152 0
M  V30 2038 H 192.747 3.24205 -2.35991 0
M  V30 2039 H 189.337 2.42213 -3.53597 0
M  V30 2040 H 193.521 2.14346 -4.47626 0
M  V30 2041 H 188.777 1.7927 -5.84527 0
M  V30 2042 H 192.951 1.52373 -6.79526 0
M  V30 2043 H 190.578 1.34292 -7.48244 0
M  V30 2044 N 192.153 1.28127 0.917671 0
M  V30 2045 C 193.101 1.11569 2.04096 0
M  V30 2046 C 194.095 0.0360242 1.69362 0
M  V30 2047 O 195.301 0.194501 1.78946 0
M  V30 2048 H 191.676 0.344097 0.668656 0
M  V30 2049 H 193.647 2.06711 2.15205 0
M  V30 2050 C 192.396 0.790197 3.38602 0
M  V30 2051 H 191.719 1.61293 3.6582 0
M  V30 2052 H 193.159 0.714271 4.1794 0
M  V30 2053 C 191.618 -0.505897 3.3308 0
M  V30 2054 O 192.148 -1.53736 3.71117 0
M  V30 2055 N 190.354 -0.505193 2.86175 0
M  V30 2056 H 189.901 0.334621 2.55417 0
M  V30 2057 H 189.859 -1.37243 2.82863 0
M  V30 2058 N 193.631 -1.12557 1.10312 0
M  V30 2059 C 194.578 -2.18247 0.750781 0
M  V30 2060 C 195.548 -1.63853 -0.272293 0
M  V30 2061 O 196.733 -1.90195 -0.151862 0
M  V30 2062 C 193.873 -3.44591 0.187379 0
M  V30 2063 C 192.986 -4.13046 1.2656 0
M  V30 2064 C 192.121 -5.27034 0.663978 0
M  V30 2065 C 191.16 -5.87353 1.72287 0
M  V30 2066 N 190.297 -6.92757 1.1416 0
M  V30 2067 H 195.137 -2.47732 1.65628 0
M  V30 2068 H 192.674 -1.21629 0.827337 0
M  V30 2069 H 194.632 -4.16904 -0.157148 0
M  V30 2070 H 193.262 -3.15527 -0.681355 0
M  V30 2071 H 192.314 -3.38924 1.72727 0
M  V30 2072 H 193.626 -4.53947 2.06721 0
M  V30 2073 H 192.78 -6.06104 0.268824 0
M  V30 2074 H 191.519 -4.87407 -0.169082 0
M  V30 2075 H 190.524 -5.06971 2.12746 0
M  V30 2076 H 191.749 -6.29051 2.55875 0
M  V30 2077 H 189.695 -6.5517 0.329984 0
M  V30 2078 H 189.612 -7.3225 1.88007 0
M  V30 2079 H 190.88 -7.75658 0.772956 0
M  V30 2080 N 195.109 -0.891671 -1.2995 0
M  V30 2081 C 196.357 -0.512486 -1.95494 0
M  V30 2082 C 196.678 0.942776 -1.70695 0
M  V30 2083 O 195.948 1.66374 -1.03424 0
M  V30 2084 H 194.528 -0.186533 -0.723336 0
M  V30 2085 H 197.19 -1.13621 -1.58355 0
M  V30 2086 H 196.286 -0.688342 -3.04415 0
M  V30 2087 N 196.587 1.43421 -0.653314 0
M  V30 2088 C 197.535 2.32546 0.0501531 0
M  V30 2089 C 198.529 1.48617 0.812985 0
M  V30 2090 O 199.735 1.64825 0.723375 0
M  V30 2091 H 196.11 0.751185 0.0350032 0
M  V30 2092 H 198.081 2.89602 -0.719261 0
M  V30 2093 C 196.83 3.32925 1.00279 0
M  V30 2094 H 196.153 3.97532 0.425236 0
M  V30 2095 H 197.593 3.9792 1.46409 0
M  V30 2096 C 196.052 2.63532 2.09886 0
M  V30 2097 O 196.582 2.45092 3.18265 0
M  V30 2098 N 194.788 2.22905 1.86445 0
M  V30 2099 H 194.335 2.38103 0.98309 0
M  V30 2100 H 194.293 1.76805 2.59976 0
M  V30 2101 N 198.065 0.39524 1.52563 0
M  V30 2102 C 199.311 -0.185318 2.01952 0
M  V30 2103 C 199.644 -1.45964 1.28095 0
M  V30 2104 O 198.919 -1.90689 0.38315 0
M  V30 2105 C 199.202 -0.447193 3.57312 0
M  V30 2106 C 199.055 0.842828 4.41833 0
M  V30 2107 C 200.374 -1.23529 4.22408 0
M  V30 2108 H 197.493 -0.0658788 0.73405 0
M  V30 2109 H 200.135 0.525975 1.82575 0
M  V30 2110 H 198.285 -1.05312 3.73954 0
M  V30 2111 H 199.957 1.4795 4.36931 0
M  V30 2112 H 198.2 1.45686 4.08605 0
M  V30 2113 H 198.871 0.614165 5.48573 0
M  V30 2114 H 201.347 -0.722445 4.0978 0
M  V30 2115 H 200.223 -1.38727 5.3108 0
M  V30 2116 H 200.484 -2.25213 3.80436 0
M  V30 2117 N 199.544 -1.57102 0.125237 0
M  V30 2118 C 200.491 -2.15641 -0.822655 0
M  V30 2119 C 201.461 -1.08313 -1.25927 0
M  V30 2120 O 202.646 -1.36251 -1.33567 0
M  V30 2121 C 199.786 -2.76504 -2.06494 0
M  V30 2122 C 198.899 -3.98158 -1.67612 0
M  V30 2123 C 198.034 -4.47088 -2.86854 0
M  V30 2124 C 197.073 -5.6126 -2.44242 0
M  V30 2125 N 196.21 -6.04905 -3.56419 0
M  V30 2126 H 201.05 -2.96313 -0.316625 0
M  V30 2127 H 198.587 -1.46388 -0.144588 0
M  V30 2128 H 200.545 -3.09925 -2.79289 0
M  V30 2129 H 199.175 -1.98512 -2.54545 0
M  V30 2130 H 198.227 -3.70858 -0.846661 0
M  V30 2131 H 199.539 -4.80934 -1.32301 0
M  V30 2132 H 198.693 -4.82451 -3.67867 0
M  V30 2133 H 197.432 -3.63275 -3.25396 0
M  V30 2134 H 196.437 -5.25495 -1.61663 0
M  V30 2135 H 197.662 -6.46843 -2.0681 0
M  V30 2136 H 195.608 -5.24032 -3.94623 0
M  V30 2137 H 195.525 -6.82552 -3.25051 0
M  V30 2138 H 196.793 -6.44907 -4.37853 0
M  V30 2139 N 201.022 0.148545 -1.56898 0
M  V30 2140 C 201.985 1.16736 -1.97244 0
M  V30 2141 C 202.985 1.35947 -0.858777 0
M  V30 2142 O 204.175 1.32966 -1.12542 0
M  V30 2143 C 201.307 2.52798 -2.28705 0
M  V30 2144 H 202.5 0.821279 -2.88435 0
M  V30 2145 H 200.053 0.391831 -1.51309 0
M  V30 2146 H 200.788 2.92381 -1.403 0
M  V30 2147 H 200.573 2.40216 -3.09901 0
M  V30 2148 H 202.063 3.26179 -2.60762 0
M  V30 2149 N 202.5 1.5196 0.417844 0
M  V30 2150 C 203.916 1.40569 0.755816 0
M  V30 2151 C 204.116 0.503316 1.95113 0
M  V30 2152 O 203.172 -0.0341925 2.52477 0
M  V30 2153 C 204.485 2.82947 1.01791 0
M  V30 2154 C 206.033 2.92231 1.12116 0
M  V30 2155 C 206.508 4.35559 1.41608 0
M  V30 2156 N 207.999 4.38753 1.48491 0
M  V30 2157 C 208.734 5.46705 1.7292 0
M  V30 2158 N 208.23 6.64788 1.95011 0
M  V30 2159 N 210.023 5.34209 1.74863 0
M  V30 2160 H 202.174 2.09168 -0.369098 0
M  V30 2161 H 204.437 0.942409 -0.102809 0
M  V30 2162 H 204.143 3.5106 0.212081 0
M  V30 2163 H 204.017 3.23462 1.94042 0
M  V30 2164 H 206.404 2.24304 1.9176 0
M  V30 2165 H 206.485 2.55185 0.177225 0
M  V30 2166 H 206.129 5.04042 0.624848 0
M  V30 2167 H 206.059 4.70133 2.37239 0
M  V30 2168 H 208.55 3.5363 1.33244 0
M  V30 2169 H 208.863 7.42845 2.13076 0
M  V30 2170 H 207.208 6.67869 1.92293 0
M  V30 2171 H 210.399 4.40937 1.57137 0
M  V30 2172 H 210.572 6.18415 1.93563 0
M  V30 2173 N 203.978 -0.674533 1.42435 0
M  V30 2174 C 205.206 -1.46283 1.46317 0
M  V30 2175 C 205.621 -1.88653 0.0745836 0
M  V30 2176 O 204.978 -1.58151 -0.91074 0
M  V30 2177 C 205.029 -2.71178 2.3905 0
M  V30 2178 O 204.75 -2.30586 3.72507 0
M  V30 2179 C 206.251 -3.64738 2.51955 0
M  V30 2180 H 203.471 -0.450104 0.497642 0
M  V30 2181 H 206.015 -0.828792 1.86953 0
M  V30 2182 H 204.17 -3.3077 2.01667 0
M  V30 2183 H 204.584 -3.11241 4.22172 0
M  V30 2184 H 206.058 -4.49096 3.20962 0
M  V30 2185 H 206.535 -4.10656 1.55752 0
M  V30 2186 H 207.141 -3.11038 2.90061 0
M  V30 2187 N 205.456 -1.28612 -0.910864 0
M  V30 2188 C 206.872 -1.06381 -1.18976 0
M  V30 2189 C 207.072 0.191998 -2.00583 0
M  V30 2190 O 206.128 0.892869 -2.36187 0
M  V30 2191 C 207.441 -2.31295 -1.92154 0
M  V30 2192 C 208.989 -2.36503 -2.05025 0
M  V30 2193 C 209.464 -3.61191 -2.81612 0
M  V30 2194 N 210.955 -3.61847 -2.89172 0
M  V30 2195 C 211.69 -4.55004 -3.4894 0
M  V30 2196 N 211.186 -5.58482 -4.09963 0
M  V30 2197 N 212.979 -4.42594 -3.46506 0
M  V30 2198 H 205.13 -2.09221 -0.366094 0
M  V30 2199 H 207.393 -0.921003 -0.224629 0
M  V30 2200 H 207.099 -3.228 -1.39618 0
M  V30 2201 H 206.973 -2.37934 -2.9269 0
M  V30 2202 H 209.36 -1.45494 -2.5674 0
M  V30 2203 H 209.441 -2.33857 -1.03657 0
M  V30 2204 H 209.085 -4.52545 -2.30576 0
M  V30 2205 H 209.015 -3.61092 -3.83302 0
M  V30 2206 H 211.506 -2.87022 -2.45819 0
M  V30 2207 H 211.819 -6.25704 -4.53557 0
M  V30 2208 H 210.164 -5.62305 -4.08459 0
M  V30 2209 H 213.355 -3.60953 -2.98045 0
M  V30 2210 H 213.528 -5.15381 -3.92793 0
M  V30 2211 N 206.934 1.1197 -1.10907 0
M  V30 2212 C 207.867 2.16998 -0.706192 0
M  V30 2213 C 208.845 1.59903 0.294897 0
M  V30 2214 O 210.029 1.87513 0.192636 0
M  V30 2215 C 207.156 3.38673 -0.0427664 0
M  V30 2216 C 206.202 4.14414 -1.00811 0
M  V30 2217 S 207.035 4.72079 -2.52789 0
M  V30 2218 C 208.191 5.97083 -1.87731 0
M  V30 2219 H 208.424 2.50837 -1.59587 0
M  V30 2220 H 205.957 1.23508 -0.926555 0
M  V30 2221 H 207.915 4.09142 0.333668 0
M  V30 2222 H 206.576 3.03105 0.823788 0
M  V30 2223 H 205.769 5.016 -0.491259 0
M  V30 2224 H 205.371 3.49678 -1.3267 0
M  V30 2225 H 207.663 6.66599 -1.21044 0
M  V30 2226 H 208.606 6.53403 -2.72892 0
M  V30 2227 H 209.014 5.4837 -1.33979 0
M  V30 2228 N 208.412 0.89855 1.29475 0
M  V30 2229 C 209.661 0.519863 1.94885 0
M  V30 2230 C 209.974 -0.9383 1.71625 0
M  V30 2231 O 211.18 -1.42445 2.31131 0
M  V30 2232 C 209.636 0.878836 3.49005 0
M  V30 2233 C 209.244 2.35569 3.81066 0
M  V30 2234 C 210.988 0.570004 4.20656 0
M  V30 2235 C 208.895 2.65558 5.28425 0
M  V30 2236 H 207.825 0.190692 0.729488 0
M  V30 2237 H 210.476 1.09539 1.47219 0
M  V30 2238 H 208.858 0.232253 3.95318 0
M  V30 2239 H 210.032 3.04773 3.45616 0
M  V30 2240 H 208.347 2.63343 3.22552 0
M  V30 2241 H 210.944 0.770925 5.29113 0
M  V30 2242 H 211.287 -0.491404 4.1339 0
M  V30 2243 H 211.82 1.17438 3.8007 0
M  V30 2244 H 208.559 3.70493 5.40754 0
M  V30 2245 H 208.079 2.00977 5.65127 0
M  V30 2246 H 209.758 2.51765 5.96006 0
M  V30 2247 N 209.89 -1.43072 0.660911 0
M  V30 2248 C 210.853 -2.29194 -0.0166406 0
M  V30 2249 C 211.853 -1.42609 -0.742912 0
M  V30 2250 O 213.043 -1.64155 -0.583004 0
M  V30 2251 C 210.175 -3.24831 -1.0343 0
M  V30 2252 H 211.368 -2.90596 0.741208 0
M  V30 2253 H 208.921 -1.5048 0.422532 0
M  V30 2254 H 209.656 -2.68339 -1.82111 0
M  V30 2255 H 209.441 -3.88676 -0.517082 0
M  V30 2256 H 210.931 -3.89451 -1.50723 0
M  V30 2257 N 211.368 -0.403325 -1.52352 0
M  V30 2258 C 212.3 0.4603 -2.2453 0
M  V30 2259 C 213.313 1.01505 -1.27282 0
M  V30 2260 O 214.502 0.914982 -1.53266 0
M  V30 2261 C 211.602 1.65208 -2.95905 0
M  V30 2262 C 210.775 1.22224 -4.19976 0
M  V30 2263 C 209.834 2.28028 -4.74226 0
M  V30 2264 O 208.86 1.88857 -5.36956 0
M  V30 2265 N 210.062 3.6012 -4.55295 0
M  V30 2266 H 212.827 -0.158156 -2.99282 0
M  V30 2267 H 210.388 -0.230402 -1.60252 0
M  V30 2268 H 212.38 2.35541 -3.29093 0
M  V30 2269 H 210.95 2.17658 -2.24374 0
M  V30 2270 H 210.17 0.34725 -3.92668 0
M  V30 2271 H 211.458 0.911924 -5.00561 0
M  V30 2272 H 210.856 3.94698 -4.05253 0
M  V30 2273 H 209.413 4.26447 -4.92936 0
M  V30 2274 N 212.846 1.57033 -0.133567 0
M  V30 2275 C 214.076 1.99754 0.527429 0
M  V30 2276 C 214.484 1.01245 1.59832 0
M  V30 2277 O 213.827 -0.000645496 1.837 0
M  V30 2278 C 213.889 3.38903 1.19939 0
M  V30 2279 C 213.553 4.56174 0.274709 0
M  V30 2280 C 214.55 5.17563 -0.492398 0
M  V30 2281 C 212.235 5.01972 0.18153 0
M  V30 2282 C 214.229 6.2315 -1.34027 0
M  V30 2283 C 211.916 6.07416 -0.669958 0
M  V30 2284 C 212.914 6.67874 -1.42947 0
M  V30 2285 O 212.602 7.71279 -2.2668 0
M  V30 2286 H 212.334 0.660702 0.142999 0
M  V30 2287 H 214.888 2.04207 -0.221099 0
M  V30 2288 H 213.118 3.31248 1.99528 0
M  V30 2289 H 214.807 3.65818 1.75875 0
M  V30 2290 H 215.573 4.83087 -0.430367 0
M  V30 2291 H 211.452 4.54652 0.762422 0
M  V30 2292 H 214.996 6.70268 -1.93357 0
M  V30 2293 H 210.893 6.41321 -0.73333 0
M  V30 2294 H 211.661 7.88441 -2.1978 0
M  V30 2295 N 214.325 -0.140222 1.56975 0
M  V30 2296 C 215.288 -1.15689 1.97861 0
M  V30 2297 C 216.288 -1.3549 0.865974 0
M  V30 2298 O 217.478 -1.32367 1.13246 0
M  V30 2299 C 214.61 -2.51582 2.30042 0
M  V30 2300 H 215.803 -0.805971 2.88867 0
M  V30 2301 H 213.356 -0.383801 1.51515 0
M  V30 2302 H 214.091 -2.91632 1.41849 0
M  V30 2303 H 213.876 -2.38569 3.11171 0
M  V30 2304 H 215.366 -3.24792 2.62488 0
M  V30 2305 N 215.803 -1.52179 -0.40978 0
M  V30 2306 C 217.052 -1.65434 -1.15388 0
M  V30 2307 C 217.365 -0.390056 -1.91671 0
M  V30 2308 O 218.571 -0.402399 -2.68501 0
M  V30 2309 C 217.027 -2.92279 -2.10003 0
M  V30 2310 C 216.635 -4.25813 -1.39239 0
M  V30 2311 C 218.379 -3.14897 -2.84675 0
M  V30 2312 C 216.286 -5.43782 -2.32498 0
M  V30 2313 H 215.216 -0.616267 -0.434432 0
M  V30 2314 H 217.867 -1.78666 -0.418401 0
M  V30 2315 H 216.249 -2.72744 -2.871 0
M  V30 2316 H 217.423 -4.55828 -0.675099 0
M  V30 2317 H 215.738 -4.09292 -0.766097 0
M  V30 2318 H 218.335 -4.0021 -3.54593 0
M  V30 2319 H 218.678 -2.29103 -3.47588 0
M  V30 2320 H 219.211 -3.34901 -2.14677 0
M  V30 2321 H 215.95 -6.3192 -1.74233 0
M  V30 2322 H 215.47 -5.18106 -3.02201 0
M  V30 2323 H 217.149 -5.76834 -2.93038 0
M  V30 2324 N 217.281 0.66697 -1.42791 0
M  V30 2325 C 218.529 1.42417 -1.43394 0
M  V30 2326 C 218.85 1.94925 -0.0542373 0
M  V30 2327 O 218.12 1.73564 0.908415 0
M  V30 2328 H 216.7 0.528515 -0.527902 0
M  V30 2329 H 219.362 0.787562 -1.78279 0
M  V30 2330 H 218.458 2.27333 -2.13837 0
M  V30 2331 N 218.759 1.29093 0.90403 0
M  V30 2332 C 220.007 1.16583 1.65085 0
M  V30 2333 C 220.328 -0.283933 1.92922 0
M  V30 2334 O 219.598 -1.19509 1.55224 0
M  V30 2335 H 218.178 0.428467 0.611903 0
M  V30 2336 H 220.84 1.61959 1.08422 0
M  V30 2337 H 219.936 1.71266 2.6091 0
M  V30 2338 N 220.237 -1.11381 1.11499 0
M  V30 2339 C 221.169 -2.17207 0.731704 0
M  V30 2340 C 222.182 -1.61066 -0.236957 0
M  V30 2341 O 223.371 -1.78489 -0.0197591 0
M  V30 2342 C 220.471 -3.38846 0.0607624 0
M  V30 2343 C 219.644 -4.24451 1.0564 0
M  V30 2344 C 218.703 -5.24562 0.4149 0
M  V30 2345 O 217.729 -5.59071 1.069 0
M  V30 2346 N 218.931 -5.74651 -0.821943 0
M  V30 2347 H 221.696 -2.50699 1.64225 0
M  V30 2348 H 219.257 -1.26908 1.00529 0
M  V30 2349 H 221.249 -4.02911 -0.380139 0
M  V30 2350 H 219.819 -3.03411 -0.752376 0
M  V30 2351 H 219.039 -3.56833 1.67524 0
M  V30 2352 H 220.327 -4.78486 1.72998 0
M  V30 2353 H 219.725 -5.48797 -1.37252 0
M  V30 2354 H 218.282 -6.40549 -1.20582 0
M  V30 2355 N 221.715 -0.905404 -1.28997 0
M  V30 2356 C 222.625 -0.392246 -2.31298 0
M  V30 2357 C 223.641 0.515889 -1.66176 0
M  V30 2358 O 224.817 0.404093 -1.97304 0
M  V30 2359 C 221.882 0.36686 -3.44754 0
M  V30 2360 C 220.943 -0.573485 -4.25452 0
M  V30 2361 C 220.176 0.149488 -5.33491 0
M  V30 2362 O 220.399 1.37255 -5.5364 0
M  V30 2363 O 219.333 -0.510919 -5.99728 0
M  V30 2364 H 223.159 -1.2411 -2.77183 0
M  V30 2365 H 220.744 -0.669926 -1.33538 0
M  V30 2366 H 222.626 0.795907 -4.13816 0
M  V30 2367 H 221.301 1.19169 -3.00966 0
M  V30 2368 H 220.208 -1.05176 -3.59011 0
M  V30 2369 H 221.541 -1.36489 -4.72897 0
M  V30 2370 N 223.193 1.4272 -0.668489 0
M  V30 2371 C 224.441 2.01226 -0.187769 0
M  V30 2372 C 224.762 1.53092 1.2078 0
M  V30 2373 O 224.032 0.74993 1.80977 0
M  V30 2374 H 222.612 0.744041 -0.0664272 0
M  V30 2375 H 225.274 1.74723 -0.863583 0
M  V30 2376 H 224.37 3.11556 -0.184166 0
M  V30 2377 N 224.671 0.411399 1.52136 0
M  V30 2378 C 225.601 -0.404015 2.29978 0
M  V30 2379 C 226.582 -1.04412 1.34284 0
M  V30 2380 O 227.767 -1.0527 1.63192 0
M  V30 2381 C 224.897 -1.5197 3.12286 0
M  V30 2382 C 223.851 -1.00448 4.16046 0
M  V30 2383 C 223.177 -2.21393 4.86712 0
M  V30 2384 C 224.477 -0.0569336 5.22269 0
M  V30 2385 H 226.171 0.245529 2.98392 0
M  V30 2386 H 223.717 0.119525 1.43503 0
M  V30 2387 H 225.67 -2.09715 3.6551 0
M  V30 2388 H 224.394 -2.19716 2.41646 0
M  V30 2389 H 223.053 -0.449421 3.63835 0
M  V30 2390 H 222.701 -2.87699 4.12599 0
M  V30 2391 H 222.401 -1.87571 5.56858 0
M  V30 2392 H 223.925 -2.7974 5.4275 0
M  V30 2393 H 225.339 -0.54325 5.7072 0
M  V30 2394 H 223.736 0.192594 5.99791 0
M  V30 2395 H 224.806 0.887663 4.76706 0
M  V30 2396 N 226.149 -1.5696 0.141893 0
M  V30 2397 C 227.079 -2.19516 -0.795936 0
M  V30 2398 C 228.06 -1.14187 -1.26077 0
M  V30 2399 O 229.245 -1.42511 -1.31925 0
M  V30 2400 C 226.375 -2.81272 -2.03723 0
M  V30 2401 C 225.329 -3.92384 -1.70936 0
M  V30 2402 C 224.655 -4.41052 -3.02287 0
M  V30 2403 C 225.955 -5.13403 -0.959954 0
M  V30 2404 H 227.649 -2.98138 -0.274596 0
M  V30 2405 H 225.195 -1.43406 -0.130636 0
M  V30 2406 H 227.148 -3.237 -2.69808 0
M  V30 2407 H 225.872 -1.99973 -2.58221 0
M  V30 2408 H 224.531 -3.50566 -1.07232 0
M  V30 2409 H 224.179 -3.56582 -3.54765 0
M  V30 2410 H 223.879 -5.15993 -2.81114 0
M  V30 2411 H 225.403 -4.86146 -3.69451 0
M  V30 2412 H 226.817 -5.52706 -1.52279 0
M  V30 2413 H 225.214 -5.94073 -0.848357 0
M  V30 2414 H 226.284 -4.84875 0.0492434 0
M  V30 2415 N 227.627 0.131896 -1.57047 0
M  V30 2416 C 228.873 0.843179 -1.84441 0
M  V30 2417 C 229.206 1.80129 -0.725749 0
M  V30 2418 O 228.481 1.92624 0.269469 0
M  V30 2419 C 228.764 1.60442 -3.22382 0
M  V30 2420 C 228.617 0.666782 -4.4483 0
M  V30 2421 C 229.936 2.56354 -3.5773 0
M  V30 2422 H 227.055 0.305081 -0.670891 0
M  V30 2423 H 229.697 0.107839 -1.89694 0
M  V30 2424 H 227.847 2.23128 -3.18035 0
M  V30 2425 H 229.519 0.0497646 -4.61273 0
M  V30 2426 H 227.762 -0.022609 -4.33794 0
M  V30 2427 H 228.433 1.23579 -5.37989 0
M  V30 2428 H 230.909 2.0378 -3.62785 0
M  V30 2429 H 229.785 3.06657 -4.5525 0
M  V30 2430 H 230.046 3.38419 -2.84473 0
M  V30 2431 N 229.106 1.52395 0.401703 0
M  V30 2432 C 230.036 1.79231 1.49661 0
M  V30 2433 C 231.017 0.643654 1.57452 0
M  V30 2434 O 232.202 0.889989 1.72606 0
M  V30 2435 C 229.332 1.94971 2.87409 0
M  V30 2436 C 228.286 3.10604 2.94465 0
M  V30 2437 C 227.612 3.11577 4.34538 0
M  V30 2438 C 228.912 4.49921 2.6527 0
M  V30 2439 H 230.606 2.70917 1.27454 0
M  V30 2440 H 228.152 1.30362 0.6117 0
M  V30 2441 H 230.105 2.12328 3.63999 0
M  V30 2442 H 228.829 0.999632 3.10926 0
M  V30 2443 H 227.488 2.93009 2.20321 0
M  V30 2444 H 227.136 2.14277 4.55076 0
M  V30 2445 H 226.836 3.89247 4.40183 0
M  V30 2446 H 228.36 3.31073 5.13053 0
M  V30 2447 H 229.774 4.67683 3.31581 0
M  V30 2448 H 228.171 5.29564 2.82281 0
M  V30 2449 H 229.241 4.57507 1.60671 0
M  V30 2450 N 230.584 -0.659388 1.43143 0
M  V30 2451 C 231.832 -1.41654 1.44147 0
M  V30 2452 C 232.153 -1.94893 0.0645739 0
M  V30 2453 O 231.423 -1.74044 -0.899198 0
M  V30 2454 H 230.003 -0.525708 0.530697 0
M  V30 2455 H 232.665 -0.778097 1.78694 0
M  V30 2456 H 231.761 -2.26195 2.1504 0
M  V30 2457 N 232.062 -1.29571 -0.897171 0
M  V30 2458 C 233.29 -1.20583 -1.68129 0
M  V30 2459 C 233.705 0.233181 -1.87354 0
M  V30 2460 O 233.062 1.15579 -1.41236 0
M  V30 2461 C 233.113 -1.91772 -3.06441 0
M  V30 2462 O 232.834 -3.30053 -2.88091 0
M  V30 2463 C 234.335 -1.89291 -4.00854 0
M  V30 2464 H 231.555 -0.417826 -0.525036 0
M  V30 2465 H 234.099 -1.70987 -1.12177 0
M  V30 2466 H 232.254 -1.45196 -3.59161 0
M  V30 2467 H 232.668 -3.65942 -3.75748 0
M  V30 2468 H 234.142 -2.43662 -4.95311 0
M  V30 2469 H 234.619 -0.869014 -4.30517 0
M  V30 2470 H 235.225 -2.35622 -3.54066 0
M  V30 2471 N 233.54 1.10788 -1.12088 0
M  V30 2472 C 234.817 1.79136 -0.785476 0
M  V30 2473 C 235.197 1.98246 0.725377 0
M  V30 2474 O 234.545 1.57258 1.65778 0
M  V30 2475 C 234.755 3.12375 -1.55636 0
M  V30 2476 C 236.103 3.8731 -1.74001 0
M  V30 2477 O 237.127 3.22085 -1.52117 0
M  V30 2478 O 235.986 5.04369 -2.10415 0
M  V30 2479 H 233.08 0.776226 -0.285311 0
M  V30 2480 H 235.626 1.1747 -1.2247 0
M  V30 2481 H 234.398 2.93863 -2.5838 0
M  V30 2482 H 234.021 3.81758 -1.11114 0
M  V30 2483 N 235.018 0.912232 1.28515 0
M  V30 2484 C 235.968 0.370649 2.24967 0
M  V30 2485 C 236.952 -0.516375 1.52389 0
M  V30 2486 O 238.144 -0.356345 1.73376 0
M  V30 2487 C 235.273 -0.389526 3.41083 0
M  V30 2488 C 234.359 0.51313 4.20984 0
M  V30 2489 N 234.75 1.62604 4.78951 0
M  V30 2490 C 233.048 0.313235 4.44899 0
M  V30 2491 C 233.749 2.18619 5.39055 0
M  V30 2492 N 232.725 1.47765 5.23132 0
M  V30 2493 H 236.527 1.22061 2.67354 0
M  V30 2494 H 234.041 0.764712 1.43269 0
M  V30 2495 H 236.038 -0.794353 4.09262 0
M  V30 2496 H 234.698 -1.2366 3.0023 0
M  V30 2497 H 235.709 2.00864 4.77362 0
M  V30 2498 H 232.386 -0.494452 4.14562 0
M  V30 2499 H 233.776 3.12228 5.94948 0
M  V30 2500 N 236.496 -1.42363 0.676048 0
M  V30 2501 C 237.459 -2.29199 0.00766941 0
M  V30 2502 C 238.459 -1.43389 -0.727745 0
M  V30 2503 O 239.649 -1.64764 -0.56556 0
M  V30 2504 C 236.781 -3.2591 -0.999785 0
M  V30 2505 H 237.974 -2.89794 0.771988 0
M  V30 2506 H 235.527 -1.50024 0.438468 0
M  V30 2507 H 236.262 -2.70256 -1.79255 0
M  V30 2508 H 236.047 -3.89202 -0.475829 0
M  V30 2509 H 237.537 -3.91028 -1.46583 0
M  V30 2510 N 237.974 -0.419461 -1.51915 0
M  V30 2511 C 238.937 0.389116 -2.25873 0
M  V30 2512 C 239.937 0.964924 -1.28631 0
M  V30 2513 O 241.127 0.842179 -1.52489 0
M  V30 2514 C 238.259 1.54874 -3.03689 0
M  V30 2515 H 239.452 -0.258799 -2.98781 0
M  V30 2516 H 237.005 -0.172209 -1.55348 0
M  V30 2517 H 237.74 2.23323 -2.35154 0
M  V30 2518 H 237.525 1.14223 -3.75094 0
M  V30 2519 H 239.015 2.12046 -3.59759 0
M  V30 2520 N 239.452 1.56882 -0.150215 0
M  V30 2521 C 240.362 2.20494 0.801222 0
M  V30 2522 C 241.378 1.19019 1.26927 0
M  V30 2523 O 242.554 1.51607 1.32579 0
M  V30 2524 C 239.619 2.81659 2.02161 0
M  V30 2525 C 238.68 3.9827 1.60249 0
M  V30 2526 C 237.913 4.56508 2.7647 0
M  V30 2527 O 238.136 4.13627 3.92771 0
M  V30 2528 O 237.07 5.46719 2.51757 0
M  V30 2529 H 240.896 3.02315 0.289717 0
M  V30 2530 H 238.481 1.49202 0.0769684 0
M  V30 2531 H 240.363 3.20522 2.73576 0
M  V30 2532 H 239.038 2.02849 2.52258 0
M  V30 2533 H 237.945 3.64117 0.858477 0
M  V30 2534 H 239.278 4.78609 1.14864 0
M  V30 2535 N 240.93 -0.123565 1.57115 0
M  V30 2536 C 241.893 -1.13583 1.99076 0
M  V30 2537 C 242.893 -1.34564 0.880296 0
M  V30 2538 O 244.083 -1.31158 1.14644 0
M  V30 2539 C 241.215 -2.49128 2.32698 0
M  V30 2540 H 242.408 -0.775287 2.89706 0
M  V30 2541 H 239.961 -0.36771 1.51913 0
M  V30 2542 H 240.696 -2.90111 1.44934 0
M  V30 2543 H 240.481 -2.35255 3.13684 0
M  V30 2544 H 241.971 -3.2199 2.65918 0
M  V30 2545 N 242.408 -1.52605 -0.393616 0
M  V30 2546 C 243.654 -1.67672 -1.14079 0
M  V30 2547 C 243.987 -0.413121 -1.89755 0
M  V30 2548 O 243.262 0.588952 -1.85369 0
M  V30 2549 C 243.545 -2.9088 -2.12276 0
M  V30 2550 C 243.398 -4.27329 -1.40394 0
M  V30 2551 C 244.717 -3.09628 -3.12759 0
M  V30 2552 H 241.836 -0.610168 -0.413356 0
M  V30 2553 H 244.478 -1.85193 -0.424696 0
M  V30 2554 H 242.628 -2.76073 -2.73342 0
M  V30 2555 H 244.3 -4.53894 -0.82327 0
M  V30 2556 H 242.543 -4.2802 -0.705801 0
M  V30 2557 H 243.214 -5.09615 -2.12123 0
M  V30 2558 H 245.69 -3.23436 -2.61779 0
M  V30 2559 H 244.566 -3.97322 -3.78717 0
M  V30 2560 H 244.827 -2.23637 -3.81365 0
M  V30 2561 N 243.887 0.651787 -1.4349 0
M  V30 2562 C 245.115 1.43937 -1.48626 0
M  V30 2563 C 245.53 1.8851 -0.104587 0
M  V30 2564 O 244.887 1.5958 0.885464 0
M  V30 2565 C 244.938 2.6734 -2.43334 0
M  V30 2566 O 244.659 2.24631 -3.76128 0
M  V30 2567 C 246.16 3.60683 -2.57726 0
M  V30 2568 H 243.38 0.44213 -0.504739 0
M  V30 2569 H 245.924 0.798944 -1.88248 0
M  V30 2570 H 244.079 3.2752 -2.06904 0
M  V30 2571 H 244.493 3.04485 -4.2707 0
M  V30 2572 H 245.967 4.43933 -3.28067 0
M  V30 2573 H 246.444 4.08126 -1.62265 0
M  V30 2574 H 247.05 3.06384 -2.94973 0
M  V30 2575 N 245.365 1.30045 0.890287 0
M  V30 2576 C 246.613 1.18327 1.63839 0
M  V30 2577 C 246.934 -0.263455 1.93212 0
M  V30 2578 O 246.204 -1.17856 1.56482 0
M  V30 2579 H 244.784 0.434933 0.607324 0
M  V30 2580 H 247.446 1.631 1.06698 0
M  V30 2581 H 246.542 1.74024 2.59079 0
M  V30 2582 N 246.843 -1.10192 1.12674 0
M  V30 2583 C 248.09 -1.82205 0.883606 0
M  V30 2584 C 248.418 -1.8532 -0.590492 0
M  V30 2585 O 247.673 -1.31137 -1.45264 0
M  V30 2586 C 247.972 -3.28552 1.4067 0
M  V30 2587 C 247.638 -3.45582 2.89627 0
M  V30 2588 C 246.3 -3.49937 3.30299 0
M  V30 2589 C 248.652 -3.50768 3.85501 0
M  V30 2590 C 245.98 -3.57049 4.65546 0
M  V30 2591 C 248.332 -3.59414 5.20581 0
M  V30 2592 C 246.996 -3.62034 5.60792 0
M  V30 2593 H 246.266 -0.666735 0.323334 0
M  V30 2594 H 248.913 -1.29868 1.40736 0
M  V30 2595 H 247.218 -3.83473 0.80347 0
M  V30 2596 H 248.915 -3.82788 1.19475 0
M  V30 2597 H 245.505 -3.42871 2.57172 0
M  V30 2598 H 249.689 -3.46651 3.55171 0
M  V30 2599 H 244.945 -3.57361 4.96088 0
M  V30 2600 H 249.119 -3.62371 5.94693 0
M  V30 2601 H 246.746 -3.67298 6.6558 0
M  V30 2602 N 248.321 -0.919034 -1.28029 0
M  V30 2603 C 249.568 -0.554934 -1.94748 0
M  V30 2604 C 249.896 0.90231 -1.72304 0
M  V30 2605 O 249.151 1.65767 -1.04018 0
M  V30 2606 C 249.45 -0.816855 -3.4794 0
M  V30 2607 C 249.116 -2.25448 -3.90492 0
M  V30 2608 C 247.778 -2.64752 -4.01821 0
M  V30 2609 C 250.13 -3.18977 -4.12193 0
M  V30 2610 C 247.458 -3.96727 -4.32232 0
M  V30 2611 C 249.81 -4.50523 -4.44086 0
M  V30 2612 C 248.474 -4.89673 -4.53626 0
M  V30 2613 H 247.744 -0.203065 -0.712633 0
M  V30 2614 H 250.391 -1.16136 -1.52265 0
M  V30 2615 H 248.696 -0.127677 -3.91592 0
M  V30 2616 H 250.393 -0.514238 -3.97689 0
M  V30 2617 H 246.983 -1.93952 -3.82205 0
M  V30 2618 H 251.167 -2.89817 -4.02889 0
M  V30 2619 H 246.423 -4.26754 -4.37825 0
M  V30 2620 H 250.597 -5.23005 -4.59825 0
M  V30 2621 H 248.224 -5.91969 -4.76946 0
M  V30 2622 N 249.799 1.42003 -0.683588 0
M  V30 2623 C 251.027 2.05746 -0.218182 0
M  V30 2624 C 251.442 1.51396 1.12804 0
M  V30 2625 O 250.799 0.657303 1.70252 0
M  V30 2626 C 250.85 3.61171 -0.154131 0
M  V30 2627 O 250.571 4.13508 -1.44716 0
M  V30 2628 C 252.072 4.42042 0.333713 0
M  V30 2629 H 249.292 0.662888 -0.10402 0
M  V30 2630 H 251.836 1.81987 -0.9328 0
M  V30 2631 H 249.991 3.84012 0.511231 0
M  V30 2632 H 250.405 5.07453 -1.32632 0
M  V30 2633 H 251.879 5.51028 0.327423 0
M  V30 2634 H 252.356 4.17269 1.37053 0
M  V30 2635 H 252.962 4.24239 -0.300222 0
M  V30 2636 N 251.277 0.427512 1.51691 0
M  V30 2637 C 252.224 -0.388867 2.275 0
M  V30 2638 C 253.194 -1.02532 1.30677 0
M  V30 2639 O 254.379 -1.0461 1.59566 0
M  V30 2640 C 251.519 -1.48954 3.11298 0
M  V30 2641 C 250.632 -0.872194 4.23104 0
M  V30 2642 C 249.767 -1.94709 4.94228 0
M  V30 2643 C 248.806 -1.30766 5.97969 0
M  V30 2644 N 247.943 -2.32349 6.62539 0
M  V30 2645 H 252.783 0.263997 2.96828 0
M  V30 2646 H 250.32 0.142033 1.46413 0
M  V30 2647 H 252.278 -2.13887 3.58201 0
M  V30 2648 H 250.908 -2.11217 2.44105 0
M  V30 2649 H 249.96 -0.111419 3.80237 0
M  V30 2650 H 251.272 -0.365264 4.97461 0
M  V30 2651 H 250.426 -2.67327 5.44629 0
M  V30 2652 H 249.165 -2.48773 4.1948 0
M  V30 2653 H 248.17 -0.566902 5.4687 0
M  V30 2654 H 249.395 -0.774483 6.74669 0
M  V30 2655 H 247.341 -2.85511 5.90609 0
M  V30 2656 H 247.258 -1.8652 7.3263 0
M  V30 2657 H 248.526 -3.04481 7.17574 0
M  V30 2658 N 252.755 -1.56801 0.158532 0
M  V30 2659 C 253.985 -2.00568 -0.495583 0
M  V30 2660 C 254.393 -1.03774 -1.58201 0
M  V30 2661 O 253.736 -0.0285797 -1.83678 0
M  V30 2662 C 253.798 -3.40768 -1.14532 0
M  V30 2663 C 253.462 -4.56553 -0.202101 0
M  V30 2664 C 254.459 -5.16714 0.574675 0
M  V30 2665 C 252.144 -5.02197 -0.101648 0
M  V30 2666 C 254.138 -6.20939 1.43924 0
M  V30 2667 C 251.825 -6.06274 0.766508 0
M  V30 2668 C 252.823 -6.65515 1.53555 0
M  V30 2669 O 252.511 -7.67575 2.38922 0
M  V30 2670 H 252.243 -0.662893 -0.13247 0
M  V30 2671 H 254.797 -2.03829 0.253559 0
M  V30 2672 H 253.027 -3.34381 -1.94233 0
M  V30 2673 H 254.716 -3.6857 -1.70033 0
M  V30 2674 H 255.482 -4.82341 0.507167 0
M  V30 2675 H 251.361 -4.55807 -0.689994 0
M  V30 2676 H 254.905 -6.67107 2.03996 0
M  V30 2677 H 250.802 -6.40073 0.835266 0
M  V30 2678 H 251.57 -7.84844 2.32296 0
M  V30 2679 N 254.233 0.115231 -1.57178 0
M  V30 2680 C 255.481 0.820727 -1.84685 0
M  V30 2681 C 255.802 1.80237 -0.744279 0
M  V30 2682 O 255.072 1.94529 0.231375 0
M  V30 2683 H 253.652 0.306084 -0.681411 0
M  V30 2684 H 256.314 0.101656 -1.94635 0
M  V30 2685 H 255.41 1.36366 -2.80733 0
M  V30 2686 N 255.711 1.52812 0.385517 0
M  V30 2687 C 256.988 1.5861 1.14465 0
M  V30 2688 C 257.368 0.381402 2.07626 0
M  V30 2689 O 256.716 -0.629999 2.19643 0
M  V30 2690 C 256.926 2.92664 1.90128 0
M  V30 2691 C 258.274 3.46526 2.45367 0
M  V30 2692 O 259.298 2.94562 2.0028 0
M  V30 2693 O 258.157 4.37323 3.27736 0
M  V30 2694 H 255.251 0.639855 0.523941 0
M  V30 2695 H 257.797 1.65149 0.390389 0
M  V30 2696 H 256.569 3.71788 1.22022 0
M  V30 2697 H 256.192 2.89527 2.72507 0
M  V30 2698 N 257.189 -0.644168 1.43834 0
M  V30 2699 C 258.437 -1.40117 1.45642 0
M  V30 2700 C 258.758 -1.94814 0.0852413 0
M  V30 2701 O 258.028 -1.74988 -0.880688 0
M  V30 2702 H 256.608 -0.52005 0.536243 0
M  V30 2703 H 259.27 -0.7591 1.7951 0
M  V30 2704 H 258.366 -2.23902 2.17427 0
M  V30 2705 N 258.668 -1.30515 -0.883378 0
M  V30 2706 C 259.916 -1.19194 -1.63209 0
M  V30 2707 C 260.237 0.253205 -1.93349 0
M  V30 2708 O 259.507 1.17025 -1.57105 0
M  V30 2709 H 258.087 -0.438148 -0.605009 0
M  V30 2710 H 260.749 -1.63663 -1.05832 0
M  V30 2711 H 259.845 -1.75396 -2.58153 0
M  V30 2712 N 260.146 1.09593 -1.13257 0
M  V30 2713 C 261.109 2.14359 -0.811358 0
M  V30 2714 C 262.109 1.59808 0.178377 0
M  V30 2715 O 263.299 1.74132 -0.0484911 0
M  V30 2716 C 260.431 3.40269 -0.207276 0
M  V30 2717 H 261.624 2.44284 -1.73969 0
M  V30 2718 H 259.177 1.25102 -0.936973 0
M  V30 2719 H 259.912 3.15969 0.73036 0
M  V30 2720 H 259.697 3.81154 -0.919992 0
M  V30 2721 H 261.187 4.176 0.000667944 0
M  V30 2722 N 261.624 0.925811 1.2754 0
M  V30 2723 C 262.901 0.483726 1.89524 0
M  V30 2724 C 263.281 -1.03809 1.83812 0
M  V30 2725 O 262.629 -1.89143 1.28207 0
M  V30 2726 C 262.839 1.02769 3.33526 0
M  V30 2727 C 264.187 1.08703 4.10449 0
M  V30 2728 O 265.211 0.977175 3.42534 0
M  V30 2729 O 264.07 1.25599 5.31871 0
M  V30 2730 H 261.164 0.15529 0.812289 0
M  V30 2731 H 263.71 1.01738 1.35822 0
M  V30 2732 H 262.482 2.07155 3.31967 0
M  V30 2733 H 262.105 0.475567 3.94746 0
M  V30 2734 N 263.102 -1.41638 0.69111 0
M  V30 2735 C 264.032 -2.3347 0.037248 0
M  V30 2736 C 265.013 -1.51575 -0.771947 0
M  V30 2737 O 266.198 -1.80126 -0.72582 0
M  V30 2738 C 263.328 -3.35354 -0.903064 0
M  V30 2739 C 262.282 -4.27526 -0.201288 0
M  V30 2740 C 261.608 -5.19747 -1.25565 0
M  V30 2741 C 262.908 -5.13959 0.929689 0
M  V30 2742 H 264.602 -2.88397 0.804227 0
M  V30 2743 H 262.148 -1.38669 0.388189 0
M  V30 2744 H 264.101 -3.98519 -1.36969 0
M  V30 2745 H 262.825 -2.78767 -1.70166 0
M  V30 2746 H 261.484 -3.65779 0.245265 0
M  V30 2747 H 261.132 -4.59479 -2.04666 0
M  V30 2748 H 260.832 -5.8225 -0.791128 0
M  V30 2749 H 262.356 -5.85789 -1.72288 0
M  V30 2750 H 263.77 -5.70718 0.543546 0
M  V30 2751 H 262.167 -5.85379 1.32103 0
M  V30 2752 H 263.237 -4.51389 1.77133 0
M  V30 2753 N 264.58 -0.43555 -1.51462 0
M  V30 2754 C 265.51 0.367376 -2.30592 0
M  V30 2755 C 266.491 1.02263 -1.35928 0
M  V30 2756 O 267.676 1.02661 -1.64847 0
M  V30 2757 C 264.806 1.46983 -3.14664 0
M  V30 2758 C 263.76 0.938161 -4.17591 0
M  V30 2759 C 263.086 2.13622 -4.90173 0
M  V30 2760 C 264.386 -0.0261621 -5.22293 0
M  V30 2761 H 266.08 -0.292969 -2.97963 0
M  V30 2762 H 263.626 -0.14234 -1.43295 0
M  V30 2763 H 265.579 2.03873 -3.688 0
M  V30 2764 H 264.303 2.15843 -2.4511 0
M  V30 2765 H 262.962 0.391481 -3.64504 0
M  V30 2766 H 262.61 2.81098 -4.17124 0
M  V30 2767 H 262.31 1.78688 -5.59772 0
M  V30 2768 H 263.834 2.7107 -5.47132 0
M  V30 2769 H 265.248 0.452384 -5.71512 0
M  V30 2770 H 263.645 -0.287992 -5.99409 0
M  V30 2771 H 264.715 -0.963391 -4.75233 0
M  V30 2772 N 266.058 1.56714 -0.166846 0
M  V30 2773 C 267.469 1.83378 0.350646 0
M  V30 2774 C 267.82 1.08646 1.63372 0
M  V30 2775 O 266.945 0.338058 2.13743 0
M  V30 2776 C 267.54 3.32643 0.642963 0
M  V30 2777 C 266.099 3.59818 1.10491 0
M  V30 2778 C 265.246 2.76954 0.138411 0
M  V30 2779 H 268.197 1.53803 -0.391193 0
M  V30 2780 H 268.218 3.49878 1.49551 0
M  V30 2781 H 267.73 3.87007 -0.291055 0
M  V30 2782 H 265.831 3.1086 2.05418 0
M  V30 2783 H 265.944 4.68178 1.01716 0
M  V30 2784 H 264.308 2.4666 0.634911 0
M  V30 2785 H 265.091 3.34097 -0.789549 0
M  V30 2786 N 267.536 -0.106894 1.57237 0
M  V30 2787 C 268.466 -1.13148 2.04254 0
M  V30 2788 C 269.447 -1.42476 0.929224 0
M  V30 2789 O 270.632 -1.52709 1.19973 0
M  V30 2790 C 267.762 -2.4545 2.45706 0
M  V30 2791 C 266.716 -2.30558 3.60592 0
M  V30 2792 C 266.042 -3.67931 3.87983 0
M  V30 2793 C 267.342 -1.75597 4.91897 0
M  V30 2794 H 269.036 -0.740374 2.90101 0
M  V30 2795 H 266.582 -0.354696 1.39563 0
M  V30 2796 H 268.535 -3.17389 2.77205 0
M  V30 2797 H 267.259 -2.86475 1.56843 0
M  V30 2798 H 265.918 -1.61067 3.29322 0
M  V30 2799 H 265.566 -4.06462 2.96306 0
M  V30 2800 H 265.266 -3.58817 4.65322 0
M  V30 2801 H 266.79 -4.41356 4.21945 0
M  V30 2802 H 268.204 -2.37364 5.21854 0
M  V30 2803 H 266.601 -1.77272 5.73319 0
M  V30 2804 H 267.671 -0.714451 4.79608 0
M  V30 2805 N 269.014 -1.53014 -0.377408 0
M  V30 2806 C 270.242 -1.72515 -1.14219 0
M  V30 2807 C 270.657 -0.448735 -1.8339 0
M  V30 2808 O 270.014 0.577592 -1.73119 0
M  V30 2809 C 270.065 -2.8826 -2.18148 0
M  V30 2810 O 269.786 -4.10962 -1.51795 0
M  V30 2811 C 271.287 -3.19536 -3.07264 0
M  V30 2812 H 268.507 -0.577301 -0.342001 0
M  V30 2813 H 271.051 -1.99712 -0.439935 0
M  V30 2814 H 269.206 -2.63492 -2.83991 0
M  V30 2815 H 269.62 -4.75693 -2.20945 0
M  V30 2816 H 271.094 -4.03959 -3.76193 0
M  V30 2817 H 271.571 -2.34403 -3.71419 0
M  V30 2818 H 272.177 -3.46186 -2.47053 0
M  V30 2819 N 270.492 0.636531 -1.44174 0
M  V30 2820 C 271.74 1.39343 -1.46383 0
M  V30 2821 C 272.061 1.94766 -0.0955715 0
M  V30 2822 O 271.331 1.75452 0.871395 0
M  V30 2823 H 269.911 0.517199 -0.538994 0
M  V30 2824 H 272.573 0.74957 -1.7991 0
M  V30 2825 H 271.669 2.22746 -2.18611 0
M  V30 2826 N 271.97 1.30982 0.876444 0
M  V30 2827 C 272.9 1.20668 1.99903 0
M  V30 2828 C 273.881 0.095354 1.69833 0
M  V30 2829 O 275.066 0.27885 1.92188 0
M  V30 2830 C 272.196 0.90655 3.3526 0
M  V30 2831 C 271.15 1.97675 3.79617 0
M  V30 2832 C 270.476 1.52943 5.1236 0
M  V30 2833 C 271.776 3.389 3.97422 0
M  V30 2834 H 273.47 2.14586 2.0879 0
M  V30 2835 H 271.016 1.03308 1.00317 0
M  V30 2836 H 272.969 0.821025 4.13324 0
M  V30 2837 H 271.693 -0.0682969 3.26529 0
M  V30 2838 H 270.352 2.05205 3.03787 0
M  V30 2839 H 270 0.54262 5.00065 0
M  V30 2840 H 269.7 2.24532 5.43009 0
M  V30 2841 H 271.224 1.45786 5.92941 0
M  V30 2842 H 272.638 3.34081 4.659 0
M  V30 2843 H 271.035 4.0865 4.3946 0
M  V30 2844 H 272.105 3.80163 3.01006 0
M  V30 2845 N 273.449 -1.08991 1.13837 0
M  V30 2846 C 274.677 -1.85011 0.926202 0
M  V30 2847 C 275.092 -1.8135 -0.525127 0
M  V30 2848 O 274.449 -1.21287 -1.36366 0
M  V30 2849 C 274.5 -3.32802 1.41155 0
M  V30 2850 O 274.221 -3.36444 2.80601 0
M  V30 2851 C 275.722 -4.25649 1.23847 0
M  V30 2852 H 272.942 -0.584249 0.32999 0
M  V30 2853 H 275.486 -1.37688 1.51202 0
M  V30 2854 H 273.641 -3.77536 0.868631 0
M  V30 2855 H 274.055 -4.28657 3.02248 0
M  V30 2856 H 275.529 -5.27485 1.62675 0
M  V30 2857 H 276.006 -4.38828 0.18065 0
M  V30 2858 H 276.612 -3.86735 1.76964 0
M  V30 2859 N 274.927 -0.932562 -1.27047 0
M  V30 2860 C 275.874 -0.434072 -2.26681 0
M  V30 2861 C 276.844 0.501639 -1.58344 0
M  V30 2862 O 278.029 0.419734 -1.86126 0
M  V30 2863 C 275.169 0.30261 -3.43771 0
M  V30 2864 C 274.282 -0.667774 -4.26808 0
M  V30 2865 C 273.417 0.0892393 -5.31125 0
M  V30 2866 C 272.456 -0.873532 -6.05835 0
M  V30 2867 N 271.593 -0.148832 -7.01942 0
M  V30 2868 H 276.433 -1.28868 -2.68695 0
M  V30 2869 H 273.97 -0.646713 -1.32121 0
M  V30 2870 H 275.928 0.746092 -4.10474 0
M  V30 2871 H 274.558 1.12142 -3.02695 0
M  V30 2872 H 273.61 -1.22978 -3.59973 0
M  V30 2873 H 274.922 -1.40337 -4.78651 0
M  V30 2874 H 274.076 0.592409 -6.03801 0
M  V30 2875 H 272.815 0.85777 -4.80097 0
M  V30 2876 H 271.82 -1.38791 -5.31994 0
M  V30 2877 H 273.045 -1.64193 -6.58952 0
M  V30 2878 H 270.991 0.601365 -6.53238 0
M  V30 2879 H 270.908 -0.82391 -7.51497 0
M  V30 2880 H 272.176 0.333527 -7.78786 0
M  V30 2881 N 276.405 1.4127 -0.698611 0
M  V30 2882 C 277.821 1.55241 -0.370462 0
M  V30 2883 C 278.021 1.67351 1.12231 0
M  V30 2884 O 277.077 1.65363 1.90818 0
M  V30 2885 C 278.39 2.78997 -1.12165 0
M  V30 2886 C 279.938 2.92797 -1.1063 0
M  V30 2887 C 280.413 4.19445 -1.8393 0
M  V30 2888 N 281.904 4.26409 -1.80914 0
M  V30 2889 C 282.639 5.23271 -2.34467 0
M  V30 2890 N 282.135 6.26145 -2.96504 0
M  V30 2891 N 283.928 5.15232 -2.24706 0
M  V30 2892 H 276.079 1.31654 -1.66676 0
M  V30 2893 H 278.342 0.635393 -0.703548 0
M  V30 2894 H 278.048 2.76268 -2.17644 0
M  V30 2895 H 277.922 3.70606 -0.702209 0
M  V30 2896 H 280.309 2.95039 -0.0597713 0
M  V30 2897 H 280.39 2.02353 -1.56483 0
M  V30 2898 H 280.034 4.17964 -2.88563 0
M  V30 2899 H 279.964 5.08866 -1.35509 0
M  V30 2900 H 282.455 3.527 -1.35687 0
M  V30 2901 H 282.768 6.96451 -3.34927 0
M  V30 2902 H 281.113 6.26638 -3.00583 0
M  V30 2903 H 284.304 4.33789 -1.7591 0
M  V30 2904 H 284.477 5.90552 -2.66745 0
M  V30 2905 N 277.883 0.443576 1.51229 0
M  V30 2906 C 278.815 -0.400608 2.25672 0
M  V30 2907 C 279.828 -0.980945 1.29928 0
M  V30 2908 O 281.017 -0.874024 1.55638 0
M  V30 2909 C 278.117 -1.57304 3.00181 0
M  V30 2910 C 277.29 -1.11046 4.23069 0
M  V30 2911 C 276.349 -2.15374 4.80105 0
M  V30 2912 O 275.375 -1.74554 5.41774 0
M  V30 2913 N 276.577 -3.47922 4.64683 0
M  V30 2914 H 279.342 0.23745 2.98758 0
M  V30 2915 H 276.903 0.272809 1.59585 0
M  V30 2916 H 278.895 -2.26733 3.35223 0
M  V30 2917 H 277.465 -2.11632 2.30066 0
M  V30 2918 H 276.685 -0.243019 3.9345 0
M  V30 2919 H 277.973 -0.778888 5.02803 0
M  V30 2920 H 277.371 -3.83815 4.15575 0
M  V30 2921 H 275.928 -4.13228 5.0407 0
M  V30 2922 N 279.361 -1.56624 0.175154 0
M  V30 2923 C 280.609 -1.96609 -0.467885 0
M  V30 2924 C 280.93 -1.06238 -1.63519 0
M  V30 2925 O 280.2 -0.129523 -1.95471 0
M  V30 2926 H 278.78 -0.726008 -0.175845 0
M  V30 2927 H 281.442 -1.93195 0.257234 0
M  V30 2928 H 280.538 -3.00989 -0.825342 0
M  V30 2929 N 280.839 0.0985539 -1.57292 0
M  V30 2930 C 282.255 0.45267 -1.53046 0
M  V30 2931 C 282.455 1.80713 -0.891342 0
M  V30 2932 O 281.511 2.4785 -0.482375 0
M  V30 2933 C 282.824 0.418341 -2.97776 0
M  V30 2934 C 284.372 0.500443 -3.08973 0
M  V30 2935 C 284.847 0.496297 -4.55303 0
M  V30 2936 N 286.338 0.557151 -4.59837 0
M  V30 2937 C 287.073 0.575726 -5.70502 0
M  V30 2938 N 286.569 0.550714 -6.90608 0
M  V30 2939 N 288.362 0.620277 -5.58667 0
M  V30 2940 H 280.513 -0.788673 -1.97215 0
M  V30 2941 H 282.776 -0.293188 -0.901524 0
M  V30 2942 H 282.482 -0.509659 -3.47988 0
M  V30 2943 H 282.356 1.2386 -3.56284 0
M  V30 2944 H 284.743 1.41886 -2.58751 0
M  V30 2945 H 284.824 -0.347894 -2.53423 0
M  V30 2946 H 284.468 -0.418162 -5.06176 0
M  V30 2947 H 284.398 1.3618 -5.08687 0
M  V30 2948 H 286.889 0.581816 -3.73394 0
M  V30 2949 H 287.202 0.568075 -7.70709 0
M  V30 2950 H 285.547 0.517816 -6.93068 0
M  V30 2951 H 288.738 0.637322 -4.63741 0
M  V30 2952 H 288.911 0.631283 -6.44918 0
M  V30 2953 N 282.317 1.53212 0.369288 0
M  V30 2954 C 283.545 1.73119 1.13303 0
M  V30 2955 C 283.96 0.458455 1.83149 0
M  V30 2956 O 283.317 -0.568403 1.73423 0
M  V30 2957 C 283.368 2.89413 2.16616 0
M  V30 2958 O 283.089 4.11761 1.49614 0
M  V30 2959 C 284.59 3.21161 3.05566 0
M  V30 2960 H 281.81 0.579107 0.338934 0
M  V30 2961 H 284.354 1.99942 0.429338 0
M  V30 2962 H 282.509 2.64994 2.82589 0
M  V30 2963 H 282.923 4.76858 2.18419 0
M  V30 2964 H 284.397 4.05949 3.74045 0
M  V30 2965 H 284.874 2.36369 3.70171 0
M  V30 2966 H 285.48 3.47492 2.45213 0
M  V30 2967 N 283.795 -0.628877 1.44509 0
M  V30 2968 C 284.725 -1.75187 1.54376 0
M  V30 2969 C 285.706 -1.65411 0.396618 0
M  V30 2970 O 286.891 -1.84137 0.617031 0
M  V30 2971 C 284.021 -3.13725 1.48976 0
M  V30 2972 C 282.975 -3.38291 2.62189 0
M  V30 2973 C 282.301 -4.76883 2.41841 0
M  V30 2974 C 283.601 -3.30632 4.04326 0
M  V30 2975 H 285.295 -1.67187 2.48373 0
M  V30 2976 H 282.841 -0.802909 1.19538 0
M  V30 2977 H 284.794 -3.92064 1.54478 0
M  V30 2978 H 283.518 -3.22515 0.514961 0
M  V30 2979 H 282.177 -2.62334 2.56079 0
M  V30 2980 H 281.825 -4.82378 1.42548 0
M  V30 2981 H 281.525 -4.94278 3.17747 0
M  V30 2982 H 283.049 -5.57449 2.49165 0
M  V30 2983 H 284.463 -3.98873 4.11793 0
M  V30 2984 H 282.86 -3.59561 4.80454 0
M  V30 2985 H 283.93 -2.28404 4.27738 0
M  V30 2986 N 285.273 -1.31445 -0.869486 0
M  V30 2987 C 286.203 -1.21727 -1.99261 0
M  V30 2988 C 287.184 -0.104359 -1.6978 0
M  V30 2989 O 288.369 -0.289038 -1.92037 0
M  V30 2990 C 285.499 -0.924317 -3.34774 0
M  V30 2991 C 284.453 -1.99685 -3.78563 0
M  V30 2992 C 283.779 -1.55658 -5.11541 0
M  V30 2993 C 285.079 -3.41003 -3.95619 0
M  V30 2994 H 286.773 -2.1569 -2.07649 0
M  V30 2995 H 284.319 -1.03839 -0.997675 0
M  V30 2996 H 286.272 -0.842934 -4.12883 0
M  V30 2997 H 284.996 0.0509793 -3.2656 0
M  V30 2998 H 283.655 -2.06813 -3.02694 0
M  V30 2999 H 283.303 -0.569132 -4.9977 0
M  V30 3000 H 283.003 -2.27409 -5.41811 0
M  V30 3001 H 284.527 -1.48928 -5.92159 0
M  V30 3002 H 285.941 -3.36547 -4.64122 0
M  V30 3003 H 284.338 -4.10975 -4.37286 0
M  V30 3004 H 285.408 -3.81754 -2.98985 0
M  V30 3005 N 286.751 1.08385 -1.14413 0
M  V30 3006 C 287.698 2.15311 -0.831265 0
M  V30 3007 C 288.668 1.64751 0.211292 0
M  V30 3008 O 289.853 1.90627 0.0811674 0
M  V30 3009 C 286.993 3.43658 -0.315143 0
M  V30 3010 C 286.106 4.08064 -1.41802 0
M  V30 3011 C 285.241 5.24207 -0.859126 0
M  V30 3012 C 284.28 5.80554 -1.93967 0
M  V30 3013 N 283.417 6.88042 -1.39793 0
M  V30 3014 H 288.257 2.41415 -1.74708 0
M  V30 3015 H 285.794 1.18474 -0.871909 0
M  V30 3016 H 287.752 4.172 0.00230884 0
M  V30 3017 H 286.382 3.17839 0.56378 0
M  V30 3018 H 285.434 3.3228 -1.85187 0
M  V30 3019 H 286.746 4.45962 -2.23427 0
M  V30 3020 H 285.9 6.04689 -0.49359 0
M  V30 3021 H 284.639 4.87699 -0.011932 0
M  V30 3022 H 283.644 4.98725 -2.31415 0
M  V30 3023 H 284.869 6.19121 -2.79046 0
M  V30 3024 H 282.815 6.53493 -0.572919 0
M  V30 3025 H 282.732 7.24767 -2.15054 0
M  V30 3026 H 284 7.72255 -1.0603 0
M  V30 3027 N 288.23 0.939286 1.26551 0
M  V30 3028 C 289.14 0.453432 2.30176 0
M  V30 3029 C 290.156 -0.471649 1.67486 0
M  V30 3030 O 291.332 -0.35164 1.98306 0
M  V30 3031 C 288.397 -0.275326 3.45605 0
M  V30 3032 C 287.458 0.686084 4.23782 0
M  V30 3033 C 286.691 -0.00798994 5.33699 0
M  V30 3034 O 286.914 -1.22528 5.57085 0
M  V30 3035 O 285.848 0.669746 5.98162 0
M  V30 3036 H 289.674 1.31416 2.73795 0
M  V30 3037 H 287.259 0.705095 1.31715 0
M  V30 3038 H 289.141 -0.685911 4.1578 0
M  V30 3039 H 287.816 -1.11147 3.0402 0
M  V30 3040 H 286.723 1.14658 3.56096 0
M  V30 3041 H 288.056 1.48979 4.69112 0
M  V30 3042 N 289.708 -1.40897 0.706093 0
M  V30 3043 C 290.638 -2.33418 0.0620085 0
M  V30 3044 C 291.619 -1.52385 -0.755827 0
M  V30 3045 O 292.804 -1.80886 -0.706674 0
M  V30 3046 C 289.934 -3.36293 -0.867445 0
M  V30 3047 C 288.888 -4.27716 -0.155932 0
M  V30 3048 C 288.214 -5.2105 -1.20046 0
M  V30 3049 C 289.514 -5.12944 0.984149 0
M  V30 3050 H 291.208 -2.87527 0.83477 0
M  V30 3051 H 288.754 -1.38249 0.402875 0
M  V30 3052 H 290.707 -3.99949 -1.32735 0
M  V30 3053 H 289.431 -2.80556 -1.67199 0
M  V30 3054 H 288.09 -3.65498 0.284047 0
M  V30 3055 H 287.738 -4.61624 -1.99781 0
M  V30 3056 H 287.438 -5.83056 -0.729328 0
M  V30 3057 H 288.962 -5.87584 -1.66066 0
M  V30 3058 H 290.376 -5.70109 0.604048 0
M  V30 3059 H 288.773 -5.83945 1.38304 0
M  V30 3060 H 289.843 -4.49485 1.81911 0
M  V30 3061 N 291.186 -0.45159 -1.50991 0
M  V30 3062 C 292.434 0.109857 -2.01801 0
M  V30 3063 C 292.755 1.41958 -1.3369 0
M  V30 3064 O 292.025 1.9003 -0.475951 0
M  V30 3065 H 290.605 0.0435884 -0.745727 0
M  V30 3066 H 293.267 -0.597557 -1.85514 0
M  V30 3067 H 292.363 0.275489 -3.10882 0
M  V30 3068 N 292.664 1.56529 -0.183458 0
M  V30 3069 C 293.627 2.17324 0.728223 0
M  V30 3070 C 294.627 1.12453 1.14939 0
M  V30 3071 O 295.817 1.37902 1.06437 0
M  V30 3072 C 292.949 2.76591 1.99274 0
M  V30 3073 H 294.142 2.99241 0.198772 0
M  V30 3074 H 291.695 1.5616 0.0661391 0
M  V30 3075 H 292.43 1.98441 2.56499 0
M  V30 3076 H 292.215 3.5335 1.69959 0
M  V30 3077 H 293.705 3.23311 2.6431 0
M  V30 3078 N 294.142 -0.090211 1.57342 0
M  V30 3079 C 295.553 -0.644173 1.75235 0
M  V30 3080 C 295.904 -1.78865 0.806335 0
M  V30 3081 O 295.029 -2.16395 -0.0140128 0
M  V30 3082 C 295.624 -1.17532 3.1776 0
M  V30 3083 C 294.183 -1.67531 3.37061 0
M  V30 3084 C 293.33 -0.58693 2.71017 0
M  V30 3085 H 296.281 0.135884 1.58117 0
M  V30 3086 H 296.302 -2.04455 3.20902 0
M  V30 3087 H 295.814 -0.342138 3.86589 0
M  V30 3088 H 293.915 -2.53234 2.73319 0
M  V30 3089 H 294.028 -1.76493 4.45406 0
M  V30 3090 H 292.392 -1.02756 2.33052 0
M  V30 3091 H 293.175 0.235758 3.4249 0
M  V30 3092 N 295.62 -1.53406 -0.361157 0
M  V30 3093 C 296.53 -1.83122 -1.4664 0
M  V30 3094 C 297.546 -0.719943 -1.58407 0
M  V30 3095 O 298.722 -1.01046 -1.74218 0
M  V30 3096 C 295.787 -2.01891 -2.81853 0
M  V30 3097 C 294.848 -3.25784 -2.79577 0
M  V30 3098 C 294.081 -3.43648 -4.0834 0
M  V30 3099 O 294.304 -2.65714 -5.0473 0
M  V30 3100 O 293.238 -4.37018 -4.13883 0
M  V30 3101 H 297.064 -2.7703 -1.24451 0
M  V30 3102 H 294.649 -1.38841 -0.551678 0
M  V30 3103 H 296.531 -2.15782 -3.61962 0
M  V30 3104 H 295.206 -1.11173 -3.0401 0
M  V30 3105 H 294.113 -3.17312 -1.98151 0
M  V30 3106 H 295.446 -4.16439 -2.62373 0
M  V30 3107 N 297.098 0.621204 -1.44841 0
M  V30 3108 C 298.514 0.94048 -1.28946 0
M  V30 3109 C 298.714 2.00154 -0.23249 0
M  V30 3110 O 297.77 2.49651 0.378237 0
M  V30 3111 C 299.083 1.39433 -2.66419 0
M  V30 3112 C 300.631 1.50927 -2.74208 0
M  V30 3113 C 301.106 1.99692 -4.12174 0
M  V30 3114 N 302.597 2.06947 -4.144 0
M  V30 3115 C 303.332 2.45871 -5.1801 0
M  V30 3116 N 302.828 2.83862 -6.31977 0
M  V30 3117 N 304.621 2.46092 -5.05366 0
M  V30 3118 H 296.772 -0.0803548 -2.12248 0
M  V30 3119 H 299.035 0.0266913 -0.947624 0
M  V30 3120 H 298.741 0.688925 -3.44887 0
M  V30 3121 H 298.615 2.36347 -2.93973 0
M  V30 3122 H 301.002 2.20561 -1.96053 0
M  V30 3123 H 301.083 0.523627 -2.50383 0
M  V30 3124 H 300.727 1.30649 -4.90809 0
M  V30 3125 H 300.657 2.99146 -4.33381 0
M  V30 3126 H 303.148 1.80232 -3.32152 0
M  V30 3127 H 303.461 3.12405 -7.0684 0
M  V30 3128 H 301.806 2.8159 -6.35399 0
M  V30 3129 H 304.997 2.1581 -4.15384 0
M  V30 3130 H 305.17 2.76102 -5.86235 0
M  V30 3131 N 298.576 1.31904 0.862503 0
M  V30 3132 C 299.506 1.22782 1.98612 0
M  V30 3133 C 300.487 0.113362 1.69722 0
M  V30 3134 O 301.672 0.299218 1.91881 0
M  V30 3135 C 298.802 0.942058 3.34279 0
M  V30 3136 C 297.756 2.0169 3.77499 0
M  V30 3137 C 297.082 1.58369 5.10709 0
M  V30 3138 C 298.382 3.43096 3.93805 0
M  V30 3139 H 300.076 2.16788 2.06502 0
M  V30 3140 H 297.622 1.04366 0.992154 0
M  V30 3141 H 299.575 0.864818 4.1243 0
M  V30 3142 H 298.299 -0.0336603 3.26583 0
M  V30 3143 H 296.958 2.08416 3.01593 0
M  V30 3144 H 296.606 0.595628 4.99461 0
M  V30 3145 H 296.306 2.30279 5.40597 0
M  V30 3146 H 297.83 1.52067 5.91361 0
M  V30 3147 H 299.244 3.39003 4.62331 0
M  V30 3148 H 297.641 4.13288 4.35101 0
M  V30 3149 H 298.711 3.83334 2.96957 0
M  V30 3150 N 300.054 -1.07777 1.14986 0
M  V30 3151 C 301.284 -1.83752 0.944402 0
M  V30 3152 C 301.692 -1.8218 -0.51058 0
M  V30 3153 O 301.035 -1.22852 -1.36576 0
M  V30 3154 C 301.097 -3.32128 1.37592 0
M  V30 3155 C 300.761 -3.57425 2.84775 0
M  V30 3156 C 301.758 -3.5173 3.8286 0
M  V30 3157 C 299.443 -3.8523 3.2234 0
M  V30 3158 C 301.437 -3.73482 5.16517 0
M  V30 3159 C 299.124 -4.06634 4.56171 0
M  V30 3160 C 300.122 -4.00754 5.53069 0
M  V30 3161 O 299.81 -4.2159 6.84483 0
M  V30 3162 H 299.542 -0.58673 0.335744 0
M  V30 3163 H 302.096 -1.36982 1.53052 0
M  V30 3164 H 300.326 -3.79686 0.733165 0
M  V30 3165 H 302.015 -3.89555 1.14024 0
M  V30 3166 H 302.781 -3.30256 3.55184 0
M  V30 3167 H 298.66 -3.88923 2.47508 0
M  V30 3168 H 302.204 -3.68808 5.92137 0
M  V30 3169 H 298.101 -4.27593 4.83564 0
M  V30 3170 H 298.869 -4.38961 6.90837 0
M  V30 3171 N 301.532 -0.945985 -1.26051 0
M  V30 3172 C 302.462 -0.477172 -2.28572 0
M  V30 3173 C 303.443 0.472032 -1.63419 0
M  V30 3174 O 304.628 0.372853 -1.90587 0
M  V30 3175 C 301.758 0.253975 -3.4637 0
M  V30 3176 C 300.712 -0.609135 -4.23643 0
M  V30 3177 C 300.038 0.252252 -5.34105 0
M  V30 3178 C 301.338 -1.8829 -4.8718 0
M  V30 3179 H 303.032 -1.33402 -2.68038 0
M  V30 3180 H 300.578 -0.642904 -1.28852 0
M  V30 3181 H 302.531 0.593016 -4.17207 0
M  V30 3182 H 301.255 1.145 -3.05871 0
M  V30 3183 H 299.914 -0.931138 -3.54578 0
M  V30 3184 H 299.562 1.14278 -4.89846 0
M  V30 3185 H 299.262 -0.32188 -5.86718 0
M  V30 3186 H 300.786 0.586454 -6.07777 0
M  V30 3187 H 302.2 -1.61081 -5.50205 0
M  V30 3188 H 300.597 -2.40199 -5.49931 0
M  V30 3189 H 301.667 -2.59134 -4.09851 0
M  V30 3190 N 303.011 1.40521 -0.713556 0
M  V30 3191 C 303.958 2.30723 -0.059684 0
M  V30 3192 C 304.928 1.48079 0.752448 0
M  V30 3193 O 306.113 1.76823 0.71681 0
M  V30 3194 C 303.253 3.34274 0.857594 0
M  V30 3195 C 302.366 4.31986 0.0351536 0
M  V30 3196 C 301.501 5.22605 0.951724 0
M  V30 3197 C 300.54 6.11976 0.123253 0
M  V30 3198 N 299.677 6.9502 0.99459 0
M  V30 3199 H 304.517 2.86074 -0.834596 0
M  V30 3200 H 302.054 1.40879 -0.42326 0
M  V30 3201 H 304.012 3.92879 1.40364 0
M  V30 3202 H 302.642 2.8043 1.59871 0
M  V30 3203 H 301.694 3.7518 -0.628052 0
M  V30 3204 H 303.006 4.95101 -0.606347 0
M  V30 3205 H 302.16 5.86131 1.56638 0
M  V30 3206 H 300.899 4.59759 1.62705 0
M  V30 3207 H 299.904 5.47482 -0.50435 0
M  V30 3208 H 301.129 6.76881 -0.548539 0
M  V30 3209 H 299.075 6.34764 1.6556 0
M  V30 3210 H 298.992 7.54892 0.40908 0
M  V30 3211 H 300.26 7.62997 1.59549 0
M  V30 3212 N 304.489 0.459591 1.5075 0
M  V30 3213 C 305.399 -0.34613 2.32033 0
M  V30 3214 C 306.415 -1.00686 1.41909 0
M  V30 3215 O 307.591 -0.997361 1.7497 0
M  V30 3216 C 304.656 -1.42029 3.16273 0
M  V30 3217 C 303.717 -0.777362 4.22203 0
M  V30 3218 C 302.95 -1.80034 5.02418 0
M  V30 3219 O 303.173 -3.02544 4.83553 0
M  V30 3220 O 302.107 -1.37853 5.85901 0
M  V30 3221 H 305.933 0.318054 3.0203 0
M  V30 3222 H 303.518 0.221663 1.47746 0
M  V30 3223 H 305.4 -2.04275 3.68578 0
M  V30 3224 H 304.075 -2.06815 2.49016 0
M  V30 3225 H 302.982 -0.116256 3.73919 0
M  V30 3226 H 304.315 -0.172634 4.91897 0
M  V30 3227 N 305.967 -1.56429 0.191757 0
M  V30 3228 C 307.378 -1.83912 -0.321428 0
M  V30 3229 C 307.729 -1.11231 -1.61623 0
M  V30 3230 O 306.854 -0.37202 -2.13178 0
M  V30 3231 C 307.449 -3.33624 -0.589961 0
M  V30 3232 C 306.008 -3.6153 -1.04753 0
M  V30 3233 C 305.155 -2.7714 -0.0943327 0
M  V30 3234 H 308.106 -1.53161 0.415612 0
M  V30 3235 H 308.127 -3.52213 -1.43966 0
M  V30 3236 H 307.639 -3.86495 0.352588 0
M  V30 3237 H 305.74 -3.14089 -2.00447 0
M  V30 3238 H 305.853 -4.69737 -0.942549 0
M  V30 3239 H 304.217 -2.47638 -0.595589 0
M  V30 3240 H 305 -3.32799 0.842601 0
M  V30 3241 N 307.445 0.0818655 -1.57387 0
M  V30 3242 C 308.673 0.796108 -1.9097 0
M  V30 3243 C 309.088 1.71626 -0.786757 0
M  V30 3244 O 308.445 1.80908 0.240513 0
M  V30 3245 C 308.496 1.59829 -3.24248 0
M  V30 3246 O 308.217 0.715131 -4.32224 0
M  V30 3247 C 309.718 2.41442 -3.7178 0
M  V30 3248 H 306.938 0.22691 -0.631469 0
M  V30 3249 H 309.482 0.0551439 -2.04426 0
M  V30 3250 H 307.637 2.29163 -3.12351 0
M  V30 3251 H 308.051 1.27205 -5.08841 0
M  V30 3252 H 309.525 2.932 -4.67694 0
M  V30 3253 H 310.002 3.2051 -3.00283 0
M  V30 3254 H 310.608 1.77283 -3.86589 0
M  V30 3255 N 308.923 1.53595 0.353017 0
M  V30 3256 C 309.886 1.80232 1.41594 0
M  V30 3257 C 310.886 0.673081 1.46035 0
M  V30 3258 O 312.076 0.941335 1.46576 0
M  V30 3259 C 309.208 1.93578 2.80607 0
M  V30 3260 H 310.401 2.75174 1.19244 0
M  V30 3261 H 307.954 1.44864 0.586872 0
M  V30 3262 H 308.689 1.00746 3.08254 0
M  V30 3263 H 308.474 2.75724 2.78781 0
M  V30 3264 H 309.964 2.15735 3.57558 0
M  V30 3265 N 310.401 -0.613514 1.45168 0
M  V30 3266 C 311.678 -1.37263 1.39349 0
M  V30 3267 C 312.058 -2.11012 0.0610848 0
M  V30 3268 O 311.406 -2.07502 -0.956825 0
M  V30 3269 C 311.616 -2.3244 2.60332 0
M  V30 3270 C 312.964 -2.9523 3.05163 0
M  V30 3271 O 313.988 -2.42762 2.60663 0
M  V30 3272 O 312.847 -3.90454 3.82372 0
M  V30 3273 H 309.941 -0.615188 0.552696 0
M  V30 3274 H 312.487 -0.637097 1.57287 0
M  V30 3275 H 311.259 -1.77164 3.48896 0
M  V30 3276 H 310.882 -3.13383 2.44698 0
M  V30 3277 N 311.879 -1.3236 -0.855495 0
M  V30 3278 C 312.809 -1.23833 -1.97958 0
M  V30 3279 C 313.79 -0.122361 -1.69659 0
M  V30 3280 O 314.975 -0.30939 -1.9172 0
M  V30 3281 C 312.105 -0.959772 -3.33775 0
M  V30 3282 C 311.059 -2.03689 -3.76424 0
M  V30 3283 C 310.385 -1.61075 -5.09862 0
M  V30 3284 C 311.685 -3.4518 -3.9198 0
M  V30 3285 H 313.379 -2.1788 -2.0535 0
M  V30 3286 H 310.925 -1.04891 -0.986605 0
M  V30 3287 H 312.878 -0.886678 -4.11966 0
M  V30 3288 H 311.602 0.0163404 -3.26596 0
M  V30 3289 H 310.261 -2.10012 -3.00484 0
M  V30 3290 H 309.909 -0.622107 -4.99138 0
M  V30 3291 H 309.609 -2.33143 -5.39368 0
M  V30 3292 H 311.133 -1.55201 -5.90546 0
M  V30 3293 H 312.547 -3.4145 -4.60526 0
M  V30 3294 H 310.944 -4.1559 -4.32903 0
M  V30 3295 H 312.014 -3.84903 -2.94919 0
M  V30 3296 N 313.357 1.07166 -1.15556 0
M  V30 3297 C 314.287 2.16403 -0.877046 0
M  V30 3298 C 315.268 1.69217 0.173111 0
M  V30 3299 O 316.453 1.94181 0.027084 0
M  V30 3300 C 313.583 3.45349 -0.367632 0
M  V30 3301 C 312.537 4.05995 -1.35468 0
M  V30 3302 C 311.863 5.30045 -0.704038 0
M  V30 3303 C 313.163 4.45804 -2.72132 0
M  V30 3304 H 314.857 2.39959 -1.79053 0
M  V30 3305 H 312.403 1.15325 -0.862331 0
M  V30 3306 H 314.356 4.21095 -0.160317 0
M  V30 3307 H 313.08 3.21385 0.581326 0
M  V30 3308 H 311.739 3.32296 -1.54839 0
M  V30 3309 H 311.387 5.02373 0.251128 0
M  V30 3310 H 311.087 5.71579 -1.36277 0
M  V30 3311 H 312.611 6.08495 -0.50654 0
M  V30 3312 H 314.025 5.12671 -2.56595 0
M  V30 3313 H 312.422 4.98296 -3.34397 0
M  V30 3314 H 313.492 3.57083 -3.28054 0
M  V30 3315 N 314.835 0.952656 1.25548 0
M  V30 3316 C 316.112 0.523818 1.88456 0
M  V30 3317 C 316.492 -0.998871 1.85973 0
M  V30 3318 O 315.84 -1.86381 1.3219 0
M  V30 3319 C 316.05 1.0982 3.31271 0
M  V30 3320 C 317.398 1.17385 4.08051 0
M  V30 3321 O 318.422 1.04961 3.40384 0
M  V30 3322 O 317.281 1.36852 5.29088 0
M  V30 3323 H 314.375 0.172485 0.808813 0
M  V30 3324 H 316.921 1.04596 1.33633 0
M  V30 3325 H 315.693 2.1415 3.27499 0
M  V30 3326 H 315.316 0.559191 3.93648 0
M  V30 3327 N 316.313 -1.40141 0.720998 0
M  V30 3328 C 317.223 -2.34486 0.0731031 0
M  V30 3329 C 318.239 -1.57587 -0.737723 0
M  V30 3330 O 319.415 -1.89949 -0.669429 0
M  V30 3331 C 316.48 -3.36528 -0.833656 0
M  V30 3332 C 315.541 -4.29298 -0.0121673 0
M  V30 3333 C 314.774 -5.26466 -0.875742 0
M  V30 3334 O 314.997 -5.29745 -2.11485 0
M  V30 3335 O 313.931 -6.01092 -0.31185 0
M  V30 3336 H 317.757 -2.9152 0.851444 0
M  V30 3337 H 315.342 -1.41427 0.481527 0
M  V30 3338 H 317.224 -3.99093 -1.35289 0
M  V30 3339 H 315.899 -2.81899 -1.59105 0
M  V30 3340 H 314.806 -3.70001 0.552262 0
M  V30 3341 H 316.139 -4.87094 0.707129 0
M  V30 3342 N 317.792 -0.46758 -1.50504 0
M  V30 3343 C 318.739 0.328413 -2.28452 0
M  V30 3344 C 319.709 0.990313 -1.33349 0
M  V30 3345 O 320.894 1.00343 -1.62284 0
M  V30 3346 C 318.034 1.40648 -3.15138 0
M  V30 3347 C 317.147 0.759709 -4.25267 0
M  V30 3348 C 316.282 1.81537 -4.99217 0
M  V30 3349 C 315.321 1.14866 -6.01226 0
M  V30 3350 N 314.458 2.14702 -6.68467 0
M  V30 3351 H 319.298 -0.342603 -2.96024 0
M  V30 3352 H 316.835 -0.180801 -1.45985 0
M  V30 3353 H 318.793 2.04315 -3.63746 0
M  V30 3354 H 317.423 2.04671 -2.49619 0
M  V30 3355 H 316.475 0.0105671 -3.80399 0
M  V30 3356 H 317.787 0.233243 -4.98254 0
M  V30 3357 H 316.941 2.52793 -5.51526 0
M  V30 3358 H 315.68 2.37564 -4.25928 0
M  V30 3359 H 314.685 0.42171 -5.4818 0
M  V30 3360 H 315.91 0.595334 -6.76485 0
M  V30 3361 H 313.856 2.69752 -5.97972 0
M  V30 3362 H 313.773 1.6703 -7.37317 0
M  V30 3363 H 315.041 2.85348 -7.25394 0
M  V30 3364 N 319.27 1.56325 -0.20005 0
M  V30 3365 C 320.681 1.8408 0.31167 0
M  V30 3366 C 321.032 1.12087 1.61031 0
M  V30 3367 O 320.157 0.38332 2.12978 0
M  V30 3368 C 320.752 3.33932 0.57226 0
M  V30 3369 C 319.311 3.6208 1.02834 0
M  V30 3370 C 318.458 2.77186 0.079634 0
M  V30 3371 H 321.409 1.52939 -0.423729 0
M  V30 3372 H 321.43 3.52971 1.42096 0
M  V30 3373 H 320.942 3.86303 -0.37308 0
M  V30 3374 H 319.043 3.15147 1.98778 0
M  V30 3375 H 319.156 4.7023 0.917624 0
M  V30 3376 H 317.52 2.47951 0.582448 0
M  V30 3377 H 318.303 3.32347 -0.860238 0
M  V30 3378 N 320.748 -0.0735177 1.57428 0
M  V30 3379 C 321.68 -1.11423 2.00294 0
M  V30 3380 C 322.693 -1.35084 0.908637 0
M  V30 3381 O 323.882 -1.33355 1.18654 0
M  V30 3382 C 320.982 -2.46548 2.32523 0
M  V30 3383 C 320.155 -2.42867 3.63778 0
M  V30 3384 C 319.214 -3.60087 3.83697 0
M  V30 3385 O 318.24 -3.41595 4.55304 0
M  V30 3386 N 319.442 -4.80372 3.25919 0
M  V30 3387 H 322.207 -0.749206 2.90184 0
M  V30 3388 H 319.768 -0.262195 1.59763 0
M  V30 3389 H 321.76 -3.23607 2.43024 0
M  V30 3390 H 320.33 -2.75059 1.48531 0
M  V30 3391 H 319.55 -1.51206 3.64047 0
M  V30 3392 H 320.838 -2.37506 4.49965 0
M  V30 3393 H 320.236 -4.983 2.67795 0
M  V30 3394 H 318.793 -5.54948 3.41871 0
M  V30 3395 N 322.226 -1.5378 -0.344866 0
M  V30 3396 C 323.158 -1.77988 -1.44406 0
M  V30 3397 C 324.171 -0.661138 -1.48771 0
M  V30 3398 O 325.36 -0.937842 -1.51877 0
M  V30 3399 C 322.46 -1.86345 -2.8307 0
M  V30 3400 C 321.633 -3.16256 -3.0216 0
M  V30 3401 C 320.692 -3.15588 -4.21059 0
M  V30 3402 O 319.718 -3.89314 -4.15239 0
M  V30 3403 N 320.92 -2.37864 -5.29529 0
M  V30 3404 H 323.685 -2.72839 -1.24012 0
M  V30 3405 H 321.246 -1.52814 -0.534737 0
M  V30 3406 H 323.238 -1.83351 -3.60783 0
M  V30 3407 H 321.808 -0.986858 -2.96614 0
M  V30 3408 H 321.028 -3.32385 -2.11929 0
M  V30 3409 H 322.316 -4.0207 -3.11797 0
M  V30 3410 H 321.714 -1.77514 -5.37127 0
M  V30 3411 H 320.271 -2.40668 -6.05741 0
M  V30 3412 N 323.704 0.605807 -1.45491 0
M  V30 3413 C 324.929 1.39625 -1.53361 0
M  V30 3414 C 325.354 1.87351 -0.167645 0
M  V30 3415 O 324.712 1.60243 0.848051 0
M  V30 3416 C 324.76 2.57559 -2.5238 0
M  V30 3417 O 323.864 3.58248 -2.04285 0
M  V30 3418 H 323.205 0.416771 -0.516912 0
M  V30 3419 H 325.735 0.737103 -1.90861 0
M  V30 3420 H 325.745 3.0478 -2.71244 0
M  V30 3421 H 324.42 2.22171 -3.51586 0
M  V30 3422 H 322.997 3.17664 -1.95305 0
M  V30 3423 N 325.182 1.32811 0.848464 0
M  V30 3424 C 326.459 1.14334 1.58704 0
M  V30 3425 C 326.839 -0.293948 2.09043 0
M  V30 3426 O 326.187 -1.29153 1.88499 0
M  V30 3427 C 326.397 2.17626 2.72837 0
M  V30 3428 C 327.745 2.51282 3.42261 0
M  V30 3429 O 328.769 2.16219 2.83068 0
M  V30 3430 O 327.628 3.11413 4.49093 0
M  V30 3431 H 324.722 0.441601 0.699226 0
M  V30 3432 H 327.268 1.44362 0.892053 0
M  V30 3433 H 326.04 3.14211 2.3321 0
M  V30 3434 H 325.663 1.88628 3.50008 0
M  V30 3435 N 326.66 -1.06551 1.16123 0
M  V30 3436 C 327.57 -2.17484 0.879662 0
M  V30 3437 C 328.586 -1.73377 -0.147104 0
M  V30 3438 O 329.762 -2.01379 0.0289128 0
M  V30 3439 C 326.827 -3.44591 0.381829 0
M  V30 3440 C 325.888 -4.0322 1.4735 0
M  V30 3441 C 325.121 -5.24261 0.999324 0
M  V30 3442 O 325.344 -5.70198 -0.151957 0
M  V30 3443 O 324.278 -5.74775 1.78653 0
M  V30 3444 H 328.104 -2.44075 1.80724 0
M  V30 3445 H 325.689 -1.16042 0.940992 0
M  V30 3446 H 327.571 -4.21254 0.111053 0
M  V30 3447 H 326.246 -3.19532 -0.51777 0
M  V30 3448 H 325.153 -3.2806 1.79798 0
M  V30 3449 H 326.486 -4.32568 2.34831 0
M  V30 3450 N 328.138 -0.959301 -1.25041 0
M  V30 3451 C 329.366 -0.633949 -1.96948 0
M  V30 3452 C 329.781 0.794916 -1.7125 0
M  V30 3453 O 329.138 1.53231 -0.991287 0
M  V30 3454 C 329.189 -0.888805 -3.50403 0
M  V30 3455 O 328.91 -2.26149 -3.75218 0
M  V30 3456 C 330.411 -0.576482 -4.39536 0
M  V30 3457 H 327.631 -0.237263 -0.627652 0
M  V30 3458 H 330.175 -1.28495 -1.59089 0
M  V30 3459 H 328.33 -0.284145 -3.86357 0
M  V30 3460 H 328.744 -2.33514 -4.6965 0
M  V30 3461 H 330.218 -0.805314 -5.46094 0
M  V30 3462 H 330.695 0.489075 -4.36468 0
M  V30 3463 H 331.301 -1.16067 -4.09156 0
M  V30 3464 N 329.616 1.39756 -0.72842 0
M  V30 3465 C 330.526 2.34444 -0.0855374 0
M  V30 3466 C 331.542 1.57976 0.729356 0
M  V30 3467 O 332.718 1.90301 0.659346 0
M  V30 3468 C 329.783 3.36965 0.815798 0
M  V30 3469 C 328.844 4.29299 -0.0105996 0
M  V30 3470 C 328.077 5.26923 0.84781 0
M  V30 3471 O 328.3 5.30859 2.08673 0
M  V30 3472 O 327.234 6.01249 0.279969 0
M  V30 3473 H 331.06 2.91065 -0.866892 0
M  V30 3474 H 328.645 1.4117 -0.48902 0
M  V30 3475 H 330.527 3.99804 1.33171 0
M  V30 3476 H 329.202 2.82739 1.57608 0
M  V30 3477 H 328.109 3.69703 -0.571877 0
M  V30 3478 H 329.442 4.86712 -0.73295 0
M  V30 3479 N 331.094 0.475555 1.50254 0
M  V30 3480 C 332.024 -0.30611 2.31485 0
M  V30 3481 C 333.005 -0.986228 1.38591 0
M  V30 3482 O 334.19 -0.982541 1.67511 0
M  V30 3483 C 331.32 -1.38588 3.1845 0
M  V30 3484 C 330.274 -0.827115 4.19932 0
M  V30 3485 C 329.6 -2.00551 4.95665 0
M  V30 3486 C 330.9 0.16463 5.2204 0
M  V30 3487 H 332.594 0.371866 2.97082 0
M  V30 3488 H 330.14 0.180282 1.42867 0
M  V30 3489 H 332.093 -1.94023 3.74076 0
M  V30 3490 H 330.817 -2.09269 2.50747 0
M  V30 3491 H 329.476 -0.294702 3.65414 0
M  V30 3492 H 329.124 -2.6994 4.2443 0
M  V30 3493 H 328.824 -1.63784 5.64313 0
M  V30 3494 H 330.348 -2.56468 5.54127 0
M  V30 3495 H 331.762 -0.300699 5.72511 0
M  V30 3496 H 330.159 0.446813 5.98434 0
M  V30 3497 H 331.229 1.08905 4.72512 0
M  V30 3498 N 332.573 -1.56217 0.208337 0
M  V30 3499 C 333.821 -1.97558 -0.426076 0
M  V30 3500 C 334.142 -1.09683 -1.61229 0
M  V30 3501 O 333.412 -0.170956 -1.95153 0
M  V30 3502 H 331.992 -0.729575 -0.160405 0
M  V30 3503 H 334.654 -1.92606 0.298155 0
M  V30 3504 H 333.75 -3.02672 -0.761312 0
M  V30 3505 N 334.051 0.0651679 -1.57465 0
M  V30 3506 C 335.3 0.761916 -1.86756 0
M  V30 3507 C 335.613 1.78406 -0.801925 0
M  V30 3508 O 336.819 2.53084 -0.982885 0
M  V30 3509 C 335.275 1.40603 -3.31299 0
M  V30 3510 C 334.883 0.422115 -4.46007 0
M  V30 3511 C 336.627 2.08476 -3.69781 0
M  V30 3512 C 334.534 1.07252 -5.81593 0
M  V30 3513 H 333.464 0.288308 -0.696702 0
M  V30 3514 H 336.115 0.015344 -1.83494 0
M  V30 3515 H 334.497 2.20109 -3.29193 0
M  V30 3516 H 335.671 -0.343613 -4.59517 0
M  V30 3517 H 333.986 -0.152527 -4.16121 0
M  V30 3518 H 336.583 2.57925 -4.68379 0
M  V30 3519 H 336.926 2.88712 -2.99919 0
M  V30 3520 H 337.459 1.35792 -3.73905 0
M  V30 3521 H 334.198 0.310342 -6.54765 0
M  V30 3522 H 333.718 1.80895 -5.71872 0
M  V30 3523 H 335.397 1.59043 -6.27148 0
M  V30 3524 N 335.529 1.53961 0.336706 0
M  V30 3525 C 336.754 1.75797 1.10046 0
M  V30 3526 C 337.179 0.498985 1.81361 0
M  V30 3527 O 336.537 -0.548769 1.72795 0
M  V30 3528 C 336.585 2.94257 2.08436 0
M  V30 3529 O 335.689 2.64883 3.16087 0
M  V30 3530 H 335.03 0.582936 0.317934 0
M  V30 3531 H 337.56 2.00945 0.38501 0
M  V30 3532 H 337.57 3.21237 2.51537 0
M  V30 3533 H 336.245 3.85564 1.55927 0
M  V30 3534 H 334.822 2.48812 2.77753 0
M  V30 3535 N 337.007 -0.598083 1.45811 0
M  V30 3536 C 338.237 -1.38121 1.53643 0
M  V30 3537 C 338.645 -1.88425 0.171081 0
M  V30 3538 O 337.988 -1.63409 -0.839237 0
M  V30 3539 C 338.05 -2.61432 2.46766 0
M  V30 3540 C 337.714 -2.32702 3.93318 0
M  V30 3541 C 338.711 -1.92479 4.82957 0
M  V30 3542 C 336.396 -2.45321 4.38318 0
M  V30 3543 C 338.39 -1.65248 6.15607 0
M  V30 3544 C 336.077 -2.17703 5.71007 0
M  V30 3545 C 337.075 -1.7773 6.5947 0
M  V30 3546 O 336.763 -1.50441 7.89698 0
M  V30 3547 H 336.495 -0.428863 0.522544 0
M  V30 3548 H 339.049 -0.73557 1.91777 0
M  V30 3549 H 337.279 -3.28749 2.0362 0
M  V30 3550 H 338.968 -3.23487 2.45175 0
M  V30 3551 H 339.734 -1.82258 4.49452 0
M  V30 3552 H 335.613 -2.75399 3.69697 0
M  V30 3553 H 339.157 -1.33973 6.84614 0
M  V30 3554 H 335.054 -2.27544 6.04065 0
M  V30 3555 H 335.822 -1.64415 8.01817 0
M  V30 3556 N 338.485 -1.33259 -0.841409 0
M  V30 3557 C 339.762 -1.15174 -1.58096 0
M  V30 3558 C 340.142 0.282858 -2.09196 0
M  V30 3559 O 339.49 1.28151 -1.89181 0
M  V30 3560 C 339.7 -2.1907 -2.71679 0
M  V30 3561 C 341.048 -2.53093 -3.40924 0
M  V30 3562 O 342.072 -2.17717 -2.81918 0
M  V30 3563 O 340.931 -3.1379 -4.47435 0
M  V30 3564 H 338.025 -0.445303 -0.696875 0
M  V30 3565 H 340.571 -1.44833 -0.884385 0
M  V30 3566 H 339.343 -3.15443 -2.31541 0
M  V30 3567 H 338.966 -1.90481 -3.49002 0
M  V30 3568 N 339.963 1.05934 -1.16686 0
M  V30 3569 C 340.873 2.17014 -0.891183 0
M  V30 3570 C 341.889 1.73453 0.137907 0
M  V30 3571 O 343.065 2.01361 -0.039592 0
M  V30 3572 C 340.13 3.44384 -0.400099 0
M  V30 3573 C 339.191 4.02433 -1.49486 0
M  V30 3574 C 338.424 5.23723 -1.02711 0
M  V30 3575 O 338.647 5.7027 0.121716 0
M  V30 3576 O 337.581 5.7382 -1.81699 0
M  V30 3577 H 341.407 2.43113 -1.82015 0
M  V30 3578 H 338.992 1.15541 -0.947132 0
M  V30 3579 H 340.874 4.21189 -0.133392 0
M  V30 3580 H 339.549 3.19802 0.500817 0
M  V30 3581 H 338.456 3.27102 -1.81535 0
M  V30 3582 H 339.789 4.31317 -2.37121 0
M  V30 3583 N 341.441 0.965919 1.2453 0
M  V30 3584 C 342.69 0.622437 1.91856 0
M  V30 3585 C 343.003 -0.846006 1.76358 0
M  V30 3586 O 344.209 -1.29993 2.38357 0
M  V30 3587 C 342.665 1.0626 3.43856 0
M  V30 3588 C 342.273 2.55437 3.68043 0
M  V30 3589 C 344.017 0.792183 4.17043 0
M  V30 3590 C 341.924 2.93196 5.13605 0
M  V30 3591 H 340.854 0.229092 0.718354 0
M  V30 3592 H 343.505 1.17189 1.41206 0
M  V30 3593 H 341.887 0.441476 3.93531 0
M  V30 3594 H 343.061 3.22665 3.28974 0
M  V30 3595 H 341.376 2.8007 3.08139 0
M  V30 3596 H 343.973 1.05031 5.24283 0
M  V30 3597 H 344.316 -0.271584 4.15413 0
M  V30 3598 H 344.849 1.37419 3.73311 0
M  V30 3599 H 341.588 3.98636 5.20355 0
M  V30 3600 H 341.108 2.30651 5.53679 0
M  V30 3601 H 342.787 2.83004 5.81823 0
M  V30 3602 N 342.919 -1.39368 0.735821 0
M  V30 3603 C 344.196 -1.94465 0.210395 0
M  V30 3604 C 344.576 -1.67254 -1.28799 0
M  V30 3605 O 343.924 -1.00123 -2.05396 0
M  V30 3606 C 344.134 -3.4472 0.544897 0
M  V30 3607 C 345.482 -4.21708 0.494689 0
M  V30 3608 O 346.506 -3.52922 0.482136 0
M  V30 3609 O 345.365 -5.44299 0.489947 0
M  V30 3610 H 342.459 -0.826096 0.0386666 0
M  V30 3611 H 345.005 -1.48863 0.814735 0
M  V30 3612 H 343.777 -3.57963 1.58045 0
M  V30 3613 H 343.4 -3.97502 -0.08837 0
M  V30 3614 N 344.397 -0.483516 -1.5 0
M  V30 3615 C 345.674 0.129337 -1.95172 0
M  V30 3616 C 346.054 1.55802 -1.4244 0
M  V30 3617 O 345.402 2.19625 -0.630649 0
M  V30 3618 C 345.612 0.0599251 -3.48949 0
M  V30 3619 C 346.96 0.242617 -4.23906 0
M  V30 3620 O 347.984 0.135933 -3.55941 0
M  V30 3621 O 346.843 0.459454 -5.44565 0
M  V30 3622 H 343.937 0.104887 -0.820322 0
M  V30 3623 H 346.483 -0.544807 -1.60717 0
M  V30 3624 H 345.255 -0.937079 -3.79914 0
M  V30 3625 H 344.878 0.774984 -3.89974 0
M  V30 3626 N 345.875 1.56104 -0.216619 0
M  V30 3627 C 347.105 2.02269 0.420802 0
M  V30 3628 C 347.513 1.09575 1.5424 0
M  V30 3629 O 346.856 0.0967308 1.83445 0
M  V30 3630 C 346.918 3.44784 1.01806 0
M  V30 3631 C 346.582 4.56988 0.0325154 0
M  V30 3632 C 347.579 5.14225 -0.766055 0
M  V30 3633 C 345.264 5.02228 -0.0848092 0
M  V30 3634 C 347.258 6.15169 -1.6687 0
M  V30 3635 C 344.945 6.03011 -0.990994 0
M  V30 3636 C 345.943 6.59357 -1.78149 0
M  V30 3637 O 345.631 7.58179 -2.67245 0
M  V30 3638 H 345.363 0.667353 0.107776 0
M  V30 3639 H 347.917 2.02747 -0.329034 0
M  V30 3640 H 346.147 3.41359 1.81689 0
M  V30 3641 H 347.836 3.74626 1.56237 0
M  V30 3642 H 348.602 4.80126 -0.685836 0
M  V30 3643 H 344.481 4.58054 0.520349 0
M  V30 3644 H 348.025 6.59076 -2.28615 0
M  V30 3645 H 343.922 6.36532 -1.07225 0
M  V30 3646 H 344.69 7.75682 -2.61265 0
M  V30 3647 N 347.353 -0.0568162 1.57498 0
M  V30 3648 C 348.283 -1.06593 2.0775 0
M  V30 3649 C 349.264 -1.39448 0.974082 0
M  V30 3650 O 350.449 -1.48815 1.24771 0
M  V30 3651 C 347.579 -2.37509 2.5339 0
M  V30 3652 C 346.533 -2.1897 3.67745 0
M  V30 3653 C 345.859 -3.55402 3.99492 0
M  V30 3654 C 347.159 -1.59859 4.97235 0
M  V30 3655 H 348.853 -0.647706 2.9231 0
M  V30 3656 H 346.399 -0.310116 1.40621 0
M  V30 3657 H 348.352 -3.08409 2.87162 0
M  V30 3658 H 347.076 -2.8134 1.65878 0
M  V30 3659 H 345.735 -1.50508 3.3428 0
M  V30 3660 H 345.383 -3.9683 3.09088 0
M  V30 3661 H 345.083 -3.43831 4.76502 0
M  V30 3662 H 346.607 -4.27708 4.35773 0
M  V30 3663 H 348.021 -2.20642 5.29141 0
M  V30 3664 H 346.418 -1.58942 5.78669 0
M  V30 3665 H 347.488 -0.561506 4.81638 0
M  V30 3666 N 348.832 -1.54138 -0.328536 0
M  V30 3667 C 349.742 -1.86192 -1.42723 0
M  V30 3668 C 350.758 -0.753382 -1.56844 0
M  V30 3669 O 351.934 -1.04718 -1.72035 0
M  V30 3670 C 348.999 -2.07824 -2.77507 0
M  V30 3671 C 348.06 -3.31641 -2.72603 0
M  V30 3672 C 347.293 -3.52232 -4.00959 0
M  V30 3673 O 347.516 -2.7636 -4.9898 0
M  V30 3674 O 346.45 -4.45699 -4.0452 0
M  V30 3675 H 350.276 -2.79608 -1.18547 0
M  V30 3676 H 347.861 -1.3998 -0.522104 0
M  V30 3677 H 349.743 -2.23411 -3.57303 0
M  V30 3678 H 348.418 -1.17596 -3.01584 0
M  V30 3679 H 347.325 -3.21444 -1.91376 0
M  V30 3680 H 348.658 -4.2191 -2.53481 0
M  V30 3681 N 350.31 0.590341 -1.46126 0
M  V30 3682 C 351.558 1.34616 -1.50742 0
M  V30 3683 C 351.879 1.94363 -0.157486 0
M  V30 3684 O 351.149 1.78136 0.815136 0
M  V30 3685 H 349.729 0.499789 -0.555175 0
M  V30 3686 H 352.391 0.691953 -1.82203 0
M  V30 3687 H 351.487 2.15678 -2.25587 0
M  V30 3688 N 351.788 1.33704 0.83433 0
M  V30 3689 C 352.735 1.24335 1.94447 0
M  V30 3690 C 353.705 0.120991 1.65659 0
M  V30 3691 O 354.89 0.300035 1.88426 0
M  V30 3692 C 352.03 0.993124 3.30501 0
M  V30 3693 C 351.143 2.20217 3.71657 0
M  V30 3694 C 350.278 1.88572 4.96602 0
M  V30 3695 C 349.317 3.05683 5.30306 0
M  V30 3696 N 348.454 2.73997 6.46429 0
M  V30 3697 H 353.294 2.1928 2.01792 0
M  V30 3698 H 350.831 1.09035 0.987404 0
M  V30 3699 H 352.789 0.828467 4.08892 0
M  V30 3700 H 351.419 0.0803902 3.227 0
M  V30 3701 H 350.471 2.47642 2.88752 0
M  V30 3702 H 351.783 3.07752 3.92543 0
M  V30 3703 H 350.937 1.68776 5.82752 0
M  V30 3704 H 349.676 0.982799 4.77695 0
M  V30 3705 H 348.681 3.26088 4.42659 0
M  V30 3706 H 349.906 3.96737 5.51159 0
M  V30 3707 H 347.852 1.86268 6.28999 0
M  V30 3708 H 347.769 3.55064 6.67432 0
M  V30 3709 H 349.037 2.57679 7.35678 0
M  V30 3710 N 353.266 -1.05314 1.17247 0
M  V30 3711 C 354.176 -2.16538 0.90268 0
M  V30 3712 C 355.192 -1.73523 -0.128707 0
M  V30 3713 O 356.368 -2.01337 0.0502701 0
M  V30 3714 C 353.433 -3.44167 0.418356 0
M  V30 3715 C 352.494 -4.01635 1.51618 0
M  V30 3716 C 351.727 -5.23171 1.05487 0
M  V30 3717 O 351.95 -5.70327 -0.0914715 0
M  V30 3718 O 350.884 -5.72848 1.8474 0
M  V30 3719 H 354.71 -2.42145 1.83302 0
M  V30 3720 H 352.295 -1.15037 0.953246 0
M  V30 3721 H 354.177 -4.21112 0.155726 0
M  V30 3722 H 352.852 -3.20063 -0.48385 0
M  V30 3723 H 351.759 -3.26135 1.83268 0
M  V30 3724 H 353.092 -4.30053 2.39405 0
M  V30 3725 N 354.744 -0.972509 -1.24016 0
M  V30 3726 C 355.99 -0.637978 -1.92504 0
M  V30 3727 C 356.323 0.825383 -1.75787 0
M  V30 3728 O 355.598 1.59442 -1.11393 0
M  V30 3729 C 355.881 -1.01942 -3.45369 0
M  V30 3730 C 355.734 -2.53983 -3.71231 0
M  V30 3731 C 357.053 -0.55751 -4.36555 0
M  V30 3732 H 354.172 -0.233248 -0.699117 0
M  V30 3733 H 356.814 -1.21238 -1.46292 0
M  V30 3734 H 354.964 -0.530656 -3.84859 0
M  V30 3735 H 356.636 -3.10374 -3.41271 0
M  V30 3736 H 354.879 -2.96968 -3.16216 0
M  V30 3737 H 355.55 -2.75723 -4.78206 0
M  V30 3738 H 358.026 -0.977029 -4.04467 0
M  V30 3739 H 356.902 -0.85292 -5.42233 0
M  V30 3740 H 357.163 0.542328 -4.38761 0
M  V30 3741 N 356.222 1.38976 -0.743202 0
M  V30 3742 C 357.447 2.05161 -0.303936 0
M  V30 3743 C 357.872 1.55677 1.05576 0
M  V30 3744 O 357.23 0.704131 1.67068 0
M  V30 3745 C 357.278 3.59138 -0.324373 0
M  V30 3746 O 356.382 4.06668 0.685204 0
M  V30 3747 H 355.723 0.649815 -0.136518 0
M  V30 3748 H 358.253 1.77852 -1.01142 0
M  V30 3749 H 358.263 4.07639 -0.171618 0
M  V30 3750 H 356.938 3.94515 -1.31647 0
M  V30 3751 H 355.515 3.69561 0.497913 0
M  V30 3752 N 357.7 0.491464 1.49741 0
M  V30 3753 C 358.663 -0.280906 2.27472 0
M  V30 3754 C 359.663 -0.902454 1.33088 0
M  V30 3755 O 360.853 -0.768465 1.56334 0
M  V30 3756 C 357.985 -1.40209 3.10732 0
M  V30 3757 H 359.178 0.401056 2.97206 0
M  V30 3758 H 356.731 0.246131 1.5435 0
M  V30 3759 H 357.466 -2.11849 2.45541 0
M  V30 3760 H 357.251 -0.961969 3.80117 0
M  V30 3761 H 358.741 -1.9464 3.69466 0
M  V30 3762 N 359.178 -1.55987 0.224894 0
M  V30 3763 C 360.125 -2.20436 -0.68385 0
M  V30 3764 C 361.095 -1.16102 -1.18783 0
M  V30 3765 O 362.28 -1.4447 -1.24632 0
M  V30 3766 C 359.42 -2.89076 -1.88491 0
M  V30 3767 C 358.533 -4.08012 -1.41951 0
M  V30 3768 C 357.668 -4.64426 -2.5784 0
M  V30 3769 C 356.707 -5.75656 -2.08053 0
M  V30 3770 N 355.844 -6.26347 -3.17227 0
M  V30 3771 H 360.684 -2.97727 -0.12754 0
M  V30 3772 H 358.221 -1.47011 -0.0511978 0
M  V30 3773 H 360.179 -3.27059 -2.59014 0
M  V30 3774 H 358.809 -2.14298 -2.41405 0
M  V30 3775 H 357.861 -3.75492 -0.609095 0
M  V30 3776 H 359.173 -4.88375 -1.01447 0
M  V30 3777 H 358.327 -5.04869 -3.3644 0
M  V30 3778 H 357.066 -3.83233 -3.01635 0
M  V30 3779 H 356.071 -5.34712 -1.27916 0
M  V30 3780 H 357.296 -6.58686 -1.65255 0
M  V30 3781 H 355.242 -5.48067 -3.60497 0
M  V30 3782 H 355.159 -7.01843 -2.80986 0
M  V30 3783 H 356.427 -6.71447 -3.95953 0
M  V30 3784 N 360.656 0.0484629 -1.57525 0
M  V30 3785 C 361.902 0.744226 -1.88651 0
M  V30 3786 C 362.235 1.76029 -0.820212 0
M  V30 3787 O 361.51 1.93782 0.166985 0
M  V30 3788 C 361.793 1.43128 -3.30434 0
M  V30 3789 C 361.646 0.43005 -4.47739 0
M  V30 3790 C 362.965 2.37031 -3.70816 0
M  V30 3791 H 360.084 0.269089 -0.68612 0
M  V30 3792 H 362.726 0.00713532 -1.89999 0
M  V30 3793 H 360.876 2.05956 -3.29415 0
M  V30 3794 H 362.548 -0.194816 -4.60888 0
M  V30 3795 H 360.791 -0.252522 -4.33064 0
M  V30 3796 H 361.462 0.948874 -5.43783 0
M  V30 3797 H 363.938 1.84263 -3.73077 0
M  V30 3798 H 362.814 2.82094 -4.70865 0
M  V30 3799 H 363.075 3.22864 -3.02012 0
M  V30 3800 N 362.134 1.5431 0.320358 0
M  V30 3801 C 363.359 1.76954 1.08175 0
M  V30 3802 C 363.784 0.518193 1.80821 0
M  V30 3803 O 363.142 -0.530411 1.73368 0
M  V30 3804 C 363.19 2.96451 2.05303 0
M  V30 3805 O 362.294 2.68221 3.13259 0
M  V30 3806 H 361.635 0.586275 0.311733 0
M  V30 3807 H 364.165 2.01342 0.363676 0
M  V30 3808 H 364.175 3.23887 2.48116 0
M  V30 3809 H 362.85 3.87196 1.51829 0
M  V30 3810 H 361.427 2.51744 2.75099 0
M  V30 3811 N 363.613 -0.582584 1.46437 0
M  V30 3812 C 364.523 -1.71949 1.59595 0
M  V30 3813 C 365.539 -1.67264 0.479443 0
M  V30 3814 O 366.715 -1.87171 0.743579 0
M  V30 3815 C 363.78 -3.08452 1.58298 0
M  V30 3816 C 362.841 -3.244 2.81182 0
M  V30 3817 C 362.074 -4.54391 2.79937 0
M  V30 3818 O 362.297 -5.38287 1.8869 0
M  V30 3819 O 361.231 -4.73588 3.71481 0
M  V30 3820 H 365.057 -1.63795 2.55744 0
M  V30 3821 H 362.642 -0.749643 1.29231 0
M  V30 3822 H 364.524 -3.89732 1.60271 0
M  V30 3823 H 363.199 -3.17043 0.653094 0
M  V30 3824 H 362.106 -2.42613 2.84763 0
M  V30 3825 H 363.439 -3.20699 3.7338 0
M  V30 3826 N 365.091 -1.34144 -0.827227 0
M  V30 3827 C 366.054 -1.25264 -1.91942 0
M  V30 3828 C 367.054 -0.168866 -1.59911 0
M  V30 3829 O 368.244 -0.421198 -1.69031 0
M  V30 3830 C 365.376 -0.932952 -3.27885 0
M  V30 3831 H 366.569 -2.22357 -2.0124 0
M  V30 3832 H 364.122 -1.1837 -1.0207 0
M  V30 3833 H 364.857 0.0349917 -3.24281 0
M  V30 3834 H 364.642 -1.71682 -3.52516 0
M  V30 3835 H 366.132 -0.895874 -4.07877 0
M  V30 3836 N 366.569 1.04691 -1.17803 0
M  V30 3837 C 367.499 2.14494 -0.92275 0
M  V30 3838 C 368.48 1.69546 0.137179 0
M  V30 3839 O 369.665 1.94195 -0.0141108 0
M  V30 3840 C 366.795 3.44491 -0.440803 0
M  V30 3841 C 365.749 4.03031 -1.4405 0
M  V30 3842 C 365.075 5.28432 -0.81631 0
M  V30 3843 C 366.375 4.39932 -2.81527 0
M  V30 3844 H 368.069 2.36107 -1.84103 0
M  V30 3845 H 365.615 1.1347 -0.886599 0
M  V30 3846 H 367.568 4.2066 -0.249602 0
M  V30 3847 H 366.292 3.22546 0.513025 0
M  V30 3848 H 364.951 3.28937 -1.61853 0
M  V30 3849 H 364.599 5.02792 0.144511 0
M  V30 3850 H 364.299 5.68559 -1.48371 0
M  V30 3851 H 365.823 6.07284 -0.635496 0
M  V30 3852 H 367.237 5.07113 -2.67412 0
M  V30 3853 H 365.634 4.9109 -3.44892 0
M  V30 3854 H 366.704 3.50045 -3.35554 0
M  V30 3855 N 368.047 0.979072 1.23499 0
M  V30 3856 C 368.957 0.526431 2.28617 0
M  V30 3857 C 369.973 -0.418126 1.68901 0
M  V30 3858 O 371.149 -0.288372 1.99325 0
M  V30 3859 C 368.214 -0.165235 3.46306 0
M  V30 3860 C 367.275 0.82056 4.21385 0
M  V30 3861 C 366.508 0.161807 5.33455 0
M  V30 3862 O 366.731 -1.04742 5.60701 0
M  V30 3863 O 365.665 0.859708 5.95729 0
M  V30 3864 H 369.491 1.4006 2.69475 0
M  V30 3865 H 367.076 0.746643 1.29405 0
M  V30 3866 H 368.958 -0.553287 4.17752 0
M  V30 3867 H 367.633 -1.01419 3.07402 0
M  V30 3868 H 366.54 1.25929 3.52268 0
M  V30 3869 H 367.873 1.63828 4.64135 0
M  V30 3870 N 369.525 -1.3858 0.750561 0
M  V30 3871 C 370.472 -2.30483 0.120835 0
M  V30 3872 C 371.442 -1.50022 -0.712923 0
M  V30 3873 O 372.627 -1.78662 -0.669676 0
M  V30 3874 C 369.767 -3.36431 -0.768666 0
M  V30 3875 C 368.88 -4.31927 0.0793922 0
M  V30 3876 C 368.015 -5.24944 -0.81283 0
M  V30 3877 C 367.054 -6.12088 0.0390447 0
M  V30 3878 N 366.191 -6.97412 -0.809969 0
M  V30 3879 H 371.031 -2.83761 0.91015 0
M  V30 3880 H 368.568 -1.39707 0.460463 0
M  V30 3881 H 370.526 -3.96462 -1.29898 0
M  V30 3882 H 369.156 -2.8457 -1.5238 0
M  V30 3883 H 368.208 -3.73382 0.727303 0
M  V30 3884 H 369.52 -4.93319 0.737401 0
M  V30 3885 H 368.674 -5.90078 -1.41042 0
M  V30 3886 H 367.413 -4.63911 -1.50458 0
M  V30 3887 H 366.418 -5.45952 0.649328 0
M  V30 3888 H 367.643 -6.75189 0.727809 0
M  V30 3889 H 365.589 -6.38931 -1.48672 0
M  V30 3890 H 365.506 -7.55712 -0.208789 0
M  V30 3891 H 366.774 -7.66959 -1.39263 0
M  V30 3892 N 371.003 -0.499398 -1.49478 0
M  V30 3893 C 372.419 -0.155261 -1.58843 0
M  V30 3894 C 372.619 1.34008 -1.50479 0
M  V30 3895 O 371.675 2.11589 -1.37791 0
M  V30 3896 C 372.988 -0.730636 -2.91689 0
M  V30 3897 C 374.536 -0.696599 -3.0515 0
M  V30 3898 C 375.011 -1.25001 -4.40612 0
M  V30 3899 N 376.502 -1.21064 -4.47099 0
M  V30 3900 C 377.237 -1.60905 -5.50361 0
M  V30 3901 N 376.733 -2.08331 -6.60735 0
M  V30 3902 N 378.526 -1.52331 -5.41065 0
M  V30 3903 H 370.677 -1.47162 -1.53158 0
M  V30 3904 H 372.94 -0.610309 -0.725415 0
M  V30 3905 H 372.646 -1.77928 -3.03372 0
M  V30 3906 H 372.52 -0.190161 -3.7672 0
M  V30 3907 H 374.907 0.343204 -2.93097 0
M  V30 3908 H 374.988 -1.2742 -2.21806 0
M  V30 3909 H 374.632 -2.28859 -4.53416 0
M  V30 3910 H 374.562 -0.64836 -5.22593 0
M  V30 3911 H 377.053 -0.863128 -3.67911 0
M  V30 3912 H 377.366 -2.36805 -7.35624 0
M  V30 3913 H 375.711 -2.12304 -6.6178 0
M  V30 3914 H 378.902 -1.151 -4.53729 0
M  V30 3915 H 379.075 -1.83704 -6.21415 0
M  V30 3916 N 372.481 1.55866 -0.233164 0
M  V30 3917 C 373.711 2.02704 0.399325 0
M  V30 3918 C 374.119 1.11204 1.53069 0
M  V30 3919 O 373.462 0.116182 1.83332 0
M  V30 3920 C 373.524 3.45844 0.981429 0
M  V30 3921 C 373.188 4.56997 -0.0159561 0
M  V30 3922 C 374.185 5.13384 -0.820552 0
M  V30 3923 C 371.87 5.0211 -0.138072 0
M  V30 3924 C 373.864 6.13365 -1.73386 0
M  V30 3925 C 371.551 6.01926 -1.0549 0
M  V30 3926 C 372.549 6.57431 -1.85132 0
M  V30 3927 O 372.237 7.55302 -2.75272 0
M  V30 3928 H 371.969 0.668459 0.100692 0
M  V30 3929 H 374.523 2.02387 -0.35052 0
M  V30 3930 H 372.753 3.43267 1.78058 0
M  V30 3931 H 374.442 3.76262 1.52255 0
M  V30 3932 H 375.208 4.79372 -0.736721 0
M  V30 3933 H 371.087 4.5858 0.471737 0
M  V30 3934 H 374.631 6.56614 -2.35592 0
M  V30 3935 H 370.528 6.35359 -1.1397 0
M  V30 3936 H 371.296 7.72867 -2.69477 0
M  V30 3937 N 373.959 -0.0401083 1.57549 0
M  V30 3938 C 375.184 -0.748931 1.93406 0
M  V30 3939 C 375.609 -1.68686 0.832274 0
M  V30 3940 O 374.967 -1.80047 -0.212818 0
M  V30 3941 C 375.015 -1.4916 3.28304 0
M  V30 3942 O 374.119 -2.6042 3.19774 0
M  V30 3943 H 373.46 -0.202212 0.63246 0
M  V30 3944 H 375.99 0.00112086 2.046 0
M  V30 3945 H 376 -1.86395 3.62934 0
M  V30 3946 H 374.675 -0.80364 4.08062 0
M  V30 3947 H 373.252 -2.25808 2.96758 0
M  V30 3948 N 375.437 -1.54477 -0.31217 0
M  V30 3949 C 376.37 -1.79519 -1.40884 0
M  V30 3950 C 377.348 -0.645753 -1.49227 0
M  V30 3951 O 378.532 -0.884468 -1.66461 0
M  V30 3952 C 375.659 -1.92194 -2.78889 0
M  V30 3953 C 374.705 -3.14555 -2.88023 0
M  V30 3954 S 375.538 -4.72893 -2.51262 0
M  V30 3955 C 376.694 -4.8849 -3.91317 0
M  V30 3956 H 376.927 -2.72256 -1.19432 0
M  V30 3957 H 374.46 -1.45746 -0.509654 0
M  V30 3958 H 376.418 -2.00182 -3.58382 0
M  V30 3959 H 375.079 -1.00414 -2.97617 0
M  V30 3960 H 374.272 -3.20193 -3.89221 0
M  V30 3961 H 373.874 -3.04955 -2.16514 0
M  V30 3962 H 376.166 -4.71826 -4.86196 0
M  V30 3963 H 377.109 -5.90588 -3.90656 0
M  V30 3964 H 377.517 -4.16715 -3.80801 0
M  V30 3965 N 376.915 0.57481 -1.46744 0
M  V30 3966 C 378.143 1.35856 -1.56047 0
M  V30 3967 C 378.558 1.87691 -0.204365 0
M  V30 3968 O 377.915 1.64049 0.79963 0
M  V30 3969 C 377.966 2.54066 -2.57163 0
M  V30 3970 O 377.687 2.04377 -3.87507 0
M  V30 3971 C 379.188 3.46514 -2.76483 0
M  V30 3972 H 376.408 0.414754 -0.527466 0
M  V30 3973 H 378.952 0.698035 -1.92218 0
M  V30 3974 H 377.107 3.16092 -2.23974 0
M  V30 3975 H 377.521 2.81419 -4.4261 0
M  V30 3976 H 378.995 4.25919 -3.51137 0
M  V30 3977 H 379.472 3.98951 -1.83671 0
M  V30 3978 H 380.078 2.90318 -3.10799 0
M  V30 3979 N 378.394 1.34581 0.820102 0
M  V30 3980 C 379.304 1.28471 1.96297 0
M  V30 3981 C 380.32 0.191902 1.72939 0
M  V30 3982 O 381.496 0.418879 1.96996 0
M  V30 3983 C 378.561 1.04281 3.30645 0
M  V30 3984 C 377.622 2.22745 3.66992 0
M  V30 3985 C 376.855 1.997 4.9493 0
M  V30 3986 O 377.078 0.956656 5.6232 0
M  V30 3987 O 376.012 2.86723 5.2922 0
M  V30 3988 H 379.838 2.24624 2.04396 0
M  V30 3989 H 377.423 1.14816 0.955913 0
M  V30 3990 H 379.305 0.925841 4.11104 0
M  V30 3991 H 377.98 0.111697 3.23507 0
M  V30 3992 H 376.887 2.40003 2.86966 0
M  V30 3993 H 378.22 3.14257 3.78819 0
M  V30 3994 N 379.872 -1.04064 1.18357 0
M  V30 3995 C 380.822 -2.10393 0.878561 0
M  V30 3996 C 381.806 -1.60183 -0.151713 0
M  V30 3997 O 382.998 -1.76923 0.0523303 0
M  V30 3998 C 380.127 -3.4089 0.406096 0
M  V30 3999 C 379.213 -3.97866 1.46844 0
M  V30 4000 N 379.604 -4.28657 2.68489 0
M  V30 4001 C 377.902 -4.2574 1.32896 0
M  V30 4002 C 378.603 -4.74253 3.36836 0
M  V30 4003 N 377.579 -4.75068 2.64219 0
M  V30 4004 H 381.381 -2.32076 1.80327 0
M  V30 4005 H 378.895 -1.21818 1.07397 0
M  V30 4006 H 380.892 -4.16557 0.169088 0
M  V30 4007 H 379.552 -3.20633 -0.512275 0
M  V30 4008 H 380.563 -4.18304 3.05356 0
M  V30 4009 H 377.24 -4.1481 0.473134 0
M  V30 4010 H 378.63 -5.07096 4.40798 0
M  V30 4011 N 381.35 -0.985608 -1.22978 0
M  V30 4012 C 382.297 -0.529825 -2.24636 0
M  V30 4013 C 383.267 0.434028 -1.60329 0
M  V30 4014 O 384.452 0.340414 -1.87739 0
M  V30 4015 C 381.592 0.156533 -3.44745 0
M  V30 4016 C 380.705 -0.848197 -4.23591 0
M  V30 4017 C 379.84 -0.136109 -5.31026 0
M  V30 4018 C 378.879 -1.1297 -6.01585 0
M  V30 4019 N 378.016 -0.446415 -7.00679 0
M  V30 4020 H 382.856 -1.40148 -2.62988 0
M  V30 4021 H 380.393 -0.702168 -1.29259 0
M  V30 4022 H 382.351 0.571324 -4.1327 0
M  V30 4023 H 380.981 0.992025 -3.07179 0
M  V30 4024 H 380.033 -1.38135 -3.54433 0
M  V30 4025 H 381.345 -1.60512 -4.72268 0
M  V30 4026 H 380.499 0.335784 -6.0577 0
M  V30 4027 H 379.238 0.653373 -4.83304 0
M  V30 4028 H 378.243 -1.6123 -5.25628 0
M  V30 4029 H 379.468 -1.91993 -6.51395 0
M  V30 4030 H 377.414 0.323763 -6.55201 0
M  V30 4031 H 377.331 -1.1419 -7.47326 0
M  V30 4032 H 378.599 0.00291697 -7.795 0
M  V30 4033 N 382.828 1.3818 -0.7579 0
M  V30 4034 C 384.244 1.5353 -0.435972 0
M  V30 4035 C 384.444 1.71961 1.05032 0
M  V30 4036 O 383.5 1.73307 1.83633 0
M  V30 4037 C 384.813 2.73989 -1.23898 0
M  V30 4038 C 386.361 2.87841 -1.22949 0
M  V30 4039 C 386.836 4.11266 -2.01554 0
M  V30 4040 N 388.327 4.18352 -1.98837 0
M  V30 4041 C 389.062 5.12856 -2.5645 0
M  V30 4042 N 388.558 6.13005 -3.22794 0
M  V30 4043 N 390.351 5.05238 -2.46356 0
M  V30 4044 H 382.502 1.24467 -1.7211 0
M  V30 4045 H 384.765 0.604982 -0.729864 0
M  V30 4046 H 384.471 2.66789 -2.29165 0
M  V30 4047 H 384.345 3.67294 -0.858764 0
M  V30 4048 H 386.732 2.9452 -0.184854 0
M  V30 4049 H 386.813 1.95534 -1.64924 0
M  V30 4050 H 386.457 4.05349 -3.06031 0
M  V30 4051 H 386.387 5.02661 -1.5697 0
M  V30 4052 H 388.878 3.46628 -1.50524 0
M  V30 4053 H 389.191 6.81619 -3.64165 0
M  V30 4054 H 387.536 6.13325 -3.2689 0
M  V30 4055 H 390.727 4.25938 -1.9415 0
M  V30 4056 H 390.9 5.78707 -2.91552 0
M  V30 4057 N 384.306 0.507319 1.49211 0
M  V30 4058 C 385.238 -0.304532 2.27168 0
M  V30 4059 C 386.251 -0.924956 1.33972 0
M  V30 4060 O 387.44 -0.807227 1.59205 0
M  V30 4061 C 384.54 -1.44431 3.06583 0
M  V30 4062 C 383.713 -0.930026 4.27398 0
M  V30 4063 C 382.772 -1.94817 4.88807 0
M  V30 4064 O 381.798 -1.51418 5.4869 0
M  V30 4065 N 383 -3.279 4.79022 0
M  V30 4066 H 385.765 0.36395 2.97482 0
M  V30 4067 H 383.326 0.340249 1.58284 0
M  V30 4068 H 385.318 -2.12311 3.44537 0
M  V30 4069 H 383.888 -2.01684 2.38835 0
M  V30 4070 H 383.108 -0.0759244 3.94127 0
M  V30 4071 H 384.396 -0.564932 5.05654 0
M  V30 4072 H 383.794 -3.65843 4.3148 0
M  V30 4073 H 382.351 -3.91476 5.21142 0
M  V30 4074 N 385.784 -1.5574 0.241426 0
M  V30 4075 C 387.03 -1.99104 -0.385406 0
M  V30 4076 C 387.363 -1.1293 -1.57988 0
M  V30 4077 O 386.638 -0.191449 -1.93555 0
M  V30 4078 C 386.921 -3.51087 -0.800616 0
M  V30 4079 C 386.774 -4.48028 0.398874 0
M  V30 4080 C 388.093 -4.08015 -1.64959 0
M  V30 4081 H 385.212 -0.723848 -0.138614 0
M  V30 4082 H 387.854 -1.86903 0.341642 0
M  V30 4083 H 386.004 -3.61615 -1.4201 0
M  V30 4084 H 387.676 -4.49487 1.03726 0
M  V30 4085 H 385.919 -4.21077 1.04293 0
M  V30 4086 H 386.59 -5.51962 0.0651056 0
M  V30 4087 H 389.066 -4.00555 -1.12672 0
M  V30 4088 H 387.942 -5.14635 -1.90898 0
M  V30 4089 H 388.203 -3.56131 -2.61961 0
M  V30 4090 N 387.262 0.0317525 -1.57568 0
M  V30 4091 C 388.673 0.578692 -1.77505 0
M  V30 4092 C 389.024 1.75749 -0.872164 0
M  V30 4093 O 388.149 2.16298 -0.0663106 0
M  V30 4094 C 388.744 1.05658 -3.21904 0
M  V30 4095 C 387.303 1.54906 -3.43047 0
M  V30 4096 C 386.45 0.485939 -2.73009 0
M  V30 4097 H 389.401 -0.194475 -1.57504 0
M  V30 4098 H 389.422 1.92404 -3.28269 0
M  V30 4099 H 388.934 0.198422 -3.87592 0
M  V30 4100 H 387.035 2.42915 -2.82529 0
M  V30 4101 H 387.148 1.59841 -4.5165 0
M  V30 4102 H 385.512 0.940354 -2.36705 0
M  V30 4103 H 386.295 -0.362709 -3.41379 0
M  V30 4104 N 388.74 1.54641 0.303973 0
M  V30 4105 C 389.703 1.84646 1.35789 0
M  V30 4106 C 390.703 0.7192 1.4382 0
M  V30 4107 O 391.893 0.987491 1.43507 0
M  V30 4108 C 389.025 2.02407 2.74307 0
M  V30 4109 H 390.218 2.78829 1.10429 0
M  V30 4110 H 387.771 1.46658 0.540487 0
M  V30 4111 H 388.506 1.10502 3.04893 0
M  V30 4112 H 388.291 2.84453 2.69868 0
M  V30 4113 H 389.781 2.27002 3.50514 0
M  V30 4114 N 390.218 -0.567019 1.47046 0
M  V30 4115 C 391.443 -1.3551 1.57009 0
M  V30 4116 C 391.868 -1.86841 0.217259 0
M  V30 4117 O 391.226 -1.62435 -0.805268 0
M  V30 4118 C 391.274 -2.50777 2.5912 0
M  V30 4119 O 390.378 -3.52706 2.13711 0
M  V30 4120 H 389.719 -0.402919 0.52778 0
M  V30 4121 H 392.249 -0.686241 1.92748 0
M  V30 4122 H 392.259 -2.97481 2.79229 0
M  V30 4123 H 390.934 -2.12771 3.57353 0
M  V30 4124 H 389.511 -3.12374 2.03659 0
M  V30 4125 N 391.696 -1.35014 -0.812953 0
M  V30 4126 C 392.629 -1.21761 -1.93001 0
M  V30 4127 C 393.607 -0.10694 -1.62248 0
M  V30 4128 O 394.791 -0.273891 -1.865 0
M  V30 4129 C 391.918 -0.873404 -3.27245 0
M  V30 4130 C 390.964 -1.99523 -3.76952 0
M  V30 4131 S 391.797 -3.61009 -3.95516 0
M  V30 4132 C 392.953 -3.28651 -5.32672 0
M  V30 4133 H 393.186 -2.16315 -2.03948 0
M  V30 4134 H 390.719 -1.20156 -0.969631 0
M  V30 4135 H 392.677 -0.68161 -4.04802 0
M  V30 4136 H 391.338 0.053971 -3.14054 0
M  V30 4137 H 390.531 -1.70838 -4.74163 0
M  V30 4138 H 390.133 -2.14503 -3.06373 0
M  V30 4139 H 392.425 -2.81085 -6.1644 0
M  V30 4140 H 393.368 -4.25039 -5.66346 0
M  V30 4141 H 393.776 -2.6458 -4.98656 0
M  V30 4142 N 393.175 1.03435 -1.18907 0
M  V30 4143 C 394.422 1.76743 -0.988334 0
M  V30 4144 C 394.75 1.88447 0.481441 0
M  V30 4145 O 394.005 1.39383 1.37371 0
M  V30 4146 C 394.304 3.19792 -1.59586 0
M  V30 4147 C 393.97 3.28108 -3.09283 0
M  V30 4148 C 392.632 3.30084 -3.5014 0
M  V30 4149 C 394.984 3.27696 -4.05296 0
M  V30 4150 C 392.312 3.29299 -4.85571 0
M  V30 4151 C 394.664 3.28451 -5.4065 0
M  V30 4152 C 393.328 3.28723 -5.80946 0
M  V30 4153 H 392.598 0.64675 -0.361657 0
M  V30 4154 H 395.245 1.21442 -1.48068 0
M  V30 4155 H 393.55 3.78136 -1.02568 0
M  V30 4156 H 395.247 3.75171 -1.41589 0
M  V30 4157 H 391.837 3.27294 -2.76725 0
M  V30 4158 H 396.021 3.25354 -3.74778 0
M  V30 4159 H 391.277 3.2783 -5.16079 0
M  V30 4160 H 395.451 3.27082 -6.14809 0
M  V30 4161 H 393.078 3.27868 -6.85862 0
M  V30 4162 N 394.653 0.992116 1.22453 0
M  V30 4163 C 395.93 0.583508 1.86694 0
M  V30 4164 C 396.31 -0.9392 1.89056 0
M  V30 4165 O 395.658 -1.82081 1.38053 0
M  V30 4166 C 395.868 1.20304 3.2761 0
M  V30 4167 C 397.216 1.30308 4.0411 0
M  V30 4168 O 398.24 1.15737 3.36873 0
M  V30 4169 O 397.099 1.53615 5.24466 0
M  V30 4170 H 394.193 0.198129 0.802916 0
M  V30 4171 H 396.739 1.08794 1.30238 0
M  V30 4172 H 395.511 2.24461 3.2052 0
M  V30 4173 H 395.134 0.684144 3.9167 0
M  V30 4174 N 396.131 -1.37776 0.765217 0
M  V30 4175 C 397.408 -1.93975 0.251596 0
M  V30 4176 C 397.788 -1.69949 -1.25222 0
M  V30 4177 O 397.136 -1.04457 -2.03226 0
M  V30 4178 C 397.346 -3.43487 0.617895 0
M  V30 4179 C 398.694 -4.20564 0.584029 0
M  V30 4180 O 399.718 -3.5182 0.556888 0
M  V30 4181 O 398.577 -5.43138 0.605291 0
M  V30 4182 H 395.671 -0.82509 0.0561806 0
M  V30 4183 H 398.217 -1.47101 0.846128 0
M  V30 4184 H 396.989 -3.5453 1.65602 0
M  V30 4185 H 396.612 -3.976 -0.00403411 0
M  V30 4186 N 397.609 -0.515225 -1.4894 0
M  V30 4187 C 398.855 0.016187 -2.03394 0
M  V30 4188 C 399.21 1.33377 -1.38666 0
M  V30 4189 O 398.503 1.84461 -0.518141 0
M  V30 4190 C 398.697 0.210595 -3.56779 0
M  V30 4191 C 398.526 -1.08659 -4.36375 0
M  V30 4192 C 397.296 -1.64237 -4.77864 0
M  V30 4193 C 399.494 -1.9935 -4.74093 0
M  V30 4194 N 397.476 -2.88398 -5.41941 0
M  V30 4195 C 398.847 -3.08088 -5.38035 0
M  V30 4196 C 400.902 -1.99856 -4.56029 0
M  V30 4197 C 399.605 -4.17377 -5.85823 0
M  V30 4198 C 401.631 -3.08129 -5.04787 0
M  V30 4199 C 400.993 -4.15586 -5.68742 0
M  V30 4200 H 397.092 -0.0352107 -0.781207 0
M  V30 4201 H 399.676 -0.693237 -1.8194 0
M  V30 4202 H 397.847 0.889088 -3.78087 0
M  V30 4203 H 399.579 0.740287 -3.97872 0
M  V30 4204 H 396.334 -1.18566 -4.58518 0
M  V30 4205 H 396.758 -3.51572 -5.78555 0
M  V30 4206 H 401.4 -1.18079 -4.05977 0
M  V30 4207 H 399.118 -4.99943 -6.34888 0
M  V30 4208 H 402.704 -3.09557 -4.92611 0
M  V30 4209 H 401.584 -4.97987 -6.05787 0
M  V30 4210 N 399.087 1.5561 -0.249682 0
M  V30 4211 C 400.333 2.00044 0.367952 0
M  V30 4212 C 400.688 1.1349 1.55363 0
M  V30 4213 O 399.981 0.191079 1.90645 0
M  V30 4214 C 400.175 3.4775 0.824887 0
M  V30 4215 C 400.004 4.48596 -0.314973 0
M  V30 4216 C 398.774 4.99077 -0.790555 0
M  V30 4217 C 400.972 5.0144 -1.14291 0
M  V30 4218 N 398.954 5.83675 -1.90254 0
M  V30 4219 C 400.325 5.83236 -2.10322 0
M  V30 4220 C 402.38 4.83736 -1.17916 0
M  V30 4221 C 401.083 6.49217 -3.09692 0
M  V30 4222 C 403.109 5.50497 -2.16117 0
M  V30 4223 C 402.471 6.32084 -3.10884 0
M  V30 4224 H 398.57 0.775512 0.100522 0
M  V30 4225 H 401.154 1.91193 -0.367896 0
M  V30 4226 H 399.325 3.56994 1.53002 0
M  V30 4227 H 401.057 3.79056 1.4177 0
M  V30 4228 H 397.812 4.72119 -0.374218 0
M  V30 4229 H 398.236 6.30671 -2.46137 0
M  V30 4230 H 402.878 4.20286 -0.460352 0
M  V30 4231 H 400.596 7.11832 -3.8252 0
M  V30 4232 H 404.182 5.38752 -2.19631 0
M  V30 4233 H 403.062 6.82832 -3.8563 0
M  V30 4234 N 400.565 -0.0233959 1.57583 0
M  V30 4235 C 401.512 -1.02224 2.06927 0
M  V30 4236 C 402.482 -1.35575 0.959617 0
M  V30 4237 O 403.667 -1.45815 1.23055 0
M  V30 4238 C 400.807 -2.31636 2.5581 0
M  V30 4239 C 399.92 -2.04394 3.80588 0
M  V30 4240 C 399.055 -3.27717 4.18061 0
M  V30 4241 C 398.094 -2.96056 5.3574 0
M  V30 4242 N 397.231 -4.11847 5.68618 0
M  V30 4243 H 402.071 -0.594504 2.9201 0
M  V30 4244 H 399.608 -0.281921 1.44373 0
M  V30 4245 H 401.566 -3.07258 2.82221 0
M  V30 4246 H 400.196 -2.72122 1.73636 0
M  V30 4247 H 399.248 -1.19244 3.61227 0
M  V30 4248 H 400.56 -1.77042 4.66323 0
M  V30 4249 H 399.714 -4.11702 4.4563 0
M  V30 4250 H 398.453 -3.58188 3.30988 0
M  V30 4251 H 397.458 -2.10474 5.07918 0
M  V30 4252 H 398.683 -2.66857 6.24471 0
M  V30 4253 H 396.629 -4.42258 4.84504 0
M  V30 4254 H 396.546 -3.87938 6.48876 0
M  V30 4255 H 397.814 -4.96689 6.00766 0
M  V30 4256 O 402.082 -1.60643 -0.16613 0
M  V30 4257 H 402.773 -1.76304 -0.80228 0
M  V30 END ATOM
M  V30 BEGIN BOND
M  V30 END BOND
M  V30 END CTAB
M  END
$$$$
