drugbank_target|Q02252 Methylmalonate-semialdehyde dehydrogenase [acylating], mitochondrial (DB00157)
 OpenBabel12092119273D

  0  0  0     0  0            999 V3000
M  V30 BEGIN CTAB
M  V30 COUNTS 8167 8249 0 0 0
M  V30 BEGIN ATOM
M  V30 1 H -0.908 1.98254 -0.117106 0
M  V30 2 N 0 1.576 0 0
M  V30 3 C 0.933 2.03868 1.02534 0
M  V30 4 C 1.911 0.928543 1.3348 0
M  V30 5 O 3.095 1.19667 1.45644 0
M  V30 6 C 0.222 2.43627 2.35294 0
M  V30 7 C -0.732 3.65373 2.2001 0
M  V30 8 S 0.101 5.13292 1.52614 0
M  V30 9 C 1.257 5.56322 2.86805 0
M  V30 10 H 1.49 2.90518 0.631377 0
M  V30 11 H -0.977 1.52953 0.210867 0
M  V30 12 H 0.981 2.67203 3.11629 0
M  V30 13 H -0.358 1.57376 2.7183 0
M  V30 14 H -1.165 3.90944 3.18086 0
M  V30 15 H -1.563 3.418 1.51819 0
M  V30 16 H 0.729 5.58782 3.83104 0
M  V30 17 H 1.672 6.56266 2.65933 0
M  V30 18 H 2.08 4.83886 2.90714 0
M  V30 19 N 1.4781 -0.272755 1.55222 0
M  V30 20 C 2.4411 -1.32041 1.87344 0
M  V30 21 C 3.4411 -1.42342 0.74803 0
M  V30 22 O 4.6311 -1.41488 1.0162 0
M  V30 23 C 1.7631 -2.70173 2.07893 0
M  V30 24 H 2.9561 -1.04789 2.80997 0
M  V30 25 H 0.5091 -0.51083 1.47717 0
M  V30 26 H 1.2441 -3.02605 1.16622 0
M  V30 27 H 1.0291 -2.64082 2.89833 0
M  V30 28 H 2.5191 -3.45869 2.34017 0
M  V30 29 N 2.9562 -1.48159 -0.537278 0
M  V30 30 C 3.9192 -1.61665 -1.62472 0
M  V30 31 C 4.9192 -0.490395 -1.5314 0
M  V30 32 O 6.1092 -0.755998 -1.5694 0
M  V30 33 C 3.2412 -1.57997 -3.02076 0
M  V30 34 H 4.4342 -2.58621 -1.51839 0
M  V30 35 H 1.9872 -1.36647 -0.758771 0
M  V30 36 H 2.7222 -0.624913 -3.18222 0
M  V30 37 H 2.5072 -2.39755 -3.10258 0
M  V30 38 H 3.9972 -1.70627 -3.81151 0
M  V30 39 N 4.4343 0.785586 -1.36625 0
M  V30 40 C 5.3643 1.91259 -1.33949 0
M  V30 41 C 6.3453 1.68795 -0.210325 0
M  V30 42 O 7.5303 1.89854 -0.408561 0
M  V30 43 C 4.6603 3.28339 -1.13186 0
M  V30 44 C 3.6143 3.65335 -2.22967 0
M  V30 45 C 2.9403 5.00806 -1.87342 0
M  V30 46 C 4.2403 3.7352 -3.65075 0
M  V30 47 H 5.9343 1.93755 -2.28253 0
M  V30 48 H 3.4803 0.930788 -1.09874 0
M  V30 49 H 5.4333 4.06804 -1.09948 0
M  V30 50 H 4.1573 3.2624 -0.153332 0
M  V30 51 H 2.8163 2.89169 -2.25337 0
M  V30 52 H 2.4643 4.95233 -0.880545 0
M  V30 53 H 2.1643 5.26529 -2.60846 0
M  V30 54 H 3.6883 5.81687 -1.85667 0
M  V30 55 H 5.1023 4.42168 -3.64911 0
M  V30 56 H 3.4993 4.10731 -4.37516 0
M  V30 57 H 4.5693 2.74527 -3.99703 0
M  V30 58 N 5.9124 1.20967 1.01018 0
M  V30 59 C 6.8424 0.988272 2.11555 0
M  V30 60 C 7.8234 -0.0849778 1.69888 0
M  V30 61 O 9.0084 0.0738202 1.9406 0
M  V30 62 C 6.1384 0.546528 3.42973 0
M  V30 63 C 5.0924 1.56375 3.9841 0
M  V30 64 C 4.4184 0.97842 5.25672 0
M  V30 65 C 5.7184 2.94922 4.31066 0
M  V30 66 H 7.4124 1.91276 2.30334 0
M  V30 67 H 4.9584 0.921073 1.1069 0
M  V30 68 H 6.9114 0.378839 4.19694 0
M  V30 69 H 5.6354 -0.413598 3.23971 0
M  V30 70 H 4.2944 1.71891 3.23804 0
M  V30 71 H 3.9424 0.0101688 5.02999 0
M  V30 72 H 3.6424 1.65784 5.63728 0
M  V30 73 H 5.1664 0.821939 6.05043 0
M  V30 74 H 6.5804 2.8288 4.9865 0
M  V30 75 H 4.9774 3.5983 4.80253 0
M  V30 76 H 6.0474 3.4616 3.39561 0
M  V30 77 N 7.3905 -1.2043 1.01659 0
M  V30 78 C 8.3535 -2.21433 0.591616 0
M  V30 79 C 9.3535 -1.57203 -0.338226 0
M  V30 80 O 10.5435 -1.73737 -0.126918 0
M  V30 81 C 7.6755 -3.40628 -0.136058 0
M  V30 82 H 8.8685 -2.60545 1.48514 0
M  V30 83 H 6.4215 -1.33893 0.806379 0
M  V30 84 H 7.1565 -3.07019 -1.04449 0
M  V30 85 H 6.9415 -3.88475 0.531917 0
M  V30 86 H 8.4315 -4.15475 -0.420735 0
M  V30 87 N 8.8686 -0.792821 -1.36206 0
M  V30 88 C 9.8316 -0.199459 -2.2833 0
M  V30 89 C 10.8316 0.605189 -1.48977 0
M  V30 90 O 12.0216 0.425685 -1.68919 0
M  V30 91 C 9.1536 0.723523 -3.33134 0
M  V30 92 H 10.3466 -1.01181 -2.82316 0
M  V30 93 H 7.8996 -0.562485 -1.45828 0
M  V30 94 H 8.6346 1.56008 -2.84309 0
M  V30 95 H 8.4196 0.148436 -3.91819 0
M  V30 96 H 9.9096 1.13344 -4.01924 0
M  V30 97 N 10.3467 1.47872 -0.545128 0
M  V30 98 C 11.3097 2.28337 0.198717 0
M  V30 99 C 12.3097 1.36255 0.853888 0
M  V30 100 O 13.4997 1.59003 0.711606 0
M  V30 101 C 10.6317 3.15585 1.28915 0
M  V30 102 H 11.8247 2.95567 -0.507941 0
M  V30 103 H 9.3777 1.53362 -0.301616 0
M  V30 104 H 10.1127 2.53019 2.02859 0
M  V30 105 H 9.8977 3.83337 0.824309 0
M  V30 106 H 11.3877 3.76243 1.81194 0
M  V30 107 N 11.8248 0.280983 1.55075 0
M  V30 108 C 12.7878 -0.590896 2.21452 0
M  V30 109 C 13.7878 -1.07682 1.19421 0
M  V30 110 O 14.9778 -0.97605 1.44288 0
M  V30 111 C 12.1098 -1.81587 2.88511 0
M  V30 112 H 13.3028 -0.0112554 2.99898 0
M  V30 113 H 10.8558 0.0316438 1.56268 0
M  V30 114 H 11.5908 -2.43587 2.14093 0
M  V30 115 H 11.3758 -1.4753 3.63287 0
M  V30 116 H 12.8658 -2.43575 3.39206 0
M  V30 117 N 13.3029 -1.57598 0.00835791 0
M  V30 118 C 14.5489 -1.91211 -0.675732 0
M  V30 119 C 14.8819 -0.883139 -1.72958 0
M  V30 120 O 14.1569 0.097016 -1.94258 0
M  V30 121 C 14.4399 -3.35379 -1.31123 0
M  V30 122 C 14.2929 -4.48999 -0.268356 0
M  V30 123 C 15.6119 -3.7912 -2.23508 0
M  V30 124 H 12.7309 -0.695374 -0.244179 0
M  V30 125 H 15.3729 -1.89901 0.0613655 0
M  V30 126 H 13.5229 -3.36626 -1.93946 0
M  V30 127 H 15.1949 -4.59887 0.360844 0
M  V30 128 H 13.4379 -4.31873 0.408482 0
M  V30 129 H 14.1089 -5.46851 -0.752218 0
M  V30 130 H 16.5849 -3.79477 -1.70693 0
M  V30 131 H 15.4609 -4.80729 -2.64936 0
M  V30 132 H 15.7219 -3.13455 -3.11766 0
M  V30 133 N 14.781 0.264519 -1.55364 0
M  V30 134 C 16.197 0.61215 -1.47394 0
M  V30 135 C 16.397 1.89134 -0.695018 0
M  V30 136 O 15.453 2.51563 -0.217275 0
M  V30 137 C 16.766 0.731235 -2.91674 0
M  V30 138 C 18.314 0.82473 -3.01939 0
M  V30 139 C 18.789 0.975522 -4.4749 0
M  V30 140 N 20.28 1.04083 -4.51354 0
M  V30 141 C 21.015 1.17646 -5.61201 0
M  V30 142 N 20.511 1.27874 -6.80896 0
M  V30 143 N 22.304 1.20823 -5.48961 0
M  V30 144 H 14.455 -0.575456 -2.04456 0
M  V30 145 H 16.718 -0.196099 -0.927496 0
M  V30 146 H 16.424 -0.138392 -3.51428 0
M  V30 147 H 16.298 1.60883 -3.41169 0
M  V30 148 H 18.685 1.68482 -2.42276 0
M  V30 149 H 18.766 -0.0776479 -2.55682 0
M  V30 150 H 18.41 0.120058 -5.07758 0
M  V30 151 H 18.34 1.89268 -4.91412 0
M  V30 152 H 20.831 0.973846 -3.65136 0
M  V30 153 H 21.144 1.38081 -7.60364 0
M  V30 154 H 19.489 1.24863 -6.83692 0
M  V30 155 H 22.68 1.12469 -4.54388 0
M  V30 156 H 22.853 1.31049 -6.3461 0
M  V30 157 N 16.2591 1.48442 0.529413 0
M  V30 158 C 17.2221 1.62524 1.61612 0
M  V30 159 C 18.2221 0.498509 1.52877 0
M  V30 160 O 19.4121 0.76431 1.56537 0
M  V30 161 C 16.5441 1.59597 3.01233 0
M  V30 162 H 17.7371 2.59423 1.50465 0
M  V30 163 H 15.2901 1.37047 0.751514 0
M  V30 164 H 16.0251 0.641781 3.17886 0
M  V30 165 H 15.8101 2.41397 3.08982 0
M  V30 166 H 17.3001 1.72646 3.80241 0
M  V30 167 N 17.7372 -0.778329 1.37039 0
M  V30 168 C 19.1532 -1.07796 1.17695 0
M  V30 169 C 19.3532 -2.01498 0.00860115 0
M  V30 170 O 18.4092 -2.43901 -0.653352 0
M  V30 171 C 19.7222 -1.68178 2.49272 0
M  V30 172 C 21.2702 -1.80467 2.55735 0
M  V30 173 C 21.7452 -2.44263 3.87427 0
M  V30 174 N 23.2362 -2.51721 3.88833 0
M  V30 175 C 23.9712 -3.01919 4.87476 0
M  V30 176 N 23.4672 -3.5234 5.96513 0
M  V30 177 N 25.2602 -3.00733 4.74885 0
M  V30 178 H 17.4112 -0.156032 2.11826 0
M  V30 179 H 19.6742 -0.131844 0.938787 0
M  V30 180 H 19.3802 -1.06796 3.35093 0
M  V30 181 H 19.2542 -2.67554 2.65885 0
M  V30 182 H 21.6412 -2.40984 1.70325 0
M  V30 183 H 21.7222 -0.798656 2.43013 0
M  V30 184 H 21.3662 -1.84388 4.73248 0
M  V30 185 H 21.2962 -3.45458 3.9745 0
M  V30 186 H 23.7872 -2.1603 3.10063 0
M  V30 187 H 24.1002 -3.89027 6.67741 0
M  V30 188 H 22.4452 -3.50462 6.00168 0
M  V30 189 H 25.6362 -2.60638 3.88826 0
M  V30 190 H 25.8092 -3.39545 5.51918 0
M  V30 191 N 19.2153 -1.21501 -1.00376 0
M  V30 192 C 20.4643 -1.02718 -1.73586 0
M  V30 193 C 20.7773 0.439589 -1.90596 0
M  V30 194 O 21.9833 0.746848 -2.61026 0
M  V30 195 C 20.4393 -1.78929 -3.1227 0
M  V30 196 C 20.0473 -3.29783 -3.03228 0
M  V30 197 C 21.7913 -1.68557 -3.89601 0
M  V30 198 C 19.6983 -3.98479 -4.36999 0
M  V30 199 H 18.6283 -0.380733 -0.650814 0
M  V30 200 H 21.2793 -1.45248 -1.1214 0
M  V30 201 H 19.6613 -1.29192 -3.74333 0
M  V30 202 H 20.8353 -3.86832 -2.50395 0
M  V30 203 H 19.1503 -3.40711 -2.39385 0
M  V30 204 H 21.7473 -2.17211 -4.88593 0
M  V30 205 H 22.0903 -0.644021 -4.11288 0
M  V30 206 H 22.6233 -2.15778 -3.34193 0
M  V30 207 H 19.3623 -5.02841 -4.20513 0
M  V30 208 H 18.8823 -3.46219 -4.89788 0
M  V30 209 H 20.5613 -4.03462 -5.05794 0
M  V30 210 N 20.6934 1.19889 -1.02296 0
M  V30 211 C 21.6234 2.25141 -0.619174 0
M  V30 212 C 22.6044 1.66051 0.368915 0
M  V30 213 O 23.7894 1.92546 0.252941 0
M  V30 214 C 20.9194 3.4728 0.0368783 0
M  V30 215 C 19.8734 4.19005 -0.872865 0
M  V30 216 C 19.1994 5.34637 -0.0822402 0
M  V30 217 C 20.4994 4.74452 -2.18387 0
M  V30 218 H 22.1934 2.59171 -1.49903 0
M  V30 219 H 19.7394 1.24579 -0.722222 0
M  V30 220 H 21.6924 4.20098 0.330958 0
M  V30 221 H 20.4164 3.12433 0.95149 0
M  V30 222 H 19.0754 3.48061 -1.15105 0
M  V30 223 H 18.7234 4.96034 0.83422 0
M  V30 224 H 18.4234 5.83557 -0.688149 0
M  V30 225 H 19.9474 6.10255 0.205238 0
M  V30 226 H 21.3614 5.39055 -1.95172 0
M  V30 227 H 19.7584 5.33834 -2.74119 0
M  V30 228 H 20.8284 3.92844 -2.84257 0
M  V30 229 N 22.1715 0.800033 1.35784 0
M  V30 230 C 23.1035 0.163596 2.28615 0
M  V30 231 C 24.1165 -0.633317 1.49976 0
M  V30 232 O 25.3055 -0.466754 1.72289 0
M  V30 233 C 22.4055 -0.790958 3.29541 0
M  V30 234 C 21.5785 -0.0418255 4.3738 0
M  V30 235 C 20.6375 -0.91389 5.18203 0
M  V30 236 O 19.6635 -0.367234 5.68014 0
M  V30 237 N 20.8655 -2.23682 5.35674 0
M  V30 238 H 23.6305 0.96105 2.83873 0
M  V30 239 H 21.1915 0.654894 1.48063 0
M  V30 240 H 23.1835 -1.37844 3.80501 0
M  V30 241 H 21.7535 -1.48925 2.74846 0
M  V30 242 H 20.9735 0.726813 3.87442 0
M  V30 243 H 22.2615 0.474719 5.06581 0
M  V30 244 H 21.6595 -2.70497 4.96838 0
M  V30 245 H 20.2165 -2.77369 5.89839 0
M  V30 246 N 23.6496 -1.47581 0.552962 0
M  V30 247 C 24.8956 -2.02782 0.0273648 0
M  V30 248 C 25.2286 -1.42687 -1.31734 0
M  V30 249 O 24.5036 -0.580897 -1.85623 0
M  V30 250 C 24.7866 -3.60031 -0.0702371 0
M  V30 251 C 24.6396 -4.30566 1.30126 0
M  V30 252 C 25.9586 -4.33028 -0.785771 0
M  V30 253 H 23.0776 -0.736912 0.0114185 0
M  V30 254 H 25.7196 -1.76056 0.714432 0
M  V30 255 H 23.8696 -3.82932 -0.655382 0
M  V30 256 H 25.5416 -4.19018 1.92929 0
M  V30 257 H 23.7846 -3.91086 1.87709 0
M  V30 258 H 24.4556 -5.39114 1.18573 0
M  V30 259 H 26.9316 -4.15095 -0.288982 0
M  V30 260 H 25.8076 -5.42695 -0.823013 0
M  V30 261 H 26.0686 -4.01945 -1.841 0
M  V30 262 N 25.1277 -0.289203 -1.54924 0
M  V30 263 C 26.3527 0.329299 -2.04769 0
M  V30 264 C 26.7777 1.4763 -1.16564 0
M  V30 265 O 26.1357 1.80527 -0.167186 0
M  V30 266 C 26.1837 0.774438 -3.52186 0
M  V30 267 O 25.2877 1.88038 -3.67036 0
M  V30 268 H 24.6287 0.0659259 -0.660719 0
M  V30 269 H 27.1587 -0.42761 -2.00082 0
M  V30 270 H 27.1687 1.06642 -3.93816 0
M  V30 271 H 25.8437 -0.0646707 -4.1585 0
M  V30 272 H 24.4207 1.58985 -3.3731 0
M  V30 273 N 26.6058 1.57591 -0.0167156 0
M  V30 274 C 27.8308 1.9598 0.67872 0
M  V30 275 C 28.2558 0.892546 1.65575 0
M  V30 276 O 27.6138 -0.147772 1.80697 0
M  V30 277 C 27.6618 3.33468 1.37227 0
M  V30 278 O 26.7658 3.28954 2.48722 0
M  V30 279 H 26.1068 0.639339 0.17928 0
M  V30 280 H 28.6368 2.04463 -0.0748802 0
M  V30 281 H 28.6468 3.69417 1.7319 0
M  V30 282 H 27.3218 4.10694 0.656007 0
M  V30 283 H 25.8988 3.04705 2.14963 0
M  V30 284 N 28.0839 -0.256276 1.55502 0
M  V30 285 C 29.0309 -1.31714 1.89526 0
M  V30 286 C 30.0009 -1.4828 0.748479 0
M  V30 287 O 31.1859 -1.62416 1.00128 0
M  V30 288 C 28.3259 -2.66933 2.18725 0
M  V30 289 C 27.4389 -2.58452 3.4616 0
M  V30 290 C 26.5739 -3.85961 3.64976 0
M  V30 291 C 25.6129 -3.72059 4.86044 0
M  V30 292 N 24.7499 -4.9144 5.01429 0
M  V30 293 H 29.5899 -1.01998 2.80001 0
M  V30 294 H 27.1269 -0.492413 1.38613 0
M  V30 295 H 29.0849 -3.4563 2.33657 0
M  V30 296 H 27.7149 -2.94816 1.31466 0
M  V30 297 H 26.7669 -1.71374 3.3961 0
M  V30 298 H 28.0789 -2.44085 4.34999 0
M  V30 299 H 27.2329 -4.73101 3.79816 0
M  V30 300 H 25.9719 -4.03215 2.74353 0
M  V30 301 H 24.9769 -2.83302 4.7119 0
M  V30 302 H 26.2019 -3.56309 5.78118 0
M  V30 303 H 24.1479 -5.09072 4.13741 0
M  V30 304 H 24.0649 -4.79668 5.84341 0
M  V30 305 H 25.3329 -5.80104 5.20672 0
M  V30 306 N 29.562 -1.4872 -0.521534 0
M  V30 307 C 30.808 -1.574 -1.27879 0
M  V30 308 C 31.141 -0.250817 -1.92573 0
M  V30 309 O 30.416 0.743934 -1.79711 0
M  V30 310 C 30.699 -2.71843 -2.36164 0
M  V30 311 C 30.552 -4.13893 -1.76105 0
M  V30 312 C 31.871 -2.82008 -3.37875 0
M  V30 313 H 28.99 -0.572941 -0.463581 0
M  V30 314 H 31.632 -1.80927 -0.580119 0
M  V30 315 H 29.782 -2.51914 -2.95756 0
M  V30 316 H 31.454 -4.45284 -1.20499 0
M  V30 317 H 29.697 -4.20498 -1.06601 0
M  V30 318 H 30.368 -4.89804 -2.5455 0
M  V30 319 H 32.844 -3.00086 -2.88249 0
M  V30 320 H 31.72 -3.63796 -4.11028 0
M  V30 321 H 31.981 -1.90511 -3.98946 0
M  V30 322 N 31.0401 0.771051 -1.3745 0
M  V30 323 C 31.9871 1.88435 -1.3327 0
M  V30 324 C 32.9571 1.64914 -0.198136 0
M  V30 325 O 34.1421 1.86821 -0.387606 0
M  V30 326 C 31.2821 3.25509 -1.14622 0
M  V30 327 C 30.3951 3.60979 -2.37314 0
M  V30 328 C 29.5301 4.87265 -2.11533 0
M  V30 329 C 28.5691 5.15469 -3.30088 0
M  V30 330 N 27.7061 6.32944 -3.03853 0
M  V30 331 H 32.5461 1.91344 -2.28455 0
M  V30 332 H 30.0831 0.935466 -1.13523 0
M  V30 333 H 32.0411 4.04582 -1.01831 0
M  V30 334 H 30.6711 3.21974 -0.230837 0
M  V30 335 H 29.7231 2.76885 -2.60842 0
M  V30 336 H 31.0351 3.77759 -3.25729 0
M  V30 337 H 30.1891 5.74244 -1.95777 0
M  V30 338 H 28.9281 4.7259 -1.20457 0
M  V30 339 H 27.9331 4.26966 -3.46382 0
M  V30 340 H 29.1581 5.32052 -4.22016 0
M  V30 341 H 27.1041 6.19625 -2.15407 0
M  V30 342 H 27.0211 6.50143 -3.85812 0
M  V30 343 H 28.2891 7.22857 -2.91716 0
M  V30 344 N 32.5182 1.22032 0.997298 0
M  V30 345 C 33.7432 1.06921 1.77715 0
M  V30 346 C 34.1682 -0.376226 1.84299 0
M  V30 347 O 33.5262 -1.27165 1.29223 0
M  V30 348 C 33.5742 1.67996 3.19076 0
M  V30 349 O 32.6782 0.930653 4.01762 0
M  V30 350 H 32.0192 0.375814 0.547412 0
M  V30 351 H 34.5492 1.61737 1.25309 0
M  V30 352 H 34.5592 1.72538 3.69723 0
M  V30 353 H 33.2342 2.73182 3.13599 0
M  V30 354 H 31.8112 0.960917 3.60307 0
M  V30 355 N 33.9963 -1.19345 1.0293 0
M  V30 356 C 35.2213 -1.93538 0.745511 0
M  V30 357 C 35.6463 -1.75007 -0.689511 0
M  V30 358 O 35.0043 -1.05265 -1.47611 0
M  V30 359 C 35.0523 -3.43336 1.10239 0
M  V30 360 O 34.1563 -4.11806 0.221289 0
M  V30 361 H 33.4973 -0.604193 0.275404 0
M  V30 362 H 36.0273 -1.5141 1.37609 0
M  V30 363 H 36.0373 -3.94004 1.05947 0
M  V30 364 H 34.7123 -3.56146 2.14786 0
M  V30 365 H 33.2893 -3.715 0.322842 0
M  V30 366 N 35.4744 -0.807222 -1.35358 0
M  V30 367 C 36.8854 -0.44876 -1.81226 0
M  V30 368 C 37.2364 1.02929 -1.67033 0
M  V30 369 O 36.3614 1.79991 -1.20133 0
M  V30 370 C 36.9564 -0.807774 -3.2903 0
M  V30 371 C 35.5154 -0.501901 -3.73039 0
M  V30 372 C 34.6624 -1.03304 -2.57339 0
M  V30 373 H 37.6134 -0.998808 -1.23327 0
M  V30 374 H 37.6344 -0.10554 -3.80354 0
M  V30 375 H 37.1464 -1.88357 -3.39328 0
M  V30 376 H 35.2474 0.565128 -3.68289 0
M  V30 377 H 35.3604 -1.03497 -4.67787 0
M  V30 378 H 33.7244 -0.455339 -2.50597 0
M  V30 379 H 34.5074 -2.11496 -2.70415 0
M  V30 380 N 36.9525 1.47285 -0.560781 0
M  V30 381 C 38.1805 2.06855 -0.0430262 0
M  V30 382 C 38.5955 1.41291 1.25229 0
M  V30 383 O 37.9525 0.510648 1.7521 0
M  V30 384 C 38.0035 3.61178 0.152518 0
M  V30 385 O 37.7245 4.24285 -1.0915 0
M  V30 386 C 39.2255 4.37624 0.707145 0
M  V30 387 H 36.4455 0.669319 -0.0474652 0
M  V30 388 H 38.9895 1.89237 -0.77521 0
M  V30 389 H 37.1445 3.78298 0.834843 0
M  V30 390 H 37.5585 5.16868 -0.891482 0
M  V30 391 H 39.0325 5.46271 0.793244 0
M  V30 392 H 39.5095 4.04152 1.71923 0
M  V30 393 H 40.1155 4.25257 0.0604027 0
M  V30 394 N 38.4306 0.297415 1.54768 0
M  V30 395 C 39.6766 -0.306263 2.01081 0
M  V30 396 C 40.0316 -1.518 1.18214 0
M  V30 397 O 39.3246 -1.89967 0.249613 0
M  V30 398 C 39.5186 -0.717561 3.50123 0
M  V30 399 C 39.3476 0.45277 4.47415 0
M  V30 400 C 38.1176 0.943651 4.9641 0
M  V30 401 C 40.3156 1.29657 4.97688 0
M  V30 402 N 38.2976 2.08112 5.77549 0
M  V30 403 C 39.6686 2.28158 5.76493 0
M  V30 404 C 41.7236 1.32735 4.79881 0
M  V30 405 C 40.4266 3.29509 6.39387 0
M  V30 406 C 42.4526 2.32943 5.43591 0
M  V30 407 C 41.8146 3.30174 6.22225 0
M  V30 408 H 37.9136 -0.0766274 0.778237 0
M  V30 409 H 40.4976 0.426515 1.89971 0
M  V30 410 H 38.6686 -1.41952 3.6153 0
M  V30 411 H 40.4006 -1.30047 3.83236 0
M  V30 412 H 37.1556 0.51922 4.70745 0
M  V30 413 H 37.5796 2.65414 6.22803 0
M  V30 414 H 42.2216 0.589375 4.18672 0
M  V30 415 H 39.9396 4.04228 6.99732 0
M  V30 416 H 43.5256 2.36094 5.31743 0
M  V30 417 H 42.4056 4.06445 6.7065 0
M  V30 418 N 39.9087 -1.5758 0.0250728 0
M  V30 419 C 41.1387 -1.95646 -0.663783 0
M  V30 420 C 41.5467 -0.899935 -1.66427 0
M  V30 421 O 40.8897 0.127191 -1.83259 0
M  V30 422 C 40.9517 -3.29835 -1.43 0
M  V30 423 C 40.6157 -4.53197 -0.588305 0
M  V30 424 C 41.6127 -5.19726 0.13469 0
M  V30 425 C 39.2977 -4.99529 -0.526897 0
M  V30 426 C 41.2917 -6.30902 0.90781 0
M  V30 427 C 38.9787 -6.10589 0.24993 0
M  V30 428 C 39.9767 -6.76134 0.965994 0
M  V30 429 O 39.6647 -7.85062 1.7301 0
M  V30 430 H 39.3967 -0.649282 -0.188174 0
M  V30 431 H 41.9507 -2.05245 0.0799006 0
M  V30 432 H 40.1807 -3.16716 -2.21873 0
M  V30 433 H 41.8697 -3.52833 -2.00658 0
M  V30 434 H 42.6357 -4.84904 0.0965562 0
M  V30 435 H 38.5147 -4.48319 -1.07381 0
M  V30 436 H 42.0587 -6.81995 1.46724 0
M  V30 437 H 37.9557 -6.44849 0.289795 0
M  V30 438 H 38.7237 -8.01708 1.64944 0
M  V30 439 N 41.3868 0.248026 -1.55636 0
M  V30 440 C 42.6118 0.998028 -1.81808 0
M  V30 441 C 43.0368 1.78207 -0.601979 0
M  V30 442 O 42.3948 1.75653 0.448961 0
M  V30 443 C 42.4428 1.9125 -3.05705 0
M  V30 444 O 41.5468 3.00406 -2.82542 0
M  V30 445 H 40.8878 0.284045 -0.600179 0
M  V30 446 H 43.4178 0.269357 -2.02819 0
M  V30 447 H 43.4278 2.32737 -3.35108 0
M  V30 448 H 42.1028 1.33602 -3.93857 0
M  V30 449 H 40.6798 2.63056 -2.64303 0
M  V30 450 N 42.8649 1.48995 0.513639 0
M  V30 451 C 43.8279 1.64229 1.59879 0
M  V30 452 C 44.8279 0.514696 1.5234 0
M  V30 453 O 46.0179 0.78087 1.55718 0
M  V30 454 C 43.1499 1.62783 2.99524 0
M  V30 455 H 44.3429 2.61004 1.47705 0
M  V30 456 H 41.8959 1.37837 0.736936 0
M  V30 457 H 42.6309 0.675461 3.17188 0
M  V30 458 H 42.4159 2.4466 3.06404 0
M  V30 459 H 43.9059 1.76669 3.78388 0
M  V30 460 N 44.343 -0.763751 1.37857 0
M  V30 461 C 45.568 -1.55805 1.36893 0
M  V30 462 C 45.993 -1.88054 -0.0416135 0
M  V30 463 O 45.351 -1.49825 -1.02089 0
M  V30 464 C 45.399 -2.84012 2.22192 0
M  V30 465 O 44.503 -3.78732 1.63204 0
M  V30 466 H 43.844 -0.471638 0.46739 0
M  V30 467 H 46.374 -0.944657 1.81487 0
M  V30 468 H 46.384 -3.33037 2.35691 0
M  V30 469 H 45.059 -2.59869 3.24716 0
M  V30 470 H 43.636 -3.37402 1.58791 0
M  V30 471 N 45.8211 -1.22559 -0.990812 0
M  V30 472 C 47.0461 -1.07862 -1.77145 0
M  V30 473 C 47.4711 0.366447 -1.84496 0
M  V30 474 O 46.8291 1.26478 -1.29896 0
M  V30 475 C 46.8771 -1.69686 -3.18181 0
M  V30 476 O 45.9811 -0.951946 -4.01263 0
M  V30 477 H 45.3221 -0.378712 -0.545411 0
M  V30 478 H 47.8521 -1.62399 -1.2445 0
M  V30 479 H 47.8621 -1.74496 -3.68802 0
M  V30 480 H 46.5371 -2.74841 -3.12146 0
M  V30 481 H 45.1141 -0.980011 -3.59792 0
M  V30 482 N 47.2992 1.18797 -1.03562 0
M  V30 483 C 48.5462 1.8865 -0.736023 0
M  V30 484 C 48.8742 1.80041 0.735889 0
M  V30 485 O 48.1292 1.19179 1.55225 0
M  V30 486 C 48.4282 3.38692 -1.14117 0
M  V30 487 C 48.0942 3.67504 -2.6125 0
M  V30 488 C 46.7562 3.75078 -3.01447 0
M  V30 489 C 49.1082 3.80293 -3.56408 0
M  V30 490 C 46.4362 3.92915 -4.35701 0
M  V30 491 C 48.7882 3.99645 -4.90374 0
M  V30 492 C 47.4522 4.05453 -5.30249 0
M  V30 493 H 46.7222 0.690321 -0.26933 0
M  V30 494 H 49.3692 1.40641 -1.29971 0
M  V30 495 H 47.6742 3.88645 -0.496202 0
M  V30 496 H 49.3712 3.91072 -0.886789 0
M  V30 497 H 45.9612 3.62223 -2.29113 0
M  V30 498 H 50.1452 3.73779 -3.26501 0
M  V30 499 H 45.4012 3.95653 -4.66121 0
M  V30 500 H 49.5752 4.08482 -5.64017 0
M  V30 501 H 47.2022 4.19027 -6.34288 0
M  V30 502 N 48.7773 0.814389 1.34928 0
M  V30 503 C 50.0023 0.410097 2.03305 0
M  V30 504 C 50.4273 -0.973464 1.60951 0
M  V30 505 O 49.7853 -1.63185 0.789964 0
M  V30 506 C 49.8333 0.51049 3.56968 0
M  V30 507 O 48.9373 -0.473035 4.09678 0
M  V30 508 H 48.2783 0.170088 0.641846 0
M  V30 509 H 50.8083 1.10244 1.72358 0
M  V30 510 H 50.8183 0.383135 4.06197 0
M  V30 511 H 49.4933 1.51963 3.87144 0
M  V30 512 H 48.0703 -0.305272 3.71648 0
M  V30 513 N 50.2554 -1.46986 0.568584 0
M  V30 514 C 51.4804 -2.07335 0.0520528 0
M  V30 515 C 51.9054 -1.41675 -1.23733 0
M  V30 516 O 51.2634 -0.495623 -1.74394 0
M  V30 517 C 51.3114 -3.60417 -0.11501 0
M  V30 518 O 50.4154 -3.95309 -1.17492 0
M  V30 519 H 49.7564 -0.661597 0.0564385 0
M  V30 520 H 52.2864 -1.88837 0.787507 0
M  V30 521 H 52.2964 -4.06698 -0.325644 0
M  V30 522 H 50.9714 -4.07601 0.826675 0
M  V30 523 H 49.5484 -3.60757 -0.943869 0
M  V30 524 N 51.7335 -0.305618 -1.54608 0
M  V30 525 C 52.9585 0.307562 -2.05107 0
M  V30 526 C 53.3835 1.46385 -1.18123 0
M  V30 527 O 52.7415 1.8034 -0.186324 0
M  V30 528 C 52.7895 0.73704 -3.52987 0
M  V30 529 O 51.8935 1.84134 -3.6901 0
M  V30 530 H 51.2345 0.0589143 -0.661381 0
M  V30 531 H 53.7645 -0.448807 -1.99617 0
M  V30 532 H 53.7745 1.02459 -3.94925 0
M  V30 533 H 52.4495 -0.108773 -4.15758 0
M  V30 534 H 51.0265 1.55398 -3.38978 0
M  V30 535 N 53.2116 1.57565 -0.0334293 0
M  V30 536 C 54.4576 1.92262 0.645226 0
M  V30 537 C 54.7906 0.910543 1.71531 0
M  V30 538 O 54.0656 -0.066099 1.94388 0
M  V30 539 C 54.3486 3.37422 1.2577 0
M  V30 540 C 54.2016 4.49369 0.196891 0
M  V30 541 C 55.5206 3.82628 2.17449 0
M  V30 542 H 52.6396 0.699171 0.233085 0
M  V30 543 H 55.2816 1.89779 -0.0915694 0
M  V30 544 H 53.4316 3.39669 1.88566 0
M  V30 545 H 55.1036 4.59254 -0.433962 0
M  V30 546 H 53.3466 4.31168 -0.477137 0
M  V30 547 H 54.0176 5.47978 0.665124 0
M  V30 548 H 56.4936 3.82145 1.64634 0
M  V30 549 H 55.3696 4.84883 2.57254 0
M  V30 550 H 55.6306 3.18376 3.0674 0
M  V30 551 N 54.6897 -0.239769 1.55765 0
M  V30 552 C 56.1007 -0.808263 1.68297 0
M  V30 553 C 56.4517 -1.85736 0.632181 0
M  V30 554 O 55.5767 -2.15277 -0.220204 0
M  V30 555 C 56.1717 -1.47284 3.05111 0
M  V30 556 C 54.7307 -1.98895 3.19559 0
M  V30 557 C 53.8777 -0.842575 2.64189 0
M  V30 558 H 56.8287 -0.0154422 1.58692 0
M  V30 559 H 56.8497 -2.34111 2.99954 0
M  V30 560 H 56.3617 -0.709053 3.81568 0
M  V30 561 H 54.4627 -2.78132 2.47938 0
M  V30 562 H 54.5757 -2.18143 4.26556 0
M  V30 563 H 52.9397 -1.24501 2.22197 0
M  V30 564 H 53.7227 -0.0917552 3.43177 0
M  V30 565 N 56.1678 -1.49265 -0.50573 0
M  V30 566 C 57.3958 -1.62215 -1.28429 0
M  V30 567 C 57.8108 -0.291697 -1.86533 0
M  V30 568 O 57.1678 0.722233 -1.67601 0
M  V30 569 C 57.2188 -2.68735 -2.41793 0
M  V30 570 O 56.9398 -3.96619 -1.86078 0
M  V30 571 C 58.4408 -2.92346 -3.3324 0
M  V30 572 H 55.6608 -0.546239 -0.389697 0
M  V30 573 H 58.2048 -1.95265 -0.607609 0
M  V30 574 H 56.3598 -2.38476 -3.053 0
M  V30 575 H 56.7738 -4.55256 -2.60465 0
M  V30 576 H 58.2478 -3.70623 -4.09075 0
M  V30 577 H 58.7248 -2.02081 -3.89948 0
M  V30 578 H 59.3308 -3.24003 -2.75503 0
M  V30 579 N 57.6459 0.756429 -1.3826 0
M  V30 580 C 58.8919 1.51772 -1.34511 0
M  V30 581 C 59.2249 1.94089 0.0656691 0
M  V30 582 O 58.4999 1.65221 1.02626 0
M  V30 583 C 58.7829 2.77226 -2.29821 0
M  V30 584 C 58.6359 2.41065 -3.79747 0
M  V30 585 C 59.9549 3.79236 -2.23312 0
M  V30 586 H 57.0739 0.550578 -0.489931 0
M  V30 587 H 59.7159 0.866607 -1.69086 0
M  V30 588 H 57.8659 3.32784 -2.00467 0
M  V30 589 H 59.5379 1.91303 -4.19763 0
M  V30 590 H 57.7809 1.7356 -3.97567 0
M  V30 591 H 58.4519 3.3081 -4.41892 0
M  V30 592 H 60.9279 3.3321 -2.49219 0
M  V30 593 H 59.8039 4.64714 -2.92116 0
M  V30 594 H 60.0649 4.24615 -1.23102 0
M  V30 595 N 59.124 1.23083 0.984299 0
M  V30 596 C 60.071 1.00854 2.07598 0
M  V30 597 C 61.041 -0.0726709 1.65941 0
M  V30 598 O 62.226 0.0786535 1.90638 0
M  V30 599 C 59.366 0.601645 3.39815 0
M  V30 600 C 58.479 1.75456 3.94765 0
M  V30 601 C 57.614 1.29482 5.15177 0
M  V30 602 C 56.653 2.41873 5.62284 0
M  V30 603 N 55.79 1.96885 6.73929 0
M  V30 604 H 60.63 1.943 2.25946 0
M  V30 605 H 58.167 0.968001 1.10762 0
M  V30 606 H 60.125 0.346854 4.15756 0
M  V30 607 H 58.755 -0.295803 3.21442 0
M  V30 608 H 57.807 2.12346 3.15616 0
M  V30 609 H 59.119 2.59965 4.25699 0
M  V30 610 H 58.273 0.997923 5.98437 0
M  V30 611 H 57.012 0.420046 4.85888 0
M  V30 612 H 56.017 2.72342 4.77608 0
M  V30 613 H 57.242 3.29881 5.93595 0
M  V30 614 H 55.188 1.11782 6.46406 0
M  V30 615 H 55.105 2.74956 7.04227 0
M  V30 616 H 56.373 1.70289 7.60672 0
M  V30 617 N 60.6021 -1.18246 1.0419 0
M  V30 618 C 61.5321 -2.24127 0.654914 0
M  V30 619 C 62.5131 -1.66617 -0.342451 0
M  V30 620 O 63.6981 -1.92924 -0.222277 0
M  V30 621 C 60.8281 -3.47295 0.0183757 0
M  V30 622 C 59.7821 -4.17563 0.939414 0
M  V30 623 C 59.1081 -5.34438 0.167286 0
M  V30 624 C 60.4081 -4.70917 2.25908 0
M  V30 625 H 62.1021 -2.56753 1.54007 0
M  V30 626 H 59.6481 -1.23414 0.74195 0
M  V30 627 H 61.6011 -4.20572 -0.264082 0
M  V30 628 H 60.3251 -3.13907 -0.901664 0
M  V30 629 H 58.9841 -3.46186 1.20628 0
M  V30 630 H 58.6321 -4.97298 -0.7552 0
M  V30 631 H 58.3321 -5.82388 0.780901 0
M  V30 632 H 59.8561 -6.10504 -0.108125 0
M  V30 633 H 61.2701 -5.35882 2.03724 0
M  V30 634 H 59.6671 -5.29406 2.82577 0
M  V30 635 H 60.7371 -3.88272 2.9047 0
M  V30 636 N 62.0802 -0.821533 -1.34494 0
M  V30 637 C 63.3272 -0.408946 -1.98328 0
M  V30 638 C 63.6552 1.02764 -1.65136 0
M  V30 639 O 62.9102 1.73026 -0.914349 0
M  V30 640 C 63.2092 -0.556512 -3.53041 0
M  V30 641 C 62.8752 -1.95861 -4.0614 0
M  V30 642 C 61.5372 -2.34217 -4.20352 0
M  V30 643 C 63.8892 -2.87523 -4.34718 0
M  V30 644 C 61.2172 -3.63572 -4.6047 0
M  V30 645 C 63.5692 -4.1634 -4.76281 0
M  V30 646 C 62.2332 -4.54675 -4.88699 0
M  V30 647 H 61.5032 -0.149644 -0.725732 0
M  V30 648 H 64.1502 -1.04521 -1.6046 0
M  V30 649 H 62.4552 0.163148 -3.9146 0
M  V30 650 H 64.1522 -0.217826 -4.00408 0
M  V30 651 H 60.7422 -1.65066 -3.95539 0
M  V30 652 H 64.9262 -2.59133 -4.23277 0
M  V30 653 H 60.1822 -3.93101 -4.68275 0
M  V30 654 H 64.3562 -4.87455 -4.97354 0
M  V30 655 H 61.9832 -5.54959 -5.19542 0
M  V30 656 N 63.5583 1.46682 -0.576371 0
M  V30 657 C 64.8073 2.01619 -0.0572825 0
M  V30 658 C 65.1203 1.45417 1.30818 0
M  V30 659 O 66.3263 1.92133 1.91825 0
M  V30 660 C 64.7823 3.59863 -0.0518371 0
M  V30 661 C 64.3903 4.25059 -1.41523 0
M  V30 662 C 66.1343 4.2248 0.413639 0
M  V30 663 C 64.0413 5.75364 -1.36785 0
M  V30 664 H 62.9713 0.753794 -0.0176448 0
M  V30 665 H 65.6223 1.68481 -0.727076 0
M  V30 666 H 64.0043 3.90048 0.683994 0
M  V30 667 H 65.1783 4.06491 -2.17029 0
M  V30 668 H 63.4933 3.7451 -1.8202 0
M  V30 669 H 66.0903 5.3265 0.467779 0
M  V30 670 H 66.4333 3.90976 1.42982 0
M  V30 671 H 66.9663 3.96897 -0.267929 0
M  V30 672 H 63.7053 6.11518 -2.36063 0
M  V30 673 H 63.2253 5.96214 -0.654895 0
M  V30 674 H 64.9043 6.37955 -1.07805 0
M  V30 675 N 65.0364 0.313813 1.54444 0
M  V30 676 C 66.2844 -0.291099 1.99993 0
M  V30 677 C 66.6054 -1.53418 1.20366 0
M  V30 678 O 65.8754 -1.93544 0.302927 0
M  V30 679 H 64.4554 -0.110552 0.738774 0
M  V30 680 H 67.1174 0.428106 1.9014 0
M  V30 681 H 66.2134 -0.554268 3.07139 0
M  V30 682 N 66.5145 -1.57545 0.0417849 0
M  V30 683 C 67.7625 -1.91937 -0.632829 0
M  V30 684 C 68.0835 -0.919978 -1.71934 0
M  V30 685 O 67.3535 0.0366064 -1.95866 0
M  V30 686 H 65.9335 -0.708493 -0.236742 0
M  V30 687 H 68.5955 -1.9468 0.0925745 0
M  V30 688 H 67.6915 -2.92912 -1.07746 0
M  V30 689 N 67.9926 0.231505 -1.5589 0
M  V30 690 C 68.9396 1.28682 -1.91598 0
M  V30 691 C 69.9096 1.47071 -0.771974 0
M  V30 692 O 71.0946 1.60802 -1.027 0
M  V30 693 C 68.2346 2.6342 -2.22944 0
M  V30 694 C 67.3476 2.52912 -3.50228 0
M  V30 695 C 66.4826 3.80106 -3.7107 0
M  V30 696 C 65.5216 3.64279 -4.91902 0
M  V30 697 N 64.6586 4.834 -5.09184 0
M  V30 698 H 69.4986 0.975305 -2.81588 0
M  V30 699 H 67.0356 0.470299 -1.39379 0
M  V30 700 H 68.9936 3.41869 -2.39126 0
M  V30 701 H 67.6236 2.92687 -1.36139 0
M  V30 702 H 66.6756 1.6595 -3.42294 0
M  V30 703 H 67.9876 2.37133 -4.38827 0
M  V30 704 H 67.1416 4.66999 -3.87295 0
M  V30 705 H 65.8806 3.98799 -2.80733 0
M  V30 706 H 64.8856 2.7577 -4.75637 0
M  V30 707 H 66.1106 3.47067 -5.83714 0
M  V30 708 H 64.0566 5.02425 -4.21788 0
M  V30 709 H 63.9736 4.70311 -5.91898 0
M  V30 710 H 65.2416 5.71747 -5.29835 0
M  V30 711 N 69.4707 1.49531 0.497807 0
M  V30 712 C 70.7177 1.59179 1.25173 0
M  V30 713 C 71.0457 0.279932 1.92475 0
M  V30 714 O 70.3007 -0.732383 1.81479 0
M  V30 715 C 70.5997 2.70252 2.33878 0
M  V30 716 C 70.2657 4.11644 1.84012 0
M  V30 717 C 68.9277 4.50121 1.70132 0
M  V30 718 C 71.2797 5.00121 1.46725 0
M  V30 719 C 68.6077 5.74845 1.17348 0
M  V30 720 C 70.9597 6.25366 0.95392 0
M  V30 721 C 69.6237 6.6267 0.801538 0
M  V30 722 H 68.8937 0.582478 0.45804 0
M  V30 723 H 71.5407 1.83373 0.551948 0
M  V30 724 H 69.8457 2.40041 3.09657 0
M  V30 725 H 71.5427 2.74925 2.9192 0
M  V30 726 H 68.1327 3.81274 1.95775 0
M  V30 727 H 72.3167 4.71048 1.56294 0
M  V30 728 H 67.5727 6.02444 1.04264 0
M  V30 729 H 71.7467 6.93301 0.656225 0
M  V30 730 H 69.3737 7.59197 0.390351 0
M  V30 731 N 70.9488 -0.749086 1.3866 0
M  V30 732 C 72.1948 -1.51056 1.35314 0
M  V30 733 C 72.5278 -1.94121 -0.0553751 0
M  V30 734 O 71.8028 -1.65763 -1.01749 0
M  V30 735 C 72.0858 -2.76003 2.31288 0
M  V30 736 C 71.9388 -2.39047 3.8102 0
M  V30 737 C 73.2578 -3.78046 2.2532 0
M  V30 738 H 70.3768 -0.547972 0.492844 0
M  V30 739 H 73.0188 -0.857628 1.69543 0
M  V30 740 H 71.1688 -3.31716 2.02229 0
M  V30 741 H 72.8408 -1.89074 4.20771 0
M  V30 742 H 71.0838 -1.71449 3.98482 0
M  V30 743 H 71.7548 -3.28462 4.4364 0
M  V30 744 H 74.2308 -3.31884 2.50983 0
M  V30 745 H 73.1068 -4.63159 2.94576 0
M  V30 746 H 73.3678 -4.23957 1.25352 0
M  V30 747 N 72.4269 -1.23603 -0.977757 0
M  V30 748 C 73.3369 -1.03632 -2.1047 0
M  V30 749 C 74.3529 0.0199435 -1.73989 0
M  V30 750 O 75.5289 -0.176076 -2.00629 0
M  V30 751 C 72.5939 -0.63276 -3.40877 0
M  V30 752 C 71.6549 -1.76437 -3.91367 0
M  V30 753 C 70.8879 -1.37997 -5.15551 0
M  V30 754 O 71.1109 -0.265357 -5.69782 0
M  V30 755 O 70.0449 -2.20201 -5.60174 0
M  V30 756 H 73.8709 -1.98086 -2.30208 0
M  V30 757 H 71.4559 -1.02332 -1.08851 0
M  V30 758 H 73.3379 -0.418761 -4.19314 0
M  V30 759 H 72.0129 0.282754 -3.22463 0
M  V30 760 H 70.9199 -2.03304 -3.14036 0
M  V30 761 H 72.2529 -2.6583 -4.14241 0
M  V30 762 N 73.905 1.17692 -1.04816 0
M  V30 763 C 75.13 1.92327 -0.776207 0
M  V30 764 C 75.555 1.76082 0.661581 0
M  V30 765 O 74.913 1.076 1.45917 0
M  V30 766 C 74.961 3.41539 -1.15687 0
M  V30 767 O 74.065 4.11402 -0.286775 0
M  V30 768 H 73.406 0.599735 -0.284981 0
M  V30 769 H 75.936 1.49201 -1.4 0
M  V30 770 H 75.946 3.92269 -1.12202 0
M  V30 771 H 74.621 3.52684 -2.20425 0
M  V30 772 H 73.198 3.70939 -0.381903 0
M  V30 773 N 75.3831 0.828654 1.34056 0
M  V30 774 C 76.3301 0.252567 2.29414 0
M  V30 775 C 77.3001 -0.62588 1.53857 0
M  V30 776 O 78.4851 -0.566312 1.82202 0
M  V30 777 C 75.6251 -0.574831 3.40279 0
M  V30 778 C 74.7381 0.326499 4.30764 0
M  V30 779 C 73.8731 -0.511016 5.28736 0
M  V30 780 C 72.9121 0.389342 6.1086 0
M  V30 781 N 72.0491 -0.409439 7.00905 0
M  V30 782 H 76.8891 1.07108 2.78086 0
M  V30 783 H 74.4261 0.539677 1.36843 0
M  V30 784 H 76.3841 -1.06992 4.03248 0
M  V30 785 H 75.0141 -1.35841 2.92826 0
M  V30 786 H 74.0661 0.939837 3.68607 0
M  V30 787 H 75.3781 1.01857 4.88289 0
M  V30 788 H 74.5321 -1.07035 5.97184 0
M  V30 789 H 73.2711 -1.23657 4.71763 0
M  V30 790 H 72.2761 0.960769 5.4134 0
M  V30 791 H 73.5011 1.1131 6.69916 0
M  V30 792 H 71.4471 -1.11856 6.46393 0
M  V30 793 H 71.3641 0.224126 7.55668 0
M  V30 794 H 72.6321 -0.951336 7.73673 0
M  V30 795 N 76.8612 -1.46375 0.584142 0
M  V30 796 C 78.0862 -2.07268 0.0740405 0
M  V30 797 C 78.5112 -1.42979 -1.22223 0
M  V30 798 O 77.8692 -0.514092 -1.73859 0
M  V30 799 C 77.9172 -3.60518 -0.0767769 0
M  V30 800 O 77.0212 -3.96533 -1.13292 0
M  V30 801 H 76.3622 -0.660961 0.0634524 0
M  V30 802 H 78.8922 -1.87991 0.807492 0
M  V30 803 H 78.9022 -4.07021 -0.282489 0
M  V30 804 H 77.5772 -4.06702 0.86986 0
M  V30 805 H 76.1542 -3.61738 -0.905553 0
M  V30 806 N 78.3393 -0.321999 -1.54275 0
M  V30 807 C 79.6163 0.335232 -1.92706 0
M  V30 808 C 79.9963 1.70006 -1.25145 0
M  V30 809 O 79.3443 2.25067 -0.394596 0
M  V30 810 C 79.5543 0.429008 -3.46353 0
M  V30 811 C 80.9023 0.690029 -4.18956 0
M  V30 812 O 81.9263 0.511992 -3.52501 0
M  V30 813 O 80.7853 1.03338 -5.36641 0
M  V30 814 H 77.8793 0.191143 -0.804608 0
M  V30 815 H 80.4253 -0.3716 -1.65581 0
M  V30 816 H 79.1973 -0.529611 -3.87699 0
M  V30 817 H 78.8203 1.18348 -3.79578 0
M  V30 818 N 79.8174 1.5752 -0.0501392 0
M  V30 819 C 80.7644 2.1147 0.924603 0
M  V30 820 C 81.7344 1.02182 1.30951 0
M  V30 821 O 82.9194 1.29723 1.39916 0
M  V30 822 C 80.0594 2.66337 2.19451 0
M  V30 823 C 79.1724 3.89708 1.86418 0
M  V30 824 C 78.3074 4.32893 3.07859 0
M  V30 825 C 77.3464 5.48967 2.70742 0
M  V30 826 N 76.4834 5.87211 3.84874 0
M  V30 827 H 81.3234 2.94465 0.457639 0
M  V30 828 H 78.8604 1.45531 0.214266 0
M  V30 829 H 80.8184 2.96247 2.93758 0
M  V30 830 H 79.4484 1.86141 2.63726 0
M  V30 831 H 78.5004 3.66396 1.02264 0
M  V30 832 H 79.8124 4.74074 1.55096 0
M  V30 833 H 78.9664 4.6435 3.90466 0
M  V30 834 H 77.7054 3.47336 3.42358 0
M  V30 835 H 76.7104 5.17183 1.86551 0
M  V30 836 H 77.9354 6.3624 2.37436 0
M  V30 837 H 75.8814 5.04607 4.19175 0
M  V30 838 H 75.7984 6.66266 3.57247 0
M  V30 839 H 77.0664 6.23282 4.68123 0
M  V30 840 N 81.2955 -0.223234 1.56011 0
M  V30 841 C 82.5415 -0.944891 1.8012 0
M  V30 842 C 82.8965 -1.82039 0.622862 0
M  V30 843 O 82.1895 -1.8773 -0.383143 0
M  V30 844 C 82.3835 -1.81948 3.0762 0
M  V30 845 C 82.2125 -1.03014 4.37742 0
M  V30 846 C 80.9825 -0.72574 5.00061 0
M  V30 847 C 83.1805 -0.396256 5.12771 0
M  V30 848 N 81.1625 0.0851816 6.13841 0
M  V30 849 C 82.5335 0.278137 6.19376 0
M  V30 850 C 84.5885 -0.309117 4.9694 0
M  V30 851 C 83.2915 1.03133 7.11868 0
M  V30 852 C 85.3175 0.430607 5.8983 0
M  V30 853 C 84.6795 1.09355 6.9586 0
M  V30 854 H 80.7785 -0.326081 0.710771 0
M  V30 855 H 83.3625 -0.215914 1.93499 0
M  V30 856 H 81.5335 -2.52029 2.95527 0
M  V30 857 H 83.2655 -2.47848 3.19927 0
M  V30 858 H 80.0205 -1.04335 4.61964 0
M  V30 859 H 80.4445 0.479428 6.753 0
M  V30 860 H 85.0865 -0.807313 4.15021 0
M  V30 861 H 82.8045 1.54105 7.9327 0
M  V30 862 H 86.3905 0.499012 5.79656 0
M  V30 863 H 85.2705 1.65679 7.66499 0
M  V30 864 N 82.7736 -1.49793 -0.48987 0
M  V30 865 C 84.0226 -1.59085 -1.23995 0
M  V30 866 C 84.3356 -0.287907 -1.9347 0
M  V30 867 O 85.5416 -0.259506 -2.70257 0
M  V30 868 C 83.9976 -2.80736 -2.252 0
M  V30 869 C 83.6056 -4.17833 -1.61614 0
M  V30 870 C 85.3496 -2.99364 -3.00967 0
M  V30 871 C 83.2566 -5.30693 -2.60996 0
M  V30 872 H 82.1866 -0.592372 -0.466488 0
M  V30 873 H 84.8376 -1.76197 -0.51252 0
M  V30 874 H 83.2196 -2.57142 -3.01154 0
M  V30 875 H 84.3936 -4.51608 -0.915774 0
M  V30 876 H 82.7086 -4.04656 -0.981977 0
M  V30 877 H 85.3056 -3.80851 -3.75308 0
M  V30 878 H 85.6486 -2.10356 -3.59244 0
M  V30 879 H 86.1816 -3.2305 -2.32128 0
M  V30 880 H 82.9206 -6.21796 -2.07485 0
M  V30 881 H 82.4406 -5.01359 -3.2924 0
M  V30 882 H 84.1196 -5.6049 -3.23202 0
M  V30 883 N 84.2517 0.741722 -1.39055 0
M  V30 884 C 85.5287 1.49252 -1.26425 0
M  V30 885 C 85.9087 2.10705 0.129144 0
M  V30 886 O 85.2567 1.98045 1.13976 0
M  V30 887 C 85.4667 2.54934 -2.38347 0
M  V30 888 C 86.8147 3.21506 -2.77343 0
M  V30 889 O 87.8387 2.65245 -2.37747 0
M  V30 890 O 86.6977 4.23294 -3.45665 0
M  V30 891 H 83.7917 0.662451 -0.495064 0
M  V30 892 H 86.3377 0.776121 -1.50912 0
M  V30 893 H 85.1097 2.07857 -3.31529 0
M  V30 894 H 84.7327 3.34141 -2.15489 0
M  V30 895 N 85.7298 1.2412 0.971189 0
M  V30 896 C 86.9788 1.07284 1.70801 0
M  V30 897 C 87.2918 -0.388902 1.91695 0
M  V30 898 O 88.4978 -0.677379 2.62914 0
M  V30 899 C 86.9538 1.87145 3.07416 0
M  V30 900 C 86.5618 3.37707 2.94377 0
M  V30 901 C 88.3058 1.78828 3.84995 0
M  V30 902 C 86.2128 4.09925 4.26281 0
M  V30 903 H 85.1428 0.397854 0.64049 0
M  V30 904 H 87.7938 1.4817 1.0825 0
M  V30 905 H 86.1758 1.39071 3.70777 0
M  V30 906 H 87.3498 3.93335 2.4005 0
M  V30 907 H 85.6648 3.46938 2.30267 0
M  V30 908 H 88.2618 2.30089 4.82662 0
M  V30 909 H 88.6048 0.75284 4.09436 0
M  V30 910 H 89.1378 2.24563 3.28354 0
M  V30 911 H 85.8768 5.13813 4.07033 0
M  V30 912 H 85.3968 3.59083 4.80437 0
M  V30 913 H 87.0758 4.1673 4.94919 0
M  V30 914 N 87.2079 -1.17134 1.05439 0
M  V30 915 C 88.1579 -2.1919 0.627675 0
M  V30 916 C 89.1419 -1.57328 -0.337147 0
M  V30 917 O 90.3339 -1.76329 -0.153976 0
M  V30 918 C 87.4629 -3.43299 0.00651435 0
M  V30 919 C 86.5489 -4.12255 0.995312 0
M  V30 920 N 86.9399 -4.56997 2.16765 0
M  V30 921 C 85.2379 -4.38316 0.824336 0
M  V30 922 C 85.9389 -5.10239 2.7934 0
M  V30 923 N 84.9149 -5.02595 2.07122 0
M  V30 924 H 88.7169 -2.5149 1.52086 0
M  V30 925 H 86.2309 -1.33491 0.924868 0
M  V30 926 H 88.2279 -4.15693 -0.316965 0
M  V30 927 H 86.8879 -3.1249 -0.882033 0
M  V30 928 H 87.8989 -4.51006 2.54587 0
M  V30 929 H 84.5759 -4.17498 -0.0129526 0
M  V30 930 H 85.9659 -5.54961 3.78772 0
M  V30 931 N 88.686 -0.835752 -1.33615 0
M  V30 932 C 89.634 -0.255238 -2.31195 0
M  V30 933 C 90.628 0.61107 -1.57995 0
M  V30 934 O 91.834 0.500979 -1.72888 0
M  V30 935 H 88.209 -0.0638085 -0.749288 0
M  V30 936 H 90.18 -1.09283 -2.77669 0
M  V30 937 C 88.929 0.55754 -3.43201 0
M  V30 938 H 88.252 -0.0997553 -3.99676 0
M  V30 939 H 89.692 0.929622 -4.13683 0
M  V30 940 C 88.151 1.73515 -2.88781 0
M  V30 941 O 88.681 2.83376 -2.84712 0
M  V30 942 N 86.887 1.55603 -2.4543 0
M  V30 943 H 86.434 0.662354 -2.48939 0
M  V30 944 H 86.392 2.34545 -2.09371 0
M  V30 945 N 90.1641 1.46063 -0.591896 0
M  V30 946 C 91.5751 1.85944 -0.167822 0
M  V30 947 C 91.9261 1.49429 1.27143 0
M  V30 948 O 91.0511 0.913515 1.96173 0
M  V30 949 C 91.6461 3.37489 -0.297794 0
M  V30 950 C 90.2051 3.76332 0.0714732 0
M  V30 951 C 89.3521 2.7006 -0.629509 0
M  V30 952 H 92.3031 1.37087 -0.799555 0
M  V30 953 H 92.3241 3.77532 0.474349 0
M  V30 954 H 91.8361 3.64034 -1.3454 0
M  V30 955 H 89.9371 3.55405 1.11886 0
M  V30 956 H 90.0501 4.78088 -0.311245 0
M  V30 957 H 88.4141 2.54607 -0.0687867 0
M  V30 958 H 89.1971 2.99444 -1.67894 0
M  V30 959 N 91.6422 0.330177 1.54103 0
M  V30 960 C 92.6052 -0.520144 2.2322 0
M  V30 961 C 93.6052 -1.03828 1.22786 0
M  V30 962 O 94.7952 -0.929652 1.4732 0
M  V30 963 C 91.9272 -1.72317 2.94142 0
M  V30 964 H 93.1202 0.0841605 2.99782 0
M  V30 965 H 90.6732 0.0813433 1.56088 0
M  V30 966 H 91.4082 -2.36653 2.21734 0
M  V30 967 H 91.1932 -1.35898 3.67796 0
M  V30 968 H 92.6832 -2.3266 3.46784 0
M  V30 969 N 93.1203 -1.57491 0.0584922 0
M  V30 970 C 94.3483 -1.97296 -0.623037 0
M  V30 971 C 94.7633 -0.936338 -1.63946 0
M  V30 972 O 94.1203 0.0785981 -1.82331 0
M  V30 973 C 94.1713 -3.37183 -1.30345 0
M  V30 974 O 93.8923 -4.36872 -0.32773 0
M  V30 975 C 95.3933 -3.91788 -2.07406 0
M  V30 976 H 92.6133 -0.649153 -0.169826 0
M  V30 977 H 95.1573 -2.04106 0.12696 0
M  V30 978 H 93.3123 -3.31502 -2.00463 0
M  V30 979 H 93.7263 -5.18141 -0.814269 0
M  V30 980 H 95.2003 -4.91926 -2.50425 0
M  V30 981 H 95.6773 -3.27609 -2.92521 0
M  V30 982 H 96.2833 -4.00829 -1.42184 0
M  V30 983 N 94.5984 0.214957 -1.56127 0
M  V30 984 C 95.5464 1.28601 -1.93816 0
M  V30 985 C 96.5404 1.48175 -0.821016 0
M  V30 986 O 97.7464 1.49271 -1.0059 0
M  V30 987 H 94.1214 0.431302 -0.616022 0
M  V30 988 H 96.0924 0.940991 -2.83175 0
M  V30 989 C 94.8414 2.62779 -2.27689 0
M  V30 990 H 94.1644 2.48527 -3.13168 0
M  V30 991 H 95.6044 3.36517 -2.57939 0
M  V30 992 C 94.0634 3.18285 -1.10436 0
M  V30 993 O 94.5934 4.00002 -0.368945 0
M  V30 994 N 92.7994 2.7675 -0.886433 0
M  V30 995 H 92.3464 2.10404 -1.48619 0
M  V30 996 H 92.3044 3.14229 -0.103656 0
M  V30 997 N 96.0765 1.50051 0.48192 0
M  V30 998 C 96.9865 1.7089 1.60728 0
M  V30 999 C 98.0025 0.591788 1.63627 0
M  V30 1000 O 99.1785 0.868817 1.81696 0
M  V30 1001 C 96.2435 1.78855 2.97005 0
M  V30 1002 C 95.3045 3.02537 3.04581 0
M  V30 1003 C 94.5375 3.10112 4.34357 0
M  V30 1004 O 94.7605 2.24765 5.24249 0
M  V30 1005 O 93.6945 4.02747 4.47301 0
M  V30 1006 H 97.5205 2.66264 1.46072 0
M  V30 1007 H 95.1055 1.34018 0.660264 0
M  V30 1008 H 96.9875 1.86336 3.77964 0
M  V30 1009 H 95.6625 0.866628 3.11883 0
M  V30 1010 H 94.5695 3.00563 2.22739 0
M  V30 1011 H 95.9025 3.94272 2.94636 0
M  V30 1012 N 97.5546 -0.734337 1.39446 0
M  V30 1013 C 98.8006 -1.49613 1.36908 0
M  V30 1014 C 99.1336 -1.94169 -0.0347829 0
M  V30 1015 O 98.4086 -1.66833 -0.999847 0
M  V30 1016 C 98.6916 -2.73534 2.34203 0
M  V30 1017 C 98.5446 -2.34993 3.83534 0
M  V30 1018 C 99.8636 -3.75635 2.29317 0
M  V30 1019 H 96.9826 -0.542714 0.498629 0
M  V30 1020 H 99.6246 -0.839597 1.70443 0
M  V30 1021 H 97.7746 -3.29553 2.05736 0
M  V30 1022 H 99.4466 -1.84601 4.22753 0
M  V30 1023 H 97.6896 -1.67213 4.00278 0
M  V30 1024 H 98.3606 -3.23738 4.47099 0
M  V30 1025 H 100.837 -3.29203 2.54489 0
M  V30 1026 H 99.7126 -4.60008 2.99472 0
M  V30 1027 H 99.9736 -4.22603 1.29842 0
M  V30 1028 N 99.0327 -1.24633 -0.964593 0
M  V30 1029 C 100.282 -1.08188 -1.7023 0
M  V30 1030 C 100.595 0.37873 -1.91898 0
M  V30 1031 O 101.801 0.663427 -2.6327 0
M  V30 1032 C 100.257 -1.88773 -3.06419 0
M  V30 1033 C 99.8647 -3.39263 -2.92582 0
M  V30 1034 C 101.609 -1.80867 -3.84041 0
M  V30 1035 C 99.5157 -4.1218 -4.24101 0
M  V30 1036 H 98.4457 -0.401245 -0.638372 0
M  V30 1037 H 101.097 -1.48742 -1.07462 0
M  V30 1038 H 99.4787 -1.41035 -3.70034 0
M  V30 1039 H 100.653 -3.94603 -2.37961 0
M  V30 1040 H 98.9677 -3.48154 -2.28424 0
M  V30 1041 H 101.565 -2.32646 -4.81435 0
M  V30 1042 H 101.908 -0.774543 -4.09031 0
M  V30 1043 H 102.441 -2.26301 -3.27159 0
M  V30 1044 H 99.1797 -5.15965 -4.04303 0
M  V30 1045 H 98.6997 -3.61626 -4.78526 0
M  V30 1046 H 100.379 -4.19349 -4.92702 0
M  V30 1047 N 100.511 1.16574 -1.06058 0
M  V30 1048 C 101.759 1.86677 -0.77434 0
M  V30 1049 C 102.08 1.81959 0.701147 0
M  V30 1050 O 101.35 1.2515 1.50713 0
M  V30 1051 H 99.9298 0.691134 -0.283449 0
M  V30 1052 H 102.592 1.41378 -1.34158 0
M  V30 1053 H 101.688 2.92181 -1.09711 0
M  V30 1054 N 101.989 0.842826 1.3317 0
M  V30 1055 C 103.405 0.531128 1.50503 0
M  V30 1056 C 103.605 -0.940734 1.78192 0
M  V30 1057 O 102.661 -1.72436 1.84451 0
M  V30 1058 C 103.974 1.40789 2.65705 0
M  V30 1059 C 105.522 1.40708 2.79589 0
M  V30 1060 C 105.997 2.26878 3.97857 0
M  V30 1061 N 107.488 2.24609 4.05099 0
M  V30 1062 C 108.223 2.88019 4.95815 0
M  V30 1063 N 107.719 3.60496 5.9162 0
M  V30 1064 N 109.512 2.77469 4.88843 0
M  V30 1065 H 101.663 1.79557 1.1346 0
M  V30 1066 H 103.926 0.766267 0.558156 0
M  V30 1067 H 103.632 2.454 2.51936 0
M  V30 1068 H 103.506 1.08677 3.61205 0
M  V30 1069 H 105.893 0.368668 2.92788 0
M  V30 1070 H 105.974 1.76829 1.84838 0
M  V30 1071 H 105.618 3.3078 3.85418 0
M  V30 1072 H 105.548 1.88096 4.91861 0
M  V30 1073 H 108.039 1.71906 3.36536 0
M  V30 1074 H 108.352 4.06076 6.57512 0
M  V30 1075 H 106.697 3.64604 5.91683 0
M  V30 1076 H 109.888 2.20406 4.12963 0
M  V30 1077 H 110.061 3.2717 5.59342 0
M  V30 1078 N 103.467 -1.45747 0.599634 0
M  V30 1079 C 104.713 -2.02592 0.0918643 0
M  V30 1080 C 105.046 -1.46806 -1.27128 0
M  V30 1081 O 104.321 -0.639658 -1.83681 0
M  V30 1082 C 104.604 -3.60073 0.0443398 0
M  V30 1083 C 104.457 -4.26208 1.43759 0
M  V30 1084 C 105.776 -4.35309 -0.647608 0
M  V30 1085 H 102.895 -0.736175 0.034857 0
M  V30 1086 H 105.537 -1.73694 0.770081 0
M  V30 1087 H 103.687 -3.84823 -0.533224 0
M  V30 1088 H 105.359 -4.12668 2.06162 0
M  V30 1089 H 103.602 -3.84916 2.00056 0
M  V30 1090 H 104.273 -5.35069 1.35665 0
M  V30 1091 H 106.749 -4.15805 -0.156776 0
M  V30 1092 H 105.625 -5.45038 -0.649942 0
M  V30 1093 H 105.886 -4.07598 -1.71219 0
M  V30 1094 N 104.945 -0.338344 -1.53925 0
M  V30 1095 C 106.356 0.146651 -1.86123 0
M  V30 1096 C 106.707 1.5042 -1.2597 0
M  V30 1097 O 105.832 2.08723 -0.571294 0
M  V30 1098 C 106.427 0.272879 -3.37699 0
M  V30 1099 C 104.986 0.702103 -3.69794 0
M  V30 1100 C 104.133 -0.167304 -2.76795 0
M  V30 1101 H 107.084 -0.558123 -1.48562 0
M  V30 1102 H 107.105 1.10128 -3.64214 0
M  V30 1103 H 106.617 -0.715307 -3.81451 0
M  V30 1104 H 104.718 1.6995 -3.31584 0
M  V30 1105 H 104.831 0.495604 -4.7653 0
M  V30 1106 H 103.195 0.359527 -2.5215 0
M  V30 1107 H 103.978 -1.15253 -3.23375 0
M  V30 1108 N 106.423 1.57458 -0.0668435 0
M  V30 1109 C 107.355 2.09413 0.931601 0
M  V30 1110 C 108.368 1.02522 1.26464 0
M  V30 1111 O 109.557 1.30049 1.22269 0
M  V30 1112 C 106.657 2.53537 2.24882 0
M  V30 1113 C 105.83 3.83944 2.09537 0
M  V30 1114 C 104.889 4.14214 3.2452 0
M  V30 1115 O 103.915 4.83891 2.9973 0
M  V30 1116 N 105.117 3.67367 4.49469 0
M  V30 1117 H 107.882 2.95699 0.488048 0
M  V30 1118 H 105.443 1.61462 0.119009 0
M  V30 1119 H 107.435 2.70853 3.00701 0
M  V30 1120 H 106.005 1.72415 2.60753 0
M  V30 1121 H 105.225 3.76057 1.18215 0
M  V30 1122 H 106.513 4.69312 1.96529 0
M  V30 1123 H 105.911 3.11068 4.72497 0
M  V30 1124 H 104.468 3.89891 5.2233 0
M  V30 1125 N 107.901 -0.206675 1.56239 0
M  V30 1126 C 108.864 -1.23976 1.92776 0
M  V30 1127 C 109.864 -1.39041 0.807729 0
M  V30 1128 O 111.054 -1.37051 1.0753 0
M  V30 1129 C 108.186 -2.61112 2.19165 0
M  V30 1130 H 109.379 -0.927764 2.85189 0
M  V30 1131 H 106.932 -0.447718 1.4975 0
M  V30 1132 H 107.667 -2.97386 1.29352 0
M  V30 1133 H 107.452 -2.51552 3.00772 0
M  V30 1134 H 108.942 -3.35633 2.48476 0
M  V30 1135 N 109.379 -1.50304 -0.473955 0
M  V30 1136 C 110.607 -1.64902 -1.24959 0
M  V30 1137 C 111.022 -0.331198 -1.85872 0
M  V30 1138 O 110.379 0.68652 -1.69095 0
M  V30 1139 C 110.43 -2.73803 -2.36038 0
M  V30 1140 O 110.151 -4.00477 -1.77624 0
M  V30 1141 C 111.652 -2.99349 -3.26964 0
M  V30 1142 H 108.872 -0.554383 -0.378022 0
M  V30 1143 H 111.416 -1.9651 -0.566054 0
M  V30 1144 H 109.571 -2.44898 -3.00173 0
M  V30 1145 H 109.985 -4.60678 -2.5075 0
M  V30 1146 H 111.459 -3.79217 -4.01121 0
M  V30 1147 H 111.936 -2.10307 -3.85574 0
M  V30 1148 H 112.542 -3.29774 -2.68569 0
M  V30 1149 N 110.857 0.726932 -1.39834 0
M  V30 1150 C 111.804 1.841 -1.39197 0
M  V30 1151 C 112.774 1.642 -0.250502 0
M  V30 1152 O 113.959 1.85494 -0.446846 0
M  V30 1153 C 111.099 3.21697 -1.24919 0
M  V30 1154 C 110.212 3.53247 -2.48678 0
M  V30 1155 C 109.347 4.80289 -2.26928 0
M  V30 1156 C 108.386 5.04707 -3.4632 0
M  V30 1157 N 107.523 6.22956 -3.23836 0
M  V30 1158 H 112.363 1.83979 -2.34427 0
M  V30 1159 H 109.9 0.898876 -1.16442 0
M  V30 1160 H 111.858 4.01137 -1.1465 0
M  V30 1161 H 110.488 3.21076 -0.333153 0
M  V30 1162 H 109.54 2.68447 -2.69519 0
M  V30 1163 H 110.852 3.67205 -3.37582 0
M  V30 1164 H 110.006 5.67725 -2.13947 0
M  V30 1165 H 108.745 4.68519 -1.35431 0
M  V30 1166 H 107.75 4.1573 -3.5979 0
M  V30 1167 H 108.975 5.18357 -4.38729 0
M  V30 1168 H 106.921 6.12459 -2.35011 0
M  V30 1169 H 106.838 6.37539 -4.063 0
M  V30 1170 H 108.106 7.1321 -3.14566 0
M  V30 1171 N 112.336 1.25143 0.95797 0
M  V30 1172 C 113.299 1.05321 2.03569 0
M  V30 1173 C 114.299 0.007152 1.60798 0
M  V30 1174 O 115.489 0.24903 1.72411 0
M  V30 1175 C 112.621 0.598394 3.35607 0
M  V30 1176 H 113.814 2.00986 2.22586 0
M  V30 1177 H 111.367 1.07502 1.13459 0
M  V30 1178 H 112.102 -0.361014 3.22284 0
M  V30 1179 H 111.887 1.35351 3.67998 0
M  V30 1180 H 113.377 0.48104 4.1482 0
M  V30 1181 N 113.814 -1.1601 1.06675 0
M  V30 1182 C 114.724 -2.24156 0.692179 0
M  V30 1183 C 115.74 -1.71507 -0.293513 0
M  V30 1184 O 116.916 -2.009 -0.141861 0
M  V30 1185 C 113.981 -3.46587 0.0884131 0
M  V30 1186 C 113.042 -4.14257 1.12646 0
M  V30 1187 C 112.275 -5.30844 0.551416 0
M  V30 1188 O 112.498 -5.66858 -0.634656 0
M  V30 1189 O 111.432 -5.87848 1.29298 0
M  V30 1190 H 115.258 -2.58513 1.59388 0
M  V30 1191 H 112.843 -1.23599 0.83926 0
M  V30 1192 H 114.725 -4.20679 -0.246361 0
M  V30 1193 H 113.4 -3.13994 -0.786712 0
M  V30 1194 H 112.307 -3.42118 1.51348 0
M  V30 1195 H 113.64 -4.50914 1.97325 0
M  V30 1196 N 115.292 -0.849877 -1.32721 0
M  V30 1197 C 116.225 -0.235903 -2.26977 0
M  V30 1198 C 117.203 0.623355 -1.50177 0
M  V30 1199 O 118.387 0.581207 -1.79316 0
M  V30 1200 C 115.514 0.667712 -3.32053 0
M  V30 1201 C 114.56 -0.11753 -4.26338 0
M  V30 1202 S 115.393 -1.48277 -5.14562 0
M  V30 1203 C 116.549 -0.584741 -6.23163 0
M  V30 1204 H 116.782 -1.03495 -2.78704 0
M  V30 1205 H 114.315 -0.64724 -1.40179 0
M  V30 1206 H 116.273 1.18343 -3.93072 0
M  V30 1207 H 114.934 1.44052 -2.7912 0
M  V30 1208 H 114.127 0.57051 -5.00761 0
M  V30 1209 H 113.729 -0.564668 -3.69713 0
M  V30 1210 H 116.021 0.212968 -6.77165 0
M  V30 1211 H 116.964 -1.29947 -6.96074 0
M  V30 1212 H 117.372 -0.161202 -5.6427 0
M  V30 1213 N 116.77 1.45427 -0.607355 0
M  V30 1214 C 118.047 1.9557 -0.0344566 0
M  V30 1215 C 118.427 1.54979 1.43334 0
M  V30 1216 O 117.775 0.812241 2.13576 0
M  V30 1217 C 117.985 3.48226 -0.232321 0
M  V30 1218 C 119.333 4.2445 -0.113001 0
M  V30 1219 O 120.357 3.55829 -0.162431 0
M  V30 1220 O 119.216 5.465 0.00209442 0
M  V30 1221 H 116.31 0.826222 0.0358667 0
M  V30 1222 H 118.856 1.55594 -0.6774 0
M  V30 1223 H 117.628 3.70739 -1.25174 0
M  V30 1224 H 117.251 3.95092 0.445896 0
M  V30 1225 N 118.248 0.346503 1.53744 0
M  V30 1226 C 119.211 -0.496439 2.23759 0
M  V30 1227 C 120.211 -1.0252 1.2388 0
M  V30 1228 O 121.401 -0.913974 1.48297 0
M  V30 1229 C 118.533 -1.69187 2.95954 0
M  V30 1230 H 119.726 0.115952 2.99676 0
M  V30 1231 H 117.279 0.0978939 1.55993 0
M  V30 1232 H 118.014 -2.34288 2.24231 0
M  V30 1233 H 117.799 -1.31989 3.69217 0
M  V30 1234 H 119.289 -2.28969 3.49232 0
M  V30 1235 N 119.726 -1.57421 0.075193 0
M  V30 1236 C 120.689 -2.11791 -0.876203 0
M  V30 1237 C 121.689 -1.04268 -1.22412 0
M  V30 1238 O 122.879 -1.30242 -1.15684 0
M  V30 1239 C 120.011 -2.62207 -2.17854 0
M  V30 1240 H 121.204 -2.9716 -0.40444 0
M  V30 1241 H 118.757 -1.55333 -0.173557 0
M  V30 1242 H 119.492 -1.803 -2.6956 0
M  V30 1243 H 119.277 -3.40802 -1.93897 0
M  V30 1244 H 120.767 -3.04335 -2.85955 0
M  V30 1245 N 121.204 0.198386 -1.56346 0
M  V30 1246 C 122.453 0.917451 -1.79627 0
M  V30 1247 C 122.766 1.8456 -0.64784 0
M  V30 1248 O 123.972 2.60504 -0.764859 0
M  V30 1249 C 122.428 1.68175 -3.18191 0
M  V30 1250 C 122.036 0.798589 -4.40825 0
M  V30 1251 C 123.78 2.39065 -3.50782 0
M  V30 1252 C 121.687 1.56157 -5.70411 0
M  V30 1253 H 120.617 0.346317 -0.669762 0
M  V30 1254 H 123.268 0.170801 -1.82703 0
M  V30 1255 H 121.65 2.47216 -3.09354 0
M  V30 1256 H 122.824 0.0470665 -4.60776 0
M  V30 1257 H 121.139 0.200686 -4.15916 0
M  V30 1258 H 123.736 2.96692 -4.44835 0
M  V30 1259 H 124.079 3.13091 -2.74371 0
M  V30 1260 H 124.612 1.66993 -3.61052 0
M  V30 1261 H 121.351 0.864142 -6.49779 0
M  V30 1262 H 120.871 2.2871 -5.54483 0
M  V30 1263 H 122.55 2.11622 -6.11412 0
M  V30 1264 N 122.682 1.50554 0.465978 0
M  V30 1265 C 123.645 1.69233 1.54574 0
M  V30 1266 C 124.645 0.562901 1.50626 0
M  V30 1267 O 125.835 0.830016 1.53155 0
M  V30 1268 C 122.967 1.7223 2.94193 0
M  V30 1269 H 124.16 2.65571 1.39327 0
M  V30 1270 H 121.713 1.40111 0.692711 0
M  V30 1271 H 122.448 0.77603 3.14878 0
M  V30 1272 H 122.233 2.54285 2.98466 0
M  V30 1273 H 123.723 1.88618 3.72576 0
M  V30 1274 N 124.16 -0.719506 1.40217 0
M  V30 1275 C 125.385 -1.51371 1.4178 0
M  V30 1276 C 125.81 -1.88091 0.0182355 0
M  V30 1277 O 125.168 -1.52997 -0.972707 0
M  V30 1278 C 125.216 -2.768 2.31115 0
M  V30 1279 O 124.32 -3.73349 1.7517 0
M  V30 1280 H 123.661 -0.456529 0.482159 0
M  V30 1281 H 126.191 -0.88644 1.844 0
M  V30 1282 H 126.201 -3.25371 2.46167 0
M  V30 1283 H 124.876 -2.49407 3.3282 0
M  V30 1284 H 123.453 -3.32179 1.69444 0
M  V30 1285 N 125.638 -1.25649 -0.95132 0
M  V30 1286 C 126.878 -1.11802 -1.71113 0
M  V30 1287 C 127.242 0.334758 -1.89059 0
M  V30 1288 O 128.443 0.595121 -2.62129 0
M  V30 1289 C 126.714 -1.85512 -3.05483 0
M  V30 1290 S 128.273 -1.87597 -3.96677 0
M  V30 1291 H 125.091 -0.399552 -0.588115 0
M  V30 1292 H 127.693 -1.59222 -1.1344 0
M  V30 1293 H 126.397 -2.90299 -2.90094 0
M  V30 1294 H 125.928 -1.38493 -3.68216 0
M  V30 1295 H 127.943 -0.955389 -4.86916 0
M  V30 1296 N 127.117 1.15442 -1.07289 0
M  V30 1297 C 128.064 2.20161 -0.692653 0
M  V30 1298 C 129.034 1.63073 0.31564 0
M  V30 1299 O 130.219 1.89725 0.202235 0
M  V30 1300 C 127.359 3.44967 -0.0959509 0
M  V30 1301 C 126.472 4.16256 -1.15564 0
M  V30 1302 C 125.607 5.28609 -0.524011 0
M  V30 1303 C 124.646 5.91715 -1.56653 0
M  V30 1304 N 123.783 6.9554 -0.957531 0
M  V30 1305 H 128.623 2.52037 -1.59002 0
M  V30 1306 H 126.16 1.2378 -0.794798 0
M  V30 1307 H 128.118 4.16341 0.267628 0
M  V30 1308 H 126.748 3.1361 0.764772 0
M  V30 1309 H 125.8 3.43385 -1.6368 0
M  V30 1310 H 127.112 4.59268 -1.94613 0
M  V30 1311 H 126.266 6.06604 -0.108032 0
M  V30 1312 H 125.005 4.86787 0.29825 0
M  V30 1313 H 124.01 5.12433 -1.9923 0
M  V30 1314 H 125.235 6.35614 -2.39107 0
M  V30 1315 H 123.181 6.55814 -0.156162 0
M  V30 1316 H 123.098 7.36977 -1.68526 0
M  V30 1317 H 124.366 7.77435 -0.567032 0
M  V30 1318 N 128.595 0.856903 1.32268 0
M  V30 1319 C 130.011 0.547061 1.49931 0
M  V30 1320 C 130.211 -0.921781 1.7918 0
M  V30 1321 O 129.267 -1.70469 1.8627 0
M  V30 1322 C 130.58 1.43599 2.64196 0
M  V30 1323 C 132.128 1.43665 2.78081 0
M  V30 1324 C 132.603 2.31085 3.95428 0
M  V30 1325 N 134.094 2.28893 4.02694 0
M  V30 1326 C 134.829 2.93262 4.92732 0
M  V30 1327 N 134.325 3.66751 5.87763 0
M  V30 1328 N 136.118 2.82638 4.85873 0
M  V30 1329 H 128.269 1.8075 1.11549 0
M  V30 1330 H 130.532 0.772144 0.549997 0
M  V30 1331 H 130.238 2.48058 2.49319 0
M  V30 1332 H 130.112 1.12502 3.60032 0
M  V30 1333 H 132.499 0.399701 2.92381 0
M  V30 1334 H 132.58 1.7878 1.82952 0
M  V30 1335 H 132.224 3.34849 3.81888 0
M  V30 1336 H 132.154 1.93302 4.89839 0
M  V30 1337 H 134.645 1.75466 3.34694 0
M  V30 1338 H 134.958 4.13027 6.53168 0
M  V30 1339 H 133.303 3.70859 5.87783 0
M  V30 1340 H 136.494 2.24774 4.10602 0
M  V30 1341 H 136.667 3.33084 5.55841 0
M  V30 1342 N 130.073 -1.45103 0.615059 0
M  V30 1343 C 131.036 -2.29025 -0.0895485 0
M  V30 1344 C 132.036 -1.40174 -0.787906 0
M  V30 1345 O 133.226 -1.62217 -0.634933 0
M  V30 1346 C 130.358 -3.21376 -1.13711 0
M  V30 1347 H 131.551 -2.92807 0.648382 0
M  V30 1348 H 129.104 -1.51749 0.374444 0
M  V30 1349 H 129.839 -2.6241 -1.90556 0
M  V30 1350 H 129.624 -3.86834 -0.640475 0
M  V30 1351 H 131.114 -3.84459 -1.63036 0
M  V30 1352 N 131.551 -0.354651 -1.53558 0
M  V30 1353 C 132.798 0.238443 -2.01091 0
M  V30 1354 C 133.126 1.49663 -1.24222 0
M  V30 1355 O 132.381 1.93049 -0.321003 0
M  V30 1356 C 132.68 0.587121 -3.52545 0
M  V30 1357 C 132.346 -0.575472 -4.47213 0
M  V30 1358 C 131.008 -0.894497 -4.72813 0
M  V30 1359 C 133.36 -1.35489 -5.03281 0
M  V30 1360 C 130.688 -1.99511 -5.51736 0
M  V30 1361 C 133.04 -2.44583 -5.83405 0
M  V30 1362 C 131.704 -2.77033 -6.07296 0
M  V30 1363 H 130.974 0.0872526 -0.735845 0
M  V30 1364 H 133.621 -0.484859 -1.8526 0
M  V30 1365 H 131.926 1.39129 -3.66265 0
M  V30 1366 H 133.623 1.05809 -3.86789 0
M  V30 1367 H 130.213 -0.316774 -4.27428 0
M  V30 1368 H 134.397 -1.12167 -4.83459 0
M  V30 1369 H 129.653 -2.25063 -5.68469 0
M  V30 1370 H 133.827 -3.05401 -6.25862 0
M  V30 1371 H 131.454 -3.6244 -6.68237 0
M  V30 1372 N 133.029 1.57378 -0.0835403 0
M  V30 1373 C 134.44 1.81261 0.447358 0
M  V30 1374 C 134.791 0.998331 1.68902 0
M  V30 1375 O 133.916 0.224282 2.15235 0
M  V30 1376 C 134.511 3.28767 0.818386 0
M  V30 1377 C 133.07 3.53455 1.29409 0
M  V30 1378 C 132.217 2.75831 0.285024 0
M  V30 1379 H 135.168 1.5566 -0.309115 0
M  V30 1380 H 135.189 3.41459 1.67887 0
M  V30 1381 H 134.701 3.88006 -0.0855019 0
M  V30 1382 H 132.802 2.99534 2.21608 0
M  V30 1383 H 132.915 4.62128 1.2639 0
M  V30 1384 H 131.279 2.42947 0.764767 0
M  V30 1385 H 132.062 3.37813 -0.611341 0
M  V30 1386 N 134.507 -0.190092 1.56449 0
M  V30 1387 C 135.47 -1.21925 1.9408 0
M  V30 1388 C 136.47 -1.38176 0.822431 0
M  V30 1389 O 137.66 -1.35903 1.08977 0
M  V30 1390 C 134.792 -2.58773 2.21922 0
M  V30 1391 H 135.985 -0.897464 2.86157 0
M  V30 1392 H 133.538 -0.43181 1.50217 0
M  V30 1393 H 134.273 -2.95998 1.32499 0
M  V30 1394 H 134.058 -2.48348 3.03424 0
M  V30 1395 H 135.548 -3.32978 2.52022 0
M  V30 1396 N 135.985 -1.50799 -0.457987 0
M  V30 1397 C 137.231 -1.63648 -1.20792 0
M  V30 1398 C 137.586 -0.338662 -1.89396 0
M  V30 1399 O 136.879 0.664291 -1.79716 0
M  V30 1400 C 137.073 -2.76358 -2.2663 0
M  V30 1401 C 136.902 -4.16974 -1.68411 0
M  V30 1402 C 135.672 -4.83199 -1.47807 0
M  V30 1403 C 137.87 -5.00774 -1.17176 0
M  V30 1404 N 135.852 -6.07991 -0.849692 0
M  V30 1405 C 137.223 -6.16397 -0.667403 0
M  V30 1406 C 139.278 -4.86452 -1.06155 0
M  V30 1407 C 137.981 -7.19272 -0.0636908 0
M  V30 1408 C 140.007 -5.89515 -0.471759 0
M  V30 1409 C 139.369 -7.04397 0.0221557 0
M  V30 1410 H 135.468 -0.652888 -0.43042 0
M  V30 1411 H 138.052 -1.87962 -0.507785 0
M  V30 1412 H 136.223 -2.53744 -2.94056 0
M  V30 1413 H 137.955 -2.78496 -2.93636 0
M  V30 1414 H 134.71 -4.40714 -1.73403 0
M  V30 1415 H 135.134 -6.74733 -0.553537 0
M  V30 1416 H 139.776 -3.97907 -1.42932 0
M  V30 1417 H 137.494 -8.07481 0.316253 0
M  V30 1418 H 141.08 -5.805 -0.388671 0
M  V30 1419 H 139.96 -7.82782 0.471375 0
M  V30 1420 N 137.463 0.71206 -1.40597 0
M  V30 1421 C 138.426 1.80785 -1.40888 0
M  V30 1422 C 139.426 1.57937 -0.302103 0
M  V30 1423 O 140.616 1.64913 -0.561182 0
M  V30 1424 C 137.748 3.18927 -1.20409 0
M  V30 1425 H 138.941 1.81924 -2.38419 0
M  V30 1426 H 136.494 0.91805 -1.26497 0
M  V30 1427 H 137.229 3.23436 -0.236522 0
M  V30 1428 H 137.014 3.36911 -2.00582 0
M  V30 1429 H 138.504 3.98949 -1.23408 0
M  V30 1430 N 138.941 1.26152 0.944643 0
M  V30 1431 C 140.218 1.02247 1.66748 0
M  V30 1432 C 140.598 -0.448202 2.06287 0
M  V30 1433 O 139.946 -1.42779 1.78399 0
M  V30 1434 C 140.156 1.96788 2.88228 0
M  V30 1435 C 141.504 2.25201 3.59958 0
M  V30 1436 O 142.528 1.94626 2.98327 0
M  V30 1437 O 141.387 2.77242 4.70956 0
M  V30 1438 H 138.481 0.388517 0.730057 0
M  V30 1439 H 141.027 1.37348 0.99668 0
M  V30 1440 H 139.799 2.96047 2.55875 0
M  V30 1441 H 139.422 1.62145 3.63035 0
M  V30 1442 N 140.419 -1.14872 1.07899 0
M  V30 1443 C 141.647 -1.89661 0.82683 0
M  V30 1444 C 142.062 -1.78312 -0.620519 0
M  V30 1445 O 141.419 -1.13888 -1.42604 0
M  V30 1446 C 141.47 -3.39817 1.23316 0
M  V30 1447 O 141.191 -3.50845 2.62372 0
M  V30 1448 C 142.692 -4.31615 1.0111 0
M  V30 1449 H 139.912 -0.60092 0.298557 0
M  V30 1450 H 142.456 -1.4551 1.43691 0
M  V30 1451 H 140.611 -3.8161 0.667286 0
M  V30 1452 H 141.025 -4.44076 2.79101 0
M  V30 1453 H 142.499 -5.35367 1.34486 0
M  V30 1454 H 142.976 -4.39169 -0.0522168 0
M  V30 1455 H 143.582 -3.95572 1.56215 0
M  V30 1456 N 141.898 -0.863906 -1.31812 0
M  V30 1457 C 143.123 -0.48527 -2.01643 0
M  V30 1458 C 143.548 0.913058 -1.64453 0
M  V30 1459 O 142.906 1.6014 -0.849985 0
M  V30 1460 C 142.954 -0.642625 -3.54828 0
M  V30 1461 O 142.058 0.320659 -4.11151 0
M  V30 1462 H 141.399 -0.193793 -0.635091 0
M  V30 1463 H 143.929 -1.16565 -1.68148 0
M  V30 1464 H 143.939 -0.533628 -4.04495 0
M  V30 1465 H 142.614 -1.66227 -3.81237 0
M  V30 1466 H 141.191 0.167126 -3.72525 0
M  V30 1467 N 143.376 1.44774 -0.622745 0
M  V30 1468 C 144.622 2.0242 -0.124083 0
M  V30 1469 C 144.955 1.4881 1.24777 0
M  V30 1470 O 144.23 0.668799 1.8264 0
M  V30 1471 C 144.513 3.59957 -0.101619 0
M  V30 1472 C 144.366 4.23867 -1.50521 0
M  V30 1473 C 145.685 4.36284 0.578272 0
M  V30 1474 H 142.804 0.735528 -0.0465645 0
M  V30 1475 H 145.446 1.72447 -0.797617 0
M  V30 1476 H 143.596 3.85623 0.471934 0
M  V30 1477 H 145.268 4.09336 -2.12701 0
M  V30 1478 H 143.511 3.81684 -2.06154 0
M  V30 1479 H 144.182 5.32843 -1.4416 0
M  V30 1480 H 146.658 4.16001 0.0906057 0
M  V30 1481 H 145.534 5.46004 0.563149 0
M  V30 1482 H 145.795 4.10271 1.64713 0
M  V30 1483 N 144.854 0.36279 1.53368 0
M  V30 1484 C 145.784 -0.476976 2.28576 0
M  V30 1485 C 146.765 -1.08631 1.30894 0
M  V30 1486 O 147.95 -1.10409 1.59761 0
M  V30 1487 C 145.08 -1.61828 3.07293 0
M  V30 1488 C 144.034 -1.13633 4.1264 0
M  V30 1489 C 143.36 -2.36766 4.79423 0
M  V30 1490 C 144.66 -0.223061 5.21823 0
M  V30 1491 H 146.354 0.150474 2.99022 0
M  V30 1492 H 143.9 0.0738103 1.43811 0
M  V30 1493 H 145.853 -2.21237 3.58653 0
M  V30 1494 H 144.577 -2.27292 2.34533 0
M  V30 1495 H 143.236 -0.564945 3.62221 0
M  V30 1496 H 142.884 -3.0068 4.03238 0
M  V30 1497 H 142.584 -2.05192 5.50609 0
M  V30 1498 H 144.108 -2.96865 5.33576 0
M  V30 1499 H 145.522 -0.724545 5.68703 0
M  V30 1500 H 143.919 0.001678 6.001 0
M  V30 1501 H 144.989 0.735553 4.79289 0
M  V30 1502 N 146.332 -1.57332 0.0918853 0
M  V30 1503 C 147.557 -1.98995 -0.584442 0
M  V30 1504 C 147.982 -0.970528 -1.61128 0
M  V30 1505 O 147.34 0.0613904 -1.81196 0
M  V30 1506 C 147.388 -3.39636 -1.21161 0
M  V30 1507 O 146.492 -3.40447 -2.32744 0
M  V30 1508 H 145.833 -0.647165 -0.148572 0
M  V30 1509 H 148.363 -2.03873 0.172347 0
M  V30 1510 H 148.373 -3.7726 -1.55367 0
M  V30 1511 H 147.048 -4.13356 -0.459313 0
M  V30 1512 H 145.625 -3.14614 -2.0018 0
M  V30 1513 N 147.81 0.181792 -1.56548 0
M  V30 1514 C 149.226 0.53316 -1.50431 0
M  V30 1515 C 149.426 1.85184 -0.794297 0
M  V30 1516 O 148.482 2.50058 -0.350318 0
M  V30 1517 C 149.795 0.575597 -2.9514 0
M  V30 1518 C 151.343 0.663519 -3.05886 0
M  V30 1519 C 151.818 0.736946 -4.52032 0
M  V30 1520 N 153.309 0.800118 -4.56237 0
M  V30 1521 C 154.044 0.877327 -5.66649 0
M  V30 1522 N 153.54 0.916016 -6.86718 0
M  V30 1523 N 155.333 0.915542 -5.54594 0
M  V30 1524 H 147.484 -0.683025 -2.01118 0
M  V30 1525 H 149.747 -0.244988 -0.915797 0
M  V30 1526 H 149.453 -0.324482 -3.502 0
M  V30 1527 H 149.327 1.42572 -3.49218 0
M  V30 1528 H 151.714 1.55403 -2.50867 0
M  V30 1529 H 151.795 -0.21307 -2.54911 0
M  V30 1530 H 151.439 -0.149262 -5.07681 0
M  V30 1531 H 151.369 1.62953 -5.00753 0
M  V30 1532 H 153.86 0.778926 -3.69785 0
M  V30 1533 H 154.173 0.975813 -7.66614 0
M  V30 1534 H 152.518 0.884469 -6.89349 0
M  V30 1535 H 155.709 0.882245 -4.59711 0
M  V30 1536 H 155.882 0.972253 -6.40665 0
M  V30 1537 N 149.288 1.51039 0.449983 0
M  V30 1538 C 150.22 1.67617 1.56324 0
M  V30 1539 C 151.233 0.557083 1.52972 0
M  V30 1540 O 152.422 0.830989 1.57977 0
M  V30 1541 C 149.522 1.66402 2.95235 0
M  V30 1542 C 148.695 2.9469 3.23229 0
M  V30 1543 C 147.754 2.85832 4.41799 0
M  V30 1544 O 146.78 3.59785 4.41071 0
M  V30 1545 N 147.982 2.00821 5.44657 0
M  V30 1546 H 150.747 2.63648 1.42512 0
M  V30 1547 H 148.308 1.48767 0.638737 0
M  V30 1548 H 150.3 1.58062 3.72557 0
M  V30 1549 H 148.87 0.780182 3.02708 0
M  V30 1550 H 148.09 3.16996 2.34323 0
M  V30 1551 H 149.378 3.79636 3.38754 0
M  V30 1552 H 148.776 1.40091 5.48079 0
M  V30 1553 H 147.333 1.98368 6.20881 0
M  V30 1554 N 150.766 -0.704594 1.40972 0
M  V30 1555 C 151.698 -1.82974 1.38033 0
M  V30 1556 C 152.711 -1.60305 0.283931 0
M  V30 1557 O 153.9 -1.69975 0.545042 0
M  V30 1558 C 151 -3.19578 1.12795 0
M  V30 1559 C 150.173 -3.69352 2.34302 0
M  V30 1560 C 149.232 -4.84601 2.05058 0
M  V30 1561 O 148.258 -4.96682 2.7802 0
M  V30 1562 N 149.46 -5.71194 1.03528 0
M  V30 1563 H 152.225 -1.85991 2.35005 0
M  V30 1564 H 149.786 -0.886567 1.35468 0
M  V30 1565 H 151.778 -3.9429 0.911987 0
M  V30 1566 H 150.348 -3.11642 0.24452 0
M  V30 1567 H 149.568 -2.85649 2.71659 0
M  V30 1568 H 150.856 -3.99345 3.1528 0
M  V30 1569 H 150.254 -5.64054 0.431217 0
M  V30 1570 H 148.811 -6.45843 0.879205 0
M  V30 1571 N 152.244 -1.26651 -0.937939 0
M  V30 1572 C 153.49 -1.12553 -1.687 0
M  V30 1573 C 153.823 0.329782 -1.91379 0
M  V30 1574 O 153.098 1.24202 -1.4968 0
M  V30 1575 C 153.381 -1.89862 -3.05981 0
M  V30 1576 C 153.234 -3.43318 -2.90607 0
M  V30 1577 C 154.553 -1.69499 -4.0615 0
M  V30 1578 H 151.672 -0.410257 -0.612257 0
M  V30 1579 H 154.314 -1.55685 -1.08913 0
M  V30 1580 H 152.464 -1.53204 -3.57017 0
M  V30 1581 H 154.136 -3.89747 -2.46769 0
M  V30 1582 H 152.379 -3.70179 -2.26164 0
M  V30 1583 H 153.05 -3.92642 -3.8799 0
M  V30 1584 H 155.526 -2.01442 -3.64088 0
M  V30 1585 H 154.402 -2.26002 -5.00214 0
M  V30 1586 H 154.663 -0.640365 -4.37438 0
M  V30 1587 N 153.722 1.14298 -1.08507 0
M  V30 1588 C 154.652 2.21542 -0.737646 0
M  V30 1589 C 155.633 1.67773 0.280377 0
M  V30 1590 O 156.818 1.93616 0.150521 0
M  V30 1591 C 153.948 3.46988 -0.147259 0
M  V30 1592 C 152.902 4.13789 -1.09374 0
M  V30 1593 C 152.228 5.33449 -0.365524 0
M  V30 1594 C 153.528 4.62208 -2.4323 0
M  V30 1595 H 155.222 2.5086 -1.6343 0
M  V30 1596 H 152.768 1.20576 -0.787243 0
M  V30 1597 H 154.721 4.21262 0.107808 0
M  V30 1598 H 153.445 3.17037 0.784538 0
M  V30 1599 H 152.104 3.4147 -1.33393 0
M  V30 1600 H 151.752 4.99759 0.57011 0
M  V30 1601 H 151.452 5.79088 -0.996512 0
M  V30 1602 H 152.976 6.10485 -0.118534 0
M  V30 1603 H 154.39 5.27952 -2.23472 0
M  V30 1604 H 152.787 5.18553 -3.02031 0
M  V30 1605 H 153.857 3.77224 -3.04681 0
M  V30 1606 N 155.201 0.870884 1.31352 0
M  V30 1607 C 156.131 0.343096 2.30966 0
M  V30 1608 C 157.112 -0.566507 1.60389 0
M  V30 1609 O 158.297 -0.483336 1.88089 0
M  V30 1610 C 155.427 -0.455487 3.443 0
M  V30 1611 C 154.381 0.361103 4.26474 0
M  V30 1612 C 153.707 -0.563221 5.31725 0
M  V30 1613 C 155.007 1.59566 4.97329 0
M  V30 1614 H 156.701 1.17548 2.75359 0
M  V30 1615 H 154.247 0.566686 1.32381 0
M  V30 1616 H 156.2 -0.83525 4.13039 0
M  V30 1617 H 154.924 -1.32139 2.98675 0
M  V30 1618 H 153.583 0.722825 3.59403 0
M  V30 1619 H 153.231 -1.42643 4.82351 0
M  V30 1620 H 152.931 -0.0207409 5.87596 0
M  V30 1621 H 154.455 -0.939808 6.03324 0
M  V30 1622 H 155.869 1.28728 5.58661 0
M  V30 1623 H 154.266 2.07728 5.63 0
M  V30 1624 H 155.336 2.34798 4.24262 0
M  V30 1625 N 156.679 -1.44442 0.630414 0
M  V30 1626 C 158.095 -1.56832 0.295973 0
M  V30 1627 C 158.295 -1.61806 -1.20088 0
M  V30 1628 O 157.351 -1.5607 -1.9849 0
M  V30 1629 C 158.664 -2.84031 0.987264 0
M  V30 1630 C 160.212 -2.97742 0.96534 0
M  V30 1631 C 160.687 -4.27743 1.63708 0
M  V30 1632 N 162.178 -4.34555 1.60364 0
M  V30 1633 C 162.913 -5.33862 2.09234 0
M  V30 1634 N 162.409 -6.39578 2.66292 0
M  V30 1635 N 164.202 -5.25366 1.99867 0
M  V30 1636 H 156.353 -1.39457 1.60205 0
M  V30 1637 H 158.616 -0.668237 0.672431 0
M  V30 1638 H 158.322 -2.86338 2.04215 0
M  V30 1639 H 158.196 -3.73534 0.524588 0
M  V30 1640 H 160.583 -2.94989 -0.0810639 0
M  V30 1641 H 160.664 -2.09589 1.4665 0
M  V30 1642 H 160.308 -4.31255 2.68293 0
M  V30 1643 H 160.238 -5.14752 1.11076 0
M  V30 1644 H 162.729 -3.58772 1.18705 0
M  V30 1645 H 163.042 -7.11637 3.01317 0
M  V30 1646 H 161.387 -6.40265 2.70343 0
M  V30 1647 H 164.578 -4.41688 1.55013 0
M  V30 1648 H 164.751 -6.02606 2.38265 0
M  V30 1649 N 158.157 -0.370918 -1.53173 0
M  V30 1650 C 159.387 0.217389 -2.05453 0
M  V30 1651 C 159.795 1.42568 -1.24382 0
M  V30 1652 O 159.138 1.81571 -0.278839 0
M  V30 1653 C 159.2 0.669827 -3.53205 0
M  V30 1654 C 158.864 -0.4225 -4.55043 0
M  V30 1655 C 159.861 -1.27407 -5.04047 0
M  V30 1656 C 157.546 -0.58427 -4.9889 0
M  V30 1657 C 159.54 -2.27271 -5.95505 0
M  V30 1658 C 157.227 -1.58627 -5.90153 0
M  V30 1659 C 158.225 -2.42892 -6.38351 0
M  V30 1660 O 157.913 -3.41382 -7.27814 0
M  V30 1661 H 157.645 0.0408171 -0.674767 0
M  V30 1662 H 160.199 -0.5292 -1.98466 0
M  V30 1663 H 158.429 1.4681 -3.57748 0
M  V30 1664 H 160.118 1.18173 -3.88317 0
M  V30 1665 H 160.884 -1.16031 -4.70916 0
M  V30 1666 H 156.763 0.061851 -4.60959 0
M  V30 1667 H 160.307 -2.93079 -6.33049 0
M  V30 1668 H 156.204 -1.70048 -6.22699 0
M  V30 1669 H 156.972 -3.37173 -7.45826 0
M  V30 1670 N 159.635 1.57281 -0.100228 0
M  V30 1671 C 160.567 2.11342 0.886972 0
M  V30 1672 C 161.58 1.05182 1.24261 0
M  V30 1673 O 162.769 1.32613 1.19483 0
M  V30 1674 C 159.869 2.5825 2.19454 0
M  V30 1675 C 159.042 3.88302 2.01346 0
M  V30 1676 C 158.101 4.21004 3.15661 0
M  V30 1677 O 157.127 4.9014 2.89398 0
M  V30 1678 N 158.329 3.76818 4.41575 0
M  V30 1679 H 161.094 2.96668 0.425216 0
M  V30 1680 H 158.655 1.61678 0.0847334 0
M  V30 1681 H 160.647 2.7717 2.94888 0
M  V30 1682 H 159.217 1.77907 2.57037 0
M  V30 1683 H 158.437 3.7848 1.10212 0
M  V30 1684 H 159.725 4.73375 1.8653 0
M  V30 1685 H 159.123 3.2102 4.65792 0
M  V30 1686 H 157.68 4.00882 5.13942 0
M  V30 1687 N 161.113 -0.173488 1.56642 0
M  V30 1688 C 162.045 -1.23935 1.92802 0
M  V30 1689 C 163.058 -1.40589 0.820889 0
M  V30 1690 O 164.247 -1.40631 1.09933 0
M  V30 1691 C 161.347 -2.60837 2.16373 0
M  V30 1692 C 160.52 -2.6551 3.47596 0
M  V30 1693 C 159.579 -3.8376 3.60021 0
M  V30 1694 O 158.605 -3.69859 4.32658 0
M  V30 1695 N 159.807 -5.00127 2.94709 0
M  V30 1696 H 162.572 -0.932236 2.84832 0
M  V30 1697 H 160.133 -0.363268 1.57772 0
M  V30 1698 H 162.125 -3.38407 2.21952 0
M  V30 1699 H 160.695 -2.83948 1.30738 0
M  V30 1700 H 159.915 -1.74052 3.53694 0
M  V30 1701 H 161.203 -2.65641 4.33949 0
M  V30 1702 H 160.601 -5.14322 2.35563 0
M  V30 1703 H 159.158 -5.75567 3.05886 0
M  V30 1704 N 162.591 -1.51276 -0.441967 0
M  V30 1705 C 163.521 -1.752 -1.54361 0
M  V30 1706 C 164.502 -0.601682 -1.59103 0
M  V30 1707 O 165.687 -0.843913 -1.74905 0
M  V30 1708 C 162.817 -1.87282 -2.92477 0
M  V30 1709 C 161.771 -3.02687 -3.02596 0
M  V30 1710 C 161.097 -2.99947 -4.42647 0
M  V30 1711 C 162.397 -4.4273 -2.77106 0
M  V30 1712 H 164.091 -2.67442 -1.34592 0
M  V30 1713 H 161.637 -1.28694 -0.646048 0
M  V30 1714 H 163.59 -2.02602 -3.695 0
M  V30 1715 H 162.314 -0.916844 -3.13467 0
M  V30 1716 H 160.973 -2.87065 -2.28012 0
M  V30 1717 H 160.621 -2.02136 -4.60597 0
M  V30 1718 H 160.321 -3.77439 -4.50348 0
M  V30 1719 H 161.845 -3.17354 -5.2165 0
M  V30 1720 H 163.259 -4.58727 -3.43864 0
M  V30 1721 H 161.656 -5.21893 -2.96222 0
M  V30 1722 H 162.726 -4.53087 -1.72744 0
M  V30 1723 N 164.069 0.697108 -1.41344 0
M  V30 1724 C 165.318 1.45279 -1.39918 0
M  V30 1725 C 165.631 1.95597 -0.0109624 0
M  V30 1726 O 166.837 2.71208 0.125919 0
M  V30 1727 C 165.293 2.62695 -2.46007 0
M  V30 1728 C 164.901 2.19169 -3.90729 0
M  V30 1729 C 166.645 3.40336 -2.53715 0
M  V30 1730 C 164.552 3.33535 -4.88373 0
M  V30 1731 H 163.482 0.545692 -0.520323 0
M  V30 1732 H 166.133 0.756929 -1.67161 0
M  V30 1733 H 164.515 3.34541 -2.11892 0
M  V30 1734 H 165.689 1.54623 -4.34083 0
M  V30 1735 H 164.004 1.54525 -3.86666 0
M  V30 1736 H 166.601 4.2547 -3.2385 0
M  V30 1737 H 166.944 3.85418 -1.5735 0
M  V30 1738 H 167.477 2.75546 -2.86913 0
M  V30 1739 H 164.216 2.93468 -5.86137 0
M  V30 1740 H 163.736 3.96936 -4.49668 0
M  V30 1741 H 165.415 3.99335 -5.09059 0
M  V30 1742 N 165.547 1.27147 0.931209 0
M  V30 1743 C 166.494 1.09568 2.03134 0
M  V30 1744 C 167.464 -0.00222433 1.661 0
M  V30 1745 O 168.649 0.159439 1.90133 0
M  V30 1746 C 165.789 0.745231 3.36957 0
M  V30 1747 C 164.902 1.92041 3.86968 0
M  V30 1748 C 164.037 1.51216 5.09222 0
M  V30 1749 C 163.076 2.65504 5.5152 0
M  V30 1750 N 162.213 2.25291 6.64972 0
M  V30 1751 H 167.053 2.03708 2.17502 0
M  V30 1752 H 164.59 1.01411 1.06556 0
M  V30 1753 H 166.548 0.522878 4.1391 0
M  V30 1754 H 165.178 -0.159202 3.22407 0
M  V30 1755 H 164.23 2.25541 3.06326 0
M  V30 1756 H 165.542 2.77787 4.1429 0
M  V30 1757 H 164.696 1.25084 5.93666 0
M  V30 1758 H 163.435 0.625749 4.83669 0
M  V30 1759 H 162.44 2.92354 4.65628 0
M  V30 1760 H 163.665 3.54761 5.7907 0
M  V30 1761 H 161.611 1.39098 6.41083 0
M  V30 1762 H 161.528 3.04577 6.91931 0
M  V30 1763 H 162.796 2.02398 7.52765 0
M  V30 1764 N 167.025 -1.13721 1.09112 0
M  V30 1765 C 167.935 -2.22638 0.73957 0
M  V30 1766 C 168.951 -1.72091 -0.257068 0
M  V30 1767 O 170.127 -2.01155 -0.0992154 0
M  V30 1768 C 167.192 -3.46322 0.16191 0
M  V30 1769 C 166.253 -4.11775 1.21408 0
M  V30 1770 C 165.486 -5.29555 0.663891 0
M  V30 1771 O 165.709 -5.68077 -0.514274 0
M  V30 1772 O 164.643 -5.84973 1.41738 0
M  V30 1773 H 168.469 -2.55074 1.64836 0
M  V30 1774 H 166.054 -1.21791 0.865289 0
M  V30 1775 H 167.936 -4.21107 -0.157073 0
M  V30 1776 H 166.611 -3.15593 -0.719932 0
M  V30 1777 H 165.518 -3.3883 1.58571 0
M  V30 1778 H 166.851 -4.46627 2.06845 0
M  V30 1779 N 168.503 -0.877838 -1.30888 0
M  V30 1780 C 169.451 -0.328662 -2.30266 0
M  V30 1781 C 170.445 0.560496 -1.59859 0
M  V30 1782 O 171.651 0.445722 -1.74394 0
M  V30 1783 H 168.026 -0.0876142 -0.746879 0
M  V30 1784 H 169.997 -1.18061 -2.74051 0
M  V30 1785 C 168.746 0.448071 -3.44801 0
M  V30 1786 H 168.069 -0.226859 -3.99156 0
M  V30 1787 H 169.509 0.797541 -4.16432 0
M  V30 1788 C 167.968 1.64239 -2.94155 0
M  V30 1789 O 168.498 2.74175 -2.93583 0
M  V30 1790 N 166.704 1.47716 -2.50256 0
M  V30 1791 H 166.251 0.582821 -2.5092 0
M  V30 1792 H 166.209 2.27765 -2.16727 0
M  V30 1793 N 169.982 1.44106 -0.638065 0
M  V30 1794 C 170.912 2.33448 0.0494287 0
M  V30 1795 C 171.893 1.48606 0.827672 0
M  V30 1796 O 173.078 1.77308 0.792173 0
M  V30 1797 C 170.208 3.31771 1.02691 0
M  V30 1798 C 169.162 4.26485 0.359823 0
M  V30 1799 C 168.488 5.14729 1.44769 0
M  V30 1800 C 169.788 5.17056 -0.738296 0
M  V30 1801 H 171.482 2.91183 -0.696636 0
M  V30 1802 H 169.028 1.40014 -0.336456 0
M  V30 1803 H 170.981 3.93161 1.51666 0
M  V30 1804 H 169.705 2.7226 1.80395 0
M  V30 1805 H 168.364 3.66437 -0.10934 0
M  V30 1806 H 168.012 4.51566 2.21578 0
M  V30 1807 H 167.712 5.78913 1.00668 0
M  V30 1808 H 169.236 5.78991 1.93911 0
M  V30 1809 H 170.65 5.72342 -0.331354 0
M  V30 1810 H 169.047 5.89879 -1.10286 0
M  V30 1811 H 170.117 4.57652 -1.60258 0
M  V30 1812 N 171.46 0.379036 1.52974 0
M  V30 1813 C 172.407 -0.461048 2.26148 0
M  V30 1814 C 173.377 -1.06637 1.27349 0
M  V30 1815 O 174.562 -1.09633 1.56157 0
M  V30 1816 C 171.702 -1.58782 3.06402 0
M  V30 1817 C 170.815 -1.00636 4.20115 0
M  V30 1818 C 169.95 -2.10334 4.87784 0
M  V30 1819 C 168.989 -1.49724 5.93506 0
M  V30 1820 N 168.126 -2.5331 6.54812 0
M  V30 1821 H 172.966 0.169429 2.97518 0
M  V30 1822 H 170.503 0.0953806 1.4679 0
M  V30 1823 H 172.461 -2.25174 3.51215 0
M  V30 1824 H 171.091 -2.18876 2.37261 0
M  V30 1825 H 170.143 -0.232332 3.7969 0
M  V30 1826 H 171.455 -0.523343 4.96047 0
M  V30 1827 H 170.609 -2.84519 5.35849 0
M  V30 1828 H 169.348 -2.61992 4.11353 0
M  V30 1829 H 168.353 -0.740598 5.44789 0
M  V30 1830 H 169.578 -0.988732 6.71864 0
M  V30 1831 H 167.524 -3.04156 5.81227 0
M  V30 1832 H 167.441 -2.09734 7.26325 0
M  V30 1833 H 168.709 -3.27155 7.07524 0
M  V30 1834 N 172.938 -1.57226 0.108567 0
M  V30 1835 C 173.848 -2.18292 -0.859401 0
M  V30 1836 C 174.864 -1.15612 -1.30038 0
M  V30 1837 O 176.04 -1.48039 -1.36552 0
M  V30 1838 C 173.105 -2.762 -2.09558 0
M  V30 1839 C 172.166 -3.93881 -1.70752 0
M  V30 1840 C 171.399 -4.49018 -2.88477 0
M  V30 1841 O 171.622 -4.03068 -4.036 0
M  V30 1842 O 170.556 -5.39852 -2.66164 0
M  V30 1843 H 174.382 -3.01441 -0.369769 0
M  V30 1844 H 171.967 -1.48945 -0.1165 0
M  V30 1845 H 173.849 -3.13156 -2.81978 0
M  V30 1846 H 172.524 -1.96089 -2.57548 0
M  V30 1847 H 171.431 -3.61713 -0.954714 0
M  V30 1848 H 172.764 -4.75396 -1.27513 0
M  V30 1849 N 174.416 0.165178 -1.56732 0
M  V30 1850 C 175.665 0.879143 -1.81532 0
M  V30 1851 C 175.978 1.83144 -0.686842 0
M  V30 1852 O 177.184 2.58823 -0.819944 0
M  V30 1853 C 175.64 1.61388 -3.21686 0
M  V30 1854 C 175.248 0.704904 -4.4242 0
M  V30 1855 C 176.992 2.3157 -3.55774 0
M  V30 1856 C 174.899 1.44022 -5.73595 0
M  V30 1857 H 173.829 0.332033 -0.676957 0
M  V30 1858 H 176.48 0.132008 -1.83025 0
M  V30 1859 H 174.862 2.40599 -3.14529 0
M  V30 1860 H 176.036 -0.0506815 -4.60772 0
M  V30 1861 H 174.351 0.112419 -4.16248 0
M  V30 1862 H 176.948 2.8719 -4.51028 0
M  V30 1863 H 177.291 3.07201 -2.8095 0
M  V30 1864 H 177.824 1.59297 -3.64513 0
M  V30 1865 H 174.563 0.72612 -6.51466 0
M  V30 1866 H 174.083 2.16898 -5.5921 0
M  V30 1867 H 175.762 1.98606 -6.15764 0
M  V30 1868 N 175.894 1.51508 0.433938 0
M  V30 1869 C 176.857 1.72473 1.50949 0
M  V30 1870 C 177.857 0.594725 1.49398 0
M  V30 1871 O 179.047 0.862315 1.5136 0
M  V30 1872 C 176.179 1.78431 2.90474 0
M  V30 1873 H 177.372 2.68467 1.33662 0
M  V30 1874 H 174.925 1.41549 0.662836 0
M  V30 1875 H 175.66 0.842645 3.13161 0
M  V30 1876 H 175.445 2.60558 2.93005 0
M  V30 1877 H 176.935 1.96479 3.68491 0
M  V30 1878 N 177.372 -0.689602 1.41712 0
M  V30 1879 C 178.319 -1.80345 1.44029 0
M  V30 1880 C 179.289 -1.63478 0.293948 0
M  V30 1881 O 180.474 -1.84244 0.495869 0
M  V30 1882 C 177.614 -3.18272 1.33405 0
M  V30 1883 C 176.727 -3.46529 2.57956 0
M  V30 1884 C 175.862 -4.74103 2.39582 0
M  V30 1885 C 174.901 -4.95347 3.5958 0
M  V30 1886 N 174.038 -6.14151 3.40239 0
M  V30 1887 H 178.878 -1.77698 2.39222 0
M  V30 1888 H 176.415 -0.867688 1.18784 0
M  V30 1889 H 178.373 -3.97956 1.25246 0
M  V30 1890 H 177.003 -3.2008 0.418164 0
M  V30 1891 H 176.055 -2.61207 2.76542 0
M  V30 1892 H 177.367 -3.58126 3.47199 0
M  V30 1893 H 176.521 -5.61853 2.28924 0
M  V30 1894 H 175.26 -4.64763 1.47805 0
M  V30 1895 H 174.265 -4.06044 3.70686 0
M  V30 1896 H 175.49 -5.06542 4.52318 0
M  V30 1897 H 173.436 -6.06013 2.51167 0
M  V30 1898 H 173.353 -6.26543 4.23061 0
M  V30 1899 H 174.621 -7.04619 3.33365 0
M  V30 1900 N 178.85 -1.27639 -0.924453 0
M  V30 1901 C 179.78 -1.13166 -2.04244 0
M  V30 1902 C 180.761 -0.032256 -1.70069 0
M  V30 1903 O 181.946 -0.207328 -1.9309 0
M  V30 1904 C 179.076 -0.781496 -3.38393 0
M  V30 1905 C 178.03 -1.83449 -3.86692 0
M  V30 1906 C 177.356 -1.33822 -5.17683 0
M  V30 1907 C 178.656 -3.23917 -4.09726 0
M  V30 1908 H 180.35 -2.06689 -2.1661 0
M  V30 1909 H 177.896 -0.995136 -1.04082 0
M  V30 1910 H 179.849 -0.667057 -4.16087 0
M  V30 1911 H 178.573 0.189439 -3.2605 0
M  V30 1912 H 177.232 -1.93789 -3.11193 0
M  V30 1913 H 176.88 -0.35665 -5.01734 0
M  V30 1914 H 176.58 -2.04224 -5.50968 0
M  V30 1915 H 178.104 -1.23679 -5.97943 0
M  V30 1916 H 179.518 -3.16559 -4.77978 0
M  V30 1917 H 177.915 -3.92059 -4.54324 0
M  V30 1918 H 178.985 -3.68729 -3.14908 0
M  V30 1919 N 180.328 1.1314 -1.09713 0
M  V30 1920 C 181.577 1.83838 -0.829851 0
M  V30 1921 C 181.89 1.84599 0.646728 0
M  V30 1922 O 183.096 2.51218 1.02965 0
M  V30 1923 C 181.552 3.30069 -1.43466 0
M  V30 1924 C 181.16 3.37688 -2.94399 0
M  V30 1925 C 182.904 4.05788 -1.24645 0
M  V30 1926 C 180.811 4.78209 -3.47952 0
M  V30 1927 H 179.741 0.68877 -0.306777 0
M  V30 1928 H 182.392 1.27448 -1.3202 0
M  V30 1929 H 180.774 3.8628 -0.871996 0
M  V30 1930 H 181.948 2.91456 -3.56918 0
M  V30 1931 H 180.263 2.75436 -3.12289 0
M  V30 1932 H 182.86 5.09535 -1.62107 0
M  V30 1933 H 183.203 4.15878 -0.187357 0
M  V30 1934 H 183.736 3.55915 -1.77678 0
M  V30 1935 H 180.475 4.73311 -4.53495 0
M  V30 1936 H 179.995 5.24924 -2.90198 0
M  V30 1937 H 181.674 5.47133 -3.45332 0
M  V30 1938 N 181.806 0.884767 1.30421 0
M  V30 1939 C 183.034 0.518044 2.0031 0
M  V30 1940 C 183.449 -0.893408 1.66324 0
M  V30 1941 O 182.806 -1.5875 0.900262 0
M  V30 1942 C 182.857 0.682997 3.54989 0
M  V30 1943 O 182.578 2.03888 3.87764 0
M  V30 1944 C 184.079 0.31924 4.42149 0
M  V30 1945 H 181.299 0.200265 0.640418 0
M  V30 1946 H 183.843 1.19001 1.6631 0
M  V30 1947 H 181.998 0.0584052 3.87356 0
M  V30 1948 H 182.412 2.05735 4.82466 0
M  V30 1949 H 183.886 0.485555 5.4986 0
M  V30 1950 H 184.363 -0.742717 4.32875 0
M  V30 1951 H 184.969 0.920147 4.15227 0
M  V30 1952 N 183.284 -1.43765 0.645699 0
M  V30 1953 C 184.214 -2.33471 -0.0370477 0
M  V30 1954 C 185.195 -1.49042 -0.819779 0
M  V30 1955 O 186.38 -1.77726 -0.782758 0
M  V30 1956 C 183.51 -3.32311 -1.0093 0
M  V30 1957 C 182.464 -4.2667 -0.337201 0
M  V30 1958 C 181.79 -5.1549 -1.42037 0
M  V30 1959 C 183.09 -5.16657 0.765706 0
M  V30 1960 H 184.784 -2.90809 0.712069 0
M  V30 1961 H 182.33 -1.39834 0.343876 0
M  V30 1962 H 184.283 -3.9396 -1.49578 0
M  V30 1963 H 183.007 -2.73213 -1.78948 0
M  V30 1964 H 181.666 -3.66374 0.128771 0
M  V30 1965 H 181.314 -4.52735 -2.1918 0
M  V30 1966 H 181.014 -5.79438 -0.975966 0
M  V30 1967 H 182.538 -5.80012 -1.90838 0
M  V30 1968 H 183.952 -5.72158 0.361702 0
M  V30 1969 H 182.349 -5.89286 1.13413 0
M  V30 1970 H 183.419 -4.56796 1.62683 0
M  V30 1971 N 184.763 -0.387143 -1.52771 0
M  V30 1972 C 185.673 0.456442 -2.30117 0
M  V30 1973 C 186.689 1.07342 -1.36944 0
M  V30 1974 O 187.865 1.07971 -1.70013 0
M  V30 1975 C 184.93 1.56957 -3.09136 0
M  V30 1976 C 183.991 0.977916 -4.18014 0
M  V30 1977 C 183.224 2.038 -4.93256 0
M  V30 1978 O 183.447 3.25271 -4.68567 0
M  V30 1979 O 182.381 1.6565 -5.78657 0
M  V30 1980 H 186.207 -0.17359 -3.03203 0
M  V30 1981 H 183.792 -0.150919 -1.48636 0
M  V30 1982 H 185.674 2.21628 -3.58412 0
M  V30 1983 H 184.349 2.18461 -2.38865 0
M  V30 1984 H 183.256 0.294525 -3.72939 0
M  V30 1985 H 184.589 0.407128 -4.90513 0
M  V30 1986 N 186.241 1.57166 -0.116904 0
M  V30 1987 C 187.173 2.12271 0.864507 0
M  V30 1988 C 188.186 1.06494 1.23138 0
M  V30 1989 O 189.375 1.33873 1.18069 0
M  V30 1990 C 186.475 2.60564 2.16702 0
M  V30 1991 C 185.648 3.90416 1.97216 0
M  V30 1992 C 184.707 4.24329 3.11178 0
M  V30 1993 O 183.733 4.93182 2.84184 0
M  V30 1994 N 184.935 3.8148 4.37554 0
M  V30 1995 H 187.7 2.97102 0.393726 0
M  V30 1996 H 185.261 1.61759 0.0675805 0
M  V30 1997 H 187.253 2.80282 2.91932 0
M  V30 1998 H 185.823 1.80623 2.55135 0
M  V30 1999 H 185.043 3.79627 1.06192 0
M  V30 2000 H 186.331 4.75327 1.81499 0
M  V30 2001 H 185.729 3.25943 4.62361 0
M  V30 2002 H 184.286 4.06311 5.09661 0
M  V30 2003 N 187.719 -0.156864 1.56817 0
M  V30 2004 C 188.967 -0.869404 1.82444 0
M  V30 2005 C 189.288 -1.82147 0.69623 0
M  V30 2006 O 188.558 -1.93847 -0.28287 0
M  V30 2007 H 187.138 -0.324043 0.673056 0
M  V30 2008 H 189.8 -0.153224 1.94297 0
M  V30 2009 H 188.896 -1.43761 2.77019 0
M  V30 2010 N 189.197 -1.51736 -0.425897 0
M  V30 2011 C 190.144 -1.73875 -1.51776 0
M  V30 2012 C 191.114 -0.580702 -1.55618 0
M  V30 2013 O 192.299 -0.81641 -1.72451 0
M  V30 2014 C 189.439 -1.88012 -2.89388 0
M  V30 2015 C 188.552 -3.15606 -2.94986 0
M  V30 2016 C 187.687 -3.20271 -4.23793 0
M  V30 2017 C 186.726 -4.42134 -4.23302 0
M  V30 2018 N 185.863 -4.44284 -5.43651 0
M  V30 2019 H 190.703 -2.67071 -1.32201 0
M  V30 2020 H 188.24 -1.32351 -0.642008 0
M  V30 2021 H 190.198 -1.9419 -3.69251 0
M  V30 2022 H 188.828 -0.98213 -3.07496 0
M  V30 2023 H 187.88 -3.18681 -2.07717 0
M  V30 2024 H 189.192 -4.05486 -2.90486 0
M  V30 2025 H 188.346 -3.25428 -5.12036 0
M  V30 2026 H 187.085 -2.28299 -4.30965 0
M  V30 2027 H 186.09 -4.3714 -3.3345 0
M  V30 2028 H 187.315 -5.35382 -4.17783 0
M  V30 2029 H 185.261 -3.55188 -5.51523 0
M  V30 2030 H 185.178 -5.27988 -5.41078 0
M  V30 2031 H 186.446 -4.53649 -6.33895 0
M  V30 2032 N 190.675 0.682077 -1.42076 0
M  V30 2033 C 191.903 1.47057 -1.4554 0
M  V30 2034 C 192.318 1.8869 -0.0645779 0
M  V30 2035 O 191.675 1.57666 0.919115 0
M  V30 2036 C 191.726 2.72442 -2.37609 0
M  V30 2037 O 191.447 2.32559 -3.71279 0
M  V30 2038 C 192.948 3.66069 -2.50017 0
M  V30 2039 H 190.168 0.452737 -0.495248 0
M  V30 2040 H 192.712 0.838695 -1.8651 0
M  V30 2041 H 190.867 3.31835 -1.9991 0
M  V30 2042 H 191.281 3.13475 -4.20516 0
M  V30 2043 H 192.755 4.50792 -3.18576 0
M  V30 2044 H 193.232 4.11476 -1.53572 0
M  V30 2045 H 193.838 3.12572 -2.88407 0
M  V30 2046 N 192.153 1.28127 0.917671 0
M  V30 2047 C 193.083 1.14248 2.03641 0
M  V30 2048 C 194.064 0.0412748 1.7005 0
M  V30 2049 O 195.249 0.217566 1.92977 0
M  V30 2050 C 192.379 0.799431 3.37974 0
M  V30 2051 C 191.333 1.85497 3.85713 0
M  V30 2052 C 190.659 1.36565 5.16966 0
M  V30 2053 C 191.959 3.26085 4.08002 0
M  V30 2054 H 193.653 2.07835 2.15511 0
M  V30 2055 H 191.199 1.00064 1.03553 0
M  V30 2056 H 193.152 0.689114 4.15727 0
M  V30 2057 H 191.876 -0.172145 3.26146 0
M  V30 2058 H 190.535 1.95437 3.10161 0
M  V30 2059 H 190.183 0.383253 5.01538 0
M  V30 2060 H 189.883 2.07143 5.49878 0
M  V30 2061 H 191.407 1.26848 5.97279 0
M  V30 2062 H 192.821 3.19089 4.76293 0
M  V30 2063 H 191.218 3.94462 4.52238 0
M  V30 2064 H 192.288 3.70394 3.12948 0
M  V30 2065 N 193.631 -1.12557 1.10312 0
M  V30 2066 C 194.594 -2.16434 0.75424 0
M  V30 2067 C 195.594 -1.59278 -0.220685 0
M  V30 2068 O 196.784 -1.742 0.00230591 0
M  V30 2069 C 193.916 -3.40699 0.116987 0
M  V30 2070 H 195.109 -2.48811 1.67431 0
M  V30 2071 H 192.662 -1.27542 0.903475 0
M  V30 2072 H 193.397 -3.13921 -0.813877 0
M  V30 2073 H 193.182 -3.83459 0.818613 0
M  V30 2074 H 194.672 -4.17451 -0.111387 0
M  V30 2075 N 195.109 -0.891671 -1.2995 0
M  V30 2076 C 196.386 -0.433307 -1.9074 0
M  V30 2077 C 196.766 1.08646 -1.80995 0
M  V30 2078 O 196.114 1.92476 -1.23147 0
M  V30 2079 C 196.324 -0.938895 -3.36134 0
M  V30 2080 C 197.672 -0.977829 -4.13187 0
M  V30 2081 O 198.696 -0.886015 -3.45005 0
M  V30 2082 O 197.555 -1.11453 -5.35015 0
M  V30 2083 H 194.649 -0.133699 -0.816121 0
M  V30 2084 H 197.195 -0.981011 -1.38471 0
M  V30 2085 H 195.967 -1.98281 -3.37343 0
M  V30 2086 H 195.59 -0.37074 -3.95868 0
M  V30 2087 N 196.587 1.43421 -0.653314 0
M  V30 2088 C 197.55 2.29182 0.0287951 0
M  V30 2089 C 198.55 1.42213 0.750465 0
M  V30 2090 O 199.74 1.63843 0.591701 0
M  V30 2091 C 196.872 3.24278 1.05151 0
M  V30 2092 H 198.065 2.90985 -0.725786 0
M  V30 2093 H 195.618 1.50702 -0.414545 0
M  V30 2094 H 196.353 2.6737 1.83532 0
M  V30 2095 H 196.138 3.88396 0.537687 0
M  V30 2096 H 197.628 3.88647 1.52786 0
M  V30 2097 N 198.065 0.39524 1.52563 0
M  V30 2098 C 198.975 -0.444232 2.30356 0
M  V30 2099 C 199.991 -1.06615 1.37511 0
M  V30 2100 O 201.167 -1.07067 1.70583 0
M  V30 2101 C 198.232 -1.55315 3.09964 0
M  V30 2102 C 197.293 -0.955734 4.18526 0
M  V30 2103 C 196.526 -2.01181 4.9433 0
M  V30 2104 O 196.749 -3.22781 4.70285 0
M  V30 2105 O 195.683 -1.62579 5.79527 0
M  V30 2106 H 199.509 0.189667 3.03107 0
M  V30 2107 H 197.094 0.1588 1.48554 0
M  V30 2108 H 198.976 -2.19724 3.59582 0
M  V30 2109 H 197.651 -2.17191 2.4002 0
M  V30 2110 H 196.558 -0.274743 3.7309 0
M  V30 2111 H 197.891 -0.381109 4.90722 0
M  V30 2112 N 199.544 -1.57102 0.125237 0
M  V30 2113 C 200.792 -1.95021 -0.530198 0
M  V30 2114 C 201.113 -1.00982 -1.66816 0
M  V30 2115 O 200.383 -0.0672693 -1.95784 0
M  V30 2116 H 198.963 -0.720046 -0.198853 0
M  V30 2117 H 201.625 -1.93916 0.19564 0
M  V30 2118 H 200.721 -2.98211 -0.920681 0
M  V30 2119 N 201.022 0.148545 -1.56898 0
M  V30 2120 C 202.299 0.890019 -1.74178 0
M  V30 2121 C 202.679 1.99407 -0.692839 0
M  V30 2122 O 202.027 2.26671 0.288505 0
M  V30 2123 C 202.237 1.43389 -3.18183 0
M  V30 2124 C 203.585 1.89791 -3.79822 0
M  V30 2125 O 204.609 1.53134 -3.21603 0
M  V30 2126 O 203.468 2.57387 -4.82093 0
M  V30 2127 H 200.562 0.420496 -0.712118 0
M  V30 2128 H 203.108 0.134591 -1.69165 0
M  V30 2129 H 201.88 0.640383 -3.86024 0
M  V30 2130 H 201.503 2.25287 -3.27615 0
M  V30 2131 N 202.5 1.5196 0.417844 0
M  V30 2132 C 203.746 1.65836 1.16732 0
M  V30 2133 C 204.079 0.382881 1.90388 0
M  V30 2134 O 203.354 -0.618368 1.84408 0
M  V30 2135 C 203.637 2.87466 2.16876 0
M  V30 2136 C 203.49 4.25041 1.47174 0
M  V30 2137 C 204.809 3.04613 3.17646 0
M  V30 2138 H 201.928 0.603515 0.423011 0
M  V30 2139 H 204.57 1.84494 0.454105 0
M  V30 2140 H 202.72 2.71689 2.777 0
M  V30 2141 H 204.392 4.52527 0.895376 0
M  V30 2142 H 202.635 4.26843 0.773806 0
M  V30 2143 H 203.306 5.06176 2.20204 0
M  V30 2144 H 205.782 3.1923 2.66892 0
M  V30 2145 H 204.658 3.91247 3.8499 0
M  V30 2146 H 204.919 2.17541 3.84874 0
M  V30 2147 N 203.978 -0.674533 1.42435 0
M  V30 2148 C 205.225 -1.43459 1.42919 0
M  V30 2149 C 205.553 -1.94446 0.0457312 0
M  V30 2150 O 204.808 -1.7132 -0.94593 0
M  V30 2151 C 205.107 -2.64767 2.40069 0
M  V30 2152 C 204.773 -2.3232 3.86443 0
M  V30 2153 C 203.435 -2.23182 4.26314 0
M  V30 2154 C 205.787 -2.05977 4.78773 0
M  V30 2155 C 203.115 -1.85827 5.56494 0
M  V30 2156 C 205.467 -1.70125 6.09295 0
M  V30 2157 C 204.131 -1.59498 6.48164 0
M  V30 2158 H 203.401 -0.524952 0.522978 0
M  V30 2159 H 206.048 -0.769097 1.75377 0
M  V30 2160 H 204.353 -3.36349 2.00939 0
M  V30 2161 H 206.05 -3.22949 2.37707 0
M  V30 2162 H 202.64 -2.40334 3.54877 0
M  V30 2163 H 206.824 -2.11969 4.48757 0
M  V30 2164 H 202.08 -1.76168 5.8547 0
M  V30 2165 H 206.254 -1.48767 6.80324 0
M  V30 2166 H 203.881 -1.30322 7.48946 0
M  V30 2167 N 205.456 -1.28612 -0.910864 0
M  V30 2168 C 206.872 -1.06381 -1.18976 0
M  V30 2169 C 207.072 0.191998 -2.00583 0
M  V30 2170 O 206.128 0.892869 -2.36187 0
M  V30 2171 C 207.441 -2.31295 -1.92154 0
M  V30 2172 C 208.989 -2.36503 -2.05025 0
M  V30 2173 C 209.464 -3.61191 -2.81612 0
M  V30 2174 N 210.955 -3.61847 -2.89172 0
M  V30 2175 C 211.69 -4.55004 -3.4894 0
M  V30 2176 N 211.186 -5.58482 -4.09963 0
M  V30 2177 N 212.979 -4.42594 -3.46506 0
M  V30 2178 H 205.13 -2.09221 -0.366094 0
M  V30 2179 H 207.393 -0.921003 -0.224629 0
M  V30 2180 H 207.099 -3.228 -1.39618 0
M  V30 2181 H 206.973 -2.37934 -2.9269 0
M  V30 2182 H 209.36 -1.45494 -2.5674 0
M  V30 2183 H 209.441 -2.33857 -1.03657 0
M  V30 2184 H 209.085 -4.52545 -2.30576 0
M  V30 2185 H 209.015 -3.61092 -3.83302 0
M  V30 2186 H 211.506 -2.87022 -2.45819 0
M  V30 2187 H 211.819 -6.25704 -4.53557 0
M  V30 2188 H 210.164 -5.62305 -4.08459 0
M  V30 2189 H 213.355 -3.60953 -2.98045 0
M  V30 2190 H 213.528 -5.15381 -3.92793 0
M  V30 2191 N 206.934 1.1197 -1.10907 0
M  V30 2192 C 208.182 1.83225 -0.852819 0
M  V30 2193 C 208.503 1.84769 0.623341 0
M  V30 2194 O 207.773 1.3143 1.45269 0
M  V30 2195 H 206.353 0.67849 -0.312507 0
M  V30 2196 H 209.015 1.3556 -1.40033 0
M  V30 2197 H 208.111 2.87265 -1.22005 0
M  V30 2198 N 208.412 0.89855 1.29475 0
M  V30 2199 C 209.342 0.39201 2.30186 0
M  V30 2200 C 210.323 -0.532359 1.61555 0
M  V30 2201 O 211.508 -0.443331 1.89072 0
M  V30 2202 C 208.638 -0.382353 3.45189 0
M  V30 2203 C 207.592 0.451483 4.25612 0
M  V30 2204 C 206.918 -0.450307 5.328 0
M  V30 2205 C 208.218 1.70079 4.93832 0
M  V30 2206 H 209.912 1.23362 2.72804 0
M  V30 2207 H 207.458 0.594638 1.31149 0
M  V30 2208 H 209.411 -0.747451 4.14718 0
M  V30 2209 H 208.135 -1.25774 3.01411 0
M  V30 2210 H 206.794 0.798897 3.57789 0
M  V30 2211 H 206.442 -1.32379 4.85268 0
M  V30 2212 H 206.142 0.103902 5.87508 0
M  V30 2213 H 207.666 -0.811623 6.05182 0
M  V30 2214 H 209.08 1.40549 5.55805 0
M  V30 2215 H 207.477 2.19623 5.58467 0
M  V30 2216 H 208.547 2.43744 4.19186 0
M  V30 2217 N 209.89 -1.43072 0.660911 0
M  V30 2218 C 210.822 -2.29108 -0.0647641 0
M  V30 2219 C 211.835 -1.42928 -0.779448 0
M  V30 2220 O 213.024 -1.66788 -0.635921 0
M  V30 2221 C 210.124 -3.20032 -1.11503 0
M  V30 2222 C 209.297 -4.34792 -0.476955 0
M  V30 2223 C 208.356 -5.06534 -1.42513 0
M  V30 2224 O 207.382 -5.61538 -0.930771 0
M  V30 2225 N 208.584 -5.1075 -2.75889 0
M  V30 2226 H 211.349 -2.92029 0.673731 0
M  V30 2227 H 208.91 -1.53846 0.50427 0
M  V30 2228 H 210.902 -3.64892 -1.75032 0
M  V30 2229 H 209.472 -2.58658 -1.75541 0
M  V30 2230 H 208.692 -3.92752 0.337572 0
M  V30 2231 H 209.98 -5.0879 -0.0318525 0
M  V30 2232 H 209.378 -4.67447 -3.18606 0
M  V30 2233 H 207.935 -5.59302 -3.347 0
M  V30 2234 N 211.368 -0.403325 -1.52352 0
M  V30 2235 C 212.614 0.174605 -2.02047 0
M  V30 2236 C 212.947 1.45282 -1.28867 0
M  V30 2237 O 212.222 1.90483 -0.393257 0
M  V30 2238 C 212.505 0.428238 -3.57545 0
M  V30 2239 C 212.358 -0.866248 -4.4138 0
M  V30 2240 C 213.677 1.21287 -4.23057 0
M  V30 2241 H 210.796 0.0619851 -0.734389 0
M  V30 2242 H 213.438 -0.53565 -1.82293 0
M  V30 2243 H 211.588 1.03327 -3.74507 0
M  V30 2244 H 213.26 -1.50265 -4.3614 0
M  V30 2245 H 211.503 -1.47851 -4.07827 0
M  V30 2246 H 212.174 -0.643249 -5.48239 0
M  V30 2247 H 214.65 0.700703 -4.10158 0
M  V30 2248 H 213.526 1.35909 -5.31808 0
M  V30 2249 H 213.787 2.23193 -3.81625 0
M  V30 2250 N 212.846 1.57033 -0.133567 0
M  V30 2251 C 214.092 1.95976 0.521649 0
M  V30 2252 C 214.425 1.01779 1.65393 0
M  V30 2253 O 213.7 0.0576581 1.94415 0
M  V30 2254 C 213.983 3.44738 1.04057 0
M  V30 2255 C 213.836 4.49711 -0.0892897 0
M  V30 2256 C 215.155 3.95682 1.92675 0
M  V30 2257 H 212.274 0.712579 0.188149 0
M  V30 2258 H 214.916 1.88813 -0.212076 0
M  V30 2259 H 213.066 3.50973 1.66583 0
M  V30 2260 H 214.738 4.55565 -0.725152 0
M  V30 2261 H 212.981 4.27261 -0.750378 0
M  V30 2262 H 213.652 5.51099 0.315284 0
M  V30 2263 H 216.128 3.91841 1.39998 0
M  V30 2264 H 215.004 5.00262 2.25897 0
M  V30 2265 H 215.265 3.37239 2.85872 0
M  V30 2266 N 214.325 -0.140222 1.56975 0
M  V30 2267 C 215.235 -1.19223 2.02047 0
M  V30 2268 C 216.251 -1.46612 0.937062 0
M  V30 2269 O 217.427 -1.58148 1.24704 0
M  V30 2270 C 214.492 -2.50414 2.39778 0
M  V30 2271 C 213.553 -2.30612 3.621 0
M  V30 2272 C 212.786 -3.55547 3.98023 0
M  V30 2273 O 213.009 -4.62004 3.34528 0
M  V30 2274 O 211.943 -3.47808 4.91237 0
M  V30 2275 H 215.769 -0.839559 2.91865 0
M  V30 2276 H 213.354 -0.349453 1.45256 0
M  V30 2277 H 215.236 -3.27747 2.64877 0
M  V30 2278 H 213.911 -2.85198 1.53114 0
M  V30 2279 H 212.818 -1.51207 3.4218 0
M  V30 2280 H 214.151 -2.00741 4.49404 0
M  V30 2281 N 215.803 -1.52179 -0.40978 0
M  V30 2282 C 216.753 -1.71857 -1.49831 0
M  V30 2283 C 217.737 -0.572469 -1.50372 0
M  V30 2284 O 218.929 -0.829509 -1.56359 0
M  V30 2285 C 216.058 -1.87206 -2.87765 0
M  V30 2286 C 215.144 -3.07685 -2.91875 0
M  V30 2287 N 215.535 -4.30403 -2.65683 0
M  V30 2288 C 213.833 -3.07505 -3.23043 0
M  V30 2289 C 214.534 -5.11868 -2.76344 0
M  V30 2290 N 213.51 -4.47101 -3.09195 0
M  V30 2291 H 217.312 -2.64381 -1.28375 0
M  V30 2292 H 214.826 -1.50203 -0.617479 0
M  V30 2293 H 216.823 -1.99419 -3.66111 0
M  V30 2294 H 215.483 -0.958814 -3.10221 0
M  V30 2295 H 216.494 -4.58887 -2.4009 0
M  V30 2296 H 213.171 -2.25915 -3.51096 0
M  V30 2297 H 214.561 -6.19634 -2.59814 0
M  V30 2298 N 217.281 0.66697 -1.42791 0
M  V30 2299 C 218.244 1.76211 -1.46568 0
M  V30 2300 C 219.244 1.56896 -0.352196 0
M  V30 2301 O 220.434 1.63044 -0.613364 0
M  V30 2302 C 217.566 3.14935 -1.30494 0
M  V30 2303 H 218.759 1.74247 -2.44086 0
M  V30 2304 H 216.312 0.877342 -1.29354 0
M  V30 2305 H 217.047 3.2252 -0.339301 0
M  V30 2306 H 216.832 3.30359 -2.11199 0
M  V30 2307 H 218.322 3.94821 -1.36038 0
M  V30 2308 N 218.759 1.29093 0.90403 0
M  V30 2309 C 219.999 1.18076 1.66845 0
M  V30 2310 C 220.363 -0.26436 1.90171 0
M  V30 2311 O 221.564 -0.497423 2.64157 0
M  V30 2312 C 219.835 1.96722 2.98388 0
M  V30 2313 S 221.394 2.0219 3.89441 0
M  V30 2314 H 218.212 0.421104 0.572881 0
M  V30 2315 H 220.814 1.63322 1.07453 0
M  V30 2316 H 219.518 3.00866 2.7912 0
M  V30 2317 H 219.049 1.52064 3.62823 0
M  V30 2318 H 221.064 1.13545 4.83034 0
M  V30 2319 N 220.237 -1.11381 1.11499 0
M  V30 2320 C 221.462 -1.87475 0.887019 0
M  V30 2321 C 221.887 -1.79639 -0.557796 0
M  V30 2322 O 221.245 -1.15924 -1.39396 0
M  V30 2323 C 221.293 -3.34213 1.35403 0
M  V30 2324 O 220.397 -4.0903 0.526146 0
M  V30 2325 H 219.738 -0.582099 0.319463 0
M  V30 2326 H 222.268 -1.40785 1.48461 0
M  V30 2327 H 222.278 -3.8506 1.34881 0
M  V30 2328 H 220.953 -3.39232 2.40612 0
M  V30 2329 H 219.53 -3.68082 0.597522 0
M  V30 2330 N 221.715 -0.905404 -1.28997 0
M  V30 2331 C 222.961 -0.535039 -1.95615 0
M  V30 2332 C 223.294 0.917404 -1.71165 0
M  V30 2333 O 222.569 1.65123 -1.02785 0
M  V30 2334 C 222.852 -0.834918 -3.50287 0
M  V30 2335 C 222.705 -2.33948 -3.84172 0
M  V30 2336 C 224.024 -0.325318 -4.38896 0
M  V30 2337 H 221.143 -0.195861 -0.710498 0
M  V30 2338 H 223.785 -1.13313 -1.52513 0
M  V30 2339 H 221.935 -0.325904 -3.87131 0
M  V30 2340 H 223.607 -2.91847 -3.57243 0
M  V30 2341 H 221.85 -2.79789 -3.31513 0
M  V30 2342 H 222.521 -2.49987 -4.92149 0
M  V30 2343 H 224.997 -0.761256 -4.09077 0
M  V30 2344 H 223.873 -0.564295 -5.45992 0
M  V30 2345 H 224.134 0.774144 -4.35269 0
M  V30 2346 N 223.193 1.4272 -0.668489 0
M  V30 2347 C 224.421 2.05966 -0.196348 0
M  V30 2348 C 224.836 1.50191 1.14403 0
M  V30 2349 O 224.193 0.639208 1.7094 0
M  V30 2350 C 224.244 3.61314 -0.115815 0
M  V30 2351 O 223.965 4.1502 -1.40322 0
M  V30 2352 C 225.466 4.41663 0.380579 0
M  V30 2353 H 222.686 0.663954 -0.0969829 0
M  V30 2354 H 225.23 1.82966 -0.913446 0
M  V30 2355 H 223.385 3.83448 0.551931 0
M  V30 2356 H 223.799 5.08832 -1.27243 0
M  V30 2357 H 225.273 5.5065 0.385848 0
M  V30 2358 H 225.75 4.15792 1.41471 0
M  V30 2359 H 226.356 4.24534 -0.255209 0
M  V30 2360 N 224.671 0.411399 1.52136 0
M  V30 2361 C 225.896 -0.165538 2.06738 0
M  V30 2362 C 226.321 -1.379 1.27926 0
M  V30 2363 O 225.679 -1.78628 0.310114 0
M  V30 2364 C 225.727 -0.492124 3.57226 0
M  V30 2365 O 224.831 -1.58276 3.80818 0
M  V30 2366 H 224.172 -0.0132132 0.663869 0
M  V30 2367 H 226.702 0.585253 1.96051 0
M  V30 2368 H 226.712 -0.750104 4.01045 0
M  V30 2369 H 225.387 0.394922 4.14021 0
M  V30 2370 H 223.964 -1.31677 3.48877 0
M  V30 2371 N 226.149 -1.5696 0.141893 0
M  V30 2372 C 227.079 -2.19516 -0.795936 0
M  V30 2373 C 228.06 -1.14187 -1.26077 0
M  V30 2374 O 229.245 -1.42511 -1.31925 0
M  V30 2375 C 226.375 -2.81272 -2.03723 0
M  V30 2376 C 225.329 -3.92384 -1.70936 0
M  V30 2377 C 224.655 -4.41052 -3.02287 0
M  V30 2378 C 225.955 -5.13403 -0.959954 0
M  V30 2379 H 227.649 -2.98138 -0.274596 0
M  V30 2380 H 225.195 -1.43406 -0.130636 0
M  V30 2381 H 227.148 -3.237 -2.69808 0
M  V30 2382 H 225.872 -1.99973 -2.58221 0
M  V30 2383 H 224.531 -3.50566 -1.07232 0
M  V30 2384 H 224.179 -3.56582 -3.54765 0
M  V30 2385 H 223.879 -5.15993 -2.81114 0
M  V30 2386 H 225.403 -4.86146 -3.69451 0
M  V30 2387 H 226.817 -5.52706 -1.52279 0
M  V30 2388 H 225.214 -5.94073 -0.848357 0
M  V30 2389 H 226.284 -4.84875 0.0492434 0
M  V30 2390 N 227.627 0.131896 -1.57047 0
M  V30 2391 C 228.56 1.19236 -1.94571 0
M  V30 2392 C 229.538 1.40782 -0.813576 0
M  V30 2393 O 230.722 1.55148 -1.07058 0
M  V30 2394 C 227.849 2.54858 -2.23081 0
M  V30 2395 C 226.895 2.49817 -3.45679 0
M  V30 2396 S 227.728 1.95036 -4.98719 0
M  V30 2397 C 228.884 3.32357 -5.30367 0
M  V30 2398 H 229.117 0.872297 -2.84215 0
M  V30 2399 H 226.65 0.338134 -1.50652 0
M  V30 2400 H 228.608 3.32898 -2.40185 0
M  V30 2401 H 227.269 2.84047 -1.34074 0
M  V30 2402 H 226.462 3.49688 -3.62952 0
M  V30 2403 H 226.064 1.79892 -3.27895 0
M  V30 2404 H 228.356 4.28525 -5.2476 0
M  V30 2405 H 229.299 3.19923 -6.31708 0
M  V30 2406 H 229.707 3.3019 -4.57859 0
M  V30 2407 N 229.106 1.52395 0.401703 0
M  V30 2408 C 230.039 1.70999 1.51111 0
M  V30 2409 C 231.017 0.55765 1.52738 0
M  V30 2410 O 232.201 0.785912 1.71335 0
M  V30 2411 C 229.328 1.75607 2.8962 0
M  V30 2412 C 228.374 2.97227 3.05873 0
M  V30 2413 S 229.207 4.57439 2.78405 0
M  V30 2414 C 230.363 4.64844 4.19131 0
M  V30 2415 H 230.596 2.6483 1.35102 0
M  V30 2416 H 228.129 1.42527 0.593762 0
M  V30 2417 H 230.087 1.78947 3.69443 0
M  V30 2418 H 228.748 0.828914 3.02965 0
M  V30 2419 H 227.941 2.96955 4.07227 0
M  V30 2420 H 227.543 2.91813 2.33925 0
M  V30 2421 H 229.835 4.42677 5.12877 0
M  V30 2422 H 230.778 5.66807 4.24424 0
M  V30 2423 H 231.186 3.93804 4.04448 0
M  V30 2424 N 230.584 -0.659388 1.43143 0
M  V30 2425 C 231.832 -1.41654 1.44147 0
M  V30 2426 C 232.153 -1.94893 0.0645739 0
M  V30 2427 O 231.423 -1.74044 -0.899198 0
M  V30 2428 H 230.003 -0.525708 0.530697 0
M  V30 2429 H 232.665 -0.778097 1.78694 0
M  V30 2430 H 231.761 -2.26195 2.1504 0
M  V30 2431 N 232.062 -1.29571 -0.897171 0
M  V30 2432 C 232.972 -1.16808 -2.03453 0
M  V30 2433 C 233.988 -0.0907471 -1.73763 0
M  V30 2434 O 235.164 -0.303312 -1.99103 0
M  V30 2435 C 232.229 -0.848264 -3.36163 0
M  V30 2436 C 231.29 -2.0097 -3.79354 0
M  V30 2437 C 230.523 -1.70505 -5.05731 0
M  V30 2438 O 230.746 -0.62718 -5.66941 0
M  V30 2439 O 229.68 -2.5538 -5.45036 0
M  V30 2440 H 233.506 -2.12325 -2.17144 0
M  V30 2441 H 231.091 -1.09047 -1.02123 0
M  V30 2442 H 232.973 -0.684581 -4.15802 0
M  V30 2443 H 231.648 0.0771071 -3.23608 0
M  V30 2444 H 230.555 -2.22863 -3.00471 0
M  V30 2445 H 231.888 -2.91636 -3.96496 0
M  V30 2446 N 233.54 1.10788 -1.12088 0
M  V30 2447 C 234.768 1.86461 -0.896651 0
M  V30 2448 C 235.183 1.80492 0.553912 0
M  V30 2449 O 234.54 1.19102 1.38278 0
M  V30 2450 C 234.591 3.35006 -1.35843 0
M  V30 2451 O 234.312 3.40866 -2.75213 0
M  V30 2452 C 235.813 4.27565 -1.1706 0
M  V30 2453 H 233.033 0.589425 -0.320654 0
M  V30 2454 H 235.577 1.40076 -1.48993 0
M  V30 2455 H 233.732 3.7887 -0.808458 0
M  V30 2456 H 234.146 4.33411 -2.9539 0
M  V30 2457 H 235.62 5.30007 -1.54263 0
M  V30 2458 H 236.097 4.3906 -0.110814 0
M  V30 2459 H 236.703 3.89501 -1.70789 0
M  V30 2460 N 235.018 0.912232 1.28515 0
M  V30 2461 C 235.951 0.343928 2.25593 0
M  V30 2462 C 236.929 -0.550994 1.5298 0
M  V30 2463 O 238.113 -0.494991 1.81885 0
M  V30 2464 C 235.24 -0.508525 3.34861 0
M  V30 2465 C 234.286 0.320808 4.25292 0
M  V30 2466 S 235.119 1.72658 5.06902 0
M  V30 2467 C 236.275 0.881394 6.19663 0
M  V30 2468 H 236.508 1.16674 2.73449 0
M  V30 2469 H 234.041 0.713384 1.36931 0
M  V30 2470 H 235.999 -0.994539 3.9827 0
M  V30 2471 H 234.66 -1.30571 2.85675 0
M  V30 2472 H 233.853 -0.330941 5.02912 0
M  V30 2473 H 233.455 0.74042 3.66598 0
M  V30 2474 H 235.747 0.110359 6.7741 0
M  V30 2475 H 236.69 1.63009 6.89082 0
M  V30 2476 H 237.098 0.430239 5.62858 0
M  V30 2477 N 236.496 -1.42363 0.676048 0
M  V30 2478 C 237.907 -1.84649 0.275948 0
M  V30 2479 C 238.258 -1.56588 -1.18214 0
M  V30 2480 O 237.383 -1.02634 -1.90513 0
M  V30 2481 C 237.978 -3.35178 0.494053 0
M  V30 2482 C 236.537 -3.76109 0.148061 0
M  V30 2483 C 235.684 -2.65931 0.785891 0
M  V30 2484 H 238.635 -1.32192 0.878121 0
M  V30 2485 H 238.656 -3.79655 -0.25343 0
M  V30 2486 H 238.168 -3.55571 1.55535 0
M  V30 2487 H 236.269 -3.61323 -0.909742 0
M  V30 2488 H 236.382 -4.7546 0.589454 0
M  V30 2489 H 234.746 -2.53773 0.217113 0
M  V30 2490 H 235.529 -2.89146 1.85067 0
M  V30 2491 N 237.974 -0.419461 -1.51915 0
M  V30 2492 C 239.199 0.154572 -2.06823 0
M  V30 2493 C 239.624 1.3722 -1.28656 0
M  V30 2494 O 238.982 1.78461 -0.319583 0
M  V30 2495 C 239.03 0.473172 -3.57482 0
M  V30 2496 O 238.134 1.56255 -3.81652 0
M  V30 2497 H 237.475 0.0096924 -0.663929 0
M  V30 2498 H 240.005 -0.595642 -1.95738 0
M  V30 2499 H 240.015 0.728825 -4.01438 0
M  V30 2500 H 238.69 -0.416873 -4.13805 0
M  V30 2501 H 237.267 1.29825 -3.49571 0
M  V30 2502 N 239.452 1.56882 -0.150215 0
M  V30 2503 C 240.701 1.95403 0.500071 0
M  V30 2504 C 241.014 1.03777 1.658 0
M  V30 2505 O 242.22 1.31889 2.37313 0
M  V30 2506 C 240.676 3.4738 0.941018 0
M  V30 2507 C 240.284 4.47596 -0.190158 0
M  V30 2508 C 242.028 3.9476 1.56091 0
M  V30 2509 C 239.935 5.90787 0.269237 0
M  V30 2510 H 238.865 0.729515 0.190588 0
M  V30 2511 H 241.516 1.81988 -0.235074 0
M  V30 2512 H 239.898 3.56138 1.73152 0
M  V30 2513 H 241.072 4.50536 -0.967157 0
M  V30 2514 H 239.387 4.10151 -0.718666 0
M  V30 2515 H 241.984 4.99181 1.9163 0
M  V30 2516 H 242.327 3.36494 2.45107 0
M  V30 2517 H 242.86 3.88932 0.835249 0
M  V30 2518 H 239.599 6.52879 -0.585621 0
M  V30 2519 H 239.119 5.912 1.01204 0
M  V30 2520 H 240.798 6.42979 0.720176 0
M  V30 2521 N 240.93 -0.123565 1.57115 0
M  V30 2522 C 242.158 -0.846461 1.88793 0
M  V30 2523 C 242.573 -1.73652 0.740976 0
M  V30 2524 O 241.93 -1.80207 -0.288393 0
M  V30 2525 C 241.981 -1.6837 3.19897 0
M  V30 2526 O 241.702 -0.829477 4.30176 0
M  V30 2527 C 243.203 -2.51214 3.65248 0
M  V30 2528 H 240.423 -0.243573 0.625231 0
M  V30 2529 H 242.967 -0.109324 2.04208 0
M  V30 2530 H 241.122 -2.37364 3.06165 0
M  V30 2531 H 241.536 -1.40651 5.0529 0
M  V30 2532 H 243.01 -3.05497 4.59756 0
M  V30 2533 H 243.487 -3.28359 2.9168 0
M  V30 2534 H 244.093 -1.8747 3.81752 0
M  V30 2535 N 242.408 -1.52605 -0.393616 0
M  V30 2536 C 243.355 -1.77055 -1.48054 0
M  V30 2537 C 244.325 -0.61358 -1.54352 0
M  V30 2538 O 245.51 -0.852806 -1.70681 0
M  V30 2539 C 242.65 -1.94108 -2.85335 0
M  V30 2540 C 241.763 -3.21792 -2.88226 0
M  V30 2541 C 240.898 -3.29188 -4.16904 0
M  V30 2542 C 239.937 -4.51013 -4.13828 0
M  V30 2543 N 239.074 -4.55716 -5.34105 0
M  V30 2544 H 243.914 -2.69815 -1.26506 0
M  V30 2545 H 241.451 -1.33683 -0.61379 0
M  V30 2546 H 243.409 -2.01979 -3.65049 0
M  V30 2547 H 242.039 -1.04713 -3.05344 0
M  V30 2548 H 241.091 -3.23015 -2.00911 0
M  V30 2549 H 242.403 -4.11557 -2.8182 0
M  V30 2550 H 241.557 -3.36216 -5.05018 0
M  V30 2551 H 240.296 -2.37389 -4.26026 0
M  V30 2552 H 239.301 -4.44115 -3.24102 0
M  V30 2553 H 240.526 -5.44123 -4.06333 0
M  V30 2554 H 238.472 -3.66807 -5.43865 0
M  V30 2555 H 238.389 -5.39346 -5.29756 0
M  V30 2556 H 239.657 -4.66993 -6.2413 0
M  V30 2557 N 243.887 0.651787 -1.4349 0
M  V30 2558 C 245.164 1.40909 -1.35661 0
M  V30 2559 C 245.544 2.11099 -0.00511733 0
M  V30 2560 O 244.892 2.04892 1.0115 0
M  V30 2561 C 245.102 2.3926 -2.54078 0
M  V30 2562 C 246.45 3.03217 -2.97228 0
M  V30 2563 O 247.474 2.49588 -2.54135 0
M  V30 2564 O 246.333 4.00455 -3.71885 0
M  V30 2565 H 243.427 0.629625 -0.536191 0
M  V30 2566 H 245.973 0.678575 -1.55542 0
M  V30 2567 H 244.745 1.86352 -3.44076 0
M  V30 2568 H 244.368 3.1976 -2.36303 0
M  V30 2569 N 245.365 1.30045 0.890287 0
M  V30 2570 C 246.298 1.10301 1.99772 0
M  V30 2571 C 247.276 0.0121631 1.62595 0
M  V30 2572 O 248.46 0.16469 1.87779 0
M  V30 2573 C 245.587 0.681125 3.31781 0
M  V30 2574 C 244.633 1.77206 3.87944 0
M  V30 2575 S 245.466 3.37335 4.15891 0
M  V30 2576 C 246.622 2.97036 5.50927 0
M  V30 2577 H 246.855 2.04057 2.16213 0
M  V30 2578 H 244.388 1.14299 1.03804 0
M  V30 2579 H 246.346 0.444439 4.08087 0
M  V30 2580 H 245.007 -0.236981 3.13205 0
M  V30 2581 H 244.2 1.42903 4.83316 0
M  V30 2582 H 243.802 1.96275 3.18358 0
M  V30 2583 H 246.094 2.44666 6.31779 0
M  V30 2584 H 247.037 3.91296 5.90164 0
M  V30 2585 H 247.445 2.35057 5.13233 0
M  V30 2586 N 246.843 -1.10192 1.12674 0
M  V30 2587 C 248.12 -1.78717 0.794965 0
M  V30 2588 C 248.5 -1.98628 -0.714853 0
M  V30 2589 O 247.848 -1.58135 -1.64941 0
M  V30 2590 C 248.058 -3.11546 1.5729 0
M  V30 2591 C 249.406 -3.86382 1.76052 0
M  V30 2592 O 250.43 -3.21274 1.53823 0
M  V30 2593 O 249.289 -5.03246 2.13087 0
M  V30 2594 H 246.383 -0.774702 0.289423 0
M  V30 2595 H 248.929 -1.16819 1.23091 0
M  V30 2596 H 247.701 -2.92489 2.59935 0
M  V30 2597 H 247.324 -3.81164 1.13137 0
M  V30 2598 N 248.321 -0.919034 -1.28029 0
M  V30 2599 C 249.251 -0.428581 -2.29533 0
M  V30 2600 C 250.232 0.50659 -1.62381 0
M  V30 2601 O 251.417 0.413195 -1.89753 0
M  V30 2602 C 248.547 0.327388 -3.45753 0
M  V30 2603 C 247.501 -0.519137 -4.2484 0
M  V30 2604 C 246.827 0.365486 -5.33449 0
M  V30 2605 C 248.127 -1.77914 -4.91064 0
M  V30 2606 H 249.821 -1.27687 -2.70807 0
M  V30 2607 H 247.367 -0.615428 -1.30186 0
M  V30 2608 H 249.32 0.681378 -4.15855 0
M  V30 2609 H 248.044 1.20963 -3.03374 0
M  V30 2610 H 246.703 -0.855717 -3.56473 0
M  V30 2611 H 246.351 1.24642 -4.87312 0
M  V30 2612 H 246.051 -0.197356 -5.87268 0
M  V30 2613 H 247.575 0.715241 -6.06396 0
M  V30 2614 H 248.989 -1.49374 -5.53498 0
M  V30 2615 H 247.386 -2.2848 -5.54903 0
M  V30 2616 H 248.456 -2.50382 -4.15255 0
M  V30 2617 N 249.799 1.42003 -0.683588 0
M  V30 2618 C 251.029 2.05448 -0.217866 0
M  V30 2619 C 251.437 1.51491 1.13346 0
M  V30 2620 O 250.78 0.653048 1.717 0
M  V30 2621 C 250.842 3.59399 -0.0850118 0
M  V30 2622 C 250.506 4.36093 -1.36645 0
M  V30 2623 C 251.503 4.66169 -2.30179 0
M  V30 2624 C 249.188 4.75578 -1.61649 0
M  V30 2625 C 251.182 5.34676 -3.46988 0
M  V30 2626 C 248.869 5.43824 -2.78745 0
M  V30 2627 C 249.867 5.73299 -3.71238 0
M  V30 2628 O 249.555 6.40142 -4.86285 0
M  V30 2629 H 249.287 0.668344 -0.101454 0
M  V30 2630 H 251.841 1.82974 -0.933248 0
M  V30 2631 H 250.071 3.80566 0.686031 0
M  V30 2632 H 251.76 4.04457 0.341973 0
M  V30 2633 H 252.526 4.36156 -2.12115 0
M  V30 2634 H 248.405 4.52025 -0.905243 0
M  V30 2635 H 251.949 5.57599 -4.19201 0
M  V30 2636 H 247.846 5.73254 -2.96732 0
M  V30 2637 H 248.614 6.58636 -4.85944 0
M  V30 2638 N 251.277 0.427512 1.51691 0
M  V30 2639 C 252.502 -0.143601 2.06902 0
M  V30 2640 C 252.927 -1.36536 1.29382 0
M  V30 2641 O 252.285 -1.78289 0.329043 0
M  V30 2642 C 252.333 -0.454207 3.57728 0
M  V30 2643 O 251.437 -1.54228 3.82475 0
M  V30 2644 H 250.778 -0.00617128 0.663971 0
M  V30 2645 H 253.308 0.606014 1.95419 0
M  V30 2646 H 253.318 -0.707525 4.01818 0
M  V30 2647 H 251.993 0.438812 4.13579 0
M  V30 2648 H 250.57 -1.2797 3.50254 0
M  V30 2649 N 252.755 -1.56801 0.158532 0
M  V30 2650 C 253.985 -2.00568 -0.495583 0
M  V30 2651 C 254.393 -1.03774 -1.58201 0
M  V30 2652 O 253.736 -0.0285797 -1.83678 0
M  V30 2653 C 253.798 -3.40768 -1.14532 0
M  V30 2654 C 253.462 -4.56553 -0.202101 0
M  V30 2655 C 254.459 -5.16714 0.574675 0
M  V30 2656 C 252.144 -5.02197 -0.101648 0
M  V30 2657 C 254.138 -6.20939 1.43924 0
M  V30 2658 C 251.825 -6.06274 0.766508 0
M  V30 2659 C 252.823 -6.65515 1.53555 0
M  V30 2660 O 252.511 -7.67575 2.38922 0
M  V30 2661 H 252.243 -0.662893 -0.13247 0
M  V30 2662 H 254.797 -2.03829 0.253559 0
M  V30 2663 H 253.027 -3.34381 -1.94233 0
M  V30 2664 H 254.716 -3.6857 -1.70033 0
M  V30 2665 H 255.482 -4.82341 0.507167 0
M  V30 2666 H 251.361 -4.55807 -0.689994 0
M  V30 2667 H 254.905 -6.67107 2.03996 0
M  V30 2668 H 250.802 -6.40073 0.835266 0
M  V30 2669 H 251.57 -7.84844 2.32296 0
M  V30 2670 N 254.233 0.115231 -1.57178 0
M  V30 2671 C 255.649 0.468877 -1.52557 0
M  V30 2672 C 255.849 1.81649 -0.872125 0
M  V30 2673 O 254.905 2.48347 -0.45606 0
M  V30 2674 C 256.218 0.4499 -2.97315 0
M  V30 2675 C 257.766 0.533185 -3.08425 0
M  V30 2676 C 258.241 0.54456 -4.54751 0
M  V30 2677 N 259.732 0.605892 -4.5922 0
M  V30 2678 C 260.467 0.636203 -5.6986 0
M  V30 2679 N 259.963 0.623931 -6.89985 0
M  V30 2680 N 261.756 0.679496 -5.57978 0
M  V30 2681 H 253.907 -0.767712 -1.9804 0
M  V30 2682 H 256.17 -0.283609 -0.904583 0
M  V30 2683 H 255.876 -0.472721 -3.48509 0
M  V30 2684 H 255.75 1.27632 -3.5495 0
M  V30 2685 H 258.137 1.44623 -2.57232 0
M  V30 2686 H 258.218 -0.320995 -2.53778 0
M  V30 2687 H 257.862 -0.364452 -5.06591 0
M  V30 2688 H 257.792 1.41568 -5.07214 0
M  V30 2689 H 260.283 0.621386 -3.72756 0
M  V30 2690 H 260.596 0.649787 -7.70063 0
M  V30 2691 H 258.941 0.591296 -6.9248 0
M  V30 2692 H 262.132 0.686472 -4.63039 0
M  V30 2693 H 262.305 0.69965 -6.44212 0
M  V30 2694 N 255.711 1.52812 0.385517 0
M  V30 2695 C 256.641 1.80808 1.47752 0
M  V30 2696 C 257.622 0.660318 1.5676 0
M  V30 2697 O 258.807 0.908246 1.71652 0
M  V30 2698 C 255.937 1.98008 2.85324 0
M  V30 2699 C 254.891 3.13709 2.91154 0
M  V30 2700 C 254.217 3.16169 4.31209 0
M  V30 2701 C 255.517 4.52709 2.60483 0
M  V30 2702 H 257.211 2.72253 1.24573 0
M  V30 2703 H 254.757 1.31003 0.597839 0
M  V30 2704 H 256.71 2.16176 3.61726 0
M  V30 2705 H 255.434 1.03255 3.09848 0
M  V30 2706 H 254.093 2.95329 2.17201 0
M  V30 2707 H 253.741 2.19092 4.52778 0
M  V30 2708 H 253.441 3.93894 4.36029 0
M  V30 2709 H 254.965 3.36496 5.09512 0
M  V30 2710 H 256.379 4.71173 3.26602 0
M  V30 2711 H 254.776 5.32528 2.76648 0
M  V30 2712 H 255.846 4.59186 1.55809 0
M  V30 2713 N 257.189 -0.644168 1.43834 0
M  V30 2714 C 258.6 -1.22554 1.40845 0
M  V30 2715 C 258.951 -1.9585 0.117115 0
M  V30 2716 O 258.076 -2.01734 -0.783086 0
M  V30 2717 C 258.671 -2.22907 2.55143 0
M  V30 2718 C 257.23 -2.76501 2.5539 0
M  V30 2719 C 256.377 -1.51287 2.32396 0
M  V30 2720 H 259.328 -0.43563 1.52604 0
M  V30 2721 H 259.349 -3.05259 2.2715 0
M  V30 2722 H 258.861 -1.69533 3.49114 0
M  V30 2723 H 256.962 -3.33914 1.65324 0
M  V30 2724 H 257.075 -3.23429 3.53455 0
M  V30 2725 H 255.439 -1.78957 1.81236 0
M  V30 2726 H 256.222 -0.998336 3.28463 0
M  V30 2727 N 258.668 -1.30515 -0.883378 0
M  V30 2728 C 259.598 -1.19607 -2.00541 0
M  V30 2729 C 260.579 -0.086346 -1.69881 0
M  V30 2730 O 261.764 -0.268654 -1.92333 0
M  V30 2731 C 258.894 -0.888758 -3.35736 0
M  V30 2732 C 257.848 -1.95659 -3.8066 0
M  V30 2733 C 257.174 -1.50224 -5.13164 0
M  V30 2734 C 258.474 -3.36788 -3.99213 0
M  V30 2735 H 260.168 -2.13476 -2.09925 0
M  V30 2736 H 257.714 -1.02775 -1.00863 0
M  V30 2737 H 259.667 -0.799094 -4.13754 0
M  V30 2738 H 258.391 0.0856125 -3.26488 0
M  V30 2739 H 257.05 -2.03591 -3.04871 0
M  V30 2740 H 256.698 -0.516092 -5.00345 0
M  V30 2741 H 256.398 -2.2165 -5.44192 0
M  V30 2742 H 257.922 -1.42639 -5.93706 0
M  V30 2743 H 259.336 -3.31605 -4.67665 0
M  V30 2744 H 257.733 -4.06314 -4.41621 0
M  V30 2745 H 258.803 -3.78561 -3.03017 0
M  V30 2746 N 260.146 1.09593 -1.13257 0
M  V30 2747 C 261.394 1.81375 -0.891492 0
M  V30 2748 C 261.715 1.86049 0.584009 0
M  V30 2749 O 260.985 1.34481 1.42449 0
M  V30 2750 H 259.565 0.671708 -0.326828 0
M  V30 2751 H 262.227 1.3256 -1.42877 0
M  V30 2752 H 261.323 2.84612 -1.28071 0
M  V30 2753 N 261.624 0.925811 1.2754 0
M  V30 2754 C 262.87 0.566092 1.94739 0
M  V30 2755 C 263.203 -0.890057 1.72603 0
M  V30 2756 O 262.478 -1.63467 1.05399 0
M  V30 2757 C 262.761 0.89054 3.48915 0
M  V30 2758 C 262.614 2.4003 3.80402 0
M  V30 2759 C 263.933 0.395101 4.38323 0
M  V30 2760 H 261.052 0.20714 0.707292 0
M  V30 2761 H 263.694 1.15725 1.50691 0
M  V30 2762 H 261.844 0.387452 3.86563 0
M  V30 2763 H 263.516 2.97494 3.52555 0
M  V30 2764 H 261.759 2.85028 3.2702 0
M  V30 2765 H 262.43 2.57785 4.8811 0
M  V30 2766 H 264.906 0.826241 4.07814 0
M  V30 2767 H 263.782 0.651086 5.45025 0
M  V30 2768 H 264.043 -0.704798 4.36446 0
M  V30 2769 N 263.102 -1.41638 0.69111 0
M  V30 2770 C 264.342 -2.03166 0.224291 0
M  V30 2771 C 264.706 -1.53537 -1.15284 0
M  V30 2772 O 265.907 -2.0696 -1.71525 0
M  V30 2773 C 264.178 -3.56342 0.274758 0
M  V30 2774 S 265.737 -4.3864 -0.118669 0
M  V30 2775 H 262.555 -0.705188 0.0907263 0
M  V30 2776 H 265.157 -1.7314 0.907895 0
M  V30 2777 H 263.861 -3.89958 1.2791 0
M  V30 2778 H 263.392 -3.91063 -0.428142 0
M  V30 2779 H 265.407 -4.77549 -1.34764 0
M  V30 2780 N 264.58 -0.43555 -1.51462 0
M  V30 2781 C 265.543 0.365137 -2.26273 0
M  V30 2782 C 266.543 0.951227 -1.29647 0
M  V30 2783 O 267.733 0.825958 -1.53374 0
M  V30 2784 C 264.865 1.51645 -3.05314 0
M  V30 2785 H 266.058 -0.290474 -2.9849 0
M  V30 2786 H 263.611 -0.188676 -1.55157 0
M  V30 2787 H 264.346 2.20816 -2.3751 0
M  V30 2788 H 264.131 1.10238 -3.76284 0
M  V30 2789 H 265.621 2.08218 -3.61987 0
M  V30 2790 N 266.058 1.56714 -0.166846 0
M  V30 2791 C 267.306 1.96358 0.478305 0
M  V30 2792 C 267.627 1.0537 1.6408 0
M  V30 2793 O 266.897 0.119154 1.95537 0
M  V30 2794 H 265.477 0.725065 0.179692 0
M  V30 2795 H 268.139 1.93329 -0.246985 0
M  V30 2796 H 267.235 3.00547 0.841292 0
M  V30 2797 N 267.536 -0.106894 1.57237 0
M  V30 2798 C 268.785 -0.811163 1.8467 0
M  V30 2799 C 269.098 -1.80469 0.754342 0
M  V30 2800 O 270.304 -2.55601 0.915439 0
M  V30 2801 C 268.76 -1.49337 3.27454 0
M  V30 2802 C 268.368 -0.540217 4.44731 0
M  V30 2803 C 270.112 -2.18206 3.64124 0
M  V30 2804 C 268.019 -1.22634 5.78545 0
M  V30 2805 H 266.949 -0.306679 0.688813 0
M  V30 2806 H 269.6 -0.0639887 1.83388 0
M  V30 2807 H 267.982 -2.2876 3.23241 0
M  V30 2808 H 269.156 0.221659 4.60267 0
M  V30 2809 H 267.471 0.042146 4.16379 0
M  V30 2810 H 270.068 -2.70253 4.61376 0
M  V30 2811 H 270.411 -2.96562 2.92158 0
M  V30 2812 H 270.944 -1.45658 3.70174 0
M  V30 2813 H 267.683 -0.483832 6.53712 0
M  V30 2814 H 267.203 -1.95993 5.66874 0
M  V30 2815 H 268.882 -1.75615 6.2271 0
M  V30 2816 N 269.014 -1.53014 -0.377408 0
M  V30 2817 C 269.977 -1.77957 -1.44444 0
M  V30 2818 C 270.977 -0.649763 -1.47087 0
M  V30 2819 O 272.167 -0.917897 -1.48055 0
M  V30 2820 C 269.299 -1.89089 -2.83651 0
M  V30 2821 H 270.492 -2.73243 -1.23606 0
M  V30 2822 H 268.045 -1.43912 -0.609844 0
M  V30 2823 H 268.78 -0.958293 -3.09818 0
M  V30 2824 H 268.565 -2.71254 -2.83132 0
M  V30 2825 H 270.055 -2.1002 -3.60945 0
M  V30 2826 N 270.492 0.636531 -1.44174 0
M  V30 2827 C 271.903 1.21806 -1.41493 0
M  V30 2828 C 272.254 1.95785 -0.1275 0
M  V30 2829 O 271.379 2.02147 0.772376 0
M  V30 2830 C 271.974 2.21551 -2.56321 0
M  V30 2831 C 270.533 2.75143 -2.56853 0
M  V30 2832 C 269.68 1.50052 -2.33195 0
M  V30 2833 H 272.631 0.427531 -1.52833 0
M  V30 2834 H 272.652 3.0405 -2.28765 0
M  V30 2835 H 272.164 1.67679 -3.50008 0
M  V30 2836 H 270.265 3.33033 -1.67093 0
M  V30 2837 H 270.378 3.2155 -3.55165 0
M  V30 2838 H 268.742 1.77993 -1.82183 0
M  V30 2839 H 269.525 0.980903 -3.28988 0
M  V30 2840 N 271.97 1.30982 0.876444 0
M  V30 2841 C 273.217 1.20296 1.62896 0
M  V30 2842 C 273.545 -0.240395 1.93009 0
M  V30 2843 O 272.8 -1.18733 1.55567 0
M  V30 2844 C 273.099 1.98572 2.9716 0
M  V30 2845 C 272.765 3.48125 2.86566 0
M  V30 2846 C 271.427 3.88905 2.83383 0
M  V30 2847 C 273.779 4.43322 2.74071 0
M  V30 2848 C 271.107 5.2316 2.65556 0
M  V30 2849 C 273.459 5.77695 2.57781 0
M  V30 2850 C 272.123 6.17704 2.52979 0
M  V30 2851 H 271.393 0.440193 0.59608 0
M  V30 2852 H 274.04 1.62177 1.01837 0
M  V30 2853 H 272.345 1.49352 3.62217 0
M  V30 2854 H 274.042 1.8769 3.54364 0
M  V30 2855 H 270.632 3.15723 2.89856 0
M  V30 2856 H 274.816 4.12752 2.75589 0
M  V30 2857 H 270.072 5.53241 2.60259 0
M  V30 2858 H 274.246 6.51091 2.47089 0
M  V30 2859 H 271.873 7.21678 2.38924 0
M  V30 2860 N 273.449 -1.08991 1.13837 0
M  V30 2861 C 274.397 -2.17841 0.815347 0
M  V30 2862 C 275.391 -1.68164 -0.204233 0
M  V30 2863 O 276.597 -1.79897 -0.0609304 0
M  V30 2864 H 272.972 -0.710654 0.245915 0
M  V30 2865 H 274.943 -2.42315 1.74143 0
M  V30 2866 C 273.692 -3.46381 0.302614 0
M  V30 2867 H 273.015 -3.84979 1.0785 0
M  V30 2868 H 274.455 -4.23844 0.115074 0
M  V30 2869 C 272.914 -3.22556 -0.972591 0
M  V30 2870 O 273.444 -3.45599 -2.04754 0
M  V30 2871 N 271.65 -2.76134 -0.905455 0
M  V30 2872 H 271.197 -2.57582 -0.0305421 0
M  V30 2873 H 271.155 -2.60571 -1.75926 0
M  V30 2874 N 274.927 -0.932562 -1.27047 0
M  V30 2875 C 276.174 -0.575559 -1.94148 0
M  V30 2876 C 276.502 0.883984 -1.73251 0
M  V30 2877 O 275.757 1.64655 -1.0577 0
M  V30 2878 C 276.056 -0.853713 -3.47054 0
M  V30 2879 C 275.722 -2.29577 -3.88079 0
M  V30 2880 C 274.384 -2.68999 -3.9899 0
M  V30 2881 C 276.736 -3.23331 -4.08787 0
M  V30 2882 C 274.064 -4.01289 -4.28 0
M  V30 2883 C 276.416 -4.55207 -4.39282 0
M  V30 2884 C 275.08 -4.94457 -4.48407 0
M  V30 2885 H 274.35 -0.210612 -0.710439 0
M  V30 2886 H 276.997 -1.17744 -1.51025 0
M  V30 2887 H 275.302 -0.169204 -3.91434 0
M  V30 2888 H 276.999 -0.55639 -3.97121 0
M  V30 2889 H 273.589 -1.97994 -3.80127 0
M  V30 2890 H 277.773 -2.94074 -3.99793 0
M  V30 2891 H 273.029 -4.31374 -4.33275 0
M  V30 2892 H 277.203 -5.27852 -4.54252 0
M  V30 2893 H 274.83 -5.96994 -4.7064 0
M  V30 2894 N 276.405 1.4127 -0.698611 0
M  V30 2895 C 277.816 1.84187 -0.305289 0
M  V30 2896 C 278.167 1.58449 1.15708 0
M  V30 2897 O 277.292 1.05651 1.88856 0
M  V30 2898 C 277.887 3.3435 -0.547314 0
M  V30 2899 C 276.446 3.75826 -0.207878 0
M  V30 2900 C 275.593 2.64647 -0.828099 0
M  V30 2901 H 278.544 1.30778 -0.89904 0
M  V30 2902 H 278.565 3.8001 0.192998 0
M  V30 2903 H 278.077 3.53051 -1.61172 0
M  V30 2904 H 276.178 3.62725 0.852143 0
M  V30 2905 H 276.291 4.74462 -0.665021 0
M  V30 2906 H 274.655 2.53395 -0.257458 0
M  V30 2907 H 275.438 2.86165 -1.89643 0
M  V30 2908 N 277.883 0.443576 1.51229 0
M  V30 2909 C 278.846 -0.353132 2.26463 0
M  V30 2910 C 279.846 -0.944338 1.3015 0
M  V30 2911 O 281.036 -0.817813 1.5381 0
M  V30 2912 C 278.168 -1.50023 3.06114 0
M  V30 2913 H 279.361 0.3063 2.98332 0
M  V30 2914 H 276.914 0.196902 1.55055 0
M  V30 2915 H 277.649 -2.19553 2.38677 0
M  V30 2916 H 277.434 -1.08241 3.76864 0
M  V30 2917 H 278.924 -2.06296 3.63087 0
M  V30 2918 N 279.361 -1.56624 0.175154 0
M  V30 2919 C 280.294 -2.14 -0.792412 0
M  V30 2920 C 281.272 -1.07114 -1.22333 0
M  V30 2921 O 282.456 -1.35112 -1.31442 0
M  V30 2922 C 279.583 -2.68268 -2.0676 0
M  V30 2923 C 278.629 -3.87562 -1.7804 0
M  V30 2924 S 279.462 -5.27074 -0.946222 0
M  V30 2925 C 280.618 -5.8475 -2.23199 0
M  V30 2926 H 280.851 -2.95736 -0.304588 0
M  V30 2927 H 278.384 -1.54349 -0.0395705 0
M  V30 2928 H 280.342 -3.00182 -2.80002 0
M  V30 2929 H 279.003 -1.86612 -2.52656 0
M  V30 2930 H 278.196 -4.23874 -2.72666 0
M  V30 2931 H 277.798 -3.56555 -1.12891 0
M  V30 2932 H 280.09 -5.97898 -3.18629 0
M  V30 2933 H 281.033 -6.81756 -1.91349 0
M  V30 2934 H 281.441 -5.13198 -2.35134 0
M  V30 2935 N 280.839 0.0985539 -1.57292 0
M  V30 2936 C 282.088 0.801358 -1.85098 0
M  V30 2937 C 282.401 1.80066 -0.763902 0
M  V30 2938 O 283.607 2.55112 -0.928981 0
M  V30 2939 C 282.063 1.47599 -3.28242 0
M  V30 2940 C 281.671 0.516624 -4.45011 0
M  V30 2941 C 283.415 2.16272 -3.65276 0
M  V30 2942 C 281.322 1.19564 -5.79188 0
M  V30 2943 H 280.252 0.303022 -0.69043 0
M  V30 2944 H 282.903 0.0542623 -1.8342 0
M  V30 2945 H 281.285 2.27042 -3.2445 0
M  V30 2946 H 282.459 -0.246065 -4.60143 0
M  V30 2947 H 280.774 -0.064227 -4.1635 0
M  V30 2948 H 283.371 2.67802 -4.62803 0
M  V30 2949 H 283.714 2.95009 -2.93727 0
M  V30 2950 H 284.247 1.43693 -3.70941 0
M  V30 2951 H 280.986 0.449157 -6.53959 0
M  V30 2952 H 280.506 1.92984 -5.67906 0
M  V30 2953 H 282.185 1.7231 -6.23633 0
M  V30 2954 N 282.317 1.53212 0.369288 0
M  V30 2955 C 283.728 1.60943 0.946276 0
M  V30 2956 C 284.079 0.47452 1.90375 0
M  V30 2957 O 283.204 -0.399597 2.12679 0
M  V30 2958 C 283.799 2.91715 1.72302 0
M  V30 2959 C 282.358 3.01792 2.24941 0
M  V30 2960 C 281.505 2.56211 1.06072 0
M  V30 2961 H 284.456 1.58007 0.148198 0
M  V30 2962 H 284.477 2.79309 2.58393 0
M  V30 2963 H 283.989 3.74295 1.0259 0
M  V30 2964 H 282.09 2.23791 2.97906 0
M  V30 2965 H 282.203 4.06803 2.53077 0
M  V30 2966 H 280.567 2.10998 1.4266 0
M  V30 2967 H 281.35 3.41206 0.378639 0
M  V30 2968 N 283.795 -0.628877 1.44509 0
M  V30 2969 C 284.725 -1.75187 1.54376 0
M  V30 2970 C 285.706 -1.65411 0.396618 0
M  V30 2971 O 286.891 -1.84137 0.617031 0
M  V30 2972 C 284.021 -3.13725 1.48976 0
M  V30 2973 C 282.975 -3.38291 2.62189 0
M  V30 2974 C 282.301 -4.76883 2.41841 0
M  V30 2975 C 283.601 -3.30632 4.04326 0
M  V30 2976 H 285.295 -1.67187 2.48373 0
M  V30 2977 H 282.841 -0.802909 1.19538 0
M  V30 2978 H 284.794 -3.92064 1.54478 0
M  V30 2979 H 283.518 -3.22515 0.514961 0
M  V30 2980 H 282.177 -2.62334 2.56079 0
M  V30 2981 H 281.825 -4.82378 1.42548 0
M  V30 2982 H 281.525 -4.94278 3.17747 0
M  V30 2983 H 283.049 -5.57449 2.49165 0
M  V30 2984 H 284.463 -3.98873 4.11793 0
M  V30 2985 H 282.86 -3.59561 4.80454 0
M  V30 2986 H 283.93 -2.28404 4.27738 0
M  V30 2987 N 285.273 -1.31445 -0.869486 0
M  V30 2988 C 286.519 -1.22347 -1.62489 0
M  V30 2989 C 286.874 0.216204 -1.91181 0
M  V30 2990 O 286.167 1.14977 -1.53268 0
M  V30 2991 C 286.361 -2.00145 -2.96102 0
M  V30 2992 C 286.19 -3.51531 -2.80456 0
M  V30 2993 C 284.96 -4.20882 -2.79618 0
M  V30 2994 C 287.158 -4.46471 -2.5528 0
M  V30 2995 N 285.14 -5.58421 -2.55027 0
M  V30 2996 C 286.511 -5.71682 -2.39957 0
M  V30 2997 C 288.566 -4.35892 -2.40629 0
M  V30 2998 C 287.269 -6.87511 -2.11472 0
M  V30 2999 C 289.295 -5.51505 -2.13532 0
M  V30 3000 C 288.657 -6.75707 -1.98998 0
M  V30 3001 H 284.756 -0.502815 -0.598917 0
M  V30 3002 H 287.34 -1.65639 -1.02332 0
M  V30 3003 H 285.511 -1.59221 -3.54264 0
M  V30 3004 H 287.243 -1.83063 -3.60929 0
M  V30 3005 H 283.998 -3.72857 -2.92018 0
M  V30 3006 H 284.422 -6.30841 -2.45701 0
M  V30 3007 H 289.064 -3.40533 -2.50593 0
M  V30 3008 H 286.782 -7.82897 -2.00245 0
M  V30 3009 H 290.368 -5.45238 -2.02995 0
M  V30 3010 H 289.248 -7.63655 -1.78326 0
M  V30 3011 N 286.751 1.08385 -1.14413 0
M  V30 3012 C 287.684 2.14642 -0.774871 0
M  V30 3013 C 288.662 1.60761 0.243876 0
M  V30 3014 O 289.846 1.88031 0.132883 0
M  V30 3015 C 286.973 3.38366 -0.150491 0
M  V30 3016 C 286.019 4.10997 -1.13945 0
M  V30 3017 S 286.852 4.63797 -2.67679 0
M  V30 3018 C 288.008 5.90808 -2.06631 0
M  V30 3019 H 288.241 2.45633 -1.67487 0
M  V30 3020 H 285.774 1.20498 -0.96538 0
M  V30 3021 H 287.732 4.09996 0.203334 0
M  V30 3022 H 286.393 3.05572 0.72694 0
M  V30 3023 H 285.586 4.99783 -0.65059 0
M  V30 3024 H 285.188 3.4528 -1.43727 0
M  V30 3025 H 287.48 6.62411 -1.4219 0
M  V30 3026 H 288.423 6.4439 -2.93542 0
M  V30 3027 H 288.831 5.4383 -1.51357 0
M  V30 3028 N 288.23 0.939286 1.26551 0
M  V30 3029 C 289.477 0.585847 1.9384 0
M  V30 3030 C 289.805 -0.874784 1.73718 0
M  V30 3031 O 289.06 -1.64092 1.06642 0
M  V30 3032 C 289.359 0.872106 3.46596 0
M  V30 3033 C 289.025 2.31632 3.86856 0
M  V30 3034 C 287.687 2.71111 3.97558 0
M  V30 3035 C 290.039 3.25494 4.07066 0
M  V30 3036 C 287.367 4.03553 4.25866 0
M  V30 3037 C 289.719 4.57531 4.36862 0
M  V30 3038 C 288.383 4.96828 4.45778 0
M  V30 3039 H 287.653 0.214377 0.709312 0
M  V30 3040 H 290.3 1.18544 1.50398 0
M  V30 3041 H 288.605 0.18996 3.91339 0
M  V30 3042 H 290.302 0.577442 3.96821 0
M  V30 3043 H 286.892 2.00008 3.79071 0
M  V30 3044 H 291.076 2.9619 3.98227 0
M  V30 3045 H 286.332 4.33665 4.30981 0
M  V30 3046 H 290.506 5.30254 4.51446 0
M  V30 3047 H 288.133 5.99482 4.67468 0
M  V30 3048 N 289.708 -1.40897 0.706093 0
M  V30 3049 C 291.119 -1.84023 0.315052 0
M  V30 3050 C 291.47 -1.5906 -1.14866 0
M  V30 3051 O 290.595 -1.06651 -1.88293 0
M  V30 3052 C 291.19 -3.34055 0.565038 0
M  V30 3053 C 289.749 -3.7571 0.227806 0
M  V30 3054 C 288.896 -2.64204 0.842122 0
M  V30 3055 H 291.847 -1.303 0.905963 0
M  V30 3056 H 291.868 -3.80107 -0.172843 0
M  V30 3057 H 291.38 -3.52192 1.63042 0
M  V30 3058 H 289.481 -3.63172 -0.832895 0
M  V30 3059 H 289.594 -4.74103 0.690174 0
M  V30 3060 H 287.958 -2.53255 0.270893 0
M  V30 3061 H 288.741 -2.85155 1.91158 0
M  V30 3062 N 291.186 -0.45159 -1.50991 0
M  V30 3063 C 292.119 0.398179 -2.24699 0
M  V30 3064 C 293.097 1.01276 -1.27208 0
M  V30 3065 O 294.281 1.05247 -1.56382 0
M  V30 3066 C 291.408 1.55618 -3.00833 0
M  V30 3067 C 290.454 1.0609 -4.13095 0
M  V30 3068 S 291.287 -0.00865136 -5.35499 0
M  V30 3069 C 292.443 1.15369 -6.15175 0
M  V30 3070 H 292.676 -0.227555 -2.96428 0
M  V30 3071 H 290.209 -0.236251 -1.52582 0
M  V30 3072 H 292.167 2.21997 -3.45293 0
M  V30 3073 H 290.828 2.15337 -2.28667 0
M  V30 3074 H 290.021 1.92726 -4.65696 0
M  V30 3075 H 289.623 0.47513 -3.7097 0
M  V30 3076 H 291.915 2.06925 -6.45126 0
M  V30 3077 H 292.858 0.667344 -7.04948 0
M  V30 3078 H 293.266 1.3987 -5.46897 0
M  V30 3079 N 292.664 1.56529 -0.183458 0
M  V30 3080 C 293.627 2.17324 0.728223 0
M  V30 3081 C 294.627 1.12453 1.14939 0
M  V30 3082 O 295.817 1.37902 1.06437 0
M  V30 3083 C 292.949 2.76591 1.99274 0
M  V30 3084 H 294.142 2.99241 0.198772 0
M  V30 3085 H 291.695 1.5616 0.0661391 0
M  V30 3086 H 292.43 1.98441 2.56499 0
M  V30 3087 H 292.215 3.5335 1.69959 0
M  V30 3088 H 293.705 3.23311 2.6431 0
M  V30 3089 N 294.142 -0.090211 1.57342 0
M  V30 3090 C 295.075 -1.14035 1.97664 0
M  V30 3091 C 296.053 -1.38576 0.850616 0
M  V30 3092 O 297.237 -1.52255 1.11134 0
M  V30 3093 C 294.364 -2.48854 2.2976 0
M  V30 3094 C 293.41 -2.40564 3.52181 0
M  V30 3095 S 294.243 -1.81745 5.03715 0
M  V30 3096 C 295.399 -3.18178 5.38993 0
M  V30 3097 H 295.632 -0.796636 2.86428 0
M  V30 3098 H 293.165 -0.298072 1.51496 0
M  V30 3099 H 295.123 -3.26413 2.48927 0
M  V30 3100 H 293.784 -2.80393 1.41558 0
M  V30 3101 H 292.977 -3.39942 3.72096 0
M  V30 3102 H 292.579 -1.71135 3.32549 0
M  V30 3103 H 294.871 -4.14461 5.35937 0
M  V30 3104 H 295.814 -3.03062 6.39968 0
M  V30 3105 H 296.222 -3.17935 4.66452 0
M  V30 3106 N 295.62 -1.53406 -0.361157 0
M  V30 3107 C 296.866 -1.70054 -1.10496 0
M  V30 3108 C 297.199 -0.453278 -1.88836 0
M  V30 3109 O 296.474 0.5495 -1.86576 0
M  V30 3110 C 296.757 -2.95317 -2.06058 0
M  V30 3111 C 296.61 -4.3021 -1.31298 0
M  V30 3112 C 297.929 -3.16193 -3.06121 0
M  V30 3113 H 295.048 -0.618799 -0.400321 0
M  V30 3114 H 297.69 -1.86052 -0.385318 0
M  V30 3115 H 295.84 -2.81809 -2.67425 0
M  V30 3116 H 297.512 -4.55538 -0.726807 0
M  V30 3117 H 295.755 -4.29421 -0.614853 0
M  V30 3118 H 296.426 -5.14 -2.01265 0
M  V30 3119 H 298.902 -3.28916 -2.5486 0
M  V30 3120 H 297.778 -4.05266 -3.70204 0
M  V30 3121 H 298.039 -2.31676 -3.76535 0
M  V30 3122 N 297.098 0.621204 -1.44841 0
M  V30 3123 C 298.338 1.39201 -1.49674 0
M  V30 3124 C 298.702 1.91561 -0.129764 0
M  V30 3125 O 299.903 2.68748 -0.0527814 0
M  V30 3126 C 298.174 2.519 -2.53537 0
M  V30 3127 S 299.733 3.39916 -2.77494 0
M  V30 3128 H 296.551 0.474758 -0.529269 0
M  V30 3129 H 299.153 0.718171 -1.81831 0
M  V30 3130 H 297.857 2.11761 -3.51547 0
M  V30 3131 H 297.388 3.241 -2.22986 0
M  V30 3132 H 299.403 4.49646 -2.0984 0
M  V30 3133 N 298.576 1.31904 0.862503 0
M  V30 3134 C 299.824 1.21776 1.61292 0
M  V30 3135 C 300.145 -0.222413 1.93727 0
M  V30 3136 O 299.415 -1.1451 1.58947 0
M  V30 3137 H 297.995 0.447717 0.597962 0
M  V30 3138 H 300.657 1.65326 1.03215 0
M  V30 3139 H 299.753 1.7948 2.5533 0
M  V30 3140 N 300.054 -1.07777 1.14986 0
M  V30 3141 C 301.002 -2.16964 0.838406 0
M  V30 3142 C 301.996 -1.68372 -0.186386 0
M  V30 3143 O 303.202 -1.79951 -0.0418465 0
M  V30 3144 H 299.577 -0.708006 0.253439 0
M  V30 3145 H 301.548 -2.40454 1.76704 0
M  V30 3146 C 300.297 -3.4604 0.339335 0
M  V30 3147 H 299.62 -3.83813 1.11927 0
M  V30 3148 H 301.06 -4.23698 0.160021 0
M  V30 3149 C 299.519 -3.23569 -0.938325 0
M  V30 3150 O 300.049 -3.47752 -2.01077 0
M  V30 3151 N 298.255 -2.77079 -0.876117 0
M  V30 3152 H 297.802 -2.576 -0.00322037 0
M  V30 3153 H 297.76 -2.62422 -1.73153 0
M  V30 3154 N 301.532 -0.945985 -1.26051 0
M  V30 3155 C 302.76 -0.613025 -1.9761 0
M  V30 3156 C 303.175 0.813035 -1.70397 0
M  V30 3157 O 302.532 1.54274 -0.974979 0
M  V30 3158 C 302.583 -0.85159 -3.51326 0
M  V30 3159 O 302.304 -2.22157 -3.77595 0
M  V30 3160 C 303.805 -0.529831 -4.40122 0
M  V30 3161 H 301.025 -0.230593 -0.630133 0
M  V30 3162 H 303.569 -1.268 -1.60443 0
M  V30 3163 H 301.724 -0.243151 -3.86636 0
M  V30 3164 H 302.138 -2.2852 -4.721 0
M  V30 3165 H 303.612 -0.747348 -5.46917 0
M  V30 3166 H 304.089 0.535341 -4.35925 0
M  V30 3167 H 304.695 -1.11721 -4.10364 0
M  V30 3168 N 303.011 1.40521 -0.713556 0
M  V30 3169 C 304.258 2.00923 -0.25219 0
M  V30 3170 C 304.586 1.56571 1.15395 0
M  V30 3171 O 303.841 0.775874 1.79663 0
M  V30 3172 C 304.14 3.56317 -0.278 0
M  V30 3173 C 303.806 4.20246 -1.63415 0
M  V30 3174 C 302.468 4.37422 -2.00538 0
M  V30 3175 C 304.82 4.55923 -2.52554 0
M  V30 3176 C 302.148 4.87558 -3.2635 0
M  V30 3177 C 304.5 5.07458 -3.77716 0
M  V30 3178 C 303.164 5.22843 -4.14959 0
M  V30 3179 H 302.434 0.735231 -0.0922829 0
M  V30 3180 H 305.081 1.68161 -0.916188 0
M  V30 3181 H 303.386 3.88976 0.469567 0
M  V30 3182 H 305.083 4.00883 0.0967819 0
M  V30 3183 H 301.673 4.07263 -1.33546 0
M  V30 3184 H 305.857 4.42291 -2.25149 0
M  V30 3185 H 301.113 4.97654 -3.55176 0
M  V30 3186 H 305.287 5.34041 -4.4696 0
M  V30 3187 H 302.914 5.61454 -5.12516 0
M  V30 3188 N 304.489 0.459591 1.5075 0
M  V30 3189 C 305.419 -0.330644 2.31147 0
M  V30 3190 C 306.4 -1.00087 1.37538 0
M  V30 3191 O 307.585 -1.00025 1.66459 0
M  V30 3192 C 304.715 -1.41958 3.16962 0
M  V30 3193 C 303.669 -0.871608 4.19031 0
M  V30 3194 C 302.995 -2.05797 4.9351 0
M  V30 3195 C 304.295 0.109251 5.22186 0
M  V30 3196 H 305.989 0.340336 2.97459 0
M  V30 3197 H 303.535 0.165119 1.4305 0
M  V30 3198 H 305.488 -1.9798 3.71997 0
M  V30 3199 H 304.212 -2.11917 2.48513 0
M  V30 3200 H 302.871 -0.333442 3.6508 0
M  V30 3201 H 302.519 -2.74427 4.21544 0
M  V30 3202 H 302.219 -1.6976 5.62544 0
M  V30 3203 H 303.743 -2.62331 5.51375 0
M  V30 3204 H 305.157 -0.361405 5.7216 0
M  V30 3205 H 303.554 0.383316 5.98875 0
M  V30 3206 H 304.624 1.03887 4.73641 0
M  V30 3207 N 305.967 -1.56429 0.191757 0
M  V30 3208 C 306.9 -2.14829 -0.76967 0
M  V30 3209 C 307.878 -1.08405 -1.2119 0
M  V30 3210 O 309.062 -1.36498 -1.30002 0
M  V30 3211 C 306.189 -2.70446 -2.03903 0
M  V30 3212 C 305.235 -3.89428 -1.7392 0
M  V30 3213 S 306.068 -5.28048 -0.890265 0
M  V30 3214 C 307.224 -5.87085 -2.16984 0
M  V30 3215 H 307.457 -2.96042 -0.273204 0
M  V30 3216 H 304.99 -1.54383 -0.0231975 0
M  V30 3217 H 306.948 -3.03134 -2.76803 0
M  V30 3218 H 305.609 -1.89281 -2.50662 0
M  V30 3219 H 304.802 -4.26742 -2.68155 0
M  V30 3220 H 304.404 -3.57732 -1.09103 0
M  V30 3221 H 306.696 -6.01244 -3.12269 0
M  V30 3222 H 307.639 -6.83747 -1.84108 0
M  V30 3223 H 308.047 -5.15663 -2.29678 0
M  V30 3224 N 307.445 0.0818655 -1.57387 0
M  V30 3225 C 308.392 1.09834 -2.0299 0
M  V30 3226 C 309.362 1.39043 -0.908639 0
M  V30 3227 O 310.547 1.50282 -1.17559 0
M  V30 3228 C 307.687 2.40971 -2.47037 0
M  V30 3229 C 306.8 2.18379 -3.7274 0
M  V30 3230 C 305.935 3.43008 -4.0561 0
M  V30 3231 C 304.974 3.15736 -5.24383 0
M  V30 3232 N 304.111 4.32667 -5.52941 0
M  V30 3233 H 308.951 0.702472 -2.89602 0
M  V30 3234 H 306.488 0.33531 -1.43227 0
M  V30 3235 H 308.446 3.1752 -2.70623 0
M  V30 3236 H 307.076 2.78379 -1.63417 0
M  V30 3237 H 306.128 1.32569 -3.56552 0
M  V30 3238 H 307.44 1.94227 -4.59431 0
M  V30 3239 H 306.594 4.27958 -4.30043 0
M  V30 3240 H 305.333 3.70225 -3.17466 0
M  V30 3241 H 304.338 2.2918 -4.99757 0
M  V30 3242 H 305.563 2.8985 -6.14136 0
M  V30 3243 H 303.509 4.59935 -4.67756 0
M  V30 3244 H 303.426 4.11753 -6.34031 0
M  V30 3245 H 304.694 5.18644 -5.81918 0
M  V30 3246 N 308.923 1.53595 0.353017 0
M  V30 3247 C 310.334 1.61937 0.929153 0
M  V30 3248 C 310.685 0.494686 1.89861 0
M  V30 3249 O 309.81 -0.377017 2.1309 0
M  V30 3250 C 310.405 2.93526 1.69199 0
M  V30 3251 C 308.964 3.04161 2.21727 0
M  V30 3252 C 308.111 2.57322 1.03348 0
M  V30 3253 H 311.062 1.58155 0.131431 0
M  V30 3254 H 311.083 2.82034 2.55416 0
M  V30 3255 H 310.595 3.75362 0.986144 0
M  V30 3256 H 308.696 2.26938 2.95516 0
M  V30 3257 H 308.809 4.09465 2.48748 0
M  V30 3258 H 307.173 2.12499 1.40414 0
M  V30 3259 H 307.956 3.41588 0.342428 0
M  V30 3260 N 310.401 -0.613514 1.45168 0
M  V30 3261 C 311.626 -1.40437 1.52618 0
M  V30 3262 C 312.051 -1.87438 0.157707 0
M  V30 3263 O 311.409 -1.59791 -0.856537 0
M  V30 3264 C 311.457 -2.58894 2.51011 0
M  V30 3265 O 310.561 -3.59326 2.02382 0
M  V30 3266 H 309.902 -0.419506 0.514695 0
M  V30 3267 H 312.432 -0.747215 1.90467 0
M  V30 3268 H 312.442 -3.06214 2.69624 0
M  V30 3269 H 311.117 -2.24032 3.50403 0
M  V30 3270 H 309.694 -3.18695 1.93618 0
M  V30 3271 N 311.879 -1.3236 -0.855495 0
M  V30 3272 C 312.789 -1.23221 -1.99634 0
M  V30 3273 C 313.805 -0.145983 -1.73387 0
M  V30 3274 O 314.981 -0.366502 -1.98037 0
M  V30 3275 C 312.046 -0.954782 -3.33294 0
M  V30 3276 C 311.107 -2.12937 -3.72769 0
M  V30 3277 C 310.34 -1.86508 -5.00051 0
M  V30 3278 O 310.563 -0.807231 -5.64659 0
M  V30 3279 O 309.497 -2.72591 -5.36636 0
M  V30 3280 H 313.323 -2.19126 -2.1028 0
M  V30 3281 H 310.908 -1.12241 -0.986018 0
M  V30 3282 H 312.79 -0.816519 -4.13414 0
M  V30 3283 H 311.465 -0.0258854 -3.2369 0
M  V30 3284 H 310.372 -2.3231 -2.93228 0
M  V30 3285 H 311.705 -3.04102 -3.87018 0
M  V30 3286 N 313.357 1.07166 -1.15556 0
M  V30 3287 C 314.773 1.31899 -0.898603 0
M  V30 3288 C 314.973 1.96333 0.453383 0
M  V30 3289 O 314.029 2.22438 1.19489 0
M  V30 3290 C 315.342 2.20826 -2.04099 0
M  V30 3291 C 316.89 2.34269 -2.07574 0
M  V30 3292 C 317.365 3.26546 -3.21141 0
M  V30 3293 N 318.856 3.34127 -3.20801 0
M  V30 3294 C 319.591 4.05595 -4.05315 0
M  V30 3295 N 319.087 4.79661 -4.99897 0
M  V30 3296 N 320.88 4.01555 -3.93332 0
M  V30 3297 H 313.031 0.637302 -2.02613 0
M  V30 3298 H 315.294 0.343468 -0.883591 0
M  V30 3299 H 315 1.80744 -3.01703 0
M  V30 3300 H 314.874 3.21364 -1.97496 0
M  V30 3301 H 317.261 2.73603 -1.10568 0
M  V30 3302 H 317.342 1.33429 -2.18244 0
M  V30 3303 H 316.986 2.87931 -4.184 0
M  V30 3304 H 316.916 4.27345 -3.07708 0
M  V30 3305 H 319.407 2.81336 -2.52306 0
M  V30 3306 H 319.72 5.31694 -5.60822 0
M  V30 3307 H 318.065 4.78671 -5.03884 0
M  V30 3308 H 321.256 3.42806 -3.18751 0
M  V30 3309 H 321.429 4.56987 -4.5942 0
M  V30 3310 N 314.835 0.952656 1.25548 0
M  V30 3311 C 316.081 0.607272 1.93494 0
M  V30 3312 C 316.414 -0.853245 1.74452 0
M  V30 3313 O 315.689 -1.61194 1.08843 0
M  V30 3314 C 315.972 0.96435 3.46947 0
M  V30 3315 C 315.825 2.48045 3.75225 0
M  V30 3316 C 317.144 0.487987 4.37386 0
M  V30 3317 H 314.263 0.222096 0.702739 0
M  V30 3318 H 316.905 1.18895 1.48203 0
M  V30 3319 H 315.055 0.469361 3.85654 0
M  V30 3320 H 316.727 3.04905 3.46166 0
M  V30 3321 H 314.97 2.919 3.209 0
M  V30 3322 H 315.641 2.6808 4.82532 0
M  V30 3323 H 318.117 0.912558 4.0597 0
M  V30 3324 H 316.993 0.766547 5.43521 0
M  V30 3325 H 317.254 -0.612063 4.37843 0
M  V30 3326 N 316.313 -1.40141 0.720998 0
M  V30 3327 C 317.724 -1.83678 0.334553 0
M  V30 3328 C 318.075 -1.6027 -1.13173 0
M  V30 3329 O 317.2 -1.08643 -1.87152 0
M  V30 3330 C 317.795 -3.33437 0.600437 0
M  V30 3331 C 316.354 -3.75447 0.267642 0
M  V30 3332 C 315.501 -2.63296 0.870097 0
M  V30 3333 H 318.452 -1.29331 0.919732 0
M  V30 3334 H 318.473 -3.80269 -0.132517 0
M  V30 3335 H 317.985 -3.50442 1.66768 0
M  V30 3336 H 316.086 -3.64035 -0.794329 0
M  V30 3337 H 316.199 -4.73344 0.74042 0
M  V30 3338 H 314.563 -2.52954 0.297739 0
M  V30 3339 H 315.346 -2.83112 1.94172 0
M  V30 3340 N 317.792 -0.46758 -1.50504 0
M  V30 3341 C 319.04 0.0884469 -2.01906 0
M  V30 3342 C 319.361 1.40532 -1.35188 0
M  V30 3343 O 318.631 1.89515 -0.496079 0
M  V30 3344 H 317.211 0.0356765 -0.746148 0
M  V30 3345 H 319.873 -0.6172 -1.84869 0
M  V30 3346 H 318.969 0.2425 -3.11156 0
M  V30 3347 N 319.27 1.56325 -0.20005 0
M  V30 3348 C 320.233 2.18084 0.705132 0
M  V30 3349 C 321.233 1.13666 1.1374 0
M  V30 3350 O 322.423 1.39023 1.04968 0
M  V30 3351 C 319.555 2.78689 1.96329 0
M  V30 3352 H 320.748 2.99435 0.167023 0
M  V30 3353 H 318.301 1.56221 0.0495725 0
M  V30 3354 H 319.036 2.0115 2.5438 0
M  V30 3355 H 318.821 3.55133 1.66202 0
M  V30 3356 H 320.311 3.26096 2.60866 0
M  V30 3357 N 320.748 -0.0735177 1.57428 0
M  V30 3358 C 321.976 -0.785969 1.9139 0
M  V30 3359 C 322.391 -1.71207 0.795847 0
M  V30 3360 O 321.748 -1.81033 -0.230915 0
M  V30 3361 C 321.799 -1.58107 3.25091 0
M  V30 3362 O 321.52 -0.6922 4.32597 0
M  V30 3363 C 323.021 -2.39467 3.73055 0
M  V30 3364 H 320.241 -0.223558 0.632663 0
M  V30 3365 H 322.785 -0.044302 2.04452 0
M  V30 3366 H 320.94 -2.27503 3.13562 0
M  V30 3367 H 321.354 -1.24504 5.09508 0
M  V30 3368 H 322.828 -2.90716 4.69242 0
M  V30 3369 H 323.305 -3.18913 3.01979 0
M  V30 3370 H 323.911 -1.7523 3.87523 0
M  V30 3371 N 322.226 -1.5378 -0.344866 0
M  V30 3372 C 323.159 -1.7649 -1.4466 0
M  V30 3373 C 324.137 -0.613954 -1.50563 0
M  V30 3374 O 325.321 -0.84896 -1.683 0
M  V30 3375 C 322.448 -1.86235 -2.82903 0
M  V30 3376 C 321.494 -3.08375 -2.94631 0
M  V30 3377 S 322.327 -4.67457 -2.61236 0
M  V30 3378 C 323.483 -4.80079 -4.0159 0
M  V30 3379 H 323.716 -2.69661 -1.2518 0
M  V30 3380 H 321.249 -1.44632 -0.540455 0
M  V30 3381 H 323.207 -1.92535 -3.62547 0
M  V30 3382 H 321.868 -0.940786 -2.9968 0
M  V30 3383 H 321.061 -3.11865 -3.95925 0
M  V30 3384 H 320.663 -3.00294 -2.22934 0
M  V30 3385 H 322.955 -4.61407 -4.96094 0
M  V30 3386 H 323.898 -5.82168 -4.03095 0
M  V30 3387 H 324.306 -4.08544 -3.89554 0
M  V30 3388 N 323.704 0.605807 -1.45491 0
M  V30 3389 C 324.634 1.72709 -1.57143 0
M  V30 3390 C 325.615 1.6476 -0.422884 0
M  V30 3391 O 326.8 1.83132 -0.646247 0
M  V30 3392 C 323.93 3.11316 -1.53948 0
M  V30 3393 C 322.884 3.34077 -2.67537 0
M  V30 3394 C 322.21 4.72975 -2.49397 0
M  V30 3395 C 323.51 3.24158 -4.09535 0
M  V30 3396 H 325.204 1.63214 -2.51001 0
M  V30 3397 H 322.75 0.78379 -1.208 0
M  V30 3398 H 324.703 3.89557 -1.60696 0
M  V30 3399 H 323.427 3.21655 -0.566205 0
M  V30 3400 H 322.086 2.58227 -2.6022 0
M  V30 3401 H 321.734 4.8005 -1.50205 0
M  V30 3402 H 321.434 4.8916 -3.25571 0
M  V30 3403 H 322.958 5.53414 -2.58002 0
M  V30 3404 H 324.372 3.92271 -4.18086 0
M  V30 3405 H 322.769 3.51872 -4.86113 0
M  V30 3406 H 323.839 2.2157 -4.31317 0
M  V30 3407 N 325.182 1.32811 0.848464 0
M  V30 3408 C 326.112 1.24882 1.97299 0
M  V30 3409 C 327.093 0.131357 1.69592 0
M  V30 3410 O 328.278 0.319553 1.91553 0
M  V30 3411 C 325.408 0.97746 3.33261 0
M  V30 3412 C 324.362 2.05682 3.75338 0
M  V30 3413 C 323.688 1.63777 5.09 0
M  V30 3414 C 324.988 3.47254 3.90144 0
M  V30 3415 H 326.682 2.18966 2.04191 0
M  V30 3416 H 324.228 1.05413 0.981029 0
M  V30 3417 H 326.181 0.908513 4.1149 0
M  V30 3418 H 324.905 0.000980011 3.266 0
M  V30 3419 H 323.564 2.11603 2.99366 0
M  V30 3420 H 323.212 0.648569 4.98801 0
M  V30 3421 H 322.912 2.36 5.38124 0
M  V30 3422 H 324.436 1.5833 5.89715 0
M  V30 3423 H 325.85 3.43888 4.58709 0
M  V30 3424 H 324.247 4.1788 4.30693 0
M  V30 3425 H 325.317 3.86462 2.92874 0
M  V30 3426 N 326.66 -1.06551 1.16123 0
M  V30 3427 C 327.623 -2.12132 0.867906 0
M  V30 3428 C 328.623 -1.60224 -0.135944 0
M  V30 3429 O 329.813 -1.73943 0.0946422 0
M  V30 3430 C 326.945 -3.396 0.297419 0
M  V30 3431 H 328.138 -2.39586 1.80385 0
M  V30 3432 H 325.691 -1.22574 0.969812 0
M  V30 3433 H 326.426 -3.17794 -0.64633 0
M  V30 3434 H 326.211 -3.78581 1.02073 0
M  V30 3435 H 327.701 -4.17455 0.110052 0
M  V30 3436 N 328.138 -0.959301 -1.25041 0
M  V30 3437 C 329.085 -0.482057 -2.2571 0
M  V30 3438 C 330.055 0.467939 -1.59372 0
M  V30 3439 O 331.24 0.380159 -1.86974 0
M  V30 3440 C 328.38 0.229623 -3.44335 0
M  V30 3441 C 327.493 -0.758156 -4.25295 0
M  V30 3442 C 326.628 -0.0234403 -5.31195 0
M  V30 3443 C 325.667 -1.00184 -6.03846 0
M  V30 3444 N 324.804 -0.29769 -7.01469 0
M  V30 3445 H 329.644 -1.34538 -2.65901 0
M  V30 3446 H 327.181 -0.674592 -1.3072 0
M  V30 3447 H 329.139 0.658856 -4.11965 0
M  V30 3448 H 327.769 1.05696 -3.05005 0
M  V30 3449 H 326.821 -1.30586 -3.57284 0
M  V30 3450 H 328.133 -1.50458 -4.75567 0
M  V30 3451 H 327.287 0.464201 -6.04922 0
M  V30 3452 H 326.026 0.755741 -4.81809 0
M  V30 3453 H 325.031 -1.50044 -5.2893 0
M  V30 3454 H 326.256 -1.78133 -6.55321 0
M  V30 3455 H 324.202 0.462668 -6.54366 0
M  V30 3456 H 324.119 -0.983128 -7.4958 0
M  V30 3457 H 325.387 0.16826 -7.79318 0
M  V30 3458 N 329.616 1.39756 -0.72842 0
M  V30 3459 C 330.546 2.33289 -0.0991354 0
M  V30 3460 C 331.527 1.53568 0.731489 0
M  V30 3461 O 332.712 1.81987 0.677807 0
M  V30 3462 C 329.842 3.3763 0.813834 0
M  V30 3463 C 328.796 4.2791 0.0878663 0
M  V30 3464 C 328.122 5.22894 1.11741 0
M  V30 3465 C 329.422 5.11314 -1.06563 0
M  V30 3466 H 331.116 2.86163 -0.880408 0
M  V30 3467 H 328.662 1.37591 -0.424819 0
M  V30 3468 H 330.615 4.0201 1.26355 0
M  V30 3469 H 329.339 2.83181 1.62715 0
M  V30 3470 H 327.998 3.65 -0.342159 0
M  V30 3471 H 327.646 4.64744 1.92412 0
M  V30 3472 H 327.346 5.84143 0.636477 0
M  V30 3473 H 328.87 5.90151 1.56697 0
M  V30 3474 H 330.284 5.69076 -0.694671 0
M  V30 3475 H 328.681 5.81671 -1.47577 0
M  V30 3476 H 329.751 4.46534 -1.89038 0
M  V30 3477 N 331.094 0.475555 1.50254 0
M  V30 3478 C 332.024 -0.30611 2.31485 0
M  V30 3479 C 333.005 -0.986228 1.38591 0
M  V30 3480 O 334.19 -0.982541 1.67511 0
M  V30 3481 C 331.32 -1.38588 3.1845 0
M  V30 3482 C 330.274 -0.827115 4.19932 0
M  V30 3483 C 329.6 -2.00551 4.95665 0
M  V30 3484 C 330.9 0.16463 5.2204 0
M  V30 3485 H 332.594 0.371866 2.97082 0
M  V30 3486 H 330.14 0.180282 1.42867 0
M  V30 3487 H 332.093 -1.94023 3.74076 0
M  V30 3488 H 330.817 -2.09269 2.50747 0
M  V30 3489 H 329.476 -0.294702 3.65414 0
M  V30 3490 H 329.124 -2.6994 4.2443 0
M  V30 3491 H 328.824 -1.63784 5.64313 0
M  V30 3492 H 330.348 -2.56468 5.54127 0
M  V30 3493 H 331.762 -0.300699 5.72511 0
M  V30 3494 H 330.159 0.446813 5.98434 0
M  V30 3495 H 331.229 1.08905 4.72512 0
M  V30 3496 N 332.573 -1.56217 0.208337 0
M  V30 3497 C 333.505 -2.1695 -0.739276 0
M  V30 3498 C 334.518 -1.13492 -1.1672 0
M  V30 3499 O 335.707 -1.40529 -1.10063 0
M  V30 3500 C 332.807 -2.72755 -2.01142 0
M  V30 3501 C 331.98 -4.0125 -1.74118 0
M  V30 3502 C 331.039 -4.41749 -2.85909 0
M  V30 3503 O 330.065 -5.08912 -2.54946 0
M  V30 3504 N 331.267 -4.06342 -4.14568 0
M  V30 3505 H 334.032 -2.98893 -0.219837 0
M  V30 3506 H 331.593 -1.61878 0.0268445 0
M  V30 3507 H 333.585 -2.96826 -2.75094 0
M  V30 3508 H 332.155 -1.95191 -2.4417 0
M  V30 3509 H 331.375 -3.85173 -0.838775 0
M  V30 3510 H 332.663 -4.851 -1.53477 0
M  V30 3511 H 332.061 -3.52345 -4.42571 0
M  V30 3512 H 330.618 -4.35335 -4.85105 0
M  V30 3513 N 334.051 0.0651679 -1.57465 0
M  V30 3514 C 335.328 0.79644 -1.78651 0
M  V30 3515 C 335.708 1.95454 -0.797566 0
M  V30 3516 O 335.056 2.27882 0.167946 0
M  V30 3517 C 335.266 1.26322 -3.25337 0
M  V30 3518 C 336.614 1.6939 -3.89348 0
M  V30 3519 O 337.638 1.35872 -3.29268 0
M  V30 3520 O 336.497 2.31471 -4.95059 0
M  V30 3521 H 333.591 0.382157 -0.733407 0
M  V30 3522 H 336.137 0.0447311 -1.69641 0
M  V30 3523 H 334.909 0.434859 -3.88876 0
M  V30 3524 H 334.532 2.07604 -3.39096 0
M  V30 3525 N 335.529 1.53961 0.336706 0
M  V30 3526 C 336.754 1.75797 1.10046 0
M  V30 3527 C 337.179 0.498985 1.81361 0
M  V30 3528 O 336.537 -0.548769 1.72795 0
M  V30 3529 C 336.585 2.94257 2.08436 0
M  V30 3530 O 335.689 2.64883 3.16087 0
M  V30 3531 H 335.03 0.582936 0.317934 0
M  V30 3532 H 337.56 2.00945 0.38501 0
M  V30 3533 H 337.57 3.21237 2.51537 0
M  V30 3534 H 336.245 3.85564 1.55927 0
M  V30 3535 H 334.822 2.48812 2.77753 0
M  V30 3536 N 337.007 -0.598083 1.45811 0
M  V30 3537 C 338.255 -1.35413 1.50026 0
M  V30 3538 C 338.576 -1.94444 0.147177 0
M  V30 3539 O 337.846 -1.77701 -0.824571 0
M  V30 3540 H 336.426 -0.502727 0.552517 0
M  V30 3541 H 339.088 -0.701606 1.81834 0
M  V30 3542 H 338.184 -2.16871 2.2444 0
M  V30 3543 N 338.485 -1.33259 -0.841409 0
M  V30 3544 C 339.448 -1.23221 -1.9326 0
M  V30 3545 C 340.448 -0.151895 -1.60081 0
M  V30 3546 O 341.638 -0.403246 -1.69468 0
M  V30 3547 C 338.77 -0.898123 -3.28856 0
M  V30 3548 H 339.963 -2.2021 -2.03587 0
M  V30 3549 H 337.516 -1.17281 -1.03319 0
M  V30 3550 H 338.251 0.0693841 -3.24226 0
M  V30 3551 H 338.036 -1.67934 -3.54317 0
M  V30 3552 H 339.526 -0.852563 -4.08805 0
M  V30 3553 N 339.963 1.05934 -1.16686 0
M  V30 3554 C 341.374 1.60263 -0.957745 0
M  V30 3555 C 341.725 1.89789 0.49745 0
M  V30 3556 O 340.85 1.67401 1.37135 0
M  V30 3557 C 341.445 2.91172 -1.73218 0
M  V30 3558 C 340.004 3.42188 -1.56794 0
M  V30 3559 C 339.151 2.16028 -1.73859 0
M  V30 3560 H 342.102 0.888392 -1.31504 0
M  V30 3561 H 342.123 3.60744 -1.21014 0
M  V30 3562 H 341.635 2.6965 -2.79124 0
M  V30 3563 H 339.736 3.68762 -0.533437 0
M  V30 3564 H 339.849 4.17273 -2.35414 0
M  V30 3565 H 338.213 2.26426 -1.16633 0
M  V30 3566 H 338.996 1.96985 -2.81161 0
M  V30 3567 N 341.441 0.965919 1.2453 0
M  V30 3568 C 342.718 0.543777 1.87889 0
M  V30 3569 C 343.098 -0.97909 1.87021 0
M  V30 3570 O 342.446 -1.84969 1.3416 0
M  V30 3571 C 342.656 1.13327 3.30088 0
M  V30 3572 C 344.004 1.21707 4.06783 0
M  V30 3573 O 345.028 1.08566 3.39252 0
M  V30 3574 O 343.887 1.42456 5.27606 0
M  V30 3575 H 340.981 0.181054 0.806938 0
M  V30 3576 H 343.527 1.06007 1.32516 0
M  V30 3577 H 342.299 2.17612 3.25209 0
M  V30 3578 H 341.922 0.600911 3.93033 0
M  V30 3579 N 342.919 -1.39368 0.735821 0
M  V30 3580 C 344.167 -2.00101 0.283562 0
M  V30 3581 C 344.488 -1.5868 -1.13338 0
M  V30 3582 O 343.758 -0.835423 -1.77193 0
M  V30 3583 H 342.338 -0.740024 0.101851 0
M  V30 3584 H 345 -1.70404 0.945962 0
M  V30 3585 H 344.096 -3.10323 0.332604 0
M  V30 3586 N 344.397 -0.483516 -1.5 0
M  V30 3587 C 345.625 0.0644831 -2.06799 0
M  V30 3588 C 346.04 1.32399 -1.34596 0
M  V30 3589 O 345.397 1.77626 -0.418946 0
M  V30 3590 C 345.448 0.339927 -3.59898 0
M  V30 3591 O 345.169 -0.869635 -4.29382 0
M  V30 3592 C 346.67 0.933515 -4.33359 0
M  V30 3593 H 343.89 -0.0126333 -0.670881 0
M  V30 3594 H 346.434 -0.675864 -1.93009 0
M  V30 3595 H 344.589 1.03022 -3.7345 0
M  V30 3596 H 345.003 -0.62179 -5.20801 0
M  V30 3597 H 346.477 1.07593 -5.41413 0
M  V30 3598 H 346.954 1.92685 -3.94676 0
M  V30 3599 H 347.56 0.281221 -4.24369 0
M  V30 3600 N 345.875 1.56104 -0.216619 0
M  V30 3601 C 346.805 2.23063 0.690296 0
M  V30 3602 C 347.786 1.20072 1.20485 0
M  V30 3603 O 348.971 1.48643 1.24976 0
M  V30 3604 C 346.101 2.90672 1.90072 0
M  V30 3605 C 345.055 4.00092 1.5202 0
M  V30 3606 C 344.381 4.54972 2.80899 0
M  V30 3607 C 345.681 5.17398 0.71391 0
M  V30 3608 H 347.375 2.99109 0.132038 0
M  V30 3609 H 344.921 1.43866 0.0620664 0
M  V30 3610 H 346.874 3.36204 2.54057 0
M  V30 3611 H 345.598 2.12066 2.48386 0
M  V30 3612 H 344.257 3.55283 0.903839 0
M  V30 3613 H 343.905 3.73102 3.37348 0
M  V30 3614 H 343.605 5.28817 2.56176 0
M  V30 3615 H 345.129 5.0322 3.45836 0
M  V30 3616 H 346.543 5.59342 1.25735 0
M  V30 3617 H 344.94 5.97444 0.563951 0
M  V30 3618 H 346.01 4.84088 -0.280527 0
M  V30 3619 N 347.353 -0.0568162 1.57498 0
M  V30 3620 C 348.301 -1.08452 2.05769 0
M  V30 3621 C 349.295 -1.39164 0.965903 0
M  V30 3622 O 350.501 -1.38395 1.15095 0
M  V30 3623 H 346.876 -0.367148 0.656282 0
M  V30 3624 H 348.847 -0.651368 2.91204 0
M  V30 3625 C 347.596 -2.38543 2.52968 0
M  V30 3626 H 346.919 -2.15765 3.36579 0
M  V30 3627 H 348.359 -3.08863 2.90481 0
M  V30 3628 C 346.818 -3.05562 1.41893 0
M  V30 3629 O 347.348 -3.94262 0.769442 0
M  V30 3630 N 345.554 -2.6643 1.16032 0
M  V30 3631 H 345.101 -1.94387 1.6903 0
M  V30 3632 H 345.059 -3.11593 0.419219 0
M  V30 3633 N 348.832 -1.54138 -0.328536 0
M  V30 3634 C 350.081 -1.71318 -1.06456 0
M  V30 3635 C 350.394 -0.491109 -1.89334 0
M  V30 3636 O 351.6 -0.54416 -2.65991 0
M  V30 3637 C 350.056 -3.03 -1.94214 0
M  V30 3638 C 349.664 -4.32595 -1.16471 0
M  V30 3639 C 351.408 -3.29544 -2.67583 0
M  V30 3640 C 349.315 -5.55341 -2.03347 0
M  V30 3641 H 348.245 -0.638429 -0.401155 0
M  V30 3642 H 350.896 -1.80633 -0.323106 0
M  V30 3643 H 349.278 -2.87579 -2.72239 0
M  V30 3644 H 350.452 -4.58766 -0.432525 0
M  V30 3645 H 348.767 -4.12777 -0.548063 0
M  V30 3646 H 351.364 -4.18444 -3.3288 0
M  V30 3647 H 351.707 -2.47206 -3.34955 0
M  V30 3648 H 352.24 -3.45809 -1.96623 0
M  V30 3649 H 348.979 -6.40268 -1.40491 0
M  V30 3650 H 348.499 -5.33397 -2.74313 0
M  V30 3651 H 350.178 -5.91557 -2.62049 0
M  V30 3652 N 350.31 0.590341 -1.46126 0
M  V30 3653 C 351.559 1.34499 -1.50309 0
M  V30 3654 C 351.872 1.94977 -0.156021 0
M  V30 3655 O 353.078 2.71395 -0.0756037 0
M  V30 3656 C 351.534 2.43723 -2.64815 0
M  V30 3657 C 351.142 1.89582 -4.0591 0
M  V30 3658 C 352.886 3.20579 -2.78262 0
M  V30 3659 C 350.793 2.9639 -5.11769 0
M  V30 3660 H 349.723 0.505593 -0.559368 0
M  V30 3661 H 352.374 0.630848 -1.72315 0
M  V30 3662 H 350.756 3.17902 -2.36124 0
M  V30 3663 H 351.93 1.21997 -4.44357 0
M  V30 3664 H 350.245 1.25418 -3.97063 0
M  V30 3665 H 352.842 4.00276 -3.54519 0
M  V30 3666 H 353.185 3.72684 -1.85505 0
M  V30 3667 H 353.718 2.53505 -3.06562 0
M  V30 3668 H 350.457 2.49181 -6.06291 0
M  V30 3669 H 349.977 3.62487 -4.77873 0
M  V30 3670 H 351.656 3.60474 -5.37278 0
M  V30 3671 N 351.788 1.33704 0.83433 0
M  V30 3672 C 352.738 1.20899 1.93306 0
M  V30 3673 C 353.722 0.110783 1.60518 0
M  V30 3674 O 354.914 0.339331 1.73717 0
M  V30 3675 C 352.043 0.955018 3.29749 0
M  V30 3676 C 351.129 2.09587 3.68692 0
M  V30 3677 N 351.52 3.34621 3.79292 0
M  V30 3678 C 349.818 2.00358 3.98463 0
M  V30 3679 C 350.519 4.09472 4.13167 0
M  V30 3680 N 349.495 3.37954 4.25779 0
M  V30 3681 H 353.297 2.15665 1.99664 0
M  V30 3682 H 350.811 1.25777 1.02732 0
M  V30 3683 H 352.808 0.844208 4.08263 0
M  V30 3684 H 351.468 0.0159317 3.24696 0
M  V30 3685 H 352.479 3.69313 3.63082 0
M  V30 3686 H 349.156 1.14137 4.01596 0
M  V30 3687 H 350.546 5.17391 4.28668 0
M  V30 3688 N 353.266 -1.05314 1.17247 0
M  V30 3689 C 354.514 -1.77941 0.958194 0
M  V30 3690 C 354.835 -1.88089 -0.514556 0
M  V30 3691 O 354.105 -1.39676 -1.37359 0
M  V30 3692 H 352.685 -0.659116 0.351533 0
M  V30 3693 H 355.347 -1.27166 1.47699 0
M  V30 3694 H 354.443 -2.79663 1.38546 0
M  V30 3695 N 354.744 -0.972509 -1.24016 0
M  V30 3696 C 355.676 -0.464375 -2.24446 0
M  V30 3697 C 356.689 0.4295 -1.57032 0
M  V30 3698 O 357.878 0.234902 -1.76948 0
M  V30 3699 C 354.978 0.348385 -3.37105 0
M  V30 3700 C 354.151 -0.53673 -4.34094 0
M  V30 3701 C 353.21 0.220838 -5.25736 0
M  V30 3702 O 352.236 -0.386867 -5.67884 0
M  V30 3703 N 353.438 1.50907 -5.60542 0
M  V30 3704 H 356.203 -1.32788 -2.68677 0
M  V30 3705 H 353.764 -0.844877 -1.38107 0
M  V30 3706 H 355.756 0.863341 -3.95384 0
M  V30 3707 H 354.326 1.11285 -2.92121 0
M  V30 3708 H 353.546 -1.23261 -3.74433 0
M  V30 3709 H 354.834 -1.14022 -4.95859 0
M  V30 3710 H 354.232 2.02444 -5.28236 0
M  V30 3711 H 352.789 1.96962 -6.21329 0
M  V30 3712 N 356.222 1.38976 -0.743202 0
M  V30 3713 C 357.172 2.27843 -0.084513 0
M  V30 3714 C 358.156 1.44677 0.704094 0
M  V30 3715 O 359.348 1.67511 0.571755 0
M  V30 3716 C 356.477 3.33466 0.815781 0
M  V30 3717 C 355.563 4.24095 0.0208844 0
M  V30 3718 N 355.954 4.95609 -1.0102 0
M  V30 3719 C 354.252 4.45303 0.249293 0
M  V30 3720 C 354.953 5.62287 -1.49024 0
M  V30 3721 N 353.929 5.37571 -0.807377 0
M  V30 3722 H 357.731 2.80593 -0.87436 0
M  V30 3723 H 355.245 1.51755 -0.578283 0
M  V30 3724 H 357.242 3.96008 1.30321 0
M  V30 3725 H 355.902 2.82276 1.6047 0
M  V30 3726 H 356.913 4.98849 -1.39176 0
M  V30 3727 H 353.59 4.0504 1.01237 0
M  V30 3728 H 354.98 6.29519 -2.34853 0
M  V30 3729 N 357.7 0.491464 1.49741 0
M  V30 3730 C 358.61 -0.296835 2.32715 0
M  V30 3731 C 359.626 -0.976536 1.44013 0
M  V30 3732 O 360.802 -0.960023 1.77047 0
M  V30 3733 C 357.867 -1.35288 3.19215 0
M  V30 3734 C 356.928 -0.687632 4.23757 0
M  V30 3735 C 356.161 -1.69336 5.06123 0
M  V30 3736 O 356.384 -2.92219 4.89861 0
M  V30 3737 O 355.318 -1.25394 5.88693 0
M  V30 3738 H 359.144 0.382048 3.01287 0
M  V30 3739 H 356.729 0.252953 1.47243 0
M  V30 3740 H 358.611 -1.96411 3.72828 0
M  V30 3741 H 357.286 -2.01487 2.53347 0
M  V30 3742 H 356.193 -0.0369159 3.74082 0
M  V30 3743 H 357.526 -0.0682566 4.92153 0
M  V30 3744 N 359.178 -1.55987 0.224894 0
M  V30 3745 C 360.141 -2.19178 -0.670348 0
M  V30 3746 C 361.141 -1.15461 -1.11917 0
M  V30 3747 O 362.331 -1.40675 -1.02743 0
M  V30 3748 C 359.463 -2.81777 -1.9187 0
M  V30 3749 H 360.656 -2.99662 -0.119364 0
M  V30 3750 H 358.209 -1.5628 -0.0247128 0
M  V30 3751 H 358.944 -2.05172 -2.51147 0
M  V30 3752 H 358.729 -3.57732 -1.60531 0
M  V30 3753 H 360.219 -3.30205 -2.55645 0
M  V30 3754 N 360.656 0.0484629 -1.57525 0
M  V30 3755 C 361.902 0.744226 -1.88651 0
M  V30 3756 C 362.235 1.76029 -0.820212 0
M  V30 3757 O 361.51 1.93782 0.166985 0
M  V30 3758 C 361.793 1.43128 -3.30434 0
M  V30 3759 C 361.646 0.43005 -4.47739 0
M  V30 3760 C 362.965 2.37031 -3.70816 0
M  V30 3761 H 360.084 0.269089 -0.68612 0
M  V30 3762 H 362.726 0.00713532 -1.89999 0
M  V30 3763 H 360.876 2.05956 -3.29415 0
M  V30 3764 H 362.548 -0.194816 -4.60888 0
M  V30 3765 H 360.791 -0.252522 -4.33064 0
M  V30 3766 H 361.462 0.948874 -5.43783 0
M  V30 3767 H 363.938 1.84263 -3.73077 0
M  V30 3768 H 362.814 2.82094 -4.70865 0
M  V30 3769 H 363.075 3.22864 -3.02012 0
M  V30 3770 N 362.134 1.5431 0.320358 0
M  V30 3771 C 363.082 1.84647 1.4145 0
M  V30 3772 C 364.076 0.718624 1.53402 0
M  V30 3773 O 365.282 0.902335 1.5575 0
M  V30 3774 H 361.657 0.585349 0.472091 0
M  V30 3775 H 363.628 2.7614 1.13089 0
M  V30 3776 C 362.377 2.09341 2.77617 0
M  V30 3777 H 361.7 2.9559 2.69196 0
M  V30 3778 H 363.14 2.3452 3.53237 0
M  V30 3779 C 361.599 0.885939 3.25043 0
M  V30 3780 O 362.129 0.0967891 4.01583 0
M  V30 3781 N 360.335 0.696682 2.82125 0
M  V30 3782 H 359.882 1.34006 2.2 0
M  V30 3783 H 359.84 -0.109712 3.14209 0
M  V30 3784 N 363.613 -0.582584 1.46437 0
M  V30 3785 C 364.86 -1.34079 1.51753 0
M  V30 3786 C 365.188 -1.93762 0.169299 0
M  V30 3787 O 364.443 -1.76989 -0.835062 0
M  V30 3788 C 364.742 -2.48964 2.56421 0
M  V30 3789 C 364.408 -2.07273 4.00436 0
M  V30 3790 C 363.07 -1.95618 4.39644 0
M  V30 3791 C 365.422 -1.75111 4.90903 0
M  V30 3792 C 362.75 -1.5006 5.67185 0
M  V30 3793 C 365.102 -1.31032 6.18881 0
M  V30 3794 C 363.766 -1.17954 6.56996 0
M  V30 3795 H 363.036 -0.49063 0.555304 0
M  V30 3796 H 365.683 -0.656007 1.79913 0
M  V30 3797 H 363.988 -3.22889 2.21923 0
M  V30 3798 H 365.685 -3.07178 2.57765 0
M  V30 3799 H 362.275 -2.17279 3.69443 0
M  V30 3800 H 366.459 -1.83001 4.61329 0
M  V30 3801 H 361.715 -1.38577 5.95488 0
M  V30 3802 H 365.889 -1.052 6.88408 0
M  V30 3803 H 363.516 -0.824279 7.55718 0
M  V30 3804 N 365.091 -1.34144 -0.827227 0
M  V30 3805 C 366.34 -1.25602 -1.5782 0
M  V30 3806 C 366.653 0.173445 -1.94829 0
M  V30 3807 O 367.859 0.380984 -2.68814 0
M  V30 3808 C 366.315 -2.20151 -2.84713 0
M  V30 3809 C 365.923 -3.68331 -2.55021 0
M  V30 3810 C 367.667 -2.20508 -3.62735 0
M  V30 3811 C 365.574 -4.54762 -3.78082 0
M  V30 3812 H 364.504 -0.466573 -0.592306 0
M  V30 3813 H 367.155 -1.59283 -0.911116 0
M  V30 3814 H 365.537 -1.79417 -3.53023 0
M  V30 3815 H 366.711 -4.17577 -1.94849 0
M  V30 3816 H 365.026 -3.7038 -1.90283 0
M  V30 3817 H 367.623 -2.82306 -4.54101 0
M  V30 3818 H 367.966 -1.20322 -3.98533 0
M  V30 3819 H 368.499 -2.59664 -3.01362 0
M  V30 3820 H 365.238 -5.55867 -3.47407 0
M  V30 3821 H 364.758 -4.10254 -4.37552 0
M  V30 3822 H 366.437 -4.69153 -4.45538 0
M  V30 3823 N 366.569 1.04691 -1.17803 0
M  V30 3824 C 367.809 1.79352 -0.980423 0
M  V30 3825 C 368.173 1.85853 0.481958 0
M  V30 3826 O 369.374 2.56656 0.798809 0
M  V30 3827 C 367.645 3.19088 -1.6099 0
M  V30 3828 S 369.204 4.10164 -1.55918 0
M  V30 3829 H 366.022 0.617631 -0.352211 0
M  V30 3830 H 368.624 1.25575 -1.49837 0
M  V30 3831 H 367.328 3.11962 -2.66661 0
M  V30 3832 H 366.859 3.77941 -1.09197 0
M  V30 3833 H 368.874 4.92907 -0.570685 0
M  V30 3834 N 368.047 0.979072 1.23499 0
M  V30 3835 C 369.324 0.563674 1.87302 0
M  V30 3836 C 369.704 -0.959199 1.88049 0
M  V30 3837 O 369.052 -1.83535 1.36114 0
M  V30 3838 C 369.262 1.16822 3.28867 0
M  V30 3839 C 370.61 1.26014 4.0547 0
M  V30 3840 O 371.634 1.12158 3.38082 0
M  V30 3841 O 370.493 1.48044 5.26066 0
M  V30 3842 H 367.587 0.189602 0.804972 0
M  V30 3843 H 370.133 1.07407 1.31384 0
M  V30 3844 H 368.905 2.21049 3.22883 0
M  V30 3845 H 368.528 0.642564 3.92373 0
M  V30 3846 N 369.525 -1.3858 0.750561 0
M  V30 3847 C 370.475 -2.27795 0.0965949 0
M  V30 3848 C 371.459 -1.45048 -0.696411 0
M  V30 3849 O 372.651 -1.67812 -0.562863 0
M  V30 3850 C 369.78 -3.33894 -0.798085 0
M  V30 3851 C 368.866 -4.241 0.0016067 0
M  V30 3852 N 369.257 -4.95067 1.03647 0
M  V30 3853 C 367.555 -4.45429 -0.225674 0
M  V30 3854 C 368.256 -5.61489 1.52004 0
M  V30 3855 N 367.232 -5.37135 0.835874 0
M  V30 3856 H 371.034 -2.80125 0.889228 0
M  V30 3857 H 368.548 -1.51446 0.586323 0
M  V30 3858 H 370.545 -3.96693 -1.28219 0
M  V30 3859 H 369.205 -2.83123 -1.5897 0
M  V30 3860 H 370.216 -4.98104 1.41819 0
M  V30 3861 H 366.893 -4.05571 -0.990872 0
M  V30 3862 H 368.283 -6.28264 2.38188 0
M  V30 3863 N 371.003 -0.499398 -1.49478 0
M  V30 3864 C 372.414 -0.051215 -1.8663 0
M  V30 3865 C 372.765 1.36238 -1.41186 0
M  V30 3866 O 371.89 2.01502 -0.789051 0
M  V30 3867 C 372.485 -0.0861651 -3.3869 0
M  V30 3868 C 371.044 0.30667 -3.75149 0
M  V30 3869 C 370.191 -0.459397 -2.73468 0
M  V30 3870 H 373.142 -0.712264 -1.41818 0
M  V30 3871 H 373.163 0.709507 -3.73826 0
M  V30 3872 H 372.675 -1.11512 -3.71735 0
M  V30 3873 H 370.776 1.33892 -3.47712 0
M  V30 3874 H 370.889 -0.0116669 -4.79099 0
M  V30 3875 H 369.253 0.0905645 -2.54539 0
M  V30 3876 H 370.036 -1.4884 -3.09357 0
M  V30 3877 N 372.481 1.55866 -0.233164 0
M  V30 3878 C 373.758 1.90471 0.444988 0
M  V30 3879 C 374.138 1.15209 1.7689 0
M  V30 3880 O 373.486 0.265119 2.26957 0
M  V30 3881 C 373.696 3.4333 0.626559 0
M  V30 3882 C 375.044 4.14319 0.92871 0
M  V30 3883 O 376.068 3.48993 0.712926 0
M  V30 3884 O 374.927 5.29846 1.33887 0
M  V30 3885 H 372.021 0.792347 0.236885 0
M  V30 3886 H 374.567 1.67437 -0.276211 0
M  V30 3887 H 373.339 3.90095 -0.306822 0
M  V30 3888 H 372.962 3.72181 1.39881 0
M  V30 3889 N 373.959 -0.0401083 1.57549 0
M  V30 3890 C 375.208 -0.732108 1.87944 0
M  V30 3891 C 375.521 -1.77107 0.830206 0
M  V30 3892 O 376.727 -2.51488 1.02302 0
M  V30 3893 C 375.183 -1.35315 3.33494 0
M  V30 3894 C 374.791 -0.351105 4.46622 0
M  V30 3895 C 376.535 -2.02566 3.73051 0
M  V30 3896 C 374.442 -0.979859 5.83226 0
M  V30 3897 H 373.372 -0.277188 0.701201 0
M  V30 3898 H 376.023 0.0138501 1.83495 0
M  V30 3899 H 374.405 -2.14844 3.32653 0
M  V30 3900 H 375.579 0.416674 4.58912 0
M  V30 3901 H 373.894 0.218708 4.15825 0
M  V30 3902 H 376.491 -2.50441 4.72423 0
M  V30 3903 H 376.834 -2.83904 3.04474 0
M  V30 3904 H 377.367 -1.29827 3.76018 0
M  V30 3905 H 374.106 -0.206135 6.55176 0
M  V30 3906 H 373.626 -1.71774 5.74677 0
M  V30 3907 H 375.305 -1.49046 6.29599 0
M  V30 3908 N 375.437 -1.54477 -0.31217 0
M  V30 3909 C 376.384 -1.84655 -1.38461 0
M  V30 3910 C 377.354 -0.694536 -1.50882 0
M  V30 3911 O 378.539 -0.942081 -1.6592 0
M  V30 3912 C 375.679 -2.0896 -2.74645 0
M  V30 3913 C 374.792 -3.36618 -2.70763 0
M  V30 3914 C 373.927 -3.50824 -3.98868 0
M  V30 3915 C 372.966 -4.72315 -3.89339 0
M  V30 3916 N 372.103 -4.83387 -5.09197 0
M  V30 3917 H 376.943 -2.76142 -1.12026 0
M  V30 3918 H 374.48 -1.36748 -0.542065 0
M  V30 3919 H 376.438 -2.21045 -3.53829 0
M  V30 3920 H 375.068 -1.20752 -2.99364 0
M  V30 3921 H 374.12 -3.33211 -1.83506 0
M  V30 3922 H 375.432 -4.25917 -2.59608 0
M  V30 3923 H 374.586 -3.62513 -4.86486 0
M  V30 3924 H 373.325 -2.59638 -4.12843 0
M  V30 3925 H 372.33 -4.6067 -3.00105 0
M  V30 3926 H 373.555 -5.64897 -3.76919 0
M  V30 3927 H 371.501 -3.9512 -5.23657 0
M  V30 3928 H 371.418 -5.66669 -5.00422 0
M  V30 3929 H 372.686 -4.9942 -5.98498 0
M  V30 3930 N 376.915 0.57481 -1.46744 0
M  V30 3931 C 377.878 1.66533 -1.57478 0
M  V30 3932 C 378.878 1.54338 -0.451263 0
M  V30 3933 O 380.068 1.58814 -0.715813 0
M  V30 3934 C 377.2 3.05999 -1.50259 0
M  V30 3935 H 378.393 1.58372 -2.54673 0
M  V30 3936 H 375.946 0.793301 -1.34672 0
M  V30 3937 H 376.681 3.19709 -0.543725 0
M  V30 3938 H 376.466 3.16259 -2.31781 0
M  V30 3939 H 377.956 3.8537 -1.60872 0
M  V30 3940 N 378.394 1.34581 0.820102 0
M  V30 3941 C 379.643 1.26437 1.57151 0
M  V30 3942 C 379.956 -0.163111 1.94919 0
M  V30 3943 O 381.162 -0.366722 2.69012 0
M  V30 3944 C 379.618 2.21658 2.83541 0
M  V30 3945 C 379.226 3.69679 2.53065 0
M  V30 3946 C 380.97 2.22428 3.61561 0
M  V30 3947 C 378.877 4.56761 3.75664 0
M  V30 3948 H 377.807 0.469707 0.589823 0
M  V30 3949 H 380.458 1.59763 0.902656 0
M  V30 3950 H 378.84 1.81287 3.52067 0
M  V30 3951 H 380.014 4.18605 1.92631 0
M  V30 3952 H 378.329 3.71384 1.88316 0
M  V30 3953 H 380.926 2.8471 4.52597 0
M  V30 3954 H 381.269 1.22434 3.97889 0
M  V30 3955 H 381.802 2.61259 2.99981 0
M  V30 3956 H 378.541 5.57702 3.44454 0
M  V30 3957 H 378.061 4.12568 4.35371 0
M  V30 3958 H 379.74 4.71509 4.43044 0
M  V30 3959 N 379.872 -1.04064 1.18357 0
M  V30 3960 C 381.097 -1.81454 1.00445 0
M  V30 3961 C 381.522 -1.82823 -0.442423 0
M  V30 3962 O 380.88 -1.24555 -1.31741 0
M  V30 3963 C 380.928 -3.24925 1.56384 0
M  V30 3964 O 380.032 -4.04856 0.785209 0
M  V30 3965 H 379.373 -0.560604 0.355835 0
M  V30 3966 H 381.903 -1.31059 1.57114 0
M  V30 3967 H 381.913 -3.75702 1.59097 0
M  V30 3968 H 380.588 -3.23244 2.61699 0
M  V30 3969 H 379.165 -3.63537 0.830399 0
M  V30 3970 N 381.35 -0.985608 -1.22978 0
M  V30 3971 C 382.597 -0.657386 -1.91532 0
M  V30 3972 C 382.925 0.809707 -1.76845 0
M  V30 3973 O 382.18 1.60021 -1.12658 0
M  V30 3974 C 382.479 -1.00014 -3.43121 0
M  V30 3975 C 382.145 -2.4583 -3.77993 0
M  V30 3976 C 380.807 -2.85679 -3.87222 0
M  V30 3977 C 383.159 -3.40378 -3.94705 0
M  V30 3978 C 380.487 -4.19081 -4.10595 0
M  V30 3979 C 382.839 -4.73429 -4.1958 0
M  V30 3980 C 381.503 -5.1303 -4.27032 0
M  V30 3981 H 380.773 -0.240555 -0.700867 0
M  V30 3982 H 383.42 -1.24044 -1.45895 0
M  V30 3983 H 381.725 -0.335072 -3.90365 0
M  V30 3984 H 383.422 -0.724322 -3.94404 0
M  V30 3985 H 380.012 -2.13939 -3.71387 0
M  V30 3986 H 384.196 -3.10766 -3.8696 0
M  V30 3987 H 379.452 -4.49362 -4.14589 0
M  V30 3988 H 383.626 -5.46644 -4.31455 0
M  V30 3989 H 381.253 -6.16418 -4.44896 0
M  V30 3990 N 382.828 1.3818 -0.7579 0
M  V30 3991 C 384.074 2.00316 -0.316453 0
M  V30 3992 C 384.407 1.60026 1.10025 0
M  V30 3993 O 383.682 0.839835 1.75434 0
M  V30 3994 C 383.965 3.57349 -0.444245 0
M  V30 3995 C 383.818 4.07591 -1.90236 0
M  V30 3996 C 385.137 4.3981 0.1598 0
M  V30 3997 H 382.256 0.727741 -0.116459 0
M  V30 3998 H 384.898 1.6406 -0.958352 0
M  V30 3999 H 383.048 3.88365 0.102233 0
M  V30 4000 H 384.72 3.87199 -2.50748 0
M  V30 4001 H 382.963 3.60297 -2.41595 0
M  V30 4002 H 383.634 5.16677 -1.94291 0
M  V30 4003 H 386.11 4.14971 -0.306314 0
M  V30 4004 H 384.986 5.48885 0.0401675 0
M  V30 4005 H 385.247 4.24102 1.24859 0
M  V30 4006 N 384.306 0.507319 1.49211 0
M  V30 4007 C 385.554 -0.0348839 2.0207 0
M  V30 4008 C 385.875 -1.36898 1.38866 0
M  V30 4009 O 385.145 -1.88133 0.546151 0
M  V30 4010 H 383.725 -0.0158812 0.746831 0
M  V30 4011 H 386.387 0.665998 1.83168 0
M  V30 4012 H 385.483 -0.159917 3.1169 0
M  V30 4013 N 385.784 -1.5574 0.241426 0
M  V30 4014 C 387.009 -2.0366 -0.392111 0
M  V30 4015 C 387.434 -1.11969 -1.51144 0
M  V30 4016 O 386.792 -0.111594 -1.80956 0
M  V30 4017 C 386.84 -3.49638 -0.882371 0
M  V30 4018 O 385.944 -3.6108 -1.99235 0
M  V30 4019 H 385.285 -0.658379 -0.0862122 0
M  V30 4020 H 387.815 -2.01302 0.365881 0
M  V30 4021 H 387.825 -3.90351 -1.18702 0
M  V30 4022 H 386.5 -4.15852 -0.0632361 0
M  V30 4023 H 385.077 -3.32262 -1.69282 0
M  V30 4024 N 387.262 0.0317525 -1.57568 0
M  V30 4025 C 388.21 1.05165 -2.07468 0
M  V30 4026 C 389.204 1.3761 -0.98792 0
M  V30 4027 O 390.41 1.36546 -1.17282 0
M  V30 4028 H 386.785 0.35666 -0.66204 0
M  V30 4029 H 388.756 0.604958 -2.92203 0
M  V30 4030 C 387.505 2.34488 -2.56731 0
M  V30 4031 H 386.828 2.10383 -3.39969 0
M  V30 4032 H 388.268 3.04203 -2.95358 0
M  V30 4033 C 386.727 3.03266 -1.46736 0
M  V30 4034 O 387.257 3.92988 -0.832069 0
M  V30 4035 N 385.463 2.6455 -1.20256 0
M  V30 4036 H 385.01 1.91674 -1.72102 0
M  V30 4037 H 384.968 3.10886 -0.468737 0
M  V30 4038 N 388.74 1.54641 0.303973 0
M  V30 4039 C 389.687 1.85386 1.37479 0
M  V30 4040 C 390.657 0.702528 1.50512 0
M  V30 4041 O 391.842 0.950867 1.65418 0
M  V30 4042 C 388.982 2.10413 2.73533 0
M  V30 4043 C 388.095 3.38049 2.68974 0
M  V30 4044 C 387.23 3.52934 3.97002 0
M  V30 4045 C 386.269 4.74373 3.86829 0
M  V30 4046 N 385.406 4.8608 5.06627 0
M  V30 4047 H 390.246 2.76732 1.1056 0
M  V30 4048 H 387.783 1.37034 0.534805 0
M  V30 4049 H 389.741 2.22919 3.52652 0
M  V30 4050 H 388.371 1.22338 2.98719 0
M  V30 4051 H 387.423 3.3418 1.81736 0
M  V30 4052 H 388.735 4.27288 2.57346 0
M  V30 4053 H 387.889 3.65088 4.84557 0
M  V30 4054 H 386.628 2.61824 4.1146 0
M  V30 4055 H 385.633 4.62255 2.97658 0
M  V30 4056 H 386.858 5.66888 3.73918 0
M  V30 4057 H 384.804 3.97891 5.21554 0
M  V30 4058 H 384.721 5.69315 4.9741 0
M  V30 4059 H 385.989 5.02587 5.95841 0
M  V30 4060 N 390.218 -0.567019 1.47046 0
M  V30 4061 C 391.181 -1.65696 1.58359 0
M  V30 4062 C 392.181 -1.54097 0.459441 0
M  V30 4063 O 393.371 -1.58432 0.724225 0
M  V30 4064 C 390.503 -3.05197 1.51879 0
M  V30 4065 H 391.696 -1.57019 2.5551 0
M  V30 4066 H 389.249 -0.786148 1.3509 0
M  V30 4067 H 389.984 -3.19417 0.560673 0
M  V30 4068 H 389.769 -3.15025 2.33455 0
M  V30 4069 H 391.259 -3.84511 1.62913 0
M  V30 4070 N 391.696 -1.35014 -0.812953 0
M  V30 4071 C 392.944 -1.27678 -1.56661 0
M  V30 4072 C 393.265 0.150359 -1.94419 0
M  V30 4073 O 392.535 1.08532 -1.63088 0
M  V30 4074 H 391.115 -0.469602 -0.580933 0
M  V30 4075 H 393.777 -1.69043 -0.970076 0
M  V30 4076 H 392.873 -1.88833 -2.48492 0
M  V30 4077 N 393.175 1.03435 -1.18907 0
M  V30 4078 C 394.085 2.15075 -0.937015 0
M  V30 4079 C 395.101 1.73706 0.101085 0
M  V30 4080 O 396.277 2.01232 -0.0822948 0
M  V30 4081 C 393.342 3.43458 -0.473057 0
M  V30 4082 C 392.403 3.99172 -1.57989 0
M  V30 4083 C 391.636 5.21427 -1.13797 0
M  V30 4084 O 391.859 5.704 0.000725941 0
M  V30 4085 O 390.793 5.69837 -1.9383 0
M  V30 4086 H 394.619 2.39198 -1.87131 0
M  V30 4087 H 392.204 1.13506 -0.971427 0
M  V30 4088 H 394.086 4.20811 -0.222702 0
M  V30 4089 H 392.761 3.20793 0.432869 0
M  V30 4090 H 391.668 3.23178 -1.88433 0
M  V30 4091 H 393.001 4.2619 -2.46217 0
M  V30 4092 N 394.653 0.992116 1.22453 0
M  V30 4093 C 395.883 0.684949 1.94915 0
M  V30 4094 C 396.291 -0.754292 1.73514 0
M  V30 4095 O 395.634 -1.52056 1.03076 0
M  V30 4096 C 395.696 0.910054 3.47791 0
M  V30 4097 C 395.36 2.33363 3.92926 0
M  V30 4098 C 396.357 3.31308 4.00663 0
M  V30 4099 C 394.042 2.66785 4.25595 0
M  V30 4100 C 396.036 4.6075 4.40441 0
M  V30 4101 C 393.723 3.96446 4.65053 0
M  V30 4102 C 394.721 4.9324 4.72444 0
M  V30 4103 O 394.409 6.20584 5.1101 0
M  V30 4104 H 394.141 0.25258 0.62704 0
M  V30 4105 H 396.695 1.32939 1.56577 0
M  V30 4106 H 394.925 0.208443 3.86138 0
M  V30 4107 H 396.614 0.598257 4.01467 0
M  V30 4108 H 397.38 3.0682 3.75615 0
M  V30 4109 H 393.259 1.92148 4.19047 0
M  V30 4110 H 396.803 5.363 4.46126 0
M  V30 4111 H 392.7 4.20724 4.89552 0
M  V30 4112 H 393.468 6.24509 5.29085 0
M  V30 4113 N 396.131 -1.37776 0.765217 0
M  V30 4114 C 397.38 -1.99092 0.323307 0
M  V30 4115 C 397.693 -1.61434 -1.10446 0
M  V30 4116 O 398.899 -2.15805 -1.64743 0
M  V30 4117 C 397.355 -3.56019 0.527098 0
M  V30 4118 C 396.963 -4.0262 1.96471 0
M  V30 4119 C 398.707 -4.2424 0.148483 0
M  V30 4120 C 396.614 -5.52233 2.11644 0
M  V30 4121 H 395.544 -0.744846 0.117137 0
M  V30 4122 H 398.195 -1.57391 0.943417 0
M  V30 4123 H 396.577 -3.95667 -0.162372 0
M  V30 4124 H 397.751 -3.74234 2.68859 0
M  V30 4125 H 396.066 -3.47161 2.29931 0
M  V30 4126 H 398.663 -5.34159 0.240456 0
M  V30 4127 H 399.006 -4.06446 -0.900422 0
M  V30 4128 H 399.539 -3.89872 0.79025 0
M  V30 4129 H 396.278 -5.74945 3.1483 0
M  V30 4130 H 395.798 -5.82324 1.4373 0
M  V30 4131 H 397.477 -6.18106 1.91193 0
M  V30 4132 N 397.609 -0.515225 -1.4894 0
M  V30 4133 C 398.856 0.024215 -2.02486 0
M  V30 4134 C 399.184 1.35671 -1.39368 0
M  V30 4135 O 398.439 1.88566 -0.523574 0
M  V30 4136 C 398.738 0.210595 -3.56779 0
M  V30 4137 C 398.404 -1.04569 -4.38607 0
M  V30 4138 C 397.066 -1.39002 -4.60686 0
M  V30 4139 C 399.418 -1.88008 -4.86109 0
M  V30 4140 C 396.746 -2.568 -5.27514 0
M  V30 4141 C 399.098 -3.04972 -5.54234 0
M  V30 4142 C 397.762 -3.39768 -5.74555 0
M  V30 4143 H 397.032 0.00886088 -0.740947 0
M  V30 4144 H 399.679 -0.678263 -1.79086 0
M  V30 4145 H 397.984 0.99572 -3.78936 0
M  V30 4146 H 399.681 0.642659 -3.95817 0
M  V30 4147 H 396.271 -0.767497 -4.21672 0
M  V30 4148 H 400.455 -1.62719 -4.68867 0
M  V30 4149 H 395.711 -2.8398 -5.41447 0
M  V30 4150 H 399.885 -3.69943 -5.90013 0
M  V30 4151 H 397.512 -4.31148 -6.26112 0
M  V30 4152 N 399.087 1.5561 -0.249682 0
M  V30 4153 C 399.997 2.25143 0.659375 0
M  V30 4154 C 401.013 1.2685 1.19101 0
M  V30 4155 O 402.189 1.59732 1.22669 0
M  V30 4156 C 399.254 2.93945 1.8384 0
M  V30 4157 C 398.315 4.07655 1.34596 0
M  V30 4158 C 397.548 4.73167 2.46878 0
M  V30 4159 O 397.771 4.37768 3.65671 0
M  V30 4160 O 396.705 5.61623 2.16478 0
M  V30 4161 H 400.531 3.03545 0.0968698 0
M  V30 4162 H 398.116 1.49389 -0.018074 0
M  V30 4163 H 399.998 3.37271 2.52638 0
M  V30 4164 H 398.673 2.18481 2.38847 0
M  V30 4165 H 397.58 3.68839 0.625174 0
M  V30 4166 H 398.913 4.84946 0.841941 0
M  V30 4167 N 400.565 -0.0233959 1.57583 0
M  V30 4168 C 401.981 -0.379134 1.55031 0
M  V30 4169 C 402.181 -1.76255 0.976548 0
M  V30 4170 O 401.237 -2.45266 0.600078 0
M  V30 4171 C 402.55 -0.275792 2.99433 0
M  V30 4172 C 404.098 -0.352458 3.11009 0
M  V30 4173 C 404.573 -0.278501 4.57152 0
M  V30 4174 N 406.064 -0.337123 4.61972 0
M  V30 4175 C 406.799 -0.302876 5.726 0
M  V30 4176 N 406.295 -0.220589 6.92449 0
M  V30 4177 N 408.088 -0.353023 5.6099 0
M  V30 4178 H 400.239 0.881869 1.93227 0
M  V30 4179 H 402.502 0.335867 0.886509 0
M  V30 4180 H 402.208 0.675108 3.4516 0
M  V30 4181 H 402.082 -1.06721 3.61788 0
M  V30 4182 H 404.469 -1.29379 2.65226 0
M  V30 4183 H 404.55 0.468409 2.51475 0
M  V30 4184 H 404.194 0.659189 5.03604 0
M  V30 4185 H 404.124 -1.11755 5.14605 0
M  V30 4186 H 406.615 -0.403002 3.75745 0
M  V30 4187 H 406.928 -0.199713 7.72542 0
M  V30 4188 H 405.273 -0.186555 6.9475 0
M  V30 4189 H 408.464 -0.415339 4.66254 0
M  V30 4190 H 408.637 -0.322866 6.47195 0
M  V30 4191 N 402.043 -1.548 -0.295768 0
M  V30 4192 C 403.291 -1.73985 -1.02828 0
M  V30 4193 C 403.612 -0.531406 -1.87619 0
M  V30 4194 O 402.882 0.454221 -1.90561 0
M  V30 4195 H 401.462 -0.641556 -0.382642 0
M  V30 4196 H 404.124 -1.92163 -0.325489 0
M  V30 4197 H 403.22 -2.63129 -1.67838 0
M  V30 4198 N 403.521 0.559213 -1.47345 0
M  V30 4199 C 404.746 1.34676 -1.57725 0
M  V30 4200 C 405.171 1.86723 -0.227164 0
M  V30 4201 O 404.529 1.6286 0.796642 0
M  V30 4202 C 404.577 2.49399 -2.60447 0
M  V30 4203 O 403.681 3.51567 -2.15578 0
M  V30 4204 H 403.022 0.400115 -0.52991 0
M  V30 4205 H 405.552 0.676009 -1.93109 0
M  V30 4206 H 405.562 2.95996 -2.80803 0
M  V30 4207 H 404.237 2.10873 -3.58477 0
M  V30 4208 H 402.814 3.11289 -2.05313 0
M  V30 4209 N 404.999 1.35443 0.805782 0
M  V30 4210 C 406.415 1.15499 1.10146 0
M  V30 4211 C 406.615 -0.0319975 2.01475 0
M  V30 4212 O 405.671 -0.70236 2.42535 0
M  V30 4213 C 406.984 2.45833 1.73166 0
M  V30 4214 C 408.532 2.52047 1.85583 0
M  V30 4215 C 409.007 3.82427 2.52019 0
M  V30 4216 N 410.498 3.83682 2.59504 0
M  V30 4217 C 411.233 4.81294 3.11679 0
M  V30 4218 N 410.729 5.89294 3.64287 0
M  V30 4219 N 412.522 4.6873 3.1024 0
M  V30 4220 H 404.673 2.11469 0.198678 0
M  V30 4221 H 406.936 0.93594 0.150731 0
M  V30 4222 H 406.642 3.32874 1.13526 0
M  V30 4223 H 406.516 2.6044 2.72857 0
M  V30 4224 H 408.903 1.65435 2.44367 0
M  V30 4225 H 408.984 2.41354 0.847455 0
M  V30 4226 H 408.628 4.69437 1.93885 0
M  V30 4227 H 408.558 3.90409 3.53395 0
M  V30 4228 H 411.049 3.05648 2.22234 0
M  V30 4229 H 411.362 6.59768 4.02401 0
M  V30 4230 H 409.707 5.92985 3.62483 0
M  V30 4231 H 412.898 3.83496 2.68419 0
M  V30 4232 H 413.071 5.44965 3.50596 0
M  V30 4233 N 406.477 -1.02803 1.19454 0
M  V30 4234 C 407.427 -2.0945 0.900827 0
M  V30 4235 C 408.411 -1.60335 -0.134715 0
M  V30 4236 O 409.603 -1.76857 0.0710924 0
M  V30 4237 C 406.732 -3.4044 0.442229 0
M  V30 4238 C 405.818 -3.96286 1.51056 0
M  V30 4239 N 406.209 -4.25785 2.73021 0
M  V30 4240 C 404.507 -4.24307 1.37404 0
M  V30 4241 C 405.208 -4.70654 3.41848 0
M  V30 4242 N 404.184 -4.72238 2.69243 0
M  V30 4243 H 407.986 -2.3015 1.82779 0
M  V30 4244 H 405.5 -1.20672 1.08683 0
M  V30 4245 H 407.497 -4.16354 0.21326 0
M  V30 4246 H 406.157 -3.21159 -0.478238 0
M  V30 4247 H 407.168 -4.15041 3.09776 0
M  V30 4248 H 403.845 -4.14285 0.517103 0
M  V30 4249 H 405.235 -5.02392 4.46152 0
M  V30 4250 N 407.956 -0.998596 -1.21925 0
M  V30 4251 C 409.204 -0.676325 -1.90448 0
M  V30 4252 C 409.525 0.794719 -1.78071 0
M  V30 4253 O 408.795 1.5701 -1.17152 0
M  V30 4254 H 407.375 -0.247165 -0.704925 0
M  V30 4255 H 410.037 -1.26633 -1.48156 0
M  V30 4256 H 409.133 -0.943858 -2.97486 0
M  V30 4257 N 409.434 1.37368 -0.772513 0
M  V30 4258 C 410.381 2.30262 -0.157488 0
M  V30 4259 C 411.351 1.51137 0.688965 0
M  V30 4260 O 412.536 1.79704 0.641168 0
M  V30 4261 C 409.676 3.37611 0.715045 0
M  V30 4262 C 408.789 4.31746 -0.148098 0
M  V30 4263 C 407.924 5.26171 0.729213 0
M  V30 4264 C 406.963 6.11948 -0.136418 0
M  V30 4265 N 406.1 6.98613 0.698914 0
M  V30 4266 H 410.94 2.82277 -0.955179 0
M  V30 4267 H 408.477 1.38957 -0.482631 0
M  V30 4268 H 410.435 3.98479 1.23575 0
M  V30 4269 H 409.065 2.86959 1.47833 0
M  V30 4270 H 408.117 3.72178 -0.786613 0
M  V30 4271 H 409.429 4.92084 -0.81579 0
M  V30 4272 H 408.583 5.92247 1.31637 0
M  V30 4273 H 407.322 4.66246 1.43059 0
M  V30 4274 H 406.327 5.4485 -0.736102 0
M  V30 4275 H 407.552 6.73945 -0.835134 0
M  V30 4276 H 405.498 6.41215 1.38489 0
M  V30 4277 H 405.415 7.55948 0.0885358 0
M  V30 4278 H 406.683 7.69077 1.27044 0
M  V30 4279 N 410.912 0.523116 1.48665 0
M  V30 4280 C 412.328 0.180511 1.58576 0
M  V30 4281 C 412.528 -1.31597 1.52592 0
M  V30 4282 O 411.584 -2.0937 1.4114 0
M  V30 4283 C 412.897 0.776949 2.90489 0
M  V30 4284 C 414.445 0.745058 3.04003 0
M  V30 4285 C 414.92 1.31995 4.38567 0
M  V30 4286 N 416.411 1.28162 4.45117 0
M  V30 4287 C 417.146 1.6964 5.47731 0
M  V30 4288 N 416.642 2.18816 6.57337 0
M  V30 4289 N 418.435 1.6092 5.38573 0
M  V30 4290 H 410.586 1.4958 1.50797 0
M  V30 4291 H 412.849 0.621772 0.715614 0
M  V30 4292 H 412.555 1.82732 3.00503 0
M  V30 4293 H 412.429 0.25007 3.7637 0
M  V30 4294 H 414.816 -0.296532 2.93606 0
M  V30 4295 H 414.897 1.30933 2.1975 0
M  V30 4296 H 414.541 2.36043 4.49718 0
M  V30 4297 H 414.471 0.731418 5.21496 0
M  V30 4298 H 416.962 0.92155 3.66491 0
M  V30 4299 H 417.275 2.48478 7.31764 0
M  V30 4300 H 415.62 2.22805 6.58318 0
M  V30 4301 H 418.811 1.22304 4.5184 0
M  V30 4302 H 418.984 1.93567 6.18414 0
M  V30 4303 N 412.39 -1.55475 0.257931 0
M  V30 4304 C 413.636 -1.99502 -0.364266 0
M  V30 4305 C 413.969 -1.146 -1.56782 0
M  V30 4306 O 413.244 -0.211968 -1.93342 0
M  V30 4307 C 413.527 -3.51917 -0.763333 0
M  V30 4308 C 413.38 -4.4758 0.446371 0
M  V30 4309 C 414.699 -4.09742 -1.60623 0
M  V30 4310 H 411.818 -0.725277 -0.130929 0
M  V30 4311 H 414.46 -1.8653 0.361446 0
M  V30 4312 H 412.61 -3.63101 -1.38166 0
M  V30 4313 H 414.282 -4.48362 1.08487 0
M  V30 4314 H 412.525 -4.19947 1.08753 0
M  V30 4315 H 413.196 -5.51862 0.123645 0
M  V30 4316 H 415.672 -4.01727 -1.08418 0
M  V30 4317 H 414.548 -5.16631 -1.85429 0
M  V30 4318 H 414.809 -3.58889 -2.58169 0
M  V30 4319 N 413.868 0.0150385 -1.57593 0
M  V30 4320 C 414.8 1.03912 -2.04291 0
M  V30 4321 C 415.813 1.31618 -0.958146 0
M  V30 4322 O 417.002 1.28859 -1.23522 0
M  V30 4323 C 414.102 2.37749 -2.41514 0
M  V30 4324 C 413.275 2.29198 -3.72541 0
M  V30 4325 C 412.334 3.45598 -3.96797 0
M  V30 4326 O 411.36 3.24461 -4.67668 0
M  V30 4327 N 412.562 4.67945 -3.43523 0
M  V30 4328 H 415.327 0.64099 -2.92765 0
M  V30 4329 H 412.888 0.20272 -1.60626 0
M  V30 4330 H 414.88 3.14364 -2.54867 0
M  V30 4331 H 413.45 2.69357 -1.58637 0
M  V30 4332 H 412.67 1.3759 -3.69408 0
M  V30 4333 H 413.958 2.20642 -4.5847 0
M  V30 4334 H 413.356 4.88017 -2.86104 0
M  V30 4335 H 411.913 5.41878 -3.62232 0
M  V30 4336 N 415.346 1.54954 0.287554 0
M  V30 4337 C 416.309 1.86076 1.33823 0
M  V30 4338 C 417.309 0.734414 1.43049 0
M  V30 4339 O 418.499 1.00266 1.42452 0
M  V30 4340 C 415.631 2.05305 2.72144 0
M  V30 4341 H 416.824 2.79984 1.07465 0
M  V30 4342 H 414.377 1.47223 0.524902 0
M  V30 4343 H 415.112 1.1373 3.03704 0
M  V30 4344 H 414.897 2.873 2.66836 0
M  V30 4345 H 416.387 2.30706 3.48087 0
M  V30 4346 N 416.824 -0.551391 1.4764 0
M  V30 4347 C 417.772 -1.67896 1.60978 0
M  V30 4348 C 418.766 -1.62549 0.476877 0
M  V30 4349 O 419.972 -1.67664 0.654878 0
M  V30 4350 H 416.347 -0.555649 0.506713 0
M  V30 4351 H 418.318 -1.53784 2.55721 0
M  V30 4352 C 417.067 -3.06234 1.64669 0
M  V30 4353 H 416.39 -3.11033 2.51194 0
M  V30 4354 H 417.83 -3.84804 1.7805 0
M  V30 4355 C 416.289 -3.34737 0.381115 0
M  V30 4356 O 416.819 -3.98381 -0.515297 0
M  V30 4357 N 415.025 -2.8944 0.259354 0
M  V30 4358 H 414.572 -2.37827 0.98976 0
M  V30 4359 H 414.53 -3.08882 -0.586464 0
M  V30 4360 N 418.302 -1.35869 -0.798587 0
M  V30 4361 C 419.235 -1.23801 -1.91699 0
M  V30 4362 C 420.213 -0.124143 -1.62125 0
M  V30 4363 O 421.397 -0.293656 -1.86199 0
M  V30 4364 C 418.524 -0.908063 -3.263 0
M  V30 4365 C 417.57 -2.0351 -3.74815 0
M  V30 4366 S 418.403 -3.65183 -3.91665 0
M  V30 4367 C 419.559 -3.34283 -5.29156 0
M  V30 4368 H 419.792 -2.18466 -2.01643 0
M  V30 4369 H 417.325 -1.21178 -0.956833 0
M  V30 4370 H 419.283 -0.724506 -4.04056 0
M  V30 4371 H 417.944 0.0206584 -3.14093 0
M  V30 4372 H 417.137 -1.75858 -4.72324 0
M  V30 4373 H 416.739 -2.1774 -3.04081 0
M  V30 4374 H 419.031 -2.87607 -6.13424 0
M  V30 4375 H 419.974 -4.31022 -5.61806 0
M  V30 4376 H 420.382 -2.69854 -4.95822 0
M  V30 4377 N 419.78 1.02168 -1.19998 0
M  V30 4378 C 421.028 1.75338 -1.00504 0
M  V30 4379 C 421.349 1.89387 0.464506 0
M  V30 4380 O 420.619 1.43268 1.33608 0
M  V30 4381 H 419.199 0.649564 -0.368885 0
M  V30 4382 H 421.861 1.23205 -1.51018 0
M  V30 4383 H 420.957 2.75892 -1.45912 0
M  V30 4384 N 421.258 1.00505 1.21394 0
M  V30 4385 C 422.221 0.570459 2.21987 0
M  V30 4386 C 423.221 -0.353211 1.56873 0
M  V30 4387 O 424.411 -0.14349 1.73608 0
M  V30 4388 C 421.543 -0.168555 3.40483 0
M  V30 4389 H 422.736 1.46021 2.6195 0
M  V30 4390 H 420.289 0.793565 1.34656 0
M  V30 4391 H 421.024 -1.07374 3.06009 0
M  V30 4392 H 420.809 0.494823 3.88965 0
M  V30 4393 H 422.299 -0.460362 4.15055 0
M  V30 4394 N 422.737 -1.36956 0.779787 0
M  V30 4395 C 423.684 -2.30175 0.169697 0
M  V30 4396 C 424.654 -1.51501 -0.68094 0
M  V30 4397 O 425.839 -1.80042 -0.631629 0
M  V30 4398 C 422.979 -3.37985 -0.697131 0
M  V30 4399 C 422.092 -4.31661 0.170992 0
M  V30 4400 C 421.227 -5.2655 -0.701298 0
M  V30 4401 C 420.266 -6.11867 0.168869 0
M  V30 4402 N 419.403 -6.98973 -0.661855 0
M  V30 4403 H 424.243 -2.81767 0.970135 0
M  V30 4404 H 421.78 -1.38699 0.489994 0
M  V30 4405 H 423.738 -3.99128 -1.2146 0
M  V30 4406 H 422.368 -2.87739 -1.46309 0
M  V30 4407 H 421.42 -3.71756 0.80634 0
M  V30 4408 H 422.732 -4.91644 0.841875 0
M  V30 4409 H 421.886 -5.92937 -1.28494 0
M  V30 4410 H 420.625 -4.66998 -1.40584 0
M  V30 4411 H 419.63 -5.44452 0.764986 0
M  V30 4412 H 420.855 -6.73493 0.870863 0
M  V30 4413 H 418.801 -6.41941 -1.35086 0
M  V30 4414 H 418.718 -7.55984 -0.0484447 0
M  V30 4415 H 419.986 -7.6974 -1.22963 0
M  V30 4416 N 424.215 -0.530993 -1.48385 0
M  V30 4417 C 425.163 0.244595 -2.3131 0
M  V30 4418 C 426.157 0.93451 -1.41291 0
M  V30 4419 O 427.363 0.85878 -1.58193 0
M  V30 4420 H 423.738 0.0977472 -0.74562 0
M  V30 4421 H 425.709 -0.474369 -2.94605 0
M  V30 4422 C 424.458 1.2779 -3.23365 0
M  V30 4423 H 423.781 0.756439 -3.92579 0
M  V30 4424 H 425.221 1.79198 -3.84271 0
M  V30 4425 C 423.68 2.31205 -2.45042 0
M  V30 4426 O 424.21 3.37661 -2.17596 0
M  V30 4427 N 422.416 2.04446 -2.0652 0
M  V30 4428 H 421.963 1.17891 -2.2904 0
M  V30 4429 H 421.921 2.73861 -1.54427 0
M  V30 4430 N 425.693 1.55336 -0.266172 0
M  V30 4431 C 426.643 2.18848 0.639497 0
M  V30 4432 C 427.627 1.1503 1.12503 0
M  V30 4433 O 428.819 1.40875 1.0716 0
M  V30 4434 C 425.948 2.90626 1.82733 0
M  V30 4435 C 425.034 4.01723 1.35939 0
M  V30 4436 N 425.425 5.02145 0.606988 0
M  V30 4437 C 423.723 4.1463 1.6431 0
M  V30 4438 C 424.424 5.80572 0.362138 0
M  V30 4439 N 423.4 5.35551 0.931971 0
M  V30 4440 H 427.202 2.93845 0.0567057 0
M  V30 4441 H 424.716 1.62252 -0.0693312 0
M  V30 4442 H 426.713 3.34569 2.48735 0
M  V30 4443 H 425.373 2.17137 2.41416 0
M  V30 4444 H 426.384 5.17271 0.255198 0
M  V30 4445 H 423.061 3.52326 2.23993 0
M  V30 4446 H 424.451 6.71472 -0.239848 0
M  V30 4447 N 427.171 -0.0066808 1.57599 0
M  V30 4448 C 428.419 -0.691552 1.899 0
M  V30 4449 C 428.74 -1.74682 0.866672 0
M  V30 4450 O 428.01 -1.95661 -0.0968189 0
M  V30 4451 H 426.59 -0.258416 0.700878 0
M  V30 4452 H 429.252 0.0326655 1.94873 0
M  V30 4453 H 428.348 -1.16702 2.8946 0
M  V30 4454 N 428.649 -1.55105 -0.279332 0
M  V30 4455 C 429.895 -1.75672 -1.01327 0
M  V30 4456 C 430.228 -0.552739 -1.86168 0
M  V30 4457 O 429.503 0.449827 -1.89227 0
M  V30 4458 C 429.786 -3.05825 -1.90114 0
M  V30 4459 C 429.639 -4.36565 -1.08309 0
M  V30 4460 C 430.958 -3.31975 -2.8893 0
M  V30 4461 H 428.077 -0.639149 -0.366957 0
M  V30 4462 H 430.719 -1.87833 -0.286154 0
M  V30 4463 H 428.869 -2.95588 -2.52111 0
M  V30 4464 H 430.541 -4.58751 -0.484314 0
M  V30 4465 H 428.784 -4.32076 -0.386362 0
M  V30 4466 H 429.455 -5.23946 -1.73737 0
M  V30 4467 H 431.931 -3.41963 -2.37067 0
M  V30 4468 H 430.807 -4.2432 -3.48201 0
M  V30 4469 H 431.068 -2.51309 -3.63725 0
M  V30 4470 N 430.127 0.543554 -1.4793 0
M  V30 4471 C 431.373 1.30201 -1.55485 0
M  V30 4472 C 431.706 1.92925 -0.222201 0
M  V30 4473 O 430.981 1.78586 0.77053 0
M  V30 4474 C 431.264 2.40174 -2.68307 0
M  V30 4475 C 431.117 1.8223 -4.11233 0
M  V30 4476 C 432.436 3.42024 -2.76961 0
M  V30 4477 H 429.555 0.472036 -0.565996 0
M  V30 4478 H 432.197 0.606914 -1.80046 0
M  V30 4479 H 430.347 2.99463 -2.47495 0
M  V30 4480 H 432.019 1.27096 -4.43446 0
M  V30 4481 H 430.262 1.12832 -4.18869 0
M  V30 4482 H 430.933 2.61793 -4.85972 0
M  V30 4483 H 433.409 2.92672 -2.95774 0
M  V30 4484 H 432.285 4.16383 -3.57654 0
M  V30 4485 H 432.546 4.0173 -1.84568 0
M  V30 4486 N 431.605 1.3629 0.791371 0
M  V30 4487 C 432.538 1.24816 1.9104 0
M  V30 4488 C 433.516 0.132739 1.62057 0
M  V30 4489 O 434.7 0.303527 1.8604 0
M  V30 4490 C 431.827 0.925355 3.25814 0
M  V30 4491 C 430.873 2.05495 3.7373 0
M  V30 4492 S 431.706 3.67255 3.89723 0
M  V30 4493 C 432.862 3.37084 5.27376 0
M  V30 4494 H 433.095 2.19533 2.00481 0
M  V30 4495 H 430.628 1.21684 0.950393 0
M  V30 4496 H 432.586 0.745924 4.03666 0
M  V30 4497 H 431.247 -0.00400098 3.141 0
M  V30 4498 H 430.44 1.7836 4.71385 0
M  V30 4499 H 430.042 2.1935 3.02922 0
M  V30 4500 H 432.334 2.90856 6.1189 0
M  V30 4501 H 433.277 4.33995 5.59512 0
M  V30 4502 H 433.685 2.7248 4.94383 0
M  V30 4503 N 433.083 -1.0153 1.20538 0
M  V30 4504 C 434.494 -1.56598 1.01657 0
M  V30 4505 C 434.845 -1.91505 -0.426668 0
M  V30 4506 O 433.97 -1.72375 -1.30827 0
M  V30 4507 C 434.565 -2.84542 1.83905 0
M  V30 4508 C 433.124 -3.36133 1.69386 0
M  V30 4509 C 432.271 -2.09427 1.81757 0
M  V30 4510 H 435.222 -0.838974 1.34711 0
M  V30 4511 H 435.243 -3.56004 1.34319 0
M  V30 4512 H 434.755 -2.59105 2.8894 0
M  V30 4513 H 432.856 -3.66528 0.669933 0
M  V30 4514 H 432.969 -4.08248 2.50739 0
M  V30 4515 H 431.333 -2.21941 1.24957 0
M  V30 4516 H 432.116 -1.86414 2.88279 0
M  V30 4517 N 434.561 -1.01147 -1.20859 0
M  V30 4518 C 435.838 -0.613136 -1.85742 0
M  V30 4519 C 436.218 0.909004 -1.90526 0
M  V30 4520 O 435.566 1.79862 -1.40932 0
M  V30 4521 C 435.776 -1.255 -3.25654 0
M  V30 4522 C 437.124 -1.3672 -4.01986 0
M  V30 4523 O 438.148 -1.21082 -3.34989 0
M  V30 4524 O 437.007 -1.6194 -5.21956 0
M  V30 4525 H 434.101 -0.210878 -0.799662 0
M  V30 4526 H 436.647 -1.10853 -1.2849 0
M  V30 4527 H 435.419 -2.29532 -3.16908 0
M  V30 4528 H 435.042 -0.746369 -3.90532 0
M  V30 4529 N 436.039 1.36541 -0.78704 0
M  V30 4530 C 437.002 2.28413 -0.189778 0
M  V30 4531 C 438.002 1.48719 0.611499 0
M  V30 4532 O 439.192 1.68737 0.432842 0
M  V30 4533 C 436.324 3.32824 0.737638 0
M  V30 4534 H 437.517 2.82743 -0.999831 0
M  V30 4535 H 435.07 1.46065 -0.556298 0
M  V30 4536 H 435.805 2.83646 1.57212 0
M  V30 4537 H 435.59 3.91752 0.165044 0
M  V30 4538 H 437.08 4.0144 1.15047 0
M  V30 4539 N 437.518 0.538854 1.48102 0
M  V30 4540 C 438.466 -0.232325 2.31437 0
M  V30 4541 C 439.46 -0.927004 1.41785 0
M  V30 4542 O 440.666 -0.850378 1.58646 0
M  V30 4543 H 437.041 -0.0937916 0.746128 0
M  V30 4544 H 439.012 0.489986 2.9435 0
M  V30 4545 C 437.761 -1.26074 3.24038 0
M  V30 4546 H 437.084 -0.735609 3.92974 0
M  V30 4547 H 438.524 -1.77157 3.85216 0
M  V30 4548 C 436.983 -2.29902 2.46265 0
M  V30 4549 O 437.513 -3.36502 2.19384 0
M  V30 4550 N 435.719 -2.03348 2.07601 0
M  V30 4551 H 435.266 -1.16675 2.29662 0
M  V30 4552 H 435.224 -2.73038 1.55877 0
M  V30 4553 N 438.996 -1.55193 0.274407 0
M  V30 4554 C 439.943 -2.225 -0.613374 0
M  V30 4555 C 440.913 -1.19823 -1.15029 0
M  V30 4556 O 442.098 -1.48362 -1.19973 0
M  V30 4557 C 439.238 -2.94927 -1.79199 0
M  V30 4558 C 438.351 -4.12322 -1.28899 0
M  V30 4559 C 437.486 -4.72394 -2.42934 0
M  V30 4560 C 436.525 -5.81984 -1.89634 0
M  V30 4561 N 435.662 -6.36123 -2.9714 0
M  V30 4562 H 440.502 -2.97982 -0.032756 0
M  V30 4563 H 438.039 -1.47099 -0.00440146 0
M  V30 4564 H 439.997 -3.35134 -2.48478 0
M  V30 4565 H 438.627 -2.2187 -2.34465 0
M  V30 4566 H 437.679 -3.7724 -0.489327 0
M  V30 4567 H 438.991 -4.91355 -0.858587 0
M  V30 4568 H 438.145 -5.15317 -3.20208 0
M  V30 4569 H 436.884 -3.92636 -2.8929 0
M  V30 4570 H 435.889 -5.38511 -1.1084 0
M  V30 4571 H 437.114 -6.6361 -1.44215 0
M  V30 4572 H 435.06 -5.59259 -3.42878 0
M  V30 4573 H 434.977 -7.10427 -2.58515 0
M  V30 4574 H 436.245 -6.83704 -3.74391 0
M  V30 4575 N 440.474 -0.00167713 -1.576 0
M  V30 4576 C 441.384 1.00548 -2.1196 0
M  V30 4577 C 442.4 1.3758 -1.06526 0
M  V30 4578 O 443.576 1.46278 -1.38436 0
M  V30 4579 C 440.641 2.27809 -2.6135 0
M  V30 4580 C 439.702 1.97074 -3.81393 0
M  V30 4581 C 438.935 3.18267 -4.28417 0
M  V30 4582 O 439.158 4.30009 -3.74765 0
M  V30 4583 O 438.092 3.02167 -5.20556 0
M  V30 4584 H 441.918 0.573373 -2.98238 0
M  V30 4585 H 439.503 0.217255 -1.47812 0
M  V30 4586 H 441.385 3.02568 -2.93309 0
M  V30 4587 H 440.06 2.70254 -1.78169 0
M  V30 4588 H 438.967 1.19785 -3.54404 0
M  V30 4589 H 440.3 1.59464 -4.65652 0
M  V30 4590 N 441.952 1.55251 0.271103 0
M  V30 4591 C 442.9 1.89054 1.35504 0
M  V30 4592 C 443.894 0.767064 1.51038 0
M  V30 4593 O 445.1 0.951429 1.528 0
M  V30 4594 H 441.475 0.600072 0.45323 0
M  V30 4595 H 443.446 2.79598 1.04247 0
M  V30 4596 C 442.195 2.18068 2.70817 0
M  V30 4597 H 441.518 3.04005 2.59656 0
M  V30 4598 H 442.958 2.4564 3.45597 0
M  V30 4599 C 441.417 0.988901 3.2206 0
M  V30 4600 O 441.947 0.224501 4.01072 0
M  V30 4601 N 440.153 0.786085 2.79766 0
M  V30 4602 H 439.7 1.40937 2.15626 0
M  V30 4603 H 439.658 -0.00969349 3.14399 0
M  V30 4604 N 443.43 -0.535701 1.48216 0
M  V30 4605 C 444.658 -1.31671 1.59594 0
M  V30 4606 C 445.073 -1.87083 0.254056 0
M  V30 4607 O 444.43 -1.66112 -0.755854 0
M  V30 4608 C 444.481 -2.47158 2.63809 0
M  V30 4609 O 444.202 -1.94032 3.92789 0
M  V30 4610 C 445.703 -3.39062 2.85573 0
M  V30 4611 H 442.923 -0.400623 0.538277 0
M  V30 4612 H 445.467 -0.646827 1.94001 0
M  V30 4613 H 443.622 -3.10043 2.32276 0
M  V30 4614 H 444.036 -2.69585 4.49916 0
M  V30 4615 H 445.51 -4.16459 3.62306 0
M  V30 4616 H 445.987 -3.93941 1.94184 0
M  V30 4617 H 446.593 -2.81975 3.18387 0
M  V30 4618 N 444.908 -1.36708 -0.784132 0
M  V30 4619 C 445.838 -1.34153 -1.91116 0
M  V30 4620 C 446.819 -0.212121 -1.68772 0
M  V30 4621 O 448.004 -0.410581 -1.8981 0
M  V30 4622 C 445.134 -1.13535 -3.28218 0
M  V30 4623 C 444.088 -2.23356 -3.65097 0
M  V30 4624 C 443.414 -1.87875 -5.00607 0
M  V30 4625 C 444.714 -3.65473 -3.73131 0
M  V30 4626 H 446.408 -2.28459 -1.93512 0
M  V30 4627 H 443.954 -1.09973 -0.929618 0
M  V30 4628 H 445.907 -1.10381 -4.06687 0
M  V30 4629 H 444.631 -0.156804 -3.26223 0
M  V30 4630 H 443.29 -2.25645 -2.88929 0
M  V30 4631 H 442.938 -0.885814 -4.95139 0
M  V30 4632 H 442.638 -2.61406 -5.26252 0
M  V30 4633 H 444.162 -1.86286 -5.81489 0
M  V30 4634 H 445.576 -3.65382 -4.41779 0
M  V30 4635 H 443.973 -4.37953 -4.10265 0
M  V30 4636 H 445.043 -3.99995 -2.74102 0
M  V30 4637 N 446.386 1.0089 -1.21074 0
M  V30 4638 C 447.334 2.11707 -0.963476 0
M  V30 4639 C 448.328 1.69172 0.0879032 0
M  V30 4640 O 449.534 1.79889 -0.0631415 0
M  V30 4641 H 445.909 0.692026 -0.294287 0
M  V30 4642 H 447.88 2.29743 -1.90422 0
M  V30 4643 C 446.629 3.43473 -0.540509 0
M  V30 4644 H 445.952 3.76634 -1.34114 0
M  V30 4645 H 447.392 4.22044 -0.406777 0
M  V30 4646 C 445.851 3.2849 0.748079 0
M  V30 4647 O 446.381 3.58883 1.8046 0
M  V30 4648 N 444.587 2.81715 0.713081 0
M  V30 4649 H 444.134 2.5718 -0.146973 0
M  V30 4650 H 444.092 2.72071 1.57558 0
M  V30 4651 N 447.864 1.01787 1.20321 0
M  V30 4652 C 448.796 0.547357 2.22568 0
M  V30 4653 C 449.809 -0.370922 1.58518 0
M  V30 4654 O 450.998 -0.169067 1.77698 0
M  V30 4655 C 448.098 -0.223031 3.38165 0
M  V30 4656 C 447.271 0.697472 4.31803 0
M  V30 4657 C 446.33 -0.025562 5.26194 0
M  V30 4658 O 445.356 0.597367 5.66057 0
M  V30 4659 N 446.558 -1.29999 5.65757 0
M  V30 4660 H 449.323 1.42668 2.63564 0
M  V30 4661 H 446.884 0.895552 1.34876 0
M  V30 4662 H 448.876 -0.716002 3.98316 0
M  V30 4663 H 447.446 -1.00366 2.9605 0
M  V30 4664 H 446.666 1.37073 3.69601 0
M  V30 4665 H 447.954 1.32347 4.91286 0
M  V30 4666 H 447.352 -1.827 5.35385 0
M  V30 4667 H 445.909 -1.73766 6.28211 0
M  V30 4668 N 449.342 -1.36122 0.79427 0
M  V30 4669 C 450.272 -2.32551 0.210328 0
M  V30 4670 C 451.253 -1.56884 -0.657386 0
M  V30 4671 O 452.438 -1.85014 -0.590207 0
M  V30 4672 C 449.568 -3.41128 -0.651819 0
M  V30 4673 C 448.522 -4.27842 0.116395 0
M  V30 4674 C 447.848 -5.2763 -0.86666 0
M  V30 4675 C 449.148 -5.05647 1.30837 0
M  V30 4676 H 450.842 -2.81636 1.01594 0
M  V30 4677 H 448.388 -1.35407 0.489981 0
M  V30 4678 H 450.341 -4.07581 -1.07031 0
M  V30 4679 H 449.065 -2.90622 -1.49019 0
M  V30 4680 H 447.724 -3.62952 0.515915 0
M  V30 4681 H 447.372 -4.73395 -1.70019 0
M  V30 4682 H 447.072 -5.86514 -0.35705 0
M  V30 4683 H 448.596 -5.96955 -1.28361 0
M  V30 4684 H 450.01 -5.65113 0.965393 0
M  V30 4685 H 448.407 -5.73967 1.75161 0
M  V30 4686 H 449.477 -4.37006 2.10128 0
M  V30 4687 N 450.82 -0.546701 -1.47814 0
M  V30 4688 C 452.066 -0.0187684 -2.02791 0
M  V30 4689 C 452.399 1.32338 -1.42128 0
M  V30 4690 O 451.674 1.85867 -0.573023 0
M  V30 4691 C 451.957 0.0854985 -3.59998 0
M  V30 4692 C 451.81 -1.283 -4.31114 0
M  V30 4693 C 453.129 0.80412 -4.32691 0
M  V30 4694 H 450.248 -0.0082946 -0.736953 0
M  V30 4695 H 452.89 -0.706962 -1.76358 0
M  V30 4696 H 451.04 0.671609 -3.82651 0
M  V30 4697 H 452.712 -1.91151 -4.19832 0
M  V30 4698 H 450.955 -1.86049 -3.91878 0
M  V30 4699 H 451.626 -1.16287 -5.39612 0
M  V30 4700 H 454.102 0.306576 -4.14969 0
M  V30 4701 H 452.978 0.846011 -5.42341 0
M  V30 4702 H 453.239 1.85802 -4.01161 0
M  V30 4703 N 452.299 1.55045 -0.282633 0
M  V30 4704 C 453.547 1.99365 0.331334 0
M  V30 4705 C 453.868 1.1725 1.55812 0
M  V30 4706 O 453.138 0.263871 1.94115 0
M  V30 4707 H 451.718 0.736397 0.125414 0
M  V30 4708 H 454.38 1.90964 -0.389711 0
M  V30 4709 H 453.476 3.0596 0.616036 0
M  V30 4710 N 453.777 0.010035 1.57597 0
M  V30 4711 C 454.74 -0.963029 2.07986 0
M  V30 4712 C 455.74 -1.26619 0.991173 0
M  V30 4713 O 456.93 -1.2097 1.25347 0
M  V30 4714 C 454.062 -2.2851 2.52974 0
M  V30 4715 H 455.255 -0.526971 2.95234 0
M  V30 4716 H 452.808 -0.237639 1.54483 0
M  V30 4717 H 453.543 -2.76784 1.69 0
M  V30 4718 H 453.328 -2.07824 3.32493 0
M  V30 4719 H 454.818 -2.98294 2.9225 0
M  V30 4720 N 455.255 -1.55392 -0.262866 0
M  V30 4721 C 456.218 -1.88181 -1.30846 0
M  V30 4722 C 457.218 -0.757079 -1.41862 0
M  V30 4723 O 458.408 -1.02519 -1.40838 0
M  V30 4724 C 455.54 -2.09609 -2.68844 0
M  V30 4725 H 456.733 -2.81659 -1.02997 0
M  V30 4726 H 454.286 -1.48039 -0.501414 0
M  V30 4727 H 455.021 -1.18547 -3.01856 0
M  V30 4728 H 454.806 -2.91508 -2.62231 0
M  V30 4729 H 456.296 -2.36215 -3.44372 0
M  V30 4730 N 456.733 0.527833 -1.48498 0
M  V30 4731 C 457.98 1.28354 -1.56625 0
M  V30 4732 C 458.308 1.93 -0.241096 0
M  V30 4733 O 457.563 1.79967 0.768798 0
M  V30 4734 C 457.862 2.39275 -2.65485 0
M  V30 4735 C 457.528 1.92268 -4.07853 0
M  V30 4736 C 456.19 1.79166 -4.46602 0
M  V30 4737 C 458.542 1.56771 -4.97064 0
M  V30 4738 C 455.87 1.28905 -5.72364 0
M  V30 4739 C 458.222 1.07972 -6.23318 0
M  V30 4740 C 456.886 0.934887 -6.60921 0
M  V30 4741 H 456.156 0.469682 -0.573131 0
M  V30 4742 H 458.803 0.588781 -1.82224 0
M  V30 4743 H 457.108 3.1443 -2.33754 0
M  V30 4744 H 458.805 2.974 -2.68988 0
M  V30 4745 H 455.395 2.03417 -3.77252 0
M  V30 4746 H 459.579 1.65753 -4.67803 0
M  V30 4747 H 454.835 1.16381 -6.00221 0
M  V30 4748 H 459.009 0.795775 -6.91838 0
M  V30 4749 H 456.636 0.543231 -7.58257 0
M  V30 4750 N 458.211 1.37122 0.776871 0
M  V30 4751 C 459.459 1.31787 1.53221 0
M  V30 4752 C 459.78 -0.0987589 1.9475 0
M  V30 4753 O 459.05 -1.0417 1.65908 0
M  V30 4754 H 457.63 0.484839 0.568278 0
M  V30 4755 H 460.292 1.71556 0.924917 0
M  V30 4756 H 459.388 1.95355 2.43398 0
M  V30 4757 N 459.689 -1.00246 1.21608 0
M  V30 4758 C 460.652 -2.07233 0.979133 0
M  V30 4759 C 461.652 -1.6072 -0.0508219 0
M  V30 4760 O 462.842 -1.73196 0.186712 0
M  V30 4761 C 459.974 -3.37546 0.477016 0
M  V30 4762 H 461.167 -2.29687 1.92831 0
M  V30 4763 H 458.72 -1.17261 1.03342 0
M  V30 4764 H 459.455 -3.20773 -0.476966 0
M  V30 4765 H 459.24 -3.72638 1.21997 0
M  V30 4766 H 460.73 -4.16285 0.331181 0
M  V30 4767 N 461.167 -1.02423 -1.1978 0
M  V30 4768 C 462.13 -0.605703 -2.21052 0
M  V30 4769 C 463.13 0.328209 -1.57415 0
M  V30 4770 O 464.32 0.115853 -1.73814 0
M  V30 4771 C 461.452 0.114366 -3.40708 0
M  V30 4772 H 462.645 -1.5017 -2.59594 0
M  V30 4773 H 460.198 -0.814888 -1.33376 0
M  V30 4774 H 460.933 1.02492 -3.07678 0
M  V30 4775 H 460.718 -0.556641 -3.88129 0
M  V30 4776 H 462.208 0.394272 -4.15735 0
M  V30 4777 N 462.645 1.35699 -0.801477 0
M  V30 4778 C 463.893 1.9852 -0.37871 0
M  V30 4779 C 464.214 1.63907 1.05638 0
M  V30 4780 O 463.484 0.919013 1.73006 0
M  V30 4781 H 462.064 0.734322 -0.137042 0
M  V30 4782 H 464.726 1.65697 -1.02619 0
M  V30 4783 H 463.822 3.08382 -0.480284 0
M  V30 4784 N 464.123 0.554532 1.47522 0
M  V30 4785 C 465.055 -0.232106 2.28022 0
M  V30 4786 C 466.068 -0.881865 1.36847 0
M  V30 4787 O 467.257 -0.756168 1.61692 0
M  V30 4788 C 464.357 -1.34604 3.11022 0
M  V30 4789 C 463.53 -0.793582 4.30141 0
M  V30 4790 C 462.589 -1.79168 4.94758 0
M  V30 4791 O 461.615 -1.33886 5.5323 0
M  V30 4792 N 462.817 -3.12495 4.89211 0
M  V30 4793 H 465.582 0.458407 2.96173 0
M  V30 4794 H 463.143 0.390433 1.57122 0
M  V30 4795 H 465.135 -2.01243 3.51118 0
M  V30 4796 H 463.705 -1.93983 2.45131 0
M  V30 4797 H 462.925 0.0495025 3.94169 0
M  V30 4798 H 464.213 -0.403776 5.07195 0
M  V30 4799 H 463.611 -3.51931 4.42901 0
M  V30 4800 H 462.168 -3.74698 5.33333 0
M  V30 4801 N 465.601 -1.54893 0.290851 0
M  V30 4802 C 467.017 -1.59476 -0.0628432 0
M  V30 4803 C 467.217 -1.30795 -1.5328 0
M  V30 4804 O 466.273 -1.07644 -2.28406 0
M  V30 4805 C 467.586 -2.98928 0.325962 0
M  V30 4806 C 469.134 -3.11799 0.273882 0
M  V30 4807 C 469.609 -4.53544 0.637359 0
M  V30 4808 N 471.1 -4.59433 0.589507 0
M  V30 4809 C 471.835 -5.67164 0.84335 0
M  V30 4810 N 471.331 -6.82975 1.16263 0
M  V30 4811 N 473.124 -5.56786 0.771091 0
M  V30 4812 H 465.275 -1.71798 1.24896 0
M  V30 4813 H 467.538 -0.801879 0.505663 0
M  V30 4814 H 467.244 -3.24805 1.34887 0
M  V30 4815 H 467.118 -3.75793 -0.325441 0
M  V30 4816 H 469.505 -2.85677 -0.739765 0
M  V30 4817 H 469.586 -2.37112 0.959766 0
M  V30 4818 H 469.23 -4.80394 1.64877 0
M  V30 4819 H 469.16 -5.26553 -0.0704866 0
M  V30 4820 H 471.651 -3.76245 0.353252 0
M  V30 4821 H 471.964 -7.61048 1.34257 0
M  V30 4822 H 470.309 -6.84552 1.20057 0
M  V30 4823 H 473.5 -4.65187 0.521383 0
M  V30 4824 H 473.673 -6.40664 0.972295 0
M  V30 4825 N 467.08 -0.0183926 -1.57589 0
M  V30 4826 C 468.32 0.666846 -1.93216 0
M  V30 4827 C 468.684 1.69905 -0.894215 0
M  V30 4828 O 469.885 2.436 -1.13633 0
M  V30 4829 C 468.156 1.27684 -3.33814 0
M  V30 4830 S 469.715 1.98464 -3.91353 0
M  V30 4831 H 466.533 0.219826 -0.676164 0
M  V30 4832 H 469.135 -0.0794893 -1.95338 0
M  V30 4833 H 467.839 0.513006 -4.07181 0
M  V30 4834 H 467.37 2.06071 -3.3511 0
M  V30 4835 H 469.385 3.26189 -3.73918 0
M  V30 4836 N 468.558 1.5553 0.254621 0
M  V30 4837 C 469.491 1.84624 1.34124 0
M  V30 4838 C 470.469 0.700693 1.46728 0
M  V30 4839 O 471.653 0.94564 1.63064 0
M  V30 4840 C 468.78 2.02412 2.71564 0
M  V30 4841 C 467.826 3.25028 2.7615 0
M  V30 4842 S 468.659 4.81893 2.33538 0
M  V30 4843 C 469.815 5.02677 3.72917 0
M  V30 4844 H 470.048 2.76501 1.09245 0
M  V30 4845 H 467.581 1.47537 0.455211 0
M  V30 4846 H 469.539 2.13345 3.50705 0
M  V30 4847 H 468.2 1.11391 2.93685 0
M  V30 4848 H 467.393 3.34418 3.77069 0
M  V30 4849 H 466.995 3.12781 2.05046 0
M  V30 4850 H 469.287 4.89546 4.68349 0
M  V30 4851 H 470.23 6.0468 3.68467 0
M  V30 4852 H 470.638 4.30561 3.65072 0
M  V30 4853 N 470.036 -0.519951 1.48776 0
M  V30 4854 C 470.999 -1.60574 1.6355 0
M  V30 4855 C 471.999 -1.52557 0.508234 0
M  V30 4856 O 473.189 -1.56047 0.774262 0
M  V30 4857 C 470.321 -3.00211 1.61512 0
M  V30 4858 H 471.514 -1.4881 2.60376 0
M  V30 4859 H 469.067 -0.742772 1.37523 0
M  V30 4860 H 469.802 -3.17471 0.662009 0
M  V30 4861 H 469.587 -3.07439 2.43359 0
M  V30 4862 H 471.077 -3.79134 1.75064 0
M  V30 4863 N 471.514 -1.37532 -0.769588 0
M  V30 4864 C 472.444 -1.36172 -1.89682 0
M  V30 4865 C 473.425 -0.23001 -1.68538 0
M  V30 4866 O 474.61 -0.43069 -1.89364 0
M  V30 4867 C 471.74 -1.1701 -3.26995 0
M  V30 4868 C 470.694 -2.27216 -3.62708 0
M  V30 4869 C 470.02 -1.93174 -4.98586 0
M  V30 4870 C 471.32 -3.6941 -3.69234 0
M  V30 4871 H 473.014 -2.30499 -1.91078 0
M  V30 4872 H 470.56 -1.10953 -0.917902 0
M  V30 4873 H 472.513 -1.14688 -4.05493 0
M  V30 4874 H 471.237 -0.191395 -3.26039 0
M  V30 4875 H 469.896 -2.28697 -2.86519 0
M  V30 4876 H 469.544 -0.938281 -4.94171 0
M  V30 4877 H 469.244 -2.66973 -5.23449 0
M  V30 4878 H 470.768 -1.92443 -5.79481 0
M  V30 4879 H 472.182 -3.70047 -4.37879 0
M  V30 4880 H 470.579 -4.4228 -4.05597 0
M  V30 4881 H 471.649 -4.0288 -2.69844 0
M  V30 4882 N 472.992 0.995999 -1.22138 0
M  V30 4883 C 474.217 1.77601 -1.0711 0
M  V30 4884 C 474.642 1.84339 0.374264 0
M  V30 4885 O 474 1.29359 1.27028 0
M  V30 4886 C 474.048 3.18897 -1.68336 0
M  V30 4887 O 473.152 4.01663 -0.934928 0
M  V30 4888 H 472.493 0.547011 -0.376397 0
M  V30 4889 H 475.023 1.25137 -1.6187 0
M  V30 4890 H 475.033 3.69539 -1.72931 0
M  V30 4891 H 473.708 3.13308 -2.73516 0
M  V30 4892 H 472.285 3.60204 -0.964751 0
M  V30 4893 N 474.47 1.03057 1.19235 0
M  V30 4894 C 475.698 0.747697 1.92917 0
M  V30 4895 C 476.113 -0.69372 1.75593 0
M  V30 4896 O 475.47 -1.47191 1.07894 0
M  V30 4897 C 475.521 1.09159 3.44625 0
M  V30 4898 O 475.242 2.47641 3.61394 0
M  V30 4899 C 476.743 0.831763 4.35427 0
M  V30 4900 H 473.963 0.273453 0.612751 0
M  V30 4901 H 476.507 1.37552 1.51327 0
M  V30 4902 H 474.662 0.508919 3.84043 0
M  V30 4903 H 475.076 2.60499 4.55237 0
M  V30 4904 H 476.55 1.12233 5.4047 0
M  V30 4905 H 477.027 -0.233769 4.38577 0
M  V30 4906 H 477.633 1.39725 4.01693 0
M  V30 4907 N 475.948 -1.35272 0.808662 0
M  V30 4908 C 476.911 -2.28082 0.226093 0
M  V30 4909 C 477.911 -1.49673 -0.587762 0
M  V30 4910 O 479.101 -1.69404 -0.405943 0
M  V30 4911 C 476.233 -3.33955 -0.684596 0
M  V30 4912 H 477.426 -2.81116 1.04469 0
M  V30 4913 H 474.979 -1.45162 0.579466 0
M  V30 4914 H 475.714 -2.86111 -1.5268 0
M  V30 4915 H 475.499 -3.91965 -0.102699 0
M  V30 4916 H 476.989 -4.03219 -1.08646 0
M  V30 4917 N 477.426 -0.562348 -1.47226 0
M  V30 4918 C 478.672 -0.0402761 -2.0276 0
M  V30 4919 C 479.005 1.30823 -1.43523 0
M  V30 4920 O 478.28 1.85249 -0.592705 0
M  V30 4921 C 478.563 0.047311 -3.60069 0
M  V30 4922 C 478.416 -1.32865 -4.29729 0
M  V30 4923 C 479.735 0.758182 -4.3352 0
M  V30 4924 H 476.854 -0.0161105 -0.736824 0
M  V30 4925 H 479.496 -0.725628 -1.75598 0
M  V30 4926 H 477.646 0.630986 -3.83342 0
M  V30 4927 H 479.318 -1.95593 -4.17781 0
M  V30 4928 H 477.561 -1.90195 -3.89882 0
M  V30 4929 H 478.232 -1.22004 -5.38349 0
M  V30 4930 H 480.708 0.262546 -4.15271 0
M  V30 4931 H 479.584 0.78844 -5.43208 0
M  V30 4932 H 479.845 1.81537 -4.03109 0
M  V30 4933 N 478.904 1.54736 -0.299062 0
M  V30 4934 C 479.834 2.26409 0.571085 0
M  V30 4935 C 480.815 1.2629 1.13951 0
M  V30 4936 O 482 1.55059 1.16921 0
M  V30 4937 C 479.13 3.00338 1.74396 0
M  V30 4938 C 478.084 4.07588 1.30599 0
M  V30 4939 C 477.41 4.69222 2.56387 0
M  V30 4940 C 478.71 5.20455 0.438645 0
M  V30 4941 H 480.404 2.99388 -0.0266991 0
M  V30 4942 H 477.95 1.43993 -0.0142812 0
M  V30 4943 H 479.903 3.49198 2.35878 0
M  V30 4944 H 478.627 2.24934 2.36796 0
M  V30 4945 H 477.286 3.59575 0.71424 0
M  V30 4946 H 476.934 3.9046 3.17097 0
M  V30 4947 H 476.634 5.41653 2.27784 0
M  V30 4948 H 478.158 5.20844 3.18675 0
M  V30 4949 H 479.572 5.65221 0.959085 0
M  V30 4950 H 477.969 5.99594 0.246466 0
M  V30 4951 H 479.039 4.8192 -0.536738 0
M  V30 4952 N 480.382 0.0267497 1.57577 0
M  V30 4953 C 481.628 -0.653371 1.91987 0
M  V30 4954 C 481.961 -1.71915 0.903263 0
M  V30 4955 O 481.236 -1.94358 -0.0743387 0
M  V30 4956 C 481.519 -1.272 3.36886 0
M  V30 4957 C 481.372 -0.215938 4.49281 0
M  V30 4958 C 482.691 -2.19069 3.81703 0
M  V30 4959 H 479.81 -0.236047 0.698177 0
M  V30 4960 H 482.452 0.0835236 1.89816 0
M  V30 4961 H 480.602 -1.90005 3.38866 0
M  V30 4962 H 482.274 0.41449 4.59434 0
M  V30 4963 H 480.517 0.458855 4.31366 0
M  V30 4964 H 481.188 -0.688347 5.47691 0
M  V30 4965 H 483.664 -1.66253 3.81444 0
M  V30 4966 H 482.54 -2.59307 4.83788 0
M  V30 4967 H 482.801 -3.08087 3.17072 0
M  V30 4968 N 481.861 -1.55662 -0.24637 0
M  V30 4969 C 483.109 -1.77168 -0.972411 0
M  V30 4970 C 483.43 -0.590827 -1.85834 0
M  V30 4971 O 482.7 0.393365 -1.9191 0
M  V30 4972 H 481.28 -0.653405 -0.362038 0
M  V30 4973 H 483.942 -1.93101 -0.264189 0
M  V30 4974 H 483.038 -2.68335 -1.59382 0
M  V30 4975 N 483.339 0.512053 -1.4905 0
M  V30 4976 C 484.249 1.64139 -1.67617 0
M  V30 4977 C 485.265 1.64786 -0.558701 0
M  V30 4978 O 486.441 1.8341 -0.832034 0
M  V30 4979 C 483.506 3.00548 -1.72835 0
M  V30 4980 C 482.567 3.10615 -2.96339 0
M  V30 4981 C 481.8 4.40517 -3.01298 0
M  V30 4982 O 482.023 5.28671 -2.14157 0
M  V30 4983 O 480.957 4.55325 -3.93653 0
M  V30 4984 H 484.783 1.51407 -2.63267 0
M  V30 4985 H 482.368 0.687131 -1.32661 0
M  V30 4986 H 484.25 3.81641 -1.78683 0
M  V30 4987 H 482.925 3.13566 -0.803616 0
M  V30 4988 H 481.832 2.2875 -2.96014 0
M  V30 4989 H 483.165 3.0252 -3.88256 0
M  V30 4990 N 484.817 1.37938 0.762283 0
M  V30 4991 C 485.78 1.34279 1.85747 0
M  V30 4992 C 486.78 0.244969 1.58923 0
M  V30 4993 O 487.97 0.501365 1.66829 0
M  V30 4994 C 485.102 1.08833 3.23061 0
M  V30 4995 H 486.295 2.31705 1.90401 0
M  V30 4996 H 483.848 1.23105 0.963057 0
M  V30 4997 H 484.583 0.119767 3.24079 0
M  V30 4998 H 484.368 1.88306 3.43923 0
M  V30 4999 H 485.858 1.08946 4.03138 0
M  V30 5000 N 486.295 -0.989507 1.22664 0
M  V30 5001 C 487.242 -2.08024 0.999733 0
M  V30 5002 C 488.212 -1.65909 -0.0797047 0
M  V30 5003 O 489.397 -1.90669 0.0705715 0
M  V30 5004 C 486.537 -3.40067 0.587234 0
M  V30 5005 C 485.65 -3.95505 1.73781 0
M  V30 5006 C 484.785 -5.15722 1.27297 0
M  V30 5007 C 483.824 -5.63305 2.39488 0
M  V30 5008 N 482.961 -6.74758 1.94026 0
M  V30 5009 H 487.801 -2.26768 1.9334 0
M  V30 5010 H 485.338 -1.11171 0.963297 0
M  V30 5011 H 487.296 -4.15899 0.329227 0
M  V30 5012 H 485.926 -3.21314 -0.309426 0
M  V30 5013 H 484.978 -3.16513 2.11006 0
M  V30 5014 H 486.29 -4.26797 2.58158 0
M  V30 5015 H 485.444 -5.98854 0.972546 0
M  V30 5016 H 484.183 -4.86061 0.399445 0
M  V30 5017 H 483.188 -4.78759 2.70315 0
M  V30 5018 H 484.413 -5.94988 3.27362 0
M  V30 5019 H 482.359 -6.46874 1.09041 0
M  V30 5020 H 482.276 -7.05386 2.71968 0
M  V30 5021 H 483.544 -7.61387 1.67062 0
M  V30 5022 N 487.773 -1.03688 -1.18687 0
M  V30 5023 C 488.72 -0.624624 -2.22187 0
M  V30 5024 C 489.69 0.365636 -1.62026 0
M  V30 5025 O 490.875 0.260481 -1.89014 0
M  V30 5026 C 488.015 0.0101738 -3.45099 0
M  V30 5027 C 487.128 -1.02709 -4.19613 0
M  V30 5028 C 486.263 -0.361213 -5.2997 0
M  V30 5029 C 485.302 -1.38384 -5.96252 0
M  V30 5030 N 484.439 -0.743196 -6.98155 0
M  V30 5031 H 489.279 -1.51176 -2.56807 0
M  V30 5032 H 486.816 -0.75636 -1.26165 0
M  V30 5033 H 488.774 0.395528 -4.15321 0
M  V30 5034 H 487.404 0.860848 -3.1111 0
M  V30 5035 H 486.456 -1.53043 -3.48256 0
M  V30 5036 H 487.768 -1.80398 -4.65036 0
M  V30 5037 H 486.922 0.0785537 -6.06649 0
M  V30 5038 H 485.661 0.447799 -4.8564 0
M  V30 5039 H 484.666 -1.83378 -5.18317 0
M  V30 5040 H 485.891 -2.19448 -6.42666 0
M  V30 5041 H 483.837 0.0455789 -6.55984 0
M  V30 5042 H 483.754 -1.45784 -7.41811 0
M  V30 5043 H 485.022 -0.327698 -7.78811 0
M  V30 5044 N 489.251 1.34841 -0.815825 0
M  V30 5045 C 490.497 1.99219 -0.410288 0
M  V30 5046 C 490.852 1.63532 1.01366 0
M  V30 5047 O 490.145 0.893093 1.69512 0
M  V30 5048 C 490.339 3.53273 -0.541541 0
M  V30 5049 C 490.168 4.03927 -1.9767 0
M  V30 5050 C 488.938 4.32852 -2.60706 0
M  V30 5051 C 491.136 4.21808 -2.9425 0
M  V30 5052 N 489.118 4.69494 -3.95536 0
M  V30 5053 C 490.489 4.6155 -4.13971 0
M  V30 5054 C 492.544 4.04038 -2.9096 0
M  V30 5055 C 491.247 4.85381 -5.30847 0
M  V30 5056 C 493.273 4.29031 -4.07046 0
M  V30 5057 C 492.635 4.69054 -5.25517 0
M  V30 5058 H 488.734 0.756494 -0.198094 0
M  V30 5059 H 491.318 1.63379 -1.05902 0
M  V30 5060 H 489.489 3.88323 0.0772544 0
M  V30 5061 H 491.221 4.04551 -0.109694 0
M  V30 5062 H 487.976 4.23503 -2.11995 0
M  V30 5063 H 488.4 4.92061 -4.64979 0
M  V30 5064 H 493.042 3.7223 -2.00512 0
M  V30 5065 H 490.76 5.16059 -6.21859 0
M  V30 5066 H 494.346 4.16826 -4.05891 0
M  V30 5067 H 493.226 4.88014 -6.1385 0
M  V30 5068 N 490.729 0.570148 1.46925 0
M  V30 5069 C 491.659 -0.158274 2.32963 0
M  V30 5070 C 492.64 -0.896093 1.44583 0
M  V30 5071 O 493.825 -0.874022 1.7342 0
M  V30 5072 C 490.955 -1.18055 3.26619 0
M  V30 5073 C 489.909 -0.558379 4.24342 0
M  V30 5074 C 489.235 -1.68623 5.07415 0
M  V30 5075 C 490.535 0.496295 5.19937 0
M  V30 5076 H 492.229 0.560046 2.94115 0
M  V30 5077 H 489.775 0.270775 1.41431 0
M  V30 5078 H 491.728 -1.69841 3.85658 0
M  V30 5079 H 490.452 -1.92899 2.63548 0
M  V30 5080 H 489.111 -0.0617157 3.66548 0
M  V30 5081 H 488.759 -2.42402 4.40738 0
M  V30 5082 H 488.459 -1.27564 5.73586 0
M  V30 5083 H 489.983 -2.20709 5.69315 0
M  V30 5084 H 491.397 0.0640052 5.73264 0
M  V30 5085 H 489.794 0.82649 5.94381 0
M  V30 5086 H 490.864 1.38735 4.6463 0
M  V30 5087 N 492.207 -1.54576 0.307264 0
M  V30 5088 C 493.618 -1.8579 -0.184121 0
M  V30 5089 C 493.969 -1.22914 -1.52927 0
M  V30 5090 O 493.094 -0.529126 -2.09831 0
M  V30 5091 C 493.689 -3.37081 -0.340862 0
M  V30 5092 C 492.248 -3.68304 -0.776465 0
M  V30 5093 C 491.395 -2.77076 0.111503 0
M  V30 5094 H 494.346 -1.49656 0.528078 0
M  V30 5095 H 494.367 -3.61922 -1.17443 0
M  V30 5096 H 493.879 -3.82815 0.638309 0
M  V30 5097 H 491.98 -3.28092 -1.76596 0
M  V30 5098 H 492.093 -4.75434 -0.591512 0
M  V30 5099 H 490.457 -2.51374 -0.410256 0
M  V30 5100 H 491.24 -3.25632 1.08714 0
M  V30 5101 N 493.685 -0.035106 -1.57561 0
M  V30 5102 C 494.595 0.960295 -2.14046 0
M  V30 5103 C 495.611 1.3529 -1.0942 0
M  V30 5104 O 496.787 1.43309 -1.41508 0
M  V30 5105 C 493.852 2.22214 -2.66124 0
M  V30 5106 C 492.913 1.8894 -3.85487 0
M  V30 5107 C 492.146 3.09109 -4.35072 0
M  V30 5108 O 492.369 4.21963 -3.83802 0
M  V30 5109 O 491.303 2.91058 -5.26848 0
M  V30 5110 H 495.129 0.509983 -2.99387 0
M  V30 5111 H 492.714 0.185853 -1.48239 0
M  V30 5112 H 494.596 2.96279 -2.99661 0
M  V30 5113 H 493.271 2.66414 -1.83862 0
M  V30 5114 H 492.178 1.12241 -3.56865 0
M  V30 5115 H 493.511 1.49551 -4.6893 0
M  V30 5116 N 495.163 1.55791 0.238111 0
M  V30 5117 C 496.093 1.94068 1.29846 0
M  V30 5118 C 497.074 0.806726 1.49753 0
M  V30 5119 O 498.259 1.06772 1.62214 0
M  V30 5120 C 495.389 2.24302 2.65153 0
M  V30 5121 C 494.343 3.40032 2.59927 0
M  V30 5122 C 493.669 3.55829 3.99111 0
M  V30 5123 C 494.969 4.75476 2.16148 0
M  V30 5124 H 496.663 2.82887 0.980563 0
M  V30 5125 H 494.209 1.36105 0.470253 0
M  V30 5126 H 496.162 2.4967 3.39475 0
M  V30 5127 H 494.886 1.32318 2.98596 0
M  V30 5128 H 493.545 3.14687 1.88063 0
M  V30 5129 H 493.193 2.6125 4.29834 0
M  V30 5130 H 492.893 4.3366 3.96501 0
M  V30 5131 H 494.417 3.83528 4.7512 0
M  V30 5132 H 495.831 5.00158 2.80205 0
M  V30 5133 H 494.228 5.56472 2.24631 0
M  V30 5134 H 495.298 4.71946 1.11333 0
M  V30 5135 N 496.642 -0.504142 1.49319 0
M  V30 5136 C 497.888 -1.26033 1.58882 0
M  V30 5137 C 498.221 -1.92268 0.273274 0
M  V30 5138 O 497.496 -1.80567 -0.72291 0
M  V30 5139 C 497.779 -2.32976 2.7458 0
M  V30 5140 C 497.632 -1.71263 4.1592 0
M  V30 5141 C 498.951 -3.34561 2.85932 0
M  V30 5142 H 496.07 -0.456863 0.578312 0
M  V30 5143 H 498.712 -0.558965 1.81592 0
M  V30 5144 H 496.862 -2.92796 2.55348 0
M  V30 5145 H 498.534 -1.15294 4.4666 0
M  V30 5146 H 496.777 -1.01686 4.21714 0
M  V30 5147 H 497.448 -2.48816 4.92742 0
M  V30 5148 H 499.924 -2.84727 3.0343 0
M  V30 5149 H 498.8 -4.06754 3.68568 0
M  V30 5150 H 499.061 -3.96695 1.95154 0
M  V30 5151 N 498.12 -1.38341 -0.754957 0
M  V30 5152 C 499.03 -1.3769 -1.89944 0
M  V30 5153 C 500.046 -0.274194 -1.71826 0
M  V30 5154 O 501.222 -0.512391 -1.94773 0
M  V30 5155 C 498.287 -1.19938 -3.25293 0
M  V30 5156 C 497.348 -2.40001 -3.55946 0
M  V30 5157 C 496.581 -2.23087 -4.84838 0
M  V30 5158 O 496.804 -1.22386 -5.57116 0
M  V30 5159 O 495.738 -3.11646 -5.14937 0
M  V30 5160 H 499.564 -2.3412 -1.93446 0
M  V30 5161 H 497.149 -1.19246 -0.900044 0
M  V30 5162 H 499.031 -1.12093 -4.06218 0
M  V30 5163 H 497.706 -0.265919 -3.22606 0
M  V30 5164 H 496.613 -2.53421 -2.75188 0
M  V30 5165 H 497.946 -3.31973 -3.63394 0
M  V30 5166 N 499.598 0.982988 -1.23187 0
M  V30 5167 C 500.548 2.05962 -0.977942 0
M  V30 5168 C 501.532 1.60725 0.0751148 0
M  V30 5169 O 502.724 1.76471 -0.136683 0
M  V30 5170 C 499.853 3.38564 -0.568276 0
M  V30 5171 C 498.939 3.90407 -1.6566 0
M  V30 5172 N 499.33 4.15359 -2.88635 0
M  V30 5173 C 497.628 4.18915 -1.53058 0
M  V30 5174 C 498.329 4.57642 -3.5908 0
M  V30 5175 N 497.305 4.6192 -2.86584 0
M  V30 5176 H 501.107 2.23208 -1.91195 0
M  V30 5177 H 498.621 1.16555 -1.13087 0
M  V30 5178 H 500.618 4.15276 -0.36764 0
M  V30 5179 H 499.278 3.22712 0.358713 0
M  V30 5180 H 500.289 4.03258 -3.24966 0
M  V30 5181 H 496.966 4.12081 -0.670506 0
M  V30 5182 H 498.356 4.85488 -4.6449 0
M  V30 5183 N 501.076 1.04316 1.18135 0
M  V30 5184 C 502.039 0.640794 2.2006 0
M  V30 5185 C 503.039 -0.303124 1.57917 0
M  V30 5186 O 504.229 -0.0881855 1.73977 0
M  V30 5187 C 501.361 -0.060148 3.40847 0
M  V30 5188 H 502.554 1.54281 2.57172 0
M  V30 5189 H 500.107 0.836004 1.32063 0
M  V30 5190 H 500.842 -0.975845 3.0927 0
M  V30 5191 H 500.627 0.618319 3.87194 0
M  V30 5192 H 502.117 -0.328082 4.16309 0
M  V30 5193 N 502.554 -1.34406 0.822964 0
M  V30 5194 C 503.501 -2.29519 0.24284 0
M  V30 5195 C 504.471 -1.5359 -0.632397 0
M  V30 5196 O 505.656 -1.8196 -0.57403 0
M  V30 5197 C 502.796 -3.40032 -0.58925 0
M  V30 5198 C 501.909 -4.30899 0.308236 0
M  V30 5199 C 501.044 -5.28515 -0.533425 0
M  V30 5200 C 500.083 -6.1102 0.363444 0
M  V30 5201 N 499.22 -7.00725 -0.439147 0
M  V30 5202 H 504.06 -2.78537 1.05929 0
M  V30 5203 H 501.597 -1.3707 0.533872 0
M  V30 5204 H 503.555 -4.0279 -1.087 0
M  V30 5205 H 502.185 -2.92248 -1.37081 0
M  V30 5206 H 501.237 -3.69002 0.924203 0
M  V30 5207 H 502.549 -4.88717 0.997862 0
M  V30 5208 H 501.703 -5.96725 -1.09565 0
M  V30 5209 H 500.442 -4.71235 -1.25656 0
M  V30 5210 H 499.447 -5.41743 0.937812 0
M  V30 5211 H 500.672 -6.70381 1.08469 0
M  V30 5212 H 498.618 -6.45913 -1.14595 0
M  V30 5213 H 498.535 -7.55756 0.19209 0
M  V30 5214 H 499.803 -7.73263 -0.984124 0
M  V30 5215 N 504.032 -0.577932 -1.46621 0
M  V30 5216 C 504.98 0.170882 -2.31971 0
M  V30 5217 C 505.974 0.889086 -1.44193 0
M  V30 5218 O 507.18 0.808017 -1.60845 0
M  V30 5219 H 503.555 0.0739763 -0.748353 0
M  V30 5220 H 505.526 -0.567856 -2.92947 0
M  V30 5221 C 504.275 1.17438 -3.27267 0
M  V30 5222 H 503.598 0.63116 -3.94787 0
M  V30 5223 H 505.038 1.66882 -3.89778 0
M  V30 5224 C 503.497 2.23292 -2.52274 0
M  V30 5225 O 504.027 3.30567 -2.28229 0
M  V30 5226 N 502.233 1.97772 -2.12919 0
M  V30 5227 H 501.78 1.10545 -2.32675 0
M  V30 5228 H 501.738 2.68809 -1.63062 0
M  V30 5229 N 505.51 1.54411 -0.315457 0
M  V30 5230 C 506.44 2.27002 0.547039 0
M  V30 5231 C 507.421 1.27492 1.12605 0
M  V30 5232 O 508.606 1.5629 1.15269 0
M  V30 5233 C 505.736 3.02171 1.71201 0
M  V30 5234 C 504.69 4.0895 1.26268 0
M  V30 5235 C 504.016 4.71915 2.51396 0
M  V30 5236 C 505.316 5.20891 0.383419 0
M  V30 5237 H 507.01 2.99343 -0.0584517 0
M  V30 5238 H 504.556 1.4397 -0.0295527 0
M  V30 5239 H 506.509 3.51681 2.32161 0
M  V30 5240 H 505.233 2.27433 2.34397 0
M  V30 5241 H 503.892 3.60312 0.676062 0
M  V30 5242 H 503.54 3.93801 3.12937 0
M  V30 5243 H 503.24 5.44039 2.22026 0
M  V30 5244 H 504.764 5.24195 3.13133 0
M  V30 5245 H 506.178 5.66206 0.899082 0
M  V30 5246 H 504.575 5.99821 0.182857 0
M  V30 5247 H 505.645 4.81324 -0.587821 0
M  V30 5248 N 506.988 0.0434614 1.5754 0
M  V30 5249 C 508.404 -0.313039 1.565 0
M  V30 5250 C 508.604 -1.71954 1.05043 0
M  V30 5251 O 507.66 -2.425 0.703564 0
M  V30 5252 C 508.973 -0.148544 3.00333 0
M  V30 5253 C 510.521 -0.220231 3.12224 0
M  V30 5254 C 510.996 -0.0843565 4.57922 0
M  V30 5255 N 512.487 -0.140881 4.62986 0
M  V30 5256 C 513.222 -0.0597443 5.73369 0
M  V30 5257 N 512.718 0.0733004 6.92761 0
M  V30 5258 N 514.511 -0.11477 5.61983 0
M  V30 5259 H 506.662 0.96303 1.89313 0
M  V30 5260 H 508.925 0.373164 0.871466 0
M  V30 5261 H 508.631 0.820894 3.41986 0
M  V30 5262 H 508.505 -0.912798 3.65989 0
M  V30 5263 H 510.892 -1.18014 2.70475 0
M  V30 5264 H 510.973 0.574646 2.49262 0
M  V30 5265 H 510.617 0.872192 5.00355 0
M  V30 5266 H 510.547 -0.898281 5.18882 0
M  V30 5267 H 513.038 -0.243273 3.77116 0
M  V30 5268 H 513.351 0.128128 7.72694 0
M  V30 5269 H 511.696 0.10828 6.94916 0
M  V30 5270 H 514.887 -0.217212 4.67596 0
M  V30 5271 H 515.06 -0.0480779 6.47982 0
M  V30 5272 N 508.466 -1.55915 -0.229846 0
M  V30 5273 C 509.712 -1.78807 -0.956868 0
M  V30 5274 C 510.045 -0.611687 -1.84315 0
M  V30 5275 O 509.32 0.389398 -1.90562 0
M  V30 5276 C 509.603 -3.11718 -1.80288 0
M  V30 5277 C 509.456 -4.3979 -0.943649 0
M  V30 5278 C 510.775 -3.40999 -2.78222 0
M  V30 5279 H 507.894 -0.6505 -0.346437 0
M  V30 5280 H 510.536 -1.88648 -0.226252 0
M  V30 5281 H 508.686 -3.03459 -2.42579 0
M  V30 5282 H 510.358 -4.60059 -0.338121 0
M  V30 5283 H 508.601 -4.33086 -0.248705 0
M  V30 5284 H 509.272 -5.29208 -1.5698 0
M  V30 5285 H 511.748 -3.49332 -2.26067 0
M  V30 5286 H 510.624 -4.35183 -3.34526 0
M  V30 5287 H 510.885 -2.62754 -3.55546 0
M  V30 5288 N 509.944 0.496216 -1.49584 0
M  V30 5289 C 510.892 1.61805 -1.67098 0
M  V30 5290 C 511.886 1.60667 -0.536877 0
M  V30 5291 O 513.092 1.65118 -0.716654 0
M  V30 5292 H 509.467 0.53646 -0.526986 0
M  V30 5293 H 511.438 1.44187 -2.61252 0
M  V30 5294 C 510.187 2.99912 -1.75921 0
M  V30 5295 H 509.51 3.01496 -2.62565 0
M  V30 5296 H 510.95 3.77931 -1.92209 0
M  V30 5297 C 509.409 3.33092 -0.505088 0
M  V30 5298 O 509.939 4.00019 0.367085 0
M  V30 5299 N 508.145 2.88278 -0.366599 0
M  V30 5300 H 507.692 2.33989 -1.07735 0
M  V30 5301 H 507.65 3.10846 0.47142 0
M  V30 5302 N 511.423 1.38739 0.74761 0
M  V30 5303 C 512.386 1.36241 1.84312 0
M  V30 5304 C 513.386 0.261811 1.58654 0
M  V30 5305 O 514.576 0.519031 1.66288 0
M  V30 5306 C 511.708 1.12253 3.21888 0
M  V30 5307 H 512.901 2.33712 1.87933 0
M  V30 5308 H 510.454 1.2412 0.949946 0
M  V30 5309 H 511.189 0.154133 3.23934 0
M  V30 5310 H 510.974 1.91943 3.41907 0
M  V30 5311 H 512.464 1.13215 4.0196 0
M  V30 5312 N 512.901 -0.976442 1.23707 0
M  V30 5313 C 514.149 -1.71487 1.06942 0
M  V30 5314 C 514.47 -1.9098 -0.393897 0
M  V30 5315 O 513.74 -1.48128 -1.28198 0
M  V30 5316 H 512.32 -0.635425 0.392739 0
M  V30 5317 H 514.982 -1.17515 1.55487 0
M  V30 5318 H 514.078 -2.70286 1.56051 0
M  V30 5319 N 514.379 -1.04941 -1.1758 0
M  V30 5320 C 515.656 -0.671918 -1.83697 0
M  V30 5321 C 516.036 0.847929 -1.93322 0
M  V30 5322 O 515.384 1.75287 -1.46583 0
M  V30 5323 C 515.594 -1.35797 -3.21497 0
M  V30 5324 C 516.942 -1.4944 -3.97433 0
M  V30 5325 O 517.966 -1.31678 -3.30967 0
M  V30 5326 O 516.825 -1.78463 -5.1654 0
M  V30 5327 H 513.919 -0.236212 -0.792548 0
M  V30 5328 H 516.465 -1.14884 -1.24899 0
M  V30 5329 H 515.237 -2.39498 -3.09446 0
M  V30 5330 H 514.86 -0.870236 -3.8796 0
M  V30 5331 N 515.857 1.33968 -0.830081 0
M  V30 5332 C 516.789 2.28194 -0.21448 0
M  V30 5333 C 517.802 1.5135 0.599752 0
M  V30 5334 O 518.991 1.73286 0.42826 0
M  V30 5335 C 516.091 3.31221 0.717356 0
M  V30 5336 C 515.264 4.37365 -0.055613 0
M  V30 5337 C 514.323 5.2011 0.798231 0
M  V30 5338 O 513.349 5.68691 0.240616 0
M  V30 5339 N 514.551 5.40523 2.11695 0
M  V30 5340 H 517.316 2.81662 -1.02405 0
M  V30 5341 H 514.877 1.46568 -0.687713 0
M  V30 5342 H 516.869 3.83477 1.29334 0
M  V30 5343 H 515.439 2.78095 1.42765 0
M  V30 5344 H 514.659 3.85727 -0.812936 0
M  V30 5345 H 515.947 5.05397 -0.587444 0
M  V30 5346 H 515.345 5.0274 2.59363 0
M  V30 5347 H 513.902 5.95871 2.64162 0
M  V30 5348 N 517.335 0.585699 1.46312 0
M  V30 5349 C 518.746 0.159938 1.86014 0
M  V30 5350 C 519.097 -1.27775 1.48889 0
M  V30 5351 O 518.222 -1.96559 0.90519 0
M  V30 5352 C 518.817 0.283485 3.37612 0
M  V30 5353 C 517.376 -0.0874256 3.76298 0
M  V30 5354 C 516.523 0.618055 2.70325 0
M  V30 5355 H 519.474 0.793737 1.37425 0
M  V30 5356 H 519.495 -0.490348 3.77327 0
M  V30 5357 H 519.007 1.32995 3.64601 0
M  V30 5358 H 517.108 -1.13391 3.54927 0
M  V30 5359 H 517.221 0.290975 4.78216 0
M  V30 5360 H 515.585 0.057993 2.54634 0
M  V30 5361 H 516.368 1.66623 3.00153 0
M  V30 5362 N 518.813 -1.54241 0.323641 0
M  V30 5363 C 520.061 -2.00174 -0.278359 0
M  V30 5364 C 520.382 -1.2134 -1.52648 0
M  V30 5365 O 519.652 -0.315244 -1.93347 0
M  V30 5366 H 518.232 -0.739463 -0.105845 0
M  V30 5367 H 520.894 -1.89864 0.440204 0
M  V30 5368 H 519.99 -3.07486 -0.5347 0
M  V30 5369 N 520.291 -0.0518155 -1.57515 0
M  V30 5370 C 521.254 0.907547 -2.10467 0
M  V30 5371 C 522.254 1.23947 -1.02439 0
M  V30 5372 O 523.444 1.17604 -1.2851 0
M  V30 5373 C 520.576 2.21723 -2.58944 0
M  V30 5374 H 521.769 0.44851 -2.96527 0
M  V30 5375 H 519.322 0.196598 -1.55059 0
M  V30 5376 H 520.057 2.72206 -1.76279 0
M  V30 5377 H 519.842 1.98935 -3.37886 0
M  V30 5378 H 521.332 2.90441 -3.00056 0
M  V30 5379 N 521.769 1.56035 0.221574 0
M  V30 5380 C 523.046 1.69837 0.970301 0
M  V30 5381 C 523.426 0.599065 2.02421 0
M  V30 5382 O 522.774 -0.393929 2.25079 0
M  V30 5383 C 522.984 3.11148 1.58076 0
M  V30 5384 C 524.332 3.70555 2.07302 0
M  V30 5385 O 525.356 3.14109 1.6797 0
M  V30 5386 O 524.215 4.69562 2.79596 0
M  V30 5387 H 521.309 0.691727 0.453257 0
M  V30 5388 H 523.855 1.68353 0.213358 0
M  V30 5389 H 522.627 3.82617 0.819759 0
M  V30 5390 H 522.25 3.16749 2.40324 0
M  V30 5391 N 523.247 -0.488276 1.49845 0
M  V30 5392 C 524.177 -1.59675 1.70371 0
M  V30 5393 C 525.158 -1.60878 0.552473 0
M  V30 5394 O 526.343 -1.77417 0.78973 0
M  V30 5395 C 523.473 -2.98098 1.782 0
M  V30 5396 C 522.427 -3.11761 2.93239 0
M  V30 5397 C 521.753 -4.51661 2.86193 0
M  V30 5398 C 523.053 -2.90589 4.33999 0
M  V30 5399 H 524.747 -1.42752 2.63177 0
M  V30 5400 H 522.293 -0.685317 1.26647 0
M  V30 5401 H 524.246 -3.75555 1.91144 0
M  V30 5402 H 522.97 -3.16138 0.820018 0
M  V30 5403 H 521.629 -2.36732 2.79917 0
M  V30 5404 H 521.277 -4.66595 1.87877 0
M  V30 5405 H 520.977 -4.61742 3.63412 0
M  V30 5406 H 522.501 -5.31162 3.01163 0
M  V30 5407 H 523.915 -3.57807 4.47936 0
M  V30 5408 H 522.312 -3.1213 5.12538 0
M  V30 5409 H 523.382 -1.86595 4.4756 0
M  V30 5410 N 524.725 -1.39134 -0.740242 0
M  V30 5411 C 525.973 -1.35803 -1.49673 0
M  V30 5412 C 526.294 0.0470897 -1.94943 0
M  V30 5413 O 525.564 0.997347 -1.68611 0
M  V30 5414 H 524.144 -0.499736 -0.555224 0
M  V30 5415 H 526.806 -1.73947 -0.879107 0
M  V30 5416 H 525.902 -2.0174 -2.38133 0
M  V30 5417 N 526.204 0.969867 -1.24223 0
M  V30 5418 C 527.615 1.52717 -1.07399 0
M  V30 5419 C 527.966 1.92956 0.355298 0
M  V30 5420 O 527.091 1.77112 1.2434 0
M  V30 5421 C 527.686 2.77521 -1.94339 0
M  V30 5422 C 526.245 3.29615 -1.81744 0
M  V30 5423 C 525.392 2.02537 -1.89405 0
M  V30 5424 H 528.343 0.788399 -1.37732 0
M  V30 5425 H 528.364 3.50773 -1.47439 0
M  V30 5426 H 527.876 2.48203 -2.98357 0
M  V30 5427 H 525.977 3.63789 -0.805505 0
M  V30 5428 H 526.09 3.98661 -2.65718 0
M  V30 5429 H 524.454 2.17151 -1.33108 0
M  V30 5430 H 525.237 1.75587 -2.94999 0
M  V30 5431 N 527.682 1.05563 1.17022 0
M  V30 5432 C 528.612 0.681026 2.23348 0
M  V30 5433 C 529.593 -0.322983 1.67005 0
M  V30 5434 O 530.778 -0.199746 1.9317 0
M  V30 5435 C 527.908 0.0589053 3.4725 0
M  V30 5436 C 526.862 0.988082 4.16438 0
M  V30 5437 C 526.188 0.229646 5.34207 0
M  V30 5438 C 527.488 2.31388 4.68249 0
M  V30 5439 H 529.182 1.56993 2.54938 0
M  V30 5440 H 526.728 0.756302 1.2254 0
M  V30 5441 H 528.681 -0.214982 4.20851 0
M  V30 5442 H 527.405 -0.864968 3.14938 0
M  V30 5443 H 526.064 1.24659 3.44754 0
M  V30 5444 H 525.712 -0.697111 4.98146 0
M  V30 5445 H 525.412 0.848815 5.81437 0
M  V30 5446 H 526.936 -0.0368694 6.10589 0
M  V30 5447 H 528.35 2.09964 5.33468 0
M  V30 5448 H 526.747 2.88736 5.26072 0
M  V30 5449 H 527.817 2.94982 3.84855 0
M  V30 5450 N 529.16 -1.33526 0.837174 0
M  V30 5451 C 530.409 -1.97098 0.428387 0
M  V30 5452 C 530.722 -1.67062 -1.01734 0
M  V30 5453 O 531.928 -2.24235 -1.53072 0
M  V30 5454 C 530.384 -3.52725 0.715075 0
M  V30 5455 C 529.992 -3.9164 2.17537 0
M  V30 5456 C 531.736 -4.22857 0.373154 0
M  V30 5457 C 529.643 -5.40237 2.40619 0
M  V30 5458 H 528.573 -0.737589 0.156455 0
M  V30 5459 H 531.224 -1.52169 1.02552 0
M  V30 5460 H 529.606 -3.95971 0.0475904 0
M  V30 5461 H 530.78 -3.59456 2.88319 0
M  V30 5462 H 529.095 -3.34485 2.4801 0
M  V30 5463 H 531.692 -5.32133 0.523264 0
M  V30 5464 H 532.035 -4.10647 -0.683708 0
M  V30 5465 H 532.568 -3.85135 0.995801 0
M  V30 5466 H 529.307 -5.57449 3.44864 0
M  V30 5467 H 528.827 -5.73887 1.74396 0
M  V30 5468 H 530.506 -6.07102 2.23688 0
M  V30 5469 N 530.638 -0.59345 -1.46 0
M  V30 5470 C 531.866 -0.0890934 -2.06708 0
M  V30 5471 C 532.281 1.2205 -1.44046 0
M  V30 5472 O 531.638 1.74029 -0.549551 0
M  V30 5473 C 531.689 0.0720263 -3.61428 0
M  V30 5474 O 531.41 -1.18574 -4.21748 0
M  V30 5475 C 532.911 0.609487 -4.3909 0
M  V30 5476 H 530.131 -0.0623628 -0.668096 0
M  V30 5477 H 532.675 -0.817171 -1.87464 0
M  V30 5478 H 530.83 0.750369 -3.80063 0
M  V30 5479 H 531.244 -1.0064 -5.14754 0
M  V30 5480 H 532.718 0.671363 -5.47902 0
M  V30 5481 H 533.195 1.62878 -4.07882 0
M  V30 5482 H 533.801 -0.03434 -4.25286 0
M  V30 5483 N 532.116 1.54067 -0.331816 0
M  V30 5484 C 533.527 1.86059 0.15454 0
M  V30 5485 C 533.878 1.25331 1.50952 0
M  V30 5486 O 533.003 0.562441 2.08963 0
M  V30 5487 C 533.598 3.37581 0.287192 0
M  V30 5488 C 532.157 3.69493 0.717773 0
M  V30 5489 C 531.304 2.76863 -0.155569 0
M  V30 5490 H 534.255 1.48797 -0.55182 0
M  V30 5491 H 534.276 3.63744 1.11671 0
M  V30 5492 H 533.788 3.81751 -0.699131 0
M  V30 5493 H 531.889 3.3086 1.71354 0
M  V30 5494 H 532.002 4.76315 0.5158 0
M  V30 5495 H 530.366 2.51995 0.370213 0
M  V30 5496 H 531.149 3.23861 -1.13881 0
M  V30 5497 N 533.594 0.0601682 1.57485 0
M  V30 5498 C 534.526 -0.94047 2.09016 0
M  V30 5499 C 535.539 -1.26897 1.01985 0
M  V30 5500 O 536.728 -1.22819 1.29529 0
M  V30 5501 C 533.828 -2.25955 2.52582 0
M  V30 5502 C 533.001 -2.11163 3.83052 0
M  V30 5503 C 532.06 -3.26273 4.12835 0
M  V30 5504 O 531.086 -3.01779 4.82616 0
M  V30 5505 N 532.288 -4.51022 3.65458 0
M  V30 5506 H 535.053 -0.500578 2.9549 0
M  V30 5507 H 532.614 -0.125852 1.6141 0
M  V30 5508 H 534.606 -3.01846 2.69575 0
M  V30 5509 H 533.176 -2.61481 1.71308 0
M  V30 5510 H 532.396 -1.19808 3.75552 0
M  V30 5511 H 533.684 -1.98517 4.68475 0
M  V30 5512 H 533.082 -4.73811 3.09062 0
M  V30 5513 H 531.639 -5.23978 3.87673 0
M  V30 5514 N 535.072 -1.5615 -0.213296 0
M  V30 5515 C 536.035 -1.92249 -1.24792 0
M  V30 5516 C 537.035 -0.801828 -1.39382 0
M  V30 5517 O 538.225 -1.06948 -1.37506 0
M  V30 5518 C 535.357 -2.18056 -2.62039 0
M  V30 5519 H 536.55 -2.84793 -0.939845 0
M  V30 5520 H 534.103 -1.49559 -0.454062 0
M  V30 5521 H 534.838 -1.2809 -2.97932 0
M  V30 5522 H 534.623 -2.99703 -2.52825 0
M  V30 5523 H 536.113 -2.47051 -3.36683 0
M  V30 5524 N 536.55 0.480323 -1.50102 0
M  V30 5525 C 537.497 1.57946 -1.6829 0
M  V30 5526 C 538.467 1.57611 -0.524223 0
M  V30 5527 O 539.652 1.75282 -0.753709 0
M  V30 5528 C 536.792 2.95978 -1.77457 0
M  V30 5529 C 535.905 3.06173 -3.04766 0
M  V30 5530 C 535.04 4.35063 -3.04784 0
M  V30 5531 C 534.079 4.38966 -4.26586 0
M  V30 5532 N 533.216 5.59314 -4.24396 0
M  V30 5533 H 538.056 1.41743 -2.62131 0
M  V30 5534 H 535.593 0.689304 -1.2995 0
M  V30 5535 H 537.551 3.76011 -1.80752 0
M  V30 5536 H 536.181 3.10837 -0.870637 0
M  V30 5537 H 535.233 2.19071 -3.10986 0
M  V30 5538 H 536.545 3.04916 -3.9475 0
M  V30 5539 H 535.699 5.23436 -3.06757 0
M  V30 5540 H 534.438 4.38915 -2.12614 0
M  V30 5541 H 533.443 3.48992 -4.24835 0
M  V30 5542 H 534.668 4.36813 -5.19972 0
M  V30 5543 H 532.614 5.63969 -3.35074 0
M  V30 5544 H 532.531 5.5976 -5.08138 0
M  V30 5545 H 533.799 6.49837 -4.30502 0
M  V30 5546 N 538.028 1.39524 0.732853 0
M  V30 5547 C 538.938 1.40695 1.87729 0
M  V30 5548 C 539.954 0.301496 1.71368 0
M  V30 5549 O 541.13 0.543313 1.93933 0
M  V30 5550 C 538.195 1.25098 3.23344 0
M  V30 5551 C 537.256 2.45634 3.52083 0
M  V30 5552 C 536.489 2.30772 4.81228 0
M  V30 5553 O 536.712 1.31233 5.55098 0
M  V30 5554 O 535.646 3.19799 5.09914 0
M  V30 5555 H 539.472 2.37168 1.89697 0
M  V30 5556 H 537.057 1.20663 0.880959 0
M  V30 5557 H 538.939 1.18541 4.04383 0
M  V30 5558 H 537.614 0.317209 3.22142 0
M  V30 5559 H 536.521 2.57767 2.71122 0
M  V30 5560 H 537.854 3.37712 3.58066 0
M  V30 5561 N 539.506 -0.963266 1.24736 0
M  V30 5562 C 540.922 -1.23273 1.01371 0
M  V30 5563 C 541.122 -1.99618 -0.274776 0
M  V30 5564 O 540.178 -2.32293 -0.989769 0
M  V30 5565 C 541.491 -2.01554 2.23152 0
M  V30 5566 C 543.039 -2.14629 2.27823 0
M  V30 5567 C 543.514 -2.96307 3.49237 0
M  V30 5568 N 545.005 -3.03887 3.49581 0
M  V30 5569 C 545.74 -3.67456 4.40186 0
M  V30 5570 N 545.236 -4.32706 5.41052 0
M  V30 5571 N 547.029 -3.64511 4.27888 0
M  V30 5572 H 539.18 -0.452294 2.07528 0
M  V30 5573 H 541.443 -0.262521 0.910926 0
M  V30 5574 H 541.149 -1.52847 3.1675 0
M  V30 5575 H 541.023 -3.02278 2.25628 0
M  V30 5576 H 543.41 -2.62537 1.34753 0
M  V30 5577 H 543.491 -1.13238 2.2937 0
M  V30 5578 H 543.135 -2.49091 4.42624 0
M  V30 5579 H 543.065 -3.97905 3.44933 0
M  V30 5580 H 545.556 -2.57477 2.76611 0
M  V30 5581 H 545.869 -4.79042 6.06415 0
M  V30 5582 H 544.214 -4.31361 5.44934 0
M  V30 5583 H 547.405 -3.12715 3.4832 0
M  V30 5584 H 547.578 -4.13768 4.98698 0
M  V30 5585 N 540.985 -1.06182 -1.16461 0
M  V30 5586 C 542.231 -0.779015 -1.87241 0
M  V30 5587 C 542.564 0.692715 -1.81425 0
M  V30 5588 O 541.839 1.5074 -1.22913 0
M  V30 5589 C 542.122 -1.2728 -3.36856 0
M  V30 5590 C 541.975 -2.80821 -3.51368 0
M  V30 5591 C 543.294 -0.879799 -4.31216 0
M  V30 5592 H 540.413 -0.284464 -0.679889 0
M  V30 5593 H 543.055 -1.31755 -1.36896 0
M  V30 5594 H 541.205 -0.814673 -3.79862 0
M  V30 5595 H 542.877 -3.34833 -3.17308 0
M  V30 5596 H 541.12 -3.19606 -2.93316 0
M  V30 5597 H 541.791 -3.10435 -4.56436 0
M  V30 5598 H 544.267 -1.27436 -3.96105 0
M  V30 5599 H 543.143 -1.25278 -5.34412 0
M  V30 5600 H 543.404 0.215372 -4.41575 0
M  V30 5601 N 542.463 1.3308 -0.844243 0
M  V30 5602 C 543.703 1.99414 -0.448697 0
M  V30 5603 C 544.067 1.65398 0.975058 0
M  V30 5604 O 545.268 2.24741 1.47461 0
M  V30 5605 C 543.539 3.51081 -0.669089 0
M  V30 5606 S 545.098 4.37241 -0.369564 0
M  V30 5607 H 541.916 0.690736 -0.168538 0
M  V30 5608 H 544.518 1.61977 -1.0947 0
M  V30 5609 H 543.222 3.73326 -1.70457 0
M  V30 5610 H 542.753 3.93399 -0.00913211 0
M  V30 5611 H 544.768 4.89568 0.808552 0
M  V30 5612 N 543.941 0.601185 1.45683 0
M  V30 5613 C 544.889 -0.133955 2.32214 0
M  V30 5614 C 545.883 -0.866034 1.45589 0
M  V30 5615 O 547.089 -0.782326 1.6211 0
M  V30 5616 H 543.464 -0.0620613 0.749435 0
M  V30 5617 H 545.435 0.614389 2.92007 0
M  V30 5618 C 544.184 -1.12216 3.29094 0
M  V30 5619 H 543.507 -0.568273 3.95741 0
M  V30 5620 H 544.947 -1.60659 3.92383 0
M  V30 5621 C 543.406 -2.19251 2.55794 0
M  V30 5622 O 543.936 -3.26894 2.33459 0
M  V30 5623 N 542.142 -1.9436 2.16039 0
M  V30 5624 H 541.689 -1.06829 2.34404 0
M  V30 5625 H 541.647 -2.66181 1.67318 0
M  V30 5626 N 545.419 -1.53889 0.339982 0
M  V30 5627 C 546.349 -2.27843 -0.510856 0
M  V30 5628 C 547.33 -1.29267 -1.10563 0
M  V30 5629 O 548.515 -1.58104 -1.12768 0
M  V30 5630 C 545.645 -3.04857 -1.66372 0
M  V30 5631 C 544.599 -4.10907 -1.19746 0
M  V30 5632 C 543.925 -4.75855 -2.43857 0
M  V30 5633 C 545.225 -5.21435 -0.300501 0
M  V30 5634 H 546.919 -2.99212 0.106067 0
M  V30 5635 H 544.465 -1.43904 0.0524533 0
M  V30 5636 H 546.418 -3.5533 -2.26537 0
M  V30 5637 H 545.142 -2.31133 -2.30749 0
M  V30 5638 H 543.801 -3.61342 -0.618654 0
M  V30 5639 H 543.449 -3.9873 -3.06633 0
M  V30 5640 H 543.149 -5.47502 -2.13343 0
M  V30 5641 H 544.673 -5.2911 -3.04754 0
M  V30 5642 H 546.087 -5.67565 -0.80889 0
M  V30 5643 H 544.484 -6.00036 -0.0874076 0
M  V30 5644 H 545.554 -4.80328 0.664321 0
M  V30 5645 N 546.897 -0.0685191 -1.57451 0
M  V30 5646 C 548.146 0.600898 -1.92541 0
M  V30 5647 C 548.459 1.70967 -0.950239 0
M  V30 5648 O 549.665 2.43844 -1.19384 0
M  V30 5649 C 548.121 1.12019 -3.42023 0
M  V30 5650 C 547.729 0.0426028 -4.4798 0
M  V30 5651 C 549.473 1.76386 -3.86119 0
M  V30 5652 C 547.38 0.575759 -5.88591 0
M  V30 5653 H 546.31 0.228225 -0.71863 0
M  V30 5654 H 548.961 -0.140223 -1.82963 0
M  V30 5655 H 547.343 1.91418 -3.46663 0
M  V30 5656 H 548.517 -0.73182 -4.54952 0
M  V30 5657 H 546.832 -0.504642 -4.13331 0
M  V30 5658 H 549.429 2.17302 -4.88553 0
M  V30 5659 H 549.772 2.62255 -3.23308 0
M  V30 5660 H 550.305 1.03615 -3.84069 0
M  V30 5661 H 547.044 -0.245691 -6.55039 0
M  V30 5662 H 546.564 1.31778 -5.85145 0
M  V30 5663 H 548.243 1.0532 -6.3837 0
M  V30 5664 N 548.375 1.56261 0.205012 0
M  V30 5665 C 549.652 1.70856 0.952233 0
M  V30 5666 C 550.032 0.620501 2.01775 0
M  V30 5667 O 549.38 -0.370035 2.25484 0
M  V30 5668 C 549.59 3.12807 1.54767 0
M  V30 5669 C 550.938 3.72733 2.0336 0
M  V30 5670 O 551.962 3.15873 1.64629 0
M  V30 5671 O 550.821 4.72501 2.746 0
M  V30 5672 H 547.915 0.696496 0.445895 0
M  V30 5673 H 550.461 1.6857 0.195489 0
M  V30 5674 H 549.233 3.83465 0.779132 0
M  V30 5675 H 548.856 3.1928 2.36951 0
M  V30 5676 N 549.853 -0.472356 1.50355 0
M  V30 5677 C 551.078 -1.25251 1.65309 0
M  V30 5678 C 551.503 -1.85081 0.335643 0
M  V30 5679 O 550.861 -1.67227 -0.700335 0
M  V30 5680 C 550.909 -2.3379 2.74544 0
M  V30 5681 O 550.013 -3.38401 2.35709 0
M  V30 5682 H 549.354 -0.368539 0.552336 0
M  V30 5683 H 551.884 -0.562271 1.96722 0
M  V30 5684 H 551.894 -2.79121 2.97583 0
M  V30 5685 H 550.569 -1.89614 3.70161 0
M  V30 5686 H 549.146 -2.9879 2.23112 0
M  V30 5687 N 551.331 -1.39911 -0.725443 0
M  V30 5688 C 552.579 -1.37382 -1.48224 0
M  V30 5689 C 552.9 0.0264107 -1.94982 0
M  V30 5690 O 552.17 0.979408 -1.6966 0
M  V30 5691 H 550.75 -0.505596 -0.549892 0
M  V30 5692 H 553.412 -1.7487 -0.860608 0
M  V30 5693 H 552.508 -2.04254 -2.3598 0
M  V30 5694 N 552.809 0.956637 -1.25245 0
M  V30 5695 C 554.037 1.73571 -1.12608 0
M  V30 5696 C 554.452 1.86063 0.320324 0
M  V30 5697 O 553.809 1.35691 1.22042 0
M  V30 5698 C 553.86 3.15053 -1.77268 0
M  V30 5699 O 553.581 3.03174 -3.16255 0
M  V30 5700 C 555.082 4.09248 -1.70386 0
M  V30 5701 H 552.302 0.543955 -0.392879 0
M  V30 5702 H 554.846 1.20031 -1.65568 0
M  V30 5703 H 553.001 3.65543 -1.28284 0
M  V30 5704 H 553.415 3.9241 -3.48015 0
M  V30 5705 H 554.889 5.06138 -2.20291 0
M  V30 5706 H 555.366 4.34102 -0.667239 0
M  V30 5707 H 555.972 3.64672 -2.18849 0
M  V30 5708 N 554.287 1.06798 1.15896 0
M  V30 5709 C 555.234 0.683314 2.20453 0
M  V30 5710 C 556.204 -0.32255 1.62938 0
M  V30 5711 O 557.389 -0.210276 1.89638 0
M  V30 5712 C 554.529 0.0813266 3.45004 0
M  V30 5713 C 553.642 1.13799 4.16742 0
M  V30 5714 C 552.777 0.501598 5.28826 0
M  V30 5715 C 551.816 1.54144 5.92373 0
M  V30 5716 N 550.953 0.928038 6.9594 0
M  V30 5717 H 555.793 1.57932 2.52708 0
M  V30 5718 H 553.33 0.789544 1.24115 0
M  V30 5719 H 555.288 -0.285274 4.16224 0
M  V30 5720 H 553.918 -0.77806 3.13283 0
M  V30 5721 H 552.97 1.62223 3.44075 0
M  V30 5722 H 554.282 1.92664 4.60089 0
M  V30 5723 H 553.436 0.0823162 6.06644 0
M  V30 5724 H 552.175 -0.318883 4.86656 0
M  V30 5725 H 551.18 1.97056 5.13273 0
M  V30 5726 H 552.405 2.3641 6.36621 0
M  V30 5727 H 550.351 0.12836 6.55874 0
M  V30 5728 H 550.268 1.65401 7.37685 0
M  V30 5729 H 551.536 0.534071 7.77668 0
M  V30 5730 N 555.766 -1.3263 0.851289 0
M  V30 5731 C 556.676 -2.32722 0.296268 0
M  V30 5732 C 557.692 -1.63901 -0.584162 0
M  V30 5733 O 558.868 -1.95465 -0.485334 0
M  V30 5734 C 555.933 -3.42942 -0.509103 0
M  V30 5735 C 554.994 -4.2746 0.397069 0
M  V30 5736 C 554.227 -5.32416 -0.36996 0
M  V30 5737 O 554.45 -5.47491 -1.6003 0
M  V30 5738 O 553.384 -6.01327 0.262493 0
M  V30 5739 H 557.21 -2.82078 1.12543 0
M  V30 5740 H 554.795 -1.36194 0.614135 0
M  V30 5741 H 556.677 -4.1017 -0.96634 0
M  V30 5742 H 555.352 -2.95781 -1.31512 0
M  V30 5743 H 554.259 -3.63053 0.902411 0
M  V30 5744 H 555.592 -4.78136 1.16818 0
M  V30 5745 N 557.244 -0.608902 -1.45362 0
M  V30 5746 C 558.492 -0.104401 -2.0183 0
M  V30 5747 C 558.813 1.27007 -1.47967 0
M  V30 5748 O 558.083 1.83924 -0.674455 0
M  V30 5749 H 556.663 -0.0356042 -0.746151 0
M  V30 5750 H 559.325 -0.790596 -1.78145 0
M  V30 5751 H 558.421 -0.0551793 -3.12051 0
M  V30 5752 N 558.722 1.53707 -0.348139 0
M  V30 5753 C 559.685 2.23812 0.494058 0
M  V30 5754 C 560.685 1.23989 1.02388 0
M  V30 5755 O 561.875 1.48395 0.912396 0
M  V30 5756 C 559.007 2.96133 1.68872 0
M  V30 5757 H 560.2 2.99663 -0.119141 0
M  V30 5758 H 557.753 1.55983 -0.0995539 0
M  V30 5759 H 558.488 2.24481 2.34049 0
M  V30 5760 H 558.273 3.69357 1.31596 0
M  V30 5761 H 559.763 3.49475 2.28597 0
M  V30 5762 N 560.2 0.0768682 1.57412 0
M  V30 5763 C 561.425 -0.603404 1.98428 0
M  V30 5764 C 561.85 -1.62047 0.955108 0
M  V30 5765 O 561.208 -1.81129 -0.0786778 0
M  V30 5766 C 561.256 -1.24396 3.38464 0
M  V30 5767 O 560.36 -2.35982 3.3821 0
M  V30 5768 H 559.701 -0.154741 0.645718 0
M  V30 5769 H 562.231 0.152885 2.04028 0
M  V30 5770 H 562.241 -1.5896 3.7576 0
M  V30 5771 H 560.916 -0.498735 4.12899 0
M  V30 5772 H 559.493 -2.03173 3.1269 0
M  V30 5773 N 561.678 -1.56367 -0.196722 0
M  V30 5774 C 562.927 -1.79724 -0.915539 0
M  V30 5775 C 563.24 -0.649804 -1.84491 0
M  V30 5776 O 564.446 -0.767631 -2.60422 0
M  V30 5777 C 562.902 -3.18369 -1.67836 0
M  V30 5778 C 562.51 -4.4091 -0.793897 0
M  V30 5779 C 564.254 -3.51037 -2.38691 0
M  V30 5780 C 562.161 -5.70577 -1.55549 0
M  V30 5781 H 561.091 -0.67013 -0.345604 0
M  V30 5782 H 563.742 -1.82721 -0.168856 0
M  V30 5783 H 562.124 -3.09617 -2.46887 0
M  V30 5784 H 563.298 -4.60781 -0.042163 0
M  V30 5785 H 561.613 -4.15937 -0.19626 0
M  V30 5786 H 564.21 -4.4515 -2.96219 0
M  V30 5787 H 564.553 -2.74704 -3.12799 0
M  V30 5788 H 565.086 -3.61229 -1.66608 0
M  V30 5789 H 561.825 -6.49871 -0.857226 0
M  V30 5790 H 561.345 -5.54726 -2.2812 0
M  V30 5791 H 563.024 -6.11637 -2.10971 0
M  V30 5792 N 563.156 0.464375 -1.50603 0
M  V30 5793 C 564.086 1.56944 -1.72889 0
M  V30 5794 C 565.067 1.59979 -0.577997 0
M  V30 5795 O 566.252 1.76138 -0.817855 0
M  V30 5796 C 563.382 2.95225 -1.8292 0
M  V30 5797 C 562.336 3.07056 -2.98162 0
M  V30 5798 C 561.662 4.47051 -2.93343 0
M  V30 5799 C 562.962 2.83648 -4.38567 0
M  V30 5800 H 564.656 1.38547 -2.65415 0
M  V30 5801 H 562.202 0.665082 -1.27721 0
M  V30 5802 H 564.155 3.72467 -1.97095 0
M  V30 5803 H 562.879 3.14793 -0.870209 0
M  V30 5804 H 561.538 2.32248 -2.83648 0
M  V30 5805 H 561.186 4.63547 -1.95276 0
M  V30 5806 H 560.886 4.55902 -3.70712 0
M  V30 5807 H 562.41 5.26304 -3.09575 0
M  V30 5808 H 563.824 3.50636 -4.53572 0
M  V30 5809 H 562.221 3.03937 -5.17438 0
M  V30 5810 H 563.291 1.79451 -4.50472 0
M  V30 5811 N 564.634 1.40294 0.718013 0
M  V30 5812 C 565.564 1.43118 1.84498 0
M  V30 5813 C 566.545 0.292403 1.67568 0
M  V30 5814 O 567.73 0.500675 1.87635 0
M  V30 5815 C 564.86 1.29065 3.22427 0
M  V30 5816 C 563.814 2.40521 3.54025 0
M  V30 5817 C 563.14 2.11546 4.91073 0
M  V30 5818 C 564.44 3.82859 3.55269 0
M  V30 5819 H 566.134 2.37432 1.82391 0
M  V30 5820 H 563.68 1.14283 0.87609 0
M  V30 5821 H 565.633 1.29658 4.00957 0
M  V30 5822 H 564.357 0.312271 3.25104 0
M  V30 5823 H 563.016 2.39173 2.77834 0
M  V30 5824 H 562.664 1.12104 4.90348 0
M  V30 5825 H 562.364 2.86216 5.1318 0
M  V30 5826 H 563.888 2.13817 5.71939 0
M  V30 5827 H 565.302 3.86044 4.23843 0
M  V30 5828 H 563.699 4.57029 3.88902 0
M  V30 5829 H 564.769 4.12617 2.54706 0
M  V30 5830 N 566.112 -0.949982 1.2575 0
M  V30 5831 C 567.389 -1.6718 1.01539 0
M  V30 5832 C 567.769 -2.06095 -0.456942 0
M  V30 5833 O 567.117 -1.77792 -1.43534 0
M  V30 5834 C 567.327 -2.8906 1.95564 0
M  V30 5835 C 568.675 -3.60909 2.23673 0
M  V30 5836 O 569.699 -2.9915 1.9336 0
M  V30 5837 O 568.558 -4.72127 2.75243 0
M  V30 5838 H 565.652 -0.731697 0.385419 0
M  V30 5839 H 568.198 -1.00249 1.36924 0
M  V30 5840 H 566.97 -2.57128 2.94959 0
M  V30 5841 H 566.593 -3.63719 1.60605 0
M  V30 5842 N 567.59 -1.07411 -1.15328 0
M  V30 5843 C 568.838 -0.796073 -1.85761 0
M  V30 5844 C 569.159 0.679864 -1.82764 0
M  V30 5845 O 568.429 1.49242 -1.269 0
M  V30 5846 H 567.009 -0.291495 -0.687779 0
M  V30 5847 H 569.671 -1.35799 -1.39802 0
M  V30 5848 H 568.767 -1.13114 -2.90881 0
M  V30 5849 N 569.068 1.32177 -0.85831 0
M  V30 5850 C 570.484 1.49873 -0.548656 0
M  V30 5851 C 570.684 1.79278 0.919874 0
M  V30 5852 O 569.74 1.86451 1.70271 0
M  V30 5853 C 571.053 2.64043 -1.4388 0
M  V30 5854 C 572.601 2.77928 -1.43961 0
M  V30 5855 C 573.076 3.95182 -2.31506 0
M  V30 5856 N 574.567 4.0245 -2.29321 0
M  V30 5857 C 575.302 4.9242 -2.93786 0
M  V30 5858 N 574.798 5.87373 -3.67376 0
M  V30 5859 N 576.591 4.85572 -2.83155 0
M  V30 5860 H 568.742 1.11357 -1.80868 0
M  V30 5861 H 571.005 0.549175 -0.772729 0
M  V30 5862 H 570.711 2.49055 -2.48324 0
M  V30 5863 H 570.585 3.59912 -1.12885 0
M  V30 5864 H 572.972 2.92338 -0.402813 0
M  V30 5865 H 573.053 1.82762 -1.78974 0
M  V30 5866 H 572.697 3.81531 -3.35256 0
M  V30 5867 H 572.627 4.89633 -1.93823 0
M  V30 5868 H 575.118 3.34507 -1.75822 0
M  V30 5869 H 575.431 6.52728 -4.13722 0
M  V30 5870 H 573.776 5.87388 -3.71484 0
M  V30 5871 H 576.967 4.10363 -2.25211 0
M  V30 5872 H 577.14 5.55486 -3.33676 0
M  V30 5873 N 570.547 0.616602 1.45037 0
M  V30 5874 C 571.494 -0.0969439 2.30596 0
M  V30 5875 C 572.464 -0.851151 1.42635 0
M  V30 5876 O 573.649 -0.835092 1.71554 0
M  V30 5877 C 570.789 -1.08234 3.27688 0
M  V30 5878 C 569.902 -0.328072 4.30752 0
M  V30 5879 C 569.037 -1.30399 5.14946 0
M  V30 5880 C 568.076 -0.538049 6.09731 0
M  V30 5881 N 567.213 -1.46371 6.86673 0
M  V30 5882 H 572.053 0.63864 2.91076 0
M  V30 5883 H 569.59 0.326733 1.43425 0
M  V30 5884 H 571.548 -1.66688 3.82454 0
M  V30 5885 H 570.178 -1.78523 2.68941 0
M  V30 5886 H 569.23 0.372136 3.78575 0
M  V30 5887 H 570.542 0.269142 4.98073 0
M  V30 5888 H 569.696 -1.96032 5.74157 0
M  V30 5889 H 568.435 -1.93514 4.47665 0
M  V30 5890 H 567.44 0.131852 5.49642 0
M  V30 5891 H 568.665 0.0881732 6.79043 0
M  V30 5892 H 566.611 -2.08233 6.22073 0
M  V30 5893 H 566.528 -0.920152 7.50379 0
M  V30 5894 H 567.796 -2.10932 7.50418 0
M  V30 5895 N 572.025 -1.5352 0.356285 0
M  V30 5896 C 573.274 -2.00298 -0.237373 0
M  V30 5897 C 573.587 -1.24784 -1.50627 0
M  V30 5898 O 574.793 -1.62103 -2.17795 0
M  V30 5899 C 573.249 -3.56771 -0.473545 0
M  V30 5900 C 572.857 -4.41154 0.780183 0
M  V30 5901 C 574.601 -4.1193 -1.02537 0
M  V30 5902 C 572.508 -5.89161 0.514108 0
M  V30 5903 H 571.438 -0.748307 -0.092478 0
M  V30 5904 H 574.089 -1.77283 0.473588 0
M  V30 5905 H 572.471 -3.75902 -1.24553 0
M  V30 5906 H 573.645 -4.33797 1.55425 0
M  V30 5907 H 571.96 -3.97052 1.25455 0
M  V30 5908 H 574.557 -5.20133 -1.2396 0
M  V30 5909 H 574.9 -3.65943 -1.98473 0
M  V30 5910 H 575.433 -3.96561 -0.313775 0
M  V30 5911 H 572.172 -6.39408 1.44355 0
M  V30 5912 H 571.692 -5.9939 -0.221632 0
M  V30 5913 H 573.371 -6.46857 0.136122 0
M  V30 5914 N 573.503 -0.0852151 -1.57369 0
M  V30 5915 C 574.45 0.877268 -2.13478 0
M  V30 5916 C 575.42 1.28642 -1.05073 0
M  V30 5917 O 576.605 1.36992 -1.32808 0
M  V30 5918 C 573.745 2.13464 -2.71159 0
M  V30 5919 C 572.858 1.77691 -3.93764 0
M  V30 5920 C 571.993 2.98139 -4.39643 0
M  V30 5921 C 571.032 2.58447 -5.54862 0
M  V30 5922 N 570.169 3.71698 -5.95639 0
M  V30 5923 H 575.009 0.391933 -2.95411 0
M  V30 5924 H 572.546 0.181796 -1.45972 0
M  V30 5925 H 574.504 2.87086 -3.02717 0
M  V30 5926 H 573.134 2.59514 -1.91969 0
M  V30 5927 H 572.186 0.940768 -3.68583 0
M  V30 5928 H 573.498 1.44497 -4.77412 0
M  V30 5929 H 572.652 3.80026 -4.72933 0
M  V30 5930 H 571.391 3.34536 -3.54876 0
M  V30 5931 H 570.396 1.74984 -5.21211 0
M  V30 5932 H 571.621 2.23205 -6.41371 0
M  V30 5933 H 569.567 4.07831 -5.13819 0
M  V30 5934 H 569.484 3.42317 -6.74059 0
M  V30 5935 H 570.752 4.54123 -6.33555 0
M  V30 5936 N 574.981 1.5647 0.188427 0
M  V30 5937 C 576.227 1.81281 0.909124 0
M  V30 5938 C 576.56 0.66034 1.82628 0
M  V30 5939 O 575.835 -0.338737 1.91528 0
M  V30 5940 C 576.118 3.16388 1.7196 0
M  V30 5941 C 575.971 4.42137 0.826714 0
M  V30 5942 C 577.29 3.48256 2.69083 0
M  V30 5943 H 574.409 0.659457 0.329068 0
M  V30 5944 H 577.051 1.89182 0.176156 0
M  V30 5945 H 575.201 3.09784 2.34448 0
M  V30 5946 H 576.873 4.60794 0.216025 0
M  V30 5947 H 575.116 4.33594 0.133792 0
M  V30 5948 H 575.787 5.33184 1.42893 0
M  V30 5949 H 578.263 3.55203 2.16726 0
M  V30 5950 H 577.139 4.43899 3.2287 0
M  V30 5951 H 577.4 2.72088 3.48455 0
M  V30 5952 N 576.459 -0.456382 1.50847 0
M  V30 5953 C 577.406 -1.55249 1.70782 0
M  V30 5954 C 578.376 -1.56757 0.549231 0
M  V30 5955 O 579.561 -1.74061 0.7815 0
M  V30 5956 C 576.701 -2.93118 1.82143 0
M  V30 5957 C 575.814 -3.01285 3.09598 0
M  V30 5958 C 574.949 -4.30159 3.11667 0
M  V30 5959 C 573.988 -4.32124 4.33515 0
M  V30 5960 N 573.125 -5.52492 4.3324 0
M  V30 5961 H 577.965 -1.37555 2.64353 0
M  V30 5962 H 575.502 -0.668543 1.3103 0
M  V30 5963 H 577.46 -3.73088 1.86711 0
M  V30 5964 H 576.09 -3.09413 0.919978 0
M  V30 5965 H 575.142 -2.14096 3.14431 0
M  V30 5966 H 576.454 -2.98597 3.99551 0
M  V30 5967 H 575.608 -5.18489 3.15046 0
M  V30 5968 H 574.347 -4.35477 2.1957 0
M  V30 5969 H 573.352 -3.42189 4.30333 0
M  V30 5970 H 574.577 -4.28485 5.26856 0
M  V30 5971 H 572.523 -5.58567 3.44004 0
M  V30 5972 H 572.44 -5.51605 5.16979 0
M  V30 5973 H 573.708 -6.42906 4.40786 0
M  V30 5974 N 577.937 -1.40673 -0.710563 0
M  V30 5975 C 579.185 -1.38947 -1.46759 0
M  V30 5976 C 579.506 0.00572879 -1.94999 0
M  V30 5977 O 578.776 0.961358 -1.70689 0
M  V30 5978 H 577.356 -0.5114 -0.544499 0
M  V30 5979 H 580.018 -1.75773 -0.842012 0
M  V30 5980 H 579.114 -2.06745 -2.33801 0
M  V30 5981 N 579.415 0.9433 -1.26252 0
M  V30 5982 C 580.645 1.72117 -1.14277 0
M  V30 5983 C 581.053 1.86726 0.304944 0
M  V30 5984 O 580.396 1.3727 1.22076 0
M  V30 5985 C 580.458 3.14778 -1.73651 0
M  V30 5986 C 580.122 3.23561 -3.22734 0
M  V30 5987 C 581.119 3.07001 -4.19579 0
M  V30 5988 C 578.804 3.47019 -3.63157 0
M  V30 5989 C 580.798 3.13763 -5.54826 0
M  V30 5990 C 578.485 3.53416 -4.98538 0
M  V30 5991 C 579.483 3.36804 -5.94182 0
M  V30 5992 O 579.171 3.42906 -7.27098 0
M  V30 5993 H 578.903 0.545781 -0.398873 0
M  V30 5994 H 581.457 1.19123 -1.67328 0
M  V30 5995 H 579.687 3.69186 -1.1506 0
M  V30 5996 H 581.376 3.74469 -1.56613 0
M  V30 5997 H 582.142 2.88736 -3.89688 0
M  V30 5998 H 578.021 3.59006 -2.89199 0
M  V30 5999 H 581.565 3.00714 -6.29458 0
M  V30 6000 H 577.462 3.71201 -5.28091 0
M  V30 6001 H 578.23 3.59463 -7.35342 0
M  V30 6002 N 580.893 1.08022 1.14757 0
M  V30 6003 C 581.803 0.718292 2.23333 0
M  V30 6004 C 582.819 -0.273477 1.71837 0
M  V30 6005 O 583.995 -0.118406 2.01052 0
M  V30 6006 C 581.06 0.128855 3.4646 0
M  V30 6007 C 580.121 1.17473 4.12915 0
M  V30 6008 C 579.354 0.61333 5.30164 0
M  V30 6009 O 579.577 -0.568458 5.6756 0
M  V30 6010 O 578.511 1.3615 5.86299 0
M  V30 6011 H 582.337 1.62394 2.56636 0
M  V30 6012 H 579.922 0.853628 1.22611 0
M  V30 6013 H 581.804 -0.197249 4.20938 0
M  V30 6014 H 580.479 -0.750014 3.14891 0
M  V30 6015 H 579.386 1.5533 3.40328 0
M  V30 6016 H 580.719 2.02574 4.48581 0
M  V30 6017 N 582.371 -1.3172 0.865308 0
M  V30 6018 C 583.319 -2.30569 0.306674 0
M  V30 6019 C 584.313 -1.59317 -0.575724 0
M  V30 6020 O 585.519 -1.73961 -0.462343 0
M  V30 6021 H 581.894 -0.747681 0.0804834 0
M  V30 6022 H 583.865 -2.75165 1.15441 0
M  V30 6023 C 582.614 -3.44358 -0.480952 0
M  V30 6024 H 581.937 -3.99354 0.18876 0
M  V30 6025 H 583.377 -4.15652 -0.837241 0
M  V30 6026 C 581.836 -2.92574 -1.67039 0
M  V30 6027 O 582.366 -2.90954 -2.76964 0
M  V30 6028 N 580.572 -2.48835 -1.50097 0
M  V30 6029 H 580.119 -2.50353 -0.606738 0
M  V30 6030 H 580.077 -2.14543 -2.29823 0
M  V30 6031 N 583.85 -0.624285 -1.44708 0
M  V30 6032 C 585.098 -0.125802 -2.01708 0
M  V30 6033 C 585.418 1.2543 -1.49306 0
M  V30 6034 O 584.689 1.83198 -0.693924 0
M  V30 6035 H 583.269 -0.0435161 -0.745731 0
M  V30 6036 H 585.931 -0.809446 -1.77296 0
M  V30 6037 H 585.027 -0.0882734 -3.11975 0
M  V30 6038 N 585.328 1.53329 -0.364422 0
M  V30 6039 C 586.276 2.27212 0.497737 0
M  V30 6040 C 587.27 1.30146 1.08437 0
M  V30 6041 O 588.476 1.47778 1.0277 0
M  V30 6042 H 584.851 0.730329 0.179232 0
M  V30 6043 H 586.822 2.98037 -0.147182 0
M  V30 6044 C 585.571 3.07333 1.6261 0
M  V30 6045 H 584.894 3.81866 1.184 0
M  V30 6046 H 586.334 3.62209 2.20409 0
M  V30 6047 C 584.793 2.18102 2.56775 0
M  V30 6048 O 585.323 1.79104 3.59562 0
M  V30 6049 N 583.529 1.82759 2.25937 0
M  V30 6050 H 583.076 2.14671 1.42387 0
M  V30 6051 H 583.034 1.23342 2.89196 0
M  V30 6052 N 586.806 0.0935595 1.57322 0
M  V30 6053 C 588.053 -0.570509 1.94297 0
M  V30 6054 C 588.381 -1.68286 0.97519 0
M  V30 6055 O 587.636 -1.95699 -0.00548655 0
M  V30 6056 C 587.935 -1.16692 3.37813 0
M  V30 6057 C 587.601 -0.178509 4.50547 0
M  V30 6058 C 586.263 0.0933475 4.81109 0
M  V30 6059 C 588.615 0.496472 5.1883 0
M  V30 6060 C 585.943 1.0469 5.77284 0
M  V30 6061 C 588.295 1.43849 6.16028 0
M  V30 6062 C 586.959 1.71859 6.44997 0
M  V30 6063 H 586.229 -0.208764 0.710984 0
M  V30 6064 H 588.876 0.169066 1.90752 0
M  V30 6065 H 587.181 -1.98271 3.37929 0
M  V30 6066 H 588.878 -1.6884 3.63722 0
M  V30 6067 H 585.468 -0.400584 4.26724 0
M  V30 6068 H 589.652 0.299584 4.95395 0
M  V30 6069 H 584.908 1.27094 5.98044 0
M  V30 6070 H 589.082 1.96734 6.68034 0
M  V30 6071 H 586.709 2.45906 7.19329 0
M  V30 6072 N 588.284 -1.56567 -0.180126 0
M  V30 6073 C 589.53 -1.81761 -0.899497 0
M  V30 6074 C 589.863 -0.670015 -1.82276 0
M  V30 6075 O 589.138 0.328575 -1.91705 0
M  V30 6076 C 589.421 -3.17296 -1.7028 0
M  V30 6077 C 589.274 -4.4257 -0.803255 0
M  V30 6078 C 590.593 -3.49678 -2.67233 0
M  V30 6079 H 587.712 -0.661192 -0.325567 0
M  V30 6080 H 590.354 -1.89272 -0.16612 0
M  V30 6081 H 588.504 -3.11023 -2.32802 0
M  V30 6082 H 590.176 -4.60902 -0.191585 0
M  V30 6083 H 588.419 -4.33658 -0.110796 0
M  V30 6084 H 589.09 -5.33935 -1.40064 0
M  V30 6085 H 591.566 -3.56347 -2.14839 0
M  V30 6086 H 590.442 -4.45605 -3.20511 0
M  V30 6087 H 590.703 -2.73932 -3.47007 0
M  V30 6088 N 589.762 0.448376 -1.51087 0
M  V30 6089 C 591.01 1.19635 -1.62886 0
M  V30 6090 C 591.331 1.91977 -0.342024 0
M  V30 6091 O 590.601 1.85094 0.641636 0
M  V30 6092 H 589.181 0.444598 -0.600285 0
M  V30 6093 H 591.843 0.515138 -1.87969 0
M  V30 6094 H 590.939 1.93194 -2.45117 0
M  V30 6095 N 591.24 1.41047 0.703093 0
M  V30 6096 C 592.651 1.35657 1.28274 0
M  V30 6097 C 593.002 0.0360309 1.96167 0
M  V30 6098 O 592.127 -0.865833 1.98324 0
M  V30 6099 C 592.722 2.45707 2.33267 0
M  V30 6100 C 591.281 2.43738 2.86825 0
M  V30 6101 C 590.428 2.25941 1.60767 0
M  V30 6102 H 593.379 1.50672 0.49836 0
M  V30 6103 H 593.4 2.14333 3.14391 0
M  V30 6104 H 592.912 3.41805 1.83824 0
M  V30 6105 H 591.013 1.51375 3.40465 0
M  V30 6106 H 591.126 3.39779 3.37768 0
M  V30 6107 H 589.49 1.73681 1.86298 0
M  V30 6108 H 590.273 3.24054 1.1333 0
M  V30 6109 N 592.718 -0.936591 1.26751 0
M  V30 6110 C 593.946 -1.71758 1.15355 0
M  V30 6111 C 594.361 -1.86549 -0.290683 0
M  V30 6112 O 593.718 -1.37616 -1.19868 0
M  V30 6113 C 593.769 -3.12193 1.82258 0
M  V30 6114 O 593.49 -2.98105 3.21038 0
M  V30 6115 C 594.991 -4.06485 1.76875 0
M  V30 6116 H 592.211 -0.537636 0.401483 0
M  V30 6117 H 594.755 -1.17382 1.67457 0
M  V30 6118 H 592.91 -3.63456 1.34083 0
M  V30 6119 H 593.324 -3.86824 3.54214 0
M  V30 6120 H 594.798 -5.02569 2.28316 0
M  V30 6121 H 595.275 -4.32986 0.736216 0
M  V30 6122 H 595.881 -3.61144 2.24623 0
M  V30 6123 N 594.196 -1.08629 -1.14182 0
M  V30 6124 C 595.445 -0.812271 -1.84621 0
M  V30 6125 C 595.758 0.664313 -1.83973 0
M  V30 6126 O 596.964 1.05357 -2.50224 0
M  V30 6127 C 595.42 -1.4031 -3.31423 0
M  V30 6128 C 595.028 -2.91164 -3.40481 0
M  V30 6129 C 596.772 -1.20767 -4.06959 0
M  V30 6130 C 594.679 -3.43373 -4.81507 0
M  V30 6131 H 593.609 -0.30019 -0.691666 0
M  V30 6132 H 596.26 -1.30798 -1.28701 0
M  V30 6133 H 594.642 -0.835096 -3.87094 0
M  V30 6134 H 595.816 -3.5412 -2.94848 0
M  V30 6135 H 594.131 -3.09646 -2.78403 0
M  V30 6136 H 596.728 -1.57237 -5.11058 0
M  V30 6137 H 597.071 -0.147664 -4.16038 0
M  V30 6138 H 597.604 -1.74274 -3.57594 0
M  V30 6139 H 594.343 -4.48958 -4.77616 0
M  V30 6140 H 593.863 -2.85176 -5.27669 0
M  V30 6141 H 595.542 -3.40095 -5.50404 0
M  V30 6142 N 595.674 1.31259 -0.872281 0
M  V30 6143 C 596.923 1.95893 -0.480493 0
M  V30 6144 C 597.236 1.697 0.972688 0
M  V30 6145 O 598.442 2.28214 1.47073 0
M  V30 6146 C 596.898 3.50705 -0.808342 0
M  V30 6147 C 596.506 3.85735 -2.27844 0
M  V30 6148 C 598.25 4.21719 -0.485136 0
M  V30 6149 C 596.157 5.33668 -2.54858 0
M  V30 6150 H 595.087 0.733182 -0.175955 0
M  V30 6151 H 597.738 1.49396 -1.0655 0
M  V30 6152 H 596.12 3.95706 -0.152558 0
M  V30 6153 H 597.294 3.51686 -2.97748 0
M  V30 6154 H 595.609 3.27792 -2.56791 0
M  V30 6155 H 598.206 5.30559 -0.664166 0
M  V30 6156 H 598.549 4.12316 0.574592 0
M  V30 6157 H 599.082 3.82359 -1.09756 0
M  V30 6158 H 595.821 5.48109 -3.59523 0
M  V30 6159 H 595.341 5.69061 -1.8955 0
M  V30 6160 H 597.02 6.00958 -2.39706 0
M  V30 6161 N 597.152 0.631951 1.44375 0
M  V30 6162 C 598.377 0.142146 2.06912 0
M  V30 6163 C 598.802 -1.17456 1.4692 0
M  V30 6164 O 598.16 -1.72074 0.570975 0
M  V30 6165 C 598.208 0.0417952 3.60576 0
M  V30 6166 O 597.312 -1.00194 4.00044 0
M  V30 6167 H 596.653 0.0851491 0.658518 0
M  V30 6168 H 599.183 0.868863 1.85235 0
M  V30 6169 H 599.193 -0.148517 4.0773 0
M  V30 6170 H 597.868 1.0031 4.03622 0
M  V30 6171 H 596.445 -0.786131 3.64519 0
M  V30 6172 N 598.631 -1.53133 0.372548 0
M  V30 6173 C 599.579 -2.27473 -0.485681 0
M  V30 6174 C 600.573 -1.30719 -1.07745 0
M  V30 6175 O 601.779 -1.48321 -1.01985 0
M  V30 6176 H 598.154 -0.731269 -0.175356 0
M  V30 6177 H 600.125 -2.97955 0.162986 0
M  V30 6178 C 598.874 -3.08191 -1.60978 0
M  V30 6179 H 598.197 -3.82488 -1.16373 0
M  V30 6180 H 599.637 -3.63373 -2.18485 0
M  V30 6181 C 598.096 -2.19461 -2.55614 0
M  V30 6182 O 598.626 -1.81008 -3.58607 0
M  V30 6183 N 596.832 -1.83955 -2.24965 0
M  V30 6184 H 596.379 -2.15423 -1.41247 0
M  V30 6185 H 596.337 -1.24874 -2.88538 0
M  V30 6186 N 600.109 -0.101901 -1.5727 0
M  V30 6187 C 601.355 0.561027 -1.94885 0
M  V30 6188 C 601.688 1.6741 -0.984258 0
M  V30 6189 O 600.963 1.94491 -0.0184767 0
M  V30 6190 C 601.246 1.10982 -3.42571 0
M  V30 6191 C 601.099 0.00133418 -4.498 0
M  V30 6192 C 602.418 2.00608 -3.9172 0
M  V30 6193 H 599.537 0.202467 -0.708644 0
M  V30 6194 H 602.179 -0.173992 -1.89202 0
M  V30 6195 H 600.329 1.73621 -3.47546 0
M  V30 6196 H 602.001 -0.63322 -4.56933 0
M  V30 6197 H 600.244 -0.664143 -4.28686 0
M  V30 6198 H 600.915 0.426253 -5.50352 0
M  V30 6199 H 603.391 1.47864 -3.88941 0
M  V30 6200 H 602.267 2.3593 -4.95609 0
M  V30 6201 H 602.528 2.92608 -3.3141 0
M  V30 6202 N 601.587 1.56661 0.17182 0
M  V30 6203 C 602.534 1.96371 1.21273 0
M  V30 6204 C 603.504 0.82756 1.44016 0
M  V30 6205 O 604.689 1.08764 1.56764 0
M  V30 6206 C 601.829 2.32838 2.54716 0
M  V30 6207 C 600.942 3.59628 2.39356 0
M  V30 6208 C 600.077 3.85311 3.65662 0
M  V30 6209 C 599.116 5.0545 3.45234 0
M  V30 6210 N 598.253 5.27268 4.63608 0
M  V30 6211 H 603.093 2.85106 0.86709 0
M  V30 6212 H 600.63 1.41073 0.416744 0
M  V30 6213 H 602.588 2.52004 3.3249 0
M  V30 6214 H 601.218 1.47214 2.87277 0
M  V30 6215 H 600.27 3.4838 1.52761 0
M  V30 6216 H 601.582 4.4756 2.20207 0
M  V30 6217 H 600.736 4.04841 4.51872 0
M  V30 6218 H 599.475 2.95753 3.8779 0
M  V30 6219 H 598.48 4.85819 2.5741 0
M  V30 6220 H 599.705 5.96538 3.24529 0
M  V30 6221 H 597.651 4.40662 4.85956 0
M  V30 6222 H 597.568 6.09422 4.4737 0
M  V30 6223 H 598.836 5.51277 5.51103 0
M  V30 6224 N 603.065 -0.440357 1.51323 0
M  V30 6225 C 604.476 -1.02032 1.56353 0
M  V30 6226 C 604.827 -1.92382 0.385197 0
M  V30 6227 O 603.952 -2.10583 -0.498373 0
M  V30 6228 C 604.547 -1.85723 2.83359 0
M  V30 6229 C 603.106 -2.38774 2.90971 0
M  V30 6230 C 602.253 -1.17908 2.50984 0
M  V30 6231 H 605.204 -0.221744 1.57143 0
M  V30 6232 H 605.225 -2.71141 2.66951 0
M  V30 6233 H 604.737 -1.19939 3.69102 0
M  V30 6234 H 602.838 -3.08021 2.09651 0
M  V30 6235 H 602.951 -2.71778 3.94555 0
M  V30 6236 H 601.315 -1.52347 2.04114 0
M  V30 6237 H 602.098 -0.537393 3.39068 0
M  V30 6238 N 604.543 -1.41418 -0.695603 0
M  V30 6239 C 605.491 -1.43467 -1.83084 0
M  V30 6240 C 606.485 -0.312719 -1.66489 0
M  V30 6241 O 607.691 -0.484744 -1.7335 0
M  V30 6242 H 604.066 -0.448891 -0.603325 0
M  V30 6243 H 606.037 -2.39144 -1.78473 0
M  V30 6244 C 604.786 -1.3337 -3.21104 0
M  V30 6245 H 604.109 -2.18989 -3.3449 0
M  V30 6246 H 605.549 -1.38865 -4.00615 0
M  V30 6247 C 604.008 -0.0460484 -3.36869 0
M  V30 6248 O 604.538 0.909258 -3.91274 0
M  V30 6249 N 602.744 0.0300222 -2.90584 0
M  V30 6250 H 602.291 -0.748129 -2.46497 0
M  V30 6251 H 602.249 0.890991 -3.01511 0
M  V30 6252 N 606.021 0.929856 -1.27246 0
M  V30 6253 C 606.954 2.03069 -1.04106 0
M  V30 6254 C 607.932 1.62556 0.0378417 0
M  V30 6255 O 609.116 1.88197 -0.106869 0
M  V30 6256 C 606.243 3.33718 -0.578778 0
M  V30 6257 C 605.289 3.93209 -1.65193 0
M  V30 6258 S 606.122 4.26068 -3.24386 0
M  V30 6259 C 607.278 5.598 -2.79954 0
M  V30 6260 H 607.511 2.22386 -1.97311 0
M  V30 6261 H 605.044 1.07269 -1.11053 0
M  V30 6262 H 607.002 4.09261 -0.31874 0
M  V30 6263 H 605.663 3.12328 0.333182 0
M  V30 6264 H 604.856 4.87482 -1.27973 0
M  V30 6265 H 604.458 3.24243 -1.86393 0
M  V30 6266 H 606.75 6.39004 -2.25123 0
M  V30 6267 H 607.693 6.01917 -3.72963 0
M  V30 6268 H 608.101 5.20219 -2.19164 0
M  V30 6269 N 607.499 1.09233 1.13605 0
M  V30 6270 C 608.727 0.848908 1.88683 0
M  V30 6271 C 609.142 -0.599667 1.79024 0
M  V30 6272 O 608.499 -1.41265 1.15544 0
M  V30 6273 C 608.55 1.27273 3.38355 0
M  V30 6274 O 608.271 2.66449 3.47759 0
M  V30 6275 C 609.772 1.0614 4.30406 0
M  V30 6276 H 606.992 0.305549 0.597395 0
M  V30 6277 H 609.536 1.4538 1.43823 0
M  V30 6278 H 607.691 0.711776 3.80805 0
M  V30 6279 H 608.105 2.84264 4.40788 0
M  V30 6280 H 609.579 1.40725 5.33761 0
M  V30 6281 H 610.056 -0.000960332 4.392 0
M  V30 6282 H 610.662 1.60821 3.93722 0
M  V30 6283 N 608.977 -1.30795 0.87923 0
M  V30 6284 C 610.217 -1.98155 0.50141 0
M  V30 6285 C 610.581 -1.67925 -0.930863 0
M  V30 6286 O 611.782 -2.28572 -1.41451 0
M  V30 6287 C 610.053 -3.49184 0.761937 0
M  V30 6288 S 611.612 -4.36107 0.485361 0
M  V30 6289 H 608.43 -0.686025 0.186792 0
M  V30 6290 H 611.032 -1.59018 1.13726 0
M  V30 6291 H 609.736 -3.68676 1.80295 0
M  V30 6292 H 609.267 -3.93236 0.113432 0
M  V30 6293 H 611.282 -4.9154 -0.678467 0
M  V30 6294 N 610.455 -0.639598 -1.44038 0
M  V30 6295 C 611.685 -0.154586 -2.06021 0
M  V30 6296 C 612.093 1.17951 -1.47933 0
M  V30 6297 O 611.436 1.73627 -0.59994 0
M  V30 6298 C 611.498 0.0255459 -3.59491 0
M  V30 6299 C 611.162 -1.2317 -4.40089 0
M  V30 6300 C 612.159 -2.15735 -4.73027 0
M  V30 6301 C 609.844 -1.46949 -4.80324 0
M  V30 6302 C 611.838 -3.30382 -5.45093 0
M  V30 6303 C 609.525 -2.61891 -5.52138 0
M  V30 6304 C 610.523 -3.53433 -5.84443 0
M  V30 6305 O 610.211 -4.6637 -6.54793 0
M  V30 6306 H 609.943 -0.0808543 -0.671147 0
M  V30 6307 H 612.497 -0.876541 -1.85758 0
M  V30 6308 H 610.727 0.802733 -3.78276 0
M  V30 6309 H 612.416 0.466184 -4.03214 0
M  V30 6310 H 613.182 -1.98602 -4.42473 0
M  V30 6311 H 609.061 -0.765815 -4.54595 0
M  V30 6312 H 612.605 -4.01856 -5.70226 0
M  V30 6313 H 608.502 -2.78964 -5.82108 0
M  V30 6314 H 609.27 -4.6546 -6.73267 0
M  V30 6315 N 611.933 1.52934 -0.380664 0
M  V30 6316 C 612.88 2.26197 0.458641 0
M  V30 6317 C 613.85 1.27462 1.06502 0
M  V30 6318 O 615.035 1.56274 1.09467 0
M  V30 6319 C 612.175 3.06571 1.58456 0
M  V30 6320 C 611.288 4.20222 1.00189 0
M  V30 6321 C 610.423 4.88007 2.09815 0
M  V30 6322 C 609.462 5.93665 1.49092 0
M  V30 6323 N 608.599 6.55081 2.52613 0
M  V30 6324 H 613.439 2.975 -0.172595 0
M  V30 6325 H 610.976 1.4678 -0.0969426 0
M  V30 6326 H 612.934 3.51455 2.24801 0
M  V30 6327 H 611.564 2.37494 2.18624 0
M  V30 6328 H 610.616 3.79714 0.228292 0
M  V30 6329 H 611.928 4.96102 0.518064 0
M  V30 6330 H 611.082 5.36151 2.83948 0
M  V30 6331 H 609.821 4.11632 2.61555 0
M  V30 6332 H 608.826 5.44868 0.7348 0
M  V30 6333 H 610.051 6.71969 0.981582 0
M  V30 6334 H 607.997 5.8155 3.03538 0
M  V30 6335 H 607.914 7.26548 2.08961 0
M  V30 6336 H 609.182 7.07871 3.26402 0
M  V30 6337 N 613.412 0.11024 1.57214 0
M  V30 6338 C 614.322 -0.857077 2.18383 0
M  V30 6339 C 615.338 -1.29915 1.1575 0
M  V30 6340 O 616.514 -1.36394 1.48184 0
M  V30 6341 C 613.579 -2.09264 2.76423 0
M  V30 6342 C 612.64 -1.70333 3.94063 0
M  V30 6343 C 611.873 -2.87999 4.49324 0
M  V30 6344 O 612.096 -4.0317 4.03497 0
M  V30 6345 O 611.03 -2.6559 5.40135 0
M  V30 6346 H 614.856 -0.366561 3.0148 0
M  V30 6347 H 612.441 -0.114914 1.48957 0
M  V30 6348 H 614.323 -2.81644 3.13456 0
M  V30 6349 H 612.998 -2.57339 1.96363 0
M  V30 6350 H 611.905 -0.950864 3.61814 0
M  V30 6351 H 613.238 -1.27007 4.75531 0
M  V30 6352 N 614.89 -1.56749 -0.16351 0
M  V30 6353 C 615.8 -2.00255 -1.2221 0
M  V30 6354 C 616.816 -0.915194 -1.47987 0
M  V30 6355 O 617.992 -1.22342 -1.59982 0
M  V30 6356 C 615.057 -2.36035 -2.53946 0
M  V30 6357 C 614.118 -3.58637 -2.35962 0
M  V30 6358 C 613.351 -3.92701 -3.61416 0
M  V30 6359 O 613.574 -3.27632 -4.66919 0
M  V30 6360 O 612.508 -4.86019 -3.55062 0
M  V30 6361 H 616.334 -2.90586 -0.882794 0
M  V30 6362 H 613.919 -1.44721 -0.370978 0
M  V30 6363 H 615.801 -2.59982 -3.31643 0
M  V30 6364 H 614.476 -1.48863 -2.8744 0
M  V30 6365 H 613.383 -3.39898 -1.5627 0
M  V30 6366 H 614.716 -4.46374 -2.0739 0
M  V30 6367 N 616.368 0.432326 -1.51554 0
M  V30 6368 C 617.617 1.17831 -1.63703 0
M  V30 6369 C 617.93 1.92229 -0.36156 0
M  V30 6370 O 619.136 2.69069 -0.362495 0
M  V30 6371 C 617.592 2.14318 -2.89129 0
M  V30 6372 C 617.2 1.45544 -4.23699 0
M  V30 6373 C 618.944 2.89319 -3.10636 0
M  V30 6374 C 616.851 2.40545 -5.4027 0
M  V30 6375 H 615.781 0.443533 -0.60975 0
M  V30 6376 H 618.432 0.444878 -1.78026 0
M  V30 6377 H 616.814 2.91117 -2.68452 0
M  V30 6378 H 617.988 0.742693 -4.54775 0
M  V30 6379 H 616.303 0.826772 -4.0811 0
M  V30 6380 H 618.9 3.60495 -3.94902 0
M  V30 6381 H 619.243 3.50951 -2.23918 0
M  V30 6382 H 619.776 2.19625 -3.31677 0
M  V30 6383 H 616.515 1.83594 -6.29264 0
M  V30 6384 H 616.035 3.09859 -5.13563 0
M  V30 6385 H 617.714 3.01569 -5.72421 0
M  V30 6386 N 617.846 1.41785 0.688094 0
M  V30 6387 C 619.093 1.41544 1.44816 0
M  V30 6388 C 619.421 0.0271746 1.94481 0
M  V30 6389 O 618.676 -0.962235 1.7041 0
M  V30 6390 C 618.975 2.37532 2.67046 0
M  V30 6391 C 618.641 3.84209 2.35996 0
M  V30 6392 C 617.303 4.24165 2.27239 0
M  V30 6393 C 619.655 4.76785 2.10536 0
M  V30 6394 C 616.983 5.54695 1.91128 0
M  V30 6395 C 619.335 6.07644 1.75931 0
M  V30 6396 C 617.999 6.46613 1.65675 0
M  V30 6397 H 617.269 0.517945 0.529919 0
M  V30 6398 H 619.916 1.74635 0.785797 0
M  V30 6399 H 618.221 1.9772 3.38251 0
M  V30 6400 H 619.918 2.34615 3.25203 0
M  V30 6401 H 616.508 3.52567 2.4371 0
M  V30 6402 H 620.692 4.46714 2.16242 0
M  V30 6403 H 615.948 5.83762 1.81746 0
M  V30 6404 H 620.122 6.78874 1.55252 0
M  V30 6405 H 617.749 7.47668 1.37463 0
M  V30 6406 N 619.324 -0.923095 1.27737 0
M  V30 6407 C 620.572 -1.66797 1.14119 0
M  V30 6408 C 620.893 -1.92479 -0.312541 0
M  V30 6409 O 620.163 -1.53432 -1.218 0
M  V30 6410 H 618.743 -0.618196 0.419336 0
M  V30 6411 H 621.405 -1.10815 1.60331 0
M  V30 6412 H 620.501 -2.63424 1.67374 0
M  V30 6413 N 620.802 -1.09834 -1.13024 0
M  V30 6414 C 622.213 -0.855651 -1.65938 0
M  V30 6415 C 622.564 0.615159 -1.86307 0
M  V30 6416 O 621.689 1.47335 -1.58497 0
M  V30 6417 C 622.284 -1.5467 -3.01434 0
M  V30 6418 C 620.843 -1.35088 -3.51323 0
M  V30 6419 C 619.99 -1.6001 -2.26478 0
M  V30 6420 H 622.941 -1.25691 -0.968889 0
M  V30 6421 H 622.962 -0.982179 -3.67605 0
M  V30 6422 H 622.474 -2.61715 -2.86578 0
M  V30 6423 H 620.575 -0.30179 -3.71376 0
M  V30 6424 H 620.688 -2.0886 -4.31178 0
M  V30 6425 H 619.052 -1.02246 -2.33276 0
M  V30 6426 H 619.835 -2.68293 -2.14182 0
M  V30 6427 N 622.28 1.30327 -0.886154 0
M  V30 6428 C 623.526 1.96388 -0.505941 0
M  V30 6429 C 623.859 1.69784 0.942712 0
M  V30 6430 O 623.134 1.00322 1.6663 0
M  V30 6431 C 623.417 3.51488 -0.782826 0
M  V30 6432 C 623.27 3.87603 -2.28219 0
M  V30 6433 C 624.589 4.39331 -0.260128 0
M  V30 6434 H 621.708 0.713327 -0.185292 0
M  V30 6435 H 624.35 1.54178 -1.11036 0
M  V30 6436 H 622.5 3.87572 -0.268399 0
M  V30 6437 H 624.172 3.61537 -2.86512 0
M  V30 6438 H 622.415 3.3563 -2.74837 0
M  V30 6439 H 623.086 4.95806 -2.42653 0
M  V30 6440 H 625.562 4.10162 -0.700444 0
M  V30 6441 H 624.438 5.46769 -0.483179 0
M  V30 6442 H 624.699 4.34072 0.838674 0
M  V30 6443 N 623.758 0.647228 1.43697 0
M  V30 6444 C 624.688 -0.0345631 2.33474 0
M  V30 6445 C 625.669 -0.818193 1.4913 0
M  V30 6446 O 626.854 -0.780867 1.77809 0
M  V30 6447 C 623.984 -1.00576 3.32418 0
M  V30 6448 C 622.938 -0.33266 4.26705 0
M  V30 6449 C 622.264 -1.41489 5.1564 0
M  V30 6450 C 623.564 0.771204 5.16575 0
M  V30 6451 H 625.258 0.715163 2.90733 0
M  V30 6452 H 622.804 0.345364 1.39797 0
M  V30 6453 H 624.757 -1.49159 3.94119 0
M  V30 6454 H 623.481 -1.78657 2.73403 0
M  V30 6455 H 622.14 0.13267 3.6636 0
M  V30 6456 H 621.788 -2.18698 4.52968 0
M  V30 6457 H 621.488 -0.969799 5.79542 0
M  V30 6458 H 623.012 -1.9022 5.80214 0
M  V30 6459 H 624.426 0.36779 5.72119 0
M  V30 6460 H 622.823 1.1404 5.89165 0
M  V30 6461 H 623.893 1.63169 4.56622 0
M  V30 6462 N 625.236 -1.5273 0.388769 0
M  V30 6463 C 626.482 -2.01871 -0.193877 0
M  V30 6464 C 626.815 -1.27475 -1.46505 0
M  V30 6465 O 626.09 -0.375063 -1.90849 0
M  V30 6466 C 626.373 -3.5712 -0.462336 0
M  V30 6467 C 626.226 -4.42186 0.824091 0
M  V30 6468 C 627.545 -4.21881 -1.25319 0
M  V30 6469 H 624.664 -0.733764 -0.0689899 0
M  V30 6470 H 627.306 -1.82796 0.518231 0
M  V30 6471 H 625.456 -3.73504 -1.06896 0
M  V30 6472 H 627.128 -4.37554 1.46096 0
M  V30 6473 H 625.371 -4.09219 1.43952 0
M  V30 6474 H 626.042 -5.48828 0.590905 0
M  V30 6475 H 628.518 -4.0947 -0.73981 0
M  V30 6476 H 627.394 -5.30487 -1.40977 0
M  V30 6477 H 627.655 -3.79478 -2.26824 0
M  V30 6478 N 626.714 -0.118576 -1.57153 0
M  V30 6479 C 627.96 0.540326 -1.95469 0
M  V30 6480 C 628.293 1.66356 -1.00196 0
M  V30 6481 O 627.568 1.94461 -0.039104 0
M  V30 6482 C 627.851 1.07342 -3.43729 0
M  V30 6483 C 627.704 -0.0463732 -4.49776 0
M  V30 6484 C 629.023 1.96442 -3.93826 0
M  V30 6485 H 626.142 0.19494 -0.710751 0
M  V30 6486 H 628.784 -0.19405 -1.89006 0
M  V30 6487 H 626.934 1.69925 -3.49368 0
M  V30 6488 H 628.606 -0.681648 -4.56236 0
M  V30 6489 H 626.849 -0.709574 -4.27957 0
M  V30 6490 H 627.52 0.367856 -5.50773 0
M  V30 6491 H 629.996 1.43731 -3.90488 0
M  V30 6492 H 628.872 2.3066 -4.98084 0
M  V30 6493 H 629.133 2.89077 -3.34495 0
M  V30 6494 N 628.193 1.56834 0.155195 0
M  V30 6495 C 629.123 2.00678 1.19376 0
M  V30 6496 C 630.104 0.884973 1.45266 0
M  V30 6497 O 631.289 1.1522 1.56326 0
M  V30 6498 C 628.419 2.38042 2.5289 0
M  V30 6499 C 627.373 3.53332 2.41538 0
M  V30 6500 C 626.699 3.76485 3.79688 0
M  V30 6501 C 627.999 4.86265 1.9064 0
M  V30 6502 H 629.693 2.87688 0.829232 0
M  V30 6503 H 627.239 1.38407 0.397445 0
M  V30 6504 H 629.192 2.67314 3.25763 0
M  V30 6505 H 627.916 1.4796 2.91162 0
M  V30 6506 H 626.575 3.24213 1.71117 0
M  V30 6507 H 626.223 2.83667 4.15382 0
M  V30 6508 H 625.923 4.54068 3.72956 0
M  V30 6509 H 627.447 4.08174 4.54122 0
M  V30 6510 H 628.861 5.14308 2.53299 0
M  V30 6511 H 627.258 5.67597 1.94818 0
M  V30 6512 H 628.328 4.77184 0.861596 0
M  V30 6513 N 629.671 -0.424282 1.51781 0
M  V30 6514 C 630.581 -1.54087 1.76902 0
M  V30 6515 C 631.597 -1.61249 0.653826 0
M  V30 6516 O 632.773 -1.78247 0.937552 0
M  V30 6517 C 629.838 -2.8996 1.90063 0
M  V30 6518 C 628.899 -2.92809 3.13945 0
M  V30 6519 C 628.132 -4.22201 3.26469 0
M  V30 6520 O 628.355 -5.15286 2.44616 0
M  V30 6521 O 627.289 -4.31599 4.1953 0
M  V30 6522 H 631.115 -1.358 2.71647 0
M  V30 6523 H 628.7 -0.608618 1.36441 0
M  V30 6524 H 630.582 -3.70575 2.0063 0
M  V30 6525 H 629.257 -3.08347 0.985067 0
M  V30 6526 H 628.164 -2.11102 3.08847 0
M  V30 6527 H 629.497 -2.79369 4.05233 0
M  V30 6528 N 631.149 -1.42148 -0.680565 0
M  V30 6529 C 632.377 -1.45696 -1.46902 0
M  V30 6530 C 632.792 -0.0665858 -1.88683 0
M  V30 6531 O 632.149 0.917436 -1.57764 0
M  V30 6532 C 632.2 -2.37898 -2.72188 0
M  V30 6533 O 631.921 -3.71526 -2.32163 0
M  V30 6534 C 633.422 -2.50407 -3.65802 0
M  V30 6535 H 630.642 -0.495729 -0.45221 0
M  V30 6536 H 633.186 -1.866 -0.836709 0
M  V30 6537 H 631.341 -2.00263 -3.31622 0
M  V30 6538 H 631.755 -4.20849 -3.13027 0
M  V30 6539 H 633.229 -3.19056 -4.50452 0
M  V30 6540 H 633.706 -1.5401 -4.11312 0
M  V30 6541 H 634.312 -2.8874 -3.12265 0
M  V30 6542 N 632.627 0.916307 -1.28225 0
M  V30 6543 C 633.537 2.05165 -1.13775 0
M  V30 6544 C 634.553 1.73879 -0.0649418 0
M  V30 6545 O 635.729 1.99531 -0.273722 0
M  V30 6546 C 632.794 3.37385 -0.798267 0
M  V30 6547 C 631.855 3.82296 -1.95316 0
M  V30 6548 C 631.088 5.08206 -1.62978 0
M  V30 6549 O 631.311 5.6781 -0.542948 0
M  V30 6550 O 630.245 5.48768 -2.47261 0
M  V30 6551 H 634.071 2.20273 -2.09078 0
M  V30 6552 H 631.656 1.0373 -1.07519 0
M  V30 6553 H 633.538 4.16773 -0.62278 0
M  V30 6554 H 632.213 3.23458 0.125139 0
M  V30 6555 H 631.12 3.03746 -2.18378 0
M  V30 6556 H 632.453 4.00782 -2.85718 0
M  V30 6557 N 634.105 1.10431 1.1244 0
M  V30 6558 C 635.333 0.868872 1.87772 0
M  V30 6559 C 635.748 -0.580645 1.7965 0
M  V30 6560 O 635.105 -1.40031 1.17036 0
M  V30 6561 C 635.156 1.30855 3.36986 0
M  V30 6562 O 634.877 2.70123 3.44914 0
M  V30 6563 C 636.378 1.107 4.29256 0
M  V30 6564 H 633.598 0.311868 0.59412 0
M  V30 6565 H 636.142 1.46897 1.42273 0
M  V30 6566 H 634.297 0.752126 3.80029 0
M  V30 6567 H 634.711 2.88923 4.37748 0
M  V30 6568 H 636.185 1.46378 5.32238 0
M  V30 6569 H 636.662 0.0456228 4.39176 0
M  V30 6570 H 637.268 1.64988 3.91994 0
M  V30 6571 N 635.583 -1.29855 0.893053 0
M  V30 6572 C 636.513 -2.3035 0.382249 0
M  V30 6573 C 637.494 -1.61328 -0.539203 0
M  V30 6574 O 638.679 -1.88882 -0.451342 0
M  V30 6575 C 635.809 -3.45024 -0.396983 0
M  V30 6576 C 634.763 -4.258 0.433437 0
M  V30 6577 C 634.089 -5.32605 -0.472889 0
M  V30 6578 C 635.389 -4.94549 1.67984 0
M  V30 6579 H 637.083 -2.73325 1.22205 0
M  V30 6580 H 634.629 -1.314 0.589073 0
M  V30 6581 H 636.582 -4.14398 -0.765024 0
M  V30 6582 H 635.306 -3.00875 -1.2705 0
M  V30 6583 H 633.965 -3.58125 0.783723 0
M  V30 6584 H 633.613 -4.84702 -1.34435 0
M  V30 6585 H 633.313 -5.87547 0.0789958 0
M  V30 6586 H 634.837 -6.04832 -0.837269 0
M  V30 6587 H 636.251 -5.56395 1.38192 0
M  V30 6588 H 634.648 -5.59393 2.17254 0
M  V30 6589 H 635.718 -4.20215 2.41965 0
M  V30 6590 N 637.061 -0.65484 -1.43351 0
M  V30 6591 C 638.338 -0.0987371 -1.95351 0
M  V30 6592 C 638.718 1.38161 -1.59608 0
M  V30 6593 O 638.066 2.10791 -0.882021 0
M  V30 6594 C 638.276 -0.346684 -3.47274 0
M  V30 6595 C 639.624 -0.25249 -4.23849 0
M  V30 6596 O 640.648 -0.279332 -3.55103 0
M  V30 6597 O 639.507 -0.177584 -5.46211 0
M  V30 6598 H 636.601 0.0086829 -0.826954 0
M  V30 6599 H 639.147 -0.728189 -1.53282 0
M  V30 6600 H 637.919 -1.37296 -3.66423 0
M  V30 6601 H 637.542 0.315757 -3.96344 0
M  V30 6602 N 638.539 1.52521 -0.396863 0
M  V30 6603 C 639.449 2.30403 0.44178 0
M  V30 6604 C 640.465 1.37625 1.06468 0
M  V30 6605 O 641.641 1.70697 1.06886 0
M  V30 6606 C 638.706 3.1013 1.54986 0
M  V30 6607 C 637.767 4.18628 0.951279 0
M  V30 6608 C 637 4.94543 2.00655 0
M  V30 6609 O 637.223 4.70629 3.22281 0
M  V30 6610 O 636.157 5.797 1.61962 0
M  V30 6611 H 639.983 3.03087 -0.192892 0
M  V30 6612 H 637.568 1.48537 -0.16038 0
M  V30 6613 H 639.45 3.59816 2.19341 0
M  V30 6614 H 638.125 2.40251 2.16935 0
M  V30 6615 H 637.032 3.73119 0.270773 0
M  V30 6616 H 638.365 4.90763 0.375887 0
M  V30 6617 N 640.017 0.126909 1.57088 0
M  V30 6618 C 640.98 -0.806097 2.14557 0
M  V30 6619 C 641.98 -1.18918 1.08236 0
M  V30 6620 O 643.17 -1.11339 1.33975 0
M  V30 6621 C 640.302 -2.09116 2.69227 0
M  V30 6622 H 641.495 -0.306522 2.98329 0
M  V30 6623 H 639.048 -0.122393 1.5582 0
M  V30 6624 H 639.783 -2.63486 1.89065 0
M  V30 6625 H 639.568 -1.82588 3.46993 0
M  V30 6626 H 641.058 -2.75794 3.13572 0
M  V30 6627 N 641.495 -1.56914 -0.146875 0
M  V30 6628 C 642.744 -1.82546 -0.857898 0
M  V30 6629 C 643.057 -0.708169 -1.8233 0
M  V30 6630 O 644.263 -0.850093 -2.57848 0
M  V30 6631 C 642.719 -3.23548 -1.57623 0
M  V30 6632 C 642.327 -4.43212 -0.653224 0
M  V30 6633 C 644.071 -3.58453 -2.27402 0
M  V30 6634 C 641.978 -5.75237 -1.37318 0
M  V30 6635 H 640.908 -0.680786 -0.32411 0
M  V30 6636 H 643.559 -1.83166 -0.110639 0
M  V30 6637 H 641.941 -3.17315 -2.36912 0
M  V30 6638 H 643.115 -4.60682 0.104452 0
M  V30 6639 H 641.43 -4.16351 -0.0638336 0
M  V30 6640 H 644.027 -4.54349 -2.81907 0
M  V30 6641 H 644.37 -2.84516 -3.03901 0
M  V30 6642 H 644.903 -3.66347 -1.55032 0
M  V30 6643 H 641.642 -6.52269 -0.650041 0
M  V30 6644 H 641.162 -5.61703 -2.10357 0
M  V30 6645 H 642.841 -6.18039 -1.91406 0
M  V30 6646 N 642.974 0.416227 -1.52004 0
M  V30 6647 C 643.906 1.52552 -1.71058 0
M  V30 6648 C 644.919 1.51693 -0.59102 0
M  V30 6649 O 646.108 1.56087 -0.865973 0
M  V30 6650 C 643.208 2.91455 -1.72937 0
M  V30 6651 C 642.381 3.16584 -3.01816 0
M  V30 6652 C 641.44 4.35322 -2.95603 0
M  V30 6653 O 640.466 4.32947 -3.6952 0
M  V30 6654 N 641.668 5.40049 -2.12903 0
M  V30 6655 H 644.433 1.36604 -2.66757 0
M  V30 6656 H 641.994 0.60544 -1.50153 0
M  V30 6657 H 643.986 3.68944 -1.66321 0
M  V30 6658 H 642.556 3.00895 -0.847418 0
M  V30 6659 H 641.776 2.27203 -3.22137 0
M  V30 6660 H 643.064 3.30213 -3.87088 0
M  V30 6661 H 642.462 5.44823 -1.52265 0
M  V30 6662 H 641.019 6.16308 -2.1215 0
M  V30 6663 N 644.452 1.42507 0.673017 0
M  V30 6664 C 645.701 1.42364 1.42883 0
M  V30 6665 C 646.014 0.0441598 1.9555 0
M  V30 6666 O 647.22 -0.0798679 2.71382 0
M  V30 6667 C 645.676 2.5043 2.58482 0
M  V30 6668 C 645.284 3.94392 2.12506 0
M  V30 6669 C 647.028 2.59455 3.35981 0
M  V30 6670 C 644.935 4.93964 3.25198 0
M  V30 6671 H 643.865 0.52951 0.536782 0
M  V30 6672 H 646.516 1.68422 0.728448 0
M  V30 6673 H 644.898 2.1754 3.30896 0
M  V30 6674 H 646.072 4.36645 1.47233 0
M  V30 6675 H 644.387 3.89233 1.4794 0
M  V30 6676 H 646.984 3.31025 4.19912 0
M  V30 6677 H 647.327 1.63869 3.82691 0
M  V30 6678 H 647.86 2.91549 2.70637 0
M  V30 6679 H 644.599 5.91034 2.83477 0
M  V30 6680 H 644.119 4.56341 3.89247 0
M  V30 6681 H 645.798 5.15763 3.90637 0
M  V30 6682 N 645.93 -0.909495 1.28709 0
M  V30 6683 C 647.176 -1.66151 1.16283 0
M  V30 6684 C 647.509 -1.92067 -0.287069 0
M  V30 6685 O 646.784 -1.52409 -1.20837 0
M  V30 6686 C 647.067 -3.01676 1.9663 0
M  V30 6687 C 646.92 -2.82888 3.49707 0
M  V30 6688 C 648.239 -4.02274 1.78504 0
M  V30 6689 H 645.358 -0.602966 0.423793 0
M  V30 6690 H 648 -1.05418 1.58073 0
M  V30 6691 H 646.15 -3.53515 1.61119 0
M  V30 6692 H 647.822 -2.38026 3.95147 0
M  V30 6693 H 646.065 -2.17862 3.75125 0
M  V30 6694 H 646.736 -3.79147 4.01187 0
M  V30 6695 H 649.212 -3.59511 2.09503 0
M  V30 6696 H 648.088 -4.95056 2.37088 0
M  V30 6697 H 648.349 -4.35903 0.737647 0
M  V30 6698 N 647.408 -1.11026 -1.11852 0
M  V30 6699 C 648.356 -0.759643 -2.19846 0
M  V30 6700 C 649.35 0.246964 -1.6759 0
M  V30 6701 O 650.556 0.106693 -1.79684 0
M  V30 6702 H 646.931 -0.22775 -0.716683 0
M  V30 6703 H 648.902 -1.6792 -2.46669 0
M  V30 6704 C 647.651 -0.214364 -3.47039 0
M  V30 6705 H 646.974 -0.980175 -3.87599 0
M  V30 6706 H 648.414 -0.00717047 -4.23999 0
M  V30 6707 C 646.873 1.05436 -3.19976 0
M  V30 6708 O 647.403 2.13483 -3.40276 0
M  V30 6709 N 645.609 0.975436 -2.7374 0
M  V30 6710 H 645.156 0.0960853 -2.57421 0
M  V30 6711 H 645.114 1.82501 -2.5601 0
M  V30 6712 N 648.886 1.2938 -0.899927 0
M  V30 6713 C 649.834 2.29675 -0.367698 0
M  V30 6714 C 650.828 1.60787 0.533282 0
M  V30 6715 O 652.034 1.75126 0.416058 0
M  V30 6716 H 648.409 0.745284 -0.100279 0
M  V30 6717 H 650.38 2.72008 -1.22696 0
M  V30 6718 C 649.129 3.45512 0.389483 0
M  V30 6719 H 648.452 3.98713 -0.294575 0
M  V30 6720 H 649.892 4.17725 0.726744 0
M  V30 6721 C 648.351 2.969 1.59223 0
M  V30 6722 O 648.881 2.98195 2.69152 0
M  V30 6723 N 647.087 2.52728 1.43447 0
M  V30 6724 H 646.634 2.51873 0.540148 0
M  V30 6725 H 646.592 2.20561 2.24054 0
M  V30 6726 N 650.364 0.662433 1.43002 0
M  V30 6727 C 651.312 -0.035345 2.32573 0
M  V30 6728 C 652.306 -0.803505 1.49131 0
M  V30 6729 O 653.512 -0.712865 1.65282 0
M  V30 6730 H 649.887 -0.0302194 0.751393 0
M  V30 6731 H 651.858 0.737686 2.89138 0
M  V30 6732 C 650.607 -0.981575 3.33557 0
M  V30 6733 H 649.93 -0.399914 3.97795 0
M  V30 6734 H 651.37 -1.43873 3.98844 0
M  V30 6735 C 649.829 -2.08204 2.64863 0
M  V30 6736 O 650.359 -3.16698 2.47113 0
M  V30 6737 N 648.565 -1.85022 2.24088 0
M  V30 6738 H 648.112 -0.967909 2.38724 0
M  V30 6739 H 648.07 -2.58845 1.78457 0
M  V30 6740 N 651.842 -1.52309 0.404946 0
M  V30 6741 C 653.253 -1.86585 -0.0655926 0
M  V30 6742 C 653.604 -1.3239 -1.44801 0
M  V30 6743 O 652.729 -0.6615 -2.06042 0
M  V30 6744 C 653.324 -3.38566 -0.125801 0
M  V30 6745 C 651.883 -3.72497 -0.540666 0
M  V30 6746 C 651.03 -2.75806 0.287487 0
M  V30 6747 H 653.981 -1.45995 0.622185 0
M  V30 6748 H 654.002 -3.68658 -0.941888 0
M  V30 6749 H 653.514 -3.77981 0.880473 0
M  V30 6750 H 651.615 -3.38659 -1.55373 0
M  V30 6751 H 651.728 -4.78234 -0.287956 0
M  V30 6752 H 650.092 -2.53474 -0.249561 0
M  V30 6753 H 650.875 -3.18059 1.29203 0
M  V30 6754 N 653.32 -0.135238 -1.57019 0
M  V30 6755 C 654.55 0.525303 -1.9981 0
M  V30 6756 C 654.958 1.59724 -1.01415 0
M  V30 6757 O 654.301 1.837 -0.00130938 0
M  V30 6758 C 654.363 1.19578 -3.3903 0
M  V30 6759 C 654.027 0.269855 -4.56203 0
M  V30 6760 C 655.024 -0.497905 -5.1751 0
M  V30 6761 C 652.709 0.176188 -5.01991 0
M  V30 6762 C 654.703 -1.3469 -6.23007 0
M  V30 6763 C 652.39 -0.676422 -6.07345 0
M  V30 6764 C 653.388 -1.43658 -6.67721 0
M  V30 6765 O 653.076 -2.27501 -7.71037 0
M  V30 6766 H 652.808 0.142296 -0.660854 0
M  V30 6767 H 655.362 -0.223272 -2.04183 0
M  V30 6768 H 653.592 1.99176 -3.3146 0
M  V30 6769 H 655.281 1.75486 -3.66005 0
M  V30 6770 H 656.047 -0.435507 -4.83041 0
M  V30 6771 H 651.926 0.757583 -4.54733 0
M  V30 6772 H 655.47 -1.9407 -6.70062 0
M  V30 6773 H 651.367 -0.740154 -6.41243 0
M  V30 6774 H 652.135 -2.20619 -7.88206 0
M  V30 6775 N 654.798 1.5699 0.138552 0
M  V30 6776 C 656.046 1.83446 0.848053 0
M  V30 6777 C 656.367 0.71744 1.81322 0
M  V30 6778 O 655.637 -0.260228 1.94164 0
M  V30 6779 H 654.217 0.676792 0.316166 0
M  V30 6780 H 656.879 1.94462 0.130538 0
M  V30 6781 H 655.975 2.78677 1.40518 0
M  V30 6782 N 656.276 -0.40816 1.52223 0
M  V30 6783 C 657.224 -1.51788 1.76248 0
M  V30 6784 C 658.218 -1.57264 0.629638 0
M  V30 6785 O 659.424 -1.60659 0.811704 0
M  V30 6786 H 655.799 -0.504823 0.557367 0
M  V30 6787 H 657.77 -1.2871 2.69214 0
M  V30 6788 C 656.519 -2.89145 1.93107 0
M  V30 6789 H 655.842 -2.85674 2.79697 0
M  V30 6790 H 657.282 -3.66082 2.13916 0
M  V30 6791 C 655.741 -3.29581 0.698431 0
M  V30 6792 O 656.271 -4.01479 -0.133238 0
M  V30 6793 N 654.477 -2.85651 0.53405 0
M  V30 6794 H 654.024 -2.2731 1.21194 0
M  V30 6795 H 653.982 -3.13065 -0.289387 0
M  V30 6796 N 657.755 -1.42862 -0.66545 0
M  V30 6797 C 659.003 -1.43546 -1.42264 0
M  V30 6798 C 659.324 -0.0563116 -1.94919 0
M  V30 6799 O 658.594 0.906568 -1.73661 0
M  V30 6800 H 657.174 -0.528464 -0.527953 0
M  V30 6801 H 659.836 -1.78363 -0.785665 0
M  V30 6802 H 658.932 -2.14079 -2.27105 0
M  V30 6803 N 659.233 0.902656 -1.29189 0
M  V30 6804 C 660.461 1.68639 -1.19869 0
M  V30 6805 C 660.876 1.87254 0.241121 0
M  V30 6806 O 660.233 1.40745 1.16177 0
M  V30 6807 C 660.284 3.07251 -1.90471 0
M  V30 6808 O 660.005 2.89488 -3.28829 0
M  V30 6809 C 661.506 4.01653 -1.8759 0
M  V30 6810 H 658.726 0.526802 -0.415596 0
M  V30 6811 H 661.27 1.12901 -1.7051 0
M  V30 6812 H 659.425 3.59774 -1.43672 0
M  V30 6813 H 659.839 3.77296 -3.64346 0
M  V30 6814 H 661.313 4.96339 -2.4156 0
M  V30 6815 H 661.79 4.30881 -0.850756 0
M  V30 6816 H 662.396 3.55061 -2.34119 0
M  V30 6817 N 660.711 1.11618 1.11262 0
M  V30 6818 C 661.674 0.779447 2.15539 0
M  V30 6819 C 662.674 -0.202081 1.59525 0
M  V30 6820 O 663.864 0.0226356 1.74185 0
M  V30 6821 C 660.996 0.15674 3.40539 0
M  V30 6822 H 662.189 1.70324 2.4684 0
M  V30 6823 H 659.742 0.918298 1.26479 0
M  V30 6824 H 660.477 -0.777186 3.1485 0
M  V30 6825 H 660.262 0.863308 3.82478 0
M  V30 6826 H 661.752 -0.062661 4.17553 0
M  V30 6827 N 662.189 -1.289 0.906776 0
M  V30 6828 C 663.438 -1.9455 0.532262 0
M  V30 6829 C 663.751 -1.72219 -0.927353 0
M  V30 6830 O 664.957 -2.32033 -1.40971 0
M  V30 6831 C 663.413 -3.48438 0.901041 0
M  V30 6832 C 663.021 -3.79558 2.37991 0
M  V30 6833 C 664.765 -4.20284 0.596777 0
M  V30 6834 C 662.672 -5.26723 2.68918 0
M  V30 6835 H 661.602 -0.728259 0.195333 0
M  V30 6836 H 664.253 -1.46519 1.10474 0
M  V30 6837 H 662.635 -3.95162 0.257419 0
M  V30 6838 H 663.809 -3.43668 3.06967 0
M  V30 6839 H 662.124 -3.20868 2.65391 0
M  V30 6840 H 664.721 -5.28612 0.8046 0
M  V30 6841 H 665.064 -4.13694 -0.465072 0
M  V30 6842 H 665.597 -3.79315 1.19855 0
M  V30 6843 H 662.336 -5.38384 3.73928 0
M  V30 6844 H 661.856 -5.63836 2.04571 0
M  V30 6845 H 663.535 -5.94391 2.55555 0
M  V30 6846 N 663.667 -0.670007 -1.42649 0
M  V30 6847 C 664.914 -0.190286 -2.01604 0
M  V30 6848 C 665.242 1.20155 -1.52948 0
M  V30 6849 O 664.497 1.81964 -0.72026 0
M  V30 6850 C 664.796 -0.168298 -3.57004 0
M  V30 6851 C 664.462 -1.50415 -4.25072 0
M  V30 6852 C 663.124 -1.86992 -4.43382 0
M  V30 6853 C 665.476 -2.38414 -4.63474 0
M  V30 6854 C 662.804 -3.11203 -4.97363 0
M  V30 6855 C 665.156 -3.61933 -5.18833 0
M  V30 6856 C 663.82 -3.98685 -5.35356 0
M  V30 6857 H 663.09 -0.0696305 -0.737721 0
M  V30 6858 H 665.737 -0.864044 -1.70899 0
M  V30 6859 H 664.042 0.588958 -3.87348 0
M  V30 6860 H 665.739 0.22001 -4.00396 0
M  V30 6861 H 662.329 -1.20959 -4.11177 0
M  V30 6862 H 666.513 -2.11442 -4.49006 0
M  V30 6863 H 661.769 -3.39705 -5.08341 0
M  V30 6864 H 665.943 -4.30326 -5.47533 0
M  V30 6865 H 663.57 -4.95009 -5.76949 0
M  V30 6866 N 665.145 1.52092 -0.413018 0
M  V30 6867 C 666.373 2.06274 0.160881 0
M  V30 6868 C 666.788 1.28273 1.38533 0
M  V30 6869 O 666.145 0.33563 1.79387 0
M  V30 6870 C 666.196 3.57921 0.507443 0
M  V30 6871 O 665.917 4.32971 -0.668388 0
M  V30 6872 C 667.418 4.28533 1.13465 0
M  V30 6873 H 664.638 0.67074 0.0186759 0
M  V30 6874 H 667.182 1.95951 -0.585092 0
M  V30 6875 H 665.337 3.68238 1.20331 0
M  V30 6876 H 665.751 5.23135 -0.378169 0
M  V30 6877 H 667.225 5.35804 1.32732 0
M  V30 6878 H 667.702 3.85258 2.10886 0
M  V30 6879 H 668.308 4.22595 0.478876 0
M  V30 6880 N 666.623 0.143563 1.56945 0
M  V30 6881 C 667.851 -0.515447 2.00377 0
M  V30 6882 C 668.266 -1.58643 1.02361 0
M  V30 6883 O 667.623 -1.82489 0.0201039 0
M  V30 6884 C 667.674 -1.11923 3.43737 0
M  V30 6885 O 667.395 -0.0910318 4.38005 0
M  V30 6886 C 668.896 -1.85918 4.02429 0
M  V30 6887 H 666.116 -0.134478 0.657386 0
M  V30 6888 H 668.66 0.237135 2.0312 0
M  V30 6889 H 666.815 -1.82245 3.41856 0
M  V30 6890 H 667.229 -0.532916 5.21786 0
M  V30 6891 H 668.703 -2.2346 5.04747 0
M  V30 6892 H 669.18 -2.7438 3.42947 0
M  V30 6893 H 669.786 -1.20303 4.07931 0
M  V30 6894 N 668.101 -1.57061 -0.130224 0
M  V30 6895 C 669.049 -2.00486 -1.17933 0
M  V30 6896 C 670.043 -0.899933 -1.43519 0
M  V30 6897 O 671.249 -1.08514 -1.43613 0
M  V30 6898 H 667.624 -0.638441 -0.397363 0
M  V30 6899 H 669.595 -2.87848 -0.786501 0
M  V30 6900 C 668.344 -2.41565 -2.50084 0
M  V30 6901 H 667.667 -3.26148 -2.31231 0
M  V30 6902 H 669.107 -2.75757 -3.22078 0
M  V30 6903 C 667.566 -1.27485 -3.11848 0
M  V30 6904 O 668.096 -0.584688 -3.97422 0
M  V30 6905 N 666.302 -1.03478 -2.71552 0
M  V30 6906 H 665.849 -1.59779 -2.02061 0
M  V30 6907 H 665.807 -0.27341 -3.13209 0
M  V30 6908 N 669.579 0.400081 -1.52437 0
M  V30 6909 C 670.827 1.14392 -1.6661 0
M  V30 6910 C 671.148 1.90792 -0.402927 0
M  V30 6911 O 670.418 1.87042 0.582425 0
M  V30 6912 H 668.998 0.425275 -0.614125 0
M  V30 6913 H 671.66 0.455076 -1.89513 0
M  V30 6914 H 670.756 1.85298 -2.51139 0
M  V30 6915 N 671.057 1.43213 0.657864 0
M  V30 6916 C 672.02 1.47687 1.75275 0
M  V30 6917 C 673.02 0.362179 1.56668 0
M  V30 6918 O 674.21 0.623734 1.62651 0
M  V30 6919 C 671.342 1.32497 3.14098 0
M  V30 6920 H 672.535 2.4519 1.7269 0
M  V30 6921 H 670.088 1.2991 0.869087 0
M  V30 6922 H 670.823 0.359831 3.22298 0
M  V30 6923 H 670.608 2.13299 3.29008 0
M  V30 6924 H 672.098 1.38549 3.93946 0
M  V30 6925 N 672.536 -0.895792 1.29666 0
M  V30 6926 C 673.764 -1.68001 1.20761 0
M  V30 6927 C 674.179 -1.87379 -0.231187 0
M  V30 6928 O 673.536 -1.41359 -1.15429 0
M  V30 6929 C 673.587 -3.06236 1.92098 0
M  V30 6930 O 673.308 -2.8774 3.30359 0
M  V30 6931 C 674.809 -4.00652 1.89717 0
M  V30 6932 H 672.029 -0.524591 0.418384 0
M  V30 6933 H 674.573 -1.11995 1.71106 0
M  V30 6934 H 672.728 -3.59007 1.45578 0
M  V30 6935 H 673.142 -3.75359 3.66342 0
M  V30 6936 H 674.616 -4.95051 2.44189 0
M  V30 6937 H 675.093 -4.30424 0.873595 0
M  V30 6938 H 675.699 -3.53815 2.35998 0
M  V30 6939 N 674.014 -1.12206 -1.10668 0
M  V30 6940 C 674.977 -0.790867 -2.15123 0
M  V30 6941 C 675.977 0.193618 -1.5963 0
M  V30 6942 O 677.167 -0.0318728 -1.74171 0
M  V30 6943 C 674.299 -0.174797 -3.40452 0
M  V30 6944 H 675.492 -1.7163 -2.45933 0
M  V30 6945 H 673.045 -0.924993 -1.2599 0
M  V30 6946 H 673.78 0.760478 -3.15257 0
M  V30 6947 H 673.565 -0.88358 -3.82015 0
M  V30 6948 H 675.055 0.0405162 -4.1758 0
M  V30 6949 N 675.492 1.28418 -0.913599 0
M  V30 6950 C 676.908 1.47411 -0.611728 0
M  V30 6951 C 677.108 1.83018 0.843008 0
M  V30 6952 O 676.164 1.93505 1.6221 0
M  V30 6953 C 677.477 2.57703 -1.5495 0
M  V30 6954 C 679.025 2.71572 -1.5562 0
M  V30 6955 C 679.5 3.85008 -2.48058 0
M  V30 6956 N 680.991 3.92361 -2.46184 0
M  V30 6957 C 681.726 4.79516 -3.14407 0
M  V30 6958 N 681.222 5.71262 -3.91958 0
M  V30 6959 N 683.015 4.73125 -3.03495 0
M  V30 6960 H 675.166 1.03585 -1.85429 0
M  V30 6961 H 677.429 0.515907 -0.795326 0
M  V30 6962 H 677.135 2.38298 -2.58663 0
M  V30 6963 H 677.009 3.54801 -1.28048 0
M  V30 6964 H 679.396 2.90366 -0.526441 0
M  V30 6965 H 679.477 1.75006 -1.86565 0
M  V30 6966 H 679.121 3.66969 -3.51136 0
M  V30 6967 H 679.051 4.80971 -2.14416 0
M  V30 6968 H 681.542 3.26749 -1.89851 0
M  V30 6969 H 681.855 6.34593 -4.41034 0
M  V30 6970 H 680.2 5.71103 -3.96063 0
M  V30 6971 H 683.391 4.00442 -2.42413 0
M  V30 6972 H 683.564 5.40834 -3.56935 0
M  V30 6973 N 676.97 0.677563 1.42291 0
M  V30 6974 C 677.917 0.000947061 2.308 0
M  V30 6975 C 678.887 -0.789889 1.46116 0
M  V30 6976 O 680.072 -0.761578 1.74942 0
M  V30 6977 C 677.212 -0.942387 3.31984 0
M  V30 6978 C 676.325 -0.14508 4.31756 0
M  V30 6979 C 675.46 -1.08442 5.20013 0
M  V30 6980 C 674.499 -0.278958 6.11464 0
M  V30 6981 N 673.636 -1.17115 6.92263 0
M  V30 6982 H 678.476 0.761521 2.88106 0
M  V30 6983 H 676.013 0.38727 1.41911 0
M  V30 6984 H 677.971 -1.50317 3.89179 0
M  V30 6985 H 676.601 -1.66956 2.76271 0
M  V30 6986 H 675.653 0.532368 3.76656 0
M  V30 6987 H 676.965 0.48015 4.96484 0
M  V30 6988 H 676.119 -1.71504 5.81955 0
M  V30 6989 H 674.858 -1.74353 4.55469 0
M  V30 6990 H 673.863 0.364856 5.48588 0
M  V30 6991 H 675.088 0.376099 6.78058 0
M  V30 6992 H 673.034 -1.81661 6.30345 0
M  V30 6993 H 672.951 -0.601063 7.53607 0
M  V30 6994 H 674.219 -1.78915 7.58689 0
M  V30 6995 N 678.448 -1.51871 0.421078 0
M  V30 6996 C 679.678 -2.06057 -0.149723 0
M  V30 6997 C 680.086 -1.29002 -1.38402 0
M  V30 6998 O 679.429 -0.338385 -1.80556 0
M  V30 6999 C 679.491 -3.55216 -0.553339 0
M  V30 7000 C 679.155 -4.53408 0.571879 0
M  V30 7001 C 680.152 -4.99586 1.4391 0
M  V30 7002 C 677.837 -4.967 0.747979 0
M  V30 7003 C 679.831 -5.87711 2.46727 0
M  V30 7004 C 677.518 -5.84619 1.77944 0
M  V30 7005 C 678.516 -6.30021 2.63748 0
M  V30 7006 O 678.204 -7.16197 3.65126 0
M  V30 7007 H 677.936 -0.675744 -0.0186102 0
M  V30 7008 H 680.49 -1.96618 0.594166 0
M  V30 7009 H 678.72 -3.62381 -1.34969 0
M  V30 7010 H 680.409 -3.91992 -1.05342 0
M  V30 7011 H 681.175 -4.66846 1.31451 0
M  V30 7012 H 677.054 -4.60913 0.0897357 0
M  V30 7013 H 680.598 -6.2307 3.13734 0
M  V30 7014 H 676.495 -6.16771 1.90429 0
M  V30 7015 H 677.263 -7.34337 3.61512 0
M  V30 7016 N 679.926 -0.151884 -1.56866 0
M  V30 7017 C 680.889 0.771861 -2.15812 0
M  V30 7018 C 681.889 1.17181 -1.10115 0
M  V30 7019 O 683.079 1.09194 -1.35729 0
M  V30 7020 C 680.211 2.04806 -2.7252 0
M  V30 7021 H 681.404 0.259021 -2.98779 0
M  V30 7022 H 678.957 0.097588 -1.55995 0
M  V30 7023 H 679.692 2.60445 -1.93233 0
M  V30 7024 H 679.477 1.77044 -3.49854 0
M  V30 7025 H 680.967 2.70771 -3.1792 0
M  V30 7026 N 681.404 1.57128 0.121893 0
M  V30 7027 C 682.354 1.96556 1.15541 0
M  V30 7028 C 683.338 0.840147 1.37224 0
M  V30 7029 O 684.53 1.10382 1.38365 0
M  V30 7030 C 681.659 2.37097 2.48274 0
M  V30 7031 C 680.745 3.56265 2.30078 0
M  V30 7032 N 681.136 4.72041 1.81688 0
M  V30 7033 C 679.434 3.61841 2.60744 0
M  V30 7034 C 680.135 5.54075 1.77132 0
M  V30 7035 N 679.111 4.96483 2.21371 0
M  V30 7036 H 682.913 2.83531 0.77378 0
M  V30 7037 H 680.427 1.59019 0.329672 0
M  V30 7038 H 682.424 2.6356 3.2302 0
M  V30 7039 H 681.084 1.51486 2.87197 0
M  V30 7040 H 682.095 4.95313 1.51278 0
M  V30 7041 H 678.772 2.8683 3.03373 0
M  V30 7042 H 680.162 6.56939 1.40998 0
M  V30 7043 N 682.882 -0.391992 1.52647 0
M  V30 7044 C 683.812 -1.48517 1.8018 0
M  V30 7045 C 684.793 -1.57039 0.653667 0
M  V30 7046 O 685.978 -1.72036 0.900962 0
M  V30 7047 C 683.108 -2.86161 1.96797 0
M  V30 7048 C 682.062 -2.92481 3.12472 0
M  V30 7049 C 681.388 -4.32546 3.14338 0
M  V30 7050 C 682.688 -2.624 4.51601 0
M  V30 7051 H 684.382 -1.25726 2.71723 0
M  V30 7052 H 681.928 -0.603387 1.30749 0
M  V30 7053 H 683.881 -3.62639 2.14641 0
M  V30 7054 H 682.605 -3.10283 1.01941 0
M  V30 7055 H 681.264 -2.18451 2.94406 0
M  V30 7056 H 680.912 -4.53703 2.1717 0
M  V30 7057 H 680.612 -4.37695 3.92042 0
M  V30 7058 H 682.136 -5.10934 3.34333 0
M  V30 7059 H 683.55 -3.28596 4.69785 0
M  V30 7060 H 681.947 -2.78903 5.3135 0
M  V30 7061 H 683.017 -1.57754 4.58521 0
M  V30 7062 N 684.36 -1.4356 -0.65026 0
M  V30 7063 C 685.606 -1.45549 -1.41221 0
M  V30 7064 C 685.939 -0.0805472 -1.94033 0
M  V30 7065 O 685.214 0.899043 -1.72475 0
M  V30 7066 C 685.497 -2.50028 -2.59148 0
M  V30 7067 C 685.35 -3.96808 -2.1181 0
M  V30 7068 C 686.669 -2.51212 -3.61359 0
M  V30 7069 H 683.788 -0.529967 -0.512156 0
M  V30 7070 H 686.43 -1.75127 -0.736933 0
M  V30 7071 H 684.58 -2.24937 -3.16758 0
M  V30 7072 H 686.252 -4.32966 -1.59178 0
M  V30 7073 H 684.495 -4.09498 -1.43156 0
M  V30 7074 H 685.166 -4.6553 -2.96625 0
M  V30 7075 H 687.642 -2.73583 -3.13515 0
M  V30 7076 H 686.518 -3.26252 -4.41419 0
M  V30 7077 H 686.779 -1.54701 -4.1415 0
M  V30 7078 N 685.838 0.888903 -1.30139 0
M  V30 7079 C 687.115 1.62145 -1.094 0
M  V30 7080 C 687.495 2.08041 0.358091 0
M  V30 7081 O 686.843 1.84438 1.34888 0
M  V30 7082 C 687.053 2.794 -2.09133 0
M  V30 7083 C 688.401 3.49826 -2.40638 0
M  V30 7084 O 689.425 2.89583 -2.07412 0
M  V30 7085 O 688.284 4.58457 -2.97455 0
M  V30 7086 H 685.378 0.712475 -0.41989 0
M  V30 7087 H 687.924 0.936023 -1.41551 0
M  V30 7088 H 686.696 2.42762 -3.06891 0
M  V30 7089 H 686.319 3.55643 -1.77776 0
M  V30 7090 N 687.317 1.12792 1.10072 0
M  V30 7091 C 688.563 0.886857 1.82381 0
M  V30 7092 C 688.896 -0.58576 1.85155 0
M  V30 7093 O 688.171 -1.43317 1.31493 0
M  V30 7094 C 688.454 1.46703 3.28862 0
M  V30 7095 C 688.307 3.00829 3.34398 0
M  V30 7096 C 689.626 1.12971 4.25353 0
M  V30 7097 H 686.745 0.32362 0.662148 0
M  V30 7098 H 689.387 1.39513 1.28982 0
M  V30 7099 H 687.537 1.03476 3.74466 0
M  V30 7100 H 689.209 3.52764 2.97247 0
M  V30 7101 H 687.452 3.36164 2.74183 0
M  V30 7102 H 688.123 3.36519 4.3756 0
M  V30 7103 H 690.599 1.50313 3.88001 0
M  V30 7104 H 689.475 1.56223 5.26199 0
M  V30 7105 H 689.736 0.0424452 4.4208 0
M  V30 7106 N 688.795 -1.27931 0.920396 0
M  V30 7107 C 690.043 -1.94304 0.555906 0
M  V30 7108 C 690.364 -1.72753 -0.904519 0
M  V30 7109 O 689.634 -1.07104 -1.64029 0
M  V30 7110 H 688.214 -0.719001 0.202599 0
M  V30 7111 H 690.876 -1.55785 1.1712 0
M  V30 7112 H 689.972 -3.02806 0.755981 0
M  V30 7113 N 690.273 -0.685099 -1.4193 0
M  V30 7114 C 691.205 0.0258679 -2.29185 0
M  V30 7115 C 692.218 0.755076 -1.44231 0
M  V30 7116 O 693.407 0.60752 -1.67844 0
M  V30 7117 C 690.507 1.06055 -3.21878 0
M  V30 7118 C 689.68 0.403088 -4.35539 0
M  V30 7119 C 688.739 1.33895 -5.0888 0
M  V30 7120 O 687.765 0.835326 -5.63037 0
M  V30 7121 N 688.967 2.6718 -5.15359 0
M  V30 7122 H 691.732 -0.723201 -2.90843 0
M  V30 7123 H 689.293 -0.53031 -1.52968 0
M  V30 7124 H 691.285 1.68813 -3.6781 0
M  V30 7125 H 689.855 1.71126 -2.616 0
M  V30 7126 H 689.075 -0.404185 -3.92122 0
M  V30 7127 H 690.363 -0.0545098 -5.08771 0
M  V30 7128 H 689.761 3.10626 -4.72788 0
M  V30 7129 H 688.318 3.25159 -5.64903 0
M  V30 7130 N 691.751 1.51645 -0.429126 0
M  V30 7131 C 692.997 2.02314 0.140286 0
M  V30 7132 C 693.33 1.31314 1.43074 0
M  V30 7133 O 692.605 0.425531 1.89788 0
M  V30 7134 C 692.888 3.5822 0.36749 0
M  V30 7135 C 692.741 4.39846 -0.941039 0
M  V30 7136 C 694.06 4.25055 1.14089 0
M  V30 7137 H 691.179 0.735335 0.0495112 0
M  V30 7138 H 693.821 1.81358 -0.566514 0
M  V30 7139 H 691.971 3.76207 0.969556 0
M  V30 7140 H 693.643 4.33527 -1.57646 0
M  V30 7141 H 691.886 4.05259 -1.54751 0
M  V30 7142 H 692.557 5.47069 -0.73621 0
M  V30 7143 H 695.033 4.11288 0.630986 0
M  V30 7144 H 693.909 5.34038 1.26863 0
M  V30 7145 H 694.17 3.85358 2.16683 0
M  V30 7146 N 693.229 0.160201 1.56784 0
M  V30 7147 C 694.477 -0.486625 1.96154 0
M  V30 7148 C 694.798 -1.64525 1.04673 0
M  V30 7149 O 694.068 -1.95586 0.110864 0
M  V30 7150 H 692.648 -0.182764 0.724297 0
M  V30 7151 H 695.31 0.238787 1.93432 0
M  V30 7152 H 694.406 -0.854025 3.00188 0
M  V30 7153 N 694.707 -1.5719 -0.113559 0
M  V30 7154 C 695.953 -1.85412 -0.821597 0
M  V30 7155 C 696.286 -0.746722 -1.7927 0
M  V30 7156 O 695.561 0.246971 -1.92926 0
M  V30 7157 C 695.844 -3.24233 -1.56669 0
M  V30 7158 C 695.697 -4.45578 -0.614823 0
M  V30 7159 C 697.016 -3.60697 -2.52161 0
M  V30 7160 H 694.135 -0.674406 -0.29723 0
M  V30 7161 H 696.777 -1.89807 -0.085694 0
M  V30 7162 H 694.927 -3.20617 -2.19401 0
M  V30 7163 H 696.599 -4.613 0.00407137 0
M  V30 7164 H 694.842 -4.33738 0.0732332 0
M  V30 7165 H 695.513 -5.39395 -1.17292 0
M  V30 7166 H 697.989 -3.65139 -1.99532 0
M  V30 7167 H 696.865 -4.58798 -3.01323 0
M  V30 7168 H 697.126 -2.88403 -3.35076 0
M  V30 7169 N 696.185 0.383891 -1.52853 0
M  V30 7170 C 697.133 1.48965 -1.7864 0
M  V30 7171 C 698.127 1.56242 -0.654577 0
M  V30 7172 O 699.333 1.59347 -0.83716 0
M  V30 7173 H 695.708 0.495892 -0.565328 0
M  V30 7174 H 697.679 1.24411 -2.71228 0
M  V30 7175 C 696.428 2.86036 -1.97683 0
M  V30 7176 H 695.751 2.81188 -2.84206 0
M  V30 7177 H 697.191 3.62632 -2.19713 0
M  V30 7178 C 695.65 3.28428 -0.750776 0
M  V30 7179 O 696.18 4.0164 0.0693491 0
M  V30 7180 N 694.386 2.84765 -0.579427 0
M  V30 7181 H 693.933 2.25353 -1.24795 0
M  V30 7182 H 693.891 3.13486 0.239544 0
M  V30 7183 N 697.663 1.43903 0.642637 0
M  V30 7184 C 698.909 1.46296 1.40447 0
M  V30 7185 C 699.242 0.0908361 1.93987 0
M  V30 7186 O 698.517 -0.889884 1.72949 0
M  V30 7187 C 698.8 2.51399 2.57819 0
M  V30 7188 C 698.653 3.97926 2.09702 0
M  V30 7189 C 699.972 2.53125 3.60022 0
M  V30 7190 H 697.091 0.532676 0.509338 0
M  V30 7191 H 699.733 1.75515 0.727635 0
M  V30 7192 H 697.883 2.26614 3.1556 0
M  V30 7193 H 699.555 4.33804 1.5688 0
M  V30 7194 H 697.798 4.10252 1.40982 0
M  V30 7195 H 698.469 4.67096 2.94152 0
M  V30 7196 H 700.945 2.75242 3.12059 0
M  V30 7197 H 699.821 3.28589 4.39682 0
M  V30 7198 H 700.082 1.56895 4.13324 0
M  V30 7199 N 699.141 -0.881989 1.30609 0
M  V30 7200 C 700.552 -1.44956 1.17664 0
M  V30 7201 C 700.903 -1.94945 -0.221531 0
M  V30 7202 O 700.028 -1.85257 -1.11844 0
M  V30 7203 C 700.623 -2.63474 2.12995 0
M  V30 7204 C 699.182 -3.16312 2.04019 0
M  V30 7205 C 698.329 -1.89008 2.02907 0
M  V30 7206 H 701.28 -0.691645 1.42835 0
M  V30 7207 H 701.301 -3.39783 1.71253 0
M  V30 7208 H 700.813 -2.2706 3.14746 0
M  V30 7209 H 698.914 -3.57376 1.0542 0
M  V30 7210 H 699.027 -3.79409 2.9255 0
M  V30 7211 H 697.391 -2.07465 1.47751 0
M  V30 7212 H 698.174 -1.54848 3.06394 0
M  V30 7213 N 700.619 -1.13374 -1.09472 0
M  V30 7214 C 701.868 -0.889844 -1.8101 0
M  V30 7215 C 702.181 0.585686 -1.86625 0
M  V30 7216 O 703.387 0.946497 -2.54467 0
M  V30 7217 C 701.843 -1.54241 -3.25174 0
M  V30 7218 C 701.451 -3.05343 -3.27826 0
M  V30 7219 C 703.195 -1.37919 -4.0147 0
M  V30 7220 C 701.102 -3.63486 -4.6651 0
M  V30 7221 H 700.032 -0.329256 -0.678311 0
M  V30 7222 H 702.683 -1.36139 -1.23038 0
M  V30 7223 H 701.065 -0.998525 -3.83204 0
M  V30 7224 H 702.239 -3.66307 -2.79563 0
M  V30 7225 H 700.554 -3.21175 -2.65019 0
M  V30 7226 H 703.151 -1.78771 -5.03929 0
M  V30 7227 H 703.494 -0.323987 -4.15037 0
M  V30 7228 H 704.027 -1.89284 -3.49881 0
M  V30 7229 H 700.766 -4.68811 -4.58145 0
M  V30 7230 H 700.286 -3.073 -5.15099 0
M  V30 7231 H 701.965 -3.63134 -5.35484 0
M  V30 7232 N 702.098 1.27442 -0.927168 0
M  V30 7233 C 703.509 1.76385 -0.611979 0
M  V30 7234 C 703.86 1.75715 0.872853 0
M  V30 7235 O 702.985 1.3603 1.683 0
M  V30 7236 C 703.58 3.20303 -1.10414 0
M  V30 7237 C 702.139 3.66916 -0.839628 0
M  V30 7238 C 701.286 2.46859 -1.26317 0
M  V30 7239 H 704.237 1.13716 -1.107 0
M  V30 7240 H 704.258 3.77811 -0.451578 0
M  V30 7241 H 703.77 3.20759 -2.18484 0
M  V30 7242 H 701.871 3.71906 0.227292 0
M  V30 7243 H 701.984 4.56415 -1.45679 0
M  V30 7244 H 700.348 2.45407 -0.681723 0
M  V30 7245 H 701.131 2.50025 -2.3525 0
M  V30 7246 N 703.576 0.692616 1.41565 0
M  V30 7247 C 704.822 0.222664 2.01574 0
M  V30 7248 C 705.155 -1.1737 1.54719 0
M  V30 7249 O 704.43 -1.79161 0.757084 0
M  V30 7250 C 704.713 0.277064 3.59033 0
M  V30 7251 C 704.566 1.71016 4.16021 0
M  V30 7252 C 705.885 -0.36479 4.38586 0
M  V30 7253 H 703.004 0.0823839 0.732381 0
M  V30 7254 H 705.646 0.880778 1.68352 0
M  V30 7255 H 703.796 -0.283288 3.87466 0
M  V30 7256 H 705.468 2.32413 3.98475 0
M  V30 7257 H 703.711 2.24525 3.71175 0
M  V30 7258 H 704.382 1.69978 5.25178 0
M  V30 7259 H 706.858 0.112404 4.15948 0
M  V30 7260 H 705.734 -0.296169 5.481 0
M  V30 7261 H 705.995 -1.44506 4.17816 0
M  V30 7262 N 705.054 -1.51416 0.437162 0
M  V30 7263 C 706.465 -1.86682 -0.0260005 0
M  V30 7264 C 706.816 -1.35432 -1.4196 0
M  V30 7265 O 705.941 -0.705055 -2.04592 0
M  V30 7266 C 706.536 -3.38757 -0.0539577 0
M  V30 7267 C 705.095 -3.7356 -0.461532 0
M  V30 7268 C 704.242 -2.75134 0.345924 0
M  V30 7269 H 707.193 -1.44642 0.653013 0
M  V30 7270 H 707.214 -3.70573 -0.863478 0
M  V30 7271 H 706.726 -3.76028 0.96045 0
M  V30 7272 H 704.827 -3.41878 -1.48155 0
M  V30 7273 H 704.94 -4.78737 -0.186451 0
M  V30 7274 H 703.304 -2.53947 -0.195739 0
M  V30 7275 H 704.087 -3.15247 1.35921 0
M  V30 7276 N 706.532 -0.168513 -1.56696 0
M  V30 7277 C 707.462 0.758563 -2.20835 0
M  V30 7278 C 708.443 1.24121 -1.1631 0
M  V30 7279 O 709.628 1.29487 -1.4473 0
M  V30 7280 C 706.758 1.9892 -2.8469 0
M  V30 7281 C 705.712 1.64252 -3.95228 0
M  V30 7282 C 705.038 2.94757 -4.46119 0
M  V30 7283 C 706.338 0.872675 -5.14958 0
M  V30 7284 H 708.032 0.223953 -2.98561 0
M  V30 7285 H 705.578 0.106277 -1.43607 0
M  V30 7286 H 707.531 2.64275 -3.28233 0
M  V30 7287 H 706.255 2.5479 -2.04327 0
M  V30 7288 H 704.914 1.01266 -3.52336 0
M  V30 7289 H 704.562 3.48662 -3.62552 0
M  V30 7290 H 704.262 2.72316 -5.2069 0
M  V30 7291 H 705.786 3.61147 -4.92347 0
M  V30 7292 H 707.2 1.42875 -5.55211 0
M  V30 7293 H 705.597 0.747402 -5.95428 0
M  V30 7294 H 706.667 -0.131535 -4.84722 0
M  V30 7295 N 708.01 1.57248 0.105221 0
M  V30 7296 C 709.421 1.74612 0.660865 0
M  V30 7297 C 709.772 0.789231 1.79626 0
M  V30 7298 O 708.897 -0.0346611 2.16372 0
M  V30 7299 C 709.492 3.16624 1.20559 0
M  V30 7300 C 708.051 3.35447 1.7074 0
M  V30 7301 C 707.198 2.70445 0.612764 0
M  V30 7302 H 710.149 1.5824 -0.12079 0
M  V30 7303 H 710.17 3.18937 2.07508 0
M  V30 7304 H 709.682 3.86245 0.379012 0
M  V30 7305 H 707.783 2.7089 2.5583 0
M  V30 7306 H 707.896 4.43702 1.80736 0
M  V30 7307 H 706.26 2.32061 1.04975 0
M  V30 7308 H 707.043 3.42699 -0.203066 0
M  V30 7309 N 709.488 -0.375779 1.53054 0
M  V30 7310 C 710.421 -1.48187 1.7354 0
M  V30 7311 C 711.399 -1.5177 0.583495 0
M  V30 7312 O 712.583 -1.69976 0.81488 0
M  V30 7313 C 709.71 -2.86598 1.80497 0
M  V30 7314 C 708.756 -3.00784 3.02376 0
M  V30 7315 S 709.589 -2.70601 4.62099 0
M  V30 7316 C 710.745 -4.11181 4.71891 0
M  V30 7317 H 710.978 -1.30587 2.67085 0
M  V30 7318 H 708.511 -0.569485 1.43514 0
M  V30 7319 H 710.469 -3.66353 1.85192 0
M  V30 7320 H 709.13 -3.01514 0.880217 0
M  V30 7321 H 708.323 -4.02128 3.03824 0
M  V30 7322 H 707.925 -2.28939 2.95742 0
M  V30 7323 H 710.217 -5.0529 4.51319 0
M  V30 7324 H 711.16 -4.14742 5.73929 0
M  V30 7325 H 711.568 -3.97706 4.00612 0
M  V30 7326 N 710.966 -1.44241 -0.634997 0
M  V30 7327 C 712.213 -1.46821 -1.39463 0
M  V30 7328 C 712.541 -0.0993362 -1.94246 0
M  V30 7329 O 711.796 0.898325 -1.73864 0
M  V30 7330 C 712.095 -2.47279 -2.58046 0
M  V30 7331 C 711.761 -3.92703 -2.21574 0
M  V30 7332 C 710.423 -4.32306 -2.1134 0
M  V30 7333 C 712.775 -4.84271 -1.92695 0
M  V30 7334 C 710.103 -5.61407 -1.70409 0
M  V30 7335 C 712.455 -6.13755 -1.53258 0
M  V30 7336 C 711.119 -6.52316 -1.41562 0
M  V30 7337 H 710.389 -0.537256 -0.51033 0
M  V30 7338 H 713.036 -1.77431 -0.720441 0
M  V30 7339 H 711.341 -2.10138 -3.3068 0
M  V30 7340 H 713.038 -2.46523 -3.16271 0
M  V30 7341 H 709.628 -3.61369 -2.30456 0
M  V30 7342 H 713.812 -4.54432 -1.99513 0
M  V30 7343 H 709.068 -5.90105 -1.59955 0
M  V30 7344 H 713.242 -6.84168 -1.29949 0
M  V30 7345 H 710.869 -7.52255 -1.09619 0
M  V30 7346 N 712.444 0.87505 -1.31075 0
M  V30 7347 C 713.669 1.66583 -1.23551 0
M  V30 7348 C 714.094 1.87067 0.19686 0
M  V30 7349 O 713.452 1.40877 1.1412 0
M  V30 7350 C 713.5 3.01401 -1.97965 0
M  V30 7351 O 712.604 3.90923 -1.31351 0
M  V30 7352 H 711.945 0.508645 -0.426821 0
M  V30 7353 H 714.475 1.09139 -1.7306 0
M  V30 7354 H 714.485 3.51374 -2.07366 0
M  V30 7355 H 713.16 2.85812 -3.02133 0
M  V30 7356 H 711.737 3.49369 -1.30368 0
M  V30 7357 N 713.922 1.13953 1.08869 0
M  V30 7358 C 715.169 0.90481 1.81161 0
M  V30 7359 C 715.497 -0.568824 1.85996 0
M  V30 7360 O 714.752 -1.43723 1.32823 0
M  V30 7361 C 715.051 1.44495 3.26888 0
M  V30 7362 C 714.717 2.93641 3.42178 0
M  V30 7363 C 713.379 3.34361 3.46059 0
M  V30 7364 C 715.731 3.89568 3.46246 0
M  V30 7365 C 713.059 4.69681 3.51592 0
M  V30 7366 C 715.411 5.2474 3.53314 0
M  V30 7367 C 714.075 5.64979 3.55465 0
M  V30 7368 H 713.345 0.331094 0.662916 0
M  V30 7369 H 715.992 1.42242 1.28217 0
M  V30 7370 H 714.297 0.848169 3.82509 0
M  V30 7371 H 715.994 1.23934 3.81368 0
M  V30 7372 H 712.584 2.61156 3.39846 0
M  V30 7373 H 716.768 3.59192 3.42483 0
M  V30 7374 H 712.024 5.00224 3.51547 0
M  V30 7375 H 716.198 5.98882 3.55406 0
M  V30 7376 H 713.825 6.69821 3.59505 0
M  V30 7377 N 715.4 -1.26948 0.933913 0
M  V30 7378 C 716.628 -1.98186 0.59414 0
M  V30 7379 C 717.043 -1.69614 -0.829257 0
M  V30 7380 O 716.4 -0.960213 -1.55197 0
M  V30 7381 C 716.451 -3.52123 0.818026 0
M  V30 7382 O 716.172 -3.79698 2.18543 0
M  V30 7383 C 717.673 -4.40608 0.48781 0
M  V30 7384 H 714.893 -0.632305 0.224569 0
M  V30 7385 H 717.437 -1.61646 1.25263 0
M  V30 7386 H 715.592 -3.86851 0.206246 0
M  V30 7387 H 716.006 -4.7426 2.24005 0
M  V30 7388 H 717.48 -5.47606 0.695126 0
M  V30 7389 H 717.957 -4.35394 -0.576913 0
M  V30 7390 H 718.563 -4.11411 1.078 0
M  V30 7391 N 716.879 -0.700114 -1.41195 0
M  V30 7392 C 718.127 -0.232546 -2.00758 0
M  V30 7393 C 718.448 1.1734 -1.55745 0
M  V30 7394 O 717.718 1.79262 -0.790058 0
M  V30 7395 H 716.298 -0.0829845 -0.742376 0
M  V30 7396 H 718.96 -0.902289 -1.72756 0
M  V30 7397 H 718.056 -0.253521 -3.11069 0
M  V30 7398 N 718.357 1.51182 -0.445186 0
M  V30 7399 C 719.582 2.07056 0.119445 0
M  V30 7400 C 720.007 1.30966 1.35016 0
M  V30 7401 O 719.365 0.349827 1.77893 0
M  V30 7402 C 719.413 3.58234 0.412428 0
M  V30 7403 O 718.517 3.84249 1.49754 0
M  V30 7404 H 717.858 0.663998 -0.00157797 0
M  V30 7405 H 720.388 1.94699 -0.628779 0
M  V30 7406 H 720.398 4.02617 0.660583 0
M  V30 7407 H 719.073 4.13038 -0.487049 0
M  V30 7408 H 717.65 3.51724 1.23873 0
M  V30 7409 N 719.835 0.176821 1.56605 0
M  V30 7410 C 721.251 -0.179278 1.5859 0
M  V30 7411 C 721.451 -1.62433 1.19238 0
M  V30 7412 O 720.507 -2.35665 0.906552 0
M  V30 7413 C 721.82 0.106524 3.00511 0
M  V30 7414 C 723.368 0.0451731 3.12967 0
M  V30 7415 C 723.843 0.304038 4.5699 0
M  V30 7416 N 725.334 0.252008 4.62514 0
M  V30 7417 C 726.069 0.426404 5.71812 0
M  V30 7418 N 725.565 0.660155 6.89648 0
M  V30 7419 N 727.358 0.361926 5.60934 0
M  V30 7420 H 719.509 1.12001 1.8047 0
M  V30 7421 H 721.772 0.445679 0.836704 0
M  V30 7422 H 721.478 1.10778 3.33798 0
M  V30 7423 H 721.352 -0.599337 3.72408 0
M  V30 7424 H 723.739 -0.946662 2.79504 0
M  V30 7425 H 723.82 0.78383 2.43495 0
M  V30 7426 H 723.464 1.29311 4.91163 0
M  V30 7427 H 723.394 -0.455294 5.24628 0
M  V30 7428 H 725.885 0.0772102 3.77821 0
M  V30 7429 H 726.198 0.782529 7.68828 0
M  V30 7430 H 724.543 0.696835 6.91498 0
M  V30 7431 H 727.734 0.17986 4.67754 0
M  V30 7432 H 727.907 0.501263 6.46058 0
M  V30 7433 N 721.313 -1.57302 -0.09688 0
M  V30 7434 C 722.538 -1.9058 -0.818169 0
M  V30 7435 C 722.963 -0.770921 -1.71576 0
M  V30 7436 O 722.321 0.277588 -1.79162 0
M  V30 7437 C 722.369 -3.22714 -1.60898 0
M  V30 7438 O 721.473 -3.10178 -2.71779 0
M  V30 7439 H 720.814 -0.624759 -0.224882 0
M  V30 7440 H 723.344 -2.04471 -0.07264 0
M  V30 7441 H 723.354 -3.55978 -1.99358 0
M  V30 7442 H 722.029 -4.04899 -0.950227 0
M  V30 7443 H 720.606 -2.88424 -2.3636 0
M  V30 7444 N 722.791 0.367657 -1.53252 0
M  V30 7445 C 724.016 1.13566 -1.73544 0
M  V30 7446 C 724.441 1.82329 -0.462344 0
M  V30 7447 O 723.799 1.71655 0.583472 0
M  V30 7448 C 723.847 2.14322 -2.89997 0
M  V30 7449 O 722.951 3.21359 -2.58461 0
M  V30 7450 H 722.292 0.329614 -0.576412 0
M  V30 7451 H 724.822 0.425417 -2.00128 0
M  V30 7452 H 724.832 2.57958 -3.16104 0
M  V30 7453 H 723.507 1.63664 -3.82344 0
M  V30 7454 H 722.084 2.8271 -2.43165 0
M  V30 7455 N 724.269 1.44576 0.627338 0
M  V30 7456 C 725.516 1.47558 1.38682 0
M  V30 7457 C 725.844 0.109636 1.94191 0
M  V30 7458 O 725.099 -0.889092 1.74338 0
M  V30 7459 C 725.398 2.48644 2.56731 0
M  V30 7460 C 725.064 3.93873 2.19489 0
M  V30 7461 C 723.726 4.33421 2.09045 0
M  V30 7462 C 726.078 4.85286 1.90124 0
M  V30 7463 C 723.406 5.62303 1.6743 0
M  V30 7464 C 725.758 6.14559 1.50001 0
M  V30 7465 C 724.422 6.53058 1.38101 0
M  V30 7466 H 723.692 0.539955 0.507474 0
M  V30 7467 H 726.339 1.77811 0.711021 0
M  V30 7468 H 724.644 2.11889 3.29561 0
M  V30 7469 H 726.341 2.48197 3.14959 0
M  V30 7470 H 722.931 3.62587 2.28537 0
M  V30 7471 H 727.115 4.55483 1.971 0
M  V30 7472 H 722.371 5.90945 1.56823 0
M  V30 7473 H 726.545 6.84848 1.26319 0
M  V30 7474 H 724.172 7.52826 1.05628 0
M  V30 7475 N 725.747 -0.868086 1.31537 0
M  V30 7476 C 727.163 -1.15414 1.10235 0
M  V30 7477 C 727.363 -2.01106 -0.125947 0
M  V30 7478 O 726.419 -2.38994 -0.814734 0
M  V30 7479 C 727.732 -1.84445 2.37488 0
M  V30 7480 C 729.28 -1.97139 2.43116 0
M  V30 7481 C 729.755 -2.69585 3.70254 0
M  V30 7482 N 731.246 -2.77119 3.71159 0
M  V30 7483 C 731.981 -3.33791 4.6623 0
M  V30 7484 N 731.477 -3.9138 5.71659 0
M  V30 7485 N 733.27 -3.31767 4.53747 0
M  V30 7486 H 725.421 -0.297109 2.10312 0
M  V30 7487 H 727.684 -0.194227 0.92789 0
M  V30 7488 H 727.39 -1.2893 3.27215 0
M  V30 7489 H 727.264 -2.84709 2.47428 0
M  V30 7490 H 729.651 -2.51818 1.53856 0
M  V30 7491 H 729.732 -0.95912 2.37138 0
M  V30 7492 H 729.376 -2.15572 4.59881 0
M  V30 7493 H 729.306 -3.71223 3.73499 0
M  V30 7494 H 731.797 -2.3625 2.94948 0
M  V30 7495 H 732.11 -4.3274 6.40278 0
M  V30 7496 H 730.455 -3.8975 5.7543 0
M  V30 7497 H 733.646 -2.86016 3.70557 0
M  V30 7498 H 733.819 -3.75636 5.28017 0
M  V30 7499 N 727.225 -1.14528 -1.08264 0
M  V30 7500 C 728.473 -0.912599 -1.80322 0
M  V30 7501 C 728.794 0.562256 -1.86718 0
M  V30 7502 O 728.064 1.40869 -1.36135 0
M  V30 7503 H 726.644 -0.334645 -0.667849 0
M  V30 7504 H 729.306 -1.44415 -1.30883 0
M  V30 7505 H 728.402 -1.31384 -2.83098 0
M  V30 7506 N 728.703 1.26451 -0.940633 0
M  V30 7507 C 729.98 1.88947 -0.505811 0
M  V30 7508 C 730.36 1.85011 1.01657 0
M  V30 7509 O 729.708 1.30406 1.87634 0
M  V30 7510 C 729.918 3.32304 -1.06654 0
M  V30 7511 C 731.266 4.09153 -1.13486 0
M  V30 7512 O 732.29 3.41371 -1.01708 0
M  V30 7513 O 731.149 5.30369 -1.31797 0
M  V30 7514 H 728.243 0.810422 -0.164759 0
M  V30 7515 H 730.789 1.34625 -1.03316 0
M  V30 7516 H 729.561 3.29527 -2.11015 0
M  V30 7517 H 729.184 3.94164 -0.521603 0
M  V30 7518 N 730.181 0.707592 1.40822 0
M  V30 7519 C 731.409 0.253073 2.05346 0
M  V30 7520 C 731.824 -1.10218 1.53289 0
M  V30 7521 O 731.181 -1.69112 0.686105 0
M  V30 7522 C 731.232 0.215411 3.60858 0
M  V30 7523 O 730.953 1.51714 4.10992 0
M  V30 7524 C 732.454 -0.258636 4.42545 0
M  V30 7525 H 729.674 0.115256 0.661027 0
M  V30 7526 H 732.218 0.963555 1.80377 0
M  V30 7527 H 730.373 -0.445978 3.84824 0
M  V30 7528 H 730.787 1.41226 5.05129 0
M  V30 7529 H 732.261 -0.233849 5.51504 0
M  V30 7530 H 732.738 -1.2995 4.19535 0
M  V30 7531 H 733.344 0.372186 4.23668 0
M  V30 7532 N 731.66 -1.50943 0.453197 0
M  V30 7533 C 732.608 -2.29728 -0.364419 0
M  V30 7534 C 733.602 -1.36246 -1.00664 0
M  V30 7535 O 734.808 -1.53518 -0.939794 0
M  V30 7536 H 731.183 -0.739536 -0.136347 0
M  V30 7537 H 733.154 -2.96672 0.320696 0
M  V30 7538 C 731.903 -3.1629 -1.44415 0
M  V30 7539 H 731.226 -3.88119 -0.959343 0
M  V30 7540 H 732.666 -3.74444 -1.98917 0
M  V30 7541 C 731.125 -2.32702 -2.43622 0
M  V30 7542 O 731.655 -1.99763 -3.48508 0
M  V30 7543 N 729.861 -1.95621 -2.14897 0
M  V30 7544 H 729.408 -2.22607 -1.29629 0
M  V30 7545 H 729.366 -1.39993 -2.81513 0
M  V30 7546 N 733.138 -0.185124 -1.56509 0
M  V30 7547 C 734.385 0.456258 -1.97293 0
M  V30 7548 C 734.713 1.62314 -1.07165 0
M  V30 7549 O 733.968 1.95398 -0.108621 0
M  V30 7550 C 734.267 0.967977 -3.44042 0
M  V30 7551 C 733.933 -0.084476 -4.50821 0
M  V30 7552 C 732.595 -0.373689 -4.79747 0
M  V30 7553 C 734.947 -0.79812 -5.15053 0
M  V30 7554 C 732.275 -1.3817 -5.70198 0
M  V30 7555 C 734.627 -1.79521 -6.06593 0
M  V30 7556 C 733.291 -2.09172 -6.3388 0
M  V30 7557 H 732.561 0.166957 -0.721946 0
M  V30 7558 H 735.208 -0.279992 -1.89442 0
M  V30 7559 H 733.513 1.78231 -3.48914 0
M  V30 7560 H 735.21 1.47347 -3.72948 0
M  V30 7561 H 731.8 0.15111 -4.28334 0
M  V30 7562 H 735.984 -0.587903 -4.92806 0
M  V30 7563 H 731.24 -1.61745 -5.89617 0
M  V30 7564 H 735.414 -2.35347 -6.55427 0
M  V30 7565 H 733.041 -2.87427 -7.03768 0
M  V30 7566 N 734.616 1.57351 0.0885366 0
M  V30 7567 C 735.846 1.90355 0.80303 0
M  V30 7568 C 736.254 0.777678 1.72478 0
M  V30 7569 O 735.597 -0.258908 1.81866 0
M  V30 7570 C 735.659 3.18674 1.66395 0
M  V30 7571 C 735.323 4.4778 0.913327 0
M  V30 7572 C 736.32 5.19345 0.240148 0
M  V30 7573 C 734.005 4.94434 0.885462 0
M  V30 7574 C 735.999 6.35803 -0.450854 0
M  V30 7575 C 733.686 6.10802 0.190679 0
M  V30 7576 C 734.684 6.81337 -0.476295 0
M  V30 7577 O 734.372 7.95488 -1.15992 0
M  V30 7578 H 734.104 0.634035 0.234469 0
M  V30 7579 H 736.658 2.05287 0.0681959 0
M  V30 7580 H 734.888 2.99906 2.44117 0
M  V30 7581 H 736.577 3.37458 2.2556 0
M  V30 7582 H 737.343 4.84339 0.253092 0
M  V30 7583 H 733.222 4.39417 1.39406 0
M  V30 7584 H 736.766 6.90795 -0.972019 0
M  V30 7585 H 732.663 6.45261 0.175603 0
M  V30 7586 H 733.431 8.11509 -1.06749 0
M  V30 7587 N 736.094 -0.359525 1.53444 0
M  V30 7588 C 737.342 -1.09935 1.69584 0
M  V30 7589 C 737.663 -1.89656 0.453371 0
M  V30 7590 O 736.933 -1.8852 -0.53263 0
M  V30 7591 H 735.513 -0.408843 0.625185 0
M  V30 7592 H 738.175 -0.40467 1.90653 0
M  V30 7593 H 737.271 -1.78575 2.55964 0
M  V30 7594 N 737.572 -1.44907 -0.619662 0
M  V30 7595 C 738.519 -1.52654 -1.73105 0
M  V30 7596 C 739.489 -0.373334 -1.6185 0
M  V30 7597 O 740.674 -0.585143 -1.81606 0
M  V30 7598 C 737.814 -1.48769 -3.11387 0
M  V30 7599 C 736.927 -2.74551 -3.33535 0
M  V30 7600 C 736.062 -2.62421 -4.61854 0
M  V30 7601 C 735.101 -3.83312 -4.77219 0
M  V30 7602 N 734.238 -3.69789 -5.96826 0
M  V30 7603 H 739.078 -2.47605 -1.65819 0
M  V30 7604 H 736.615 -1.22875 -0.808719 0
M  V30 7605 H 738.573 -1.44507 -3.91374 0
M  V30 7606 H 737.203 -0.573783 -3.1766 0
M  V30 7607 H 736.255 -2.88953 -2.47408 0
M  V30 7608 H 737.567 -3.64253 -3.40765 0
M  V30 7609 H 736.721 -2.56056 -5.50019 0
M  V30 7610 H 735.46 -1.70298 -4.57001 0
M  V30 7611 H 734.465 -3.90049 -3.87481 0
M  V30 7612 H 735.69 -4.76486 -4.83878 0
M  V30 7613 H 733.636 -2.80426 -5.93041 0
M  V30 7614 H 733.553 -4.53116 -6.05163 0
M  V30 7615 H 734.821 -3.67335 -6.87521 0
M  V30 7616 N 739.05 0.861098 -1.31996 0
M  V30 7617 C 739.982 1.97551 -1.16216 0
M  V30 7618 C 740.995 1.625 -0.0988527 0
M  V30 7619 O 742.184 1.75091 -0.3472 0
M  V30 7620 C 739.284 3.30376 -0.755307 0
M  V30 7621 C 738.457 3.93711 -1.90552 0
M  V30 7622 C 737.516 5.04862 -1.48328 0
M  V30 7623 O 736.542 5.25204 -2.19431 0
M  V30 7624 N 737.744 5.79283 -0.375656 0
M  V30 7625 H 740.509 2.11632 -2.12208 0
M  V30 7626 H 738.07 1.03559 -1.24448 0
M  V30 7627 H 740.062 4.0213 -0.455364 0
M  V30 7628 H 738.632 3.12395 0.113269 0
M  V30 7629 H 737.852 3.14825 -2.37231 0
M  V30 7630 H 739.14 4.32762 -2.67571 0
M  V30 7631 H 738.538 5.65286 0.216284 0
M  V30 7632 H 737.095 6.5166 -0.135289 0
M  V30 7633 N 740.528 1.15101 1.07655 0
M  V30 7634 C 741.776 0.922149 1.79836 0
M  V30 7635 C 742.097 -0.552346 1.87014 0
M  V30 7636 O 741.367 -1.40145 1.3688 0
M  V30 7637 H 739.947 0.338182 0.666064 0
M  V30 7638 H 742.609 1.45107 1.30115 0
M  V30 7639 H 741.705 1.32883 2.82398 0
M  V30 7640 N 742.006 -1.2595 0.947325 0
M  V30 7641 C 743.255 -1.92759 0.593887 0
M  V30 7642 C 743.568 -1.75083 -0.872093 0
M  V30 7643 O 744.774 -2.36401 -1.33518 0
M  V30 7644 C 743.23 -3.45395 1.01144 0
M  V30 7645 C 742.838 -3.71795 2.49946 0
M  V30 7646 C 744.582 -4.18173 0.730185 0
M  V30 7647 C 742.489 -5.17901 2.85539 0
M  V30 7648 H 741.419 -0.721676 0.218403 0
M  V30 7649 H 744.07 -1.4293 1.15079 0
M  V30 7650 H 742.452 -3.94143 0.383007 0
M  V30 7651 H 743.626 -3.33728 3.17746 0
M  V30 7652 H 741.941 -3.12263 2.75465 0
M  V30 7653 H 744.538 -5.25784 0.972367 0
M  V30 7654 H 744.881 -4.14964 -0.333223 0
M  V30 7655 H 745.414 -3.75309 1.31862 0
M  V30 7656 H 742.153 -5.26216 3.90867 0
M  V30 7657 H 741.673 -5.57042 2.22406 0
M  V30 7658 H 743.352 -5.8596 2.74336 0
M  V30 7659 N 743.484 -0.715051 -1.40445 0
M  V30 7660 C 744.416 -0.0227516 -2.29189 0
M  V30 7661 C 745.429 0.724313 -1.458 0
M  V30 7662 O 746.618 0.571781 -1.69094 0
M  V30 7663 C 743.718 0.992038 -3.24055 0
M  V30 7664 C 742.891 0.310613 -4.36296 0
M  V30 7665 C 741.95 1.23071 -5.11605 0
M  V30 7666 O 740.976 0.71571 -5.64682 0
M  V30 7667 N 742.178 2.56188 -5.2091 0
M  V30 7668 H 744.943 -0.78473 -2.89244 0
M  V30 7669 H 742.504 -0.562637 -1.51809 0
M  V30 7670 H 744.496 1.60973 -3.71308 0
M  V30 7671 H 743.066 1.65538 -2.65171 0
M  V30 7672 H 742.286 -0.487269 -3.91177 0
M  V30 7673 H 743.574 -0.162415 -5.08541 0
M  V30 7674 H 742.972 3.00527 -4.7927 0
M  V30 7675 H 741.529 3.13103 -5.71673 0
M  V30 7676 N 744.962 1.50701 -0.461195 0
M  V30 7677 C 746.209 2.02267 0.0971971 0
M  V30 7678 C 746.537 1.34387 1.40608 0
M  V30 7679 O 745.792 0.455254 1.90331 0
M  V30 7680 C 746.091 3.55788 0.33908 0
M  V30 7681 C 745.757 4.42092 -0.886885 0
M  V30 7682 C 744.419 4.65398 -1.22304 0
M  V30 7683 C 746.771 4.92571 -1.70361 0
M  V30 7684 C 744.099 5.36429 -2.37616 0
M  V30 7685 C 746.451 5.64868 -2.84793 0
M  V30 7686 C 745.115 5.86431 -3.18834 0
M  V30 7687 H 744.385 0.740146 0.0355669 0
M  V30 7688 H 747.032 1.81415 -0.61326 0
M  V30 7689 H 745.337 3.751 1.13168 0
M  V30 7690 H 747.034 3.93243 0.784937 0
M  V30 7691 H 743.624 4.24165 -0.614981 0
M  V30 7692 H 747.808 4.74428 -1.4571 0
M  V30 7693 H 743.064 5.51333 -2.64276 0
M  V30 7694 H 747.238 6.02966 -3.48432 0
M  V30 7695 H 744.865 6.41248 -4.08296 0
M  V30 7696 N 746.441 0.193421 1.56409 0
M  V30 7697 C 747.671 -0.450783 2.01622 0
M  V30 7698 C 748.079 -1.5585 1.07273 0
M  V30 7699 O 747.422 -1.83569 0.0694875 0
M  V30 7700 C 747.484 -1.06913 3.43235 0
M  V30 7701 C 747.148 -0.100352 4.5689 0
M  V30 7702 C 748.145 0.689633 5.15306 0
M  V30 7703 C 745.83 0.0102436 5.02299 0
M  V30 7704 C 747.824 1.5772 6.17579 0
M  V30 7705 C 745.511 0.901368 6.04416 0
M  V30 7706 C 746.509 1.68341 6.61929 0
M  V30 7707 O 746.197 2.5596 7.62063 0
M  V30 7708 H 745.929 -0.117671 0.66568 0
M  V30 7709 H 748.483 0.2989 2.03214 0
M  V30 7710 H 746.713 -1.86736 3.38624 0
M  V30 7711 H 748.402 -1.61781 3.72266 0
M  V30 7712 H 749.168 0.614485 4.81092 0
M  V30 7713 H 745.047 -0.58829 4.57231 0
M  V30 7714 H 748.591 2.18805 6.62397 0
M  V30 7715 H 744.488 0.977637 6.38054 0
M  V30 7716 H 745.256 2.49721 7.79475 0
M  V30 7717 N 747.919 -1.57396 -0.0801906 0
M  V30 7718 C 749.147 -1.91055 -0.794075 0
M  V30 7719 C 749.562 -0.788583 -1.71542 0
M  V30 7720 O 748.919 0.238587 -1.80934 0
M  V30 7721 C 748.97 -3.24418 -1.59484 0
M  V30 7722 O 748.691 -4.323 -0.710532 0
M  V30 7723 C 750.192 -3.72037 -2.41046 0
M  V30 7724 H 747.412 -0.63171 -0.226238 0
M  V30 7725 H 749.956 -2.04431 -0.0529685 0
M  V30 7726 H 748.111 -3.12595 -2.2883 0
M  V30 7727 H 748.525 -5.08976 -1.26663 0
M  V30 7728 H 749.999 -4.68006 -2.92702 0
M  V30 7729 H 750.476 -3.00624 -3.2019 0
M  V30 7730 H 751.082 -3.86777 -1.76871 0
M  V30 7731 N 749.397 0.351382 -1.53633 0
M  V30 7732 C 750.329 1.45159 -1.77374 0
M  V30 7733 C 751.342 1.4905 -0.654826 0
M  V30 7734 O 752.531 1.52274 -0.931396 0
M  V30 7735 C 749.631 2.83858 -1.85143 0
M  V30 7736 C 748.804 3.03498 -3.14972 0
M  V30 7737 C 747.863 4.22393 -3.138 0
M  V30 7738 O 746.889 4.16885 -3.87551 0
M  V30 7739 N 748.091 5.30533 -2.35617 0
M  V30 7740 H 750.856 1.25167 -2.72311 0
M  V30 7741 H 748.417 0.54121 -1.52586 0
M  V30 7742 H 750.409 3.61557 -1.8182 0
M  V30 7743 H 748.979 2.9703 -0.974275 0
M  V30 7744 H 748.199 2.13336 -3.31484 0
M  V30 7745 H 749.487 3.13498 -4.00745 0
M  V30 7746 H 748.885 5.37875 -1.75235 0
M  V30 7747 H 747.442 6.06756 -2.38098 0
M  V30 7748 N 750.875 1.45233 0.611969 0
M  V30 7749 C 751.805 1.5641 1.73373 0
M  V30 7750 C 752.786 0.415896 1.64937 0
M  V30 7751 O 753.971 0.638478 1.83404 0
M  V30 7752 C 751.101 1.52627 3.11965 0
M  V30 7753 C 750.055 2.66119 3.35208 0
M  V30 7754 C 749.381 2.4739 4.74028 0
M  V30 7755 C 750.681 4.08157 3.25891 0
M  V30 7756 H 752.375 2.50307 1.64277 0
M  V30 7757 H 749.921 1.20467 0.788904 0
M  V30 7758 H 751.874 1.59043 3.90235 0
M  V30 7759 H 750.598 0.552564 3.21892 0
M  V30 7760 H 749.257 2.59123 2.59327 0
M  V30 7761 H 748.905 1.48168 4.80682 0
M  V30 7762 H 748.605 3.23494 4.90536 0
M  V30 7763 H 750.129 2.55653 5.54503 0
M  V30 7764 H 751.543 4.1642 3.9404 0
M  V30 7765 H 749.94 4.84617 3.5393 0
M  V30 7766 H 751.01 4.30374 2.23397 0
M  V30 7767 N 752.353 -0.854086 1.3245 0
M  V30 7768 C 753.3 -1.96271 1.21434 0
M  V30 7769 C 754.27 -1.6582 0.0963851 0
M  V30 7770 O 755.455 -1.88851 0.27203 0
M  V30 7771 C 752.595 -3.31939 0.943952 0
M  V30 7772 C 751.708 -3.74885 2.14675 0
M  V30 7773 C 750.843 -4.99347 1.81179 0
M  V30 7774 C 749.882 -5.34785 2.97777 0
M  V30 7775 N 749.019 -6.50425 2.6437 0
M  V30 7776 H 753.859 -2.05025 2.16261 0
M  V30 7777 H 751.396 -1.00348 1.07558 0
M  V30 7778 H 753.354 -4.10076 0.767675 0
M  V30 7779 H 751.984 -3.22784 0.0324763 0
M  V30 7780 H 751.036 -2.92396 2.43328 0
M  V30 7781 H 752.348 -3.97068 3.01891 0
M  V30 7782 H 751.502 -5.85193 1.60107 0
M  V30 7783 H 750.241 -4.79101 0.911777 0
M  V30 7784 H 749.246 -4.47451 3.1948 0
M  V30 7785 H 750.471 -5.56988 3.88511 0
M  V30 7786 H 748.417 -6.31695 1.7691 0
M  V30 7787 H 748.334 -6.7263 3.45116 0
M  V30 7788 H 749.602 -7.39422 2.46729 0
M  V30 7789 N 753.831 -1.1567 -1.07043 0
M  V30 7790 C 755.059 -0.957471 -1.83412 0
M  V30 7791 C 755.474 0.494271 -1.82215 0
M  V30 7792 O 754.831 1.34288 -1.23584 0
M  V30 7793 C 754.882 -1.46784 -3.30359 0
M  V30 7794 O 754.603 -2.86271 -3.31633 0
M  V30 7795 C 756.104 -1.31054 -4.23485 0
M  V30 7796 H 753.324 -0.33986 -0.578564 0
M  V30 7797 H 755.868 -1.53518 -1.35102 0
M  V30 7798 H 754.023 -0.932586 -3.76007 0
M  V30 7799 H 754.437 -3.0948 -4.23465 0
M  V30 7800 H 755.911 -1.71605 -5.24648 0
M  V30 7801 H 756.388 -0.255107 -4.38458 0
M  V30 7802 H 756.994 -1.83503 -3.83676 0
M  V30 7803 N 755.309 1.25446 -0.953992 0
M  V30 7804 C 756.558 1.92441 -0.604101 0
M  V30 7805 C 756.871 1.75543 0.862796 0
M  V30 7806 O 758.077 2.37106 1.32262 0
M  V30 7807 C 756.533 3.44854 -1.02974 0
M  V30 7808 C 756.141 3.70464 -2.51914 0
M  V30 7809 C 757.885 4.1778 -0.752352 0
M  V30 7810 C 755.792 5.1638 -2.88281 0
M  V30 7811 H 754.722 0.720508 -0.222227 0
M  V30 7812 H 757.373 1.42318 -1.15836 0
M  V30 7813 H 755.755 3.93935 -0.403904 0
M  V30 7814 H 756.929 3.32038 -3.19511 0
M  V30 7815 H 755.244 3.10797 -2.77117 0
M  V30 7816 H 757.841 5.25261 -1.00024 0
M  V30 7817 H 758.184 4.15135 0.311212 0
M  V30 7818 H 758.717 3.74605 -1.33851 0
M  V30 7819 H 755.456 5.24135 -3.93653 0
M  V30 7820 H 754.976 5.55855 -2.25357 0
M  V30 7821 H 756.655 5.84497 -2.77439 0
M  V30 7822 N 756.787 0.722489 1.40064 0
M  V30 7823 C 758.015 0.274838 2.05066 0
M  V30 7824 C 758.43 -1.08586 1.54449 0
M  V30 7825 O 757.787 -1.68375 0.704003 0
M  V30 7826 C 757.838 0.253673 3.60609 0
M  V30 7827 O 757.559 1.56064 4.0936 0
M  V30 7828 C 759.06 -0.211684 4.42794 0
M  V30 7829 H 756.28 0.12226 0.659768 0
M  V30 7830 H 758.824 0.982632 1.79345 0
M  V30 7831 H 756.979 -0.405137 3.85276 0
M  V30 7832 H 757.393 1.46576 5.03603 0
M  V30 7833 H 758.867 -0.175341 5.51721 0
M  V30 7834 H 759.344 -1.25493 4.2089 0
M  V30 7835 H 759.95 0.4171 4.2325 0
M  V30 7836 N 758.265 -1.50454 0.469181 0
M  V30 7837 C 759.49 -2.0722 -0.0864892 0
M  V30 7838 C 759.915 -1.33098 -1.32916 0
M  V30 7839 O 759.273 -0.378084 -1.77314 0
M  V30 7840 C 759.321 -3.58845 -0.355384 0
M  V30 7841 O 758.425 -3.86583 -1.43622 0
M  V30 7842 H 757.766 -0.663889 0.0121414 0
M  V30 7843 H 760.296 -1.93674 0.659674 0
M  V30 7844 H 760.306 -4.03617 -0.596447 0
M  V30 7845 H 758.981 -4.12211 0.552698 0
M  V30 7846 H 757.558 -3.5365 -1.18262 0
M  V30 7847 N 759.743 -0.201713 -1.56304 0
M  V30 7848 C 760.675 0.748466 -2.16635 0
M  V30 7849 C 761.688 1.172 -1.12996 0
M  V30 7850 O 762.877 1.10658 -1.40061 0
M  V30 7851 C 759.977 2.02296 -2.719 0
M  V30 7852 C 759.15 1.75818 -4.00508 0
M  V30 7853 C 758.209 2.87779 -4.40533 0
M  V30 7854 O 757.235 2.57101 -5.07826 0
M  V30 7855 N 758.437 4.16287 -4.04581 0
M  V30 7856 H 761.202 0.232505 -2.98797 0
M  V30 7857 H 758.763 -0.0199822 -1.61888 0
M  V30 7858 H 760.755 2.7635 -2.95657 0
M  V30 7859 H 759.325 2.44996 -1.94154 0
M  V30 7860 H 758.545 0.855095 -3.84814 0
M  V30 7861 H 759.833 1.55532 -4.84445 0
M  V30 7862 H 759.231 4.44061 -3.50466 0
M  V30 7863 H 757.788 4.86946 -4.33274 0
M  V30 7864 N 761.222 1.57436 0.0718424 0
M  V30 7865 C 762.468 1.88388 0.766904 0
M  V30 7866 C 762.823 0.7954 1.75189 0
M  V30 7867 O 762.116 -0.200438 1.90549 0
M  V30 7868 C 762.31 3.23723 1.51455 0
M  V30 7869 C 762.139 4.45632 0.603475 0
M  V30 7870 C 760.909 5.04728 0.240437 0
M  V30 7871 C 763.107 5.14203 -0.0997624 0
M  V30 7872 N 761.089 6.10163 -0.676363 0
M  V30 7873 C 762.46 6.13812 -0.873755 0
M  V30 7874 C 764.515 4.97605 -0.171238 0
M  V30 7875 C 763.218 6.98615 -1.71258 0
M  V30 7876 C 765.244 5.82935 -0.997041 0
M  V30 7877 C 764.606 6.82082 -1.75908 0
M  V30 7878 H 760.705 0.738888 0.256064 0
M  V30 7879 H 763.289 1.94679 0.0284273 0
M  V30 7880 H 761.46 3.1844 2.22375 0
M  V30 7881 H 763.192 3.42324 2.15862 0
M  V30 7882 H 759.947 4.69869 0.593284 0
M  V30 7883 H 760.371 6.67537 -1.12801 0
M  V30 7884 H 765.013 4.20869 0.403586 0
M  V30 7885 H 762.731 7.74726 -2.29838 0
M  V30 7886 H 766.317 5.72149 -1.05532 0
M  V30 7887 H 765.197 7.46964 -2.38778 0
M  V30 7888 N 762.7 -0.34323 1.53817 0
M  V30 7889 C 763.647 -1.42153 1.81827 0
M  V30 7890 C 764.617 -1.52251 0.663996 0
M  V30 7891 O 765.802 -1.67784 0.908461 0
M  V30 7892 C 762.942 -2.78799 2.03384 0
M  V30 7893 C 762.055 -2.7749 3.31094 0
M  V30 7894 C 761.19 -4.05856 3.42717 0
M  V30 7895 C 760.229 -3.98776 4.64375 0
M  V30 7896 N 759.366 -5.18833 4.73029 0
M  V30 7897 H 764.206 -1.17567 2.73829 0
M  V30 7898 H 761.743 -0.569506 1.35628 0
M  V30 7899 H 763.701 -3.58211 2.13872 0
M  V30 7900 H 762.331 -3.01736 1.14696 0
M  V30 7901 H 761.383 -1.90182 3.29446 0
M  V30 7902 H 762.695 -2.68137 4.206 0
M  V30 7903 H 761.849 -4.93691 3.52638 0
M  V30 7904 H 760.588 -4.1799 2.51267 0
M  V30 7905 H 759.593 -3.09325 4.5453 0
M  V30 7906 H 760.818 -3.88224 5.57189 0
M  V30 7907 H 758.764 -5.31511 3.84489 0
M  V30 7908 H 758.681 -5.11737 5.56472 0
M  V30 7909 H 759.949 -6.08439 4.87261 0
M  V30 7910 N 764.178 -1.45556 -0.604258 0
M  V30 7911 C 765.088 -1.57025 -1.74299 0
M  V30 7912 C 766.104 -0.45456 -1.67958 0
M  V30 7913 O 767.28 -0.715711 -1.88254 0
M  V30 7914 C 764.345 -1.53702 -3.10768 0
M  V30 7915 C 763.406 -2.76335 -3.28538 0
M  V30 7916 C 762.639 -2.73161 -4.58496 0
M  V30 7917 O 762.862 -1.80678 -5.41028 0
M  V30 7918 O 761.796 -3.64409 -4.79051 0
M  V30 7919 H 765.622 -2.53284 -1.67573 0
M  V30 7920 H 763.207 -1.28104 -0.768745 0
M  V30 7921 H 765.089 -1.54468 -3.92068 0
M  V30 7922 H 763.764 -0.605957 -3.17978 0
M  V30 7923 H 762.671 -2.8113 -2.46813 0
M  V30 7924 H 764.004 -3.68578 -3.26207 0
M  V30 7925 N 765.656 0.84705 -1.32902 0
M  V30 7926 C 766.566 1.98845 -1.2449 0
M  V30 7927 C 767.582 1.7329 -0.15702 0
M  V30 7928 O 768.758 1.978 -0.379104 0
M  V30 7929 C 765.823 3.32679 -0.975985 0
M  V30 7930 C 764.884 3.71405 -2.15306 0
M  V30 7931 C 764.117 4.98853 -1.89688 0
M  V30 7932 O 764.34 5.64134 -0.843168 0
M  V30 7933 O 763.274 5.34889 -2.76002 0
M  V30 7934 H 767.1 2.0888 -2.2046 0
M  V30 7935 H 764.685 0.978852 -1.12867 0
M  V30 7936 H 766.567 4.12885 -0.842826 0
M  V30 7937 H 765.242 3.23667 -0.0464954 0
M  V30 7938 H 764.149 2.91743 -2.34172 0
M  V30 7939 H 765.482 3.85073 -3.06561 0
M  V30 7940 N 767.134 1.16236 1.06428 0
M  V30 7941 C 768.411 0.853294 1.76006 0
M  V30 7942 C 768.791 -0.649162 2.00871 0
M  V30 7943 O 768.139 -1.59653 1.63472 0
M  V30 7944 C 768.349 1.67448 3.06206 0
M  V30 7945 C 769.697 1.8866 3.80385 0
M  V30 7946 O 770.721 1.64303 3.16043 0
M  V30 7947 O 769.58 2.29518 4.95968 0
M  V30 7948 H 766.674 0.314737 0.764767 0
M  V30 7949 H 769.22 1.26865 1.12709 0
M  V30 7950 H 767.992 2.69411 2.83784 0
M  V30 7951 H 767.615 1.25608 3.77238 0
M  V30 7952 N 768.612 -1.24939 0.960631 0
M  V30 7953 C 769.575 -2.239 0.49006 0
M  V30 7954 C 770.575 -1.55497 -0.409535 0
M  V30 7955 O 771.765 -1.72978 -0.205984 0
M  V30 7956 C 768.897 -3.39654 -0.291193 0
M  V30 7957 H 770.09 -2.67044 1.36482 0
M  V30 7958 H 767.643 -1.37429 0.744505 0
M  V30 7959 H 768.378 -3.01939 -1.18336 0
M  V30 7960 H 768.163 -3.90496 0.354276 0
M  V30 7961 H 769.653 -4.13125 -0.609693 0
M  V30 7962 N 770.09 -0.729906 -1.39679 0
M  V30 7963 C 771.318 -0.285709 -2.04918 0
M  V30 7964 C 771.733 1.07765 -1.55023 0
M  V30 7965 O 771.09 1.67999 -0.712923 0
M  V30 7966 C 771.141 -0.272793 -3.60469 0
M  V30 7967 O 770.862 -1.58233 -4.08527 0
M  V30 7968 C 772.363 0.188199 -4.429 0
M  V30 7969 H 769.583 -0.125758 -0.65911 0
M  V30 7970 H 772.127 -0.992129 -1.78821 0
M  V30 7971 H 770.282 0.384699 -3.85485 0
M  V30 7972 H 770.696 -1.49245 -5.02818 0
M  V30 7973 H 772.17 0.14608 -5.51807 0
M  V30 7974 H 772.647 1.2326 -4.21549 0
M  V30 7975 H 773.253 -0.439541 -4.23023 0
M  V30 7976 N 771.568 1.50203 -0.477153 0
M  V30 7977 C 772.498 2.31517 0.303646 0
M  V30 7978 C 773.479 1.38696 0.984753 0
M  V30 7979 O 774.664 1.67615 0.980758 0
M  V30 7980 C 771.794 3.18598 1.38249 0
M  V30 7981 C 770.748 4.2002 0.822645 0
M  V30 7982 C 770.074 4.95878 2.00024 0
M  V30 7983 C 771.374 5.22023 -0.170185 0
M  V30 7984 H 773.068 2.97042 -0.375027 0
M  V30 7985 H 770.614 1.42848 -0.181802 0
M  V30 7986 H 772.567 3.74282 1.93625 0
M  V30 7987 H 771.291 2.5097 2.09002 0
M  V30 7988 H 769.95 3.65445 0.290813 0
M  V30 7989 H 769.598 4.24717 2.69489 0
M  V30 7990 H 769.298 5.64487 1.63183 0
M  V30 7991 H 770.822 5.54399 2.55878 0
M  V30 7992 H 772.236 5.72543 0.294606 0
M  V30 7993 H 770.633 5.98386 -0.453181 0
M  V30 7994 H 771.703 4.72396 -1.09408 0
M  V30 7995 N 773.046 0.209999 1.56195 0
M  V30 7996 C 774.271 -0.433064 2.02828 0
M  V30 7997 C 774.696 -1.5337 1.08901 0
M  V30 7998 O 774.054 -1.81144 0.0751132 0
M  V30 7999 C 774.102 -0.952635 3.47789 0
M  V30 8000 O 773.206 -2.0647 3.56993 0
M  V30 8001 H 772.547 -0.0994594 0.656509 0
M  V30 8002 H 775.077 0.32525 2.01998 0
M  V30 8003 H 775.087 -1.26542 3.8788 0
M  V30 8004 H 773.762 -0.147007 4.1564 0
M  V30 8005 H 772.339 -1.75942 3.28784 0
M  V30 8006 N 774.524 -1.57472 -0.0634922 0
M  V30 8007 C 775.749 -1.92273 -0.77756 0
M  V30 8008 C 776.174 -0.807141 -1.69902 0
M  V30 8009 O 775.532 0.239523 -1.79711 0
M  V30 8010 C 775.58 -3.26054 -1.54017 0
M  V30 8011 O 774.684 -3.15873 -2.65138 0
M  V30 8012 H 774.025 -0.629389 -0.211579 0
M  V30 8013 H 776.555 -2.04579 -0.0292523 0
M  V30 8014 H 776.565 -3.60127 -1.91763 0
M  V30 8015 H 775.24 -4.06824 -0.864128 0
M  V30 8016 H 773.817 -2.93373 -2.30189 0
M  V30 8017 N 776.003 0.335068 -1.53997 0
M  V30 8018 C 777.414 0.910191 -1.6301 0
M  V30 8019 C 777.765 1.89271 -0.516809 0
M  V30 8020 O 776.89 2.13516 0.352123 0
M  V30 8021 C 777.485 1.65761 -2.9548 0
M  V30 8022 C 776.044 2.18163 -3.06728 0
M  V30 8023 C 775.191 1.00338 -2.5851 0
M  V30 8024 H 778.142 0.112965 -1.58297 0
M  V30 8025 H 778.163 2.52107 -2.84995 0
M  V30 8026 H 777.675 0.94227 -3.76488 0
M  V30 8027 H 775.776 2.92847 -2.30372 0
M  V30 8028 H 775.889 2.43952 -4.1234 0
M  V30 8029 H 774.253 1.37925 -2.14124 0
M  V30 8030 H 775.036 0.30254 -3.41964 0
M  V30 8031 N 777.481 1.45874 0.596531 0
M  V30 8032 C 778.444 1.54988 1.68853 0
M  V30 8033 C 779.444 0.428302 1.54991 0
M  V30 8034 O 780.634 0.692158 1.59859 0
M  V30 8035 C 777.766 1.457 3.08195 0
M  V30 8036 H 778.959 2.52294 1.62135 0
M  V30 8037 H 776.512 1.33479 0.813206 0
M  V30 8038 H 777.247 0.496204 3.20481 0
M  V30 8039 H 777.032 2.27061 3.19665 0
M  V30 8040 H 778.522 1.55133 3.87716 0
M  V30 8041 N 778.959 -0.83999 1.33349 0
M  V30 8042 C 780.205 -1.59753 1.24927 0
M  V30 8043 C 780.538 -1.93318 -0.184855 0
M  V30 8044 O 779.813 -1.586 -1.12589 0
M  V30 8045 C 780.096 -2.90829 2.12345 0
M  V30 8046 C 779.949 -2.63953 3.6421 0
M  V30 8047 C 781.268 -3.92246 1.99577 0
M  V30 8048 H 778.387 -0.579654 0.45516 0
M  V30 8049 H 781.029 -0.968909 1.63439 0
M  V30 8050 H 779.179 -3.44478 1.79631 0
M  V30 8051 H 780.851 -2.16745 4.07209 0
M  V30 8052 H 779.094 -1.97671 3.86146 0
M  V30 8053 H 779.765 -3.57348 4.20721 0
M  V30 8054 H 782.241 -3.479 2.28265 0
M  V30 8055 H 781.117 -4.81793 2.62996 0
M  V30 8056 H 781.378 -4.3138 0.967673 0
M  V30 8057 N 780.437 -1.16799 -1.0581 0
M  V30 8058 C 781.683 -0.953935 -1.78963 0
M  V30 8059 C 782.016 0.516638 -1.87202 0
M  V30 8060 O 781.291 1.38338 -1.36721 0
M  V30 8061 C 781.574 -1.58808 -3.23191 0
M  V30 8062 C 781.427 -3.13032 -3.23003 0
M  V30 8063 C 782.746 -1.2868 -4.20867 0
M  V30 8064 H 779.865 -0.347972 -0.64968 0
M  V30 8065 H 782.507 -1.44204 -1.23715 0
M  V30 8066 H 780.657 -1.17303 -3.70368 0
M  V30 8067 H 782.329 -3.63553 -2.83949 0
M  V30 8068 H 780.572 -3.46108 -2.61518 0
M  V30 8069 H 781.243 -3.52527 -4.24769 0
M  V30 8070 H 783.719 -1.6461 -3.82155 0
M  V30 8071 H 782.595 -1.75645 -5.20038 0
M  V30 8072 H 782.856 -0.206491 -4.41618 0
M  V30 8073 N 781.915 1.24427 -0.967243 0
M  V30 8074 C 782.848 2.23885 -0.441683 0
M  V30 8075 C 783.826 1.55231 0.483963 0
M  V30 8076 O 785.01 1.83865 0.415445 0
M  V30 8077 C 782.137 3.36755 0.362458 0
M  V30 8078 C 781.183 4.23495 -0.505407 0
M  V30 8079 S 782.016 4.98916 -1.94534 0
M  V30 8080 C 783.172 6.15245 -1.14997 0
M  V30 8081 H 783.405 2.68118 -1.28453 0
M  V30 8082 H 780.938 1.337 -0.772243 0
M  V30 8083 H 782.896 4.02218 0.820445 0
M  V30 8084 H 781.557 2.91081 1.18027 0
M  V30 8085 H 780.75 5.03876 0.111979 0
M  V30 8086 H 780.352 3.63032 -0.899104 0
M  V30 8087 H 782.644 6.7629 -0.404769 0
M  V30 8088 H 783.587 6.81343 -1.92814 0
M  V30 8089 H 783.995 5.60455 -0.674543 0
M  V30 8090 N 783.393 0.737304 1.3929 0
M  V30 8091 C 784.804 0.355966 1.83275 0
M  V30 8092 C 785.155 -1.11295 1.6158 0
M  V30 8093 O 784.28 -1.85871 1.10819 0
M  V30 8094 C 784.875 0.63931 3.32713 0
M  V30 8095 C 783.434 0.31144 3.75109 0
M  V30 8096 C 782.581 0.900765 2.62262 0
M  V30 8097 H 785.532 0.934763 1.28249 0
M  V30 8098 H 785.553 -0.0881293 3.80398 0
M  V30 8099 H 785.065 1.70847 3.48472 0
M  V30 8100 H 783.166 -0.751791 3.64937 0
M  V30 8101 H 783.279 0.795611 4.72448 0
M  V30 8102 H 781.643 0.327239 2.52589 0
M  V30 8103 H 782.426 1.97463 2.80826 0
M  V30 8104 N 784.871 -1.49948 0.485112 0
M  V30 8105 C 786.099 -2.06806 -0.0622824 0
M  V30 8106 C 786.514 -1.34736 -1.32256 0
M  V30 8107 O 785.871 -0.420836 -1.77582 0
M  V30 8108 C 785.922 -3.59934 -0.336096 0
M  V30 8109 O 785.643 -4.29289 0.874203 0
M  V30 8110 C 787.144 -4.33459 -0.928903 0
M  V30 8111 H 784.364 -0.670867 0.0133472 0
M  V30 8112 H 786.908 -1.92937 0.677917 0
M  V30 8113 H 785.063 -3.7356 -1.02625 0
M  V30 8114 H 785.477 -5.20735 0.627332 0
M  V30 8115 H 786.951 -5.41527 -1.07017 0
M  V30 8116 H 787.428 -3.94881 -1.92265 0
M  V30 8117 H 788.034 -4.24399 -0.276705 0
M  V30 8118 N 786.349 -0.21828 -1.56081 0
M  V30 8119 C 787.282 0.733096 -2.16104 0
M  V30 8120 C 788.26 1.19333 -1.10447 0
M  V30 8121 O 789.444 1.27666 -1.38685 0
M  V30 8122 C 786.571 1.99283 -2.73868 0
M  V30 8123 C 785.617 1.67285 -3.92324 0
M  V30 8124 S 786.45 0.800511 -5.29483 0
M  V30 8125 C 787.606 2.06988 -5.90683 0
M  V30 8126 H 787.839 0.222917 -2.96463 0
M  V30 8127 H 785.372 -0.00300946 -1.544 0
M  V30 8128 H 787.33 2.71618 -3.07789 0
M  V30 8129 H 785.991 2.47414 -1.93508 0
M  V30 8130 H 785.184 2.60874 -4.31232 0
M  V30 8131 H 784.786 1.03016 -3.59533 0
M  V30 8132 H 787.078 3.02019 -6.06457 0
M  V30 8133 H 788.021 1.72476 -6.86773 0
M  V30 8134 H 788.429 2.20893 -5.19487 0
M  V30 8135 N 787.827 1.57504 0.0551401 0
M  V30 8136 C 789.075 1.87684 0.74962 0
M  V30 8137 C 789.396 0.812547 1.77264 0
M  V30 8138 O 788.666 -0.15694 1.9527 0
M  V30 8139 H 787.246 0.6926 0.279846 0
M  V30 8140 H 789.908 1.94881 0.0272745 0
M  V30 8141 H 789.004 2.85734 1.25548 0
M  V30 8142 N 789.305 -0.326896 1.54172 0
M  V30 8143 C 790.721 -0.671034 1.44808 0
M  V30 8144 C 790.921 -1.91781 0.618258 0
M  V30 8145 O 789.977 -2.52235 0.115751 0
M  V30 8146 C 791.29 -0.848147 2.88491 0
M  V30 8147 C 792.838 -0.945702 2.98371 0
M  V30 8148 C 793.313 -1.15501 4.43197 0
M  V30 8149 N 794.804 -1.22183 4.46795 0
M  V30 8150 C 795.539 -1.4016 5.56006 0
M  V30 8151 N 795.035 -1.55202 6.75192 0
M  V30 8152 N 796.828 -1.42841 5.43648 0
M  V30 8153 H 788.979 0.49262 2.06608 0
M  V30 8154 H 791.242 0.158574 0.934643 0
M  V30 8155 H 790.948 -0.00329969 3.517 0
M  V30 8156 H 790.822 -1.74497 3.34411 0
M  V30 8157 H 793.209 -1.78106 2.35292 0
M  V30 8158 H 793.29 -0.0254215 2.55787 0
M  V30 8159 H 792.934 -0.324521 5.06862 0
M  V30 8160 H 792.864 -2.08911 4.83388 0
M  V30 8161 H 795.355 -1.12016 3.60917 0
M  V30 8162 H 795.668 -1.68601 7.54184 0
M  V30 8163 H 794.013 -1.52306 6.78106 0
M  V30 8164 H 797.204 -1.30683 4.49488 0
M  V30 8165 H 797.377 -1.56509 6.28816 0
M  V30 8166 O 790.822 -1.54423 -0.472853 0
M  V30 8167 H 791.513 -1.5752 -1.12726 0
M  V30 END ATOM
M  V30 BEGIN BOND
M  V30 END BOND
M  V30 END CTAB
M  END
$$$$
