drugbank_target|P0A6V7 Thiosulfate sulfurtransferase GlpE (DB02761)
 OpenBabel12092119593D

  0  0  0     0  0            999 V3000
M  V30 BEGIN CTAB
M  V30 COUNTS 1635 1655 0 0 0
M  V30 BEGIN ATOM
M  V30 1 H -0.908 1.98254 -0.117106 0
M  V30 2 N 0 1.576 0 0
M  V30 3 C 0.933 2.03868 1.02534 0
M  V30 4 C 1.911 0.928543 1.3348 0
M  V30 5 O 3.095 1.19667 1.45644 0
M  V30 6 C 0.222 2.43627 2.35294 0
M  V30 7 C -0.732 3.65373 2.2001 0
M  V30 8 S 0.101 5.13292 1.52614 0
M  V30 9 C 1.257 5.56322 2.86805 0
M  V30 10 H 1.49 2.90518 0.631377 0
M  V30 11 H -0.977 1.52953 0.210867 0
M  V30 12 H 0.981 2.67203 3.11629 0
M  V30 13 H -0.358 1.57376 2.7183 0
M  V30 14 H -1.165 3.90944 3.18086 0
M  V30 15 H -1.563 3.418 1.51819 0
M  V30 16 H 0.729 5.58782 3.83104 0
M  V30 17 H 1.672 6.56266 2.65933 0
M  V30 18 H 2.08 4.83886 2.90714 0
M  V30 19 N 1.4781 -0.272755 1.55222 0
M  V30 20 C 2.7551 -1.02562 1.66555 0
M  V30 21 C 3.1351 -2.04282 0.532189 0
M  V30 22 O 2.4831 -2.23662 -0.467717 0
M  V30 23 C 2.6931 -1.6822 3.05782 0
M  V30 24 C 4.0411 -2.19373 3.63539 0
M  V30 25 O 5.0651 -1.78206 3.08417 0
M  V30 26 O 3.9241 -2.94883 4.60115 0
M  V30 27 H 1.0181 -0.475755 0.676451 0
M  V30 28 H 3.5641 -0.268593 1.67561 0
M  V30 29 H 2.3361 -0.945112 3.79715 0
M  V30 30 H 1.9591 -2.50609 3.08676 0
M  V30 31 N 2.9562 -1.48159 -0.537278 0
M  V30 32 C 3.8882 -1.58218 -1.65831 0
M  V30 33 C 4.9012 -0.466948 -1.5596 0
M  V30 34 O 6.0902 -0.73747 -1.62553 0
M  V30 35 C 3.1902 -1.48906 -3.04434 0
M  V30 36 C 2.3632 -2.75343 -3.3986 0
M  V30 37 C 1.4222 -2.59588 -4.57712 0
M  V30 38 O 0.4482 -3.33457 -4.61297 0
M  V30 39 N 1.6502 -1.68724 -5.55439 0
M  V30 40 H 4.4152 -2.54891 -1.57641 0
M  V30 41 H 1.9762 -1.4479 -0.724386 0
M  V30 42 H 3.9682 -1.36072 -3.81139 0
M  V30 43 H 2.5382 -0.602368 -3.06741 0
M  V30 44 H 1.7582 -3.02795 -2.52406 0
M  V30 45 H 3.0462 -3.5924 -3.60311 0
M  V30 46 H 2.4442 -1.07898 -5.55315 0
M  V30 47 H 1.0012 -1.61832 -6.3139 0
M  V30 48 N 4.4343 0.785586 -1.36625 0
M  V30 49 C 5.6813 1.54362 -1.31067 0
M  V30 50 C 6.0093 1.94195 0.10893 0
M  V30 51 O 5.2643 1.63262 1.07908 0
M  V30 52 C 5.5633 2.83007 -2.1827 0
M  V30 53 C 5.2293 2.62294 -3.6676 0
M  V30 54 C 3.8913 2.56353 -4.0723 0
M  V30 55 C 6.2433 2.43371 -4.6089 0
M  V30 56 C 3.5713 2.29461 -5.39967 0
M  V30 57 C 5.9233 2.18005 -5.93849 0
M  V30 58 C 4.5873 2.105 -6.3344 0
M  V30 59 H 3.8573 0.564851 -0.479609 0
M  V30 60 H 6.5043 0.906028 -1.68711 0
M  V30 61 H 4.8093 3.51253 -1.73576 0
M  V30 62 H 6.5063 3.40817 -2.11292 0
M  V30 63 H 3.0963 2.67774 -3.34656 0
M  V30 64 H 7.2803 2.46959 -4.30494 0
M  V30 65 H 2.5363 2.22135 -5.69619 0
M  V30 66 H 6.7103 2.02359 -6.66351 0
M  V30 67 H 4.3373 1.89425 -7.36222 0
M  V30 68 N 5.9124 1.20967 1.01018 0
M  V30 69 C 6.8224 0.980157 2.13143 0
M  V30 70 C 7.8384 -0.0660665 1.73875 0
M  V30 71 O 9.0144 0.122821 2.01025 0
M  V30 72 C 6.0794 0.54216 3.42435 0
M  V30 73 C 5.1404 1.65999 3.95908 0
M  V30 74 C 4.3734 1.2428 5.19028 0
M  V30 75 O 4.5964 0.114196 5.70286 0
M  V30 76 O 3.5304 2.05271 5.65816 0
M  V30 77 H 7.3564 1.91913 2.35379 0
M  V30 78 H 4.9414 0.994099 1.11526 0
M  V30 79 H 6.8234 0.30744 4.20277 0
M  V30 80 H 5.4984 -0.36815 3.216 0
M  V30 81 H 4.4054 1.94906 3.19316 0
M  V30 82 H 5.7384 2.54753 4.21143 0
M  V30 83 N 7.3905 -1.2043 1.01659 0
M  V30 84 C 8.6305 -1.91507 0.714456 0
M  V30 85 C 8.9945 -1.77073 -0.742237 0
M  V30 86 O 10.1955 -2.42631 -1.15688 0
M  V30 87 C 8.4665 -3.38795 1.13809 0
M  V30 88 S 10.0255 -4.28216 0.957925 0
M  V30 89 H 6.8435 -0.661571 0.260471 0
M  V30 90 H 9.4455 -1.45671 1.30384 0
M  V30 91 H 8.1495 -3.46822 2.19415 0
M  V30 92 H 7.6805 -3.89656 0.541474 0
M  V30 93 H 9.6955 -4.96007 -0.138531 0
M  V30 94 N 8.8686 -0.792821 -1.36206 0
M  V30 95 C 10.1176 -0.363353 -1.984 0
M  V30 96 C 10.4306 1.07172 -1.63626 0
M  V30 97 O 11.6366 1.60362 -2.19081 0
M  V30 98 C 10.0926 -0.59872 -3.54885 0
M  V30 99 C 9.7006 -2.04543 -3.9858 0
M  V30 100 C 11.4446 -0.233926 -4.23855 0
M  V30 101 C 9.3516 -2.22727 -5.47856 0
M  V30 102 H 8.2816 -0.13212 -0.742334 0
M  V30 103 H 10.9326 -0.974935 -1.55458 0
M  V30 104 H 9.3146 0.0826222 -3.95914 0
M  V30 105 H 10.4886 -2.76345 -3.68741 0
M  V30 106 H 8.8036 -2.36879 -3.42458 0
M  V30 107 H 11.4006 -0.348027 -5.33566 0
M  V30 108 H 11.7436 0.818351 -4.08177 0
M  V30 109 H 12.2766 -0.868639 -3.882 0
M  V30 110 H 9.0156 -3.2635 -5.68486 0
M  V30 111 H 8.5356 -1.55434 -5.7931 0
M  V30 112 H 10.2146 -2.03607 -6.14128 0
M  V30 113 N 10.3467 1.47872 -0.545128 0
M  V30 114 C 11.2947 2.31533 0.222512 0
M  V30 115 C 12.2887 1.42177 0.920985 0
M  V30 116 O 13.4947 1.59005 0.843645 0
M  V30 117 H 9.8697 0.746519 0.0906278 0
M  V30 118 H 11.8407 2.94139 -0.50246 0
M  V30 119 C 10.5897 3.2457 1.24699 0
M  V30 120 H 9.9127 3.93283 0.718944 0
M  V30 121 H 11.3527 3.85963 1.75523 0
M  V30 122 C 9.8117 2.47237 2.28856 0
M  V30 123 O 10.3417 2.20808 3.35569 0
M  V30 124 N 8.5477 2.08461 2.02466 0
M  V30 125 H 8.0947 2.30155 1.157 0
M  V30 126 H 8.0527 1.57033 2.72375 0
M  V30 127 N 11.8248 0.280983 1.55075 0
M  V30 128 C 13.0708 -0.33461 2.00021 0
M  V30 129 C 13.4038 -1.55063 1.16915 0
M  V30 130 O 12.6788 -1.93006 0.240646 0
M  V30 131 C 12.9618 -0.711007 3.53011 0
M  V30 132 C 12.8148 0.512766 4.46868 0
M  V30 133 C 14.1338 -1.54522 4.12081 0
M  V30 134 H 11.2528 -0.120147 0.727141 0
M  V30 135 H 13.8948 0.389097 1.85973 0
M  V30 136 H 12.0448 -1.32761 3.65112 0
M  V30 137 H 13.7168 1.15131 4.46702 0
M  V30 138 H 11.9598 1.14975 4.18286 0
M  V30 139 H 12.6308 0.205556 5.51617 0
M  V30 140 H 15.1068 -1.02442 4.03293 0
M  V30 141 H 13.9828 -1.77739 5.19327 0
M  V30 142 H 14.2438 -2.52813 3.62682 0
M  V30 143 N 13.3029 -1.57598 0.00835791 0
M  V30 144 C 14.2659 -2.07884 -0.965242 0
M  V30 145 C 15.2659 -0.989825 -1.26725 0
M  V30 146 O 16.4559 -1.25218 -1.21104 0
M  V30 147 C 13.5879 -2.52731 -2.28779 0
M  V30 148 H 14.7809 -2.95178 -0.530112 0
M  V30 149 H 12.3339 -1.54458 -0.239283 0
M  V30 150 H 13.0689 -1.68705 -2.76964 0
M  V30 151 H 12.8539 -3.32272 -2.08177 0
M  V30 152 H 14.3439 -2.91933 -2.98605 0
M  V30 153 N 14.781 0.264519 -1.55364 0
M  V30 154 C 16.058 1.01677 -1.67096 0
M  V30 155 C 16.438 2.03996 -0.543015 0
M  V30 156 O 15.786 2.23907 0.45585 0
M  V30 157 C 15.996 1.66596 -3.0667 0
M  V30 158 C 17.344 2.17442 -3.64697 0
M  V30 159 O 18.368 1.76568 -3.09358 0
M  V30 160 O 17.227 2.92439 -4.61673 0
M  V30 161 H 14.321 0.472161 -0.678965 0
M  V30 162 H 16.867 0.259703 -1.67701 0
M  V30 163 H 15.639 0.924962 -3.80211 0
M  V30 164 H 15.262 2.48968 -3.10001 0
M  V30 165 N 16.2591 1.48442 0.529413 0
M  V30 166 C 17.2221 1.62524 1.61612 0
M  V30 167 C 18.2221 0.498509 1.52877 0
M  V30 168 O 19.4121 0.76431 1.56537 0
M  V30 169 C 16.5441 1.59597 3.01233 0
M  V30 170 H 17.7371 2.59423 1.50465 0
M  V30 171 H 15.2901 1.37047 0.751514 0
M  V30 172 H 16.0251 0.641781 3.17886 0
M  V30 173 H 15.8101 2.41397 3.08982 0
M  V30 174 H 17.3001 1.72646 3.80241 0
M  V30 175 N 17.7372 -0.778329 1.37039 0
M  V30 176 C 18.6872 -1.88142 1.28789 0
M  V30 177 C 19.6712 -1.59923 0.177063 0
M  V30 178 O 20.8632 -1.72165 0.410873 0
M  V30 179 C 17.9922 -3.25518 1.09055 0
M  V30 180 C 17.0782 -3.5971 2.24654 0
M  V30 181 N 17.4692 -3.65131 3.50018 0
M  V30 182 C 15.7672 -3.89837 2.16663 0
M  V30 183 C 16.4682 -3.95882 4.26207 0
M  V30 184 N 15.4442 -4.11441 3.55271 0
M  V30 185 H 19.2462 -1.90575 2.23737 0
M  V30 186 H 16.7602 -0.974435 1.29917 0
M  V30 187 H 18.7572 -4.04423 1.0123 0
M  V30 188 H 17.4172 -3.24353 0.15018 0
M  V30 189 H 18.4282 -3.475 3.84011 0
M  V30 190 H 15.1052 -3.96533 1.30645 0
M  V30 191 H 16.4952 -4.06907 5.34674 0
M  V30 192 N 19.2153 -1.21501 -1.00376 0
M  V30 193 C 20.1473 -0.933174 -2.09343 0
M  V30 194 C 21.1603 0.0840896 -1.62583 0
M  V30 195 O 22.3493 -0.148563 -1.77881 0
M  V30 196 C 19.4493 -0.379869 -3.36764 0
M  V30 197 C 18.6223 -1.45176 -4.12605 0
M  V30 198 C 17.6813 -0.907476 -5.18316 0
M  V30 199 O 16.7073 -1.5912 -5.46507 0
M  V30 200 N 17.9093 0.276649 -5.7984 0
M  V30 201 H 20.6743 -1.87124 -2.34104 0
M  V30 202 H 18.2353 -1.12043 -1.16867 0
M  V30 203 H 20.2273 -0.00131488 -4.047 0
M  V30 204 H 18.7973 0.463048 -3.09151 0
M  V30 205 H 18.0173 -2.00411 -3.39454 0
M  V30 206 H 19.3053 -2.17328 -4.6005 0
M  V30 207 H 18.7033 0.849147 -5.59291 0
M  V30 208 H 17.2603 0.596702 -6.49063 0
M  V30 209 N 20.6934 1.19889 -1.02296 0
M  V30 210 C 21.6404 2.22901 -0.598651 0
M  V30 211 C 22.6104 1.61588 0.384521 0
M  V30 212 O 23.7954 1.88697 0.282522 0
M  V30 213 C 20.9354 3.45063 0.0504476 0
M  V30 214 C 20.0484 4.20783 -0.978053 0
M  V30 215 C 19.1834 5.30356 -0.299338 0
M  V30 216 C 18.2224 5.97826 -1.31416 0
M  V30 217 N 17.3594 6.98975 -0.661667 0
M  V30 218 H 22.1994 2.58554 -1.48169 0
M  V30 219 H 19.7364 1.27039 -0.741584 0
M  V30 220 H 21.6944 4.14831 0.443971 0
M  V30 221 H 20.3244 3.10084 0.897097 0
M  V30 222 H 19.3764 3.50018 -1.48969 0
M  V30 223 H 20.6884 4.67109 -1.74958 0
M  V30 224 H 19.8424 6.06516 0.149347 0
M  V30 225 H 18.5814 4.85084 0.504445 0
M  V30 226 H 17.5864 5.20422 -1.77317 0
M  V30 227 H 18.8114 6.45183 -2.11933 0
M  V30 228 H 16.7574 6.55886 0.122132 0
M  V30 229 H 16.6744 7.43461 -1.37117 0
M  V30 230 H 17.9424 7.7914 -0.236785 0
M  V30 231 N 22.1715 0.800033 1.35784 0
M  V30 232 C 23.1015 0.220184 2.3246 0
M  V30 233 C 24.0825 -0.65073 1.57161 0
M  V30 234 O 25.2675 -0.582359 1.85263 0
M  V30 235 C 22.3975 -0.637353 3.41402 0
M  V30 236 C 21.3515 0.134531 4.27789 0
M  V30 237 C 20.6775 -0.844285 5.27992 0
M  V30 238 C 21.9775 1.32979 5.05088 0
M  V30 239 H 23.6715 1.02787 2.81203 0
M  V30 240 H 21.2175 0.495717 1.35199 0
M  V30 241 H 23.1705 -1.05302 4.08031 0
M  V30 242 H 21.8945 -1.47785 2.91251 0
M  V30 243 H 20.5535 0.531296 3.6273 0
M  V30 244 H 20.2015 -1.68011 4.74111 0
M  V30 245 H 19.9015 -0.332184 5.8666 0
M  V30 246 H 21.4255 -1.2583 5.97494 0
M  V30 247 H 22.8395 0.98934 5.64699 0
M  V30 248 H 21.2365 1.77593 5.7322 0
M  V30 249 H 22.3065 2.11978 4.36111 0
M  V30 250 N 23.6496 -1.47581 0.552962 0
M  V30 251 C 24.5816 -2.27997 -0.234533 0
M  V30 252 C 25.5946 -1.36753 -0.883321 0
M  V30 253 O 26.7836 -1.61612 -0.757889 0
M  V30 254 C 23.8836 -3.10879 -1.34935 0
M  V30 255 C 23.0566 -4.30056 -0.798158 0
M  V30 256 C 22.1156 -4.94567 -1.79694 0
M  V30 257 O 21.1416 -5.53087 -1.34474 0
M  V30 258 N 22.3436 -4.88878 -3.13015 0
M  V30 259 H 25.1086 -2.96222 0.455255 0
M  V30 260 H 22.6696 -1.57163 0.388761 0
M  V30 261 H 24.6616 -3.50903 -2.01616 0
M  V30 262 H 23.2316 -2.44924 -1.94244 0
M  V30 263 H 22.4516 -3.94174 0.0453079 0
M  V30 264 H 23.7396 -5.07152 -0.409173 0
M  V30 265 H 23.1376 -4.42526 -3.52402 0
M  V30 266 H 21.6946 -5.32934 -3.75266 0
M  V30 267 N 25.1277 -0.289203 -1.54924 0
M  V30 268 C 26.0377 0.601863 -2.26748 0
M  V30 269 C 27.0537 1.15834 -1.2984 0
M  V30 270 O 28.2297 1.18564 -1.62802 0
M  V30 271 C 25.2947 1.76299 -2.98529 0
M  V30 272 C 24.3557 1.24178 -4.10948 0
M  V30 273 C 23.5887 2.34757 -4.79296 0
M  V30 274 O 23.8117 3.54411 -4.46933 0
M  V30 275 O 22.7457 2.02115 -5.66951 0
M  V30 276 H 26.5717 0.0195879 -3.03694 0
M  V30 277 H 24.1567 -0.0560868 -1.49295 0
M  V30 278 H 26.0387 2.43973 -3.43592 0
M  V30 279 H 24.7137 2.33209 -2.24488 0
M  V30 280 H 23.6207 0.531104 -3.70311 0
M  V30 281 H 24.9537 0.718252 -4.86931 0
M  V30 282 N 26.6058 1.57591 -0.0167156 0
M  V30 283 C 27.5528 2.09462 0.969251 0
M  V30 284 C 28.5228 0.99381 1.33089 0
M  V30 285 O 29.7078 1.26726 1.42636 0
M  V30 286 C 26.8478 2.61622 2.25051 0
M  V30 287 C 25.9608 3.85666 1.94642 0
M  V30 288 C 25.0958 4.26266 3.16972 0
M  V30 289 C 24.1348 5.43101 2.82326 0
M  V30 290 N 23.2718 5.78915 3.97243 0
M  V30 291 H 28.1118 2.93428 0.519997 0
M  V30 292 H 25.6488 1.45044 0.245087 0
M  V30 293 H 27.6068 2.89949 2.99976 0
M  V30 294 H 26.2368 1.80505 2.67615 0
M  V30 295 H 25.2888 3.64145 1.10013 0
M  V30 296 H 26.6008 4.70678 1.65117 0
M  V30 297 H 25.7548 4.55963 4.00228 0
M  V30 298 H 24.4938 3.39996 3.49648 0
M  V30 299 H 23.4988 5.1311 1.97479 0
M  V30 300 H 24.7238 6.3106 2.50879 0
M  V30 301 H 22.6698 4.95602 4.29785 0
M  V30 302 H 22.5868 6.58539 3.71299 0
M  V30 303 H 23.8548 6.13212 4.81239 0
M  V30 304 N 28.0839 -0.256276 1.55502 0
M  V30 305 C 28.9939 -1.33882 1.92647 0
M  V30 306 C 30.0099 -1.53159 0.825727 0
M  V30 307 O 31.1859 -1.66963 1.12629 0
M  V30 308 C 28.2509 -2.6751 2.20543 0
M  V30 309 C 27.3119 -2.56836 3.43997 0
M  V30 310 C 26.5449 -3.84092 3.70553 0
M  V30 311 O 26.7679 -4.85545 2.99336 0
M  V30 312 O 25.7019 -3.83288 4.64084 0
M  V30 313 H 29.5279 -1.05374 2.84833 0
M  V30 314 H 27.1129 -0.456237 1.42263 0
M  V30 315 H 28.9949 -3.46492 2.39835 0
M  V30 316 H 27.6699 -2.9577 1.31536 0
M  V30 317 H 26.5769 -1.76172 3.30021 0
M  V30 318 H 27.9099 -2.33523 4.33275 0
M  V30 319 N 29.562 -1.4872 -0.521534 0
M  V30 320 C 30.525 -1.63379 -1.60748 0
M  V30 321 C 31.525 -0.50661 -1.52611 0
M  V30 322 O 32.715 -0.772601 -1.5613 0
M  V30 323 C 29.847 -1.61192 -3.00383 0
M  V30 324 H 31.04 -2.60217 -1.49087 0
M  V30 325 H 28.593 -1.37444 -0.744235 0
M  V30 326 H 29.328 -0.65863 -3.17541 0
M  V30 327 H 29.113 -2.43032 -3.07698 0
M  V30 328 H 30.603 -1.7466 -3.7932 0
M  V30 329 N 31.0401 0.771051 -1.3745 0
M  V30 330 C 32.2861 1.5319 -1.32894 0
M  V30 331 C 32.6191 1.94008 0.0862511 0
M  V30 332 O 31.8941 1.64124 1.04373 0
M  V30 333 C 32.1771 2.79648 -2.26868 0
M  V30 334 C 32.0301 2.45079 -3.77169 0
M  V30 335 C 33.3491 3.81583 -2.19277 0
M  V30 336 H 30.4681 0.555744 -0.484064 0
M  V30 337 H 33.1101 0.884492 -1.68157 0
M  V30 338 H 31.2601 3.34891 -1.96926 0
M  V30 339 H 32.9321 1.95745 -4.1771 0
M  V30 340 H 31.1751 1.77767 -3.95704 0
M  V30 341 H 31.8461 3.35478 -4.38359 0
M  V30 342 H 34.3221 3.35835 -2.45671 0
M  V30 343 H 33.1981 4.67787 -2.87171 0
M  V30 344 H 33.4591 4.25897 -1.18592 0
M  V30 345 N 32.5182 1.22032 0.997298 0
M  V30 346 C 33.4482 1.01065 2.10495 0
M  V30 347 C 34.4292 -0.0669542 1.69968 0
M  V30 348 O 35.6142 0.0943987 1.9397 0
M  V30 349 C 32.7442 0.582874 3.42374 0
M  V30 350 C 31.6982 1.60592 3.96729 0
M  V30 351 C 31.0242 1.03412 5.24605 0
M  V30 352 C 32.3242 2.99478 4.27914 0
M  V30 353 H 34.0182 1.93708 2.28292 0
M  V30 354 H 31.5642 0.932761 1.09707 0
M  V30 355 H 33.5172 0.423332 4.19268 0
M  V30 356 H 32.2412 -0.379213 3.24391 0
M  V30 357 H 30.9002 1.75316 3.21963 0
M  V30 358 H 30.5482 0.063518 5.0296 0
M  V30 359 H 30.2482 1.71754 5.61938 0
M  V30 360 H 31.7722 0.886066 6.04137 0
M  V30 361 H 33.1862 2.88153 4.95622 0
M  V30 362 H 31.5832 3.64903 4.76409 0
M  V30 363 H 32.6532 3.49742 3.3587 0
M  V30 364 N 33.9963 -1.19345 1.0293 0
M  V30 365 C 35.2423 -1.89318 0.727083 0
M  V30 366 C 35.5753 -1.79446 -0.742483 0
M  V30 367 O 34.8503 -1.1871 -1.54072 0
M  V30 368 C 35.1333 -3.40238 1.17942 0
M  V30 369 C 34.9863 -3.58979 2.71024 0
M  V30 370 C 36.3053 -4.33479 0.760548 0
M  V30 371 H 33.4243 -0.687475 0.265606 0
M  V30 372 H 36.0663 -1.40477 1.2793 0
M  V30 373 H 34.2163 -3.81964 0.709608 0
M  V30 374 H 35.8883 -3.26421 3.25955 0
M  V30 375 H 34.1313 -3.02018 3.11396 0
M  V30 376 H 34.8023 -4.64823 2.9773 0
M  V30 377 H 37.2783 -3.99469 1.16464 0
M  V30 378 H 36.1543 -5.37664 1.10493 0
M  V30 379 H 36.4153 -4.40813 -0.337063 0
M  V30 380 N 35.4744 -0.807222 -1.35358 0
M  V30 381 C 36.7514 -0.311126 -1.9311 0
M  V30 382 C 37.1314 1.19937 -1.73719 0
M  V30 383 O 36.4794 1.99918 -1.10657 0
M  V30 384 C 36.6894 -0.723226 -3.41424 0
M  V30 385 C 38.0374 -0.713078 -4.18569 0
M  V30 386 O 39.0614 -0.664811 -3.49941 0
M  V30 387 O 37.9204 -0.772022 -5.41019 0
M  V30 388 H 35.0144 -0.081526 -0.822972 0
M  V30 389 H 37.5604 -0.890962 -1.4443 0
M  V30 390 H 36.3324 -1.76426 -3.4927 0
M  V30 391 H 35.9554 -0.118232 -3.97424 0
M  V30 392 N 36.9525 1.47285 -0.560781 0
M  V30 393 C 38.2015 2.01668 -0.035895 0
M  V30 394 C 38.5145 1.44021 1.32353 0
M  V30 395 O 39.7205 1.90088 1.93853 0
M  V30 396 C 38.1765 3.59897 -0.0136659 0
M  V30 397 C 37.7845 4.26536 -1.37006 0
M  V30 398 C 39.5285 4.22017 0.458425 0
M  V30 399 C 37.4355 5.76782 -1.30675 0
M  V30 400 H 36.3655 0.753938 -0.00964879 0
M  V30 401 H 39.0165 1.69243 -0.709166 0
M  V30 402 H 37.3985 3.89301 0.725325 0
M  V30 403 H 38.5725 4.0877 -2.12705 0
M  V30 404 H 36.8875 3.76419 -1.78038 0
M  V30 405 H 39.4845 5.32124 0.524247 0
M  V30 406 H 39.8275 3.89437 1.4712 0
M  V30 407 H 40.3605 3.97159 -0.225818 0
M  V30 408 H 37.0995 6.13988 -2.29564 0
M  V30 409 H 36.6195 5.96875 -0.591622 0
M  V30 410 H 38.2985 6.39063 -1.01033 0
M  V30 411 N 38.4306 0.297415 1.54768 0
M  V30 412 C 39.8466 -0.0560823 1.59501 0
M  V30 413 C 40.0466 -1.52725 1.31444 0
M  V30 414 O 39.1026 -2.27947 1.08611 0
M  V30 415 C 40.4156 0.338631 2.98787 0
M  V30 416 C 41.9636 0.287097 3.11681 0
M  V30 417 C 42.4386 0.656579 4.53269 0
M  V30 418 N 43.9296 0.608977 4.59179 0
M  V30 419 C 44.6646 0.867385 5.66802 0
M  V30 420 N 44.1606 1.19157 6.82476 0
M  V30 421 N 45.9536 0.794687 5.56454 0
M  V30 422 H 38.1046 1.25624 1.71267 0
M  V30 423 H 40.3676 0.509057 0.799728 0
M  V30 424 H 40.0736 1.36263 3.2423 0
M  V30 425 H 39.9476 -0.309508 3.75928 0
M  V30 426 H 42.3346 -0.727649 2.85988 0
M  V30 427 H 42.4156 0.969809 2.36703 0
M  V30 428 H 42.0596 1.66912 4.7969 0
M  V30 429 H 41.9896 -0.0481649 5.26578 0
M  V30 430 H 44.4806 0.369198 3.76092 0
M  V30 431 H 44.7936 1.37482 7.60473 0
M  V30 432 H 43.1386 1.22958 6.84037 0
M  V30 433 H 46.3296 0.541098 4.64962 0
M  V30 434 H 46.5026 0.999445 6.40246 0
M  V30 435 N 39.9087 -1.5758 0.0250728 0
M  V30 436 C 41.1857 -1.82917 -0.692873 0
M  V30 437 C 41.5657 -0.908137 -1.90568 0
M  V30 438 O 40.9137 0.0372298 -2.2847 0
M  V30 439 C 41.1237 -3.32034 -1.07492 0
M  V30 440 C 42.4717 -3.98406 -1.46826 0
M  V30 441 O 43.4957 -3.36505 -1.16801 0
M  V30 442 O 42.3547 -5.07497 -2.02754 0
M  V30 443 H 39.4487 -0.754079 -0.33955 0
M  V30 444 H 41.9947 -1.69619 0.0524456 0
M  V30 445 H 40.7667 -3.90728 -0.211552 0
M  V30 446 H 40.3897 -3.50424 -1.87854 0
M  V30 447 N 41.3868 0.248026 -1.55636 0
M  V30 448 C 42.7978 0.817177 -1.67866 0
M  V30 449 C 43.1488 1.86069 -0.622322 0
M  V30 450 O 42.2738 2.15157 0.231618 0
M  V30 451 C 42.8688 1.489 -3.04326 0
M  V30 452 C 41.4278 2.00587 -3.185 0
M  V30 453 C 40.5748 0.856573 -2.63739 0
M  V30 454 H 43.5258 0.0238579 -1.58682 0
M  V30 455 H 43.5468 2.35698 -2.98708 0
M  V30 456 H 43.0588 0.729279 -3.81186 0
M  V30 457 H 41.1598 2.79443 -2.4646 0
M  V30 458 H 41.2728 2.20402 -4.25393 0
M  V30 459 H 39.6368 1.25678 -2.21534 0
M  V30 460 H 40.4198 0.109953 -3.43124 0
M  V30 461 N 42.8649 1.48995 0.513639 0
M  V30 462 C 43.7969 1.60836 1.63293 0
M  V30 463 C 44.8099 0.491701 1.55197 0
M  V30 464 O 45.9989 0.763238 1.6136 0
M  V30 465 C 43.0989 1.53731 3.02027 0
M  V30 466 C 42.2719 2.80715 3.35437 0
M  V30 467 C 41.3309 2.66837 4.53525 0
M  V30 468 O 40.3569 3.40753 4.55934 0
M  V30 469 N 41.5589 1.77539 5.52684 0
M  V30 470 H 44.3239 2.57366 1.53566 0
M  V30 471 H 41.8849 1.45925 0.701259 0
M  V30 472 H 43.8769 1.42118 3.78926 0
M  V30 473 H 42.4469 0.651092 3.05744 0
M  V30 474 H 41.6669 3.06772 2.47557 0
M  V30 475 H 42.9549 3.64927 3.54551 0
M  V30 476 H 42.3529 1.16719 5.53528 0
M  V30 477 H 40.9099 1.71856 6.28736 0
M  V30 478 N 44.343 -0.763751 1.37857 0
M  V30 479 C 45.568 -1.55805 1.36893 0
M  V30 480 C 45.993 -1.88054 -0.0416135 0
M  V30 481 O 45.351 -1.49825 -1.02089 0
M  V30 482 C 45.399 -2.84012 2.22192 0
M  V30 483 O 44.503 -3.78732 1.63204 0
M  V30 484 H 43.844 -0.471638 0.46739 0
M  V30 485 H 46.374 -0.944657 1.81487 0
M  V30 486 H 46.384 -3.33037 2.35691 0
M  V30 487 H 45.059 -2.59869 3.24716 0
M  V30 488 H 43.636 -3.37402 1.58791 0
M  V30 489 N 45.8211 -1.22559 -0.990812 0
M  V30 490 C 47.0681 -1.05141 -1.73065 0
M  V30 491 C 47.3961 0.413191 -1.9006 0
M  V30 492 O 46.6511 1.32257 -1.44245 0
M  V30 493 C 46.9501 -1.71011 -3.13831 0
M  V30 494 C 46.6161 -3.20911 -3.16745 0
M  V30 495 C 45.2781 -3.61812 -3.17247 0
M  V30 496 C 47.6301 -4.16846 -3.12872 0
M  V30 497 C 44.9581 -4.97127 -3.1158 0
M  V30 498 C 47.3101 -5.5214 -3.08746 0
M  V30 499 C 45.9741 -5.92419 -3.07565 0
M  V30 500 H 45.2441 -0.384738 -0.633291 0
M  V30 501 H 47.8911 -1.5235 -1.16025 0
M  V30 502 H 46.1961 -1.16133 -3.74193 0
M  V30 503 H 47.8931 -1.55023 -3.69823 0
M  V30 504 H 44.4831 -2.88344 -3.17105 0
M  V30 505 H 48.6671 -3.86263 -3.11632 0
M  V30 506 H 43.9231 -5.27562 -3.09012 0
M  V30 507 H 48.0971 -6.26201 -3.04705 0
M  V30 508 H 45.7241 -6.97236 -3.02929 0
M  V30 509 N 47.2992 1.18797 -1.03562 0
M  V30 510 C 48.2622 2.20464 -0.626769 0
M  V30 511 C 49.2622 1.57721 0.313173 0
M  V30 512 O 50.4522 1.73917 0.0992615 0
M  V30 513 C 47.5842 3.40802 0.0818498 0
M  V30 514 H 48.7772 2.58149 -1.5264 0
M  V30 515 H 46.3302 1.32593 -0.827578 0
M  V30 516 H 47.0652 3.08642 0.995518 0
M  V30 517 H 46.8502 3.8758 -0.593652 0
M  V30 518 H 48.3402 4.16092 0.354584 0
M  V30 519 N 48.7773 0.814389 1.34928 0
M  V30 520 C 49.7103 0.175641 2.27523 0
M  V30 521 C 50.6883 -0.662953 1.48471 0
M  V30 522 O 51.8723 -0.628545 1.77712 0
M  V30 523 C 48.9993 -0.755516 3.30166 0
M  V30 524 C 48.0453 0.00445305 4.265 0
M  V30 525 S 48.8783 1.34582 5.18313 0
M  V30 526 C 50.0343 0.419315 6.24494 0
M  V30 527 H 50.2673 0.960691 2.8135 0
M  V30 528 H 47.8003 0.609846 1.41846 0
M  V30 529 H 49.7583 -1.28723 3.89796 0
M  V30 530 H 48.4193 -1.51402 2.75202 0
M  V30 531 H 47.6123 -0.703077 4.99072 0
M  V30 532 H 47.2143 0.466447 3.7108 0
M  V30 533 H 49.5063 -0.392432 6.76362 0
M  V30 534 H 50.4493 1.11446 6.99275 0
M  V30 535 H 50.8573 0.0115389 5.64499 0
M  V30 536 N 50.2554 -1.46986 0.568584 0
M  V30 537 C 51.5034 -2.02041 0.0487022 0
M  V30 538 C 51.8244 -1.44408 -1.31039 0
M  V30 539 O 51.0944 -0.623477 -1.85714 0
M  V30 540 H 49.6744 -0.746849 0.015014 0
M  V30 541 H 52.3364 -1.80257 0.741168 0
M  V30 542 H 51.4324 -3.12085 -0.0308961 0
M  V30 543 N 51.7335 -0.305618 -1.54608 0
M  V30 544 C 52.6835 0.583595 -2.20405 0
M  V30 545 C 53.6675 1.09539 -1.17856 0
M  V30 546 O 54.8595 1.0354 -1.43557 0
M  V30 547 C 51.9885 1.75277 -2.95183 0
M  V30 548 C 51.0745 1.25672 -4.05052 0
M  V30 549 N 51.4655 0.478998 -5.03527 0
M  V30 550 C 49.7635 1.53704 -4.18678 0
M  V30 551 C 50.4645 0.214269 -5.81305 0
M  V30 552 N 49.4405 0.795374 -5.3775 0
M  V30 553 H 53.2425 -0.0180946 -2.93894 0
M  V30 554 H 50.7565 -0.110601 -1.62023 0
M  V30 555 H 52.7535 2.4014 -3.40791 0
M  V30 556 H 51.4135 2.35812 -2.23211 0
M  V30 557 H 52.4245 0.123473 -5.17753 0
M  V30 558 H 49.1015 2.14954 -3.57912 0
M  V30 559 H 50.4915 -0.410656 -6.70644 0
M  V30 560 N 53.2116 1.57565 -0.0334293 0
M  V30 561 C 54.1746 2.09393 0.932048 0
M  V30 562 C 55.1746 1.00986 1.25134 0
M  V30 563 O 56.3646 1.27129 1.19096 0
M  V30 564 C 53.4966 2.56338 2.2473 0
M  V30 565 H 54.6896 2.95984 0.483085 0
M  V30 566 H 52.2426 1.54819 0.21468 0
M  V30 567 H 52.9776 1.7309 2.74245 0
M  V30 568 H 52.7626 3.35542 2.02865 0
M  V30 569 H 54.2526 2.96646 2.93923 0
M  V30 570 N 54.6897 -0.239769 1.55765 0
M  V30 571 C 55.9357 -0.968234 1.78194 0
M  V30 572 C 56.2687 -1.84701 0.599938 0
M  V30 573 O 55.5437 -1.9031 -0.401524 0
M  V30 574 C 55.8267 -1.8227 3.10564 0
M  V30 575 C 55.6797 -0.971633 4.3918 0
M  V30 576 C 56.9987 -2.80388 3.39221 0
M  V30 577 H 54.1177 -0.350572 0.648281 0
M  V30 578 H 56.7597 -0.238259 1.885 0
M  V30 579 H 54.9097 -2.44507 3.01908 0
M  V30 580 H 56.5817 -0.367408 4.59835 0
M  V30 581 H 54.8247 -0.276276 4.32919 0
M  V30 582 H 55.4957 -1.60346 5.28198 0
M  V30 583 H 57.9717 -2.28287 3.47885 0
M  V30 584 H 56.8477 -3.3729 4.33044 0
M  V30 585 H 57.1087 -3.57212 2.60484 0
M  V30 586 N 56.1678 -1.49265 -0.50573 0
M  V30 587 C 57.0998 -1.617 -1.62437 0
M  V30 588 C 58.1128 -0.499924 -1.54934 0
M  V30 589 O 59.3018 -0.771785 -1.60953 0
M  V30 590 C 56.4018 -1.5533 -3.01207 0
M  V30 591 C 55.5748 -2.8249 -3.33943 0
M  V30 592 C 54.6338 -2.69238 -4.52103 0
M  V30 593 O 53.6598 -3.43167 -4.5412 0
M  V30 594 N 54.8618 -1.80468 -5.51735 0
M  V30 595 H 57.6268 -2.58177 -1.52199 0
M  V30 596 H 55.1878 -1.46294 -0.693511 0
M  V30 597 H 57.1798 -1.44125 -3.78167 0
M  V30 598 H 55.7498 -0.667297 -3.05395 0
M  V30 599 H 54.9698 -3.08081 -2.45926 0
M  V30 600 H 56.2578 -3.66802 -3.5261 0
M  V30 601 H 55.6558 -1.19653 -5.52901 0
M  V30 602 H 54.2128 -1.75188 -6.27816 0
M  V30 603 N 57.6459 0.756429 -1.3826 0
M  V30 604 C 58.6089 1.85176 -1.35065 0
M  V30 605 C 59.6089 1.58818 -0.251703 0
M  V30 606 O 60.7989 1.66615 -0.508433 0
M  V30 607 C 57.9309 3.22596 -1.10201 0
M  V30 608 H 59.1239 1.89417 -2.3251 0
M  V30 609 H 56.6769 0.95783 -1.23512 0
M  V30 610 H 57.4119 3.24025 -0.133504 0
M  V30 611 H 57.1969 3.43122 -1.89762 0
M  V30 612 H 58.6869 4.02673 -1.10654 0
M  V30 613 N 59.124 1.23083 0.984299 0
M  V30 614 C 60.371 1.06057 1.72505 0
M  V30 615 C 60.699 -0.403105 1.90277 0
M  V30 616 O 59.954 -1.3149 1.44944 0
M  V30 617 C 60.253 1.72673 3.1292 0
M  V30 618 C 59.919 3.22586 3.15038 0
M  V30 619 C 58.581 3.63489 3.15324 0
M  V30 620 C 60.933 4.185 3.10657 0
M  V30 621 C 58.261 4.98772 3.08939 0
M  V30 622 C 60.613 5.53769 3.05814 0
M  V30 623 C 59.277 5.94041 3.04419 0
M  V30 624 H 58.547 0.388091 0.631242 0
M  V30 625 H 61.194 1.52963 1.15215 0
M  V30 626 H 59.499 1.18116 3.73572 0
M  V30 627 H 61.196 1.56982 3.68996 0
M  V30 628 H 57.786 2.90022 3.15571 0
M  V30 629 H 61.97 3.87911 3.09579 0
M  V30 630 H 57.226 5.29193 3.0621 0
M  V30 631 H 61.4 6.27808 3.0138 0
M  V30 632 H 59.027 6.98833 2.99227 0
M  V30 633 N 60.6021 -1.18246 1.0419 0
M  V30 634 C 61.5521 -2.19843 0.604392 0
M  V30 635 C 62.5361 -1.56962 -0.353814 0
M  V30 636 O 63.7281 -1.76156 -0.17267 0
M  V30 637 C 60.8571 -3.43287 -0.0298975 0
M  V30 638 C 59.9431 -4.13288 0.951531 0
M  V30 639 N 60.3341 -4.59271 2.11906 0
M  V30 640 C 58.6321 -4.39165 0.7778 0
M  V30 641 C 59.3331 -5.13173 2.73912 0
M  V30 642 N 58.3091 -5.04763 2.01779 0
M  V30 643 H 62.1111 -2.53089 1.4941 0
M  V30 644 H 59.6251 -1.34465 0.910658 0
M  V30 645 H 61.6221 -4.15334 -0.361037 0
M  V30 646 H 60.2821 -3.11537 -0.915127 0
M  V30 647 H 61.2931 -4.5368 2.49789 0
M  V30 648 H 57.9701 -4.17461 -0.0572331 0
M  V30 649 H 59.3601 -5.58947 3.72864 0
M  V30 650 N 62.0802 -0.821533 -1.34494 0
M  V30 651 C 63.0102 -0.257138 -2.3208 0
M  V30 652 C 63.9912 0.625645 -1.58176 0
M  V30 653 O 65.1762 0.552811 -1.86166 0
M  V30 654 C 62.3062 0.582958 -3.42372 0
M  V30 655 C 61.2602 -0.202571 -4.2752 0
M  V30 656 C 60.5862 0.760179 -5.29269 0
M  V30 657 C 61.8862 -1.40998 -5.02908 0
M  V30 658 H 63.5802 -1.07247 -2.79532 0
M  V30 659 H 61.1262 -0.517163 -1.34393 0
M  V30 660 H 63.0792 0.987972 -4.09655 0
M  V30 661 H 61.8032 1.43133 -2.93565 0
M  V30 662 H 60.4622 -0.588936 -3.61838 0
M  V30 663 H 60.1102 1.60447 -4.76724 0
M  V30 664 H 59.8102 0.238809 -5.87115 0
M  V30 665 H 61.3342 1.16308 -5.9942 0
M  V30 666 H 62.7482 -1.07905 -5.63054 0
M  V30 667 H 61.1452 -1.86689 -5.70322 0
M  V30 668 H 62.2152 -2.1889 -4.32684 0
M  V30 669 N 63.5583 1.46682 -0.576371 0
M  V30 670 C 64.7863 2.06798 -0.0649635 0
M  V30 671 C 65.2013 1.42612 1.23723 0
M  V30 672 O 64.5583 0.529203 1.74659 0
M  V30 673 C 64.6093 3.6132 0.114202 0
M  V30 674 O 64.3303 4.23104 -1.13644 0
M  V30 675 C 65.8313 4.38349 0.66069 0
M  V30 676 H 63.0513 0.668778 -0.0545616 0
M  V30 677 H 65.5953 1.88404 -0.795237 0
M  V30 678 H 63.7503 3.79162 0.794673 0
M  V30 679 H 64.1643 5.15894 -0.946253 0
M  V30 680 H 65.6383 5.47081 0.73526 0
M  V30 681 H 66.1153 4.05953 1.67627 0
M  V30 682 H 66.7213 4.25297 0.0152951 0
M  V30 683 N 65.0364 0.313813 1.54444 0
M  V30 684 C 65.9844 -0.572171 2.25453 0
M  V30 685 C 66.9784 -1.12657 1.2651 0
M  V30 686 O 68.1844 -1.07573 1.44319 0
M  V30 687 H 64.5594 -0.203146 0.724041 0
M  V30 688 H 66.5304 0.0491145 2.9836 0
M  V30 689 C 65.2794 -1.72626 3.0182 0
M  V30 690 H 64.6024 -1.30891 3.77767 0
M  V30 691 H 66.0424 -2.32199 3.54767 0
M  V30 692 C 64.5014 -2.63806 2.09542 0
M  V30 693 O 65.0314 -3.65256 1.67185 0
M  V30 694 N 63.2374 -2.31824 1.75232 0
M  V30 695 H 62.7844 -1.49368 2.09873 0
M  V30 696 H 62.7424 -2.93095 1.13767 0
M  V30 697 N 66.5145 -1.57545 0.0417849 0
M  V30 698 C 67.7915 -1.83642 -0.673433 0
M  V30 699 C 68.1715 -0.928298 -1.89594 0
M  V30 700 O 67.5195 0.0129955 -2.28496 0
M  V30 701 C 67.7295 -3.33155 -1.03964 0
M  V30 702 C 69.0775 -3.99941 -1.42592 0
M  V30 703 O 70.1015 -3.37725 -1.13226 0
M  V30 704 O 68.9605 -5.09619 -1.9736 0
M  V30 705 H 66.0545 -0.757638 -0.331533 0
M  V30 706 H 68.6005 -1.69554 0.070433 0
M  V30 707 H 67.3725 -3.9093 -0.170098 0
M  V30 708 H 66.9955 -3.52396 -1.84126 0
M  V30 709 N 67.9926 0.231505 -1.5589 0
M  V30 710 C 69.2206 0.974505 -1.82513 0
M  V30 711 C 69.6356 1.78344 -0.619591 0
M  V30 712 O 68.9926 1.77792 0.411848 0
M  V30 713 C 69.0436 1.90007 -3.07538 0
M  V30 714 O 68.7646 1.12385 -4.2344 0
M  V30 715 C 70.2656 2.75779 -3.47075 0
M  V30 716 H 67.4856 0.286065 -0.606966 0
M  V30 717 H 70.0296 0.249739 -2.02969 0
M  V30 718 H 68.1846 2.57891 -2.89086 0
M  V30 719 H 68.5986 1.75125 -4.944 0
M  V30 720 H 70.0726 3.36443 -4.37619 0
M  V30 721 H 70.5496 3.47672 -2.68367 0
M  V30 722 H 71.1556 2.13323 -3.67931 0
M  V30 723 N 69.4707 1.49531 0.497807 0
M  V30 724 C 70.4007 1.6935 1.60757 0
M  V30 725 C 71.3817 0.542218 1.61227 0
M  V30 726 O 72.5667 0.778417 1.77917 0
M  V30 727 C 69.6967 1.76298 2.99226 0
M  V30 728 C 68.6507 2.91248 3.13622 0
M  V30 729 C 67.9767 2.83312 4.53474 0
M  V30 730 C 69.2767 4.3214 2.93346 0
M  V30 731 H 70.9707 2.62263 1.44425 0
M  V30 732 H 68.5167 1.26208 0.693367 0
M  V30 733 H 70.4697 1.88749 3.76765 0
M  V30 734 H 69.1937 0.799871 3.16654 0
M  V30 735 H 67.8527 2.78404 2.38509 0
M  V30 736 H 67.5007 1.84902 4.67782 0
M  V30 737 H 67.2007 3.60465 4.64046 0
M  V30 738 H 68.7247 2.97775 5.33069 0
M  V30 739 H 70.1387 4.45649 3.60652 0
M  V30 740 H 68.5357 5.1054 3.15387 0
M  V30 741 H 69.6057 4.46363 1.89441 0
M  V30 742 N 70.9488 -0.749086 1.3866 0
M  V30 743 C 72.1968 -1.50535 1.34847 0
M  V30 744 C 72.5178 -1.94909 -0.0595016 0
M  V30 745 O 71.7878 -1.67973 -1.00806 0
M  V30 746 H 70.3678 -0.558395 0.49619 0
M  V30 747 H 73.0298 -0.890165 1.73384 0
M  V30 748 H 72.1258 -2.39413 2.00219 0
M  V30 749 N 72.4269 -1.23603 -0.977757 0
M  V30 750 C 73.3899 -1.02069 -2.05218 0
M  V30 751 C 74.3899 0.0184305 -1.60789 0
M  V30 752 O 75.5799 -0.221569 -1.72785 0
M  V30 753 C 72.7119 -0.544926 -3.36517 0
M  V30 754 H 73.9049 -1.9742 -2.25755 0
M  V30 755 H 71.4579 -1.05684 -1.15155 0
M  V30 756 H 72.1929 0.412241 -3.21669 0
M  V30 757 H 71.9779 -1.2948 -3.70105 0
M  V30 758 H 73.4679 -0.414985 -4.15533 0
M  V30 759 N 73.905 1.17692 -1.04816 0
M  V30 760 C 75.152 1.87859 -0.75599 0
M  V30 761 C 75.48 1.80812 0.716752 0
M  V30 762 O 74.735 1.20819 1.53952 0
M  V30 763 C 75.034 3.37462 -1.17703 0
M  V30 764 C 74.7 3.64713 -2.65133 0
M  V30 765 C 73.362 3.71859 -3.05408 0
M  V30 766 C 75.714 3.76492 -3.60421 0
M  V30 767 C 73.042 3.88271 -4.39843 0
M  V30 768 C 75.394 3.94421 -4.94585 0
M  V30 769 C 74.058 3.99806 -5.3452 0
M  V30 770 H 73.328 0.687425 -0.276636 0
M  V30 771 H 75.975 1.39255 -1.31455 0
M  V30 772 H 74.28 3.88097 -0.537395 0
M  V30 773 H 75.977 3.90109 -0.928218 0
M  V30 774 H 72.567 3.59772 -2.32942 0
M  V30 775 H 76.751 3.70295 -3.30447 0
M  V30 776 H 72.007 3.90687 -4.70291 0
M  V30 777 H 76.181 4.02477 -5.68318 0
M  V30 778 H 73.808 4.12276 -6.38696 0
M  V30 779 N 75.3831 0.828654 1.34056 0
M  V30 780 C 76.3161 0.199763 2.27324 0
M  V30 781 C 77.2941 -0.647168 1.49166 0
M  V30 782 O 78.4781 -0.609661 1.78369 0
M  V30 783 C 75.6051 -0.720455 3.30949 0
M  V30 784 C 74.6511 0.0496888 4.26471 0
M  V30 785 S 75.4841 1.40072 5.16856 0
M  V30 786 C 76.6401 0.485527 6.24014 0
M  V30 787 H 76.8731 0.990478 2.80316 0
M  V30 788 H 74.4061 0.624857 1.41191 0
M  V30 789 H 76.3641 -1.24581 3.91139 0
M  V30 790 H 75.0251 -1.48474 2.76793 0
M  V30 791 H 74.2181 -0.650104 4.9979 0
M  V30 792 H 73.8201 0.505779 3.70564 0
M  V30 793 H 76.1121 -0.320672 6.76741 0
M  V30 794 H 77.0551 1.18856 6.98054 0
M  V30 795 H 77.4631 0.0714109 5.64455 0
M  V30 796 N 76.8612 -1.46375 0.584142 0
M  V30 797 C 78.2772 -1.57694 0.245929 0
M  V30 798 C 78.4772 -1.57903 -1.25175 0
M  V30 799 O 77.5332 -1.49676 -2.03355 0
M  V30 800 C 78.8462 -2.87028 0.896402 0
M  V30 801 C 80.3942 -3.00662 0.870127 0
M  V30 802 C 80.8692 -4.32734 1.50017 0
M  V30 803 N 82.3602 -4.39436 1.46458 0
M  V30 804 C 83.0952 -5.40248 1.92144 0
M  V30 805 N 82.5912 -6.47726 2.4581 0
M  V30 806 N 84.3842 -5.31459 1.83052 0
M  V30 807 H 76.5352 -1.44483 1.55687 0
M  V30 808 H 78.7982 -0.689291 0.650831 0
M  V30 809 H 78.5042 -2.9269 1.95002 0
M  V30 810 H 78.3782 -3.75014 0.405486 0
M  V30 811 H 80.7652 -2.94581 -0.174871 0
M  V30 812 H 80.8462 -2.14148 1.39908 0
M  V30 813 H 80.4902 -4.39573 2.54437 0
M  V30 814 H 80.4202 -5.18025 0.946432 0
M  V30 815 H 82.9112 -3.62367 1.07231 0
M  V30 816 H 83.2242 -7.20863 2.78525 0
M  V30 817 H 81.5692 -6.48542 2.49836 0
M  V30 818 H 84.7602 -4.46396 1.40883 0
M  V30 819 H 84.9332 -6.09881 2.18973 0
M  V30 820 N 78.3393 -0.321999 -1.54275 0
M  V30 821 C 79.6163 0.335232 -1.92706 0
M  V30 822 C 79.9963 1.70006 -1.25145 0
M  V30 823 O 79.3443 2.25067 -0.394596 0
M  V30 824 C 79.5543 0.429008 -3.46353 0
M  V30 825 C 80.9023 0.690029 -4.18956 0
M  V30 826 O 81.9263 0.511992 -3.52501 0
M  V30 827 O 80.7853 1.03338 -5.36641 0
M  V30 828 H 77.8793 0.191143 -0.804608 0
M  V30 829 H 80.4253 -0.3716 -1.65581 0
M  V30 830 H 79.1973 -0.529611 -3.87699 0
M  V30 831 H 78.8203 1.18348 -3.79578 0
M  V30 832 N 79.8174 1.5752 -0.0501392 0
M  V30 833 C 80.7654 2.12651 0.942459 0
M  V30 834 C 81.7594 1.05807 1.32292 0
M  V30 835 O 82.9654 1.24217 1.3027 0
M  V30 836 H 79.3404 0.679673 0.321789 0
M  V30 837 H 81.3114 2.94951 0.452356 0
M  V30 838 C 80.0604 2.68565 2.20836 0
M  V30 839 H 79.3834 3.50439 1.92439 0
M  V30 840 H 80.8234 3.10761 2.8845 0
M  V30 841 C 79.2824 1.62291 2.95234 0
M  V30 842 O 79.8124 1.03508 3.88135 0
M  V30 843 N 78.0184 1.33836 2.57946 0
M  V30 844 H 77.5654 1.81826 1.82475 0
M  V30 845 H 77.5234 0.629595 3.08032 0
M  V30 846 N 81.2955 -0.223234 1.56011 0
M  V30 847 C 82.5725 -0.972108 1.69733 0
M  V30 848 C 82.9525 -2.02485 0.59691 0
M  V30 849 O 82.3005 -2.25037 -0.396324 0
M  V30 850 C 82.5105 -1.58407 3.10979 0
M  V30 851 C 83.8585 -2.07696 3.70334 0
M  V30 852 O 84.8825 -1.68304 3.1393 0
M  V30 853 O 83.7415 -2.80096 4.69264 0
M  V30 854 H 80.8355 -0.453993 0.691245 0
M  V30 855 H 83.3815 -0.215149 1.68331 0
M  V30 856 H 82.1535 -0.823831 3.82529 0
M  V30 857 H 81.7765 -2.40661 3.16493 0
M  V30 858 N 82.7736 -1.49793 -0.48987 0
M  V30 859 C 84.0206 -1.59841 -1.24327 0
M  V30 860 C 84.3486 -0.290135 -1.92324 0
M  V30 861 O 83.6036 0.722749 -1.81865 0
M  V30 862 C 83.9026 -2.71488 -2.32441 0
M  V30 863 C 83.5686 -4.12614 -1.81826 0
M  V30 864 C 82.2306 -4.51017 -1.67742 0
M  V30 865 C 84.5826 -5.00892 -1.4407 0
M  V30 866 C 81.9106 -5.75459 -1.14297 0
M  V30 867 C 84.2626 -6.25863 -0.920742 0
M  V30 868 C 82.9266 -6.63086 -0.766383 0
M  V30 869 H 82.1966 -0.584899 -0.454944 0
M  V30 870 H 84.8436 -1.83663 -0.542215 0
M  V30 871 H 83.1486 -2.4168 -3.0838 0
M  V30 872 H 84.8456 -2.76469 -2.90458 0
M  V30 873 H 81.4356 -3.82307 -1.93751 0
M  V30 874 H 85.6196 -4.7187 -1.53794 0
M  V30 875 H 80.8756 -6.02989 -1.01068 0
M  V30 876 H 85.0496 -6.9364 -0.619448 0
M  V30 877 H 82.6766 -7.59393 -0.350083 0
M  V30 878 N 84.2517 0.741722 -1.39055 0
M  V30 879 C 85.5287 1.49252 -1.26425 0
M  V30 880 C 85.9087 2.10705 0.129144 0
M  V30 881 O 85.2567 1.98045 1.13976 0
M  V30 882 C 85.4667 2.54934 -2.38347 0
M  V30 883 C 86.8147 3.21506 -2.77343 0
M  V30 884 O 87.8387 2.65245 -2.37747 0
M  V30 885 O 86.6977 4.23294 -3.45665 0
M  V30 886 H 83.7917 0.662451 -0.495064 0
M  V30 887 H 86.3377 0.776121 -1.50912 0
M  V30 888 H 85.1097 2.07857 -3.31529 0
M  V30 889 H 84.7327 3.34141 -2.15489 0
M  V30 890 N 85.7298 1.2412 0.971189 0
M  V30 891 C 86.9578 1.10575 1.74874 0
M  V30 892 C 87.3728 -0.342017 1.85676 0
M  V30 893 O 86.7298 -1.23617 1.34258 0
M  V30 894 C 86.7808 1.73579 3.171 0
M  V30 895 O 86.5018 3.12695 3.06844 0
M  V30 896 C 88.0028 1.65598 4.11208 0
M  V30 897 H 85.2228 0.386504 0.548503 0
M  V30 898 H 87.7668 1.64156 1.21955 0
M  V30 899 H 85.9218 1.24009 3.67016 0
M  V30 900 H 86.3358 3.43412 3.96445 0
M  V30 901 H 87.8098 2.1437 5.08674 0
M  V30 902 H 88.2868 0.616532 4.34851 0
M  V30 903 H 88.8928 2.14578 3.67201 0
M  V30 904 N 87.2079 -1.17134 1.05439 0
M  V30 905 C 88.6189 -1.69084 0.791676 0
M  V30 906 C 88.9699 -1.83822 -0.685839 0
M  V30 907 O 88.0949 -1.52757 -1.53278 0
M  V30 908 C 88.6899 -3.07119 1.4305 0
M  V30 909 C 87.2489 -3.56225 1.21577 0
M  V30 910 C 86.3959 -2.32421 1.51247 0
M  V30 911 H 89.3469 -1.01617 1.219 0
M  V30 912 H 89.3679 -3.71087 0.84112 0
M  V30 913 H 88.8799 -2.9636 2.50584 0
M  V30 914 H 86.9809 -3.72257 0.159787 0
M  V30 915 H 87.0939 -4.38837 1.92246 0
M  V30 916 H 85.4579 -2.3701 0.932653 0
M  V30 917 H 86.2409 -2.24268 2.5992 0
M  V30 918 N 88.686 -0.835752 -1.33615 0
M  V30 919 C 89.932 -0.430596 -1.98176 0
M  V30 920 C 90.265 1.00684 -1.66061 0
M  V30 921 O 89.54 1.70339 -0.938877 0
M  V30 922 C 89.823 -0.648065 -3.5422 0
M  V30 923 C 89.676 -2.13255 -3.96033 0
M  V30 924 C 90.995 -0.0922113 -4.40003 0
M  V30 925 H 88.114 -0.157924 -0.719881 0
M  V30 926 H 90.756 -1.05069 -1.58305 0
M  V30 927 H 88.906 -0.120237 -3.88314 0
M  V30 928 H 90.578 -2.725 -3.72211 0
M  V30 929 H 88.821 -2.61823 -3.45878 0
M  V30 930 H 89.492 -2.23547 -5.04708 0
M  V30 931 H 91.968 -0.543343 -4.12537 0
M  V30 932 H 90.844 -0.274083 -5.48215 0
M  V30 933 H 91.105 1.00378 -4.30554 0
M  V30 934 N 90.1641 1.46063 -0.591896 0
M  V30 935 C 91.0971 2.27452 0.184617 0
M  V30 936 C 92.0751 1.36188 0.888351 0
M  V30 937 O 93.2591 1.65606 0.90039 0
M  V30 938 C 90.3861 3.14162 1.26571 0
M  V30 939 C 89.4321 4.21255 0.666814 0
M  V30 940 S 90.2651 5.33034 -0.513345 0
M  V30 941 C 91.4211 6.23311 0.56872 0
M  V30 942 H 91.6541 2.92963 -0.505939 0
M  V30 943 H 89.1871 1.49676 -0.379014 0
M  V30 944 H 91.1451 3.6468 1.88463 0
M  V30 945 H 89.8061 2.47946 1.92826 0
M  V30 946 H 88.9991 4.81788 1.47974 0
M  V30 947 H 88.6011 3.73797 0.123359 0
M  V30 948 H 90.8931 6.61758 1.45198 0
M  V30 949 H 91.8361 7.081 -7.23824e-05 0
M  V30 950 H 92.2441 5.57646 0.876996 0
M  V30 951 N 91.6422 0.330177 1.54103 0
M  V30 952 C 92.8882 -0.270806 2.00984 0
M  V30 953 C 93.2212 -1.51265 1.21789 0
M  V30 954 O 92.4962 -1.92142 0.301927 0
M  V30 955 C 92.7792 -0.598339 3.55094 0
M  V30 956 C 92.6322 0.654674 4.4501 0
M  V30 957 C 93.9512 -1.41334 4.16789 0
M  V30 958 H 91.0702 -0.0969531 0.730595 0
M  V30 959 H 93.7122 0.448066 1.84641 0
M  V30 960 H 91.8622 -1.21078 3.69151 0
M  V30 961 H 93.5342 1.29285 4.42813 0
M  V30 962 H 91.7772 1.28224 4.14416 0
M  V30 963 H 92.4482 0.380944 5.50684 0
M  V30 964 H 94.9242 -0.895597 4.06347 0
M  V30 965 H 93.8002 -1.61127 5.24718 0
M  V30 966 H 94.0612 -2.41146 3.70541 0
M  V30 967 N 93.1203 -1.57491 0.0584922 0
M  V30 968 C 94.0533 -2.07533 -0.948969 0
M  V30 969 C 95.0313 -0.977444 -1.29942 0
M  V30 970 O 96.2153 -1.2499 -1.41102 0
M  V30 971 C 93.3423 -2.52192 -2.2609 0
M  V30 972 C 92.3883 -3.73287 -2.06298 0
M  V30 973 S 93.2213 -5.18603 -1.33459 0
M  V30 974 C 94.3773 -5.66583 -2.65959 0
M  V30 975 H 94.6103 -2.92662 -0.523118 0
M  V30 976 H 92.1433 -1.53631 -0.153954 0
M  V30 977 H 94.1013 -2.78585 -3.01498 0
M  V30 978 H 92.7623 -1.67356 -2.65802 0
M  V30 979 H 91.9553 -4.0248 -3.03357 0
M  V30 980 H 91.5573 -3.47199 -1.39029 0
M  V30 981 H 93.8493 -5.72616 -3.62101 0
M  V30 982 H 94.7923 -6.65684 -2.41393 0
M  V30 983 H 95.2003 -4.94342 -2.72554 0
M  V30 984 N 94.5984 0.214957 -1.56127 0
M  V30 985 C 95.8384 0.945364 -1.81224 0
M  V30 986 C 96.2024 1.81265 -0.633005 0
M  V30 987 O 97.4034 2.57731 -0.763423 0
M  V30 988 C 95.6744 1.75665 -3.1125 0
M  V30 989 S 97.2334 2.54179 -3.57685 0
M  V30 990 H 94.0514 0.317443 -0.6362 0
M  V30 991 H 96.6534 0.210381 -1.94365 0
M  V30 992 H 95.3574 1.10977 -3.9511 0
M  V30 993 H 94.8884 2.53381 -3.00934 0
M  V30 994 H 96.9034 3.7792 -3.21545 0
M  V30 995 N 96.0765 1.50051 0.48192 0
M  V30 996 C 97.3065 1.63999 1.2565 0
M  V30 997 C 97.7145 0.318288 1.86504 0
M  V30 998 O 97.0575 -0.708534 1.69486 0
M  V30 999 C 97.1195 2.66504 2.4128 0
M  V30 1000 C 96.7835 4.10352 2.01148 0
M  V30 1001 C 97.7805 4.96562 1.54021 0
M  V30 1002 C 95.4655 4.56203 2.10199 0
M  V30 1003 C 97.4595 6.26668 1.16473 0
M  V30 1004 C 95.1465 5.86318 1.72264 0
M  V30 1005 C 96.1445 6.71375 1.25477 0
M  V30 1006 O 95.8325 7.99062 0.880626 0
M  V30 1007 H 95.5645 0.55456 0.386574 0
M  V30 1008 H 98.1185 1.96954 0.582944 0
M  V30 1009 H 96.3485 2.28769 3.11772 0
M  V30 1010 H 98.0375 2.69783 3.03268 0
M  V30 1011 H 98.8035 4.62358 1.46458 0
M  V30 1012 H 94.6825 3.90152 2.45566 0
M  V30 1013 H 98.2265 6.93011 0.798841 0
M  V30 1014 H 94.1235 6.20046 1.79482 0
M  V30 1015 H 94.8915 8.12239 1.01043 0
M  V30 1016 N 97.5546 -0.734337 1.39446 0
M  V30 1017 C 98.5046 -1.83949 1.34709 0
M  V30 1018 C 99.4886 -1.59279 0.227851 0
M  V30 1019 O 100.681 -1.70771 0.465438 0
M  V30 1020 C 97.8096 -3.21884 1.19356 0
M  V30 1021 C 96.8956 -3.52381 2.35984 0
M  V30 1022 N 97.2866 -3.53811 3.61457 0
M  V30 1023 C 95.5846 -3.82747 2.28956 0
M  V30 1024 C 96.2856 -3.82122 4.38586 0
M  V30 1025 N 95.2616 -3.9993 3.68181 0
M  V30 1026 H 99.0636 -1.83361 2.29687 0
M  V30 1027 H 96.5776 -0.932609 1.32952 0
M  V30 1028 H 98.5746 -4.00998 1.14046 0
M  V30 1029 H 97.2346 -3.23711 0.253295 0
M  V30 1030 H 98.2456 -3.35107 3.94872 0
M  V30 1031 H 94.9226 -3.92175 1.43194 0
M  V30 1032 H 96.3126 -3.89691 5.47349 0
M  V30 1033 N 99.0327 -1.24633 -0.964593 0
M  V30 1034 C 100.281 -1.08573 -1.70459 0
M  V30 1035 C 100.602 0.375655 -1.91347 0
M  V30 1036 O 99.8717 1.26779 -1.49345 0
M  V30 1037 H 98.4517 -0.398784 -0.631649 0
M  V30 1038 H 101.114 -1.56601 -1.16026 0
M  V30 1039 H 100.21 -1.58623 -2.68785 0
M  V30 1040 N 100.511 1.16574 -1.06058 0
M  V30 1041 C 101.459 2.22941 -0.663343 0
M  V30 1042 C 102.453 1.66358 0.319593 0
M  V30 1043 O 103.659 1.7905 0.184713 0
M  V30 1044 H 100.034 0.725907 -0.196376 0
M  V30 1045 H 102.005 2.53736 -1.57037 0
M  V30 1046 C 100.754 3.47642 -0.0632808 0
M  V30 1047 H 100.077 3.91493 -0.810733 0
M  V30 1048 H 101.517 4.2363 0.177177 0
M  V30 1049 C 99.9758 3.1509 1.19248 0
M  V30 1050 O 100.506 3.30673 2.28075 0
M  V30 1051 N 98.7118 2.6924 1.09353 0
M  V30 1052 H 98.2588 2.5676 0.207912 0
M  V30 1053 H 98.2168 2.47833 1.93458 0
M  V30 1054 N 101.989 0.842826 1.3317 0
M  V30 1055 C 103.214 0.453129 2.02389 0
M  V30 1056 C 103.639 -0.939105 1.6298 0
M  V30 1057 O 102.997 -1.61472 0.8244 0
M  V30 1058 C 103.045 0.586094 3.55805 0
M  V30 1059 O 102.149 -0.386029 4.10589 0
M  V30 1060 H 101.49 0.183664 0.638094 0
M  V30 1061 H 104.02 1.13875 1.69981 0
M  V30 1062 H 104.03 0.469209 4.05293 0
M  V30 1063 H 102.705 1.6014 3.83833 0
M  V30 1064 H 101.282 -0.226371 3.72212 0
M  V30 1065 N 103.467 -1.45747 0.599634 0
M  V30 1066 C 104.692 -2.07178 0.0960198 0
M  V30 1067 C 105.117 -1.44268 -1.207 0
M  V30 1068 O 104.475 -0.532503 -1.73303 0
M  V30 1069 C 104.523 -3.60579 -0.0385348 0
M  V30 1070 O 103.627 -3.97713 -1.0908 0
M  V30 1071 H 102.968 -0.660251 0.0704593 0
M  V30 1072 H 105.498 -1.87124 0.827385 0
M  V30 1073 H 105.508 -4.07298 -0.239304 0
M  V30 1074 H 104.183 -4.05756 0.912947 0
M  V30 1075 H 102.76 -3.62678 -0.867135 0
M  V30 1076 N 104.945 -0.338344 -1.53925 0
M  V30 1077 C 105.892 0.520845 -2.24846 0
M  V30 1078 C 106.862 1.09976 -1.24477 0
M  V30 1079 O 108.047 1.13735 -1.53196 0
M  V30 1080 C 105.187 1.6685 -3.02084 0
M  V30 1081 C 104.3 1.11739 -4.17299 0
M  V30 1082 C 103.435 2.23193 -4.82036 0
M  V30 1083 C 102.474 1.65407 -5.89328 0
M  V30 1084 N 101.611 2.70582 -6.47866 0
M  V30 1085 H 106.451 -0.0904881 -2.97863 0
M  V30 1086 H 103.988 -0.0564282 -1.46992 0
M  V30 1087 H 105.946 2.34407 -3.45122 0
M  V30 1088 H 104.576 2.2509 -2.31375 0
M  V30 1089 H 103.628 0.332919 -3.7894 0
M  V30 1090 H 104.94 0.654677 -4.94485 0
M  V30 1091 H 104.094 2.98626 -5.28117 0
M  V30 1092 H 102.833 2.72807 -4.04262 0
M  V30 1093 H 101.838 0.884779 -5.42634 0
M  V30 1094 H 103.063 1.16652 -6.69006 0
M  V30 1095 H 101.009 3.1946 -5.72959 0
M  V30 1096 H 100.926 2.28917 -7.20509 0
M  V30 1097 H 102.194 3.45799 -6.98601 0
M  V30 1098 N 106.423 1.57458 -0.0668435 0
M  V30 1099 C 107.671 1.92919 0.602214 0
M  V30 1100 C 107.992 0.947215 1.70449 0
M  V30 1101 O 107.262 -0.00544117 1.95899 0
M  V30 1102 H 105.842 0.71217 0.22544 0
M  V30 1103 H 108.504 1.94508 -0.123535 0
M  V30 1104 H 107.6 2.94589 1.03073 0
M  V30 1105 N 107.901 -0.206675 1.56239 0
M  V30 1106 C 108.864 -1.23976 1.92776 0
M  V30 1107 C 109.864 -1.39041 0.807729 0
M  V30 1108 O 111.054 -1.37051 1.0753 0
M  V30 1109 C 108.186 -2.61112 2.19165 0
M  V30 1110 H 109.379 -0.927764 2.85189 0
M  V30 1111 H 106.932 -0.447718 1.4975 0
M  V30 1112 H 107.667 -2.97386 1.29352 0
M  V30 1113 H 107.452 -2.51552 3.00772 0
M  V30 1114 H 108.942 -3.35633 2.48476 0
M  V30 1115 N 109.379 -1.50304 -0.473955 0
M  V30 1116 C 110.342 -1.6841 -1.55469 0
M  V30 1117 C 111.342 -0.554905 -1.50922 0
M  V30 1118 O 112.532 -0.821882 -1.53593 0
M  V30 1119 C 109.664 -1.70667 -2.95102 0
M  V30 1120 H 110.857 -2.64828 -1.40733 0
M  V30 1121 H 108.41 -1.39742 -0.700132 0
M  V30 1122 H 109.145 -0.75932 -3.15285 0
M  V30 1123 H 108.93 -2.52698 -2.9981 0
M  V30 1124 H 110.42 -1.8664 -3.73571 0
M  V30 1125 N 110.857 0.726932 -1.39834 0
M  V30 1126 C 111.789 1.85147 -1.35104 0
M  V30 1127 C 112.802 1.60736 -0.258392 0
M  V30 1128 O 113.991 1.70821 -0.517931 0
M  V30 1129 C 111.091 3.21332 -1.07697 0
M  V30 1130 C 110.264 3.73033 -2.28396 0
M  V30 1131 C 109.323 4.87802 -1.97322 0
M  V30 1132 O 108.349 5.01043 -2.70083 0
M  V30 1133 N 109.551 5.72768 -0.944273 0
M  V30 1134 H 112.316 1.89706 -2.32017 0
M  V30 1135 H 109.877 0.908006 -1.3404 0
M  V30 1136 H 111.869 3.95691 -0.849144 0
M  V30 1137 H 110.439 3.11992 -0.194909 0
M  V30 1138 H 109.659 2.89934 -2.6708 0
M  V30 1139 H 110.947 4.0431 -3.08887 0
M  V30 1140 H 110.345 5.64669 -0.341427 0
M  V30 1141 H 108.902 6.4716 -0.776346 0
M  V30 1142 N 112.336 1.25143 0.95797 0
M  V30 1143 C 113.566 1.12261 1.73439 0
M  V30 1144 C 113.974 -0.326715 1.86358 0
M  V30 1145 O 113.317 -1.2367 1.35836 0
M  V30 1146 C 113.379 1.69966 3.16784 0
M  V30 1147 C 113.043 3.18936 3.27305 0
M  V30 1148 C 114.04 4.15968 3.11877 0
M  V30 1149 C 111.725 3.59083 3.51234 0
M  V30 1150 C 113.719 5.51126 3.20217 0
M  V30 1151 C 111.406 4.9438 3.5921 0
M  V30 1152 C 112.404 5.90211 3.43716 0
M  V30 1153 O 112.092 7.23046 3.51368 0
M  V30 1154 H 111.824 0.392476 0.550399 0
M  V30 1155 H 114.378 1.65927 1.21068 0
M  V30 1156 H 112.608 1.10744 3.70503 0
M  V30 1157 H 114.297 1.52232 3.76272 0
M  V30 1158 H 115.063 3.86292 2.93264 0
M  V30 1159 H 110.942 2.84989 3.62356 0
M  V30 1160 H 114.486 6.25905 3.0804 0
M  V30 1161 H 110.383 5.23723 3.77339 0
M  V30 1162 H 111.151 7.31097 3.6802 0
M  V30 1163 N 113.814 -1.1601 1.06675 0
M  V30 1164 C 114.744 -2.22688 0.702307 0
M  V30 1165 C 115.725 -1.67306 -0.307032 0
M  V30 1166 O 116.91 -1.93352 -0.181305 0
M  V30 1167 C 114.04 -3.47178 0.092038 0
M  V30 1168 C 112.994 -4.15477 1.02777 0
M  V30 1169 C 112.32 -5.33963 0.28061 0
M  V30 1170 C 113.62 -4.66019 2.35846 0
M  V30 1171 H 115.314 -2.53429 1.59419 0
M  V30 1172 H 112.86 -1.21813 0.767961 0
M  V30 1173 H 114.813 -4.21037 -0.174814 0
M  V30 1174 H 113.537 -3.15749 -0.834877 0
M  V30 1175 H 112.196 -3.43549 1.27944 0
M  V30 1176 H 111.844 -4.98788 -0.649545 0
M  V30 1177 H 111.544 -5.806 0.904258 0
M  V30 1178 H 113.068 -6.10596 0.021396 0
M  V30 1179 H 114.482 -5.3144 2.15045 0
M  V30 1180 H 112.879 -5.23293 2.93743 0
M  V30 1181 H 113.949 -3.82023 2.98641 0
M  V30 1182 N 115.292 -0.849877 -1.32721 0
M  V30 1183 C 116.222 -0.306308 -2.31482 0
M  V30 1184 C 117.203 0.591952 -1.59468 0
M  V30 1185 O 118.388 0.513199 -1.87296 0
M  V30 1186 C 115.518 0.510204 -3.43532 0
M  V30 1187 C 114.472 -0.293209 -4.26994 0
M  V30 1188 C 113.798 0.647743 -5.30762 0
M  V30 1189 C 115.098 -1.51634 -4.99804 0
M  V30 1190 H 116.792 -1.13153 -2.77195 0
M  V30 1191 H 114.338 -0.545553 -1.33266 0
M  V30 1192 H 116.291 0.900856 -4.11658 0
M  V30 1193 H 115.015 1.36874 -2.96535 0
M  V30 1194 H 113.674 -0.665555 -3.60508 0
M  V30 1195 H 113.322 1.50299 -4.8002 0
M  V30 1196 H 113.022 0.11422 -5.87489 0
M  V30 1197 H 114.546 1.03567 -6.01753 0
M  V30 1198 H 115.96 -1.19824 -5.60638 0
M  V30 1199 H 114.357 -1.98745 -5.66234 0
M  V30 1200 H 115.427 -2.28018 -4.27943 0
M  V30 1201 N 116.77 1.45427 -0.607355 0
M  V30 1202 C 117.702 2.2871 0.149752 0
M  V30 1203 C 118.715 1.39937 0.831958 0
M  V30 1204 O 119.904 1.64313 0.697385 0
M  V30 1205 C 117.004 3.15673 1.23304 0
M  V30 1206 C 116.177 4.32722 0.637996 0
M  V30 1207 C 115.236 5.00895 1.61215 0
M  V30 1208 O 114.262 5.57697 1.13854 0
M  V30 1209 N 115.464 5.00159 2.94655 0
M  V30 1210 H 118.229 2.94328 -0.564882 0
M  V30 1211 H 115.79 1.55612 -0.446823 0
M  V30 1212 H 117.782 3.58144 1.88454 0
M  V30 1213 H 116.352 2.51965 1.8502 0
M  V30 1214 H 115.572 3.93734 -0.191572 0
M  V30 1215 H 116.86 5.08321 0.220665 0
M  V30 1216 H 116.258 4.553 3.35735 0
M  V30 1217 H 114.815 5.46495 3.55228 0
M  V30 1218 N 118.248 0.346503 1.53744 0
M  V30 1219 C 119.18 -0.543316 2.22667 0
M  V30 1220 C 120.193 -1.06159 1.23427 0
M  V30 1221 O 121.382 -0.971235 1.49764 0
M  V30 1222 C 118.482 -1.76076 2.89569 0
M  V30 1223 C 117.655 -1.37727 4.15151 0
M  V30 1224 C 116.714 -2.45471 4.65436 0
M  V30 1225 O 115.74 -2.08655 5.29577 0
M  V30 1226 N 116.942 -3.7677 4.41616 0
M  V30 1227 H 119.707 0.0469703 2.99663 0
M  V30 1228 H 117.268 0.170766 1.60997 0
M  V30 1229 H 119.26 -2.47593 3.20125 0
M  V30 1230 H 117.83 -2.25835 2.16142 0
M  V30 1231 H 117.05 -0.492746 3.91108 0
M  V30 1232 H 118.338 -1.09708 4.96832 0
M  V30 1233 H 117.736 -4.09467 3.90325 0
M  V30 1234 H 116.293 -4.44448 4.7677 0
M  V30 1235 N 119.726 -1.57421 0.075193 0
M  V30 1236 C 120.974 -1.93236 -0.591974 0
M  V30 1237 C 121.295 -0.956241 -1.69944 0
M  V30 1238 O 120.565 -0.00494792 -1.95899 0
M  V30 1239 H 119.145 -0.713355 -0.22166 0
M  V30 1240 H 121.807 -1.9444 0.133848 0
M  V30 1241 H 120.903 -2.95131 -1.01509 0
M  V30 1242 N 121.204 0.198386 -1.56346 0
M  V30 1243 C 122.434 0.934215 -1.84271 0
M  V30 1244 C 122.842 1.77496 -0.655125 0
M  V30 1245 O 122.185 1.7961 0.385488 0
M  V30 1246 C 122.247 1.88278 -3.06254 0
M  V30 1247 C 121.911 1.22431 -4.40295 0
M  V30 1248 C 122.908 0.602839 -5.16393 0
M  V30 1249 C 120.593 1.22915 -4.87029 0
M  V30 1250 C 122.587 -0.0050083 -6.374 0
M  V30 1251 C 120.274 0.617465 -6.07973 0
M  V30 1252 C 121.272 0.00146341 -6.83 0
M  V30 1253 O 120.96 -0.600642 -8.01653 0
M  V30 1254 H 120.692 0.278245 -0.616081 0
M  V30 1255 H 123.246 0.211626 -2.04307 0
M  V30 1256 H 121.476 2.64498 -2.82095 0
M  V30 1257 H 123.165 2.48612 -3.20853 0
M  V30 1258 H 123.931 0.591265 -4.81382 0
M  V30 1259 H 119.81 1.69801 -4.28589 0
M  V30 1260 H 123.354 -0.48643 -6.95902 0
M  V30 1261 H 119.251 0.62653 -6.42452 0
M  V30 1262 H 120.019 -0.497225 -8.16988 0
M  V30 1263 N 122.682 1.50554 0.465978 0
M  V30 1264 C 123.959 1.5232 1.22712 0
M  V30 1265 C 124.339 0.270807 2.09356 0
M  V30 1266 O 123.687 -0.745541 2.15995 0
M  V30 1267 C 123.897 2.82175 2.05374 0
M  V30 1268 C 125.245 3.33033 2.6339 0
M  V30 1269 O 126.269 2.83531 2.15612 0
M  V30 1270 O 125.128 4.19336 3.50456 0
M  V30 1271 H 122.222 0.611183 0.557122 0
M  V30 1272 H 124.768 1.62847 0.477381 0
M  V30 1273 H 123.54 3.64797 1.41558 0
M  V30 1274 H 123.163 2.74675 2.87471 0
M  V30 1275 N 124.16 -0.719506 1.40217 0
M  V30 1276 C 125.406 -1.48152 1.38488 0
M  V30 1277 C 125.739 -1.94195 -0.0141867 0
M  V30 1278 O 125.014 -1.67884 -0.982096 0
M  V30 1279 C 125.297 -2.71035 2.37091 0
M  V30 1280 C 125.15 -2.30912 3.86005 0
M  V30 1281 C 126.469 -3.73182 2.33288 0
M  V30 1282 H 123.588 -0.537395 0.504357 0
M  V30 1283 H 126.23 -0.821472 1.71324 0
M  V30 1284 H 124.38 -3.27352 2.0922 0
M  V30 1285 H 126.052 -1.80107 4.24687 0
M  V30 1286 H 124.295 -1.62958 4.02029 0
M  V30 1287 H 124.966 -3.18978 4.50508 0
M  V30 1288 H 127.442 -3.26485 2.57966 0
M  V30 1289 H 126.318 -4.56806 3.04334 0
M  V30 1290 H 126.579 -4.21202 1.34317 0
M  V30 1291 N 125.638 -1.25649 -0.95132 0
M  V30 1292 C 126.884 -1.10757 -1.69884 0
M  V30 1293 C 127.217 0.350061 -1.91019 0
M  V30 1294 O 126.492 1.25783 -1.48354 0
M  V30 1295 C 126.775 -1.86606 -3.07978 0
M  V30 1296 C 126.628 -3.40217 -2.94232 0
M  V30 1297 C 127.947 -1.65182 -4.07925 0
M  V30 1298 H 125.066 -0.40374 -0.616574 0
M  V30 1299 H 127.708 -1.54521 -1.10558 0
M  V30 1300 H 125.858 -1.49409 -3.58621 0
M  V30 1301 H 127.53 -3.87108 -2.50889 0
M  V30 1302 H 125.773 -3.67759 -2.30078 0
M  V30 1303 H 126.444 -3.88505 -3.92133 0
M  V30 1304 H 128.92 -1.9757 -3.66204 0
M  V30 1305 H 127.796 -2.20683 -5.02583 0
M  V30 1306 H 128.057 -0.593933 -4.38092 0
M  V30 1307 N 127.117 1.15442 -1.07289 0
M  V30 1308 C 128.347 1.89821 -0.815576 0
M  V30 1309 C 128.755 1.7823 0.634867 0
M  V30 1310 O 128.098 1.13152 1.44715 0
M  V30 1311 C 128.16 3.40817 -1.14385 0
M  V30 1312 C 127.824 3.76193 -2.59476 0
M  V30 1313 C 128.821 3.77269 -3.57721 0
M  V30 1314 C 126.506 4.0652 -2.95037 0
M  V30 1315 C 128.5 4.08176 -4.89562 0
M  V30 1316 C 126.187 4.37092 -4.27076 0
M  V30 1317 C 127.185 4.37902 -5.24148 0
M  V30 1318 O 126.873 4.67741 -6.53815 0
M  V30 1319 H 126.605 0.608465 -0.294528 0
M  V30 1320 H 129.159 1.472 -1.43252 0
M  V30 1321 H 127.389 3.83835 -0.469865 0
M  V30 1322 H 129.078 3.96485 -0.869179 0
M  V30 1323 H 129.844 3.5394 -3.3159 0
M  V30 1324 H 125.723 4.05049 -2.20128 0
M  V30 1325 H 129.267 4.08723 -5.65324 0
M  V30 1326 H 125.164 4.59889 -4.5296 0
M  V30 1327 H 125.932 4.85509 -6.58957 0
M  V30 1328 N 128.595 0.856903 1.32268 0
M  V30 1329 C 129.82 0.474569 2.01897 0
M  V30 1330 C 130.245 -0.921766 1.63967 0
M  V30 1331 O 129.603 -1.60589 0.84148 0
M  V30 1332 C 129.651 0.623799 3.55164 0
M  V30 1333 O 128.755 -0.342459 4.10976 0
M  V30 1334 H 128.096 0.190422 0.63611 0
M  V30 1335 H 130.626 1.15672 1.68764 0
M  V30 1336 H 130.636 0.512169 4.04773 0
M  V30 1337 H 129.311 1.64202 3.82113 0
M  V30 1338 H 127.888 -0.18688 3.72431 0
M  V30 1339 N 130.073 -1.45103 0.615059 0
M  V30 1340 C 131.322 -2.01396 0.110718 0
M  V30 1341 C 131.635 -1.48834 -1.26916 0
M  V30 1342 O 132.841 -1.97152 -1.86664 0
M  V30 1343 C 131.297 -3.59599 0.14723 0
M  V30 1344 C 130.905 -4.21158 1.52743 0
M  V30 1345 C 132.649 -4.23428 -0.30148 0
M  V30 1346 C 130.556 -5.71535 1.51992 0
M  V30 1347 H 129.486 -0.753061 0.0376241 0
M  V30 1348 H 132.137 -1.66494 0.77149 0
M  V30 1349 H 130.519 -3.91724 -0.580339 0
M  V30 1350 H 131.693 -4.00594 2.2773 0
M  V30 1351 H 130.008 -3.69552 1.91886 0
M  V30 1352 H 132.605 -5.33703 -0.326392 0
M  V30 1353 H 132.948 -3.94629 -1.32565 0
M  V30 1354 H 133.481 -3.96047 0.373065 0
M  V30 1355 H 130.22 -6.05044 2.52193 0
M  V30 1356 H 129.74 -5.94268 0.81274 0
M  V30 1357 H 131.419 -6.34873 1.24681 0
M  V30 1358 N 131.551 -0.354651 -1.53558 0
M  V30 1359 C 132.828 0.294281 -1.93374 0
M  V30 1360 C 133.208 1.67313 -1.28723 0
M  V30 1361 O 132.556 2.24179 -0.442247 0
M  V30 1362 C 132.766 0.355445 -3.47185 0
M  V30 1363 C 134.114 0.601007 -4.20325 0
M  V30 1364 O 135.138 0.437106 -3.53508 0
M  V30 1365 O 133.997 0.919322 -5.38712 0
M  V30 1366 H 131.091 0.174033 -0.808481 0
M  V30 1367 H 133.637 -0.406638 -1.64756 0
M  V30 1368 H 132.409 -0.611729 -3.86489 0
M  V30 1369 H 132.032 1.1027 -3.82003 0
M  V30 1370 N 133.029 1.57378 -0.0835403 0
M  V30 1371 C 134.277 1.93547 0.581718 0
M  V30 1372 C 134.598 0.96524 1.69435 0
M  V30 1373 O 133.868 0.0153369 1.95894 0
M  V30 1374 H 132.448 0.714521 0.217874 0
M  V30 1375 H 135.11 1.94366 -0.144158 0
M  V30 1376 H 134.206 2.95665 0.999423 0
M  V30 1377 N 134.507 -0.190092 1.56449 0
M  V30 1378 C 135.755 -0.907908 1.80559 0
M  V30 1379 C 136.076 -1.83583 0.657438 0
M  V30 1380 O 135.346 -1.93203 -0.323924 0
M  V30 1381 H 133.926 -0.338247 0.666032 0
M  V30 1382 H 136.588 -0.194403 1.93928 0
M  V30 1383 H 135.684 -1.49604 2.73907 0
M  V30 1384 N 135.985 -1.50799 -0.457987 0
M  V30 1385 C 137.232 -1.62442 -1.20908 0
M  V30 1386 C 137.56 -0.330865 -1.91665 0
M  V30 1387 O 136.815 0.68401 -1.83357 0
M  V30 1388 C 137.114 -2.76358 -2.2663 0
M  V30 1389 C 136.78 -4.16378 -1.73033 0
M  V30 1390 C 135.442 -4.54473 -1.58138 0
M  V30 1391 C 137.794 -5.03836 -1.33413 0
M  V30 1392 C 135.122 -5.77754 -1.02065 0
M  V30 1393 C 137.474 -6.27676 -0.78778 0
M  V30 1394 C 136.138 -6.64562 -0.625561 0
M  V30 1395 H 135.408 -0.594417 -0.442435 0
M  V30 1396 H 138.055 -1.84772 -0.503136 0
M  V30 1397 H 136.36 -2.48167 -3.03184 0
M  V30 1398 H 138.057 -2.82568 -2.84528 0
M  V30 1399 H 134.647 -3.86331 -1.85598 0
M  V30 1400 H 138.831 -4.75026 -1.4375 0
M  V30 1401 H 134.087 -6.04997 -0.882547 0
M  V30 1402 H 138.261 -6.94797 -0.472177 0
M  V30 1403 H 135.888 -7.59965 -0.188926 0
M  V30 1404 N 137.463 0.71206 -1.40597 0
M  V30 1405 C 138.373 1.8562 -1.43466 0
M  V30 1406 C 139.389 1.70902 -0.326902 0
M  V30 1407 O 140.565 1.93105 -0.572043 0
M  V30 1408 C 137.63 3.21451 -1.29884 0
M  V30 1409 C 136.691 3.48398 -2.50833 0
M  V30 1410 C 135.924 4.77749 -2.3789 0
M  V30 1411 O 136.147 5.53089 -1.39459 0
M  V30 1412 O 135.081 5.05111 -3.27333 0
M  V30 1413 H 138.907 1.86155 -2.39958 0
M  V30 1414 H 136.492 0.86295 -1.21957 0
M  V30 1415 H 138.374 4.02579 -1.24531 0
M  V30 1416 H 137.049 3.21636 -0.364997 0
M  V30 1417 H 135.956 2.67265 -2.61763 0
M  V30 1418 H 137.289 3.53014 -3.4299 0
M  V30 1419 N 138.941 1.26152 0.944643 0
M  V30 1420 C 139.904 1.07474 2.0244 0
M  V30 1421 C 140.904 0.0242064 1.60782 0
M  V30 1422 O 142.094 0.267302 1.72137 0
M  V30 1423 C 139.226 0.633956 3.34953 0
M  V30 1424 H 140.419 2.03336 2.20442 0
M  V30 1425 H 137.972 1.087 1.12312 0
M  V30 1426 H 138.707 -0.326811 3.22649 0
M  V30 1427 H 138.492 1.39247 3.66542 0
M  V30 1428 H 139.982 0.52501 4.14287 0
M  V30 1429 N 140.419 -1.14872 1.07899 0
M  V30 1430 C 141.665 -1.86289 0.81657 0
M  V30 1431 C 142.02 -1.8107 -0.65049 0
M  V30 1432 O 141.313 -1.22684 -1.47171 0
M  V30 1433 C 141.507 -3.34223 1.26609 0
M  V30 1434 C 141.336 -3.53846 2.77531 0
M  V30 1435 C 140.106 -3.68995 3.45212 0
M  V30 1436 C 142.304 -3.51201 3.75716 0
M  V30 1437 N 140.286 -3.76725 4.84718 0
M  V30 1438 C 141.657 -3.65112 5.01092 0
M  V30 1439 C 143.712 -3.34507 3.68794 0
M  V30 1440 C 142.415 -3.64056 6.20368 0
M  V30 1441 C 144.441 -3.34752 4.8754 0
M  V30 1442 C 143.803 -3.49199 6.11751 0
M  V30 1443 H 139.902 -0.698579 0.351443 0
M  V30 1444 H 142.486 -1.37713 1.37634 0
M  V30 1445 H 140.657 -3.81402 0.73395 0
M  V30 1446 H 142.389 -3.93377 0.95062 0
M  V30 1447 H 139.144 -3.70006 2.95622 0
M  V30 1448 H 139.568 -3.8432 5.5734 0
M  V30 1449 H 144.21 -3.22253 2.73702 0
M  V30 1450 H 141.928 -3.75087 7.15776 0
M  V30 1451 H 145.514 -3.23055 4.83866 0
M  V30 1452 H 144.394 -3.49328 7.02097 0
M  V30 1453 N 141.898 -0.863906 -1.31812 0
M  V30 1454 C 142.83 -0.272485 -2.27575 0
M  V30 1455 C 143.843 0.56104 -1.52827 0
M  V30 1456 O 145.032 0.384021 -1.7432 0
M  V30 1457 C 142.132 0.63283 -3.32939 0
M  V30 1458 C 141.305 -0.166902 -4.37081 0
M  V30 1459 C 140.364 0.665608 -5.21973 0
M  V30 1460 O 139.39 0.0958091 -5.69119 0
M  V30 1461 N 140.592 1.9787 -5.45736 0
M  V30 1462 H 143.357 -1.0954 -2.78964 0
M  V30 1463 H 140.918 -0.724791 -1.4477 0
M  V30 1464 H 142.91 1.19532 -3.86645 0
M  V30 1465 H 141.48 1.35642 -2.81638 0
M  V30 1466 H 140.7 -0.910838 -3.83533 0
M  V30 1467 H 141.988 -0.715874 -5.03739 0
M  V30 1468 H 141.386 2.46484 -5.09178 0
M  V30 1469 H 139.943 2.48911 -6.024 0
M  V30 1470 N 143.376 1.44774 -0.622745 0
M  V30 1471 C 144.792 1.56986 -0.287652 0
M  V30 1472 C 144.992 1.61167 1.20944 0
M  V30 1473 O 144.048 1.55015 1.99315 0
M  V30 1474 C 145.361 2.84551 -0.972188 0
M  V30 1475 C 146.909 2.9825 -0.949536 0
M  V30 1476 C 147.384 4.28605 -1.61437 0
M  V30 1477 N 148.875 4.35399 -1.58057 0
M  V30 1478 C 149.61 5.34964 -2.064 0
M  V30 1479 N 149.106 6.40981 -2.62897 0
M  V30 1480 N 150.899 5.26419 -1.97078 0
M  V30 1481 H 143.05 1.40304 -1.59463 0
M  V30 1482 H 145.313 0.671794 -0.668878 0
M  V30 1483 H 145.019 2.87417 -2.02693 0
M  V30 1484 H 144.893 3.73807 -0.504771 0
M  V30 1485 H 147.28 2.94941 0.0967067 0
M  V30 1486 H 147.361 2.10364 -1.45536 0
M  V30 1487 H 147.005 4.32672 -2.66002 0
M  V30 1488 H 146.935 5.15334 -1.08344 0
M  V30 1489 H 149.426 3.59397 -1.16801 0
M  V30 1490 H 149.739 7.13225 -2.97539 0
M  V30 1491 H 148.084 6.4169 -2.66943 0
M  V30 1492 H 151.275 4.42504 -1.52669 0
M  V30 1493 H 151.448 6.03861 -2.35066 0
M  V30 1494 N 144.854 0.36279 1.53368 0
M  V30 1495 C 145.786 -0.519668 2.23231 0
M  V30 1496 C 146.799 -1.04844 1.24546 0
M  V30 1497 O 147.988 -0.955296 1.50786 0
M  V30 1498 C 145.088 -1.72995 2.9142 0
M  V30 1499 C 144.261 -1.33316 4.16588 0
M  V30 1500 C 143.32 -2.40521 4.68013 0
M  V30 1501 O 142.346 -2.03027 5.3176 0
M  V30 1502 N 143.548 -3.72065 4.45587 0
M  V30 1503 H 146.313 0.078751 2.99597 0
M  V30 1504 H 143.874 0.187833 1.60807 0
M  V30 1505 H 145.866 -2.44184 3.22733 0
M  V30 1506 H 144.436 -2.2353 2.18525 0
M  V30 1507 H 143.656 -0.451236 3.91609 0
M  V30 1508 H 144.944 -1.04432 4.97967 0
M  V30 1509 H 144.342 -4.05304 3.94646 0
M  V30 1510 H 142.899 -4.39366 4.81457 0
M  V30 1511 N 146.332 -1.57332 0.0918853 0
M  V30 1512 C 147.579 -1.94236 -0.572577 0
M  V30 1513 C 147.907 -0.973398 -1.6839 0
M  V30 1514 O 147.162 0.00756912 -1.95699 0
M  V30 1515 C 147.461 -3.37689 -1.17051 0
M  V30 1516 C 147.127 -4.50527 -0.183304 0
M  V30 1517 C 145.789 -4.81119 0.0882276 0
M  V30 1518 C 148.141 -5.18883 0.49095 0
M  V30 1519 C 145.469 -5.77395 1.04076 0
M  V30 1520 C 147.821 -6.1618 1.43193 0
M  V30 1521 C 146.485 -6.45179 1.71173 0
M  V30 1522 H 145.755 -0.710762 -0.209521 0
M  V30 1523 H 148.402 -1.9077 0.167036 0
M  V30 1524 H 146.707 -3.37718 -1.9863 0
M  V30 1525 H 148.404 -3.63543 -1.69227 0
M  V30 1526 H 144.994 -4.26681 -0.405124 0
M  V30 1527 H 149.178 -4.95427 0.294312 0
M  V30 1528 H 144.434 -5.98179 1.26457 0
M  V30 1529 H 148.608 -6.68243 1.96023 0
M  V30 1530 H 146.235 -7.1959 2.4514 0
M  V30 1531 N 147.81 0.181792 -1.56548 0
M  V30 1532 C 149.221 0.745244 -1.71181 0
M  V30 1533 C 149.572 1.83262 -0.70068 0
M  V30 1534 O 148.697 2.15946 0.140154 0
M  V30 1535 C 149.292 1.35859 -3.10367 0
M  V30 1536 C 147.851 1.86898 -3.2672 0
M  V30 1537 C 146.998 0.743942 -2.67134 0
M  V30 1538 H 149.949 -0.0434661 -1.5864 0
M  V30 1539 H 149.97 2.22817 -3.08436 0
M  V30 1540 H 149.482 0.566948 -3.83937 0
M  V30 1541 H 147.583 2.68738 -2.5809 0
M  V30 1542 H 147.696 2.02162 -4.34359 0
M  V30 1543 H 146.06 1.16169 -2.26665 0
M  V30 1544 H 146.843 -0.035676 -3.43281 0
M  V30 1545 N 149.288 1.51039 0.449983 0
M  V30 1546 C 150.251 1.70863 1.5277 0
M  V30 1547 C 151.251 0.578846 1.5002 0
M  V30 1548 O 152.441 0.846213 1.52266 0
M  V30 1549 C 149.573 1.75341 2.9235 0
M  V30 1550 H 150.766 2.67034 1.36502 0
M  V30 1551 H 148.319 1.40838 0.677812 0
M  V30 1552 H 149.054 0.809383 3.14037 0
M  V30 1553 H 148.839 2.57436 2.95752 0
M  V30 1554 H 150.329 1.92559 3.70555 0
M  V30 1555 N 150.766 -0.704594 1.40972 0
M  V30 1556 C 151.676 -1.84856 1.44448 0
M  V30 1557 C 152.692 -1.70726 0.335961 0
M  V30 1558 O 153.868 -1.92799 0.582276 0
M  V30 1559 C 150.933 -3.20758 1.31587 0
M  V30 1560 C 149.994 -3.47063 2.52677 0
M  V30 1561 C 149.227 -4.76481 2.4042 0
M  V30 1562 O 149.45 -5.52341 1.42391 0
M  V30 1563 O 148.384 -5.03367 3.30007 0
M  V30 1564 H 152.21 -1.8488 2.40942 0
M  V30 1565 H 149.795 -0.85647 1.22413 0
M  V30 1566 H 151.677 -4.01913 1.26665 0
M  V30 1567 H 150.352 -3.21438 0.382049 0
M  V30 1568 H 149.259 -2.65873 2.63177 0
M  V30 1569 H 150.592 -3.5119 3.44858 0
M  V30 1570 N 152.244 -1.26651 -0.937939 0
M  V30 1571 C 153.49 -1.12553 -1.687 0
M  V30 1572 C 153.823 0.329782 -1.91379 0
M  V30 1573 O 153.098 1.24202 -1.4968 0
M  V30 1574 C 153.381 -1.89862 -3.05981 0
M  V30 1575 C 153.234 -3.43318 -2.90607 0
M  V30 1576 C 154.553 -1.69499 -4.0615 0
M  V30 1577 H 151.672 -0.410257 -0.612257 0
M  V30 1578 H 154.314 -1.55685 -1.08913 0
M  V30 1579 H 152.464 -1.53204 -3.57017 0
M  V30 1580 H 154.136 -3.89747 -2.46769 0
M  V30 1581 H 152.379 -3.70179 -2.26164 0
M  V30 1582 H 153.05 -3.92642 -3.8799 0
M  V30 1583 H 155.526 -2.01442 -3.64088 0
M  V30 1584 H 154.402 -2.26002 -5.00214 0
M  V30 1585 H 154.663 -0.640365 -4.37438 0
M  V30 1586 N 153.722 1.14298 -1.08507 0
M  V30 1587 C 154.685 2.17607 -0.719711 0
M  V30 1588 C 155.685 1.58907 0.245997 0
M  V30 1589 O 156.875 1.74181 0.0254081 0
M  V30 1590 C 154.007 3.40842 -0.0627695 0
M  V30 1591 H 155.2 2.51443 -1.63452 0
M  V30 1592 H 152.753 1.28963 -0.88307 0
M  V30 1593 H 153.488 3.12587 0.863716 0
M  V30 1594 H 153.273 3.84713 -0.757504 0
M  V30 1595 H 154.763 4.17221 0.177786 0
M  V30 1596 N 155.201 0.870884 1.31352 0
M  V30 1597 C 156.431 0.496049 2.00557 0
M  V30 1598 C 156.839 -0.916241 1.65534 0
M  V30 1599 O 156.182 -1.61188 0.881134 0
M  V30 1600 C 156.244 0.574418 3.54881 0
M  V30 1601 C 155.908 1.94849 4.1338 0
M  V30 1602 C 156.905 2.91611 4.30417 0
M  V30 1603 C 154.59 2.25005 4.49086 0
M  V30 1604 C 156.584 4.16672 4.82352 0
M  V30 1605 C 154.271 3.50315 5.00722 0
M  V30 1606 C 155.269 4.45964 5.17306 0
M  V30 1607 O 154.957 5.69052 5.67833 0
M  V30 1608 H 154.689 0.191664 0.64826 0
M  V30 1609 H 157.243 1.17409 1.68536 0
M  V30 1610 H 155.473 -0.160549 3.86367 0
M  V30 1611 H 157.162 0.212879 4.05341 0
M  V30 1612 H 157.928 2.69622 4.03149 0
M  V30 1613 H 153.807 1.51332 4.35453 0
M  V30 1614 H 157.351 4.91336 4.95211 0
M  V30 1615 H 153.248 3.72147 5.27424 0
M  V30 1616 H 154.016 5.71236 5.86201 0
M  V30 1617 N 156.679 -1.44442 0.630414 0
M  V30 1618 C 157.927 -2.01653 0.134351 0
M  V30 1619 C 158.248 -1.49836 -1.24796 0
M  V30 1620 O 157.518 -0.701684 -1.82902 0
M  V30 1621 H 156.098 -0.74554 0.0466769 0
M  V30 1622 H 158.76 -1.76952 0.816955 0
M  V30 1623 H 157.856 -3.11935 0.101498 0
M  V30 1624 N 158.157 -0.370918 -1.53173 0
M  V30 1625 C 159.12 0.460778 -2.24521 0
M  V30 1626 C 160.12 1.00536 -1.25496 0
M  V30 1627 O 161.31 0.890266 -1.49733 0
M  V30 1628 C 158.442 1.64457 -2.98608 0
M  V30 1629 H 159.635 -0.163613 -2.99453 0
M  V30 1630 H 157.188 -0.122699 -1.55818 0
M  V30 1631 H 157.923 2.30691 -2.2793 0
M  V30 1632 H 157.708 1.26099 -3.7127 0
M  V30 1633 H 159.198 2.23384 -3.5283 0
M  V30 1634 O 159.674 1.59701 -0.240351 0
M  V30 1635 H 160.365 1.90754 0.336524 0
M  V30 END ATOM
M  V30 BEGIN BOND
M  V30 END BOND
M  V30 END CTAB
M  END
$$$$
