drugbank_target|Q8NG66 Serine/threonine-protein kinase Nek11 (DB08912; DB12010)
 OpenBabel12092120583D

  0  0  0     0  0            999 V3000
M  V30 BEGIN CTAB
M  V30 COUNTS 10328 10414 0 0 0
M  V30 BEGIN ATOM
M  V30 1 H -0.908 1.98254 -0.117106 0
M  V30 2 N 0 1.576 0 0
M  V30 3 C 0.933 2.03868 1.02534 0
M  V30 4 C 1.911 0.928543 1.3348 0
M  V30 5 O 3.095 1.19667 1.45644 0
M  V30 6 C 0.222 2.43627 2.35294 0
M  V30 7 C -0.732 3.65373 2.2001 0
M  V30 8 S 0.101 5.13292 1.52614 0
M  V30 9 C 1.257 5.56322 2.86805 0
M  V30 10 H 1.49 2.90518 0.631377 0
M  V30 11 H -0.977 1.52953 0.210867 0
M  V30 12 H 0.981 2.67203 3.11629 0
M  V30 13 H -0.358 1.57376 2.7183 0
M  V30 14 H -1.165 3.90944 3.18086 0
M  V30 15 H -1.563 3.418 1.51819 0
M  V30 16 H 0.729 5.58782 3.83104 0
M  V30 17 H 1.672 6.56266 2.65933 0
M  V30 18 H 2.08 4.83886 2.90714 0
M  V30 19 N 1.4781 -0.272755 1.55222 0
M  V30 20 C 2.4081 -1.34136 1.91127 0
M  V30 21 C 3.3891 -1.51513 0.773168 0
M  V30 22 O 4.5741 -1.64552 1.03132 0
M  V30 23 C 1.7041 -2.70083 2.1834 0
M  V30 24 C 0.6581 -2.67437 3.34158 0
M  V30 25 C -0.0159 -4.06938 3.46851 0
M  V30 26 C 1.2841 -2.26686 4.70543 0
M  V30 27 H 2.9781 -1.04333 2.80633 0
M  V30 28 H 0.5241 -0.500454 1.35024 0
M  V30 29 H 2.4771 -3.44952 2.42046 0
M  V30 30 H 1.2011 -3.01469 1.25634 0
M  V30 31 H -0.1399 -1.95026 3.1042 0
M  V30 32 H -0.4919 -4.35547 2.51611 0
M  V30 33 H -0.7919 -4.06062 4.2472 0
M  V30 34 H 0.7321 -4.83545 3.72849 0
M  V30 35 H 2.1461 -2.91277 4.93792 0
M  V30 36 H 0.5431 -2.36971 5.5133 0
M  V30 37 H 1.6131 -1.21818 4.69349 0
M  V30 38 N 2.9562 -1.48159 -0.537278 0
M  V30 39 C 3.9032 -1.62138 -1.64256 0
M  V30 40 C 4.8732 -0.463668 -1.59497 0
M  V30 41 O 6.0582 -0.686241 -1.78032 0
M  V30 42 C 3.1982 -1.66028 -3.02537 0
M  V30 43 C 2.3112 -2.92855 -3.17585 0
M  V30 44 C 1.4462 -2.87952 -4.46382 0
M  V30 45 C 0.4852 -4.09516 -4.54932 0
M  V30 46 N -0.3778 -4.02733 -5.75109 0
M  V30 47 H 4.4622 -2.56529 -1.51647 0
M  V30 48 H 1.9992 -1.27224 -0.738414 0
M  V30 49 H 3.9572 -1.66265 -3.82638 0
M  V30 50 H 2.5872 -0.751331 -3.13934 0
M  V30 51 H 1.6392 -3.02395 -2.30784 0
M  V30 52 H 2.9512 -3.82822 -3.19764 0
M  V30 53 H 2.1052 -2.8655 -5.34765 0
M  V30 54 H 0.8442 -1.95702 -4.46712 0
M  V30 55 H -0.1508 -4.11201 -3.64957 0
M  V30 56 H 1.0742 -5.02917 -4.56346 0
M  V30 57 H -0.9798 -3.13299 -5.76351 0
M  V30 58 H -1.0628 -4.86397 -5.78752 0
M  V30 59 H 0.2052 -4.05379 -6.65799 0
M  V30 60 N 4.4343 0.785586 -1.36625 0
M  V30 61 C 5.6813 1.54362 -1.31067 0
M  V30 62 C 6.0093 1.94195 0.10893 0
M  V30 63 O 5.2643 1.63262 1.07908 0
M  V30 64 C 5.5633 2.83007 -2.1827 0
M  V30 65 C 5.2293 2.62294 -3.6676 0
M  V30 66 C 3.8913 2.56353 -4.0723 0
M  V30 67 C 6.2433 2.43371 -4.6089 0
M  V30 68 C 3.5713 2.29461 -5.39967 0
M  V30 69 C 5.9233 2.18005 -5.93849 0
M  V30 70 C 4.5873 2.105 -6.3344 0
M  V30 71 H 3.8573 0.564851 -0.479609 0
M  V30 72 H 6.5043 0.906028 -1.68711 0
M  V30 73 H 4.8093 3.51253 -1.73576 0
M  V30 74 H 6.5063 3.40817 -2.11292 0
M  V30 75 H 3.0963 2.67774 -3.34656 0
M  V30 76 H 7.2803 2.46959 -4.30494 0
M  V30 77 H 2.5363 2.22135 -5.69619 0
M  V30 78 H 6.7103 2.02359 -6.66351 0
M  V30 79 H 4.3373 1.89425 -7.36222 0
M  V30 80 N 5.9124 1.20967 1.01018 0
M  V30 81 C 6.8444 0.922059 2.09835 0
M  V30 82 C 7.8574 -0.0927106 1.62536 0
M  V30 83 O 9.0464 0.139127 1.77957 0
M  V30 84 C 6.1464 0.362004 3.36961 0
M  V30 85 C 5.3194 1.42986 4.13369 0
M  V30 86 C 4.3784 0.879976 5.1879 0
M  V30 87 O 3.4044 1.56219 5.47343 0
M  V30 88 N 4.6064 -0.307396 5.79686 0
M  V30 89 H 7.3714 1.8588 2.35093 0
M  V30 90 H 4.9324 1.11422 1.1746 0
M  V30 91 H 6.9244 -0.0201474 4.04695 0
M  V30 92 H 5.4944 -0.479437 3.08902 0
M  V30 93 H 4.7144 1.98608 3.40512 0
M  V30 94 H 6.0024 2.14885 4.61196 0
M  V30 95 H 5.4004 -0.878796 5.58832 0
M  V30 96 H 3.9574 -0.631115 6.48737 0
M  V30 97 N 7.3905 -1.2043 1.01659 0
M  V30 98 C 8.3005 -2.2689 0.596484 0
M  V30 99 C 9.3165 -1.70107 -0.36599 0
M  V30 100 O 10.4925 -2.00117 -0.226942 0
M  V30 101 C 7.5575 -3.4665 -0.0586659 0
M  V30 102 C 6.6185 -4.18662 0.949751 0
M  V30 103 C 5.8515 -5.32705 0.32577 0
M  V30 104 O 6.0745 -5.63656 -0.874509 0
M  V30 105 O 5.0085 -5.92803 1.04249 0
M  V30 106 H 8.8345 -2.65041 1.4828 0
M  V30 107 H 6.4195 -1.27048 0.786082 0
M  V30 108 H 8.3015 -4.19256 -0.424564 0
M  V30 109 H 6.9765 -3.10375 -0.91918 0
M  V30 110 H 5.8835 -3.48229 1.36702 0
M  V30 111 H 7.2165 -4.58878 1.78023 0
M  V30 112 N 8.8686 -0.792821 -1.36206 0
M  V30 113 C 9.8316 -0.199459 -2.2833 0
M  V30 114 C 10.8316 0.605189 -1.48977 0
M  V30 115 O 12.0216 0.425685 -1.68919 0
M  V30 116 C 9.1536 0.723523 -3.33134 0
M  V30 117 H 10.3466 -1.01181 -2.82316 0
M  V30 118 H 7.8996 -0.562485 -1.45828 0
M  V30 119 H 8.6346 1.56008 -2.84309 0
M  V30 120 H 8.4196 0.148436 -3.91819 0
M  V30 121 H 9.9096 1.13344 -4.01924 0
M  V30 122 N 10.3467 1.47872 -0.545128 0
M  V30 123 C 11.3097 2.28337 0.198717 0
M  V30 124 C 12.3097 1.36255 0.853888 0
M  V30 125 O 13.4997 1.59003 0.711606 0
M  V30 126 C 10.6317 3.15585 1.28915 0
M  V30 127 H 11.8247 2.95567 -0.507941 0
M  V30 128 H 9.3777 1.53362 -0.301616 0
M  V30 129 H 10.1127 2.53019 2.02859 0
M  V30 130 H 9.8977 3.83337 0.824309 0
M  V30 131 H 11.3877 3.76243 1.81194 0
M  V30 132 N 11.8248 0.280983 1.55075 0
M  V30 133 C 12.7718 -0.603937 2.22758 0
M  V30 134 C 13.7418 -1.1452 1.20309 0
M  V30 135 O 14.9268 -1.19343 1.48869 0
M  V30 136 C 12.0668 -1.77947 2.95684 0
M  V30 137 C 11.1798 -1.2715 4.12864 0
M  V30 138 C 10.3148 -2.4093 4.7342 0
M  V30 139 C 9.3538 -1.87165 5.82783 0
M  V30 140 N 8.4908 -2.94441 6.37377 0
M  V30 141 H 13.3308 -0.020124 2.97993 0
M  V30 142 H 10.8678 0.00183425 1.471 0
M  V30 143 H 12.8258 -2.47055 3.36184 0
M  V30 144 H 11.4558 -2.33522 2.22861 0
M  V30 145 H 10.5078 -0.473331 3.77444 0
M  V30 146 H 11.8198 -0.837751 4.91715 0
M  V30 147 H 10.9738 -3.18021 5.1667 0
M  V30 148 H 9.7128 -2.87623 3.93859 0
M  V30 149 H 8.7178 -1.08556 5.38976 0
M  V30 150 H 9.9428 -1.41401 6.64216 0
M  V30 151 H 7.8888 -3.40505 5.60707 0
M  V30 152 H 7.8058 -2.55501 7.11516 0
M  V30 153 H 9.0738 -3.71489 6.85285 0
M  V30 154 N 13.3029 -1.57598 0.00835791 0
M  V30 155 C 14.5429 -1.92788 -0.679136 0
M  V30 156 C 14.9069 -0.883378 -1.70471 0
M  V30 157 O 16.1079 -1.12079 -2.44319 0
M  V30 158 C 14.3789 -3.32994 -1.29807 0
M  V30 159 S 15.9379 -3.90082 -2.00952 0
M  V30 160 H 12.7559 -0.67475 -0.224127 0
M  V30 161 H 15.3579 -1.95385 0.0670497 0
M  V30 162 H 14.0619 -4.06846 -0.538922 0
M  V30 163 H 13.5929 -3.33791 -2.082 0
M  V30 164 H 15.6079 -3.71834 -3.28563 0
M  V30 165 N 14.781 0.264519 -1.55364 0
M  V30 166 C 16.027 0.99646 -1.76631 0
M  V30 167 C 16.36 1.85632 -0.570478 0
M  V30 168 O 15.635 1.89647 0.43175 0
M  V30 169 C 15.918 1.87187 -3.07625 0
M  V30 170 C 15.771 1.04138 -4.37579 0
M  V30 171 C 17.09 2.85749 -3.34717 0
M  V30 172 H 14.209 0.360841 -0.642622 0
M  V30 173 H 16.851 0.268218 -1.88097 0
M  V30 174 H 15.001 2.49279 -2.9798 0
M  V30 175 H 16.673 0.440517 -4.59192 0
M  V30 176 H 14.916 0.345115 -4.32425 0
M  V30 177 H 15.587 1.68729 -5.2558 0
M  V30 178 H 18.063 2.33793 -3.4421 0
M  V30 179 H 16.939 3.44136 -4.27623 0
M  V30 180 H 17.2 3.61311 -2.54768 0
M  V30 181 N 16.2591 1.48442 0.529413 0
M  V30 182 C 17.4841 1.60406 1.31471 0
M  V30 183 C 17.9091 0.264738 1.86228 0
M  V30 184 O 17.2671 -0.763668 1.64432 0
M  V30 185 C 17.3151 2.65419 2.44101 0
M  V30 186 O 16.4191 2.22618 3.47153 0
M  V30 187 H 15.7601 0.537863 0.389357 0
M  V30 188 H 18.2901 1.94432 0.636965 0
M  V30 189 H 18.3001 2.86709 2.90279 0
M  V30 190 H 16.9751 3.62652 2.03608 0
M  V30 191 H 15.5521 2.11543 3.0709 0
M  V30 192 N 17.7372 -0.778329 1.37039 0
M  V30 193 C 18.9852 -1.53361 1.31623 0
M  V30 194 C 19.3062 -1.94739 -0.100831 0
M  V30 195 O 18.5762 -1.65797 -1.04347 0
M  V30 196 H 17.1562 -0.568794 0.484234 0
M  V30 197 H 19.8182 -0.926742 1.71457 0
M  V30 198 H 18.9142 -2.43606 1.95096 0
M  V30 199 N 19.2153 -1.21501 -1.00376 0
M  V30 200 C 20.4403 -1.05977 -1.78279 0
M  V30 201 C 20.8653 0.385994 -1.84097 0
M  V30 202 O 20.2233 1.27849 -1.28547 0
M  V30 203 C 20.2713 -1.66302 -3.19963 0
M  V30 204 O 19.3753 -0.909333 -4.0225 0
M  V30 205 H 18.7163 -0.372906 -0.549397 0
M  V30 206 H 21.2463 -1.6107 -1.26165 0
M  V30 207 H 21.2563 -1.70574 -3.70632 0
M  V30 208 H 19.9313 -2.71515 -3.15043 0
M  V30 209 H 18.5083 -0.941795 -3.60811 0
M  V30 210 N 20.6934 1.19889 -1.02296 0
M  V30 211 C 21.9214 1.9339 -0.735399 0
M  V30 212 C 22.3364 1.75148 0.704887 0
M  V30 213 O 21.6934 1.06954 1.47875 0
M  V30 214 C 21.7444 3.45313 -1.06962 0
M  V30 215 O 21.4654 3.62964 -2.45334 0
M  V30 216 C 22.9664 4.35948 -0.804021 0
M  V30 217 H 20.1864 0.61448 -0.269546 0
M  V30 218 H 22.7304 1.522 -1.36585 0
M  V30 219 H 20.8854 3.84359 -0.484455 0
M  V30 220 H 21.2994 4.56886 -2.57595 0
M  V30 221 H 22.7734 5.41174 -1.0879 0
M  V30 222 H 23.2504 4.3842 0.261691 0
M  V30 223 H 23.8564 4.02574 -1.37164 0
M  V30 224 N 22.1715 0.800033 1.35784 0
M  V30 225 C 23.1345 0.211565 2.28221 0
M  V30 226 C 24.1345 -0.59728 1.49296 0
M  V30 227 O 25.3245 -0.416721 1.69142 0
M  V30 228 C 22.4565 -0.705846 3.33513 0
M  V30 229 H 23.6495 1.02677 2.81776 0
M  V30 230 H 21.2025 0.570211 1.45528 0
M  V30 231 H 21.9375 -1.54498 2.85133 0
M  V30 232 H 21.7225 -0.127655 3.91892 0
M  V30 233 H 23.2125 -1.11211 4.02519 0
M  V30 234 N 23.6496 -1.47581 0.552962 0
M  V30 235 C 24.8986 -2.01684 0.0251995 0
M  V30 236 C 25.2116 -1.43317 -1.33115 0
M  V30 237 O 26.4176 -1.89057 -1.94858 0
M  V30 238 C 24.8736 -3.599 -0.00542052 0
M  V30 239 C 24.4816 -4.27257 1.34742 0
M  V30 240 C 26.2256 -4.21768 -0.4808 0
M  V30 241 C 24.1326 -5.77467 1.27614 0
M  V30 242 H 23.0626 -0.753979 0.00565033 0
M  V30 243 H 25.7136 -1.69616 0.70018 0
M  V30 244 H 24.0956 -3.88911 -0.745961 0
M  V30 245 H 25.2696 -4.09893 2.10534 0
M  V30 246 H 23.5846 -3.77358 1.76039 0
M  V30 247 H 26.1816 -5.31838 -0.55246 0
M  V30 248 H 26.5246 -3.88651 -1.49184 0
M  V30 249 H 27.0576 -3.97273 0.204752 0
M  V30 250 H 23.7966 -6.15196 2.26304 0
M  V30 251 H 23.3166 -5.9718 0.55996 0
M  V30 252 H 24.9956 -6.3959 0.976421 0
M  V30 253 N 25.1277 -0.289203 -1.54924 0
M  V30 254 C 26.3527 0.329299 -2.04769 0
M  V30 255 C 26.7777 1.4763 -1.16564 0
M  V30 256 O 26.1357 1.80527 -0.167186 0
M  V30 257 C 26.1837 0.774438 -3.52186 0
M  V30 258 O 25.2877 1.88038 -3.67036 0
M  V30 259 H 24.6287 0.0659259 -0.660719 0
M  V30 260 H 27.1587 -0.42761 -2.00082 0
M  V30 261 H 27.1687 1.06642 -3.93816 0
M  V30 262 H 25.8437 -0.0646707 -4.1585 0
M  V30 263 H 24.4207 1.58985 -3.3731 0
M  V30 264 N 26.6058 1.57591 -0.0167156 0
M  V30 265 C 27.8338 1.95575 0.675128 0
M  V30 266 C 28.2488 0.892542 1.6637 0
M  V30 267 O 27.6058 -0.126912 1.82058 0
M  V30 268 C 27.6568 3.33608 1.39239 0
M  V30 269 O 27.3778 4.3585 0.443444 0
M  V30 270 C 28.8788 3.86151 2.17721 0
M  V30 271 H 26.0988 0.644423 0.186978 0
M  V30 272 H 28.6428 2.0437 -0.0728 0
M  V30 273 H 26.7978 3.2607 2.09182 0
M  V30 274 H 27.2118 5.158 0.951358 0
M  V30 275 H 28.6858 4.85114 2.63379 0
M  V30 276 H 29.1628 3.19738 3.01105 0
M  V30 277 H 29.7688 3.96918 1.52761 0
M  V30 278 N 28.0839 -0.256276 1.55502 0
M  V30 279 C 29.3139 -1.00196 1.80677 0
M  V30 280 C 29.7219 -1.79805 0.588797 0
M  V30 281 O 29.0649 -1.78055 -0.451883 0
M  V30 282 C 29.1269 -1.99515 2.99055 0
M  V30 283 C 28.7909 -1.38688 4.35448 0
M  V30 284 C 29.7879 -0.794079 5.138 0
M  V30 285 C 27.4729 -1.40906 4.82132 0
M  V30 286 C 29.4669 -0.231562 6.36979 0
M  V30 287 C 27.1539 -0.842684 6.05262 0
M  V30 288 C 28.1519 -0.254953 6.82524 0
M  V30 289 O 27.8399 0.3027 8.0333 0
M  V30 290 H 27.5719 -0.300919 0.60533 0
M  V30 291 H 30.1259 -0.287307 2.03381 0
M  V30 292 H 28.3559 -2.74785 2.72084 0
M  V30 293 H 30.0449 -2.60349 3.11405 0
M  V30 294 H 30.8109 -0.769519 4.78856 0
M  V30 295 H 26.6899 -1.85591 4.21992 0
M  V30 296 H 30.2339 0.227816 6.97228 0
M  V30 297 H 26.1309 -0.86454 6.39684 0
M  V30 298 H 26.8989 0.193662 8.18271 0
M  V30 299 N 29.562 -1.4872 -0.521534 0
M  V30 300 C 30.973 -1.50607 -1.10337 0
M  V30 301 C 31.324 -0.280612 -1.94183 0
M  V30 302 O 30.449 0.611507 -2.0758 0
M  V30 303 C 31.044 -2.72903 -2.00772 0
M  V30 304 C 29.603 -2.77634 -2.54158 0
M  V30 305 C 28.75 -2.44241 -1.31307 0
M  V30 306 H 31.701 -1.55714 -0.306388 0
M  V30 307 H 31.722 -2.519 -2.85178 0
M  V30 308 H 31.234 -3.62077 -1.39721 0
M  V30 309 H 29.335 -1.92689 -3.18907 0
M  V30 310 H 29.448 -3.79283 -2.92714 0
M  V30 311 H 27.812 -1.95577 -1.63161 0
M  V30 312 H 28.595 -3.35666 -0.719943 0
M  V30 313 N 31.0401 0.771051 -1.3745 0
M  V30 314 C 31.9871 1.88435 -1.3327 0
M  V30 315 C 32.9571 1.64914 -0.198136 0
M  V30 316 O 34.1421 1.86821 -0.387606 0
M  V30 317 C 31.2821 3.25509 -1.14622 0
M  V30 318 C 30.3951 3.60979 -2.37314 0
M  V30 319 C 29.5301 4.87265 -2.11533 0
M  V30 320 C 28.5691 5.15469 -3.30088 0
M  V30 321 N 27.7061 6.32944 -3.03853 0
M  V30 322 H 32.5461 1.91344 -2.28455 0
M  V30 323 H 30.0831 0.935466 -1.13523 0
M  V30 324 H 32.0411 4.04582 -1.01831 0
M  V30 325 H 30.6711 3.21974 -0.230837 0
M  V30 326 H 29.7231 2.76885 -2.60842 0
M  V30 327 H 31.0351 3.77759 -3.25729 0
M  V30 328 H 30.1891 5.74244 -1.95777 0
M  V30 329 H 28.9281 4.7259 -1.20457 0
M  V30 330 H 27.9331 4.26966 -3.46382 0
M  V30 331 H 29.1581 5.32052 -4.22016 0
M  V30 332 H 27.1041 6.19625 -2.15407 0
M  V30 333 H 27.0211 6.50143 -3.85812 0
M  V30 334 H 28.2891 7.22857 -2.91716 0
M  V30 335 N 32.5182 1.22032 0.997298 0
M  V30 336 C 33.7462 1.06841 1.7718 0
M  V30 337 C 34.1612 -0.381325 1.84909 0
M  V30 338 O 33.5182 -1.26437 1.31605 0
M  V30 339 C 33.5692 1.66814 3.20711 0
M  V30 340 O 33.2902 3.06116 3.13408 0
M  V30 341 C 34.7912 1.56838 4.14628 0
M  V30 342 H 32.0112 0.374782 0.556578 0
M  V30 343 H 34.5552 1.61532 1.2541 0
M  V30 344 H 32.7102 1.16196 3.69564 0
M  V30 345 H 33.1242 3.34926 4.0364 0
M  V30 346 H 34.5982 2.03532 5.13107 0
M  V30 347 H 35.0752 0.524155 4.36061 0
M  V30 348 H 35.6812 2.06741 3.7167 0
M  V30 349 N 33.9963 -1.19345 1.0293 0
M  V30 350 C 34.9263 -2.2481 0.631105 0
M  V30 351 C 35.9073 -1.66245 -0.360104 0
M  V30 352 O 37.0923 -1.92677 -0.242726 0
M  V30 353 C 34.2223 -3.47295 -0.0184607 0
M  V30 354 C 33.1763 -4.18536 0.895073 0
M  V30 355 C 32.5023 -5.34586 0.110592 0
M  V30 356 C 33.8023 -4.73287 2.209 0
M  V30 357 H 35.4963 -2.58372 1.51275 0
M  V30 358 H 33.0423 -1.24194 0.728818 0
M  V30 359 H 34.9953 -4.20268 -0.308675 0
M  V30 360 H 33.7193 -3.12933 -0.934907 0
M  V30 361 H 32.3783 -3.47446 1.16949 0
M  V30 362 H 32.0263 -4.96469 -0.807902 0
M  V30 363 H 31.7263 -5.83183 0.719087 0
M  V30 364 H 33.2503 -6.10355 -0.172871 0
M  V30 365 H 34.6643 -5.38013 1.98028 0
M  V30 366 H 33.0613 -5.32373 2.76946 0
M  V30 367 H 34.1313 -3.91331 2.86336 0
M  V30 368 N 35.4744 -0.807222 -1.35358 0
M  V30 369 C 36.7234 -0.384376 -1.98004 0
M  V30 370 C 37.0364 1.0543 -1.64754 0
M  V30 371 O 38.2424 1.58029 -2.20769 0
M  V30 372 C 36.6984 -0.636326 -3.5423 0
M  V30 373 C 36.3064 -2.08759 -3.96388 0
M  V30 374 C 38.0504 -0.278869 -4.23583 0
M  V30 375 C 35.9574 -2.28525 -5.45463 0
M  V30 376 H 34.8874 -0.139986 -0.740891 0
M  V30 377 H 37.5384 -0.991369 -1.54415 0
M  V30 378 H 35.9204 0.0406256 -3.95979 0
M  V30 379 H 37.0944 -2.8024 -3.6579 0
M  V30 380 H 35.4094 -2.40497 -3.39926 0
M  V30 381 H 38.0064 -0.404599 -5.33167 0
M  V30 382 H 38.3494 0.775012 -4.09022 0
M  V30 383 H 38.8824 -0.909764 -3.87257 0
M  V30 384 H 35.6214 -3.32361 -5.64992 0
M  V30 385 H 35.1414 -1.61569 -5.77629 0
M  V30 386 H 36.8204 -2.10109 -6.11934 0
M  V30 387 N 36.9525 1.47285 -0.560781 0
M  V30 388 C 37.9155 2.28535 0.174488 0
M  V30 389 C 38.9155 1.37153 0.839388 0
M  V30 390 O 40.1055 1.59748 0.694702 0
M  V30 391 C 37.2375 3.16934 1.25561 0
M  V30 392 H 38.4305 2.95012 -0.539262 0
M  V30 393 H 35.9835 1.53034 -0.317865 0
M  V30 394 H 36.7185 2.55157 2.00164 0
M  V30 395 H 36.5035 3.8419 0.783604 0
M  V30 396 H 37.9935 3.78143 1.77193 0
M  V30 397 N 38.4306 0.297415 1.54768 0
M  V30 398 C 39.8466 -0.0560823 1.59501 0
M  V30 399 C 40.0466 -1.52725 1.31444 0
M  V30 400 O 39.1026 -2.27947 1.08611 0
M  V30 401 C 40.4156 0.338631 2.98787 0
M  V30 402 C 41.9636 0.287097 3.11681 0
M  V30 403 C 42.4386 0.656579 4.53269 0
M  V30 404 N 43.9296 0.608977 4.59179 0
M  V30 405 C 44.6646 0.867385 5.66802 0
M  V30 406 N 44.1606 1.19157 6.82476 0
M  V30 407 N 45.9536 0.794687 5.56454 0
M  V30 408 H 38.1046 1.25624 1.71267 0
M  V30 409 H 40.3676 0.509057 0.799728 0
M  V30 410 H 40.0736 1.36263 3.2423 0
M  V30 411 H 39.9476 -0.309508 3.75928 0
M  V30 412 H 42.3346 -0.727649 2.85988 0
M  V30 413 H 42.4156 0.969809 2.36703 0
M  V30 414 H 42.0596 1.66912 4.7969 0
M  V30 415 H 41.9896 -0.0481649 5.26578 0
M  V30 416 H 44.4806 0.369198 3.76092 0
M  V30 417 H 44.7936 1.37482 7.60473 0
M  V30 418 H 43.1386 1.22958 6.84037 0
M  V30 419 H 46.3296 0.541098 4.64962 0
M  V30 420 H 46.5026 0.999445 6.40246 0
M  V30 421 N 39.9087 -1.5758 0.0250728 0
M  V30 422 C 41.3247 -1.56124 -0.331282 0
M  V30 423 C 41.5247 -1.03029 -1.73169 0
M  V30 424 O 40.5807 -0.675215 -2.43305 0
M  V30 425 C 41.8937 -3.00139 -0.183584 0
M  V30 426 C 43.4417 -3.11946 -0.256654 0
M  V30 427 C 43.9167 -4.57793 -0.137792 0
M  V30 428 N 45.4077 -4.6279 -0.194904 0
M  V30 429 C 46.1427 -5.7326 -0.126655 0
M  V30 430 N 45.6387 -6.928 -0.00755288 0
M  V30 431 N 47.4317 -5.61811 -0.180348 0
M  V30 432 H 39.5827 -1.90424 0.94087 0
M  V30 433 H 41.8457 -0.875761 0.362968 0
M  V30 434 H 41.5517 -3.4292 0.780927 0
M  V30 435 H 41.4257 -3.64899 -0.955448 0
M  V30 436 H 43.8127 -2.69079 -1.21162 0
M  V30 437 H 43.8937 -2.49915 0.545517 0
M  V30 438 H 43.5377 -5.01339 0.813739 0
M  V30 439 H 43.4677 -5.17798 -0.958775 0
M  V30 440 H 45.9587 -3.76807 -0.287267 0
M  V30 441 H 46.2717 -7.72791 0.0379428 0
M  V30 442 H 44.6167 -6.94995 0.0271731 0
M  V30 443 H 47.8077 -4.6731 -0.271767 0
M  V30 444 H 47.9807 -6.47882 -0.123697 0
M  V30 445 N 41.3868 0.248026 -1.55636 0
M  V30 446 C 42.6168 0.992367 -1.81206 0
M  V30 447 C 43.0248 1.7949 -0.598324 0
M  V30 448 O 42.3678 1.78292 0.442434 0
M  V30 449 C 42.4298 1.97926 -3.00109 0
M  V30 450 C 42.0938 1.36377 -4.36177 0
M  V30 451 C 43.0908 0.76682 -5.14214 0
M  V30 452 C 40.7758 1.38347 -4.82872 0
M  V30 453 C 42.7698 0.197778 -6.37093 0
M  V30 454 C 40.4568 0.810574 -6.057 0
M  V30 455 C 41.4548 0.218754 -6.8265 0
M  V30 456 O 41.1428 -0.345298 -8.03158 0
M  V30 457 H 40.8748 0.297704 -0.606917 0
M  V30 458 H 43.4288 0.276517 -2.0353 0
M  V30 459 H 41.6588 2.73339 -2.73538 0
M  V30 460 H 43.3478 2.58694 -3.12781 0
M  V30 461 H 44.1138 0.744114 -4.79258 0
M  V30 462 H 39.9928 1.8335 -4.2297 0
M  V30 463 H 43.5368 -0.264788 -6.97097 0
M  V30 464 H 39.4338 0.830604 -6.40134 0
M  V30 465 H 40.2018 -0.237055 -8.18157 0
M  V30 466 N 42.8649 1.48995 0.513639 0
M  V30 467 C 44.1109 1.58076 1.27042 0
M  V30 468 C 44.4439 0.261026 1.92438 0
M  V30 469 O 43.7189 -0.734393 1.80103 0
M  V30 470 C 44.0019 2.73091 2.34719 0
M  V30 471 C 43.8549 4.14821 1.73907 0
M  V30 472 C 45.1739 2.83796 3.36375 0
M  V30 473 H 42.2929 0.575391 0.460536 0
M  V30 474 H 44.9349 1.81232 0.570516 0
M  V30 475 H 43.0849 2.53479 2.94416 0
M  V30 476 H 44.7569 4.45917 1.18135 0
M  V30 477 H 42.9999 4.21058 1.0437 0
M  V30 478 H 43.6709 4.91147 2.51949 0
M  V30 479 H 46.1469 3.01611 2.86653 0
M  V30 480 H 45.0229 3.65971 4.09093 0
M  V30 481 H 45.2839 1.92624 3.9793 0
M  V30 482 N 44.343 -0.763751 1.37857 0
M  V30 483 C 45.273 -1.89103 1.36975 0
M  V30 484 C 46.254 -1.68439 0.237152 0
M  V30 485 O 47.439 -1.8918 0.438713 0
M  V30 486 C 44.569 -3.26496 1.18395 0
M  V30 487 C 43.523 -3.61741 2.28751 0
M  V30 488 C 42.849 -4.97762 1.95286 0
M  V30 489 C 44.149 -3.67665 3.70972 0
M  V30 490 H 45.843 -1.90099 2.31307 0
M  V30 491 H 43.389 -0.91319 1.11341 0
M  V30 492 H 45.342 -4.05003 1.16406 0
M  V30 493 H 44.066 -3.25955 0.205215 0
M  V30 494 H 42.725 -2.85547 2.29909 0
M  V30 495 H 42.373 -4.93769 0.959221 0
M  V30 496 H 42.073 -5.22313 2.69189 0
M  V30 497 H 43.597 -5.7866 1.94898 0
M  V30 498 H 45.011 -4.36307 3.719 0
M  V30 499 H 43.408 -4.03718 4.43995 0
M  V30 500 H 44.478 -2.68134 4.0402 0
M  V30 501 N 45.8211 -1.22559 -0.990812 0
M  V30 502 C 46.7531 -0.955325 -2.08342 0
M  V30 503 C 47.7661 0.0668408 -1.62663 0
M  V30 504 O 48.9551 -0.167421 -1.77713 0
M  V30 505 C 46.0551 -0.415566 -3.36342 0
M  V30 506 C 45.2281 -1.49544 -4.11042 0
M  V30 507 C 44.2871 -0.962399 -5.17324 0
M  V30 508 O 43.3131 -1.64907 -5.44788 0
M  V30 509 N 44.5151 0.215134 -5.80101 0
M  V30 510 H 47.2801 -1.89596 -2.32106 0
M  V30 511 H 44.8411 -1.13276 -1.15673 0
M  V30 512 H 46.8331 -0.0442386 -4.04676 0
M  V30 513 H 45.4031 0.430232 -3.09625 0
M  V30 514 H 44.6231 -2.04 -3.37309 0
M  V30 515 H 45.9111 -2.22195 -4.57719 0
M  V30 516 H 45.3091 0.789779 -5.6016 0
M  V30 517 H 43.8661 0.527826 -6.49659 0
M  V30 518 N 47.2992 1.18797 -1.03562 0
M  V30 519 C 48.2312 2.21731 -0.580337 0
M  V30 520 C 49.2442 1.59051 0.347349 0
M  V30 521 O 50.4332 1.77929 0.142669 0
M  V30 522 C 47.5332 3.38459 0.172805 0
M  V30 523 C 46.7062 4.3072 -0.761496 0
M  V30 524 C 45.7652 5.26174 -0.0525547 0
M  V30 525 O 44.7912 5.65108 -0.681333 0
M  V30 526 N 45.9932 5.67624 1.21586 0
M  V30 527 H 48.7582 2.61417 -1.46565 0
M  V30 528 H 46.3192 1.33531 -0.915476 0
M  V30 529 H 48.3112 3.99335 0.656793 0
M  V30 530 H 46.8812 2.97507 0.959602 0
M  V30 531 H 46.1012 3.67525 -1.42544 0
M  V30 532 H 47.3892 4.89267 -1.39626 0
M  V30 533 H 46.7872 5.38038 1.74732 0
M  V30 534 H 45.3442 6.30721 1.64421 0
M  V30 535 N 48.7773 0.814389 1.34928 0
M  V30 536 C 49.7243 0.22822 2.29669 0
M  V30 537 C 50.6943 -0.642164 1.53184 0
M  V30 538 O 51.8793 -0.585605 1.81591 0
M  V30 539 C 49.0193 -0.61089 3.3965 0
M  V30 540 C 48.1323 0.280792 4.31086 0
M  V30 541 C 47.2673 -0.567067 5.28165 0
M  V30 542 C 46.3063 0.324531 6.11239 0
M  V30 543 N 45.4433 -0.483756 7.00431 0
M  V30 544 H 50.2833 1.04153 2.79206 0
M  V30 545 H 47.8203 0.525133 1.37407 0
M  V30 546 H 49.7783 -1.11263 4.0209 0
M  V30 547 H 48.4083 -1.38939 2.91369 0
M  V30 548 H 47.4603 0.900688 3.69583 0
M  V30 549 H 48.7723 0.966723 4.89342 0
M  V30 550 H 47.9263 -1.13363 5.96015 0
M  V30 551 H 46.6653 -1.28654 4.70425 0
M  V30 552 H 45.6703 0.903298 5.42329 0
M  V30 553 H 46.8953 1.04198 6.71059 0
M  V30 554 H 44.8413 -1.18706 6.45171 0
M  V30 555 H 44.7583 0.143965 7.55863 0
M  V30 556 H 46.0263 -1.03334 7.7262 0
M  V30 557 N 50.2554 -1.46986 0.568584 0
M  V30 558 C 51.1854 -2.32946 -0.160753 0
M  V30 559 C 52.1664 -1.44487 -0.897631 0
M  V30 560 O 53.3514 -1.73327 -0.875867 0
M  V30 561 C 50.4814 -3.26494 -1.18403 0
M  V30 562 C 49.4354 -4.24282 -0.562895 0
M  V30 563 C 48.7614 -5.07236 -1.69163 0
M  V30 564 C 50.0614 -5.19989 0.490761 0
M  V30 565 H 51.7554 -2.94175 0.556916 0
M  V30 566 H 49.3014 -1.4146 0.26927 0
M  V30 567 H 51.2544 -3.85477 -1.70251 0
M  V30 568 H 49.9784 -2.63343 -1.93179 0
M  V30 569 H 48.6374 -3.66541 -0.0656164 0
M  V30 570 H 48.2854 -4.4048 -2.42871 0
M  V30 571 H 47.9854 -5.7345 -1.28174 0
M  V30 572 H 49.5094 -5.6908 -2.21314 0
M  V30 573 H 50.9234 -5.73271 0.0579047 0
M  V30 574 H 49.3204 -5.94469 0.820165 0
M  V30 575 H 50.3904 -4.64777 1.3824 0
M  V30 576 N 51.7335 -0.305618 -1.54608 0
M  V30 577 C 52.9815 0.301701 -1.99835 0
M  V30 578 C 53.3025 1.54054 -1.19551 0
M  V30 579 O 52.5725 1.93702 -0.292658 0
M  V30 580 H 51.1525 0.114468 -0.738178 0
M  V30 581 H 53.8145 -0.418016 -1.90364 0
M  V30 582 H 52.9105 0.570548 -3.06841 0
M  V30 583 N 53.2116 1.57565 -0.0334293 0
M  V30 584 C 54.4366 1.96689 0.657895 0
M  V30 585 C 54.8616 0.910057 1.64619 0
M  V30 586 O 54.2196 -0.128598 1.80843 0
M  V30 587 C 54.2676 3.34905 1.33683 0
M  V30 588 O 53.3716 3.31574 2.45219 0
M  V30 589 H 52.7126 0.641205 0.172489 0
M  V30 590 H 55.2426 2.04372 -0.0965621 0
M  V30 591 H 55.2526 3.71234 1.69262 0
M  V30 592 H 53.9276 4.11366 0.612411 0
M  V30 593 H 52.5046 3.06968 2.11719 0
M  V30 594 N 54.6897 -0.239769 1.55765 0
M  V30 595 C 55.9377 -0.964892 1.77579 0
M  V30 596 C 56.2587 -1.85582 0.598699 0
M  V30 597 O 55.5287 -1.92075 -0.385226 0
M  V30 598 H 54.1087 -0.359265 0.654933 0
M  V30 599 H 56.7707 -0.256001 1.93211 0
M  V30 600 H 55.8667 -1.58243 2.69009 0
M  V30 601 N 56.1678 -1.49265 -0.50573 0
M  V30 602 C 57.3928 -1.62478 -1.28902 0
M  V30 603 C 57.8178 -0.294332 -1.85783 0
M  V30 604 O 57.1758 0.737412 -1.65626 0
M  V30 605 C 57.2238 -2.69268 -2.39848 0
M  V30 606 O 56.3278 -2.28113 -3.43567 0
M  V30 607 H 55.6688 -0.54399 -0.380751 0
M  V30 608 H 58.1988 -1.95421 -0.605952 0
M  V30 609 H 58.2088 -2.91291 -2.85681 0
M  V30 610 H 56.8838 -3.65846 -1.97812 0
M  V30 611 H 55.4608 -2.16401 -3.03685 0
M  V30 612 N 57.6459 0.756429 -1.3826 0
M  V30 613 C 58.8929 1.51547 -1.34312 0
M  V30 614 C 59.2209 1.94382 0.0677144 0
M  V30 615 O 58.4759 1.65514 1.04421 0
M  V30 616 C 58.7749 2.78313 -2.24224 0
M  V30 617 C 58.4409 2.54455 -3.72241 0
M  V30 618 C 57.1029 2.47657 -4.12576 0
M  V30 619 C 59.4549 2.3354 -4.65949 0
M  V30 620 C 56.7829 2.17956 -5.44713 0
M  V30 621 C 59.1349 2.05359 -5.9834 0
M  V30 622 C 57.7989 1.97016 -6.37762 0
M  V30 623 H 57.0689 0.55455 -0.491482 0
M  V30 624 H 59.7159 0.870039 -1.70595 0
M  V30 625 H 58.0209 3.47492 -1.80987 0
M  V30 626 H 59.7179 3.36259 -2.18474 0
M  V30 627 H 56.3079 2.60616 -3.40261 0
M  V30 628 H 60.4919 2.37772 -4.35635 0
M  V30 629 H 55.7479 2.10003 -5.74203 0
M  V30 630 H 59.9219 1.88179 -6.70494 0
M  V30 631 H 57.5489 1.73766 -7.40074 0
M  V30 632 N 59.124 1.23083 0.984299 0
M  V30 633 C 60.372 1.05848 1.72165 0
M  V30 634 C 60.693 -0.406049 1.90726 0
M  V30 635 O 59.963 -1.29139 1.47309 0
M  V30 636 H 58.543 0.388685 0.637913 0
M  V30 637 H 61.205 1.54736 1.18503 0
M  V30 638 H 60.301 1.54327 2.71274 0
M  V30 639 N 60.6021 -1.18246 1.0419 0
M  V30 640 C 61.8301 -1.92195 0.766072 0
M  V30 641 C 62.2451 -1.76247 -0.676933 0
M  V30 642 O 61.6021 -1.09293 -1.46155 0
M  V30 643 C 61.6531 -3.43568 1.12442 0
M  V30 644 O 61.3741 -3.59015 2.51078 0
M  V30 645 C 62.8751 -4.34613 0.873275 0
M  V30 646 H 60.0951 -0.610114 0.279288 0
M  V30 647 H 62.6391 -1.50007 1.38989 0
M  V30 648 H 60.7941 -3.8354 0.545542 0
M  V30 649 H 61.2081 -4.5273 2.64831 0
M  V30 650 H 62.6821 -5.39374 1.17385 0
M  V30 651 H 63.1591 -4.38781 -0.191909 0
M  V30 652 H 63.7651 -4.00341 1.43551 0
M  V30 653 N 62.0802 -0.821533 -1.34494 0
M  V30 654 C 63.3262 -0.409552 -1.98622 0
M  V30 655 C 63.6592 1.0244 -1.64984 0
M  V30 656 O 62.9342 1.71325 -0.920758 0
M  V30 657 C 63.2172 -0.610458 -3.54888 0
M  V30 658 C 63.0702 -2.09043 -3.98273 0
M  V30 659 C 64.3892 -0.0455379 -4.40076 0
M  V30 660 H 61.5082 -0.15028 -0.721516 0
M  V30 661 H 64.1502 -1.03384 -1.59411 0
M  V30 662 H 62.3002 -0.079044 -3.8842 0
M  V30 663 H 63.9722 -2.68537 -3.75081 0
M  V30 664 H 62.2152 -2.58139 -3.48635 0
M  V30 665 H 62.8862 -2.18182 -5.07051 0
M  V30 666 H 65.3622 -0.499557 -4.1309 0
M  V30 667 H 64.2382 -0.215922 -5.48475 0
M  V30 668 H 64.4992 1.04939 -4.29465 0
M  V30 669 N 63.5583 1.46682 -0.576371 0
M  V30 670 C 64.7883 2.06498 -0.0648694 0
M  V30 671 C 65.1963 1.42665 1.24271 0
M  V30 672 O 64.5393 0.523886 1.76071 0
M  V30 673 C 64.6013 3.5904 0.181816 0
M  V30 674 C 64.2653 4.45028 -1.0392 0
M  V30 675 C 65.2623 4.81959 -1.94966 0
M  V30 676 C 62.9473 4.86259 -1.25927 0
M  V30 677 C 64.9413 5.58942 -3.06371 0
M  V30 678 C 62.6283 5.63002 -2.37638 0
M  V30 679 C 63.6263 5.99257 -3.2769 0
M  V30 680 O 63.3143 6.7445 -4.37461 0
M  V30 681 H 63.0463 0.674028 -0.0515987 0
M  V30 682 H 65.6003 1.89393 -0.794951 0
M  V30 683 H 63.8303 3.74429 0.966436 0
M  V30 684 H 65.5193 4.00806 0.641047 0
M  V30 685 H 66.2853 4.50689 -1.79177 0
M  V30 686 H 62.1643 4.57494 -0.567448 0
M  V30 687 H 65.7083 5.87158 -3.76684 0
M  V30 688 H 61.6053 5.93686 -2.53392 0
M  V30 689 H 62.3733 6.92867 -4.35749 0
M  V30 690 N 65.0364 0.313813 1.54444 0
M  V30 691 C 65.9664 -0.549454 2.26943 0
M  V30 692 C 66.9474 -1.12741 1.27372 0
M  V30 693 O 68.1324 -1.15436 1.56167 0
M  V30 694 C 65.2624 -1.71523 3.01989 0
M  V30 695 C 64.2164 -1.26703 4.08816 0
M  V30 696 C 63.5424 -2.51898 4.71647 0
M  V30 697 C 64.8424 -0.388962 5.2085 0
M  V30 698 H 66.5364 0.0552661 2.99349 0
M  V30 699 H 64.0824 0.0280207 1.43973 0
M  V30 700 H 66.0354 -2.32535 3.51433 0
M  V30 701 H 64.7594 -2.34639 2.27183 0
M  V30 702 H 63.4184 -0.679896 3.6024 0
M  V30 703 H 63.0664 -3.13356 3.93468 0
M  V30 704 H 62.7664 -2.22605 5.43802 0
M  V30 705 H 64.2904 -3.1369 5.23861 0
M  V30 706 H 65.7044 -0.905107 5.6611 0
M  V30 707 H 64.1014 -0.18924 5.99802 0
M  V30 708 H 65.1714 0.582699 4.81386 0
M  V30 709 N 66.5145 -1.57545 0.0417849 0
M  V30 710 C 67.7605 -1.92601 -0.635021 0
M  V30 711 C 68.0935 -0.919627 -1.71045 0
M  V30 712 O 67.3685 0.0557892 -1.9442 0
M  V30 713 C 67.6515 -3.38085 -1.23979 0
M  V30 714 C 67.5045 -4.49467 -0.173057 0
M  V30 715 C 68.8235 -3.83776 -2.15416 0
M  V30 716 H 65.9425 -0.700397 -0.229374 0
M  V30 717 H 68.5845 -1.89728 0.101633 0
M  V30 718 H 66.7345 -3.40664 -1.86762 0
M  V30 719 H 68.4065 -4.59018 0.458312 0
M  V30 720 H 66.6495 -4.30909 0.499996 0
M  V30 721 H 67.3205 -5.48323 -0.636054 0
M  V30 722 H 69.7965 -3.83013 -1.62605 0
M  V30 723 H 68.6725 -4.8624 -2.54679 0
M  V30 724 H 68.9335 -3.19998 -3.05047 0
M  V30 725 N 67.9926 0.231505 -1.5589 0
M  V30 726 C 69.2176 0.978689 -1.82856 0
M  V30 727 C 69.6426 1.77559 -0.620846 0
M  V30 728 O 69.0006 1.76119 0.430305 0
M  V30 729 C 69.0486 1.87997 -3.07716 0
M  V30 730 O 68.1526 2.97393 -2.85712 0
M  V30 731 H 67.4936 0.277663 -0.603158 0
M  V30 732 H 70.0236 0.24783 -2.03093 0
M  V30 733 H 70.0336 2.2917 -3.37558 0
M  V30 734 H 68.7086 1.29417 -3.95252 0
M  V30 735 H 67.2856 2.60238 -2.67078 0
M  V30 736 N 69.4707 1.49531 0.497807 0
M  V30 737 C 70.7477 1.49682 1.25915 0
M  V30 738 C 71.1277 0.226339 2.09883 0
M  V30 739 O 70.4757 -0.791189 2.14365 0
M  V30 740 C 70.6857 2.77755 2.11313 0
M  V30 741 C 72.0337 3.27371 2.70395 0
M  V30 742 O 73.0577 2.78894 2.21578 0
M  V30 743 O 71.9167 4.11808 3.59272 0
M  V30 744 H 69.0107 0.599228 0.56996 0
M  V30 745 H 71.5567 1.61798 0.511816 0
M  V30 746 H 70.3287 3.61713 1.49264 0
M  V30 747 H 69.9517 2.68515 2.93233 0
M  V30 748 N 70.9488 -0.749086 1.3866 0
M  V30 749 C 71.8958 -1.86291 1.36251 0
M  V30 750 C 72.8658 -1.64578 0.224347 0
M  V30 751 O 74.0508 -1.86181 0.417279 0
M  V30 752 C 71.1908 -3.23644 1.19786 0
M  V30 753 C 70.3038 -3.57158 2.43027 0
M  V30 754 C 69.4388 -4.83838 2.19258 0
M  V30 755 C 68.4778 -5.10152 3.38247 0
M  V30 756 N 67.6148 -6.28029 3.13884 0
M  V30 757 H 72.4548 -1.87685 2.3147 0
M  V30 758 H 69.9918 -0.917287 1.14997 0
M  V30 759 H 71.9498 -4.0291 1.08254 0
M  V30 760 H 70.5798 -3.21566 0.282031 0
M  V30 761 H 69.6318 -2.72701 2.65214 0
M  V30 762 H 70.9438 -3.7253 3.31697 0
M  V30 763 H 70.0978 -5.71057 2.04888 0
M  V30 764 H 68.8368 -4.70614 1.2796 0
M  V30 765 H 67.8418 -4.21401 3.53131 0
M  V30 766 H 69.0668 -5.25271 4.30427 0
M  V30 767 H 67.0128 -6.1612 2.25238 0
M  V30 768 H 66.9298 -6.43922 3.96106 0
M  V30 769 H 68.1978 -7.18124 3.03179 0
M  V30 770 N 72.4269 -1.23603 -0.977757 0
M  V30 771 C 73.3739 -1.01954 -2.07061 0
M  V30 772 C 74.3439 0.0638697 -1.65977 0
M  V30 773 O 75.5289 -0.0887624 -1.90593 0
M  V30 774 C 72.6689 -0.619658 -3.39491 0
M  V30 775 C 71.7819 -1.77547 -3.93829 0
M  V30 776 C 70.9169 -1.32212 -5.14484 0
M  V30 777 C 69.9559 -2.44852 -5.60994 0
M  V30 778 N 69.0929 -2.00456 -6.72876 0
M  V30 779 H 73.9329 -1.95495 -2.24913 0
M  V30 780 H 71.4699 -0.973861 -1.10247 0
M  V30 781 H 73.4279 -0.368898 -4.15566 0
M  V30 782 H 72.0579 0.278752 -3.21594 0
M  V30 783 H 71.1099 -2.14016 -3.14486 0
M  V30 784 H 72.4219 -2.62219 -4.24314 0
M  V30 785 H 71.5759 -1.02965 -5.97899 0
M  V30 786 H 70.3149 -0.445808 -4.85658 0
M  V30 787 H 69.3199 -2.74871 -4.76157 0
M  V30 788 H 70.5449 -3.33024 -5.91837 0
M  V30 789 H 68.4909 -1.15208 -6.45804 0
M  V30 790 H 68.4079 -2.78687 -7.02759 0
M  V30 791 H 69.6759 -1.7432 -7.59758 0
M  V30 792 N 73.905 1.17692 -1.04816 0
M  V30 793 C 74.868 2.19787 -0.650117 0
M  V30 794 C 75.868 1.58044 0.296427 0
M  V30 795 O 77.058 1.74012 0.0808097 0
M  V30 796 C 74.19 3.40869 0.0456987 0
M  V30 797 H 75.383 2.56516 -1.5537 0
M  V30 798 H 72.936 1.31708 -0.841594 0
M  V30 799 H 73.671 3.09681 0.962726 0
M  V30 800 H 73.456 3.86928 -0.634727 0
M  V30 801 H 74.946 4.16445 0.310432 0
M  V30 802 N 75.3831 0.828654 1.34056 0
M  V30 803 C 76.3301 0.252567 2.29414 0
M  V30 804 C 77.3001 -0.62588 1.53857 0
M  V30 805 O 78.4851 -0.566312 1.82202 0
M  V30 806 C 75.6251 -0.574831 3.40279 0
M  V30 807 C 74.7381 0.326499 4.30764 0
M  V30 808 C 73.8731 -0.511016 5.28736 0
M  V30 809 C 72.9121 0.389342 6.1086 0
M  V30 810 N 72.0491 -0.409439 7.00905 0
M  V30 811 H 76.8891 1.07108 2.78086 0
M  V30 812 H 74.4261 0.539677 1.36843 0
M  V30 813 H 76.3841 -1.06992 4.03248 0
M  V30 814 H 75.0141 -1.35841 2.92826 0
M  V30 815 H 74.0661 0.939837 3.68607 0
M  V30 816 H 75.3781 1.01857 4.88289 0
M  V30 817 H 74.5321 -1.07035 5.97184 0
M  V30 818 H 73.2711 -1.23657 4.71763 0
M  V30 819 H 72.2761 0.960769 5.4134 0
M  V30 820 H 73.5011 1.1131 6.69916 0
M  V30 821 H 71.4471 -1.11856 6.46393 0
M  V30 822 H 71.3641 0.224126 7.55668 0
M  V30 823 H 72.6321 -0.951336 7.73673 0
M  V30 824 N 76.8612 -1.46375 0.584142 0
M  V30 825 C 78.2772 -1.57694 0.245929 0
M  V30 826 C 78.4772 -1.57903 -1.25175 0
M  V30 827 O 77.5332 -1.49676 -2.03355 0
M  V30 828 C 78.8462 -2.87028 0.896402 0
M  V30 829 C 80.3942 -3.00662 0.870127 0
M  V30 830 C 80.8692 -4.32734 1.50017 0
M  V30 831 N 82.3602 -4.39436 1.46458 0
M  V30 832 C 83.0952 -5.40248 1.92144 0
M  V30 833 N 82.5912 -6.47726 2.4581 0
M  V30 834 N 84.3842 -5.31459 1.83052 0
M  V30 835 H 76.5352 -1.44483 1.55687 0
M  V30 836 H 78.7982 -0.689291 0.650831 0
M  V30 837 H 78.5042 -2.9269 1.95002 0
M  V30 838 H 78.3782 -3.75014 0.405486 0
M  V30 839 H 80.7652 -2.94581 -0.174871 0
M  V30 840 H 80.8462 -2.14148 1.39908 0
M  V30 841 H 80.4902 -4.39573 2.54437 0
M  V30 842 H 80.4202 -5.18025 0.946432 0
M  V30 843 H 82.9112 -3.62367 1.07231 0
M  V30 844 H 83.2242 -7.20863 2.78525 0
M  V30 845 H 81.5692 -6.48542 2.49836 0
M  V30 846 H 84.7602 -4.46396 1.40883 0
M  V30 847 H 84.9332 -6.09881 2.18973 0
M  V30 848 N 78.3393 -0.321999 -1.54275 0
M  V30 849 C 79.5873 0.280489 -2.00144 0
M  V30 850 C 79.9083 1.52777 -1.21178 0
M  V30 851 O 79.1783 1.9338 -0.313187 0
M  V30 852 H 77.7583 0.106632 -0.73935 0
M  V30 853 H 80.4203 -0.438184 -1.8991 0
M  V30 854 H 79.5163 0.537972 -3.07428 0
M  V30 855 N 79.8174 1.5752 -0.0501392 0
M  V30 856 C 80.7274 2.14952 0.939827 0
M  V30 857 C 81.7434 1.10706 1.34239 0
M  V30 858 O 82.9194 1.42869 1.41952 0
M  V30 859 C 79.9844 2.68232 2.19665 0
M  V30 860 C 79.0454 3.87272 1.85253 0
M  V30 861 C 78.2784 4.38002 3.04943 0
M  V30 862 O 78.5014 3.87811 4.18281 0
M  V30 863 O 77.4354 5.29602 2.86017 0
M  V30 864 H 81.2614 2.9986 0.481392 0
M  V30 865 H 78.8464 1.4841 0.171699 0
M  V30 866 H 80.7284 3.02475 2.93406 0
M  V30 867 H 79.4034 1.86395 2.64648 0
M  V30 868 H 78.3104 3.5792 1.0883 0
M  V30 869 H 79.6434 4.70336 1.4507 0
M  V30 870 N 81.2955 -0.223234 1.56011 0
M  V30 871 C 82.2055 -1.29766 1.95443 0
M  V30 872 C 83.2215 -1.51373 0.858028 0
M  V30 873 O 84.3975 -1.64536 1.16146 0
M  V30 874 C 81.4625 -2.62772 2.26167 0
M  V30 875 C 80.5235 -2.49482 3.49367 0
M  V30 876 C 79.7565 -3.76145 3.78616 0
M  V30 877 O 79.9795 -4.79087 3.09568 0
M  V30 878 O 78.9135 -3.73358 4.72109 0
M  V30 879 H 82.7395 -0.99309 2.87004 0
M  V30 880 H 80.3245 -0.425958 1.43199 0
M  V30 881 H 82.2065 -3.41327 2.47131 0
M  V30 882 H 80.8815 -2.92913 1.37781 0
M  V30 883 H 79.7885 -1.69133 3.33684 0
M  V30 884 H 81.1215 -2.2428 4.38131 0
M  V30 885 N 82.7736 -1.49793 -0.48987 0
M  V30 886 C 83.7036 -1.70201 -1.59856 0
M  V30 887 C 84.6846 -0.55076 -1.60937 0
M  V30 888 O 85.8696 -0.787841 -1.77501 0
M  V30 889 C 82.9996 -1.77882 -2.98287 0
M  V30 890 C 81.9536 -2.92907 -3.12073 0
M  V30 891 C 81.2796 -2.85712 -4.51965 0
M  V30 892 C 82.5796 -4.3369 -2.91051 0
M  V30 893 H 84.2736 -2.63025 -1.43032 0
M  V30 894 H 81.8196 -1.26574 -0.686664 0
M  V30 895 H 83.7726 -1.90744 -3.75759 0
M  V30 896 H 82.4966 -0.816653 -3.16225 0
M  V30 897 H 81.1556 -2.79665 -2.37029 0
M  V30 898 H 80.8036 -1.8738 -4.66795 0
M  V30 899 H 80.5036 -3.62921 -4.62128 0
M  V30 900 H 82.0276 -3.00598 -5.31482 0
M  V30 901 H 83.4416 -4.47555 -3.58284 0
M  V30 902 H 81.8386 -5.12205 -3.12675 0
M  V30 903 H 82.9086 -4.47362 -1.87071 0
M  V30 904 N 84.2517 0.741722 -1.39055 0
M  V30 905 C 85.1987 1.85566 -1.37237 0
M  V30 906 C 86.1687 1.64457 -0.233072 0
M  V30 907 O 87.3537 1.85957 -0.427147 0
M  V30 908 C 84.4937 3.23004 -1.215 0
M  V30 909 C 83.6067 3.55864 -2.44918 0
M  V30 910 C 82.7417 4.82669 -2.21821 0
M  V30 911 C 81.7807 5.08351 -3.40948 0
M  V30 912 N 80.9177 6.26356 -3.17211 0
M  V30 913 H 85.7577 1.86455 -2.32462 0
M  V30 914 H 83.2947 0.911176 -1.15482 0
M  V30 915 H 85.2527 4.02331 -1.10389 0
M  V30 916 H 83.8827 3.21411 -0.29908 0
M  V30 917 H 82.9347 2.7129 -2.66657 0
M  V30 918 H 84.2467 3.70765 -3.33668 0
M  V30 919 H 83.4007 5.69962 -2.07914 0
M  V30 920 H 82.1397 4.69929 -1.30454 0
M  V30 921 H 81.1447 4.19522 -3.55361 0
M  V30 922 H 82.3697 5.22981 -4.33207 0
M  V30 923 H 80.3157 6.14917 -2.28502 0
M  V30 924 H 80.2327 6.41813 -3.99515 0
M  V30 925 H 81.5007 7.16506 -3.06984 0
M  V30 926 N 85.7298 1.2412 0.971189 0
M  V30 927 C 86.9758 1.08041 1.71625 0
M  V30 928 C 87.3088 -0.380407 1.90438 0
M  V30 929 O 86.5838 -1.28127 1.46334 0
M  V30 930 C 86.8668 1.81682 3.10908 0
M  V30 931 C 86.7198 3.35493 2.99608 0
M  V30 932 C 88.0388 1.58671 4.10501 0
M  V30 933 H 85.1578 0.39388 0.622919 0
M  V30 934 H 87.7998 1.52743 1.13003 0
M  V30 935 H 85.9498 1.43684 3.60953 0
M  V30 936 H 87.6218 3.83068 2.57015 0
M  V30 937 H 85.8648 3.64052 2.35899 0
M  V30 938 H 86.5358 3.82217 3.98264 0
M  V30 939 H 89.0118 1.91719 3.69301 0
M  V30 940 H 87.8878 2.1266 5.06031 0
M  V30 941 H 88.1488 0.524161 4.38982 0
M  V30 942 N 87.2079 -1.17134 1.05439 0
M  V30 943 C 88.1379 -2.2342 0.678649 0
M  V30 944 C 89.1189 -1.66971 -0.32476 0
M  V30 945 O 90.3039 -1.93149 -0.201802 0
M  V30 946 C 87.4339 -3.47256 0.0552099 0
M  V30 947 C 86.3879 -4.16543 0.98365 0
M  V30 948 C 85.7139 -5.34231 0.223961 0
M  V30 949 C 87.0139 -4.68495 2.3089 0
M  V30 950 H 88.7079 -2.55105 1.56722 0
M  V30 951 H 86.2539 -1.2262 0.754998 0
M  V30 952 H 88.2069 -4.20828 -0.21946 0
M  V30 953 H 86.9309 -3.14846 -0.868319 0
M  V30 954 H 85.5899 -3.44887 1.24293 0
M  V30 955 H 85.2379 -4.98071 -0.702412 0
M  V30 956 H 84.9379 -5.81527 0.842627 0
M  V30 957 H 86.4619 -6.10585 -0.0433671 0
M  V30 958 H 87.8759 -5.33691 2.09396 0
M  V30 959 H 86.2729 -5.26379 2.88176 0
M  V30 960 H 87.3429 -3.85169 2.94572 0
M  V30 961 N 88.686 -0.835752 -1.33615 0
M  V30 962 C 89.633 -0.26473 -2.29277 0
M  V30 963 C 90.603 0.617712 -1.54187 0
M  V30 964 O 91.788 0.556641 -1.825 0
M  V30 965 C 88.928 0.556777 -3.40579 0
M  V30 966 C 88.041 -0.349339 -4.30585 0
M  V30 967 C 87.176 0.482969 -5.29 0
M  V30 968 C 86.215 -0.421732 -6.10645 0
M  V30 969 N 85.352 0.372262 -7.01112 0
M  V30 970 H 90.192 -1.08582 -2.77514 0
M  V30 971 H 87.729 -0.546927 -1.36554 0
M  V30 972 H 89.687 1.04852 -4.03809 0
M  V30 973 H 88.317 1.34286 -2.93542 0
M  V30 974 H 87.369 -0.959372 -3.68104 0
M  V30 975 H 88.681 -1.04445 -4.87742 0
M  V30 976 H 87.835 1.03866 -5.97743 0
M  V30 977 H 86.574 1.21153 -4.72412 0
M  V30 978 H 85.579 -0.989464 -5.40823 0
M  V30 979 H 86.804 -1.14861 -6.69316 0
M  V30 980 H 84.75 1.08426 -6.46977 0
M  V30 981 H 84.667 -0.264198 -7.55538 0
M  V30 982 H 85.935 0.910293 -7.74167 0
M  V30 983 N 90.1641 1.46063 -0.591896 0
M  V30 984 C 91.0741 2.34192 0.13831 0
M  V30 985 C 92.0901 1.50305 0.876608 0
M  V30 986 O 93.2661 1.8315 0.837728 0
M  V30 987 C 90.3311 3.27656 1.13326 0
M  V30 988 C 89.3921 4.27445 0.39863 0
M  V30 989 C 88.6251 5.16443 1.34618 0
M  V30 990 O 88.8481 5.08553 2.58321 0
M  V30 991 O 87.7821 5.95843 0.851768 0
M  V30 992 H 91.6081 2.98002 -0.58552 0
M  V30 993 H 89.1931 1.45188 -0.352239 0
M  V30 994 H 91.0751 3.85291 1.70671 0
M  V30 995 H 89.7501 2.6643 1.83839 0
M  V30 996 H 88.6571 3.73471 -0.216895 0
M  V30 997 H 89.9901 4.91482 -0.265709 0
M  V30 998 N 91.6422 0.330177 1.54103 0
M  V30 999 C 92.8912 -0.271336 1.99867 0
M  V30 1000 C 93.2042 -1.52723 1.22209 0
M  V30 1001 O 94.4102 -2.20515 1.58383 0
M  V30 1002 C 92.8662 -0.534032 3.55916 0
M  V30 1003 C 92.4742 0.705193 4.42415 0
M  V30 1004 C 94.2182 -1.09514 4.1013 0
M  V30 1005 C 92.1252 0.414035 5.89949 0
M  V30 1006 H 91.0552 -0.105166 0.74663 0
M  V30 1007 H 93.7062 0.443429 1.78062 0
M  V30 1008 H 92.0882 -1.30915 3.73734 0
M  V30 1009 H 93.2622 1.4804 4.36372 0
M  V30 1010 H 91.5772 1.18698 3.99124 0
M  V30 1011 H 94.1742 -1.3277 5.17954 0
M  V30 1012 H 94.5172 -2.04656 3.62521 0
M  V30 1013 H 95.0502 -0.381038 3.95971 0
M  V30 1014 H 91.7892 1.33481 6.41766 0
M  V30 1015 H 91.3092 -0.323336 5.98928 0
M  V30 1016 H 92.9882 0.0263105 6.46995 0
M  V30 1017 N 93.1203 -1.57491 0.0584922 0
M  V30 1018 C 94.3453 -1.97711 -0.62652 0
M  V30 1019 C 94.7703 -0.936132 -1.63151 0
M  V30 1020 O 94.1283 0.099811 -1.81025 0
M  V30 1021 C 94.1763 -3.36989 -1.28338 0
M  V30 1022 O 93.2803 -3.35433 -2.39913 0
M  V30 1023 H 92.6213 -0.643868 -0.162266 0
M  V30 1024 H 95.1513 -2.04193 0.129064 0
M  V30 1025 H 95.1613 -3.73879 -1.63335 0
M  V30 1026 H 93.8363 -4.12289 -0.546889 0
M  V30 1027 H 92.4133 -3.10298 -2.06809 0
M  V30 1028 N 94.5984 0.214957 -1.56127 0
M  V30 1029 C 95.8444 0.939762 -1.79712 0
M  V30 1030 C 96.1774 1.83723 -0.629247 0
M  V30 1031 O 95.4524 1.90925 0.371197 0
M  V30 1032 C 95.7354 1.77306 -3.13424 0
M  V30 1033 C 95.5884 0.90164 -4.40671 0
M  V30 1034 C 96.9074 2.74956 -3.43638 0
M  V30 1035 H 94.0264 0.340214 -0.653776 0
M  V30 1036 H 96.6684 0.20824 -1.88855 0
M  V30 1037 H 94.8184 2.39673 -3.0576 0
M  V30 1038 H 96.4904 0.294206 -4.60361 0
M  V30 1039 H 94.7334 0.207368 -4.33304 0
M  V30 1040 H 95.4044 1.51923 -5.30682 0
M  V30 1041 H 97.8804 2.22724 -3.51473 0
M  V30 1042 H 96.7564 3.30358 -4.38355 0
M  V30 1043 H 97.0174 3.53023 -2.66134 0
M  V30 1044 N 96.0765 1.50051 0.48192 0
M  V30 1045 C 97.3245 1.60181 1.23234 0
M  V30 1046 C 97.6455 0.299176 1.92691 0
M  V30 1047 O 96.9155 -0.682708 1.83619 0
M  V30 1048 H 95.4955 0.590232 0.457859 0
M  V30 1049 H 98.1575 1.86775 0.556881 0
M  V30 1050 H 97.2535 2.40753 1.98607 0
M  V30 1051 N 97.5546 -0.734337 1.39446 0
M  V30 1052 C 98.4646 -1.87879 1.40495 0
M  V30 1053 C 99.4806 -1.714 0.299672 0
M  V30 1054 O 100.657 -1.93991 0.541249 0
M  V30 1055 C 97.7216 -3.23477 1.24754 0
M  V30 1056 C 96.7826 -3.52344 2.45259 0
M  V30 1057 C 96.0156 -4.81473 2.30259 0
M  V30 1058 O 96.2386 -5.55237 1.30643 0
M  V30 1059 O 95.1726 -5.10254 3.19256 0
M  V30 1060 H 98.9986 -1.89949 2.36966 0
M  V30 1061 H 96.5836 -0.882243 1.20569 0
M  V30 1062 H 98.4656 -4.04509 1.18111 0
M  V30 1063 H 97.1406 -3.22176 0.313781 0
M  V30 1064 H 96.0476 -2.71396 2.57478 0
M  V30 1065 H 97.3806 -3.58426 3.37331 0
M  V30 1066 N 99.0327 -1.24633 -0.964593 0
M  V30 1067 C 99.9627 -1.06611 -2.07741 0
M  V30 1068 C 100.944 0.0218666 -1.70086 0
M  V30 1069 O 102.129 -0.145793 -1.93652 0
M  V30 1070 C 99.2587 -0.673444 -3.40708 0
M  V30 1071 C 98.2127 -1.71054 -3.92332 0
M  V30 1072 C 97.5387 -1.17285 -5.21678 0
M  V30 1073 C 98.8387 -3.10718 -4.19824 0
M  V30 1074 H 100.533 -1.99693 -2.23076 0
M  V30 1075 H 98.0787 -0.96152 -1.07195 0
M  V30 1076 H 100.032 -0.534345 -4.17998 0
M  V30 1077 H 98.7557 0.293073 -3.25282 0
M  V30 1078 H 97.4147 -1.83791 -3.17201 0
M  V30 1079 H 97.0627 -0.196847 -5.02615 0
M  V30 1080 H 96.7627 -1.86592 -5.57187 0
M  V30 1081 H 98.2867 -1.04593 -6.01575 0
M  V30 1082 H 99.7007 -3.01192 -4.87808 0
M  V30 1083 H 98.0977 -3.77406 -4.66567 0
M  V30 1084 H 99.1677 -3.58524 -3.26479 0
M  V30 1085 N 100.511 1.16574 -1.06058 0
M  V30 1086 C 101.459 2.22941 -0.663343 0
M  V30 1087 C 102.453 1.66358 0.319593 0
M  V30 1088 O 103.659 1.7905 0.184713 0
M  V30 1089 H 100.034 0.725907 -0.196376 0
M  V30 1090 H 102.005 2.53736 -1.57037 0
M  V30 1091 C 100.754 3.47642 -0.0632808 0
M  V30 1092 H 100.077 3.91493 -0.810733 0
M  V30 1093 H 101.517 4.2363 0.177177 0
M  V30 1094 C 99.9758 3.1509 1.19248 0
M  V30 1095 O 100.506 3.30673 2.28075 0
M  V30 1096 N 98.7118 2.6924 1.09353 0
M  V30 1097 H 98.2588 2.5676 0.207912 0
M  V30 1098 H 98.2168 2.47833 1.93458 0
M  V30 1099 N 101.989 0.842826 1.3317 0
M  V30 1100 C 103.4 0.496651 1.79973 0
M  V30 1101 C 103.751 -0.984641 1.69703 0
M  V30 1102 O 102.876 -1.76743 1.24863 0
M  V30 1103 C 103.471 0.894727 3.26772 0
M  V30 1104 C 102.03 0.600629 3.71577 0
M  V30 1105 C 101.177 1.10091 2.5451 0
M  V30 1106 H 104.128 1.03116 1.20635 0
M  V30 1107 H 104.149 0.206347 3.7994 0
M  V30 1108 H 103.661 1.97287 3.34215 0
M  V30 1109 H 101.762 -0.467284 3.69658 0
M  V30 1110 H 101.875 1.15863 4.64879 0
M  V30 1111 H 100.239 0.52162 2.49301 0
M  V30 1112 H 101.022 2.18591 2.64713 0
M  V30 1113 N 103.467 -1.45747 0.599634 0
M  V30 1114 C 104.415 -2.322 -0.136426 0
M  V30 1115 C 105.409 -1.45497 -0.867583 0
M  V30 1116 O 106.615 -1.62027 -0.78405 0
M  V30 1117 H 102.99 -0.749368 -0.0628588 0
M  V30 1118 H 104.961 -2.92072 0.611281 0
M  V30 1119 C 103.71 -3.28974 -1.12567 0
M  V30 1120 H 103.033 -3.9568 -0.572484 0
M  V30 1121 H 104.473 -3.92212 -1.61077 0
M  V30 1122 C 102.932 -2.55561 -2.19523 0
M  V30 1123 O 103.462 -2.33111 -3.27143 0
M  V30 1124 N 101.668 -2.15832 -1.94589 0
M  V30 1125 H 101.215 -2.3429 -1.07078 0
M  V30 1126 H 101.173 -1.67034 -2.66359 0
M  V30 1127 N 104.945 -0.338344 -1.53925 0
M  V30 1128 C 105.855 0.529421 -2.28548 0
M  V30 1129 C 106.871 1.11645 -1.3346 0
M  V30 1130 O 108.047 1.13325 -1.66492 0
M  V30 1131 C 105.112 1.66713 -3.03987 0
M  V30 1132 C 104.173 1.11041 -4.14691 0
M  V30 1133 C 103.406 2.19389 -4.86522 0
M  V30 1134 O 103.629 3.40013 -4.57982 0
M  V30 1135 O 102.563 1.83976 -5.73094 0
M  V30 1136 H 106.389 -0.0770399 -3.03602 0
M  V30 1137 H 103.974 -0.103555 -1.49041 0
M  V30 1138 H 105.856 2.32918 -3.5118 0
M  V30 1139 H 104.531 2.25949 -2.31794 0
M  V30 1140 H 103.438 0.413024 -3.71813 0
M  V30 1141 H 104.771 0.562975 -4.8897 0
M  V30 1142 N 106.423 1.57458 -0.0668435 0
M  V30 1143 C 107.651 1.97624 0.612565 0
M  V30 1144 C 108.066 0.94502 1.63447 0
M  V30 1145 O 107.423 -0.0689276 1.8237 0
M  V30 1146 C 107.474 3.37869 1.28555 0
M  V30 1147 O 107.195 4.3704 0.304557 0
M  V30 1148 C 108.696 3.92882 2.05325 0
M  V30 1149 H 105.916 0.650045 0.166381 0
M  V30 1150 H 108.46 2.04035 -0.137782 0
M  V30 1151 H 106.615 3.3256 1.98702 0
M  V30 1152 H 107.029 5.18565 0.786779 0
M  V30 1153 H 108.503 4.93247 2.47812 0
M  V30 1154 H 108.98 3.29156 2.9078 0
M  V30 1155 H 109.586 4.01577 1.40056 0
M  V30 1156 N 107.901 -0.206675 1.56239 0
M  V30 1157 C 109.147 -0.930218 1.80208 0
M  V30 1158 C 109.48 -1.83387 0.638981 0
M  V30 1159 O 108.755 -1.91119 -0.361066 0
M  V30 1160 C 109.038 -1.75641 3.1436 0
M  V30 1161 C 108.891 -0.878257 4.41142 0
M  V30 1162 C 110.21 -2.73129 3.45092 0
M  V30 1163 H 107.329 -0.336742 0.655571 0
M  V30 1164 H 109.971 -0.198222 1.88963 0
M  V30 1165 H 108.121 -2.38048 3.07027 0
M  V30 1166 H 109.793 -0.269787 4.6051 0
M  V30 1167 H 108.036 -0.184385 4.33408 0
M  V30 1168 H 108.707 -1.49106 5.3148 0
M  V30 1169 H 111.183 -2.20856 3.52649 0
M  V30 1170 H 110.059 -3.28028 4.40101 0
M  V30 1171 H 110.32 -3.51606 2.68003 0
M  V30 1172 N 109.379 -1.50304 -0.473955 0
M  V30 1173 C 110.311 -1.65109 -1.58971 0
M  V30 1174 C 111.324 -0.532676 -1.53839 0
M  V30 1175 O 112.513 -0.805751 -1.59279 0
M  V30 1176 C 109.613 -1.61684 -2.97845 0
M  V30 1177 C 108.786 -2.8951 -3.27876 0
M  V30 1178 C 107.845 -2.78768 -4.4629 0
M  V30 1179 O 106.871 -3.52722 -4.46739 0
M  V30 1180 N 108.073 -1.9213 -5.47783 0
M  V30 1181 H 110.838 -2.61347 -1.46689 0
M  V30 1182 H 108.399 -1.47732 -0.662324 0
M  V30 1183 H 110.391 -1.52114 -3.75024 0
M  V30 1184 H 108.961 -0.731925 -3.03911 0
M  V30 1185 H 108.181 -3.13228 -2.39336 0
M  V30 1186 H 109.469 -3.74199 -3.4475 0
M  V30 1187 H 108.867 -1.31353 -5.50239 0
M  V30 1188 H 107.424 -1.88466 -6.23958 0
M  V30 1189 N 110.857 0.726932 -1.39834 0
M  V30 1190 C 111.82 1.82269 -1.38962 0
M  V30 1191 C 112.82 1.58248 -0.285334 0
M  V30 1192 O 114.01 1.65499 -0.54366 0
M  V30 1193 C 111.142 3.20186 -1.17019 0
M  V30 1194 H 112.335 1.84443 -2.36476 0
M  V30 1195 H 109.888 0.931416 -1.25516 0
M  V30 1196 H 110.623 3.23669 -0.202204 0
M  V30 1197 H 110.408 3.3902 -1.96998 0
M  V30 1198 H 111.898 4.00235 -1.1917 0
M  V30 1199 N 112.336 1.25143 0.95797 0
M  V30 1200 C 113.284 1.05019 2.07542 0
M  V30 1201 C 114.278 -0.0178751 1.69391 0
M  V30 1202 O 115.484 0.137472 1.79474 0
M  V30 1203 H 111.859 0.32265 0.679265 0
M  V30 1204 H 113.83 1.99759 2.21673 0
M  V30 1205 C 112.579 0.682074 3.40944 0
M  V30 1206 H 111.902 1.49573 3.70767 0
M  V30 1207 H 113.342 0.580945 4.20001 0
M  V30 1208 C 111.801 -0.611608 3.31302 0
M  V30 1209 O 112.331 -1.65465 3.66038 0
M  V30 1210 N 110.537 -0.595982 2.84423 0
M  V30 1211 H 110.084 0.253192 2.56353 0
M  V30 1212 H 110.042 -1.46173 2.78354 0
M  V30 1213 N 113.814 -1.1601 1.06675 0
M  V30 1214 C 114.744 -2.22688 0.702307 0
M  V30 1215 C 115.725 -1.67306 -0.307032 0
M  V30 1216 O 116.91 -1.93352 -0.181305 0
M  V30 1217 C 114.04 -3.47178 0.092038 0
M  V30 1218 C 112.994 -4.15477 1.02777 0
M  V30 1219 C 112.32 -5.33963 0.28061 0
M  V30 1220 C 113.62 -4.66019 2.35846 0
M  V30 1221 H 115.314 -2.53429 1.59419 0
M  V30 1222 H 112.86 -1.21813 0.767961 0
M  V30 1223 H 114.813 -4.21037 -0.174814 0
M  V30 1224 H 113.537 -3.15749 -0.834877 0
M  V30 1225 H 112.196 -3.43549 1.27944 0
M  V30 1226 H 111.844 -4.98788 -0.649545 0
M  V30 1227 H 111.544 -5.806 0.904258 0
M  V30 1228 H 113.068 -6.10596 0.021396 0
M  V30 1229 H 114.482 -5.3144 2.15045 0
M  V30 1230 H 112.879 -5.23293 2.93743 0
M  V30 1231 H 113.949 -3.82023 2.98641 0
M  V30 1232 N 115.292 -0.849877 -1.32721 0
M  V30 1233 C 116.202 -0.293791 -2.32753 0
M  V30 1234 C 117.218 0.585906 -1.63839 0
M  V30 1235 O 118.394 0.487413 -1.95413 0
M  V30 1236 C 115.459 0.512752 -3.42887 0
M  V30 1237 C 114.52 -0.39252 -4.27502 0
M  V30 1238 C 113.753 0.375625 -5.32377 0
M  V30 1239 O 113.976 1.60613 -5.4732 0
M  V30 1240 O 112.91 -0.256094 -6.01355 0
M  V30 1241 H 116.736 -1.12242 -2.82197 0
M  V30 1242 H 114.321 -0.612685 -1.36259 0
M  V30 1243 H 116.203 0.970704 -4.10067 0
M  V30 1244 H 114.878 1.31826 -2.95641 0
M  V30 1245 H 113.785 -0.898547 -3.63149 0
M  V30 1246 H 115.118 -1.16309 -4.7826 0
M  V30 1247 N 116.77 1.45427 -0.607355 0
M  V30 1248 C 117.733 2.28974 0.101693 0
M  V30 1249 C 118.733 1.39754 0.795329 0
M  V30 1250 O 119.923 1.61878 0.643527 0
M  V30 1251 C 117.055 3.20768 1.15414 0
M  V30 1252 H 118.248 2.93147 -0.632844 0
M  V30 1253 H 115.801 1.51945 -0.366391 0
M  V30 1254 H 116.536 2.61395 1.91945 0
M  V30 1255 H 116.321 3.86489 0.66098 0
M  V30 1256 H 117.811 3.83589 1.65073 0
M  V30 1257 N 118.248 0.346503 1.53744 0
M  V30 1258 C 119.18 -0.543316 2.22667 0
M  V30 1259 C 120.193 -1.06159 1.23427 0
M  V30 1260 O 121.382 -0.971235 1.49764 0
M  V30 1261 C 118.482 -1.76076 2.89569 0
M  V30 1262 C 117.655 -1.37727 4.15151 0
M  V30 1263 C 116.714 -2.45471 4.65436 0
M  V30 1264 O 115.74 -2.08655 5.29577 0
M  V30 1265 N 116.942 -3.7677 4.41616 0
M  V30 1266 H 119.707 0.0469703 2.99663 0
M  V30 1267 H 117.268 0.170766 1.60997 0
M  V30 1268 H 119.26 -2.47593 3.20125 0
M  V30 1269 H 117.83 -2.25835 2.16142 0
M  V30 1270 H 117.05 -0.492746 3.91108 0
M  V30 1271 H 118.338 -1.09708 4.96832 0
M  V30 1272 H 117.736 -4.09467 3.90325 0
M  V30 1273 H 116.293 -4.44448 4.7677 0
M  V30 1274 N 119.726 -1.57421 0.075193 0
M  V30 1275 C 120.656 -2.15942 -0.888324 0
M  V30 1276 C 121.637 -1.08737 -1.30806 0
M  V30 1277 O 122.822 -1.36787 -1.37851 0
M  V30 1278 C 119.952 -2.72379 -2.1547 0
M  V30 1279 C 118.906 -3.8478 -1.87425 0
M  V30 1280 C 118.232 -4.27834 -3.20721 0
M  V30 1281 C 119.532 -5.08869 -1.17684 0
M  V30 1282 H 121.226 -2.96705 -0.400799 0
M  V30 1283 H 118.772 -1.42723 -0.191342 0
M  V30 1284 H 120.725 -3.11965 -2.83295 0
M  V30 1285 H 119.449 -1.88841 -2.6647 0
M  V30 1286 H 118.108 -3.45703 -1.22004 0
M  V30 1287 H 117.756 -3.41214 -3.6957 0
M  V30 1288 H 117.456 -5.03605 -3.02746 0
M  V30 1289 H 118.98 -4.70039 -3.89738 0
M  V30 1290 H 120.394 -5.4575 -1.75584 0
M  V30 1291 H 118.791 -5.8994 -1.09956 0
M  V30 1292 H 119.861 -4.84648 -0.156453 0
M  V30 1293 N 121.204 0.198386 -1.56346 0
M  V30 1294 C 122.134 1.24865 -1.9731 0
M  V30 1295 C 123.115 1.47651 -0.844576 0
M  V30 1296 O 124.3 1.59444 -1.10866 0
M  V30 1297 C 121.43 2.59358 -2.30977 0
M  V30 1298 C 120.384 2.5119 -3.46537 0
M  V30 1299 C 119.71 3.89926 -3.65871 0
M  V30 1300 C 121.01 2.03977 -4.80823 0
M  V30 1301 H 122.704 0.908252 -2.85291 0
M  V30 1302 H 120.25 0.435462 -1.37258 0
M  V30 1303 H 122.203 3.33011 -2.58228 0
M  V30 1304 H 120.927 2.95132 -1.39874 0
M  V30 1305 H 119.586 1.79993 -3.19371 0
M  V30 1306 H 119.234 4.23046 -2.72105 0
M  V30 1307 H 118.934 3.85336 -4.4361 0
M  V30 1308 H 120.458 4.65205 -3.95495 0
M  V30 1309 H 121.872 2.67386 -5.07127 0
M  V30 1310 H 120.269 2.10397 -5.62008 0
M  V30 1311 H 121.339 0.992861 -4.74626 0
M  V30 1312 N 122.682 1.50554 0.465978 0
M  V30 1313 C 123.907 1.65838 1.24549 0
M  V30 1314 C 124.332 0.343486 1.84937 0
M  V30 1315 O 123.69 -0.69324 1.67523 0
M  V30 1316 C 123.738 2.75533 2.32624 0
M  V30 1317 O 122.842 2.37142 3.37398 0
M  V30 1318 H 122.183 0.553893 0.366194 0
M  V30 1319 H 124.713 1.96959 0.553927 0
M  V30 1320 H 124.723 2.98763 2.77857 0
M  V30 1321 H 123.398 3.70962 1.88043 0
M  V30 1322 H 121.975 2.24377 2.97841 0
M  V30 1323 N 124.16 -0.719506 1.40217 0
M  V30 1324 C 125.107 -1.83359 1.40172 0
M  V30 1325 C 126.077 -1.64065 0.259206 0
M  V30 1326 O 127.262 -1.85254 0.456677 0
M  V30 1327 C 124.402 -3.2103 1.26624 0
M  V30 1328 C 123.515 -3.51923 2.50548 0
M  V30 1329 C 122.65 -4.79079 2.29471 0
M  V30 1330 C 121.689 -5.02863 3.48992 0
M  V30 1331 N 120.826 -6.2123 3.27135 0
M  V30 1332 H 125.666 -1.82733 2.35399 0
M  V30 1333 H 123.203 -0.892688 1.16917 0
M  V30 1334 H 125.161 -4.00524 1.16776 0
M  V30 1335 H 123.791 -3.20895 0.350176 0
M  V30 1336 H 122.843 -2.67014 2.70939 0
M  V30 1337 H 124.155 -3.6541 3.39525 0
M  V30 1338 H 123.309 -5.66582 2.16955 0
M  V30 1339 H 122.048 -4.67794 1.37913 0
M  V30 1340 H 121.053 -4.13816 3.6199 0
M  V30 1341 H 122.278 -5.16023 4.41472 0
M  V30 1342 H 120.224 -6.11204 2.38256 0
M  V30 1343 H 120.141 -6.35375 4.09675 0
M  V30 1344 H 121.409 -7.11532 3.18344 0
M  V30 1345 N 125.638 -1.25649 -0.95132 0
M  V30 1346 C 126.568 -1.08808 -2.06599 0
M  V30 1347 C 127.549 0.00382547 -1.701 0
M  V30 1348 O 128.734 -0.166325 -1.93486 0
M  V30 1349 C 125.864 -0.709542 -3.39975 0
M  V30 1350 C 124.818 -1.75206 -3.90496 0
M  V30 1351 C 124.144 -1.22811 -5.20405 0
M  V30 1352 C 125.444 -3.15153 -4.16504 0
M  V30 1353 H 127.138 -2.02048 -2.20946 0
M  V30 1354 H 124.684 -0.972835 -1.06169 0
M  V30 1355 H 126.637 -0.578649 -4.17408 0
M  V30 1356 H 125.361 0.258556 -3.25575 0
M  V30 1357 H 124.02 -1.87145 -3.15234 0
M  V30 1358 H 123.668 -0.250145 -5.02378 0
M  V30 1359 H 123.368 -1.92492 -5.55176 0
M  V30 1360 H 124.892 -1.10968 -6.00432 0
M  V30 1361 H 126.306 -3.06349 -4.84586 0
M  V30 1362 H 124.703 -3.82333 -4.62538 0
M  V30 1363 H 125.773 -3.61966 -3.22658 0
M  V30 1364 N 127.117 1.15442 -1.07289 0
M  V30 1365 C 128.394 1.82306 -0.708792 0
M  V30 1366 C 128.774 1.94991 0.808807 0
M  V30 1367 O 128.122 1.50085 1.72298 0
M  V30 1368 C 128.332 3.18695 -1.42247 0
M  V30 1369 C 129.68 3.94341 -1.57417 0
M  V30 1370 O 130.704 3.28247 -1.38319 0
M  V30 1371 O 129.563 5.12839 -1.88834 0
M  V30 1372 H 126.657 0.787628 -0.252132 0
M  V30 1373 H 129.203 1.22559 -1.17377 0
M  V30 1374 H 127.975 3.04557 -2.45684 0
M  V30 1375 H 127.598 3.86128 -0.948223 0
M  V30 1376 N 128.595 0.856903 1.32268 0
M  V30 1377 C 129.545 0.274899 2.26337 0
M  V30 1378 C 130.529 -0.580543 1.50062 0
M  V30 1379 O 131.721 -0.429559 1.71708 0
M  V30 1380 C 128.85 -0.533841 3.39124 0
M  V30 1381 C 127.936 0.334114 4.22782 0
M  V30 1382 N 128.327 1.42143 4.85416 0
M  V30 1383 C 126.625 0.124256 4.45827 0
M  V30 1384 C 127.326 1.95559 5.47843 0
M  V30 1385 N 126.302 1.25444 5.28928 0
M  V30 1386 H 130.104 1.10612 2.72291 0
M  V30 1387 H 127.618 0.703258 1.46383 0
M  V30 1388 H 129.615 -0.96722 4.05525 0
M  V30 1389 H 128.275 -1.36283 2.94715 0
M  V30 1390 H 129.286 1.80436 4.85451 0
M  V30 1391 H 125.963 -0.669837 4.12092 0
M  V30 1392 H 127.353 2.86714 6.07655 0
M  V30 1393 N 130.073 -1.45103 0.615059 0
M  V30 1394 C 131.484 -1.85654 0.197383 0
M  V30 1395 C 131.835 -1.51433 -1.24749 0
M  V30 1396 O 130.96 -0.944608 -1.94695 0
M  V30 1397 C 131.555 -3.36972 0.351448 0
M  V30 1398 C 130.114 -3.76398 -0.011593 0
M  V30 1399 C 129.261 -2.69024 0.672394 0
M  V30 1400 H 132.212 -1.35797 0.821263 0
M  V30 1401 H 132.233 -3.78239 -0.414227 0
M  V30 1402 H 131.745 -3.61847 1.40314 0
M  V30 1403 H 129.846 -3.5714 -1.06217 0
M  V30 1404 H 129.959 -4.77532 0.387265 0
M  V30 1405 H 128.323 -2.54465 0.109284 0
M  V30 1406 H 129.106 -2.96735 1.72636 0
M  V30 1407 N 131.551 -0.354651 -1.53558 0
M  V30 1408 C 132.514 0.484566 -2.24019 0
M  V30 1409 C 133.514 1.01861 -1.24422 0
M  V30 1410 O 134.704 0.906097 -1.4878 0
M  V30 1411 C 131.836 1.67615 -2.96847 0
M  V30 1412 H 133.029 -0.131843 -2.9961 0
M  V30 1413 H 130.582 -0.106165 -1.55939 0
M  V30 1414 H 131.317 2.33095 -2.25471 0
M  V30 1415 H 131.102 1.30029 -3.69912 0
M  V30 1416 H 132.592 2.27114 -3.50441 0
M  V30 1417 N 133.029 1.57378 -0.0835403 0
M  V30 1418 C 134.278 1.93106 0.582498 0
M  V30 1419 C 134.591 0.96651 1.70053 0
M  V30 1420 O 135.797 1.21705 2.42693 0
M  V30 1421 C 134.253 3.43076 1.08751 0
M  V30 1422 C 133.861 4.48 -0.000146404 0
M  V30 1423 C 135.605 3.87785 1.72694 0
M  V30 1424 C 133.512 5.89113 0.519568 0
M  V30 1425 H 132.442 0.720775 0.221358 0
M  V30 1426 H 135.093 1.82821 -0.157675 0
M  V30 1427 H 133.475 3.48474 1.88101 0
M  V30 1428 H 134.649 4.54233 -0.775199 0
M  V30 1429 H 132.964 4.1283 -0.54406 0
M  V30 1430 H 135.561 4.90604 2.1263 0
M  V30 1431 H 135.904 3.25796 2.59158 0
M  V30 1432 H 136.437 3.8504 0.999457 0
M  V30 1433 H 133.176 6.54775 -0.308186 0
M  V30 1434 H 132.696 5.86376 1.26188 0
M  V30 1435 H 134.375 6.39346 0.992237 0
M  V30 1436 N 134.507 -0.190092 1.56449 0
M  V30 1437 C 135.753 -0.911052 1.81184 0
M  V30 1438 C 136.086 -1.82699 0.658396 0
M  V30 1439 O 135.361 -1.91491 -0.340775 0
M  V30 1440 C 135.644 -1.72297 3.16205 0
M  V30 1441 C 135.497 -0.831419 4.42049 0
M  V30 1442 C 136.816 -2.69454 3.47969 0
M  V30 1443 H 133.935 -0.32977 0.659106 0
M  V30 1444 H 136.577 -0.178169 1.89163 0
M  V30 1445 H 134.727 -2.34778 3.09534 0
M  V30 1446 H 136.399 -0.220929 4.60771 0
M  V30 1447 H 134.642 -0.138406 4.33579 0
M  V30 1448 H 135.313 -1.43461 5.33032 0
M  V30 1449 H 137.789 -2.17104 3.54972 0
M  V30 1450 H 136.665 -3.23342 4.43555 0
M  V30 1451 H 136.926 -3.48744 2.71717 0
M  V30 1452 N 135.985 -1.50799 -0.457987 0
M  V30 1453 C 136.932 -1.70617 -1.5543 0
M  V30 1454 C 137.902 -0.547562 -1.56815 0
M  V30 1455 O 139.087 -0.779647 -1.74144 0
M  V30 1456 C 136.227 -1.81831 -2.93311 0
M  V30 1457 C 135.34 -3.09278 -3.01615 0
M  V30 1458 C 134.475 -3.11209 -4.30491 0
M  V30 1459 C 133.514 -4.33055 -4.32585 0
M  V30 1460 N 132.651 -4.32652 -5.52952 0
M  V30 1461 H 137.491 -2.64207 -1.37836 0
M  V30 1462 H 135.028 -1.30959 -0.669937 0
M  V30 1463 H 136.986 -1.86314 -3.73287 0
M  V30 1464 H 135.616 -0.916685 -3.0951 0
M  V30 1465 H 134.668 -3.14203 -2.1443 0
M  V30 1466 H 135.98 -3.99233 -2.99022 0
M  V30 1467 H 135.134 -3.14494 -5.18824 0
M  V30 1468 H 133.873 -2.19106 -4.35711 0
M  V30 1469 H 132.878 -4.29969 -3.42647 0
M  V30 1470 H 134.103 -5.264 -4.29046 0
M  V30 1471 H 132.049 -3.43409 -5.58933 0
M  V30 1472 H 131.966 -5.16392 -5.52155 0
M  V30 1473 H 133.234 -4.40101 -6.43375 0
M  V30 1474 N 137.463 0.71206 -1.40597 0
M  V30 1475 C 138.71 1.47197 -1.39065 0
M  V30 1476 C 139.038 1.94499 0.00583891 0
M  V30 1477 O 138.293 1.68752 0.99102 0
M  V30 1478 C 138.592 2.71039 -2.32965 0
M  V30 1479 C 138.258 2.42484 -3.80148 0
M  V30 1480 C 136.92 2.34406 -4.20247 0
M  V30 1481 C 139.272 2.18598 -4.73143 0
M  V30 1482 C 136.6 2.00516 -5.51371 0
M  V30 1483 C 138.952 1.8622 -6.0457 0
M  V30 1484 C 137.616 1.76626 -6.43708 0
M  V30 1485 H 136.886 0.538634 -0.508876 0
M  V30 1486 H 139.533 0.815325 -1.73276 0
M  V30 1487 H 137.838 3.41558 -1.91951 0
M  V30 1488 H 139.535 3.29138 -2.29061 0
M  V30 1489 H 136.125 2.49659 -3.4838 0
M  V30 1490 H 140.309 2.23793 -4.42979 0
M  V30 1491 H 135.565 1.91628 -5.80593 0
M  V30 1492 H 139.739 1.66752 -6.76141 0
M  V30 1493 H 137.366 1.50133 -7.45228 0
M  V30 1494 N 138.941 1.26152 0.944643 0
M  V30 1495 C 139.891 1.04081 2.02857 0
M  V30 1496 C 140.875 -0.0256555 1.6088 0
M  V30 1497 O 142.067 0.190884 1.75968 0
M  V30 1498 C 139.196 0.672118 3.36656 0
M  V30 1499 C 138.282 1.77586 3.85128 0
M  V30 1500 N 138.673 3.01272 4.06287 0
M  V30 1501 C 136.971 1.65867 4.1401 0
M  V30 1502 C 137.672 3.72983 4.46384 0
M  V30 1503 N 136.648 3.00653 4.52889 0
M  V30 1504 H 140.45 1.97968 2.17223 0
M  V30 1505 H 137.964 1.16618 1.13022 0
M  V30 1506 H 139.961 0.495166 4.13949 0
M  V30 1507 H 138.621 -0.259307 3.23663 0
M  V30 1508 H 139.632 3.37213 3.93075 0
M  V30 1509 H 136.309 0.796907 4.09824 0
M  V30 1510 H 137.699 4.792 4.70975 0
M  V30 1511 N 140.419 -1.14872 1.07899 0
M  V30 1512 C 141.382 -2.17986 0.708161 0
M  V30 1513 C 142.382 -1.58775 -0.25442 0
M  V30 1514 O 143.572 -1.74166 -0.034645 0
M  V30 1515 C 140.704 -3.40871 0.0446929 0
M  V30 1516 H 141.897 -2.52306 1.62116 0
M  V30 1517 H 139.45 -1.2943 0.876218 0
M  V30 1518 H 140.185 -3.12124 -0.880281 0
M  V30 1519 H 139.97 -3.8511 0.737091 0
M  V30 1520 H 141.46 -4.17121 -0.19991 0
M  V30 1521 N 141.898 -0.863906 -1.31812 0
M  V30 1522 C 143.123 -0.48527 -2.01643 0
M  V30 1523 C 143.548 0.913058 -1.64453 0
M  V30 1524 O 142.906 1.6014 -0.849985 0
M  V30 1525 C 142.954 -0.642625 -3.54828 0
M  V30 1526 O 142.058 0.320659 -4.11151 0
M  V30 1527 H 141.399 -0.193793 -0.635091 0
M  V30 1528 H 143.929 -1.16565 -1.68148 0
M  V30 1529 H 143.939 -0.533628 -4.04495 0
M  V30 1530 H 142.614 -1.66227 -3.81237 0
M  V30 1531 H 141.191 0.167126 -3.72525 0
M  V30 1532 N 143.376 1.44774 -0.622745 0
M  V30 1533 C 144.623 2.02121 -0.1239 0
M  V30 1534 C 144.951 1.48915 1.25118 0
M  V30 1535 O 144.206 0.660045 1.84233 0
M  V30 1536 C 144.505 3.57364 -0.0508323 0
M  V30 1537 C 144.171 4.29787 -1.36358 0
M  V30 1538 C 142.833 4.4929 -1.72314 0
M  V30 1539 C 145.185 4.71062 -2.23048 0
M  V30 1540 C 142.513 5.07325 -2.94682 0
M  V30 1541 C 144.865 5.30452 -3.44679 0
M  V30 1542 C 143.529 5.48175 -3.80868 0
M  V30 1543 H 142.799 0.739612 -0.0453381 0
M  V30 1544 H 145.446 1.73648 -0.807389 0
M  V30 1545 H 143.751 3.85202 0.715991 0
M  V30 1546 H 145.448 3.99456 0.351533 0
M  V30 1547 H 142.038 4.14932 -1.07375 0
M  V30 1548 H 146.222 4.55715 -1.96565 0
M  V30 1549 H 141.478 5.19235 -3.22809 0
M  V30 1550 H 145.652 5.61385 -4.12092 0
M  V30 1551 H 143.279 5.92912 -4.75773 0
M  V30 1552 N 144.854 0.36279 1.53368 0
M  V30 1553 C 146.1 -0.228113 2.01513 0
M  V30 1554 C 146.433 -1.48648 1.2497 0
M  V30 1555 O 145.708 -1.91459 0.342616 0
M  V30 1556 C 145.991 -0.522884 3.56284 0
M  V30 1557 C 145.844 0.74892 4.43521 0
M  V30 1558 C 147.163 -1.32461 4.19693 0
M  V30 1559 H 144.282 -0.0814343 0.732487 0
M  V30 1560 H 146.924 0.48713 1.83649 0
M  V30 1561 H 145.074 -1.1322 3.71636 0
M  V30 1562 H 146.746 1.38648 4.39971 0
M  V30 1563 H 144.989 1.36986 4.11603 0
M  V30 1564 H 145.66 0.497667 5.49752 0
M  V30 1565 H 148.136 -0.809203 4.08156 0
M  V30 1566 H 147.012 -1.49961 5.28018 0
M  V30 1567 H 147.273 -2.33232 3.75573 0
M  V30 1568 N 146.332 -1.57332 0.0918853 0
M  V30 1569 C 147.242 -2.17368 -0.882505 0
M  V30 1570 C 148.258 -1.14226 -1.31257 0
M  V30 1571 O 149.434 -1.46582 -1.38115 0
M  V30 1572 C 146.499 -2.73962 -2.12476 0
M  V30 1573 C 145.56 -3.92048 -1.7492 0
M  V30 1574 C 144.793 -4.45933 -2.93223 0
M  V30 1575 O 145.016 -3.98764 -4.07852 0
M  V30 1576 O 143.95 -5.36999 -2.71875 0
M  V30 1577 H 147.776 -3.01031 -0.40172 0
M  V30 1578 H 145.361 -1.48813 -0.132291 0
M  V30 1579 H 147.243 -3.10147 -2.85283 0
M  V30 1580 H 145.918 -1.93347 -2.59613 0
M  V30 1581 H 144.825 -3.6068 -0.993025 0
M  V30 1582 H 146.158 -4.74017 -1.32548 0
M  V30 1583 N 147.81 0.181792 -1.56548 0
M  V30 1584 C 148.742 1.24956 -1.92142 0
M  V30 1585 C 149.755 1.41022 -0.813422 0
M  V30 1586 O 150.944 1.41212 -1.09186 0
M  V30 1587 C 148.044 2.61981 -2.14987 0
M  V30 1588 C 147.217 2.6735 -3.46183 0
M  V30 1589 C 146.276 3.85664 -3.5798 0
M  V30 1590 O 145.302 3.72148 -4.30691 0
M  V30 1591 N 146.504 5.01683 -2.92053 0
M  V30 1592 H 149.269 0.947329 -2.84334 0
M  V30 1593 H 146.83 0.371629 -1.57577 0
M  V30 1594 H 148.822 3.3958 -2.20154 0
M  V30 1595 H 147.392 2.84637 -1.2923 0
M  V30 1596 H 146.612 1.75925 -3.52766 0
M  V30 1597 H 147.9 2.67939 -4.32534 0
M  V30 1598 H 147.298 5.15564 -2.32832 0
M  V30 1599 H 145.855 5.77181 -3.0283 0
M  V30 1600 N 149.288 1.51039 0.449983 0
M  V30 1601 C 150.565 1.53612 1.21089 0
M  V30 1602 C 150.945 0.292997 2.09057 0
M  V30 1603 O 150.293 -0.72259 2.16774 0
M  V30 1604 C 150.503 2.84337 2.0237 0
M  V30 1605 C 151.851 3.35807 2.59843 0
M  V30 1606 O 152.875 2.85802 2.12593 0
M  V30 1607 O 151.734 4.23029 3.45989 0
M  V30 1608 H 148.828 0.617057 0.550608 0
M  V30 1609 H 151.374 1.63344 0.460082 0
M  V30 1610 H 150.146 3.66278 1.37681 0
M  V30 1611 H 149.769 2.77708 2.84542 0
M  V30 1612 N 150.766 -0.704594 1.40972 0
M  V30 1613 C 151.714 -1.83994 1.42299 0
M  V30 1614 C 152.708 -1.66684 0.302111 0
M  V30 1615 O 153.914 -1.73655 0.473697 0
M  V30 1616 H 150.289 -0.606171 0.44504 0
M  V30 1617 H 152.26 -1.79992 2.38003 0
M  V30 1618 C 151.009 -3.21946 1.31323 0
M  V30 1619 H 150.332 -3.35878 2.16855 0
M  V30 1620 H 151.772 -4.01491 1.36311 0
M  V30 1621 C 150.231 -3.36891 0.0245977 0
M  V30 1622 O 150.761 -3.90687 -0.934153 0
M  V30 1623 N 148.967 -2.90559 -0.0485243 0
M  V30 1624 H 148.514 -2.46968 0.732419 0
M  V30 1625 H 148.472 -3.00937 -0.910171 0
M  V30 1626 N 152.244 -1.26651 -0.937939 0
M  V30 1627 C 153.491 -1.12387 -1.6845 0
M  V30 1628 C 153.819 0.332208 -1.91642 0
M  V30 1629 O 153.074 1.2602 -1.49725 0
M  V30 1630 C 153.373 -1.84168 -3.06295 0
M  V30 1631 C 153.039 -3.34056 -3.02849 0
M  V30 1632 C 151.701 -3.74942 -3.01616 0
M  V30 1633 C 154.053 -4.29741 -2.9491 0
M  V30 1634 C 151.381 -5.09894 -2.90215 0
M  V30 1635 C 153.733 -5.64738 -2.8505 0
M  V30 1636 C 152.397 -6.0493 -2.82162 0
M  V30 1637 H 151.667 -0.411252 -0.616403 0
M  V30 1638 H 154.314 -1.57134 -1.09459 0
M  V30 1639 H 152.619 -1.319 -3.6893 0
M  V30 1640 H 154.316 -1.70569 -3.62915 0
M  V30 1641 H 150.906 -3.01534 -3.0459 0
M  V30 1642 H 155.09 -3.99133 -2.94969 0
M  V30 1643 H 150.346 -5.40194 -2.86358 0
M  V30 1644 H 154.52 -6.38561 -2.77872 0
M  V30 1645 H 152.147 -7.09457 -2.73084 0
M  V30 1646 N 153.722 1.14298 -1.08507 0
M  V30 1647 C 154.962 1.87016 -0.824894 0
M  V30 1648 C 155.326 1.81099 0.637735 0
M  V30 1649 O 156.527 2.48963 1.01345 0
M  V30 1650 C 154.798 3.31584 -1.33368 0
M  V30 1651 S 156.357 4.21903 -1.20596 0
M  V30 1652 H 153.175 0.645259 -0.2986 0
M  V30 1653 H 155.777 1.37822 -1.38656 0
M  V30 1654 H 154.481 3.33439 -2.39262 0
M  V30 1655 H 154.012 3.85836 -0.767734 0
M  V30 1656 H 156.027 4.95971 -0.150891 0
M  V30 1657 N 155.201 0.870884 1.31352 0
M  V30 1658 C 156.45 0.478408 1.95944 0
M  V30 1659 C 156.763 -0.974493 1.69597 0
M  V30 1660 O 157.969 -1.47316 2.28058 0
M  V30 1661 C 156.425 0.804609 3.50791 0
M  V30 1662 C 156.033 2.27433 3.85977 0
M  V30 1663 C 157.777 0.480648 4.2177 0
M  V30 1664 C 155.684 2.5429 5.33939 0
M  V30 1665 H 154.614 0.175175 0.733369 0
M  V30 1666 H 157.265 1.06391 1.4951 0
M  V30 1667 H 155.647 0.148347 3.95722 0
M  V30 1668 H 156.821 2.97373 3.52002 0
M  V30 1669 H 155.136 2.56442 3.28065 0
M  V30 1670 H 157.733 0.658519 5.30629 0
M  V30 1671 H 158.076 -0.578979 4.12254 0
M  V30 1672 H 158.609 1.09349 3.82476 0
M  V30 1673 H 155.348 3.58939 5.48491 0
M  V30 1674 H 154.868 1.88945 5.69263 0
M  V30 1675 H 156.547 2.39066 6.01212 0
M  V30 1676 N 156.679 -1.44442 0.630414 0
M  V30 1677 C 157.928 -2.01267 0.132073 0
M  V30 1678 C 158.241 -1.50172 -1.25331 0
M  V30 1679 O 159.447 -1.9912 -1.84562 0
M  V30 1680 C 157.903 -3.59422 0.185362 0
M  V30 1681 C 157.511 -4.19514 1.57201 0
M  V30 1682 C 159.255 -4.23724 -0.256553 0
M  V30 1683 C 157.162 -5.69891 1.58045 0
M  V30 1684 H 156.092 -0.752619 0.0456092 0
M  V30 1685 H 158.743 -1.65666 0.789106 0
M  V30 1686 H 157.125 -3.92318 -0.538759 0
M  V30 1687 H 158.299 -3.98156 2.31966 0
M  V30 1688 H 156.614 -3.67496 1.95795 0
M  V30 1689 H 159.211 -5.34019 -0.269767 0
M  V30 1690 H 159.554 -3.96013 -1.28372 0
M  V30 1691 H 160.087 -3.95629 0.41505 0
M  V30 1692 H 156.826 -6.02336 2.58597 0
M  V30 1693 H 156.346 -5.93373 0.875725 0
M  V30 1694 H 158.025 -6.33515 1.31408 0
M  V30 1695 N 158.157 -0.370918 -1.53173 0
M  V30 1696 C 159.385 0.217704 -2.05751 0
M  V30 1697 C 159.8 1.42018 -1.24404 0
M  V30 1698 O 159.157 1.80245 -0.286033 0
M  V30 1699 C 159.208 0.605954 -3.56385 0
M  V30 1700 O 158.929 -0.548734 -4.3465 0
M  V30 1701 C 160.43 1.2524 -4.25241 0
M  V30 1702 H 157.65 0.0371659 -0.66997 0
M  V30 1703 H 160.194 -0.530832 -1.9749 0
M  V30 1704 H 158.349 1.3044 -3.6478 0
M  V30 1705 H 158.763 -0.23376 -5.23979 0
M  V30 1706 H 160.237 1.47458 -5.3194 0
M  V30 1707 H 160.714 2.2143 -3.79296 0
M  V30 1708 H 161.32 0.595233 -4.21114 0
M  V30 1709 N 159.635 1.57281 -0.100228 0
M  V30 1710 C 160.545 2.17833 0.870965 0
M  V30 1711 C 161.561 1.14921 1.30649 0
M  V30 1712 O 162.737 1.47313 1.37335 0
M  V30 1713 C 159.802 2.75085 2.1102 0
M  V30 1714 C 158.863 3.9297 1.72838 0
M  V30 1715 C 158.096 4.47482 2.90854 0
M  V30 1716 O 158.319 4.00922 4.05731 0
M  V30 1717 O 157.253 5.38433 2.69023 0
M  V30 1718 H 161.079 3.0124 0.38575 0
M  V30 1719 H 158.664 1.48881 0.124397 0
M  V30 1720 H 160.546 3.11656 2.83634 0
M  V30 1721 H 159.221 1.94721 2.58584 0
M  V30 1722 H 158.128 3.61201 0.973883 0
M  V30 1723 H 159.461 4.74713 1.30033 0
M  V30 1724 N 161.113 -0.173488 1.56642 0
M  V30 1725 C 162.343 -0.904781 1.85734 0
M  V30 1726 C 162.751 -1.76431 0.68328 0
M  V30 1727 O 162.094 -1.802 -0.356865 0
M  V30 1728 C 162.156 -1.83382 3.09211 0
M  V30 1729 C 161.82 -1.15411 4.42187 0
M  V30 1730 C 162.817 -0.520609 5.17287 0
M  V30 1731 C 160.502 -1.15151 4.88923 0
M  V30 1732 C 162.496 0.106412 6.37311 0
M  V30 1733 C 160.183 -0.520664 6.08878 0
M  V30 1734 C 161.181 0.107196 6.82916 0
M  V30 1735 O 160.869 0.728102 8.00596 0
M  V30 1736 H 160.601 -0.268408 0.62043 0
M  V30 1737 H 163.155 -0.179096 2.04618 0
M  V30 1738 H 161.385 -2.59976 2.86268 0
M  V30 1739 H 163.074 -2.43476 3.24768 0
M  V30 1740 H 163.84 -0.514606 4.82262 0
M  V30 1741 H 159.719 -1.62961 4.31236 0
M  V30 1742 H 163.263 0.597081 6.9504 0
M  V30 1743 H 159.16 -0.524242 6.43368 0
M  V30 1744 H 159.928 0.627138 8.16094 0
M  V30 1745 N 162.591 -1.51276 -0.441967 0
M  V30 1746 C 163.831 -1.65372 -1.20132 0
M  V30 1747 C 164.195 -0.359871 -1.88597 0
M  V30 1748 O 165.396 -0.376551 -2.66149 0
M  V30 1749 C 163.667 -2.8207 -2.1948 0
M  V30 1750 S 165.226 -3.16467 -3.03964 0
M  V30 1751 H 162.044 -0.582669 -0.407453 0
M  V30 1752 H 164.646 -1.89166 -0.493609 0
M  V30 1753 H 163.35 -3.74523 -1.67812 0
M  V30 1754 H 162.881 -2.6045 -2.94838 0
M  V30 1755 H 164.896 -2.62543 -4.21053 0
M  V30 1756 N 164.069 0.697108 -1.41344 0
M  V30 1757 C 164.979 1.84088 -1.45427 0
M  V30 1758 C 165.995 1.70545 -0.34501 0
M  V30 1759 O 167.171 1.92488 -0.592492 0
M  V30 1760 C 164.236 3.20056 -1.33286 0
M  V30 1761 C 163.297 3.45718 -2.54514 0
M  V30 1762 C 162.53 4.75199 -2.42944 0
M  V30 1763 O 162.753 5.51579 -1.45318 0
M  V30 1764 O 161.687 5.0161 -3.32672 0
M  V30 1765 H 165.513 1.836 -2.41919 0
M  V30 1766 H 163.098 0.849966 -1.22866 0
M  V30 1767 H 164.98 4.01236 -1.28794 0
M  V30 1768 H 163.655 3.2123 -0.39909 0
M  V30 1769 H 162.562 2.64474 -2.64583 0
M  V30 1770 H 163.895 3.49356 -3.46715 0
M  V30 1771 N 165.547 1.27147 0.931209 0
M  V30 1772 C 166.795 1.13055 1.6752 0
M  V30 1773 C 167.116 -0.324791 1.92276 0
M  V30 1774 O 166.386 -1.22775 1.52654 0
M  V30 1775 H 164.966 0.415391 0.620854 0
M  V30 1776 H 167.628 1.59623 1.11833 0
M  V30 1777 H 166.724 1.65694 2.64485 0
M  V30 1778 N 167.025 -1.13721 1.09112 0
M  V30 1779 C 168.441 -1.36914 0.820174 0
M  V30 1780 C 168.641 -1.93356 -0.567079 0
M  V30 1781 O 167.697 -2.15093 -1.32255 0
M  V30 1782 C 169.01 -2.3235 1.90877 0
M  V30 1783 C 170.558 -2.45973 1.93562 0
M  V30 1784 C 171.033 -3.44714 3.01556 0
M  V30 1785 N 172.524 -3.52263 3.00775 0
M  V30 1786 C 173.259 -4.28536 3.80978 0
M  V30 1787 N 172.755 -5.07991 4.71081 0
M  V30 1788 N 174.548 -4.23804 3.69251 0
M  V30 1789 H 166.699 -0.754348 1.98553 0
M  V30 1790 H 168.962 -0.3944 0.862063 0
M  V30 1791 H 168.668 -1.98027 2.90651 0
M  V30 1792 H 168.542 -3.32332 1.78424 0
M  V30 1793 H 170.929 -2.79584 0.944286 0
M  V30 1794 H 171.01 -1.45926 2.10093 0
M  V30 1795 H 170.654 -3.11835 4.00901 0
M  V30 1796 H 170.584 -4.44558 2.82269 0
M  V30 1797 H 173.075 -2.95567 2.35475 0
M  V30 1798 H 173.388 -5.63487 5.28869 0
M  V30 1799 H 171.733 -5.07235 4.75119 0
M  V30 1800 H 174.924 -3.60806 2.98222 0
M  V30 1801 H 175.097 -4.82995 4.31995 0
M  V30 1802 N 168.503 -0.877838 -1.30888 0
M  V30 1803 C 169.78 -0.413052 -1.91189 0
M  V30 1804 C 170.16 1.1056 -1.79832 0
M  V30 1805 O 169.508 1.93771 -1.21099 0
M  V30 1806 C 169.718 -0.903191 -3.3711 0
M  V30 1807 C 171.066 -0.93395 -4.14201 0
M  V30 1808 O 172.09 -0.849373 -3.45925 0
M  V30 1809 O 170.949 -1.05772 -5.36167 0
M  V30 1810 H 168.043 -0.125035 -0.817493 0
M  V30 1811 H 170.589 -0.966269 -1.39504 0
M  V30 1812 H 169.361 -1.94692 -3.39427 0
M  V30 1813 H 168.984 -0.328732 -3.96239 0
M  V30 1814 N 169.982 1.44106 -0.638065 0
M  V30 1815 C 170.912 2.33448 0.0494287 0
M  V30 1816 C 171.893 1.48606 0.827672 0
M  V30 1817 O 173.078 1.77308 0.792173 0
M  V30 1818 C 170.208 3.31771 1.02691 0
M  V30 1819 C 169.162 4.26485 0.359823 0
M  V30 1820 C 168.488 5.14729 1.44769 0
M  V30 1821 C 169.788 5.17056 -0.738296 0
M  V30 1822 H 171.482 2.91183 -0.696636 0
M  V30 1823 H 169.028 1.40014 -0.336456 0
M  V30 1824 H 170.981 3.93161 1.51666 0
M  V30 1825 H 169.705 2.7226 1.80395 0
M  V30 1826 H 168.364 3.66437 -0.10934 0
M  V30 1827 H 168.012 4.51566 2.21578 0
M  V30 1828 H 167.712 5.78913 1.00668 0
M  V30 1829 H 169.236 5.78991 1.93911 0
M  V30 1830 H 170.65 5.72342 -0.331354 0
M  V30 1831 H 169.047 5.89879 -1.10286 0
M  V30 1832 H 170.117 4.57652 -1.60258 0
M  V30 1833 N 171.46 0.379036 1.52974 0
M  V30 1834 C 172.737 -0.263479 1.93817 0
M  V30 1835 C 173.117 -1.65244 1.31368 0
M  V30 1836 O 172.465 -2.23448 0.477856 0
M  V30 1837 C 172.675 -0.300166 3.47707 0
M  V30 1838 C 174.023 -0.534061 4.21228 0
M  V30 1839 O 175.047 -0.38081 3.54159 0
M  V30 1840 O 173.906 -0.833501 5.40106 0
M  V30 1841 H 171 -0.161149 0.811147 0
M  V30 1842 H 173.546 0.432798 1.64088 0
M  V30 1843 H 172.318 0.673138 3.85467 0
M  V30 1844 H 171.941 -1.04179 3.83709 0
M  V30 1845 N 172.938 -1.57226 0.108567 0
M  V30 1846 C 174.215 -1.86333 -0.594939 0
M  V30 1847 C 174.595 -1.00788 -1.85486 0
M  V30 1848 O 173.943 -0.0839293 -2.28346 0
M  V30 1849 C 174.153 -3.37265 -0.897405 0
M  V30 1850 C 175.501 -4.05629 -1.25501 0
M  V30 1851 O 176.525 -3.42224 -0.987998 0
M  V30 1852 O 175.384 -5.17531 -1.75567 0
M  V30 1853 H 172.478 -0.771018 -0.2991 0
M  V30 1854 H 175.024 -1.69102 0.142283 0
M  V30 1855 H 173.796 -3.913 -0.00413806 0
M  V30 1856 H 173.419 -3.59889 -1.69014 0
M  V30 1857 N 174.416 0.165178 -1.56732 0
M  V30 1858 C 175.363 1.2044 -1.96883 0
M  V30 1859 C 176.333 1.43664 -0.833657 0
M  V30 1860 O 177.518 1.56302 -1.09427 0
M  V30 1861 C 174.658 2.53727 -2.33916 0
M  V30 1862 C 173.771 2.3783 -3.6064 0
M  V30 1863 C 172.906 3.64026 -3.86857 0
M  V30 1864 C 171.945 3.43088 -5.06909 0
M  V30 1865 N 171.082 4.61369 -5.29229 0
M  V30 1866 H 175.922 0.854996 -2.85471 0
M  V30 1867 H 173.459 0.41076 -1.41249 0
M  V30 1868 H 175.417 3.31419 -2.53411 0
M  V30 1869 H 174.047 2.8665 -1.48431 0
M  V30 1870 H 173.099 1.51282 -3.49024 0
M  V30 1871 H 174.411 2.18308 -4.4849 0
M  V30 1872 H 173.565 4.50152 -4.06753 0
M  V30 1873 H 172.304 3.86533 -2.97394 0
M  V30 1874 H 171.309 2.55349 -4.86906 0
M  V30 1875 H 172.534 3.21997 -5.97909 0
M  V30 1876 H 170.48 4.84084 -4.42718 0
M  V30 1877 H 170.397 4.44783 -6.11313 0
M  V30 1878 H 171.665 5.48761 -5.53608 0
M  V30 1879 N 175.894 1.51508 0.433938 0
M  V30 1880 C 177.143 1.63578 1.18005 0
M  V30 1881 C 177.456 0.359514 1.92268 0
M  V30 1882 O 178.662 0.359632 2.69108 0
M  V30 1883 C 177.118 2.88901 2.14626 0
M  V30 1884 C 176.726 4.23544 1.45995 0
M  V30 1885 C 178.47 3.10328 2.89649 0
M  V30 1886 C 176.377 5.40014 2.4112 0
M  V30 1887 H 175.307 0.609277 0.444182 0
M  V30 1888 H 177.958 1.77978 0.446773 0
M  V30 1889 H 176.34 2.68142 2.91403 0
M  V30 1890 H 177.514 4.54696 0.747532 0
M  V30 1891 H 175.829 4.08021 0.831115 0
M  V30 1892 H 178.426 3.94518 3.60915 0
M  V30 1893 H 178.769 2.23544 3.51189 0
M  V30 1894 H 179.302 3.31443 2.19978 0
M  V30 1895 H 176.041 6.29068 1.84264 0
M  V30 1896 H 175.561 5.13233 3.10406 0
M  V30 1897 H 177.24 5.72099 3.02177 0
M  V30 1898 N 177.372 -0.689602 1.41712 0
M  V30 1899 C 178.304 -1.815 1.39966 0
M  V30 1900 C 179.317 -1.59995 0.300917 0
M  V30 1901 O 180.506 -1.69387 0.563039 0
M  V30 1902 C 177.606 -3.18364 1.16179 0
M  V30 1903 C 176.779 -3.66847 2.38206 0
M  V30 1904 C 175.838 -4.82398 2.10186 0
M  V30 1905 O 174.864 -4.93706 2.83272 0
M  V30 1906 N 176.066 -5.70064 1.0958 0
M  V30 1907 H 178.831 -1.83488 2.36965 0
M  V30 1908 H 176.392 -0.872149 1.36401 0
M  V30 1909 H 178.384 -3.93301 0.953756 0
M  V30 1910 H 176.954 -3.11365 0.27756 0
M  V30 1911 H 176.174 -2.82751 2.74673 0
M  V30 1912 H 177.462 -3.95978 3.19498 0
M  V30 1913 H 176.86 -5.63565 0.491019 0
M  V30 1914 H 175.417 -6.44874 0.947656 0
M  V30 1915 N 178.85 -1.27639 -0.924453 0
M  V30 1916 C 179.76 -1.12466 -2.05885 0
M  V30 1917 C 180.776 -0.053869 -1.73917 0
M  V30 1918 O 181.952 -0.261012 -1.99702 0
M  V30 1919 C 179.017 -0.776768 -3.37886 0
M  V30 1920 C 178.078 -1.92878 -3.83532 0
M  V30 1921 C 177.311 -1.59739 -5.09234 0
M  V30 1922 O 177.534 -0.506782 -5.68144 0
M  V30 1923 O 176.468 -2.43761 -5.50331 0
M  V30 1924 H 180.294 -2.07671 -2.21599 0
M  V30 1925 H 177.879 -1.06857 -1.04413 0
M  V30 1926 H 179.761 -0.596229 -4.17161 0
M  V30 1927 H 178.436 0.145732 -3.23372 0
M  V30 1928 H 177.343 -2.1644 -3.0513 0
M  V30 1929 H 178.676 -2.8316 -4.02593 0
M  V30 1930 N 180.328 1.1314 -1.09713 0
M  V30 1931 C 181.558 1.88048 -0.855656 0
M  V30 1932 C 181.966 1.79537 0.596919 0
M  V30 1933 O 181.309 1.16196 1.42282 0
M  V30 1934 C 181.371 3.38314 -1.21589 0
M  V30 1935 C 181.035 3.70605 -2.67397 0
M  V30 1936 C 182.032 3.69596 -3.65643 0
M  V30 1937 C 179.717 4.0017 -3.03593 0
M  V30 1938 C 181.711 3.977 -4.9811 0
M  V30 1939 C 179.398 4.27935 -4.36251 0
M  V30 1940 C 180.396 4.26685 -5.33318 0
M  V30 1941 O 180.084 4.53767 -6.63589 0
M  V30 1942 H 179.816 0.60208 -0.307368 0
M  V30 1943 H 182.37 1.44128 -1.46343 0
M  V30 1944 H 180.6 3.82752 -0.551177 0
M  V30 1945 H 182.289 3.94552 -0.953083 0
M  V30 1946 H 183.055 3.46826 -3.39023 0
M  V30 1947 H 178.934 4.00289 -2.2867 0
M  V30 1948 H 182.478 3.9664 -5.73866 0
M  V30 1949 H 178.375 4.50178 -4.62613 0
M  V30 1950 H 179.143 4.71422 -6.69107 0
M  V30 1951 N 181.806 0.884767 1.30421 0
M  V30 1952 C 182.753 0.349642 2.28136 0
M  V30 1953 C 183.723 -0.560061 1.56373 0
M  V30 1954 O 184.908 -0.488524 1.8444 0
M  V30 1955 C 182.048 -0.42999 3.42411 0
M  V30 1956 C 181.161 0.508907 4.28992 0
M  V30 1957 C 180.296 -0.286301 5.30428 0
M  V30 1958 C 179.335 0.648079 6.08659 0
M  V30 1959 N 178.472 -0.111792 7.02011 0
M  V30 1960 H 183.312 1.18807 2.73293 0
M  V30 1961 H 180.849 0.597231 1.3443 0
M  V30 1962 H 182.807 -0.897923 4.07423 0
M  V30 1963 H 181.437 -1.23299 2.98324 0
M  V30 1964 H 180.489 1.09533 3.64289 0
M  V30 1965 H 181.801 1.22475 4.8353 0
M  V30 1966 H 180.955 -0.816098 6.01186 0
M  V30 1967 H 179.694 -1.03536 4.76583 0
M  V30 1968 H 178.699 1.18951 5.36778 0
M  V30 1969 H 179.924 1.39623 6.64592 0
M  V30 1970 H 177.87 -0.843395 6.50556 0
M  V30 1971 H 177.787 0.544429 7.54037 0
M  V30 1972 H 179.055 -0.622339 7.77012 0
M  V30 1973 N 183.284 -1.43765 0.645699 0
M  V30 1974 C 184.216 -2.29027 -0.0890605 0
M  V30 1975 C 185.229 -1.42093 -0.794563 0
M  V30 1976 O 186.418 -1.66104 -0.653575 0
M  V30 1977 C 183.518 -3.18831 -1.14891 0
M  V30 1978 C 182.691 -4.34261 -0.523043 0
M  V30 1979 C 181.75 -5.04994 -1.47878 0
M  V30 1980 O 180.776 -5.6052 -0.990277 0
M  V30 1981 N 181.978 -5.07795 -2.81291 0
M  V30 1982 H 184.743 -2.92727 0.64272 0
M  V30 1983 H 182.304 -1.54373 0.487924 0
M  V30 1984 H 184.296 -3.63015 -1.78892 0
M  V30 1985 H 182.866 -2.56782 -1.78275 0
M  V30 1986 H 182.086 -3.93088 0.295896 0
M  V30 1987 H 183.374 -5.08728 -0.0858147 0
M  V30 1988 H 182.772 -4.64042 -3.23546 0
M  V30 1989 H 181.329 -5.55721 -3.40614 0
M  V30 1990 N 184.763 -0.387143 -1.52771 0
M  V30 1991 C 185.726 0.436939 -2.24997 0
M  V30 1992 C 186.726 0.991991 -1.26555 0
M  V30 1993 O 187.916 0.874335 -1.50669 0
M  V30 1994 C 185.048 1.61281 -3.00335 0
M  V30 1995 H 186.241 -0.195365 -2.99263 0
M  V30 1996 H 183.794 -0.139218 -1.55679 0
M  V30 1997 H 184.529 2.2826 -2.30364 0
M  V30 1998 H 184.314 1.22154 -3.72587 0
M  V30 1999 H 185.804 2.19629 -3.5518 0
M  V30 2000 N 186.241 1.57166 -0.116904 0
M  V30 2001 C 187.489 1.94737 0.540533 0
M  V30 2002 C 187.81 1.00096 1.67349 0
M  V30 2003 O 187.08 0.0568854 1.95817 0
M  V30 2004 H 185.66 0.718981 0.202669 0
M  V30 2005 H 188.322 1.94017 -0.185353 0
M  V30 2006 H 187.418 2.97719 0.936483 0
M  V30 2007 N 187.719 -0.156864 1.56817 0
M  V30 2008 C 188.666 -1.19394 1.97519 0
M  V30 2009 C 189.636 -1.4322 0.841265 0
M  V30 2010 O 190.821 -1.55719 1.10255 0
M  V30 2011 C 187.961 -2.52483 2.35258 0
M  V30 2012 C 187.074 -2.35914 3.61896 0
M  V30 2013 C 186.209 -3.61969 3.88782 0
M  V30 2014 C 185.248 -3.40395 5.08722 0
M  V30 2015 N 184.385 -4.58556 5.31668 0
M  V30 2016 H 189.225 -0.839845 2.85921 0
M  V30 2017 H 186.762 -0.403264 1.41464 0
M  V30 2018 H 188.72 -3.30071 2.55165 0
M  V30 2019 H 187.35 -2.85859 1.49949 0
M  V30 2020 H 186.402 -1.49429 3.49821 0
M  V30 2021 H 187.714 -2.15926 4.49641 0
M  V30 2022 H 186.868 -4.47989 4.09135 0
M  V30 2023 H 185.607 -3.84951 2.9944 0
M  V30 2024 H 184.612 -2.52763 4.88253 0
M  V30 2025 H 185.837 -3.18822 5.99608 0
M  V30 2026 H 183.783 -4.81729 4.45279 0
M  V30 2027 H 183.7 -4.41535 6.13664 0
M  V30 2028 H 184.968 -5.45817 5.5651 0
M  V30 2029 N 189.197 -1.51736 -0.425897 0
M  V30 2030 C 190.446 -1.64201 -1.17136 0
M  V30 2031 C 190.759 -0.369705 -1.92074 0
M  V30 2032 O 191.965 -0.373898 -2.68913 0
M  V30 2033 C 190.421 -2.90035 -2.13091 0
M  V30 2034 C 190.029 -4.24312 -1.43747 0
M  V30 2035 C 191.773 -3.1186 -2.87999 0
M  V30 2036 C 189.68 -5.41285 -2.38253 0
M  V30 2037 H 188.61 -0.611624 -0.440944 0
M  V30 2038 H 191.261 -1.78212 -0.437328 0
M  V30 2039 H 189.643 -2.69684 -2.89977 0
M  V30 2040 H 190.817 -4.55086 -0.723408 0
M  V30 2041 H 189.132 -4.08456 -0.809465 0
M  V30 2042 H 191.729 -3.96427 -3.58817 0
M  V30 2043 H 192.072 -2.25403 -3.49999 0
M  V30 2044 H 192.605 -3.32605 -2.18217 0
M  V30 2045 H 189.344 -6.30037 -1.80925 0
M  V30 2046 H 188.864 -5.14872 -3.0768 0
M  V30 2047 H 190.543 -5.73694 -2.99139 0
M  V30 2048 N 190.675 0.682077 -1.42076 0
M  V30 2049 C 191.922 1.44215 -1.42156 0
M  V30 2050 C 192.25 1.94468 -0.0354186 0
M  V30 2051 O 191.505 1.70816 0.955002 0
M  V30 2052 C 191.804 2.66036 -2.38662 0
M  V30 2053 C 191.47 2.34366 -3.85206 0
M  V30 2054 C 190.132 2.25439 -4.25124 0
M  V30 2055 C 192.484 2.08513 -4.77673 0
M  V30 2056 C 189.812 1.88775 -5.55501 0
M  V30 2057 C 192.164 1.73354 -6.08384 0
M  V30 2058 C 190.828 1.62933 -6.47309 0
M  V30 2059 H 190.098 0.527718 -0.520187 0
M  V30 2060 H 192.745 0.778387 -1.74967 0
M  V30 2061 H 191.05 3.3741 -1.99152 0
M  V30 2062 H 192.747 3.24205 -2.35991 0
M  V30 2063 H 189.337 2.42213 -3.53597 0
M  V30 2064 H 193.521 2.14346 -4.47626 0
M  V30 2065 H 188.777 1.7927 -5.84527 0
M  V30 2066 H 192.951 1.52373 -6.79526 0
M  V30 2067 H 190.578 1.34292 -7.48244 0
M  V30 2068 N 192.153 1.28127 0.917671 0
M  V30 2069 C 193.564 1.13622 1.48145 0
M  V30 2070 C 193.915 -0.275207 1.9426 0
M  V30 2071 O 193.04 -1.1691 1.82102 0
M  V30 2072 C 193.635 2.05648 2.69248 0
M  V30 2073 C 192.194 1.95219 3.21818 0
M  V30 2074 C 191.341 1.97618 1.94532 0
M  V30 2075 H 194.292 1.40874 0.730772 0
M  V30 2076 H 194.313 1.61818 3.44377 0
M  V30 2077 H 193.825 3.08365 2.35653 0
M  V30 2078 H 191.926 0.955244 3.60147 0
M  V30 2079 H 192.039 2.81976 3.87333 0
M  V30 2080 H 190.403 1.41973 2.11461 0
M  V30 2081 H 191.186 3.02007 1.63238 0
M  V30 2082 N 193.631 -1.12557 1.10312 0
M  V30 2083 C 194.541 -2.21841 0.763142 0
M  V30 2084 C 195.557 -1.72354 -0.238801 0
M  V30 2085 O 196.733 -2.01249 -0.0778746 0
M  V30 2086 C 193.798 -3.46131 0.198632 0
M  V30 2087 C 192.859 -4.10464 1.25769 0
M  V30 2088 C 192.092 -5.28821 0.72002 0
M  V30 2089 O 192.315 -5.6859 -0.453993 0
M  V30 2090 O 191.249 -5.83437 1.47935 0
M  V30 2091 H 195.075 -2.53312 1.67532 0
M  V30 2092 H 192.66 -1.20867 0.878157 0
M  V30 2093 H 194.542 -4.2125 -0.112401 0
M  V30 2094 H 193.217 -3.16338 -0.686419 0
M  V30 2095 H 192.124 -3.3713 1.62156 0
M  V30 2096 H 193.457 -4.44408 2.11571 0
M  V30 2097 N 195.109 -0.891671 -1.2995 0
M  V30 2098 C 196.057 -0.353066 -2.29905 0
M  V30 2099 C 197.051 0.543509 -1.60444 0
M  V30 2100 O 198.257 0.4272 -1.74857 0
M  V30 2101 H 194.632 -0.095531 -0.745907 0
M  V30 2102 H 196.603 -1.20961 -2.72784 0
M  V30 2103 C 195.352 0.411475 -3.45257 0
M  V30 2104 H 194.675 -0.269182 -3.98893 0
M  V30 2105 H 196.115 0.753328 -4.17254 0
M  V30 2106 C 194.574 1.6111 -2.9588 0
M  V30 2107 O 195.104 2.71045 -2.96475 0
M  V30 2108 N 193.31 1.45054 -2.51809 0
M  V30 2109 H 192.857 0.556175 -2.51524 0
M  V30 2110 H 192.815 2.25453 -2.1913 0
M  V30 2111 N 196.587 1.43421 -0.653314 0
M  V30 2112 C 197.519 2.29071 0.0769134 0
M  V30 2113 C 198.532 1.42513 0.787017 0
M  V30 2114 O 199.721 1.66449 0.644757 0
M  V30 2115 C 196.821 3.19436 1.13199 0
M  V30 2116 C 195.994 4.34533 0.500006 0
M  V30 2117 C 195.053 5.05771 1.45198 0
M  V30 2118 O 194.079 5.61037 0.960538 0
M  V30 2119 N 195.281 5.0928 2.78594 0
M  V30 2120 H 198.046 2.92382 -0.658235 0
M  V30 2121 H 195.607 1.54112 -0.496104 0
M  V30 2122 H 197.599 3.63958 1.76964 0
M  V30 2123 H 196.169 2.57724 1.7691 0
M  V30 2124 H 195.389 3.92925 -0.316738 0
M  V30 2125 H 196.677 5.08766 0.0588345 0
M  V30 2126 H 196.075 4.65751 3.2108 0
M  V30 2127 H 194.632 5.57519 3.37662 0
M  V30 2128 N 198.065 0.39524 1.52563 0
M  V30 2129 C 199.314 -0.186321 2.00838 0
M  V30 2130 C 199.627 -1.47402 1.28577 0
M  V30 2131 O 200.833 -2.13599 1.67593 0
M  V30 2132 C 199.289 -0.382595 3.57861 0
M  V30 2133 C 198.897 0.892202 4.39026 0
M  V30 2134 C 200.641 -0.9202 4.14406 0
M  V30 2135 C 198.548 0.66388 5.87662 0
M  V30 2136 H 197.478 -0.0734041 0.750418 0
M  V30 2137 H 200.129 0.518552 1.76021 0
M  V30 2138 H 198.511 -1.14946 3.7895 0
M  V30 2139 H 199.685 1.66414 4.29701 0
M  V30 2140 H 198 1.35519 3.9373 0
M  V30 2141 H 200.597 -1.10683 5.23119 0
M  V30 2142 H 200.94 -1.89096 3.70875 0
M  V30 2143 H 201.473 -0.212751 3.97231 0
M  V30 2144 H 198.212 1.6058 6.35527 0
M  V30 2145 H 197.732 -0.0690193 5.9976 0
M  V30 2146 H 199.411 0.300699 6.46301 0
M  V30 2147 N 199.544 -1.57102 0.125237 0
M  V30 2148 C 200.793 -1.94582 -0.531095 0
M  V30 2149 C 201.106 -1.01126 -1.6743 0
M  V30 2150 O 202.312 -1.28097 -2.39381 0
M  V30 2151 C 200.768 -3.45839 -0.996164 0
M  V30 2152 C 200.376 -4.47842 0.118926 0
M  V30 2153 C 202.12 -3.92227 -1.62352 0
M  V30 2154 C 200.027 -5.90284 -0.363192 0
M  V30 2155 H 198.957 -0.726391 -0.20217 0
M  V30 2156 H 201.608 -1.82339 0.206092 0
M  V30 2157 H 199.99 -3.53338 -1.78796 0
M  V30 2158 H 201.164 -4.52018 0.895358 0
M  V30 2159 H 199.479 -4.11243 0.653324 0
M  V30 2160 H 202.076 -4.96069 -1.99548 0
M  V30 2161 H 202.419 -3.32552 -2.50429 0
M  V30 2162 H 202.952 -3.87554 -0.897019 0
M  V30 2163 H 199.691 -6.53728 0.481679 0
M  V30 2164 H 199.211 -5.89515 -1.10597 0
M  V30 2165 H 200.89 -6.41752 -0.822377 0
M  V30 2166 N 201.022 0.148545 -1.56898 0
M  V30 2167 C 201.932 1.20293 -2.01412 0
M  V30 2168 C 202.948 1.47107 -0.929273 0
M  V30 2169 O 204.124 1.58807 -1.23863 0
M  V30 2170 C 201.189 2.51682 -2.38447 0
M  V30 2171 C 200.25 2.32529 -3.60872 0
M  V30 2172 C 199.483 3.57653 -3.96132 0
M  V30 2173 O 199.706 4.63771 -3.32073 0
M  V30 2174 O 198.64 3.50408 -4.89385 0
M  V30 2175 H 202.466 0.855025 -2.91416 0
M  V30 2176 H 200.051 0.357151 -1.45068 0
M  V30 2177 H 201.933 3.29147 -2.63135 0
M  V30 2178 H 200.608 2.86006 -1.51599 0
M  V30 2179 H 199.515 1.53019 -3.41373 0
M  V30 2180 H 200.848 2.03121 -4.48333 0
M  V30 2181 N 202.5 1.5196 0.417844 0
M  V30 2182 C 203.746 1.66793 1.16411 0
M  V30 2183 C 204.101 0.388758 1.88432 0
M  V30 2184 O 203.394 -0.616409 1.81414 0
M  V30 2185 C 203.588 2.82269 2.19223 0
M  V30 2186 C 203.417 4.21293 1.57297 0
M  V30 2187 C 202.187 4.86948 1.34944 0
M  V30 2188 C 204.385 5.03704 1.03858 0
M  V30 2189 N 202.367 6.1003 0.688195 0
M  V30 2190 C 203.738 6.1795 0.503742 0
M  V30 2191 C 205.793 4.89095 0.932203 0
M  V30 2192 C 204.496 7.19188 -0.127034 0
M  V30 2193 C 206.522 5.90559 0.315293 0
M  V30 2194 C 205.884 7.0409 -0.208906 0
M  V30 2195 H 201.983 0.66407 0.412959 0
M  V30 2196 H 204.567 1.89242 0.457772 0
M  V30 2197 H 202.738 2.61451 2.87225 0
M  V30 2198 H 204.47 2.86183 2.86149 0
M  V30 2199 H 201.225 4.45156 1.61657 0
M  V30 2200 H 201.649 6.75964 0.374449 0
M  V30 2201 H 206.291 4.01557 1.32332 0
M  V30 2202 H 204.009 8.06359 -0.530231 0
M  V30 2203 H 207.595 5.81327 0.234625 0
M  V30 2204 H 206.475 7.81257 -0.67875 0
M  V30 2205 N 203.978 -0.674533 1.42435 0
M  V30 2206 C 205.225 -1.43459 1.42919 0
M  V30 2207 C 205.553 -1.94446 0.0457312 0
M  V30 2208 O 204.808 -1.7132 -0.94593 0
M  V30 2209 C 205.107 -2.64767 2.40069 0
M  V30 2210 C 204.773 -2.3232 3.86443 0
M  V30 2211 C 203.435 -2.23182 4.26314 0
M  V30 2212 C 205.787 -2.05977 4.78773 0
M  V30 2213 C 203.115 -1.85827 5.56494 0
M  V30 2214 C 205.467 -1.70125 6.09295 0
M  V30 2215 C 204.131 -1.59498 6.48164 0
M  V30 2216 H 203.401 -0.524952 0.522978 0
M  V30 2217 H 206.048 -0.769097 1.75377 0
M  V30 2218 H 204.353 -3.36349 2.00939 0
M  V30 2219 H 206.05 -3.22949 2.37707 0
M  V30 2220 H 202.64 -2.40334 3.54877 0
M  V30 2221 H 206.824 -2.11969 4.48757 0
M  V30 2222 H 202.08 -1.76168 5.8547 0
M  V30 2223 H 206.254 -1.48767 6.80324 0
M  V30 2224 H 203.881 -1.30322 7.48946 0
M  V30 2225 N 205.456 -1.28612 -0.910864 0
M  V30 2226 C 206.705 -1.15311 -1.65488 0
M  V30 2227 C 207.018 0.296999 -1.93332 0
M  V30 2228 O 208.224 0.551168 -2.65847 0
M  V30 2229 C 206.68 -2.01599 -2.98137 0
M  V30 2230 C 206.288 -3.51367 -2.7793 0
M  V30 2231 C 208.032 -1.96993 -3.76024 0
M  V30 2232 C 205.939 -4.29797 -4.06237 0
M  V30 2233 H 204.869 -0.42796 -0.620779 0
M  V30 2234 H 207.52 -1.53166 -1.01057 0
M  V30 2235 H 205.902 -1.56603 -3.63719 0
M  V30 2236 H 207.076 -4.0434 -2.21011 0
M  V30 2237 H 205.391 -3.57529 -2.13452 0
M  V30 2238 H 207.988 -2.52856 -4.71135 0
M  V30 2239 H 208.331 -0.94733 -4.05378 0
M  V30 2240 H 208.864 -2.39973 -3.17266 0
M  V30 2241 H 205.603 -5.32648 -3.82055 0
M  V30 2242 H 205.123 -3.81596 -4.62757 0
M  V30 2243 H 206.802 -4.39869 -4.74473 0
M  V30 2244 N 206.934 1.1197 -1.10907 0
M  V30 2245 C 207.866 2.17592 -0.720175 0
M  V30 2246 C 208.879 1.60938 0.245495 0
M  V30 2247 O 210.068 1.78476 0.0292245 0
M  V30 2248 C 207.168 3.38873 -0.0427917 0
M  V30 2249 C 206.341 4.25006 -1.03388 0
M  V30 2250 C 205.4 5.24774 -0.387075 0
M  V30 2251 O 204.426 5.59631 -1.03934 0
M  V30 2252 N 205.628 5.74208 0.852407 0
M  V30 2253 H 208.393 2.51567 -1.62893 0
M  V30 2254 H 205.954 1.27439 -0.998543 0
M  V30 2255 H 207.946 4.02703 0.401501 0
M  V30 2256 H 206.516 3.03007 0.768456 0
M  V30 2257 H 205.736 3.57716 -1.65629 0
M  V30 2258 H 207.024 4.79397 -1.70458 0
M  V30 2259 H 206.422 5.48062 1.40161 0
M  V30 2260 H 204.979 6.39901 1.23977 0
M  V30 2261 N 208.412 0.89855 1.29475 0
M  V30 2262 C 209.342 0.39201 2.30186 0
M  V30 2263 C 210.323 -0.532359 1.61555 0
M  V30 2264 O 211.508 -0.443331 1.89072 0
M  V30 2265 C 208.638 -0.382353 3.45189 0
M  V30 2266 C 207.592 0.451483 4.25612 0
M  V30 2267 C 206.918 -0.450307 5.328 0
M  V30 2268 C 208.218 1.70079 4.93832 0
M  V30 2269 H 209.912 1.23362 2.72804 0
M  V30 2270 H 207.458 0.594638 1.31149 0
M  V30 2271 H 209.411 -0.747451 4.14718 0
M  V30 2272 H 208.135 -1.25774 3.01411 0
M  V30 2273 H 206.794 0.798897 3.57789 0
M  V30 2274 H 206.442 -1.32379 4.85268 0
M  V30 2275 H 206.142 0.103902 5.87508 0
M  V30 2276 H 207.666 -0.811623 6.05182 0
M  V30 2277 H 209.08 1.40549 5.55805 0
M  V30 2278 H 207.477 2.19623 5.58467 0
M  V30 2279 H 208.547 2.43744 4.19186 0
M  V30 2280 N 209.89 -1.43072 0.660911 0
M  V30 2281 C 210.82 -2.33497 -0.0122829 0
M  V30 2282 C 211.801 -1.49903 -0.803925 0
M  V30 2283 O 212.986 -1.78546 -0.763864 0
M  V30 2284 C 210.116 -3.33363 -0.973994 0
M  V30 2285 C 209.07 -4.27003 -0.291928 0
M  V30 2286 C 208.396 -5.16967 -1.36562 0
M  V30 2287 C 209.696 -5.15816 0.820462 0
M  V30 2288 H 211.39 -2.90038 0.742873 0
M  V30 2289 H 208.936 -1.39461 0.358688 0
M  V30 2290 H 210.889 -3.95524 -1.45392 0
M  V30 2291 H 209.613 -2.75095 -1.7604 0
M  V30 2292 H 208.272 -3.66217 0.167623 0
M  V30 2293 H 207.92 -4.55034 -2.14366 0
M  V30 2294 H 207.62 -5.80441 -0.914454 0
M  V30 2295 H 209.144 -5.82003 -1.84675 0
M  V30 2296 H 210.558 -5.71742 0.422366 0
M  V30 2297 H 208.955 -5.8805 1.19656 0
M  V30 2298 H 210.025 -4.55045 1.67518 0
M  V30 2299 N 211.368 -0.403325 -1.52352 0
M  V30 2300 C 212.298 0.416205 -2.29761 0
M  V30 2301 C 213.279 1.05123 -1.33728 0
M  V30 2302 O 214.464 1.06134 -1.62632 0
M  V30 2303 C 211.594 1.53624 -3.11475 0
M  V30 2304 C 210.548 1.02653 -4.15507 0
M  V30 2305 C 209.874 2.23971 -4.85532 0
M  V30 2306 C 211.174 0.08463 -5.22231 0
M  V30 2307 H 212.868 -0.229701 -2.98518 0
M  V30 2308 H 210.414 -0.111913 -1.43564 0
M  V30 2309 H 212.367 2.1165 -3.64393 0
M  V30 2310 H 211.091 2.20994 -2.40477 0
M  V30 2311 H 209.75 0.46871 -3.63591 0
M  V30 2312 H 209.398 2.89883 -4.11068 0
M  V30 2313 H 209.098 1.90521 -5.55856 0
M  V30 2314 H 210.622 2.82614 -5.41259 0
M  V30 2315 H 212.036 0.573509 -5.70424 0
M  V30 2316 H 210.433 -0.160783 -5.99885 0
M  V30 2317 H 211.503 -0.86237 -4.7717 0
M  V30 2318 N 212.846 1.57033 -0.133567 0
M  V30 2319 C 214.094 1.953 0.519848 0
M  V30 2320 C 214.415 1.01866 1.66278 0
M  V30 2321 O 213.685 0.0776513 1.95746 0
M  V30 2322 H 212.265 0.721091 0.195032 0
M  V30 2323 H 214.927 1.93809 -0.205921 0
M  V30 2324 H 214.023 2.98695 0.904854 0
M  V30 2325 N 214.325 -0.140222 1.56975 0
M  V30 2326 C 215.571 -0.852949 1.83991 0
M  V30 2327 C 215.904 -1.80512 0.716187 0
M  V30 2328 O 215.179 -1.92479 -0.279681 0
M  V30 2329 C 215.462 -1.6215 3.21527 0
M  V30 2330 C 215.315 -0.690363 4.4447 0
M  V30 2331 C 216.634 -2.58247 3.56366 0
M  V30 2332 H 213.753 -0.308634 0.669264 0
M  V30 2333 H 216.395 -0.117898 1.89634 0
M  V30 2334 H 214.545 -2.24812 3.16847 0
M  V30 2335 H 216.217 -0.0742264 4.6124 0
M  V30 2336 H 214.46 -0.000396433 4.338 0
M  V30 2337 H 215.131 -1.2643 5.37326 0
M  V30 2338 H 217.607 -2.05701 3.61699 0
M  V30 2339 H 216.483 -3.09067 4.53617 0
M  V30 2340 H 216.744 -3.39923 2.82674 0
M  V30 2341 N 215.803 -1.52179 -0.40978 0
M  V30 2342 C 217.08 -1.56769 -1.16974 0
M  V30 2343 C 217.46 -0.348322 -2.08206 0
M  V30 2344 O 216.808 0.664862 -2.18613 0
M  V30 2345 C 217.018 -2.89603 -1.9476 0
M  V30 2346 C 218.366 -3.42579 -2.50849 0
M  V30 2347 O 219.39 -2.91338 -2.04941 0
M  V30 2348 O 218.249 -4.32054 -3.34652 0
M  V30 2349 H 215.343 -0.631439 -0.534054 0
M  V30 2350 H 217.889 -1.64507 -0.416613 0
M  V30 2351 H 216.661 -3.698 -1.27921 0
M  V30 2352 H 216.284 -2.85155 -2.77079 0
M  V30 2353 N 217.281 0.66697 -1.42791 0
M  V30 2354 C 218.511 1.45294 -1.46878 0
M  V30 2355 C 218.919 1.89027 -0.0809861 0
M  V30 2356 O 218.262 1.59219 0.916246 0
M  V30 2357 C 218.324 2.72908 -2.34012 0
M  V30 2358 C 217.988 2.51203 -3.81767 0
M  V30 2359 C 218.985 2.15302 -4.73224 0
M  V30 2360 C 216.67 2.65954 -4.26115 0
M  V30 2361 C 218.664 1.94431 -6.07022 0
M  V30 2362 C 216.351 2.44699 -5.59969 0
M  V30 2363 C 217.349 2.08992 -6.5024 0
M  V30 2364 O 217.037 1.87948 -7.81621 0
M  V30 2365 H 216.769 0.453306 -0.501487 0
M  V30 2366 H 219.323 0.826232 -1.88049 0
M  V30 2367 H 217.553 3.38089 -1.87703 0
M  V30 2368 H 219.242 3.34816 -2.29462 0
M  V30 2369 H 220.008 2.03495 -4.40244 0
M  V30 2370 H 215.887 2.92724 -3.56137 0
M  V30 2371 H 219.431 1.66484 -6.77443 0
M  V30 2372 H 215.328 2.56105 -5.9252 0
M  V30 2373 H 216.096 2.02483 -7.93059 0
M  V30 2374 N 218.759 1.29093 0.90403 0
M  V30 2375 C 219.692 1.08176 2.00931 0
M  V30 2376 C 220.67 -0.005083 1.62599 0
M  V30 2377 O 221.854 0.144765 1.87943 0
M  V30 2378 C 218.981 0.645897 3.32484 0
M  V30 2379 C 218.027 1.73081 3.89801 0
M  V30 2380 S 218.86 3.32905 4.19446 0
M  V30 2381 C 220.016 2.91176 5.54046 0
M  V30 2382 H 220.249 2.01752 2.18365 0
M  V30 2383 H 217.782 1.13191 1.0501 0
M  V30 2384 H 219.74 0.401131 4.08535 0
M  V30 2385 H 218.401 -0.270188 3.12936 0
M  V30 2386 H 217.594 1.37768 4.84805 0
M  V30 2387 H 217.196 1.92888 3.20422 0
M  V30 2388 H 219.488 2.37952 6.34338 0
M  V30 2389 H 220.431 3.85014 5.94281 0
M  V30 2390 H 220.839 2.296 5.15698 0
M  V30 2391 N 220.237 -1.11381 1.11499 0
M  V30 2392 C 221.187 -2.15555 0.74298 0
M  V30 2393 C 222.171 -1.58894 -0.253276 0
M  V30 2394 O 223.363 -1.76897 -0.0602918 0
M  V30 2395 C 220.492 -3.42782 0.188481 0
M  V30 2396 C 219.578 -4.064 1.21244 0
M  V30 2397 N 219.969 -4.44864 2.40685 0
M  V30 2398 C 218.267 -4.3333 1.05552 0
M  V30 2399 C 218.968 -4.94715 3.05994 0
M  V30 2400 N 217.944 -4.90909 2.33472 0
M  V30 2401 H 221.746 -2.43074 1.65203 0
M  V30 2402 H 219.26 -1.28401 0.994329 0
M  V30 2403 H 221.257 -4.16789 -0.0961693 0
M  V30 2404 H 219.917 -3.16727 -0.715149 0
M  V30 2405 H 220.928 -4.36876 2.78136 0
M  V30 2406 H 217.605 -4.1698 0.208372 0
M  V30 2407 H 218.995 -5.34103 4.07656 0
M  V30 2408 N 221.715 -0.905404 -1.28997 0
M  V30 2409 C 222.625 -0.392246 -2.31298 0
M  V30 2410 C 223.641 0.515889 -1.66176 0
M  V30 2411 O 224.817 0.404093 -1.97304 0
M  V30 2412 C 221.882 0.36686 -3.44754 0
M  V30 2413 C 220.943 -0.573485 -4.25452 0
M  V30 2414 C 220.176 0.149488 -5.33491 0
M  V30 2415 O 220.399 1.37255 -5.5364 0
M  V30 2416 O 219.333 -0.510919 -5.99728 0
M  V30 2417 H 223.159 -1.2411 -2.77183 0
M  V30 2418 H 220.744 -0.669926 -1.33538 0
M  V30 2419 H 222.626 0.795907 -4.13816 0
M  V30 2420 H 221.301 1.19169 -3.00966 0
M  V30 2421 H 220.208 -1.05176 -3.59011 0
M  V30 2422 H 221.541 -1.36489 -4.72897 0
M  V30 2423 N 223.193 1.4272 -0.668489 0
M  V30 2424 C 224.609 1.55992 -0.33745 0
M  V30 2425 C 224.809 1.64933 1.15756 0
M  V30 2426 O 223.865 1.61278 1.94282 0
M  V30 2427 C 225.178 2.81314 -1.06222 0
M  V30 2428 C 226.726 2.95078 -1.04394 0
M  V30 2429 C 227.201 4.23252 -1.74991 0
M  V30 2430 N 228.692 4.3015 -1.71829 0
M  V30 2431 C 229.427 5.28127 -2.23315 0
M  V30 2432 N 228.923 6.32293 -2.83156 0
M  V30 2433 N 230.716 5.19882 -2.13726 0
M  V30 2434 H 222.867 1.3516 -1.63846 0
M  V30 2435 H 225.13 0.650174 -0.689912 0
M  V30 2436 H 224.836 2.80823 -2.11734 0
M  V30 2437 H 224.71 3.72012 -0.62344 0
M  V30 2438 H 227.097 2.951 0.0028244 0
M  V30 2439 H 227.178 2.05627 -1.52155 0
M  V30 2440 H 226.822 4.2399 -2.79633 0
M  V30 2441 H 226.752 5.11626 -1.24685 0
M  V30 2442 H 229.243 3.55499 -1.28175 0
M  V30 2443 H 229.556 7.03398 -3.20079 0
M  V30 2444 H 227.901 6.32873 -2.87223 0
M  V30 2445 H 231.092 4.37423 -1.66669 0
M  V30 2446 H 231.265 5.96077 -2.54158 0
M  V30 2447 N 224.671 0.411399 1.52136 0
M  V30 2448 C 226.087 0.0623865 1.59478 0
M  V30 2449 C 226.287 -1.42554 1.4241 0
M  V30 2450 O 225.343 -2.19263 1.2522 0
M  V30 2451 C 226.656 0.559331 2.95452 0
M  V30 2452 C 228.204 0.517503 3.08692 0
M  V30 2453 C 228.679 0.990994 4.4715 0
M  V30 2454 N 230.17 0.947908 4.53397 0
M  V30 2455 C 230.905 1.28544 5.58806 0
M  V30 2456 N 230.401 1.69454 6.71757 0
M  V30 2457 N 232.194 1.20526 5.49026 0
M  V30 2458 H 224.345 1.37982 1.61477 0
M  V30 2459 H 226.608 0.566977 0.759764 0
M  V30 2460 H 226.314 1.59938 3.1323 0
M  V30 2461 H 226.188 -0.0298014 3.77188 0
M  V30 2462 H 228.575 -0.513505 2.90598 0
M  V30 2463 H 228.656 1.14272 2.28857 0
M  V30 2464 H 228.3 2.02034 4.65988 0
M  V30 2465 H 228.23 0.34257 5.25485 0
M  V30 2466 H 230.721 0.647157 3.72317 0
M  V30 2467 H 231.034 1.93513 7.48179 0
M  V30 2468 H 229.379 1.73359 6.73032 0
M  V30 2469 H 232.57 0.884505 4.59667 0
M  V30 2470 H 232.743 1.47161 6.31069 0
M  V30 2471 N 226.149 -1.5696 0.141893 0
M  V30 2472 C 227.398 -1.95135 -0.510427 0
M  V30 2473 C 227.711 -1.02896 -1.66348 0
M  V30 2474 O 228.917 -1.30629 -2.38009 0
M  V30 2475 C 227.373 -3.46876 -0.959427 0
M  V30 2476 C 226.981 -4.47691 0.166419 0
M  V30 2477 C 228.725 -3.93927 -1.58183 0
M  V30 2478 C 226.632 -5.90636 -0.300565 0
M  V30 2479 H 225.562 -0.728494 -0.194454 0
M  V30 2480 H 228.213 -1.8211 0.22542 0
M  V30 2481 H 226.595 -3.55215 -1.75038 0
M  V30 2482 H 227.769 -4.51043 0.94325 0
M  V30 2483 H 226.084 -4.10527 0.696905 0
M  V30 2484 H 228.681 -4.98158 -1.94275 0
M  V30 2485 H 229.024 -3.3519 -2.46888 0
M  V30 2486 H 229.557 -3.88484 -0.855863 0
M  V30 2487 H 226.296 -6.5318 0.550989 0
M  V30 2488 H 225.816 -5.90655 -1.04338 0
M  V30 2489 H 227.495 -6.42588 -0.754265 0
M  V30 2490 N 227.627 0.131896 -1.57047 0
M  V30 2491 C 228.557 1.16384 -2.02428 0
M  V30 2492 C 229.538 1.43936 -0.90644 0
M  V30 2493 O 230.723 1.54599 -1.17528 0
M  V30 2494 C 227.853 2.49328 -2.4177 0
M  V30 2495 C 226.807 2.36266 -3.56879 0
M  V30 2496 C 226.133 3.74057 -3.8208 0
M  V30 2497 C 227.433 1.834 -4.89042 0
M  V30 2498 H 229.127 0.786433 -2.88887 0
M  V30 2499 H 226.673 0.376855 -1.38981 0
M  V30 2500 H 228.626 3.21759 -2.7212 0
M  V30 2501 H 227.35 2.88934 -1.52266 0
M  V30 2502 H 226.009 1.66286 -3.26718 0
M  V30 2503 H 225.657 4.11125 -2.89803 0
M  V30 2504 H 225.357 3.66174 -4.59554 0
M  V30 2505 H 226.881 4.48012 -4.1487 0
M  V30 2506 H 228.295 2.45636 -5.18011 0
M  V30 2507 H 226.692 1.8637 -5.70426 0
M  V30 2508 H 227.762 0.790662 -4.7841 0
M  V30 2509 N 229.106 1.52395 0.401703 0
M  V30 2510 C 230.056 1.72649 1.48917 0
M  V30 2511 C 231.04 0.580436 1.50066 0
M  V30 2512 O 232.232 0.83779 1.55917 0
M  V30 2513 C 229.361 1.88729 2.86769 0
M  V30 2514 C 228.447 3.09228 2.90239 0
M  V30 2515 N 228.838 4.31805 2.63396 0
M  V30 2516 C 227.136 3.09214 3.21408 0
M  V30 2517 C 227.837 5.13326 2.73625 0
M  V30 2518 N 226.813 4.48735 3.06819 0
M  V30 2519 H 230.615 2.65058 1.26971 0
M  V30 2520 H 228.129 1.50528 0.609504 0
M  V30 2521 H 230.126 2.01358 3.65049 0
M  V30 2522 H 228.786 0.975252 3.09708 0
M  V30 2523 H 229.797 4.60154 2.37653 0
M  V30 2524 H 226.474 2.27774 3.49893 0
M  V30 2525 H 227.864 6.21003 2.56524 0
M  V30 2526 N 230.584 -0.659388 1.43143 0
M  V30 2527 C 232 -0.974337 1.26407 0
M  V30 2528 C 232.2 -2.007 0.179341 0
M  V30 2529 O 231.256 -2.4856 -0.444295 0
M  V30 2530 C 232.569 -1.46447 2.62628 0
M  V30 2531 C 234.117 -1.58144 2.7011 0
M  V30 2532 C 234.592 -2.1055 4.06734 0
M  V30 2533 N 236.083 -2.17861 4.08767 0
M  V30 2534 C 236.818 -2.59519 5.1131 0
M  V30 2535 N 236.314 -3.00518 6.24228 0
M  V30 2536 N 238.107 -2.59404 4.98664 0
M  V30 2537 H 230.258 0.0240528 2.12386 0
M  V30 2538 H 232.521 -0.0518065 0.946583 0
M  V30 2539 H 232.227 -0.780123 3.42939 0
M  V30 2540 H 232.101 -2.44058 2.87603 0
M  V30 2541 H 234.488 -2.25682 1.90136 0
M  V30 2542 H 234.569 -0.589828 2.48907 0
M  V30 2543 H 234.213 -1.43616 4.87172 0
M  V30 2544 H 234.143 -3.10531 4.25298 0
M  V30 2545 H 236.634 -1.88975 3.27257 0
M  V30 2546 H 236.947 -3.31036 6.98309 0
M  V30 2547 H 235.292 -2.98337 6.2771 0
M  V30 2548 H 238.483 -2.26747 4.09516 0
M  V30 2549 H 238.656 -2.91548 5.78709 0
M  V30 2550 N 232.062 -1.29571 -0.897171 0
M  V30 2551 C 233.339 -1.08365 -1.62839 0
M  V30 2552 C 233.719 0.371331 -2.07808 0
M  V30 2553 O 233.067 1.3606 -1.83576 0
M  V30 2554 C 233.277 -2.0735 -2.80726 0
M  V30 2555 C 234.625 -2.38406 -3.51351 0
M  V30 2556 O 235.649 -2.05564 -2.90898 0
M  V30 2557 O 234.508 -2.9453 -4.60341 0
M  V30 2558 H 231.602 -0.415345 -0.715134 0
M  V30 2559 H 234.148 -1.40952 -0.945018 0
M  V30 2560 H 232.92 -3.05339 -2.44711 0
M  V30 2561 H 232.543 -1.75507 -3.56767 0
M  V30 2562 N 233.54 1.10788 -1.12088 0
M  V30 2563 C 234.47 2.19083 -0.807755 0
M  V30 2564 C 235.451 1.6858 0.226859 0
M  V30 2565 O 236.636 1.93997 0.0888475 0
M  V30 2566 C 233.766 3.46344 -0.257576 0
M  V30 2567 C 232.72 4.101 -1.22483 0
M  V30 2568 C 232.046 5.32016 -0.535052 0
M  V30 2569 C 233.346 4.54236 -2.57811 0
M  V30 2570 H 235.04 2.45534 -1.71328 0
M  V30 2571 H 232.586 1.1801 -0.825205 0
M  V30 2572 H 234.539 4.21392 -0.0262679 0
M  V30 2573 H 233.263 3.19373 0.683278 0
M  V30 2574 H 231.922 3.37054 -1.44189 0
M  V30 2575 H 231.57 5.01319 0.410827 0
M  V30 2576 H 231.27 5.75625 -1.18024 0
M  V30 2577 H 232.794 6.09799 -0.312695 0
M  V30 2578 H 234.208 5.20575 -2.40155 0
M  V30 2579 H 232.605 5.08682 -3.18375 0
M  V30 2580 H 233.675 3.6734 -3.16528 0
M  V30 2581 N 235.018 0.912232 1.28515 0
M  V30 2582 C 235.965 0.397954 2.27343 0
M  V30 2583 C 236.935 -0.526766 1.57526 0
M  V30 2584 O 238.12 -0.449292 1.85435 0
M  V30 2585 C 235.26 -0.357263 3.43246 0
M  V30 2586 C 234.373 0.599788 4.27816 0
M  V30 2587 C 233.508 -0.173725 5.30916 0
M  V30 2588 C 232.547 0.777039 6.07148 0
M  V30 2589 N 231.684 0.0371398 7.0209 0
M  V30 2590 H 236.524 1.24577 2.70711 0
M  V30 2591 H 234.061 0.625612 1.33133 0
M  V30 2592 H 236.019 -0.8113 4.09236 0
M  V30 2593 H 234.649 -1.16943 3.00872 0
M  V30 2594 H 233.701 1.17235 3.61884 0
M  V30 2595 H 235.013 1.32704 4.80823 0
M  V30 2596 H 234.167 -0.688394 6.02782 0
M  V30 2597 H 232.906 -0.934041 4.78672 0
M  V30 2598 H 231.911 1.3031 5.34134 0
M  V30 2599 H 233.136 1.53689 6.61481 0
M  V30 2600 H 231.082 -0.705213 6.52198 0
M  V30 2601 H 230.999 0.704249 7.52713 0
M  V30 2602 H 232.267 -0.457383 7.78157 0
M  V30 2603 N 236.496 -1.42363 0.676048 0
M  V30 2604 C 237.721 -2.06377 0.205705 0
M  V30 2605 C 238.146 -1.50463 -1.12883 0
M  V30 2606 O 237.504 -0.623619 -1.70237 0
M  V30 2607 C 237.552 -3.60277 0.152655 0
M  V30 2608 O 236.656 -4.02935 -0.87845 0
M  V30 2609 H 235.997 -0.655588 0.105359 0
M  V30 2610 H 238.527 -1.82475 0.925412 0
M  V30 2611 H 238.537 -4.07993 -0.0230675 0
M  V30 2612 H 237.212 -4.00346 1.12675 0
M  V30 2613 H 235.789 -3.66764 -0.673668 0
M  V30 2614 N 237.974 -0.419461 -1.51915 0
M  V30 2615 C 238.921 0.400927 -2.27291 0
M  V30 2616 C 239.891 1.03224 -1.30131 0
M  V30 2617 O 241.076 1.05455 -1.59009 0
M  V30 2618 C 238.216 1.50603 -3.10504 0
M  V30 2619 C 237.329 0.89462 -4.22635 0
M  V30 2620 C 236.464 1.97328 -4.93189 0
M  V30 2621 C 235.503 1.33935 -5.97267 0
M  V30 2622 N 234.64 2.3586 -6.61298 0
M  V30 2623 H 239.48 -0.248251 -2.96964 0
M  V30 2624 H 237.017 -0.134266 -1.46486 0
M  V30 2625 H 238.975 2.15783 -3.57062 0
M  V30 2626 H 237.605 2.12509 -2.42981 0
M  V30 2627 H 236.657 0.131583 -3.80172 0
M  V30 2628 H 237.969 0.391641 -4.9726 0
M  V30 2629 H 237.123 2.70211 -5.43204 0
M  V30 2630 H 235.862 2.50994 -4.18155 0
M  V30 2631 H 234.867 0.595896 -5.46561 0
M  V30 2632 H 236.092 0.810252 -6.74249 0
M  V30 2633 H 234.038 2.88639 -5.89087 0
M  V30 2634 H 233.955 1.90403 -7.3163 0
M  V30 2635 H 235.223 3.08282 -7.15949 0
M  V30 2636 N 239.452 1.56882 -0.150215 0
M  V30 2637 C 240.4 2.18214 0.805313 0
M  V30 2638 C 241.394 1.14006 1.25296 0
M  V30 2639 O 242.6 1.3225 1.22107 0
M  V30 2640 H 238.975 0.698762 0.277913 0
M  V30 2641 H 240.946 2.97231 0.263862 0
M  V30 2642 C 239.695 2.82065 2.03309 0
M  V30 2643 H 239.018 3.61968 1.69763 0
M  V30 2644 H 240.458 3.28477 2.68103 0
M  V30 2645 C 238.917 1.80739 2.84315 0
M  V30 2646 O 239.447 1.27983 3.80767 0
M  V30 2647 N 237.653 1.4997 2.48913 0
M  V30 2648 H 237.2 1.93062 1.70542 0
M  V30 2649 H 237.158 0.824217 3.03404 0
M  V30 2650 N 240.93 -0.123565 1.57115 0
M  V30 2651 C 242.176 -0.833386 1.84885 0
M  V30 2652 C 242.509 -1.79742 0.735292 0
M  V30 2653 O 241.784 -1.92764 -0.25925 0
M  V30 2654 C 242.067 -1.5873 3.23228 0
M  V30 2655 C 241.92 -0.643183 4.45178 0
M  V30 2656 C 243.239 -2.54453 3.59085 0
M  V30 2657 H 240.358 -0.301518 0.6725 0
M  V30 2658 H 243 -0.097778 1.89748 0
M  V30 2659 H 241.15 -2.21438 3.19214 0
M  V30 2660 H 242.822 -0.0253015 4.61293 0
M  V30 2661 H 241.065 0.0456139 4.33776 0
M  V30 2662 H 241.736 -1.20724 5.38637 0
M  V30 2663 H 244.212 -2.01853 3.63861 0
M  V30 2664 H 243.088 -3.04238 4.5687 0
M  V30 2665 H 243.349 -3.36906 2.86264 0
M  V30 2666 N 242.408 -1.52605 -0.393616 0
M  V30 2667 C 243.655 -1.67424 -1.1391 0
M  V30 2668 C 243.983 -0.411859 -1.90089 0
M  V30 2669 O 243.238 0.605626 -1.86093 0
M  V30 2670 C 243.537 -2.85721 -2.14705 0
M  V30 2671 C 243.203 -4.23342 -1.55218 0
M  V30 2672 C 241.865 -4.60771 -1.3872 0
M  V30 2673 C 244.217 -5.09041 -1.11924 0
M  V30 2674 C 241.545 -5.81563 -0.774689 0
M  V30 2675 C 243.897 -6.30452 -0.520853 0
M  V30 2676 C 242.561 -6.66617 -0.343134 0
M  V30 2677 H 241.831 -0.612648 -0.416826 0
M  V30 2678 H 244.478 -1.8674 -0.424315 0
M  V30 2679 H 242.783 -2.60803 -2.92385 0
M  V30 2680 H 244.48 -2.94382 -2.72288 0
M  V30 2681 H 241.07 -3.93855 -1.69045 0
M  V30 2682 H 245.254 -4.80695 -1.23473 0
M  V30 2683 H 240.51 -6.08196 -0.625154 0
M  V30 2684 H 244.684 -6.96175 -0.177065 0
M  V30 2685 H 242.311 -7.60083 0.133571 0
M  V30 2686 N 243.887 0.651787 -1.4349 0
M  V30 2687 C 244.817 1.77621 -1.51569 0
M  V30 2688 C 245.798 1.66022 -0.370253 0
M  V30 2689 O 246.983 1.85095 -0.587658 0
M  V30 2690 C 244.113 3.16056 -1.43966 0
M  V30 2691 C 243.067 3.4242 -2.56774 0
M  V30 2692 C 242.393 4.8067 -2.34223 0
M  V30 2693 C 243.693 3.37023 -3.99015 0
M  V30 2694 H 245.387 1.71117 -2.45681 0
M  V30 2695 H 242.933 0.821825 -1.18246 0
M  V30 2696 H 244.886 3.94472 -1.48221 0
M  V30 2697 H 243.61 3.23293 -0.463586 0
M  V30 2698 H 242.269 2.66375 -2.51873 0
M  V30 2699 H 241.917 4.84585 -1.34856 0
M  V30 2700 H 241.617 4.9927 -3.09844 0
M  V30 2701 H 243.141 5.61342 -2.40265 0
M  V30 2702 H 244.555 4.05374 -4.05395 0
M  V30 2703 H 242.952 3.67159 -4.74673 0
M  V30 2704 H 244.022 2.3518 -4.2405 0
M  V30 2705 N 245.365 1.30045 0.890287 0
M  V30 2706 C 246.312 1.15976 1.99545 0
M  V30 2707 C 247.282 0.0506202 1.66023 0
M  V30 2708 O 248.467 0.219847 1.89529 0
M  V30 2709 C 245.607 0.852054 3.34416 0
M  V30 2710 C 244.72 2.04255 3.80662 0
M  V30 2711 C 243.855 1.6734 5.04154 0
M  V30 2712 C 242.894 2.82916 5.42794 0
M  V30 2713 N 242.031 2.46333 6.57468 0
M  V30 2714 H 246.871 2.10524 2.10911 0
M  V30 2715 H 244.408 1.04749 1.03276 0
M  V30 2716 H 246.366 0.654296 4.12037 0
M  V30 2717 H 244.996 -0.0565502 3.2275 0
M  V30 2718 H 244.048 2.35172 2.98995 0
M  V30 2719 H 245.36 2.90826 4.05242 0
M  V30 2720 H 244.514 1.43908 5.89386 0
M  V30 2721 H 243.253 0.779308 4.81433 0
M  V30 2722 H 242.258 3.0702 4.56091 0
M  V30 2723 H 243.483 3.73004 5.6749 0
M  V30 2724 H 241.429 1.59423 6.36334 0
M  V30 2725 H 241.346 3.26436 6.81891 0
M  V30 2726 H 242.614 2.26244 7.45945 0
M  V30 2727 N 246.843 -1.10192 1.12674 0
M  V30 2728 C 247.791 -2.18694 0.792196 0
M  V30 2729 C 248.785 -1.67938 -0.222058 0
M  V30 2730 O 249.991 -1.79822 -0.0800074 0
M  V30 2731 H 246.366 -0.713223 0.238364 0
M  V30 2732 H 248.337 -2.44149 1.71564 0
M  V30 2733 C 247.086 -3.46682 0.265859 0
M  V30 2734 H 246.409 -3.86101 1.03761 0
M  V30 2735 H 247.849 -4.23942 0.0701128 0
M  V30 2736 C 246.308 -3.21506 -1.00675 0
M  V30 2737 O 246.838 -3.43408 -2.08408 0
M  V30 2738 N 245.044 -2.75158 -0.934692 0
M  V30 2739 H 244.591 -2.57535 -0.0578604 0
M  V30 2740 H 244.549 -2.58691 -1.7868 0
M  V30 2741 N 248.321 -0.919034 -1.28029 0
M  V30 2742 C 249.269 -0.401753 -2.29104 0
M  V30 2743 C 250.263 0.509354 -1.61561 0
M  V30 2744 O 251.469 0.390014 -1.75724 0
M  V30 2745 H 247.844 -0.111331 -0.743713 0
M  V30 2746 H 249.815 -1.2672 -2.70156 0
M  V30 2747 C 248.564 0.338148 -3.46052 0
M  V30 2748 H 247.887 -0.353732 -3.98232 0
M  V30 2749 H 249.327 0.664653 -4.18758 0
M  V30 2750 C 247.786 1.54798 -2.99231 0
M  V30 2751 O 248.316 2.64696 -3.02157 0
M  V30 2752 N 246.522 1.3968 -2.54829 0
M  V30 2753 H 246.069 0.502698 -2.52647 0
M  V30 2754 H 246.027 2.20755 -2.23863 0
M  V30 2755 N 249.799 1.42003 -0.683588 0
M  V30 2756 C 250.729 2.33487 -0.024866 0
M  V30 2757 C 251.71 1.51163 0.779975 0
M  V30 2758 O 252.895 1.79739 0.735362 0
M  V30 2759 C 250.025 3.3487 0.920836 0
M  V30 2760 C 248.979 4.27414 0.223958 0
M  V30 2761 C 248.305 5.19074 1.2832 0
M  V30 2762 C 249.605 5.14445 -0.90242 0
M  V30 2763 H 251.299 2.88819 -0.788921 0
M  V30 2764 H 248.845 1.38873 -0.38083 0
M  V30 2765 H 250.798 3.97787 1.39081 0
M  V30 2766 H 249.522 2.77861 1.71642 0
M  V30 2767 H 248.181 3.65904 -0.225864 0
M  V30 2768 H 247.829 4.58387 2.071 0
M  V30 2769 H 247.529 5.81822 0.821995 0
M  V30 2770 H 249.053 5.84867 1.75392 0
M  V30 2771 H 250.467 5.70998 -0.513272 0
M  V30 2772 H 248.864 5.86072 -1.28997 0
M  V30 2773 H 249.934 4.52322 -1.74737 0
M  V30 2774 N 251.277 0.427512 1.51691 0
M  V30 2775 C 252.207 -0.3796 2.30394 0
M  V30 2776 C 253.188 -1.02982 1.35384 0
M  V30 2777 O 254.373 -1.03534 1.643 0
M  V30 2778 C 251.503 -1.48649 3.1388 0
M  V30 2779 C 250.457 -0.960294 4.17088 0
M  V30 2780 C 249.783 -2.16219 4.89033 0
M  V30 2781 C 251.083 -0.00153679 5.223 0
M  V30 2782 H 252.777 0.277164 2.98114 0
M  V30 2783 H 250.323 0.134739 1.43368 0
M  V30 2784 H 252.276 -2.05826 3.67714 0
M  V30 2785 H 251 -2.1714 2.43962 0
M  V30 2786 H 249.659 -0.410806 3.64291 0
M  V30 2787 H 249.307 -2.83307 4.15628 0
M  V30 2788 H 249.007 -1.81654 5.58816 0
M  V30 2789 H 250.531 -2.73968 5.45687 0
M  V30 2790 H 251.945 -0.482687 5.71264 0
M  V30 2791 H 250.342 0.256199 5.99553 0
M  V30 2792 H 251.412 0.938174 4.75738 0
M  V30 2793 N 252.755 -1.56801 0.158532 0
M  V30 2794 C 253.702 -2.17337 -0.776729 0
M  V30 2795 C 254.672 -1.1096 -1.23601 0
M  V30 2796 O 255.857 -1.39054 -1.30647 0
M  V30 2797 C 252.997 -2.80822 -2.00582 0
M  V30 2798 C 252.11 -4.01624 -1.59129 0
M  V30 2799 C 251.245 -4.53072 -2.77306 0
M  V30 2800 C 250.284 -5.66314 -2.32282 0
M  V30 2801 N 249.421 -6.12329 -3.43508 0
M  V30 2802 H 254.261 -2.96918 -0.253701 0
M  V30 2803 H 251.798 -1.46661 -0.113504 0
M  V30 2804 H 253.756 -3.15779 -2.72652 0
M  V30 2805 H 252.386 -2.03866 -2.50277 0
M  V30 2806 H 251.438 -3.72571 -0.767806 0
M  V30 2807 H 252.75 -4.83633 -1.2207 0
M  V30 2808 H 251.904 -4.90145 -3.57551 0
M  V30 2809 H 250.643 -3.70095 -3.17617 0
M  V30 2810 H 249.648 -5.28806 -1.5048 0
M  V30 2811 H 250.873 -6.51085 -1.93043 0
M  V30 2812 H 248.819 -5.32284 -3.83418 0
M  V30 2813 H 248.736 -6.89293 -3.105 0
M  V30 2814 H 250.004 -6.5405 -4.24075 0
M  V30 2815 N 254.233 0.115231 -1.57178 0
M  V30 2816 C 255.482 0.820945 -1.84237 0
M  V30 2817 C 255.795 1.80866 -0.744761 0
M  V30 2818 O 257.001 2.56083 -0.901871 0
M  V30 2819 C 255.457 1.51072 -3.26658 0
M  V30 2820 C 255.065 0.563795 -4.44438 0
M  V30 2821 C 256.809 2.20134 -3.62962 0
M  V30 2822 C 254.716 1.25701 -5.77887 0
M  V30 2823 H 253.646 0.310328 -0.687177 0
M  V30 2824 H 256.297 0.0737134 -1.83352 0
M  V30 2825 H 254.679 2.30471 -3.22024 0
M  V30 2826 H 255.853 -0.197247 -4.60378 0
M  V30 2827 H 254.168 -0.0200638 -4.16395 0
M  V30 2828 H 256.765 2.72696 -4.59936 0
M  V30 2829 H 257.108 2.98107 -2.90582 0
M  V30 2830 H 257.641 1.47619 -3.69396 0
M  V30 2831 H 254.38 0.518493 -6.53446 0
M  V30 2832 H 253.9 1.98997 -5.65827 0
M  V30 2833 H 255.579 1.78915 -6.2177 0
M  V30 2834 N 255.711 1.52812 0.385517 0
M  V30 2835 C 256.959 1.67694 1.12797 0
M  V30 2836 C 257.28 0.421115 1.90399 0
M  V30 2837 O 256.55 -0.564551 1.87589 0
M  V30 2838 H 255.13 0.618155 0.419396 0
M  V30 2839 H 257.792 1.89938 0.436972 0
M  V30 2840 H 256.888 2.52896 1.82894 0
M  V30 2841 N 257.189 -0.644168 1.43834 0
M  V30 2842 C 258.466 -1.40188 1.36406 0
M  V30 2843 C 258.846 -2.11094 0.0163124 0
M  V30 2844 O 258.194 -2.05426 -1.00062 0
M  V30 2845 C 258.404 -2.3791 2.55343 0
M  V30 2846 C 259.752 -3.01637 2.98832 0
M  V30 2847 O 260.776 -2.48237 2.55455 0
M  V30 2848 O 259.635 -3.98477 3.74003 0
M  V30 2849 H 256.729 -0.626773 0.539523 0
M  V30 2850 H 259.275 -0.670317 1.559 0
M  V30 2851 H 258.047 -1.84525 3.4506 0
M  V30 2852 H 257.67 -3.18503 2.37995 0
M  V30 2853 N 258.668 -1.30515 -0.883378 0
M  V30 2854 C 259.915 -1.1943 -1.63532 0
M  V30 2855 C 260.243 0.250627 -1.92878 0
M  V30 2856 O 259.498 1.19556 -1.54935 0
M  V30 2857 C 259.797 -1.96994 -2.98209 0
M  V30 2858 C 259.463 -3.466 -2.88408 0
M  V30 2859 C 258.125 -3.87397 -2.85442 0
M  V30 2860 C 260.477 -4.41863 -2.76418 0
M  V30 2861 C 257.805 -5.21745 -2.68327 0
M  V30 2862 C 260.157 -5.7632 -2.60841 0
M  V30 2863 C 258.821 -6.16354 -2.56251 0
M  V30 2864 H 258.091 -0.437025 -0.598406 0
M  V30 2865 H 260.738 -1.61635 -1.02696 0
M  V30 2866 H 259.043 -1.47429 -3.63004 0
M  V30 2867 H 260.74 -1.85808 -3.55354 0
M  V30 2868 H 257.33 -3.14182 -2.91527 0
M  V30 2869 H 261.514 -4.11285 -2.77775 0
M  V30 2870 H 256.77 -5.51853 -2.63189 0
M  V30 2871 H 260.944 -6.49772 -2.50538 0
M  V30 2872 H 258.571 -7.20401 -2.42748 0
M  V30 2873 N 260.146 1.09593 -1.13257 0
M  V30 2874 C 261.394 1.81375 -0.891492 0
M  V30 2875 C 261.715 1.86049 0.584009 0
M  V30 2876 O 260.985 1.34481 1.42449 0
M  V30 2877 H 259.565 0.671708 -0.326828 0
M  V30 2878 H 262.227 1.3256 -1.42877 0
M  V30 2879 H 261.323 2.84612 -1.28071 0
M  V30 2880 N 261.624 0.925811 1.2754 0
M  V30 2881 C 262.87 0.566092 1.94739 0
M  V30 2882 C 263.203 -0.890057 1.72603 0
M  V30 2883 O 262.478 -1.63467 1.05399 0
M  V30 2884 C 262.761 0.89054 3.48915 0
M  V30 2885 C 262.614 2.4003 3.80402 0
M  V30 2886 C 263.933 0.395101 4.38323 0
M  V30 2887 H 261.052 0.20714 0.707292 0
M  V30 2888 H 263.694 1.15725 1.50691 0
M  V30 2889 H 261.844 0.387452 3.86563 0
M  V30 2890 H 263.516 2.97494 3.52555 0
M  V30 2891 H 261.759 2.85028 3.2702 0
M  V30 2892 H 262.43 2.57785 4.8811 0
M  V30 2893 H 264.906 0.826241 4.07814 0
M  V30 2894 H 263.782 0.651086 5.45025 0
M  V30 2895 H 264.043 -0.704798 4.36446 0
M  V30 2896 N 263.102 -1.41638 0.69111 0
M  V30 2897 C 264.327 -2.06148 0.227583 0
M  V30 2898 C 264.752 -1.51652 -1.11281 0
M  V30 2899 O 264.11 -0.64164 -1.69566 0
M  V30 2900 C 264.158 -3.60095 0.190858 0
M  V30 2901 O 263.262 -4.03845 -0.835664 0
M  V30 2902 H 262.603 -0.654434 0.112306 0
M  V30 2903 H 265.133 -1.81484 0.944714 0
M  V30 2904 H 265.143 -4.07995 0.020207 0
M  V30 2905 H 263.818 -3.99129 1.16915 0
M  V30 2906 H 262.395 -3.67458 -0.63473 0
M  V30 2907 N 264.58 -0.43555 -1.51462 0
M  V30 2908 C 265.996 -0.0877501 -1.59359 0
M  V30 2909 C 266.196 1.4027 -1.4466 0
M  V30 2910 O 265.252 2.17243 -1.28693 0
M  V30 2911 C 266.565 -0.606264 -2.94525 0
M  V30 2912 C 268.113 -0.566548 -3.0783 0
M  V30 2913 C 268.588 -1.06201 -4.45517 0
M  V30 2914 N 270.079 -1.01992 -4.51832 0
M  V30 2915 C 270.814 -1.37417 -5.5669 0
M  V30 2916 N 270.31 -1.80119 -6.68976 0
M  V30 2917 N 272.103 -1.29245 -5.47039 0
M  V30 2918 H 264.254 -1.40533 -1.59261 0
M  V30 2919 H 266.517 -0.578992 -0.750648 0
M  V30 2920 H 266.223 -1.64901 -3.10645 0
M  V30 2921 H 266.097 -0.0302097 -3.77188 0
M  V30 2922 H 268.484 0.467208 -2.91378 0
M  V30 2923 H 268.565 -1.17898 -2.2701 0
M  V30 2924 H 268.209 -2.09422 -4.62715 0
M  V30 2925 H 268.139 -0.426127 -5.24873 0
M  V30 2926 H 270.63 -0.706308 -3.71241 0
M  V30 2927 H 270.943 -2.05392 -7.45006 0
M  V30 2928 H 269.288 -1.84044 -6.70189 0
M  V30 2929 H 272.479 -0.957522 -4.58202 0
M  V30 2930 H 272.652 -1.57182 -6.28648 0
M  V30 2931 N 266.058 1.56714 -0.166846 0
M  V30 2932 C 266.988 2.20754 0.760913 0
M  V30 2933 C 267.969 1.16178 1.24244 0
M  V30 2934 O 269.154 1.44592 1.29641 0
M  V30 2935 C 266.284 2.84478 1.99223 0
M  V30 2936 C 265.238 3.95053 1.64672 0
M  V30 2937 C 264.564 4.45805 2.95232 0
M  V30 2938 C 265.864 5.14865 0.878155 0
M  V30 2939 H 267.558 2.98537 0.22713 0
M  V30 2940 H 265.104 1.43596 0.107805 0
M  V30 2941 H 267.057 3.27951 2.64624 0
M  V30 2942 H 265.781 2.04056 2.55007 0
M  V30 2943 H 264.44 3.52228 1.01641 0
M  V30 2944 H 264.088 3.62181 3.49047 0
M  V30 2945 H 263.788 5.204 2.7287 0
M  V30 2946 H 265.312 4.91962 3.6167 0
M  V30 2947 H 266.726 5.55059 1.43466 0
M  V30 2948 H 265.123 5.95348 0.753738 0
M  V30 2949 H 266.193 4.84735 -0.126377 0
M  V30 2950 N 267.536 -0.106894 1.57237 0
M  V30 2951 C 268.466 -1.13148 2.04254 0
M  V30 2952 C 269.447 -1.42476 0.929224 0
M  V30 2953 O 270.632 -1.52709 1.19973 0
M  V30 2954 C 267.762 -2.4545 2.45706 0
M  V30 2955 C 266.716 -2.30558 3.60592 0
M  V30 2956 C 266.042 -3.67931 3.87983 0
M  V30 2957 C 267.342 -1.75597 4.91897 0
M  V30 2958 H 269.036 -0.740374 2.90101 0
M  V30 2959 H 266.582 -0.354696 1.39563 0
M  V30 2960 H 268.535 -3.17389 2.77205 0
M  V30 2961 H 267.259 -2.86475 1.56843 0
M  V30 2962 H 265.918 -1.61067 3.29322 0
M  V30 2963 H 265.566 -4.06462 2.96306 0
M  V30 2964 H 265.266 -3.58817 4.65322 0
M  V30 2965 H 266.79 -4.41356 4.21945 0
M  V30 2966 H 268.204 -2.37364 5.21854 0
M  V30 2967 H 266.601 -1.77272 5.73319 0
M  V30 2968 H 267.671 -0.714451 4.79608 0
M  V30 2969 N 269.014 -1.53014 -0.377408 0
M  V30 2970 C 269.947 -1.73382 -1.48371 0
M  V30 2971 C 270.925 -0.581879 -1.51832 0
M  V30 2972 O 272.109 -0.81307 -1.70063 0
M  V30 2973 C 269.236 -1.80192 -2.8679 0
M  V30 2974 C 268.282 -3.02056 -3.01105 0
M  V30 2975 S 269.115 -4.61811 -2.71093 0
M  V30 2976 C 270.271 -4.71453 -4.11683 0
M  V30 2977 H 270.504 -2.66946 -1.30872 0
M  V30 2978 H 268.037 -1.43453 -0.571012 0
M  V30 2979 H 269.995 -1.84802 -3.6655 0
M  V30 2980 H 268.656 -0.877008 -3.01608 0
M  V30 2981 H 267.849 -3.03396 -4.02451 0
M  V30 2982 H 267.451 -2.95498 -2.29253 0
M  V30 2983 H 269.743 -4.50781 -5.0577 0
M  V30 2984 H 270.686 -5.73487 -4.15353 0
M  V30 2985 H 271.094 -4.00189 -3.98132 0
M  V30 2986 N 270.492 0.636531 -1.44174 0
M  V30 2987 C 271.74 1.39343 -1.46383 0
M  V30 2988 C 272.061 1.94766 -0.0955715 0
M  V30 2989 O 271.331 1.75452 0.871395 0
M  V30 2990 H 269.911 0.517199 -0.538994 0
M  V30 2991 H 272.573 0.74957 -1.7991 0
M  V30 2992 H 271.669 2.22746 -2.18611 0
M  V30 2993 N 271.97 1.30982 0.876444 0
M  V30 2994 C 273.195 1.23373 1.66715 0
M  V30 2995 C 273.62 -0.19885 1.87046 0
M  V30 2996 O 272.978 -1.1427 1.40756 0
M  V30 2997 C 273.026 1.97644 3.01611 0
M  V30 2998 O 272.13 1.30935 3.91062 0
M  V30 2999 H 271.471 0.426279 0.509099 0
M  V30 3000 H 274.001 1.72944 1.09323 0
M  V30 3001 H 274.011 2.06992 3.51594 0
M  V30 3002 H 272.686 3.01829 2.86133 0
M  V30 3003 H 271.263 1.29996 3.49507 0
M  V30 3004 N 273.449 -1.08991 1.13837 0
M  V30 3005 C 274.689 -1.82867 0.913183 0
M  V30 3006 C 275.053 -1.83936 -0.550604 0
M  V30 3007 O 276.254 -2.53515 -0.893515 0
M  V30 3008 C 274.525 -3.24843 1.49036 0
M  V30 3009 S 276.084 -4.15669 1.40588 0
M  V30 3010 H 272.902 -0.630278 0.329046 0
M  V30 3011 H 275.504 -1.31049 1.45073 0
M  V30 3012 H 274.208 -3.21644 2.54899 0
M  V30 3013 H 273.739 -3.81734 0.950947 0
M  V30 3014 H 275.754 -4.94686 0.387353 0
M  V30 3015 N 274.927 -0.932562 -1.27047 0
M  V30 3016 C 276.204 -0.49377 -1.89265 0
M  V30 3017 C 276.584 1.02833 -1.8436 0
M  V30 3018 O 275.932 1.88461 -1.29209 0
M  V30 3019 C 276.142 -1.04536 -3.32976 0
M  V30 3020 C 277.49 -1.10879 -4.09867 0
M  V30 3021 O 278.514 -0.995327 -3.42011 0
M  V30 3022 O 277.373 -1.28417 -5.31198 0
M  V30 3023 H 274.467 -0.159596 -0.811454 0
M  V30 3024 H 277.013 -1.02457 -1.3528 0
M  V30 3025 H 275.785 -2.08913 -3.30864 0
M  V30 3026 H 275.408 -0.496494 -3.94488 0
M  V30 3027 N 276.405 1.4127 -0.698611 0
M  V30 3028 C 277.335 2.33447 -0.049629 0
M  V30 3029 C 278.316 1.51982 0.763898 0
M  V30 3030 O 279.501 1.80509 0.716257 0
M  V30 3031 C 276.631 3.35828 0.885267 0
M  V30 3032 C 275.585 4.27627 0.178613 0
M  V30 3033 C 274.911 5.20406 1.22807 0
M  V30 3034 C 276.211 5.13459 -0.956933 0
M  V30 3035 H 277.905 2.87966 -0.81951 0
M  V30 3036 H 275.451 1.38461 -0.395538 0
M  V30 3037 H 277.404 3.9924 1.34854 0
M  V30 3038 H 276.128 2.79666 1.68685 0
M  V30 3039 H 274.787 3.65643 -0.26466 0
M  V30 3040 H 274.435 4.60558 2.02226 0
M  V30 3041 H 274.135 5.82661 0.760239 0
M  V30 3042 H 275.659 5.86695 1.69179 0
M  V30 3043 H 277.073 5.70421 -0.573805 0
M  V30 3044 H 275.47 5.8467 -1.35205 0
M  V30 3045 H 276.54 4.50443 -1.79524 0
M  V30 3046 N 277.883 0.443576 1.51229 0
M  V30 3047 C 278.846 -0.353132 2.26463 0
M  V30 3048 C 279.846 -0.944338 1.3015 0
M  V30 3049 O 281.036 -0.817813 1.5381 0
M  V30 3050 C 278.168 -1.50023 3.06114 0
M  V30 3051 H 279.361 0.3063 2.98332 0
M  V30 3052 H 276.914 0.196902 1.55055 0
M  V30 3053 H 277.649 -2.19553 2.38677 0
M  V30 3054 H 277.434 -1.08241 3.76864 0
M  V30 3055 H 278.924 -2.06296 3.63087 0
M  V30 3056 N 279.361 -1.56624 0.175154 0
M  V30 3057 C 280.589 -2.01374 -0.474971 0
M  V30 3058 C 281.004 -1.05537 -1.56548 0
M  V30 3059 O 280.361 -0.0568668 -1.82411 0
M  V30 3060 C 280.412 -3.45923 -1.04975 0
M  V30 3061 O 280.133 -4.381 -0.00276605 0
M  V30 3062 C 281.634 -4.06093 -1.77773 0
M  V30 3063 H 278.854 -0.659962 -0.121206 0
M  V30 3064 H 281.398 -2.02601 0.27801 0
M  V30 3065 H 279.553 -3.45458 -1.75321 0
M  V30 3066 H 279.967 -5.22753 -0.427681 0
M  V30 3067 H 281.441 -5.09147 -2.13245 0
M  V30 3068 H 281.918 -3.48405 -2.67414 0
M  V30 3069 H 282.524 -4.10272 -1.12059 0
M  V30 3070 N 280.839 0.0985539 -1.57292 0
M  V30 3071 C 282.067 0.816318 -1.90115 0
M  V30 3072 C 282.482 1.72451 -0.768509 0
M  V30 3073 O 281.839 1.80643 0.259687 0
M  V30 3074 C 281.89 1.63259 -3.22535 0
M  V30 3075 O 281.611 0.760934 -4.31441 0
M  V30 3076 C 283.112 2.45372 -3.69199 0
M  V30 3077 H 280.332 0.233595 -0.629027 0
M  V30 3078 H 282.876 0.0768229 -2.04356 0
M  V30 3079 H 281.031 2.32463 -3.09903 0
M  V30 3080 H 281.445 1.32595 -5.07463 0
M  V30 3081 H 282.919 2.98144 -4.64558 0
M  V30 3082 H 283.396 3.23677 -2.96867 0
M  V30 3083 H 284.002 1.81373 -3.84687 0
M  V30 3084 N 282.317 1.53212 0.369288 0
M  V30 3085 C 283.247 1.82365 1.45826 0
M  V30 3086 C 284.228 0.676907 1.56051 0
M  V30 3087 O 285.413 0.926401 1.70679 0
M  V30 3088 C 282.543 2.01023 2.83208 0
M  V30 3089 C 281.497 3.1678 2.8781 0
M  V30 3090 C 280.823 3.20724 4.27832 0
M  V30 3091 C 282.123 4.55447 2.55667 0
M  V30 3092 H 283.817 2.73559 1.21678 0
M  V30 3093 H 281.363 1.3163 0.583911 0
M  V30 3094 H 283.316 2.20001 3.59413 0
M  V30 3095 H 282.04 1.06536 3.08736 0
M  V30 3096 H 280.699 2.97616 2.14056 0
M  V30 3097 H 280.347 2.23882 4.50429 0
M  V30 3098 H 280.047 3.98496 4.31827 0
M  V30 3099 H 281.571 3.41881 5.05915 0
M  V30 3100 H 282.985 4.74611 3.21586 0
M  V30 3101 H 281.382 5.35432 2.70984 0
M  V30 3102 H 282.452 4.60812 1.5093 0
M  V30 3103 N 283.795 -0.628877 1.44509 0
M  V30 3104 C 285.023 -1.41554 1.50897 0
M  V30 3105 C 285.438 -1.8832 0.134564 0
M  V30 3106 O 284.795 -1.60969 -0.859965 0
M  V30 3107 C 284.846 -2.63435 2.47556 0
M  V30 3108 O 284.567 -2.18619 3.79654 0
M  V30 3109 C 286.068 -3.56537 2.63431 0
M  V30 3110 H 283.288 -0.434044 0.511709 0
M  V30 3111 H 285.832 -0.768895 1.89495 0
M  V30 3112 H 283.987 -3.24187 2.12089 0
M  V30 3113 H 284.401 -2.97652 4.31861 0
M  V30 3114 H 285.875 -4.38657 3.35088 0
M  V30 3115 H 286.352 -4.05493 1.68738 0
M  V30 3116 H 286.958 -3.01653 2.9981 0
M  V30 3117 N 285.273 -1.31445 -0.869486 0
M  V30 3118 C 286.521 -1.20918 -1.61936 0
M  V30 3119 C 286.842 0.232683 -1.93607 0
M  V30 3120 O 286.112 1.15352 -1.58338 0
M  V30 3121 H 284.692 -0.44454 -0.600328 0
M  V30 3122 H 287.354 -1.64776 -1.0409 0
M  V30 3123 H 286.45 -1.78124 -2.56278 0
M  V30 3124 N 286.751 1.08385 -1.14413 0
M  V30 3125 C 287.979 1.84517 -0.936001 0
M  V30 3126 C 288.394 1.81626 0.515503 0
M  V30 3127 O 287.751 1.22008 1.35721 0
M  V30 3128 C 287.802 3.32049 -1.42918 0
M  V30 3129 O 287.523 3.34951 -2.82381 0
M  V30 3130 C 289.024 4.24986 -1.26103 0
M  V30 3131 H 286.244 0.582491 -0.333084 0
M  V30 3132 H 288.788 1.36885 -1.5193 0
M  V30 3133 H 286.943 3.7707 -0.888641 0
M  V30 3134 H 287.357 4.27048 -3.04517 0
M  V30 3135 H 288.831 5.26615 -1.6547 0
M  V30 3136 H 289.308 4.38726 -0.20392 0
M  V30 3137 H 289.914 3.85791 -1.79012 0
M  V30 3138 N 288.23 0.939286 1.26551 0
M  V30 3139 C 289.641 0.628782 1.75793 0
M  V30 3140 C 289.992 -0.856046 1.7654 0
M  V30 3141 O 289.117 -1.66994 1.3763 0
M  V30 3142 C 289.712 1.13465 3.19235 0
M  V30 3143 C 288.271 0.874601 3.66098 0
M  V30 3144 C 287.418 1.28667 2.45642 0
M  V30 3145 H 290.369 1.1178 1.12654 0
M  V30 3146 H 290.39 0.487609 3.77363 0
M  V30 3147 H 289.902 2.21535 3.1866 0
M  V30 3148 H 288.003 -0.191793 3.72106 0
M  V30 3149 H 288.116 1.50028 4.55004 0
M  V30 3150 H 286.48 0.705109 2.44745 0
M  V30 3151 H 287.263 2.37625 2.47769 0
M  V30 3152 N 289.708 -1.40897 0.706093 0
M  V30 3153 C 290.658 -2.27987 0.0240746 0
M  V30 3154 C 291.642 -1.42759 -0.742204 0
M  V30 3155 O 292.834 -1.65936 -0.615966 0
M  V30 3156 C 289.963 -3.31186 -0.903907 0
M  V30 3157 C 289.049 -4.2389 -0.133318 0
M  V30 3158 N 289.44 -4.98113 0.878444 0
M  V30 3159 C 287.738 -4.44485 -0.367269 0
M  V30 3160 C 288.439 -5.6604 1.34064 0
M  V30 3161 N 287.415 -5.39522 0.664565 0
M  V30 3162 H 291.217 -2.82812 0.799658 0
M  V30 3163 H 288.731 -1.53235 0.537845 0
M  V30 3164 H 290.728 -3.92413 -1.40775 0
M  V30 3165 H 289.388 -2.77922 -1.67897 0
M  V30 3166 H 290.399 -5.02364 1.25901 0
M  V30 3167 H 287.076 -4.02213 -1.1194 0
M  V30 3168 H 288.466 -6.35524 2.1808 0
M  V30 3169 N 291.186 -0.45159 -1.50991 0
M  V30 3170 C 292.416 0.108177 -2.06317 0
M  V30 3171 C 292.824 1.35774 -1.31765 0
M  V30 3172 O 292.167 1.79838 -0.374694 0
M  V30 3173 C 292.229 0.481659 -3.56259 0
M  V30 3174 C 291.893 -0.663114 -4.52163 0
M  V30 3175 C 292.89 -1.53947 -4.96585 0
M  V30 3176 C 290.575 -0.8479 -4.95092 0
M  V30 3177 C 292.569 -2.58518 -5.82621 0
M  V30 3178 C 290.256 -1.89686 -5.80915 0
M  V30 3179 C 291.254 -2.76388 -6.24579 0
M  V30 3180 O 290.942 -3.79482 -7.08695 0
M  V30 3181 H 290.674 0.00499183 -0.675982 0
M  V30 3182 H 293.228 -0.633659 -1.95381 0
M  V30 3183 H 291.458 1.27641 -3.65027 0
M  V30 3184 H 293.147 0.974233 -3.94035 0
M  V30 3185 H 293.913 -1.4083 -4.64103 0
M  V30 3186 H 289.792 -0.18258 -4.60638 0
M  V30 3187 H 293.336 -3.26224 -6.16623 0
M  V30 3188 H 289.233 -2.02817 -6.12809 0
M  V30 3189 H 290.001 -3.76234 -7.26905 0
M  V30 3190 N 292.664 1.56529 -0.183458 0
M  V30 3191 C 293.597 2.14417 0.781052 0
M  V30 3192 C 294.575 1.07761 1.21763 0
M  V30 3193 O 295.759 1.35807 1.30724 0
M  V30 3194 C 292.886 2.69361 2.05335 0
M  V30 3195 C 291.932 3.885 1.75982 0
M  V30 3196 S 292.765 5.27568 0.918256 0
M  V30 3197 C 293.921 5.85926 2.20095 0
M  V30 3198 H 294.154 2.95893 0.2889 0
M  V30 3199 H 291.687 1.54368 0.0313844 0
M  V30 3200 H 293.645 3.01662 2.78406 0
M  V30 3201 H 292.306 1.87949 2.51663 0
M  V30 3202 H 291.499 4.25314 2.70415 0
M  V30 3203 H 291.101 3.57149 1.10999 0
M  V30 3204 H 293.393 5.99579 3.15453 0
M  V30 3205 H 294.336 6.82761 1.87731 0
M  V30 3206 H 294.744 5.14438 2.32409 0
M  V30 3207 N 294.142 -0.090211 1.57342 0
M  V30 3208 C 295.367 -0.810082 1.90925 0
M  V30 3209 C 295.792 -1.71248 0.778187 0
M  V30 3210 O 295.15 -1.79278 -0.269991 0
M  V30 3211 C 295.198 -1.59529 3.23393 0
M  V30 3212 O 294.302 -2.70461 3.11327 0
M  V30 3213 H 293.643 -0.222231 0.625707 0
M  V30 3214 H 296.173 -0.0639716 2.045 0
M  V30 3215 H 296.183 -1.97847 3.5682 0
M  V30 3216 H 294.858 -0.933055 4.05299 0
M  V30 3217 H 293.435 -2.35135 2.89423 0
M  V30 3218 N 295.62 -1.53406 -0.361157 0
M  V30 3219 C 297.031 -1.61442 -0.937728 0
M  V30 3220 C 297.382 -0.48461 -1.90121 0
M  V30 3221 O 296.507 0.388312 -2.12888 0
M  V30 3222 C 297.102 -2.92624 -1.70753 0
M  V30 3223 C 295.661 -3.02981 -2.23337 0
M  V30 3224 C 294.808 -2.5677 -1.04712 0
M  V30 3225 H 297.759 -1.58083 -0.139816 0
M  V30 3226 H 297.78 -2.80675 -2.56908 0
M  V30 3227 H 297.292 -3.74834 -1.00604 0
M  V30 3228 H 295.393 -2.25368 -2.96715 0
M  V30 3229 H 295.506 -4.0814 -2.50916 0
M  V30 3230 H 293.87 -2.11752 -1.41539 0
M  V30 3231 H 294.653 -3.41402 -0.360539 0
M  V30 3232 N 297.098 0.621204 -1.44841 0
M  V30 3233 C 298.008 1.7612 -1.5498 0
M  V30 3234 C 299.024 1.68477 -0.434927 0
M  V30 3235 O 300.2 1.89076 -0.693693 0
M  V30 3236 C 297.265 3.1254 -1.50065 0
M  V30 3237 C 296.326 3.31741 -2.72482 0
M  V30 3238 C 295.559 4.61653 -2.67792 0
M  V30 3239 O 295.782 5.431 -1.74352 0
M  V30 3240 O 294.716 4.83271 -3.58794 0
M  V30 3241 H 298.542 1.70518 -2.51311 0
M  V30 3242 H 296.127 0.783643 -1.27198 0
M  V30 3243 H 298.009 3.93844 -1.49882 0
M  V30 3244 H 296.684 3.18663 -0.568806 0
M  V30 3245 H 295.591 2.50077 -2.7823 0
M  V30 3246 H 296.924 3.30486 -3.64746 0
M  V30 3247 N 298.576 1.31904 0.862503 0
M  V30 3248 C 299.539 1.20131 1.95195 0
M  V30 3249 C 300.539 0.126409 1.60302 0
M  V30 3250 O 301.729 0.376234 1.70089 0
M  V30 3251 C 298.861 0.845691 3.30244 0
M  V30 3252 H 300.054 2.16943 2.07064 0
M  V30 3253 H 297.607 1.15622 1.05172 0
M  V30 3254 H 298.342 -0.120957 3.24074 0
M  V30 3255 H 298.127 1.62276 3.56944 0
M  V30 3256 H 299.617 0.787418 4.10109 0
M  V30 3257 N 300.054 -1.07777 1.14986 0
M  V30 3258 C 300.984 -2.16865 0.865557 0
M  V30 3259 C 301.965 -1.69123 -0.182083 0
M  V30 3260 O 303.15 -1.94164 -0.0373815 0
M  V30 3261 C 300.28 -3.45539 0.349313 0
M  V30 3262 C 299.234 -4.06708 1.33313 0
M  V30 3263 C 298.56 -5.30411 0.675918 0
M  V30 3264 C 299.86 -4.47241 2.69764 0
M  V30 3265 H 301.554 -2.40905 1.77778 0
M  V30 3266 H 299.1 -1.15781 0.856203 0
M  V30 3267 H 301.053 -4.21174 0.137983 0
M  V30 3268 H 299.777 -3.21072 -0.598362 0
M  V30 3269 H 298.436 -3.33112 1.53075 0
M  V30 3270 H 298.084 -5.02232 -0.277767 0
M  V30 3271 H 297.784 -5.72293 1.33244 0
M  V30 3272 H 299.308 -6.08755 0.474262 0
M  V30 3273 H 300.722 -5.14025 2.53873 0
M  V30 3274 H 299.119 -5.00062 3.3175 0
M  V30 3275 H 300.189 -3.58818 3.26156 0
M  V30 3276 N 301.532 -0.945985 -1.26051 0
M  V30 3277 C 302.479 -0.45809 -2.26208 0
M  V30 3278 C 303.449 0.484816 -1.58867 0
M  V30 3279 O 304.634 0.399969 -1.86561 0
M  V30 3280 C 301.774 0.266131 -3.44072 0
M  V30 3281 C 300.887 -0.713005 -4.26075 0
M  V30 3282 C 300.022 0.0329013 -5.3119 0
M  V30 3283 C 299.061 -0.93774 -6.04874 0
M  V30 3284 N 298.198 -0.223274 -7.01745 0
M  V30 3285 H 303.038 -1.3171 -2.67313 0
M  V30 3286 H 300.575 -0.66069 -1.31428 0
M  V30 3287 H 302.533 0.702514 -4.11243 0
M  V30 3288 H 301.163 1.08925 -3.03867 0
M  V30 3289 H 300.215 -1.26789 -3.58648 0
M  V30 3290 H 301.527 -1.45406 -4.77136 0
M  V30 3291 H 300.681 0.528335 -6.04395 0
M  V30 3292 H 299.42 0.806801 -4.8098 0
M  V30 3293 H 298.425 -1.44425 -5.30492 0
M  V30 3294 H 299.65 -1.71172 -6.57173 0
M  V30 3295 H 297.596 0.532046 -6.53839 0
M  V30 3296 H 297.513 -0.90357 -7.50581 0
M  V30 3297 H 298.781 0.250907 -7.79096 0
M  V30 3298 N 303.011 1.40521 -0.713556 0
M  V30 3299 C 303.961 2.27971 -0.036165 0
M  V30 3300 C 304.945 1.43151 0.734623 0
M  V30 3301 O 306.137 1.66261 0.607158 0
M  V30 3302 C 303.266 3.31661 0.886331 0
M  V30 3303 C 302.352 4.23955 0.110836 0
M  V30 3304 N 302.743 4.97641 -0.904847 0
M  V30 3305 C 301.041 4.44674 0.343692 0
M  V30 3306 C 301.742 5.65322 -1.37064 0
M  V30 3307 N 300.718 5.39162 -0.693168 0
M  V30 3308 H 304.52 2.82384 -0.814645 0
M  V30 3309 H 302.034 1.52948 -0.545963 0
M  V30 3310 H 304.031 3.93154 1.38692 0
M  V30 3311 H 302.691 2.78808 1.66421 0
M  V30 3312 H 303.702 5.01689 -1.28563 0
M  V30 3313 H 300.379 4.02801 1.09805 0
M  V30 3314 H 301.769 6.34359 -2.21447 0
M  V30 3315 N 304.489 0.459591 1.5075 0
M  V30 3316 C 305.421 -0.37665 2.26084 0
M  V30 3317 C 306.434 -0.967109 1.30961 0
M  V30 3318 O 307.623 -0.857468 1.56556 0
M  V30 3319 C 304.723 -1.54112 3.01832 0
M  V30 3320 C 303.896 -1.06553 4.24223 0
M  V30 3321 C 302.955 -2.1027 4.82362 0
M  V30 3322 O 301.981 -1.68798 5.43595 0
M  V30 3323 N 303.183 -3.42974 4.68347 0
M  V30 3324 H 305.948 0.269124 2.98489 0
M  V30 3325 H 303.509 0.28972 1.59287 0
M  V30 3326 H 305.501 -2.23165 3.37608 0
M  V30 3327 H 304.071 -2.0918 2.32298 0
M  V30 3328 H 303.291 -0.201274 3.93686 0
M  V30 3329 H 304.579 -0.725516 5.03601 0
M  V30 3330 H 303.977 -3.79385 4.19623 0
M  V30 3331 H 302.534 -4.07858 5.08424 0
M  V30 3332 N 305.967 -1.56429 0.191757 0
M  V30 3333 C 307.215 -1.97095 -0.447006 0
M  V30 3334 C 307.536 -1.07967 -1.62383 0
M  V30 3335 O 306.806 -0.150248 -1.95323 0
M  V30 3336 H 305.386 -0.727832 -0.168135 0
M  V30 3337 H 308.048 -1.92911 0.27771 0
M  V30 3338 H 307.144 -3.01848 -0.793371 0
M  V30 3339 N 307.445 0.0818655 -1.57387 0
M  V30 3340 C 308.675 0.794954 -1.90694 0
M  V30 3341 C 309.083 1.72147 -0.784982 0
M  V30 3342 O 308.426 1.81974 0.251196 0
M  V30 3343 C 308.488 1.65042 -3.19376 0
M  V30 3344 C 308.152 0.894337 -4.48164 0
M  V30 3345 C 309.149 0.21813 -5.19442 0
M  V30 3346 C 306.834 0.864495 -4.94805 0
M  V30 3347 C 308.828 -0.477802 -6.35607 0
M  V30 3348 C 306.515 0.164785 -6.10878 0
M  V30 3349 C 307.513 -0.505173 -6.81129 0
M  V30 3350 O 307.201 -1.19363 -7.94989 0
M  V30 3351 H 306.933 0.231779 -0.635023 0
M  V30 3352 H 309.487 0.059493 -2.05314 0
M  V30 3353 H 307.717 2.42844 -3.00938 0
M  V30 3354 H 309.406 2.24127 -3.38411 0
M  V30 3355 H 310.172 0.232558 -4.84442 0
M  V30 3356 H 306.051 1.37542 -4.40004 0
M  V30 3357 H 309.595 -1.00129 -6.90377 0
M  V30 3358 H 305.492 0.148249 -6.4533 0
M  V30 3359 H 306.26 -1.10188 -8.11049 0
M  V30 3360 N 308.923 1.53595 0.353017 0
M  V30 3361 C 310.2 1.61002 1.11075 0
M  V30 3362 C 310.58 0.425356 2.0677 0
M  V30 3363 O 309.928 -0.583267 2.2093 0
M  V30 3364 C 310.138 2.96631 1.83877 0
M  V30 3365 C 311.486 3.51653 2.37961 0
M  V30 3366 O 312.51 2.98743 1.93987 0
M  V30 3367 O 311.369 4.44177 3.18386 0
M  V30 3368 H 308.463 0.650825 0.510251 0
M  V30 3369 H 311.009 1.6594 0.35527 0
M  V30 3370 H 309.781 3.74293 1.14108 0
M  V30 3371 H 309.404 2.95242 2.66304 0
M  V30 3372 N 310.401 -0.613514 1.45168 0
M  V30 3373 C 311.629 -1.39946 1.5239 0
M  V30 3374 C 312.044 -1.88167 0.154531 0
M  V30 3375 O 311.401 -1.61872 -0.842843 0
M  V30 3376 C 311.452 -2.60795 2.50337 0
M  V30 3377 O 311.173 -2.1458 3.81952 0
M  V30 3378 C 312.674 -3.53723 2.67198 0
M  V30 3379 H 309.894 -0.428593 0.516284 0
M  V30 3380 H 312.438 -0.748753 1.903 0
M  V30 3381 H 310.593 -3.21919 2.15515 0
M  V30 3382 H 311.007 -2.93055 4.34993 0
M  V30 3383 H 312.481 -4.35079 3.39721 0
M  V30 3384 H 312.958 -4.0368 1.73029 0
M  V30 3385 H 313.564 -2.98456 3.02992 0
M  V30 3386 N 311.879 -1.3236 -0.855495 0
M  V30 3387 C 312.826 -1.21225 -1.964 0
M  V30 3388 C 313.796 -0.0946204 -1.6583 0
M  V30 3389 O 314.981 -0.27002 -1.8888 0
M  V30 3390 C 312.121 -0.940419 -3.32039 0
M  V30 3391 C 311.234 -2.14276 -3.75113 0
M  V30 3392 C 310.369 -1.80648 -4.9954 0
M  V30 3393 C 309.408 -2.97208 -5.35102 0
M  V30 3394 N 308.545 -2.63678 -6.50706 0
M  V30 3395 H 313.385 -2.16042 -2.05255 0
M  V30 3396 H 310.922 -1.07451 -1.00463 0
M  V30 3397 H 312.88 -0.763311 -4.10158 0
M  V30 3398 H 311.51 -0.0290413 -3.22787 0
M  V30 3399 H 310.562 -2.43017 -2.92655 0
M  V30 3400 H 311.874 -3.01468 -3.97389 0
M  V30 3401 H 311.028 -1.59484 -5.85363 0
M  V30 3402 H 309.767 -0.906678 -4.79198 0
M  V30 3403 H 308.772 -3.19004 -4.47791 0
M  V30 3404 H 309.997 -3.87918 -5.57401 0
M  V30 3405 H 307.943 -1.76238 -6.31883 0
M  V30 3406 H 307.86 -3.444 -6.72997 0
M  V30 3407 H 309.128 -2.45942 -7.39684 0
M  V30 3408 N 313.357 1.07166 -1.15556 0
M  V30 3409 C 314.582 1.84053 -0.955988 0
M  V30 3410 C 315.007 1.81586 0.490739 0
M  V30 3411 O 314.365 1.21018 1.34997 0
M  V30 3412 C 314.413 3.28957 -1.47714 0
M  V30 3413 O 313.517 4.06795 -0.677593 0
M  V30 3414 H 312.858 0.569842 -0.340847 0
M  V30 3415 H 315.388 1.35178 -1.53584 0
M  V30 3416 H 315.398 3.79788 -1.4908 0
M  V30 3417 H 314.073 3.30068 -2.53037 0
M  V30 3418 H 312.65 3.6561 -0.733721 0
M  V30 3419 N 314.835 0.952656 1.25548 0
M  V30 3420 C 316.112 0.523818 1.88456 0
M  V30 3421 C 316.492 -0.998871 1.85973 0
M  V30 3422 O 315.84 -1.86381 1.3219 0
M  V30 3423 C 316.05 1.0982 3.31271 0
M  V30 3424 C 317.398 1.17385 4.08051 0
M  V30 3425 O 318.422 1.04961 3.40384 0
M  V30 3426 O 317.281 1.36852 5.29088 0
M  V30 3427 H 314.375 0.172485 0.808813 0
M  V30 3428 H 316.921 1.04596 1.33633 0
M  V30 3429 H 315.693 2.1415 3.27499 0
M  V30 3430 H 315.316 0.559191 3.93648 0
M  V30 3431 N 316.313 -1.40141 0.720998 0
M  V30 3432 C 317.562 -2.0002 0.259804 0
M  V30 3433 C 317.875 -1.57839 -1.15526 0
M  V30 3434 O 319.081 -2.10455 -1.71525 0
M  V30 3435 C 317.537 -3.57516 0.413566 0
M  V30 3436 C 317.145 -4.08667 1.83562 0
M  V30 3437 C 318.889 -4.24498 0.0134387 0
M  V30 3438 C 316.796 -5.58686 1.93968 0
M  V30 3439 H 315.726 -0.748195 0.0933806 0
M  V30 3440 H 318.377 -1.60313 0.892866 0
M  V30 3441 H 316.759 -3.9495 -0.288169 0
M  V30 3442 H 317.933 -3.82598 2.56817 0
M  V30 3443 H 316.248 -3.543 2.1877 0
M  V30 3444 H 318.845 -5.34654 0.0703954 0
M  V30 3445 H 319.188 -4.03375 -1.02927 0
M  V30 3446 H 319.721 -3.92188 0.665815 0
M  V30 3447 H 316.46 -5.8467 2.96379 0
M  V30 3448 H 315.98 -5.86602 1.25131 0
M  V30 3449 H 317.659 -6.23875 1.71431 0
M  V30 3450 N 317.792 -0.46758 -1.50504 0
M  V30 3451 C 319.038 0.0808869 -2.03239 0
M  V30 3452 C 319.393 1.37721 -1.34353 0
M  V30 3453 O 318.686 1.86016 -0.459194 0
M  V30 3454 C 318.88 0.323995 -3.55928 0
M  V30 3455 C 318.709 -0.947215 -4.39611 0
M  V30 3456 C 317.479 -1.48951 -4.82848 0
M  V30 3457 C 319.677 -1.84166 -4.80195 0
M  V30 3458 N 317.659 -2.71011 -5.50842 0
M  V30 3459 C 319.03 -2.90815 -5.47564 0
M  V30 3460 C 321.085 -1.85246 -4.62156 0
M  V30 3461 C 319.788 -3.98529 -5.98805 0
M  V30 3462 C 321.814 -2.91914 -5.14335 0
M  V30 3463 C 321.176 -3.97282 -5.81676 0
M  V30 3464 H 317.275 -0.0103394 -0.781932 0
M  V30 3465 H 319.859 -0.635003 -1.84054 0
M  V30 3466 H 318.03 1.00892 -3.75067 0
M  V30 3467 H 319.762 0.866492 -3.95315 0
M  V30 3468 H 316.517 -1.03918 -4.62058 0
M  V30 3469 H 316.941 -3.32988 -5.89447 0
M  V30 3470 H 321.583 -1.05103 -4.09528 0
M  V30 3471 H 319.301 -4.79491 -6.50472 0
M  V30 3472 H 322.887 -2.93729 -5.0221 0
M  V30 3473 H 321.767 -4.78462 -6.21324 0
M  V30 3474 N 319.27 1.56325 -0.20005 0
M  V30 3475 C 320.495 2.02548 0.44597 0
M  V30 3476 C 320.92 1.07922 1.5406 0
M  V30 3477 O 320.278 0.0635775 1.81188 0
M  V30 3478 C 320.326 3.47175 0.974761 0
M  V30 3479 O 319.43 3.55671 2.08739 0
M  V30 3480 H 318.771 0.655862 0.103638 0
M  V30 3481 H 321.301 2.02201 -0.312381 0
M  V30 3482 H 321.311 3.87067 1.2901 0
M  V30 3483 H 319.986 4.15538 0.17347 0
M  V30 3484 H 318.563 3.27657 1.78032 0
M  V30 3485 N 320.748 -0.0735177 1.57428 0
M  V30 3486 C 321.678 -1.0879 2.06608 0
M  V30 3487 C 322.659 -1.40473 0.959237 0
M  V30 3488 O 323.844 -1.5013 1.23185 0
M  V30 3489 C 320.974 -2.40183 2.50857 0
M  V30 3490 C 319.928 -2.22858 3.65402 0
M  V30 3491 C 319.254 -3.59619 3.957 0
M  V30 3492 C 320.554 -1.65123 4.95511 0
M  V30 3493 H 322.248 -0.678673 2.91607 0
M  V30 3494 H 319.794 -0.325013 1.40284 0
M  V30 3495 H 321.747 -3.11437 2.83874 0
M  V30 3496 H 320.471 -2.83083 1.62885 0
M  V30 3497 H 319.13 -1.54045 3.32664 0
M  V30 3498 H 318.778 -4.00086 3.04861 0
M  V30 3499 H 318.478 -3.48866 4.72828 0
M  V30 3500 H 320.002 -4.32306 4.31212 0
M  V30 3501 H 321.416 -2.26241 5.26771 0
M  V30 3502 H 319.813 -1.65071 5.7695 0
M  V30 3503 H 320.883 -0.612559 4.81015 0
M  V30 3504 N 322.226 -1.5378 -0.344866 0
M  V30 3505 C 323.189 -1.80981 -1.40637 0
M  V30 3506 C 324.189 -0.680816 -1.45676 0
M  V30 3507 O 325.379 -0.949095 -1.46075 0
M  V30 3508 C 322.511 -1.95063 -2.79577 0
M  V30 3509 H 323.704 -2.75803 -1.17783 0
M  V30 3510 H 321.257 -1.45173 -0.579181 0
M  V30 3511 H 321.992 -1.02379 -3.07716 0
M  V30 3512 H 321.777 -2.77198 -2.77315 0
M  V30 3513 H 323.267 -2.17629 -3.56409 0
M  V30 3514 N 323.704 0.605807 -1.45491 0
M  V30 3515 C 324.944 1.37606 -1.51142 0
M  V30 3516 C 325.308 1.91413 -0.150075 0
M  V30 3517 O 326.509 2.68677 -0.0812828 0
M  V30 3518 C 324.78 2.49197 -2.56195 0
M  V30 3519 S 326.339 3.36953 -2.81083 0
M  V30 3520 H 323.157 0.469118 -0.534275 0
M  V30 3521 H 325.759 0.698845 -1.82583 0
M  V30 3522 H 324.463 2.0802 -3.53773 0
M  V30 3523 H 323.994 3.21717 -2.26411 0
M  V30 3524 H 326.009 4.47395 -2.14598 0
M  V30 3525 N 325.182 1.32811 0.848464 0
M  V30 3526 C 326.431 1.23075 1.59798 0
M  V30 3527 C 326.744 -0.204419 1.94529 0
M  V30 3528 O 327.95 -0.423701 2.68173 0
M  V30 3529 C 326.406 2.15594 2.88179 0
M  V30 3530 C 326.014 3.64228 2.60849 0
M  V30 3531 C 327.758 2.14709 3.66197 0
M  V30 3532 C 325.665 4.48689 3.85269 0
M  V30 3533 H 324.595 0.457091 0.599653 0
M  V30 3534 H 327.246 1.57813 0.936342 0
M  V30 3535 H 325.628 1.73778 3.55833 0
M  V30 3536 H 326.802 4.14424 2.01467 0
M  V30 3537 H 325.117 3.67306 1.96151 0
M  V30 3538 H 327.714 2.75046 4.58534 0
M  V30 3539 H 328.057 1.13966 4.00397 0
M  V30 3540 H 328.59 2.54837 3.05455 0
M  V30 3541 H 325.329 5.5027 3.56207 0
M  V30 3542 H 324.849 4.03241 4.44024 0
M  V30 3543 H 326.528 4.62006 4.52946 0
M  V30 3544 N 326.66 -1.06551 1.16123 0
M  V30 3545 C 327.59 -2.15935 0.88851 0
M  V30 3546 C 328.571 -1.69306 -0.164135 0
M  V30 3547 O 329.756 -1.94193 -0.0167857 0
M  V30 3548 C 326.886 -3.45149 0.385942 0
M  V30 3549 C 325.84 -4.05271 1.3762 0
M  V30 3550 C 325.166 -5.29664 0.732137 0
M  V30 3551 C 326.466 -4.44355 2.74493 0
M  V30 3552 H 328.16 -2.39006 1.80323 0
M  V30 3553 H 325.706 -1.14866 0.868435 0
M  V30 3554 H 327.659 -4.21004 0.182647 0
M  V30 3555 H 326.383 -3.21689 -0.564274 0
M  V30 3556 H 325.042 -3.3147 1.56599 0
M  V30 3557 H 324.69 -5.02499 -0.224483 0
M  V30 3558 H 324.39 -5.70848 1.39307 0
M  V30 3559 H 325.914 -6.08218 0.538802 0
M  V30 3560 H 327.328 -5.11303 2.59311 0
M  V30 3561 H 325.725 -4.96515 3.37035 0
M  V30 3562 H 326.795 -3.55339 3.29943 0
M  V30 3563 N 328.138 -0.959301 -1.25041 0
M  V30 3564 C 329.368 -0.63303 -1.96663 0
M  V30 3565 C 329.776 0.800031 -1.71453 0
M  V30 3566 O 329.119 1.54736 -0.99008 0
M  V30 3567 C 329.181 -0.817523 -3.50081 0
M  V30 3568 C 328.845 -2.22863 -3.98975 0
M  V30 3569 C 329.842 -3.20569 -4.09306 0
M  V30 3570 C 327.527 -2.55407 -4.32519 0
M  V30 3571 C 329.521 -4.4891 -4.52503 0
M  V30 3572 C 327.208 -3.83976 -4.754 0
M  V30 3573 C 328.206 -4.8054 -4.85356 0
M  V30 3574 O 327.894 -6.06817 -5.27284 0
M  V30 3575 H 327.626 -0.235866 -0.633516 0
M  V30 3576 H 330.18 -1.2874 -1.60047 0
M  V30 3577 H 328.41 -0.105992 -3.86555 0
M  V30 3578 H 330.099 -0.491604 -4.02912 0
M  V30 3579 H 330.865 -2.96753 -3.83618 0
M  V30 3580 H 326.744 -1.8097 -4.23994 0
M  V30 3581 H 330.288 -5.24283 -4.60188 0
M  V30 3582 H 326.185 -4.07596 -5.00535 0
M  V30 3583 H 326.953 -6.10262 -5.45457 0
M  V30 3584 N 329.616 1.39756 -0.72842 0
M  V30 3585 C 330.526 2.34444 -0.0855374 0
M  V30 3586 C 331.542 1.57976 0.729356 0
M  V30 3587 O 332.718 1.90301 0.659346 0
M  V30 3588 C 329.783 3.36965 0.815798 0
M  V30 3589 C 328.844 4.29299 -0.0105996 0
M  V30 3590 C 328.077 5.26923 0.84781 0
M  V30 3591 O 328.3 5.30859 2.08673 0
M  V30 3592 O 327.234 6.01249 0.279969 0
M  V30 3593 H 331.06 2.91065 -0.866892 0
M  V30 3594 H 328.645 1.4117 -0.48902 0
M  V30 3595 H 330.527 3.99804 1.33171 0
M  V30 3596 H 329.202 2.82739 1.57608 0
M  V30 3597 H 328.109 3.69703 -0.571877 0
M  V30 3598 H 329.442 4.86712 -0.73295 0
M  V30 3599 N 331.094 0.475555 1.50254 0
M  V30 3600 C 332.027 -0.362381 2.25304 0
M  V30 3601 C 333.005 -0.992393 1.28803 0
M  V30 3602 O 334.189 -1.02746 1.58036 0
M  V30 3603 C 331.316 -1.50813 3.03271 0
M  V30 3604 C 330.362 -0.995044 4.1473 0
M  V30 3605 S 331.195 0.0938436 5.35418 0
M  V30 3606 C 332.351 -1.05567 6.16933 0
M  V30 3607 H 332.584 0.274686 2.96028 0
M  V30 3608 H 330.117 0.260495 1.52187 0
M  V30 3609 H 332.075 -2.16476 3.48781 0
M  V30 3610 H 330.736 -2.11672 2.32064 0
M  V30 3611 H 329.929 -1.85293 4.68703 0
M  V30 3612 H 329.531 -0.416052 3.71679 0
M  V30 3613 H 331.823 -1.96636 6.48337 0
M  V30 3614 H 332.766 -0.555109 7.05921 0
M  V30 3615 H 333.174 -1.31151 5.49053 0
M  V30 3616 N 332.573 -1.56217 0.208337 0
M  V30 3617 C 333.813 -1.99849 -0.428927 0
M  V30 3618 C 334.177 -1.09262 -1.57879 0
M  V30 3619 O 335.378 -1.42185 -2.28116 0
M  V30 3620 C 333.649 -3.46777 -0.864879 0
M  V30 3621 S 335.208 -4.12434 -1.49811 0
M  V30 3622 H 332.026 -0.697742 -0.136665 0
M  V30 3623 H 334.628 -1.92953 0.314519 0
M  V30 3624 H 333.332 -4.10396 -0.0181326 0
M  V30 3625 H 332.863 -3.57518 -1.64147 0
M  V30 3626 H 334.878 -4.10532 -2.78707 0
M  V30 3627 N 334.051 0.0651679 -1.57465 0
M  V30 3628 C 335.291 0.768329 -1.8941 0
M  V30 3629 C 335.655 1.74406 -0.802894 0
M  V30 3630 O 336.856 2.49281 -1.0056 0
M  V30 3631 C 335.127 1.45199 -3.26576 0
M  V30 3632 S 336.686 2.1893 -3.80283 0
M  V30 3633 H 333.504 0.255359 -0.663561 0
M  V30 3634 H 336.106 0.024167 -1.95485 0
M  V30 3635 H 334.81 0.728123 -4.03889 0
M  V30 3636 H 334.341 2.23545 -3.23715 0
M  V30 3637 H 336.356 3.45551 -3.56102 0
M  V30 3638 N 335.529 1.53961 0.336706 0
M  V30 3639 C 336.462 1.77255 1.43722 0
M  V30 3640 C 337.44 0.62193 1.50236 0
M  V30 3641 O 338.624 0.857874 1.67847 0
M  V30 3642 C 335.751 1.87733 2.81912 0
M  V30 3643 C 334.797 3.09933 2.92991 0
M  V30 3644 S 335.63 4.68836 2.58753 0
M  V30 3645 C 336.786 4.82202 3.99039 0
M  V30 3646 H 337.019 2.70322 1.23748 0
M  V30 3647 H 334.552 1.44917 0.532777 0
M  V30 3648 H 336.51 1.94455 3.61521 0
M  V30 3649 H 335.171 0.956666 2.99177 0
M  V30 3650 H 334.364 3.1396 3.94265 0
M  V30 3651 H 333.966 3.01472 2.21338 0
M  V30 3652 H 336.258 4.64032 4.9364 0
M  V30 3653 H 337.201 5.84298 4.00002 0
M  V30 3654 H 337.609 4.10604 3.87382 0
M  V30 3655 N 337.007 -0.598083 1.45811 0
M  V30 3656 C 337.955 -1.72932 1.55555 0
M  V30 3657 C 338.949 -1.63984 0.424921 0
M  V30 3658 O 340.155 -1.69663 0.601205 0
M  V30 3659 H 336.53 -0.571489 0.488779 0
M  V30 3660 H 338.501 -1.61842 2.50699 0
M  V30 3661 C 337.25 -3.11318 1.54843 0
M  V30 3662 H 336.573 -3.18867 2.41172 0
M  V30 3663 H 338.013 -3.90274 1.65717 0
M  V30 3664 C 336.472 -3.3578 0.274427 0
M  V30 3665 O 337.002 -3.9654 -0.641778 0
M  V30 3666 N 335.208 -2.90119 0.167139 0
M  V30 3667 H 334.755 -2.40855 0.913596 0
M  V30 3668 H 334.713 -3.0686 -0.684435 0
M  V30 3669 N 338.485 -1.33259 -0.841409 0
M  V30 3670 C 339.435 -1.19872 -1.93945 0
M  V30 3671 C 340.419 -0.102269 -1.60575 0
M  V30 3672 O 341.611 -0.330114 -1.73894 0
M  V30 3673 C 338.74 -0.937517 -3.30251 0
M  V30 3674 C 337.826 -2.07629 -3.69799 0
M  V30 3675 N 338.217 -3.32604 -3.81062 0
M  V30 3676 C 336.515 -1.98242 -3.9952 0
M  V30 3677 C 337.216 -4.07275 -4.15333 0
M  V30 3678 N 336.192 -3.35691 -4.27566 0
M  V30 3679 H 339.994 -2.14604 -2.00805 0
M  V30 3680 H 337.508 -1.2523 -1.03398 0
M  V30 3681 H 339.505 -0.822545 -4.08705 0
M  V30 3682 H 338.165 0.00128798 -3.247 0
M  V30 3683 H 339.176 -3.67382 -3.65035 0
M  V30 3684 H 335.853 -1.12005 -4.02195 0
M  V30 3685 H 337.243 -5.1511 -4.31406 0
M  V30 3686 N 339.963 1.05934 -1.16686 0
M  V30 3687 C 340.926 2.11669 -0.879144 0
M  V30 3688 C 341.926 1.60294 0.127445 0
M  V30 3689 O 343.116 1.7389 -0.103865 0
M  V30 3690 C 340.248 3.39438 -0.315425 0
M  V30 3691 H 341.441 2.38626 -1.81653 0
M  V30 3692 H 338.994 1.22058 -0.976299 0
M  V30 3693 H 339.729 3.18132 0.629468 0
M  V30 3694 H 339.514 3.78034 -1.04079 0
M  V30 3695 H 341.004 4.17391 -0.132189 0
M  V30 3696 N 341.441 0.965919 1.2453 0
M  V30 3697 C 342.688 0.626831 1.92554 0
M  V30 3698 C 343.016 -0.837739 1.75534 0
M  V30 3699 O 342.271 -1.61793 1.10098 0
M  V30 3700 C 342.57 0.945428 3.44669 0
M  V30 3701 C 342.236 2.39785 3.81856 0
M  V30 3702 C 340.898 2.79483 3.91718 0
M  V30 3703 C 343.25 3.34055 4.00071 0
M  V30 3704 C 340.578 4.12496 4.1721 0
M  V30 3705 C 342.93 4.66694 4.27059 0
M  V30 3706 C 341.594 5.06172 4.3514 0
M  V30 3707 H 340.864 0.229374 0.704605 0
M  V30 3708 H 343.511 1.21707 1.4785 0
M  V30 3709 H 341.816 0.272926 3.90848 0
M  V30 3710 H 343.513 0.661484 3.95507 0
M  V30 3711 H 340.103 2.08003 3.74743 0
M  V30 3712 H 344.287 3.04571 3.91855 0
M  V30 3713 H 339.543 4.42709 4.21685 0
M  V30 3714 H 343.717 5.3971 4.40097 0
M  V30 3715 H 341.344 6.09262 4.54646 0
M  V30 3716 N 342.919 -1.39368 0.735821 0
M  V30 3717 C 343.882 -2.2896 0.104874 0
M  V30 3718 C 344.882 -1.46347 -0.666274 0
M  V30 3719 O 346.072 -1.67014 -0.49517 0
M  V30 3720 C 343.204 -3.29857 -0.860656 0
M  V30 3721 H 344.397 -2.86259 0.894205 0
M  V30 3722 H 341.95 -1.48029 0.501704 0
M  V30 3723 H 342.685 -2.77615 -1.67631 0
M  V30 3724 H 342.47 -3.9087 -0.310327 0
M  V30 3725 H 343.96 -3.96893 -1.29867 0
M  V30 3726 N 344.397 -0.483516 -1.5 0
M  V30 3727 C 345.645 0.067027 -2.01989 0
M  V30 3728 C 345.966 1.3909 -1.36671 0
M  V30 3729 O 345.236 1.88978 -0.516152 0
M  V30 3730 H 343.816 0.0277606 -0.746484 0
M  V30 3731 H 346.478 -0.636773 -1.84204 0
M  V30 3732 H 345.574 0.209484 -3.11396 0
M  V30 3733 N 345.875 1.56104 -0.216619 0
M  V30 3734 C 347.1 2.0301 0.424462 0
M  V30 3735 C 347.525 1.0955 1.52907 0
M  V30 3736 O 346.883 0.0827914 1.81111 0
M  V30 3737 C 346.931 3.4819 0.937883 0
M  V30 3738 O 346.035 3.57865 2.04955 0
M  V30 3739 H 345.376 0.656925 0.0966755 0
M  V30 3740 H 347.906 2.01859 -0.33381 0
M  V30 3741 H 347.916 3.88413 1.24897 0
M  V30 3742 H 346.591 4.15699 0.129387 0
M  V30 3743 H 345.168 3.29527 1.74546 0
M  V30 3744 N 347.353 -0.0568162 1.57498 0
M  V30 3745 C 348.301 -1.08452 2.05769 0
M  V30 3746 C 349.295 -1.39164 0.965903 0
M  V30 3747 O 350.501 -1.38395 1.15095 0
M  V30 3748 H 346.876 -0.367148 0.656282 0
M  V30 3749 H 348.847 -0.651368 2.91204 0
M  V30 3750 C 347.596 -2.38543 2.52968 0
M  V30 3751 H 346.919 -2.15765 3.36579 0
M  V30 3752 H 348.359 -3.08863 2.90481 0
M  V30 3753 C 346.818 -3.05562 1.41893 0
M  V30 3754 O 347.348 -3.94262 0.769442 0
M  V30 3755 N 345.554 -2.6643 1.16032 0
M  V30 3756 H 345.101 -1.94387 1.6903 0
M  V30 3757 H 345.059 -3.11593 0.419219 0
M  V30 3758 N 348.832 -1.54138 -0.328536 0
M  V30 3759 C 350.079 -1.72105 -1.06706 0
M  V30 3760 C 350.407 -0.492111 -1.88171 0
M  V30 3761 O 349.662 0.526153 -1.88494 0
M  V30 3762 C 349.961 -2.9457 -2.02393 0
M  V30 3763 C 349.627 -4.29544 -1.37122 0
M  V30 3764 C 348.289 -4.6624 -1.19052 0
M  V30 3765 C 350.641 -5.1333 -0.902331 0
M  V30 3766 C 347.969 -5.84325 -0.527331 0
M  V30 3767 C 350.321 -6.32094 -0.252988 0
M  V30 3768 C 348.985 -6.67473 -0.0600901 0
M  V30 3769 H 348.255 -0.629775 -0.390466 0
M  V30 3770 H 350.902 -1.88372 -0.34473 0
M  V30 3771 H 349.207 -2.72969 -2.81061 0
M  V30 3772 H 350.904 -3.05665 -2.59557 0
M  V30 3773 H 347.494 -4.0067 -1.52188 0
M  V30 3774 H 351.678 -4.855 -1.02974 0
M  V30 3775 H 346.934 -6.103 -0.366634 0
M  V30 3776 H 351.108 -6.96299 0.118366 0
M  V30 3777 H 348.735 -7.58832 0.455828 0
M  V30 3778 N 350.31 0.590341 -1.46126 0
M  V30 3779 C 351.24 1.71032 -1.58966 0
M  V30 3780 C 352.221 1.64302 -0.440335 0
M  V30 3781 O 353.406 1.82436 -0.665634 0
M  V30 3782 C 350.536 3.09665 -1.57241 0
M  V30 3783 C 349.49 3.31221 -2.71066 0
M  V30 3784 C 348.816 4.70303 -2.54399 0
M  V30 3785 C 350.116 3.19796 -4.1295 0
M  V30 3786 H 351.81 1.60543 -2.52718 0
M  V30 3787 H 349.356 0.770933 -1.21625 0
M  V30 3788 H 351.309 3.87831 -1.64819 0
M  V30 3789 H 350.033 3.21036 -0.600289 0
M  V30 3790 H 348.692 2.55452 -2.62944 0
M  V30 3791 H 348.34 4.78429 -1.55288 0
M  V30 3792 H 348.04 4.85679 -3.30741 0
M  V30 3793 H 349.564 5.50647 -2.63857 0
M  V30 3794 H 350.978 3.87815 -4.22223 0
M  V30 3795 H 349.375 3.46696 -4.89818 0
M  V30 3796 H 350.445 2.16983 -4.33643 0
M  V30 3797 N 351.788 1.33704 0.83433 0
M  V30 3798 C 353.013 1.28615 1.62705 0
M  V30 3799 C 353.438 -0.139242 1.87584 0
M  V30 3800 O 352.796 -1.09734 1.4432 0
M  V30 3801 C 352.844 2.07139 2.95171 0
M  V30 3802 O 351.948 1.4331 3.86699 0
M  V30 3803 H 351.289 0.44226 0.49528 0
M  V30 3804 H 353.819 1.76335 1.03766 0
M  V30 3805 H 353.829 2.18073 3.44831 0
M  V30 3806 H 352.504 3.10779 2.76386 0
M  V30 3807 H 351.081 1.4105 3.45195 0
M  V30 3808 N 353.266 -1.05314 1.17247 0
M  V30 3809 C 354.515 -1.77685 0.954521 0
M  V30 3810 C 354.828 -1.88616 -0.518025 0
M  V30 3811 O 356.034 -2.57714 -0.854144 0
M  V30 3812 C 354.49 -3.19402 1.65863 0
M  V30 3813 C 354.098 -3.16605 3.16963 0
M  V30 3814 C 355.842 -3.96237 1.52303 0
M  V30 3815 C 353.749 -4.53103 3.80068 0
M  V30 3816 H 352.679 -0.666 0.353496 0
M  V30 3817 H 355.33 -1.1805 1.40486 0
M  V30 3818 H 353.712 -3.79355 1.13602 0
M  V30 3819 H 354.886 -2.66176 3.76148 0
M  V30 3820 H 353.201 -2.53268 3.30521 0
M  V30 3821 H 355.798 -4.97157 1.96822 0
M  V30 3822 H 356.141 -4.136 0.473401 0
M  V30 3823 H 356.674 -3.42829 2.01775 0
M  V30 3824 H 353.413 -4.40946 4.85023 0
M  V30 3825 H 352.933 -5.03686 3.2567 0
M  V30 3826 H 354.612 -5.22045 3.82202 0
M  V30 3827 N 354.744 -0.972509 -1.24016 0
M  V30 3828 C 355.99 -0.637978 -1.92504 0
M  V30 3829 C 356.323 0.825383 -1.75787 0
M  V30 3830 O 355.598 1.59442 -1.11393 0
M  V30 3831 C 355.881 -1.01942 -3.45369 0
M  V30 3832 C 355.734 -2.53983 -3.71231 0
M  V30 3833 C 357.053 -0.55751 -4.36555 0
M  V30 3834 H 354.172 -0.233248 -0.699117 0
M  V30 3835 H 356.814 -1.21238 -1.46292 0
M  V30 3836 H 354.964 -0.530656 -3.84859 0
M  V30 3837 H 356.636 -3.10374 -3.41271 0
M  V30 3838 H 354.879 -2.96968 -3.16216 0
M  V30 3839 H 355.55 -2.75723 -4.78206 0
M  V30 3840 H 358.026 -0.977029 -4.04467 0
M  V30 3841 H 356.902 -0.85292 -5.42233 0
M  V30 3842 H 357.163 0.542328 -4.38761 0
M  V30 3843 N 356.222 1.38976 -0.743202 0
M  V30 3844 C 357.152 2.33171 -0.123873 0
M  V30 3845 C 358.133 1.54336 0.71516 0
M  V30 3846 O 359.318 1.82696 0.658467 0
M  V30 3847 C 356.448 3.38474 0.777978 0
M  V30 3848 C 355.402 4.27979 0.0424758 0
M  V30 3849 C 354.728 5.2405 1.06189 0
M  V30 3850 C 356.028 5.10155 -1.1198 0
M  V30 3851 H 357.722 2.85213 -0.910709 0
M  V30 3852 H 355.268 1.37133 -0.439388 0
M  V30 3853 H 357.221 4.03328 1.22084 0
M  V30 3854 H 355.945 2.84891 1.59702 0
M  V30 3855 H 354.604 3.64616 -0.380853 0
M  V30 3856 H 354.252 4.66758 1.87472 0
M  V30 3857 H 353.952 5.84785 0.574485 0
M  V30 3858 H 355.476 5.9178 1.50428 0
M  V30 3859 H 356.89 5.68307 -0.75499 0
M  V30 3860 H 355.287 5.80073 -1.53738 0
M  V30 3861 H 356.357 4.44504 -1.93764 0
M  V30 3862 N 357.7 0.491464 1.49741 0
M  V30 3863 C 358.647 -0.292027 2.28945 0
M  V30 3864 C 359.617 -0.968973 1.34908 0
M  V30 3865 O 360.802 -0.97748 1.6386 0
M  V30 3866 C 357.942 -1.35617 3.17336 0
M  V30 3867 C 357.055 -0.691957 4.26422 0
M  V30 3868 C 356.19 -1.73572 5.02042 0
M  V30 3869 C 355.229 -1.05286 6.02977 0
M  V30 3870 N 354.366 -2.0404 6.71798 0
M  V30 3871 H 359.206 0.389654 2.95442 0
M  V30 3872 H 356.743 0.204003 1.45679 0
M  V30 3873 H 358.701 -1.98502 3.66951 0
M  V30 3874 H 357.331 -2.00674 2.52844 0
M  V30 3875 H 356.383 0.0499523 3.80367 0
M  V30 3876 H 357.695 -0.153946 4.98562 0
M  V30 3877 H 356.849 -2.43987 5.55478 0
M  V30 3878 H 355.588 -2.30757 4.29654 0
M  V30 3879 H 354.593 -0.334446 5.48782 0
M  V30 3880 H 355.818 -0.487636 6.77347 0
M  V30 3881 H 353.764 -2.60205 6.02187 0
M  V30 3882 H 353.681 -1.55279 7.39881 0
M  V30 3883 H 354.949 -2.73772 7.29842 0
M  V30 3884 N 359.178 -1.55987 0.224894 0
M  V30 3885 C 360.427 -1.97566 -0.406273 0
M  V30 3886 C 360.74 -1.11569 -1.6066 0
M  V30 3887 O 361.946 -1.43062 -2.3075 0
M  V30 3888 C 360.402 -3.51474 -0.774207 0
M  V30 3889 C 360.01 -4.46179 0.403496 0
M  V30 3890 C 361.754 -4.01758 -1.37079 0
M  V30 3891 C 359.661 -5.91399 0.0129412 0
M  V30 3892 H 358.591 -0.737777 -0.155565 0
M  V30 3893 H 361.242 -1.80659 0.321635 0
M  V30 3894 H 359.624 -3.63994 -1.55963 0
M  V30 3895 H 360.798 -4.45409 1.18101 0
M  V30 3896 H 359.113 -4.06255 0.913536 0
M  V30 3897 H 361.71 -5.07756 -1.67596 0
M  V30 3898 H 362.053 -3.47805 -2.28773 0
M  V30 3899 H 362.586 -3.92475 -0.648733 0
M  V30 3900 H 359.325 -6.49341 0.896451 0
M  V30 3901 H 358.845 -5.95356 -0.728821 0
M  V30 3902 H 360.524 -6.45683 -0.412582 0
M  V30 3903 N 360.656 0.0484629 -1.57525 0
M  V30 3904 C 361.902 0.744226 -1.88651 0
M  V30 3905 C 362.235 1.76029 -0.820212 0
M  V30 3906 O 361.51 1.93782 0.166985 0
M  V30 3907 C 361.793 1.43128 -3.30434 0
M  V30 3908 C 361.646 0.43005 -4.47739 0
M  V30 3909 C 362.965 2.37031 -3.70816 0
M  V30 3910 H 360.084 0.269089 -0.68612 0
M  V30 3911 H 362.726 0.00713532 -1.89999 0
M  V30 3912 H 360.876 2.05956 -3.29415 0
M  V30 3913 H 362.548 -0.194816 -4.60888 0
M  V30 3914 H 360.791 -0.252522 -4.33064 0
M  V30 3915 H 361.462 0.948874 -5.43783 0
M  V30 3916 H 363.938 1.84263 -3.73077 0
M  V30 3917 H 362.814 2.82094 -4.70865 0
M  V30 3918 H 363.075 3.22864 -3.02012 0
M  V30 3919 N 362.134 1.5431 0.320358 0
M  V30 3920 C 363.044 1.86946 1.41734 0
M  V30 3921 C 364.06 0.761689 1.56443 0
M  V30 3922 O 365.236 1.05629 1.71477 0
M  V30 3923 C 362.301 2.09293 2.76401 0
M  V30 3924 C 361.362 3.33082 2.70841 0
M  V30 3925 C 360.595 3.54353 3.99086 0
M  V30 3926 O 360.818 2.79002 4.97508 0
M  V30 3927 O 359.752 4.47838 4.0215 0
M  V30 3928 H 363.578 2.80232 1.17062 0
M  V30 3929 H 361.163 1.40255 0.514673 0
M  V30 3930 H 363.045 2.25303 3.56113 0
M  V30 3931 H 361.72 1.19194 3.00956 0
M  V30 3932 H 360.627 3.22454 1.89668 0
M  V30 3933 H 361.96 4.23249 2.5124 0
M  V30 3934 N 363.613 -0.582584 1.46437 0
M  V30 3935 C 364.861 -1.33814 1.51453 0
M  V30 3936 C 365.182 -1.94277 0.167792 0
M  V30 3937 O 364.452 -1.78566 -0.805677 0
M  V30 3938 H 363.032 -0.496838 0.557818 0
M  V30 3939 H 365.694 -0.682281 1.82568 0
M  V30 3940 H 364.79 -2.14479 2.26728 0
M  V30 3941 N 365.091 -1.34144 -0.827227 0
M  V30 3942 C 366.368 -1.16844 -1.56865 0
M  V30 3943 C 366.748 0.260654 -2.09485 0
M  V30 3944 O 366.096 1.26138 -1.9053 0
M  V30 3945 C 366.306 -2.21939 -2.6934 0
M  V30 3946 C 367.654 -2.56695 -3.3822 0
M  V30 3947 O 368.678 -2.20695 -2.79593 0
M  V30 3948 O 367.537 -3.18518 -4.44082 0
M  V30 3949 H 364.631 -0.452669 -0.692112 0
M  V30 3950 H 367.177 -1.45763 -0.868973 0
M  V30 3951 H 365.949 -3.17882 -2.28182 0
M  V30 3952 H 365.572 -1.94172 -3.46962 0
M  V30 3953 N 366.569 1.04691 -1.17803 0
M  V30 3954 C 367.797 1.81446 -0.99423 0
M  V30 3955 C 368.212 1.83174 0.457459 0
M  V30 3956 O 367.569 1.26265 1.31771 0
M  V30 3957 C 367.62 3.27334 -1.5341 0
M  V30 3958 O 367.341 3.25798 -2.92895 0
M  V30 3959 C 368.842 4.20759 -1.39559 0
M  V30 3960 H 366.062 0.571599 -0.351447 0
M  V30 3961 H 368.606 1.31982 -1.56208 0
M  V30 3962 H 366.761 3.74052 -1.00815 0
M  V30 3963 H 367.175 4.17144 -3.17949 0
M  V30 3964 H 368.649 5.21084 -1.82141 0
M  V30 3965 H 369.126 4.37856 -0.343394 0
M  V30 3966 H 369.732 3.79901 -1.91195 0
M  V30 3967 N 368.047 0.979072 1.23499 0
M  V30 3968 C 369.458 0.684391 1.73704 0
M  V30 3969 C 369.809 -0.799448 1.79174 0
M  V30 3970 O 368.934 -1.62531 1.42873 0
M  V30 3971 C 369.529 1.23564 3.15464 0
M  V30 3972 C 368.088 0.99063 3.6313 0
M  V30 3973 C 367.235 1.36416 2.41425 0
M  V30 3974 H 370.186 1.15307 1.09041 0
M  V30 3975 H 370.207 0.607417 3.7562 0
M  V30 3976 H 369.719 2.31561 3.1145 0
M  V30 3977 H 367.82 -0.0733136 3.72528 0
M  V30 3978 H 367.933 1.64427 4.5 0
M  V30 3979 H 366.297 0.782616 2.42378 0
M  V30 3980 H 367.08 2.45387 2.40083 0
M  V30 3981 N 369.525 -1.3858 0.750561 0
M  V30 3982 C 370.75 -2.04997 0.314812 0
M  V30 3983 C 371.175 -1.56235 -1.04749 0
M  V30 3984 O 370.533 -0.712981 -1.66692 0
M  V30 3985 C 370.581 -3.58961 0.343415 0
M  V30 3986 O 369.685 -4.07025 -0.663628 0
M  V30 3987 H 369.026 -0.649081 0.139962 0
M  V30 3988 H 371.556 -1.77313 1.02084 0
M  V30 3989 H 371.566 -4.07542 0.193233 0
M  V30 3990 H 370.241 -3.93811 1.33738 0
M  V30 3991 H 368.818 -3.6982 -0.478307 0
M  V30 3992 N 371.003 -0.499398 -1.49478 0
M  V30 3993 C 371.933 0.269244 -2.31943 0
M  V30 3994 C 372.914 0.964054 -1.40143 0
M  V30 3995 O 374.099 0.955767 -1.69052 0
M  V30 3996 C 371.229 1.33504 -3.20615 0
M  V30 3997 C 370.183 0.760202 -4.21195 0
M  V30 3998 C 369.509 1.9264 -4.98792 0
M  V30 3999 C 370.809 -0.247661 -5.21712 0
M  V30 4000 H 372.503 -0.419082 -2.96452 0
M  V30 4001 H 370.049 -0.202988 -1.42562 0
M  V30 4002 H 372.002 1.88048 -3.77115 0
M  V30 4003 H 370.726 2.05253 -2.54045 0
M  V30 4004 H 369.385 0.23653 -3.65836 0
M  V30 4005 H 369.033 2.63154 -4.28671 0
M  V30 4006 H 368.733 1.54785 -5.66847 0
M  V30 4007 H 370.257 2.4762 -5.58137 0
M  V30 4008 H 371.671 0.209579 -5.72917 0
M  V30 4009 H 370.068 -0.541962 -5.97648 0
M  V30 4010 H 371.138 -1.16409 -4.7072 0
M  V30 4011 N 372.481 1.55866 -0.233164 0
M  V30 4012 C 373.892 1.847 0.272554 0
M  V30 4013 C 374.243 1.15477 1.58617 0
M  V30 4014 O 373.368 0.42841 2.12117 0
M  V30 4015 C 373.963 3.35071 0.501299 0
M  V30 4016 C 372.522 3.6418 0.951304 0
M  V30 4017 C 371.669 2.77292 0.0208209 0
M  V30 4018 H 374.62 1.52005 -0.456074 0
M  V30 4019 H 374.641 3.55906 1.34577 0
M  V30 4020 H 374.153 3.85424 -0.454936 0
M  V30 4021 H 372.254 3.19293 1.92049 0
M  V30 4022 H 372.367 4.72071 0.817675 0
M  V30 4023 H 370.731 2.49131 0.529723 0
M  V30 4024 H 371.514 3.30448 -0.93054 0
M  V30 4025 N 373.959 -0.0401083 1.57549 0
M  V30 4026 C 374.869 -1.06133 2.0922 0
M  V30 4027 C 375.885 -1.40356 1.0284 0
M  V30 4028 O 377.061 -1.49897 1.34509 0
M  V30 4029 C 374.126 -2.34658 2.55218 0
M  V30 4030 C 373.187 -2.07117 3.76033 0
M  V30 4031 C 372.42 -3.29514 4.19829 0
M  V30 4032 O 372.643 -4.39794 3.63232 0
M  V30 4033 O 371.577 -3.15863 5.12362 0
M  V30 4034 H 375.403 -0.652244 2.96613 0
M  V30 4035 H 372.988 -0.256368 1.47184 0
M  V30 4036 H 374.87 -3.10239 2.85184 0
M  V30 4037 H 373.545 -2.74883 1.70941 0
M  V30 4038 H 372.452 -1.29139 3.51104 0
M  V30 4039 H 373.785 -1.71754 4.61261 0
M  V30 4040 N 375.437 -1.54477 -0.31217 0
M  V30 4041 C 376.853 -1.45442 -0.657185 0
M  V30 4042 C 377.053 -0.63653 -1.91182 0
M  V30 4043 O 376.109 -0.139815 -2.52113 0
M  V30 4044 C 377.422 -2.89287 -0.82058 0
M  V30 4045 C 378.97 -2.9926 -0.917188 0
M  V30 4046 C 379.445 -4.44279 -1.11267 0
M  V30 4047 N 380.936 -4.4794 -1.17914 0
M  V30 4048 C 381.671 -5.57318 -1.34848 0
M  V30 4049 N 381.167 -6.76642 -1.48752 0
M  V30 4050 N 382.96 -5.44986 -1.37647 0
M  V30 4051 H 375.111 -2.06129 0.512313 0
M  V30 4052 H 377.374 -0.933088 0.167485 0
M  V30 4053 H 377.08 -3.51687 0.0302604 0
M  V30 4054 H 376.954 -3.36061 -1.71298 0
M  V30 4055 H 379.341 -2.36981 -1.75852 0
M  V30 4056 H 379.422 -2.558 -0.00101257 0
M  V30 4057 H 379.066 -5.07149 -0.27614 0
M  V30 4058 H 378.996 -4.85359 -2.04289 0
M  V30 4059 H 381.487 -3.61969 -1.08567 0
M  V30 4060 H 381.8 -7.55758 -1.61397 0
M  V30 4061 H 380.145 -6.79529 -1.45828 0
M  V30 4062 H 383.336 -4.50715 -1.26388 0
M  V30 4063 H 383.509 -6.3028 -1.50501 0
M  V30 4064 N 376.915 0.57481 -1.46744 0
M  V30 4065 C 378.145 1.35659 -1.55821 0
M  V30 4066 C 378.553 1.88129 -0.201036 0
M  V30 4067 O 377.896 1.64723 0.813134 0
M  V30 4068 C 377.958 2.57473 -2.50894 0
M  V30 4069 C 377.622 2.26415 -3.9697 0
M  V30 4070 C 378.619 1.84771 -4.85958 0
M  V30 4071 C 376.304 2.38316 -4.42166 0
M  V30 4072 C 378.298 1.55434 -6.18158 0
M  V30 4073 C 375.985 2.08591 -5.74398 0
M  V30 4074 C 376.983 1.67216 -6.62214 0
M  V30 4075 O 376.671 1.37859 -7.91991 0
M  V30 4076 H 376.403 0.420496 -0.529301 0
M  V30 4077 H 378.957 0.704967 -1.92923 0
M  V30 4078 H 377.187 3.25468 -2.08824 0
M  V30 4079 H 378.876 3.19546 -2.50291 0
M  V30 4080 H 379.642 1.75085 -4.52295 0
M  V30 4081 H 375.521 2.69483 -3.74032 0
M  V30 4082 H 379.065 1.23065 -6.86659 0
M  V30 4083 H 374.962 2.17905 -6.07608 0
M  V30 4084 H 375.73 1.51638 -8.04331 0
M  V30 4085 N 378.394 1.34581 0.820102 0
M  V30 4086 C 379.805 1.24298 1.39309 0
M  V30 4087 C 380.156 -0.130351 1.95767 0
M  V30 4088 O 379.281 -1.0308 1.90272 0
M  V30 4089 C 379.876 2.25054 2.53251 0
M  V30 4090 C 378.435 2.18552 3.0645 0
M  V30 4091 C 377.582 2.11503 1.79337 0
M  V30 4092 H 380.533 1.45906 0.624262 0
M  V30 4093 H 380.554 1.86917 3.31425 0
M  V30 4094 H 380.066 3.24996 2.1213 0
M  V30 4095 H 378.167 1.21976 3.52069 0
M  V30 4096 H 378.28 3.0993 3.65349 0
M  V30 4097 H 376.644 1.57268 2.00347 0
M  V30 4098 H 377.427 3.13284 1.40386 0
M  V30 4099 N 379.872 -1.04064 1.18357 0
M  V30 4100 C 380.819 -2.12077 0.910603 0
M  V30 4101 C 381.789 -1.65421 -0.15 0
M  V30 4102 O 382.974 -1.90797 -0.0103614 0
M  V30 4103 C 380.114 -3.42252 0.442472 0
M  V30 4104 C 379.227 -4.0252 1.5685 0
M  V30 4105 C 378.362 -5.20657 1.05309 0
M  V30 4106 C 377.401 -5.72955 2.1538 0
M  V30 4107 N 376.538 -6.8238 1.65233 0
M  V30 4108 H 381.378 -2.34764 1.83548 0
M  V30 4109 H 378.915 -1.15157 0.915279 0
M  V30 4110 H 380.873 -4.16921 0.152534 0
M  V30 4111 H 379.503 -3.19712 -0.445428 0
M  V30 4112 H 378.555 -3.25178 1.97391 0
M  V30 4113 H 379.867 -4.37362 2.39824 0
M  V30 4114 H 379.021 -6.0244 0.717677 0
M  V30 4115 H 377.76 -4.87318 0.19293 0
M  V30 4116 H 376.765 -4.89793 2.49766 0
M  V30 4117 H 377.99 -6.08337 3.01832 0
M  V30 4118 H 375.936 -6.50917 0.815064 0
M  V30 4119 H 375.853 -7.16286 2.41805 0
M  V30 4120 H 377.121 -7.67788 1.34619 0
M  V30 4121 N 381.35 -0.985608 -1.22978 0
M  V30 4122 C 382.26 -0.538548 -2.28335 0
M  V30 4123 C 383.276 0.409163 -1.69121 0
M  V30 4124 O 384.452 0.277797 -1.99475 0
M  V30 4125 C 381.517 0.146867 -3.46389 0
M  V30 4126 C 380.578 -0.842896 -4.20944 0
M  V30 4127 C 379.811 -0.190095 -5.33361 0
M  V30 4128 O 380.034 1.01767 -5.61248 0
M  V30 4129 O 378.968 -0.891289 -5.95264 0
M  V30 4130 H 382.794 -1.41487 -2.68729 0
M  V30 4131 H 380.379 -0.753495 -1.29007 0
M  V30 4132 H 382.261 0.531125 -4.1804 0
M  V30 4133 H 380.936 0.997871 -3.07935 0
M  V30 4134 H 379.843 -1.27795 -3.51595 0
M  V30 4135 H 381.176 -1.66287 -4.6326 0
M  V30 4136 N 382.828 1.3818 -0.7579 0
M  V30 4137 C 383.758 2.33027 -0.148597 0
M  V30 4138 C 384.739 1.55085 0.69875 0
M  V30 4139 O 385.924 1.83384 0.639053 0
M  V30 4140 C 383.054 3.3928 0.742034 0
M  V30 4141 C 382.008 4.28 -0.00291946 0
M  V30 4142 C 381.334 5.25146 1.00625 0
M  V30 4143 C 382.634 5.08938 -1.17385 0
M  V30 4144 H 384.328 2.84231 -0.940909 0
M  V30 4145 H 381.874 1.36659 -0.453908 0
M  V30 4146 H 383.827 4.046 1.17799 0
M  V30 4147 H 382.551 2.86569 1.56671 0
M  V30 4148 H 381.21 3.64192 -0.419504 0
M  V30 4149 H 380.858 4.68721 1.8251 0
M  V30 4150 H 380.558 5.85361 0.512428 0
M  V30 4151 H 382.082 5.93342 1.44143 0
M  V30 4152 H 383.496 5.67474 -0.815224 0
M  V30 4153 H 381.893 5.7841 -1.59882 0
M  V30 4154 H 382.963 4.42424 -1.98468 0
M  V30 4155 N 384.306 0.507319 1.49211 0
M  V30 4156 C 385.254 -0.281364 2.30892 0
M  V30 4157 C 386.248 -0.95687 1.39787 0
M  V30 4158 O 387.454 -0.883838 1.56807 0
M  V30 4159 H 383.829 -0.109597 0.743971 0
M  V30 4160 H 385.8 0.42744 2.95323 0
M  V30 4161 C 384.549 -1.32918 3.21291 0
M  V30 4162 H 383.872 -0.818799 3.91326 0
M  V30 4163 H 385.312 -1.85288 3.81372 0
M  V30 4164 C 383.771 -2.35074 2.41333 0
M  V30 4165 O 384.301 -3.4108 2.12197 0
M  V30 4166 N 382.507 -2.07705 2.03241 0
M  V30 4167 H 382.054 -1.2152 2.27136 0
M  V30 4168 H 382.012 -2.76283 1.50051 0
M  V30 4169 N 385.784 -1.5574 0.241426 0
M  V30 4170 C 386.747 -2.19877 -0.647063 0
M  V30 4171 C 387.747 -1.16642 -1.10686 0
M  V30 4172 O 388.937 -1.41757 -1.01245 0
M  V30 4173 C 386.069 -2.83797 -1.88871 0
M  V30 4174 H 387.262 -2.99772 -0.087574 0
M  V30 4175 H 384.815 -1.56298 -0.00813574 0
M  V30 4176 H 385.55 -2.07824 -2.48957 0
M  V30 4177 H 385.335 -3.59414 -1.56728 0
M  V30 4178 H 386.825 -3.32898 -2.52129 0
M  V30 4179 N 387.262 0.0317525 -1.57568 0
M  V30 4180 C 388.511 0.722131 -1.8833 0
M  V30 4181 C 388.824 1.76664 -0.839587 0
M  V30 4182 O 390.03 2.50942 -1.03635 0
M  V30 4183 C 388.486 1.33544 -3.34207 0
M  V30 4184 C 388.094 0.327415 -4.46802 0
M  V30 4185 C 389.838 2.00585 -3.7412 0
M  V30 4186 C 387.745 0.948915 -5.83738 0
M  V30 4187 H 386.675 0.273466 -0.702661 0
M  V30 4188 H 389.326 -0.0235811 -1.83485 0
M  V30 4189 H 387.708 2.13077 -3.33788 0
M  V30 4190 H 388.882 -0.441006 -4.58685 0
M  V30 4191 H 387.197 -0.240758 -4.15703 0
M  V30 4192 H 389.794 2.47932 -4.73744 0
M  V30 4193 H 390.137 2.82285 -3.05975 0
M  V30 4194 H 390.67 1.27831 -3.76702 0
M  V30 4195 H 387.409 0.171387 -6.55276 0
M  V30 4196 H 386.929 1.68724 -5.7558 0
M  V30 4197 H 388.608 1.45705 -6.3038 0
M  V30 4198 N 388.74 1.54641 0.303973 0
M  V30 4199 C 389.673 1.80263 1.3993 0
M  V30 4200 C 390.651 0.653657 1.48883 0
M  V30 4201 O 391.835 0.893284 1.6599 0
M  V30 4202 C 388.962 1.9367 2.77866 0
M  V30 4203 C 388.008 3.16078 2.86351 0
M  V30 4204 S 388.841 4.74219 2.4875 0
M  V30 4205 C 389.997 4.90558 3.88721 0
M  V30 4206 H 390.23 2.72886 1.17986 0
M  V30 4207 H 387.763 1.46014 0.501918 0
M  V30 4208 H 389.721 2.0208 3.57315 0
M  V30 4209 H 388.382 1.01991 2.9708 0
M  V30 4210 H 387.575 3.22252 3.87517 0
M  V30 4211 H 387.177 3.06099 2.14893 0
M  V30 4212 H 389.469 4.74398 4.83687 0
M  V30 4213 H 390.412 5.92651 3.87518 0
M  V30 4214 H 390.82 4.18728 3.78585 0
M  V30 4215 N 390.218 -0.567019 1.47046 0
M  V30 4216 C 391.128 -1.70247 1.6141 0
M  V30 4217 C 392.144 -1.66746 0.497157 0
M  V30 4218 O 393.32 -1.86371 0.763389 0
M  V30 4219 C 390.385 -3.06756 1.61561 0
M  V30 4220 C 389.446 -3.21399 2.84607 0
M  V30 4221 C 388.679 -4.51396 2.84741 0
M  V30 4222 O 388.902 -5.36255 1.94388 0
M  V30 4223 O 387.836 -4.69621 3.76483 0
M  V30 4224 H 391.662 -1.61073 2.57467 0
M  V30 4225 H 389.247 -0.735894 1.30019 0
M  V30 4226 H 391.129 -3.8801 1.64396 0
M  V30 4227 H 389.804 -3.16333 0.686684 0
M  V30 4228 H 388.711 -2.39579 2.8732 0
M  V30 4229 H 390.044 -3.16721 3.76761 0
M  V30 4230 N 391.696 -1.35014 -0.812953 0
M  V30 4231 C 392.921 -1.31187 -1.60639 0
M  V30 4232 C 393.346 0.109382 -1.87782 0
M  V30 4233 O 392.704 1.07424 -1.46047 0
M  V30 4234 C 392.752 -2.11809 -2.91838 0
M  V30 4235 O 391.856 -1.49444 -3.8437 0
M  V30 4236 H 391.197 -0.450084 -0.488181 0
M  V30 4237 H 393.727 -1.77963 -1.00947 0
M  V30 4238 H 393.737 -2.23531 -3.41318 0
M  V30 4239 H 392.412 -3.15137 -2.71407 0
M  V30 4240 H 390.989 -1.46524 -3.42907 0
M  V30 4241 N 393.175 1.03435 -1.18907 0
M  V30 4242 C 394.108 2.11162 -0.86521 0
M  V30 4243 C 395.086 1.6165 0.175473 0
M  V30 4244 O 396.27 1.88425 0.0530129 0
M  V30 4245 C 393.397 3.37423 -0.293868 0
M  V30 4246 C 392.443 4.05795 -1.31274 0
M  V30 4247 S 393.276 4.52027 -2.8711 0
M  V30 4248 C 394.432 5.81513 -2.31504 0
M  V30 4249 H 394.665 2.38308 -1.77754 0
M  V30 4250 H 392.198 1.16295 -1.01562 0
M  V30 4251 H 394.156 4.1049 0.0292572 0
M  V30 4252 H 392.817 3.0838 0.596682 0
M  V30 4253 H 392.01 4.96574 -0.86198 0
M  V30 4254 H 391.612 3.38874 -1.58242 0
M  V30 4255 H 393.904 6.55784 -1.70157 0
M  V30 4256 H 394.847 6.3136 -3.20608 0
M  V30 4257 H 395.255 5.36921 -1.74286 0
M  V30 4258 N 394.653 0.992116 1.22453 0
M  V30 4259 C 395.583 0.561677 2.26644 0
M  V30 4260 C 396.564 -0.411055 1.65059 0
M  V30 4261 O 397.749 -0.301861 1.9184 0
M  V30 4262 C 394.879 -0.125247 3.47074 0
M  V30 4263 C 393.833 0.765948 4.21091 0
M  V30 4264 C 393.159 -0.0538484 5.34673 0
M  V30 4265 C 394.459 2.06242 4.79856 0
M  V30 4266 H 396.153 1.43259 2.62902 0
M  V30 4267 H 393.699 0.690283 1.26377 0
M  V30 4268 H 395.652 -0.437764 4.1912 0
M  V30 4269 H 394.376 -1.03069 3.0991 0
M  V30 4270 H 393.035 1.0621 3.50878 0
M  V30 4271 H 392.683 -0.960188 4.9375 0
M  V30 4272 H 392.383 0.539415 5.85119 0
M  V30 4273 H 393.907 -0.360477 6.09535 0
M  V30 4274 H 395.321 1.8139 5.43848 0
M  V30 4275 H 393.718 2.60444 5.40638 0
M  V30 4276 H 394.788 2.74167 3.99951 0
M  V30 4277 N 396.131 -1.37776 0.765217 0
M  V30 4278 C 397.079 -2.32209 0.134798 0
M  V30 4279 C 398.073 -1.54607 -0.692315 0
M  V30 4280 O 399.279 -1.70052 -0.590109 0
M  V30 4281 H 395.654 -0.751591 0.0248005 0
M  V30 4282 H 397.625 -2.8297 0.947119 0
M  V30 4283 C 396.374 -3.39841 -0.735063 0
M  V30 4284 H 395.697 -3.99654 -0.107991 0
M  V30 4285 H 397.137 -4.08296 -1.14326 0
M  V30 4286 C 395.596 -2.79378 -1.88281 0
M  V30 4287 O 396.126 -2.69608 -2.97783 0
M  V30 4288 N 394.332 -2.37016 -1.68142 0
M  V30 4289 H 393.879 -2.45162 -0.790772 0
M  V30 4290 H 393.837 -1.96905 -2.45104 0
M  V30 4291 N 397.609 -0.515225 -1.4894 0
M  V30 4292 C 398.556 0.255567 -2.29381 0
M  V30 4293 C 399.526 0.947387 -1.36432 0
M  V30 4294 O 400.711 0.951288 -1.65394 0
M  V30 4295 C 397.851 1.30551 -3.19453 0
M  V30 4296 C 396.964 0.624029 -4.27469 0
M  V30 4297 C 396.099 1.65563 -5.0474 0
M  V30 4298 C 395.138 0.956802 -6.04576 0
M  V30 4299 N 394.275 1.93326 -6.74959 0
M  V30 4300 H 399.115 -0.436607 -2.94784 0
M  V30 4301 H 396.652 -0.227154 -1.45336 0
M  V30 4302 H 398.61 1.92639 -3.70062 0
M  V30 4303 H 397.24 1.96626 -2.56004 0
M  V30 4304 H 396.292 -0.110459 -3.8024 0
M  V30 4305 H 397.604 0.0746092 -4.98744 0
M  V30 4306 H 396.758 2.35119 -5.59289 0
M  V30 4307 H 395.497 2.23893 -4.3327 0
M  V30 4308 H 394.502 0.247097 -5.49244 0
M  V30 4309 H 395.727 0.379814 -6.78037 0
M  V30 4310 H 393.673 2.50591 -6.06251 0
M  V30 4311 H 393.59 1.43489 -7.42258 0
M  V30 4312 H 394.858 2.62126 -7.34105 0
M  V30 4313 N 399.087 1.5561 -0.249682 0
M  V30 4314 C 400.035 2.22894 0.664906 0
M  V30 4315 C 401.029 1.21743 1.17792 0
M  V30 4316 O 402.235 1.39748 1.13449 0
M  V30 4317 H 398.61 0.715022 0.232912 0
M  V30 4318 H 400.581 2.98307 0.0742998 0
M  V30 4319 C 399.33 2.94424 1.84959 0
M  V30 4320 H 398.653 3.72031 1.46399 0
M  V30 4321 H 400.093 3.44862 2.4667 0
M  V30 4322 C 398.552 1.98454 2.72245 0
M  V30 4323 O 399.082 1.51939 3.71857 0
M  V30 4324 N 397.288 1.65496 2.38871 0
M  V30 4325 H 396.835 2.03517 1.57919 0
M  V30 4326 H 396.793 1.0155 2.97548 0
M  V30 4327 N 400.565 -0.0233959 1.57583 0
M  V30 4328 C 401.976 -0.56927 1.77809 0
M  V30 4329 C 402.327 -1.75284 0.881472 0
M  V30 4330 O 401.452 -2.1626 0.0777805 0
M  V30 4331 C 402.047 -1.03949 3.22459 0
M  V30 4332 C 400.606 -1.53084 3.43864 0
M  V30 4333 C 399.753 -0.471454 2.73263 0
M  V30 4334 H 402.704 0.202825 1.57399 0
M  V30 4335 H 402.725 -1.90661 3.29285 0
M  V30 4336 H 402.237 -0.177865 3.87692 0
M  V30 4337 H 400.338 -2.41414 2.83814 0
M  V30 4338 H 400.451 -1.57443 4.52491 0
M  V30 4339 H 398.815 -0.927788 2.37201 0
M  V30 4340 H 399.598 0.380808 3.41181 0
M  V30 4341 N 402.043 -1.548 -0.295768 0
M  V30 4342 C 403.268 -1.78653 -1.05346 0
M  V30 4343 C 403.693 -0.546894 -1.79974 0
M  V30 4344 O 403.051 0.502763 -1.7419 0
M  V30 4345 C 403.099 -2.99679 -2.00561 0
M  V30 4346 O 402.203 -2.7317 -3.08953 0
M  V30 4347 H 401.544 -0.59116 -0.302367 0
M  V30 4348 H 404.074 -2.01895 -0.331598 0
M  V30 4349 H 404.084 -3.27793 -2.42932 0
M  V30 4350 H 402.759 -3.89562 -1.4565 0
M  V30 4351 H 401.336 -2.56089 -2.71059 0
M  V30 4352 N 403.521 0.559213 -1.47345 0
M  V30 4353 C 404.451 1.67622 -1.62558 0
M  V30 4354 C 405.432 1.63331 -0.475087 0
M  V30 4355 O 406.617 1.80983 -0.704182 0
M  V30 4356 C 403.747 3.0626 -1.63774 0
M  V30 4357 C 402.701 3.25397 -2.7803 0
M  V30 4358 C 402.027 4.64801 -2.64318 0
M  V30 4359 C 403.327 3.10965 -4.19641 0
M  V30 4360 H 405.021 1.55146 -2.56067 0
M  V30 4361 H 402.567 0.744961 -1.23233 0
M  V30 4362 H 404.52 3.84247 -1.73008 0
M  V30 4363 H 403.244 3.1969 -0.66825 0
M  V30 4364 H 401.903 2.49817 -2.68304 0
M  V30 4365 H 401.551 4.75028 -1.65401 0
M  V30 4366 H 401.251 4.78555 -3.40968 0
M  V30 4367 H 402.775 5.44926 -2.75478 0
M  V30 4368 H 404.189 3.78772 -4.30354 0
M  V30 4369 H 402.586 3.36229 -4.97062 0
M  V30 4370 H 403.656 2.07736 -4.38148 0
M  V30 4371 N 404.999 1.35443 0.805782 0
M  V30 4372 C 406.415 1.15499 1.10146 0
M  V30 4373 C 406.615 -0.0319975 2.01475 0
M  V30 4374 O 405.671 -0.70236 2.42535 0
M  V30 4375 C 406.984 2.45833 1.73166 0
M  V30 4376 C 408.532 2.52047 1.85583 0
M  V30 4377 C 409.007 3.82427 2.52019 0
M  V30 4378 N 410.498 3.83682 2.59504 0
M  V30 4379 C 411.233 4.81294 3.11679 0
M  V30 4380 N 410.729 5.89294 3.64287 0
M  V30 4381 N 412.522 4.6873 3.1024 0
M  V30 4382 H 404.673 2.11469 0.198678 0
M  V30 4383 H 406.936 0.93594 0.150731 0
M  V30 4384 H 406.642 3.32874 1.13526 0
M  V30 4385 H 406.516 2.6044 2.72857 0
M  V30 4386 H 408.903 1.65435 2.44367 0
M  V30 4387 H 408.984 2.41354 0.847455 0
M  V30 4388 H 408.628 4.69437 1.93885 0
M  V30 4389 H 408.558 3.90409 3.53395 0
M  V30 4390 H 411.049 3.05648 2.22234 0
M  V30 4391 H 411.362 6.59768 4.02401 0
M  V30 4392 H 409.707 5.92985 3.62483 0
M  V30 4393 H 412.898 3.83496 2.68419 0
M  V30 4394 H 413.071 5.44965 3.50596 0
M  V30 4395 N 406.477 -1.02803 1.19454 0
M  V30 4396 C 407.888 -1.57667 0.999899 0
M  V30 4397 C 408.239 -1.91041 -0.446956 0
M  V30 4398 O 407.364 -1.70978 -1.32648 0
M  V30 4399 C 407.959 -2.86477 1.80877 0
M  V30 4400 C 406.518 -3.37911 1.65811 0
M  V30 4401 C 405.665 -2.11343 1.79526 0
M  V30 4402 H 408.616 -0.853214 1.33813 0
M  V30 4403 H 408.637 -3.57408 1.30536 0
M  V30 4404 H 408.149 -2.62155 2.86175 0
M  V30 4405 H 406.25 -3.67218 0.63102 0
M  V30 4406 H 406.363 -4.10885 2.46395 0
M  V30 4407 H 404.727 -2.23254 1.22596 0
M  V30 4408 H 405.51 -1.89461 2.86285 0
M  V30 4409 N 407.956 -0.998596 -1.21925 0
M  V30 4410 C 409.181 -0.696015 -1.95372 0
M  V30 4411 C 409.606 0.733826 -1.73195 0
M  V30 4412 O 408.964 1.50242 -1.01474 0
M  V30 4413 C 409.012 -1.01466 -3.4603 0
M  V30 4414 O 408.116 -0.116415 -4.12236 0
M  V30 4415 H 407.457 -0.259938 -0.611006 0
M  V30 4416 H 409.987 -1.33711 -1.54863 0
M  V30 4417 H 409.997 -0.958855 -3.96573 0
M  V30 4418 H 408.672 -2.05653 -3.61497 0
M  V30 4419 H 407.249 -0.228193 -3.72201 0
M  V30 4420 N 409.434 1.37368 -0.772513 0
M  V30 4421 C 410.397 2.28601 -0.165541 0
M  V30 4422 C 411.397 1.48062 0.627238 0
M  V30 4423 O 412.587 1.68268 0.450715 0
M  V30 4424 C 409.719 3.32023 0.772897 0
M  V30 4425 H 410.912 2.83787 -0.969787 0
M  V30 4426 H 408.465 1.46647 -0.540775 0
M  V30 4427 H 409.2 2.81962 1.60212 0
M  V30 4428 H 408.985 3.91555 0.206585 0
M  V30 4429 H 410.475 4.00197 1.19298 0
M  V30 4430 N 410.912 0.523116 1.48665 0
M  V30 4431 C 412.161 -0.01544 2.01694 0
M  V30 4432 C 412.474 -1.35975 1.40606 0
M  V30 4433 O 413.68 -1.98627 1.85093 0
M  V30 4434 C 412.136 -0.0779303 3.59816 0
M  V30 4435 C 411.744 1.26107 4.29885 0
M  V30 4436 C 413.488 -0.565678 4.20714 0
M  V30 4437 C 411.395 1.15954 5.79921 0
M  V30 4438 H 410.325 -0.00954163 0.75394 0
M  V30 4439 H 412.976 0.665865 1.70993 0
M  V30 4440 H 411.358 -0.824165 3.87329 0
M  V30 4441 H 412.532 2.02233 4.14051 0
M  V30 4442 H 410.847 1.68401 3.80828 0
M  V30 4443 H 413.444 -0.6595 5.30617 0
M  V30 4444 H 413.787 -1.56984 3.85567 0
M  V30 4445 H 414.32 0.12467 3.97605 0
M  V30 4446 H 411.059 2.13864 6.19631 0
M  V30 4447 H 410.579 0.439529 5.98187 0
M  V30 4448 H 412.258 0.847361 6.41427 0
M  V30 4449 N 412.39 -1.55475 0.257931 0
M  V30 4450 C 413.3 -2.2549 -0.647425 0
M  V30 4451 C 414.316 -1.2748 -1.18427 0
M  V30 4452 O 415.492 -1.6038 -1.2182 0
M  V30 4453 C 412.557 -2.94916 -1.82278 0
M  V30 4454 C 411.618 -4.08363 -1.32432 0
M  V30 4455 C 410.851 -4.74469 -2.44366 0
M  V30 4456 O 411.074 -4.39701 -3.63344 0
M  V30 4457 O 410.008 -5.62763 -2.13497 0
M  V30 4458 H 413.834 -3.03593 -0.0807707 0
M  V30 4459 H 411.419 -1.49377 0.0259962 0
M  V30 4460 H 413.301 -3.38606 -2.50846 0
M  V30 4461 H 411.976 -2.19744 -2.37685 0
M  V30 4462 H 410.883 -3.69166 -0.605605 0
M  V30 4463 H 412.216 -4.85385 -0.816211 0
M  V30 4464 N 413.868 0.0150385 -1.57593 0
M  V30 4465 C 415.117 0.702115 -1.89085 0
M  V30 4466 C 415.43 1.75764 -0.858277 0
M  V30 4467 O 416.636 2.49829 -1.0629 0
M  V30 4468 C 415.092 1.29992 -3.35604 0
M  V30 4469 C 414.7 0.280007 -4.47124 0
M  V30 4470 C 416.444 1.96606 -3.76227 0
M  V30 4471 C 414.351 0.886949 -5.84711 0
M  V30 4472 H 413.281 0.265997 -0.705522 0
M  V30 4473 H 415.932 -0.0430408 -1.8345 0
M  V30 4474 H 414.314 2.09525 -3.36029 0
M  V30 4475 H 415.488 -0.489631 -4.58191 0
M  V30 4476 H 413.803 -0.284835 -4.15425 0
M  V30 4477 H 416.4 2.42893 -4.76347 0
M  V30 4478 H 416.743 2.79024 -3.08952 0
M  V30 4479 H 417.276 1.23828 -3.78036 0
M  V30 4480 H 414.015 0.101876 -6.55421 0
M  V30 4481 H 413.535 1.6261 -5.77337 0
M  V30 4482 H 415.214 1.39011 -6.3189 0
M  V30 4483 N 415.346 1.54954 0.287554 0
M  V30 4484 C 416.276 1.89839 1.35954 0
M  V30 4485 C 417.257 0.758675 1.52244 0
M  V30 4486 O 418.442 1.01557 1.65529 0
M  V30 4487 C 415.572 2.15753 2.72154 0
M  V30 4488 C 414.526 3.3159 2.70614 0
M  V30 4489 C 413.852 3.42952 4.10229 0
M  V30 4490 C 415.152 4.68359 2.31165 0
M  V30 4491 H 416.846 2.79625 1.07007 0
M  V30 4492 H 414.392 1.3454 0.513316 0
M  V30 4493 H 416.345 2.38743 3.47246 0
M  V30 4494 H 415.069 1.22752 3.02654 0
M  V30 4495 H 413.728 3.08545 1.97979 0
M  V30 4496 H 413.376 2.47443 4.37928 0
M  V30 4497 H 413.076 4.20826 4.10097 0
M  V30 4498 H 414.6 3.68218 4.87081 0
M  V30 4499 H 416.014 4.9099 2.95976 0
M  V30 4500 H 414.411 5.49044 2.42221 0
M  V30 4501 H 415.481 4.68165 1.26291 0
M  V30 4502 N 416.824 -0.551391 1.4764 0
M  V30 4503 C 417.771 -1.65796 1.60563 0
M  V30 4504 C 418.741 -1.59932 0.448428 0
M  V30 4505 O 419.926 -1.78679 0.669222 0
M  V30 4506 C 417.066 -3.04108 1.63133 0
M  V30 4507 C 416.179 -3.20365 2.89811 0
M  V30 4508 C 415.314 -4.49109 2.8368 0
M  V30 4509 C 414.353 -4.58819 4.05156 0
M  V30 4510 N 413.49 -5.78926 3.97227 0
M  V30 4511 H 418.33 -1.54088 2.5507 0
M  V30 4512 H 415.867 -0.75052 1.26513 0
M  V30 4513 H 417.825 -3.84207 1.62606 0
M  V30 4514 H 416.455 -3.14637 0.721341 0
M  V30 4515 H 415.507 -2.33659 3.00179 0
M  V30 4516 H 416.819 -3.23402 3.79753 0
M  V30 4517 H 415.973 -5.37475 2.81434 0
M  V30 4518 H 414.712 -4.4856 1.91431 0
M  V30 4519 H 413.717 -3.68864 4.077 0
M  V30 4520 H 414.942 -4.61124 4.98539 0
M  V30 4521 H 412.888 -5.79314 3.07785 0
M  V30 4522 H 412.805 -5.83367 4.80853 0
M  V30 4523 H 414.073 -6.69637 3.99007 0
M  V30 4524 N 418.302 -1.35869 -0.798587 0
M  V30 4525 C 419.551 -1.28921 -1.5512 0
M  V30 4526 C 419.864 0.13208 -1.95154 0
M  V30 4527 O 421.07 0.323879 -2.69561 0
M  V30 4528 C 419.526 -2.26141 -2.79979 0
M  V30 4529 C 419.134 -3.73658 -2.47151 0
M  V30 4530 C 420.878 -2.28152 -3.57976 0
M  V30 4531 C 418.785 -4.62679 -3.6835 0
M  V30 4532 H 417.715 -0.479031 -0.582276 0
M  V30 4533 H 420.366 -1.61179 -0.877125 0
M  V30 4534 H 418.748 -1.86865 -3.49138 0
M  V30 4535 H 419.922 -4.21616 -1.85947 0
M  V30 4536 H 418.237 -3.74333 -1.82383 0
M  V30 4537 H 420.834 -2.91875 -4.4801 0
M  V30 4538 H 421.177 -1.28748 -3.95891 0
M  V30 4539 H 421.71 -2.65998 -2.95787 0
M  V30 4540 H 418.449 -5.63111 -3.35538 0
M  V30 4541 H 417.969 -4.19442 -4.28752 0
M  V30 4542 H 419.648 -4.78498 -4.35487 0
M  V30 4543 N 419.78 1.02168 -1.19998 0
M  V30 4544 C 421.191 1.57135 -1.00825 0
M  V30 4545 C 421.542 1.91276 0.436818 0
M  V30 4546 O 420.667 1.71679 1.3174 0
M  V30 4547 C 421.262 2.85514 -1.82393 0
M  V30 4548 C 419.821 3.37027 -1.67601 0
M  V30 4549 C 418.968 2.10388 -1.80644 0
M  V30 4550 H 421.919 0.846106 -1.34264 0
M  V30 4551 H 421.94 3.56711 -1.32429 0
M  V30 4552 H 421.452 2.60634 -2.87561 0
M  V30 4553 H 419.553 3.66878 -0.650485 0
M  V30 4554 H 419.666 4.09572 -2.4857 0
M  V30 4555 H 418.03 2.22601 -1.23778 0
M  V30 4556 H 418.813 1.8794 -2.87286 0
M  V30 4557 N 421.258 1.00505 1.21394 0
M  V30 4558 C 422.488 0.705584 1.94178 0
M  V30 4559 C 422.896 -0.735846 1.74304 0
M  V30 4560 O 422.239 -1.50954 1.04683 0
M  V30 4561 C 422.301 0.94689 3.46806 0
M  V30 4562 C 421.965 2.37517 3.90429 0
M  V30 4563 C 422.962 3.35539 3.97127 0
M  V30 4564 C 420.647 2.71284 4.22742 0
M  V30 4565 C 422.641 4.65395 4.3553 0
M  V30 4566 C 420.328 4.01356 4.60822 0
M  V30 4567 C 421.326 4.98223 4.67186 0
M  V30 4568 O 421.014 6.25969 5.04399 0
M  V30 4569 H 420.746 0.259216 0.624326 0
M  V30 4570 H 423.3 1.34592 1.55159 0
M  V30 4571 H 421.53 0.249386 3.85895 0
M  V30 4572 H 423.219 0.640804 4.0081 0
M  V30 4573 H 423.985 3.10786 3.7234 0
M  V30 4574 H 419.864 1.96581 4.16985 0
M  V30 4575 H 423.408 5.41002 4.40412 0
M  V30 4576 H 419.305 4.25893 4.85063 0
M  V30 4577 H 420.073 6.30085 5.22431 0
M  V30 4578 N 422.737 -1.36956 0.779787 0
M  V30 4579 C 423.667 -2.32761 0.185651 0
M  V30 4580 C 424.648 -1.56177 -0.673989 0
M  V30 4581 O 425.833 -1.84378 -0.609797 0
M  V30 4582 C 422.963 -3.40418 -0.687964 0
M  V30 4583 C 421.917 -4.27941 0.0710102 0
M  V30 4584 C 421.243 -5.26681 -0.922573 0
M  V30 4585 C 422.543 -5.07006 1.25467 0
M  V30 4586 H 424.237 -2.82698 0.986008 0
M  V30 4587 H 421.783 -1.3592 0.475592 0
M  V30 4588 H 423.736 -4.06423 -1.11348 0
M  V30 4589 H 422.46 -2.89025 -1.52093 0
M  V30 4590 H 421.119 -3.63478 0.47739 0
M  V30 4591 H 420.767 -4.71565 -1.7503 0
M  V30 4592 H 420.467 -5.86103 -0.419237 0
M  V30 4593 H 421.991 -5.9556 -1.34686 0
M  V30 4594 H 423.405 -5.66105 0.905401 0
M  V30 4595 H 421.802 -5.75793 1.69063 0
M  V30 4596 H 422.872 -4.3921 2.05481 0
M  V30 4597 N 424.215 -0.530993 -1.48385 0
M  V30 4598 C 425.492 0.0671788 -1.95485 0
M  V30 4599 C 425.872 1.51191 -1.47324 0
M  V30 4600 O 425.22 2.17507 -0.700202 0
M  V30 4601 C 425.43 -0.0511206 -3.48963 0
M  V30 4602 C 426.778 0.107632 -4.24464 0
M  V30 4603 O 427.802 0.0226248 -3.56193 0
M  V30 4604 O 426.661 0.285972 -5.45751 0
M  V30 4605 H 423.755 0.0787365 -0.823243 0
M  V30 4606 H 426.301 -0.595662 -1.58902 0
M  V30 4607 H 425.073 -1.05747 -3.7674 0
M  V30 4608 H 424.696 0.650525 -3.92242 0
M  V30 4609 N 425.693 1.55336 -0.266172 0
M  V30 4610 C 426.603 2.2583 0.635458 0
M  V30 4611 C 427.619 1.28106 1.17749 0
M  V30 4612 O 428.795 1.61024 1.20968 0
M  V30 4613 C 425.86 2.95879 1.80712 0
M  V30 4614 C 424.921 4.09059 1.30265 0
M  V30 4615 C 424.154 4.75759 2.41846 0
M  V30 4616 O 424.377 4.41622 3.61007 0
M  V30 4617 O 423.311 5.63888 2.1051 0
M  V30 4618 H 427.137 3.03631 0.0646693 0
M  V30 4619 H 424.722 1.49361 -0.0339177 0
M  V30 4620 H 426.604 3.39932 2.49047 0
M  V30 4621 H 425.279 2.21002 2.36516 0
M  V30 4622 H 424.186 3.69482 0.586019 0
M  V30 4623 H 425.519 4.85811 0.790458 0
M  V30 4624 N 427.171 -0.0066808 1.57599 0
M  V30 4625 C 428.103 -1.02827 2.04839 0
M  V30 4626 C 429.116 -1.31108 0.965113 0
M  V30 4627 O 430.305 -1.28202 1.24203 0
M  V30 4628 C 427.405 -2.36464 2.42771 0
M  V30 4629 C 426.578 -2.27219 3.73751 0
M  V30 4630 C 425.637 -3.43489 3.98625 0
M  V30 4631 O 424.663 -3.21976 4.69382 0
M  V30 4632 N 425.865 -4.66116 3.46 0
M  V30 4633 H 428.63 -0.625455 2.93101 0
M  V30 4634 H 426.191 -0.194198 1.60731 0
M  V30 4635 H 428.183 -3.13008 2.56531 0
M  V30 4636 H 426.753 -2.68512 1.60063 0
M  V30 4637 H 425.973 -1.35629 3.70133 0
M  V30 4638 H 427.261 -2.18208 4.59633 0
M  V30 4639 H 426.659 -4.86493 2.88688 0
M  V30 4640 H 425.216 -5.39949 3.65101 0
M  V30 4641 N 428.649 -1.55105 -0.279332 0
M  V30 4642 C 429.579 -1.90557 -1.34945 0
M  V30 4643 C 430.56 -0.766738 -1.51839 0
M  V30 4644 O 431.745 -1.02434 -1.64988 0
M  V30 4645 C 428.875 -2.17193 -2.71006 0
M  V30 4646 C 427.829 -3.33021 -2.68851 0
M  V30 4647 C 427.155 -3.45123 -4.08405 0
M  V30 4648 C 428.455 -4.69578 -2.28678 0
M  V30 4649 H 430.149 -2.80188 -1.05522 0
M  V30 4650 H 427.695 -1.34811 -0.506173 0
M  V30 4651 H 429.648 -2.40581 -3.45975 0
M  V30 4652 H 428.372 -1.24355 -3.01999 0
M  V30 4653 H 427.031 -3.0959 -1.9634 0
M  V30 4654 H 426.679 -2.49762 -4.3661 0
M  V30 4655 H 426.379 -4.22995 -4.07859 0
M  V30 4656 H 427.903 -3.70796 -4.85121 0
M  V30 4657 H 429.317 -4.92553 -2.93368 0
M  V30 4658 H 427.714 -5.5032 -2.39306 0
M  V30 4659 H 428.784 -4.68828 -1.23807 0
M  V30 4660 N 430.127 0.543554 -1.4793 0
M  V30 4661 C 431.059 1.665 -1.57513 0
M  V30 4662 C 432.072 1.56156 -0.460333 0
M  V30 4663 O 433.261 1.62865 -0.730573 0
M  V30 4664 C 430.361 3.05063 -1.47614 0
M  V30 4665 C 429.534 3.41024 -2.739 0
M  V30 4666 C 428.593 4.58809 -2.57645 0
M  V30 4667 O 427.619 4.62707 -3.31498 0
M  V30 4668 N 428.821 5.56149 -1.66368 0
M  V30 4669 H 431.586 1.5872 -2.5422 0
M  V30 4670 H 429.147 0.730517 -1.44482 0
M  V30 4671 H 431.139 3.81712 -1.34455 0
M  V30 4672 H 429.709 3.06994 -0.589359 0
M  V30 4673 H 428.929 2.53687 -3.01723 0
M  V30 4674 H 430.217 3.61831 -3.57709 0
M  V30 4675 H 429.615 5.55767 -1.05543 0
M  V30 4676 H 428.172 6.32071 -1.59154 0
M  V30 4677 N 431.605 1.3629 0.791371 0
M  V30 4678 C 432.553 1.30514 1.92533 0
M  V30 4679 C 433.547 0.197285 1.68247 0
M  V30 4680 O 434.753 0.364176 1.76278 0
M  V30 4681 H 431.128 0.406263 0.632815 0
M  V30 4682 H 433.099 2.26282 1.94523 0
M  V30 4683 C 431.848 1.10933 3.29529 0
M  V30 4684 H 431.171 1.95427 3.48781 0
M  V30 4685 H 432.611 1.10937 4.0923 0
M  V30 4686 C 431.07 -0.186123 3.36385 0
M  V30 4687 O 431.6 -1.17664 3.84081 0
M  V30 4688 N 429.806 -0.230128 2.89687 0
M  V30 4689 H 429.353 0.576545 2.51065 0
M  V30 4690 H 429.311 -1.09658 2.94657 0
M  V30 4691 N 433.083 -1.0153 1.20538 0
M  V30 4692 C 434.013 -2.11972 0.979295 0
M  V30 4693 C 434.994 -1.6985 -0.0921787 0
M  V30 4694 O 436.179 -1.94089 0.0655932 0
M  V30 4695 C 433.309 -3.43201 0.531984 0
M  V30 4696 C 432.263 -3.9907 1.54685 0
M  V30 4697 C 431.589 -5.26082 0.956127 0
M  V30 4698 C 432.889 -4.32313 2.93092 0
M  V30 4699 H 434.583 -2.31143 1.90298 0
M  V30 4700 H 432.129 -1.11079 0.916372 0
M  V30 4701 H 434.082 -4.1985 0.361044 0
M  V30 4702 H 432.806 -3.23792 -0.427327 0
M  V30 4703 H 431.465 -3.2453 1.70517 0
M  V30 4704 H 431.113 -5.02999 -0.0111538 0
M  V30 4705 H 430.813 -5.64426 1.63393 0
M  V30 4706 H 432.337 -6.05386 0.796284 0
M  V30 4707 H 433.751 -4.99845 2.80763 0
M  V30 4708 H 432.148 -4.81774 3.57791 0
M  V30 4709 H 433.218 -3.41025 3.44717 0
M  V30 4710 N 434.561 -1.01147 -1.20859 0
M  V30 4711 C 435.494 -0.522108 -2.22147 0
M  V30 4712 C 436.472 0.427686 -1.56874 0
M  V30 4713 O 437.656 0.34889 -1.85243 0
M  V30 4714 C 434.783 0.240819 -3.37843 0
M  V30 4715 C 433.829 -0.657752 -4.21398 0
M  V30 4716 S 434.662 -2.12393 -4.91578 0
M  V30 4717 C 435.818 -1.37102 -6.10699 0
M  V30 4718 H 436.051 -1.38035 -2.63313 0
M  V30 4719 H 433.584 -0.819941 -1.30829 0
M  V30 4720 H 435.542 0.674908 -4.04914 0
M  V30 4721 H 434.203 1.07457 -2.95147 0
M  V30 4722 H 433.396 -0.0697456 -5.03952 0
M  V30 4723 H 432.998 -1.0294 -3.59555 0
M  V30 4724 H 435.29 -0.648315 -6.74391 0
M  V30 4725 H 436.233 -2.17252 -6.73949 0
M  V30 4726 H 436.641 -0.876154 -5.57659 0
M  V30 4727 N 436.039 1.36541 -0.78704 0
M  V30 4728 C 437.279 2.01138 -0.363714 0
M  V30 4729 C 437.643 1.61114 1.04433 0
M  V30 4730 O 438.844 2.18285 1.56861 0
M  V30 4731 C 437.115 3.53603 -0.519582 0
M  V30 4732 S 438.674 4.38415 -0.183782 0
M  V30 4733 H 435.492 0.697263 -0.13909 0
M  V30 4734 H 438.094 1.66475 -1.02501 0
M  V30 4735 H 436.798 3.8022 -1.5447 0
M  V30 4736 H 436.329 3.93084 0.15773 0
M  V30 4737 H 438.344 4.85698 1.01547 0
M  V30 4738 N 437.518 0.538854 1.48102 0
M  V30 4739 C 438.934 0.19732 1.58376 0
M  V30 4740 C 439.134 -1.29971 1.5398 0
M  V30 4741 O 438.19 -2.07861 1.43352 0
M  V30 4742 C 439.503 0.807716 2.89649 0
M  V30 4743 C 441.051 0.77726 3.03196 0
M  V30 4744 C 441.526 1.36639 4.37143 0
M  V30 4745 N 443.017 1.32875 4.43732 0
M  V30 4746 C 443.752 1.7544 5.45901 0
M  V30 4747 N 443.248 2.25776 6.54979 0
M  V30 4748 N 445.041 1.66623 5.36836 0
M  V30 4749 H 437.192 1.5117 1.49202 0
M  V30 4750 H 439.455 0.629327 0.708979 0
M  V30 4751 H 439.161 1.85909 2.98548 0
M  V30 4752 H 439.035 0.289975 3.76084 0
M  V30 4753 H 441.422 -0.265374 2.93904 0
M  V30 4754 H 441.503 1.33256 2.18349 0
M  V30 4755 H 441.147 2.408 4.47189 0
M  V30 4756 H 441.077 0.786689 5.20691 0
M  V30 4757 H 443.568 0.96037 3.65493 0
M  V30 4758 H 443.881 2.56226 7.29087 0
M  V30 4759 H 442.226 2.29775 6.55918 0
M  V30 4760 H 445.417 1.27089 4.50517 0
M  V30 4761 H 445.59 2.00115 6.16326 0
M  V30 4762 N 438.996 -1.55193 0.274407 0
M  V30 4763 C 440.226 -2.03692 -0.345442 0
M  V30 4764 C 440.634 -1.15224 -1.50067 0
M  V30 4765 O 439.977 -0.164749 -1.8296 0
M  V30 4766 C 440.039 -3.48325 -0.88939 0
M  V30 4767 C 439.703 -4.56794 0.137115 0
M  V30 4768 C 440.7 -5.11028 0.956378 0
M  V30 4769 C 438.385 -5.01568 0.27115 0
M  V30 4770 C 440.379 -6.08552 1.89587 0
M  V30 4771 C 438.066 -5.98918 1.21412 0
M  V30 4772 C 439.064 -6.52291 2.02498 0
M  V30 4773 O 438.752 -7.47738 2.952 0
M  V30 4774 H 438.484 -0.670893 -0.0829332 0
M  V30 4775 H 441.038 -2.01387 0.404056 0
M  V30 4776 H 439.268 -3.47867 -1.68895 0
M  V30 4777 H 440.957 -3.80167 -1.42225 0
M  V30 4778 H 441.723 -4.7725 0.863559 0
M  V30 4779 H 437.602 -4.5967 -0.349987 0
M  V30 4780 H 441.146 -6.50137 2.52918 0
M  V30 4781 H 437.043 -6.32114 1.30776 0
M  V30 4782 H 437.811 -7.65451 2.89874 0
M  V30 4783 N 440.474 -0.00167713 -1.576 0
M  V30 4784 C 441.699 0.69739 -1.95323 0
M  V30 4785 C 442.124 1.6642 -0.876706 0
M  V30 4786 O 441.482 1.80548 0.165007 0
M  V30 4787 C 441.53 1.40403 -3.32144 0
M  V30 4788 O 440.634 2.5185 -3.26566 0
M  V30 4789 H 439.975 0.185373 -0.637599 0
M  V30 4790 H 442.505 -0.0553665 -2.04525 0
M  V30 4791 H 442.515 1.76707 -3.67748 0
M  V30 4792 H 441.19 0.695167 -4.10049 0
M  V30 4793 H 439.767 2.17861 -3.0264 0
M  V30 4794 N 441.952 1.55251 0.271103 0
M  V30 4795 C 442.862 1.9136 1.35714 0
M  V30 4796 C 443.878 0.811075 1.5394 0
M  V30 4797 O 445.054 1.11031 1.6803 0
M  V30 4798 C 442.119 2.1798 2.69603 0
M  V30 4799 C 441.18 3.4153 2.60107 0
M  V30 4800 C 440.413 3.66871 3.8761 0
M  V30 4801 O 440.636 2.94689 4.8838 0
M  V30 4802 O 439.57 4.60405 3.87699 0
M  V30 4803 H 443.396 2.83815 1.08088 0
M  V30 4804 H 440.981 1.41821 0.469792 0
M  V30 4805 H 442.863 2.36518 3.48765 0
M  V30 4806 H 441.538 1.28708 2.97012 0
M  V30 4807 H 440.445 3.28325 1.79314 0
M  V30 4808 H 441.778 4.31027 2.37647 0
M  V30 4809 N 443.43 -0.535701 1.48216 0
M  V30 4810 C 444.363 -1.65726 1.56876 0
M  V30 4811 C 445.341 -1.57094 0.419542 0
M  V30 4812 O 446.525 -1.77648 0.630352 0
M  V30 4813 C 443.652 -3.04096 1.49142 0
M  V30 4814 C 442.698 -3.31105 2.68834 0
M  V30 4815 S 443.531 -3.18001 4.30854 0
M  V30 4816 C 444.687 -4.58828 4.25709 0
M  V30 4817 H 444.92 -1.58129 2.51759 0
M  V30 4818 H 442.453 -0.718218 1.36678 0
M  V30 4819 H 444.411 -3.839 1.45366 0
M  V30 4820 H 443.072 -3.09139 0.556067 0
M  V30 4821 H 442.265 -4.32033 2.59545 0
M  V30 4822 H 441.867 -2.58961 2.69843 0
M  V30 4823 H 444.159 -5.5023 3.95289 0
M  V30 4824 H 445.102 -4.73172 5.26796 0
M  V30 4825 H 445.51 -4.37883 3.56257 0
M  V30 4826 N 444.908 -1.36708 -0.784132 0
M  V30 4827 C 446.136 -1.34398 -1.57305 0
M  V30 4828 C 446.551 0.0735577 -1.88657 0
M  V30 4829 O 445.908 1.03193 -1.50524 0
M  V30 4830 C 445.959 -2.17053 -2.89085 0
M  V30 4831 O 445.68 -3.53281 -2.59083 0
M  V30 4832 C 447.181 -2.22583 -3.83369 0
M  V30 4833 H 444.401 -0.460819 -0.487736 0
M  V30 4834 H 446.945 -1.79879 -0.972819 0
M  V30 4835 H 445.1 -1.75113 -3.45564 0
M  V30 4836 H 445.514 -3.9647 -3.43383 0
M  V30 4837 H 446.988 -2.84763 -4.72878 0
M  V30 4838 H 447.465 -1.23075 -4.21603 0
M  V30 4839 H 448.071 -2.64781 -3.32823 0
M  V30 4840 N 446.386 1.0089 -1.21074 0
M  V30 4841 C 447.316 2.1145 -0.990523 0
M  V30 4842 C 448.297 1.69897 0.0831699 0
M  V30 4843 O 449.482 1.94052 -0.0758853 0
M  V30 4844 C 446.612 3.42914 -0.550177 0
M  V30 4845 C 445.566 3.98244 -1.56799 0
M  V30 4846 C 444.892 5.25568 -0.984013 0
M  V30 4847 C 446.192 4.30752 -2.95381 0
M  V30 4848 H 447.886 2.3013 -1.91521 0
M  V30 4849 H 445.432 1.10592 -0.92225 0
M  V30 4850 H 447.385 4.19653 -0.383305 0
M  V30 4851 H 446.109 3.24014 0.41015 0
M  V30 4852 H 444.768 3.23621 -1.72236 0
M  V30 4853 H 444.416 5.02998 -0.0155216 0
M  V30 4854 H 444.116 5.63551 -1.66384 0
M  V30 4855 H 445.64 6.04955 -0.828378 0
M  V30 4856 H 447.054 4.98349 -2.8341 0
M  V30 4857 H 445.451 4.79869 -3.60341 0
M  V30 4858 H 446.521 3.39192 -3.46521 0
M  V30 4859 N 447.864 1.01787 1.20321 0
M  V30 4860 C 448.774 0.598898 2.26827 0
M  V30 4861 C 449.79 -0.36418 1.70146 0
M  V30 4862 O 450.966 -0.224812 2.00141 0
M  V30 4863 C 448.031 -0.0549769 3.46656 0
M  V30 4864 C 447.092 0.954205 4.18561 0
M  V30 4865 C 446.325 0.331439 5.3267 0
M  V30 4866 O 446.548 -0.86851 5.63749 0
M  V30 4867 O 445.482 1.0488 5.92692 0
M  V30 4868 H 449.308 1.48562 2.64883 0
M  V30 4869 H 446.893 0.787434 1.26964 0
M  V30 4870 H 448.775 -0.420102 4.19301 0
M  V30 4871 H 447.45 -0.915876 3.10473 0
M  V30 4872 H 446.357 1.37072 3.48083 0
M  V30 4873 H 447.69 1.78511 4.58688 0
M  V30 4874 N 449.342 -1.36122 0.79427 0
M  V30 4875 C 450.619 -1.93398 0.292685 0
M  V30 4876 C 450.999 -1.72567 -1.21589 0
M  V30 4877 O 450.347 -1.08745 -2.00965 0
M  V30 4878 C 450.557 -3.42099 0.690614 0
M  V30 4879 C 451.905 -4.19231 0.673105 0
M  V30 4880 O 452.929 -3.50559 0.631389 0
M  V30 4881 O 451.788 -5.41732 0.720362 0
M  V30 4882 H 448.882 -0.823712 0.0736693 0
M  V30 4883 H 451.428 -1.45273 0.87714 0
M  V30 4884 H 450.2 -3.50938 1.73085 0
M  V30 4885 H 449.823 -3.97519 0.0803036 0
M  V30 4886 N 450.82 -0.546701 -1.47814 0
M  V30 4887 C 451.767 0.206854 -2.29871 0
M  V30 4888 C 452.737 0.918235 -1.38411 0
M  V30 4889 O 453.922 0.915991 -1.67375 0
M  V30 4890 C 451.062 1.23746 -3.22151 0
M  V30 4891 C 450.175 0.533216 -4.28697 0
M  V30 4892 C 449.31 1.5482 -5.08138 0
M  V30 4893 C 448.349 0.828347 -6.06469 0
M  V30 4894 N 447.486 1.78966 -6.78908 0
M  V30 4895 H 452.326 -0.499037 -2.93792 0
M  V30 4896 H 449.863 -0.25793 -1.44821 0
M  V30 4897 H 451.821 1.84746 -3.74065 0
M  V30 4898 H 450.451 1.91151 -2.60117 0
M  V30 4899 H 449.503 -0.191089 -3.7992 0
M  V30 4900 H 450.815 -0.0311987 -4.9879 0
M  V30 4901 H 449.969 2.23202 -5.6415 0
M  V30 4902 H 448.708 2.14652 -4.37922 0
M  V30 4903 H 447.713 0.130539 -5.49645 0
M  V30 4904 H 448.938 0.235907 -6.7869 0
M  V30 4905 H 446.884 2.37675 -6.1143 0
M  V30 4906 H 446.801 1.27712 -7.45135 0
M  V30 4907 H 448.069 2.46496 -7.395 0
M  V30 4908 N 452.299 1.55045 -0.282633 0
M  V30 4909 C 453.247 2.24254 0.617478 0
M  V30 4910 C 454.241 1.24215 1.15183 0
M  V30 4911 O 455.447 1.42123 1.10459 0
M  V30 4912 H 451.822 0.719801 0.217693 0
M  V30 4913 H 453.793 2.98398 0.0110076 0
M  V30 4914 C 452.542 2.98281 1.78672 0
M  V30 4915 H 451.865 3.75053 1.38475 0
M  V30 4916 H 453.305 3.50017 2.393 0
M  V30 4917 C 451.764 2.04184 2.67975 0
M  V30 4918 O 452.294 1.59792 3.6855 0
M  V30 4919 N 450.5 1.70526 2.35307 0
M  V30 4920 H 450.047 2.06821 1.53567 0
M  V30 4921 H 450.005 1.07839 2.95327 0
M  V30 4922 N 453.777 0.010035 1.57597 0
M  V30 4923 C 454.707 -0.976857 2.12084 0
M  V30 4924 C 455.688 -1.35191 1.03235 0
M  V30 4925 O 456.873 -1.43389 1.3097 0
M  V30 4926 C 454.003 -2.26548 2.63236 0
M  V30 4927 C 452.957 -2.03175 3.76701 0
M  V30 4928 C 452.283 -3.38138 4.14206 0
M  V30 4929 C 453.583 -1.38625 5.03568 0
M  V30 4930 H 455.277 -0.523145 2.94794 0
M  V30 4931 H 452.823 -0.250195 1.4181 0
M  V30 4932 H 454.776 -2.95952 2.99984 0
M  V30 4933 H 453.5 -2.74051 1.77661 0
M  V30 4934 H 452.159 -1.36195 3.40362 0
M  V30 4935 H 451.807 -3.83363 3.25641 0
M  V30 4936 H 451.507 -3.23312 4.90656 0
M  V30 4937 H 453.031 -4.08841 4.53521 0
M  V30 4938 H 454.445 -1.98 5.38023 0
M  V30 4939 H 452.842 -1.34256 5.84889 0
M  V30 4940 H 453.912 -0.356722 4.83586 0
M  V30 4941 N 455.255 -1.55392 -0.262866 0
M  V30 4942 C 456.532 -1.67204 -1.01499 0
M  V30 4943 C 456.912 -0.545186 -2.03939 0
M  V30 4944 O 456.26 0.453467 -2.23955 0
M  V30 4945 C 456.47 -3.06847 -1.6627 0
M  V30 4946 C 457.818 -3.64928 -2.17054 0
M  V30 4947 O 458.842 -3.09545 -1.76239 0
M  V30 4948 O 457.701 -4.61984 -2.91947 0
M  V30 4949 H 454.795 -0.679467 -0.471438 0
M  V30 4950 H 457.341 -1.67729 -0.257918 0
M  V30 4951 H 456.113 -3.80309 -0.920915 0
M  V30 4952 H 455.736 -3.10266 -2.48638 0
M  V30 4953 N 456.733 0.527833 -1.48498 0
M  V30 4954 C 457.973 1.29401 -1.58224 0
M  V30 4955 C 458.337 1.90348 -0.251327 0
M  V30 4956 O 459.538 2.67868 -0.223588 0
M  V30 4957 C 457.809 2.35266 -2.69044 0
M  V30 4958 S 459.368 3.2158 -2.98549 0
M  V30 4959 H 456.186 0.440138 -0.558391 0
M  V30 4960 H 458.788 0.601079 -1.8603 0
M  V30 4961 H 457.492 1.88975 -3.64303 0
M  V30 4962 H 457.023 3.09263 -2.43146 0
M  V30 4963 H 459.038 4.35391 -2.38011 0
M  V30 4964 N 458.211 1.37122 0.776871 0
M  V30 4965 C 459.143 1.28342 1.89897 0
M  V30 4966 C 460.156 0.200277 1.61563 0
M  V30 4967 O 461.345 0.456012 1.72577 0
M  V30 4968 C 458.445 0.960427 3.25006 0
M  V30 4969 C 457.618 2.148 3.81025 0
M  V30 4970 C 456.677 1.79608 4.94598 0
M  V30 4971 O 455.703 2.51845 5.10454 0
M  V30 4972 N 456.905 0.737171 5.758 0
M  V30 4973 H 459.67 2.25027 1.97947 0
M  V30 4974 H 457.231 1.3068 0.955739 0
M  V30 4975 H 459.223 0.705942 3.98495 0
M  V30 4976 H 457.793 0.0823066 3.12492 0
M  V30 4977 H 457.013 2.56454 2.99374 0
M  V30 4978 H 458.301 2.9411 4.15183 0
M  V30 4979 H 457.699 0.137637 5.65533 0
M  V30 4980 H 456.256 0.542534 6.49538 0
M  V30 4981 N 459.689 -1.00246 1.21608 0
M  V30 4982 C 460.636 -2.09073 0.977613 0
M  V30 4983 C 461.606 -1.65815 -0.097297 0
M  V30 4984 O 462.791 -1.90734 0.0503445 0
M  V30 4985 C 459.931 -3.40671 0.551133 0
M  V30 4986 C 459.044 -3.97326 1.69576 0
M  V30 4987 C 458.179 -5.17043 1.2182 0
M  V30 4988 C 457.218 -5.65813 2.335 0
M  V30 4989 N 456.355 -6.76778 1.86859 0
M  V30 4990 H 461.195 -2.28806 1.90924 0
M  V30 4991 H 458.732 -1.12186 0.951452 0
M  V30 4992 H 460.69 -4.16225 0.285097 0
M  V30 4993 H 459.32 -3.20967 -0.343489 0
M  V30 4994 H 458.372 -3.18734 2.07637 0
M  V30 4995 H 459.684 -4.29511 2.53617 0
M  V30 4996 H 458.838 -5.99852 0.908975 0
M  V30 4997 H 457.577 -4.86458 0.347869 0
M  V30 4998 H 456.582 -4.81599 2.65222 0
M  V30 4999 H 457.807 -5.98427 3.21033 0
M  V30 5000 H 455.753 -6.47994 1.02174 0
M  V30 5001 H 455.67 -7.08231 2.64471 0
M  V30 5002 H 456.938 -7.63116 1.58978 0
M  V30 5003 N 461.167 -1.02423 -1.1978 0
M  V30 5004 C 462.077 -0.610919 -2.26506 0
M  V30 5005 C 463.093 0.355152 -1.70337 0
M  V30 5006 O 464.269 0.214195 -2.00258 0
M  V30 5007 C 461.334 0.0365921 -3.46681 0
M  V30 5008 C 460.395 -0.976389 -4.18049 0
M  V30 5009 C 459.628 -0.359683 -5.32487 0
M  V30 5010 O 459.851 0.838601 -5.64202 0
M  V30 5011 O 458.785 -1.08022 -5.92127 0
M  V30 5012 H 462.611 -1.49965 -2.64091 0
M  V30 5013 H 460.196 -0.794156 -1.26545 0
M  V30 5014 H 462.078 0.39786 -4.19518 0
M  V30 5015 H 460.753 0.899398 -3.10954 0
M  V30 5016 H 459.66 -1.38916 -3.47352 0
M  V30 5017 H 460.993 -1.80941 -4.57735 0
M  V30 5018 N 462.645 1.35699 -0.801477 0
M  V30 5019 C 463.608 2.28199 -0.213994 0
M  V30 5020 C 464.608 1.49359 0.595691 0
M  V30 5021 O 465.798 1.69186 0.414921 0
M  V30 5022 C 462.93 3.33587 0.702297 0
M  V30 5023 H 464.123 2.81666 -1.02976 0
M  V30 5024 H 461.676 1.45467 -0.571759 0
M  V30 5025 H 462.411 2.85297 1.54195 0
M  V30 5026 H 462.196 3.91906 0.123484 0
M  V30 5027 H 463.686 4.02638 1.10783 0
M  V30 5028 N 464.123 0.554532 1.47522 0
M  V30 5029 C 465.086 -0.184174 2.28459 0
M  V30 5030 C 466.086 -0.845195 1.36796 0
M  V30 5031 O 467.276 -0.701467 1.59452 0
M  V30 5032 C 464.408 -1.26903 3.16399 0
M  V30 5033 H 465.601 0.526751 2.95238 0
M  V30 5034 H 463.154 0.311375 1.53167 0
M  V30 5035 H 463.889 -2.01244 2.54306 0
M  V30 5036 H 463.674 -0.799883 3.83854 0
M  V30 5037 H 465.164 -1.78794 3.77389 0
M  V30 5038 N 465.601 -1.54893 0.290851 0
M  V30 5039 C 466.551 -2.19838 -0.604599 0
M  V30 5040 C 467.535 -1.16805 -1.10659 0
M  V30 5041 O 468.727 -1.42562 -1.04905 0
M  V30 5042 C 465.856 -2.93497 -1.78086 0
M  V30 5043 C 464.942 -4.03835 -1.29531 0
M  V30 5044 N 465.333 -5.03047 -0.527024 0
M  V30 5045 C 463.631 -4.17192 -1.57693 0
M  V30 5046 C 464.332 -5.81074 -0.269728 0
M  V30 5047 N 463.308 -5.36966 -0.846651 0
M  V30 5048 H 467.11 -2.93898 -0.00995032 0
M  V30 5049 H 464.624 -1.62121 0.0951353 0
M  V30 5050 H 466.621 -3.38484 -2.43381 0
M  V30 5051 H 465.281 -2.2095 -2.37931 0
M  V30 5052 H 466.292 -5.17611 -0.172872 0
M  V30 5053 H 462.969 -3.55845 -2.18359 0
M  V30 5054 H 464.359 -6.71005 0.346643 0
M  V30 5055 N 467.08 -0.0183926 -1.57589 0
M  V30 5056 C 468.329 0.66185 -1.90532 0
M  V30 5057 C 468.642 1.73904 -0.895366 0
M  V30 5058 O 469.848 2.47518 -1.11566 0
M  V30 5059 C 468.304 1.22844 -3.38286 0
M  V30 5060 C 467.912 0.185103 -4.47617 0
M  V30 5061 C 469.656 1.88581 -3.80312 0
M  V30 5062 C 467.563 0.762723 -5.86461 0
M  V30 5063 H 466.493 0.250972 -0.711006 0
M  V30 5064 H 469.144 -0.0819435 -1.83317 0
M  V30 5065 H 467.526 2.0235 -3.40398 0
M  V30 5066 H 468.7 -0.58671 -4.5705 0
M  V30 5067 H 467.015 -0.372889 -4.14727 0
M  V30 5068 H 469.612 2.32735 -4.81392 0
M  V30 5069 H 469.955 2.72408 -3.14801 0
M  V30 5070 H 470.488 1.15782 -3.80578 0
M  V30 5071 H 467.227 -0.0371713 -6.55489 0
M  V30 5072 H 466.747 1.50327 -5.80656 0
M  V30 5073 H 468.426 1.25576 -6.34697 0
M  V30 5074 N 468.558 1.5553 0.254621 0
M  V30 5075 C 469.807 1.76202 0.981612 0
M  V30 5076 C 470.12 0.580883 1.86776 0
M  V30 5077 O 471.326 0.670448 2.63092 0
M  V30 5078 C 469.782 3.11921 1.79537 0
M  V30 5079 C 469.39 4.37659 0.956991 0
M  V30 5080 C 471.134 3.41936 2.51555 0
M  V30 5081 C 469.041 5.64411 1.76619 0
M  V30 5082 H 467.971 0.656841 0.370237 0
M  V30 5083 H 470.622 1.81969 0.236556 0
M  V30 5084 H 469.004 3.00241 2.58208 0
M  V30 5085 H 470.178 4.60307 0.21315 0
M  V30 5086 H 468.493 4.14922 0.350497 0
M  V30 5087 H 471.09 4.33849 3.12536 0
M  V30 5088 H 471.433 2.62905 3.22779 0
M  V30 5089 H 471.966 3.54797 1.799 0
M  V30 5090 H 468.705 6.46241 1.09783 0
M  V30 5091 H 468.225 5.45877 2.48551 0
M  V30 5092 H 469.904 6.03386 2.33527 0
M  V30 5093 N 470.036 -0.519951 1.48776 0
M  V30 5094 C 470.984 -1.64443 1.64503 0
M  V30 5095 C 471.978 -1.61501 0.511248 0
M  V30 5096 O 473.184 -1.66238 0.690294 0
M  V30 5097 H 469.559 -0.544776 0.518385 0
M  V30 5098 H 471.53 -1.48325 2.58925 0
M  V30 5099 C 470.279 -3.02673 1.71127 0
M  V30 5100 H 469.602 -3.05635 2.57735 0
M  V30 5101 H 471.042 -3.80941 1.86172 0
M  V30 5102 C 469.501 -3.33854 0.452032 0
M  V30 5103 O 470.031 -3.99385 -0.430678 0
M  V30 5104 N 468.237 -2.88825 0.32069 0
M  V30 5105 H 467.784 -2.35674 1.03998 0
M  V30 5106 H 467.742 -3.10056 -0.520814 0
M  V30 5107 N 471.514 -1.37532 -0.769588 0
M  V30 5108 C 472.477 -1.33292 -1.86456 0
M  V30 5109 C 473.477 -0.236537 -1.59051 0
M  V30 5110 O 474.667 -0.492511 -1.67093 0
M  V30 5111 C 471.799 -1.07118 -3.23633 0
M  V30 5112 H 472.992 -2.30692 -1.91628 0
M  V30 5113 H 470.545 -1.22593 -0.969572 0
M  V30 5114 H 471.28 -0.102578 -3.24138 0
M  V30 5115 H 471.065 -1.86479 -3.44917 0
M  V30 5116 H 472.555 -1.06806 -4.03711 0
M  V30 5117 N 472.992 0.995999 -1.22138 0
M  V30 5118 C 473.925 2.08302 -0.931952 0
M  V30 5119 C 474.903 1.62127 0.123956 0
M  V30 5120 O 476.087 1.88499 -0.00696004 0
M  V30 5121 C 473.214 3.36317 -0.401068 0
M  V30 5122 C 472.26 4.01413 -1.44117 0
M  V30 5123 S 473.093 4.42664 -3.01345 0
M  V30 5124 C 474.249 5.73853 -2.49887 0
M  V30 5125 H 474.482 2.32532 -1.85246 0
M  V30 5126 H 472.015 1.13005 -1.0521 0
M  V30 5127 H 473.973 4.10375 -0.101352 0
M  V30 5128 H 472.634 3.10123 0.498272 0
M  V30 5129 H 471.827 4.9358 -1.01952 0
M  V30 5130 H 471.429 3.33668 -1.68943 0
M  V30 5131 H 473.721 6.50039 -1.90934 0
M  V30 5132 H 474.664 6.20841 -3.40532 0
M  V30 5133 H 475.072 5.31105 -1.9128 0
M  V30 5134 N 474.47 1.03057 1.19235 0
M  V30 5135 C 475.402 0.570932 2.21975 0
M  V30 5136 C 476.415 -0.354088 1.58903 0
M  V30 5137 O 477.604 -0.150211 1.77867 0
M  V30 5138 C 474.704 -0.187152 3.38383 0
M  V30 5139 C 473.877 0.743231 4.31039 0
M  V30 5140 C 472.936 0.0302493 5.26191 0
M  V30 5141 O 471.962 0.657371 5.65391 0
M  V30 5142 N 473.164 -1.23991 5.67104 0
M  V30 5143 H 475.929 1.45456 2.62036 0
M  V30 5144 H 473.49 0.909807 1.33918 0
M  V30 5145 H 475.482 -0.673715 3.99053 0
M  V30 5146 H 474.052 -0.972205 2.97098 0
M  V30 5147 H 473.272 1.40985 3.68126 0
M  V30 5148 H 474.56 1.3755 4.89854 0
M  V30 5149 H 473.958 -1.77011 5.37293 0
M  V30 5150 H 472.515 -1.67093 6.30018 0
M  V30 5151 N 475.948 -1.35272 0.808662 0
M  V30 5152 C 476.895 -2.29764 0.218482 0
M  V30 5153 C 477.865 -1.52911 -0.648652 0
M  V30 5154 O 479.05 -1.81341 -0.593297 0
M  V30 5155 C 476.19 -3.39388 -0.625282 0
M  V30 5156 C 475.303 -4.31202 0.262516 0
M  V30 5157 C 474.438 -5.27919 -0.589451 0
M  V30 5158 C 473.477 -6.11371 0.298617 0
M  V30 5159 N 472.614 -7.0022 -0.513443 0
M  V30 5160 H 477.454 -2.79645 1.02968 0
M  V30 5161 H 474.991 -1.37629 0.519303 0
M  V30 5162 H 476.949 -4.01615 -1.12966 0
M  V30 5163 H 475.579 -2.90777 -1.40173 0
M  V30 5164 H 474.631 -3.69962 0.885013 0
M  V30 5165 H 475.943 -4.89748 0.945971 0
M  V30 5166 H 475.097 -5.95529 -1.15888 0
M  V30 5167 H 473.836 -4.69875 -1.30647 0
M  V30 5168 H 472.841 -5.42707 0.880301 0
M  V30 5169 H 474.066 -6.71494 1.01352 0
M  V30 5170 H 472.012 -6.44662 -1.21439 0
M  V30 5171 H 471.929 -7.55917 0.111922 0
M  V30 5172 H 473.197 -7.72175 -1.06608 0
M  V30 5173 N 477.426 -0.562348 -1.47226 0
M  V30 5174 C 478.842 -0.222492 -1.58042 0
M  V30 5175 C 479.042 1.27505 -1.56028 0
M  V30 5176 O 478.098 2.05555 -1.46641 0
M  V30 5177 C 479.411 -0.853694 -2.88327 0
M  V30 5178 C 480.959 -0.825397 -3.01921 0
M  V30 5179 C 481.434 -1.43576 -4.34914 0
M  V30 5180 N 482.925 -1.39918 -4.41562 0
M  V30 5181 C 483.66 -1.84103 -5.43041 0
M  V30 5182 N 483.156 -2.36167 -6.51304 0
M  V30 5183 N 484.949 -1.75142 -5.34118 0
M  V30 5184 H 477.1 -1.53525 -1.46778 0
M  V30 5185 H 479.363 -0.640527 -0.698877 0
M  V30 5186 H 479.069 -1.90635 -2.95552 0
M  V30 5187 H 478.943 -0.34977 -3.75575 0
M  V30 5188 H 481.33 0.218583 -2.94289 0
M  V30 5189 H 481.411 -1.36713 -2.16202 0
M  V30 5190 H 481.055 -2.47884 -4.43301 0
M  V30 5191 H 480.985 -0.869427 -5.19373 0
M  V30 5192 H 483.476 -1.0184 -3.63919 0
M  V30 5193 H 483.789 -2.67793 -7.24919 0
M  V30 5194 H 482.134 -2.40181 -6.52179 0
M  V30 5195 H 485.325 -1.34241 -4.48439 0
M  V30 5196 H 485.498 -2.09895 -6.13065 0
M  V30 5197 N 478.904 1.54736 -0.299062 0
M  V30 5198 C 480.153 1.99279 0.311549 0
M  V30 5199 C 480.466 1.19107 1.55154 0
M  V30 5200 O 481.672 1.53908 2.23662 0
M  V30 5201 C 480.128 3.54768 0.605632 0
M  V30 5202 C 479.736 4.43746 -0.615914 0
M  V30 5203 C 481.48 4.07841 1.17754 0
M  V30 5204 C 479.387 5.90663 -0.29509 0
M  V30 5205 H 478.317 0.744359 0.120187 0
M  V30 5206 H 480.968 1.78919 -0.407464 0
M  V30 5207 H 479.35 3.71021 1.38419 0
M  V30 5208 H 480.524 4.39267 -1.39218 0
M  V30 5209 H 478.839 4.01434 -1.10633 0
M  V30 5210 H 481.436 5.15174 1.43179 0
M  V30 5211 H 481.779 3.58324 2.11918 0
M  V30 5212 H 482.312 3.95123 0.460739 0
M  V30 5213 H 479.051 6.44325 -1.20524 0
M  V30 5214 H 478.571 5.98155 0.44394 0
M  V30 5215 H 480.25 6.46916 0.104048 0
M  V30 5216 N 480.382 0.0267497 1.57577 0
M  V30 5217 C 481.332 -0.965003 2.06571 0
M  V30 5218 C 482.316 -1.28694 0.965746 0
M  V30 5219 O 483.508 -1.27345 1.22932 0
M  V30 5220 C 480.637 -2.24821 2.59443 0
M  V30 5221 C 479.723 -1.95474 3.76365 0
M  V30 5222 N 480.114 -1.36387 4.87065 0
M  V30 5223 C 478.412 -2.25478 3.84806 0
M  V30 5224 C 479.113 -1.24119 5.68304 0
M  V30 5225 N 478.089 -1.7359 5.15138 0
M  V30 5226 H 481.891 -0.503095 2.89562 0
M  V30 5227 H 479.405 -0.178322 1.61418 0
M  V30 5228 H 481.402 -2.9674 2.92833 0
M  V30 5229 H 480.062 -2.7164 1.77881 0
M  V30 5230 H 481.073 -1.03919 5.07367 0
M  V30 5231 H 477.75 -2.74987 3.14147 0
M  V30 5232 H 479.14 -0.784504 6.67304 0
M  V30 5233 N 481.861 -1.55662 -0.24637 0
M  V30 5234 C 482.791 -1.93377 -1.30873 0
M  V30 5235 C 483.772 -0.798773 -1.50179 0
M  V30 5236 O 484.957 -1.0591 -1.62778 0
M  V30 5237 C 482.087 -2.22893 -2.66338 0
M  V30 5238 C 481.041 -3.38649 -2.61727 0
M  V30 5239 C 480.367 -3.53708 -4.00992 0
M  V30 5240 C 481.667 -4.74323 -2.18666 0
M  V30 5241 H 483.361 -2.82363 -0.995552 0
M  V30 5242 H 480.907 -1.35854 -0.477464 0
M  V30 5243 H 482.86 -2.47866 -3.40794 0
M  V30 5244 H 481.584 -1.30733 -2.99293 0
M  V30 5245 H 480.243 -3.13685 -1.89729 0
M  V30 5246 H 479.891 -2.58967 -4.31214 0
M  V30 5247 H 479.591 -4.31551 -3.98795 0
M  V30 5248 H 481.115 -3.81003 -4.77147 0
M  V30 5249 H 482.529 -4.98665 -2.82854 0
M  V30 5250 H 480.926 -5.55273 -2.27579 0
M  V30 5251 H 481.996 -4.71349 -1.13834 0
M  V30 5252 N 483.339 0.512053 -1.4905 0
M  V30 5253 C 484.271 1.63121 -1.6101 0
M  V30 5254 C 485.284 1.55145 -0.493352 0
M  V30 5255 O 486.473 1.61278 -0.764955 0
M  V30 5256 C 483.573 3.01863 -1.54052 0
M  V30 5257 C 482.746 3.35138 -2.81072 0
M  V30 5258 C 481.805 4.5324 -2.67319 0
M  V30 5259 O 480.831 4.55571 -3.41238 0
M  V30 5260 N 482.033 5.52495 -1.78127 0
M  V30 5261 H 484.798 1.53292 -2.5753 0
M  V30 5262 H 482.359 0.699706 -1.45999 0
M  V30 5263 H 484.351 3.78774 -1.42521 0
M  V30 5264 H 482.921 3.05675 -0.654345 0
M  V30 5265 H 482.141 2.4723 -3.07036 0
M  V30 5266 H 483.429 3.54162 -3.65304 0
M  V30 5267 H 482.827 5.53403 -1.17308 0
M  V30 5268 H 481.384 6.28553 -1.72525 0
M  V30 5269 N 484.817 1.37938 0.762283 0
M  V30 5270 C 486.045 1.36883 1.55147 0
M  V30 5271 C 486.46 -0.0435348 1.8875 0
M  V30 5272 O 485.817 -1.00786 1.52146 0
M  V30 5273 C 485.868 2.21624 2.85596 0
M  V30 5274 O 485.589 3.57358 2.5343 0
M  V30 5275 C 487.09 2.28653 3.7978 0
M  V30 5276 H 484.31 0.468521 0.480343 0
M  V30 5277 H 486.854 1.81404 0.944079 0
M  V30 5278 H 485.009 1.80588 3.42734 0
M  V30 5279 H 485.423 4.01883 3.37032 0
M  V30 5280 H 486.897 2.9225 4.68288 0
M  V30 5281 H 487.374 1.29767 4.19592 0
M  V30 5282 H 487.98 2.70043 3.28568 0
M  V30 5283 N 486.295 -0.989507 1.22664 0
M  V30 5284 C 487.225 -2.09847 1.02404 0
M  V30 5285 C 488.206 -1.70007 -0.0561303 0
M  V30 5286 O 489.391 -1.93906 0.106748 0
M  V30 5287 C 486.521 -3.41996 0.604663 0
M  V30 5288 C 485.475 -3.95699 1.63115 0
M  V30 5289 C 484.801 -5.23936 1.0675 0
M  V30 5290 C 486.101 -4.25999 3.02196 0
M  V30 5291 H 487.795 -2.27054 1.95158 0
M  V30 5292 H 485.341 -1.09111 0.939727 0
M  V30 5293 H 487.294 -4.1899 0.45002 0
M  V30 5294 H 486.018 -3.24626 -0.35855 0
M  V30 5295 H 484.677 -3.2084 1.77362 0
M  V30 5296 H 484.325 -5.02909 0.0955422 0
M  V30 5297 H 484.025 -5.60833 1.75328 0
M  V30 5298 H 485.549 -6.0356 0.924516 0
M  V30 5299 H 486.963 -4.93777 2.91303 0
M  V30 5300 H 485.36 -4.74076 3.67929 0
M  V30 5301 H 486.43 -3.33636 3.51873 0
M  V30 5302 N 487.773 -1.03688 -1.18687 0
M  V30 5303 C 489.189 -0.755413 -1.4059 0
M  V30 5304 C 489.389 0.656659 -1.905 0
M  V30 5305 O 488.445 1.42144 -2.08689 0
M  V30 5306 C 489.758 -1.7983 -2.41001 0
M  V30 5307 C 491.306 -1.81877 -2.54735 0
M  V30 5308 C 491.781 -2.85148 -3.58406 0
M  V30 5309 N 493.272 -2.84015 -3.6591 0
M  V30 5310 C 494.007 -3.60573 -4.45841 0
M  V30 5311 N 493.503 -4.46871 -5.29413 0
M  V30 5312 N 495.296 -3.49079 -4.40568 0
M  V30 5313 H 487.447 -1.94818 -0.846148 0
M  V30 5314 H 489.71 -0.842727 -0.434184 0
M  V30 5315 H 489.416 -2.81097 -2.1137 0
M  V30 5316 H 489.29 -1.62727 -3.40294 0
M  V30 5317 H 491.677 -0.812836 -2.83685 0
M  V30 5318 H 491.758 -2.03057 -1.55568 0
M  V30 5319 H 491.402 -3.85918 -3.30197 0
M  V30 5320 H 491.332 -2.61224 -4.57241 0
M  V30 5321 H 493.823 -2.21431 -3.0623 0
M  V30 5322 H 494.136 -5.02007 -5.87545 0
M  V30 5323 H 492.481 -4.5094 -5.28846 0
M  V30 5324 H 495.672 -2.81066 -3.74325 0
M  V30 5325 H 495.845 -4.08994 -5.02621 0
M  V30 5326 N 489.251 1.34841 -0.815825 0
M  V30 5327 C 490.214 2.27959 -0.238185 0
M  V30 5328 C 491.214 1.49983 0.579816 0
M  V30 5329 O 492.404 1.69617 0.396953 0
M  V30 5330 C 489.536 3.34314 0.666876 0
M  V30 5331 H 490.729 2.80558 -1.05958 0
M  V30 5332 H 488.282 1.44852 -0.587156 0
M  V30 5333 H 489.017 2.86916 1.5116 0
M  V30 5334 H 488.802 3.92014 0.0819106 0
M  V30 5335 H 490.292 4.0379 1.06506 0
M  V30 5336 N 490.729 0.570148 1.46925 0
M  V30 5337 C 491.659 -0.158274 2.32963 0
M  V30 5338 C 492.64 -0.896093 1.44583 0
M  V30 5339 O 493.825 -0.874022 1.7342 0
M  V30 5340 C 490.955 -1.18055 3.26619 0
M  V30 5341 C 489.909 -0.558379 4.24342 0
M  V30 5342 C 489.235 -1.68623 5.07415 0
M  V30 5343 C 490.535 0.496295 5.19937 0
M  V30 5344 H 492.229 0.560046 2.94115 0
M  V30 5345 H 489.775 0.270775 1.41431 0
M  V30 5346 H 491.728 -1.69841 3.85658 0
M  V30 5347 H 490.452 -1.92899 2.63548 0
M  V30 5348 H 489.111 -0.0617157 3.66548 0
M  V30 5349 H 488.759 -2.42402 4.40738 0
M  V30 5350 H 488.459 -1.27564 5.73586 0
M  V30 5351 H 489.983 -2.20709 5.69315 0
M  V30 5352 H 491.397 0.0640052 5.73264 0
M  V30 5353 H 489.794 0.82649 5.94381 0
M  V30 5354 H 490.864 1.38735 4.6463 0
M  V30 5355 N 492.207 -1.54576 0.307264 0
M  V30 5356 C 493.432 -2.05139 -0.305379 0
M  V30 5357 C 493.857 -1.18278 -1.46259 0
M  V30 5358 O 493.215 -0.188243 -1.8032 0
M  V30 5359 C 493.263 -3.53066 -0.733283 0
M  V30 5360 O 492.367 -3.69206 -1.83741 0
M  V30 5361 H 491.708 -0.661444 -0.0582105 0
M  V30 5362 H 494.238 -1.99569 0.450931 0
M  V30 5363 H 494.248 -3.95034 -1.02039 0
M  V30 5364 H 492.923 -4.15746 0.113198 0
M  V30 5365 H 491.5 -3.39143 -1.55037 0
M  V30 5366 N 493.685 -0.035106 -1.57561 0
M  V30 5367 C 494.595 0.960295 -2.14046 0
M  V30 5368 C 495.611 1.3529 -1.0942 0
M  V30 5369 O 496.787 1.43309 -1.41508 0
M  V30 5370 C 493.852 2.22214 -2.66124 0
M  V30 5371 C 492.913 1.8894 -3.85487 0
M  V30 5372 C 492.146 3.09109 -4.35072 0
M  V30 5373 O 492.369 4.21963 -3.83802 0
M  V30 5374 O 491.303 2.91058 -5.26848 0
M  V30 5375 H 495.129 0.509983 -2.99387 0
M  V30 5376 H 492.714 0.185853 -1.48239 0
M  V30 5377 H 494.596 2.96279 -2.99661 0
M  V30 5378 H 493.271 2.66414 -1.83862 0
M  V30 5379 H 492.178 1.12241 -3.56865 0
M  V30 5380 H 493.511 1.49551 -4.6893 0
M  V30 5381 N 495.163 1.55791 0.238111 0
M  V30 5382 C 496.409 1.78297 0.966337 0
M  V30 5383 C 496.742 0.601903 1.84637 0
M  V30 5384 O 496.017 -0.399499 1.90353 0
M  V30 5385 C 496.3 3.10758 1.81939 0
M  V30 5386 C 496.153 4.39283 0.966958 0
M  V30 5387 C 497.472 3.39519 2.80027 0
M  V30 5388 H 494.591 0.648654 0.349882 0
M  V30 5389 H 497.233 1.88525 0.236253 0
M  V30 5390 H 495.383 3.02168 2.44185 0
M  V30 5391 H 497.055 4.59873 0.362514 0
M  V30 5392 H 495.298 4.32948 0.271669 0
M  V30 5393 H 495.969 5.28368 1.59784 0
M  V30 5394 H 498.445 3.48128 2.27917 0
M  V30 5395 H 497.321 4.33402 3.36829 0
M  V30 5396 H 497.582 2.60864 3.56934 0
M  V30 5397 N 496.642 -0.504142 1.49319 0
M  V30 5398 C 497.574 -1.62265 1.61872 0
M  V30 5399 C 498.587 -1.54881 0.501573 0
M  V30 5400 O 499.776 -1.6087 0.773497 0
M  V30 5401 C 496.876 -3.01042 1.55651 0
M  V30 5402 C 496.049 -3.33642 2.82845 0
M  V30 5403 C 495.108 -4.51816 2.69719 0
M  V30 5404 O 494.134 -4.53755 3.4365 0
M  V30 5405 N 495.336 -5.51543 1.81055 0
M  V30 5406 H 498.101 -1.51924 2.58339 0
M  V30 5407 H 495.662 -0.691954 1.46368 0
M  V30 5408 H 497.654 -3.78013 1.44528 0
M  V30 5409 H 496.224 -3.05323 0.670546 0
M  V30 5410 H 495.444 -2.45598 3.08343 0
M  V30 5411 H 496.732 -3.5222 3.67177 0
M  V30 5412 H 496.13 -5.52774 1.20241 0
M  V30 5413 H 494.687 -6.27629 1.75856 0
M  V30 5414 N 498.12 -1.38341 -0.754957 0
M  V30 5415 C 499.067 -1.3546 -1.86867 0
M  V30 5416 C 500.037 -0.217369 -1.64672 0
M  V30 5417 O 501.222 -0.409383 -1.86356 0
M  V30 5418 C 498.362 -1.18413 -3.24149 0
M  V30 5419 C 497.475 -2.41511 -3.58185 0
M  V30 5420 C 496.61 -2.17205 -4.84763 0
M  V30 5421 C 495.649 -3.36081 -5.11582 0
M  V30 5422 N 494.786 -3.11219 -6.29354 0
M  V30 5423 H 499.626 -2.30672 -1.88664 0
M  V30 5424 H 497.163 -1.14607 -0.922154 0
M  V30 5425 H 499.121 -1.06545 -4.03366 0
M  V30 5426 H 497.751 -0.268397 -3.21682 0
M  V30 5427 H 496.803 -2.64056 -2.73822 0
M  V30 5428 H 498.115 -3.30115 -3.73932 0
M  V30 5429 H 497.269 -2.02465 -5.7192 0
M  V30 5430 H 496.008 -1.25964 -4.71152 0
M  V30 5431 H 495.013 -3.51341 -4.22894 0
M  V30 5432 H 496.238 -4.28196 -5.27091 0
M  V30 5433 H 494.184 -2.22624 -6.17069 0
M  V30 5434 H 494.101 -3.93373 -6.45596 0
M  V30 5435 H 495.369 -3.00132 -7.19403 0
M  V30 5436 N 499.598 0.982988 -1.23187 0
M  V30 5437 C 500.531 2.07302 -0.953993 0
M  V30 5438 C 501.509 1.62249 0.106753 0
M  V30 5439 O 502.693 1.88481 -0.0269525 0
M  V30 5440 C 499.82 3.35873 -0.436716 0
M  V30 5441 C 498.866 3.99862 -1.48367 0
M  V30 5442 S 499.699 4.39443 -3.06023 0
M  V30 5443 C 500.855 5.7117 -2.55959 0
M  V30 5444 H 501.088 2.30554 -1.87702 0
M  V30 5445 H 498.621 1.11883 -1.06403 0
M  V30 5446 H 500.579 4.10244 -0.144872 0
M  V30 5447 H 499.24 3.10634 0.465351 0
M  V30 5448 H 498.433 4.92471 -1.07182 0
M  V30 5449 H 498.035 3.31857 -1.72473 0
M  V30 5450 H 500.327 6.47977 -1.97818 0
M  V30 5451 H 501.27 6.17194 -3.47098 0
M  V30 5452 H 501.678 5.29046 -1.96902 0
M  V30 5453 N 501.076 1.04316 1.18135 0
M  V30 5454 C 502.304 0.768117 1.92113 0
M  V30 5455 C 502.719 -0.675057 1.76319 0
M  V30 5456 O 502.076 -1.46038 1.09449 0
M  V30 5457 C 502.127 1.12808 3.43448 0
M  V30 5458 O 501.848 2.5146 3.58747 0
M  V30 5459 C 503.349 0.8779 4.3452 0
M  V30 5460 H 500.569 0.279937 0.609817 0
M  V30 5461 H 503.113 1.39149 1.49859 0
M  V30 5462 H 501.268 0.549623 3.83481 0
M  V30 5463 H 501.682 2.65313 4.52448 0
M  V30 5464 H 503.156 1.17959 5.39249 0
M  V30 5465 H 503.633 -0.187239 4.38801 0
M  V30 5466 H 504.239 1.43977 4.00188 0
M  V30 5467 N 502.554 -1.34406 0.822964 0
M  V30 5468 C 503.965 -1.8069 0.469879 0
M  V30 5469 C 504.316 -1.68223 -1.00972 0
M  V30 5470 O 503.441 -1.22226 -1.78577 0
M  V30 5471 C 504.036 -3.28064 0.846118 0
M  V30 5472 C 502.595 -3.72428 0.545402 0
M  V30 5473 C 501.742 -2.56116 1.06301 0
M  V30 5474 H 504.693 -1.22153 1.01313 0
M  V30 5475 H 504.714 -3.80205 0.149922 0
M  V30 5476 H 504.226 -3.37107 1.92304 0
M  V30 5477 H 502.327 -3.68924 -0.522109 0
M  V30 5478 H 502.44 -4.66548 1.0895 0
M  V30 5479 H 500.804 -2.50048 0.484554 0
M  V30 5480 H 501.587 -2.67928 2.14638 0
M  V30 5481 N 504.032 -0.577932 -1.46621 0
M  V30 5482 C 505.448 -0.239242 -1.57797 0
M  V30 5483 C 505.648 1.25843 -1.57371 0
M  V30 5484 O 504.704 2.03988 -1.48813 0
M  V30 5485 C 506.017 -0.884227 -2.87405 0
M  V30 5486 C 507.565 -0.857373 -3.01028 0
M  V30 5487 C 508.04 -1.48181 -4.33366 0
M  V30 5488 N 509.531 -1.44593 -4.40053 0
M  V30 5489 C 510.266 -1.89852 -5.41058 0
M  V30 5490 N 509.762 -2.43062 -6.48762 0
M  V30 5491 N 511.555 -1.80797 -5.3223 0
M  V30 5492 H 503.706 -1.55073 -1.45142 0
M  V30 5493 H 505.969 -0.647903 -0.692044 0
M  V30 5494 H 505.675 -1.93759 -2.93514 0
M  V30 5495 H 505.549 -0.389585 -3.75183 0
M  V30 5496 H 507.936 0.187357 -2.94505 0
M  V30 5497 H 508.017 -1.38999 -2.14739 0
M  V30 5498 H 507.661 -2.52572 -4.40647 0
M  V30 5499 H 507.591 -0.924464 -5.18422 0
M  V30 5500 H 510.082 -1.05694 -3.62819 0
M  V30 5501 H 510.395 -2.75466 -7.22038 0
M  V30 5502 H 508.74 -2.47085 -6.49595 0
M  V30 5503 H 511.931 -1.38989 -4.46989 0
M  V30 5504 H 512.104 -2.16385 -6.10804 0
M  V30 5505 N 505.51 1.54411 -0.315457 0
M  V30 5506 C 506.42 2.27737 0.56329 0
M  V30 5507 C 507.436 1.31787 1.13614 0
M  V30 5508 O 508.612 1.64791 1.15784 0
M  V30 5509 C 505.677 3.01478 1.71207 0
M  V30 5510 C 504.738 4.12997 1.17185 0
M  V30 5511 C 503.971 4.83212 2.26588 0
M  V30 5512 O 504.194 4.52884 3.46775 0
M  V30 5513 O 503.128 5.70299 1.92463 0
M  V30 5514 H 506.954 3.03683 -0.0319614 0
M  V30 5515 H 504.539 1.49178 -0.0814188 0
M  V30 5516 H 506.421 3.47683 2.38106 0
M  V30 5517 H 505.096 2.28414 2.29366 0
M  V30 5518 H 504.003 3.71159 0.468174 0
M  V30 5519 H 505.336 4.8808 0.635501 0
M  V30 5520 N 506.988 0.0434614 1.5754 0
M  V30 5521 C 508.404 -0.313039 1.565 0
M  V30 5522 C 508.604 -1.71954 1.05043 0
M  V30 5523 O 507.66 -2.425 0.703564 0
M  V30 5524 C 508.973 -0.148544 3.00333 0
M  V30 5525 C 510.521 -0.220231 3.12224 0
M  V30 5526 C 510.996 -0.0843565 4.57922 0
M  V30 5527 N 512.487 -0.140881 4.62986 0
M  V30 5528 C 513.222 -0.0597443 5.73369 0
M  V30 5529 N 512.718 0.0733004 6.92761 0
M  V30 5530 N 514.511 -0.11477 5.61983 0
M  V30 5531 H 506.662 0.96303 1.89313 0
M  V30 5532 H 508.925 0.373164 0.871466 0
M  V30 5533 H 508.631 0.820894 3.41986 0
M  V30 5534 H 508.505 -0.912798 3.65989 0
M  V30 5535 H 510.892 -1.18014 2.70475 0
M  V30 5536 H 510.973 0.574646 2.49262 0
M  V30 5537 H 510.617 0.872192 5.00355 0
M  V30 5538 H 510.547 -0.898281 5.18882 0
M  V30 5539 H 513.038 -0.243273 3.77116 0
M  V30 5540 H 513.351 0.128128 7.72694 0
M  V30 5541 H 511.696 0.10828 6.94916 0
M  V30 5542 H 514.887 -0.217212 4.67596 0
M  V30 5543 H 515.06 -0.0480779 6.47982 0
M  V30 5544 N 508.466 -1.55915 -0.229846 0
M  V30 5545 C 509.399 -1.86734 -1.3117 0
M  V30 5546 C 510.377 -0.723947 -1.45595 0
M  V30 5547 O 511.561 -0.971462 -1.61539 0
M  V30 5548 C 508.688 -2.06707 -2.68309 0
M  V30 5549 C 507.734 -3.2938 -2.70944 0
M  V30 5550 S 508.567 -4.85547 -2.25842 0
M  V30 5551 C 509.723 -5.08546 -3.64873 0
M  V30 5552 H 509.956 -2.78204 -1.04832 0
M  V30 5553 H 507.489 -1.48243 -0.431681 0
M  V30 5554 H 509.447 -2.18898 -3.47267 0
M  V30 5555 H 508.108 -1.16049 -2.91876 0
M  V30 5556 H 507.301 -3.40374 -3.71701 0
M  V30 5557 H 506.903 -3.16004 -2.00044 0
M  V30 5558 H 509.195 -4.96935 -4.60502 0
M  V30 5559 H 510.138 -6.10465 -3.58801 0
M  V30 5560 H 510.546 -4.36314 -3.58176 0
M  V30 5561 N 509.944 0.496216 -1.49584 0
M  V30 5562 C 511.36 0.827814 -1.36453 0
M  V30 5563 C 511.56 1.97464 -0.401285 0
M  V30 5564 O 510.616 2.51958 0.165296 0
M  V30 5565 C 511.929 1.16352 -2.77277 0
M  V30 5566 C 513.477 1.27145 -2.86013 0
M  V30 5567 C 513.952 1.64042 -4.27615 0
M  V30 5568 N 515.443 1.71082 -4.30448 0
M  V30 5569 C 516.178 2.01085 -5.36984 0
M  V30 5570 N 515.674 2.2928 -6.5376 0
M  V30 5571 N 517.467 2.02376 -5.24405 0
M  V30 5572 H 509.618 -0.259947 -2.10803 0
M  V30 5573 H 511.881 -0.0537163 -0.946477 0
M  V30 5574 H 511.587 0.394153 -3.49484 0
M  V30 5575 H 511.461 2.10582 -3.12946 0
M  V30 5576 H 513.848 2.03152 -2.1404 0
M  V30 5577 H 513.929 0.309542 -2.5392 0
M  V30 5578 H 513.573 0.88583 -5.00115 0
M  V30 5579 H 513.503 2.6134 -4.57175 0
M  V30 5580 H 515.994 1.51434 -3.46232 0
M  V30 5581 H 516.307 2.51376 -7.30774 0
M  V30 5582 H 514.652 2.26726 -6.56978 0
M  V30 5583 H 517.843 1.79829 -4.32179 0
M  V30 5584 H 518.016 2.25425 -6.07526 0
M  V30 5585 N 511.423 1.38739 0.74761 0
M  V30 5586 C 512.353 1.39173 1.87492 0
M  V30 5587 C 513.334 0.256794 1.6815 0
M  V30 5588 O 514.519 0.460762 1.88655 0
M  V30 5589 C 511.649 1.22197 3.25093 0
M  V30 5590 C 510.603 2.32957 3.59047 0
M  V30 5591 C 509.929 2.01082 4.95449 0
M  V30 5592 C 511.229 3.75237 3.6331 0
M  V30 5593 H 512.923 2.3351 1.87386 0
M  V30 5594 H 510.469 1.12399 0.900134 0
M  V30 5595 H 512.422 1.21124 4.03617 0
M  V30 5596 H 511.146 0.243241 3.25693 0
M  V30 5597 H 509.805 2.33226 2.82845 0
M  V30 5598 H 509.453 1.01678 4.92616 0
M  V30 5599 H 509.153 2.75267 5.19136 0
M  V30 5600 H 510.677 2.01638 5.76346 0
M  V30 5601 H 512.091 3.76966 4.31937 0
M  V30 5602 H 510.488 4.48677 3.98509 0
M  V30 5603 H 511.558 4.07122 2.634 0
M  V30 5604 N 512.901 -0.976442 1.23707 0
M  V30 5605 C 514.317 -1.24341 1.00058 0
M  V30 5606 C 514.517 -1.99315 -0.295932 0
M  V30 5607 O 513.573 -2.3123 -1.01435 0
M  V30 5608 C 514.886 -2.03909 2.21001 0
M  V30 5609 C 516.434 -2.17034 2.25534 0
M  V30 5610 C 516.909 -2.99994 3.46075 0
M  V30 5611 N 518.4 -3.07578 3.46338 0
M  V30 5612 C 519.135 -3.72104 4.36264 0
M  V30 5613 N 518.631 -4.3842 5.36432 0
M  V30 5614 N 520.424 -3.69029 4.23998 0
M  V30 5615 H 512.575 -0.47428 2.07037 0
M  V30 5616 H 514.838 -0.272167 0.908091 0
M  V30 5617 H 514.544 -1.56198 3.15111 0
M  V30 5618 H 514.418 -3.04654 2.22409 0
M  V30 5619 H 516.805 -2.63951 1.31961 0
M  V30 5620 H 516.886 -1.15664 2.28156 0
M  V30 5621 H 516.53 -2.53772 4.39957 0
M  V30 5622 H 516.46 -4.01541 3.40694 0
M  V30 5623 H 518.951 -2.60397 2.73865 0
M  V30 5624 H 519.264 -4.85447 6.013 0
M  V30 5625 H 517.609 -4.37116 5.40328 0
M  V30 5626 H 520.8 -3.16392 3.44984 0
M  V30 5627 H 520.973 -4.19034 4.94282 0
M  V30 5628 N 514.379 -1.04941 -1.1758 0
M  V30 5629 C 515.326 -0.648155 -2.21512 0
M  V30 5630 C 516.296 0.348431 -1.62404 0
M  V30 5631 O 517.481 0.240419 -1.89279 0
M  V30 5632 C 514.621 -0.0264291 -3.4509 0
M  V30 5633 C 513.734 -1.07154 -4.185 0
M  V30 5634 C 512.869 -0.417403 -5.29558 0
M  V30 5635 C 511.908 -1.447 -5.94751 0
M  V30 5636 N 511.045 -0.817203 -6.97328 0
M  V30 5637 H 515.885 -1.53891 -2.55189 0
M  V30 5638 H 513.422 -0.769699 -1.25356 0
M  V30 5639 H 515.38 0.351456 -4.15717 0
M  V30 5640 H 514.01 0.827802 -3.12005 0
M  V30 5641 H 513.062 -1.56728 -3.46613 0
M  V30 5642 H 514.374 -1.8532 -4.63096 0
M  V30 5643 H 513.528 0.0142061 -6.06698 0
M  V30 5644 H 512.267 0.396265 -4.86087 0
M  V30 5645 H 511.272 -1.88865 -5.16343 0
M  V30 5646 H 512.497 -2.26252 -6.40302 0
M  V30 5647 H 510.443 -0.0239995 -6.55996 0
M  V30 5648 H 510.36 -1.53644 -7.40223 0
M  V30 5649 H 511.628 -0.410283 -7.7842 0
M  V30 5650 N 515.857 1.33968 -0.830081 0
M  V30 5651 C 516.787 2.31911 -0.271911 0
M  V30 5652 C 517.768 1.58571 0.61556 0
M  V30 5653 O 518.953 1.86514 0.540946 0
M  V30 5654 C 516.083 3.42737 0.561146 0
M  V30 5655 C 515.037 4.27383 -0.229789 0
M  V30 5656 C 514.363 5.29742 0.726463 0
M  V30 5657 C 515.663 5.02 -1.44197 0
M  V30 5658 H 517.357 2.78844 -1.09025 0
M  V30 5659 H 514.903 1.34061 -0.52571 0
M  V30 5660 H 516.856 4.10276 0.961867 0
M  V30 5661 H 515.58 2.94471 1.41261 0
M  V30 5662 H 514.239 3.61456 -0.611964 0
M  V30 5663 H 513.887 4.77736 1.57408 0
M  V30 5664 H 513.587 5.87255 0.20142 0
M  V30 5665 H 515.111 6.00149 1.12489 0
M  V30 5666 H 516.525 5.62355 -1.11488 0
M  V30 5667 H 514.922 5.69122 -1.90317 0
M  V30 5668 H 515.992 4.31281 -2.2164 0
M  V30 5669 N 517.335 0.585699 1.46312 0
M  V30 5670 C 518.267 -0.183687 2.28463 0
M  V30 5671 C 519.28 -0.85264 1.38686 0
M  V30 5672 O 520.469 -0.721701 1.6326 0
M  V30 5673 C 517.569 -1.27977 3.13808 0
M  V30 5674 C 516.742 -0.702164 4.31727 0
M  V30 5675 C 515.801 -1.68633 4.98447 0
M  V30 5676 O 514.827 -1.22121 5.55945 0
M  V30 5677 N 516.029 -3.02047 4.95729 0
M  V30 5678 H 518.794 0.521127 2.95134 0
M  V30 5679 H 516.355 0.423673 1.56258 0
M  V30 5680 H 518.347 -1.9375 3.55307 0
M  V30 5681 H 516.917 -1.8874 2.4919 0
M  V30 5682 H 516.137 0.1331 3.93975 0
M  V30 5683 H 517.425 -0.296101 5.07938 0
M  V30 5684 H 516.823 -3.42457 4.50266 0
M  V30 5685 H 515.38 -3.63301 5.41161 0
M  V30 5686 N 518.813 -1.54241 0.323641 0
M  V30 5687 C 519.776 -2.22997 -0.529602 0
M  V30 5688 C 520.776 -1.22345 -1.04347 0
M  V30 5689 O 521.966 -1.46924 -0.935889 0
M  V30 5690 C 519.098 -2.93409 -1.73562 0
M  V30 5691 H 520.291 -2.99815 0.0714518 0
M  V30 5692 H 517.844 -1.56121 0.0747258 0
M  V30 5693 H 518.579 -2.20729 -2.37591 0
M  V30 5694 H 518.364 -3.67217 -1.37456 0
M  V30 5695 H 519.854 -3.45794 -2.34128 0
M  V30 5696 N 520.291 -0.0518155 -1.57515 0
M  V30 5697 C 521.254 0.907547 -2.10467 0
M  V30 5698 C 522.254 1.23947 -1.02439 0
M  V30 5699 O 523.444 1.17604 -1.2851 0
M  V30 5700 C 520.576 2.21723 -2.58944 0
M  V30 5701 H 521.769 0.44851 -2.96527 0
M  V30 5702 H 519.322 0.196598 -1.55059 0
M  V30 5703 H 520.057 2.72206 -1.76279 0
M  V30 5704 H 519.842 1.98935 -3.37886 0
M  V30 5705 H 521.332 2.90441 -3.00056 0
M  V30 5706 N 521.769 1.56035 0.221574 0
M  V30 5707 C 523.046 1.69837 0.970301 0
M  V30 5708 C 523.426 0.599065 2.02421 0
M  V30 5709 O 522.774 -0.393929 2.25079 0
M  V30 5710 C 522.984 3.11148 1.58076 0
M  V30 5711 C 524.332 3.70555 2.07302 0
M  V30 5712 O 525.356 3.14109 1.6797 0
M  V30 5713 O 524.215 4.69562 2.79596 0
M  V30 5714 H 521.309 0.691727 0.453257 0
M  V30 5715 H 523.855 1.68353 0.213358 0
M  V30 5716 H 522.627 3.82617 0.819759 0
M  V30 5717 H 522.25 3.16749 2.40324 0
M  V30 5718 N 523.247 -0.488276 1.49845 0
M  V30 5719 C 524.157 -1.61451 1.70207 0
M  V30 5720 C 525.173 -1.63877 0.584846 0
M  V30 5721 O 526.349 -1.82063 0.861107 0
M  V30 5722 C 523.414 -2.9776 1.77594 0
M  V30 5723 C 522.475 -3.05861 3.01243 0
M  V30 5724 C 521.708 -4.35668 3.08268 0
M  V30 5725 O 521.931 -5.25197 2.22541 0
M  V30 5726 O 520.865 -4.49005 4.00847 0
M  V30 5727 H 524.691 -1.47199 2.65643 0
M  V30 5728 H 522.276 -0.665939 1.33737 0
M  V30 5729 H 524.158 -3.7875 1.84732 0
M  V30 5730 H 522.833 -3.12248 0.8534 0
M  V30 5731 H 521.74 -2.24012 2.99616 0
M  V30 5732 H 523.073 -2.96304 3.9302 0
M  V30 5733 N 524.725 -1.39134 -0.740242 0
M  V30 5734 C 525.672 -1.37434 -1.8542 0
M  V30 5735 C 526.642 -0.234822 -1.64432 0
M  V30 5736 O 527.827 -0.429125 -1.85912 0
M  V30 5737 C 524.967 -1.21844 -3.22875 0
M  V30 5738 C 524.08 -2.45296 -3.55603 0
M  V30 5739 C 523.215 -2.22334 -4.82432 0
M  V30 5740 C 522.254 -3.41488 -5.07988 0
M  V30 5741 N 521.391 -3.17877 -6.26018 0
M  V30 5742 H 526.231 -2.3266 -1.86207 0
M  V30 5743 H 523.768 -1.15578 -0.909946 0
M  V30 5744 H 525.726 -1.10818 -4.02213 0
M  V30 5745 H 524.356 -0.3025 -3.21379 0
M  V30 5746 H 523.408 -2.66945 -2.71006 0
M  V30 5747 H 524.72 -3.34063 -3.7041 0
M  V30 5748 H 523.874 -2.0852 -5.69741 0
M  V30 5749 H 522.613 -1.30954 -4.6979 0
M  V30 5750 H 521.618 -3.55807 -4.19144 0
M  V30 5751 H 522.843 -4.33763 -5.22519 0
M  V30 5752 H 520.789 -2.29156 -6.14673 0
M  V30 5753 H 520.706 -4.00198 -6.41387 0
M  V30 5754 H 521.974 -3.07746 -7.16179 0
M  V30 5755 N 526.204 0.969867 -1.24223 0
M  V30 5756 C 527.167 2.04564 -1.03373 0
M  V30 5757 C 528.167 1.60798 0.00819206 0
M  V30 5758 O 529.357 1.72641 -0.232567 0
M  V30 5759 C 526.489 3.36163 -0.566343 0
M  V30 5760 H 527.682 2.24494 -1.98853 0
M  V30 5761 H 525.235 1.1448 -1.06415 0
M  V30 5762 H 525.97 3.21925 0.391751 0
M  V30 5763 H 525.755 3.69273 -1.31834 0
M  V30 5764 H 527.245 4.1526 -0.441435 0
M  V30 5765 N 527.682 1.05563 1.17022 0
M  V30 5766 C 529.098 0.777684 1.39371 0
M  V30 5767 C 529.298 -0.626269 1.91521 0
M  V30 5768 O 528.354 -1.38806 2.10924 0
M  V30 5769 C 529.667 1.83642 2.3811 0
M  V30 5770 C 531.215 1.85907 2.51809 0
M  V30 5771 C 531.69 2.90813 3.53824 0
M  V30 5772 N 533.181 2.898 3.61345 0
M  V30 5773 C 533.916 3.6762 4.40049 0
M  V30 5774 N 533.412 4.55237 5.22237 0
M  V30 5775 N 535.205 3.56044 4.34959 0
M  V30 5776 H 527.356 1.9614 0.815047 0
M  V30 5777 H 529.619 0.849527 0.420722 0
M  V30 5778 H 529.325 2.84425 2.06871 0
M  V30 5779 H 529.199 1.6812 3.37662 0
M  V30 5780 H 531.586 0.857865 2.82356 0
M  V30 5781 H 531.667 2.05506 1.52318 0
M  V30 5782 H 531.311 3.91122 3.24015 0
M  V30 5783 H 531.241 2.68465 4.53028 0
M  V30 5784 H 533.732 2.26274 3.02669 0
M  V30 5785 H 534.045 5.11291 5.79484 0
M  V30 5786 H 532.39 4.59296 5.21605 0
M  V30 5787 H 535.581 2.86986 3.69806 0
M  V30 5788 H 535.754 4.16938 4.96051 0
M  V30 5789 N 529.16 -1.33526 0.837174 0
M  V30 5790 C 530.107 -2.29248 0.267169 0
M  V30 5791 C 531.077 -1.54252 -0.616071 0
M  V30 5792 O 532.262 -1.82559 -0.554699 0
M  V30 5793 C 529.402 -3.40638 -0.553152 0
M  V30 5794 C 528.515 -4.30548 0.353921 0
M  V30 5795 C 527.65 -5.29051 -0.477339 0
M  V30 5796 C 526.689 -6.106 0.42823 0
M  V30 5797 N 525.826 -7.01152 -0.364801 0
M  V30 5798 H 530.666 -2.77398 1.08877 0
M  V30 5799 H 528.203 -1.36496 0.54838 0
M  V30 5800 H 530.161 -4.03921 -1.04422 0
M  V30 5801 H 528.791 -2.93685 -1.33973 0
M  V30 5802 H 527.843 -3.68001 0.963289 0
M  V30 5803 H 529.155 -4.87631 1.04964 0
M  V30 5804 H 528.309 -5.97853 -1.0323 0
M  V30 5805 H 527.048 -4.72541 -1.2065 0
M  V30 5806 H 526.053 -5.40718 0.995219 0
M  V30 5807 H 527.278 -6.69193 1.15573 0
M  V30 5808 H 525.224 -6.47092 -1.07738 0
M  V30 5809 H 525.141 -7.5551 0.272238 0
M  V30 5810 H 526.409 -7.74263 -0.902054 0
M  V30 5811 N 530.638 -0.59345 -1.46 0
M  V30 5812 C 531.568 0.121192 -2.33185 0
M  V30 5813 C 532.549 0.872977 -1.4599 0
M  V30 5814 O 533.734 0.846321 -1.74789 0
M  V30 5815 C 530.864 1.12844 -3.28456 0
M  V30 5816 C 529.818 0.4908 -4.25177 0
M  V30 5817 C 529.144 1.60529 -5.10034 0
M  V30 5818 C 530.444 -0.578949 -5.19081 0
M  V30 5819 H 532.138 -0.606767 -2.93187 0
M  V30 5820 H 529.684 -0.293242 -1.40983 0
M  V30 5821 H 531.637 1.63684 -3.88311 0
M  V30 5822 H 530.361 1.88681 -2.66584 0
M  V30 5823 H 529.02 0.00339328 -3.666 0
M  V30 5824 H 528.668 2.35359 -4.44539 0
M  V30 5825 H 528.368 1.18422 -5.75543 0
M  V30 5826 H 529.892 2.11623 -5.72755 0
M  V30 5827 H 531.306 -0.155199 -5.7309 0
M  V30 5828 H 529.703 -0.920947 -5.92991 0
M  V30 5829 H 530.773 -1.46109 -4.62364 0
M  V30 5830 N 532.116 1.54067 -0.331816 0
M  V30 5831 C 533.063 2.24623 0.530372 0
M  V30 5832 C 534.033 1.24009 1.10503 0
M  V30 5833 O 535.218 1.52712 1.14384 0
M  V30 5834 C 532.358 3.01374 1.68129 0
M  V30 5835 C 531.471 4.16821 1.13507 0
M  V30 5836 C 530.606 4.81085 2.25234 0
M  V30 5837 C 529.645 5.88621 1.67903 0
M  V30 5838 N 528.782 6.46713 2.73326 0
M  V30 5839 H 533.622 2.97898 -0.0778607 0
M  V30 5840 H 531.159 1.47014 -0.0501965 0
M  V30 5841 H 533.117 3.44125 2.35868 0
M  V30 5842 H 531.747 2.30419 2.26069 0
M  V30 5843 H 530.799 3.78796 0.348979 0
M  V30 5844 H 532.111 4.94203 0.675633 0
M  V30 5845 H 531.265 5.26846 3.00862 0
M  V30 5846 H 530.004 4.03102 2.74518 0
M  V30 5847 H 529.009 5.42254 0.907773 0
M  V30 5848 H 530.234 6.68506 1.19487 0
M  V30 5849 H 528.18 5.71599 3.21886 0
M  V30 5850 H 528.097 7.19532 2.3197 0
M  V30 5851 H 529.365 6.97129 3.48758 0
M  V30 5852 N 533.594 0.0601682 1.57485 0
M  V30 5853 C 534.541 -0.91112 2.12055 0
M  V30 5854 C 535.511 -1.30298 1.03013 0
M  V30 5855 O 536.696 -1.39087 1.30612 0
M  V30 5856 C 533.836 -2.1775 2.67729 0
M  V30 5857 C 532.949 -1.83933 3.90887 0
M  V30 5858 C 532.084 -3.05096 4.34845 0
M  V30 5859 C 531.123 -2.67241 5.5068 0
M  V30 5860 N 530.26 -3.81127 5.8965 0
M  V30 5861 H 535.1 -0.43888 2.9475 0
M  V30 5862 H 532.637 -0.204995 1.45665 0
M  V30 5863 H 534.595 -2.91866 2.98111 0
M  V30 5864 H 533.225 -2.62535 1.87816 0
M  V30 5865 H 532.277 -0.999287 3.6704 0
M  V30 5866 H 533.589 -1.52074 4.75052 0
M  V30 5867 H 532.743 -3.87502 4.66827 0
M  V30 5868 H 531.482 -3.40139 3.49509 0
M  V30 5869 H 530.487 -1.83254 5.18361 0
M  V30 5870 H 531.712 -2.3338 6.37738 0
M  V30 5871 H 529.658 -4.15954 5.07266 0
M  V30 5872 H 529.575 -3.52997 6.68528 0
M  V30 5873 H 530.843 -4.64145 6.2625 0
M  V30 5874 N 535.072 -1.5615 -0.213296 0
M  V30 5875 C 536.321 -1.78743 -0.93455 0
M  V30 5876 C 536.634 -0.630199 -1.8517 0
M  V30 5877 O 537.84 -0.739966 -2.61222 0
M  V30 5878 C 536.296 -3.16571 -1.71203 0
M  V30 5879 C 535.904 -4.40043 -0.840617 0
M  V30 5880 C 537.648 -3.48485 -2.42401 0
M  V30 5881 C 535.555 -5.68895 -1.61592 0
M  V30 5882 H 534.485 -0.666426 -0.352692 0
M  V30 5883 H 537.136 -1.82532 -0.188227 0
M  V30 5884 H 535.518 -3.06981 -2.50157 0
M  V30 5885 H 536.692 -4.6071 -0.0910326 0
M  V30 5886 H 535.007 -4.15706 -0.240365 0
M  V30 5887 H 537.604 -4.41983 -3.00924 0
M  V30 5888 H 537.947 -2.71371 -3.15695 0
M  V30 5889 H 538.48 -3.59442 -1.7043 0
M  V30 5890 H 535.219 -6.48925 -0.926106 0
M  V30 5891 H 534.739 -5.52275 -2.33991 0
M  V30 5892 H 536.418 -6.09365 -2.17447 0
M  V30 5893 N 536.55 0.480323 -1.50102 0
M  V30 5894 C 537.796 1.23489 -1.60867 0
M  V30 5895 C 538.129 1.91809 -0.303827 0
M  V30 5896 O 537.404 1.81694 0.694092 0
M  V30 5897 C 537.687 2.28578 -2.78252 0
M  V30 5898 C 537.54 1.64624 -4.18592 0
M  V30 5899 C 538.859 3.2997 -2.91218 0
M  V30 5900 H 535.978 0.447605 -0.585507 0
M  V30 5901 H 538.62 0.530005 -1.82458 0
M  V30 5902 H 536.77 2.88697 -2.59974 0
M  V30 5903 H 538.442 1.08173 -4.48438 0
M  V30 5904 H 536.685 0.949645 -4.23278 0
M  V30 5905 H 537.356 2.40946 -4.96638 0
M  V30 5906 H 539.832 2.79864 -3.07921 0
M  V30 5907 H 538.708 4.00839 -3.74993 0
M  V30 5908 H 538.969 3.93541 -2.0144 0
M  V30 5909 N 538.028 1.39524 0.732853 0
M  V30 5910 C 538.938 1.40695 1.87729 0
M  V30 5911 C 539.954 0.301496 1.71368 0
M  V30 5912 O 541.13 0.543313 1.93933 0
M  V30 5913 C 538.195 1.25098 3.23344 0
M  V30 5914 C 537.256 2.45634 3.52083 0
M  V30 5915 C 536.489 2.30772 4.81228 0
M  V30 5916 O 536.712 1.31233 5.55098 0
M  V30 5917 O 535.646 3.19799 5.09914 0
M  V30 5918 H 539.472 2.37168 1.89697 0
M  V30 5919 H 537.057 1.20663 0.880959 0
M  V30 5920 H 538.939 1.18541 4.04383 0
M  V30 5921 H 537.614 0.317209 3.22142 0
M  V30 5922 H 536.521 2.57767 2.71122 0
M  V30 5923 H 537.854 3.37712 3.58066 0
M  V30 5924 N 539.506 -0.963266 1.24736 0
M  V30 5925 C 540.416 -2.09246 1.06082 0
M  V30 5926 C 541.432 -1.74 0.000363101 0
M  V30 5927 O 542.608 -2.0041 0.199479 0
M  V30 5928 C 539.673 -3.40115 0.672498 0
M  V30 5929 C 538.734 -3.89282 1.80993 0
M  V30 5930 C 537.967 -5.13905 1.44004 0
M  V30 5931 O 538.19 -5.69434 0.331835 0
M  V30 5932 O 537.124 -5.57566 2.26723 0
M  V30 5933 H 540.95 -2.27881 2.00759 0
M  V30 5934 H 538.535 -1.07649 1.03595 0
M  V30 5935 H 540.417 -4.18797 0.467668 0
M  V30 5936 H 539.092 -3.22771 -0.245102 0
M  V30 5937 H 537.999 -3.11642 2.06955 0
M  V30 5938 H 539.332 -4.1111 2.70646 0
M  V30 5939 N 540.985 -1.06182 -1.16461 0
M  V30 5940 C 541.932 -0.671613 -2.20812 0
M  V30 5941 C 542.902 0.331186 -1.62765 0
M  V30 5942 O 544.087 0.22033 -1.89524 0
M  V30 5943 C 541.227 -0.063029 -3.45042 0
M  V30 5944 C 540.34 -1.11587 -4.1734 0
M  V30 5945 C 539.475 -0.473546 -5.29085 0
M  V30 5946 C 538.514 -1.51 -5.93182 0
M  V30 5947 N 537.651 -0.891118 -6.96422 0
M  V30 5948 H 542.491 -1.56589 -2.53542 0
M  V30 5949 H 540.028 -0.782951 -1.24532 0
M  V30 5950 H 541.986 0.307344 -4.16066 0
M  V30 5951 H 540.616 0.794663 -3.12866 0
M  V30 5952 H 539.668 -1.60396 -3.44931 0
M  V30 5953 H 540.98 -1.90221 -4.61104 0
M  V30 5954 H 540.134 -0.0501432 -6.06679 0
M  V30 5955 H 538.873 0.344687 -4.8648 0
M  V30 5956 H 537.878 -1.94331 -5.14311 0
M  V30 5957 H 539.103 -2.33031 -6.37866 0
M  V30 5958 H 537.049 -0.0935753 -6.55933 0
M  V30 5959 H 536.966 -1.61486 -7.38551 0
M  V30 5960 H 538.234 -0.492822 -7.77941 0
M  V30 5961 N 542.463 1.3308 -0.844243 0
M  V30 5962 C 543.693 2.01515 -0.455541 0
M  V30 5963 C 544.101 1.63655 0.949406 0
M  V30 5964 O 543.444 0.84848 1.62931 0
M  V30 5965 C 543.506 3.55967 -0.502801 0
M  V30 5966 C 543.17 4.17222 -1.86481 0
M  V30 5967 C 544.167 4.36205 -2.8288 0
M  V30 5968 C 541.852 4.53528 -2.15911 0
M  V30 5969 C 543.846 4.90649 -4.06869 0
M  V30 5970 C 541.533 5.07679 -3.40155 0
M  V30 5971 C 542.531 5.26186 -4.35451 0
M  V30 5972 O 542.219 5.79183 -5.57496 0
M  V30 5973 H 541.951 0.65199 -0.178565 0
M  V30 5974 H 544.505 1.70867 -1.1399 0
M  V30 5975 H 542.735 3.85965 0.23836 0
M  V30 5976 H 544.424 4.05688 -0.131169 0
M  V30 5977 H 545.19 4.085 -2.61444 0
M  V30 5978 H 541.069 4.38414 -1.42528 0
M  V30 5979 H 544.613 5.0501 -4.81259 0
M  V30 5980 H 540.51 5.34815 -3.61446 0
M  V30 5981 H 541.278 5.97591 -5.5931 0
M  V30 5982 N 543.941 0.601185 1.45683 0
M  V30 5983 C 544.851 -0.123395 2.34275 0
M  V30 5984 C 545.867 -0.86702 1.5086 0
M  V30 5985 O 547.043 -0.826049 1.8368 0
M  V30 5986 C 544.108 -1.11237 3.2837 0
M  V30 5987 C 543.169 -0.371405 4.2769 0
M  V30 5988 C 542.402 -1.31327 5.1729 0
M  V30 5989 O 542.625 -2.55078 5.10188 0
M  V30 5990 O 541.559 -0.813811 5.96373 0
M  V30 5991 H 545.385 0.604483 2.97623 0
M  V30 5992 H 542.97 0.361477 1.44961 0
M  V30 5993 H 544.852 -1.68214 3.8637 0
M  V30 5994 H 543.527 -1.82139 2.67595 0
M  V30 5995 H 542.434 0.24067 3.73325 0
M  V30 5996 H 543.767 0.296998 4.91303 0
M  V30 5997 N 545.419 -1.53889 0.339982 0
M  V30 5998 C 546.329 -2.28604 -0.526988 0
M  V30 5999 C 547.345 -1.33578 -1.11503 0
M  V30 6000 O 548.521 -1.66612 -1.13148 0
M  V30 6001 C 545.586 -3.04164 -1.66389 0
M  V30 6002 C 544.647 -4.14809 -1.10599 0
M  V30 6003 C 543.88 -4.86756 -2.18871 0
M  V30 6004 O 544.103 -4.58343 -3.39526 0
M  V30 6005 O 543.037 -5.73289 -1.83366 0
M  V30 6006 H 546.863 -3.03594 0.0802707 0
M  V30 6007 H 544.448 -1.4903 0.105141 0
M  V30 6008 H 546.33 -3.51427 -2.32544 0
M  V30 6009 H 545.005 -2.32035 -2.25703 0
M  V30 6010 H 543.912 -3.71857 -0.409067 0
M  V30 6011 H 545.245 -4.89029 -0.557771 0
M  V30 6012 N 546.897 -0.0685191 -1.57451 0
M  V30 6013 C 547.845 0.917577 -2.13736 0
M  V30 6014 C 548.839 1.31049 -1.07344 0
M  V30 6015 O 550.045 1.28811 -1.25728 0
M  V30 6016 H 546.42 0.313835 -0.683382 0
M  V30 6017 H 548.391 0.417903 -2.95459 0
M  V30 6018 C 547.14 2.17686 -2.71123 0
M  V30 6019 H 546.463 1.88336 -3.52661 0
M  V30 6020 H 547.903 2.84803 -3.14107 0
M  V30 6021 C 546.362 2.9332 -1.65726 0
M  V30 6022 O 546.892 3.86901 -1.08031 0
M  V30 6023 N 545.098 2.56367 -1.36837 0
M  V30 6024 H 544.645 1.80341 -1.83943 0
M  V30 6025 H 544.603 3.07276 -0.665501 0
M  V30 6026 N 548.375 1.56261 0.205012 0
M  V30 6027 C 549.6 1.84491 0.947512 0
M  V30 6028 C 550.025 0.650894 1.76479 0
M  V30 6029 O 549.383 -0.40035 1.76824 0
M  V30 6030 C 549.431 3.10863 1.82747 0
M  V30 6031 O 548.535 2.90719 2.925 0
M  V30 6032 H 547.876 0.607783 0.267386 0
M  V30 6033 H 550.406 2.03485 0.213323 0
M  V30 6034 H 550.416 3.41399 2.23407 0
M  V30 6035 H 549.091 3.97392 1.2269 0
M  V30 6036 H 547.668 2.71457 2.55667 0
M  V30 6037 N 549.853 -0.472356 1.50355 0
M  V30 6038 C 550.8 -1.57051 1.69126 0
M  V30 6039 C 551.77 -1.5733 0.532574 0
M  V30 6040 O 552.955 -1.7488 0.762994 0
M  V30 6041 C 550.095 -2.95033 1.79024 0
M  V30 6042 C 549.208 -3.04552 3.06386 0
M  V30 6043 C 548.343 -4.33441 3.07087 0
M  V30 6044 C 547.382 -4.36697 4.28908 0
M  V30 6045 N 546.519 -5.57056 4.27356 0
M  V30 6046 H 551.359 -1.40351 2.62879 0
M  V30 6047 H 548.896 -0.682403 1.30314 0
M  V30 6048 H 550.854 -3.75048 1.82744 0
M  V30 6049 H 549.484 -3.10371 0.887109 0
M  V30 6050 H 548.536 -2.17419 3.12143 0
M  V30 6051 H 549.848 -3.02818 3.96362 0
M  V30 6052 H 549.002 -5.21801 3.09529 0
M  V30 6053 H 547.741 -4.37782 2.14939 0
M  V30 6054 H 546.746 -3.46734 4.2668 0
M  V30 6055 H 547.971 -4.34049 5.22282 0
M  V30 6056 H 545.917 -5.62184 3.3806 0
M  V30 6057 H 545.834 -5.57058 5.111 0
M  V30 6058 H 547.102 -6.47545 4.33942 0
M  V30 6059 N 551.331 -1.39911 -0.725443 0
M  V30 6060 C 552.747 -1.21725 -1.03224 0
M  V30 6061 C 552.947 -0.0855224 -2.01318 0
M  V30 6062 O 552.003 0.55976 -2.46217 0
M  V30 6063 C 553.316 -2.55511 -1.58539 0
M  V30 6064 C 554.864 -2.62439 -1.70572 0
M  V30 6065 C 555.339 -3.9647 -2.29294 0
M  V30 6066 N 556.83 -3.98159 -2.36692 0
M  V30 6067 C 557.565 -4.98647 -2.83088 0
M  V30 6068 N 557.061 -6.0953 -3.2931 0
M  V30 6069 N 558.854 -4.8602 -2.82384 0
M  V30 6070 H 551.005 -2.12267 -0.075048 0
M  V30 6071 H 553.268 -0.943136 -0.0959066 0
M  V30 6072 H 552.974 -3.38926 -0.939249 0
M  V30 6073 H 552.848 -2.75905 -2.57208 0
M  V30 6074 H 555.235 -1.79401 -2.34306 0
M  V30 6075 H 555.316 -2.45885 -0.705297 0
M  V30 6076 H 554.96 -4.79942 -1.66186 0
M  V30 6077 H 554.89 -4.10349 -3.30032 0
M  V30 6078 H 557.381 -3.18085 -2.04035 0
M  V30 6079 H 557.694 -6.82106 -3.6325 0
M  V30 6080 H 556.039 -6.1311 -3.27294 0
M  V30 6081 H 559.23 -3.98493 -2.45603 0
M  V30 6082 H 559.403 -5.64478 -3.18226 0
M  V30 6083 N 552.809 0.956637 -1.25245 0
M  V30 6084 C 553.742 2.05232 -0.99775 0
M  V30 6085 C 554.72 1.62439 0.0723137 0
M  V30 6086 O 555.904 1.88381 -0.066926 0
M  V30 6087 C 553.031 3.34871 -0.507861 0
M  V30 6088 C 552.077 3.96625 -1.56815 0
M  V30 6089 S 552.91 4.32853 -3.15276 0
M  V30 6090 C 554.066 5.65613 -2.68017 0
M  V30 6091 H 554.299 2.26521 -1.9255 0
M  V30 6092 H 551.832 1.09601 -1.08752 0
M  V30 6093 H 553.79 4.09845 -0.231858 0
M  V30 6094 H 552.451 3.11551 0.399356 0
M  V30 6095 H 551.644 4.90087 -1.17604 0
M  V30 6096 H 551.246 3.28124 -1.79473 0
M  V30 6097 H 553.538 6.43635 -2.11518 0
M  V30 6098 H 554.481 6.09693 -3.60112 0
M  V30 6099 H 554.889 5.24751 -2.0808 0
M  V30 6100 N 554.287 1.06798 1.15896 0
M  V30 6101 C 555.219 0.641263 2.20046 0
M  V30 6102 C 556.232 -0.303355 1.59949 0
M  V30 6103 O 557.421 -0.0935478 1.78255 0
M  V30 6104 C 554.521 -0.0794029 3.38807 0
M  V30 6105 C 553.694 0.879986 4.28457 0
M  V30 6106 C 552.753 0.197638 5.25829 0
M  V30 6107 O 551.779 0.836913 5.63014 0
M  V30 6108 N 552.981 -1.05886 5.70761 0
M  V30 6109 H 555.746 1.53718 2.57276 0
M  V30 6110 H 553.307 0.951951 1.30956 0
M  V30 6111 H 555.299 -0.546418 4.00994 0
M  V30 6112 H 553.869 -0.877193 3.0004 0
M  V30 6113 H 553.089 1.52625 3.63454 0
M  V30 6114 H 554.377 1.53065 4.8523 0
M  V30 6115 H 553.775 -1.59828 5.42652 0
M  V30 6116 H 552.332 -1.46965 6.35015 0
M  V30 6117 N 555.766 -1.3263 0.851289 0
M  V30 6118 C 556.676 -2.32722 0.296268 0
M  V30 6119 C 557.692 -1.63901 -0.584162 0
M  V30 6120 O 558.868 -1.95465 -0.485334 0
M  V30 6121 C 555.933 -3.42942 -0.509103 0
M  V30 6122 C 554.994 -4.2746 0.397069 0
M  V30 6123 C 554.227 -5.32416 -0.36996 0
M  V30 6124 O 554.45 -5.47491 -1.6003 0
M  V30 6125 O 553.384 -6.01327 0.262493 0
M  V30 6126 H 557.21 -2.82078 1.12543 0
M  V30 6127 H 554.795 -1.36194 0.614135 0
M  V30 6128 H 556.677 -4.1017 -0.96634 0
M  V30 6129 H 555.352 -2.95781 -1.31512 0
M  V30 6130 H 554.259 -3.63053 0.902411 0
M  V30 6131 H 555.592 -4.78136 1.16818 0
M  V30 6132 N 557.244 -0.608902 -1.45362 0
M  V30 6133 C 558.174 0.0964526 -2.33301 0
M  V30 6134 C 559.155 0.857444 -1.46908 0
M  V30 6135 O 560.34 0.827735 -1.75676 0
M  V30 6136 C 557.47 1.09354 -3.29635 0
M  V30 6137 C 556.424 0.445676 -4.25673 0
M  V30 6138 C 555.75 1.5511 -5.11708 0
M  V30 6139 C 557.05 -0.633972 -5.18438 0
M  V30 6140 H 558.744 -0.637829 -2.92527 0
M  V30 6141 H 556.29 -0.308178 -1.40664 0
M  V30 6142 H 558.243 1.59556 -3.90025 0
M  V30 6143 H 556.967 1.85843 -2.6857 0
M  V30 6144 H 555.626 -0.0354897 -3.66583 0
M  V30 6145 H 555.274 2.30631 -4.4701 0
M  V30 6146 H 554.974 1.12311 -5.76767 0
M  V30 6147 H 556.498 2.05537 -5.74967 0
M  V30 6148 H 557.912 -0.215974 -5.72893 0
M  V30 6149 H 556.309 -0.983789 -5.91981 0
M  V30 6150 H 557.379 -1.51005 -4.60788 0
M  V30 6151 N 558.722 1.53707 -0.348139 0
M  V30 6152 C 560.138 1.596 0.00361134 0
M  V30 6153 C 560.338 1.36394 1.4832 0
M  V30 6154 O 559.394 1.16046 2.24253 0
M  V30 6155 C 560.707 2.97512 -0.436682 0
M  V30 6156 C 562.255 3.10568 -0.389416 0
M  V30 6157 C 562.73 4.50866 -0.805249 0
M  V30 6158 N 564.221 4.56929 -0.759616 0
M  V30 6159 C 564.956 5.63643 -1.05327 0
M  V30 6160 N 564.452 6.78189 -1.41531 0
M  V30 6161 N 566.245 5.5354 -0.977207 0
M  V30 6162 H 558.396 1.67044 -1.31187 0
M  V30 6163 H 560.659 0.782559 -0.535075 0
M  V30 6164 H 560.365 3.19575 -1.46849 0
M  V30 6165 H 560.239 3.76742 0.185744 0
M  V30 6166 H 562.626 2.88226 0.633228 0
M  V30 6167 H 562.707 2.33387 -1.04711 0
M  V30 6168 H 562.351 4.73943 -1.82593 0
M  V30 6169 H 562.281 5.26452 -0.124989 0
M  V30 6170 H 564.772 3.74675 -0.49265 0
M  V30 6171 H 565.085 7.55541 -1.62411 0
M  V30 6172 H 563.43 6.79624 -1.45381 0
M  V30 6173 H 566.621 4.62932 -0.693675 0
M  V30 6174 H 566.794 6.36614 -1.2094 0
M  V30 6175 N 560.2 0.0768682 1.57412 0
M  V30 6176 C 561.425 -0.603404 1.98428 0
M  V30 6177 C 561.85 -1.62047 0.955108 0
M  V30 6178 O 561.208 -1.81129 -0.0786778 0
M  V30 6179 C 561.256 -1.24396 3.38464 0
M  V30 6180 O 560.36 -2.35982 3.3821 0
M  V30 6181 H 559.701 -0.154741 0.645718 0
M  V30 6182 H 562.231 0.152885 2.04028 0
M  V30 6183 H 562.241 -1.5896 3.7576 0
M  V30 6184 H 560.916 -0.498735 4.12899 0
M  V30 6185 H 559.493 -2.03173 3.1269 0
M  V30 6186 N 561.678 -1.56367 -0.196722 0
M  V30 6187 C 563.094 -1.49916 -0.54749 0
M  V30 6188 C 563.294 -0.77659 -1.85934 0
M  V30 6189 O 562.35 -0.32644 -2.50381 0
M  V30 6190 C 563.663 -2.94577 -0.603734 0
M  V30 6191 C 565.211 -3.05239 -0.692677 0
M  V30 6192 C 565.686 -4.51308 -0.780046 0
M  V30 6193 N 567.177 -4.55453 -0.843616 0
M  V30 6194 C 567.912 -5.65786 -0.931358 0
M  V30 6195 N 567.408 -6.85812 -0.981503 0
M  V30 6196 N 569.201 -5.53695 -0.968421 0
M  V30 6197 H 561.352 -2.01761 0.663803 0
M  V30 6198 H 563.615 -0.918094 0.236238 0
M  V30 6199 H 563.321 -3.50494 0.29105 0
M  V30 6200 H 563.195 -3.47841 -1.45898 0
M  V30 6201 H 565.582 -2.49372 -1.57789 0
M  V30 6202 H 565.663 -2.55103 0.188736 0
M  V30 6203 H 565.307 -5.078 0.100811 0
M  V30 6204 H 565.237 -4.99176 -1.67724 0
M  V30 6205 H 567.728 -3.69025 -0.814176 0
M  V30 6206 H 568.041 -7.65648 -1.04892 0
M  V30 6207 H 566.386 -6.88474 -0.950208 0
M  V30 6208 H 569.577 -4.58848 -0.926072 0
M  V30 6209 H 569.75 -6.39708 -1.03334 0
M  V30 6210 N 563.156 0.464375 -1.50603 0
M  V30 6211 C 564.104 1.58224 -1.70493 0
M  V30 6212 C 565.098 1.59492 -0.570836 0
M  V30 6213 O 566.304 1.63561 -0.751517 0
M  V30 6214 H 562.679 0.525161 -0.538247 0
M  V30 6215 H 564.65 1.38613 -2.64252 0
M  V30 6216 C 563.399 2.96113 -1.82243 0
M  V30 6217 H 562.722 2.95858 -2.68901 0
M  V30 6218 H 564.162 3.73769 -2.00182 0
M  V30 6219 C 562.621 3.31946 -0.575628 0
M  V30 6220 O 563.151 4.00708 0.282152 0
M  V30 6221 N 561.357 2.87436 -0.427665 0
M  V30 6222 H 560.904 2.31652 -1.12674 0
M  V30 6223 H 560.862 3.11776 0.405379 0
M  V30 6224 N 564.634 1.40294 0.718013 0
M  V30 6225 C 565.881 1.3844 1.47786 0
M  V30 6226 C 566.209 -0.0140838 1.94495 0
M  V30 6227 O 565.464 -0.998165 1.68331 0
M  V30 6228 C 565.763 2.31814 2.72024 0
M  V30 6229 C 565.429 3.79117 2.44093 0
M  V30 6230 C 564.091 4.19249 2.36185 0
M  V30 6231 C 566.443 4.72212 2.20602 0
M  V30 6232 C 563.771 5.50516 2.02851 0
M  V30 6233 C 566.123 6.03775 1.88781 0
M  V30 6234 C 564.787 6.42953 1.79354 0
M  V30 6235 H 564.057 0.506588 0.540786 0
M  V30 6236 H 566.704 1.72929 0.822663 0
M  V30 6237 H 565.009 1.90501 3.42369 0
M  V30 6238 H 566.706 2.27664 3.30106 0
M  V30 6239 H 563.296 3.47318 2.51133 0
M  V30 6240 H 567.48 4.42026 2.25669 0
M  V30 6241 H 562.736 5.79776 1.94088 0
M  V30 6242 H 566.91 6.75428 1.69617 0
M  V30 6243 H 564.537 7.44584 1.53291 0
M  V30 6244 N 566.112 -0.949982 1.2575 0
M  V30 6245 C 567.044 -2.05088 1.02331 0
M  V30 6246 C 568.057 -1.62795 -0.0133247 0
M  V30 6247 O 569.246 -1.77067 0.225759 0
M  V30 6248 C 566.346 -3.34794 0.525924 0
M  V30 6249 C 565.519 -4.05903 1.62978 0
M  V30 6250 C 564.578 -5.1388 1.13196 0
M  V30 6251 O 563.604 -5.39072 1.82729 0
M  V30 6252 N 564.806 -5.80495 -0.0242926 0
M  V30 6253 H 567.571 -2.25747 1.97125 0
M  V30 6254 H 565.132 -1.11886 1.17018 0
M  V30 6255 H 567.124 -4.04312 0.177263 0
M  V30 6256 H 565.694 -3.10872 -0.328202 0
M  V30 6257 H 564.914 -3.3042 2.1498 0
M  V30 6258 H 566.202 -4.50166 2.37124 0
M  V30 6259 H 565.6 -5.62454 -0.605184 0
M  V30 6260 H 564.157 -6.51043 -0.313947 0
M  V30 6261 N 567.59 -1.07411 -1.15328 0
M  V30 6262 C 568.522 -0.652924 -2.19703 0
M  V30 6263 C 569.535 0.294869 -1.60107 0
M  V30 6264 O 570.724 0.0840932 -1.78302 0
M  V30 6265 C 567.824 0.061434 -3.38844 0
M  V30 6266 C 566.997 -0.902696 -4.27984 0
M  V30 6267 C 566.056 -0.225521 -5.25717 0
M  V30 6268 O 565.082 -0.86676 -5.62562 0
M  V30 6269 N 566.284 1.02858 -5.71315 0
M  V30 6270 H 569.049 -1.55081 -2.56457 0
M  V30 6271 H 566.61 -0.958883 -1.30449 0
M  V30 6272 H 568.602 0.525145 -4.01278 0
M  V30 6273 H 567.172 0.861269 -3.00501 0
M  V30 6274 H 566.392 -1.54551 -3.6264 0
M  V30 6275 H 567.68 -1.55636 -4.84412 0
M  V30 6276 H 567.078 1.56948 -5.43492 0
M  V30 6277 H 565.635 1.43596 -6.35786 0
M  V30 6278 N 569.068 1.32177 -0.85831 0
M  V30 6279 C 569.998 2.31282 -0.321041 0
M  V30 6280 C 570.979 1.59841 0.581786 0
M  V30 6281 O 572.164 1.87619 0.501262 0
M  V30 6282 C 569.294 3.4385 0.48832 0
M  V30 6283 C 568.248 4.26799 -0.320391 0
M  V30 6284 C 567.574 5.31164 0.613934 0
M  V30 6285 C 568.874 4.98829 -1.54813 0
M  V30 6286 H 570.568 2.76469 -1.14915 0
M  V30 6287 H 568.114 1.32916 -0.554028 0
M  V30 6288 H 570.067 4.12224 0.874626 0
M  V30 6289 H 568.791 2.97401 1.34983 0
M  V30 6290 H 567.45 3.60077 -0.688497 0
M  V30 6291 H 567.098 4.80967 1.47239 0
M  V30 6292 H 566.798 5.8755 0.0768097 0
M  V30 6293 H 568.322 6.024 0.997336 0
M  V30 6294 H 569.736 5.59864 -1.23392 0
M  V30 6295 H 568.133 5.64957 -2.02346 0
M  V30 6296 H 569.203 4.26483 -2.30739 0
M  V30 6297 N 570.547 0.616602 1.45037 0
M  V30 6298 C 571.772 0.120192 2.07051 0
M  V30 6299 C 572.197 -1.19008 1.45666 0
M  V30 6300 O 571.555 -1.7267 0.552692 0
M  V30 6301 C 571.603 0.00354901 3.606 0
M  V30 6302 O 570.707 -1.04431 3.98958 0
M  V30 6303 H 570.048 0.0781599 0.659384 0
M  V30 6304 H 572.578 0.849167 1.86146 0
M  V30 6305 H 572.588 -0.191754 4.07549 0
M  V30 6306 H 571.263 0.960239 4.04663 0
M  V30 6307 H 569.84 -0.824749 3.63665 0
M  V30 6308 N 572.025 -1.5352 0.356285 0
M  V30 6309 C 573.271 -2.01414 -0.236653 0
M  V30 6310 C 573.604 -1.24339 -1.49176 0
M  V30 6311 O 572.879 -0.334496 -1.91602 0
M  V30 6312 C 573.162 -3.56059 -0.537982 0
M  V30 6313 C 573.015 -4.43835 0.730112 0
M  V30 6314 C 574.334 -4.19127 -1.34239 0
M  V30 6315 H 571.453 -0.732135 -0.0845386 0
M  V30 6316 H 574.095 -1.83854 0.479341 0
M  V30 6317 H 572.245 -3.71153 -1.14795 0
M  V30 6318 H 573.917 -4.40555 1.36782 0
M  V30 6319 H 572.16 -4.1218 1.3524 0
M  V30 6320 H 572.831 -5.49958 0.474358 0
M  V30 6321 H 575.307 -4.07809 -0.826498 0
M  V30 6322 H 574.183 -5.27378 -1.52198 0
M  V30 6323 H 574.444 -3.74581 -2.34822 0
M  V30 6324 N 573.503 -0.0852151 -1.57369 0
M  V30 6325 C 574.78 0.622534 -1.85429 0
M  V30 6326 C 575.16 1.86962 -0.980229 0
M  V30 6327 O 574.508 2.28445 -0.0500219 0
M  V30 6328 C 574.718 0.947374 -3.35896 0
M  V30 6329 C 576.066 1.31509 -4.03721 0
M  V30 6330 O 577.09 1.03869 -3.40719 0
M  V30 6331 O 575.949 1.83231 -5.14868 0
M  V30 6332 H 573.043 0.310513 -0.766492 0
M  V30 6333 H 575.589 -0.117164 -1.69295 0
M  V30 6334 H 574.361 0.0622264 -3.91251 0
M  V30 6335 H 573.984 1.74338 -3.5734 0
M  V30 6336 N 574.981 1.5647 0.188427 0
M  V30 6337 C 576.227 1.81281 0.909124 0
M  V30 6338 C 576.56 0.66034 1.82628 0
M  V30 6339 O 575.835 -0.338737 1.91528 0
M  V30 6340 C 576.118 3.16388 1.7196 0
M  V30 6341 C 575.971 4.42137 0.826714 0
M  V30 6342 C 577.29 3.48256 2.69083 0
M  V30 6343 H 574.409 0.659457 0.329068 0
M  V30 6344 H 577.051 1.89182 0.176156 0
M  V30 6345 H 575.201 3.09784 2.34448 0
M  V30 6346 H 576.873 4.60794 0.216025 0
M  V30 6347 H 575.116 4.33594 0.133792 0
M  V30 6348 H 575.787 5.33184 1.42893 0
M  V30 6349 H 578.263 3.55203 2.16726 0
M  V30 6350 H 577.139 4.43899 3.2287 0
M  V30 6351 H 577.4 2.72088 3.48455 0
M  V30 6352 N 576.459 -0.456382 1.50847 0
M  V30 6353 C 577.389 -1.56025 1.73719 0
M  V30 6354 C 578.37 -1.5967 0.586473 0
M  V30 6355 O 579.555 -1.75702 0.827185 0
M  V30 6356 C 576.685 -2.94251 1.84483 0
M  V30 6357 C 575.639 -3.05471 2.99786 0
M  V30 6358 C 574.965 -4.45489 2.95709 0
M  V30 6359 C 576.265 -2.81318 4.40065 0
M  V30 6360 H 577.959 -1.37138 2.66146 0
M  V30 6361 H 575.505 -0.658299 1.28072 0
M  V30 6362 H 577.458 -3.71417 1.99067 0
M  V30 6363 H 576.182 -3.14328 0.886891 0
M  V30 6364 H 574.841 -2.30741 2.84876 0
M  V30 6365 H 574.489 -4.62505 1.97732 0
M  V30 6366 H 574.189 -4.53929 3.73125 0
M  V30 6367 H 575.713 -5.24655 3.12362 0
M  V30 6368 H 577.127 -3.48226 4.55425 0
M  V30 6369 H 575.524 -3.01188 5.19043 0
M  V30 6370 H 576.594 -1.7706 4.51418 0
M  V30 6371 N 577.937 -1.40673 -0.710563 0
M  V30 6372 C 578.887 -1.37812 -1.81636 0
M  V30 6373 C 579.871 -0.254853 -1.58869 0
M  V30 6374 O 581.063 -0.494356 -1.69956 0
M  V30 6375 C 578.192 -1.24802 -3.19811 0
M  V30 6376 C 577.278 -2.41931 -3.48325 0
M  V30 6377 N 577.669 -3.67411 -3.47625 0
M  V30 6378 C 575.967 -2.35419 -3.78806 0
M  V30 6379 C 576.668 -4.45008 -3.74623 0
M  V30 6380 N 575.644 -3.74916 -3.93623 0
M  V30 6381 H 579.446 -2.32766 -1.79436 0
M  V30 6382 H 576.96 -1.34516 -0.909909 0
M  V30 6383 H 578.957 -1.20835 -3.99004 0
M  V30 6384 H 577.617 -0.308202 -3.23234 0
M  V30 6385 H 578.628 -4.00503 -3.28356 0
M  V30 6386 H 575.305 -1.4983 -3.89689 0
M  V30 6387 H 576.695 -5.53884 -3.80344 0
M  V30 6388 N 579.415 0.9433 -1.26252 0
M  V30 6389 C 580.325 2.07532 -1.09397 0
M  V30 6390 C 581.341 1.73977 -0.0280449 0
M  V30 6391 O 582.517 2.00067 -0.231337 0
M  V30 6392 C 579.582 3.39002 -0.726523 0
M  V30 6393 C 578.643 3.86353 -1.87163 0
M  V30 6394 C 577.876 5.11549 -1.52162 0
M  V30 6395 O 578.099 5.68834 -0.422385 0
M  V30 6396 O 577.033 5.53889 -2.35565 0
M  V30 6397 H 580.859 2.24658 -2.04359 0
M  V30 6398 H 578.444 1.05988 -1.05295 0
M  V30 6399 H 580.326 4.18 -0.534236 0
M  V30 6400 H 579.001 3.2312 0.193721 0
M  V30 6401 H 577.908 3.0831 -2.11886 0
M  V30 6402 H 579.241 4.06752 -2.77152 0
M  V30 6403 N 580.893 1.08022 1.14757 0
M  V30 6404 C 581.84 0.706657 2.19716 0
M  V30 6405 C 582.81 -0.30525 1.63271 0
M  V30 6406 O 583.995 -0.19015 1.8985 0
M  V30 6407 C 581.135 0.117914 3.44898 0
M  V30 6408 C 580.248 1.18212 4.15512 0
M  V30 6409 C 579.383 0.557659 5.28265 0
M  V30 6410 C 578.422 1.60418 5.90705 0
M  V30 6411 N 577.559 1.0018 6.94916 0
M  V30 6412 H 582.399 1.60603 2.51019 0
M  V30 6413 H 579.936 0.802664 1.23271 0
M  V30 6414 H 581.894 -0.241112 4.16503 0
M  V30 6415 H 580.524 -0.744788 3.1409 0
M  V30 6416 H 579.576 1.65863 3.42335 0
M  V30 6417 H 580.888 1.97533 4.5802 0
M  V30 6418 H 580.042 0.146654 6.06523 0
M  V30 6419 H 578.781 -0.267249 4.86967 0
M  V30 6420 H 577.786 2.02489 5.11154 0
M  V30 6421 H 579.011 2.43149 6.34078 0
M  V30 6422 H 576.957 0.197917 6.55701 0
M  V30 6423 H 576.874 1.73216 7.35889 0
M  V30 6424 H 578.142 0.616523 7.77058 0
M  V30 6425 N 582.371 -1.3172 0.865308 0
M  V30 6426 C 583.599 -2.01057 0.488251 0
M  V30 6427 C 584.014 -1.64979 -0.918 0
M  V30 6428 O 583.371 -0.876597 -1.60069 0
M  V30 6429 C 583.422 -3.55964 0.630224 0
M  V30 6430 O 583.143 -3.90749 1.98109 0
M  V30 6431 C 584.644 -4.42574 0.253567 0
M  V30 6432 H 581.864 -0.64332 0.190736 0
M  V30 6433 H 584.408 -1.68058 1.16519 0
M  V30 6434 H 582.563 -3.874 0.000895422 0
M  V30 6435 H 582.977 -4.85467 1.9855 0
M  V30 6436 H 584.451 -5.50521 0.403875 0
M  V30 6437 H 584.928 -4.31724 -0.806895 0
M  V30 6438 H 585.534 -4.16547 0.858404 0
M  V30 6439 N 583.85 -0.624285 -1.44708 0
M  V30 6440 C 584.8 0.106466 -2.27751 0
M  V30 6441 C 585.784 0.822703 -1.38277 0
M  V30 6442 O 586.976 0.709939 -1.62138 0
M  V30 6443 C 584.105 1.092 -3.25469 0
M  V30 6444 C 583.191 0.375737 -4.22432 0
M  V30 6445 N 583.582 -0.591881 -5.02325 0
M  V30 6446 C 581.88 0.621093 -4.41654 0
M  V30 6447 C 582.581 -1.01443 -5.72786 0
M  V30 6448 N 581.557 -0.354651 -5.42442 0
M  V30 6449 H 585.359 -0.636464 -2.86926 0
M  V30 6450 H 582.873 -0.44925 -1.56062 0
M  V30 6451 H 584.87 1.63006 -3.83712 0
M  V30 6452 H 583.529 1.8353 -2.67856 0
M  V30 6453 H 584.541 -0.969389 -5.08747 0
M  V30 6454 H 581.218 1.34779 -3.95147 0
M  V30 6455 H 582.608 -1.81345 -6.46965 0
M  V30 6456 N 585.328 1.53329 -0.364422 0
M  V30 6457 C 586.258 2.28627 0.474543 0
M  V30 6458 C 587.239 1.31009 1.08492 0
M  V30 6459 O 588.424 1.59878 1.10239 0
M  V30 6460 C 585.554 3.07465 1.61501 0
M  V30 6461 C 584.508 4.1276 1.13194 0
M  V30 6462 C 583.834 4.79674 2.36255 0
M  V30 6463 C 585.134 5.21847 0.217507 0
M  V30 6464 H 586.828 2.99005 -0.153656 0
M  V30 6465 H 584.374 1.43803 -0.0753406 0
M  V30 6466 H 586.327 3.58889 2.20855 0
M  V30 6467 H 585.051 2.34775 2.27042 0
M  V30 6468 H 583.71 3.62281 0.56109 0
M  V30 6469 H 583.358 4.03557 3.00251 0
M  V30 6470 H 583.058 5.50827 2.04606 0
M  V30 6471 H 584.582 5.33892 2.96297 0
M  V30 6472 H 585.996 5.6878 0.718493 0
M  V30 6473 H 584.393 6.00099 -0.00806408 0
M  V30 6474 H 585.463 4.7921 -0.740653 0
M  V30 6475 N 586.806 0.0935595 1.57322 0
M  V30 6476 C 587.753 -0.865935 2.1394 0
M  V30 6477 C 588.723 -1.28083 1.05754 0
M  V30 6478 O 589.908 -1.36285 1.33533 0
M  V30 6479 C 587.048 -2.12023 2.72287 0
M  V30 6480 C 586.161 -1.756 3.94701 0
M  V30 6481 C 585.296 -2.95804 4.41218 0
M  V30 6482 C 584.335 -2.555 5.56225 0
M  V30 6483 N 583.472 -3.68534 5.97601 0
M  V30 6484 H 588.312 -0.376261 2.95615 0
M  V30 6485 H 585.849 -0.174052 1.46067 0
M  V30 6486 H 587.807 -2.85477 3.04235 0
M  V30 6487 H 586.437 -2.58492 1.93343 0
M  V30 6488 H 585.489 -0.921208 3.69077 0
M  V30 6489 H 586.801 -1.41964 4.78171 0
M  V30 6490 H 585.955 -3.77513 4.74941 0
M  V30 6491 H 584.694 -3.32649 3.56645 0
M  V30 6492 H 583.699 -1.72218 5.22131 0
M  V30 6493 H 584.924 -2.19801 6.42545 0
M  V30 6494 H 582.87 -4.051 5.15974 0
M  V30 6495 H 582.787 -3.38737 6.75865 0
M  V30 6496 H 584.055 -4.50757 6.35955 0
M  V30 6497 N 588.284 -1.56567 -0.180126 0
M  V30 6498 C 589.532 -1.81133 -0.896392 0
M  V30 6499 C 589.853 -0.669114 -1.83161 0
M  V30 6500 O 589.123 0.311616 -1.93406 0
M  V30 6501 H 587.703 -0.668172 -0.333999 0
M  V30 6502 H 590.365 -1.94048 -0.182051 0
M  V30 6503 H 589.461 -2.74854 -1.47857 0
M  V30 6504 N 589.762 0.448376 -1.51087 0
M  V30 6505 C 590.695 1.56298 -1.66272 0
M  V30 6506 C 591.673 1.54381 -0.510419 0
M  V30 6507 O 592.857 1.73671 -0.732854 0
M  V30 6508 C 589.984 2.94883 -1.66618 0
M  V30 6509 C 589.03 3.14868 -2.87681 0
M  V30 6510 S 589.863 2.9234 -4.48662 0
M  V30 6511 C 591.019 4.33227 -4.51735 0
M  V30 6512 H 591.252 1.43182 -2.6055 0
M  V30 6513 H 588.785 0.637309 -1.40633 0
M  V30 6514 H 590.743 3.74771 -1.67502 0
M  V30 6515 H 589.404 3.05371 -0.735358 0
M  V30 6516 H 588.597 4.16166 -2.84292 0
M  V30 6517 H 588.199 2.42788 -2.84482 0
M  V30 6518 H 590.491 5.26247 -4.26697 0
M  V30 6519 H 591.434 4.41653 -5.53487 0
M  V30 6520 H 591.842 4.16367 -3.81181 0
M  V30 6521 N 591.24 1.41047 0.703093 0
M  V30 6522 C 592.15 1.44645 1.84703 0
M  V30 6523 C 593.166 0.337778 1.7069 0
M  V30 6524 O 594.342 0.584327 1.92737 0
M  V30 6525 C 591.407 1.31928 3.20618 0
M  V30 6526 C 590.468 2.53047 3.46794 0
M  V30 6527 C 589.701 2.40927 4.76224 0
M  V30 6528 O 589.924 1.42978 5.5219 0
M  V30 6529 O 588.858 3.30543 5.03016 0
M  V30 6530 H 592.684 2.41139 1.84624 0
M  V30 6531 H 590.269 1.22504 0.855167 0
M  V30 6532 H 592.151 1.27092 4.01778 0
M  V30 6533 H 590.826 0.385469 3.21397 0
M  V30 6534 H 589.733 2.6346 2.65593 0
M  V30 6535 H 591.066 3.45231 3.50822 0
M  V30 6536 N 592.718 -0.936591 1.26751 0
M  V30 6537 C 593.628 -2.06949 1.10496 0
M  V30 6538 C 594.644 -1.7396 0.037271 0
M  V30 6539 O 595.82 -1.99941 0.241944 0
M  V30 6540 C 592.885 -3.38612 0.744491 0
M  V30 6541 C 591.946 -3.85355 1.89209 0
M  V30 6542 C 591.179 -5.10735 1.54873 0
M  V30 6543 O 591.402 -5.68602 0.452546 0
M  V30 6544 O 590.336 -5.52632 2.38499 0
M  V30 6545 H 594.162 -2.23571 2.05547 0
M  V30 6546 H 591.747 -1.05428 1.05855 0
M  V30 6547 H 593.629 -4.17711 0.556396 0
M  V30 6548 H 592.304 -3.23218 -0.176582 0
M  V30 6549 H 591.211 -3.07182 2.13518 0
M  V30 6550 H 592.544 -4.05277 2.79305 0
M  V30 6551 N 594.196 -1.08629 -1.14182 0
M  V30 6552 C 595.143 -0.718299 -2.19338 0
M  V30 6553 C 596.113 0.296587 -1.63431 0
M  V30 6554 O 597.298 0.180079 -1.89948 0
M  V30 6555 C 594.438 -0.136203 -3.44831 0
M  V30 6556 C 593.551 -1.20414 -4.14879 0
M  V30 6557 C 592.686 -0.585666 -5.27962 0
M  V30 6558 C 591.725 -1.63548 -5.89846 0
M  V30 6559 N 590.862 -1.03864 -6.94375 0
M  V30 6560 H 595.702 -1.61932 -2.50164 0
M  V30 6561 H 593.239 -0.80919 -1.22844 0
M  V30 6562 H 595.197 0.219021 -4.16625 0
M  V30 6563 H 593.827 0.728121 -3.14481 0
M  V30 6564 H 592.879 -1.67676 -3.41451 0
M  V30 6565 H 594.191 -1.99959 -4.56966 0
M  V30 6566 H 593.345 -0.178818 -6.06436 0
M  V30 6567 H 592.084 0.24142 -4.87102 0
M  V30 6568 H 591.089 -2.05197 -5.10073 0
M  V30 6569 H 592.314 -2.46509 -6.3278 0
M  V30 6570 H 590.26 -0.232687 -6.55587 0
M  V30 6571 H 590.177 -1.77116 -7.3496 0
M  V30 6572 H 591.445 -0.657724 -7.7672 0
M  V30 6573 N 595.674 1.31259 -0.872281 0
M  V30 6574 C 596.584 2.32221 -0.333255 0
M  V30 6575 C 597.6 1.6481 0.558013 0
M  V30 6576 O 598.776 1.96212 0.454175 0
M  V30 6577 C 595.841 3.43708 0.454479 0
M  V30 6578 C 594.902 4.26774 -0.465024 0
M  V30 6579 C 594.135 5.32937 0.28521 0
M  V30 6580 O 594.358 5.49968 1.513 0
M  V30 6581 O 593.292 6.00834 -0.358126 0
M  V30 6582 H 597.118 2.80252 -1.17016 0
M  V30 6583 H 594.703 1.352 -0.635724 0
M  V30 6584 H 596.585 4.11656 0.900963 0
M  V30 6585 H 595.26 2.97836 1.26789 0
M  V30 6586 H 594.167 3.61571 -0.960055 0
M  V30 6587 H 595.5 4.76217 -1.2441 0
M  V30 6588 N 597.152 0.631951 1.44375 0
M  V30 6589 C 598.062 -0.073674 2.34484 0
M  V30 6590 C 599.078 -0.834825 1.52665 0
M  V30 6591 O 600.254 -0.786902 1.85391 0
M  V30 6592 C 597.319 -1.04247 3.30656 0
M  V30 6593 C 596.38 -0.280602 4.28382 0
M  V30 6594 C 595.613 -1.20325 5.19959 0
M  V30 6595 O 595.836 -2.44199 5.15484 0
M  V30 6596 O 594.77 -0.687128 5.97965 0
M  V30 6597 H 598.596 0.667477 2.96274 0
M  V30 6598 H 596.181 0.392144 1.44162 0
M  V30 6599 H 598.063 -1.59981 3.89851 0
M  V30 6600 H 596.738 -1.76422 2.71398 0
M  V30 6601 H 595.645 0.319804 3.72731 0
M  V30 6602 H 596.978 0.401144 4.90563 0
M  V30 6603 N 598.631 -1.53133 0.372548 0
M  V30 6604 C 599.563 -2.23557 -0.505444 0
M  V30 6605 C 600.576 -1.25211 -1.04049 0
M  V30 6606 O 601.765 -1.51391 -0.945675 0
M  V30 6607 C 598.865 -2.92516 -1.71136 0
M  V30 6608 C 598.038 -4.17428 -1.30661 0
M  V30 6609 C 597.097 -4.69535 -2.37536 0
M  V30 6610 O 596.123 -5.33042 -1.99637 0
M  V30 6611 N 597.325 -4.47947 -3.6922 0
M  V30 6612 H 600.09 -2.9954 0.0978259 0
M  V30 6613 H 597.651 -1.60684 0.198068 0
M  V30 6614 H 599.643 -3.24281 -2.42124 0
M  V30 6615 H 598.213 -2.19944 -2.22134 0
M  V30 6616 H 597.433 -3.91888 -0.426292 0
M  V30 6617 H 598.721 -4.98622 -1.01259 0
M  V30 6618 H 598.119 -3.97219 -4.02783 0
M  V30 6619 H 596.676 -4.84245 -4.36292 0
M  V30 6620 N 600.109 -0.101901 -1.5727 0
M  V30 6621 C 601.52 0.426173 -1.81771 0
M  V30 6622 C 601.871 1.67725 -1.01797 0
M  V30 6623 O 600.996 2.14958 -0.249386 0
M  V30 6624 C 601.591 0.779962 -3.297 0
M  V30 6625 C 600.15 1.25275 -3.54941 0
M  V30 6626 C 599.297 0.252814 -2.76145 0
M  V30 6627 H 602.248 -0.32726 -1.55289 0
M  V30 6628 H 602.269 1.63891 -3.43395 0
M  V30 6629 H 601.781 -0.130778 -3.8788 0
M  V30 6630 H 599.882 2.18097 -3.021 0
M  V30 6631 H 599.995 1.20988 -4.63572 0
M  V30 6632 H 598.359 0.736362 -2.43823 0
M  V30 6633 H 599.142 -0.650724 -3.37076 0
M  V30 6634 N 601.587 1.56661 0.17182 0
M  V30 6635 C 602.497 1.99604 1.2327 0
M  V30 6636 C 603.513 0.907333 1.4847 0
M  V30 6637 O 604.689 1.21492 1.60629 0
M  V30 6638 C 601.754 2.34685 2.55194 0
M  V30 6639 C 600.815 3.57381 2.3786 0
M  V30 6640 C 600.048 3.90779 3.63494 0
M  V30 6641 O 600.271 3.25152 4.6865 0
M  V30 6642 O 599.205 4.84129 3.57634 0
M  V30 6643 H 603.031 2.90114 0.898192 0
M  V30 6644 H 600.616 1.44522 0.378647 0
M  V30 6645 H 602.498 2.5822 3.33017 0
M  V30 6646 H 601.173 1.47336 2.88225 0
M  V30 6647 H 600.08 3.39064 1.5807 0
M  V30 6648 H 601.413 4.45268 2.09754 0
M  V30 6649 N 603.065 -0.440357 1.51323 0
M  V30 6650 C 604.313 -1.18769 1.63518 0
M  V30 6651 C 604.634 -1.91793 0.352201 0
M  V30 6652 O 603.904 -1.85432 -0.631811 0
M  V30 6653 H 602.484 -0.441408 0.602634 0
M  V30 6654 H 605.146 -0.505162 1.8824 0
M  V30 6655 H 604.242 -1.91892 2.46138 0
M  V30 6656 N 604.543 -1.41418 -0.695603 0
M  V30 6657 C 605.959 -1.23887 -1.00619 0
M  V30 6658 C 606.159 -0.128206 -2.01092 0
M  V30 6659 O 605.215 0.507408 -2.47349 0
M  V30 6660 C 606.528 -2.58816 -1.53083 0
M  V30 6661 C 608.076 -2.65998 -1.64967 0
M  V30 6662 C 608.551 -4.01244 -2.20833 0
M  V30 6663 N 610.042 -4.0309 -2.28194 0
M  V30 6664 C 610.777 -5.04539 -2.72448 0
M  V30 6665 N 610.273 -6.16378 -3.16306 0
M  V30 6666 N 612.066 -4.91901 -2.72011 0
M  V30 6667 H 604.217 -2.12379 -0.0300061 0
M  V30 6668 H 606.48 -0.944958 -0.0758797 0
M  V30 6669 H 606.186 -3.40842 -0.867147 0
M  V30 6670 H 606.06 -2.81299 -2.51298 0
M  V30 6671 H 608.447 -1.84331 -2.30448 0
M  V30 6672 H 608.528 -2.47325 -0.652982 0
M  V30 6673 H 608.172 -4.83359 -1.55968 0
M  V30 6674 H 608.102 -4.17257 -3.21254 0
M  V30 6675 H 610.593 -3.22341 -1.97242 0
M  V30 6676 H 610.906 -6.89658 -3.487 0
M  V30 6677 H 609.251 -6.19914 -3.14215 0
M  V30 6678 H 612.442 -4.03613 -2.37095 0
M  V30 6679 H 612.615 -5.71102 -3.06181 0
M  V30 6680 N 606.021 0.929856 -1.27246 0
M  V30 6681 C 606.951 2.04722 -1.12299 0
M  V30 6682 C 607.932 1.70082 -0.0250464 0
M  V30 6683 O 609.117 1.93176 -0.199141 0
M  V30 6684 C 606.247 3.38721 -0.767145 0
M  V30 6685 C 605.201 3.87466 -1.81808 0
M  V30 6686 C 604.527 5.18246 -1.31626 0
M  V30 6687 C 605.827 4.11095 -3.22177 0
M  V30 6688 H 607.521 2.17485 -2.05769 0
M  V30 6689 H 605.067 1.04503 -0.990715 0
M  V30 6690 H 607.02 4.16366 -0.649413 0
M  V30 6691 H 605.744 3.25967 0.203259 0
M  V30 6692 H 604.403 3.12012 -1.92468 0
M  V30 6693 H 604.051 5.01881 -0.335378 0
M  V30 6694 H 603.751 5.51829 -2.01887 0
M  V30 6695 H 605.275 5.98462 -1.21143 0
M  V30 6696 H 606.689 4.79316 -3.1453 0
M  V30 6697 H 605.086 4.55982 -3.90129 0
M  V30 6698 H 606.156 3.16468 -3.67391 0
M  V30 6699 N 607.499 1.09233 1.13605 0
M  V30 6700 C 608.724 0.849067 1.89224 0
M  V30 6701 C 609.149 -0.593875 1.78479 0
M  V30 6702 O 608.507 -1.41703 1.13092 0
M  V30 6703 C 608.555 1.28642 3.36873 0
M  V30 6704 O 607.659 0.44363 4.10007 0
M  V30 6705 H 607 0.30767 0.588417 0
M  V30 6706 H 609.53 1.45595 1.43748 0
M  V30 6707 H 609.54 1.27096 3.87699 0
M  V30 6708 H 608.215 2.33729 3.44011 0
M  V30 6709 H 606.792 0.523241 3.69211 0
M  V30 6710 N 608.977 -1.30795 0.87923 0
M  V30 6711 C 610.217 -1.98155 0.50141 0
M  V30 6712 C 610.581 -1.67925 -0.930863 0
M  V30 6713 O 611.782 -2.28572 -1.41451 0
M  V30 6714 C 610.053 -3.49184 0.761937 0
M  V30 6715 S 611.612 -4.36107 0.485361 0
M  V30 6716 H 608.43 -0.686025 0.186792 0
M  V30 6717 H 611.032 -1.59018 1.13726 0
M  V30 6718 H 609.736 -3.68676 1.80295 0
M  V30 6719 H 609.267 -3.93236 0.113432 0
M  V30 6720 H 611.282 -4.9154 -0.678467 0
M  V30 6721 N 610.455 -0.639598 -1.44038 0
M  V30 6722 C 611.68 -0.153117 -2.06834 0
M  V30 6723 C 612.105 1.16676 -1.47541 0
M  V30 6724 O 611.463 1.71769 -0.580093 0
M  V30 6725 C 611.511 -0.0609169 -3.60549 0
M  V30 6726 O 610.615 0.98071 -4.00569 0
M  V30 6727 H 609.956 -0.0886402 -0.658057 0
M  V30 6728 H 612.486 -0.878674 -1.84771 0
M  V30 6729 H 612.496 0.126892 -4.07803 0
M  V30 6730 H 611.171 -1.0245 -4.03084 0
M  V30 6731 H 609.748 0.766789 -3.64931 0
M  V30 6732 N 611.933 1.52934 -0.380664 0
M  V30 6733 C 613.344 1.86457 0.0952684 0
M  V30 6734 C 613.695 1.3007 1.46889 0
M  V30 6735 O 612.82 0.628636 2.07068 0
M  V30 6736 C 613.415 3.38323 0.179648 0
M  V30 6737 C 611.974 3.71589 0.599858 0
M  V30 6738 C 611.121 2.76228 -0.243572 0
M  V30 6739 H 614.072 1.46966 -0.59888 0
M  V30 6740 H 614.093 3.67113 1.00042 0
M  V30 6741 H 613.605 3.79333 -0.820228 0
M  V30 6742 H 611.706 3.36144 1.60742 0
M  V30 6743 H 611.819 4.77715 0.364003 0
M  V30 6744 H 610.183 2.53045 0.289855 0
M  V30 6745 H 610.966 3.20074 -1.24127 0
M  V30 6746 N 613.412 0.11024 1.57214 0
M  V30 6747 C 614.344 -0.873497 2.11902 0
M  V30 6748 C 615.357 -1.23588 1.05971 0
M  V30 6749 O 616.546 -1.18636 1.33371 0
M  V30 6750 C 613.646 -2.17805 2.59643 0
M  V30 6751 C 612.819 -1.98869 3.89576 0
M  V30 6752 C 611.878 -3.12974 4.23006 0
M  V30 6753 O 610.904 -2.86272 4.91973 0
M  V30 6754 N 612.106 -4.39167 3.79622 0
M  V30 6755 H 614.871 -0.406317 2.96933 0
M  V30 6756 H 612.432 -0.074437 1.61729 0
M  V30 6757 H 614.424 -2.93117 2.79042 0
M  V30 6758 H 612.994 -2.55899 1.7954 0
M  V30 6759 H 612.214 -1.078 3.79174 0
M  V30 6760 H 613.502 -1.83512 4.74553 0
M  V30 6761 H 612.9 -4.63739 3.2398 0
M  V30 6762 H 611.457 -5.11379 4.04147 0
M  V30 6763 N 614.89 -1.56749 -0.16351 0
M  V30 6764 C 616.167 -1.73321 -0.906599 0
M  V30 6765 C 616.547 -0.673779 -2.00059 0
M  V30 6766 O 615.895 0.310121 -2.26386 0
M  V30 6767 C 616.105 -3.168 -1.46419 0
M  V30 6768 C 617.453 -3.77993 -1.93407 0
M  V30 6769 O 618.477 -3.20127 -1.56196 0
M  V30 6770 O 617.336 -4.79615 -2.61976 0
M  V30 6771 H 614.43 -0.708073 -0.427272 0
M  V30 6772 H 616.976 -1.69029 -0.150727 0
M  V30 6773 H 615.748 -3.85396 -0.677189 0
M  V30 6774 H 615.371 -3.2545 -2.28403 0
M  V30 6775 N 616.368 0.432326 -1.51554 0
M  V30 6776 C 617.278 1.55023 -1.76082 0
M  V30 6777 C 618.294 1.61593 -0.645265 0
M  V30 6778 O 619.47 1.78742 -0.928086 0
M  V30 6779 C 616.535 2.90964 -1.88523 0
M  V30 6780 C 615.596 2.9447 -3.12388 0
M  V30 6781 C 614.829 4.23926 -3.24225 0
M  V30 6782 O 615.052 5.16576 -2.4188 0
M  V30 6783 O 613.986 4.33818 -4.17235 0
M  V30 6784 H 617.812 1.37238 -2.70923 0
M  V30 6785 H 615.397 0.615845 -1.36117 0
M  V30 6786 H 617.279 3.71633 -1.98662 0
M  V30 6787 H 615.954 3.08865 -0.9687 0
M  V30 6788 H 614.861 2.12737 -3.07723 0
M  V30 6789 H 616.194 2.81514 -4.03746 0
M  V30 6790 N 617.846 1.41785 0.688094 0
M  V30 6791 C 619.123 1.32031 1.44316 0
M  V30 6792 C 619.503 -0.0486079 2.11044 0
M  V30 6793 O 618.851 -1.06332 2.02252 0
M  V30 6794 C 619.061 2.47906 2.45649 0
M  V30 6795 C 620.409 2.89415 3.10683 0
M  V30 6796 O 621.433 2.477 2.55975 0
M  V30 6797 O 620.292 3.61573 4.09789 0
M  V30 6798 H 617.386 0.519994 0.643067 0
M  V30 6799 H 619.932 1.53765 0.71794 0
M  V30 6800 H 618.704 3.39222 1.95048 0
M  V30 6801 H 618.327 2.28089 3.25671 0
M  V30 6802 N 619.324 -0.923095 1.27737 0
M  V30 6803 C 620.234 -2.05765 1.12685 0
M  V30 6804 C 621.25 -1.73911 0.0557197 0
M  V30 6805 O 622.426 -1.99674 0.263137 0
M  V30 6806 C 619.491 -3.37804 0.780363 0
M  V30 6807 C 618.552 -3.83326 1.93286 0
M  V30 6808 C 617.785 -5.09064 1.60281 0
M  V30 6809 O 618.008 -5.6809 0.512828 0
M  V30 6810 O 616.942 -5.50071 2.44347 0
M  V30 6811 H 620.768 -2.21378 2.07907 0
M  V30 6812 H 618.353 -1.04299 1.06968 0
M  V30 6813 H 620.235 -4.17097 0.600668 0
M  V30 6814 H 618.91 -3.23387 -0.142291 0
M  V30 6815 H 617.817 -3.049 2.16764 0
M  V30 6816 H 619.15 -4.02292 2.83588 0
M  V30 6817 N 620.802 -1.09834 -1.13024 0
M  V30 6818 C 621.712 -0.753731 -2.22162 0
M  V30 6819 C 622.728 0.246105 -1.72251 0
M  V30 6820 O 623.904 0.0864051 -2.01215 0
M  V30 6821 C 620.969 -0.183958 -3.46212 0
M  V30 6822 C 620.03 -1.24028 -4.10993 0
M  V30 6823 C 619.263 -0.697597 -5.29121 0
M  V30 6824 O 619.486 0.478092 -5.68393 0
M  V30 6825 O 618.42 -1.4546 -5.84059 0
M  V30 6826 H 622.246 -1.66456 -2.5402 0
M  V30 6827 H 619.831 -0.873026 -1.21238 0
M  V30 6828 H 621.713 0.130257 -4.21199 0
M  V30 6829 H 620.388 0.699823 -3.16045 0
M  V30 6830 H 619.295 -1.60725 -3.37814 0
M  V30 6831 H 620.628 -2.09685 -4.45301 0
M  V30 6832 N 622.28 1.30327 -0.886154 0
M  V30 6833 C 623.696 1.48676 -0.580323 0
M  V30 6834 C 623.896 1.81189 0.881639 0
M  V30 6835 O 622.952 1.90021 1.66278 0
M  V30 6836 C 624.265 2.60932 -1.49449 0
M  V30 6837 C 625.813 2.74812 -1.49824 0
M  V30 6838 C 626.288 3.90183 -2.39836 0
M  V30 6839 N 627.779 3.97495 -2.37806 0
M  V30 6840 C 628.514 4.86078 -3.04165 0
M  V30 6841 N 628.01 5.79448 -3.79753 0
M  V30 6842 N 629.803 4.79456 -2.93391 0
M  V30 6843 H 621.954 1.07495 -1.8319 0
M  V30 6844 H 624.217 0.532661 -0.784204 0
M  V30 6845 H 623.923 2.43731 -2.5355 0
M  V30 6846 H 623.797 3.57437 -1.20494 0
M  V30 6847 H 626.184 2.91418 -0.464731 0
M  V30 6848 H 626.265 1.78924 -1.82811 0
M  V30 6849 H 625.909 3.74334 -3.43273 0
M  V30 6850 H 625.839 4.85411 -2.04166 0
M  V30 6851 H 628.33 3.30703 -1.82877 0
M  V30 6852 H 628.643 6.43805 -4.27475 0
M  V30 6853 H 626.988 5.79376 -3.8386 0
M  V30 6854 H 630.179 4.05494 -2.33864 0
M  V30 6855 H 630.352 5.48283 -3.45383 0
M  V30 6856 N 623.758 0.647228 1.43697 0
M  V30 6857 C 625.004 0.167001 2.02713 0
M  V30 6858 C 625.359 -1.20351 1.50111 0
M  V30 6859 O 624.652 -1.79047 0.682113 0
M  V30 6860 C 624.846 0.111481 3.57226 0
M  V30 6861 C 624.675 1.47507 4.2482 0
M  V30 6862 C 623.445 2.06594 4.61137 0
M  V30 6863 C 625.643 2.41224 4.54219 0
M  V30 6864 N 623.625 3.3602 5.13774 0
M  V30 6865 C 624.996 3.55278 5.08112 0
M  V30 6866 C 627.051 2.40102 4.36183 0
M  V30 6867 C 625.754 4.68426 5.45866 0
M  V30 6868 C 627.78 3.52326 4.74995 0
M  V30 6869 C 627.142 4.65104 5.29015 0
M  V30 6870 H 623.241 0.105402 0.774864 0
M  V30 6871 H 625.825 0.854229 1.7496 0
M  V30 6872 H 623.996 -0.545073 3.84556 0
M  V30 6873 H 625.728 -0.379063 4.02921 0
M  V30 6874 H 622.483 1.59366 4.45981 0
M  V30 6875 H 622.907 4.02233 5.44552 0
M  V30 6876 H 627.549 1.54151 3.93697 0
M  V30 6877 H 625.267 5.55074 5.87298 0
M  V30 6878 H 628.853 3.52652 4.6274 0
M  V30 6879 H 627.733 5.50506 5.58492 0
M  V30 6880 N 625.236 -1.5273 0.388769 0
M  V30 6881 C 626.168 -2.24081 -0.481704 0
M  V30 6882 C 627.181 -1.26307 -1.02715 0
M  V30 6883 O 628.37 -1.52386 -0.929565 0
M  V30 6884 C 625.47 -2.94315 -1.68024 0
M  V30 6885 C 624.643 -4.18791 -1.26226 0
M  V30 6886 C 623.702 -4.72028 -2.32542 0
M  V30 6887 O 622.728 -5.35129 -1.93972 0
M  V30 6888 N 623.93 -4.51838 -3.64448 0
M  V30 6889 H 626.695 -2.9942 0.129591 0
M  V30 6890 H 624.256 -1.60465 0.2151 0
M  V30 6891 H 626.248 -3.26831 -2.38671 0
M  V30 6892 H 624.818 -2.22287 -2.19789 0
M  V30 6893 H 624.038 -3.92318 -0.384703 0
M  V30 6894 H 625.326 -4.99668 -0.959647 0
M  V30 6895 H 624.724 -4.01468 -3.98547 0
M  V30 6896 H 623.281 -4.88845 -4.31131 0
M  V30 6897 N 626.714 -0.118576 -1.57153 0
M  V30 6898 C 627.962 0.538461 -1.94795 0
M  V30 6899 C 628.283 1.67243 -1.00274 0
M  V30 6900 O 627.553 1.95811 -0.0589692 0
M  V30 6901 H 626.133 0.201904 -0.719197 0
M  V30 6902 H 628.795 -0.187418 -1.93997 0
M  V30 6903 H 627.891 0.933315 -2.97818 0
M  V30 6904 N 628.193 1.56834 0.155195 0
M  V30 6905 C 629.609 1.51315 0.50755 0
M  V30 6906 C 629.809 0.825614 1.83809 0
M  V30 6907 O 628.865 0.39271 2.49427 0
M  V30 6908 C 630.178 2.96074 0.52542 0
M  V30 6909 C 631.726 3.06968 0.611505 0
M  V30 6910 C 632.201 4.53218 0.660115 0
M  V30 6911 N 633.692 4.5753 0.722564 0
M  V30 6912 C 634.427 5.68056 0.781023 0
M  V30 6913 N 633.923 6.88173 0.799327 0
M  V30 6914 N 635.716 5.56068 0.821278 0
M  V30 6915 H 627.867 1.9993 -0.717063 0
M  V30 6916 H 630.13 0.911507 -0.260496 0
M  V30 6917 H 629.836 3.49599 -0.383875 0
M  V30 6918 H 629.71 3.51587 1.36624 0
M  V30 6919 H 632.097 2.53468 1.51122 0
M  V30 6920 H 632.178 2.54513 -0.256306 0
M  V30 6921 H 631.822 5.07354 -0.23541 0
M  V30 6922 H 631.752 5.03447 1.5443 0
M  V30 6923 H 634.243 3.71054 0.716049 0
M  V30 6924 H 634.556 7.6816 0.845553 0
M  V30 6925 H 632.901 6.90751 0.767337 0
M  V30 6926 H 636.092 4.61142 0.804091 0
M  V30 6927 H 636.265 6.42223 0.863372 0
M  V30 6928 N 629.671 -0.424282 1.51781 0
M  V30 6929 C 630.581 -1.54087 1.76902 0
M  V30 6930 C 631.597 -1.61249 0.653826 0
M  V30 6931 O 632.773 -1.78247 0.937552 0
M  V30 6932 C 629.838 -2.8996 1.90063 0
M  V30 6933 C 628.899 -2.92809 3.13945 0
M  V30 6934 C 628.132 -4.22201 3.26469 0
M  V30 6935 O 628.355 -5.15286 2.44616 0
M  V30 6936 O 627.289 -4.31599 4.1953 0
M  V30 6937 H 631.115 -1.358 2.71647 0
M  V30 6938 H 628.7 -0.608618 1.36441 0
M  V30 6939 H 630.582 -3.70575 2.0063 0
M  V30 6940 H 629.257 -3.08347 0.985067 0
M  V30 6941 H 628.164 -2.11102 3.08847 0
M  V30 6942 H 629.497 -2.79369 4.05233 0
M  V30 6943 N 631.149 -1.42148 -0.680565 0
M  V30 6944 C 632.059 -1.47565 -1.82378 0
M  V30 6945 C 633.075 -0.36489 -1.70131 0
M  V30 6946 O 634.251 -0.614916 -1.91783 0
M  V30 6947 C 631.316 -1.37013 -3.18478 0
M  V30 6948 C 630.377 -2.58532 -3.42724 0
M  V30 6949 C 629.61 -2.48473 -4.72331 0
M  V30 6950 O 629.833 -1.51745 -5.49845 0
M  V30 6951 O 628.767 -3.38503 -4.97694 0
M  V30 6952 H 632.593 -2.44045 -1.80764 0
M  V30 6953 H 630.178 -1.23849 -0.835569 0
M  V30 6954 H 632.06 -1.33468 -3.99705 0
M  V30 6955 H 630.735 -0.436552 -3.20743 0
M  V30 6956 H 629.642 -2.67652 -2.61368 0
M  V30 6957 H 630.975 -3.50769 -3.45286 0
M  V30 6958 N 632.627 0.916307 -1.28225 0
M  V30 6959 C 633.537 2.05165 -1.13775 0
M  V30 6960 C 634.553 1.73879 -0.0649418 0
M  V30 6961 O 635.729 1.99531 -0.273722 0
M  V30 6962 C 632.794 3.37385 -0.798267 0
M  V30 6963 C 631.855 3.82296 -1.95316 0
M  V30 6964 C 631.088 5.08206 -1.62978 0
M  V30 6965 O 631.311 5.6781 -0.542948 0
M  V30 6966 O 630.245 5.48768 -2.47261 0
M  V30 6967 H 634.071 2.20273 -2.09078 0
M  V30 6968 H 631.656 1.0373 -1.07519 0
M  V30 6969 H 633.538 4.16773 -0.62278 0
M  V30 6970 H 632.213 3.23458 0.125139 0
M  V30 6971 H 631.12 3.03746 -2.18378 0
M  V30 6972 H 632.453 4.00782 -2.85718 0
M  V30 6973 N 634.105 1.10431 1.1244 0
M  V30 6974 C 635.33 0.869089 1.88313 0
M  V30 6975 C 635.755 -0.574912 1.79099 0
M  V30 6976 O 635.113 -1.40496 1.14589 0
M  V30 6977 C 635.161 1.32208 3.3549 0
M  V30 6978 O 634.265 0.487092 4.09513 0
M  V30 6979 H 633.606 0.313894 0.585121 0
M  V30 6980 H 636.136 1.47111 1.42195 0
M  V30 6981 H 636.146 1.31201 3.86329 0
M  V30 6982 H 634.821 2.37364 3.41513 0
M  V30 6983 H 633.398 0.562372 3.68635 0
M  V30 6984 N 635.583 -1.29855 0.893053 0
M  V30 6985 C 636.86 -1.90694 0.435336 0
M  V30 6986 C 637.24 -1.8111 -1.08454 0
M  V30 6987 O 636.588 -1.23352 -1.92345 0
M  V30 6988 C 636.798 -3.36033 0.942472 0
M  V30 6989 C 638.146 -4.13083 0.982226 0
M  V30 6990 O 639.17 -3.4491 0.889686 0
M  V30 6991 O 638.029 -5.34896 1.12022 0
M  V30 6992 H 635.123 -0.815978 0.134567 0
M  V30 6993 H 637.669 -1.38367 0.982484 0
M  V30 6994 H 636.441 -3.37132 1.9864 0
M  V30 6995 H 636.064 -3.95828 0.374952 0
M  V30 6996 N 637.061 -0.65484 -1.43351 0
M  V30 6997 C 637.971 0.0363603 -2.34572 0
M  V30 6998 C 638.987 0.810432 -1.53974 0
M  V30 6999 O 640.163 0.757308 -1.86619 0
M  V30 7000 C 637.228 0.989733 -3.32273 0
M  V30 7001 C 636.289 0.212414 -4.28774 0
M  V30 7002 C 635.522 1.12038 -5.21808 0
M  V30 7003 O 635.745 2.35967 -5.19303 0
M  V30 7004 O 634.679 0.59191 -5.98982 0
M  V30 7005 H 638.505 -0.714527 -2.95175 0
M  V30 7006 H 636.09 -0.415029 -1.4352 0
M  V30 7007 H 637.972 1.53759 -3.92347 0
M  V30 7008 H 636.647 1.72082 -2.74171 0
M  V30 7009 H 635.554 -0.379062 -3.72175 0
M  V30 7010 H 636.887 -0.479138 -4.89862 0
M  V30 7011 N 638.539 1.52521 -0.396863 0
M  V30 7012 C 639.95 1.86547 0.0754868 0
M  V30 7013 C 640.301 1.31621 1.45501 0
M  V30 7014 O 639.426 0.650563 2.0639 0
M  V30 7015 C 640.021 3.38495 0.143754 0
M  V30 7016 C 638.58 3.72205 0.560413 0
M  V30 7017 C 637.727 2.75954 -0.272856 0
M  V30 7018 H 640.678 1.46323 -0.614434 0
M  V30 7019 H 640.699 3.68153 0.961425 0
M  V30 7020 H 640.211 3.78442 -0.860415 0
M  V30 7021 H 638.312 3.3783 1.57167 0
M  V30 7022 H 638.425 4.78074 0.313314 0
M  V30 7023 H 636.789 2.53339 0.263 0
M  V30 7024 H 637.572 3.1874 -1.27515 0
M  V30 7025 N 640.017 0.126909 1.57088 0
M  V30 7026 C 641.245 -0.53667 1.99819 0
M  V30 7027 C 641.66 -1.5972 1.00673 0
M  V30 7028 O 641.017 -1.825 0.000747365 0
M  V30 7029 C 641.068 -1.15563 3.42531 0
M  V30 7030 O 640.789 -0.137483 4.37884 0
M  V30 7031 C 642.29 -1.90176 4.00435 0
M  V30 7032 H 639.51 -0.141443 0.655923 0
M  V30 7033 H 642.054 0.215578 2.03361 0
M  V30 7034 H 640.209 -1.85861 3.39904 0
M  V30 7035 H 640.623 -0.588229 5.21191 0
M  V30 7036 H 642.097 -2.28801 5.02349 0
M  V30 7037 H 642.574 -2.78002 3.40017 0
M  V30 7038 H 643.18 -1.24623 4.06632 0
M  V30 7039 N 641.495 -1.56914 -0.146875 0
M  V30 7040 C 642.425 -2.01308 -1.1831 0
M  V30 7041 C 643.406 -0.892664 -1.44795 0
M  V30 7042 O 644.591 -1.16048 -1.55713 0
M  V30 7043 C 641.721 -2.3938 -2.51624 0
M  V30 7044 C 640.675 -3.54608 -2.3966 0
M  V30 7045 C 640.001 -3.78493 -3.77686 0
M  V30 7046 C 641.301 -4.87269 -1.88058 0
M  V30 7047 H 642.995 -2.88123 -0.813964 0
M  V30 7048 H 640.541 -1.38615 -0.3901 0
M  V30 7049 H 642.494 -2.69037 -3.24341 0
M  V30 7050 H 641.218 -1.49502 -2.90373 0
M  V30 7051 H 639.877 -3.25116 -1.69396 0
M  V30 7052 H 639.525 -2.85866 -4.13871 0
M  V30 7053 H 639.225 -4.56039 -3.70543 0
M  V30 7054 H 640.749 -4.10576 -4.51951 0
M  V30 7055 H 642.163 -5.15644 -2.50568 0
M  V30 7056 H 640.56 -5.68622 -1.91805 0
M  V30 7057 H 641.63 -4.77634 -0.836277 0
M  V30 7058 N 642.974 0.416227 -1.52004 0
M  V30 7059 C 643.884 1.53147 -1.77717 0
M  V30 7060 C 644.9 1.609 -0.662368 0
M  V30 7061 O 646.076 1.77747 -0.946991 0
M  V30 7062 C 643.141 2.88948 -1.91598 0
M  V30 7063 C 642.202 2.9114 -3.15493 0
M  V30 7064 C 641.435 4.20464 -3.28703 0
M  V30 7065 O 641.658 5.13981 -2.47345 0
M  V30 7066 O 640.592 4.29368 -4.21813 0
M  V30 7067 H 644.418 1.34357 -2.72363 0
M  V30 7068 H 642.003 0.601373 -1.36762 0
M  V30 7069 H 643.885 3.69505 -2.02593 0
M  V30 7070 H 642.56 3.07821 -1.00141 0
M  V30 7071 H 641.467 2.09461 -3.09962 0
M  V30 7072 H 642.8 2.77216 -4.06709 0
M  V30 7073 N 644.452 1.42507 0.673017 0
M  V30 7074 C 645.4 1.46362 1.80779 0
M  V30 7075 C 646.394 0.339166 1.6597 0
M  V30 7076 O 647.6 0.512262 1.72557 0
M  V30 7077 H 643.975 0.458433 0.596107 0
M  V30 7078 H 645.946 2.41953 1.74646 0
M  V30 7079 C 644.695 1.38462 3.18941 0
M  V30 7080 H 644.018 2.24283 3.30964 0
M  V30 7081 H 645.458 1.45221 3.98355 0
M  V30 7082 C 643.917 0.0996354 3.36753 0
M  V30 7083 O 644.447 -0.846894 3.92671 0
M  V30 7084 N 642.653 0.016211 2.90595 0
M  V30 7085 H 642.2 0.78725 2.45276 0
M  V30 7086 H 642.158 -0.84291 3.0289 0
M  V30 7087 N 645.93 -0.909495 1.28709 0
M  V30 7088 C 646.86 -2.0291 1.15542 0
M  V30 7089 C 647.841 -1.7002 0.0521017 0
M  V30 7090 O 649.026 -1.92835 0.229849 0
M  V30 7091 C 646.156 -3.37458 0.820935 0
M  V30 7092 C 645.11 -3.84524 1.87949 0
M  V30 7093 C 644.436 -5.16086 1.39854 0
M  V30 7094 C 645.736 -4.05918 3.28676 0
M  V30 7095 H 647.43 -2.14183 2.09203 0
M  V30 7096 H 644.976 -1.02913 1.00722 0
M  V30 7097 H 646.929 -4.1528 0.715571 0
M  V30 7098 H 645.653 -3.26249 -0.151374 0
M  V30 7099 H 644.312 -3.08911 1.97408 0
M  V30 7100 H 643.96 -5.01284 0.41518 0
M  V30 7101 H 643.66 -5.48547 2.1064 0
M  V30 7102 H 645.184 -5.96459 1.30649 0
M  V30 7103 H 646.598 -4.74252 3.22115 0
M  V30 7104 H 644.995 -4.49717 3.97334 0
M  V30 7105 H 646.065 -3.10583 3.72379 0
M  V30 7106 N 647.408 -1.11026 -1.11852 0
M  V30 7107 C 648.819 -0.873203 -1.65021 0
M  V30 7108 C 649.17 0.595364 -1.86949 0
M  V30 7109 O 648.295 1.45645 -1.60051 0
M  V30 7110 C 648.89 -1.57859 -2.99777 0
M  V30 7111 C 647.449 -1.38807 -3.49871 0
M  V30 7112 C 646.596 -1.62403 -2.24768 0
M  V30 7113 H 649.547 -1.26712 -0.955503 0
M  V30 7114 H 649.568 -1.02111 -3.66543 0
M  V30 7115 H 649.08 -2.6474 -2.83786 0
M  V30 7116 H 647.181 -0.341163 -3.71035 0
M  V30 7117 H 647.294 -2.13421 -4.28938 0
M  V30 7118 H 645.658 -1.04714 -2.32179 0
M  V30 7119 H 646.441 -2.70549 -2.11324 0
M  V30 7120 N 648.886 1.2938 -0.899927 0
M  V30 7121 C 649.796 2.31462 -0.382437 0
M  V30 7122 C 650.812 1.65956 0.522929 0
M  V30 7123 O 651.988 1.97131 0.412454 0
M  V30 7124 C 649.053 3.44595 0.381472 0
M  V30 7125 C 648.114 4.25692 -0.555444 0
M  V30 7126 C 647.347 5.33422 0.172102 0
M  V30 7127 O 647.57 5.53053 1.396 0
M  V30 7128 O 646.504 5.99939 -0.485491 0
M  V30 7129 H 650.33 2.77706 -1.22934 0
M  V30 7130 H 647.915 1.33821 -0.664259 0
M  V30 7131 H 649.797 4.13474 0.813442 0
M  V30 7132 H 648.472 3.00458 1.20443 0
M  V30 7133 H 647.379 3.59453 -1.03653 0
M  V30 7134 H 648.712 4.73471 -1.34483 0
M  V30 7135 N 650.364 0.662433 1.43002 0
M  V30 7136 C 651.589 0.186003 2.06564 0
M  V30 7137 C 652.014 -1.14314 1.49379 0
M  V30 7138 O 651.372 -1.70824 0.607346 0
M  V30 7139 C 651.42 0.118269 3.60406 0
M  V30 7140 O 650.524 -0.916859 4.02079 0
M  V30 7141 H 649.865 0.0990981 0.656563 0
M  V30 7142 H 652.395 0.907958 1.8335 0
M  V30 7143 H 652.405 -0.0619981 4.07953 0
M  V30 7144 H 651.08 1.08849 4.01403 0
M  V30 7145 H 649.657 -0.708635 3.66105 0
M  V30 7146 N 651.842 -1.52309 0.404946 0
M  V30 7147 C 652.774 -2.24579 -0.45791 0
M  V30 7148 C 653.787 -1.2739 -1.01369 0
M  V30 7149 O 654.976 -1.53363 -0.91335 0
M  V30 7150 C 652.076 -2.9608 -1.64893 0
M  V30 7151 C 651.249 -4.20106 -1.21777 0
M  V30 7152 C 650.308 -4.74468 -2.27523 0
M  V30 7153 O 649.334 -5.37157 -1.88285 0
M  V30 7154 N 650.536 -4.55678 -3.59635 0
M  V30 7155 H 653.301 -2.99265 0.161341 0
M  V30 7156 H 650.862 -1.60228 0.232107 0
M  V30 7157 H 652.854 -3.29344 -2.35191 0
M  V30 7158 H 651.424 -2.24606 -2.17419 0
M  V30 7159 H 650.644 -3.92704 -0.343071 0
M  V30 7160 H 651.932 -5.00658 -0.906596 0
M  V30 7161 H 651.33 -4.05673 -3.94266 0
M  V30 7162 H 649.887 -4.9339 -4.25922 0
M  V30 7163 N 653.32 -0.135238 -1.57019 0
M  V30 7164 C 654.731 0.387521 -1.82634 0
M  V30 7165 C 655.082 1.65528 -1.05332 0
M  V30 7166 O 654.207 2.14381 -0.294926 0
M  V30 7167 C 654.802 0.709852 -3.3128 0
M  V30 7168 C 653.361 1.17718 -3.57518 0
M  V30 7169 C 652.508 0.194183 -2.76619 0
M  V30 7170 H 655.459 -0.360126 -1.5456 0
M  V30 7171 H 655.48 1.5657 -3.46794 0
M  V30 7172 H 654.992 -0.213024 -3.87515 0
M  V30 7173 H 653.093 2.1164 -3.06658 0
M  V30 7174 H 653.206 1.11128 -4.66034 0
M  V30 7175 H 651.57 0.684478 -2.4533 0
M  V30 7176 H 652.353 -0.722076 -3.3562 0
M  V30 7177 N 654.798 1.5699 0.138552 0
M  V30 7178 C 656.047 1.82998 0.848205 0
M  V30 7179 C 656.36 0.717829 1.81952 0
M  V30 7180 O 657.566 0.863756 2.57394 0
M  V30 7181 C 656.022 3.24379 1.55904 0
M  V30 7182 C 655.63 4.43552 0.62971 0
M  V30 7183 C 657.374 3.59654 2.25498 0
M  V30 7184 C 655.281 5.75957 1.34266 0
M  V30 7185 H 654.211 0.682495 0.320495 0
M  V30 7186 H 656.862 1.83222 0.100924 0
M  V30 7187 H 655.244 3.18567 2.35226 0
M  V30 7188 H 656.418 4.6062 -0.128882 0
M  V30 7189 H 654.733 4.16379 0.0417526 0
M  V30 7190 H 657.33 4.55837 2.79493 0
M  V30 7191 H 657.673 2.86124 3.02388 0
M  V30 7192 H 658.206 3.67164 1.53087 0
M  V30 7193 H 654.945 6.52604 0.615441 0
M  V30 7194 H 654.465 5.62811 2.07375 0
M  V30 7195 H 656.144 6.19046 1.88126 0
M  V30 7196 N 656.276 -0.40816 1.52223 0
M  V30 7197 C 657.687 -0.986929 1.58482 0
M  V30 7198 C 658.038 -1.91521 0.425917 0
M  V30 7199 O 657.163 -2.11593 -0.453593 0
M  V30 7200 C 657.758 -1.7967 2.87235 0
M  V30 7201 C 656.317 -2.32549 2.9597 0
M  V30 7202 C 655.464 -1.12558 2.53428 0
M  V30 7203 H 658.415 -0.188362 1.57578 0
M  V30 7204 H 658.436 -2.65417 2.72642 0
M  V30 7205 H 657.948 -1.12082 3.71563 0
M  V30 7206 H 656.049 -3.03505 2.16137 0
M  V30 7207 H 656.162 -2.63348 4.00231 0
M  V30 7208 H 654.526 -1.47984 2.07299 0
M  V30 7209 H 655.309 -0.465351 3.40131 0
M  V30 7210 N 657.755 -1.42862 -0.66545 0
M  V30 7211 C 658.98 -1.47456 -1.45848 0
M  V30 7212 C 659.405 -0.0900312 -1.87884 0
M  V30 7213 O 658.763 0.913587 -1.56599 0
M  V30 7214 C 658.811 -2.41514 -2.67774 0
M  V30 7215 O 657.915 -1.89296 -3.66389 0
M  V30 7216 H 657.256 -0.499236 -0.437789 0
M  V30 7217 H 659.786 -1.8765 -0.815394 0
M  V30 7218 H 659.796 -2.58409 -3.15735 0
M  V30 7219 H 658.471 -3.42099 -2.36519 0
M  V30 7220 H 657.048 -1.82003 -3.25468 0
M  V30 7221 N 659.233 0.902656 -1.29189 0
M  V30 7222 C 660.166 2.00816 -1.0839 0
M  V30 7223 C 661.144 1.626 0.00335266 0
M  V30 7224 O 662.328 1.87928 -0.146765 0
M  V30 7225 C 659.455 3.32415 -0.649435 0
M  V30 7226 C 658.501 3.89617 -1.73496 0
M  V30 7227 S 659.334 4.19091 -3.33351 0
M  V30 7228 C 660.49 5.53736 -2.91766 0
M  V30 7229 H 660.723 2.18151 -2.01984 0
M  V30 7230 H 658.256 1.0489 -1.13303 0
M  V30 7231 H 660.214 4.08492 -0.405479 0
M  V30 7232 H 658.875 3.12964 0.266857 0
M  V30 7233 H 658.068 4.84658 -1.38284 0
M  V30 7234 H 657.67 3.20217 -1.93229 0
M  V30 7235 H 659.962 6.34085 -2.38627 0
M  V30 7236 H 660.905 5.93871 -3.85647 0
M  V30 7237 H 661.313 5.15453 -2.30149 0
M  V30 7238 N 660.711 1.11618 1.11262 0
M  V30 7239 C 661.988 0.777876 1.79467 0
M  V30 7240 C 662.368 -0.733774 1.97937 0
M  V30 7241 O 661.716 -1.66443 1.56554 0
M  V30 7242 C 661.926 1.5431 3.13032 0
M  V30 7243 C 663.274 1.72357 3.88044 0
M  V30 7244 O 664.298 1.5075 3.22727 0
M  V30 7245 O 663.157 2.08276 5.05256 0
M  V30 7246 H 660.251 0.282018 0.777428 0
M  V30 7247 H 662.797 1.21971 1.17988 0
M  V30 7248 H 661.569 2.57132 2.94956 0
M  V30 7249 H 661.192 1.09495 3.82226 0
M  V30 7250 N 662.189 -1.289 0.906776 0
M  V30 7251 C 663.119 -2.29932 0.406659 0
M  V30 7252 C 664.1 -1.6189 -0.522061 0
M  V30 7253 O 665.285 -1.8935 -0.431283 0
M  V30 7254 C 662.415 -3.45425 -0.360366 0
M  V30 7255 C 661.369 -4.25316 0.478574 0
M  V30 7256 C 660.695 -5.33076 -0.416373 0
M  V30 7257 C 661.995 -4.92739 1.7322 0
M  V30 7258 H 663.689 -2.72013 1.25097 0
M  V30 7259 H 661.235 -1.30768 0.602977 0
M  V30 7260 H 663.188 -4.15186 -0.721029 0
M  V30 7261 H 661.912 -3.02206 -1.23852 0
M  V30 7262 H 660.571 -3.57273 0.821662 0
M  V30 7263 H 660.219 -4.86101 -1.29287 0
M  V30 7264 H 659.919 -5.8743 0.141309 0
M  V30 7265 H 661.443 -6.05686 -0.773072 0
M  V30 7266 H 662.857 -5.54898 1.44086 0
M  V30 7267 H 661.254 -5.57057 2.23175 0
M  V30 7268 H 662.324 -4.17625 2.46408 0
M  V30 7269 N 663.667 -0.670007 -1.42649 0
M  V30 7270 C 664.617 0.0339546 -2.27975 0
M  V30 7271 C 665.601 0.778295 -1.40824 0
M  V30 7272 O 666.793 0.657997 -1.64315 0
M  V30 7273 C 663.922 0.987899 -3.28779 0
M  V30 7274 C 663.008 0.241153 -4.23414 0
M  V30 7275 N 663.399 -0.751392 -5.00188 0
M  V30 7276 C 661.697 0.480269 -4.43407 0
M  V30 7277 C 662.398 -1.19615 -5.69269 0
M  V30 7278 N 661.374 -0.527045 -5.41039 0
M  V30 7279 H 665.176 -0.727425 -2.84756 0
M  V30 7280 H 662.69 -0.498673 -1.54554 0
M  V30 7281 H 664.687 1.50716 -3.88703 0
M  V30 7282 H 663.347 1.74916 -2.73559 0
M  V30 7283 H 664.358 -1.13075 -5.05405 0
M  V30 7284 H 661.035 1.2214 -3.99234 0
M  V30 7285 H 662.425 -2.01836 -6.40868 0
M  V30 7286 N 665.145 1.52092 -0.413018 0
M  V30 7287 C 666.055 2.30858 0.417318 0
M  V30 7288 C 667.071 1.38746 1.05003 0
M  V30 7289 O 668.247 1.71821 1.05069 0
M  V30 7290 C 665.312 3.11756 1.51687 0
M  V30 7291 C 664.373 4.19613 0.906825 0
M  V30 7292 C 663.606 4.96644 1.95399 0
M  V30 7293 O 663.829 4.7402 3.17271 0
M  V30 7294 O 662.763 5.81385 1.55805 0
M  V30 7295 H 666.589 3.02865 -0.225028 0
M  V30 7296 H 664.174 1.48358 -0.176126 0
M  V30 7297 H 666.056 3.62122 2.15512 0
M  V30 7298 H 664.731 2.42539 2.14375 0
M  V30 7299 H 663.638 3.73385 0.231183 0
M  V30 7300 H 664.971 4.91134 0.323814 0
M  V30 7301 N 666.623 0.143563 1.56945 0
M  V30 7302 C 667.553 -0.7936 2.196 0
M  V30 7303 C 668.534 -1.25955 1.14321 0
M  V30 7304 O 669.719 -1.31773 1.42651 0
M  V30 7305 C 666.849 -2.03424 2.81489 0
M  V30 7306 C 665.803 -1.70519 3.92565 0
M  V30 7307 C 665.129 -3.01817 4.41373 0
M  V30 7308 C 666.429 -0.95449 5.13504 0
M  V30 7309 H 668.123 -0.271423 2.98167 0
M  V30 7310 H 665.669 -0.12911 1.4342 0
M  V30 7311 H 667.622 -2.69463 3.23987 0
M  V30 7312 H 666.346 -2.58008 2.00248 0
M  V30 7313 H 665.005 -1.06859 3.5068 0
M  V30 7314 H 664.653 -3.54386 3.56959 0
M  V30 7315 H 664.353 -2.80565 5.16292 0
M  V30 7316 H 665.877 -3.68934 4.86539 0
M  V30 7317 H 667.291 -1.5169 5.52868 0
M  V30 7318 H 665.688 -0.842035 5.94163 0
M  V30 7319 H 666.758 0.0544033 4.84869 0
M  V30 7320 N 668.101 -1.57061 -0.130224 0
M  V30 7321 C 669.011 -2.02802 -1.17934 0
M  V30 7322 C 670.027 -0.946378 -1.46013 0
M  V30 7323 O 671.203 -1.25708 -1.57351 0
M  V30 7324 C 668.268 -2.41368 -2.48882 0
M  V30 7325 C 667.329 -3.63561 -2.28301 0
M  V30 7326 C 666.562 -4.00279 -3.53005 0
M  V30 7327 O 666.785 -3.37463 -4.59864 0
M  V30 7328 O 665.719 -4.93441 -3.44673 0
M  V30 7329 H 669.545 -2.92394 -0.820958 0
M  V30 7330 H 667.13 -1.45475 -0.340197 0
M  V30 7331 H 669.012 -2.66958 -3.26054 0
M  V30 7332 H 667.687 -1.54926 -2.84217 0
M  V30 7333 H 666.594 -3.43136 -1.49025 0
M  V30 7334 H 667.927 -4.50673 -1.97875 0
M  V30 7335 N 669.579 0.400081 -1.52437 0
M  V30 7336 C 670.804 1.17221 -1.71096 0
M  V30 7337 C 671.229 1.83269 -0.423565 0
M  V30 7338 O 670.587 1.70378 0.619751 0
M  V30 7339 C 670.635 2.20425 -2.85386 0
M  V30 7340 O 669.739 3.26769 -2.51586 0
M  V30 7341 H 669.08 0.341766 -0.569291 0
M  V30 7342 H 671.61 0.467772 -1.99181 0
M  V30 7343 H 671.62 2.64605 -3.10561 0
M  V30 7344 H 670.295 1.71737 -3.78786 0
M  V30 7345 H 668.872 2.87804 -2.37114 0
M  V30 7346 N 671.057 1.43213 0.657864 0
M  V30 7347 C 672.306 1.43871 1.41365 0
M  V30 7348 C 672.619 0.064898 1.95492 0
M  V30 7349 O 673.825 -0.0510796 2.71452 0
M  V30 7350 C 672.281 2.53158 2.55811 0
M  V30 7351 C 671.889 3.96624 2.08311 0
M  V30 7352 C 673.633 2.63004 3.3321 0
M  V30 7353 C 671.54 4.97385 3.1994 0
M  V30 7354 H 670.47 0.535174 0.531136 0
M  V30 7355 H 673.121 1.69185 0.710543 0
M  V30 7356 H 671.503 2.21037 3.2857 0
M  V30 7357 H 672.677 4.38182 1.42593 0
M  V30 7358 H 670.992 3.90781 1.43804 0
M  V30 7359 H 673.589 3.3546 4.16378 0
M  V30 7360 H 673.932 1.67918 3.80932 0
M  V30 7361 H 674.465 2.94403 2.67529 0
M  V30 7362 H 671.204 5.94007 2.77192 0
M  V30 7363 H 670.724 4.60444 3.84385 0
M  V30 7364 H 672.403 5.19877 3.85145 0
M  V30 7365 N 672.536 -0.895792 1.29666 0
M  V30 7366 C 673.782 -1.64908 1.18039 0
M  V30 7367 C 674.115 -1.9236 -0.266682 0
M  V30 7368 O 673.39 -1.53682 -1.19214 0
M  V30 7369 C 673.673 -2.99574 1.99819 0
M  V30 7370 C 673.526 -2.79163 3.52687 0
M  V30 7371 C 674.845 -4.00358 1.82761 0
M  V30 7372 H 671.964 -0.598437 0.430165 0
M  V30 7373 H 674.606 -1.03736 1.59182 0
M  V30 7374 H 672.756 -3.51786 1.64859 0
M  V30 7375 H 674.428 -2.33821 3.9765 0
M  V30 7376 H 672.671 -2.13871 3.77414 0
M  V30 7377 H 673.342 -3.74871 4.05186 0
M  V30 7378 H 675.818 -3.57268 2.13304 0
M  V30 7379 H 674.694 -4.92514 2.42325 0
M  V30 7380 H 674.955 -4.35096 0.783839 0
M  V30 7381 N 674.014 -1.12206 -1.10668 0
M  V30 7382 C 674.924 -0.800686 -2.20513 0
M  V30 7383 C 675.94 0.209512 -1.72734 0
M  V30 7384 O 677.116 0.043705 -2.01353 0
M  V30 7385 C 674.181 -0.257353 -3.45744 0
M  V30 7386 C 673.242 -1.32718 -4.0827 0
M  V30 7387 C 672.475 -0.809674 -5.27522 0
M  V30 7388 O 672.698 0.35742 -5.69279 0
M  V30 7389 O 671.632 -1.57816 -5.80842 0
M  V30 7390 H 675.458 -1.71807 -2.50432 0
M  V30 7391 H 673.043 -0.898546 -1.19359 0
M  V30 7392 H 674.925 0.0408849 -4.2138 0
M  V30 7393 H 673.6 0.632627 -3.17458 0
M  V30 7394 H 672.507 -1.67855 -3.34329 0
M  V30 7395 H 673.84 -2.19083 -4.40753 0
M  V30 7396 N 675.492 1.28418 -0.913599 0
M  V30 7397 C 676.769 1.89977 -0.465619 0
M  V30 7398 C 677.149 1.82813 1.05559 0
M  V30 7399 O 676.497 1.26397 1.90358 0
M  V30 7400 C 676.707 3.34492 -0.995813 0
M  V30 7401 C 678.055 4.11468 -1.04782 0
M  V30 7402 O 679.079 3.43451 -0.944445 0
M  V30 7403 O 677.938 5.33046 -1.20518 0
M  V30 7404 H 675.032 0.813734 -0.147532 0
M  V30 7405 H 677.578 1.36786 -1.00437 0
M  V30 7406 H 676.35 3.33929 -2.03978 0
M  V30 7407 H 675.973 3.95181 -0.437878 0
M  V30 7408 N 676.97 0.677563 1.42291 0
M  V30 7409 C 677.933 0.0101085 2.29198 0
M  V30 7410 C 678.933 -0.726219 1.43467 0
M  V30 7411 O 680.123 -0.563807 1.64824 0
M  V30 7412 C 677.255 -0.996316 3.26016 0
M  V30 7413 H 678.448 0.775071 2.89711 0
M  V30 7414 H 676.001 0.440065 1.49977 0
M  V30 7415 H 676.736 -1.78967 2.70446 0
M  V30 7416 H 676.521 -0.471687 3.89253 0
M  V30 7417 H 678.011 -1.46167 3.91184 0
M  V30 7418 N 678.448 -1.51871 0.421078 0
M  V30 7419 C 679.676 -2.06356 -0.14994 0
M  V30 7420 C 680.091 -1.29006 -1.37851 0
M  V30 7421 O 679.448 -0.345139 -1.79207 0
M  V30 7422 C 679.499 -3.58185 -0.488454 0
M  V30 7423 O 679.22 -4.32611 0.691341 0
M  V30 7424 C 680.721 -4.29129 -1.11191 0
M  V30 7425 H 677.941 -0.67083 -0.0151186 0
M  V30 7426 H 680.485 -1.95638 0.595476 0
M  V30 7427 H 678.64 -3.68871 -1.18376 0
M  V30 7428 H 679.054 -5.22927 0.405906 0
M  V30 7429 H 680.528 -5.36501 -1.29889 0
M  V30 7430 H 681.005 -3.86371 -2.0884 0
M  V30 7431 H 681.611 -4.22843 -0.456458 0
M  V30 7432 N 679.926 -0.151884 -1.56866 0
M  V30 7433 C 681.151 0.508044 -2.01081 0
M  V30 7434 C 681.576 1.57306 -1.03134 0
M  V30 7435 O 680.934 1.81298 -0.0078309 0
M  V30 7436 C 680.982 1.08106 -3.44014 0
M  V30 7437 O 680.086 2.19577 -3.49084 0
M  V30 7438 H 679.427 0.123757 -0.652365 0
M  V30 7439 H 681.957 -0.250055 -2.03066 0
M  V30 7440 H 681.967 1.40851 -3.82916 0
M  V30 7441 H 680.642 0.301168 -4.14808 0
M  V30 7442 H 679.219 1.88023 -3.22027 0
M  V30 7443 N 681.404 1.57128 0.121893 0
M  V30 7444 C 682.681 1.75664 0.860327 0
M  V30 7445 C 683.061 0.726585 1.98202 0
M  V30 7446 O 682.409 -0.24999 2.27128 0
M  V30 7447 C 682.619 3.20571 1.37968 0
M  V30 7448 C 683.967 3.82988 1.83317 0
M  V30 7449 O 684.991 3.24156 1.47654 0
M  V30 7450 O 683.85 4.86393 2.49168 0
M  V30 7451 H 680.944 0.719153 0.408348 0
M  V30 7452 H 683.49 1.6937 0.105859 0
M  V30 7453 H 682.262 3.87056 0.57477 0
M  V30 7454 H 681.885 3.31392 2.19694 0
M  V30 7455 N 682.882 -0.391992 1.52647 0
M  V30 7456 C 683.812 -1.48517 1.8018 0
M  V30 7457 C 684.793 -1.57039 0.653667 0
M  V30 7458 O 685.978 -1.72036 0.900962 0
M  V30 7459 C 683.108 -2.86161 1.96797 0
M  V30 7460 C 682.062 -2.92481 3.12472 0
M  V30 7461 C 681.388 -4.32546 3.14338 0
M  V30 7462 C 682.688 -2.624 4.51601 0
M  V30 7463 H 684.382 -1.25726 2.71723 0
M  V30 7464 H 681.928 -0.603387 1.30749 0
M  V30 7465 H 683.881 -3.62639 2.14641 0
M  V30 7466 H 682.605 -3.10283 1.01941 0
M  V30 7467 H 681.264 -2.18451 2.94406 0
M  V30 7468 H 680.912 -4.53703 2.1717 0
M  V30 7469 H 680.612 -4.37695 3.92042 0
M  V30 7470 H 682.136 -5.10934 3.34333 0
M  V30 7471 H 683.55 -3.28596 4.69785 0
M  V30 7472 H 681.947 -2.78903 5.3135 0
M  V30 7473 H 683.017 -1.57754 4.58521 0
M  V30 7474 N 684.36 -1.4356 -0.65026 0
M  V30 7475 C 685.608 -1.45046 -1.40734 0
M  V30 7476 C 685.929 -0.0769822 -1.94848 0
M  V30 7477 O 685.199 0.888098 -1.74613 0
M  V30 7478 H 683.779 -0.534034 -0.522318 0
M  V30 7479 H 686.441 -1.79186 -0.766703 0
M  V30 7480 H 685.537 -2.16476 -2.24822 0
M  V30 7481 N 685.838 0.888903 -1.30139 0
M  V30 7482 C 687.068 1.67115 -1.21474 0
M  V30 7483 C 687.476 1.87852 0.225472 0
M  V30 7484 O 686.819 1.42324 1.16145 0
M  V30 7485 C 686.881 3.0713 -1.86846 0
M  V30 7486 C 686.545 3.09582 -3.36167 0
M  V30 7487 C 687.542 2.88929 -4.32222 0
M  V30 7488 C 685.227 3.31304 -3.77549 0
M  V30 7489 C 687.221 2.89949 -5.67634 0
M  V30 7490 C 684.908 3.31954 -5.13079 0
M  V30 7491 C 685.906 3.113 -6.07932 0
M  V30 7492 O 685.594 3.11758 -7.40987 0
M  V30 7493 H 685.326 0.528372 -0.421662 0
M  V30 7494 H 687.88 1.11919 -1.7223 0
M  V30 7495 H 686.11 3.63973 -1.30615 0
M  V30 7496 H 687.799 3.6749 -1.72354 0
M  V30 7497 H 688.565 2.71948 -4.01584 0
M  V30 7498 H 684.444 3.46417 -3.04165 0
M  V30 7499 H 687.988 2.73746 -6.41645 0
M  V30 7500 H 683.885 3.48469 -5.43359 0
M  V30 7501 H 684.653 3.27951 -7.49927 0
M  V30 7502 N 687.317 1.12792 1.10072 0
M  V30 7503 C 688.267 0.768086 2.14673 0
M  V30 7504 C 689.251 -0.234716 1.59179 0
M  V30 7505 O 690.443 -0.039643 1.76956 0
M  V30 7506 C 687.572 0.228472 3.42539 0
M  V30 7507 C 686.658 1.25979 4.04957 0
M  V30 7508 N 687.049 2.4586 4.42025 0
M  V30 7509 C 685.347 1.10602 4.32069 0
M  V30 7510 C 686.048 3.11747 4.9111 0
M  V30 7511 N 685.024 2.39185 4.88151 0
M  V30 7512 H 688.826 1.68029 2.4113 0
M  V30 7513 H 686.34 1.00925 1.27232 0
M  V30 7514 H 688.337 -0.0475216 4.16873 0
M  V30 7515 H 686.997 -0.678136 3.1754 0
M  V30 7516 H 688.008 2.83215 4.33601 0
M  V30 7517 H 684.685 0.257021 4.16708 0
M  V30 7518 H 686.075 4.13862 5.29309 0
M  V30 7519 N 688.795 -1.27931 0.920396 0
M  V30 7520 C 689.705 -2.30824 0.419212 0
M  V30 7521 C 690.721 -1.66767 -0.496461 0
M  V30 7522 O 691.897 -1.97763 -0.38104 0
M  V30 7523 C 688.962 -3.45158 -0.326601 0
M  V30 7524 C 688.023 -4.24754 0.623098 0
M  V30 7525 C 687.256 -5.33629 -0.0872172 0
M  V30 7526 O 687.479 -5.55204 -1.30784 0
M  V30 7527 O 686.413 -5.99091 0.580875 0
M  V30 7528 H 690.239 -2.75716 1.27337 0
M  V30 7529 H 687.824 -1.32747 0.685465 0
M  V30 7530 H 689.706 -4.14716 -0.747559 0
M  V30 7531 H 688.381 -3.02336 -1.15648 0
M  V30 7532 H 687.288 -3.57759 1.09359 0
M  V30 7533 H 688.621 -4.71272 1.41998 0
M  V30 7534 N 690.273 -0.685099 -1.4193 0
M  V30 7535 C 691.522 -0.208816 -2.00616 0
M  V30 7536 C 691.835 1.19506 -1.54847 0
M  V30 7537 O 693.041 1.76826 -2.06021 0
M  V30 7538 C 691.497 -0.322446 -3.58453 0
M  V30 7539 C 691.105 -1.73102 -4.13206 0
M  V30 7540 C 692.849 0.0945979 -4.24395 0
M  V30 7541 C 690.756 -1.79687 -5.63442 0
M  V30 7542 H 689.686 -0.0743092 -0.750329 0
M  V30 7543 H 692.337 -0.851778 -1.62533 0
M  V30 7544 H 690.719 0.388588 -3.94089 0
M  V30 7545 H 691.893 -2.46997 -3.8901 0
M  V30 7546 H 690.208 -2.09682 -3.59753 0
M  V30 7547 H 692.805 0.0656937 -5.3466 0
M  V30 7548 H 693.148 1.1316 -4.00625 0
M  V30 7549 H 693.681 -0.56579 -3.93756 0
M  V30 7550 H 690.42 -2.81404 -5.92024 0
M  V30 7551 H 689.94 -1.10162 -5.89597 0
M  V30 7552 H 691.619 -1.55498 -6.28036 0
M  V30 7553 N 691.751 1.51645 -0.429126 0
M  V30 7554 C 693.162 1.86665 0.0359003 0
M  V30 7555 C 693.513 1.34677 1.42676 0
M  V30 7556 O 692.638 0.694195 2.04963 0
M  V30 7557 C 693.233 3.38724 0.0719221 0
M  V30 7558 C 691.792 3.7331 0.481336 0
M  V30 7559 C 690.939 2.75313 -0.331329 0
M  V30 7560 H 693.89 1.44987 -0.645333 0
M  V30 7561 H 693.911 3.7011 0.883118 0
M  V30 7562 H 693.423 3.76532 -0.940495 0
M  V30 7563 H 691.524 3.41088 1.49966 0
M  V30 7564 H 691.637 4.78631 0.211837 0
M  V30 7565 H 690.001 2.53839 0.209204 0
M  V30 7566 H 690.784 3.15963 -1.34247 0
M  V30 7567 N 693.229 0.160201 1.56784 0
M  V30 7568 C 694.139 -0.787167 2.21 0
M  V30 7569 C 695.155 -1.26167 1.19825 0
M  V30 7570 O 696.331 -1.31611 1.52448 0
M  V30 7571 C 693.396 -2.00364 2.8294 0
M  V30 7572 C 692.457 -1.5771 3.99282 0
M  V30 7573 C 691.69 -2.73558 4.58259 0
M  V30 7574 O 691.913 -3.90129 4.16119 0
M  V30 7575 O 690.847 -2.48271 5.48311 0
M  V30 7576 H 694.673 -0.270462 3.02493 0
M  V30 7577 H 692.258 -0.0674666 1.49248 0
M  V30 7578 H 694.14 -2.71529 3.22257 0
M  V30 7579 H 692.815 -2.50961 2.04451 0
M  V30 7580 H 691.722 -0.835274 3.64656 0
M  V30 7581 H 693.055 -1.11815 4.79331 0
M  V30 7582 N 694.707 -1.5719 -0.113559 0
M  V30 7583 C 695.984 -1.76117 -0.850999 0
M  V30 7584 C 696.364 -0.737085 -1.97814 0
M  V30 7585 O 695.712 0.237942 -2.27258 0
M  V30 7586 C 695.922 -3.21298 -1.36266 0
M  V30 7587 C 697.27 -3.83955 -1.81283 0
M  V30 7588 O 698.294 -3.24934 -1.45933 0
M  V30 7589 O 697.153 -4.87707 -2.46585 0
M  V30 7590 H 694.247 -0.721308 -0.404529 0
M  V30 7591 H 696.793 -1.69423 -0.0968756 0
M  V30 7592 H 695.565 -3.87355 -0.554235 0
M  V30 7593 H 695.188 -3.32552 -2.17933 0
M  V30 7594 N 696.185 0.383891 -1.52853 0
M  V30 7595 C 697.596 0.961591 -1.60032 0
M  V30 7596 C 697.947 1.90819 -0.456333 0
M  V30 7597 O 697.072 2.12288 0.419873 0
M  V30 7598 C 697.667 1.75078 -2.90057 0
M  V30 7599 C 696.226 2.2781 -2.99632 0
M  V30 7600 C 695.373 1.08512 -2.55187 0
M  V30 7601 H 698.324 0.163269 -1.57858 0
M  V30 7602 H 698.345 2.61046 -2.7683 0
M  V30 7603 H 697.857 1.06157 -3.73299 0
M  V30 7604 H 695.958 3.00028 -2.20939 0
M  V30 7605 H 696.071 2.56947 -4.0437 0
M  V30 7606 H 694.435 1.44667 -2.09627 0
M  V30 7607 H 695.218 0.41118 -3.40829 0
M  V30 7608 N 697.663 1.43903 0.642637 0
M  V30 7609 C 698.593 1.52697 1.76652 0
M  V30 7610 C 699.574 0.380816 1.65782 0
M  V30 7611 O 700.759 0.599432 1.84717 0
M  V30 7612 C 697.889 1.45975 3.15133 0
M  V30 7613 C 696.843 2.58949 3.40778 0
M  V30 7614 C 696.169 2.37279 4.79169 0
M  V30 7615 C 697.469 4.01153 3.34475 0
M  V30 7616 H 699.163 2.46766 1.69549 0
M  V30 7617 H 696.709 1.18767 0.814279 0
M  V30 7618 H 698.662 1.5073 3.93521 0
M  V30 7619 H 697.386 0.484162 3.22991 0
M  V30 7620 H 696.045 2.53564 2.64765 0
M  V30 7621 H 695.693 1.37939 4.83717 0
M  V30 7622 H 695.393 3.13016 4.97287 0
M  V30 7623 H 696.917 2.43834 5.59801 0
M  V30 7624 H 698.331 4.07968 4.02784 0
M  V30 7625 H 696.728 4.77001 3.64129 0
M  V30 7626 H 697.798 4.25539 2.32475 0
M  V30 7627 N 699.141 -0.881989 1.30609 0
M  V30 7628 C 700.387 -1.63647 1.19781 0
M  V30 7629 C 700.72 -1.92632 -0.246265 0
M  V30 7630 O 699.995 -1.54938 -1.17577 0
M  V30 7631 C 700.278 -2.97437 2.02985 0
M  V30 7632 C 700.131 -2.75406 3.55628 0
M  V30 7633 C 701.45 -3.98397 1.86997 0
M  V30 7634 H 698.569 -0.593841 0.436488 0
M  V30 7635 H 701.211 -1.02041 1.60273 0
M  V30 7636 H 699.361 -3.50018 1.68581 0
M  V30 7637 H 701.033 -2.2959 4.00107 0
M  V30 7638 H 699.276 -2.09856 3.79662 0
M  V30 7639 H 699.947 -3.70552 4.09139 0
M  V30 7640 H 702.423 -3.54986 2.17081 0
M  V30 7641 H 701.299 -4.89916 2.47536 0
M  V30 7642 H 701.56 -4.3424 0.829943 0
M  V30 7643 N 700.619 -1.13374 -1.09472 0
M  V30 7644 C 701.582 -0.813639 -2.14272 0
M  V30 7645 C 702.582 0.176677 -1.59826 0
M  V30 7646 O 703.772 -0.0503441 -1.74127 0
M  V30 7647 C 700.904 -0.210897 -3.40247 0
M  V30 7648 H 702.097 -1.74229 -2.44099 0
M  V30 7649 H 699.65 -0.938304 -1.25002 0
M  V30 7650 H 700.385 0.726998 -3.16046 0
M  V30 7651 H 700.17 -0.924048 -3.81056 0
M  V30 7652 H 701.66 -0.00377603 -4.176 0
M  V30 7653 N 702.098 1.27442 -0.927168 0
M  V30 7654 C 703.008 2.30599 -0.431448 0
M  V30 7655 C 704.024 1.67028 0.48761 0
M  V30 7656 O 705.2 1.97962 0.370546 0
M  V30 7657 C 702.265 3.45327 0.308292 0
M  V30 7658 C 701.326 4.24418 -0.645615 0
M  V30 7659 C 700.559 5.33667 0.0589164 0
M  V30 7660 O 700.782 5.5589 1.27838 0
M  V30 7661 O 699.716 5.98774 -0.612638 0
M  V30 7662 H 703.542 2.75036 -1.28797 0
M  V30 7663 H 701.127 1.32382 -0.692495 0
M  V30 7664 H 703.009 4.15107 0.725555 0
M  V30 7665 H 701.684 3.02945 1.14043 0
M  V30 7666 H 700.591 3.57174 -1.11255 0
M  V30 7667 H 701.924 4.70512 -1.44496 0
M  V30 7668 N 703.576 0.692616 1.41565 0
M  V30 7669 C 704.486 0.0258451 2.34586 0
M  V30 7670 C 705.502 -0.769324 1.56069 0
M  V30 7671 O 706.678 -0.707563 1.88562 0
M  V30 7672 C 703.743 -0.901289 3.3478 0
M  V30 7673 C 702.804 -0.0986579 4.29187 0
M  V30 7674 C 702.037 -0.981634 5.24595 0
M  V30 7675 O 702.26 -2.22115 5.25377 0
M  V30 7676 O 701.194 -0.432892 6.00341 0
M  V30 7677 H 705.02 0.792537 2.93177 0
M  V30 7678 H 702.605 0.452935 1.42369 0
M  V30 7679 H 704.487 -1.43302 3.96286 0
M  V30 7680 H 703.162 -1.64752 2.78637 0
M  V30 7681 H 702.069 0.477604 3.71039 0
M  V30 7682 H 703.402 0.608848 4.8842 0
M  V30 7683 N 705.054 -1.51416 0.437162 0
M  V30 7684 C 706.284 -2.06204 -0.127859 0
M  V30 7685 C 706.692 -1.30463 -1.37026 0
M  V30 7686 O 706.035 -0.357516 -1.80187 0
M  V30 7687 C 706.097 -3.55783 -0.515632 0
M  V30 7688 C 705.761 -4.52776 0.619937 0
M  V30 7689 C 706.758 -4.98031 1.49201 0
M  V30 7690 C 704.443 -4.95878 0.800618 0
M  V30 7691 C 706.437 -5.85061 2.52947 0
M  V30 7692 C 704.124 -5.82699 1.84135 0
M  V30 7693 C 705.122 -6.27188 2.70416 0
M  V30 7694 O 704.81 -7.12284 3.72702 0
M  V30 7695 H 704.542 -0.675903 -0.011442 0
M  V30 7696 H 707.096 -1.95977 0.614986 0
M  V30 7697 H 705.326 -3.63793 -1.31118 0
M  V30 7698 H 707.015 -3.93087 -1.01179 0
M  V30 7699 H 707.781 -4.65426 1.36395 0
M  V30 7700 H 703.66 -4.60792 0.138617 0
M  V30 7701 H 707.204 -6.19708 3.20325 0
M  V30 7702 H 703.101 -6.14717 1.9696 0
M  V30 7703 H 703.869 -7.30462 3.69281 0
M  V30 7704 N 706.532 -0.168513 -1.56696 0
M  V30 7705 C 707.762 0.482802 -2.0088 0
M  V30 7706 C 708.17 1.57537 -1.0478 0
M  V30 7707 O 707.513 1.83656 -0.0402746 0
M  V30 7708 C 707.575 1.1236 -3.4149 0
M  V30 7709 C 707.239 0.173027 -4.56672 0
M  V30 7710 C 708.236 -0.607565 -5.16338 0
M  V30 7711 C 705.921 0.0696691 -5.02252 0
M  V30 7712 C 707.915 -1.47874 -6.2001 0
M  V30 7713 C 705.602 -0.805096 -6.05773 0
M  V30 7714 C 706.6 -1.57789 -6.64524 0
M  V30 7715 O 706.288 -2.43804 -7.66038 0
M  V30 7716 H 706.02 0.128246 -0.663723 0
M  V30 7717 H 708.574 -0.266532 -2.03663 0
M  V30 7718 H 706.804 1.921 -3.35611 0
M  V30 7719 H 708.493 1.67683 -3.69645 0
M  V30 7720 H 709.259 -0.53787 -4.82008 0
M  V30 7721 H 705.138 0.660957 -4.56237 0
M  V30 7722 H 708.682 -2.0824 -6.65794 0
M  V30 7723 H 704.579 -0.876005 -6.39528 0
M  V30 7724 H 705.347 -2.37289 -7.83349 0
M  V30 7725 N 708.01 1.57248 0.105221 0
M  V30 7726 C 708.973 2.00388 1.11252 0
M  V30 7727 C 709.973 0.89594 1.33527 0
M  V30 7728 O 711.163 1.16166 1.29811 0
M  V30 7729 C 708.295 2.35589 2.46395 0
M  V30 7730 H 709.488 2.90591 0.741424 0
M  V30 7731 H 707.041 1.52332 0.349956 0
M  V30 7732 H 707.776 1.4831 2.884 0
M  V30 7733 H 707.561 3.16408 2.31578 0
M  V30 7734 H 709.051 2.69658 3.18864 0
M  V30 7735 N 709.488 -0.375779 1.53054 0
M  V30 7736 C 710.765 -1.13453 1.59336 0
M  V30 7737 C 711.145 -2.07379 0.394614 0
M  V30 7738 O 710.493 -2.2004 -0.616 0
M  V30 7739 C 710.703 -1.8826 2.93869 0
M  V30 7740 C 712.051 -2.43155 3.48081 0
M  V30 7741 O 713.075 -1.984 2.95831 0
M  V30 7742 O 711.934 -3.24944 4.39401 0
M  V30 7743 H 709.028 -0.519856 0.643179 0
M  V30 7744 H 711.574 -0.379865 1.65394 0
M  V30 7745 H 710.346 -1.19652 3.72558 0
M  V30 7746 H 709.969 -2.70658 2.91256 0
M  V30 7747 N 710.966 -1.44241 -0.634997 0
M  V30 7748 C 711.929 -1.50457 -1.72903 0
M  V30 7749 C 712.929 -0.387058 -1.56072 0
M  V30 7750 O 714.119 -0.649531 -1.61638 0
M  V30 7751 C 711.251 -1.37477 -3.1195 0
M  V30 7752 H 712.444 -2.47907 -1.68767 0
M  V30 7753 H 709.997 -1.31276 -0.84831 0
M  V30 7754 H 710.732 -0.41106 -3.21684 0
M  V30 7755 H 710.517 -2.18506 -3.25573 0
M  V30 7756 H 712.007 -1.44799 -3.91692 0
M  V30 7757 N 712.444 0.87505 -1.31075 0
M  V30 7758 C 713.691 1.62768 -1.20469 0
M  V30 7759 C 714.019 1.93034 0.23834 0
M  V30 7760 O 713.274 1.55693 1.18567 0
M  V30 7761 C 713.573 2.96948 -1.98888 0
M  V30 7762 C 713.239 2.86195 -3.4843 0
M  V30 7763 C 711.901 2.82969 -3.89207 0
M  V30 7764 C 714.253 2.73599 -4.43614 0
M  V30 7765 C 711.581 2.64999 -5.23443 0
M  V30 7766 C 713.933 2.57166 -5.77969 0
M  V30 7767 C 712.597 2.52321 -6.17973 0
M  V30 7768 H 711.867 0.595611 -0.440827 0
M  V30 7769 H 714.514 1.01665 -1.62285 0
M  V30 7770 H 712.819 3.62058 -1.49737 0
M  V30 7771 H 714.516 3.54164 -1.88067 0
M  V30 7772 H 711.106 2.8952 -3.16032 0
M  V30 7773 H 715.29 2.7515 -4.13045 0
M  V30 7774 H 710.546 2.5967 -5.53517 0
M  V30 7775 H 714.72 2.46396 -6.51354 0
M  V30 7776 H 712.347 2.38156 -7.21932 0
M  V30 7777 N 713.922 1.13953 1.08869 0
M  V30 7778 C 715.199 0.815768 1.77777 0
M  V30 7779 C 715.579 -0.691624 1.99449 0
M  V30 7780 O 714.927 -1.63085 1.60049 0
M  V30 7781 C 715.137 1.60916 3.09689 0
M  V30 7782 C 716.485 1.80549 3.84301 0
M  V30 7783 O 717.509 1.57562 3.19457 0
M  V30 7784 O 716.368 2.18946 5.00724 0
M  V30 7785 H 713.462 0.298445 0.771271 0
M  V30 7786 H 716.008 1.24446 1.15374 0
M  V30 7787 H 714.78 2.6333 2.89435 0
M  V30 7788 H 714.403 1.17578 3.79817 0
M  V30 7789 N 715.4 -1.26948 0.933913 0
M  V30 7790 C 716.625 -1.98724 0.593589 0
M  V30 7791 C 717.05 -1.6915 -0.822801 0
M  V30 7792 O 716.408 -0.93533 -1.5531 0
M  V30 7793 C 716.456 -3.50834 0.833542 0
M  V30 7794 O 715.56 -4.12284 -0.0978788 0
M  V30 7795 H 714.901 -0.623683 0.227849 0
M  V30 7796 H 717.431 -1.61599 1.25486 0
M  V30 7797 H 717.441 -4.01018 0.75156 0
M  V30 7798 H 716.116 -3.71691 1.86597 0
M  V30 7799 H 714.693 -3.72884 0.0345443 0
M  V30 7800 N 716.879 -0.700114 -1.41195 0
M  V30 7801 C 718.109 -0.241828 -2.0518 0
M  V30 7802 C 718.517 1.1157 -1.52803 0
M  V30 7803 O 717.86 1.70926 -0.673042 0
M  V30 7804 C 717.922 -0.12695 -3.59276 0
M  V30 7805 C 717.586 -1.41725 -4.34469 0
M  V30 7806 C 718.583 -2.35604 -4.63451 0
M  V30 7807 C 716.268 -1.67189 -4.73659 0
M  V30 7808 C 718.262 -3.53204 -5.3059 0
M  V30 7809 C 715.949 -2.85073 -5.40534 0
M  V30 7810 C 716.947 -3.77904 -5.68927 0
M  V30 7811 O 716.635 -4.93723 -6.34424 0
M  V30 7812 H 716.367 -0.109247 -0.667114 0
M  V30 7813 H 718.921 -0.954538 -1.81873 0
M  V30 7814 H 717.151 0.641571 -3.81341 0
M  V30 7815 H 718.84 0.294748 -4.04828 0
M  V30 7816 H 719.606 -2.1719 -4.33651 0
M  V30 7817 H 715.485 -0.957935 -4.50937 0
M  V30 7818 H 719.029 -4.25679 -5.52669 0
M  V30 7819 H 714.926 -3.03402 -5.69752 0
M  V30 7820 H 715.694 -4.93597 -6.5292 0
M  V30 7821 N 718.357 1.51182 -0.445186 0
M  V30 7822 C 719.597 2.04061 0.117717 0
M  V30 7823 C 719.961 1.32158 1.39278 0
M  V30 7824 O 721.162 1.75452 2.03642 0
M  V30 7825 C 719.433 3.55933 0.323445 0
M  V30 7826 S 720.992 4.30516 0.848627 0
M  V30 7827 H 717.81 0.710442 0.028165 0
M  V30 7828 H 720.412 1.85858 -0.606391 0
M  V30 7829 H 719.116 4.0583 -0.610764 0
M  V30 7830 H 718.647 3.78444 1.07441 0
M  V30 7831 H 720.662 4.48382 2.12528 0
M  V30 7832 N 719.835 0.176821 1.56605 0
M  V30 7833 C 720.745 -0.763682 2.21822 0
M  V30 7834 C 721.761 -1.24889 1.21156 0
M  V30 7835 O 722.937 -1.29987 1.53836 0
M  V30 7836 C 720.002 -1.97352 2.8505 0
M  V30 7837 C 719.063 -1.53466 4.00932 0
M  V30 7838 C 718.296 -2.68682 4.61135 0
M  V30 7839 O 718.519 -3.85694 4.20234 0
M  V30 7840 O 717.453 -2.42442 5.50913 0
M  V30 7841 H 721.279 -0.238363 3.02763 0
M  V30 7842 H 718.864 -0.0516331 1.49311 0
M  V30 7843 H 720.746 -2.68096 3.25119 0
M  V30 7844 H 719.421 -2.48779 2.07101 0
M  V30 7845 H 718.328 -0.796551 3.65521 0
M  V30 7846 H 719.661 -1.06724 4.8049 0
M  V30 7847 N 721.313 -1.57302 -0.09688 0
M  V30 7848 C 722.223 -2.05258 -1.13606 0
M  V30 7849 C 723.239 -0.977137 -1.43972 0
M  V30 7850 O 724.415 -1.29018 -1.54649 0
M  V30 7851 C 721.48 -2.46593 -2.43706 0
M  V30 7852 C 720.541 -3.68322 -2.20538 0
M  V30 7853 C 719.774 -4.07676 -3.44435 0
M  V30 7854 O 719.997 -3.47141 -4.52603 0
M  V30 7855 O 718.931 -5.00641 -3.34129 0
M  V30 7856 H 722.757 -2.94069 -0.758752 0
M  V30 7857 H 720.342 -1.46164 -0.309263 0
M  V30 7858 H 722.224 -2.73814 -3.20318 0
M  V30 7859 H 720.899 -1.6092 -2.80867 0
M  V30 7860 H 719.806 -3.4622 -1.41713 0
M  V30 7861 H 721.139 -4.54769 -1.88271 0
M  V30 7862 N 722.791 0.367657 -1.53252 0
M  V30 7863 C 724.016 1.13566 -1.73544 0
M  V30 7864 C 724.441 1.82329 -0.462344 0
M  V30 7865 O 723.799 1.71655 0.583472 0
M  V30 7866 C 723.847 2.14322 -2.89997 0
M  V30 7867 O 722.951 3.21359 -2.58461 0
M  V30 7868 H 722.292 0.329614 -0.576412 0
M  V30 7869 H 724.822 0.425417 -2.00128 0
M  V30 7870 H 724.832 2.57958 -3.16104 0
M  V30 7871 H 723.507 1.63664 -3.82344 0
M  V30 7872 H 722.084 2.8271 -2.43165 0
M  V30 7873 N 724.269 1.44576 0.627338 0
M  V30 7874 C 725.546 1.38033 1.38586 0
M  V30 7875 C 725.926 0.0409468 2.1106 0
M  V30 7876 O 725.274 -0.976582 2.0658 0
M  V30 7877 C 725.484 2.58102 2.34913 0
M  V30 7878 C 726.832 3.02332 2.98129 0
M  V30 7879 O 727.856 2.58334 2.45238 0
M  V30 7880 O 726.715 3.78628 3.94085 0
M  V30 7881 H 723.809 0.546801 0.620434 0
M  V30 7882 H 726.355 1.56672 0.652077 0
M  V30 7883 H 725.127 3.4719 1.80485 0
M  V30 7884 H 724.75 2.41696 3.15703 0
M  V30 7885 N 725.747 -0.868086 1.31537 0
M  V30 7886 C 726.657 -2.00801 1.21311 0
M  V30 7887 C 727.673 -1.73518 0.129431 0
M  V30 7888 O 728.849 -1.98378 0.347588 0
M  V30 7889 C 725.914 -3.3419 0.922935 0
M  V30 7890 C 724.975 -3.74783 2.0937 0
M  V30 7891 C 724.208 -5.01807 1.81728 0
M  V30 7892 O 724.431 -5.65404 0.753313 0
M  V30 7893 O 723.365 -5.39213 2.67457 0
M  V30 7894 H 727.191 -2.12361 2.17109 0
M  V30 7895 H 724.776 -0.996684 1.11295 0
M  V30 7896 H 726.658 -4.14174 0.777033 0
M  V30 7897 H 725.333 -3.237 -0.00500301 0
M  V30 7898 H 724.24 -2.95432 2.29501 0
M  V30 7899 H 725.573 -3.89902 3.00396 0
M  V30 7900 N 727.225 -1.14528 -1.08264 0
M  V30 7901 C 728.135 -0.84728 -2.18765 0
M  V30 7902 C 729.151 0.172826 -1.7314 0
M  V30 7903 O 730.327 0.000985336 -2.014 0
M  V30 7904 C 727.392 -0.330633 -3.4512 0
M  V30 7905 C 726.453 -1.41348 -4.05363 0
M  V30 7906 C 725.686 -0.921387 -5.25686 0
M  V30 7907 O 725.909 0.236587 -5.69909 0
M  V30 7908 O 724.843 -1.70101 -5.77364 0
M  V30 7909 H 728.669 -1.7708 -2.46731 0
M  V30 7910 H 726.254 -0.923661 -1.17426 0
M  V30 7911 H 728.136 -0.0485053 -4.21372 0
M  V30 7912 H 726.811 0.565147 -3.18728 0
M  V30 7913 H 725.718 -1.74908 -3.30693 0
M  V30 7914 H 727.051 -2.28383 -4.36007 0
M  V30 7915 N 728.703 1.26451 -0.940633 0
M  V30 7916 C 729.613 2.30128 -0.455881 0
M  V30 7917 C 730.629 1.67536 0.469867 0
M  V30 7918 O 731.805 1.98344 0.349529 0
M  V30 7919 C 728.87 3.45634 0.271648 0
M  V30 7920 C 727.931 4.23709 -0.690594 0
M  V30 7921 C 727.164 5.337 0.00231047 0
M  V30 7922 O 727.387 5.57215 1.21935 0
M  V30 7923 O 726.321 5.98091 -0.676111 0
M  V30 7924 H 730.147 2.73655 -1.31707 0
M  V30 7925 H 727.732 1.3164 -0.706497 0
M  V30 7926 H 729.614 4.15853 0.681486 0
M  V30 7927 H 728.289 3.04138 1.10824 0
M  V30 7928 H 727.196 3.55974 -1.15037 0
M  V30 7929 H 728.529 4.68953 -1.49478 0
M  V30 7930 N 730.181 0.707592 1.40822 0
M  V30 7931 C 731.091 0.0507246 2.34545 0
M  V30 7932 C 732.107 -0.752727 1.56876 0
M  V30 7933 O 733.283 -0.687524 1.89302 0
M  V30 7934 C 730.348 -0.865731 3.35717 0
M  V30 7935 C 729.409 -0.0531313 4.29267 0
M  V30 7936 C 728.642 -0.925939 5.25606 0
M  V30 7937 O 728.865 -2.16531 5.27703 0
M  V30 7938 O 727.799 -0.369194 6.00767 0
M  V30 7939 H 731.625 0.823587 2.9232 0
M  V30 7940 H 729.21 0.46801 1.4188 0
M  V30 7941 H 731.092 -1.39091 3.97783 0
M  V30 7942 H 729.767 -1.61788 2.80368 0
M  V30 7943 H 728.674 0.516931 3.70511 0
M  V30 7944 H 730.007 0.660617 4.87747 0
M  V30 7945 N 731.66 -1.50943 0.453197 0
M  V30 7946 C 732.57 -2.31884 -0.355963 0
M  V30 7947 C 733.586 -1.41481 -1.01287 0
M  V30 7948 O 734.762 -1.74546 -1.00477 0
M  V30 7949 C 731.827 -3.15668 -1.43369 0
M  V30 7950 C 730.888 -4.2187 -0.795253 0
M  V30 7951 C 730.121 -5.0165 -1.82162 0
M  V30 7952 O 730.344 -4.82266 -3.04592 0
M  V30 7953 O 729.278 -5.85311 -1.40336 0
M  V30 7954 H 733.104 -3.02162 0.305248 0
M  V30 7955 H 730.689 -1.47839 0.215398 0
M  V30 7956 H 732.571 -3.67709 -2.05836 0
M  V30 7957 H 731.246 -2.48137 -2.07869 0
M  V30 7958 H 730.153 -3.73867 -0.132106 0
M  V30 7959 H 731.486 -4.9182 -0.193484 0
M  V30 7960 N 733.138 -0.185124 -1.56509 0
M  V30 7961 C 734.387 0.456421 -1.96468 0
M  V30 7962 C 734.7 1.63448 -1.07444 0
M  V30 7963 O 735.906 2.34316 -1.37143 0
M  V30 7964 C 734.362 0.863404 -3.4939 0
M  V30 7965 C 733.97 -0.289815 -4.47062 0
M  V30 7966 C 735.714 1.47259 -3.98139 0
M  V30 7967 C 733.621 0.137571 -5.9124 0
M  V30 7968 H 732.551 0.17429 -0.733579 0
M  V30 7969 H 735.202 -0.275554 -1.81419 0
M  V30 7970 H 733.584 1.65176 -3.59907 0
M  V30 7971 H 734.758 -1.06728 -4.4827 0
M  V30 7972 H 733.073 -0.809851 -4.08449 0
M  V30 7973 H 735.67 1.80463 -5.03326 0
M  V30 7974 H 736.013 2.3755 -3.41871 0
M  V30 7975 H 736.546 0.748405 -3.90696 0
M  V30 7976 H 733.285 -0.730907 -6.51412 0
M  V30 7977 H 732.805 0.8801 -5.93308 0
M  V30 7978 H 734.484 0.576771 -6.44424 0
M  V30 7979 N 734.616 1.57351 0.0885366 0
M  V30 7980 C 735.579 2.01557 1.09121 0
M  V30 7981 C 736.579 0.910052 1.3257 0
M  V30 7982 O 737.769 1.17537 1.28572 0
M  V30 7983 C 734.901 2.38189 2.43883 0
M  V30 7984 H 736.094 2.91361 0.710562 0
M  V30 7985 H 733.647 1.52694 0.333779 0
M  V30 7986 H 734.382 1.5136 2.86811 0
M  V30 7987 H 734.167 3.18846 2.28209 0
M  V30 7988 H 735.657 2.73025 3.15986 0
M  V30 7989 N 736.094 -0.359525 1.53444 0
M  V30 7990 C 737.024 -1.44662 1.8329 0
M  V30 7991 C 738.005 -1.55617 0.68683 0
M  V30 7992 O 739.19 -1.70086 0.93725 0
M  V30 7993 C 736.32 -2.81923 2.02822 0
M  V30 7994 C 735.274 -2.85787 3.18606 0
M  V30 7995 C 734.6 -4.25781 3.23442 0
M  V30 7996 C 735.9 -2.52762 4.57065 0
M  V30 7997 H 737.594 -1.19934 2.74329 0
M  V30 7998 H 735.14 -0.575517 1.31999 0
M  V30 7999 H 737.093 -3.58005 2.22285 0
M  V30 8000 H 735.817 -3.08051 1.085 0
M  V30 8001 H 734.476 -2.12157 2.98973 0
M  V30 8002 H 734.124 -4.48994 2.26745 0
M  V30 8003 H 733.824 -4.29281 4.01238 0
M  V30 8004 H 735.348 -5.03727 3.45096 0
M  V30 8005 H 736.762 -3.18557 4.76649 0
M  V30 8006 H 735.159 -2.67569 5.37147 0
M  V30 8007 H 736.229 -1.47993 4.61764 0
M  V30 8008 N 737.572 -1.44907 -0.619662 0
M  V30 8009 C 738.482 -1.55168 -1.75955 0
M  V30 8010 C 739.498 -0.43672 -1.6843 0
M  V30 8011 O 740.674 -0.695704 -1.89002 0
M  V30 8012 C 737.739 -1.50397 -3.12381 0
M  V30 8013 C 736.8 -2.72835 -3.31451 0
M  V30 8014 C 736.033 -2.68283 -4.61368 0
M  V30 8015 O 736.256 -1.74929 -5.42914 0
M  V30 8016 O 735.19 -3.59308 -4.82889 0
M  V30 8017 H 739.016 -2.51493 -1.7025 0
M  V30 8018 H 736.601 -1.27282 -0.782289 0
M  V30 8019 H 738.483 -1.50301 -3.93685 0
M  V30 8020 H 737.158 -0.572197 -3.18603 0
M  V30 8021 H 736.065 -2.78496 -2.49781 0
M  V30 8022 H 737.398 -3.65098 -3.30098 0
M  V30 8023 N 739.05 0.861098 -1.31996 0
M  V30 8024 C 740.466 1.14827 -1.10846 0
M  V30 8025 C 740.666 2.0117 0.11528 0
M  V30 8026 O 739.722 2.39423 0.802048 0
M  V30 8027 C 741.035 1.83183 -2.38462 0
M  V30 8028 C 742.583 1.95847 -2.44158 0
M  V30 8029 C 743.058 2.67617 -3.71679 0
M  V30 8030 N 744.549 2.75147 -3.72624 0
M  V30 8031 C 745.284 3.31314 -4.67994 0
M  V30 8032 N 744.78 3.88343 -5.73726 0
M  V30 8033 N 746.573 3.29356 -4.55501 0
M  V30 8034 H 738.724 0.285951 -2.10466 0
M  V30 8035 H 740.987 0.189303 -0.928907 0
M  V30 8036 H 740.693 1.27193 -3.27895 0
M  V30 8037 H 740.567 2.83393 -2.48935 0
M  V30 8038 H 742.954 2.50999 -1.55189 0
M  V30 8039 H 743.035 0.94653 -2.37644 0
M  V30 8040 H 742.679 2.13131 -4.61018 0
M  V30 8041 H 742.609 3.69237 -3.75462 0
M  V30 8042 H 745.1 2.34682 -2.96197 0
M  V30 8043 H 745.413 4.29338 -6.42564 0
M  V30 8044 H 743.758 3.86693 -5.77489 0
M  V30 8045 H 746.949 2.84047 -3.72069 0
M  V30 8046 H 747.122 3.7283 -5.30001 0
M  V30 8047 N 740.528 1.15101 1.07655 0
M  V30 8048 C 741.939 0.933848 1.61667 0
M  V30 8049 C 742.29 -0.525569 1.8903 0
M  V30 8050 O 741.415 -1.39605 1.65346 0
M  V30 8051 C 742.01 1.68876 2.93711 0
M  V30 8052 C 740.569 1.51697 3.44478 0
M  V30 8053 C 739.716 1.70633 2.18586 0
M  V30 8054 H 742.667 1.30171 0.907816 0
M  V30 8055 H 742.688 1.15645 3.625 0
M  V30 8056 H 742.2 2.7509 2.73764 0
M  V30 8057 H 740.301 0.478635 3.69513 0
M  V30 8058 H 740.414 2.29194 4.20722 0
M  V30 8059 H 738.778 1.13259 2.28132 0
M  V30 8060 H 739.561 2.78206 2.01137 0
M  V30 8061 N 742.006 -1.2595 0.947325 0
M  V30 8062 C 742.916 -2.29883 0.468079 0
M  V30 8063 C 743.932 -1.67783 -0.460975 0
M  V30 8064 O 745.108 -1.98526 -0.339006 0
M  V30 8065 C 742.173 -3.45773 -0.253315 0
M  V30 8066 C 741.234 -4.23337 0.713054 0
M  V30 8067 C 740.467 -5.33694 0.025993 0
M  V30 8068 O 740.69 -5.57853 -1.18978 0
M  V30 8069 O 739.624 -5.97724 0.70782 0
M  V30 8070 H 743.45 -2.72952 1.33156 0
M  V30 8071 H 741.035 -1.31263 0.713468 0
M  V30 8072 H 742.917 -4.16209 -0.659423 0
M  V30 8073 H 741.592 -3.04721 -1.09209 0
M  V30 8074 H 740.499 -3.55359 1.16923 0
M  V30 8075 H 741.832 -4.68154 1.51963 0
M  V30 8076 N 743.484 -0.715051 -1.40445 0
M  V30 8077 C 744.431 -0.0621393 -2.30716 0
M  V30 8078 C 745.401 0.750871 -1.48159 0
M  V30 8079 O 746.586 0.714928 -1.76899 0
M  V30 8080 C 743.726 0.854036 -3.34365 0
M  V30 8081 C 742.839 0.0305565 -4.31989 0
M  V30 8082 C 741.974 0.946162 -5.22706 0
M  V30 8083 C 741.013 0.116741 -6.11989 0
M  V30 8084 N 740.15 0.987194 -6.95125 0
M  V30 8085 H 744.99 -0.83764 -2.85985 0
M  V30 8086 H 742.527 -0.424759 -1.40834 0
M  V30 8087 H 744.485 1.39946 -3.93028 0
M  V30 8088 H 743.115 1.59572 -2.806 0
M  V30 8089 H 742.167 -0.632044 -3.75112 0
M  V30 8090 H 743.479 -0.611615 -4.95036 0
M  V30 8091 H 742.633 1.56014 -5.86297 0
M  V30 8092 H 741.372 1.62216 -4.59932 0
M  V30 8093 H 740.377 -0.510176 -5.47428 0
M  V30 8094 H 741.602 -0.555742 -6.76822 0
M  V30 8095 H 739.548 1.64885 -6.3494 0
M  V30 8096 H 739.465 0.401046 -7.54936 0
M  V30 8097 H 740.733 1.58737 -7.63166 0
M  V30 8098 N 744.962 1.50701 -0.461195 0
M  V30 8099 C 745.872 2.32069 0.343661 0
M  V30 8100 C 746.888 1.42016 1.00535 0
M  V30 8101 O 748.064 1.75077 0.995498 0
M  V30 8102 C 745.129 3.16424 1.41692 0
M  V30 8103 C 744.19 4.22286 0.772869 0
M  V30 8104 C 743.423 5.02609 1.79499 0
M  V30 8105 O 743.646 4.83874 3.0203 0
M  V30 8106 O 742.58 5.86047 1.3723 0
M  V30 8107 H 746.406 3.01996 -0.321268 0
M  V30 8108 H 743.991 1.47723 -0.223235 0
M  V30 8109 H 745.873 3.68795 2.03883 0
M  V30 8110 H 744.548 2.49236 2.0655 0
M  V30 8111 H 743.455 3.73931 0.112277 0
M  V30 8112 H 744.788 4.91915 0.167399 0
M  V30 8113 N 746.441 0.193421 1.56409 0
M  V30 8114 C 747.69 -0.445995 1.96707 0
M  V30 8115 C 748.003 -1.62876 1.08309 0
M  V30 8116 O 749.209 -2.33586 1.38383 0
M  V30 8117 C 747.665 -0.844863 3.49843 0
M  V30 8118 C 747.273 0.31352 4.46902 0
M  V30 8119 C 749.017 -1.45146 3.98915 0
M  V30 8120 C 746.924 -0.106214 5.91305 0
M  V30 8121 H 745.854 -0.170398 0.734493 0
M  V30 8122 H 748.505 0.285172 1.81271 0
M  V30 8123 H 746.887 -1.63265 3.60778 0
M  V30 8124 H 748.061 1.09103 4.47698 0
M  V30 8125 H 746.376 0.8315 4.08014 0
M  V30 8126 H 748.973 -1.77792 5.04276 0
M  V30 8127 H 749.316 -2.35734 3.43126 0
M  V30 8128 H 749.849 -0.727675 3.91088 0
M  V30 8129 H 746.588 0.765442 6.51016 0
M  V30 8130 H 746.108 -0.848623 5.93766 0
M  V30 8131 H 747.787 -0.542588 6.44721 0
M  V30 8132 N 747.919 -1.57396 -0.0801906 0
M  V30 8133 C 749.335 -1.53564 -0.434778 0
M  V30 8134 C 749.535 -0.912372 -1.79661 0
M  V30 8135 O 748.591 -0.511268 -2.4727 0
M  V30 8136 C 749.904 -2.98244 -0.383561 0
M  V30 8137 C 751.452 -3.09536 -0.46435 0
M  V30 8138 C 751.927 -4.55851 -0.443128 0
M  V30 8139 N 753.418 -4.60456 -0.503448 0
M  V30 8140 C 754.153 -5.71135 -0.509106 0
M  V30 8141 N 753.649 -6.91203 -0.47008 0
M  V30 8142 N 755.442 -5.59353 -0.555035 0
M  V30 8143 H 747.593 -1.96281 0.811635 0
M  V30 8144 H 749.856 -0.898041 0.303689 0
M  V30 8145 H 749.562 -3.47369 0.550236 0
M  V30 8146 H 749.436 -3.57705 -1.19694 0
M  V30 8147 H 751.823 -2.6039 -1.38857 0
M  V30 8148 H 751.904 -2.53 0.377445 0
M  V30 8149 H 751.548 -5.05653 0.477207 0
M  V30 8150 H 751.478 -5.10242 -1.30234 0
M  V30 8151 H 753.969 -3.74048 -0.538199 0
M  V30 8152 H 754.282 -7.7132 -0.478091 0
M  V30 8153 H 752.627 -6.93625 -0.436897 0
M  V30 8154 H 755.818 -4.64453 -0.583158 0
M  V30 8155 H 755.991 -6.4561 -0.555976 0
M  V30 8156 N 749.397 0.351382 -1.53633 0
M  V30 8157 C 750.345 1.45142 -1.8176 0
M  V30 8158 C 751.339 1.54819 -0.687571 0
M  V30 8159 O 752.545 1.57536 -0.870772 0
M  V30 8160 H 748.92 0.483789 -0.575719 0
M  V30 8161 H 750.891 1.1863 -2.73806 0
M  V30 8162 C 749.64 2.81779 -2.03706 0
M  V30 8163 H 748.963 2.75097 -2.90107 0
M  V30 8164 H 750.403 3.5789 -2.27356 0
M  V30 8165 C 748.862 3.26762 -0.820271 0
M  V30 8166 O 749.392 4.01697 -0.0158603 0
M  V30 8167 N 747.598 2.83472 -0.639699 0
M  V30 8168 H 747.145 2.22655 -1.29547 0
M  V30 8169 H 747.103 3.13924 0.172995 0
M  V30 8170 N 750.875 1.45233 0.611969 0
M  V30 8171 C 751.785 1.56098 1.7513 0
M  V30 8172 C 752.801 0.445646 1.68196 0
M  V30 8173 O 753.977 0.705718 1.88631 0
M  V30 8174 C 751.042 1.52052 3.11579 0
M  V30 8175 C 750.103 2.74589 3.29999 0
M  V30 8176 C 749.336 2.70726 4.59938 0
M  V30 8177 O 749.559 1.77806 5.41979 0
M  V30 8178 O 748.493 3.61864 4.80976 0
M  V30 8179 H 752.319 2.52392 1.68914 0
M  V30 8180 H 749.904 1.27695 0.775528 0
M  V30 8181 H 751.786 1.52387 3.92882 0
M  V30 8182 H 750.461 0.589085 3.18295 0
M  V30 8183 H 749.368 2.79817 2.48301 0
M  V30 8184 H 750.701 3.66843 3.28157 0
M  V30 8185 N 752.353 -0.854086 1.3245 0
M  V30 8186 C 753.601 -1.60513 1.228 0
M  V30 8187 C 753.922 -1.93865 -0.210073 0
M  V30 8188 O 753.192 -1.59673 -1.13496 0
M  V30 8189 H 751.772 -0.595099 0.451516 0
M  V30 8190 H 754.434 -1.0216 1.6598 0
M  V30 8191 H 753.53 -2.54182 1.81102 0
M  V30 8192 N 753.831 -1.1567 -1.07043 0
M  V30 8193 C 755.056 -0.957946 -1.83952 0
M  V30 8194 C 755.481 0.488807 -1.81638 0
M  V30 8195 O 754.839 1.34869 -1.21162 0
M  V30 8196 C 754.887 -1.48064 -3.288 0
M  V30 8197 O 753.991 -0.681921 -4.06723 0
M  V30 8198 H 753.332 -0.341453 -0.569479 0
M  V30 8199 H 755.862 -1.53728 -1.35015 0
M  V30 8200 H 755.872 -1.49484 -3.7963 0
M  V30 8201 H 754.547 -2.53388 -3.29799 0
M  V30 8202 H 753.124 -0.737612 -3.65532 0
M  V30 8203 N 755.309 1.25446 -0.953992 0
M  V30 8204 C 756.241 2.25111 -0.431004 0
M  V30 8205 C 757.254 1.56377 0.452764 0
M  V30 8206 O 758.443 1.76579 0.261144 0
M  V30 8207 C 755.543 3.3655 0.39839 0
M  V30 8208 C 754.716 4.34843 -0.472229 0
M  V30 8209 C 753.775 5.25351 0.29886 0
M  V30 8210 O 752.801 5.68396 -0.302522 0
M  V30 8211 N 754.003 5.5824 1.59211 0
M  V30 8212 H 756.768 2.70619 -1.28785 0
M  V30 8213 H 754.329 1.39346 -0.824281 0
M  V30 8214 H 756.321 3.94059 0.921941 0
M  V30 8215 H 754.891 2.90436 1.15609 0
M  V30 8216 H 754.111 3.76222 -1.17689 0
M  V30 8217 H 755.399 4.97497 -1.06648 0
M  V30 8218 H 754.797 5.25172 2.10264 0
M  V30 8219 H 753.354 6.18336 2.06164 0
M  V30 8220 N 756.787 0.722489 1.40064 0
M  V30 8221 C 758.198 0.336507 1.83642 0
M  V30 8222 C 758.549 -1.13002 1.6039 0
M  V30 8223 O 757.674 -1.87036 1.08842 0
M  V30 8224 C 758.269 0.603985 3.33373 0
M  V30 8225 C 756.828 0.271637 3.75419 0
M  V30 8226 C 755.975 0.872898 2.63203 0
M  V30 8227 H 758.926 0.921108 1.29233 0
M  V30 8228 H 758.947 -0.128471 3.80283 0
M  V30 8229 H 758.459 1.67141 3.50265 0
M  V30 8230 H 756.56 -0.790455 3.64119 0
M  V30 8231 H 756.673 0.745457 4.73265 0
M  V30 8232 H 755.037 0.300431 2.52922 0
M  V30 8233 H 755.82 1.94473 2.82905 0
M  V30 8234 N 758.265 -1.50454 0.469181 0
M  V30 8235 C 759.228 -2.2703 -0.314643 0
M  V30 8236 C 760.228 -1.31734 -0.922111 0
M  V30 8237 O 761.418 -1.55176 -0.791588 0
M  V30 8238 C 758.55 -3.08616 -1.44806 0
M  V30 8239 H 759.743 -2.97769 0.356892 0
M  V30 8240 H 757.296 -1.54698 0.223191 0
M  V30 8241 H 758.031 -2.42369 -2.1547 0
M  V30 8242 H 757.816 -3.78647 -1.01829 0
M  V30 8243 H 759.306 -3.66536 -2.00103 0
M  V30 8244 N 759.743 -0.201713 -1.56304 0
M  V30 8245 C 760.973 0.440084 -2.01858 0
M  V30 8246 C 761.381 1.55279 -1.08098 0
M  V30 8247 O 760.724 1.83529 -0.0792216 0
M  V30 8248 C 760.786 1.05091 -3.43797 0
M  V30 8249 C 760.45 0.0761208 -4.56937 0
M  V30 8250 C 761.447 -0.716951 -5.14933 0
M  V30 8251 C 759.132 -0.0368815 -5.02286 0
M  V30 8252 C 761.126 -1.60993 -6.16733 0
M  V30 8253 C 758.813 -0.933409 -6.03929 0
M  V30 8254 C 759.811 -1.71849 -6.61027 0
M  V30 8255 O 759.499 -2.59998 -7.60695 0
M  V30 8256 H 759.231 0.114139 -0.666294 0
M  V30 8257 H 761.785 -0.309672 -2.03052 0
M  V30 8258 H 760.015 1.84938 -3.3961 0
M  V30 8259 H 761.704 1.59804 -3.73118 0
M  V30 8260 H 762.47 -0.63999 -4.80759 0
M  V30 8261 H 758.349 0.564034 -4.57537 0
M  V30 8262 H 761.893 -2.22315 -6.61227 0
M  V30 8263 H 757.79 -1.01146 -6.37526 0
M  V30 8264 H 758.558 -2.53851 -7.7814 0
M  V30 8265 N 761.222 1.57436 0.0718424 0
M  V30 8266 C 762.638 1.53792 0.426628 0
M  V30 8267 C 762.838 0.921887 1.79174 0
M  V30 8268 O 761.894 0.524374 2.46995 0
M  V30 8269 C 763.207 2.98443 0.367739 0
M  V30 8270 C 764.755 3.09778 0.447928 0
M  V30 8271 C 765.23 4.5608 0.418946 0
M  V30 8272 N 766.721 4.60716 0.479022 0
M  V30 8273 C 767.456 5.71397 0.47881 0
M  V30 8274 N 766.952 6.91443 0.433417 0
M  V30 8275 N 768.745 5.59639 0.525364 0
M  V30 8276 H 760.896 1.95848 -0.822033 0
M  V30 8277 H 763.159 0.896418 -0.308447 0
M  V30 8278 H 762.865 3.47072 -0.56865 0
M  V30 8279 H 762.739 3.58335 1.17795 0
M  V30 8280 H 765.126 2.61122 1.37474 0
M  V30 8281 H 765.207 2.52796 -0.390857 0
M  V30 8282 H 764.851 5.05393 -0.504016 0
M  V30 8283 H 764.781 5.10925 1.27526 0
M  V30 8284 H 767.272 3.74328 0.518355 0
M  V30 8285 H 767.585 7.71562 0.43718 0
M  V30 8286 H 765.93 6.93847 0.400106 0
M  V30 8287 H 769.121 4.64756 0.558519 0
M  V30 8288 H 769.294 6.45896 0.52173 0
M  V30 8289 N 762.7 -0.34323 1.53817 0
M  V30 8290 C 763.928 -1.10348 1.75017 0
M  V30 8291 C 764.343 -1.82345 0.489475 0
M  V30 8292 O 763.7 -1.74362 -0.538886 0
M  V30 8293 C 763.751 -2.11672 2.93048 0
M  V30 8294 O 763.472 -1.42603 4.14241 0
M  V30 8295 C 764.973 -3.0007 3.26301 0
M  V30 8296 H 762.193 -0.329056 0.584776 0
M  V30 8297 H 764.737 -0.395339 2.00642 0
M  V30 8298 H 762.892 -2.78051 2.69753 0
M  V30 8299 H 763.306 -2.10294 4.80496 0
M  V30 8300 H 764.78 -3.67101 4.12239 0
M  V30 8301 H 765.257 -3.66105 2.42618 0
M  V30 8302 H 765.863 -2.3928 3.51604 0
M  V30 8303 N 764.178 -1.45556 -0.604258 0
M  V30 8304 C 765.126 -1.5482 -1.7359 0
M  V30 8305 C 766.12 -0.417966 -1.64163 0
M  V30 8306 O 767.326 -0.594007 -1.69916 0
M  V30 8307 H 763.701 -0.486352 -0.573556 0
M  V30 8308 H 765.672 -2.5001 -1.62903 0
M  V30 8309 C 764.421 -1.53521 -3.11972 0
M  V30 8310 H 763.744 -2.39818 -3.19886 0
M  V30 8311 H 765.184 -1.64061 -3.90973 0
M  V30 8312 C 763.643 -0.260191 -3.35894 0
M  V30 8313 O 764.173 0.658582 -3.96265 0
M  V30 8314 N 762.379 -0.154839 -2.90187 0
M  V30 8315 H 761.926 -0.903378 -2.4124 0
M  V30 8316 H 761.884 0.697437 -3.06567 0
M  V30 8317 N 765.656 0.84705 -1.32902 0
M  V30 8318 C 766.588 1.96308 -1.18304 0
M  V30 8319 C 767.601 1.62386 -0.116082 0
M  V30 8320 O 768.79 1.74713 -0.365751 0
M  V30 8321 C 765.89 3.29556 -0.790305 0
M  V30 8322 C 765.063 3.91668 -1.94717 0
M  V30 8323 C 764.122 5.0326 -1.53674 0
M  V30 8324 O 763.148 5.22847 -2.24989 0
M  V30 8325 N 764.35 5.78852 -0.437075 0
M  V30 8326 H 767.115 2.09369 -2.14441 0
M  V30 8327 H 764.676 1.02233 -1.25539 0
M  V30 8328 H 766.668 4.01624 -0.49799 0
M  V30 8329 H 765.238 3.12497 0.0801286 0
M  V30 8330 H 764.458 3.12292 -2.40557 0
M  V30 8331 H 765.746 4.299 -2.72146 0
M  V30 8332 H 765.144 5.65484 0.156316 0
M  V30 8333 H 763.701 6.51479 -0.204399 0
M  V30 8334 N 767.134 1.16236 1.06428 0
M  V30 8335 C 768.066 0.825446 2.1382 0
M  V30 8336 C 769.079 -0.166707 1.61944 0
M  V30 8337 O 770.268 0.0578606 1.78406 0
M  V30 8338 C 767.368 0.208023 3.38261 0
M  V30 8339 C 766.541 1.23994 4.19457 0
M  V30 8340 C 765.6 0.642569 5.22262 0
M  V30 8341 O 764.626 1.31106 5.53895 0
M  V30 8342 N 765.828 -0.571327 5.77682 0
M  V30 8343 H 768.593 1.7497 2.43322 0
M  V30 8344 H 766.154 1.05951 1.22417 0
M  V30 8345 H 768.146 -0.204608 4.04182 0
M  V30 8346 H 766.716 -0.619752 3.06395 0
M  V30 8347 H 765.936 1.82879 3.49212 0
M  V30 8348 H 767.224 1.93638 4.70512 0
M  V30 8349 H 766.622 -1.13263 5.54245 0
M  V30 8350 H 765.179 -0.926187 6.45186 0
M  V30 8351 N 768.612 -1.24939 0.960631 0
M  V30 8352 C 769.889 -1.88118 0.535807 0
M  V30 8353 C 770.269 -1.86605 -0.987009 0
M  V30 8354 O 769.617 -1.33375 -1.85536 0
M  V30 8355 C 769.827 -3.30565 1.11927 0
M  V30 8356 C 771.175 -4.07296 1.19981 0
M  V30 8357 O 772.199 -3.39709 1.07126 0
M  V30 8358 O 771.058 -5.28206 1.40218 0
M  V30 8359 H 768.152 -0.807698 0.177631 0
M  V30 8360 H 770.698 -1.32964 1.05445 0
M  V30 8361 H 769.47 -3.26128 2.16231 0
M  V30 8362 H 769.093 -3.93284 0.584245 0
M  V30 8363 N 770.09 -0.729906 -1.39679 0
M  V30 8364 C 771.315 -0.284345 -2.05442 0
M  V30 8365 C 771.74 1.07056 -1.54663 0
M  V30 8366 O 771.098 1.67732 -0.688157 0
M  V30 8367 C 771.146 -0.290089 -3.59431 0
M  V30 8368 O 770.25 0.723978 -4.05995 0
M  V30 8369 H 769.591 -0.130311 -0.651088 0
M  V30 8370 H 772.121 -0.994403 -1.78809 0
M  V30 8371 H 772.131 -0.132712 -4.07784 0
M  V30 8372 H 770.806 -1.27877 -3.95753 0
M  V30 8373 H 769.383 0.533154 -3.69069 0
M  V30 8374 N 771.568 1.50203 -0.477153 0
M  V30 8375 C 772.845 1.95115 0.137609 0
M  V30 8376 C 773.225 1.41778 1.56404 0
M  V30 8377 O 772.573 0.621333 2.1989 0
M  V30 8378 C 772.783 3.4892 0.0747168 0
M  V30 8379 C 774.131 4.238 0.260585 0
M  V30 8380 O 775.155 3.5588 0.151021 0
M  V30 8381 O 774.014 5.44366 0.482534 0
M  V30 8382 H 771.108 0.81987 0.108364 0
M  V30 8383 H 773.654 1.60946 -0.537989 0
M  V30 8384 H 772.426 3.80308 -0.920966 0
M  V30 8385 H 772.049 3.89642 0.791509 0
M  V30 8386 N 773.046 0.209999 1.56195 0
M  V30 8387 C 774.295 -0.425106 1.97169 0
M  V30 8388 C 774.608 -1.61718 1.10031 0
M  V30 8389 O 775.814 -2.32105 1.40853 0
M  V30 8390 C 774.27 -0.80771 3.50719 0
M  V30 8391 C 773.878 0.360902 4.46544 0
M  V30 8392 C 775.622 -1.40906 4.00432 0
M  V30 8393 C 773.529 -0.0434919 5.91384 0
M  V30 8394 H 772.459 -0.162598 0.736259 0
M  V30 8395 H 775.11 0.304382 1.80958 0
M  V30 8396 H 773.492 -1.59429 3.62489 0
M  V30 8397 H 774.666 1.13846 4.46515 0
M  V30 8398 H 772.981 0.874729 4.07109 0
M  V30 8399 H 775.578 -1.72433 5.06133 0
M  V30 8400 H 775.921 -2.32081 3.45607 0
M  V30 8401 H 776.454 -0.686154 3.91838 0
M  V30 8402 H 773.193 0.834448 6.50167 0
M  V30 8403 H 772.713 -0.785598 5.94633 0
M  V30 8404 H 774.392 -0.474176 6.4526 0
M  V30 8405 N 774.524 -1.57472 -0.0634922 0
M  V30 8406 C 775.434 -2.07621 -1.09227 0
M  V30 8407 C 776.45 -1.00746 -1.41867 0
M  V30 8408 O 777.626 -1.32269 -1.51878 0
M  V30 8409 C 774.691 -2.51707 -2.38421 0
M  V30 8410 C 773.752 -3.72917 -2.12676 0
M  V30 8411 C 772.985 -4.14891 -3.3571 0
M  V30 8412 O 773.208 -3.56663 -4.45137 0
M  V30 8413 O 772.142 -5.07616 -3.23434 0
M  V30 8414 H 775.968 -2.95612 -0.696205 0
M  V30 8415 H 773.553 -1.46787 -0.27819 0
M  V30 8416 H 775.435 -2.80547 -3.14438 0
M  V30 8417 H 774.11 -1.66842 -2.77391 0
M  V30 8418 H 773.017 -3.49148 -1.34337 0
M  V30 8419 H 774.35 -4.5866 -1.78583 0
M  V30 8420 N 776.003 0.335068 -1.53997 0
M  V30 8421 C 776.966 1.39481 -1.81872 0
M  V30 8422 C 777.966 1.4524 -0.690078 0
M  V30 8423 O 779.156 1.45467 -0.958377 0
M  V30 8424 C 776.288 2.78329 -1.9684 0
M  V30 8425 H 777.481 1.16024 -2.76547 0
M  V30 8426 H 775.034 0.569926 -1.45539 0
M  V30 8427 H 775.769 3.07058 -1.04337 0
M  V30 8428 H 775.554 2.75544 -2.78958 0
M  V30 8429 H 777.044 3.55016 -2.19894 0
M  V30 8430 N 777.481 1.45874 0.596531 0
M  V30 8431 C 778.411 1.5824 1.71705 0
M  V30 8432 C 779.392 0.433366 1.64487 0
M  V30 8433 O 780.577 0.657895 1.82717 0
M  V30 8434 C 777.707 1.55927 3.10329 0
M  V30 8435 C 776.661 2.69659 3.32367 0
M  V30 8436 C 775.987 2.52403 4.71377 0
M  V30 8437 C 777.287 4.11591 3.21544 0
M  V30 8438 H 778.981 2.52035 1.61613 0
M  V30 8439 H 776.527 1.21297 0.776082 0
M  V30 8440 H 778.48 1.63173 3.88526 0
M  V30 8441 H 777.204 0.586674 3.21288 0
M  V30 8442 H 775.863 2.61859 2.56564 0
M  V30 8443 H 775.511 1.53258 4.79083 0
M  V30 8444 H 775.211 3.28679 4.87077 0
M  V30 8445 H 776.735 2.6152 5.5176 0
M  V30 8446 H 778.149 4.20576 3.89601 0
M  V30 8447 H 776.546 4.88344 3.4877 0
M  V30 8448 H 777.616 4.32719 2.1882 0
M  V30 8449 N 778.959 -0.83999 1.33349 0
M  V30 8450 C 779.922 -1.93128 1.23426 0
M  V30 8451 C 780.922 -1.60065 0.153599 0
M  V30 8452 O 782.112 -1.69425 0.405049 0
M  V30 8453 C 779.244 -3.28761 0.901622 0
M  V30 8454 H 780.437 -2.03352 2.20427 0
M  V30 8455 H 777.99 -1.03194 1.17391 0
M  V30 8456 H 778.725 -3.24233 -0.0659337 0
M  V30 8457 H 778.51 -3.54138 1.68311 0
M  V30 8458 H 780 -4.08714 0.856913 0
M  V30 8459 N 780.437 -1.16799 -1.0581 0
M  V30 8460 C 781.853 -0.913935 -1.30841 0
M  V30 8461 C 782.053 0.430439 -1.96849 0
M  V30 8462 O 781.109 1.16885 -2.23817 0
M  V30 8463 C 782.422 -2.06662 -2.18429 0
M  V30 8464 C 783.97 -2.10294 -2.31831 0
M  V30 8465 C 784.445 -3.2493 -3.22776 0
M  V30 8466 N 785.936 -3.24678 -3.30361 0
M  V30 8467 C 786.671 -4.10021 -4.00837 0
M  V30 8468 N 786.167 -5.05461 -4.73795 0
M  V30 8469 N 787.96 -3.97991 -3.96937 0
M  V30 8470 H 780.111 -2.03343 -0.613613 0
M  V30 8471 H 782.374 -0.88754 -0.333133 0
M  V30 8472 H 782.08 -3.03791 -1.77211 0
M  V30 8473 H 781.954 -2.01233 -3.19038 0
M  V30 8474 H 784.341 -1.13754 -2.72294 0
M  V30 8475 H 784.422 -2.19786 -1.30873 0
M  V30 8476 H 784.066 -4.21731 -2.83028 0
M  V30 8477 H 783.996 -3.12674 -4.23725 0
M  V30 8478 H 786.487 -2.55573 -2.78372 0
M  V30 8479 H 786.8 -5.66989 -5.25113 0
M  V30 8480 H 785.145 -5.09436 -4.72758 0
M  V30 8481 H 788.336 -3.2273 -3.39062 0
M  V30 8482 H 788.509 -4.64722 -4.51594 0
M  V30 8483 N 781.915 1.24427 -0.967243 0
M  V30 8484 C 783.155 1.9423 -0.636723 0
M  V30 8485 C 783.519 1.73939 0.812971 0
M  V30 8486 O 784.72 2.37773 1.25369 0
M  V30 8487 C 782.991 3.43105 -1.00067 0
M  V30 8488 S 784.55 4.31728 -0.784633 0
M  V30 8489 H 781.368 0.671527 -0.233607 0
M  V30 8490 H 783.97 1.50806 -1.2441 0
M  V30 8491 H 782.674 3.5538 -2.05264 0
M  V30 8492 H 782.205 3.91521 -0.384054 0
M  V30 8493 H 784.22 4.95046 0.338244 0
M  V30 8494 N 783.393 0.737304 1.3929 0
M  V30 8495 C 784.323 0.113988 2.33222 0
M  V30 8496 C 785.304 -0.721695 1.54031 0
M  V30 8497 O 786.489 -0.666206 1.82415 0
M  V30 8498 C 783.619 -0.792319 3.38141 0
M  V30 8499 C 782.573 -0.0606178 4.27957 0
M  V30 8500 C 781.899 -1.08409 5.23595 0
M  V30 8501 C 783.199 1.09817 5.10625 0
M  V30 8502 H 784.893 0.898611 2.85596 0
M  V30 8503 H 782.439 0.433571 1.37318 0
M  V30 8504 H 784.392 -1.23793 4.02807 0
M  V30 8505 H 783.116 -1.60908 2.84211 0
M  V30 8506 H 781.775 0.365393 3.64775 0
M  V30 8507 H 781.423 -1.89449 4.6596 0
M  V30 8508 H 781.123 -0.599269 5.84536 0
M  V30 8509 H 782.647 -1.52936 5.91137 0
M  V30 8510 H 784.061 0.730892 5.68622 0
M  V30 8511 H 782.458 1.51278 5.80719 0
M  V30 8512 H 783.528 1.91878 4.45321 0
M  V30 8513 N 784.871 -1.49948 0.485112 0
M  V30 8514 C 785.781 -2.32587 -0.306697 0
M  V30 8515 C 786.797 -1.43598 -0.982632 0
M  V30 8516 O 787.973 -1.76638 -0.967519 0
M  V30 8517 C 785.038 -3.18638 -1.3664 0
M  V30 8518 C 784.099 -4.23462 -0.705589 0
M  V30 8519 C 783.332 -5.05401 -1.7148 0
M  V30 8520 O 783.555 -4.88618 -2.94293 0
M  V30 8521 O 782.489 -5.88157 -1.27889 0
M  V30 8522 H 786.315 -3.01447 0.369272 0
M  V30 8523 H 783.9 -1.47349 0.246709 0
M  V30 8524 H 785.782 -3.71992 -1.9799 0
M  V30 8525 H 784.457 -2.52491 -2.02559 0
M  V30 8526 H 783.364 -3.74063 -0.0527733 0
M  V30 8527 H 784.697 -4.92119 -0.0891187 0
M  V30 8528 N 786.349 -0.21828 -1.56081 0
M  V30 8529 C 787.297 0.709679 -2.21509 0
M  V30 8530 C 788.291 1.20221 -1.19346 0
M  V30 8531 O 789.497 1.16241 -1.37433 0
M  V30 8532 H 785.872 0.247271 -0.710184 0
M  V30 8533 H 787.843 0.134386 -2.98097 0
M  V30 8534 C 786.592 1.90853 -2.90638 0
M  V30 8535 H 785.915 1.53865 -3.69006 0
M  V30 8536 H 787.355 2.53568 -3.39822 0
M  V30 8537 C 785.814 2.76189 -1.92929 0
M  V30 8538 O 786.344 3.74842 -1.44416 0
M  V30 8539 N 784.55 2.42157 -1.6065 0
M  V30 8540 H 784.097 1.61987 -2.00294 0
M  V30 8541 H 784.055 2.99534 -0.955347 0
M  V30 8542 N 787.827 1.57504 0.0551401 0
M  V30 8543 C 789.073 1.88334 0.752216 0
M  V30 8544 C 789.406 0.812742 1.76375 0
M  V30 8545 O 788.681 -0.175198 1.93709 0
M  V30 8546 C 788.964 3.29824 1.44528 0
M  V30 8547 C 788.817 4.47553 0.449026 0
M  V30 8548 C 790.136 3.69808 2.38601 0
M  V30 8549 H 787.255 0.684973 0.271995 0
M  V30 8550 H 789.897 1.89994 0.0151895 0
M  V30 8551 H 788.047 3.28539 2.07351 0
M  V30 8552 H 789.719 4.60967 -0.175277 0
M  V30 8553 H 787.962 4.33168 -0.234162 0
M  V30 8554 H 788.633 5.43376 0.971917 0
M  V30 8555 H 791.109 3.72293 1.85842 0
M  V30 8556 H 789.985 4.69665 2.84088 0
M  V30 8557 H 790.246 3.00641 3.24141 0
M  V30 8558 N 789.305 -0.326896 1.54172 0
M  V30 8559 C 790.235 -1.40741 1.86317 0
M  V30 8560 C 791.216 -1.54125 0.719684 0
M  V30 8561 O 792.401 -1.6806 0.973117 0
M  V30 8562 C 789.531 -2.77557 2.08757 0
M  V30 8563 C 788.485 -2.78965 3.24596 0
M  V30 8564 C 787.811 -4.18824 3.32401 0
M  V30 8565 C 789.111 -2.4301 4.62324 0
M  V30 8566 H 790.805 -1.14088 2.76811 0
M  V30 8567 H 788.351 -0.547389 1.3319 0
M  V30 8568 H 790.304 -3.53209 2.29829 0
M  V30 8569 H 789.028 -3.0568 1.15009 0
M  V30 8570 H 787.687 -2.05767 3.03406 0
M  V30 8571 H 787.335 -4.44083 2.36218 0
M  V30 8572 H 787.035 -4.20673 4.10253 0
M  V30 8573 H 788.559 -4.96294 3.55703 0
M  V30 8574 H 789.973 -3.08375 4.83299 0
M  V30 8575 H 788.37 -2.56116 5.42701 0
M  V30 8576 H 789.44 -1.38165 4.64799 0
M  V30 8577 N 790.784 -1.46188 -0.588786 0
M  V30 8578 C 792.032 -1.50885 -1.34455 0
M  V30 8579 C 792.353 -0.159555 -1.94346 0
M  V30 8580 O 791.623 0.813239 -1.78222 0
M  V30 8581 H 790.203 -0.555707 -0.499198 0
M  V30 8582 H 792.865 -1.82277 -0.690014 0
M  V30 8583 H 791.961 -2.25816 -2.15438 0
M  V30 8584 N 792.262 0.832906 -1.33792 0
M  V30 8585 C 793.502 1.60217 -1.26925 0
M  V30 8586 C 793.866 1.91323 0.161146 0
M  V30 8587 O 795.067 2.66461 0.353864 0
M  V30 8588 C 793.338 2.87314 -2.12568 0
M  V30 8589 S 794.897 3.77939 -2.22952 0
M  V30 8590 H 791.715 0.549273 -0.451464 0
M  V30 8591 H 794.317 0.984648 -1.68893 0
M  V30 8592 H 793.021 2.62444 -3.15518 0
M  V30 8593 H 792.552 3.5407 -1.71459 0
M  V30 8594 H 794.567 4.76188 -1.39496 0
M  V30 8595 N 793.74 1.17359 1.05189 0
M  V30 8596 C 794.968 0.986529 1.81866 0
M  V30 8597 C 795.383 -0.46522 1.82979 0
M  V30 8598 O 794.74 -1.32305 1.25705 0
M  V30 8599 C 794.791 1.52021 3.27982 0
M  V30 8600 O 794.512 2.91511 3.27037 0
M  V30 8601 C 796.013 1.37774 4.21347 0
M  V30 8602 H 793.233 0.349021 0.573084 0
M  V30 8603 H 795.777 1.55648 1.32643 0
M  V30 8604 H 793.932 0.992287 3.74476 0
M  V30 8605 H 794.346 3.16178 4.18488 0
M  V30 8606 H 795.82 1.7993 5.21852 0
M  V30 8607 H 796.297 0.32483 4.37997 0
M  V30 8608 H 796.903 1.89583 3.80708 0
M  V30 8609 N 795.218 -1.23913 0.973828 0
M  V30 8610 C 796.443 -1.96735 0.656511 0
M  V30 8611 C 796.868 -1.71682 -0.768571 0
M  V30 8612 O 796.226 -0.984267 -1.52256 0
M  V30 8613 C 796.274 -3.48004 0.944735 0
M  V30 8614 O 795.378 -4.12387 0.0333357 0
M  V30 8615 H 794.719 -0.616119 0.247575 0
M  V30 8616 H 797.249 -1.57525 1.30564 0
M  V30 8617 H 797.259 -3.98424 0.87876 0
M  V30 8618 H 795.934 -3.65567 1.98328 0
M  V30 8619 H 794.511 -3.72585 0.153157 0
M  V30 8620 N 796.696 -0.74468 -1.38897 0
M  V30 8621 C 797.626 -0.126355 -2.33158 0
M  V30 8622 C 798.607 0.713517 -1.54412 0
M  V30 8623 O 799.792 0.656523 -1.82766 0
M  V30 8624 C 796.922 0.774375 -3.38557 0
M  V30 8625 C 795.876 0.0379214 -4.27983 0
M  V30 8626 C 795.202 1.05631 -5.24162 0
M  V30 8627 C 796.502 -1.12523 -5.10035 0
M  V30 8628 H 798.196 -0.913744 -2.85116 0
M  V30 8629 H 795.742 -0.440847 -1.37086 0
M  V30 8630 H 797.695 1.21655 -4.03458 0
M  V30 8631 H 796.419 1.59399 -2.85061 0
M  V30 8632 H 795.078 -0.384733 -3.64576 0
M  V30 8633 H 794.726 1.86975 -4.66958 0
M  V30 8634 H 794.426 0.568261 -5.84846 0
M  V30 8635 H 795.95 1.49799 -5.9194 0
M  V30 8636 H 797.364 -0.761037 -5.68226 0
M  V30 8637 H 795.761 -1.54355 -5.79909 0
M  V30 8638 H 796.831 -1.94237 -4.44297 0
M  V30 8639 N 798.174 1.49689 -0.493057 0
M  V30 8640 C 799.451 1.9525 0.116907 0
M  V30 8641 C 799.831 1.43429 1.54892 0
M  V30 8642 O 799.179 0.644621 2.19219 0
M  V30 8643 C 799.389 3.4898 0.037705 0
M  V30 8644 C 800.737 4.24052 0.215621 0
M  V30 8645 O 801.761 3.5602 0.113266 0
M  V30 8646 O 800.62 5.44847 0.42477 0
M  V30 8647 H 797.714 0.820973 0.099662 0
M  V30 8648 H 800.26 1.60367 -0.555029 0
M  V30 8649 H 799.032 3.79309 -0.961251 0
M  V30 8650 H 798.655 3.9046 0.750137 0
M  V30 8651 N 799.652 0.226554 1.55963 0
M  V30 8652 C 800.88 -0.408507 2.02827 0
M  V30 8653 C 801.295 -1.52994 1.10627 0
M  V30 8654 O 800.652 -1.82126 0.116809 0
M  V30 8655 C 800.703 -0.93545 3.49187 0
M  V30 8656 O 800.424 0.141273 4.37872 0
M  V30 8657 C 801.925 -1.64325 4.11719 0
M  V30 8658 H 799.145 -0.099442 0.66359 0
M  V30 8659 H 801.689 0.344471 2.01578 0
M  V30 8660 H 799.844 -1.63868 3.51036 0
M  V30 8661 H 800.258 -0.25558 5.23877 0
M  V30 8662 H 801.732 -1.9639 5.15883 0
M  V30 8663 H 802.209 -2.55815 3.57009 0
M  V30 8664 H 802.815 -0.9851 4.13734 0
M  V30 8665 N 801.13 -1.57531 -0.0467866 0
M  V30 8666 C 802.077 -2.05387 -1.05285 0
M  V30 8667 C 803.047 -0.939385 -1.36985 0
M  V30 8668 O 804.232 -1.20877 -1.47626 0
M  V30 8669 C 801.372 -2.52343 -2.35408 0
M  V30 8670 C 800.485 -3.77512 -2.10022 0
M  V30 8671 C 799.62 -4.1315 -3.33887 0
M  V30 8672 C 798.659 -5.31286 -3.03976 0
M  V30 8673 N 797.796 -5.62441 -4.20243 0
M  V30 8674 H 802.636 -2.91095 -0.637788 0
M  V30 8675 H 800.173 -1.43939 -0.303322 0
M  V30 8676 H 802.131 -2.77628 -3.11413 0
M  V30 8677 H 800.761 -1.69577 -2.7467 0
M  V30 8678 H 799.813 -3.59417 -1.24594 0
M  V30 8679 H 801.125 -4.63644 -1.83945 0
M  V30 8680 H 800.279 -4.39469 -4.18273 0
M  V30 8681 H 799.018 -3.25634 -3.63062 0
M  V30 8682 H 798.023 -5.04738 -2.17991 0
M  V30 8683 H 799.248 -6.20441 -2.76098 0
M  V30 8684 H 797.194 -4.77885 -4.49402 0
M  V30 8685 H 797.111 -6.43046 -3.97528 0
M  V30 8686 H 798.379 -5.93327 -5.05553 0
M  V30 8687 N 802.608 0.318715 -1.54344 0
M  V30 8688 C 803.836 1.0755 -1.7675 0
M  V30 8689 C 804.251 1.81543 -0.518422 0
M  V30 8690 O 803.608 1.75198 0.511078 0
M  V30 8691 C 803.659 2.06983 -2.96378 0
M  V30 8692 O 803.38 1.35995 -4.16458 0
M  V30 8693 C 804.881 2.94841 -3.31034 0
M  V30 8694 H 802.101 0.319711 -0.589937 0
M  V30 8695 H 804.645 0.363369 -2.01246 0
M  V30 8696 H 802.8 2.73724 -2.74142 0
M  V30 8697 H 803.214 2.02623 -4.83781 0
M  V30 8698 H 804.688 3.60496 -4.18027 0
M  V30 8699 H 805.165 3.62199 -2.48412 0
M  V30 8700 H 805.771 2.33656 -3.55366 0
M  V30 8701 N 804.086 1.46499 0.581025 0
M  V30 8702 C 805.335 1.51162 1.3354 0
M  V30 8703 C 805.648 0.168433 1.94873 0
M  V30 8704 O 806.854 0.092883 2.71341 0
M  V30 8705 C 805.31 2.66362 2.42032 0
M  V30 8706 C 804.918 4.07109 1.86994 0
M  V30 8707 C 806.662 2.80297 3.188 0
M  V30 8708 C 804.569 5.13645 2.93125 0
M  V30 8709 H 803.499 0.562576 0.502021 0
M  V30 8710 H 806.15 1.72713 0.619863 0
M  V30 8711 H 804.532 2.38143 3.16392 0
M  V30 8712 H 805.706 4.45125 1.19166 0
M  V30 8713 H 804.021 3.97854 1.22887 0
M  V30 8714 H 806.618 3.5706 3.9801 0
M  V30 8715 H 806.961 1.87875 3.71495 0
M  V30 8716 H 807.494 3.0817 2.51547 0
M  V30 8717 H 804.233 6.07866 2.45315 0
M  V30 8718 H 803.753 4.80172 3.59437 0
M  V30 8719 H 805.432 5.39562 3.57046 0
M  V30 8720 N 805.565 -0.825799 1.34232 0
M  V30 8721 C 806.793 -1.61363 1.29497 0
M  V30 8722 C 807.208 -1.88341 -0.131536 0
M  V30 8723 O 806.565 -1.47279 -1.07773 0
M  V30 8724 C 806.616 -2.95623 2.08061 0
M  V30 8725 O 806.337 -2.69824 3.45147 0
M  V30 8726 C 807.838 -3.90032 2.10688 0
M  V30 8727 H 805.058 -0.501676 0.445603 0
M  V30 8728 H 807.602 -1.02767 1.76803 0
M  V30 8729 H 805.757 -3.50785 1.64404 0
M  V30 8730 H 806.171 -3.55412 3.85723 0
M  V30 8731 H 807.645 -4.81411 2.70087 0
M  V30 8732 H 808.122 -4.25188 1.10052 0
M  V30 8733 H 808.728 -3.40807 2.54422 0
M  V30 8734 N 807.043 -1.17915 -1.04565 0
M  V30 8735 C 808.271 -0.99616 -1.8134 0
M  V30 8736 C 808.686 0.455509 -1.83223 0
M  V30 8737 O 808.043 1.31636 -1.26405 0
M  V30 8738 C 808.094 -1.53758 -3.27171 0
M  V30 8739 O 807.815 -2.93241 -3.25486 0
M  V30 8740 C 809.316 -1.40007 -4.2061 0
M  V30 8741 H 806.536 -0.352055 -0.571225 0
M  V30 8742 H 809.08 -1.56349 -1.31815 0
M  V30 8743 H 807.235 -1.01213 -3.73945 0
M  V30 8744 H 807.649 -3.18392 -4.16805 0
M  V30 8745 H 809.123 -1.82695 -5.2089 0
M  V30 8746 H 809.6 -0.348054 -4.37819 0
M  V30 8747 H 810.206 -1.916 -3.79697 0
M  V30 8748 N 808.521 1.23394 -0.980386 0
M  V30 8749 C 809.454 2.23404 -0.465404 0
M  V30 8750 C 810.432 1.55735 0.467471 0
M  V30 8751 O 811.616 1.84295 0.395921 0
M  V30 8752 C 808.743 3.3712 0.32672 0
M  V30 8753 C 807.789 4.22935 -0.550296 0
M  V30 8754 S 808.622 4.96824 -1.99814 0
M  V30 8755 C 809.778 6.13991 -1.21516 0
M  V30 8756 H 810.011 2.6674 -1.31289 0
M  V30 8757 H 807.544 1.32874 -0.78638 0
M  V30 8758 H 809.502 4.03065 0.777738 0
M  V30 8759 H 808.163 2.92317 1.14933 0
M  V30 8760 H 807.356 5.03966 0.0585298 0
M  V30 8761 H 806.958 3.62058 -0.937558 0
M  V30 8762 H 809.25 6.75822 -0.476476 0
M  V30 8763 H 810.193 6.7926 -2.0003 0
M  V30 8764 H 810.601 5.59708 -0.733949 0
M  V30 8765 N 809.999 0.752036 1.385 0
M  V30 8766 C 810.962 0.131587 2.28822 0
M  V30 8767 C 811.962 -0.649149 1.47115 0
M  V30 8768 O 813.152 -0.475645 1.67581 0
M  V30 8769 C 810.284 -0.822101 3.30839 0
M  V30 8770 H 811.477 0.927551 2.85196 0
M  V30 8771 H 809.03 0.518945 1.47434 0
M  V30 8772 H 809.765 -1.6438 2.79553 0
M  V30 8773 H 809.55 -0.264689 3.91206 0
M  V30 8774 H 811.04 -1.25226 3.98382 0
M  V30 8775 N 811.477 -1.49425 0.500989 0
M  V30 8776 C 812.387 -2.32899 -0.282011 0
M  V30 8777 C 813.403 -1.44632 -0.967346 0
M  V30 8778 O 814.579 -1.77654 -0.94873 0
M  V30 8779 C 811.644 -3.20069 -1.33253 0
M  V30 8780 C 810.705 -4.24186 -0.660636 0
M  V30 8781 C 809.938 -5.07191 -1.6611 0
M  V30 8782 O 810.161 -4.91712 -2.89094 0
M  V30 8783 O 809.095 -5.8948 -1.21643 0
M  V30 8784 H 812.921 -3.01038 0.401224 0
M  V30 8785 H 810.506 -1.47079 0.262323 0
M  V30 8786 H 812.388 -3.74071 -1.94033 0
M  V30 8787 H 811.063 -2.54625 -1.9987 0
M  V30 8788 H 809.97 -3.74098 -0.0130959 0
M  V30 8789 H 811.303 -4.92186 -0.0369179 0
M  V30 8790 N 812.955 -0.234822 -1.55841 0
M  V30 8791 C 814.232 0.442961 -1.90518 0
M  V30 8792 C 814.612 1.76768 -1.15397 0
M  V30 8793 O 813.96 2.26928 -0.267534 0
M  V30 8794 C 814.17 0.622905 -3.43396 0
M  V30 8795 C 815.518 0.9243 -4.14417 0
M  V30 8796 O 816.542 0.709211 -3.49068 0
M  V30 8797 O 815.401 1.33323 -5.29988 0
M  V30 8798 H 812.495 0.236042 -0.792599 0
M  V30 8799 H 815.041 -0.277992 -1.67408 0
M  V30 8800 H 813.813 -0.310973 -3.90062 0
M  V30 8801 H 813.436 1.39485 -3.7233 0
M  V30 8802 N 814.433 1.57553 0.0384317 0
M  V30 8803 C 815.366 2.01307 1.07475 0
M  V30 8804 C 816.344 0.895717 1.35704 0
M  V30 8805 O 817.528 1.16079 1.48519 0
M  V30 8806 C 814.655 2.37817 2.41165 0
M  V30 8807 C 813.701 3.599 2.28855 0
M  V30 8808 S 814.534 5.09418 1.65086 0
M  V30 8809 C 815.69 5.49162 3.00286 0
M  V30 8810 H 815.923 2.88892 0.702034 0
M  V30 8811 H 813.456 1.52394 0.248103 0
M  V30 8812 H 815.414 2.59524 3.18053 0
M  V30 8813 H 814.075 1.507 2.75587 0
M  V30 8814 H 813.268 3.83071 3.27525 0
M  V30 8815 H 812.87 3.37996 1.60109 0
M  V30 8816 H 815.162 5.49274 3.96617 0
M  V30 8817 H 816.105 6.49586 2.81858 0
M  V30 8818 H 816.513 4.76653 3.02427 0
M  V30 8819 N 815.911 -0.310526 1.54511 0
M  V30 8820 C 817.136 -1.07046 1.7764 0
M  V30 8821 C 817.561 -1.80488 0.529696 0
M  V30 8822 O 816.919 -1.73702 -0.519361 0
M  V30 8823 C 816.967 -2.03411 2.97752 0
M  V30 8824 O 816.071 -3.11545 2.7021 0
M  V30 8825 H 815.412 -0.307994 0.588248 0
M  V30 8826 H 817.942 -0.350848 2.01569 0
M  V30 8827 H 817.952 -2.46048 3.2546 0
M  V30 8828 H 816.627 -1.49361 3.88155 0
M  V30 8829 H 815.204 -2.7349 2.53491 0
M  V30 8830 N 817.389 -1.46805 -0.573248 0
M  V30 8831 C 818.8 -1.46655 -1.15539 0
M  V30 8832 C 819.151 -0.2125 -1.95046 0
M  V30 8833 O 818.276 0.683759 -2.05314 0
M  V30 8834 C 818.871 -2.65711 -2.10198 0
M  V30 8835 C 817.43 -2.68572 -2.63716 0
M  V30 8836 C 816.577 -2.39498 -1.39772 0
M  V30 8837 H 819.528 -1.54547 -0.36068 0
M  V30 8838 H 819.549 -2.41768 -2.93817 0
M  V30 8839 H 819.061 -3.56967 -1.52303 0
M  V30 8840 H 817.162 -1.81414 -3.25453 0
M  V30 8841 H 817.275 -3.68809 -3.05805 0
M  V30 8842 H 815.639 -1.89749 -1.69904 0
M  V30 8843 H 816.422 -3.32942 -0.836943 0
M  V30 8844 N 818.867 0.818669 -1.34668 0
M  V30 8845 C 820.115 1.57201 -1.27013 0
M  V30 8846 C 820.436 1.94354 0.158599 0
M  V30 8847 O 819.706 1.62626 1.09223 0
M  V30 8848 H 818.286 0.582919 -0.467135 0
M  V30 8849 H 820.948 0.977234 -1.6863 0
M  V30 8850 H 820.044 2.49291 -1.87778 0
M  V30 8851 N 820.346 1.18468 1.03938 0
M  V30 8852 C 821.757 0.984808 1.58614 0
M  V30 8853 C 822.108 -0.465165 1.90606 0
M  V30 8854 O 821.233 -1.34274 1.69704 0
M  V30 8855 C 821.828 1.78135 2.8819 0
M  V30 8856 C 820.387 1.62579 3.39478 0
M  V30 8857 C 819.534 1.77501 2.13046 0
M  V30 8858 H 822.485 1.32993 0.865944 0
M  V30 8859 H 822.506 1.27119 3.58638 0
M  V30 8860 H 822.018 2.83661 2.64874 0
M  V30 8861 H 820.119 0.59595 3.67803 0
M  V30 8862 H 820.232 2.42463 4.13217 0
M  V30 8863 H 818.596 1.2046 2.24414 0
M  V30 8864 H 819.379 2.84464 1.92185 0
M  V30 8865 N 821.824 -1.22873 0.986916 0
M  V30 8866 C 823.235 -1.73264 0.695438 0
M  V30 8867 C 823.586 -1.79679 -0.788023 0
M  V30 8868 O 822.711 -1.43905 -1.61618 0
M  V30 8869 C 823.306 -3.14671 1.2557 0
M  V30 8870 C 821.865 -3.62492 1.01373 0
M  V30 8871 C 821.012 -2.40551 1.37951 0
M  V30 8872 H 823.963 -1.08304 1.15999 0
M  V30 8873 H 823.984 -3.75226 0.631322 0
M  V30 8874 H 823.496 -3.0997 2.33539 0
M  V30 8875 H 821.597 -3.72567 -0.0495917 0
M  V30 8876 H 821.71 -4.48944 1.67289 0
M  V30 8877 H 820.074 -2.41875 0.798033 0
M  V30 8878 H 820.857 -2.38516 2.46911 0
M  V30 8879 N 823.302 -0.75937 -1.38099 0
M  V30 8880 C 824.551 -0.314864 -1.99227 0
M  V30 8881 C 824.864 1.1113 -1.60964 0
M  V30 8882 O 826.07 1.65657 -2.15105 0
M  V30 8883 C 824.526 -0.512001 -3.56239 0
M  V30 8884 C 824.134 -1.94762 -4.0345 0
M  V30 8885 C 825.878 -0.130497 -4.24299 0
M  V30 8886 C 823.785 -2.09301 -5.53125 0
M  V30 8887 H 822.715 -0.113978 -0.745335 0
M  V30 8888 H 825.366 -0.936736 -1.57789 0
M  V30 8889 H 823.748 0.179144 -3.95595 0
M  V30 8890 H 824.922 -2.67271 -3.75371 0
M  V30 8891 H 823.237 -2.28457 -3.48133 0
M  V30 8892 H 825.834 -0.21781 -5.34256 0
M  V30 8893 H 826.177 0.917644 -4.0606 0
M  V30 8894 H 826.71 -0.773716 -3.90203 0
M  V30 8895 H 823.449 -3.1239 -5.76275 0
M  V30 8896 H 822.969 -1.41261 -5.82928 0
M  V30 8897 H 824.648 -1.88571 -6.1891 0
M  V30 8898 N 824.78 1.49157 -0.508906 0
M  V30 8899 C 826.027 2.02473 0.0327983 0
M  V30 8900 C 826.355 1.38792 1.36261 0
M  V30 8901 O 825.61 0.515576 1.88786 0
M  V30 8902 C 825.909 3.56687 0.225717 0
M  V30 8903 C 825.575 4.39046 -1.02708 0
M  V30 8904 C 824.237 4.61271 -1.37048 0
M  V30 8905 C 826.589 4.86902 -1.85946 0
M  V30 8906 C 823.917 5.28598 -2.54562 0
M  V30 8907 C 826.269 5.55521 -3.0262 0
M  V30 8908 C 824.933 5.7599 -3.3733 0
M  V30 8909 H 824.203 0.740903 0.0120017 0
M  V30 8910 H 826.85 1.79372 -0.670665 0
M  V30 8911 H 825.155 3.78511 1.01177 0
M  V30 8912 H 826.852 3.95541 0.659433 0
M  V30 8913 H 823.442 4.21994 -0.749615 0
M  V30 8914 H 827.626 4.69553 -1.6073 0
M  V30 8915 H 822.882 5.42646 -2.81682 0
M  V30 8916 H 827.056 5.91576 -3.67438 0
M  V30 8917 H 824.683 6.27934 -4.2849 0
M  V30 8918 N 826.258 0.243083 1.55714 0
M  V30 8919 C 827.206 -0.674349 2.2261 0
M  V30 8920 C 828.2 -1.18307 1.21243 0
M  V30 8921 O 829.406 -1.1404 1.39265 0
M  V30 8922 H 825.781 -0.235941 0.714028 0
M  V30 8923 H 827.752 -0.0869446 2.98273 0
M  V30 8924 C 826.501 -1.86206 2.93637 0
M  V30 8925 H 825.824 -1.47975 3.71407 0
M  V30 8926 H 827.264 -2.4813 3.43813 0
M  V30 8927 C 825.723 -2.73084 1.97298 0
M  V30 8928 O 826.253 -3.72497 1.50361 0
M  V30 8929 N 824.459 -2.39571 1.64482 0
M  V30 8930 H 824.006 -1.5878 2.02846 0
M  V30 8931 H 823.964 -2.97976 1.00288 0
M  V30 8932 N 827.736 -1.57571 -0.0300757 0
M  V30 8933 C 828.961 -1.93879 -0.736601 0
M  V30 8934 C 829.386 -0.842998 -1.68152 0
M  V30 8935 O 828.744 0.20135 -1.80178 0
M  V30 8936 C 828.792 -3.29247 -1.47066 0
M  V30 8937 O 827.896 -3.21426 -2.58378 0
M  V30 8938 H 827.237 -0.633735 -0.198181 0
M  V30 8939 H 829.767 -2.04595 0.0141485 0
M  V30 8940 H 829.777 -3.64113 -1.84081 0
M  V30 8941 H 828.452 -4.08565 -0.77764 0
M  V30 8942 H 827.029 -2.98189 -2.23914 0
M  V30 8943 N 829.214 0.302327 -1.54673 0
M  V30 8944 C 830.46 1.03924 -1.74149 0
M  V30 8945 C 830.793 1.86968 -0.525041 0
M  V30 8946 O 830.068 1.88538 0.477868 0
M  V30 8947 C 830.351 1.94633 -3.02969 0
M  V30 8948 C 830.204 1.14778 -4.34909 0
M  V30 8949 C 831.523 2.93826 -3.27649 0
M  V30 8950 H 828.642 0.376405 -0.633631 0
M  V30 8951 H 831.284 0.314007 -1.87387 0
M  V30 8952 H 829.434 2.56471 -2.91813 0
M  V30 8953 H 831.106 0.552363 -4.57981 0
M  V30 8954 H 829.349 0.450462 -4.31455 0
M  V30 8955 H 830.02 1.81495 -5.21309 0
M  V30 8956 H 832.496 2.42117 -3.38406 0
M  V30 8957 H 831.372 3.54462 -4.19104 0
M  V30 8958 H 831.633 3.67416 -2.45882 0
M  V30 8959 N 830.692 1.47107 0.565454 0
M  V30 8960 C 831.625 1.53505 1.68853 0
M  V30 8961 C 832.603 0.387806 1.57908 0
M  V30 8962 O 833.787 0.594433 1.78882 0
M  V30 8963 C 830.914 1.42985 3.07039 0
M  V30 8964 C 829.96 2.62109 3.36454 0
M  V30 8965 S 830.793 4.2436 3.26617 0
M  V30 8966 C 831.949 4.16378 4.67312 0
M  V30 8967 H 832.182 2.48522 1.63169 0
M  V30 8968 H 829.715 1.35204 0.745609 0
M  V30 8969 H 831.673 1.37602 3.8675 0
M  V30 8970 H 830.334 0.493671 3.10196 0
M  V30 8971 H 829.527 2.50788 4.37174 0
M  V30 8972 H 829.129 2.64571 2.64345 0
M  V30 8973 H 831.421 3.84123 5.58082 0
M  V30 8974 H 832.364 5.17156 4.83689 0
M  V30 8975 H 832.772 3.47363 4.44971 0
M  V30 8976 N 832.17 -0.811516 1.35101 0
M  V30 8977 C 833.133 -1.90467 1.27495 0
M  V30 8978 C 834.133 -1.59703 0.187516 0
M  V30 8979 O 835.323 -1.68528 0.440896 0
M  V30 8980 C 832.455 -3.26774 0.971154 0
M  V30 8981 H 833.648 -1.98631 2.2469 0
M  V30 8982 H 831.201 -1.00681 1.19553 0
M  V30 8983 H 831.936 -3.243 0.0028557 0
M  V30 8984 H 831.721 -3.50488 1.75785 0
M  V30 8985 H 833.211 -4.06804 0.943414 0
M  V30 8986 N 833.648 -1.19017 -1.03309 0
M  V30 8987 C 835.064 -0.941483 -1.28873 0
M  V30 8988 C 835.264 0.388587 -1.97718 0
M  V30 8989 O 834.32 1.12111 -2.26246 0
M  V30 8990 C 835.633 -2.11249 -2.13996 0
M  V30 8991 C 837.181 -2.15164 -2.27318 0
M  V30 8992 C 837.656 -3.31704 -3.15811 0
M  V30 8993 N 839.147 -3.31613 -3.23399 0
M  V30 8994 C 839.882 -4.18431 -3.9205 0
M  V30 8995 N 839.378 -5.15397 -4.62966 0
M  V30 8996 N 841.171 -4.06321 -3.88406 0
M  V30 8997 H 833.322 -2.04599 -0.570343 0
M  V30 8998 H 835.585 -0.894406 -0.314232 0
M  V30 8999 H 835.291 -3.07482 -1.70727 0
M  V30 9000 H 835.165 -2.07955 -3.14697 0
M  V30 9001 H 837.552 -1.19504 -2.6982 0
M  V30 9002 H 837.633 -2.22513 -1.26182 0
M  V30 9003 H 837.277 -4.2764 -2.74019 0
M  V30 9004 H 837.207 -3.21592 -4.16997 0
M  V30 9005 H 839.698 -2.6142 -2.72888 0
M  V30 9006 H 840.011 -5.78 -5.12968 0
M  V30 9007 H 838.356 -5.19349 -4.61846 0
M  V30 9008 H 841.547 -3.29849 -3.3214 0
M  V30 9009 H 841.72 -4.74196 -4.41635 0
M  V30 9010 N 835.127 1.22348 -0.993418 0
M  V30 9011 C 836.355 1.95125 -0.688021 0
M  V30 9012 C 836.77 1.73377 0.747388 0
M  V30 9013 O 836.127 1.03317 1.50439 0
M  V30 9014 C 836.178 3.47819 -0.985097 0
M  V30 9015 O 835.899 3.68838 -2.3641 0
M  V30 9016 C 837.4 4.37779 -0.697474 0
M  V30 9017 H 834.62 0.62087 -0.254481 0
M  V30 9018 H 837.164 1.55485 -1.32833 0
M  V30 9019 H 835.319 3.85426 -0.390583 0
M  V30 9020 H 835.733 4.63032 -2.46377 0
M  V30 9021 H 837.207 5.43666 -0.955604 0
M  V30 9022 H 837.684 4.37651 0.368524 0
M  V30 9023 H 838.29 4.05799 -1.27306 0
M  V30 9024 N 836.605 0.766683 1.37694 0
M  V30 9025 C 837.552 0.147725 2.30327 0
M  V30 9026 C 838.522 -0.695366 1.50844 0
M  V30 9027 O 839.707 -0.64878 1.79431 0
M  V30 9028 C 836.847 -0.72935 3.37305 0
M  V30 9029 C 835.96 0.129795 4.31805 0
M  V30 9030 C 835.095 -0.751511 5.25857 0
M  V30 9031 C 834.134 0.110475 6.12 0
M  V30 9032 N 833.271 -0.728522 6.9831 0
M  V30 9033 H 838.111 0.943204 2.82679 0
M  V30 9034 H 835.648 0.476736 1.3916 0
M  V30 9035 H 837.606 -1.25263 3.97951 0
M  V30 9036 H 836.236 -1.49048 2.86329 0
M  V30 9037 H 835.288 0.770829 3.72508 0
M  V30 9038 H 836.6 0.794923 4.92425 0
M  V30 9039 H 835.754 -1.34146 5.91684 0
M  V30 9040 H 834.493 -1.45034 4.65636 0
M  V30 9041 H 833.498 0.712999 5.45157 0
M  V30 9042 H 834.723 0.806557 6.74293 0
M  V30 9043 H 832.669 -1.41206 6.40622 0
M  V30 9044 H 832.586 -0.12058 7.55904 0
M  V30 9045 H 833.854 -1.30303 7.68532 0
M  V30 9046 N 838.083 -1.48885 0.516809 0
M  V30 9047 C 839.016 -2.26218 -0.30011 0
M  V30 9048 C 839.994 -1.31491 -0.956496 0
M  V30 9049 O 841.178 -1.6081 -0.983488 0
M  V30 9050 C 838.305 -3.07315 -1.42392 0
M  V30 9051 C 837.351 -4.17316 -0.880295 0
M  V30 9052 S 838.184 -5.34955 0.24146 0
M  V30 9053 C 839.34 -6.1961 -0.885138 0
M  V30 9054 H 839.573 -2.95158 0.356217 0
M  V30 9055 H 837.106 -1.5141 0.302365 0
M  V30 9056 H 839.064 -3.54619 -2.06775 0
M  V30 9057 H 837.725 -2.37813 -2.05192 0
M  V30 9058 H 836.918 -4.73635 -1.72297 0
M  V30 9059 H 836.52 -3.72685 -0.313396 0
M  V30 9060 H 838.812 -6.53513 -1.78682 0
M  V30 9061 H 839.755 -7.07183 -0.360226 0
M  V30 9062 H 840.163 -5.52461 -1.1596 0
M  V30 9063 N 839.561 -0.251338 -1.55583 0
M  V30 9064 C 840.508 0.646337 -2.21565 0
M  V30 9065 C 841.478 1.16796 -1.18102 0
M  V30 9066 O 842.663 1.22162 -1.46564 0
M  V30 9067 C 839.803 1.83557 -2.92234 0
M  V30 9068 C 838.916 1.35006 -4.10363 0
M  V30 9069 C 838.051 2.4992 -4.68736 0
M  V30 9070 C 837.09 1.98253 -5.79105 0
M  V30 9071 N 836.227 3.06551 -6.31642 0
M  V30 9072 H 841.067 0.0769881 -2.97901 0
M  V30 9073 H 838.604 0.026238 -1.47077 0
M  V30 9074 H 840.562 2.53425 -3.31408 0
M  V30 9075 H 839.192 2.37733 -2.18364 0
M  V30 9076 H 838.244 0.545274 -3.76472 0
M  V30 9077 H 839.556 0.931435 -4.90026 0
M  V30 9078 H 838.71 3.27823 -5.10507 0
M  V30 9079 H 837.449 2.95086 -3.88298 0
M  V30 9080 H 836.454 1.18822 -5.36807 0
M  V30 9081 H 837.679 1.54051 -6.61396 0
M  V30 9082 H 835.625 3.51143 -5.54107 0
M  V30 9083 H 835.542 2.69033 -7.06511 0
M  V30 9084 H 836.81 3.84499 -6.78071 0
M  V30 9085 N 841.039 1.57585 0.0217189 0
M  V30 9086 C 842.455 1.55072 0.377484 0
M  V30 9087 C 842.655 0.978423 1.76151 0
M  V30 9088 O 841.711 0.602688 2.45202 0
M  V30 9089 C 843.024 2.99462 0.272605 0
M  V30 9090 C 844.572 3.11047 0.349148 0
M  V30 9091 C 845.047 4.57182 0.273636 0
M  V30 9092 N 846.538 4.62007 0.332206 0
M  V30 9093 C 847.273 5.72631 0.296782 0
M  V30 9094 N 846.769 6.92472 0.21322 0
M  V30 9095 N 848.562 5.61028 0.347053 0
M  V30 9096 H 840.713 1.93133 -0.883925 0
M  V30 9097 H 842.976 0.886151 -0.33681 0
M  V30 9098 H 842.682 3.45088 -0.67878 0
M  V30 9099 H 842.556 3.61901 1.06335 0
M  V30 9100 H 844.943 2.65364 1.29097 0
M  V30 9101 H 845.024 2.51425 -0.471085 0
M  V30 9102 H 844.668 5.03534 -0.664548 0
M  V30 9103 H 844.598 5.14724 1.11207 0
M  V30 9104 H 847.089 3.75788 0.399003 0
M  V30 9105 H 847.402 7.72563 0.191492 0
M  V30 9106 H 845.747 6.94769 0.179161 0
M  V30 9107 H 848.938 4.66298 0.410378 0
M  V30 9108 H 849.111 6.47229 0.315979 0
M  V30 9109 N 842.517 -0.29412 1.54831 0
M  V30 9110 C 843.45 -1.38779 1.81151 0
M  V30 9111 C 844.428 -1.48464 0.663124 0
M  V30 9112 O 845.612 -1.65418 0.903835 0
M  V30 9113 C 842.739 -2.76627 1.95436 0
M  V30 9114 C 841.785 -2.84333 3.17895 0
M  V30 9115 S 842.618 -2.45726 4.75793 0
M  V30 9116 C 843.774 -3.85589 4.93023 0
M  V30 9117 H 844.007 -1.16246 2.73631 0
M  V30 9118 H 841.54 -0.492611 1.46331 0
M  V30 9119 H 843.498 -3.56021 2.04351 0
M  V30 9120 H 842.159 -2.96425 1.03881 0
M  V30 9121 H 841.352 -3.85457 3.24713 0
M  V30 9122 H 840.954 -2.1294 3.07461 0
M  V30 9123 H 843.246 -4.80656 4.77468 0
M  V30 9124 H 844.189 -3.83737 5.95107 0
M  V30 9125 H 844.597 -3.75911 4.21131 0
M  V30 9126 N 843.995 -1.47404 -0.557645 0
M  V30 9127 C 845.411 -1.32913 -0.88353 0
M  V30 9128 C 845.611 -0.31929 -1.98954 0
M  V30 9129 O 844.667 0.26934 -2.51059 0
M  V30 9130 C 845.98 -2.72229 -1.27718 0
M  V30 9131 C 847.528 -2.8051 -1.38863 0
M  V30 9132 C 848.003 -4.20466 -1.81583 0
M  V30 9133 N 849.494 -4.23005 -1.88735 0
M  V30 9134 C 850.229 -5.2821 -2.23118 0
M  V30 9135 N 849.725 -6.4372 -2.56117 0
M  V30 9136 N 851.518 -5.15588 -2.23888 0
M  V30 9137 H 843.669 -2.11698 0.172557 0
M  V30 9138 H 845.932 -0.947889 0.0145334 0
M  V30 9139 H 845.638 -3.47556 -0.538329 0
M  V30 9140 H 845.512 -3.03971 -2.23342 0
M  V30 9141 H 847.899 -2.05457 -2.11829 0
M  V30 9142 H 847.98 -2.52423 -0.414274 0
M  V30 9143 H 847.624 -4.96025 -1.09187 0
M  V30 9144 H 847.554 -4.45977 -2.80021 0
M  V30 9145 H 850.045 -3.39674 -1.65621 0
M  V30 9146 H 850.358 -7.19754 -2.81378 0
M  V30 9147 H 848.703 -6.47041 -2.53698 0
M  V30 9148 H 851.894 -4.24374 -1.97546 0
M  V30 9149 H 852.067 -5.97685 -2.50353 0
M  V30 9150 N 845.473 0.80434 -1.35529 0
M  V30 9151 C 846.383 1.94784 -1.30753 0
M  V30 9152 C 847.399 1.72703 -0.212071 0
M  V30 9153 O 848.575 1.96494 -0.441841 0
M  V30 9154 C 845.64 3.29406 -1.08133 0
M  V30 9155 C 844.701 3.64367 -2.27013 0
M  V30 9156 C 843.934 4.92566 -2.05463 0
M  V30 9157 O 844.157 5.61166 -1.02222 0
M  V30 9158 O 843.091 5.25838 -2.92879 0
M  V30 9159 H 846.917 2.01761 -2.26994 0
M  V30 9160 H 844.502 0.942448 -1.15924 0
M  V30 9161 H 846.384 4.09995 -0.973756 0
M  V30 9162 H 845.059 3.23355 -0.149444 0
M  V30 9163 H 843.966 2.84146 -2.43335 0
M  V30 9164 H 845.299 3.75125 -3.18656 0
M  V30 9165 N 846.951 1.19563 1.02676 0
M  V30 9166 C 848.176 1.02556 1.80269 0
M  V30 9167 C 848.601 -0.421056 1.83327 0
M  V30 9168 O 847.959 -1.30279 1.26084 0
M  V30 9169 C 848.007 1.60165 3.23078 0
M  V30 9170 O 847.111 0.832404 4.03912 0
M  V30 9171 H 846.452 0.362354 0.556413 0
M  V30 9172 H 848.982 1.58633 1.29216 0
M  V30 9173 H 848.992 1.6347 3.7382 0
M  V30 9174 H 847.667 2.65454 3.20167 0
M  V30 9175 H 846.244 0.872768 3.62543 0
M  V30 9176 N 848.429 -1.21819 0.999893 0
M  V30 9177 C 849.392 -2.22227 0.561044 0
M  V30 9178 C 850.392 -1.56722 -0.359858 0
M  V30 9179 O 851.582 -1.73546 -0.150848 0
M  V30 9180 C 848.714 -3.40409 -0.182987 0
M  V30 9181 H 849.907 -2.62567 1.44909 0
M  V30 9182 H 847.46 -1.34991 0.78785 0
M  V30 9183 H 848.195 -3.05551 -1.08671 0
M  V30 9184 H 847.98 -3.89171 0.47833 0
M  V30 9185 H 849.47 -4.14856 -0.477952 0
M  V30 9186 N 849.908 -0.773975 -1.37286 0
M  V30 9187 C 850.841 -0.108019 -2.27944 0
M  V30 9188 C 851.819 0.706737 -1.46438 0
M  V30 9189 O 853.003 0.681025 -1.75768 0
M  V30 9190 C 850.13 0.853199 -3.27778 0
M  V30 9191 C 849.176 0.122164 -4.26325 0
M  V30 9192 S 850.009 -1.19136 -5.22079 0
M  V30 9193 C 851.165 -0.233737 -6.25463 0
M  V30 9194 H 851.398 -0.876743 -2.84078 0
M  V30 9195 H 848.931 -0.567468 -1.43594 0
M  V30 9196 H 850.889 1.40238 -3.85803 0
M  V30 9197 H 849.55 1.59505 -2.70586 0
M  V30 9198 H 848.743 0.850926 -4.96765 0
M  V30 9199 H 848.345 -0.356079 -3.72301 0
M  V30 9200 H 850.637 0.59305 -6.74899 0
M  V30 9201 H 851.58 -0.906373 -7.02275 0
M  V30 9202 H 851.988 0.156048 -5.64284 0
M  V30 9203 N 851.386 1.48609 -0.524698 0
M  V30 9204 C 852.318 2.27508 0.278 0
M  V30 9205 C 853.331 1.35042 0.909258 0
M  V30 9206 O 854.52 1.60136 0.788592 0
M  V30 9207 C 851.62 3.08247 1.40843 0
M  V30 9208 C 850.793 4.28455 0.880083 0
M  V30 9209 C 849.852 4.91048 1.891 0
M  V30 9210 O 848.878 5.5042 1.45005 0
M  V30 9211 N 850.08 4.82816 3.22288 0
M  V30 9212 H 852.845 2.97037 -0.398642 0
M  V30 9213 H 850.406 1.57876 -0.358698 0
M  V30 9214 H 852.398 3.46992 2.08276 0
M  V30 9215 H 850.968 2.41173 1.98883 0
M  V30 9216 H 850.188 3.94189 0.0299228 0
M  V30 9217 H 851.476 5.06279 0.505881 0
M  V30 9218 H 850.874 4.3572 3.60783 0
M  V30 9219 H 849.431 5.25676 3.85368 0
M  V30 9220 N 852.864 0.259585 1.55447 0
M  V30 9221 C 853.811 -0.634578 2.21905 0
M  V30 9222 C 854.781 -1.16168 1.18719 0
M  V30 9223 O 855.966 -1.21383 1.4721 0
M  V30 9224 C 853.106 -1.82005 2.93203 0
M  V30 9225 C 852.219 -1.32828 4.11073 0
M  V30 9226 C 851.354 -2.47431 4.70055 0
M  V30 9227 C 850.393 -1.95179 5.80148 0
M  V30 9228 N 849.53 -3.03197 6.33258 0
M  V30 9229 H 854.37 -0.0611886 2.97937 0
M  V30 9230 H 851.907 -0.0184378 1.47088 0
M  V30 9231 H 853.865 -2.51664 3.32748 0
M  V30 9232 H 852.495 -2.36571 2.19622 0
M  V30 9233 H 851.547 -0.525301 3.76756 0
M  V30 9234 H 852.859 -0.905435 4.90513 0
M  V30 9235 H 852.013 -3.25111 5.12238 0
M  V30 9236 H 850.752 -2.93023 3.89857 0
M  V30 9237 H 849.757 -1.15974 5.37429 0
M  V30 9238 H 850.982 -1.50541 6.62204 0
M  V30 9239 H 848.928 -3.48199 5.55961 0
M  V30 9240 H 848.845 -2.65282 7.07928 0
M  V30 9241 H 850.113 -3.80898 6.80101 0
M  V30 9242 N 854.342 -1.57594 -0.0133615 0
M  V30 9243 C 855.272 -2.10611 -1.00823 0
M  V30 9244 C 856.253 -1.01217 -1.36708 0
M  V30 9245 O 857.438 -1.28827 -1.45318 0
M  V30 9246 C 854.568 -2.59844 -2.30431 0
M  V30 9247 C 853.522 -3.73644 -2.08745 0
M  V30 9248 C 852.848 -4.09141 -3.4425 0
M  V30 9249 C 854.148 -5.01454 -1.46086 0
M  V30 9250 H 855.842 -2.93985 -0.566849 0
M  V30 9251 H 853.388 -1.41423 -0.271219 0
M  V30 9252 H 855.341 -2.95557 -3.00373 0
M  V30 9253 H 854.065 -1.73573 -2.76658 0
M  V30 9254 H 852.724 -3.38303 -1.41232 0
M  V30 9255 H 852.372 -3.19914 -3.88155 0
M  V30 9256 H 852.072 -4.85802 -3.3056 0
M  V30 9257 H 853.596 -4.47402 -4.15528 0
M  V30 9258 H 855.01 -5.35024 -2.05966 0
M  V30 9259 H 853.407 -5.82832 -1.42924 0
M  V30 9260 H 854.477 -4.83003 -0.428471 0
M  V30 9261 N 855.82 0.285905 -1.54985 0
M  V30 9262 C 857.068 1.01718 -1.74636 0
M  V30 9263 C 857.389 1.87277 -0.543342 0
M  V30 9264 O 856.659 1.90847 0.442078 0
M  V30 9265 H 855.239 0.378549 -0.643979 0
M  V30 9266 H 857.901 0.313247 -1.92366 0
M  V30 9267 H 856.997 1.66159 -2.64192 0
M  V30 9268 N 857.298 1.47698 0.54982 0
M  V30 9269 C 858.526 1.5833 1.33188 0
M  V30 9270 C 858.941 0.236193 1.87317 0
M  V30 9271 O 858.298 -0.77167 1.65383 0
M  V30 9272 C 858.349 2.61438 2.49664 0
M  V30 9273 O 858.07 3.9092 1.97771 0
M  V30 9274 C 859.571 2.82324 3.41772 0
M  V30 9275 H 856.791 0.53443 0.405741 0
M  V30 9276 H 859.335 1.93375 0.665309 0
M  V30 9277 H 857.49 2.29307 3.12245 0
M  V30 9278 H 857.904 4.47323 2.73866 0
M  V30 9279 H 859.378 3.58316 4.19897 0
M  V30 9280 H 859.855 1.90416 3.95776 0
M  V30 9281 H 860.461 3.15682 2.85 0
M  V30 9282 N 858.776 -0.797141 1.35954 0
M  V30 9283 C 859.686 -1.94088 1.31784 0
M  V30 9284 C 860.702 -1.72588 0.221227 0
M  V30 9285 O 861.878 -1.96256 0.452255 0
M  V30 9286 C 858.943 -3.28828 1.09878 0
M  V30 9287 C 858.004 -3.63158 2.28942 0
M  V30 9288 C 857.237 -4.91469 2.08072 0
M  V30 9289 O 857.46 -5.60616 1.05196 0
M  V30 9290 O 856.394 -5.24277 2.95664 0
M  V30 9291 H 860.22 -2.00554 2.28061 0
M  V30 9292 H 857.805 -0.936288 1.16422 0
M  V30 9293 H 859.687 -4.09473 0.995485 0
M  V30 9294 H 858.362 -3.23271 0.16659 0
M  V30 9295 H 857.269 -2.82851 2.44839 0
M  V30 9296 H 858.602 -3.7343 3.20641 0
M  V30 9297 N 860.254 -1.20106 -1.0204 0
M  V30 9298 C 861.5 -1.01039 -1.75838 0
M  V30 9299 C 861.833 0.456819 -1.88751 0
M  V30 9300 O 861.108 1.33919 -1.41053 0
M  V30 9301 C 861.391 -1.69009 -3.17975 0
M  V30 9302 C 861.244 -3.2315 -3.1288 0
M  V30 9303 C 862.563 -1.42005 -4.16561 0
M  V30 9304 H 859.682 -0.368465 -0.638281 0
M  V30 9305 H 862.324 -1.48066 -1.19064 0
M  V30 9306 H 860.474 -1.29026 -3.66449 0
M  V30 9307 H 862.146 -3.72402 -2.72239 0
M  V30 9308 H 860.389 -3.54253 -2.50374 0
M  V30 9309 H 861.06 -3.65862 -4.13339 0
M  V30 9310 H 863.536 -1.76685 -3.76725 0
M  V30 9311 H 862.412 -1.92101 -5.14187 0
M  V30 9312 H 862.673 -0.346884 -4.40737 0
M  V30 9313 N 861.732 1.21287 -1.00634 0
M  V30 9314 C 862.979 1.90389 -0.6898 0
M  V30 9315 C 863.307 1.78193 0.779574 0
M  V30 9316 O 862.562 1.15358 1.58085 0
M  V30 9317 C 862.861 3.41374 -1.05824 0
M  V30 9318 C 862.527 3.73766 -2.5221 0
M  V30 9319 C 861.189 3.82317 -2.92211 0
M  V30 9320 C 863.541 3.88871 -3.47028 0
M  V30 9321 C 860.869 4.03423 -4.2599 0
M  V30 9322 C 863.221 4.11484 -4.80483 0
M  V30 9323 C 861.885 4.18263 -5.20204 0
M  V30 9324 H 861.155 0.696683 -0.252416 0
M  V30 9325 H 863.802 1.43769 -1.26502 0
M  V30 9326 H 862.107 3.8974 -0.401281 0
M  V30 9327 H 863.804 3.93118 -0.79116 0
M  V30 9328 H 860.394 3.67702 -2.20212 0
M  V30 9329 H 864.578 3.8163 -3.17289 0
M  V30 9330 H 859.834 4.06902 -4.56334 0
M  V30 9331 H 864.008 4.22115 -5.53888 0
M  V30 9332 H 861.635 4.34369 -6.23881 0
M  V30 9333 N 863.21 0.781244 1.36873 0
M  V30 9334 C 864.12 0.174981 2.33947 0
M  V30 9335 C 865.136 -0.668512 1.60645 0
M  V30 9336 O 866.312 -0.586213 1.9268 0
M  V30 9337 C 863.377 -0.686557 3.39834 0
M  V30 9338 C 862.438 0.174489 4.28945 0
M  V30 9339 C 861.671 -0.646024 5.29776 0
M  V30 9340 O 861.894 -1.88254 5.38439 0
M  V30 9341 O 860.828 -0.0502214 6.01879 0
M  V30 9342 H 864.654 0.977382 2.87543 0
M  V30 9343 H 862.239 0.542559 1.392 0
M  V30 9344 H 864.121 -1.1781 4.04597 0
M  V30 9345 H 862.796 -1.46699 2.8855 0
M  V30 9346 H 861.703 0.712604 3.6725 0
M  V30 9347 H 863.036 0.918232 4.83559 0
M  V30 9348 N 864.689 -1.48329 0.532571 0
M  V30 9349 C 865.599 -2.33445 -0.232546 0
M  V30 9350 C 866.615 -1.46651 -0.93645 0
M  V30 9351 O 867.791 -1.79627 -0.910834 0
M  V30 9352 C 864.856 -3.22824 -1.26434 0
M  V30 9353 C 863.917 -4.25492 -0.570511 0
M  V30 9354 C 863.15 -5.10601 -1.55315 0
M  V30 9355 O 863.373 -4.97733 -2.78599 0
M  V30 9356 O 862.307 -5.91927 -1.09112 0
M  V30 9357 H 866.133 -3.00119 0.464988 0
M  V30 9358 H 863.718 -1.46489 0.293462 0
M  V30 9359 H 865.6 -3.78103 -1.86055 0
M  V30 9360 H 864.275 -2.58807 -1.94424 0
M  V30 9361 H 863.182 -3.74041 0.0662587 0
M  V30 9362 H 864.515 -4.92154 0.0674904 0
M  V30 9363 N 866.167 -0.267825 -1.55308 0
M  V30 9364 C 867.413 0.351556 -1.9973 0
M  V30 9365 C 867.746 1.56049 -1.15596 0
M  V30 9366 O 867.021 1.93203 -0.224274 0
M  V30 9367 C 867.304 0.74091 -3.52395 0
M  V30 9368 C 867.157 -0.474861 -4.47286 0
M  V30 9369 C 868.476 1.5801 -4.10756 0
M  V30 9370 H 865.595 0.126308 -0.726096 0
M  V30 9371 H 868.237 -0.373316 -1.86296 0
M  V30 9372 H 866.387 1.35851 -3.63973 0
M  V30 9373 H 868.059 -1.1134 -4.47662 0
M  V30 9374 H 866.302 -1.11425 -4.19246 0
M  V30 9375 H 866.973 -0.158782 -5.51772 0
M  V30 9376 H 869.449 1.05857 -4.0241 0
M  V30 9377 H 868.325 1.82135 -5.17801 0
M  V30 9378 H 868.586 2.55878 -3.60526 0
M  V30 9379 N 867.645 1.57599 0.00500368 0
M  V30 9380 C 868.875 1.94344 0.700998 0
M  V30 9381 C 869.283 0.868011 1.68114 0
M  V30 9382 O 868.626 -0.16214 1.82983 0
M  V30 9383 C 868.688 3.27046 1.49268 0
M  V30 9384 C 868.352 4.51992 0.674684 0
M  V30 9385 C 869.349 5.19888 -0.0354833 0
M  V30 9386 C 867.034 4.98432 0.622129 0
M  V30 9387 C 869.028 6.3252 -0.787246 0
M  V30 9388 C 866.715 6.10954 -0.133362 0
M  V30 9389 C 867.713 6.77855 -0.836788 0
M  V30 9390 O 867.401 7.88221 -1.57996 0
M  V30 9391 H 867.133 0.645572 0.20053 0
M  V30 9392 H 869.687 2.0536 -0.040718 0
M  V30 9393 H 867.917 3.12424 2.27877 0
M  V30 9394 H 869.606 3.4894 2.07355 0
M  V30 9395 H 870.372 4.85 -0.00400159 0
M  V30 9396 H 866.251 4.46189 1.15917 0
M  V30 9397 H 869.795 6.84671 -1.33683 0
M  V30 9398 H 865.692 6.45285 -0.166682 0
M  V30 9399 H 866.46 8.0471 -1.49615 0
M  V30 9400 N 869.123 -0.277682 1.55134 0
M  V30 9401 C 870.071 -1.36305 1.88478 0
M  V30 9402 C 871.065 -1.51362 0.760654 0
M  V30 9403 O 872.271 -1.53202 0.944943 0
M  V30 9404 H 868.646 -0.45577 0.598146 0
M  V30 9405 H 870.617 -1.05431 2.79154 0
M  V30 9406 C 869.366 -2.71739 2.16918 0
M  V30 9407 H 868.689 -2.60942 3.02901 0
M  V30 9408 H 870.129 -3.46635 2.44172 0
M  V30 9409 C 868.588 -3.22476 0.975239 0
M  V30 9410 O 869.118 -4.01164 0.207497 0
M  V30 9411 N 867.324 -2.80097 0.774219 0
M  V30 9412 H 866.871 -2.16221 1.40022 0
M  V30 9413 H 866.829 -3.14392 -0.023021 0
M  V30 9414 N 870.601 -1.47988 -0.541979 0
M  V30 9415 C 871.831 -1.58804 -1.32155 0
M  V30 9416 C 872.239 -0.242893 -1.87634 0
M  V30 9417 O 871.582 0.776239 -1.66494 0
M  V30 9418 C 871.644 -2.56567 -2.51821 0
M  V30 9419 C 871.308 -4.01915 -2.17517 0
M  V30 9420 C 872.305 -4.89954 -1.73901 0
M  V30 9421 C 869.99 -4.47365 -2.28408 0
M  V30 9422 C 871.984 -6.21467 -1.41625 0
M  V30 9423 C 869.671 -5.78902 -1.95745 0
M  V30 9424 C 870.669 -6.65775 -1.52423 0
M  V30 9425 O 870.357 -7.94866 -1.20183 0
M  V30 9426 H 870.089 -0.538536 -0.408601 0
M  V30 9427 H 872.643 -1.94446 -0.661818 0
M  V30 9428 H 870.873 -2.16023 -3.20735 0
M  V30 9429 H 872.562 -2.57347 -3.13891 0
M  V30 9430 H 873.328 -4.56082 -1.64966 0
M  V30 9431 H 869.207 -3.79942 -2.61084 0
M  V30 9432 H 872.751 -6.8923 -1.07738 0
M  V30 9433 H 868.648 -6.12311 -2.04316 0
M  V30 9434 H 869.416 -8.07509 -1.33683 0
M  V30 9435 N 872.079 0.78992 -1.36375 0
M  V30 9436 C 873.009 1.91683 -1.33341 0
M  V30 9437 C 873.99 1.68861 -0.204965 0
M  V30 9438 O 875.175 1.89982 -0.402531 0
M  V30 9439 C 872.305 3.28696 -1.12143 0
M  V30 9440 C 871.259 3.66041 -2.21806 0
M  V30 9441 C 870.585 5.01399 -1.85751 0
M  V30 9442 C 871.885 3.74677 -3.63888 0
M  V30 9443 H 873.579 1.94478 -2.27637 0
M  V30 9444 H 871.125 0.934271 -1.09578 0
M  V30 9445 H 873.078 4.07151 -1.08656 0
M  V30 9446 H 871.802 3.26287 -0.142974 0
M  V30 9447 H 870.461 2.89883 -2.24418 0
M  V30 9448 H 870.109 4.9551 -0.864817 0
M  V30 9449 H 869.809 5.27355 -2.59173 0
M  V30 9450 H 871.333 5.82274 -1.83819 0
M  V30 9451 H 872.747 4.43324 -3.63506 0
M  V30 9452 H 871.144 4.12118 -4.3621 0
M  V30 9453 H 872.214 2.75795 -3.9883 0
M  V30 9454 N 873.557 1.20646 1.01402 0
M  V30 9455 C 874.504 0.957618 2.09996 0
M  V30 9456 C 875.474 -0.113115 1.65714 0
M  V30 9457 O 876.659 0.032142 1.90773 0
M  V30 9458 C 873.799 0.5186 3.41181 0
M  V30 9459 C 872.912 1.65777 3.98926 0
M  V30 9460 C 872.047 1.16881 5.18182 0
M  V30 9461 C 871.086 2.2809 5.68015 0
M  V30 9462 N 870.223 1.80392 6.7853 0
M  V30 9463 H 875.063 1.88732 2.30617 0
M  V30 9464 H 872.6 0.940703 1.13089 0
M  V30 9465 H 874.558 0.245367 4.16478 0
M  V30 9466 H 873.188 -0.3741 3.20625 0
M  V30 9467 H 872.24 2.04586 3.207 0
M  V30 9468 H 873.552 2.49507 4.31912 0
M  V30 9469 H 872.706 0.851694 6.00692 0
M  V30 9470 H 871.445 0.301434 4.86768 0
M  V30 9471 H 870.45 2.60614 4.84108 0
M  V30 9472 H 871.675 3.15308 6.01463 0
M  V30 9473 H 869.621 0.959856 6.4894 0
M  V30 9474 H 869.538 2.57701 7.10722 0
M  V30 9475 H 870.806 1.51688 7.64598 0
M  V30 9476 N 875.035 -1.20752 1.01276 0
M  V30 9477 C 876.451 -1.42084 0.726934 0
M  V30 9478 C 876.651 -1.89138 -0.694907 0
M  V30 9479 O 875.707 -2.05783 -1.4632 0
M  V30 9480 C 877.02 -2.44575 1.74938 0
M  V30 9481 C 878.568 -2.58347 1.76708 0
M  V30 9482 C 879.043 -3.64078 2.77869 0
M  V30 9483 N 880.534 -3.71558 2.76585 0
M  V30 9484 C 881.269 -4.53016 3.51517 0
M  V30 9485 N 880.765 -5.38309 4.36114 0
M  V30 9486 N 882.558 -4.47512 3.40132 0
M  V30 9487 H 874.709 -0.885228 1.93074 0
M  V30 9488 H 876.972 -0.451075 0.833808 0
M  V30 9489 H 876.678 -2.1699 2.76782 0
M  V30 9490 H 876.552 -3.43503 1.55838 0
M  V30 9491 H 878.939 -2.85265 0.755516 0
M  V30 9492 H 879.02 -1.59628 1.99882 0
M  V30 9493 H 878.664 -3.37905 3.79187 0
M  V30 9494 H 878.594 -4.62412 2.51958 0
M  V30 9495 H 881.085 -3.10629 2.15216 0
M  V30 9496 H 881.398 -5.9754 4.90068 0
M  V30 9497 H 879.743 -5.37824 4.40194 0
M  V30 9498 H 882.934 -3.79912 2.73467 0
M  V30 9499 H 883.107 -5.10759 3.98784 0
M  V30 9500 N 876.513 -0.788492 -1.36457 0
M  V30 9501 C 877.476 -0.192209 -2.28393 0
M  V30 9502 C 878.476 0.609916 -1.48784 0
M  V30 9503 O 879.666 0.431046 -1.68783 0
M  V30 9504 C 876.798 0.734096 -3.32902 0
M  V30 9505 H 877.991 -1.00284 -2.82636 0
M  V30 9506 H 875.544 -0.557852 -1.46006 0
M  V30 9507 H 876.279 1.5691 -2.83813 0
M  V30 9508 H 876.064 0.160875 -3.9177 0
M  V30 9509 H 877.554 1.1462 -4.01562 0
M  V30 9510 N 877.991 1.48044 -0.54043 0
M  V30 9511 C 879.407 1.58354 -0.199006 0
M  V30 9512 C 879.607 1.54118 1.29807 0
M  V30 9513 O 878.663 1.43573 2.07709 0
M  V30 9514 C 879.976 2.89563 -0.810797 0
M  V30 9515 C 881.524 3.03113 -0.780486 0
M  V30 9516 C 881.999 4.36997 -1.37104 0
M  V30 9517 N 883.49 4.43591 -1.33347 0
M  V30 9518 C 884.225 5.45714 -1.76021 0
M  V30 9519 N 883.721 6.54738 -2.26473 0
M  V30 9520 N 885.514 5.36659 -1.67194 0
M  V30 9521 H 877.665 1.49041 -1.51329 0
M  V30 9522 H 879.928 0.708309 -0.630081 0
M  V30 9523 H 879.634 2.9835 -1.86227 0
M  V30 9524 H 879.508 3.76053 -0.293977 0
M  V30 9525 H 881.895 2.93932 0.262246 0
M  V30 9526 H 881.976 2.18207 -1.33489 0
M  V30 9527 H 881.62 4.46932 -2.41276 0
M  V30 9528 H 881.55 5.20607 -0.792229 0
M  V30 9529 H 884.041 3.65391 -0.964259 0
M  V30 9530 H 884.354 7.28814 -2.57002 0
M  V30 9531 H 882.699 6.55673 -2.30473 0
M  V30 9532 H 885.89 4.50382 -1.27569 0
M  V30 9533 H 886.063 6.16113 -2.00771 0
M  V30 9534 N 879.47 0.276058 1.55163 0
M  V30 9535 C 880.42 -0.625549 2.19251 0
M  V30 9536 C 881.404 -1.11769 1.15744 0
M  V30 9537 O 882.596 -1.0626 1.41555 0
M  V30 9538 C 879.725 -1.80879 2.91784 0
M  V30 9539 C 878.811 -1.33379 4.0258 0
M  V30 9540 N 879.202 -0.575002 5.02521 0
M  V30 9541 C 877.5 -1.61666 4.15668 0
M  V30 9542 C 878.201 -0.325164 5.8079 0
M  V30 9543 N 877.177 -0.897851 5.36134 0
M  V30 9544 H 880.979 -0.0379943 2.93875 0
M  V30 9545 H 878.493 0.079661 1.62205 0
M  V30 9546 H 880.49 -2.466 3.36146 0
M  V30 9547 H 879.15 -2.40028 2.1867 0
M  V30 9548 H 880.161 -0.222256 5.17423 0
M  V30 9549 H 876.838 -2.21745 3.53745 0
M  V30 9550 H 878.228 0.282598 6.71305 0
M  V30 9551 N 880.948 -1.576 0.00335426 0
M  V30 9552 C 881.88 -2.0549 -1.01521 0
M  V30 9553 C 882.893 -0.973441 -1.30491 0
M  V30 9554 O 884.082 -1.25017 -1.27409 0
M  V30 9555 C 881.182 -2.44272 -2.34914 0
M  V30 9556 C 880.355 -3.75191 -2.24835 0
M  V30 9557 C 879.414 -4.00804 -3.40944 0
M  V30 9558 O 878.44 -4.71423 -3.18981 0
M  V30 9559 N 879.642 -3.48961 -4.63904 0
M  V30 9560 H 882.407 -2.93493 -0.60678 0
M  V30 9561 H 879.968 -1.60851 -0.18396 0
M  V30 9562 H 881.96 -2.58518 -3.11369 0
M  V30 9563 H 880.53 -1.6177 -2.67487 0
M  V30 9564 H 879.75 -3.70989 -1.3327 0
M  V30 9565 H 881.038 -4.61013 -2.15277 0
M  V30 9566 H 880.436 -2.9178 -4.84645 0
M  V30 9567 H 878.993 -3.68531 -5.37613 0
M  V30 9568 N 882.426 0.269451 -1.5528 0
M  V30 9569 C 883.374 1.35303 -1.89198 0
M  V30 9570 C 884.368 1.50956 -0.768671 0
M  V30 9571 O 885.574 1.52699 -0.953054 0
M  V30 9572 H 881.949 0.452591 -0.600554 0
M  V30 9573 H 883.92 1.03949 -2.79709 0
M  V30 9574 C 882.669 2.70585 -2.18356 0
M  V30 9575 H 881.992 2.59332 -3.04281 0
M  V30 9576 H 883.432 3.45335 -2.46007 0
M  V30 9577 C 881.891 3.21954 -0.992327 0
M  V30 9578 O 882.421 4.01048 -0.228769 0
M  V30 9579 N 880.627 2.79682 -0.789062 0
M  V30 9580 H 880.174 2.15475 -1.41167 0
M  V30 9581 H 880.132 3.14399 0.00634776 0
M  V30 9582 N 883.904 1.48273 0.534124 0
M  V30 9583 C 884.867 1.6201 1.62127 0
M  V30 9584 C 885.867 0.493653 1.53035 0
M  V30 9585 O 887.057 0.759337 1.56779 0
M  V30 9586 C 884.189 1.5864 3.01739 0
M  V30 9587 H 885.382 2.58944 1.51288 0
M  V30 9588 H 882.935 1.36808 0.755861 0
M  V30 9589 H 883.67 0.631685 3.18088 0
M  V30 9590 H 883.455 2.40415 3.09747 0
M  V30 9591 H 884.945 1.71438 3.80787 0
M  V30 9592 N 885.382 -0.782676 1.36792 0
M  V30 9593 C 886.607 -1.57676 1.34733 0
M  V30 9594 C 887.032 -1.87979 -0.0675253 0
M  V30 9595 O 886.39 -1.48404 -1.04144 0
M  V30 9596 C 886.438 -2.87047 2.18257 0
M  V30 9597 O 885.542 -3.80946 1.57969 0
M  V30 9598 H 884.883 -0.478034 0.460846 0
M  V30 9599 H 887.413 -0.969578 1.80168 0
M  V30 9600 H 887.423 -3.36254 2.31079 0
M  V30 9601 H 886.098 -2.64319 3.21104 0
M  V30 9602 H 884.675 -3.39558 1.54126 0
M  V30 9603 N 886.86 -1.21182 -1.00761 0
M  V30 9604 C 887.77 -0.984691 -2.12934 0
M  V30 9605 C 888.786 0.0623657 -1.73888 0
M  V30 9606 O 889.962 -0.1271 -2.00999 0
M  V30 9607 C 887.027 -0.549447 -3.42319 0
M  V30 9608 C 886.088 -1.66841 -3.95553 0
M  V30 9609 C 885.321 -1.25384 -5.18763 0
M  V30 9610 O 885.544 -0.126333 -5.7026 0
M  V30 9611 O 884.478 -2.06475 -5.65377 0
M  V30 9612 H 888.304 -1.92413 -2.3497 0
M  V30 9613 H 885.889 -0.99647 -1.11314 0
M  V30 9614 H 887.771 -0.316384 -4.20211 0
M  V30 9615 H 886.446 0.361304 -3.21677 0
M  V30 9616 H 885.353 -1.95585 -3.189 0
M  V30 9617 H 886.686 -2.55649 -4.206 0
M  V30 9618 N 888.338 1.20213 -1.01915 0
M  V30 9619 C 889.301 2.21307 -0.596327 0
M  V30 9620 C 890.301 1.57274 0.334879 0
M  V30 9621 O 891.491 1.73764 0.12322 0
M  V30 9622 C 888.623 3.40657 0.128808 0
M  V30 9623 H 889.816 2.60228 -1.49068 0
M  V30 9624 H 887.369 1.33721 -0.809226 0
M  V30 9625 H 888.104 3.07241 1.03796 0
M  V30 9626 H 887.889 3.88361 -0.540183 0
M  V30 9627 H 889.379 4.15564 0.411892 0
M  V30 9628 N 889.816 0.795718 1.36037 0
M  V30 9629 C 890.726 0.199784 2.33748 0
M  V30 9630 C 891.742 -0.651436 1.61345 0
M  V30 9631 O 892.918 -0.565743 1.93291 0
M  V30 9632 C 889.983 -0.650475 3.40543 0
M  V30 9633 C 889.044 0.219974 4.28736 0
M  V30 9634 C 888.277 -0.589798 5.30431 0
M  V30 9635 O 888.5 -1.82532 5.40406 0
M  V30 9636 O 887.434 0.0136187 6.01898 0
M  V30 9637 H 891.26 1.00782 2.8649 0
M  V30 9638 H 888.845 0.557293 1.38617 0
M  V30 9639 H 890.727 -1.13512 4.05824 0
M  V30 9640 H 889.402 -1.4363 2.9009 0
M  V30 9641 H 888.309 0.751516 3.66474 0
M  V30 9642 H 889.642 0.969468 4.82558 0
M  V30 9643 N 891.294 -1.47756 0.548274 0
M  V30 9644 C 892.543 -2.01691 0.0187961 0
M  V30 9645 C 892.856 -1.42894 -1.33569 0
M  V30 9646 O 894.062 -1.88438 -1.95457 0
M  V30 9647 C 892.518 -3.59896 -0.016847 0
M  V30 9648 C 892.126 -4.27683 1.33385 0
M  V30 9649 C 893.87 -4.21614 -0.494188 0
M  V30 9650 C 891.777 -5.7787 1.2578 0
M  V30 9651 H 890.707 -0.753993 0.00325648 0
M  V30 9652 H 893.358 -1.69838 0.694792 0
M  V30 9653 H 891.74 -3.88672 -0.758304 0
M  V30 9654 H 892.914 -4.10559 2.09232 0
M  V30 9655 H 891.229 -3.77915 1.7484 0
M  V30 9656 H 893.826 -5.3166 -0.569342 0
M  V30 9657 H 894.169 -3.88176 -1.50417 0
M  V30 9658 H 894.702 -3.97336 0.192138 0
M  V30 9659 H 891.441 -6.15912 2.2435 0
M  V30 9660 H 890.961 -5.97355 0.540997 0
M  V30 9661 H 892.64 -6.39897 0.956109 0
M  V30 9662 N 892.772 -0.284283 -1.55015 0
M  V30 9663 C 894.188 0.069603 -1.59448 0
M  V30 9664 C 894.388 1.53833 -1.30144 0
M  V30 9665 O 893.444 2.2886 -1.06674 0
M  V30 9666 C 894.757 -0.313287 -2.99064 0
M  V30 9667 C 896.305 -0.260662 -3.11913 0
M  V30 9668 C 896.78 -0.618127 -4.5381 0
M  V30 9669 N 898.271 -0.570026 -4.59679 0
M  V30 9670 C 899.006 -0.8193 -5.67517 0
M  V30 9671 N 898.502 -1.13367 -6.83462 0
M  V30 9672 N 900.295 -0.747482 -5.57108 0
M  V30 9673 H 892.446 -1.24167 -1.72326 0
M  V30 9674 H 894.709 -0.502259 -0.804015 0
M  V30 9675 H 894.415 -1.33509 -3.25374 0
M  V30 9676 H 894.289 0.341369 -3.75652 0
M  V30 9677 H 896.676 0.751869 -2.85361 0
M  V30 9678 H 896.757 -0.949706 -2.37517 0
M  V30 9679 H 896.401 -1.62839 -4.81088 0
M  V30 9680 H 896.331 0.092807 -5.26518 0
M  V30 9681 H 898.822 -0.3373 -3.76392 0
M  V30 9682 H 899.135 -1.3103 -7.61611 0
M  V30 9683 H 897.48 -1.17154 -6.85055 0
M  V30 9684 H 900.671 -0.501658 -4.65404 0
M  V30 9685 H 900.844 -0.945128 -6.4107 0
M  V30 9686 N 894.251 1.57596 -0.0117121 0
M  V30 9687 C 895.161 2.12596 0.991964 0
M  V30 9688 C 896.177 1.07399 1.36899 0
M  V30 9689 O 897.353 1.39365 1.45394 0
M  V30 9690 C 894.418 2.62796 2.2614 0
M  V30 9691 C 893.479 3.8264 1.94642 0
M  V30 9692 C 892.712 4.30435 3.15533 0
M  V30 9693 O 892.935 3.77495 4.27614 0
M  V30 9694 O 891.869 5.22469 2.98847 0
M  V30 9695 H 895.695 2.98597 0.554371 0
M  V30 9696 H 893.28 1.47947 0.207839 0
M  V30 9697 H 895.162 2.9523 3.00695 0
M  V30 9698 H 893.837 1.79886 2.69114 0
M  V30 9699 H 892.744 3.5516 1.17526 0
M  V30 9700 H 894.077 4.66658 1.56496 0
M  V30 9701 N 895.729 -0.261212 1.5542 0
M  V30 9702 C 896.969 -0.998748 1.78338 0
M  V30 9703 C 897.333 -1.83064 0.578914 0
M  V30 9704 O 898.534 -2.59884 0.686575 0
M  V30 9705 C 896.805 -1.84828 3.05898 0
M  V30 9706 S 898.364 -2.64686 3.49981 0
M  V30 9707 H 895.182 -0.33619 0.626496 0
M  V30 9708 H 897.784 -0.26799 1.93655 0
M  V30 9709 H 896.488 -1.22658 3.91642 0
M  V30 9710 H 896.019 -2.62203 2.9328 0
M  V30 9711 H 898.034 -3.87299 3.10184 0
M  V30 9712 N 897.207 -1.48554 -0.526253 0
M  V30 9713 C 898.137 -1.66252 -1.63959 0
M  V30 9714 C 899.118 -0.511351 -1.62232 0
M  V30 9715 O 900.303 -0.744322 -1.7937 0
M  V30 9716 C 897.433 -1.70556 -3.02536 0
M  V30 9717 C 896.387 -2.8521 -3.19123 0
M  V30 9718 C 895.713 -2.74606 -4.58798 0
M  V30 9719 C 897.013 -4.26463 -3.0154 0
M  V30 9720 H 898.707 -2.59459 -1.49404 0
M  V30 9721 H 896.253 -1.24862 -0.717326 0
M  V30 9722 H 898.206 -1.81524 -3.80298 0
M  V30 9723 H 896.93 -0.739297 -3.18123 0
M  V30 9724 H 895.589 -2.73802 -2.43779 0
M  V30 9725 H 895.237 -1.75941 -4.71226 0
M  V30 9726 H 894.937 -3.51544 -4.70841 0
M  V30 9727 H 896.461 -2.87548 -5.38655 0
M  V30 9728 H 897.875 -4.38685 -3.69091 0
M  V30 9729 H 896.272 -5.04428 -3.25073 0
M  V30 9730 H 897.342 -4.42667 -1.97925 0
M  V30 9731 N 898.685 0.775411 -1.37205 0
M  V30 9732 C 899.595 1.91967 -1.34855 0
M  V30 9733 C 900.611 1.72214 -0.248656 0
M  V30 9734 O 901.787 1.95512 -0.483421 0
M  V30 9735 C 898.852 3.27038 -1.15096 0
M  V30 9736 C 897.913 3.5947 -2.34691 0
M  V30 9737 C 897.146 4.88097 -2.15865 0
M  V30 9738 O 897.369 5.58871 -1.14102 0
M  V30 9739 O 896.303 5.19507 -3.03967 0
M  V30 9740 H 900.129 1.969 -2.31223 0
M  V30 9741 H 897.714 0.917647 -1.17897 0
M  V30 9742 H 899.596 4.07837 -1.0605 0
M  V30 9743 H 898.271 3.22965 -0.217999 0
M  V30 9744 H 897.178 2.7892 -2.49308 0
M  V30 9745 H 898.511 3.68282 -3.26541 0
M  V30 9746 N 900.163 1.21714 1.00117 0
M  V30 9747 C 901.11 0.979837 2.08968 0
M  V30 9748 C 902.08 -0.0955324 1.65825 0
M  V30 9749 O 903.265 0.0523742 1.90728 0
M  V30 9750 C 900.405 0.554758 3.40612 0
M  V30 9751 C 899.518 1.69999 3.97145 0
M  V30 9752 C 898.653 1.2237 5.16913 0
M  V30 9753 C 897.692 2.34101 5.65564 0
M  V30 9754 N 896.829 1.87579 6.76579 0
M  V30 9755 H 901.669 1.91167 2.28602 0
M  V30 9756 H 899.206 0.952645 1.12085 0
M  V30 9757 H 901.164 0.289526 4.16194 0
M  V30 9758 H 899.794 -0.340073 3.21004 0
M  V30 9759 H 898.846 2.07976 3.18512 0
M  V30 9760 H 900.158 2.54074 4.29241 0
M  V30 9761 H 899.312 0.915358 5.99755 0
M  V30 9762 H 898.051 0.353045 4.8642 0
M  V30 9763 H 897.056 2.65734 4.81316 0
M  V30 9764 H 898.281 3.21669 5.98085 0
M  V30 9765 H 896.227 1.02863 6.47885 0
M  V30 9766 H 896.144 2.65225 7.07949 0
M  V30 9767 H 897.412 1.5979 7.62947 0
M  V30 9768 N 901.641 -1.19671 1.02551 0
M  V30 9769 C 902.887 -1.89548 0.721069 0
M  V30 9770 C 903.22 -1.79209 -0.748176 0
M  V30 9771 O 902.495 -1.1822 -1.54448 0
M  V30 9772 C 902.778 -3.4061 1.16861 0
M  V30 9773 C 902.631 -3.59838 2.69883 0
M  V30 9774 C 903.95 -4.33718 0.746782 0
M  V30 9775 H 901.069 -0.688315 0.263422 0
M  V30 9776 H 903.711 -1.40883 1.27483 0
M  V30 9777 H 901.861 -3.82188 0.697477 0
M  V30 9778 H 903.533 -3.27454 3.24917 0
M  V30 9779 H 901.776 -3.03005 3.10435 0
M  V30 9780 H 902.447 -4.65766 2.96253 0
M  V30 9781 H 904.923 -3.99837 1.15195 0
M  V30 9782 H 903.799 -5.38012 1.08786 0
M  V30 9783 H 904.06 -4.40704 -0.351057 0
M  V30 9784 N 903.119 -0.802921 -1.35613 0
M  V30 9785 C 904.365 -0.382141 -1.99167 0
M  V30 9786 C 904.698 1.04704 -1.63556 0
M  V30 9787 O 903.973 1.72578 -0.89706 0
M  V30 9788 C 904.256 -0.561493 -3.55695 0
M  V30 9789 C 904.109 -2.03534 -4.01116 0
M  V30 9790 C 905.428 0.0151135 -4.40097 0
M  V30 9791 H 902.547 -0.140322 -0.723518 0
M  V30 9792 H 905.189 -1.01177 -1.6082 0
M  V30 9793 H 903.339 -0.0255083 -3.88492 0
M  V30 9794 H 905.011 -2.63343 -3.78746 0
M  V30 9795 H 903.254 -2.5331 -3.52159 0
M  V30 9796 H 903.925 -2.11173 -5.1001 0
M  V30 9797 H 906.401 -0.442582 -4.1374 0
M  V30 9798 H 905.277 -0.140316 -5.48721 0
M  V30 9799 H 905.538 1.10848 -4.27978 0
M  V30 9800 N 904.597 1.47463 -0.556102 0
M  V30 9801 C 906.008 1.86298 -0.122429 0
M  V30 9802 C 906.359 1.46285 1.30749 0
M  V30 9803 O 905.484 0.865405 1.98342 0
M  V30 9804 C 906.079 3.38115 -0.215407 0
M  V30 9805 C 904.638 3.76046 0.163223 0
M  V30 9806 C 903.785 2.71515 -0.563466 0
M  V30 9807 H 906.736 1.38996 -0.765888 0
M  V30 9808 H 906.757 3.76263 0.566271 0
M  V30 9809 H 906.269 3.67207 -1.25622 0
M  V30 9810 H 904.37 3.5257 1.20519 0
M  V30 9811 H 904.483 4.78705 -0.194568 0
M  V30 9812 H 902.847 2.54699 -0.00667879 0
M  V30 9813 H 903.63 3.03449 -1.60542 0
M  V30 9814 N 906.075 0.2925 1.54862 0
M  V30 9815 C 907.007 -0.620889 2.2063 0
M  V30 9816 C 908.02 -1.10412 1.19637 0
M  V30 9817 O 909.209 -1.02304 1.46274 0
M  V30 9818 C 906.309 -1.861 2.83232 0
M  V30 9819 C 905.482 -1.52168 4.10078 0
M  V30 9820 C 904.541 -2.61605 4.56562 0
M  V30 9821 O 903.567 -2.27056 5.21952 0
M  V30 9822 N 904.769 -3.9199 4.28163 0
M  V30 9823 H 907.534 -0.0579028 2.99644 0
M  V30 9824 H 905.095 0.114333 1.61496 0
M  V30 9825 H 907.087 -2.58642 3.11266 0
M  V30 9826 H 905.657 -2.33259 2.08108 0
M  V30 9827 H 904.877 -0.629283 3.89145 0
M  V30 9828 H 906.165 -1.27023 4.92689 0
M  V30 9829 H 905.563 -4.22872 3.7576 0
M  V30 9830 H 904.12 -4.60857 4.60928 0
M  V30 9831 N 907.553 -1.57587 0.0200696 0
M  V30 9832 C 908.516 -2.08595 -0.949767 0
M  V30 9833 C 909.516 -0.999215 -1.25985 0
M  V30 9834 O 910.706 -1.26115 -1.2017 0
M  V30 9835 C 907.838 -2.54424 -2.26895 0
M  V30 9836 H 909.031 -2.95563 -0.508161 0
M  V30 9837 H 906.584 -1.54631 -0.227798 0
M  V30 9838 H 907.319 -1.70758 -2.75703 0
M  V30 9839 H 907.104 -3.3381 -2.05702 0
M  V30 9840 H 908.594 -2.94144 -2.96427 0
M  V30 9841 N 909.032 0.252966 -1.55557 0
M  V30 9842 C 910.257 1.0038 -1.8149 0
M  V30 9843 C 910.682 1.78397 -0.596318 0
M  V30 9844 O 910.04 1.7551 0.454535 0
M  V30 9845 C 910.088 1.9222 -3.05096 0
M  V30 9846 O 909.192 3.01302 -2.81587 0
M  V30 9847 H 908.533 0.285949 -0.599274 0
M  V30 9848 H 911.063 0.275795 -2.02733 0
M  V30 9849 H 911.073 2.338 -3.34368 0
M  V30 9850 H 909.748 1.34852 -3.93431 0
M  V30 9851 H 908.325 2.63894 -2.63466 0
M  V30 9852 N 910.51 1.48831 0.518367 0
M  V30 9853 C 911.787 1.47933 1.27966 0
M  V30 9854 C 912.167 0.197393 2.10175 0
M  V30 9855 O 911.515 -0.820656 2.13255 0
M  V30 9856 C 911.725 2.74816 2.15121 0
M  V30 9857 C 913.073 3.23613 2.74881 0
M  V30 9858 O 914.097 2.75814 2.254 0
M  V30 9859 O 912.956 4.06818 3.64913 0
M  V30 9860 H 910.05 0.591316 0.578164 0
M  V30 9861 H 912.596 1.61077 0.534065 0
M  V30 9862 H 911.368 3.59621 1.54234 0
M  V30 9863 H 910.991 2.64449 2.96905 0
M  V30 9864 N 911.988 -0.768124 1.37614 0
M  V30 9865 C 913.228 -1.53979 1.34424 0
M  V30 9866 C 913.592 -1.91874 -0.0696803 0
M  V30 9867 O 914.793 -2.67845 -0.22633 0
M  V30 9868 C 913.064 -2.76845 2.26034 0
M  V30 9869 S 914.623 -3.66871 2.4073 0
M  V30 9870 H 911.441 -0.527108 0.477157 0
M  V30 9871 H 914.043 -0.902945 1.73399 0
M  V30 9872 H 912.747 -2.47091 3.2768 0
M  V30 9873 H 912.278 -3.45486 1.88157 0
M  V30 9874 H 914.293 -4.6899 1.62057 0
M  V30 9875 N 913.466 -1.22244 -0.994698 0
M  V30 9876 C 914.713 -1.04591 -1.73398 0
M  V30 9877 C 915.041 0.419223 -1.89928 0
M  V30 9878 O 914.296 1.32714 -1.43824 0
M  V30 9879 C 914.595 -1.70014 -3.14372 0
M  V30 9880 C 914.261 -3.19903 -3.17762 0
M  V30 9881 C 912.923 -3.60803 -3.18394 0
M  V30 9882 C 915.275 -4.15851 -3.14194 0
M  V30 9883 C 912.603 -4.96135 -3.13157 0
M  V30 9884 C 914.955 -5.51157 -3.10498 0
M  V30 9885 C 913.619 -5.91439 -3.09445 0
M  V30 9886 H 912.889 -0.382725 -0.63451 0
M  V30 9887 H 915.536 -1.51981 -1.16508 0
M  V30 9888 H 913.841 -1.14945 -3.7456 0
M  V30 9889 H 915.538 -1.53848 -3.70313 0
M  V30 9890 H 912.128 -2.87336 -3.18019 0
M  V30 9891 H 916.312 -3.85272 -3.12857 0
M  V30 9892 H 911.568 -5.26578 -3.10685 0
M  V30 9893 H 915.742 -6.2523 -3.06692 0
M  V30 9894 H 913.369 -6.96271 -3.05141 0
M  V30 9895 N 914.944 1.19125 -1.03184 0
M  V30 9896 C 915.854 2.26112 -0.625329 0
M  V30 9897 C 916.87 1.7056 0.344298 0
M  V30 9898 O 918.046 2.0039 0.20144 0
M  V30 9899 C 915.111 3.46697 0.0145169 0
M  V30 9900 C 914.172 4.17419 -1.00299 0
M  V30 9901 C 913.405 5.32247 -0.393581 0
M  V30 9902 O 913.628 5.64724 0.802659 0
M  V30 9903 O 912.562 5.91428 -1.1179 0
M  V30 9904 H 916.388 2.63131 -1.51643 0
M  V30 9905 H 913.973 1.26036 -0.802197 0
M  V30 9906 H 915.855 4.19762 0.371139 0
M  V30 9907 H 914.53 3.11521 0.879581 0
M  V30 9908 H 913.437 3.4646 -1.41125 0
M  V30 9909 H 914.77 4.56573 -1.83852 0
M  V30 9910 N 916.422 0.810101 1.35185 0
M  V30 9911 C 917.668 0.392698 1.98962 0
M  V30 9912 C 918.001 -1.03835 1.64109 0
M  V30 9913 O 917.276 -1.721 0.9062 0
M  V30 9914 C 917.559 0.580349 3.55393 0
M  V30 9915 C 917.412 2.05658 4.00031 0
M  V30 9916 C 918.731 0.00822618 4.40099 0
M  V30 9917 H 915.85 0.144157 0.722764 0
M  V30 9918 H 918.492 1.02029 1.60281 0
M  V30 9919 H 916.642 0.0461106 3.88473 0
M  V30 9920 H 918.314 2.65348 3.77344 0
M  V30 9921 H 916.557 2.55174 3.50811 0
M  V30 9922 H 917.228 2.13875 5.08883 0
M  V30 9923 H 919.704 0.464517 4.13499 0
M  V30 9924 H 918.58 0.169414 5.48638 0
M  V30 9925 H 918.841 -1.08576 4.2856 0
M  V30 9926 N 917.9 -1.47166 0.563914 0
M  V30 9927 C 919.177 -1.95586 -0.0236172 0
M  V30 9928 C 919.557 -1.50655 -1.47872 0
M  V30 9929 O 918.905 -0.748479 -2.15894 0
M  V30 9930 C 919.115 -3.48762 0.128841 0
M  V30 9931 C 920.463 -4.24598 -0.0130544 0
M  V30 9932 O 921.487 -3.56155 0.0567242 0
M  V30 9933 O 920.346 -5.46253 -0.164332 0
M  V30 9934 H 917.44 -0.824793 -0.0603789 0
M  V30 9935 H 919.986 -1.57536 0.63091 0
M  V30 9936 H 918.758 -3.74291 1.14113 0
M  V30 9937 H 918.381 -3.93594 -0.56299 0
M  V30 9938 N 919.378 -0.300708 -1.54705 0
M  V30 9939 C 920.31 0.609179 -2.20956 0
M  V30 9940 C 921.323 1.09776 -1.20221 0
M  V30 9941 O 922.512 1.01527 -1.46815 0
M  V30 9942 C 919.612 1.84595 -2.84214 0
M  V30 9943 C 918.785 1.49991 -4.10879 0
M  V30 9944 C 917.844 2.5918 -4.57943 0
M  V30 9945 O 916.87 2.24285 -5.23149 0
M  V30 9946 N 918.072 3.89714 -4.30236 0
M  V30 9947 H 920.837 0.0420111 -2.99671 0
M  V30 9948 H 918.398 -0.122896 -1.61433 0
M  V30 9949 H 920.39 2.56988 -3.12633 0
M  V30 9950 H 918.96 2.32152 -2.09342 0
M  V30 9951 H 918.18 0.608637 -3.89473 0
M  V30 9952 H 919.468 1.24409 -4.93356 0
M  V30 9953 H 918.866 4.20874 -3.77997 0
M  V30 9954 H 917.423 4.58406 -4.63365 0
M  V30 9955 N 920.856 1.57574 -0.0284266 0
M  V30 9956 C 921.786 2.1321 0.952039 0
M  V30 9957 C 922.767 1.04806 1.33977 0
M  V30 9958 O 923.952 1.32635 1.41851 0
M  V30 9959 C 921.082 2.65862 2.23461 0
M  V30 9960 C 920.036 3.79047 1.98765 0
M  V30 9961 C 919.362 4.18124 3.33281 0
M  V30 9962 C 920.662 5.05151 1.32739 0
M  V30 9963 H 922.356 2.95385 0.488705 0
M  V30 9964 H 919.902 1.42092 0.233628 0
M  V30 9965 H 921.855 3.03417 2.92431 0
M  V30 9966 H 920.579 1.80848 2.71959 0
M  V30 9967 H 919.238 3.41929 1.32213 0
M  V30 9968 H 918.886 3.30092 3.79537 0
M  V30 9969 H 918.586 4.94396 3.17563 0
M  V30 9970 H 920.11 4.58262 4.0352 0
M  V30 9971 H 921.524 5.40297 1.91708 0
M  V30 9972 H 919.921 5.86416 1.27421 0
M  V30 9973 H 920.991 4.83969 0.300261 0
M  V30 9974 N 922.334 -0.244713 1.55689 0
M  V30 9975 C 923.264 -1.30667 1.93516 0
M  V30 9976 C 924.245 -1.50094 0.800371 0
M  V30 9977 O 925.43 -1.62665 1.06083 0
M  V30 9978 C 922.56 -2.66101 2.23176 0
M  V30 9979 C 921.514 -2.61366 3.38927 0
M  V30 9980 C 920.84 -4.00616 3.54134 0
M  V30 9981 C 922.14 -2.18161 4.74555 0
M  V30 9982 H 923.834 -0.992546 2.82469 0
M  V30 9983 H 921.38 -0.476018 1.35905 0
M  V30 9984 H 923.333 -3.4053 2.48228 0
M  V30 9985 H 922.057 -2.99154 1.31051 0
M  V30 9986 H 920.716 -1.89395 3.13887 0
M  V30 9987 H 920.364 -4.30938 2.59426 0
M  V30 9988 H 920.064 -3.98335 4.31975 0
M  V30 9989 H 921.588 -4.76741 3.8151 0
M  V30 9990 H 923.002 -2.82323 4.98965 0
M  V30 9991 H 921.399 -2.26988 5.55515 0
M  V30 9992 H 922.469 -1.13333 4.7147 0
M  V30 9993 N 923.813 -1.49104 -0.510467 0
M  V30 9994 C 925.043 -1.61571 -1.28757 0
M  V30 9995 C 925.451 -0.282638 -1.87077 0
M  V30 9996 O 924.794 0.740749 -1.68103 0
M  V30 9997 C 924.856 -2.61851 -2.46322 0
M  V30 9998 C 924.52 -4.06438 -2.08942 0
M  V30 9999 C 925.517 -4.93532 -1.63469 0
M  V30 10000 C 923.202 -4.52109 -2.18867 0
M  V30 10001 C 925.196 -6.24331 -1.28411 0
M  V30 10002 C 922.883 -5.82924 -1.83421 0
M  V30 10003 C 923.881 -6.68858 -1.38267 0
M  V30 10004 O 923.569 -7.97236 -1.03296 0
M  V30 10005 H 923.301 -0.547082 -0.397086 0
M  V30 10006 H 925.855 -1.95806 -0.620424 0
M  V30 10007 H 924.085 -2.22777 -3.16081 0
M  V30 10008 H 925.774 -2.63947 -3.08362 0
M  V30 10009 H 926.54 -4.59479 -1.55255 0
M  V30 10010 H 922.419 -3.85395 -2.52966 0
M  V30 10011 H 925.963 -6.9136 -0.930946 0
M  V30 10012 H 921.86 -6.16507 -1.91282 0
M  V30 10013 H 922.628 -8.10163 -1.16525 0
M  V30 10014 N 925.291 0.760815 -1.38019 0
M  V30 10015 C 926.538 1.51973 -1.3383 0
M  V30 10016 C 926.866 1.9436 0.0738855 0
M  V30 10017 O 926.121 1.65181 1.04946 0
M  V30 10018 C 926.42 2.79024 -2.23339 0
M  V30 10019 C 926.086 2.55636 -3.71431 0
M  V30 10020 C 924.748 2.48966 -4.11788 0
M  V30 10021 C 927.1 2.35018 -4.65205 0
M  V30 10022 C 924.428 2.19684 -5.44018 0
M  V30 10023 C 926.78 2.07258 -5.97685 0
M  V30 10024 C 925.444 1.9904 -6.37134 0
M  V30 10025 H 924.714 0.556108 -0.489719 0
M  V30 10026 H 927.361 0.87545 -1.70318 0
M  V30 10027 H 925.666 3.48065 -1.79883 0
M  V30 10028 H 927.363 3.36951 -2.17405 0
M  V30 10029 H 923.953 2.61695 -3.39432 0
M  V30 10030 H 928.137 2.39154 -4.34878 0
M  V30 10031 H 923.393 2.11825 -5.73533 0
M  V30 10032 H 927.567 1.90307 -6.69893 0
M  V30 10033 H 925.194 1.76115 -7.39519 0
M  V30 10034 N 926.769 1.22769 0.988202 0
M  V30 10035 C 927.679 1.01844 2.11341 0
M  V30 10036 C 928.695 -0.0346937 1.73965 0
M  V30 10037 O 929.871 0.159061 2.00771 0
M  V30 10038 C 926.936 0.603837 3.41401 0
M  V30 10039 C 925.997 1.73113 3.92849 0
M  V30 10040 C 925.23 1.33621 5.16702 0
M  V30 10041 O 925.453 0.217041 5.69987 0
M  V30 10042 O 924.387 2.15444 5.62021 0
M  V30 10043 H 928.213 1.96127 2.31879 0
M  V30 10044 H 925.798 1.01405 1.09715 0
M  V30 10045 H 927.68 0.383196 4.19654 0
M  V30 10046 H 926.355 -0.310082 3.22211 0
M  V30 10047 H 925.262 2.00634 3.15748 0
M  V30 10048 H 926.595 2.62308 4.1648 0
M  V30 10049 N 928.247 -1.18576 1.03814 0
M  V30 10050 C 929.157 -2.25778 0.637311 0
M  V30 10051 C 930.173 -1.7074 -0.335248 0
M  V30 10052 O 931.349 -2.00494 -0.19081 0
M  V30 10053 C 928.414 -3.467 0.00386953 0
M  V30 10054 C 927.475 -4.16881 1.02511 0
M  V30 10055 C 926.708 -5.32031 0.421802 0
M  V30 10056 O 926.931 -5.65142 -0.772699 0
M  V30 10057 O 925.865 -5.90826 1.14925 0
M  V30 10058 H 929.691 -2.62323 1.53037 0
M  V30 10059 H 927.276 -1.25609 0.80887 0
M  V30 10060 H 929.158 -4.19953 -0.348873 0
M  V30 10061 H 927.833 -3.11983 -0.863047 0
M  V30 10062 H 926.74 -3.45707 1.4296 0
M  V30 10063 H 928.073 -4.55592 1.86271 0
M  V30 10064 N 929.725 -0.817259 -1.34754 0
M  V30 10065 C 930.657 -0.192695 -2.28389 0
M  V30 10066 C 931.67 0.614167 -1.50771 0
M  V30 10067 O 932.859 0.444776 -1.7287 0
M  V30 10068 C 929.959 0.748929 -3.30521 0
M  V30 10069 C 929.132 -0.0138762 -4.37398 0
M  V30 10070 C 928.191 0.847825 -5.19325 0
M  V30 10071 O 927.217 0.29487 -5.68436 0
M  V30 10072 N 928.419 2.16843 -5.38479 0
M  V30 10073 H 931.184 -0.997122 -2.82626 0
M  V30 10074 H 928.745 -0.673696 -1.47217 0
M  V30 10075 H 930.737 1.32987 -3.82226 0
M  V30 10076 H 929.307 1.45412 -2.7672 0
M  V30 10077 H 928.527 -0.776093 -3.86485 0
M  V30 10078 H 929.815 -0.539191 -5.05935 0
M  V30 10079 H 929.213 2.64148 -5.00242 0
M  V30 10080 H 927.77 2.69835 -5.93323 0
M  V30 10081 N 931.203 1.46865 -0.571711 0
M  V30 10082 C 932.133 2.3298 0.155795 0
M  V30 10083 C 933.114 1.44678 0.894553 0
M  V30 10084 O 934.299 1.73513 0.872176 0
M  V30 10085 C 931.429 3.26745 1.17708 0
M  V30 10086 C 930.383 4.24401 0.553863 0
M  V30 10087 C 929.709 5.07595 1.68083 0
M  V30 10088 C 931.009 5.19884 -0.501827 0
M  V30 10089 H 932.703 2.94056 -0.563176 0
M  V30 10090 H 930.249 1.41402 -0.27228 0
M  V30 10091 H 932.202 3.85838 1.6943 0
M  V30 10092 H 930.926 2.63753 1.92618 0
M  V30 10093 H 929.585 3.66554 0.057815 0
M  V30 10094 H 929.233 4.40996 2.41933 0
M  V30 10095 H 928.933 5.73722 1.26953 0
M  V30 10096 H 930.457 5.6955 2.20103 0
M  V30 10097 H 931.871 5.73257 -0.0701057 0
M  V30 10098 H 930.268 5.94293 -0.832815 0
M  V30 10099 H 931.338 4.64482 -1.39229 0
M  V30 10100 N 932.681 0.308908 1.54543 0
M  V30 10101 C 933.611 -0.556657 2.26768 0
M  V30 10102 C 934.592 -1.13145 1.27013 0
M  V30 10103 O 935.777 -1.15931 1.558 0
M  V30 10104 C 932.907 -1.72481 3.01443 0
M  V30 10105 C 931.861 -1.28001 4.08411 0
M  V30 10106 C 931.187 -2.53395 4.70845 0
M  V30 10107 C 932.487 -0.405497 5.20724 0
M  V30 10108 H 934.181 0.0457618 2.99365 0
M  V30 10109 H 931.727 0.0234495 1.43981 0
M  V30 10110 H 933.68 -2.3365 3.50693 0
M  V30 10111 H 932.404 -2.35359 2.26437 0
M  V30 10112 H 931.063 -0.69133 3.60022 0
M  V30 10113 H 930.711 -3.14604 3.92471 0
M  V30 10114 H 930.411 -2.2433 5.43093 0
M  V30 10115 H 931.935 -3.15352 5.22863 0
M  V30 10116 H 933.349 -0.923076 5.6582 0
M  V30 10117 H 931.746 -0.208282 5.99738 0
M  V30 10118 H 932.816 0.567412 4.81569 0
M  V30 10119 N 934.159 -1.57557 0.0367827 0
M  V30 10120 C 935.408 -1.91291 -0.639569 0
M  V30 10121 C 935.721 -0.915601 -1.72847 0
M  V30 10122 O 936.927 -1.14447 -2.46199 0
M  V30 10123 C 935.383 -3.39697 -1.18888 0
M  V30 10124 C 934.991 -4.47803 -0.132851 0
M  V30 10125 C 936.735 -3.82487 -1.8413 0
M  V30 10126 C 934.642 -5.87311 -0.694229 0
M  V30 10127 H 933.572 -0.713886 -0.242658 0
M  V30 10128 H 936.223 -1.83209 0.103332 0
M  V30 10129 H 934.605 -3.42736 -1.98363 0
M  V30 10130 H 935.779 -4.56334 0.640009 0
M  V30 10131 H 934.094 -4.14264 0.421264 0
M  V30 10132 H 936.691 -4.84076 -2.27101 0
M  V30 10133 H 937.034 -3.17959 -2.68716 0
M  V30 10134 H 937.567 -3.81903 -1.11332 0
M  V30 10135 H 934.306 -6.55401 0.113667 0
M  V30 10136 H 933.826 -5.82371 -1.4354 0
M  V30 10137 H 935.505 -6.36119 -1.1816 0
M  V30 10138 N 935.637 0.236453 -1.55816 0
M  V30 10139 C 936.865 0.980295 -1.82203 0
M  V30 10140 C 937.28 1.7854 -0.613926 0
M  V30 10141 O 936.637 1.77661 0.417491 0
M  V30 10142 C 936.688 1.90982 -3.06933 0
M  V30 10143 O 936.409 1.13728 -4.23081 0
M  V30 10144 C 937.91 2.76879 -3.46198 0
M  V30 10145 H 935.13 0.28799 -0.606055 0
M  V30 10146 H 937.674 0.256182 -2.02889 0
M  V30 10147 H 935.829 2.58808 -2.88266 0
M  V30 10148 H 936.243 1.76694 -4.93842 0
M  V30 10149 H 937.717 3.37831 -4.36548 0
M  V30 10150 H 938.194 3.48522 -2.67262 0
M  V30 10151 H 938.8 2.1449 -3.67252 0
M  V30 10152 N 937.115 1.49373 0.502552 0
M  V30 10153 C 938.048 1.60529 1.6219 0
M  V30 10154 C 939.026 0.454431 1.56121 0
M  V30 10155 O 940.21 0.669768 1.762 0
M  V30 10156 C 937.337 1.55879 3.00698 0
M  V30 10157 C 936.383 2.76143 3.25034 0
M  V30 10158 S 937.216 4.37831 3.08325 0
M  V30 10159 C 938.372 4.35824 4.49231 0
M  V30 10160 H 938.605 2.55219 1.52482 0
M  V30 10161 H 936.138 1.38244 0.687594 0
M  V30 10162 H 938.096 1.53882 3.80566 0
M  V30 10163 H 936.757 0.624791 3.07823 0
M  V30 10164 H 935.95 2.69104 4.26144 0
M  V30 10165 H 935.552 2.75544 2.52886 0
M  V30 10166 H 937.844 4.07447 5.41288 0
M  V30 10167 H 938.787 5.37206 4.6132 0
M  V30 10168 H 939.195 3.65923 4.29838 0
M  V30 10169 N 938.594 -0.753485 1.38421 0
M  V30 10170 C 939.842 -1.50962 1.34368 0
M  V30 10171 C 940.163 -1.94889 -0.0656895 0
M  V30 10172 O 939.433 -1.67652 -1.01339 0
M  V30 10173 H 938.013 -0.559967 0.494415 0
M  V30 10174 H 940.675 -0.895665 1.73101 0
M  V30 10175 H 939.771 -2.40048 1.99458 0
M  V30 10176 N 940.072 -1.23292 -0.981677 0
M  V30 10177 C 941.019 -1.01296 -2.07383 0
M  V30 10178 C 941.989 0.069139 -1.65956 0
M  V30 10179 O 943.174 -0.0827108 -1.90621 0
M  V30 10180 C 940.314 -0.608876 -3.39686 0
M  V30 10181 C 939.427 -1.76296 -3.9439 0
M  V30 10182 C 938.562 -1.30578 -5.14901 0
M  V30 10183 C 937.601 -2.4307 -5.61768 0
M  V30 10184 N 936.738 -1.98319 -6.73509 0
M  V30 10185 H 941.578 -1.9478 -2.25532 0
M  V30 10186 H 939.115 -0.970356 -1.10555 0
M  V30 10187 H 941.073 -0.355702 -4.15681 0
M  V30 10188 H 939.703 0.288961 -3.21504 0
M  V30 10189 H 938.755 -2.13017 -3.15163 0
M  V30 10190 H 940.067 -2.60871 -4.25145 0
M  V30 10191 H 939.221 -1.01066 -5.98223 0
M  V30 10192 H 937.96 -0.430386 -4.85797 0
M  V30 10193 H 936.965 -2.73358 -4.77028 0
M  V30 10194 H 938.19 -3.31144 -5.92892 0
M  V30 10195 H 936.136 -1.13157 -6.46167 0
M  V30 10196 H 936.053 -2.76454 -7.0364 0
M  V30 10197 H 937.321 -1.71907 -7.60308 0
M  V30 10198 N 941.55 1.18024 -1.04442 0
M  V30 10199 C 942.46 2.25436 -0.649276 0
M  V30 10200 C 943.476 1.70915 0.326189 0
M  V30 10201 O 944.652 2.00592 0.180174 0
M  V30 10202 C 941.717 3.46693 -0.0222558 0
M  V30 10203 C 940.778 4.16332 -1.0472 0
M  V30 10204 C 940.011 5.31799 -0.450011 0
M  V30 10205 O 940.234 5.65544 0.742717 0
M  V30 10206 O 939.168 5.90209 -1.18056 0
M  V30 10207 H 942.994 2.61508 -1.54426 0
M  V30 10208 H 940.579 1.25178 -0.81552 0
M  V30 10209 H 942.461 4.20132 0.326597 0
M  V30 10210 H 941.136 3.12436 0.84649 0
M  V30 10211 H 940.043 3.44944 -1.44792 0
M  V30 10212 H 941.376 4.54598 -1.88684 0
M  V30 10213 N 943.028 0.824394 1.34319 0
M  V30 10214 C 944.439 0.471802 1.8064 0
M  V30 10215 C 944.79 -1.00793 1.6833 0
M  V30 10216 O 943.915 -1.78447 1.22416 0
M  V30 10217 C 944.51 0.849609 3.27974 0
M  V30 10218 C 943.069 0.549365 3.72369 0
M  V30 10219 C 942.216 1.06573 2.56003 0
M  V30 10220 H 945.167 1.01443 1.22045 0
M  V30 10221 H 945.188 0.153968 3.80188 0
M  V30 10222 H 944.7 1.92663 3.36902 0
M  V30 10223 H 942.801 -0.518182 3.68979 0
M  V30 10224 H 942.914 1.09446 4.66432 0
M  V30 10225 H 941.278 0.487214 2.49997 0
M  V30 10226 H 942.061 2.14923 2.677 0
M  V30 10227 N 944.506 -1.46559 0.579492 0
M  V30 10228 C 945.734 -2.06784 0.0693648 0
M  V30 10229 C 946.149 -1.42875 -1.23419 0
M  V30 10230 O 945.506 -0.532919 -1.74546 0
M  V30 10231 C 945.557 -3.61343 -0.106511 0
M  V30 10232 O 945.278 -4.22861 1.14545 0
M  V30 10233 C 946.779 -4.38489 -0.651359 0
M  V30 10234 H 943.999 -0.66866 0.0559848 0
M  V30 10235 H 946.543 -1.88235 0.799245 0
M  V30 10236 H 944.698 -3.7933 -0.786601 0
M  V30 10237 H 945.112 -5.15691 0.95723 0
M  V30 10238 H 946.586 -5.47237 -0.723615 0
M  V30 10239 H 947.063 -4.06309 -1.66763 0
M  V30 10240 H 947.669 -4.253 -0.0062433 0
M  V30 10241 N 945.984 -0.3171 -1.54377 0
M  V30 10242 C 946.914 0.544623 -2.2706 0
M  V30 10243 C 947.895 1.12469 -1.27611 0
M  V30 10244 O 949.08 1.15103 -1.56413 0
M  V30 10245 C 946.21 1.70879 -3.02353 0
M  V30 10246 C 945.164 1.25833 -4.09084 0
M  V30 10247 C 944.49 2.50894 -4.72182 0
M  V30 10248 C 945.79 0.377876 -5.20931 0
M  V30 10249 H 947.484 -0.0616372 -2.99337 0
M  V30 10250 H 945.03 -0.0310848 -1.43966 0
M  V30 10251 H 946.983 2.31787 -3.51927 0
M  V30 10252 H 945.707 2.34155 -2.27682 0
M  V30 10253 H 944.366 0.672228 -3.60384 0
M  V30 10254 H 944.014 3.12518 -3.94134 0
M  V30 10255 H 943.714 2.21447 -5.44275 0
M  V30 10256 H 945.238 3.12575 -5.24528 0
M  V30 10257 H 946.652 0.893056 -5.66302 0
M  V30 10258 H 945.049 0.176474 -5.9984 0
M  V30 10259 H 946.119 -0.592943 -4.81261 0
M  V30 10260 N 947.462 1.57535 -0.0451378 0
M  V30 10261 C 948.394 2.08109 0.960372 0
M  V30 10262 C 949.407 1.0077 1.27864 0
M  V30 10263 O 950.596 1.28351 1.24049 0
M  V30 10264 C 947.696 2.50414 2.28355 0
M  V30 10265 C 946.869 3.8102 2.14808 0
M  V30 10266 C 945.928 4.09702 3.30198 0
M  V30 10267 O 944.954 4.79715 3.0637 0
M  V30 10268 N 946.156 3.61138 4.54489 0
M  V30 10269 H 948.921 2.94999 0.528752 0
M  V30 10270 H 946.482 1.61283 0.141248 0
M  V30 10271 H 948.474 2.66683 3.04405 0
M  V30 10272 H 947.044 1.68805 2.63104 0
M  V30 10273 H 946.264 3.74392 1.23387 0
M  V30 10274 H 947.552 4.66559 2.02978 0
M  V30 10275 H 946.95 3.04527 4.76739 0
M  V30 10276 H 945.507 3.82656 5.27653 0
M  V30 10277 N 948.94 -0.228186 1.55939 0
M  V30 10278 C 949.888 -1.30239 1.92719 0
M  V30 10279 C 950.882 -1.48865 0.808424 0
M  V30 10280 O 952.088 -1.50118 0.993204 0
M  V30 10281 H 948.463 -0.436509 0.612343 0
M  V30 10282 H 950.434 -0.964965 2.82367 0
M  V30 10283 C 949.183 -2.647 2.25453 0
M  V30 10284 H 948.506 -2.51173 3.1105 0
M  V30 10285 H 949.946 -3.38691 2.55077 0
M  V30 10286 C 948.405 -3.1921 1.07734 0
M  V30 10287 O 948.935 -4.00301 0.335019 0
M  V30 10288 N 947.141 -2.77492 0.862938 0
M  V30 10289 H 946.688 -2.11657 1.4683 0
M  V30 10290 H 946.646 -3.14306 0.0770119 0
M  V30 10291 N 950.418 -1.49637 -0.494624 0
M  V30 10292 C 951.368 -1.63168 -1.59249 0
M  V30 10293 C 952.352 -0.487089 -1.5335 0
M  V30 10294 O 953.544 -0.74036 -1.60772 0
M  V30 10295 C 950.673 -1.70744 -2.97828 0
M  V30 10296 C 949.759 -2.90802 -3.08699 0
M  V30 10297 N 950.15 -4.14797 -2.89442 0
M  V30 10298 C 948.448 -2.88871 -3.39808 0
M  V30 10299 C 949.149 -4.95535 -3.04663 0
M  V30 10300 N 948.125 -4.29025 -3.33824 0
M  V30 10301 H 951.927 -2.56751 -1.43024 0
M  V30 10302 H 949.441 -1.46497 -0.700885 0
M  V30 10303 H 951.438 -1.78537 -3.76736 0
M  V30 10304 H 950.098 -0.783024 -3.15117 0
M  V30 10305 H 951.109 -4.44675 -2.6549 0
M  V30 10306 H 947.786 -2.05834 -3.63233 0
M  V30 10307 H 949.176 -6.0406 -2.94214 0
M  V30 10308 N 951.896 0.746133 -1.38819 0
M  V30 10309 C 952.826 1.87344 -1.39372 0
M  V30 10310 C 953.807 1.68123 -0.258583 0
M  V30 10311 O 954.992 1.88606 -0.462769 0
M  V30 10312 C 952.122 3.24962 -1.22543 0
M  V30 10313 C 951.076 3.58799 -2.33339 0
M  V30 10314 C 950.402 4.95235 -2.01609 0
M  V30 10315 C 951.702 3.62911 -3.75624 0
M  V30 10316 H 953.396 1.87138 -2.33709 0
M  V30 10317 H 950.942 0.898937 -1.12495 0
M  V30 10318 H 952.895 4.03488 -1.21554 0
M  V30 10319 H 951.619 3.25667 -0.246707 0
M  V30 10320 H 950.278 2.82596 -2.33527 0
M  V30 10321 H 949.926 4.92508 -1.02202 0
M  V30 10322 H 949.626 5.18843 -2.75819 0
M  V30 10323 H 951.15 5.76131 -2.02251 0
M  V30 10324 H 952.564 4.31535 -3.77426 0
M  V30 10325 H 950.961 3.98031 -4.491 0
M  V30 10326 H 952.031 2.62967 -4.07402 0
M  V30 10327 O 953.413 1.34966 0.886936 0
M  V30 10328 H 954.104 1.19586 1.52377 0
M  V30 END ATOM
M  V30 BEGIN BOND
M  V30 END BOND
M  V30 END CTAB
M  END
$$$$
