drugbank_target|P59676 Penicillin-binding protein 2X (DB03190)
 OpenBabel12092120013D

  0  0  0     0  0            999 V3000
M  V30 BEGIN CTAB
M  V30 COUNTS 11546 11648 0 0 0
M  V30 BEGIN ATOM
M  V30 1 H -0.908 1.98254 -0.117106 0
M  V30 2 N 0 1.576 0 0
M  V30 3 C 0.933 2.03868 1.02534 0
M  V30 4 C 1.911 0.928543 1.3348 0
M  V30 5 O 3.095 1.19667 1.45644 0
M  V30 6 C 0.222 2.43627 2.35294 0
M  V30 7 C -0.732 3.65373 2.2001 0
M  V30 8 S 0.101 5.13292 1.52614 0
M  V30 9 C 1.257 5.56322 2.86805 0
M  V30 10 H 1.49 2.90518 0.631377 0
M  V30 11 H -0.977 1.52953 0.210867 0
M  V30 12 H 0.981 2.67203 3.11629 0
M  V30 13 H -0.358 1.57376 2.7183 0
M  V30 14 H -1.165 3.90944 3.18086 0
M  V30 15 H -1.563 3.418 1.51819 0
M  V30 16 H 0.729 5.58782 3.83104 0
M  V30 17 H 1.672 6.56266 2.65933 0
M  V30 18 H 2.08 4.83886 2.90714 0
M  V30 19 N 1.4781 -0.272755 1.55222 0
M  V30 20 C 2.4251 -1.33716 1.88119 0
M  V30 21 C 3.3951 -1.49066 0.73271 0
M  V30 22 O 4.5801 -1.63469 0.984002 0
M  V30 23 C 1.7201 -2.69238 2.15882 0
M  V30 24 C 0.8331 -2.62108 3.43399 0
M  V30 25 C -0.0319 -3.89811 3.60861 0
M  V30 26 C -0.9929 -3.77193 4.8207 0
M  V30 27 N -1.8559 -4.9673 4.96189 0
M  V30 28 H 2.9841 -1.04962 2.78903 0
M  V30 29 H 0.5211 -0.507088 1.38083 0
M  V30 30 H 2.4791 -3.48089 2.29978 0
M  V30 31 H 1.1091 -2.96194 1.28331 0
M  V30 32 H 0.1611 -1.74967 3.37773 0
M  V30 33 H 1.4731 -2.48685 4.32386 0
M  V30 34 H 0.6271 -4.77103 3.74777 0
M  V30 35 H -0.6339 -4.06102 2.7006 0
M  V30 36 H -1.6289 -2.88284 4.68159 0
M  V30 37 H -0.4039 -3.62421 5.74307 0
M  V30 38 H -2.4579 -5.13431 4.08319 0
M  V30 39 H -2.5409 -4.85839 5.79221 0
M  V30 40 H -1.2729 -5.85594 5.1449 0
M  V30 41 N 2.9562 -1.48159 -0.537278 0
M  V30 42 C 4.2022 -1.57015 -1.29297 0
M  V30 43 C 4.5572 -0.237791 -1.90925 0
M  V30 44 O 3.8502 0.758621 -1.75942 0
M  V30 45 C 4.0442 -2.63956 -2.40961 0
M  V30 46 C 3.8732 -4.07461 -1.90278 0
M  V30 47 C 2.6432 -4.74685 -1.73213 0
M  V30 48 C 4.8412 -4.93858 -1.43556 0
M  V30 49 N 2.8232 -6.02633 -1.17078 0
M  V30 50 C 4.1942 -6.11993 -0.993204 0
M  V30 51 C 6.2492 -4.80141 -1.31792 0
M  V30 52 C 4.9522 -7.17923 -0.444872 0
M  V30 53 C 6.9782 -5.86186 -0.783585 0
M  V30 54 C 6.3402 -7.03524 -0.351261 0
M  V30 55 H 2.4392 -0.629154 -0.464423 0
M  V30 56 H 5.0232 -1.85006 -0.606705 0
M  V30 57 H 3.1942 -2.378 -3.07093 0
M  V30 58 H 4.9262 -2.62539 -3.07986 0
M  V30 59 H 1.6812 -4.30902 -1.9652 0
M  V30 60 H 2.1052 -6.7085 -0.910421 0
M  V30 61 H 6.7472 -3.89772 -1.63823 0
M  V30 62 H 4.4652 -8.08022 -0.11222 0
M  V30 63 H 8.0512 -5.77624 -0.695835 0
M  V30 64 H 6.9312 -7.8418 0.055777 0
M  V30 65 N 4.4343 0.785586 -1.36625 0
M  V30 66 C 5.6623 1.57448 -1.3423 0
M  V30 67 C 6.0773 1.88649 0.0755653 0
M  V30 68 O 5.4343 1.50414 1.03354 0
M  V30 69 C 5.4853 2.89316 -2.16745 0
M  V30 70 O 5.2063 2.59459 -3.53005 0
M  V30 71 C 6.7073 3.83606 -2.22174 0
M  V30 72 H 3.9273 0.488226 -0.4603 0
M  V30 73 H 6.4713 0.974733 -1.79775 0
M  V30 74 H 4.6263 3.4575 -1.74745 0
M  V30 75 H 5.0403 3.43804 -3.96105 0
M  V30 76 H 6.5143 4.73181 -2.8426 0
M  V30 77 H 6.9913 4.21734 -1.22627 0
M  V30 78 H 7.5973 3.33104 -2.64427 0
M  V30 79 N 5.9124 1.20967 1.01018 0
M  V30 80 C 6.8594 0.964281 2.09691 0
M  V30 81 C 7.8294 -0.107853 1.65749 0
M  V30 82 O 9.0144 0.0381987 1.90762 0
M  V30 83 C 6.1544 0.52943 3.41015 0
M  V30 84 C 5.2674 1.67043 3.98398 0
M  V30 85 C 4.4024 1.18525 5.17808 0
M  V30 86 C 3.4414 2.29892 5.67288 0
M  V30 87 N 2.5784 1.82546 6.77954 0
M  V30 88 H 7.4184 1.89463 2.30017 0
M  V30 89 H 4.9554 0.944289 1.1279 0
M  V30 90 H 6.9134 0.258588 4.16398 0
M  V30 91 H 5.5434 -0.363919 3.20742 0
M  V30 92 H 4.5954 2.05603 3.20049 0
M  V30 93 H 5.9074 2.50877 4.31117 0
M  V30 94 H 5.0614 0.870762 6.00419 0
M  V30 95 H 3.8004 0.316887 4.86669 0
M  V30 96 H 2.8054 2.6215 4.83278 0
M  V30 97 H 4.0304 3.17216 6.00459 0
M  V30 98 H 1.9764 0.980454 6.48632 0
M  V30 99 H 1.8934 2.59956 7.09901 0
M  V30 100 H 3.1614 1.54115 7.64113 0
M  V30 101 N 7.3905 -1.2043 1.01659 0
M  V30 102 C 8.8065 -1.41852 0.731442 0
M  V30 103 C 9.0065 -1.89358 -0.688898 0
M  V30 104 O 8.0625 -2.06247 -1.45666 0
M  V30 105 C 9.3755 -2.44019 1.75714 0
M  V30 106 C 10.9235 -2.57785 1.77527 0
M  V30 107 C 11.3985 -3.63194 2.79023 0
M  V30 108 N 12.8895 -3.70678 2.77763 0
M  V30 109 C 13.6245 -4.51897 3.52954 0
M  V30 110 N 13.1205 -5.36921 4.37821 0
M  V30 111 N 14.9135 -4.4643 3.41551 0
M  V30 112 H 7.0645 -0.879093 1.93354 0
M  V30 113 H 9.3275 -0.448425 0.835236 0
M  V30 114 H 9.0335 -2.1611 2.77469 0
M  V30 115 H 8.9075 -3.43007 1.56927 0
M  V30 116 H 11.2945 -2.85023 0.764569 0
M  V30 117 H 11.3755 -1.58992 2.00387 0
M  V30 118 H 11.0195 -3.36699 3.80258 0
M  V30 119 H 10.9495 -4.61609 2.53425 0
M  V30 120 H 13.4405 -3.09944 2.16201 0
M  V30 121 H 13.7535 -5.95981 4.91962 0
M  V30 122 H 12.0985 -5.36424 4.41899 0
M  V30 123 H 15.2895 -3.79042 2.74672 0
M  V30 124 H 15.4625 -5.09491 4.00404 0
M  V30 125 N 8.8686 -0.792821 -1.36206 0
M  V30 126 C 10.1146 -0.36733 -1.99446 0
M  V30 127 C 10.4476 1.05917 -1.62774 0
M  V30 128 O 9.7226 1.7324 -0.88421 0
M  V30 129 C 10.0056 -0.535044 -3.56103 0
M  V30 130 C 9.8586 -2.00548 -4.02617 0
M  V30 131 C 11.1776 0.0478191 -4.40074 0
M  V30 132 H 8.2966 -0.134941 -0.724541 0
M  V30 133 H 10.9386 -0.999794 -1.61568 0
M  V30 134 H 9.0886 0.00336329 -3.885 0
M  V30 135 H 10.7606 -2.60521 -3.80692 0
M  V30 136 H 9.0036 -2.50686 -3.54032 0
M  V30 137 H 9.6746 -2.07377 -5.11565 0
M  V30 138 H 12.1506 -0.411822 -4.14057 0
M  V30 139 H 11.0266 -0.0995336 -5.4881 0
M  V30 140 H 11.2876 1.14025 -4.27142 0
M  V30 141 N 10.3467 1.47872 -0.545128 0
M  V30 142 C 11.5957 2.01695 -0.0145033 0
M  V30 143 C 11.9087 1.42609 1.33873 0
M  V30 144 O 13.1147 1.88021 1.95858 0
M  V30 145 C 11.5707 3.59892 0.0245068 0
M  V30 146 C 11.1787 4.27966 -1.32475 0
M  V30 147 C 12.9227 4.21507 0.50316 0
M  V30 148 C 10.8297 5.78136 -1.2455 0
M  V30 149 H 9.7597 0.753998 -0.00165172 0
M  V30 150 H 12.4107 1.69985 -0.691175 0
M  V30 151 H 10.7927 3.88509 0.766575 0
M  V30 152 H 11.9667 4.11003 -2.08357 0
M  V30 153 H 10.2817 3.78286 -1.74036 0
M  V30 154 H 12.8787 5.31538 0.580656 0
M  V30 155 H 13.2217 3.87855 1.51243 0
M  V30 156 H 13.7547 3.97376 -0.183681 0
M  V30 157 H 10.4937 6.16388 -2.23039 0
M  V30 158 H 10.0137 5.97469 -0.528282 0
M  V30 159 H 11.6927 6.40099 -0.942488 0
M  V30 160 N 11.8248 0.280983 1.55075 0
M  V30 161 C 13.2408 -0.0729964 1.59433 0
M  V30 162 C 13.4408 -1.5411 1.29817 0
M  V30 163 O 12.4968 -2.29086 1.06187 0
M  V30 164 C 13.8098 0.306921 2.9913 0
M  V30 165 C 15.3578 0.254023 3.11968 0
M  V30 166 C 15.8328 0.608467 4.5394 0
M  V30 167 N 17.3238 0.560241 4.59799 0
M  V30 168 C 18.0588 0.80722 5.6769 0
M  V30 169 N 17.5548 1.11912 6.83701 0
M  V30 170 N 19.3478 0.735623 5.57266 0
M  V30 171 H 11.4988 1.238 1.7259 0
M  V30 172 H 13.7618 0.500547 0.805082 0
M  V30 173 H 13.4678 1.32816 3.25657 0
M  V30 174 H 13.3418 -0.349363 3.75579 0
M  V30 175 H 15.7288 -0.75794 2.852 0
M  V30 176 H 15.8098 0.944649 2.37718 0
M  V30 177 H 15.4538 1.61814 4.81434 0
M  V30 178 H 15.3838 -0.104013 5.26497 0
M  V30 179 H 17.8748 0.329288 3.76463 0
M  V30 180 H 18.1878 1.29409 7.61888 0
M  V30 181 H 16.5328 1.15695 6.85303 0
M  V30 182 H 19.7238 0.491752 4.6551 0
M  V30 183 H 19.8968 0.931482 6.4127 0
M  V30 184 N 13.3029 -1.57598 0.00835791 0
M  V30 185 C 14.5329 -1.94931 -0.684496 0
M  V30 186 C 14.9409 -0.882233 -1.67372 0
M  V30 187 O 14.2839 0.146621 -1.83114 0
M  V30 188 C 14.3459 -3.283 -1.4649 0
M  V30 189 C 14.0099 -4.52548 -0.63634 0
M  V30 190 C 15.0069 -5.19839 0.0795586 0
M  V30 191 C 12.6919 -4.98942 -0.579849 0
M  V30 192 C 14.6859 -6.3183 0.840843 0
M  V30 193 C 12.3729 -6.10819 0.185155 0
M  V30 194 C 13.3709 -6.77121 0.894227 0
M  V30 195 O 13.0589 -7.86853 1.64673 0
M  V30 196 H 12.7909 -0.647249 -0.19505 0
M  V30 197 H 15.3449 -2.05318 0.0581272 0
M  V30 198 H 13.5749 -3.14345 -2.2522 0
M  V30 199 H 15.2639 -3.50685 -2.04389 0
M  V30 200 H 16.0299 -4.84979 0.0451202 0
M  V30 201 H 11.9089 -4.47155 -1.1213 0
M  V30 202 H 15.4529 -6.83513 1.39483 0
M  V30 203 H 11.3499 -6.4512 0.221384 0
M  V30 204 H 12.1179 -8.03412 1.56432 0
M  V30 205 N 14.781 0.264519 -1.55364 0
M  V30 206 C 15.744 1.31046 -1.88042 0
M  V30 207 C 16.744 1.41943 -0.755569 0
M  V30 208 O 17.934 1.40947 -1.02369 0
M  V30 209 C 15.066 2.69067 -2.09323 0
M  V30 210 H 16.259 1.03297 -2.81549 0
M  V30 211 H 13.812 0.502989 -1.47986 0
M  V30 212 H 14.547 3.01982 -1.18226 0
M  V30 213 H 14.332 2.62542 -2.91229 0
M  V30 214 H 15.822 3.44623 -2.35848 0
M  V30 215 N 16.2591 1.48442 0.529413 0
M  V30 216 C 17.4871 1.60151 1.30994 0
M  V30 217 C 17.9021 0.261985 1.86973 0
M  V30 218 O 17.2591 -0.748805 1.66431 0
M  V30 219 C 17.3101 2.64854 2.46038 0
M  V30 220 O 17.0311 3.93608 1.92365 0
M  V30 221 C 18.5321 2.87007 3.37849 0
M  V30 222 H 15.7521 0.539971 0.398338 0
M  V30 223 H 18.2961 1.94273 0.638597 0
M  V30 224 H 16.4511 2.33589 3.09055 0
M  V30 225 H 16.8651 4.51055 2.67675 0
M  V30 226 H 18.3391 3.64068 4.14919 0
M  V30 227 H 18.8161 1.95852 3.93114 0
M  V30 228 H 19.4221 3.19579 2.80623 0
M  V30 229 N 17.7372 -0.778329 1.37039 0
M  V30 230 C 18.6842 -1.89139 1.32269 0
M  V30 231 C 19.6542 -1.65017 0.189387 0
M  V30 232 O 20.8392 -1.87024 0.377693 0
M  V30 233 C 17.9792 -3.26112 1.12894 0
M  V30 234 C 17.0922 -3.62233 2.35396 0
M  V30 235 C 16.2272 -4.8838 2.08946 0
M  V30 236 C 15.2662 -5.17212 3.2735 0
M  V30 237 N 14.4032 -6.34546 3.00492 0
M  V30 238 H 19.2432 -1.92552 2.27437 0
M  V30 239 H 16.7802 -0.941473 1.13025 0
M  V30 240 H 18.7382 -4.05116 0.996835 0
M  V30 241 H 17.3682 -3.22091 0.213758 0
M  V30 242 H 16.4202 -2.78265 2.5937 0
M  V30 243 H 17.7322 -3.79481 3.23721 0
M  V30 244 H 16.8862 -5.75274 1.92729 0
M  V30 245 H 15.6252 -4.73222 1.17949 0
M  V30 246 H 14.6302 -4.28796 3.44113 0
M  V30 247 H 15.8552 -5.34283 4.19188 0
M  V30 248 H 13.8012 -6.20759 2.12118 0
M  V30 249 H 13.7182 -6.52179 3.82358 0
M  V30 250 H 14.9862 -7.24394 2.87879 0
M  V30 251 N 19.2153 -1.21501 -1.00376 0
M  V30 252 C 20.1633 -0.972442 -2.11297 0
M  V30 253 C 21.1573 0.080731 -1.69208 0
M  V30 254 O 22.3633 -0.0707666 -1.79861 0
M  V30 255 H 18.7383 -0.297218 -0.690772 0
M  V30 256 H 20.7093 -1.91394 -2.28934 0
M  V30 257 C 19.4583 -0.555065 -3.43241 0
M  V30 258 H 18.7813 -1.35709 -3.76062 0
M  V30 259 H 20.2213 -0.424664 -4.21868 0
M  V30 260 C 18.6803 0.734147 -3.28804 0
M  V30 261 O 19.2103 1.78937 -3.59645 0
M  V30 262 N 17.4163 0.701133 -2.82015 0
M  V30 263 H 16.9633 -0.157874 -2.57116 0
M  V30 264 H 16.9213 1.56403 -2.72737 0
M  V30 265 N 20.6934 1.19889 -1.02296 0
M  V30 266 C 22.1094 1.41462 -0.738954 0
M  V30 267 C 22.3094 1.89721 0.678846 0
M  V30 268 O 21.3654 2.07016 1.4457 0
M  V30 269 C 22.6784 2.43083 -1.77005 0
M  V30 270 C 24.2264 2.5684 -1.78892 0
M  V30 271 C 24.7014 3.61709 -2.80945 0
M  V30 272 N 26.1924 3.69199 -2.79725 0
M  V30 273 C 26.9274 4.50019 -3.55345 0
M  V30 274 N 26.4234 5.34592 -4.40662 0
M  V30 275 N 28.2164 4.44612 -3.43914 0
M  V30 276 H 20.3674 0.868827 -1.93817 0
M  V30 277 H 22.6304 0.44399 -0.837602 0
M  V30 278 H 22.3364 2.14636 -2.78612 0
M  V30 279 H 22.2104 3.4217 -1.58744 0
M  V30 280 H 24.5974 2.84614 -0.779674 0
M  V30 281 H 24.6784 1.57927 -2.01228 0
M  V30 282 H 24.3224 3.34678 -3.82038 0
M  V30 283 H 24.2524 4.60259 -2.5587 0
M  V30 284 H 26.7434 3.08794 -2.17842 0
M  V30 285 H 27.0564 5.93363 -4.95116 0
M  V30 286 H 25.4014 5.34073 -4.44737 0
M  V30 287 H 28.5924 3.7758 -2.76679 0
M  V30 288 H 28.7654 5.0736 -4.031 0
M  V30 289 N 22.1715 0.800033 1.35784 0
M  V30 290 C 23.1185 0.203848 2.29898 0
M  V30 291 C 24.0885 -0.658375 1.52495 0
M  V30 292 O 25.2735 -0.604832 1.8096 0
M  V30 293 C 22.4135 -0.64688 3.38983 0
M  V30 294 C 21.5265 0.235054 4.3136 0
M  V30 295 C 20.6615 -0.623054 5.27533 0
M  V30 296 C 19.7005 0.259682 6.11549 0
M  V30 297 N 18.8375 -0.558019 6.99879 0
M  V30 298 H 23.6775 1.01186 2.80295 0
M  V30 299 H 21.2145 0.51053 1.37957 0
M  V30 300 H 23.1725 -1.15521 4.00887 0
M  V30 301 H 21.8025 -1.42021 2.89879 0
M  V30 302 H 20.8545 0.861438 3.70518 0
M  V30 303 H 22.1665 0.914768 4.9034 0
M  V30 304 H 21.3205 -1.19678 5.94779 0
M  V30 305 H 20.0595 -1.33636 4.69034 0
M  V30 306 H 19.0645 0.845726 5.43256 0
M  V30 307 H 20.2895 0.970748 6.72126 0
M  V30 308 H 18.2355 -1.25542 6.43875 0
M  V30 309 H 18.1525 0.0637872 7.55973 0
M  V30 310 H 19.4205 -1.11523 7.71481 0
M  V30 311 N 23.6496 -1.47581 0.552962 0
M  V30 312 C 24.8746 -2.07378 0.0300593 0
M  V30 313 C 25.2996 -1.40355 -1.25229 0
M  V30 314 O 24.6576 -0.477099 -1.7491 0
M  V30 315 C 24.7056 -3.60274 -0.153231 0
M  V30 316 O 23.8096 -3.94041 -1.21678 0
M  V30 317 H 23.1506 -0.662158 0.0494182 0
M  V30 318 H 25.6806 -1.89662 0.767434 0
M  V30 319 H 25.6906 -4.0633 -0.368761 0
M  V30 320 H 24.3656 -4.08455 0.783397 0
M  V30 321 H 22.9426 -3.59735 -0.982079 0
M  V30 322 N 25.1277 -0.289203 -1.54924 0
M  V30 323 C 26.5387 0.205791 -1.85562 0
M  V30 324 C 26.8897 1.54351 -1.2112 0
M  V30 325 O 26.0147 2.10435 -0.504601 0
M  V30 326 C 26.6097 0.380177 -3.3666 0
M  V30 327 C 25.1687 0.819395 -3.67373 0
M  V30 328 C 24.3157 -0.079159 -2.77187 0
M  V30 329 H 27.2667 -0.510577 -1.50262 0
M  V30 330 H 27.2877 1.21659 -3.60526 0
M  V30 331 H 26.7997 -0.593589 -3.83534 0
M  V30 332 H 24.9007 1.80413 -3.26009 0
M  V30 333 H 25.0137 0.646957 -4.74712 0
M  V30 334 H 23.3777 0.439565 -2.50878 0
M  V30 335 H 24.1607 -1.04906 -3.26878 0
M  V30 336 N 26.6058 1.57591 -0.0167156 0
M  V30 337 C 27.5688 2.08393 0.954204 0
M  V30 338 C 28.5688 0.996531 1.26198 0
M  V30 339 O 29.7588 1.25858 1.20438 0
M  V30 340 C 26.8908 2.5394 2.27436 0
M  V30 341 H 28.0838 2.95455 0.514451 0
M  V30 342 H 25.6368 1.54582 0.231089 0
M  V30 343 H 26.3718 1.70171 2.76066 0
M  V30 344 H 26.1568 3.33371 2.06412 0
M  V30 345 H 27.6468 2.93512 2.97053 0
M  V30 346 N 28.0839 -0.256276 1.55502 0
M  V30 347 C 28.9939 -1.33882 1.92647 0
M  V30 348 C 30.0099 -1.53159 0.825727 0
M  V30 349 O 31.1859 -1.66963 1.12629 0
M  V30 350 C 28.2509 -2.6751 2.20543 0
M  V30 351 C 27.3119 -2.56836 3.43997 0
M  V30 352 C 26.5449 -3.84092 3.70553 0
M  V30 353 O 26.7679 -4.85545 2.99336 0
M  V30 354 O 25.7019 -3.83288 4.64084 0
M  V30 355 H 29.5279 -1.05374 2.84833 0
M  V30 356 H 27.1129 -0.456237 1.42263 0
M  V30 357 H 28.9949 -3.46492 2.39835 0
M  V30 358 H 27.6699 -2.9577 1.31536 0
M  V30 359 H 26.5769 -1.76172 3.30021 0
M  V30 360 H 27.9099 -2.33523 4.33275 0
M  V30 361 N 29.562 -1.4872 -0.521534 0
M  V30 362 C 30.51 -1.64328 -1.64618 0
M  V30 363 C 31.504 -0.50953 -1.61555 0
M  V30 364 O 32.71 -0.688525 -1.66311 0
M  V30 365 H 29.085 -0.517805 -0.545328 0
M  V30 366 H 31.056 -2.58767 -1.48601 0
M  V30 367 C 29.805 -1.70805 -3.02855 0
M  V30 368 H 29.128 -2.5741 -3.05909 0
M  V30 369 H 30.568 -1.85766 -3.81139 0
M  V30 370 C 29.027 -0.448479 -3.33902 0
M  V30 371 O 29.557 0.434928 -3.99339 0
M  V30 372 N 27.763 -0.317616 -2.88859 0
M  V30 373 H 27.31 -1.03748 -2.35784 0
M  V30 374 H 27.268 0.524113 -3.10001 0
M  V30 375 N 31.0401 0.771051 -1.3745 0
M  V30 376 C 32.4561 1.07171 -1.18265 0
M  V30 377 C 32.6561 2.01491 -0.019287 0
M  V30 378 O 31.7121 2.44244 0.640408 0
M  V30 379 C 33.0251 1.66854 -2.50161 0
M  V30 380 C 34.5731 1.79109 -2.56689 0
M  V30 381 C 35.0481 2.42205 -3.88717 0
M  V30 382 N 36.5391 2.49655 -3.90162 0
M  V30 383 C 37.2741 2.9933 -4.8907 0
M  V30 384 N 36.7701 3.49172 -5.98374 0
M  V30 385 N 38.5631 2.9821 -4.76474 0
M  V30 386 H 30.7141 0.144796 -2.11906 0
M  V30 387 H 32.9771 0.126863 -0.939473 0
M  V30 388 H 32.6831 1.05017 -3.35655 0
M  V30 389 H 32.5571 2.6614 -2.673 0
M  V30 390 H 34.9441 2.40077 -1.71601 0
M  V30 391 H 35.0251 0.785757 -2.43433 0
M  V30 392 H 34.6691 1.81875 -4.74219 0
M  V30 393 H 34.5991 3.43345 -3.99276 0
M  V30 394 H 37.0901 2.14383 -3.11205 0
M  V30 395 H 37.4031 3.8548 -6.69795 0
M  V30 396 H 35.7481 3.47275 -6.02018 0
M  V30 397 H 38.9391 2.58572 -3.90203 0
M  V30 398 H 39.1121 3.36613 -5.53711 0
M  V30 399 N 32.5182 1.22032 0.997298 0
M  V30 400 C 33.9342 0.979326 1.26021 0
M  V30 401 C 34.1342 -0.32972 1.98784 0
M  V30 402 O 33.1902 -1.05345 2.29475 0
M  V30 403 C 34.5032 2.17509 2.07631 0
M  V30 404 C 36.0512 2.21817 2.2083 0
M  V30 405 C 36.5262 3.40933 3.05825 0
M  V30 406 N 38.0172 3.41067 3.13412 0
M  V30 407 C 38.7522 4.29885 3.79455 0
M  V30 408 N 38.2482 5.28914 4.47462 0
M  V30 409 N 40.0412 4.17673 3.76173 0
M  V30 410 H 32.1922 2.06202 0.509352 0
M  V30 411 H 34.4552 0.90334 0.287541 0
M  V30 412 H 34.1612 3.12415 1.61524 0
M  V30 413 H 34.0352 2.17206 3.08385 0
M  V30 414 H 36.4222 1.27462 2.66153 0
M  V30 415 H 36.5032 2.2616 1.1952 0
M  V30 416 H 36.1472 4.35586 2.61203 0
M  V30 417 H 36.0772 3.33829 4.07266 0
M  V30 418 H 38.5682 2.69406 2.65007 0
M  V30 419 H 38.8812 5.92973 4.95583 0
M  V30 420 H 37.2262 5.32831 4.46224 0
M  V30 421 H 40.4172 3.39564 3.22202 0
M  V30 422 H 40.5902 4.87098 4.27363 0
M  V30 423 N 33.9963 -1.19345 1.0293 0
M  V30 424 C 35.4123 -1.41069 0.746446 0
M  V30 425 C 35.6123 -1.90078 -0.668776 0
M  V30 426 O 34.6683 -2.0778 -1.4347 0
M  V30 427 C 35.9813 -2.42141 1.78292 0
M  V30 428 C 37.5293 -2.55887 1.80252 0
M  V30 429 C 38.0043 -3.60214 2.8286 0
M  V30 430 N 39.4953 -3.67711 2.81679 0
M  V30 431 C 40.2303 -4.48128 3.57727 0
M  V30 432 N 39.7263 -5.32248 4.43491 0
M  V30 433 N 41.5193 -4.42782 3.46267 0
M  V30 434 H 33.6703 -0.858536 1.94275 0
M  V30 435 H 35.9333 -0.439541 0.839945 0
M  V30 436 H 35.6393 -2.13155 2.79746 0
M  V30 437 H 35.5133 -3.41323 1.60557 0
M  V30 438 H 37.9003 -2.84196 0.794757 0
M  V30 439 H 37.9813 -1.56858 2.02062 0
M  V30 440 H 37.6253 -3.32647 3.83807 0
M  V30 441 H 37.5553 -4.58895 2.58307 0
M  V30 442 H 40.0463 -3.07634 2.19476 0
M  V30 443 H 40.3593 -5.90729 4.98256 0
M  V30 444 H 38.7043 -5.31707 4.47564 0
M  V30 445 H 41.8953 -3.76107 2.78677 0
M  V30 446 H 42.0683 -5.05215 4.05785 0
M  V30 447 N 35.4744 -0.807222 -1.35358 0
M  V30 448 C 36.7204 -0.388463 -1.99045 0
M  V30 449 C 37.0534 1.04184 -1.63888 0
M  V30 450 O 36.3284 1.72292 -0.902535 0
M  V30 451 C 36.6114 -0.572783 -3.55515 0
M  V30 452 C 36.4644 -2.04807 -4.00468 0
M  V30 453 C 37.7834 0.00114064 -4.401 0
M  V30 454 H 34.9024 -0.142619 -0.723069 0
M  V30 455 H 37.5444 -1.01687 -1.60498 0
M  V30 456 H 35.6944 -0.0378425 -3.88482 0
M  V30 457 H 37.3664 -2.64544 -3.77908 0
M  V30 458 H 35.6094 -2.54427 -3.51353 0
M  V30 459 H 36.2804 -2.12792 -5.09337 0
M  V30 460 H 38.7564 -0.455716 -4.13597 0
M  V30 461 H 37.6324 -0.157737 -5.48673 0
M  V30 462 H 37.8934 1.09488 -4.28328 0
M  V30 463 N 36.9525 1.47285 -0.560781 0
M  V30 464 C 38.2005 2.02064 -0.0379868 0
M  V30 465 C 38.5215 1.43711 1.31803 0
M  V30 466 O 37.7915 0.61362 1.86042 0
M  V30 467 H 36.3715 0.746918 -0.0110531 0
M  V30 468 H 39.0335 1.80648 -0.731598 0
M  V30 469 H 38.1295 3.12064 0.0474463 0
M  V30 470 N 38.4306 0.297415 1.54768 0
M  V30 471 C 39.3776 -0.580276 2.23386 0
M  V30 472 C 40.3476 -1.13238 1.21517 0
M  V30 473 O 41.5326 -1.17757 1.50126 0
M  V30 474 C 38.6726 -1.74801 2.97555 0
M  V30 475 C 37.7856 -1.22764 4.1419 0
M  V30 476 C 36.9206 -2.35895 4.75949 0
M  V30 477 C 35.9596 -1.80974 5.84735 0
M  V30 478 N 35.0966 -2.87664 6.40464 0
M  V30 479 H 39.9366 0.0114833 2.97998 0
M  V30 480 H 37.4736 0.0174361 1.4709 0
M  V30 481 H 39.4316 -2.43475 3.38786 0
M  V30 482 H 38.0616 -2.31145 2.25326 0
M  V30 483 H 37.1136 -0.433271 3.77924 0
M  V30 484 H 38.4256 -0.785551 4.92575 0
M  V30 485 H 37.5796 -3.12523 5.20014 0
M  V30 486 H 36.3186 -2.83429 3.96887 0
M  V30 487 H 35.3236 -1.02834 5.40097 0
M  V30 488 H 36.5486 -1.34348 6.65678 0
M  V30 489 H 34.4946 -3.34538 5.64287 0
M  V30 490 H 34.4116 -2.4794 7.14186 0
M  V30 491 H 35.6796 -3.642 6.89187 0
M  V30 492 N 39.9087 -1.5758 0.0250728 0
M  V30 493 C 41.1337 -1.96337 -0.668317 0
M  V30 494 C 41.5587 -0.901314 -1.651 0
M  V30 495 O 40.9167 0.138187 -1.80773 0
M  V30 496 C 40.9647 -3.34191 -1.35457 0
M  V30 497 O 40.0687 -3.30269 -2.46974 0
M  V30 498 H 39.4097 -0.640281 -0.175887 0
M  V30 499 H 41.9397 -2.0442 0.0857224 0
M  V30 500 H 41.9497 -3.70331 -1.71228 0
M  V30 501 H 40.6247 -4.11036 -0.634218 0
M  V30 502 H 39.2017 -3.05841 -2.13344 0
M  V30 503 N 41.3868 0.248026 -1.55636 0
M  V30 504 C 42.3168 1.31079 -1.93237 0
M  V30 505 C 43.2978 1.50264 -0.797174 0
M  V30 506 O 44.4828 1.62891 -1.05737 0
M  V30 507 C 41.6128 2.66575 -2.22609 0
M  V30 508 C 40.5668 2.62087 -3.3837 0
M  V30 509 C 39.8928 4.01369 -3.53281 0
M  V30 510 C 41.1928 2.19171 -4.7409 0
M  V30 511 H 42.8868 0.998556 -2.82257 0
M  V30 512 H 40.4328 0.47891 -1.35803 0
M  V30 513 H 42.3858 3.41057 -2.47503 0
M  V30 514 H 41.1098 2.99432 -1.30414 0
M  V30 515 H 39.7688 1.90063 -3.13483 0
M  V30 516 H 39.4168 4.31489 -2.58508 0
M  V30 517 H 39.1168 3.99254 -4.31127 0
M  V30 518 H 40.6408 4.77552 -3.80495 0
M  V30 519 H 42.0548 2.83384 -4.98363 0
M  V30 520 H 40.4518 2.2817 -5.5503 0
M  V30 521 H 41.5218 1.14336 -4.71227 0
M  V30 522 N 42.8649 1.48995 0.513639 0
M  V30 523 C 44.0899 1.61792 1.29762 0
M  V30 524 C 44.5149 0.284475 1.85936 0
M  V30 525 O 43.8729 -0.746185 1.65232 0
M  V30 526 C 43.9209 2.67993 2.41272 0
M  V30 527 O 43.0249 2.26287 3.44772 0
M  V30 528 H 42.3659 0.541963 0.38363 0
M  V30 529 H 44.8959 1.95097 0.616307 0
M  V30 530 H 44.9059 2.89772 2.87221 0
M  V30 531 H 43.5809 3.64791 1.9975 0
M  V30 532 H 42.1579 2.14788 3.04829 0
M  V30 533 N 44.343 -0.763751 1.37857 0
M  V30 534 C 45.273 -1.89103 1.36975 0
M  V30 535 C 46.254 -1.68439 0.237152 0
M  V30 536 O 47.439 -1.8918 0.438713 0
M  V30 537 C 44.569 -3.26496 1.18395 0
M  V30 538 C 43.523 -3.61741 2.28751 0
M  V30 539 C 42.849 -4.97762 1.95286 0
M  V30 540 C 44.149 -3.67665 3.70972 0
M  V30 541 H 45.843 -1.90099 2.31307 0
M  V30 542 H 43.389 -0.91319 1.11341 0
M  V30 543 H 45.342 -4.05003 1.16406 0
M  V30 544 H 44.066 -3.25955 0.205215 0
M  V30 545 H 42.725 -2.85547 2.29909 0
M  V30 546 H 42.373 -4.93769 0.959221 0
M  V30 547 H 42.073 -5.22313 2.69189 0
M  V30 548 H 43.597 -5.7866 1.94898 0
M  V30 549 H 45.011 -4.36307 3.719 0
M  V30 550 H 43.408 -4.03718 4.43995 0
M  V30 551 H 44.478 -2.68134 4.0402 0
M  V30 552 N 45.8211 -1.22559 -0.990812 0
M  V30 553 C 46.7511 -1.0218 -2.09956 0
M  V30 554 C 47.7321 0.0579394 -1.70001 0
M  V30 555 O 48.9171 -0.104684 -1.93918 0
M  V30 556 C 46.0471 -0.601023 -3.4206 0
M  V30 557 C 45.0011 -1.62694 -3.95872 0
M  V30 558 C 44.3271 -1.06193 -5.24049 0
M  V30 559 C 45.6271 -3.01743 -4.2632 0
M  V30 560 H 47.3211 -1.94916 -2.27262 0
M  V30 561 H 44.8671 -0.938566 -1.09211 0
M  V30 562 H 46.8201 -0.445561 -4.19038 0
M  V30 563 H 45.5441 0.362005 -3.24588 0
M  V30 564 H 44.2031 -1.77021 -3.21028 0
M  V30 565 H 43.8511 -0.0901903 -5.02919 0
M  V30 566 H 43.5511 -1.74732 -5.61019 0
M  V30 567 H 45.0751 -0.918092 -6.03658 0
M  V30 568 H 46.4891 -2.90777 -4.94087 0
M  V30 569 H 44.8861 -3.67425 -4.74467 0
M  V30 570 H 45.9561 -3.51518 -3.34011 0
M  V30 571 N 47.2992 1.18797 -1.03562 0
M  V30 572 C 48.5242 1.9314 -0.755764 0
M  V30 573 C 48.9492 1.7537 0.68022 0
M  V30 574 O 48.3072 1.06046 1.47051 0
M  V30 575 C 48.3552 3.42747 -1.12058 0
M  V30 576 O 47.4592 4.11683 -0.243124 0
M  V30 577 H 46.8002 0.602724 -0.278604 0
M  V30 578 H 49.3302 1.50678 -1.3841 0
M  V30 579 H 49.3402 3.93437 -1.08035 0
M  V30 580 H 48.0152 3.55002 -2.16672 0
M  V30 581 H 46.5922 3.71323 -0.342539 0
M  V30 582 N 48.7773 0.814389 1.34928 0
M  V30 583 C 50.0233 0.399013 1.98836 0
M  V30 584 C 50.3563 -1.03314 1.64438 0
M  V30 585 O 49.6313 -1.71811 0.911659 0
M  V30 586 C 49.9143 0.591629 3.55207 0
M  V30 587 C 49.7673 2.06928 3.99376 0
M  V30 588 C 51.0863 0.022199 4.40094 0
M  V30 589 H 48.2053 0.146451 0.722303 0
M  V30 590 H 50.8473 1.02537 1.59957 0
M  V30 591 H 48.9973 0.0584441 3.88456 0
M  V30 592 H 50.6693 2.66544 3.76499 0
M  V30 593 H 48.9123 2.56287 3.49999 0
M  V30 594 H 49.5833 2.1549 5.08201 0
M  V30 595 H 52.0593 0.477643 4.13349 0
M  V30 596 H 50.9353 0.186832 5.48582 0
M  V30 597 H 51.1963 -1.07215 4.28902 0
M  V30 598 N 50.2554 -1.46986 0.568584 0
M  V30 599 C 51.5024 -2.02441 0.0487986 0
M  V30 600 C 51.8304 -1.44169 -1.30559 0
M  V30 601 O 51.0854 -0.591213 -1.86556 0
M  V30 602 C 51.3844 -3.57306 -0.081836 0
M  V30 603 C 51.0504 -4.34552 1.20313 0
M  V30 604 C 49.7124 -4.55376 1.5552 0
M  V30 605 C 52.0644 -4.79016 2.05411 0
M  V30 606 C 49.3924 -5.17913 2.7565 0
M  V30 607 C 51.7444 -5.42879 3.24754 0
M  V30 608 C 50.4084 -5.61933 3.60261 0
M  V30 609 H 49.6784 -0.740785 0.0178567 0
M  V30 610 H 52.3254 -1.76525 0.742384 0
M  V30 611 H 50.6304 -3.8228 -0.858463 0
M  V30 612 H 52.3274 -3.97876 -0.499546 0
M  V30 613 H 48.9174 -4.18631 0.919014 0
M  V30 614 H 53.1014 -4.62696 1.79516 0
M  V30 615 H 48.3574 -5.30858 3.03315 0
M  V30 616 H 52.5314 -5.76293 3.90973 0
M  V30 617 H 50.1584 -6.10161 4.53439 0
M  V30 618 N 51.7335 -0.305618 -1.54608 0
M  V30 619 C 52.9795 0.302746 -2.00528 0
M  V30 620 C 53.3125 1.53184 -1.19367 0
M  V30 621 O 52.5875 1.92598 -0.271321 0
M  V30 622 C 52.8705 0.654756 -3.54097 0
M  V30 623 C 52.7235 -0.583793 -4.45995 0
M  V30 624 C 54.0425 1.47947 -4.14487 0
M  V30 625 H 51.1615 0.108564 -0.72896 0
M  V30 626 H 53.8035 -0.418634 -1.85331 0
M  V30 627 H 51.9535 1.26935 -3.67178 0
M  V30 628 H 53.6255 -1.22224 -4.44814 0
M  V30 629 H 51.8685 -1.21615 -4.16404 0
M  V30 630 H 52.5395 -0.293287 -5.5122 0
M  V30 631 H 55.0155 0.96013 -4.04871 0
M  V30 632 H 53.8915 1.69454 -5.22088 0
M  V30 633 H 54.1525 2.47011 -3.66658 0
M  V30 634 N 53.2116 1.57565 -0.0334293 0
M  V30 635 C 54.4586 1.91978 0.644272 0
M  V30 636 C 54.7866 0.910231 1.71887 0
M  V30 637 O 54.0416 -0.0801961 1.95536 0
M  V30 638 C 54.3406 3.33112 1.29504 0
M  V30 639 C 54.0066 4.49537 0.350388 0
M  V30 640 C 52.6686 4.81115 0.0903974 0
M  V30 641 C 55.0206 5.20347 -0.298032 0
M  V30 642 C 52.3486 5.8086 -0.825746 0
M  V30 643 C 54.7006 6.2107 -1.20226 0
M  V30 644 C 53.3646 6.51088 -1.4711 0
M  V30 645 H 52.6346 0.702496 0.235756 0
M  V30 646 H 55.2816 1.91259 -0.0961176 0
M  V30 647 H 53.5866 3.30113 2.11028 0
M  V30 648 H 55.2836 3.57011 1.82603 0
M  V30 649 H 51.8736 4.24883 0.563205 0
M  V30 650 H 56.0576 4.96178 -0.110234 0
M  V30 651 H 51.3136 6.02461 -1.04169 0
M  V30 652 H 55.4876 6.75057 -1.71086 0
M  V30 653 H 53.1146 7.28193 -2.18264 0
M  V30 654 N 54.6897 -0.239769 1.55765 0
M  V30 655 C 55.6527 -1.28038 1.90103 0
M  V30 656 C 56.6527 -1.40723 0.778055 0
M  V30 657 O 57.8427 -1.39301 1.04599 0
M  V30 658 C 54.9747 -2.65702 2.13577 0
M  V30 659 H 56.1677 -0.988048 2.83157 0
M  V30 660 H 53.7207 -0.479382 1.48767 0
M  V30 661 H 54.4557 -3.00063 1.23015 0
M  V30 662 H 54.2407 -2.57875 2.95369 0
M  V30 663 H 55.7307 -3.40828 2.41301 0
M  V30 664 N 56.1678 -1.49265 -0.50573 0
M  V30 665 C 57.4168 -1.57761 -1.25675 0
M  V30 666 C 57.7298 -0.267371 -1.93764 0
M  V30 667 O 58.9358 -0.230827 -2.70517 0
M  V30 668 C 57.3918 -2.78332 -2.28165 0
M  V30 669 C 56.9998 -4.16096 -1.66037 0
M  V30 670 C 58.7438 -2.96155 -3.04125 0
M  V30 671 C 56.6508 -5.27895 -2.6661 0
M  V30 672 H 55.5808 -0.587391 -0.472745 0
M  V30 673 H 58.2318 -1.75644 -0.53118 0
M  V30 674 H 56.6138 -2.53934 -3.03865 0
M  V30 675 H 57.7878 -4.50612 -0.963622 0
M  V30 676 H 56.1028 -4.03591 -1.02484 0
M  V30 677 H 58.6998 -3.76849 -3.79327 0
M  V30 678 H 59.0428 -2.06534 -3.61455 0
M  V30 679 H 59.5758 -3.2057 -2.35541 0
M  V30 680 H 56.3148 -6.1956 -2.14068 0
M  V30 681 H 55.8348 -4.97839 -3.34539 0
M  V30 682 H 57.5138 -5.57031 -3.29129 0
M  V30 683 N 57.6459 0.756429 -1.3826 0
M  V30 684 C 58.8929 1.51547 -1.34312 0
M  V30 685 C 59.2209 1.94382 0.0677144 0
M  V30 686 O 58.4759 1.65514 1.04421 0
M  V30 687 C 58.7749 2.78313 -2.24224 0
M  V30 688 C 58.4409 2.54455 -3.72241 0
M  V30 689 C 57.1029 2.47657 -4.12576 0
M  V30 690 C 59.4549 2.3354 -4.65949 0
M  V30 691 C 56.7829 2.17956 -5.44713 0
M  V30 692 C 59.1349 2.05359 -5.9834 0
M  V30 693 C 57.7989 1.97016 -6.37762 0
M  V30 694 H 57.0689 0.55455 -0.491482 0
M  V30 695 H 59.7159 0.870039 -1.70595 0
M  V30 696 H 58.0209 3.47492 -1.80987 0
M  V30 697 H 59.7179 3.36259 -2.18474 0
M  V30 698 H 56.3079 2.60616 -3.40261 0
M  V30 699 H 60.4919 2.37772 -4.35635 0
M  V30 700 H 55.7479 2.10003 -5.74203 0
M  V30 701 H 59.9219 1.88179 -6.70494 0
M  V30 702 H 57.5489 1.73766 -7.40074 0
M  V30 703 N 59.124 1.23083 0.984299 0
M  V30 704 C 60.054 1.03292 2.09411 0
M  V30 705 C 61.035 -0.048923 1.7003 0
M  V30 706 O 62.22 0.114967 1.93859 0
M  V30 707 C 59.35 0.619155 3.41736 0
M  V30 708 C 58.304 1.64791 3.95004 0
M  V30 709 C 57.63 1.0897 5.23478 0
M  V30 710 C 58.93 3.03999 4.24714 0
M  V30 711 H 60.624 1.96119 2.26225 0
M  V30 712 H 58.17 0.944344 1.08711 0
M  V30 713 H 60.123 0.467777 4.18796 0
M  V30 714 H 58.847 -0.344786 3.24775 0
M  V30 715 H 57.506 1.78721 3.20085 0
M  V30 716 H 57.154 0.11686 5.02864 0
M  V30 717 H 56.854 1.77704 5.60085 0
M  V30 718 H 58.378 0.950093 6.03163 0
M  V30 719 H 59.792 2.93393 4.92538 0
M  V30 720 H 58.189 3.69936 4.72512 0
M  V30 721 H 59.259 3.53285 3.32142 0
M  V30 722 N 60.6021 -1.18246 1.0419 0
M  V30 723 C 61.8481 -1.88536 0.747122 0
M  V30 724 C 62.1811 -1.80223 -0.723409 0
M  V30 725 O 61.4561 -1.20337 -1.52804 0
M  V30 726 C 61.7391 -3.38968 1.21544 0
M  V30 727 C 61.5921 -3.56084 2.74816 0
M  V30 728 C 62.9111 -4.32648 0.806482 0
M  V30 729 H 60.0301 -0.684619 0.272883 0
M  V30 730 H 62.6721 -1.39113 1.29413 0
M  V30 731 H 60.8221 -3.8119 0.750081 0
M  V30 732 H 62.4941 -3.22946 3.29399 0
M  V30 733 H 60.7371 -2.98699 3.14582 0
M  V30 734 H 61.4081 -4.61639 3.02644 0
M  V30 735 H 63.8841 -3.98211 1.20695 0
M  V30 736 H 62.7601 -5.36462 1.1619 0
M  V30 737 H 63.0211 -4.41146 -0.29029 0
M  V30 738 N 62.0802 -0.821533 -1.34494 0
M  V30 739 C 63.0282 -0.230702 -2.31453 0
M  V30 740 C 64.0222 0.627793 -1.57338 0
M  V30 741 O 65.2282 0.519288 -1.72347 0
M  V30 742 H 61.6032 -0.0558577 -0.749923 0
M  V30 743 H 63.5742 -1.06332 -2.78812 0
M  V30 744 C 62.3232 0.59391 -3.4259 0
M  V30 745 H 61.6462 -0.0573588 -3.99759 0
M  V30 746 H 63.0862 0.973446 -4.12674 0
M  V30 747 C 61.5452 1.76568 -2.86924 0
M  V30 748 O 62.0752 2.8638 -2.81691 0
M  V30 749 N 60.2812 1.58198 -2.43766 0
M  V30 750 H 59.8282 0.68872 -2.48222 0
M  V30 751 H 59.7862 2.36752 -2.06871 0
M  V30 752 N 63.5583 1.46682 -0.576371 0
M  V30 753 C 64.8053 2.02412 -0.0595339 0
M  V30 754 C 65.1333 1.44859 1.29793 0
M  V30 755 O 64.3883 0.601099 1.8624 0
M  V30 756 C 64.6873 3.57345 0.062886 0
M  V30 757 C 64.3533 4.33908 -1.22616 0
M  V30 758 C 63.0153 4.54544 -1.57933 0
M  V30 759 C 65.3673 4.77919 -2.07948 0
M  V30 760 C 62.6953 5.16444 -2.78393 0
M  V30 761 C 65.0473 5.41149 -3.27629 0
M  V30 762 C 63.7113 5.60014 -3.63236 0
M  V30 763 H 62.9813 0.74068 -0.021785 0
M  V30 764 H 65.6283 1.76128 -0.751735 0
M  V30 765 H 63.9333 3.82729 0.838178 0
M  V30 766 H 65.6303 3.98136 0.478439 0
M  V30 767 H 62.2203 4.18138 -0.941202 0
M  V30 768 H 66.4043 4.61738 -1.81967 0
M  V30 769 H 61.6603 5.29242 -3.06126 0
M  V30 770 H 65.8343 5.74211 -3.94023 0
M  V30 771 H 63.4613 6.07748 -4.56669 0
M  V30 772 N 65.0364 0.313813 1.54444 0
M  V30 773 C 65.9994 -0.54379 2.22656 0
M  V30 774 C 66.9994 -1.05124 1.21678 0
M  V30 775 O 68.1894 -0.945225 1.46325 0
M  V30 776 C 65.3214 -1.75427 2.92298 0
M  V30 777 H 66.5144 0.0523599 2.99854 0
M  V30 778 H 64.0674 0.0647834 1.56166 0
M  V30 779 H 64.8024 -2.38991 2.19211 0
M  V30 780 H 64.5874 -1.39791 3.66334 0
M  V30 781 H 66.0774 -2.36325 3.44297 0
M  V30 782 N 66.5145 -1.57545 0.0417849 0
M  V30 783 C 67.7605 -1.92601 -0.635021 0
M  V30 784 C 68.0935 -0.919627 -1.71045 0
M  V30 785 O 67.3685 0.0557892 -1.9442 0
M  V30 786 C 67.6515 -3.38085 -1.23979 0
M  V30 787 C 67.5045 -4.49467 -0.173057 0
M  V30 788 C 68.8235 -3.83776 -2.15416 0
M  V30 789 H 65.9425 -0.700397 -0.229374 0
M  V30 790 H 68.5845 -1.89728 0.101633 0
M  V30 791 H 66.7345 -3.40664 -1.86762 0
M  V30 792 H 68.4065 -4.59018 0.458312 0
M  V30 793 H 66.6495 -4.30909 0.499996 0
M  V30 794 H 67.3205 -5.48323 -0.636054 0
M  V30 795 H 69.7965 -3.83013 -1.62605 0
M  V30 796 H 68.6725 -4.8624 -2.54679 0
M  V30 797 H 68.9335 -3.19998 -3.05047 0
M  V30 798 N 67.9926 0.231505 -1.5589 0
M  V30 799 C 69.2416 0.955346 -1.7764 0
M  V30 800 C 69.5546 1.85893 -0.608546 0
M  V30 801 O 70.7606 2.62067 -0.70943 0
M  V30 802 C 69.2166 1.74886 -3.14552 0
M  V30 803 C 68.8246 0.891915 -4.39032 0
M  V30 804 C 70.5686 2.46452 -3.45633 0
M  V30 805 C 68.4756 1.68221 -5.66971 0
M  V30 806 H 67.4056 0.360446 -0.662265 0
M  V30 807 H 70.0566 0.209516 -1.823 0
M  V30 808 H 68.4386 2.53723 -3.04041 0
M  V30 809 H 69.6126 0.144793 -4.60572 0
M  V30 810 H 67.9276 0.288863 -4.15397 0
M  V30 811 H 70.5246 3.06061 -4.38441 0
M  V30 812 H 70.8676 3.18841 -2.67668 0
M  V30 813 H 71.4006 1.74613 -3.57428 0
M  V30 814 H 68.1396 1.00178 -6.478 0
M  V30 815 H 67.6596 2.4042 -5.49507 0
M  V30 816 H 69.3386 2.24544 -6.06786 0
M  V30 817 N 69.4707 1.49531 0.497807 0
M  V30 818 C 70.7197 1.58426 1.24837 0
M  V30 819 C 71.0327 0.277643 1.93619 0
M  V30 820 O 72.2387 0.24517 2.70391 0
M  V30 821 C 70.6947 2.79538 2.26686 0
M  V30 822 C 70.3027 4.16971 1.63828 0
M  V30 823 C 72.0467 2.97764 3.0255 0
M  V30 824 C 69.9537 5.29301 2.63807 0
M  V30 825 H 68.8837 0.58989 0.469623 0
M  V30 826 H 71.5347 1.75923 0.521857 0
M  V30 827 H 69.9167 2.55542 3.02514 0
M  V30 828 H 71.0907 4.51116 0.939711 0
M  V30 829 H 69.4057 4.04129 1.00342 0
M  V30 830 H 72.0027 3.78856 3.77323 0
M  V30 831 H 72.3457 2.08448 3.60354 0
M  V30 832 H 72.8787 3.21815 2.33838 0
M  V30 833 H 69.6177 6.20687 2.10779 0
M  V30 834 H 69.1377 4.99606 3.31894 0
M  V30 835 H 70.8167 5.58768 3.2617 0
M  V30 836 N 70.9488 -0.749086 1.3866 0
M  V30 837 C 72.1968 -1.50535 1.34847 0
M  V30 838 C 72.5178 -1.94909 -0.0595016 0
M  V30 839 O 71.7878 -1.67973 -1.00806 0
M  V30 840 H 70.3678 -0.558395 0.49619 0
M  V30 841 H 73.0298 -0.890165 1.73384 0
M  V30 842 H 72.1258 -2.39413 2.00219 0
M  V30 843 N 72.4269 -1.23603 -0.977757 0
M  V30 844 C 73.6549 -1.09646 -1.75458 0
M  V30 845 C 74.0699 0.351859 -1.85492 0
M  V30 846 O 73.4269 1.24327 -1.336 0
M  V30 847 C 73.4779 -1.71895 -3.18016 0
M  V30 848 O 73.1989 -3.11063 -3.08498 0
M  V30 849 C 74.6999 -1.63415 -4.12081 0
M  V30 850 H 71.9199 -0.38359 -0.550545 0
M  V30 851 H 74.4639 -1.63507 -1.22824 0
M  V30 852 H 72.6189 -1.22061 -3.67668 0
M  V30 853 H 73.0329 -3.41305 -3.9826 0
M  V30 854 H 74.5069 -2.11669 -5.09804 0
M  V30 855 H 74.9839 -0.593462 -4.35172 0
M  V30 856 H 75.5899 -2.12628 -3.68334 0
M  V30 857 N 73.905 1.17692 -1.04816 0
M  V30 858 C 75.153 1.87488 -0.754497 0
M  V30 859 C 75.474 1.81205 0.720407 0
M  V30 860 O 74.744 1.23544 1.52032 0
M  V30 861 H 73.324 0.694101 -0.276102 0
M  V30 862 H 75.986 1.42793 -1.32651 0
M  V30 863 H 75.082 2.93328 -1.06606 0
M  V30 864 N 75.3831 0.828654 1.34056 0
M  V30 865 C 76.6111 0.43262 2.02326 0
M  V30 866 C 77.0261 -0.963147 1.62385 0
M  V30 867 O 76.3831 -1.62425 0.832121 0
M  V30 868 C 76.4341 0.53182 3.57567 0
M  V30 869 O 76.1551 1.87258 3.96063 0
M  V30 870 C 77.6561 0.131422 4.43105 0
M  V30 871 H 74.8761 0.172923 0.648335 0
M  V30 872 H 77.4201 1.1184 1.71208 0
M  V30 873 H 75.5751 -0.105938 3.87255 0
M  V30 874 H 75.9891 1.85087 4.90758 0
M  V30 875 H 77.4631 0.251904 5.51425 0
M  V30 876 H 77.9401 -0.925645 4.29335 0
M  V30 877 H 78.5461 0.743207 4.18756 0
M  V30 878 N 76.8612 -1.46375 0.584142 0
M  V30 879 C 78.2772 -1.57694 0.245929 0
M  V30 880 C 78.4772 -1.57903 -1.25175 0
M  V30 881 O 77.5332 -1.49676 -2.03355 0
M  V30 882 C 78.8462 -2.87028 0.896402 0
M  V30 883 C 80.3942 -3.00662 0.870127 0
M  V30 884 C 80.8692 -4.32734 1.50017 0
M  V30 885 N 82.3602 -4.39436 1.46458 0
M  V30 886 C 83.0952 -5.40248 1.92144 0
M  V30 887 N 82.5912 -6.47726 2.4581 0
M  V30 888 N 84.3842 -5.31459 1.83052 0
M  V30 889 H 76.5352 -1.44483 1.55687 0
M  V30 890 H 78.7982 -0.689291 0.650831 0
M  V30 891 H 78.5042 -2.9269 1.95002 0
M  V30 892 H 78.3782 -3.75014 0.405486 0
M  V30 893 H 80.7652 -2.94581 -0.174871 0
M  V30 894 H 80.8462 -2.14148 1.39908 0
M  V30 895 H 80.4902 -4.39573 2.54437 0
M  V30 896 H 80.4202 -5.18025 0.946432 0
M  V30 897 H 82.9112 -3.62367 1.07231 0
M  V30 898 H 83.2242 -7.20863 2.78525 0
M  V30 899 H 81.5692 -6.48542 2.49836 0
M  V30 900 H 84.7602 -4.46396 1.40883 0
M  V30 901 H 84.9332 -6.09881 2.18973 0
M  V30 902 N 78.3393 -0.321999 -1.54275 0
M  V30 903 C 79.5863 0.281044 -2.0054 0
M  V30 904 C 79.9143 1.52265 -1.21019 0
M  V30 905 O 79.1693 1.93687 -0.279982 0
M  V30 906 C 79.4683 0.661769 -3.5122 0
M  V30 907 C 79.1343 -0.480482 -4.48333 0
M  V30 908 C 77.7963 -0.794005 -4.74604 0
M  V30 909 C 80.1483 -1.24783 -5.06042 0
M  V30 910 C 77.4763 -1.87763 -5.55844 0
M  V30 911 C 79.8283 -2.32153 -5.88462 0
M  V30 912 C 78.4923 -2.64089 -6.13036 0
M  V30 913 H 77.7623 0.102841 -0.733829 0
M  V30 914 H 80.4093 -0.445453 -1.86247 0
M  V30 915 H 78.7143 1.46867 -3.63232 0
M  V30 916 H 80.4113 1.13989 -3.84457 0
M  V30 917 H 77.0013 -0.226039 -4.28004 0
M  V30 918 H 81.1853 -1.01887 -4.85729 0
M  V30 919 H 76.4413 -2.12954 -5.73115 0
M  V30 920 H 80.6153 -2.92057 -6.32199 0
M  V30 921 H 78.2423 -3.48185 -6.75775 0
M  V30 922 N 79.8174 1.5752 -0.0501392 0
M  V30 923 C 81.0654 1.9227 0.622642 0
M  V30 924 C 81.3864 0.929083 1.71444 0
M  V30 925 O 80.6564 -0.0262186 1.95882 0
M  V30 926 H 79.2364 0.709739 0.232981 0
M  V30 927 H 81.8984 1.94628 -0.102898 0
M  V30 928 H 80.9944 2.93479 1.06191 0
M  V30 929 N 81.2955 -0.223234 1.56011 0
M  V30 930 C 82.5235 -0.964812 1.83027 0
M  V30 931 C 82.9385 -1.78013 0.62904 0
M  V30 932 O 82.2955 -1.78008 -0.402414 0
M  V30 933 C 82.3465 -1.88373 3.08542 0
M  V30 934 O 82.0675 -1.10137 4.2403 0
M  V30 935 C 83.5685 -2.73934 3.48533 0
M  V30 936 H 80.7885 -0.282842 0.608475 0
M  V30 937 H 83.3325 -0.238971 2.03099 0
M  V30 938 H 81.4875 -2.56354 2.9045 0
M  V30 939 H 81.9015 -1.72501 4.95322 0
M  V30 940 H 83.3755 -3.34117 4.39397 0
M  V30 941 H 83.8525 -3.46244 2.70207 0
M  V30 942 H 84.4585 -2.11369 3.69057 0
M  V30 943 N 82.7736 -1.49793 -0.48987 0
M  V30 944 C 84.0506 -1.50348 -1.25119 0
M  V30 945 C 84.4306 -0.237466 -2.0976 0
M  V30 946 O 83.7786 0.77981 -2.14782 0
M  V30 947 C 83.9886 -2.78872 -2.09837 0
M  V30 948 C 85.3366 -3.288 -2.68655 0
M  V30 949 O 86.3606 -2.80065 -2.20096 0
M  V30 950 O 85.2196 -4.13707 -3.57083 0
M  V30 951 H 82.3136 -0.602242 -0.566775 0
M  V30 952 H 84.8596 -1.62067 -0.503229 0
M  V30 953 H 83.6316 -3.62499 -1.47343 0
M  V30 954 H 83.2546 -2.70066 -2.91805 0
M  V30 955 N 84.2517 0.741722 -1.39055 0
M  V30 956 C 85.1817 1.869 -1.39966 0
M  V30 957 C 86.1627 1.6804 -0.26392 0
M  V30 958 O 87.3477 1.88458 -0.468755 0
M  V30 959 C 84.4777 3.24572 -1.23574 0
M  V30 960 C 83.4317 3.58056 -2.34477 0
M  V30 961 C 82.7577 4.94593 -2.0318 0
M  V30 962 C 84.0577 3.61716 -3.76774 0
M  V30 963 H 85.7517 1.86395 -2.34302 0
M  V30 964 H 83.2977 0.895361 -1.1278 0
M  V30 965 H 85.2507 4.031 -1.22834 0
M  V30 966 H 83.9747 3.25587 -0.257045 0
M  V30 967 H 82.6337 2.81854 -2.34423 0
M  V30 968 H 82.2817 4.92181 -1.03765 0
M  V30 969 H 81.9817 5.17964 -2.77465 0
M  V30 970 H 83.5057 5.75486 -2.04079 0
M  V30 971 H 84.9197 4.30335 -3.78794 0
M  V30 972 H 83.3167 3.96603 -4.50362 0
M  V30 973 H 84.3867 2.61672 -4.08235 0
M  V30 974 N 85.7298 1.2412 0.971189 0
M  V30 975 C 86.6928 1.03156 2.04674 0
M  V30 976 C 87.6928 -0.00990322 1.60797 0
M  V30 977 O 88.8828 0.230729 1.72665 0
M  V30 978 C 86.0148 0.562765 3.36223 0
M  V30 979 H 87.2078 1.98614 2.24705 0
M  V30 980 H 84.7608 1.06293 1.14593 0
M  V30 981 H 85.4958 -0.395176 3.21883 0
M  V30 982 H 85.2808 1.31441 3.69413 0
M  V30 983 H 86.7708 0.437015 4.15307 0
M  V30 984 N 87.2079 -1.17134 1.05439 0
M  V30 985 C 88.1549 -2.21235 0.657539 0
M  V30 986 C 89.1249 -1.62551 -0.341543 0
M  V30 987 O 90.3099 -1.89379 -0.232393 0
M  V30 988 C 87.4499 -3.45076 0.0410575 0
M  V30 989 C 86.5629 -4.18042 1.08927 0
M  V30 990 C 85.6979 -5.29376 0.439848 0
M  V30 991 C 84.7369 -5.94132 1.4722 0
M  V30 992 N 83.8739 -6.96975 0.846756 0
M  V30 993 H 88.7139 -2.54534 1.54972 0
M  V30 994 H 86.2509 -1.25028 0.775006 0
M  V30 995 H 88.2089 -4.15862 -0.33383 0
M  V30 996 H 86.8389 -3.12353 -0.814568 0
M  V30 997 H 85.8909 -3.45945 1.58196 0
M  V30 998 H 87.2029 -4.62306 1.87282 0
M  V30 999 H 86.3569 -6.06699 0.0115125 0
M  V30 1000 H 85.0959 -4.86251 -0.375656 0
M  V30 1001 H 84.1009 -5.15538 1.91052 0
M  V30 1002 H 85.3259 -6.39337 2.28965 0
M  V30 1003 H 83.2719 -6.5598 0.0518075 0
M  V30 1004 H 83.1889 -7.39565 1.5678 0
M  V30 1005 H 84.4569 -7.78239 0.443277 0
M  V30 1006 N 88.686 -0.835752 -1.33615 0
M  V30 1007 C 89.596 -0.269088 -2.33052 0
M  V30 1008 C 90.612 0.603251 -1.63208 0
M  V30 1009 O 91.788 0.508112 -1.94885 0
M  V30 1010 C 88.853 0.549091 -3.42324 0
M  V30 1011 C 87.914 -0.347156 -4.27894 0
M  V30 1012 C 87.147 0.43207 -5.31948 0
M  V30 1013 O 87.37 1.66409 -5.45586 0
M  V30 1014 O 86.304 -0.192298 -6.01593 0
M  V30 1015 H 90.13 -1.09243 -2.83372 0
M  V30 1016 H 87.715 -0.598198 -1.36901 0
M  V30 1017 H 89.597 1.01414 -4.09015 0
M  V30 1018 H 88.272 1.34955 -2.94226 0
M  V30 1019 H 87.179 -0.859979 -3.64081 0
M  V30 1020 H 88.512 -1.1123 -4.79467 0
M  V30 1021 N 90.1641 1.46063 -0.591896 0
M  V30 1022 C 91.1271 2.28854 0.125973 0
M  V30 1023 C 92.1271 1.38903 0.810107 0
M  V30 1024 O 93.3171 1.61186 0.66066 0
M  V30 1025 C 90.4491 3.19526 1.1881 0
M  V30 1026 H 91.6421 2.93802 -0.601717 0
M  V30 1027 H 89.1951 1.52325 -0.350254 0
M  V30 1028 H 89.9301 2.59345 1.94707 0
M  V30 1029 H 89.7151 3.85766 0.701936 0
M  V30 1030 H 91.2051 3.81817 1.69132 0
M  V30 1031 N 91.6422 0.330177 1.54103 0
M  V30 1032 C 92.5892 -0.532762 2.24567 0
M  V30 1033 C 93.5592 -1.10635 1.23892 0
M  V30 1034 O 94.7442 -1.14546 1.5259 0
M  V30 1035 C 91.8842 -1.6845 3.01195 0
M  V30 1036 C 90.9972 -1.13951 4.167 0
M  V30 1037 C 90.1322 -2.25746 4.80845 0
M  V30 1038 C 89.1712 -1.6853 5.88442 0
M  V30 1039 N 88.3082 -2.74014 6.46421 0
M  V30 1040 H 93.1482 0.0746905 2.97906 0
M  V30 1041 H 90.6852 0.048632 1.4702 0
M  V30 1042 H 92.6432 -2.36234 3.43874 0
M  V30 1043 H 91.2732 -2.26314 2.30178 0
M  V30 1044 H 90.3252 -0.35301 3.78758 0
M  V30 1045 H 91.6372 -0.680892 4.94131 0
M  V30 1046 H 90.7912 -3.01422 5.26526 0
M  V30 1047 H 89.5302 -2.74947 4.0281 0
M  V30 1048 H 88.5352 -0.913543 5.42157 0
M  V30 1049 H 89.7602 -1.20198 6.68378 0
M  V30 1050 H 87.7062 -3.22494 5.71256 0
M  V30 1051 H 87.6232 -2.32735 7.19285 0
M  V30 1052 H 88.8912 -3.49499 6.96757 0
M  V30 1053 N 93.1203 -1.57491 0.0584922 0
M  V30 1054 C 94.0673 -2.11958 -0.913376 0
M  V30 1055 C 95.0373 -1.02875 -1.30407 0
M  V30 1056 O 96.2223 -1.30464 -1.39226 0
M  V30 1057 C 93.3623 -2.67497 -2.18035 0
M  V30 1058 C 92.4753 -3.90691 -1.84349 0
M  V30 1059 C 91.6103 -4.3452 -3.05559 0
M  V30 1060 C 90.6493 -5.50395 -2.67827 0
M  V30 1061 N 89.7863 -5.89244 -3.81754 0
M  V30 1062 H 94.6263 -2.94704 -0.442017 0
M  V30 1063 H 92.1633 -1.45643 -0.206545 0
M  V30 1064 H 94.1213 -2.978 -2.92183 0
M  V30 1065 H 92.7513 -1.87537 -2.62735 0
M  V30 1066 H 91.8033 -3.66934 -1.00319 0
M  V30 1067 H 93.1153 -4.7489 -1.5258 0
M  V30 1068 H 92.2693 -4.66414 -3.87998 0
M  V30 1069 H 91.0083 -3.49147 -3.40511 0
M  V30 1070 H 90.0133 -5.18165 -1.83806 0
M  V30 1071 H 91.2383 -6.3749 -2.34059 0
M  V30 1072 H 89.1843 -5.06823 -4.16493 0
M  V30 1073 H 89.1013 -6.68151 -3.53708 0
M  V30 1074 H 90.3693 -6.25756 -4.64811 0
M  V30 1075 N 94.5984 0.214957 -1.56127 0
M  V30 1076 C 95.8444 0.939762 -1.79712 0
M  V30 1077 C 96.1774 1.83723 -0.629247 0
M  V30 1078 O 95.4524 1.90925 0.371197 0
M  V30 1079 C 95.7354 1.77306 -3.13424 0
M  V30 1080 C 95.5884 0.90164 -4.40671 0
M  V30 1081 C 96.9074 2.74956 -3.43638 0
M  V30 1082 H 94.0264 0.340214 -0.653776 0
M  V30 1083 H 96.6684 0.20824 -1.88855 0
M  V30 1084 H 94.8184 2.39673 -3.0576 0
M  V30 1085 H 96.4904 0.294206 -4.60361 0
M  V30 1086 H 94.7334 0.207368 -4.33304 0
M  V30 1087 H 95.4044 1.51923 -5.30682 0
M  V30 1088 H 97.8804 2.22724 -3.51473 0
M  V30 1089 H 96.7564 3.30358 -4.38355 0
M  V30 1090 H 97.0174 3.53023 -2.66134 0
M  V30 1091 N 96.0765 1.50051 0.48192 0
M  V30 1092 C 97.0265 1.64512 1.5786 0
M  V30 1093 C 98.0105 0.500073 1.52932 0
M  V30 1094 O 99.2025 0.753964 1.60139 0
M  V30 1095 C 96.3315 1.73263 2.9637 0
M  V30 1096 C 95.4175 2.93409 3.06222 0
M  V30 1097 N 95.8085 4.17236 2.85915 0
M  V30 1098 C 94.1065 2.91742 3.37346 0
M  V30 1099 C 94.8075 4.981 3.00451 0
M  V30 1100 N 93.7835 4.3184 3.30174 0
M  V30 1101 H 97.5855 2.57955 1.40842 0
M  V30 1102 H 95.0995 1.47086 0.688439 0
M  V30 1103 H 97.0965 1.81724 3.75209 0
M  V30 1104 H 95.7565 0.809711 3.14442 0
M  V30 1105 H 96.7675 4.46909 2.6171 0
M  V30 1106 H 93.4445 2.08907 3.61475 0
M  V30 1107 H 94.8345 6.06532 2.89082 0
M  V30 1108 N 97.5546 -0.734337 1.39446 0
M  V30 1109 C 98.4866 -1.85861 1.34121 0
M  V30 1110 C 99.4996 -1.60871 0.249864 0
M  V30 1111 O 100.689 -1.71093 0.508865 0
M  V30 1112 C 97.7886 -3.21899 1.05991 0
M  V30 1113 C 96.9616 -3.74239 2.26415 0
M  V30 1114 C 96.0206 -4.88841 1.94733 0
M  V30 1115 O 95.0466 -5.02468 2.67422 0
M  V30 1116 N 96.2486 -5.73261 0.913884 0
M  V30 1117 H 99.0136 -1.90934 2.31007 0
M  V30 1118 H 96.5746 -0.915102 1.33557 0
M  V30 1119 H 98.5666 -3.96136 0.828147 0
M  V30 1120 H 97.1366 -3.12091 0.178361 0
M  V30 1121 H 96.3566 -2.91347 2.65539 0
M  V30 1122 H 97.6446 -4.05942 3.06738 0
M  V30 1123 H 97.0426 -5.64842 0.311476 0
M  V30 1124 H 95.5996 -6.47563 0.742015 0
M  V30 1125 N 99.0327 -1.24633 -0.964593 0
M  V30 1126 C 100.261 -1.11501 -1.74285 0
M  V30 1127 C 100.676 0.332165 -1.85855 0
M  V30 1128 O 100.033 1.22903 -1.34911 0
M  V30 1129 C 100.084 -1.75258 -3.16175 0
M  V30 1130 O 99.8047 -3.14318 -3.05182 0
M  V30 1131 C 101.306 -1.67776 -4.10324 0
M  V30 1132 H 98.5257 -0.389407 -0.546446 0
M  V30 1133 H 101.07 -1.64801 -1.21083 0
M  V30 1134 H 99.2247 -1.25954 -3.66353 0
M  V30 1135 H 99.6387 -3.4551 -3.94618 0
M  V30 1136 H 101.113 -2.17064 -5.0753 0
M  V30 1137 H 101.59 -0.639584 -4.34518 0
M  V30 1138 H 102.196 -2.16522 -3.66058 0
M  V30 1139 N 100.511 1.16574 -1.06058 0
M  V30 1140 C 101.739 1.90952 -0.796552 0
M  V30 1141 C 102.154 1.77302 0.648808 0
M  V30 1142 O 101.511 1.11605 1.44397 0
M  V30 1143 C 101.562 3.41736 -1.17894 0
M  V30 1144 O 101.283 3.54975 -2.56758 0
M  V30 1145 C 102.784 4.33169 -0.942308 0
M  V30 1146 H 100.004 0.605594 -0.288959 0
M  V30 1147 H 102.548 1.47777 -1.41358 0
M  V30 1148 H 100.703 3.82623 -0.606491 0
M  V30 1149 H 101.117 4.4846 -2.72 0
M  V30 1150 H 102.591 5.37439 -1.25952 0
M  V30 1151 H 103.068 4.3903 0.122078 0
M  V30 1152 H 103.674 3.98007 -1.49902 0
M  V30 1153 N 101.989 0.842826 1.3317 0
M  V30 1154 C 103.405 0.531128 1.50503 0
M  V30 1155 C 103.605 -0.940734 1.78192 0
M  V30 1156 O 102.661 -1.72436 1.84451 0
M  V30 1157 C 103.974 1.40789 2.65705 0
M  V30 1158 C 105.522 1.40708 2.79589 0
M  V30 1159 C 105.997 2.26878 3.97857 0
M  V30 1160 N 107.488 2.24609 4.05099 0
M  V30 1161 C 108.223 2.88019 4.95815 0
M  V30 1162 N 107.719 3.60496 5.9162 0
M  V30 1163 N 109.512 2.77469 4.88843 0
M  V30 1164 H 101.663 1.79557 1.1346 0
M  V30 1165 H 103.926 0.766267 0.558156 0
M  V30 1166 H 103.632 2.454 2.51936 0
M  V30 1167 H 103.506 1.08677 3.61205 0
M  V30 1168 H 105.893 0.368668 2.92788 0
M  V30 1169 H 105.974 1.76829 1.84838 0
M  V30 1170 H 105.618 3.3078 3.85418 0
M  V30 1171 H 105.548 1.88096 4.91861 0
M  V30 1172 H 108.039 1.71906 3.36536 0
M  V30 1173 H 108.352 4.06076 6.57512 0
M  V30 1174 H 106.697 3.64604 5.91683 0
M  V30 1175 H 109.888 2.20406 4.12963 0
M  V30 1176 H 110.061 3.2717 5.59342 0
M  V30 1177 N 103.467 -1.45747 0.599634 0
M  V30 1178 C 104.695 -2.06668 0.0978551 0
M  V30 1179 C 105.11 -1.44562 -1.21439 0
M  V30 1180 O 104.467 -0.556923 -1.73795 0
M  V30 1181 C 104.518 -3.61456 -0.0567044 0
M  V30 1182 O 104.239 -4.21242 1.20361 0
M  V30 1183 C 105.74 -4.39345 -0.590869 0
M  V30 1184 H 102.96 -0.667825 0.0651943 0
M  V30 1185 H 105.504 -1.87115 0.82511 0
M  V30 1186 H 103.659 -3.80378 -0.734251 0
M  V30 1187 H 104.073 -5.14323 1.02821 0
M  V30 1188 H 105.547 -5.48182 -0.648131 0
M  V30 1189 H 106.024 -4.08568 -1.61147 0
M  V30 1190 H 106.63 -4.25268 0.0523679 0
M  V30 1191 N 104.945 -0.338344 -1.53925 0
M  V30 1192 C 106.191 0.260143 -2.01125 0
M  V30 1193 C 106.524 1.50617 -1.22589 0
M  V30 1194 O 105.799 1.91979 -0.312113 0
M  V30 1195 C 106.082 0.579499 -3.55407 0
M  V30 1196 C 105.935 -0.678264 -4.44657 0
M  V30 1197 C 107.254 1.39122 -4.17532 0
M  V30 1198 H 104.373 0.0930772 -0.731099 0
M  V30 1199 H 107.015 -0.457852 -1.84401 0
M  V30 1200 H 105.165 1.19118 -3.69788 0
M  V30 1201 H 106.837 -1.31631 -4.42121 0
M  V30 1202 H 105.08 -1.3042 -4.13731 0
M  V30 1203 H 105.751 -0.410143 -5.50474 0
M  V30 1204 H 108.227 0.874035 -4.06817 0
M  V30 1205 H 107.103 1.58342 -5.25565 0
M  V30 1206 H 107.364 2.39178 -3.71815 0
M  V30 1207 N 106.423 1.57458 -0.0668435 0
M  V30 1208 C 107.834 1.80776 0.466558 0
M  V30 1209 C 108.185 0.980361 1.69951 0
M  V30 1210 O 107.31 0.201441 2.1546 0
M  V30 1211 C 107.905 3.27881 0.85321 0
M  V30 1212 C 106.464 3.52062 1.3315 0
M  V30 1213 C 105.611 2.75513 0.314264 0
M  V30 1214 H 108.562 1.5598 -0.292588 0
M  V30 1215 H 108.583 3.39659 1.715 0
M  V30 1216 H 108.095 3.88075 -0.0443439 0
M  V30 1217 H 106.196 2.97167 2.24772 0
M  V30 1218 H 106.309 4.60762 1.31285 0
M  V30 1219 H 104.673 2.42123 0.790492 0
M  V30 1220 H 105.456 3.38442 -0.575477 0
M  V30 1221 N 107.901 -0.206675 1.56239 0
M  V30 1222 C 108.864 -1.23976 1.92776 0
M  V30 1223 C 109.864 -1.39041 0.807729 0
M  V30 1224 O 111.054 -1.37051 1.0753 0
M  V30 1225 C 108.186 -2.61112 2.19165 0
M  V30 1226 H 109.379 -0.927764 2.85189 0
M  V30 1227 H 106.932 -0.447718 1.4975 0
M  V30 1228 H 107.667 -2.97386 1.29352 0
M  V30 1229 H 107.452 -2.51552 3.00772 0
M  V30 1230 H 108.942 -3.35633 2.48476 0
M  V30 1231 N 109.379 -1.50304 -0.473955 0
M  V30 1232 C 110.326 -1.68959 -1.57231 0
M  V30 1233 C 111.296 -0.530899 -1.57387 0
M  V30 1234 O 112.481 -0.761133 -1.74961 0
M  V30 1235 C 109.621 -1.7871 -2.95223 0
M  V30 1236 C 108.734 -3.06061 -3.04878 0
M  V30 1237 C 107.869 -3.06626 -4.33767 0
M  V30 1238 C 106.908 -4.28443 -4.37154 0
M  V30 1239 N 106.045 -4.26763 -5.5751 0
M  V30 1240 H 110.885 -2.6273 -1.40631 0
M  V30 1241 H 108.422 -1.30241 -0.683789 0
M  V30 1242 H 110.38 -1.82344 -3.75242 0
M  V30 1243 H 109.01 -0.883806 -3.10465 0
M  V30 1244 H 108.062 -3.11911 -2.17751 0
M  V30 1245 H 109.374 -3.96039 -3.0324 0
M  V30 1246 H 108.528 -3.08973 -5.22131 0
M  V30 1247 H 107.267 -2.14473 -4.3801 0
M  V30 1248 H 106.272 -4.2631 -3.47188 0
M  V30 1249 H 107.497 -5.2182 -4.34605 0
M  V30 1250 H 105.443 -3.37462 -5.62544 0
M  V30 1251 H 105.36 -5.10507 -5.57601 0
M  V30 1252 H 106.628 -4.33253 -6.48006 0
M  V30 1253 N 110.857 0.726932 -1.39834 0
M  V30 1254 C 112.273 1.03354 -1.21615 0
M  V30 1255 C 112.473 2.01327 -0.08338 0
M  V30 1256 O 111.529 2.46158 0.56238 0
M  V30 1257 C 112.842 1.58811 -2.55342 0
M  V30 1258 C 114.39 1.70851 -2.62257 0
M  V30 1259 C 114.865 2.29716 -3.96225 0
M  V30 1260 N 116.356 2.37116 -3.97907 0
M  V30 1261 C 117.091 2.83619 -4.98345 0
M  V30 1262 N 116.587 3.29958 -6.09179 0
M  V30 1263 N 118.38 2.82901 -4.8572 0
M  V30 1264 H 110.531 0.0773069 -2.12259 0
M  V30 1265 H 112.794 0.0969102 -0.943034 0
M  V30 1266 H 112.5 0.942855 -3.38826 0
M  V30 1267 H 112.374 2.57502 -2.75632 0
M  V30 1268 H 114.761 2.34497 -1.79152 0
M  V30 1269 H 114.842 0.707913 -2.45809 0
M  V30 1270 H 114.486 1.66696 -4.79765 0
M  V30 1271 H 114.416 3.30469 -4.09997 0
M  V30 1272 H 116.907 2.04374 -3.17868 0
M  V30 1273 H 117.22 3.63976 -6.8172 0
M  V30 1274 H 115.565 3.27946 -6.12761 0
M  V30 1275 H 118.756 2.46027 -3.98231 0
M  V30 1276 H 118.929 3.18827 -5.6414 0
M  V30 1277 N 112.336 1.25143 0.95797 0
M  V30 1278 C 113.584 1.09476 1.69881 0
M  V30 1279 C 113.905 -0.365502 1.91544 0
M  V30 1280 O 113.175 -1.25985 1.50015 0
M  V30 1281 H 111.755 0.402128 0.629525 0
M  V30 1282 H 114.417 1.57214 1.15194 0
M  V30 1283 H 113.513 1.60046 2.6794 0
M  V30 1284 N 113.814 -1.1601 1.06675 0
M  V30 1285 C 115.042 -1.90527 0.806667 0
M  V30 1286 C 115.457 -1.77643 -0.639396 0
M  V30 1287 O 114.814 -1.12369 -1.43803 0
M  V30 1288 C 114.865 -3.41106 1.19705 0
M  V30 1289 O 114.586 -3.53608 2.58636 0
M  V30 1290 C 116.087 -4.32663 0.965266 0
M  V30 1291 H 113.307 -0.604053 0.292166 0
M  V30 1292 H 115.851 -1.47026 1.4214 0
M  V30 1293 H 114.006 -3.82296 0.626774 0
M  V30 1294 H 114.42 -4.47011 2.74375 0
M  V30 1295 H 115.894 -5.36763 1.288 0
M  V30 1296 H 116.371 -4.39089 -0.0987936 0
M  V30 1297 H 116.977 -3.97206 1.52011 0
M  V30 1298 N 115.292 -0.849877 -1.32721 0
M  V30 1299 C 116.541 -0.447175 -1.96681 0
M  V30 1300 C 116.854 1.00135 -1.68025 0
M  V30 1301 O 118.06 1.50926 -2.25685 0
M  V30 1302 C 116.516 -0.7487 -3.52026 0
M  V30 1303 C 116.124 -2.21264 -3.89546 0
M  V30 1304 C 117.868 -0.413487 -4.22481 0
M  V30 1305 C 115.775 -2.45763 -5.37917 0
M  V30 1306 H 114.705 -0.163486 -0.736063 0
M  V30 1307 H 117.356 -1.03999 -1.51183 0
M  V30 1308 H 115.738 -0.0853727 -3.95908 0
M  V30 1309 H 116.912 -2.91736 -3.56689 0
M  V30 1310 H 115.227 -2.5119 -3.32103 0
M  V30 1311 H 117.824 -0.574017 -5.3161 0
M  V30 1312 H 118.167 0.644492 -4.11281 0
M  V30 1313 H 118.7 -1.03251 -3.84167 0
M  V30 1314 H 115.439 -3.50168 -5.54132 0
M  V30 1315 H 114.959 -1.79864 -5.72197 0
M  V30 1316 H 116.638 -2.29471 -6.0494 0
M  V30 1317 N 116.77 1.45427 -0.607355 0
M  V30 1318 C 118 2.06314 -0.108656 0
M  V30 1319 C 118.408 1.45269 1.21217 0
M  V30 1320 O 117.751 0.561115 1.74921 0
M  V30 1321 C 117.813 3.59345 0.105618 0
M  V30 1322 C 117.477 4.42723 -1.13337 0
M  V30 1323 C 118.474 4.77715 -2.05145 0
M  V30 1324 C 116.159 4.83478 -1.36213 0
M  V30 1325 C 118.153 5.52317 -3.18158 0
M  V30 1326 C 115.84 5.57835 -2.49527 0
M  V30 1327 C 116.838 5.92171 -3.40327 0
M  V30 1328 O 116.526 6.65019 -4.51669 0
M  V30 1329 H 116.258 0.672782 -0.0658842 0
M  V30 1330 H 118.812 1.87664 -0.834945 0
M  V30 1331 H 117.042 3.76394 0.886796 0
M  V30 1332 H 118.731 4.02076 0.555886 0
M  V30 1333 H 119.497 4.46787 -1.88697 0
M  V30 1334 H 115.376 4.56188 -0.664362 0
M  V30 1335 H 118.92 5.79036 -3.89054 0
M  V30 1336 H 114.817 5.88177 -2.65928 0
M  V30 1337 H 115.585 6.83469 -4.50348 0
M  V30 1338 N 118.248 0.346503 1.53744 0
M  V30 1339 C 119.525 -0.304532 1.93215 0
M  V30 1340 C 119.905 -1.67993 1.27834 0
M  V30 1341 O 119.253 -2.24411 0.430352 0
M  V30 1342 C 119.463 -0.373852 3.46992 0
M  V30 1343 C 120.811 -0.62329 4.2 0
M  V30 1344 O 121.835 -0.455847 3.53271 0
M  V30 1345 O 120.694 -0.947879 5.38217 0
M  V30 1346 H 117.788 -0.178318 0.807547 0
M  V30 1347 H 120.334 0.397895 1.64969 0
M  V30 1348 H 119.106 0.591224 3.86808 0
M  V30 1349 H 118.729 -1.12294 3.81413 0
M  V30 1350 N 119.726 -1.57421 0.075193 0
M  V30 1351 C 121.142 -1.57099 -0.281444 0
M  V30 1352 C 121.342 -1.08486 -1.69803 0
M  V30 1353 O 120.398 -0.752279 -2.41033 0
M  V30 1354 C 121.711 -3.00571 -0.0880041 0
M  V30 1355 C 123.259 -3.12605 -0.157281 0
M  V30 1356 C 123.734 -4.57999 0.0079207 0
M  V30 1357 N 125.225 -4.63176 -0.0475725 0
M  V30 1358 C 125.96 -5.73373 0.0557876 0
M  V30 1359 N 125.456 -6.92473 0.21286 0
M  V30 1360 N 127.249 -5.621 -0.00152098 0
M  V30 1361 H 119.4 -1.87335 1.00098 0
M  V30 1362 H 121.663 -0.86377 0.390646 0
M  V30 1363 H 121.369 -3.40262 0.889629 0
M  V30 1364 H 121.243 -3.67754 -0.838875 0
M  V30 1365 H 123.63 -2.72798 -1.1254 0
M  V30 1366 H 123.711 -2.48053 0.62475 0
M  V30 1367 H 123.355 -4.98496 0.972824 0
M  V30 1368 H 123.285 -5.20586 -0.793556 0
M  V30 1369 H 125.776 -3.7753 -0.167244 0
M  V30 1370 H 126.089 -7.72279 0.283781 0
M  V30 1371 H 124.434 -6.94556 0.248267 0
M  V30 1372 H 127.625 -4.67938 -0.122958 0
M  V30 1373 H 127.798 -6.47948 0.0824844 0
M  V30 1374 N 121.204 0.198386 -1.56346 0
M  V30 1375 C 122.152 1.26538 -1.95169 0
M  V30 1376 C 123.146 1.47295 -0.836685 0
M  V30 1377 O 124.352 1.48195 -1.02167 0
M  V30 1378 H 120.727 0.424744 -0.620561 0
M  V30 1379 H 122.698 0.910904 -2.84157 0
M  V30 1380 C 121.447 2.6035 -2.30463 0
M  V30 1381 H 120.77 2.45192 -3.15786 0
M  V30 1382 H 122.21 3.33762 -2.61494 0
M  V30 1383 C 120.669 3.17096 -1.13806 0
M  V30 1384 O 121.199 3.99588 -0.41135 0
M  V30 1385 N 119.405 2.75795 -0.915736 0
M  V30 1386 H 118.952 2.08816 -1.50843 0
M  V30 1387 H 118.91 3.14101 -0.136979 0
M  V30 1388 N 122.682 1.50554 0.465978 0
M  V30 1389 C 123.93 1.61479 1.21528 0
M  V30 1390 C 124.251 0.319596 1.92363 0
M  V30 1391 O 123.521 -0.663194 1.84333 0
M  V30 1392 H 122.101 0.595055 0.451573 0
M  V30 1393 H 124.763 1.87355 0.53704 0
M  V30 1394 H 123.859 2.42846 1.96042 0
M  V30 1395 N 124.16 -0.719506 1.40217 0
M  V30 1396 C 125.406 -1.48152 1.38488 0
M  V30 1397 C 125.739 -1.94195 -0.0141867 0
M  V30 1398 O 125.014 -1.67884 -0.982096 0
M  V30 1399 C 125.297 -2.71035 2.37091 0
M  V30 1400 C 125.15 -2.30912 3.86005 0
M  V30 1401 C 126.469 -3.73182 2.33288 0
M  V30 1402 H 123.588 -0.537395 0.504357 0
M  V30 1403 H 126.23 -0.821472 1.71324 0
M  V30 1404 H 124.38 -3.27352 2.0922 0
M  V30 1405 H 126.052 -1.80107 4.24687 0
M  V30 1406 H 124.295 -1.62958 4.02029 0
M  V30 1407 H 124.966 -3.18978 4.50508 0
M  V30 1408 H 127.442 -3.26485 2.57966 0
M  V30 1409 H 126.318 -4.56806 3.04334 0
M  V30 1410 H 126.579 -4.21202 1.34317 0
M  V30 1411 N 125.638 -1.25649 -0.95132 0
M  V30 1412 C 127.049 -1.09654 -1.51106 0
M  V30 1413 C 127.4 0.326615 -1.93462 0
M  V30 1414 O 126.525 1.21697 -1.78938 0
M  V30 1415 C 127.12 -1.98437 -2.74605 0
M  V30 1416 C 125.679 -1.86618 -3.2688 0
M  V30 1417 C 124.826 -1.9239 -1.99703 0
M  V30 1418 H 127.777 -1.38887 -0.767865 0
M  V30 1419 H 127.798 -1.5263 -3.48546 0
M  V30 1420 H 127.31 -3.02009 -2.43746 0
M  V30 1421 H 125.411 -0.859421 -3.62553 0
M  V30 1422 H 125.524 -2.71607 -3.94673 0
M  V30 1423 H 123.888 -1.36317 -2.15151 0
M  V30 1424 H 124.671 -2.97573 -1.71188 0
M  V30 1425 N 127.117 1.15442 -1.07289 0
M  V30 1426 C 128.366 1.85557 -0.790669 0
M  V30 1427 C 128.679 1.83186 0.685739 0
M  V30 1428 O 129.885 2.48977 1.0827 0
M  V30 1429 C 128.341 3.33038 -1.36433 0
M  V30 1430 C 127.949 3.43856 -2.8717 0
M  V30 1431 C 129.693 4.0834 -1.1601 0
M  V30 1432 C 127.6 4.85482 -3.3773 0
M  V30 1433 H 126.53 0.695122 -0.292098 0
M  V30 1434 H 129.181 1.30219 -1.29287 0
M  V30 1435 H 127.563 3.88043 -0.789864 0
M  V30 1436 H 128.737 2.98961 -3.50655 0
M  V30 1437 H 127.052 2.81998 -3.06376 0
M  V30 1438 H 129.649 5.12859 -1.51262 0
M  V30 1439 H 129.992 4.16182 -0.0991007 0
M  V30 1440 H 130.525 3.59603 -1.70089 0
M  V30 1441 H 127.264 4.82823 -4.43353 0
M  V30 1442 H 126.784 5.30961 -2.78999 0
M  V30 1443 H 128.463 5.54335 -3.33648 0
M  V30 1444 N 128.595 0.856903 1.32268 0
M  V30 1445 C 129.558 0.308171 2.27119 0
M  V30 1446 C 130.558 -0.533421 1.51695 0
M  V30 1447 O 131.748 -0.344607 1.70757 0
M  V30 1448 C 128.88 -0.563757 3.36206 0
M  V30 1449 H 130.073 1.14535 2.77167 0
M  V30 1450 H 127.626 0.631421 1.42978 0
M  V30 1451 H 128.361 -1.42266 2.91429 0
M  V30 1452 H 128.146 0.0386749 3.92081 0
M  V30 1453 H 129.636 -0.940386 4.06874 0
M  V30 1454 N 130.073 -1.45103 0.615059 0
M  V30 1455 C 130.983 -2.34382 -0.101034 0
M  V30 1456 C 131.999 -1.51681 -0.852585 0
M  V30 1457 O 133.175 -1.8446 -0.808484 0
M  V30 1458 C 130.24 -3.29417 -1.08099 0
M  V30 1459 C 129.301 -4.28025 -0.330577 0
M  V30 1460 C 128.534 -5.1852 -1.26385 0
M  V30 1461 O 128.757 -5.12598 -2.50198 0
M  V30 1462 O 127.691 -5.97122 -0.756866 0
M  V30 1463 H 131.517 -2.97033 0.632855 0
M  V30 1464 H 129.102 -1.4461 0.375293 0
M  V30 1465 H 130.984 -3.87958 -1.6452 0
M  V30 1466 H 129.659 -2.69321 -1.79577 0
M  V30 1467 H 128.566 -3.73078 0.276283 0
M  V30 1468 H 129.899 -4.90997 0.343866 0
M  V30 1469 N 131.551 -0.354651 -1.53558 0
M  V30 1470 C 132.828 0.294281 -1.93374 0
M  V30 1471 C 133.208 1.67313 -1.28723 0
M  V30 1472 O 132.556 2.24179 -0.442247 0
M  V30 1473 C 132.766 0.355445 -3.47185 0
M  V30 1474 C 134.114 0.601007 -4.20325 0
M  V30 1475 O 135.138 0.437106 -3.53508 0
M  V30 1476 O 133.997 0.919322 -5.38712 0
M  V30 1477 H 131.091 0.174033 -0.808481 0
M  V30 1478 H 133.637 -0.406638 -1.64756 0
M  V30 1479 H 132.409 -0.611729 -3.86489 0
M  V30 1480 H 132.032 1.1027 -3.82003 0
M  V30 1481 N 133.029 1.57378 -0.0835403 0
M  V30 1482 C 133.992 2.12252 0.864959 0
M  V30 1483 C 134.992 1.04916 1.21858 0
M  V30 1484 O 136.182 1.30853 1.14991 0
M  V30 1485 C 133.314 2.63358 2.16461 0
M  V30 1486 H 134.507 2.97371 0.388676 0
M  V30 1487 H 132.06 1.55423 0.165317 0
M  V30 1488 H 132.795 1.81727 2.686 0
M  V30 1489 H 132.58 3.41826 1.92087 0
M  V30 1490 H 134.07 3.05847 2.84337 0
M  V30 1491 N 134.507 -0.190092 1.56449 0
M  V30 1492 C 135.735 -0.925772 1.85033 0
M  V30 1493 C 136.15 -1.76638 0.666658 0
M  V30 1494 O 135.507 -1.78822 -0.364565 0
M  V30 1495 C 135.558 -1.81786 3.12468 0
M  V30 1496 O 135.279 -1.01118 4.26271 0
M  V30 1497 C 136.78 -2.6648 3.54265 0
M  V30 1498 H 134 -0.269872 0.614337 0
M  V30 1499 H 136.544 -0.195837 2.0356 0
M  V30 1500 H 134.699 -2.50136 2.95822 0
M  V30 1501 H 135.113 -1.61956 4.98869 0
M  V30 1502 H 136.587 -3.24722 4.46385 0
M  V30 1503 H 137.064 -3.40434 2.77491 0
M  V30 1504 H 137.67 -2.03493 3.73458 0
M  V30 1505 N 135.985 -1.50799 -0.457987 0
M  V30 1506 C 137.21 -1.66496 -1.23668 0
M  V30 1507 C 137.635 -0.353288 -1.84752 0
M  V30 1508 O 136.993 0.684346 -1.67888 0
M  V30 1509 C 137.041 -2.76763 -2.3116 0
M  V30 1510 O 136.145 -2.38928 -3.36136 0
M  V30 1511 H 135.486 -0.555828 -0.363252 0
M  V30 1512 H 138.016 -1.9725 -0.543474 0
M  V30 1513 H 138.026 -3.00232 -2.76269 0
M  V30 1514 H 136.701 -3.71954 -1.86073 0
M  V30 1515 H 135.278 -2.25953 -2.96647 0
M  V30 1516 N 137.463 0.71206 -1.40597 0
M  V30 1517 C 138.693 1.49894 -1.42181 0
M  V30 1518 C 139.101 1.89189 -0.0208078 0
M  V30 1519 O 138.444 1.56223 0.966436 0
M  V30 1520 C 138.506 2.80215 -2.25211 0
M  V30 1521 C 138.17 2.63221 -3.73582 0
M  V30 1522 C 139.167 2.30249 -4.66135 0
M  V30 1523 C 136.852 2.79376 -4.17438 0
M  V30 1524 C 138.846 2.13645 -6.00529 0
M  V30 1525 C 136.533 2.6239 -5.51901 0
M  V30 1526 C 137.531 2.29573 -6.43262 0
M  V30 1527 O 137.219 2.12719 -7.75246 0
M  V30 1528 H 136.951 0.469031 -0.486812 0
M  V30 1529 H 139.505 0.88564 -1.85326 0
M  V30 1530 H 137.735 3.4389 -1.76852 0
M  V30 1531 H 139.424 3.41947 -2.18694 0
M  V30 1532 H 140.19 2.17398 -4.33547 0
M  V30 1533 H 136.069 3.03906 -3.46644 0
M  V30 1534 H 139.613 1.87953 -6.71803 0
M  V30 1535 H 135.51 2.74826 -5.84073 0
M  V30 1536 H 136.278 2.27611 -7.86216 0
M  V30 1537 N 138.941 1.26152 0.944643 0
M  V30 1538 C 139.889 1.07215 2.06417 0
M  V30 1539 C 140.883 9.2007e-05 1.694 0
M  V30 1540 O 142.089 0.1565 1.79318 0
M  V30 1541 H 138.464 0.329837 0.675805 0
M  V30 1542 H 140.435 2.02099 2.19541 0
M  V30 1543 C 139.184 0.718197 3.40202 0
M  V30 1544 H 138.507 1.53497 3.69159 0
M  V30 1545 H 139.947 0.625459 4.19361 0
M  V30 1546 C 138.406 -0.576435 3.31932 0
M  V30 1547 O 138.936 -1.61574 3.67773 0
M  V30 1548 N 137.142 -0.565781 2.85039 0
M  V30 1549 H 136.689 0.280367 2.5607 0
M  V30 1550 H 136.647 -1.43213 2.79888 0
M  V30 1551 N 140.419 -1.14872 1.07899 0
M  V30 1552 C 141.665 -1.86064 0.806725 0
M  V30 1553 C 141.998 -1.82434 -0.665706 0
M  V30 1554 O 141.273 -1.25138 -1.48899 0
M  V30 1555 C 141.556 -3.34929 1.32267 0
M  V30 1556 C 141.409 -3.47161 2.86006 0
M  V30 1557 C 142.728 -4.29863 0.943717 0
M  V30 1558 H 139.847 -0.675591 0.294526 0
M  V30 1559 H 142.489 -1.34925 1.33773 0
M  V30 1560 H 140.639 -3.78611 0.870974 0
M  V30 1561 H 142.311 -3.12302 3.39507 0
M  V30 1562 H 140.554 -2.88539 3.23925 0
M  V30 1563 H 141.225 -4.51777 3.17177 0
M  V30 1564 H 143.701 -3.9417 1.33302 0
M  V30 1565 H 142.577 -5.32494 1.33198 0
M  V30 1566 H 142.838 -4.41846 -0.149796 0
M  V30 1567 N 141.898 -0.863906 -1.31812 0
M  V30 1568 C 143.128 -0.485406 -2.00817 0
M  V30 1569 C 143.536 0.925007 -1.65046 0
M  V30 1570 O 142.879 1.61653 -0.872574 0
M  V30 1571 C 142.941 -0.555589 -3.55181 0
M  V30 1572 C 142.605 -1.92654 -4.14407 0
M  V30 1573 C 143.602 -2.89324 -4.31958 0
M  V30 1574 C 141.287 -2.2262 -4.50273 0
M  V30 1575 C 143.281 -4.14108 -4.84555 0
M  V30 1576 C 140.968 -3.47654 -5.02573 0
M  V30 1577 C 141.966 -4.43214 -5.19664 0
M  V30 1578 O 141.654 -5.66033 -5.70843 0
M  V30 1579 H 141.386 -0.188224 -0.649267 0
M  V30 1580 H 143.94 -1.16514 -1.69156 0
M  V30 1581 H 142.17 0.181037 -3.86276 0
M  V30 1582 H 143.859 -0.19138 -4.05449 0
M  V30 1583 H 144.625 -2.6748 -4.04573 0
M  V30 1584 H 140.504 -1.4902 -4.3625 0
M  V30 1585 H 144.048 -4.88703 -4.9781 0
M  V30 1586 H 139.945 -3.69345 -5.29391 0
M  V30 1587 H 140.713 -5.6812 -5.89222 0
M  V30 1588 N 143.376 1.44774 -0.622745 0
M  V30 1589 C 144.339 2.29069 0.0774015 0
M  V30 1590 C 145.339 1.4059 0.780461 0
M  V30 1591 O 146.529 1.62551 0.626322 0
M  V30 1592 C 143.661 3.21974 1.12006 0
M  V30 1593 H 144.854 2.92459 -0.663901 0
M  V30 1594 H 142.407 1.51548 -0.382486 0
M  V30 1595 H 143.142 2.63417 1.89162 0
M  V30 1596 H 142.927 3.87168 0.619951 0
M  V30 1597 H 144.417 3.85318 1.60995 0
M  V30 1598 N 144.854 0.36279 1.53368 0
M  V30 1599 C 146.1 -0.228113 2.01513 0
M  V30 1600 C 146.433 -1.48648 1.2497 0
M  V30 1601 O 145.708 -1.91459 0.342616 0
M  V30 1602 C 145.991 -0.522884 3.56284 0
M  V30 1603 C 145.844 0.74892 4.43521 0
M  V30 1604 C 147.163 -1.32461 4.19693 0
M  V30 1605 H 144.282 -0.0814343 0.732487 0
M  V30 1606 H 146.924 0.48713 1.83649 0
M  V30 1607 H 145.074 -1.1322 3.71636 0
M  V30 1608 H 146.746 1.38648 4.39971 0
M  V30 1609 H 144.989 1.36986 4.11603 0
M  V30 1610 H 145.66 0.497667 5.49752 0
M  V30 1611 H 148.136 -0.809203 4.08156 0
M  V30 1612 H 147.012 -1.49961 5.28018 0
M  V30 1613 H 147.273 -2.33232 3.75573 0
M  V30 1614 N 146.332 -1.57332 0.0918853 0
M  V30 1615 C 147.581 -1.93412 -0.572249 0
M  V30 1616 C 147.894 -0.975515 -1.69538 0
M  V30 1617 O 149.1 -1.22991 -2.42045 0
M  V30 1618 C 147.556 -3.43648 -1.0693 0
M  V30 1619 C 147.164 -4.47994 0.0239049 0
M  V30 1620 C 148.908 -3.88695 -1.70635 0
M  V30 1621 C 146.815 -5.89381 -0.488319 0
M  V30 1622 H 145.745 -0.721939 -0.217532 0
M  V30 1623 H 148.396 -1.82735 0.167369 0
M  V30 1624 H 146.778 -3.49466 -1.8625 0
M  V30 1625 H 147.952 -4.53815 0.799277 0
M  V30 1626 H 146.267 -4.12536 0.565946 0
M  V30 1627 H 148.864 -4.91725 -2.10025 0
M  V30 1628 H 149.207 -3.27166 -2.57426 0
M  V30 1629 H 149.74 -3.85564 -0.979023 0
M  V30 1630 H 146.479 -6.54602 0.342906 0
M  V30 1631 H 145.999 -5.87037 -1.23077 0
M  V30 1632 H 147.678 -6.39863 -0.958317 0
M  V30 1633 N 147.81 0.181792 -1.56548 0
M  V30 1634 C 149.087 0.926765 -1.72251 0
M  V30 1635 C 149.467 2.00831 -0.650386 0
M  V30 1636 O 148.815 2.26008 0.336521 0
M  V30 1637 C 149.025 1.50106 -3.1507 0
M  V30 1638 C 150.373 1.97805 -3.75711 0
M  V30 1639 O 151.397 1.59922 -3.18282 0
M  V30 1640 O 150.256 2.67555 -4.76525 0
M  V30 1641 H 147.35 0.435506 -0.703039 0
M  V30 1642 H 149.896 0.170443 -1.68842 0
M  V30 1643 H 148.668 0.72212 -3.84579 0
M  V30 1644 H 148.291 2.32186 -3.22763 0
M  V30 1645 N 149.288 1.51039 0.449983 0
M  V30 1646 C 150.198 1.74261 1.57067 0
M  V30 1647 C 151.214 0.626363 1.62335 0
M  V30 1648 O 152.39 0.907162 1.79812 0
M  V30 1649 C 149.455 1.85114 2.93144 0
M  V30 1650 C 148.516 3.0893 2.98095 0
M  V30 1651 C 147.749 3.19256 4.27681 0
M  V30 1652 O 147.972 2.35835 5.19363 0
M  V30 1653 O 146.906 4.12144 4.38658 0
M  V30 1654 H 150.732 2.69303 1.40391 0
M  V30 1655 H 148.317 1.35389 0.631688 0
M  V30 1656 H 150.199 1.94311 3.73926 0
M  V30 1657 H 148.874 0.932588 3.09975 0
M  V30 1658 H 147.781 3.0522 2.16314 0
M  V30 1659 H 149.114 4.00433 2.86206 0
M  V30 1660 N 150.766 -0.704594 1.40972 0
M  V30 1661 C 151.714 -1.83994 1.42299 0
M  V30 1662 C 152.708 -1.66684 0.302111 0
M  V30 1663 O 153.914 -1.73655 0.473697 0
M  V30 1664 H 150.289 -0.606171 0.44504 0
M  V30 1665 H 152.26 -1.79992 2.38003 0
M  V30 1666 C 151.009 -3.21946 1.31323 0
M  V30 1667 H 150.332 -3.35878 2.16855 0
M  V30 1668 H 151.772 -4.01491 1.36311 0
M  V30 1669 C 150.231 -3.36891 0.0245977 0
M  V30 1670 O 150.761 -3.90687 -0.934153 0
M  V30 1671 N 148.967 -2.90559 -0.0485243 0
M  V30 1672 H 148.514 -2.46968 0.732419 0
M  V30 1673 H 148.472 -3.00937 -0.910171 0
M  V30 1674 N 152.244 -1.26651 -0.937939 0
M  V30 1675 C 153.474 -1.15006 -1.71631 0
M  V30 1676 C 153.882 0.297026 -1.86854 0
M  V30 1677 O 153.225 1.21493 -1.37786 0
M  V30 1678 C 153.287 -1.74984 -3.14039 0
M  V30 1679 C 152.951 -3.24103 -3.2219 0
M  V30 1680 C 153.948 -4.20877 -3.05219 0
M  V30 1681 C 151.633 -3.64625 -3.45476 0
M  V30 1682 C 153.627 -5.56151 -3.11408 0
M  V30 1683 C 151.314 -5.00032 -3.513 0
M  V30 1684 C 152.312 -5.95604 -3.34282 0
M  V30 1685 O 152 -7.28545 -3.3982 0
M  V30 1686 H 151.732 -0.401183 -0.544085 0
M  V30 1687 H 154.286 -1.67832 -1.18413 0
M  V30 1688 H 152.516 -1.16624 -3.68695 0
M  V30 1689 H 154.205 -1.58199 -3.73802 0
M  V30 1690 H 154.971 -3.90908 -2.87081 0
M  V30 1691 H 150.85 -2.90718 -3.57777 0
M  V30 1692 H 154.394 -6.30727 -2.98043 0
M  V30 1693 H 150.291 -5.29659 -3.68959 0
M  V30 1694 H 151.059 -7.3686 -3.56343 0
M  V30 1695 N 153.722 1.14298 -1.08507 0
M  V30 1696 C 154.669 2.19414 -0.715965 0
M  V30 1697 C 155.639 1.63399 0.298326 0
M  V30 1698 O 156.824 1.89929 0.182101 0
M  V30 1699 C 153.964 3.44845 -0.132534 0
M  V30 1700 C 153.077 4.15007 -1.19973 0
M  V30 1701 C 152.212 5.28024 -0.580048 0
M  V30 1702 C 151.251 5.9002 -1.62921 0
M  V30 1703 N 150.388 6.94485 -1.03125 0
M  V30 1704 H 155.228 2.50336 -1.61666 0
M  V30 1705 H 152.765 1.2293 -0.807882 0
M  V30 1706 H 154.723 4.16601 0.223454 0
M  V30 1707 H 153.353 3.14403 0.731467 0
M  V30 1708 H 152.405 3.41629 -1.67313 0
M  V30 1709 H 153.717 4.57178 -1.99473 0
M  V30 1710 H 152.871 6.06455 -0.172364 0
M  V30 1711 H 151.61 4.87076 0.246603 0
M  V30 1712 H 150.615 5.10291 -2.04654 0
M  V30 1713 H 151.84 6.33042 -2.45835 0
M  V30 1714 H 149.786 6.55612 -0.225711 0
M  V30 1715 H 149.703 7.35148 -1.76334 0
M  V30 1716 H 150.971 7.7679 -0.649458 0
M  V30 1717 N 155.201 0.870884 1.31352 0
M  V30 1718 C 156.426 0.495957 2.01383 0
M  V30 1719 C 156.851 -0.904324 1.64935 0
M  V30 1720 O 156.209 -1.59687 0.858466 0
M  V30 1721 C 156.257 0.661433 3.54482 0
M  V30 1722 O 155.361 -0.298851 4.11316 0
M  V30 1723 H 154.702 0.197158 0.634054 0
M  V30 1724 H 157.232 1.17455 1.67527 0
M  V30 1725 H 157.242 0.555072 4.04207 0
M  V30 1726 H 155.917 1.68246 3.8035 0
M  V30 1727 H 154.494 -0.147368 3.72609 0
M  V30 1728 N 156.679 -1.44442 0.630414 0
M  V30 1729 C 157.642 -2.29107 -0.0652523 0
M  V30 1730 C 158.642 -1.41002 -0.772995 0
M  V30 1731 O 159.832 -1.62881 -0.617692 0
M  V30 1732 C 156.964 -3.22564 -1.10296 0
M  V30 1733 H 158.157 -2.92103 0.679401 0
M  V30 1734 H 155.71 -1.51343 0.390517 0
M  V30 1735 H 156.445 -2.64416 -1.87762 0
M  V30 1736 H 156.23 -3.87491 -0.59941 0
M  V30 1737 H 157.72 -3.86167 -1.5895 0
M  V30 1738 N 158.157 -0.370918 -1.53173 0
M  V30 1739 C 159.385 0.217704 -2.05751 0
M  V30 1740 C 159.8 1.42018 -1.24404 0
M  V30 1741 O 159.157 1.80245 -0.286033 0
M  V30 1742 C 159.208 0.605954 -3.56385 0
M  V30 1743 O 158.929 -0.548734 -4.3465 0
M  V30 1744 C 160.43 1.2524 -4.25241 0
M  V30 1745 H 157.65 0.0371659 -0.66997 0
M  V30 1746 H 160.194 -0.530832 -1.9749 0
M  V30 1747 H 158.349 1.3044 -3.6478 0
M  V30 1748 H 158.763 -0.23376 -5.23979 0
M  V30 1749 H 160.237 1.47458 -5.3194 0
M  V30 1750 H 160.714 2.2143 -3.79296 0
M  V30 1751 H 161.32 0.595233 -4.21114 0
M  V30 1752 N 159.635 1.57281 -0.100228 0
M  V30 1753 C 160.883 1.94153 0.561157 0
M  V30 1754 C 161.204 0.983157 1.68401 0
M  V30 1755 O 160.474 0.0361132 1.95867 0
M  V30 1756 H 159.054 0.716791 0.210283 0
M  V30 1757 H 161.716 1.94202 -0.164765 0
M  V30 1758 H 160.812 2.96709 0.968008 0
M  V30 1759 N 161.113 -0.173488 1.56642 0
M  V30 1760 C 162.06 -1.21482 1.96242 0
M  V30 1761 C 163.03 -1.44104 0.826027 0
M  V30 1762 O 164.215 -1.5688 1.08597 0
M  V30 1763 C 161.355 -2.54964 2.32567 0
M  V30 1764 C 160.468 -2.39739 3.59373 0
M  V30 1765 C 159.603 -3.66072 3.84921 0
M  V30 1766 C 158.642 -3.45771 5.05083 0
M  V30 1767 N 157.779 -4.64169 5.26775 0
M  V30 1768 H 162.619 -0.870123 2.85014 0
M  V30 1769 H 160.156 -0.418245 1.41029 0
M  V30 1770 H 162.114 -3.32758 2.5165 0
M  V30 1771 H 160.744 -2.87433 1.46908 0
M  V30 1772 H 159.796 -1.53131 3.48217 0
M  V30 1773 H 161.108 -2.20683 4.47326 0
M  V30 1774 H 160.262 -4.52303 4.0436 0
M  V30 1775 H 159.001 -3.88105 2.9534 0
M  V30 1776 H 158.006 -2.57927 4.85545 0
M  V30 1777 H 159.231 -3.25163 5.96193 0
M  V30 1778 H 157.177 -4.86425 4.40144 0
M  V30 1779 H 157.094 -4.48019 6.08946 0
M  V30 1780 H 158.362 -5.51689 5.5069 0
M  V30 1781 N 162.591 -1.51276 -0.441967 0
M  V30 1782 C 163.84 -1.6295 -1.18871 0
M  V30 1783 C 164.153 -0.349312 -1.92456 0
M  V30 1784 O 165.359 -0.345355 -2.69295 0
M  V30 1785 C 163.815 -2.87759 -2.16155 0
M  V30 1786 C 163.423 -4.22764 -1.48239 0
M  V30 1787 C 165.167 -3.08788 -2.91291 0
M  V30 1788 C 163.074 -5.38728 -2.4398 0
M  V30 1789 H 162.004 -0.606913 -0.447406 0
M  V30 1790 H 164.655 -1.77739 -0.456205 0
M  V30 1791 H 163.037 -2.66593 -2.92821 0
M  V30 1792 H 164.211 -4.54293 -0.771635 0
M  V30 1793 H 162.526 -4.07575 -0.852741 0
M  V30 1794 H 165.123 -3.92599 -3.63002 0
M  V30 1795 H 165.466 -2.21679 -3.5237 0
M  V30 1796 H 165.999 -3.30272 -2.21733 0
M  V30 1797 H 162.738 -6.28082 -1.87598 0
M  V30 1798 H 162.258 -5.1158 -3.13123 0
M  V30 1799 H 163.937 -5.70489 -3.05207 0
M  V30 1800 N 164.069 0.697108 -1.41344 0
M  V30 1801 C 164.999 1.82353 -1.45841 0
M  V30 1802 C 165.98 1.67115 -0.317247 0
M  V30 1803 O 167.165 1.86871 -0.528474 0
M  V30 1804 C 164.295 3.20476 -1.33838 0
M  V30 1805 C 163.249 3.50415 -2.4575 0
M  V30 1806 C 162.575 4.87878 -2.18813 0
M  V30 1807 C 163.875 3.49546 -3.88091 0
M  V30 1808 H 165.569 1.78846 -2.40113 0
M  V30 1809 H 163.115 0.859028 -1.15571 0
M  V30 1810 H 165.068 3.98988 -1.35596 0
M  V30 1811 H 163.792 3.24604 -0.360498 0
M  V30 1812 H 162.451 2.74253 -2.43271 0
M  V30 1813 H 162.099 4.8863 -1.19371 0
M  V30 1814 H 161.799 5.08875 -2.93803 0
M  V30 1815 H 163.323 5.68702 -2.22284 0
M  V30 1816 H 164.737 4.18066 -3.92293 0
M  V30 1817 H 163.134 3.82075 -4.62751 0
M  V30 1818 H 164.204 2.48552 -4.16353 0
M  V30 1819 N 165.547 1.27147 0.931209 0
M  V30 1820 C 166.777 1.15914 1.71019 0
M  V30 1821 C 167.185 -0.287112 1.87009 0
M  V30 1822 O 166.528 -1.20761 1.38429 0
M  V30 1823 C 166.59 1.76647 3.13107 0
M  V30 1824 C 166.254 3.25807 3.20467 0
M  V30 1825 C 167.251 4.22489 3.02983 0
M  V30 1826 C 164.936 3.66452 3.43538 0
M  V30 1827 C 166.93 5.57794 3.08454 0
M  V30 1828 C 164.617 5.01888 3.48643 0
M  V30 1829 C 165.615 5.97369 3.31119 0
M  V30 1830 O 165.303 7.30337 3.35952 0
M  V30 1831 H 165.035 0.404062 0.54195 0
M  V30 1832 H 167.589 1.68457 1.17521 0
M  V30 1833 H 165.819 1.18578 3.68071 0
M  V30 1834 H 167.508 1.60179 3.72958 0
M  V30 1835 H 168.274 3.92425 2.85004 0
M  V30 1836 H 164.153 2.92611 3.5623 0
M  V30 1837 H 167.697 6.32298 2.94694 0
M  V30 1838 H 163.594 5.31609 3.66145 0
M  V30 1839 H 164.362 7.38739 3.5243 0
M  V30 1840 N 167.025 -1.13721 1.09112 0
M  V30 1841 C 168.271 -1.85198 0.826414 0
M  V30 1842 C 168.604 -1.83129 -0.646319 0
M  V30 1843 O 167.879 -1.2671 -1.47563 0
M  V30 1844 C 168.162 -3.33507 1.35812 0
M  V30 1845 C 168.015 -3.44108 2.89672 0
M  V30 1846 C 169.334 -4.28838 0.989256 0
M  V30 1847 H 166.453 -0.67243 0.301675 0
M  V30 1848 H 169.095 -1.33499 1.35197 0
M  V30 1849 H 167.245 -3.77666 0.911082 0
M  V30 1850 H 168.917 -3.08684 3.428 0
M  V30 1851 H 167.16 -2.85087 3.26967 0
M  V30 1852 H 167.831 -4.48388 3.21951 0
M  V30 1853 H 170.307 -3.92734 1.37475 0
M  V30 1854 H 169.183 -5.31051 1.38838 0
M  V30 1855 H 169.444 -4.4198 -0.102924 0
M  V30 1856 N 168.503 -0.877838 -1.30888 0
M  V30 1857 C 169.413 -0.343096 -2.32078 0
M  V30 1858 C 170.429 0.551022 -1.65045 0
M  V30 1859 O 171.605 0.445854 -1.96403 0
M  V30 1860 C 168.67 0.439905 -3.43898 0
M  V30 1861 C 167.731 -0.483111 -4.26573 0
M  V30 1862 C 166.964 0.262616 -5.33053 0
M  V30 1863 O 167.187 1.48967 -5.50604 0
M  V30 1864 O 166.121 -0.383593 -6.00676 0
M  V30 1865 H 169.947 -1.18203 -2.79753 0
M  V30 1866 H 167.532 -0.64145 -1.34929 0
M  V30 1867 H 169.414 0.883504 -4.12034 0
M  V30 1868 H 168.089 1.25526 -2.98371 0
M  V30 1869 H 166.996 -0.975374 -3.61161 0
M  V30 1870 H 168.329 -1.26427 -4.75686 0
M  V30 1871 N 169.982 1.44106 -0.638065 0
M  V30 1872 C 170.929 2.30715 0.062701 0
M  V30 1873 C 171.899 1.43882 0.829883 0
M  V30 1874 O 173.084 1.72775 0.809532 0
M  V30 1875 C 170.224 3.29258 1.03358 0
M  V30 1876 C 169.337 4.31192 0.26409 0
M  V30 1877 C 168.472 5.16825 1.22741 0
M  V30 1878 C 167.511 6.10462 0.447475 0
M  V30 1879 N 166.648 6.8877 1.36161 0
M  V30 1880 H 171.488 2.90096 -0.681781 0
M  V30 1881 H 169.025 1.42925 -0.347988 0
M  V30 1882 H 170.983 3.84886 1.60992 0
M  V30 1883 H 169.613 2.71562 1.74511 0
M  V30 1884 H 168.665 3.77981 -0.428295 0
M  V30 1885 H 169.977 4.97619 -0.343052 0
M  V30 1886 H 169.131 5.77004 1.87487 0
M  V30 1887 H 167.87 4.50488 1.86847 0
M  V30 1888 H 166.875 5.49386 -0.213433 0
M  V30 1889 H 168.1 6.78837 -0.188968 0
M  V30 1890 H 166.046 6.25096 1.98975 0
M  V30 1891 H 165.963 7.51663 0.808656 0
M  V30 1892 H 167.231 7.53467 1.99769 0
M  V30 1893 N 171.46 0.379036 1.52974 0
M  V30 1894 C 172.688 -0.20679 2.05864 0
M  V30 1895 C 173.103 -1.41356 1.25155 0
M  V30 1896 O 172.46 -1.8009 0.295588 0
M  V30 1897 C 172.511 -0.587045 3.56702 0
M  V30 1898 O 172.232 0.571776 4.34353 0
M  V30 1899 C 173.733 -1.22983 4.25899 0
M  V30 1900 H 170.953 -0.0336123 0.670158 0
M  V30 1901 H 173.497 0.541298 1.97206 0
M  V30 1902 H 171.652 -1.28504 3.65466 0
M  V30 1903 H 172.066 0.261544 5.23847 0
M  V30 1904 H 173.54 -1.44635 5.32715 0
M  V30 1905 H 174.017 -2.19416 3.80465 0
M  V30 1906 H 174.623 -0.572892 4.21424 0
M  V30 1907 N 172.938 -1.57226 0.108567 0
M  V30 1908 C 173.87 -2.11809 -0.875752 0
M  V30 1909 C 174.883 -1.05839 -1.23701 0
M  V30 1910 O 176.072 -1.33245 -1.18778 0
M  V30 1911 C 173.172 -2.59411 -2.18081 0
M  V30 1912 C 172.345 -3.89364 -1.99284 0
M  V30 1913 C 171.404 -4.22672 -3.13424 0
M  V30 1914 O 170.43 -4.91668 -2.86795 0
M  V30 1915 N 171.632 -3.79154 -4.3957 0
M  V30 1916 H 174.397 -2.9689 -0.409477 0
M  V30 1917 H 171.958 -1.61721 -0.076158 0
M  V30 1918 H 173.95 -2.7873 -2.93414 0
M  V30 1919 H 172.52 -1.79268 -2.5609 0
M  V30 1920 H 171.74 -3.79059 -1.08203 0
M  V30 1921 H 173.028 -4.74358 -1.84017 0
M  V30 1922 H 172.426 -3.23486 -4.64083 0
M  V30 1923 H 170.983 -4.03602 -5.11809 0
M  V30 1924 N 174.416 0.165178 -1.56732 0
M  V30 1925 C 175.663 0.880807 -1.8234 0
M  V30 1926 C 175.991 1.81977 -0.686621 0
M  V30 1927 O 175.246 1.92971 0.325697 0
M  V30 1928 C 175.545 1.70405 -3.1416 0
M  V30 1929 C 175.211 0.913475 -4.4155 0
M  V30 1930 C 173.873 0.695303 -4.7615 0
M  V30 1931 C 176.225 0.359349 -5.1996 0
M  V30 1932 C 173.553 -0.0879947 -5.86634 0
M  V30 1933 C 175.905 -0.410893 -6.31264 0
M  V30 1934 C 174.569 -0.639808 -6.64427 0
M  V30 1935 H 173.839 0.32231 -0.667231 0
M  V30 1936 H 176.486 0.145402 -1.90947 0
M  V30 1937 H 174.791 2.50903 -3.00923 0
M  V30 1938 H 176.488 2.26091 -3.31186 0
M  V30 1939 H 173.078 1.09357 -4.14414 0
M  V30 1940 H 177.262 0.515228 -4.93618 0
M  V30 1941 H 172.518 -0.27503 -6.10781 0
M  V30 1942 H 176.692 -0.847494 -6.91224 0
M  V30 1943 H 174.319 -1.24864 -7.49875 0
M  V30 1944 N 175.894 1.51508 0.433938 0
M  V30 1945 C 176.842 1.73646 1.54757 0
M  V30 1946 C 177.836 0.602854 1.5831 0
M  V30 1947 O 179.042 0.784318 1.62014 0
M  V30 1948 H 175.417 0.548718 0.51421 0
M  V30 1949 H 177.388 2.66991 1.33261 0
M  V30 1950 C 176.137 1.88172 2.92381 0
M  V30 1951 H 175.46 2.74808 2.90381 0
M  V30 1952 H 176.9 2.07672 3.6966 0
M  V30 1953 C 175.359 0.64239 3.30719 0
M  V30 1954 O 175.889 -0.201362 4.01195 0
M  V30 1955 N 174.095 0.485489 2.86516 0
M  V30 1956 H 173.642 1.17318 2.29334 0
M  V30 1957 H 173.6 -0.342482 3.12529 0
M  V30 1958 N 177.372 -0.689602 1.41712 0
M  V30 1959 C 178.319 -1.80345 1.44029 0
M  V30 1960 C 179.289 -1.63478 0.293948 0
M  V30 1961 O 180.474 -1.84244 0.495869 0
M  V30 1962 C 177.614 -3.18272 1.33405 0
M  V30 1963 C 176.727 -3.46529 2.57956 0
M  V30 1964 C 175.862 -4.74103 2.39582 0
M  V30 1965 C 174.901 -4.95347 3.5958 0
M  V30 1966 N 174.038 -6.14151 3.40239 0
M  V30 1967 H 178.878 -1.77698 2.39222 0
M  V30 1968 H 176.415 -0.867688 1.18784 0
M  V30 1969 H 178.373 -3.97956 1.25246 0
M  V30 1970 H 177.003 -3.2008 0.418164 0
M  V30 1971 H 176.055 -2.61207 2.76542 0
M  V30 1972 H 177.367 -3.58126 3.47199 0
M  V30 1973 H 176.521 -5.61853 2.28924 0
M  V30 1974 H 175.26 -4.64763 1.47805 0
M  V30 1975 H 174.265 -4.06044 3.70686 0
M  V30 1976 H 175.49 -5.06542 4.52318 0
M  V30 1977 H 173.436 -6.06013 2.51167 0
M  V30 1978 H 173.353 -6.26543 4.23061 0
M  V30 1979 H 174.621 -7.04619 3.33365 0
M  V30 1980 N 178.85 -1.27639 -0.924453 0
M  V30 1981 C 180.096 -1.14336 -1.67497 0
M  V30 1982 C 180.429 0.309465 -1.91718 0
M  V30 1983 O 179.704 1.22608 -1.50989 0
M  V30 1984 C 179.987 -1.93096 -3.0395 0
M  V30 1985 C 179.84 -3.46381 -2.8695 0
M  V30 1986 C 181.159 -1.73798 -4.0433 0
M  V30 1987 H 178.278 -0.416728 -0.607871 0
M  V30 1988 H 180.92 -1.56832 -1.07256 0
M  V30 1989 H 179.07 -1.56982 -3.55372 0
M  V30 1990 H 180.742 -3.92343 -2.42621 0
M  V30 1991 H 178.985 -3.72557 -2.22225 0
M  V30 1992 H 179.656 -3.96735 -3.83804 0
M  V30 1993 H 182.132 -2.05293 -3.61931 0
M  V30 1994 H 181.008 -2.31294 -4.97789 0
M  V30 1995 H 181.269 -0.686725 -4.36734 0
M  V30 1996 N 180.328 1.1314 -1.09713 0
M  V30 1997 C 181.291 2.16831 -0.742751 0
M  V30 1998 C 182.291 1.59159 0.229129 0
M  V30 1999 O 183.481 1.74199 0.00693237 0
M  V30 2000 C 180.613 3.40756 -0.0989168 0
M  V30 2001 H 181.806 2.49695 -1.66109 0
M  V30 2002 H 179.359 1.2802 -0.896699 0
M  V30 2003 H 180.094 3.13485 0.830514 0
M  V30 2004 H 179.879 3.83888 -0.798265 0
M  V30 2005 H 181.369 4.17386 0.133524 0
M  V30 2006 N 181.806 0.884767 1.30421 0
M  V30 2007 C 182.716 0.355398 2.31892 0
M  V30 2008 C 183.732 -0.542261 1.65335 0
M  V30 2009 O 184.908 -0.435432 1.96637 0
M  V30 2010 C 181.973 -0.421661 3.44126 0
M  V30 2011 C 181.034 0.505727 4.26311 0
M  V30 2012 C 180.267 -0.234343 5.33185 0
M  V30 2013 O 180.49 -1.46045 5.51386 0
M  V30 2014 O 179.424 0.415443 6.00465 0
M  V30 2015 H 183.25 1.19685 2.79122 0
M  V30 2016 H 180.835 0.648596 1.34587 0
M  V30 2017 H 182.717 -0.861641 4.12497 0
M  V30 2018 H 181.392 -1.23942 2.99032 0
M  V30 2019 H 180.299 0.994513 3.60639 0
M  V30 2020 H 181.632 1.28948 4.75009 0
M  V30 2021 N 183.284 -1.43765 0.645699 0
M  V30 2022 C 184.53 -2.02197 0.156271 0
M  V30 2023 C 184.863 -1.50776 -1.22393 0
M  V30 2024 O 184.138 -0.697771 -1.81553 0
M  V30 2025 C 184.421 -3.59749 0.158872 0
M  V30 2026 C 184.274 -4.21419 1.57245 0
M  V30 2027 C 185.593 -4.37149 -0.50879 0
M  V30 2028 H 182.712 -0.734694 0.0582602 0
M  V30 2029 H 185.354 -1.71157 0.824951 0
M  V30 2030 H 183.504 -3.86325 -0.410525 0
M  V30 2031 H 185.176 -4.059 2.19186 0
M  V30 2032 H 183.419 -3.78356 2.122 0
M  V30 2033 H 184.09 -5.30482 1.52619 0
M  V30 2034 H 186.566 -4.16093 -0.024412 0
M  V30 2035 H 185.442 -5.4683 -0.476213 0
M  V30 2036 H 185.703 -4.12839 -1.58165 0
M  V30 2037 N 184.763 -0.387143 -1.52771 0
M  V30 2038 C 186.01 0.195735 -2.01552 0
M  V30 2039 C 186.338 1.46995 -1.27369 0
M  V30 2040 O 185.593 1.92325 -0.361879 0
M  V30 2041 C 185.892 0.512209 -3.53711 0
M  V30 2042 C 185.558 -0.670202 -4.45891 0
M  V30 2043 C 184.22 -0.994586 -4.70809 0
M  V30 2044 C 186.572 -1.46134 -5.00294 0
M  V30 2045 C 183.9 -2.11169 -5.4738 0
M  V30 2046 C 186.252 -2.56903 -5.78086 0
M  V30 2047 C 184.916 -2.89852 -6.01284 0
M  V30 2048 H 184.186 0.0716246 -0.73753 0
M  V30 2049 H 186.833 -0.524046 -1.8419 0
M  V30 2050 H 185.138 1.31329 -3.69134 0
M  V30 2051 H 186.835 0.975804 -3.88946 0
M  V30 2052 H 183.425 -0.407366 -4.2666 0
M  V30 2053 H 187.609 -1.22397 -4.80971 0
M  V30 2054 H 182.865 -2.3707 -5.63567 0
M  V30 2055 H 187.039 -3.18608 -6.19243 0
M  V30 2056 H 184.666 -3.76533 -6.60399 0
M  V30 2057 N 186.241 1.57166 -0.116904 0
M  V30 2058 C 187.191 2.11756 0.845178 0
M  V30 2059 C 188.175 1.03783 1.22955 0
M  V30 2060 O 189.367 1.3002 1.20099 0
M  V30 2061 C 186.496 2.71886 2.09602 0
M  V30 2062 C 185.582 3.86937 1.7361 0
M  V30 2063 N 185.973 4.94073 1.08284 0
M  V30 2064 C 184.271 3.97082 2.03082 0
M  V30 2065 C 184.972 5.74477 0.913855 0
M  V30 2066 N 183.948 5.2423 1.43818 0
M  V30 2067 H 187.75 2.91967 0.336523 0
M  V30 2068 H 185.264 1.62174 0.0856332 0
M  V30 2069 H 187.261 3.09338 2.79492 0
M  V30 2070 H 185.921 1.93138 2.61013 0
M  V30 2071 H 186.932 5.12483 0.747067 0
M  V30 2072 H 183.609 3.29372 2.56554 0
M  V30 2073 H 184.999 6.70701 0.40125 0
M  V30 2074 N 187.719 -0.156864 1.56817 0
M  V30 2075 C 188.666 -1.19394 1.97519 0
M  V30 2076 C 189.636 -1.4322 0.841265 0
M  V30 2077 O 190.821 -1.55719 1.10255 0
M  V30 2078 C 187.961 -2.52483 2.35258 0
M  V30 2079 C 187.074 -2.35914 3.61896 0
M  V30 2080 C 186.209 -3.61969 3.88782 0
M  V30 2081 C 185.248 -3.40395 5.08722 0
M  V30 2082 N 184.385 -4.58556 5.31668 0
M  V30 2083 H 189.225 -0.839845 2.85921 0
M  V30 2084 H 186.762 -0.403264 1.41464 0
M  V30 2085 H 188.72 -3.30071 2.55165 0
M  V30 2086 H 187.35 -2.85859 1.49949 0
M  V30 2087 H 186.402 -1.49429 3.49821 0
M  V30 2088 H 187.714 -2.15926 4.49641 0
M  V30 2089 H 186.868 -4.47989 4.09135 0
M  V30 2090 H 185.607 -3.84951 2.9944 0
M  V30 2091 H 184.612 -2.52763 4.88253 0
M  V30 2092 H 185.837 -3.18822 5.99608 0
M  V30 2093 H 183.783 -4.81729 4.45279 0
M  V30 2094 H 183.7 -4.41535 6.13664 0
M  V30 2095 H 184.968 -5.45817 5.5651 0
M  V30 2096 N 189.197 -1.51736 -0.425897 0
M  V30 2097 C 190.427 -1.68549 -1.19476 0
M  V30 2098 C 190.835 -0.387288 -1.85194 0
M  V30 2099 O 190.178 0.645142 -1.71999 0
M  V30 2100 C 190.24 -2.75275 -2.31223 0
M  V30 2101 C 189.904 -4.17534 -1.8578 0
M  V30 2102 C 190.901 -5.01936 -1.35485 0
M  V30 2103 C 188.586 -4.6369 -1.93123 0
M  V30 2104 C 190.58 -6.30559 -0.931347 0
M  V30 2105 C 188.267 -5.92307 -1.50384 0
M  V30 2106 C 189.265 -6.75569 -1.00473 0
M  V30 2107 O 188.953 -8.0178 -0.583452 0
M  V30 2108 H 188.685 -0.568525 -0.365725 0
M  V30 2109 H 191.239 -1.98982 -0.509444 0
M  V30 2110 H 189.469 -2.40182 -3.03067 0
M  V30 2111 H 191.158 -2.80853 -2.93047 0
M  V30 2112 H 191.924 -4.67475 -1.29197 0
M  V30 2113 H 187.803 -3.98997 -2.30916 0
M  V30 2114 H 191.347 -6.95498 -0.541084 0
M  V30 2115 H 187.244 -6.2628 -1.56346 0
M  V30 2116 H 188.012 -8.1543 -0.708275 0
M  V30 2117 N 190.675 0.682077 -1.42076 0
M  V30 2118 C 191.605 1.80796 -1.47767 0
M  V30 2119 C 192.586 1.6677 -0.334954 0
M  V30 2120 O 193.771 1.863 -0.548264 0
M  V30 2121 C 190.901 3.19038 -1.37229 0
M  V30 2122 C 189.855 3.47789 -2.49453 0
M  V30 2123 C 189.181 4.8553 -2.23975 0
M  V30 2124 C 190.481 3.45411 -3.91776 0
M  V30 2125 H 192.175 1.7629 -2.41997 0
M  V30 2126 H 189.721 0.846721 -1.16476 0
M  V30 2127 H 191.674 3.97528 -1.39821 0
M  V30 2128 H 190.398 3.24204 -0.394907 0
M  V30 2129 H 189.057 2.71657 -2.46166 0
M  V30 2130 H 188.705 4.87337 -1.24547 0
M  V30 2131 H 188.405 5.0573 -2.99184 0
M  V30 2132 H 189.929 5.66312 -2.28304 0
M  V30 2133 H 191.343 4.13882 -3.96705 0
M  V30 2134 H 189.74 3.77145 -4.66778 0
M  V30 2135 H 190.81 2.44122 -4.18966 0
M  V30 2136 N 192.153 1.28127 0.917671 0
M  V30 2137 C 193.43 1.05761 1.64542 0
M  V30 2138 C 193.81 -0.404344 2.07191 0
M  V30 2139 O 193.158 -1.38963 1.81388 0
M  V30 2140 C 193.368 2.02857 2.83989 0
M  V30 2141 C 194.716 2.32786 3.551 0
M  V30 2142 O 195.74 2.0091 2.94132 0
M  V30 2143 O 194.599 2.87169 4.64969 0
M  V30 2144 H 191.693 0.403916 0.721652 0
M  V30 2145 H 194.239 1.39431 0.967322 0
M  V30 2146 H 193.011 3.01407 2.49538 0
M  V30 2147 H 192.634 1.69809 3.59514 0
M  V30 2148 N 193.631 -1.12557 1.10312 0
M  V30 2149 C 194.564 -2.1737 0.694674 0
M  V30 2150 C 195.542 -1.59745 -0.303373 0
M  V30 2151 O 196.726 -1.87408 -0.202578 0
M  V30 2152 C 193.853 -3.38691 0.0248052 0
M  V30 2153 C 192.899 -4.14943 0.986121 0
M  V30 2154 S 193.732 -4.73413 2.50281 0
M  V30 2155 C 194.888 -5.9807 1.84562 0
M  V30 2156 H 195.121 -2.5168 1.58255 0
M  V30 2157 H 192.654 -1.23998 0.919992 0
M  V30 2158 H 194.612 -4.08959 -0.355361 0
M  V30 2159 H 193.273 -3.02664 -0.839851 0
M  V30 2160 H 192.466 -5.01854 0.464651 0
M  V30 2161 H 192.068 -3.50377 1.30813 0
M  V30 2162 H 194.36 -6.67232 1.17507 0
M  V30 2163 H 195.303 -6.54841 2.69423 0
M  V30 2164 H 195.711 -5.49073 1.31069 0
M  V30 2165 N 195.109 -0.891671 -1.2995 0
M  V30 2166 C 196.019 -0.367691 -2.31701 0
M  V30 2167 C 197.035 0.533486 -1.6562 0
M  V30 2168 O 198.211 0.424997 -1.96865 0
M  V30 2169 C 195.276 0.403406 -3.44345 0
M  V30 2170 C 194.337 -0.528328 -4.26037 0
M  V30 2171 C 193.57 0.206063 -5.33302 0
M  V30 2172 O 193.793 1.43119 -5.52153 0
M  V30 2173 O 192.727 -0.447281 -6.00236 0
M  V30 2174 H 196.553 -1.21163 -2.78484 0
M  V30 2175 H 194.138 -0.655725 -1.34241 0
M  V30 2176 H 196.02 0.839753 -4.12948 0
M  V30 2177 H 194.695 1.22354 -2.99685 0
M  V30 2178 H 193.602 -1.01362 -3.60106 0
M  V30 2179 H 194.935 -1.31465 -4.74318 0
M  V30 2180 N 196.587 1.43421 -0.653314 0
M  V30 2181 C 197.497 2.34568 0.0388565 0
M  V30 2182 C 198.513 1.53888 0.81207 0
M  V30 2183 O 199.689 1.86539 0.759294 0
M  V30 2184 C 196.754 3.32167 0.993269 0
M  V30 2185 C 195.815 4.28751 0.216977 0
M  V30 2186 C 195.048 5.21688 1.12593 0
M  V30 2187 O 195.271 5.19052 2.36519 0
M  V30 2188 O 194.205 5.98919 0.598284 0
M  V30 2189 H 198.031 2.95251 -0.711386 0
M  V30 2190 H 195.616 1.43564 -0.413502 0
M  V30 2191 H 197.498 3.92183 1.54176 0
M  V30 2192 H 196.173 2.73987 1.72374 0
M  V30 2193 H 195.08 3.72215 -0.375101 0
M  V30 2194 H 196.413 4.89913 -0.473924 0
M  V30 2195 N 198.065 0.39524 1.52563 0
M  V30 2196 C 199.29 -0.187456 2.06551 0
M  V30 2197 C 199.715 -1.39249 1.26457 0
M  V30 2198 O 199.073 -1.78947 0.291151 0
M  V30 2199 C 199.121 -0.529985 3.56684 0
M  V30 2200 O 198.225 -1.62307 3.79118 0
M  V30 2201 H 197.566 -0.0202537 0.663691 0
M  V30 2202 H 200.096 0.564426 1.96661 0
M  V30 2203 H 200.106 -0.792598 4.00227 0
M  V30 2204 H 198.781 0.350987 4.14416 0
M  V30 2205 H 197.358 -1.3537 3.47461 0
M  V30 2206 N 199.544 -1.57102 0.125237 0
M  V30 2207 C 200.774 -1.99472 -0.538015 0
M  V30 2208 C 201.182 -1.00395 -1.60366 0
M  V30 2209 O 200.525 0.0103875 -1.83697 0
M  V30 2210 C 200.587 -3.38262 -1.21734 0
M  V30 2211 C 200.251 -4.56021 -0.298897 0
M  V30 2212 C 201.248 -5.17817 0.464943 0
M  V30 2213 C 198.933 -5.01869 -0.208149 0
M  V30 2214 C 200.927 -6.23852 1.3072 0
M  V30 2215 C 198.614 -6.07763 0.637736 0
M  V30 2216 C 199.612 -6.68622 1.39403 0
M  V30 2217 O 199.3 -7.7247 2.22586 0
M  V30 2218 H 199.032 -0.659934 -0.146501 0
M  V30 2219 H 201.586 -2.04321 0.210267 0
M  V30 2220 H 199.816 -3.30185 -2.01282 0
M  V30 2221 H 201.505 -3.6488 -1.77813 0
M  V30 2222 H 202.271 -4.83308 0.404741 0
M  V30 2223 H 198.15 -4.54241 -0.786522 0
M  V30 2224 H 201.694 -6.71284 1.898 0
M  V30 2225 H 197.591 -6.41701 0.699309 0
M  V30 2226 H 198.359 -7.89595 2.15596 0
M  V30 2227 N 201.022 0.148545 -1.56898 0
M  V30 2228 C 202.268 0.862694 -1.83536 0
M  V30 2229 C 202.601 1.80889 -0.706604 0
M  V30 2230 O 201.876 1.92328 0.289885 0
M  V30 2231 C 202.159 1.63853 -3.20662 0
M  V30 2232 C 202.012 0.713925 -4.44098 0
M  V30 2233 C 203.331 2.60133 -3.54991 0
M  V30 2234 H 200.45 0.312179 -0.667618 0
M  V30 2235 H 203.092 0.127953 -1.89569 0
M  V30 2236 H 201.242 2.26489 -3.1565 0
M  V30 2237 H 202.914 0.098686 -4.61194 0
M  V30 2238 H 201.157 0.0234019 -4.33794 0
M  V30 2239 H 201.828 1.29278 -5.36648 0
M  V30 2240 H 204.304 2.07616 -3.60603 0
M  V30 2241 H 203.18 3.11468 -4.51972 0
M  V30 2242 H 203.441 3.41417 -2.80868 0
M  V30 2243 N 202.5 1.5196 0.417844 0
M  V30 2244 C 203.916 1.40569 0.755816 0
M  V30 2245 C 204.116 0.503316 1.95113 0
M  V30 2246 O 203.172 -0.0341925 2.52477 0
M  V30 2247 C 204.485 2.82947 1.01791 0
M  V30 2248 C 206.033 2.92231 1.12116 0
M  V30 2249 C 206.508 4.35559 1.41608 0
M  V30 2250 N 207.999 4.38753 1.48491 0
M  V30 2251 C 208.734 5.46705 1.7292 0
M  V30 2252 N 208.23 6.64788 1.95011 0
M  V30 2253 N 210.023 5.34209 1.74863 0
M  V30 2254 H 202.174 2.09168 -0.369098 0
M  V30 2255 H 204.437 0.942409 -0.102809 0
M  V30 2256 H 204.143 3.5106 0.212081 0
M  V30 2257 H 204.017 3.23462 1.94042 0
M  V30 2258 H 206.404 2.24304 1.9176 0
M  V30 2259 H 206.485 2.55185 0.177225 0
M  V30 2260 H 206.129 5.04042 0.624848 0
M  V30 2261 H 206.059 4.70133 2.37239 0
M  V30 2262 H 208.55 3.5363 1.33244 0
M  V30 2263 H 208.863 7.42845 2.13076 0
M  V30 2264 H 207.208 6.67869 1.92293 0
M  V30 2265 H 210.399 4.40937 1.57137 0
M  V30 2266 H 210.572 6.18415 1.93563 0
M  V30 2267 N 203.978 -0.674533 1.42435 0
M  V30 2268 C 204.888 -1.81751 1.48337 0
M  V30 2269 C 205.904 -1.69975 0.372099 0
M  V30 2270 O 207.08 -1.91521 0.62304 0
M  V30 2271 C 204.145 -3.17895 1.38361 0
M  V30 2272 C 203.206 -3.41625 2.59982 0
M  V30 2273 C 202.439 -4.71274 2.50473 0
M  V30 2274 O 202.662 -5.49197 1.54075 0
M  V30 2275 O 201.596 -4.96254 3.4061 0
M  V30 2276 H 205.422 -1.79728 2.44809 0
M  V30 2277 H 203.007 -0.830312 1.24202 0
M  V30 2278 H 204.889 -3.99136 1.35161 0
M  V30 2279 H 203.564 -3.20555 0.450144 0
M  V30 2280 H 202.471 -2.60231 2.68757 0
M  V30 2281 H 203.804 -3.43796 3.52229 0
M  V30 2282 N 205.456 -1.28612 -0.910864 0
M  V30 2283 C 206.388 -1.08589 -2.01844 0
M  V30 2284 C 207.401 -0.0367419 -1.62759 0
M  V30 2285 O 208.59 -0.280101 -1.76289 0
M  V30 2286 C 205.69 -0.628626 -3.33019 0
M  V30 2287 C 204.863 -1.75382 -4.00699 0
M  V30 2288 C 203.922 -1.28945 -5.10156 0
M  V30 2289 O 202.948 -1.9922 -5.33198 0
M  V30 2290 N 204.15 -0.154224 -5.80295 0
M  V30 2291 H 206.915 -2.03973 -2.19579 0
M  V30 2292 H 204.476 -1.20403 -1.08234 0
M  V30 2293 H 206.468 -0.301508 -4.03575 0
M  V30 2294 H 205.038 0.232451 -3.11735 0
M  V30 2295 H 204.258 -2.25039 -3.23653 0
M  V30 2296 H 205.546 -2.50854 -4.42662 0
M  V30 2297 H 204.944 0.43194 -5.64049 0
M  V30 2298 H 203.501 0.113599 -6.51701 0
M  V30 2299 N 206.934 1.1197 -1.10907 0
M  V30 2300 C 207.864 2.19928 -0.784473 0
M  V30 2301 C 208.845 1.6833 0.244726 0
M  V30 2302 O 210.03 1.93892 0.109418 0
M  V30 2303 C 207.16 3.46597 -0.220827 0
M  V30 2304 C 206.114 4.11376 -1.18127 0
M  V30 2305 C 205.44 5.32554 -0.478594 0
M  V30 2306 C 206.74 4.56945 -2.52979 0
M  V30 2307 H 208.434 2.47337 -1.68715 0
M  V30 2308 H 205.98 1.18879 -0.812642 0
M  V30 2309 H 207.933 4.21396 0.0184278 0
M  V30 2310 H 206.657 3.1863 0.717113 0
M  V30 2311 H 205.316 3.38564 -1.40606 0
M  V30 2312 H 204.964 5.00856 0.463976 0
M  V30 2313 H 204.664 5.76844 -1.11912 0
M  V30 2314 H 206.188 6.10096 -0.248 0
M  V30 2315 H 207.602 5.23093 -2.3462 0
M  V30 2316 H 205.999 5.1203 -3.12962 0
M  V30 2317 H 207.069 3.70676 -3.12614 0
M  V30 2318 N 208.412 0.89855 1.29475 0
M  V30 2319 C 209.637 0.538561 2.00285 0
M  V30 2320 C 210.062 -0.869135 1.66816 0
M  V30 2321 O 209.42 -1.57831 0.892145 0
M  V30 2322 C 209.468 0.736475 3.52999 0
M  V30 2323 O 208.572 -0.211537 4.11857 0
M  V30 2324 H 207.913 0.210563 0.62973 0
M  V30 2325 H 210.443 1.20982 1.64998 0
M  V30 2326 H 210.453 0.640685 4.02938 0
M  V30 2327 H 209.128 1.76276 3.76696 0
M  V30 2328 H 207.705 -0.0682991 3.72837 0
M  V30 2329 N 209.89 -1.43072 0.660911 0
M  V30 2330 C 210.822 -2.29108 -0.0647641 0
M  V30 2331 C 211.835 -1.42928 -0.779448 0
M  V30 2332 O 213.024 -1.66788 -0.635921 0
M  V30 2333 C 210.124 -3.20032 -1.11503 0
M  V30 2334 C 209.297 -4.34792 -0.476955 0
M  V30 2335 C 208.356 -5.06534 -1.42513 0
M  V30 2336 O 207.382 -5.61538 -0.930771 0
M  V30 2337 N 208.584 -5.1075 -2.75889 0
M  V30 2338 H 211.349 -2.92029 0.673731 0
M  V30 2339 H 208.91 -1.53846 0.50427 0
M  V30 2340 H 210.902 -3.64892 -1.75032 0
M  V30 2341 H 209.472 -2.58658 -1.75541 0
M  V30 2342 H 208.692 -3.92752 0.337572 0
M  V30 2343 H 209.98 -5.0879 -0.0318525 0
M  V30 2344 H 209.378 -4.67447 -3.18606 0
M  V30 2345 H 207.935 -5.59302 -3.347 0
M  V30 2346 N 211.368 -0.403325 -1.52352 0
M  V30 2347 C 212.779 0.0675782 -1.86578 0
M  V30 2348 C 213.13 1.44941 -1.32236 0
M  V30 2349 O 212.255 2.06112 -0.659307 0
M  V30 2350 C 212.85 0.129404 -3.38553 0
M  V30 2351 C 211.409 0.544629 -3.72439 0
M  V30 2352 C 210.556 -0.284551 -2.75836 0
M  V30 2353 H 213.507 -0.620631 -1.46061 0
M  V30 2354 H 213.528 0.94581 -3.68558 0
M  V30 2355 H 213.04 -0.87645 -3.78074 0
M  V30 2356 H 211.141 1.55734 -3.38493 0
M  V30 2357 H 211.254 0.293046 -4.78203 0
M  V30 2358 H 209.618 0.252258 -2.53448 0
M  V30 2359 H 210.401 -1.28865 -3.18196 0
M  V30 2360 N 212.846 1.57033 -0.133567 0
M  V30 2361 C 213.794 2.17348 0.828412 0
M  V30 2362 C 214.788 1.12671 1.26498 0
M  V30 2363 O 215.994 1.30947 1.23502 0
M  V30 2364 H 212.369 0.695775 0.285309 0
M  V30 2365 H 214.34 2.96935 0.295372 0
M  V30 2366 C 213.089 2.79893 2.06289 0
M  V30 2367 H 212.412 3.60147 1.73592 0
M  V30 2368 H 213.852 3.25615 2.71572 0
M  V30 2369 C 212.311 1.77713 2.86216 0
M  V30 2370 O 212.841 1.23937 3.82103 0
M  V30 2371 N 211.047 1.47321 2.50489 0
M  V30 2372 H 210.594 1.91243 1.7258 0
M  V30 2373 H 210.552 0.79199 3.04261 0
M  V30 2374 N 214.325 -0.140222 1.56975 0
M  V30 2375 C 215.255 -1.17456 2.01808 0
M  V30 2376 C 216.236 -1.44415 0.898794 0
M  V30 2377 O 217.421 -1.5522 1.16707 0
M  V30 2378 C 214.551 -2.50607 2.40444 0
M  V30 2379 C 213.505 -2.38155 3.55621 0
M  V30 2380 C 212.831 -3.76078 3.80091 0
M  V30 2381 C 214.131 -1.85991 4.88062 0
M  V30 2382 H 215.825 -0.801743 2.88466 0
M  V30 2383 H 213.371 -0.38422 1.38779 0
M  V30 2384 H 215.324 -3.23197 2.7041 0
M  V30 2385 H 214.048 -2.89737 1.50732 0
M  V30 2386 H 212.707 -1.68016 3.25832 0
M  V30 2387 H 212.355 -4.12656 2.87618 0
M  V30 2388 H 212.055 -3.68606 4.57606 0
M  V30 2389 H 213.579 -4.50206 4.12488 0
M  V30 2390 H 214.993 -2.4838 5.16701 0
M  V30 2391 H 213.39 -1.89393 5.6943 0
M  V30 2392 H 214.46 -0.816023 4.77984 0
M  V30 2393 N 215.803 -1.52179 -0.40978 0
M  V30 2394 C 216.75 -1.75475 -1.49924 0
M  V30 2395 C 217.72 -0.597175 -1.54994 0
M  V30 2396 O 218.905 -0.834655 -1.71575 0
M  V30 2397 C 216.045 -1.9107 -2.87378 0
M  V30 2398 C 215.158 -3.18717 -2.91622 0
M  V30 2399 C 214.293 -3.24747 -4.20372 0
M  V30 2400 C 213.332 -4.46598 -4.18588 0
M  V30 2401 N 212.469 -4.50025 -5.38908 0
M  V30 2402 H 217.309 -2.68458 -1.29361 0
M  V30 2403 H 214.846 -1.33024 -0.627934 0
M  V30 2404 H 216.804 -1.98096 -3.6717 0
M  V30 2405 H 215.434 -1.01469 -3.06437 0
M  V30 2406 H 214.486 -3.20866 -2.04326 0
M  V30 2407 H 215.798 -4.08544 -2.86169 0
M  V30 2408 H 214.952 -3.30841 -5.08556 0
M  V30 2409 H 213.691 -2.32857 -4.28519 0
M  V30 2410 H 212.696 -4.40652 -3.28794 0
M  V30 2411 H 213.921 -5.39783 -4.12081 0
M  V30 2412 H 211.867 -3.61017 -5.47725 0
M  V30 2413 H 211.784 -5.33697 -5.35447 0
M  V30 2414 H 213.052 -4.60347 -6.29048 0
M  V30 2415 N 217.281 0.66697 -1.42791 0
M  V30 2416 C 218.213 1.7925 -1.42836 0
M  V30 2417 C 219.226 1.59496 -0.326333 0
M  V30 2418 O 220.415 1.6847 -0.589916 0
M  V30 2419 C 217.515 3.16476 -1.21229 0
M  V30 2420 C 216.688 3.63011 -2.44013 0
M  V30 2421 C 215.747 4.78993 -2.17834 0
M  V30 2422 O 214.773 4.89137 -2.91091 0
M  V30 2423 N 215.975 5.68248 -1.18635 0
M  V30 2424 H 218.74 1.79695 -2.39854 0
M  V30 2425 H 216.301 0.850338 -1.37771 0
M  V30 2426 H 218.293 3.91734 -1.01621 0
M  V30 2427 H 216.863 3.10884 -0.32706 0
M  V30 2428 H 216.083 2.78346 -2.79137 0
M  V30 2429 H 217.371 3.90845 -3.25757 0
M  V30 2430 H 216.769 5.62712 -0.580615 0
M  V30 2431 H 215.326 6.43285 -1.05013 0
M  V30 2432 N 218.759 1.29093 0.90403 0
M  V30 2433 C 220.005 1.16986 1.65656 0
M  V30 2434 C 220.338 -0.278925 1.92186 0
M  V30 2435 O 219.613 -1.2019 1.5292 0
M  V30 2436 C 219.896 1.97908 3.0084 0
M  V30 2437 C 219.749 3.50903 2.81403 0
M  V30 2438 C 221.068 1.80208 4.01513 0
M  V30 2439 H 218.187 0.426346 0.601164 0
M  V30 2440 H 220.829 1.58518 1.04747 0
M  V30 2441 H 218.979 1.62616 3.52829 0
M  V30 2442 H 220.651 3.96153 2.36348 0
M  V30 2443 H 218.894 3.76045 2.1627 0
M  V30 2444 H 219.565 4.02791 3.77443 0
M  V30 2445 H 222.041 2.11025 3.58619 0
M  V30 2446 H 220.917 2.39184 4.94047 0
M  V30 2447 H 221.178 0.756119 4.35586 0
M  V30 2448 N 220.237 -1.11381 1.11499 0
M  V30 2449 C 221.462 -1.87475 0.887019 0
M  V30 2450 C 221.887 -1.79639 -0.557796 0
M  V30 2451 O 221.245 -1.15924 -1.39396 0
M  V30 2452 C 221.293 -3.34213 1.35403 0
M  V30 2453 O 220.397 -4.0903 0.526146 0
M  V30 2454 H 219.738 -0.582099 0.319463 0
M  V30 2455 H 222.268 -1.40785 1.48461 0
M  V30 2456 H 222.278 -3.8506 1.34881 0
M  V30 2457 H 220.953 -3.39232 2.40612 0
M  V30 2458 H 219.53 -3.68082 0.597522 0
M  V30 2459 N 221.715 -0.905404 -1.28997 0
M  V30 2460 C 222.962 -0.534248 -1.95325 0
M  V30 2461 C 223.29 0.920535 -1.71337 0
M  V30 2462 O 222.545 1.66861 -1.02254 0
M  V30 2463 C 222.844 -0.779906 -3.48787 0
M  V30 2464 C 222.51 -2.21293 -3.92861 0
M  V30 2465 C 221.172 -2.60475 -4.04606 0
M  V30 2466 C 223.524 -3.14587 -4.15553 0
M  V30 2467 C 220.852 -3.9212 -4.36416 0
M  V30 2468 C 223.204 -4.45787 -4.48839 0
M  V30 2469 C 221.868 -4.84834 -4.58794 0
M  V30 2470 H 221.138 -0.195495 -0.714747 0
M  V30 2471 H 223.785 -1.14514 -1.53488 0
M  V30 2472 H 222.09 -0.0861365 -3.91705 0
M  V30 2473 H 223.787 -0.472029 -3.98212 0
M  V30 2474 H 220.377 -1.89887 -3.84241 0
M  V30 2475 H 224.561 -2.85528 -4.0594 0
M  V30 2476 H 219.817 -4.22086 -4.42327 0
M  V30 2477 H 223.991 -5.18098 -4.65346 0
M  V30 2478 H 221.618 -5.86877 -4.83197 0
M  V30 2479 N 223.193 1.4272 -0.668489 0
M  V30 2480 C 224.441 2.01226 -0.187769 0
M  V30 2481 C 224.762 1.53092 1.2078 0
M  V30 2482 O 224.032 0.74993 1.80977 0
M  V30 2483 H 222.612 0.744041 -0.0664272 0
M  V30 2484 H 225.274 1.74723 -0.863583 0
M  V30 2485 H 224.37 3.11556 -0.184166 0
M  V30 2486 N 224.671 0.411399 1.52136 0
M  V30 2487 C 225.634 -0.401089 2.25663 0
M  V30 2488 C 226.634 -0.971732 1.28117 0
M  V30 2489 O 227.824 -0.850254 1.52041 0
M  V30 2490 C 224.956 -1.56483 3.02863 0
M  V30 2491 H 226.149 0.24295 2.98914 0
M  V30 2492 H 223.702 0.163968 1.55438 0
M  V30 2493 H 224.437 -2.24567 2.33967 0
M  V30 2494 H 224.222 -1.16211 3.74483 0
M  V30 2495 H 225.712 -2.13951 3.58629 0
M  V30 2496 N 226.149 -1.5696 0.141893 0
M  V30 2497 C 227.096 -2.16501 -0.799737 0
M  V30 2498 C 228.066 -1.09643 -1.24771 0
M  V30 2499 O 229.251 -1.3766 -1.32115 0
M  V30 2500 C 226.391 -2.78679 -2.03549 0
M  V30 2501 C 225.504 -3.99914 -1.6338 0
M  V30 2502 C 224.639 -4.50106 -2.82096 0
M  V30 2503 C 223.678 -5.63819 -2.38275 0
M  V30 2504 N 222.815 -6.08651 -3.49983 0
M  V30 2505 H 227.655 -2.96632 -0.285179 0
M  V30 2506 H 225.192 -1.46533 -0.129053 0
M  V30 2507 H 227.15 -3.1287 -2.75986 0
M  V30 2508 H 225.78 -2.012 -2.52425 0
M  V30 2509 H 224.832 -3.71735 -0.807279 0
M  V30 2510 H 226.144 -4.82311 -1.27192 0
M  V30 2511 H 225.298 -4.86325 -3.62729 0
M  V30 2512 H 224.037 -3.66706 -3.21525 0
M  V30 2513 H 223.042 -5.2718 -1.56081 0
M  V30 2514 H 224.267 -6.49 -1.99938 0
M  V30 2515 H 222.213 -5.28188 -3.89042 0
M  V30 2516 H 222.13 -6.85961 -3.17794 0
M  V30 2517 H 223.398 -6.49515 -4.30988 0
M  V30 2518 N 227.627 0.131896 -1.57047 0
M  V30 2519 C 228.875 0.840269 -1.83804 0
M  V30 2520 C 229.196 1.81017 -0.72512 0
M  V30 2521 O 228.466 1.94272 0.251995 0
M  V30 2522 H 227.046 0.313294 -0.678127 0
M  V30 2523 H 229.708 0.122294 -1.94516 0
M  V30 2524 H 228.804 1.39335 -2.79271 0
M  V30 2525 N 229.106 1.52395 0.401703 0
M  V30 2526 C 230.054 1.7689 1.51039 0
M  V30 2527 C 231.048 0.636298 1.56996 0
M  V30 2528 O 232.254 0.818507 1.60314 0
M  V30 2529 H 228.629 0.559502 0.502456 0
M  V30 2530 H 230.6 2.69757 1.27568 0
M  V30 2531 C 229.349 1.94331 2.88324 0
M  V30 2532 H 228.672 2.80905 2.84486 0
M  V30 2533 H 230.112 2.15466 3.65172 0
M  V30 2534 C 228.571 0.712396 3.29282 0
M  V30 2535 O 229.101 -0.116218 4.01532 0
M  V30 2536 N 227.307 0.546154 2.85422 0
M  V30 2537 H 226.854 1.22156 2.26794 0
M  V30 2538 H 226.812 -0.276113 3.13185 0
M  V30 2539 N 230.584 -0.659388 1.43143 0
M  V30 2540 C 231.832 -1.41654 1.44147 0
M  V30 2541 C 232.153 -1.94893 0.0645739 0
M  V30 2542 O 231.423 -1.74044 -0.899198 0
M  V30 2543 H 230.003 -0.525708 0.530697 0
M  V30 2544 H 232.665 -0.778097 1.78694 0
M  V30 2545 H 231.761 -2.26195 2.1504 0
M  V30 2546 N 232.062 -1.29571 -0.897171 0
M  V30 2547 C 233.311 -1.1706 -1.64256 0
M  V30 2548 C 233.624 0.276476 -1.93636 0
M  V30 2549 O 234.83 0.52294 -2.66416 0
M  V30 2550 C 233.286 -2.0475 -2.95982 0
M  V30 2551 C 232.894 -3.54295 -2.74187 0
M  V30 2552 C 234.638 -2.0097 -3.73914 0
M  V30 2553 C 232.545 -4.34081 -4.01656 0
M  V30 2554 H 231.475 -0.43452 -0.616205 0
M  V30 2555 H 234.126 -1.54229 -0.994268 0
M  V30 2556 H 232.508 -1.60452 -3.62038 0
M  V30 2557 H 233.682 -4.06662 -2.1671 0
M  V30 2558 H 231.997 -3.59773 -2.09648 0
M  V30 2559 H 234.594 -2.57838 -4.68427 0
M  V30 2560 H 234.937 -0.990273 -4.0435 0
M  V30 2561 H 235.47 -2.43325 -3.14703 0
M  V30 2562 H 232.209 -5.36671 -3.76384 0
M  V30 2563 H 231.729 -3.86483 -4.58684 0
M  V30 2564 H 233.408 -4.44877 -4.69781 0
M  V30 2565 N 233.54 1.10788 -1.12088 0
M  V30 2566 C 234.768 1.86461 -0.896651 0
M  V30 2567 C 235.183 1.80492 0.553912 0
M  V30 2568 O 234.54 1.19102 1.38278 0
M  V30 2569 C 234.591 3.35006 -1.35843 0
M  V30 2570 O 234.312 3.40866 -2.75213 0
M  V30 2571 C 235.813 4.27565 -1.1706 0
M  V30 2572 H 233.033 0.589425 -0.320654 0
M  V30 2573 H 235.577 1.40076 -1.48993 0
M  V30 2574 H 233.732 3.7887 -0.808458 0
M  V30 2575 H 234.146 4.33411 -2.9539 0
M  V30 2576 H 235.62 5.30007 -1.54263 0
M  V30 2577 H 236.097 4.3906 -0.110814 0
M  V30 2578 H 236.703 3.89501 -1.70789 0
M  V30 2579 N 235.018 0.912232 1.28515 0
M  V30 2580 C 236.248 0.559604 1.98877 0
M  V30 2581 C 236.656 -0.863113 1.68366 0
M  V30 2582 O 235.999 -1.58304 0.931969 0
M  V30 2583 C 236.061 0.68703 3.52874 0
M  V30 2584 C 235.725 2.07901 4.06972 0
M  V30 2585 C 236.722 3.05157 4.20922 0
M  V30 2586 C 234.407 2.39178 4.417 0
M  V30 2587 C 236.401 4.31806 4.68852 0
M  V30 2588 C 234.088 3.66068 4.89324 0
M  V30 2589 C 235.086 4.62195 5.02856 0
M  V30 2590 O 234.774 5.86829 5.49442 0
M  V30 2591 H 234.506 0.212191 0.641834 0
M  V30 2592 H 237.06 1.22712 1.64715 0
M  V30 2593 H 235.29 -0.0375486 3.86682 0
M  V30 2594 H 236.979 0.341727 4.04459 0
M  V30 2595 H 237.745 2.82311 3.94367 0
M  V30 2596 H 233.624 1.65109 4.30418 0
M  V30 2597 H 237.168 5.06842 4.79329 0
M  V30 2598 H 233.065 3.88739 5.15318 0
M  V30 2599 H 233.833 5.89597 5.6773 0
M  V30 2600 N 236.496 -1.42363 0.676048 0
M  V30 2601 C 237.459 -2.29199 0.00766941 0
M  V30 2602 C 238.459 -1.43389 -0.727745 0
M  V30 2603 O 239.649 -1.64764 -0.56556 0
M  V30 2604 C 236.781 -3.2591 -0.999785 0
M  V30 2605 H 237.974 -2.89794 0.771988 0
M  V30 2606 H 235.527 -1.50024 0.438468 0
M  V30 2607 H 236.262 -2.70256 -1.79255 0
M  V30 2608 H 236.047 -3.89202 -0.475829 0
M  V30 2609 H 237.537 -3.91028 -1.46583 0
M  V30 2610 N 237.974 -0.419461 -1.51915 0
M  V30 2611 C 238.922 0.415502 -2.28859 0
M  V30 2612 C 239.916 1.03674 -1.3397 0
M  V30 2613 O 241.122 0.973757 -1.51387 0
M  V30 2614 H 237.497 0.152786 -0.736315 0
M  V30 2615 H 239.468 -0.254531 -2.97312 0
M  V30 2616 C 238.217 1.51425 -3.12995 0
M  V30 2617 H 237.54 1.04556 -3.85886 0
M  V30 2618 H 238.98 2.07208 -3.6992 0
M  V30 2619 C 237.439 2.48745 -2.27217 0
M  V30 2620 O 237.969 3.52871 -1.9195 0
M  V30 2621 N 236.175 2.19202 -1.90785 0
M  V30 2622 H 235.722 1.34556 -2.19664 0
M  V30 2623 H 235.68 2.84561 -1.33687 0
M  V30 2624 N 239.452 1.56882 -0.150215 0
M  V30 2625 C 240.385 2.12712 0.826358 0
M  V30 2626 C 241.363 1.05154 1.24022 0
M  V30 2627 O 242.547 1.33004 1.33575 0
M  V30 2628 C 239.674 2.64945 2.11002 0
M  V30 2629 C 238.72 3.8468 1.84183 0
M  V30 2630 S 239.553 5.25502 1.02995 0
M  V30 2631 C 240.709 5.81125 2.32474 0
M  V30 2632 H 240.942 2.95214 0.351598 0
M  V30 2633 H 238.475 1.54267 0.0641211 0
M  V30 2634 H 240.433 2.95689 2.84742 0
M  V30 2635 H 239.094 1.82568 2.55593 0
M  V30 2636 H 238.287 4.19482 2.79375 0
M  V30 2637 H 237.889 3.54714 1.1855 0
M  V30 2638 H 240.181 5.92753 3.281 0
M  V30 2639 H 241.124 6.78625 2.02171 0
M  V30 2640 H 241.532 5.09392 2.43269 0
M  V30 2641 N 240.93 -0.123565 1.57115 0
M  V30 2642 C 241.863 -1.18202 1.95201 0
M  V30 2643 C 242.841 -1.40349 0.821031 0
M  V30 2644 O 244.025 -1.54578 1.07879 0
M  V30 2645 C 241.152 -2.53671 2.24429 0
M  V30 2646 C 240.198 -2.4798 3.46999 0
M  V30 2647 S 241.031 -1.92389 4.99747 0
M  V30 2648 C 242.187 -3.2954 5.32123 0
M  V30 2649 H 242.42 -0.857212 2.84674 0
M  V30 2650 H 239.953 -0.33014 1.50829 0
M  V30 2651 H 241.911 -3.3162 2.41947 0
M  V30 2652 H 240.572 -2.83332 1.35579 0
M  V30 2653 H 239.765 -3.47758 3.64801 0
M  V30 2654 H 239.367 -1.7815 3.28844 0
M  V30 2655 H 241.659 -4.25736 5.27025 0
M  V30 2656 H 242.602 -3.16569 6.33395 0
M  V30 2657 H 243.01 -3.27758 4.59603 0
M  V30 2658 N 242.408 -1.52605 -0.393616 0
M  V30 2659 C 243.633 -1.71592 -1.16495 0
M  V30 2660 C 244.058 -0.43133 -1.83088 0
M  V30 2661 O 243.416 0.612523 -1.7064 0
M  V30 2662 C 243.464 -2.86318 -2.19213 0
M  V30 2663 O 242.568 -2.52969 -3.257 0
M  V30 2664 H 241.909 -0.570734 -0.33935 0
M  V30 2665 H 244.439 -1.99377 -0.459324 0
M  V30 2666 H 244.449 -3.1168 -2.63286 0
M  V30 2667 H 243.124 -3.79511 -1.7013 0
M  V30 2668 H 241.701 -2.38332 -2.86797 0
M  V30 2669 N 243.887 0.651787 -1.4349 0
M  V30 2670 C 245.136 1.40754 -1.44469 0
M  V30 2671 C 245.449 1.95463 -0.0731845 0
M  V30 2672 O 246.655 2.71471 0.0395721 0
M  V30 2673 C 245.111 2.54735 -2.5424 0
M  V30 2674 C 244.719 2.06628 -3.97504 0
M  V30 2675 C 246.463 3.32092 -2.64414 0
M  V30 2676 C 244.37 3.17829 -4.98737 0
M  V30 2677 H 243.3 0.528862 -0.53742 0
M  V30 2678 H 245.951 0.703365 -1.69485 0
M  V30 2679 H 244.333 3.2763 -2.22428 0
M  V30 2680 H 245.507 1.40734 -4.38783 0
M  V30 2681 H 243.822 1.42146 -3.91387 0
M  V30 2682 H 246.419 4.14952 -3.37223 0
M  V30 2683 H 246.762 3.80217 -1.69532 0
M  V30 2684 H 247.295 2.66279 -2.95534 0
M  V30 2685 H 244.034 2.74671 -5.95177 0
M  V30 2686 H 243.554 3.82429 -4.62069 0
M  V30 2687 H 245.233 3.82937 -5.21505 0
M  V30 2688 N 245.365 1.30045 0.890287 0
M  V30 2689 C 246.312 1.15976 1.99545 0
M  V30 2690 C 247.282 0.0506202 1.66023 0
M  V30 2691 O 248.467 0.219847 1.89529 0
M  V30 2692 C 245.607 0.852054 3.34416 0
M  V30 2693 C 244.72 2.04255 3.80662 0
M  V30 2694 C 243.855 1.6734 5.04154 0
M  V30 2695 C 242.894 2.82916 5.42794 0
M  V30 2696 N 242.031 2.46333 6.57468 0
M  V30 2697 H 246.871 2.10524 2.10911 0
M  V30 2698 H 244.408 1.04749 1.03276 0
M  V30 2699 H 246.366 0.654296 4.12037 0
M  V30 2700 H 244.996 -0.0565502 3.2275 0
M  V30 2701 H 244.048 2.35172 2.98995 0
M  V30 2702 H 245.36 2.90826 4.05242 0
M  V30 2703 H 244.514 1.43908 5.89386 0
M  V30 2704 H 243.253 0.779308 4.81433 0
M  V30 2705 H 242.258 3.0702 4.56091 0
M  V30 2706 H 243.483 3.73004 5.6749 0
M  V30 2707 H 241.429 1.59423 6.36334 0
M  V30 2708 H 241.346 3.26436 6.81891 0
M  V30 2709 H 242.614 2.26244 7.45945 0
M  V30 2710 N 246.843 -1.10192 1.12674 0
M  V30 2711 C 247.79 -2.16606 0.796906 0
M  V30 2712 C 248.76 -1.64394 -0.237476 0
M  V30 2713 O 249.945 -1.90474 -0.111484 0
M  V30 2714 C 247.085 -3.44116 0.26043 0
M  V30 2715 C 246.198 -4.10268 1.35293 0
M  V30 2716 C 245.333 -5.25507 0.775621 0
M  V30 2717 C 244.372 -5.83567 1.84706 0
M  V30 2718 N 243.509 -6.90179 1.28829 0
M  V30 2719 H 248.349 -2.44163 1.70846 0
M  V30 2720 H 245.886 -1.19846 0.85295 0
M  V30 2721 H 247.844 -4.17143 -0.0686814 0
M  V30 2722 H 246.474 -3.16901 -0.614274 0
M  V30 2723 H 245.526 -3.35184 1.79877 0
M  V30 2724 H 246.838 -4.4946 2.16303 0
M  V30 2725 H 245.992 -6.05398 0.397327 0
M  V30 2726 H 244.731 -4.87656 -0.0656581 0
M  V30 2727 H 243.736 -5.02344 2.23452 0
M  V30 2728 H 244.961 -6.23482 2.69161 0
M  V30 2729 H 242.907 -6.54322 0.468881 0
M  V30 2730 H 242.824 -7.28097 2.03497 0
M  V30 2731 H 244.092 -7.73844 0.937311 0
M  V30 2732 N 248.321 -0.919034 -1.28029 0
M  V30 2733 C 249.231 -0.416756 -2.30869 0
M  V30 2734 C 250.247 0.498235 -1.66714 0
M  V30 2735 O 251.423 0.383144 -1.97722 0
M  V30 2736 C 248.488 0.330274 -3.45123 0
M  V30 2737 C 247.549 -0.618578 -4.2482 0
M  V30 2738 C 246.782 0.0928959 -5.33619 0
M  V30 2739 O 247.005 1.31375 -5.55065 0
M  V30 2740 O 245.939 -0.574499 -5.99152 0
M  V30 2741 H 249.765 -1.27043 -2.75851 0
M  V30 2742 H 247.35 -0.684052 -1.3282 0
M  V30 2743 H 249.232 0.751972 -4.14636 0
M  V30 2744 H 247.907 1.1597 -3.02213 0
M  V30 2745 H 246.814 -1.08978 -3.57875 0
M  V30 2746 H 248.147 -1.41497 -4.71423 0
M  V30 2747 N 249.799 1.42003 -0.683588 0
M  V30 2748 C 250.729 2.33487 -0.024866 0
M  V30 2749 C 251.71 1.51163 0.779975 0
M  V30 2750 O 252.895 1.79739 0.735362 0
M  V30 2751 C 250.025 3.3487 0.920836 0
M  V30 2752 C 248.979 4.27414 0.223958 0
M  V30 2753 C 248.305 5.19074 1.2832 0
M  V30 2754 C 249.605 5.14445 -0.90242 0
M  V30 2755 H 251.299 2.88819 -0.788921 0
M  V30 2756 H 248.845 1.38873 -0.38083 0
M  V30 2757 H 250.798 3.97787 1.39081 0
M  V30 2758 H 249.522 2.77861 1.71642 0
M  V30 2759 H 248.181 3.65904 -0.225864 0
M  V30 2760 H 247.829 4.58387 2.071 0
M  V30 2761 H 247.529 5.81822 0.821995 0
M  V30 2762 H 249.053 5.84867 1.75392 0
M  V30 2763 H 250.467 5.70998 -0.513272 0
M  V30 2764 H 248.864 5.86072 -1.28997 0
M  V30 2765 H 249.934 4.52322 -1.74737 0
M  V30 2766 N 251.277 0.427512 1.51691 0
M  V30 2767 C 252.187 -0.39527 2.31246 0
M  V30 2768 C 253.203 -1.03674 1.39742 0
M  V30 2769 O 254.379 -1.03425 1.72816 0
M  V30 2770 C 251.444 -1.48706 3.13189 0
M  V30 2771 C 250.505 -0.866743 4.20459 0
M  V30 2772 C 249.738 -1.90651 4.98486 0
M  V30 2773 O 249.961 -3.12733 4.77026 0
M  V30 2774 O 248.895 -1.5025 5.82845 0
M  V30 2775 H 252.721 0.253918 3.02637 0
M  V30 2776 H 250.306 0.190274 1.48183 0
M  V30 2777 H 252.188 -2.12047 3.64162 0
M  V30 2778 H 250.863 -2.12051 2.44573 0
M  V30 2779 H 249.77 -0.195544 3.73589 0
M  V30 2780 H 251.103 -0.276934 4.9142 0
M  V30 2781 N 252.755 -1.56801 0.158532 0
M  V30 2782 C 253.718 -2.16138 -0.762705 0
M  V30 2783 C 254.718 -1.1061 -1.16713 0
M  V30 2784 O 255.908 -1.36191 -1.08617 0
M  V30 2785 C 253.04 -2.73386 -2.03649 0
M  V30 2786 H 254.233 -2.98886 -0.246354 0
M  V30 2787 H 251.786 -1.56035 -0.0909744 0
M  V30 2788 H 252.521 -1.94335 -2.59623 0
M  V30 2789 H 252.306 -3.50601 -1.75559 0
M  V30 2790 H 253.796 -3.19065 -2.6942 0
M  V30 2791 N 254.233 0.115231 -1.57178 0
M  V30 2792 C 255.196 1.12526 -1.99676 0
M  V30 2793 C 256.196 1.34095 -0.88742 0
M  V30 2794 O 257.386 1.30548 -1.15337 0
M  V30 2795 C 254.518 2.4789 -2.34015 0
M  V30 2796 H 255.711 0.759912 -2.90113 0
M  V30 2797 H 253.264 0.359648 -1.52106 0
M  V30 2798 H 253.999 2.89339 -1.4647 0
M  V30 2799 H 253.784 2.33588 -3.14927 0
M  V30 2800 H 255.274 3.20575 -2.67622 0
M  V30 2801 N 255.711 1.52812 0.385517 0
M  V30 2802 C 256.621 1.80766 1.49535 0
M  V30 2803 C 257.637 0.694651 1.59532 0
M  V30 2804 O 258.813 0.982611 1.75803 0
M  V30 2805 C 255.878 1.97381 2.85029 0
M  V30 2806 C 254.939 3.21295 2.84724 0
M  V30 2807 C 254.172 3.37108 4.13756 0
M  V30 2808 O 254.395 2.5765 5.08893 0
M  V30 2809 O 253.329 4.30378 4.20783 0
M  V30 2810 H 257.155 2.75015 1.28842 0
M  V30 2811 H 254.74 1.37946 0.573697 0
M  V30 2812 H 256.622 2.09996 3.65349 0
M  V30 2813 H 255.297 1.06322 3.05741 0
M  V30 2814 H 254.204 3.1412 2.03174 0
M  V30 2815 H 255.537 4.12212 2.68965 0
M  V30 2816 N 257.189 -0.644168 1.43834 0
M  V30 2817 C 258.435 -1.40603 1.46146 0
M  V30 2818 C 258.768 -1.93997 0.0887717 0
M  V30 2819 O 258.043 -1.72854 -0.891724 0
M  V30 2820 C 258.326 -2.58086 2.51124 0
M  V30 2821 C 258.179 -2.10126 3.97702 0
M  V30 2822 C 259.498 -3.60291 2.52742 0
M  V30 2823 H 256.617 -0.509905 0.532134 0
M  V30 2824 H 259.259 -0.729502 1.75437 0
M  V30 2825 H 257.409 -3.15801 2.26278 0
M  V30 2826 H 259.081 -1.57342 4.33637 0
M  V30 2827 H 257.324 -1.41419 4.10101 0
M  V30 2828 H 257.995 -2.94649 4.66783 0
M  V30 2829 H 260.471 -3.12352 2.7491 0
M  V30 2830 H 259.347 -4.40032 3.28121 0
M  V30 2831 H 259.608 -4.1349 1.56455 0
M  V30 2832 N 258.668 -1.30515 -0.883378 0
M  V30 2833 C 259.615 -1.17032 -1.98927 0
M  V30 2834 C 260.585 -0.0594241 -1.65994 0
M  V30 2835 O 261.77 -0.229895 -1.8941 0
M  V30 2836 C 258.91 -0.869777 -3.33959 0
M  V30 2837 C 258.023 -2.06271 -3.79574 0
M  V30 2838 C 257.158 -1.70011 -5.03259 0
M  V30 2839 C 256.197 -2.8579 -5.41286 0
M  V30 2840 N 255.334 -2.49816 -6.56153 0
M  V30 2841 H 260.174 -2.1164 -2.09792 0
M  V30 2842 H 257.711 -1.05296 -1.02719 0
M  V30 2843 H 259.669 -0.676138 -4.11685 0
M  V30 2844 H 258.299 0.0394332 -3.22776 0
M  V30 2845 H 257.351 -2.36755 -2.97744 0
M  V30 2846 H 258.663 -2.92971 -4.03694 0
M  V30 2847 H 257.817 -1.47032 -5.88614 0
M  V30 2848 H 256.556 -0.804829 -4.81013 0
M  V30 2849 H 255.561 -3.09434 -4.54456 0
M  V30 2850 H 256.786 -3.76008 -5.65504 0
M  V30 2851 H 254.732 -1.62795 -6.35479 0
M  V30 2852 H 254.649 -3.30048 -6.8015 0
M  V30 2853 H 255.917 -2.30197 -7.44735 0
M  V30 2854 N 260.146 1.09593 -1.13257 0
M  V30 2855 C 261.394 1.81375 -0.891492 0
M  V30 2856 C 261.715 1.86049 0.584009 0
M  V30 2857 O 260.985 1.34481 1.42449 0
M  V30 2858 H 259.565 0.671708 -0.326828 0
M  V30 2859 H 262.227 1.3256 -1.42877 0
M  V30 2860 H 261.323 2.84612 -1.28071 0
M  V30 2861 N 261.624 0.925811 1.2754 0
M  V30 2862 C 262.873 0.561084 1.93739 0
M  V30 2863 C 263.186 -0.901685 1.73577 0
M  V30 2864 O 264.392 -1.37511 2.34101 0
M  V30 2865 C 262.848 0.952668 3.47062 0
M  V30 2866 C 262.456 2.43599 3.75983 0
M  V30 2867 C 264.2 0.659103 4.19352 0
M  V30 2868 C 262.107 2.76707 5.22673 0
M  V30 2869 H 261.037 0.206122 0.725279 0
M  V30 2870 H 263.688 1.12637 1.44863 0
M  V30 2871 H 262.07 0.316053 3.94737 0
M  V30 2872 H 263.244 3.12035 3.39073 0
M  V30 2873 H 261.559 2.70125 3.16893 0
M  V30 2874 H 264.156 0.882985 5.27359 0
M  V30 2875 H 264.499 -0.403607 4.14339 0
M  V30 2876 H 265.032 1.25473 3.77494 0
M  V30 2877 H 261.771 3.8188 5.32774 0
M  V30 2878 H 261.291 2.12919 5.60737 0
M  V30 2879 H 262.97 2.6435 5.90532 0
M  V30 2880 N 263.102 -1.41638 0.69111 0
M  V30 2881 C 264.379 -1.95036 0.148421 0
M  V30 2882 C 264.759 -1.63072 -1.34055 0
M  V30 2883 O 264.107 -0.93538 -2.08478 0
M  V30 2884 C 264.317 -3.46279 0.434951 0
M  V30 2885 C 265.665 -4.23069 0.360275 0
M  V30 2886 O 266.689 -3.54277 0.369613 0
M  V30 2887 O 265.548 -5.45583 0.316534 0
M  V30 2888 H 262.642 -0.826908 0.0123654 0
M  V30 2889 H 265.188 -1.5138 0.766963 0
M  V30 2890 H 263.96 -3.6281 1.46576 0
M  V30 2891 H 263.583 -3.97019 -0.214787 0
M  V30 2892 N 264.58 -0.43555 -1.51462 0
M  V30 2893 C 265.827 0.131514 -2.02072 0
M  V30 2894 C 266.155 1.42868 -1.31981 0
M  V30 2895 O 265.41 1.91076 -0.422883 0
M  V30 2896 C 265.709 0.39942 -3.55161 0
M  V30 2897 C 265.375 -0.81172 -4.43533 0
M  V30 2898 C 264.037 -1.14387 -4.67407 0
M  V30 2899 C 266.389 -1.61976 -4.95392 0
M  V30 2900 C 263.717 -2.28477 -5.40384 0
M  V30 2901 C 266.069 -2.75164 -5.6962 0
M  V30 2902 C 264.733 -3.08835 -5.91758 0
M  V30 2903 H 264.003 0.0481244 -0.739436 0
M  V30 2904 H 266.65 -0.58238 -1.8243 0
M  V30 2905 H 264.955 1.19519 -3.73125 0
M  V30 2906 H 266.652 0.85157 -3.91854 0
M  V30 2907 H 263.242 -0.542898 -4.25148 0
M  V30 2908 H 267.426 -1.37637 -4.76833 0
M  V30 2909 H 262.682 -2.5488 -5.55739 0
M  V30 2910 H 266.856 -3.38147 -6.08793 0
M  V30 2911 H 264.483 -3.97353 -6.48086 0
M  V30 2912 N 266.058 1.56714 -0.166846 0
M  V30 2913 C 267.286 2.0112 0.485644 0
M  V30 2914 C 267.701 1.04705 1.57106 0
M  V30 2915 O 267.058 0.0471923 1.82439 0
M  V30 2916 C 267.109 3.45361 1.06808 0
M  V30 2917 O 266.83 4.38092 0.0259995 0
M  V30 2918 C 268.331 4.05145 1.79924 0
M  V30 2919 H 265.551 0.65931 0.124704 0
M  V30 2920 H 268.095 2.02746 -0.267262 0
M  V30 2921 H 266.25 3.44524 1.7715 0
M  V30 2922 H 266.664 5.22519 0.455398 0
M  V30 2923 H 268.138 5.08009 2.15942 0
M  V30 2924 H 268.615 3.46982 2.69258 0
M  V30 2925 H 269.221 4.09672 1.14234 0
M  V30 2926 N 267.536 -0.106894 1.57237 0
M  V30 2927 C 268.764 -0.826389 1.8968 0
M  V30 2928 C 269.179 -1.72856 0.759353 0
M  V30 2929 O 268.536 -1.80503 -0.269263 0
M  V30 2930 C 268.587 -1.64967 3.21665 0
M  V30 2931 O 268.308 -0.783804 4.31031 0
M  V30 2932 C 269.809 -2.47326 3.67892 0
M  V30 2933 H 267.029 -0.236927 0.627779 0
M  V30 2934 H 269.573 -0.0876593 2.04312 0
M  V30 2935 H 267.728 -2.34103 3.08666 0
M  V30 2936 H 268.142 -1.35284 5.06753 0
M  V30 2937 H 269.616 -3.00604 4.6297 0
M  V30 2938 H 270.093 -3.25247 2.95146 0
M  V30 2939 H 270.699 -1.83411 3.83719 0
M  V30 2940 N 269.014 -1.53014 -0.377408 0
M  V30 2941 C 270.239 -1.72818 -1.14668 0
M  V30 2942 C 270.664 -0.450725 -1.8262 0
M  V30 2943 O 270.022 0.59439 -1.7128 0
M  V30 2944 C 270.07 -2.88627 -2.16164 0
M  V30 2945 O 269.174 -2.56409 -3.22998 0
M  V30 2946 H 268.515 -0.574301 -0.333278 0
M  V30 2947 H 271.045 -1.99853 -0.438152 0
M  V30 2948 H 271.055 -3.14455 -2.59966 0
M  V30 2949 H 269.73 -3.81294 -1.66095 0
M  V30 2950 H 268.307 -2.4136 -2.84253 0
M  V30 2951 N 270.492 0.636531 -1.44174 0
M  V30 2952 C 271.903 1.21806 -1.41493 0
M  V30 2953 C 272.254 1.95785 -0.1275 0
M  V30 2954 O 271.379 2.02147 0.772376 0
M  V30 2955 C 271.974 2.21551 -2.56321 0
M  V30 2956 C 270.533 2.75143 -2.56853 0
M  V30 2957 C 269.68 1.50052 -2.33195 0
M  V30 2958 H 272.631 0.427531 -1.52833 0
M  V30 2959 H 272.652 3.0405 -2.28765 0
M  V30 2960 H 272.164 1.67679 -3.50008 0
M  V30 2961 H 270.265 3.33033 -1.67093 0
M  V30 2962 H 270.378 3.2155 -3.55165 0
M  V30 2963 H 268.742 1.77993 -1.82183 0
M  V30 2964 H 269.525 0.980903 -3.28988 0
M  V30 2965 N 271.97 1.30982 0.876444 0
M  V30 2966 C 272.918 1.18006 2.00443 0
M  V30 2967 C 273.912 0.0898871 1.69161 0
M  V30 2968 O 275.118 0.251333 1.78237 0
M  V30 2969 H 271.493 0.365196 0.65737 0
M  V30 2970 H 273.464 2.13453 2.0852 0
M  V30 2971 C 272.213 0.897521 3.35916 0
M  V30 2972 H 271.536 1.7285 3.60504 0
M  V30 2973 H 272.976 0.846874 4.15456 0
M  V30 2974 C 271.435 -0.399674 3.34521 0
M  V30 2975 O 271.965 -1.41852 3.7582 0
M  V30 2976 N 270.171 -0.413893 2.87637 0
M  V30 2977 H 269.718 0.41571 2.54224 0
M  V30 2978 H 269.676 -1.28175 2.87086 0
M  V30 2979 N 273.449 -1.08991 1.13837 0
M  V30 2980 C 274.865 -1.33312 0.877506 0
M  V30 2981 C 275.065 -1.95587 -0.48456 0
M  V30 2982 O 274.121 -2.20509 -1.23013 0
M  V30 2983 C 275.434 -2.24045 2.0056 0
M  V30 2984 C 276.982 -2.37542 2.03821 0
M  V30 2985 C 277.457 -3.31614 3.15905 0
M  V30 2986 N 278.948 -3.39189 3.15445 0
M  V30 2987 C 279.683 -4.11992 3.98811 0
M  V30 2988 N 279.179 -4.87553 4.92203 0
M  V30 2989 N 280.972 -4.07762 3.86894 0
M  V30 2990 H 273.123 -0.669456 2.01574 0
M  V30 2991 H 275.386 -0.357482 0.878015 0
M  V30 2992 H 275.092 -1.85521 2.98789 0
M  V30 2993 H 274.966 -3.24466 1.92359 0
M  V30 2994 H 277.353 -2.75327 1.06202 0
M  V30 2995 H 277.434 -1.36884 2.16093 0
M  V30 2996 H 277.078 -2.94551 4.13766 0
M  V30 2997 H 277.008 -4.32186 3.0087 0
M  V30 2998 H 279.499 -2.85314 2.47799 0
M  V30 2999 H 279.812 -5.40549 5.52292 0
M  V30 3000 H 278.157 -4.86627 4.96205 0
M  V30 3001 H 281.348 -3.47833 3.13257 0
M  V30 3002 H 281.521 -4.64238 4.52092 0
M  V30 3003 N 274.927 -0.932562 -1.27047 0
M  V30 3004 C 276.152 -0.591474 -1.98787 0
M  V30 3005 C 276.577 0.824601 -1.69062 0
M  V30 3006 O 275.935 1.5541 -0.933677 0
M  V30 3007 C 275.983 -0.829808 -3.50922 0
M  V30 3008 O 275.087 0.102266 -4.12273 0
M  V30 3009 H 274.428 -0.227185 -0.623926 0
M  V30 3010 H 276.958 -1.25314 -1.61733 0
M  V30 3011 H 276.968 -0.747292 -4.01098 0
M  V30 3012 H 275.643 -1.86201 -3.7189 0
M  V30 3013 H 274.22 -0.0305761 -3.72887 0
M  V30 3014 N 276.405 1.4127 -0.698611 0
M  V30 3015 C 277.635 2.05205 -0.239644 0
M  V30 3016 C 278.043 1.52684 1.11733 0
M  V30 3017 O 277.386 0.671222 1.70998 0
M  V30 3018 C 277.448 3.59289 -0.123126 0
M  V30 3019 C 277.112 4.34619 -1.41263 0
M  V30 3020 C 278.109 4.63701 -2.35111 0
M  V30 3021 C 275.794 4.73837 -1.66684 0
M  V30 3022 C 277.788 5.30966 -3.52639 0
M  V30 3023 C 275.475 5.40837 -2.84498 0
M  V30 3024 C 276.473 5.69329 -3.77298 0
M  V30 3025 O 276.161 6.34949 -4.93047 0
M  V30 3026 H 275.893 0.66723 -0.108537 0
M  V30 3027 H 278.447 1.81974 -0.952602 0
M  V30 3028 H 276.677 3.81272 0.645628 0
M  V30 3029 H 278.366 4.04797 0.299056 0
M  V30 3030 H 279.132 4.33882 -2.16729 0
M  V30 3031 H 275.011 4.51039 -0.953135 0
M  V30 3032 H 278.555 5.53121 -4.25091 0
M  V30 3033 H 274.452 5.70075 -3.02795 0
M  V30 3034 H 275.22 6.53445 -4.92902 0
M  V30 3035 N 277.883 0.443576 1.51229 0
M  V30 3036 C 279.294 -0.0180867 1.86691 0
M  V30 3037 C 279.645 -1.41384 1.36033 0
M  V30 3038 O 278.77 -2.04291 0.713722 0
M  V30 3039 C 279.365 -0.039597 3.38777 0
M  V30 3040 C 277.924 -0.445692 3.73752 0
M  V30 3041 C 277.071 0.357584 2.74985 0
M  V30 3042 H 280.022 0.659138 1.44364 0
M  V30 3043 H 280.043 -0.847761 3.70936 0
M  V30 3044 H 279.555 0.976382 3.75617 0
M  V30 3045 H 277.656 -1.46704 3.42503 0
M  V30 3046 H 277.769 -0.166155 4.78812 0
M  V30 3047 H 276.133 -0.184973 2.54027 0
M  V30 3048 H 276.916 1.37256 3.14668 0
M  V30 3049 N 279.361 -1.56624 0.175154 0
M  V30 3050 C 280.309 -2.19468 -0.770495 0
M  V30 3051 C 281.303 -1.15985 -1.23466 0
M  V30 3052 O 282.509 -1.34176 -1.19987 0
M  V30 3053 H 278.884 -0.703095 -0.266761 0
M  V30 3054 H 280.855 -2.97613 -0.216542 0
M  V30 3055 C 279.604 -2.85264 -1.98796 0
M  V30 3056 H 278.927 -3.64623 -1.63983 0
M  V30 3057 H 280.367 -3.327 -2.62843 0
M  V30 3058 C 278.826 -1.85239 -2.81404 0
M  V30 3059 O 279.356 -1.34024 -3.78682 0
M  V30 3060 N 277.562 -1.53911 -2.46495 0
M  V30 3061 H 277.109 -1.95751 -1.67449 0
M  V30 3062 H 277.067 -0.872382 -3.02054 0
M  V30 3063 N 280.839 0.0985539 -1.57292 0
M  V30 3064 C 282.087 0.801092 -1.85545 0
M  V30 3065 C 282.408 1.79438 -0.763353 0
M  V30 3066 O 281.678 1.94763 0.21073 0
M  V30 3067 H 280.258 0.29884 -0.684619 0
M  V30 3068 H 282.92 0.0810064 -1.94732 0
M  V30 3069 H 282.016 1.3338 -2.82163 0
M  V30 3070 N 282.317 1.53212 0.369288 0
M  V30 3071 C 283.249 1.75668 1.47219 0
M  V30 3072 C 284.262 0.637387 1.49804 0
M  V30 3073 O 285.451 0.913561 1.5335 0
M  V30 3074 C 282.551 1.81818 2.85999 0
M  V30 3075 C 281.724 3.11409 3.07153 0
M  V30 3076 C 280.783 3.08849 4.26026 0
M  V30 3077 O 279.809 3.82659 4.2138 0
M  V30 3078 N 281.011 2.29409 5.33246 0
M  V30 3079 H 283.776 2.70832 1.28337 0
M  V30 3080 H 281.337 1.51944 0.55898 0
M  V30 3081 H 283.329 1.77588 3.63655 0
M  V30 3082 H 281.899 0.939544 2.98146 0
M  V30 3083 H 281.119 3.28971 2.1719 0
M  V30 3084 H 282.407 3.97059 3.18154 0
M  V30 3085 H 281.805 1.68946 5.39883 0
M  V30 3086 H 280.362 2.31001 6.09493 0
M  V30 3087 N 283.795 -0.628877 1.44509 0
M  V30 3088 C 285.042 -1.38839 1.47411 0
M  V30 3089 C 285.37 -1.94202 0.10757 0
M  V30 3090 O 284.625 -1.74243 -0.890947 0
M  V30 3091 C 284.924 -2.56995 2.48371 0
M  V30 3092 C 284.59 -2.19908 3.93639 0
M  V30 3093 C 283.252 -2.09506 4.33198 0
M  V30 3094 C 285.604 -1.9064 4.85083 0
M  V30 3095 C 282.932 -1.68028 5.62124 0
M  V30 3096 C 285.284 -1.50655 6.14399 0
M  V30 3097 C 283.948 -1.38796 6.5291 0
M  V30 3098 H 283.218 -0.508048 0.539414 0
M  V30 3099 H 285.865 -0.712913 1.77735 0
M  V30 3100 H 284.17 -3.29786 2.11538 0
M  V30 3101 H 285.867 -3.15223 2.47861 0
M  V30 3102 H 282.457 -2.28922 3.62343 0
M  V30 3103 H 286.641 -1.97585 4.55273 0
M  V30 3104 H 281.897 -1.57452 5.90778 0
M  V30 3105 H 286.071 -1.27048 6.84713 0
M  V30 3106 H 283.698 -1.06429 7.52713 0
M  V30 3107 N 285.273 -1.31445 -0.869486 0
M  V30 3108 C 286.236 -1.19094 -1.9583 0
M  V30 3109 C 287.236 -0.117906 -1.60367 0
M  V30 3110 O 288.426 -0.367208 -1.70286 0
M  V30 3111 C 285.558 -0.828165 -3.30688 0
M  V30 3112 H 286.751 -2.15842 -2.08212 0
M  V30 3113 H 284.304 -1.15063 -1.05784 0
M  V30 3114 H 285.039 0.138142 -3.24006 0
M  V30 3115 H 284.824 -1.6038 -3.578 0
M  V30 3116 H 286.314 -0.765658 -4.10521 0
M  V30 3117 N 286.751 1.08385 -1.14413 0
M  V30 3118 C 287.976 1.85057 -0.936413 0
M  V30 3119 C 288.401 1.81055 0.509971 0
M  V30 3120 O 287.759 1.1958 1.36273 0
M  V30 3121 C 287.807 3.30505 -1.44217 0
M  V30 3122 O 286.911 4.07491 -0.634409 0
M  V30 3123 H 286.252 0.573425 -0.334784 0
M  V30 3124 H 288.782 1.36799 -1.52142 0
M  V30 3125 H 288.792 3.81348 -1.45043 0
M  V30 3126 H 287.467 3.32734 -2.49522 0
M  V30 3127 H 286.044 3.66368 -0.694902 0
M  V30 3128 N 288.23 0.939286 1.26551 0
M  V30 3129 C 289.455 0.602008 1.98471 0
M  V30 3130 C 289.88 -0.815624 1.69497 0
M  V30 3131 O 289.238 -1.54912 0.941905 0
M  V30 3132 C 289.286 0.848407 3.50477 0
M  V30 3133 O 288.39 -0.0804009 4.12322 0
M  V30 3134 H 287.731 0.23049 0.622712 0
M  V30 3135 H 290.261 1.2617 1.61066 0
M  V30 3136 H 290.271 0.768553 4.00696 0
M  V30 3137 H 288.946 1.88171 3.70897 0
M  V30 3138 H 287.523 0.0503508 3.72866 0
M  V30 3139 N 289.708 -1.40897 0.706093 0
M  V30 3140 C 290.955 -2.01054 0.241531 0
M  V30 3141 C 291.283 -1.55956 -1.16223 0
M  V30 3142 O 290.538 -0.766336 -1.80072 0
M  V30 3143 C 290.837 -3.5646 0.259099 0
M  V30 3144 C 290.503 -4.21106 1.61184 0
M  V30 3145 C 289.165 -4.38479 1.98216 0
M  V30 3146 C 291.517 -4.57256 2.50132 0
M  V30 3147 C 288.845 -4.89282 3.2376 0
M  V30 3148 C 291.197 -5.09454 3.7502 0
M  V30 3149 C 289.861 -5.25037 4.12181 0
M  V30 3150 H 289.131 -0.73571 0.0883825 0
M  V30 3151 H 291.778 -1.68645 0.907257 0
M  V30 3152 H 290.083 -3.88721 -0.490189 0
M  V30 3153 H 291.78 -4.00826 -0.11804 0
M  V30 3154 H 288.37 -4.07966 1.31384 0
M  V30 3155 H 292.554 -4.43479 2.228 0
M  V30 3156 H 287.81 -4.99531 3.52532 0
M  V30 3157 H 291.984 -5.36404 4.44121 0
M  V30 3158 H 289.611 -5.64164 5.09532 0
M  V30 3159 N 291.186 -0.45159 -1.50991 0
M  V30 3160 C 292.435 0.111653 -2.01391 0
M  V30 3161 C 292.748 1.42529 -1.33959 0
M  V30 3162 O 293.954 2.07232 -1.75405 0
M  V30 3163 C 292.41 0.249514 -3.59034 0
M  V30 3164 C 292.018 -1.05453 -4.35412 0
M  V30 3165 C 293.762 0.765762 -4.17536 0
M  V30 3166 C 291.669 -0.881529 -5.84793 0
M  V30 3167 H 290.599 0.0455022 -0.752626 0
M  V30 3168 H 293.25 -0.583524 -1.73975 0
M  V30 3169 H 291.632 1.00803 -3.82955 0
M  V30 3170 H 292.806 -1.82248 -4.23229 0
M  V30 3171 H 291.121 -1.50039 -3.88429 0
M  V30 3172 H 293.718 0.911913 -5.26866 0
M  V30 3173 H 294.061 1.75201 -3.77638 0
M  V30 3174 H 294.594 0.0651744 -3.97747 0
M  V30 3175 H 291.333 -1.84057 -6.29129 0
M  V30 3176 H 290.853 -0.153625 -5.99603 0
M  V30 3177 H 292.532 -0.540363 -6.4474 0
M  V30 3178 N 292.664 1.56529 -0.183458 0
M  V30 3179 C 293.912 1.96855 0.457452 0
M  V30 3180 C 294.233 1.07104 1.62953 0
M  V30 3181 O 293.503 0.139887 1.954 0
M  V30 3182 H 292.083 0.72693 0.171992 0
M  V30 3183 H 294.745 1.93056 -0.267476 0
M  V30 3184 H 293.841 3.01423 0.809368 0
M  V30 3185 N 294.142 -0.090211 1.57342 0
M  V30 3186 C 295.072 -1.10976 2.05443 0
M  V30 3187 C 296.053 -1.41482 0.944284 0
M  V30 3188 O 297.238 -1.51428 1.21586 0
M  V30 3189 C 294.368 -2.42831 2.48295 0
M  V30 3190 C 293.322 -2.26721 3.63018 0
M  V30 3191 C 292.648 -3.63796 3.91863 0
M  V30 3192 C 293.948 -1.7037 4.93732 0
M  V30 3193 H 295.642 -0.709564 2.9087 0
M  V30 3194 H 293.188 -0.339874 1.39932 0
M  V30 3195 H 295.141 -3.14431 2.80555 0
M  V30 3196 H 293.865 -2.84795 1.59873 0
M  V30 3197 H 292.524 -1.57565 3.31012 0
M  V30 3198 H 292.172 -4.03297 3.00601 0
M  V30 3199 H 291.872 -3.53861 4.69101 0
M  V30 3200 H 293.396 -4.36855 4.26603 0
M  V30 3201 H 294.81 -2.31816 5.24342 0
M  V30 3202 H 293.207 -1.71181 5.75167 0
M  V30 3203 H 294.277 -0.663542 4.80339 0
M  V30 3204 N 295.62 -1.53406 -0.361157 0
M  V30 3205 C 296.583 -1.79479 -1.42548 0
M  V30 3206 C 297.583 -0.665327 -1.4639 0
M  V30 3207 O 298.773 -0.933549 -1.47073 0
M  V30 3208 C 295.905 -1.92087 -2.8163 0
M  V30 3209 H 297.098 -2.74538 -1.20701 0
M  V30 3210 H 294.651 -1.4455 -0.594546 0
M  V30 3211 H 295.386 -0.991099 -3.08784 0
M  V30 3212 H 295.171 -2.74241 -2.80239 0
M  V30 3213 H 296.661 -2.13836 -3.58697 0
M  V30 3214 N 297.098 0.621204 -1.44841 0
M  V30 3215 C 298.03 1.74615 -1.48466 0
M  V30 3216 C 299.043 1.58377 -0.37691 0
M  V30 3217 O 300.232 1.66508 -0.643215 0
M  V30 3218 C 297.332 3.12459 -1.31236 0
M  V30 3219 C 296.505 3.55064 -2.55438 0
M  V30 3220 C 295.564 4.71821 -2.32963 0
M  V30 3221 O 294.59 4.79628 -3.06505 0
M  V30 3222 N 295.792 5.64186 -1.36654 0
M  V30 3223 H 298.557 1.71973 -2.45449 0
M  V30 3224 H 296.118 0.806077 -1.40407 0
M  V30 3225 H 298.11 3.88302 -1.14032 0
M  V30 3226 H 296.68 3.09686 -0.4258 0
M  V30 3227 H 295.9 2.69324 -2.87851 0
M  V30 3228 H 297.188 3.80284 -3.38026 0
M  V30 3229 H 296.586 5.6058 -0.759344 0
M  V30 3230 H 295.143 6.39618 -1.25425 0
M  V30 3231 N 298.576 1.31904 0.862503 0
M  V30 3232 C 299.506 1.22782 1.98612 0
M  V30 3233 C 300.487 0.113362 1.69722 0
M  V30 3234 O 301.672 0.299218 1.91881 0
M  V30 3235 C 298.802 0.942058 3.34279 0
M  V30 3236 C 297.756 2.0169 3.77499 0
M  V30 3237 C 297.082 1.58369 5.10709 0
M  V30 3238 C 298.382 3.43096 3.93805 0
M  V30 3239 H 300.076 2.16788 2.06502 0
M  V30 3240 H 297.622 1.04366 0.992154 0
M  V30 3241 H 299.575 0.864818 4.1243 0
M  V30 3242 H 298.299 -0.0336603 3.26583 0
M  V30 3243 H 296.958 2.08416 3.01593 0
M  V30 3244 H 296.606 0.595628 4.99461 0
M  V30 3245 H 296.306 2.30279 5.40597 0
M  V30 3246 H 297.83 1.52067 5.91361 0
M  V30 3247 H 299.244 3.39003 4.62331 0
M  V30 3248 H 297.641 4.13288 4.35101 0
M  V30 3249 H 298.711 3.83334 2.96957 0
M  V30 3250 N 300.054 -1.07777 1.14986 0
M  V30 3251 C 301.004 -2.13082 0.811181 0
M  V30 3252 C 301.988 -1.59619 -0.202597 0
M  V30 3253 O 303.18 -1.77 -0.00398275 0
M  V30 3254 C 300.309 -3.42009 0.297439 0
M  V30 3255 C 299.395 -4.02337 1.34112 0
M  V30 3256 N 299.786 -4.36982 2.54716 0
M  V30 3257 C 298.084 -4.29752 1.19285 0
M  V30 3258 C 298.785 -4.84729 3.21578 0
M  V30 3259 N 297.761 -4.83233 2.48972 0
M  V30 3260 H 301.563 -2.37696 1.72853 0
M  V30 3261 H 299.077 -1.25173 1.03468 0
M  V30 3262 H 301.074 -4.16884 0.0364777 0
M  V30 3263 H 299.734 -3.18841 -0.614022 0
M  V30 3264 H 300.745 -4.27807 2.91894 0
M  V30 3265 H 297.422 -4.16106 0.340926 0
M  V30 3266 H 298.812 -5.20863 4.24442 0
M  V30 3267 N 301.532 -0.945985 -1.26051 0
M  V30 3268 C 302.442 -0.465633 -2.29933 0
M  V30 3269 C 303.458 0.462761 -1.67733 0
M  V30 3270 O 304.634 0.341118 -1.9849 0
M  V30 3271 C 301.699 0.256994 -3.45746 0
M  V30 3272 C 300.76 -0.708549 -4.23412 0
M  V30 3273 C 299.993 -0.0203135 -5.33696 0
M  V30 3274 O 300.216 1.19571 -5.57726 0
M  V30 3275 O 299.15 -0.701459 -5.97799 0
M  V30 3276 H 302.976 -1.32866 -2.73094 0
M  V30 3277 H 300.561 -0.712071 -1.31339 0
M  V30 3278 H 302.443 0.663852 -4.16138 0
M  V30 3279 H 301.118 1.09533 -3.04605 0
M  V30 3280 H 300.025 -1.16545 -3.55483 0
M  V30 3281 H 301.358 -1.51465 -4.68315 0
M  V30 3282 N 303.011 1.40521 -0.713556 0
M  V30 3283 C 303.959 2.32549 -0.0485227 0
M  V30 3284 C 304.953 1.51931 0.74922 0
M  V30 3285 O 306.159 1.67745 0.652816 0
M  V30 3286 H 302.534 0.751994 0.00311138 0
M  V30 3287 H 304.505 2.86291 -0.841443 0
M  V30 3288 C 303.254 3.36879 0.860687 0
M  V30 3289 H 302.577 3.98978 0.256246 0
M  V30 3290 H 304.017 4.03772 1.294 0
M  V30 3291 C 302.476 2.72197 1.9852 0
M  V30 3292 O 303.006 2.5837 3.07584 0
M  V30 3293 N 301.212 2.30612 1.76823 0
M  V30 3294 H 300.759 2.42059 0.881217 0
M  V30 3295 H 300.717 1.87672 2.52243 0
M  V30 3296 N 304.489 0.459591 1.5075 0
M  V30 3297 C 305.399 -0.34613 2.32033 0
M  V30 3298 C 306.415 -1.00686 1.41909 0
M  V30 3299 O 307.591 -0.997361 1.7497 0
M  V30 3300 C 304.656 -1.42029 3.16273 0
M  V30 3301 C 303.717 -0.777362 4.22203 0
M  V30 3302 C 302.95 -1.80034 5.02418 0
M  V30 3303 O 303.173 -3.02544 4.83553 0
M  V30 3304 O 302.107 -1.37853 5.85901 0
M  V30 3305 H 305.933 0.318054 3.0203 0
M  V30 3306 H 303.518 0.221663 1.47746 0
M  V30 3307 H 305.4 -2.04275 3.68578 0
M  V30 3308 H 304.075 -2.06815 2.49016 0
M  V30 3309 H 302.982 -0.116256 3.73919 0
M  V30 3310 H 304.315 -0.172634 4.91897 0
M  V30 3311 N 305.967 -1.56429 0.191757 0
M  V30 3312 C 307.244 -1.89224 -0.495332 0
M  V30 3313 C 307.624 -1.10478 -1.79883 0
M  V30 3314 O 306.972 -0.204852 -2.2758 0
M  V30 3315 C 307.182 -3.41548 -0.717367 0
M  V30 3316 C 308.53 -4.11711 -1.03823 0
M  V30 3317 O 309.554 -3.4698 -0.805204 0
M  V30 3318 O 308.413 -5.2611 -1.47887 0
M  V30 3319 H 305.507 -0.785788 -0.25781 0
M  V30 3320 H 308.053 -1.68111 0.231721 0
M  V30 3321 H 306.825 -3.90772 0.203287 0
M  V30 3322 H 306.448 -3.68342 -1.497 0
M  V30 3323 N 307.445 0.0818655 -1.57387 0
M  V30 3324 C 308.693 0.781368 -1.86384 0
M  V30 3325 C 309.014 1.78618 -0.782342 0
M  V30 3326 O 308.284 1.94976 0.190061 0
M  V30 3327 H 306.864 0.291562 -0.687751 0
M  V30 3328 H 309.526 0.060348 -1.94807 0
M  V30 3329 H 308.622 1.3038 -2.83562 0
M  V30 3330 N 308.923 1.53595 0.353017 0
M  V30 3331 C 310.148 1.7462 1.11904 0
M  V30 3332 C 310.573 0.479721 1.8188 0
M  V30 3333 O 309.931 -0.567066 1.72204 0
M  V30 3334 C 309.979 2.92029 2.11545 0
M  V30 3335 O 309.083 2.61516 3.18878 0
M  V30 3336 H 308.424 0.579531 0.324099 0
M  V30 3337 H 310.954 2.00525 0.406301 0
M  V30 3338 H 310.964 3.18551 2.5493 0
M  V30 3339 H 309.639 3.83888 1.60008 0
M  V30 3340 H 308.216 2.45852 2.80377 0
M  V30 3341 N 310.401 -0.613514 1.45168 0
M  V30 3342 C 311.348 -1.72456 1.53387 0
M  V30 3343 C 312.318 -1.6169 0.380191 0
M  V30 3344 O 313.503 -1.81356 0.592836 0
M  V30 3345 C 310.643 -3.10753 1.50088 0
M  V30 3346 C 309.756 -3.32368 2.75963 0
M  V30 3347 C 308.891 -4.60737 2.64376 0
M  V30 3348 C 307.93 -4.7559 3.85332 0
M  V30 3349 N 307.067 -5.95253 3.72315 0
M  V30 3350 H 311.907 -1.64768 2.48305 0
M  V30 3351 H 309.444 -0.803503 1.23216 0
M  V30 3352 H 311.402 -3.90758 1.46164 0
M  V30 3353 H 310.032 -3.17413 0.587243 0
M  V30 3354 H 309.084 -2.4618 2.89999 0
M  V30 3355 H 310.396 -3.39218 3.65695 0
M  V30 3356 H 309.55 -5.48928 2.58385 0
M  V30 3357 H 308.289 -4.56275 1.72233 0
M  V30 3358 H 307.294 -3.85824 3.91688 0
M  V30 3359 H 308.519 -4.81854 4.78533 0
M  V30 3360 H 306.465 -5.91847 2.82937 0
M  V30 3361 H 306.382 -6.03236 4.55677 0
M  V30 3362 H 307.65 -6.85958 3.70246 0
M  V30 3363 N 311.879 -1.3236 -0.855495 0
M  V30 3364 C 313.104 -1.2601 -1.64731 0
M  V30 3365 C 313.529 0.169068 -1.87339 0
M  V30 3366 O 312.887 1.12016 -1.42556 0
M  V30 3367 C 312.935 -2.02417 -2.98429 0
M  V30 3368 O 312.039 -1.3714 -3.8893 0
M  V30 3369 H 311.38 -0.434325 -0.502253 0
M  V30 3370 H 313.91 -1.74661 -1.06558 0
M  V30 3371 H 313.92 -2.12559 -3.48257 0
M  V30 3372 H 312.595 -3.06343 -2.81295 0
M  V30 3373 H 311.172 -1.3554 -3.47395 0
M  V30 3374 N 313.357 1.07166 -1.15556 0
M  V30 3375 C 314.287 2.16403 -0.877046 0
M  V30 3376 C 315.268 1.69217 0.173111 0
M  V30 3377 O 316.453 1.94181 0.027084 0
M  V30 3378 C 313.583 3.45349 -0.367632 0
M  V30 3379 C 312.537 4.05995 -1.35468 0
M  V30 3380 C 311.863 5.30045 -0.704038 0
M  V30 3381 C 313.163 4.45804 -2.72132 0
M  V30 3382 H 314.857 2.39959 -1.79053 0
M  V30 3383 H 312.403 1.15325 -0.862331 0
M  V30 3384 H 314.356 4.21095 -0.160317 0
M  V30 3385 H 313.08 3.21385 0.581326 0
M  V30 3386 H 311.739 3.32296 -1.54839 0
M  V30 3387 H 311.387 5.02373 0.251128 0
M  V30 3388 H 311.087 5.71579 -1.36277 0
M  V30 3389 H 312.611 6.08495 -0.50654 0
M  V30 3390 H 314.025 5.12671 -2.56595 0
M  V30 3391 H 312.422 4.98296 -3.34397 0
M  V30 3392 H 313.492 3.57083 -3.28054 0
M  V30 3393 N 314.835 0.952656 1.25548 0
M  V30 3394 C 315.765 0.489287 2.28316 0
M  V30 3395 C 316.746 -0.463359 1.63667 0
M  V30 3396 O 317.931 -0.36274 1.90782 0
M  V30 3397 C 315.061 -0.235603 3.465 0
M  V30 3398 C 314.015 0.631593 4.23314 0
M  V30 3399 C 313.341 -0.223923 5.34231 0
M  V30 3400 C 314.641 1.90871 4.86174 0
M  V30 3401 H 316.335 1.34822 2.67326 0
M  V30 3402 H 313.881 0.649728 1.28509 0
M  V30 3403 H 315.834 -0.570882 4.17515 0
M  V30 3404 H 314.558 -1.12877 3.06474 0
M  V30 3405 H 313.217 0.949929 3.54079 0
M  V30 3406 H 312.865 -1.11678 4.90446 0
M  V30 3407 H 312.565 0.35299 5.86539 0
M  V30 3408 H 314.089 -0.554214 6.0808 0
M  V30 3409 H 315.503 1.63997 5.49343 0
M  V30 3410 H 313.9 2.43112 5.4865 0
M  V30 3411 H 314.97 2.61304 4.08471 0
M  V30 3412 N 316.313 -1.40141 0.720998 0
M  V30 3413 C 317.561 -2.0039 0.262323 0
M  V30 3414 C 317.882 -1.57469 -1.15015 0
M  V30 3415 O 317.152 -0.816582 -1.78069 0
M  V30 3416 H 315.732 -0.741063 0.093996 0
M  V30 3417 H 318.394 -1.71398 0.927835 0
M  V30 3418 H 317.49 -3.10658 0.299671 0
M  V30 3419 N 317.792 -0.46758 -1.50504 0
M  V30 3420 C 319.02 0.0864133 -2.06719 0
M  V30 3421 C 319.435 1.33819 -1.33184 0
M  V30 3422 O 318.792 1.78061 -0.400083 0
M  V30 3423 C 318.843 0.378079 -3.59517 0
M  V30 3424 O 318.564 -0.824044 -4.3028 0
M  V30 3425 C 320.065 0.979426 -4.32345 0
M  V30 3426 H 317.285 -0.00551697 -0.670977 0
M  V30 3427 H 319.829 -0.655354 -1.93715 0
M  V30 3428 H 317.984 1.06977 -3.72337 0
M  V30 3429 H 318.398 -0.566518 -5.21432 0
M  V30 3430 H 319.872 1.1333 -5.40241 0
M  V30 3431 H 320.349 1.9686 -3.9261 0
M  V30 3432 H 320.955 0.326216 -4.24047 0
M  V30 3433 N 319.27 1.56325 -0.20005 0
M  V30 3434 C 320.495 2.02548 0.44597 0
M  V30 3435 C 320.92 1.07922 1.5406 0
M  V30 3436 O 320.278 0.0635775 1.81188 0
M  V30 3437 C 320.326 3.47175 0.974761 0
M  V30 3438 O 319.43 3.55671 2.08739 0
M  V30 3439 H 318.771 0.655862 0.103638 0
M  V30 3440 H 321.301 2.02201 -0.312381 0
M  V30 3441 H 321.311 3.87067 1.2901 0
M  V30 3442 H 319.986 4.15538 0.17347 0
M  V30 3443 H 318.563 3.27657 1.78032 0
M  V30 3444 N 320.748 -0.0735177 1.57428 0
M  V30 3445 C 321.996 -0.771472 1.86796 0
M  V30 3446 C 322.317 -1.78201 0.791804 0
M  V30 3447 O 321.587 -1.95074 -0.179718 0
M  V30 3448 H 320.167 -0.28791 0.689287 0
M  V30 3449 H 322.829 -0.0500161 1.94836 0
M  V30 3450 H 321.925 -1.28874 2.8425 0
M  V30 3451 N 322.226 -1.5378 -0.344866 0
M  V30 3452 C 323.159 -1.7649 -1.4466 0
M  V30 3453 C 324.137 -0.613954 -1.50563 0
M  V30 3454 O 325.321 -0.84896 -1.683 0
M  V30 3455 C 322.448 -1.86235 -2.82903 0
M  V30 3456 C 321.494 -3.08375 -2.94631 0
M  V30 3457 S 322.327 -4.67457 -2.61236 0
M  V30 3458 C 323.483 -4.80079 -4.0159 0
M  V30 3459 H 323.716 -2.69661 -1.2518 0
M  V30 3460 H 321.249 -1.44632 -0.540455 0
M  V30 3461 H 323.207 -1.92535 -3.62547 0
M  V30 3462 H 321.868 -0.940786 -2.9968 0
M  V30 3463 H 321.061 -3.11865 -3.95925 0
M  V30 3464 H 320.663 -3.00294 -2.22934 0
M  V30 3465 H 322.955 -4.61407 -4.96094 0
M  V30 3466 H 323.898 -5.82168 -4.03095 0
M  V30 3467 H 324.306 -4.08544 -3.89554 0
M  V30 3468 N 323.704 0.605807 -1.45491 0
M  V30 3469 C 324.614 1.74466 -1.56839 0
M  V30 3470 C 325.63 1.68006 -0.452772 0
M  V30 3471 O 326.806 1.8833 -0.713708 0
M  V30 3472 C 323.871 3.10931 -1.53371 0
M  V30 3473 C 322.932 3.28832 -2.75986 0
M  V30 3474 C 322.165 4.58787 -2.72673 0
M  V30 3475 O 322.388 5.4122 -1.80102 0
M  V30 3476 O 321.322 4.79438 -3.63899 0
M  V30 3477 H 325.148 1.67843 -2.53106 0
M  V30 3478 H 322.733 0.770108 -1.28022 0
M  V30 3479 H 324.615 3.92233 -1.54051 0
M  V30 3480 H 323.29 3.18042 -0.602572 0
M  V30 3481 H 322.197 2.47112 -2.80867 0
M  V30 3482 H 323.53 3.26599 -3.68231 0
M  V30 3483 N 325.182 1.32811 0.848464 0
M  V30 3484 C 326.407 1.26882 1.6406 0
M  V30 3485 C 326.832 -0.15913 1.87426 0
M  V30 3486 O 326.19 -1.11258 1.43148 0
M  V30 3487 C 326.238 2.03997 2.97351 0
M  V30 3488 O 325.342 1.39201 3.88197 0
M  V30 3489 H 324.683 0.436982 0.499943 0
M  V30 3490 H 327.213 1.75224 1.0563 0
M  V30 3491 H 327.223 2.14403 3.47124 0
M  V30 3492 H 325.898 3.0783 2.79666 0
M  V30 3493 H 324.475 1.37381 3.46671 0
M  V30 3494 N 326.66 -1.06551 1.16123 0
M  V30 3495 C 327.885 -1.83544 0.965735 0
M  V30 3496 C 328.31 -1.81843 -0.481102 0
M  V30 3497 O 327.668 -1.21732 -1.34354 0
M  V30 3498 C 327.716 -3.28169 1.49457 0
M  V30 3499 O 326.82 -4.0643 0.699157 0
M  V30 3500 H 326.161 -0.568026 0.343864 0
M  V30 3501 H 328.691 -1.34362 1.54299 0
M  V30 3502 H 328.701 -3.78992 1.51092 0
M  V30 3503 H 327.376 -3.28722 2.54784 0
M  V30 3504 H 325.953 -3.65216 0.7531 0
M  V30 3505 N 328.138 -0.959301 -1.25041 0
M  V30 3506 C 329.068 -0.501388 -2.28053 0
M  V30 3507 C 330.049 0.454673 -1.63911 0
M  V30 3508 O 331.234 0.352618 -1.90972 0
M  V30 3509 C 328.364 0.217224 -3.4662 0
M  V30 3510 C 327.318 -0.654034 -4.22973 0
M  V30 3511 C 326.644 0.195589 -5.34342 0
M  V30 3512 C 327.944 -1.93447 -4.85155 0
M  V30 3513 H 329.638 -1.36238 -2.66608 0
M  V30 3514 H 327.184 -0.656534 -1.28163 0
M  V30 3515 H 329.137 0.548732 -4.17812 0
M  V30 3516 H 327.861 1.1125 -3.07068 0
M  V30 3517 H 326.52 -0.968693 -3.5357 0
M  V30 3518 H 326.168 1.09076 -4.91031 0
M  V30 3519 H 325.868 -0.384091 -5.86343 0
M  V30 3520 H 327.392 0.521958 -6.08365 0
M  V30 3521 H 328.806 -1.66908 -5.48466 0
M  V30 3522 H 327.203 -2.46018 -5.47353 0
M  V30 3523 H 328.273 -2.63466 -4.07079 0
M  V30 3524 N 329.616 1.39756 -0.72842 0
M  V30 3525 C 330.564 2.32485 -0.0731849 0
M  V30 3526 C 331.558 1.52717 0.733063 0
M  V30 3527 O 332.764 1.68428 0.634988 0
M  V30 3528 H 329.139 0.751984 -0.00486469 0
M  V30 3529 H 331.11 2.85382 -0.871761 0
M  V30 3530 C 329.859 3.37773 0.824908 0
M  V30 3531 H 329.182 3.99227 0.213915 0
M  V30 3532 H 330.622 4.05121 1.25111 0
M  V30 3533 C 329.081 2.74287 1.95622 0
M  V30 3534 O 329.611 2.61618 3.04826 0
M  V30 3535 N 327.817 2.32475 1.74367 0
M  V30 3536 H 327.364 2.4298 0.855494 0
M  V30 3537 H 327.322 1.90337 2.50238 0
M  V30 3538 N 331.094 0.475555 1.50254 0
M  V30 3539 C 332.319 -0.0777042 2.07254 0
M  V30 3540 C 332.744 -1.3235 1.3366 0
M  V30 3541 O 332.102 -1.77152 0.385597 0
M  V30 3542 C 332.15 -0.340169 3.58992 0
M  V30 3543 O 331.254 -1.41982 3.87188 0
M  V30 3544 H 330.595 0.0149556 0.663832 0
M  V30 3545 H 333.125 0.667878 1.93392 0
M  V30 3546 H 333.135 -0.579332 4.03866 0
M  V30 3547 H 331.81 0.570167 4.11973 0
M  V30 3548 H 330.387 -1.16762 3.54148 0
M  V30 3549 N 332.573 -1.56217 0.208337 0
M  V30 3550 C 333.822 -1.97124 -0.427204 0
M  V30 3551 C 334.135 -1.09859 -1.61835 0
M  V30 3552 O 335.341 -1.40606 -2.32255 0
M  V30 3553 C 333.797 -3.50633 -0.811442 0
M  V30 3554 C 333.405 -4.46582 0.35615 0
M  V30 3555 C 335.149 -4.00282 -1.41332 0
M  V30 3556 C 333.056 -5.91379 -0.0497852 0
M  V30 3557 H 331.986 -0.736086 -0.163381 0
M  V30 3558 H 334.637 -1.8099 0.302456 0
M  V30 3559 H 333.019 -3.62319 -1.59815 0
M  V30 3560 H 334.193 -4.46636 1.1337 0
M  V30 3561 H 332.508 -4.07202 0.870396 0
M  V30 3562 H 335.105 -5.0595 -1.72972 0
M  V30 3563 H 335.448 -3.45359 -2.32449 0
M  V30 3564 H 335.981 -3.91764 -0.690323 0
M  V30 3565 H 332.72 -6.50255 0.827529 0
M  V30 3566 H 332.24 -5.94549 -0.791926 0
M  V30 3567 H 333.919 -6.45209 -0.481042 0
M  V30 3568 N 334.051 0.0651679 -1.57465 0
M  V30 3569 C 334.981 1.07693 -2.07182 0
M  V30 3570 C 335.962 1.39962 -0.966673 0
M  V30 3571 O 337.147 1.49475 -1.2398 0
M  V30 3572 C 334.277 2.3885 -2.52127 0
M  V30 3573 C 333.231 2.20917 -3.66579 0
M  V30 3574 C 332.557 3.57515 -3.97601 0
M  V30 3575 C 333.857 1.62493 -4.9638 0
M  V30 3576 H 335.551 0.663199 -2.91962 0
M  V30 3577 H 333.097 0.317569 -1.40455 0
M  V30 3578 H 335.05 3.09928 -2.85522 0
M  V30 3579 H 333.774 2.82215 -1.64384 0
M  V30 3580 H 332.433 1.52279 -3.33477 0
M  V30 3581 H 332.081 3.98463 -3.06979 0
M  V30 3582 H 331.781 3.46353 -4.74672 0
M  V30 3583 H 333.305 4.30013 -4.33499 0
M  V30 3584 H 334.719 2.23445 -5.27963 0
M  V30 3585 H 333.116 1.62009 -5.77818 0
M  V30 3586 H 334.186 0.587041 -4.81333 0
M  V30 3587 N 335.529 1.53961 0.336706 0
M  V30 3588 C 336.492 1.81724 1.39675 0
M  V30 3589 C 337.492 0.688532 1.45313 0
M  V30 3590 O 338.682 0.956829 1.45569 0
M  V30 3591 C 335.814 1.96543 2.78538 0
M  V30 3592 H 337.007 2.76424 1.16318 0
M  V30 3593 H 334.56 1.45478 0.571474 0
M  V30 3594 H 335.295 1.0401 3.07168 0
M  V30 3595 H 335.08 2.78665 2.75841 0
M  V30 3596 H 336.57 2.19516 3.5525 0
M  V30 3597 N 337.007 -0.598083 1.45811 0
M  V30 3598 C 338.255 -1.35413 1.50026 0
M  V30 3599 C 338.576 -1.94444 0.147177 0
M  V30 3600 O 337.846 -1.77701 -0.824571 0
M  V30 3601 H 336.426 -0.502727 0.552517 0
M  V30 3602 H 339.088 -0.701606 1.81834 0
M  V30 3603 H 338.184 -2.16871 2.2444 0
M  V30 3604 N 338.485 -1.33259 -0.841409 0
M  V30 3605 C 339.713 -1.27605 -1.62864 0
M  V30 3606 C 340.128 0.153507 -1.88175 0
M  V30 3607 O 339.485 1.09485 -1.46011 0
M  V30 3608 C 339.536 -2.04596 -2.98031 0
M  V30 3609 O 339.257 -3.41975 -2.73834 0
M  V30 3610 C 340.758 -2.06122 -3.92465 0
M  V30 3611 H 337.978 -0.439718 -0.506842 0
M  V30 3612 H 340.522 -1.75591 -1.04824 0
M  V30 3613 H 338.677 -1.60299 -3.5268 0
M  V30 3614 H 339.091 -3.81549 -3.59889 0
M  V30 3615 H 340.565 -2.64451 -4.84531 0
M  V30 3616 H 341.042 -1.05083 -4.26444 0
M  V30 3617 H 341.648 -2.50427 -3.43753 0
M  V30 3618 N 339.963 1.05934 -1.16686 0
M  V30 3619 C 341.24 1.75643 -0.860747 0
M  V30 3620 C 341.62 2.01144 0.640641 0
M  V30 3621 O 340.968 1.64147 1.58959 0
M  V30 3622 C 341.178 3.05493 -1.68745 0
M  V30 3623 C 342.526 3.79581 -1.90271 0
M  V30 3624 O 343.55 3.15344 -1.65641 0
M  V30 3625 O 342.409 4.9499 -2.31618 0
M  V30 3626 H 339.503 0.763426 -0.317977 0
M  V30 3627 H 342.049 1.1217 -1.27342 0
M  V30 3628 H 340.821 2.8264 -2.70611 0
M  V30 3629 H 340.444 3.76702 -1.27206 0
M  V30 3630 N 341.441 0.965919 1.2453 0
M  V30 3631 C 342.689 0.625593 1.92174 0
M  V30 3632 C 343.01 -0.841652 1.75901 0
M  V30 3633 O 342.28 -1.60061 1.12948 0
M  V30 3634 H 340.86 0.228388 0.71123 0
M  V30 3635 H 343.522 1.2266 1.51461 0
M  V30 3636 H 342.618 0.864653 2.99884 0
M  V30 3637 N 342.919 -1.39368 0.735821 0
M  V30 3638 C 344.168 -1.99733 0.281004 0
M  V30 3639 C 344.481 -1.59055 -1.13846 0
M  V30 3640 O 345.687 -2.12262 -1.69284 0
M  V30 3641 C 344.143 -3.57057 0.451462 0
M  V30 3642 C 343.751 -4.06697 1.87886 0
M  V30 3643 C 345.495 -4.2446 0.0584616 0
M  V30 3644 C 343.402 -5.56598 1.99883 0
M  V30 3645 H 342.332 -0.747163 0.101311 0
M  V30 3646 H 344.983 -1.59357 0.909819 0
M  V30 3647 H 343.365 -3.95234 -0.246263 0
M  V30 3648 H 344.539 -3.79853 2.60861 0
M  V30 3649 H 342.854 -3.5196 2.22515 0
M  V30 3650 H 345.451 -5.34549 0.127099 0
M  V30 3651 H 345.794 -4.04444 -0.986433 0
M  V30 3652 H 346.327 -3.9146 0.707374 0
M  V30 3653 H 343.066 -5.81494 3.02564 0
M  V30 3654 H 342.586 -5.85242 1.31346 0
M  V30 3655 H 344.265 -6.22022 1.78039 0
M  V30 3656 N 344.397 -0.483516 -1.5 0
M  V30 3657 C 345.646 0.0689102 -2.01582 0
M  V30 3658 C 345.959 1.39655 -1.36952 0
M  V30 3659 O 347.165 2.03465 -1.79762 0
M  V30 3660 C 345.621 0.173302 -3.59483 0
M  V30 3661 C 345.229 -1.14665 -4.33077 0
M  V30 3662 C 346.973 0.677024 -4.19066 0
M  V30 3663 C 344.88 -1.00537 -5.82792 0
M  V30 3664 H 343.81 0.0295277 -0.753422 0
M  V30 3665 H 346.461 -0.620295 -1.72698 0
M  V30 3666 H 344.843 0.926569 -3.85007 0
M  V30 3667 H 346.017 -1.91184 -4.19268 0
M  V30 3668 H 344.332 -1.58244 -3.85159 0
M  V30 3669 H 346.929 0.799952 -5.28682 0
M  V30 3670 H 347.272 1.67151 -3.81269 0
M  V30 3671 H 347.805 -0.0192083 -3.97795 0
M  V30 3672 H 344.544 -1.9736 -6.25083 0
M  V30 3673 H 344.064 -0.280776 -5.99142 0
M  V30 3674 H 345.743 -0.677 -6.43448 0
M  V30 3675 N 345.875 1.56104 -0.216619 0
M  V30 3676 C 347.103 2.02563 0.421413 0
M  V30 3677 C 347.518 1.0965 1.53695 0
M  V30 3678 O 346.875 0.10521 1.82196 0
M  V30 3679 C 346.926 3.48584 0.957665 0
M  V30 3680 O 346.647 4.37953 -0.113389 0
M  V30 3681 C 348.148 4.10664 1.66943 0
M  V30 3682 H 345.368 0.662944 0.103665 0
M  V30 3683 H 347.912 2.01793 -0.331629 0
M  V30 3684 H 346.067 3.49985 1.661 0
M  V30 3685 H 346.481 5.23704 0.288932 0
M  V30 3686 H 347.955 5.14622 1.99671 0
M  V30 3687 H 348.432 3.55373 2.58083 0
M  V30 3688 H 349.038 4.13098 1.01142 0
M  V30 3689 N 347.353 -0.0568162 1.57498 0
M  V30 3690 C 348.583 -0.764515 1.91934 0
M  V30 3691 C 348.991 -1.70877 0.81227 0
M  V30 3692 O 348.334 -1.82351 -0.222213 0
M  V30 3693 C 348.396 -1.5994 3.21962 0
M  V30 3694 C 348.06 -0.822925 4.4953 0
M  V30 3695 C 349.057 -0.135464 5.19723 0
M  V30 3696 C 346.742 -0.785666 4.96117 0
M  V30 3697 C 348.736 0.578861 6.34766 0
M  V30 3698 C 346.423 -0.0675784 6.11063 0
M  V30 3699 C 347.421 0.613471 6.80239 0
M  V30 3700 O 347.109 1.31996 7.92989 0
M  V30 3701 H 346.841 -0.221647 0.63863 0
M  V30 3702 H 349.395 -0.0268218 2.05382 0
M  V30 3703 H 347.625 -2.38026 3.04763 0
M  V30 3704 H 349.314 -2.18715 3.41934 0
M  V30 3705 H 350.08 -0.155458 4.84751 0
M  V30 3706 H 345.959 -1.30524 4.42136 0
M  V30 3707 H 349.503 1.111 6.88696 0
M  V30 3708 H 345.4 -0.0455636 6.45484 0
M  V30 3709 H 346.168 1.23077 8.09194 0
M  V30 3710 N 348.832 -1.54138 -0.328536 0
M  V30 3711 C 349.742 -1.86192 -1.42723 0
M  V30 3712 C 350.758 -0.753382 -1.56844 0
M  V30 3713 O 351.934 -1.04718 -1.72035 0
M  V30 3714 C 348.999 -2.07824 -2.77507 0
M  V30 3715 C 348.06 -3.31641 -2.72603 0
M  V30 3716 C 347.293 -3.52232 -4.00959 0
M  V30 3717 O 347.516 -2.7636 -4.9898 0
M  V30 3718 O 346.45 -4.45699 -4.0452 0
M  V30 3719 H 350.276 -2.79608 -1.18547 0
M  V30 3720 H 347.861 -1.3998 -0.522104 0
M  V30 3721 H 349.743 -2.23411 -3.57303 0
M  V30 3722 H 348.418 -1.17596 -3.01584 0
M  V30 3723 H 347.325 -3.21444 -1.91376 0
M  V30 3724 H 348.658 -4.2191 -2.53481 0
M  V30 3725 N 350.31 0.590341 -1.46126 0
M  V30 3726 C 351.257 1.69994 -1.56111 0
M  V30 3727 C 352.227 1.61065 -0.405867 0
M  V30 3728 O 353.412 1.8039 -0.621613 0
M  V30 3729 C 350.552 3.08326 -1.55013 0
M  V30 3730 C 349.665 3.27936 -2.81215 0
M  V30 3731 C 348.8 4.56473 -2.71673 0
M  V30 3732 C 347.839 4.694 -3.92849 0
M  V30 3733 N 346.976 5.89254 -3.81738 0
M  V30 3734 H 351.816 1.60797 -2.50895 0
M  V30 3735 H 349.353 0.783799 -1.24479 0
M  V30 3736 H 351.311 3.88383 -1.52362 0
M  V30 3737 H 349.941 3.16439 -0.637667 0
M  V30 3738 H 348.993 2.41536 -2.93879 0
M  V30 3739 H 350.305 3.33357 -3.71045 0
M  V30 3740 H 349.459 5.44748 -2.67085 0
M  V30 3741 H 348.198 4.53477 -1.7947 0
M  V30 3742 H 347.203 3.79544 -3.97777 0
M  V30 3743 H 348.428 4.7418 -4.86138 0
M  V30 3744 H 346.374 5.87271 -2.92317 0
M  V30 3745 H 346.291 5.95911 -4.65217 0
M  V30 3746 H 347.559 6.79981 -3.81112 0
M  V30 3747 N 351.788 1.33704 0.83433 0
M  V30 3748 C 353.065 1.16011 1.57483 0
M  V30 3749 C 353.445 -0.27176 2.09343 0
M  V30 3750 O 352.793 -1.27146 1.89858 0
M  V30 3751 C 353.003 2.20507 2.70514 0
M  V30 3752 C 354.351 2.54898 3.39577 0
M  V30 3753 O 355.375 2.19209 2.80759 0
M  V30 3754 O 354.234 3.16158 4.45765 0
M  V30 3755 H 351.328 0.448992 0.694503 0
M  V30 3756 H 353.874 1.453 0.876691 0
M  V30 3757 H 352.646 3.16667 2.29865 0
M  V30 3758 H 352.269 1.92329 3.47987 0
M  V30 3759 N 353.266 -1.05314 1.17247 0
M  V30 3760 C 354.682 -1.30452 0.919473 0
M  V30 3761 C 354.882 -1.9703 -0.42209 0
M  V30 3762 O 353.938 -2.24311 -1.15935 0
M  V30 3763 C 355.251 -2.17551 2.07586 0
M  V30 3764 C 356.799 -2.30937 2.11275 0
M  V30 3765 C 357.274 -3.21396 3.26296 0
M  V30 3766 N 358.765 -3.28981 3.26076 0
M  V30 3767 C 359.5 -3.99095 4.11716 0
M  V30 3768 N 358.996 -4.71648 5.07465 0
M  V30 3769 N 360.789 -3.95247 3.9967 0
M  V30 3770 H 352.94 -0.604988 2.03602 0
M  V30 3771 H 355.203 -0.329368 0.888944 0
M  V30 3772 H 354.909 -1.75921 3.0454 0
M  V30 3773 H 354.783 -3.18182 2.02584 0
M  V30 3774 H 357.17 -2.71809 1.14907 0
M  V30 3775 H 357.251 -1.2994 2.20339 0
M  V30 3776 H 356.895 -2.81238 4.22927 0
M  V30 3777 H 356.825 -4.22395 3.14467 0
M  V30 3778 H 359.316 -2.77286 2.5675 0
M  V30 3779 H 359.629 -5.22705 5.6921 0
M  V30 3780 H 357.974 -4.70594 5.11435 0
M  V30 3781 H 361.165 -3.37691 3.24164 0
M  V30 3782 H 361.338 -4.4962 4.66632 0
M  V30 3783 N 354.744 -0.972509 -1.24016 0
M  V30 3784 C 355.674 -0.525548 -2.27509 0
M  V30 3785 C 356.655 0.437262 -1.64384 0
M  V30 3786 O 357.84 0.332343 -1.91335 0
M  V30 3787 C 354.97 0.180448 -3.46831 0
M  V30 3788 C 353.924 -0.698859 -4.22256 0
M  V30 3789 C 353.25 0.138903 -5.3452 0
M  V30 3790 C 354.55 -1.98582 -4.83076 0
M  V30 3791 H 356.244 -1.39058 -2.65148 0
M  V30 3792 H 353.79 -0.67009 -1.27459 0
M  V30 3793 H 355.743 0.504387 -4.18371 0
M  V30 3794 H 354.467 1.07987 -3.08231 0
M  V30 3795 H 353.126 -1.00614 -3.52523 0
M  V30 3796 H 352.774 1.03862 -4.9216 0
M  V30 3797 H 352.474 -0.446259 -5.85903 0
M  V30 3798 H 353.998 0.457404 -6.08884 0
M  V30 3799 H 355.412 -1.72715 -5.46665 0
M  V30 3800 H 353.809 -2.5181 -5.44713 0
M  V30 3801 H 354.879 -2.67769 -4.04262 0
M  V30 3802 N 356.222 1.38976 -0.743202 0
M  V30 3803 C 357.47 1.99948 -0.29417 0
M  V30 3804 C 357.791 1.59279 1.12495 0
M  V30 3805 O 357.061 0.844808 1.76748 0
M  V30 3806 H 355.641 0.739473 -0.105774 0
M  V30 3807 H 358.303 1.699 -0.954986 0
M  V30 3808 H 357.399 3.10142 -0.349056 0
M  V30 3809 N 357.7 0.491464 1.49741 0
M  V30 3810 C 358.648 -0.305837 2.30581 0
M  V30 3811 C 359.642 -0.971642 1.38764 0
M  V30 3812 O 360.848 -0.90042 1.5586 0
M  V30 3813 H 357.223 -0.117482 0.742767 0
M  V30 3814 H 359.194 0.396093 2.95759 0
M  V30 3815 C 357.943 -1.36319 3.19863 0
M  V30 3816 H 357.266 -0.860258 3.90435 0
M  V30 3817 H 358.706 -1.89323 3.79385 0
M  V30 3818 C 357.165 -2.37621 2.38826 0
M  V30 3819 O 357.695 -3.43311 2.08567 0
M  V30 3820 N 355.901 -2.09849 2.01026 0
M  V30 3821 H 355.448 -1.23922 2.25834 0
M  V30 3822 H 355.406 -2.77859 1.47112 0
M  V30 3823 N 359.178 -1.55987 0.224894 0
M  V30 3824 C 360.427 -1.97566 -0.406273 0
M  V30 3825 C 360.74 -1.11569 -1.6066 0
M  V30 3826 O 361.946 -1.43062 -2.3075 0
M  V30 3827 C 360.402 -3.51474 -0.774207 0
M  V30 3828 C 360.01 -4.46179 0.403496 0
M  V30 3829 C 361.754 -4.01758 -1.37079 0
M  V30 3830 C 359.661 -5.91399 0.0129412 0
M  V30 3831 H 358.591 -0.737777 -0.155565 0
M  V30 3832 H 361.242 -1.80659 0.321635 0
M  V30 3833 H 359.624 -3.63994 -1.55963 0
M  V30 3834 H 360.798 -4.45409 1.18101 0
M  V30 3835 H 359.113 -4.06255 0.913536 0
M  V30 3836 H 361.71 -5.07756 -1.67596 0
M  V30 3837 H 362.053 -3.47805 -2.28773 0
M  V30 3838 H 362.586 -3.92475 -0.648733 0
M  V30 3839 H 359.325 -6.49341 0.896451 0
M  V30 3840 H 358.845 -5.95356 -0.728821 0
M  V30 3841 H 360.524 -6.45683 -0.412582 0
M  V30 3842 N 360.656 0.0484629 -1.57525 0
M  V30 3843 C 361.902 0.744226 -1.88651 0
M  V30 3844 C 362.235 1.76029 -0.820212 0
M  V30 3845 O 361.51 1.93782 0.166985 0
M  V30 3846 C 361.793 1.43128 -3.30434 0
M  V30 3847 C 361.646 0.43005 -4.47739 0
M  V30 3848 C 362.965 2.37031 -3.70816 0
M  V30 3849 H 360.084 0.269089 -0.68612 0
M  V30 3850 H 362.726 0.00713532 -1.89999 0
M  V30 3851 H 360.876 2.05956 -3.29415 0
M  V30 3852 H 362.548 -0.194816 -4.60888 0
M  V30 3853 H 360.791 -0.252522 -4.33064 0
M  V30 3854 H 361.462 0.948874 -5.43783 0
M  V30 3855 H 363.938 1.84263 -3.73077 0
M  V30 3856 H 362.814 2.82094 -4.70865 0
M  V30 3857 H 363.075 3.22864 -3.02012 0
M  V30 3858 N 362.134 1.5431 0.320358 0
M  V30 3859 C 363.545 1.63872 0.894594 0
M  V30 3860 C 363.896 0.534847 1.88769 0
M  V30 3861 O 363.021 -0.331732 2.13842 0
M  V30 3862 C 363.616 2.97049 1.62934 0
M  V30 3863 C 362.175 3.08796 2.15226 0
M  V30 3864 C 361.322 2.59456 0.978671 0
M  V30 3865 H 364.273 1.58398 0.0978544 0
M  V30 3866 H 364.294 2.87388 2.49376 0
M  V30 3867 H 363.806 3.7737 0.906302 0
M  V30 3868 H 361.907 2.33156 2.90636 0
M  V30 3869 H 362.02 4.14649 2.40006 0
M  V30 3870 H 360.384 2.1543 1.35875 0
M  V30 3871 H 361.167 3.42237 0.269895 0
M  V30 3872 N 363.613 -0.582584 1.46437 0
M  V30 3873 C 364.861 -1.33814 1.51453 0
M  V30 3874 C 365.182 -1.94277 0.167792 0
M  V30 3875 O 364.452 -1.78566 -0.805677 0
M  V30 3876 H 363.032 -0.496838 0.557818 0
M  V30 3877 H 365.694 -0.682281 1.82568 0
M  V30 3878 H 364.79 -2.14479 2.26728 0
M  V30 3879 N 365.091 -1.34144 -0.827227 0
M  V30 3880 C 366.319 -1.29325 -1.61501 0
M  V30 3881 C 366.734 0.13354 -1.88327 0
M  V30 3882 O 366.091 1.0793 -1.47164 0
M  V30 3883 C 366.142 -2.07746 -2.95844 0
M  V30 3884 O 365.863 -3.4486 -2.70191 0
M  V30 3885 C 367.364 -2.10273 -3.90256 0
M  V30 3886 H 364.584 -0.445069 -0.50215 0
M  V30 3887 H 367.128 -1.76693 -1.02955 0
M  V30 3888 H 365.283 -1.6403 -3.5096 0
M  V30 3889 H 365.697 -3.85345 -3.55822 0
M  V30 3890 H 367.171 -2.69575 -4.81698 0
M  V30 3891 H 367.648 -1.096 -4.25305 0
M  V30 3892 H 368.254 -2.54059 -3.41078 0
M  V30 3893 N 366.569 1.04691 -1.17803 0
M  V30 3894 C 367.479 2.16057 -0.914151 0
M  V30 3895 C 368.495 1.73589 0.119503 0
M  V30 3896 O 369.671 2.01308 -0.0609468 0
M  V30 3897 C 366.736 3.4394 -0.436603 0
M  V30 3898 C 365.797 4.00825 -1.53746 0
M  V30 3899 C 365.03 5.22604 -1.0826 0
M  V30 3900 O 365.253 5.70367 0.0612244 0
M  V30 3901 O 364.187 5.7186 -1.87775 0
M  V30 3902 H 368.013 2.41169 -1.84584 0
M  V30 3903 H 365.598 1.1453 -0.959334 0
M  V30 3904 H 367.48 4.21024 -0.178057 0
M  V30 3905 H 366.155 3.20316 0.466869 0
M  V30 3906 H 365.062 3.25158 -1.84995 0
M  V30 3907 H 366.395 4.28778 -2.41683 0
M  V30 3908 N 368.047 0.979072 1.23499 0
M  V30 3909 C 368.979 0.476271 2.24197 0
M  V30 3910 C 369.992 -0.421166 1.57258 0
M  V30 3911 O 371.181 -0.225515 1.7707 0
M  V30 3912 C 368.281 -0.330503 3.37285 0
M  V30 3913 C 367.454 0.559744 4.33804 0
M  V30 3914 C 366.513 -0.192954 5.25846 0
M  V30 3915 O 365.539 0.416978 5.67671 0
M  V30 3916 N 366.741 -1.47932 5.61334 0
M  V30 3917 H 369.506 1.34211 2.67969 0
M  V30 3918 H 367.067 0.852189 1.37657 0
M  V30 3919 H 369.059 -0.842361 3.95836 0
M  V30 3920 H 367.629 -1.09734 2.92707 0
M  V30 3921 H 366.849 1.25245 3.73775 0
M  V30 3922 H 368.137 1.1665 4.95248 0
M  V30 3923 H 367.535 -1.9964 5.29302 0
M  V30 3924 H 366.092 -1.93664 6.22364 0
M  V30 3925 N 369.525 -1.3858 0.750561 0
M  V30 3926 C 370.771 -2.00481 0.305825 0
M  V30 3927 C 371.104 -1.5944 -1.10872 0
M  V30 3928 O 370.379 -0.83052 -1.75877 0
M  V30 3929 C 370.662 -3.5758 0.425287 0
M  V30 3930 C 370.515 -4.08594 1.88072 0
M  V30 3931 C 371.834 -4.39719 -0.183122 0
M  V30 3932 H 368.953 -0.728348 0.112598 0
M  V30 3933 H 371.595 -1.64566 0.949638 0
M  V30 3934 H 369.745 -3.88306 -0.122828 0
M  V30 3935 H 371.417 -3.88523 2.48691 0
M  V30 3936 H 369.66 -3.61574 2.39681 0
M  V30 3937 H 370.331 -5.177 1.91548 0
M  V30 3938 H 372.807 -4.15128 0.284303 0
M  V30 3939 H 371.683 -5.48856 -0.0692757 0
M  V30 3940 H 371.944 -4.23434 -1.27106 0
M  V30 3941 N 371.003 -0.499398 -1.49478 0
M  V30 3942 C 372.228 0.044722 -2.07352 0
M  V30 3943 C 372.653 1.30207 -1.35749 0
M  V30 3944 O 372.011 1.76516 -0.413732 0
M  V30 3945 C 372.059 0.283013 -3.59488 0
M  V30 3946 O 371.163 1.35804 -3.89398 0
M  V30 3947 H 370.504 -0.0255147 -0.66351 0
M  V30 3948 H 373.034 -0.698561 -1.92305 0
M  V30 3949 H 373.044 0.515007 -4.04737 0
M  V30 3950 H 371.719 -0.635636 -4.11014 0
M  V30 3951 H 370.296 1.11113 -3.55961 0
M  V30 3952 N 372.481 1.55866 -0.233164 0
M  V30 3953 C 373.413 2.18099 0.704668 0
M  V30 3954 C 374.426 1.15334 1.14899 0
M  V30 3955 O 375.615 1.42262 1.07814 0
M  V30 3956 C 372.715 2.7592 1.96777 0
M  V30 3957 C 371.888 4.03969 1.67713 0
M  V30 3958 C 370.947 4.46242 2.78845 0
M  V30 3959 O 369.973 5.12903 2.46818 0
M  V30 3960 N 371.175 4.12886 4.08051 0
M  V30 3961 H 373.94 2.99205 0.172258 0
M  V30 3962 H 371.501 1.61815 -0.0525945 0
M  V30 3963 H 373.493 3.01165 2.70337 0
M  V30 3964 H 372.063 1.99051 2.41034 0
M  V30 3965 H 371.283 3.86459 0.777391 0
M  V30 3966 H 372.571 4.8748 1.4574 0
M  V30 3967 H 371.969 3.59342 4.3691 0
M  V30 3968 H 370.526 4.42997 4.78118 0
M  V30 3969 N 373.959 -0.0401083 1.57549 0
M  V30 3970 C 375.375 -0.395556 1.54621 0
M  V30 3971 C 375.575 -1.77281 0.957799 0
M  V30 3972 O 374.631 -2.45888 0.574031 0
M  V30 3973 C 375.944 -0.307535 2.99123 0
M  V30 3974 C 377.492 -0.385425 3.10618 0
M  V30 3975 C 377.967 -0.326973 4.56831 0
M  V30 3976 N 379.458 -0.386102 4.61588 0
M  V30 3977 C 380.193 -0.363591 5.72246 0
M  V30 3978 N 379.689 -0.29402 6.92176 0
M  V30 3979 N 381.482 -0.412503 5.60584 0
M  V30 3980 H 373.633 0.861325 1.94152 0
M  V30 3981 H 375.896 0.326445 0.890021 0
M  V30 3982 H 375.602 0.638461 3.45856 0
M  V30 3983 H 375.476 -1.10552 3.60636 0
M  V30 3984 H 377.863 -1.32185 2.63839 0
M  V30 3985 H 377.944 0.44171 2.51957 0
M  V30 3986 H 377.588 0.605738 5.04275 0
M  V30 3987 H 377.518 -1.17207 5.13391 0
M  V30 3988 H 380.009 -0.442832 3.75296 0
M  V30 3989 H 380.322 -0.28164 7.72287 0
M  V30 3990 H 378.667 -0.260232 6.94513 0
M  V30 3991 H 381.858 -0.464769 4.65787 0
M  V30 3992 H 382.031 -0.391492 6.46816 0
M  V30 3993 N 375.437 -1.54477 -0.31217 0
M  V30 3994 C 376.665 -1.77205 -1.068 0
M  V30 3995 C 377.08 -0.526114 -1.81321 0
M  V30 3996 O 376.437 0.503647 -1.75413 0
M  V30 3997 C 376.488 -2.97253 -2.05725 0
M  V30 3998 O 376.209 -4.1703 -1.34228 0
M  V30 3999 C 377.71 -3.32281 -2.93435 0
M  V30 4000 H 374.93 -0.591287 -0.317208 0
M  V30 4001 H 377.474 -2.01398 -0.354834 0
M  V30 4002 H 375.629 -2.753 -2.72559 0
M  V30 4003 H 376.043 -4.84636 -2.00571 0
M  V30 4004 H 377.517 -4.19551 -3.58721 0
M  V30 4005 H 377.994 -2.49945 -3.61143 0
M  V30 4006 H 378.6 -3.56353 -2.32147 0
M  V30 4007 N 376.915 0.57481 -1.46744 0
M  V30 4008 C 377.848 1.69827 -1.52427 0
M  V30 4009 C 378.826 1.58151 -0.377744 0
M  V30 4010 O 380.01 1.79257 -0.58303 0
M  V30 4011 C 377.137 3.07943 -1.41027 0
M  V30 4012 C 376.183 3.38116 -2.59961 0
M  V30 4013 S 377.016 3.29313 -4.22272 0
M  V30 4014 C 378.172 4.69953 -4.13394 0
M  V30 4015 H 378.405 1.64748 -2.47478 0
M  V30 4016 H 375.938 0.754203 -1.34726 0
M  V30 4017 H 377.896 3.87619 -1.35137 0
M  V30 4018 H 376.557 3.10504 -0.473909 0
M  V30 4019 H 375.75 4.38762 -2.47999 0
M  V30 4020 H 375.352 2.66024 -2.62882 0
M  V30 4021 H 377.644 5.60517 -3.80562 0
M  V30 4022 H 378.587 4.86972 -5.14066 0
M  V30 4023 H 378.995 4.47174 -3.44522 0
M  V30 4024 N 378.394 1.34581 0.820102 0
M  V30 4025 C 379.671 1.17675 1.56244 0
M  V30 4026 C 380.051 -0.249541 2.0962 0
M  V30 4027 O 379.399 -1.25125 1.91196 0
M  V30 4028 C 379.609 2.23364 2.6816 0
M  V30 4029 C 380.957 2.58485 3.36854 0
M  V30 4030 O 381.981 2.22175 2.78418 0
M  V30 4031 O 380.84 3.20868 4.42386 0
M  V30 4032 H 377.934 0.456333 0.689702 0
M  V30 4033 H 380.48 1.46222 0.861231 0
M  V30 4034 H 379.252 3.19087 2.26493 0
M  V30 4035 H 378.875 1.96009 3.45928 0
M  V30 4036 N 379.872 -1.04064 1.18357 0
M  V30 4037 C 381.12 -1.76915 0.977013 0
M  V30 4038 C 381.441 -1.88624 -0.494577 0
M  V30 4039 O 380.711 -1.41125 -1.3587 0
M  V30 4040 H 379.291 -0.65535 0.358504 0
M  V30 4041 H 381.953 -1.25592 1.49039 0
M  V30 4042 H 381.049 -2.78178 1.41504 0
M  V30 4043 N 381.35 -0.985608 -1.22978 0
M  V30 4044 C 382.297 -0.529825 -2.24636 0
M  V30 4045 C 383.267 0.434028 -1.60329 0
M  V30 4046 O 384.452 0.340414 -1.87739 0
M  V30 4047 C 381.592 0.156533 -3.44745 0
M  V30 4048 C 380.705 -0.848197 -4.23591 0
M  V30 4049 C 379.84 -0.136109 -5.31026 0
M  V30 4050 C 378.879 -1.1297 -6.01585 0
M  V30 4051 N 378.016 -0.446415 -7.00679 0
M  V30 4052 H 382.856 -1.40148 -2.62988 0
M  V30 4053 H 380.393 -0.702168 -1.29259 0
M  V30 4054 H 382.351 0.571324 -4.1327 0
M  V30 4055 H 380.981 0.992025 -3.07179 0
M  V30 4056 H 380.033 -1.38135 -3.54433 0
M  V30 4057 H 381.345 -1.60512 -4.72268 0
M  V30 4058 H 380.499 0.335784 -6.0577 0
M  V30 4059 H 379.238 0.653373 -4.83304 0
M  V30 4060 H 378.243 -1.6123 -5.25628 0
M  V30 4061 H 379.468 -1.91993 -6.51395 0
M  V30 4062 H 377.414 0.323763 -6.55201 0
M  V30 4063 H 377.331 -1.1419 -7.47326 0
M  V30 4064 H 378.599 0.00291697 -7.795 0
M  V30 4065 N 382.828 1.3818 -0.7579 0
M  V30 4066 C 384.105 1.94106 -0.241306 0
M  V30 4067 C 384.485 1.69282 1.26122 0
M  V30 4068 O 383.833 1.03378 2.03777 0
M  V30 4069 C 384.043 3.43809 -0.59967 0
M  V30 4070 C 385.391 4.20868 -0.561717 0
M  V30 4071 O 386.415 3.5211 -0.538222 0
M  V30 4072 O 385.274 5.43451 -0.576478 0
M  V30 4073 H 382.368 0.825376 -0.0518042 0
M  V30 4074 H 384.914 1.47548 -0.838315 0
M  V30 4075 H 383.686 3.55403 -1.6372 0
M  V30 4076 H 383.309 3.97592 0.0251197 0
M  V30 4077 N 384.306 0.507319 1.49211 0
M  V30 4078 C 385.552 -0.0350047 2.0277 0
M  V30 4079 C 385.885 -1.3606 1.38569 0
M  V30 4080 O 385.16 -1.87321 0.523542 0
M  V30 4081 C 385.443 -0.180916 3.59645 0
M  V30 4082 C 385.296 1.16825 4.34364 0
M  V30 4083 C 386.615 -0.918558 4.30407 0
M  V30 4084 H 383.734 -0.0112473 0.736914 0
M  V30 4085 H 386.376 0.659956 1.7817 0
M  V30 4086 H 384.526 -0.772826 3.80736 0
M  V30 4087 H 386.198 1.79952 4.24753 0
M  V30 4088 H 384.441 1.75594 3.96673 0
M  V30 4089 H 385.112 1.01939 5.42506 0
M  V30 4090 H 387.588 -0.41649 4.1401 0
M  V30 4091 H 386.464 -0.989505 5.39907 0
M  V30 4092 H 386.725 -1.96373 3.96093 0
M  V30 4093 N 385.784 -1.5574 0.241426 0
M  V30 4094 C 387.014 -2.02913 -0.38857 0
M  V30 4095 C 387.422 -1.12014 -1.52478 0
M  V30 4096 O 386.765 -0.125903 -1.83268 0
M  V30 4097 C 386.827 -3.4636 -0.963075 0
M  V30 4098 C 386.491 -4.56982 0.0401916 0
M  V30 4099 C 387.488 -5.12941 0.847766 0
M  V30 4100 C 385.173 -5.0203 0.164699 0
M  V30 4101 C 387.167 -6.12437 1.76636 0
M  V30 4102 C 384.854 -6.01358 1.0868 0
M  V30 4103 C 385.852 -6.5644 1.88616 0
M  V30 4104 O 385.54 -7.53831 2.79273 0
M  V30 4105 H 385.272 -0.668983 -0.0971452 0
M  V30 4106 H 387.826 -2.02198 0.361248 0
M  V30 4107 H 386.056 -3.44206 -1.76235 0
M  V30 4108 H 387.745 -3.77065 -1.50257 0
M  V30 4109 H 388.511 -4.78974 0.762133 0
M  V30 4110 H 384.39 -4.58824 -0.447411 0
M  V30 4111 H 387.934 -6.55355 2.39071 0
M  V30 4112 H 383.831 -6.34746 1.17338 0
M  V30 4113 H 384.599 -7.71428 2.73572 0
M  V30 4114 N 387.262 0.0317525 -1.57568 0
M  V30 4115 C 388.49 0.734949 -1.93407 0
M  V30 4116 C 388.905 1.69036 -0.84096 0
M  V30 4117 O 388.262 1.81582 0.182836 0
M  V30 4118 C 388.313 1.49432 -3.29169 0
M  V30 4119 O 388.034 0.577261 -4.3428 0
M  V30 4120 C 389.535 2.29492 -3.79273 0
M  V30 4121 H 386.755 0.206706 -0.638368 0
M  V30 4122 H 389.299 -0.00992046 -2.04498 0
M  V30 4123 H 387.454 2.1911 -3.19483 0
M  V30 4124 H 387.868 1.10952 -5.1263 0
M  V30 4125 H 389.342 2.78172 -4.76785 0
M  V30 4126 H 389.819 3.10794 -3.10328 0
M  V30 4127 H 390.425 1.64894 -3.92033 0
M  V30 4128 N 388.74 1.54641 0.303973 0
M  V30 4129 C 389.968 1.77768 1.05858 0
M  V30 4130 C 390.383 0.535722 1.8104 0
M  V30 4131 O 389.74 -0.494337 1.75677 0
M  V30 4132 C 389.791 2.9834 2.04146 0
M  V30 4133 O 389.512 4.17736 1.32015 0
M  V30 4134 C 391.013 3.33832 2.91669 0
M  V30 4135 H 388.233 0.592961 0.314067 0
M  V30 4136 H 390.777 2.01583 0.344149 0
M  V30 4137 H 388.932 2.76742 2.71096 0
M  V30 4138 H 389.346 4.85693 1.97998 0
M  V30 4139 H 390.82 4.21448 3.56491 0
M  V30 4140 H 391.297 2.51857 3.59812 0
M  V30 4141 H 391.903 3.57579 2.30254 0
M  V30 4142 N 390.218 -0.567019 1.47046 0
M  V30 4143 C 391.467 -1.32091 1.5243 0
M  V30 4144 C 391.78 -1.94704 0.187021 0
M  V30 4145 O 392.986 -2.7124 0.118771 0
M  V30 4146 C 391.442 -2.39479 2.68659 0
M  V30 4147 C 391.05 -1.831 4.08874 0
M  V30 4148 C 392.794 -3.16111 2.83327 0
M  V30 4149 C 390.701 -2.8821 5.16419 0
M  V30 4150 H 389.631 -0.496629 0.56734 0
M  V30 4151 H 392.282 -0.603354 1.73297 0
M  V30 4152 H 390.664 -3.14105 2.41152 0
M  V30 4153 H 391.838 -1.14913 4.46242 0
M  V30 4154 H 390.153 -1.19085 3.99008 0
M  V30 4155 H 392.75 -3.94585 3.60842 0
M  V30 4156 H 393.093 -3.69686 1.91411 0
M  V30 4157 H 393.626 -2.48595 3.10556 0
M  V30 4158 H 390.365 -2.39504 6.10179 0
M  V30 4159 H 389.885 -3.54839 4.8358 0
M  V30 4160 H 391.564 -3.51881 5.42945 0
M  V30 4161 N 391.696 -1.35014 -0.812953 0
M  V30 4162 C 392.921 -1.31187 -1.60639 0
M  V30 4163 C 393.346 0.109382 -1.87782 0
M  V30 4164 O 392.704 1.07424 -1.46047 0
M  V30 4165 C 392.752 -2.11809 -2.91838 0
M  V30 4166 O 391.856 -1.49444 -3.8437 0
M  V30 4167 H 391.197 -0.450084 -0.488181 0
M  V30 4168 H 393.727 -1.77963 -1.00947 0
M  V30 4169 H 393.737 -2.23531 -3.41318 0
M  V30 4170 H 392.412 -3.15137 -2.71407 0
M  V30 4171 H 390.989 -1.46524 -3.42907 0
M  V30 4172 N 393.175 1.03435 -1.18907 0
M  V30 4173 C 394.4 1.80919 -1.01406 0
M  V30 4174 C 394.825 1.83055 0.432721 0
M  V30 4175 O 394.183 1.25252 1.31079 0
M  V30 4176 C 394.231 3.24091 -1.58105 0
M  V30 4177 O 393.335 4.04434 -0.806669 0
M  V30 4178 H 392.676 0.558709 -0.358803 0
M  V30 4179 H 395.206 1.30223 -1.57807 0
M  V30 4180 H 395.216 3.74853 -1.61087 0
M  V30 4181 H 393.891 3.21851 -2.6341 0
M  V30 4182 H 392.468 3.63091 -0.849666 0
M  V30 4183 N 394.653 0.992116 1.22453 0
M  V30 4184 C 396.064 0.702776 1.72968 0
M  V30 4185 C 396.415 -0.780399 1.80012 0
M  V30 4186 O 395.54 -1.61007 1.44589 0
M  V30 4187 C 396.135 1.26903 3.14135 0
M  V30 4188 C 394.694 1.02909 3.62059 0
M  V30 4189 C 393.841 1.38969 2.39964 0
M  V30 4190 H 396.792 1.16457 1.07812 0
M  V30 4191 H 396.813 0.647223 3.74955 0
M  V30 4192 H 396.325 2.34851 3.08977 0
M  V30 4193 H 394.426 -0.0337979 3.72585 0
M  V30 4194 H 394.539 1.69191 4.48231 0
M  V30 4195 H 392.903 0.808279 2.41535 0
M  V30 4196 H 393.686 2.4792 2.37467 0
M  V30 4197 N 396.131 -1.37776 0.765217 0
M  V30 4198 C 397.061 -2.32945 0.160953 0
M  V30 4199 C 398.042 -1.55454 -0.690516 0
M  V30 4200 O 399.227 -1.83721 -0.629318 0
M  V30 4201 C 396.357 -3.39669 -0.724031 0
M  V30 4202 C 395.311 -4.27992 0.0256173 0
M  V30 4203 C 394.637 -5.25673 -0.978383 0
M  V30 4204 C 395.937 -5.08309 1.20082 0
M  V30 4205 H 397.631 -2.83728 0.955969 0
M  V30 4206 H 395.177 -1.36416 0.461149 0
M  V30 4207 H 397.13 -4.05219 -1.15652 0
M  V30 4208 H 395.854 -2.87396 -1.5515 0
M  V30 4209 H 394.513 -3.63964 0.438812 0
M  V30 4210 H 394.161 -4.69682 -1.80022 0
M  V30 4211 H 393.861 -5.85625 -0.481378 0
M  V30 4212 H 395.385 -5.94098 -1.40995 0
M  V30 4213 H 396.799 -5.67034 0.845307 0
M  V30 4214 H 395.196 -5.77554 1.62947 0
M  V30 4215 H 396.266 -4.41365 2.00811 0
M  V30 4216 N 397.609 -0.515225 -1.4894 0
M  V30 4217 C 398.541 0.292481 -2.27326 0
M  V30 4218 C 399.554 0.917838 -1.3446 0
M  V30 4219 O 400.743 0.798772 -1.5963 0
M  V30 4220 C 397.843 1.42803 -3.07344 0
M  V30 4221 C 397.016 0.907347 -4.27885 0
M  V30 4222 C 396.075 1.92222 -4.89834 0
M  V30 4223 O 395.101 1.48506 -5.49486 0
M  V30 4224 N 396.303 3.25355 -4.80754 0
M  V30 4225 H 399.068 -0.379721 -2.97285 0
M  V30 4226 H 396.629 -0.348638 -1.58102 0
M  V30 4227 H 398.621 2.10481 -3.45658 0
M  V30 4228 H 397.191 2.00414 -2.39902 0
M  V30 4229 H 396.411 0.0550218 -3.94162 0
M  V30 4230 H 397.699 0.538108 -5.05946 0
M  V30 4231 H 397.097 3.6355 -4.33414 0
M  V30 4232 H 395.654 3.88707 -5.23211 0
M  V30 4233 N 399.087 1.5561 -0.249682 0
M  V30 4234 C 400.312 2.03865 0.381305 0
M  V30 4235 C 400.737 1.12769 1.50548 0
M  V30 4236 O 400.095 0.121189 1.80895 0
M  V30 4237 C 400.143 3.50101 0.863816 0
M  V30 4238 O 399.247 3.62132 1.97318 0
M  V30 4239 H 398.588 0.658827 0.0827194 0
M  V30 4240 H 401.118 2.01105 -0.376552 0
M  V30 4241 H 401.128 3.90975 1.1663 0
M  V30 4242 H 399.803 4.1588 0.0411816 0
M  V30 4243 H 398.38 3.33155 1.67517 0
M  V30 4244 N 400.565 -0.0233959 1.57583 0
M  V30 4245 C 401.812 -0.713063 1.8953 0
M  V30 4246 C 402.14 -1.75056 0.847673 0
M  V30 4247 O 401.395 -1.95119 -0.150636 0
M  V30 4248 C 401.694 -1.41428 3.28227 0
M  V30 4249 C 401.36 -0.512222 4.47981 0
M  V30 4250 C 400.022 -0.263785 4.80476 0
M  V30 4251 C 402.374 0.110248 5.21083 0
M  V30 4252 C 399.702 0.615804 5.83459 0
M  V30 4253 C 402.054 0.977573 6.25001 0
M  V30 4254 C 400.718 1.23542 6.55968 0
M  V30 4255 H 399.988 -0.260928 0.69354 0
M  V30 4256 H 402.635 0.0271047 1.91481 0
M  V30 4257 H 400.94 -2.22791 3.22291 0
M  V30 4258 H 402.637 -1.95355 3.50196 0
M  V30 4259 H 399.227 -0.716013 4.22577 0
M  V30 4260 H 403.411 -0.0687137 4.96252 0
M  V30 4261 H 398.667 0.82382 6.05824 0
M  V30 4262 H 402.841 1.46638 6.80786 0
M  V30 4263 H 400.468 1.91871 7.35588 0
M  V30 4264 N 402.043 -1.548 -0.295768 0
M  V30 4265 C 402.976 -1.81003 -1.38972 0
M  V30 4266 C 403.954 -0.661544 -1.48534 0
M  V30 4267 O 405.138 -0.902074 -1.65514 0
M  V30 4268 C 402.265 -1.95141 -2.76835 0
M  V30 4269 C 401.311 -3.17592 -2.84671 0
M  V30 4270 S 402.144 -4.75531 -2.46232 0
M  V30 4271 C 403.3 -4.92613 -3.86114 0
M  V30 4272 H 403.533 -2.73507 -1.16537 0
M  V30 4273 H 401.066 -1.46278 -0.494168 0
M  V30 4274 H 403.024 -2.03972 -3.56238 0
M  V30 4275 H 401.685 -1.03565 -2.96535 0
M  V30 4276 H 400.878 -3.24303 -3.85803 0
M  V30 4277 H 400.48 -3.07235 -2.13267 0
M  V30 4278 H 402.772 -4.76957 -4.81164 0
M  V30 4279 H 403.715 -5.94698 -3.8437 0
M  V30 4280 H 404.123 -4.2073 -3.76359 0
M  V30 4281 N 403.521 0.559213 -1.47345 0
M  V30 4282 C 404.431 1.69388 -1.62311 0
M  V30 4283 C 405.447 1.6648 -0.505993 0
M  V30 4284 O 406.623 1.85964 -0.773262 0
M  V30 4285 C 403.688 3.05894 -1.63185 0
M  V30 4286 C 402.749 3.19885 -2.86307 0
M  V30 4287 C 401.982 4.49879 -2.87131 0
M  V30 4288 O 402.205 5.35217 -1.97229 0
M  V30 4289 O 401.139 4.67618 -3.78968 0
M  V30 4290 H 404.965 1.59706 -2.58317 0
M  V30 4291 H 402.55 0.728989 -1.30407 0
M  V30 4292 H 404.432 3.87133 -1.66451 0
M  V30 4293 H 403.107 3.15964 -0.70345 0
M  V30 4294 H 402.014 2.38052 -2.88587 0
M  V30 4295 H 403.347 3.14718 -3.78435 0
M  V30 4296 N 404.999 1.35443 0.805782 0
M  V30 4297 C 406.227 1.31878 1.59423 0
M  V30 4298 C 406.642 -0.103562 1.88516 0
M  V30 4299 O 405.999 -1.05575 1.48863 0
M  V30 4300 C 406.05 2.12426 2.92502 0
M  V30 4301 O 405.771 3.49115 2.6467 0
M  V30 4302 C 407.272 2.16455 3.86862 0
M  V30 4303 H 404.492 0.453002 0.495005 0
M  V30 4304 H 407.036 1.78309 1.00131 0
M  V30 4305 H 405.191 1.69593 3.48306 0
M  V30 4306 H 405.605 3.90957 3.49647 0
M  V30 4307 H 407.079 2.77204 4.77349 0
M  V30 4308 H 407.556 1.16352 4.23508 0
M  V30 4309 H 408.162 2.59453 3.36993 0
M  V30 4310 N 406.477 -1.02803 1.19454 0
M  V30 4311 C 407.409 -2.11181 0.890807 0
M  V30 4312 C 408.422 -1.6238 -0.116829 0
M  V30 4313 O 409.611 -1.78144 0.112694 0
M  V30 4314 C 406.711 -3.37461 0.311942 0
M  V30 4315 C 405.884 -4.15446 1.36834 0
M  V30 4316 C 404.943 -5.20039 0.802864 0
M  V30 4317 O 403.969 -5.49602 1.48077 0
M  V30 4318 N 405.171 -5.79165 -0.393417 0
M  V30 4319 H 407.936 -2.37827 1.82369 0
M  V30 4320 H 405.497 -1.19101 1.09666 0
M  V30 4321 H 407.489 -4.0462 -0.0802225 0
M  V30 4322 H 406.059 -3.08156 -0.52524 0
M  V30 4323 H 405.279 -3.43423 1.93531 0
M  V30 4324 H 406.567 -4.64335 2.08015 0
M  V30 4325 H 405.965 -5.57466 -0.961658 0
M  V30 4326 H 404.522 -6.47729 -0.727351 0
M  V30 4327 N 407.956 -0.998596 -1.21925 0
M  V30 4328 C 408.889 -0.498517 -2.22688 0
M  V30 4329 C 409.867 0.444301 -1.56412 0
M  V30 4330 O 411.051 0.368518 -1.84863 0
M  V30 4331 C 408.178 0.276639 -3.37568 0
M  V30 4332 C 407.224 -0.61302 -4.22071 0
M  V30 4333 S 408.057 -2.07168 -4.93803 0
M  V30 4334 C 409.213 -1.30617 -6.12119 0
M  V30 4335 H 409.446 -1.35234 -2.64762 0
M  V30 4336 H 406.979 -0.806018 -1.31692 0
M  V30 4337 H 408.937 0.717817 -4.04175 0
M  V30 4338 H 407.598 1.10581 -2.93991 0
M  V30 4339 H 406.791 -0.0162909 -5.03997 0
M  V30 4340 H 406.393 -0.991202 -3.60626 0
M  V30 4341 H 408.685 -0.57675 -6.75041 0
M  V30 4342 H 409.628 -2.10091 -6.76215 0
M  V30 4343 H 410.036 -0.816957 -5.58557 0
M  V30 4344 N 409.434 1.37368 -0.772513 0
M  V30 4345 C 410.711 1.93839 -0.26188 0
M  V30 4346 C 411.091 1.7061 1.24319 0
M  V30 4347 O 410.439 1.05534 2.02669 0
M  V30 4348 C 410.649 3.43154 -0.636102 0
M  V30 4349 C 411.997 4.20249 -0.606324 0
M  V30 4350 O 413.021 3.5152 -0.575538 0
M  V30 4351 O 411.88 5.42809 -0.634086 0
M  V30 4352 H 408.974 0.82478 -0.0605555 0
M  V30 4353 H 411.52 1.4665 -0.853917 0
M  V30 4354 H 410.292 3.53647 -1.6748 0
M  V30 4355 H 409.915 3.97596 -0.0170516 0
M  V30 4356 N 410.912 0.523116 1.48665 0
M  V30 4357 C 411.875 -0.232592 2.28017 0
M  V30 4358 C 412.875 -0.874021 1.34972 0
M  V30 4359 O 414.065 -0.735132 1.57929 0
M  V30 4360 C 411.197 -1.33586 3.13636 0
M  V30 4361 H 412.39 0.464008 2.96289 0
M  V30 4362 H 409.943 0.278816 1.53793 0
M  V30 4363 H 410.678 -2.06593 2.4998 0
M  V30 4364 H 410.463 -0.881125 3.82071 0
M  V30 4365 H 411.953 -1.86759 3.73511 0
M  V30 4366 N 412.39 -1.55475 0.257931 0
M  V30 4367 C 413.637 -1.99207 -0.363728 0
M  V30 4368 C 413.965 -1.1462 -1.57139 0
M  V30 4369 O 413.22 -0.199653 -1.94679 0
M  V30 4370 C 413.519 -3.48183 -0.806433 0
M  V30 4371 C 413.185 -4.49936 0.294684 0
M  V30 4372 C 411.847 -4.77481 0.597076 0
M  V30 4373 C 414.199 -5.10769 1.03751 0
M  V30 4374 C 411.527 -5.63132 1.64618 0
M  V30 4375 C 413.879 -5.97558 2.07622 0
M  V30 4376 C 412.543 -6.23432 2.38514 0
M  V30 4377 H 411.813 -0.728949 -0.133097 0
M  V30 4378 H 414.46 -1.8793 0.368059 0
M  V30 4379 H 412.765 -3.56848 -1.61761 0
M  V30 4380 H 414.462 -3.79415 -1.29789 0
M  V30 4381 H 411.052 -4.28572 0.0488649 0
M  V30 4382 H 415.236 -4.89527 0.817149 0
M  V30 4383 H 410.492 -5.8143 1.89074 0
M  V30 4384 H 414.666 -6.43735 2.65666 0
M  V30 4385 H 412.293 -6.89594 3.19943 0
M  V30 4386 N 413.868 0.0150385 -1.57593 0
M  V30 4387 C 414.8 1.03912 -2.04291 0
M  V30 4388 C 415.813 1.31618 -0.958146 0
M  V30 4389 O 417.002 1.28859 -1.23522 0
M  V30 4390 C 414.102 2.37749 -2.41514 0
M  V30 4391 C 413.275 2.29198 -3.72541 0
M  V30 4392 C 412.334 3.45598 -3.96797 0
M  V30 4393 O 411.36 3.24461 -4.67668 0
M  V30 4394 N 412.562 4.67945 -3.43523 0
M  V30 4395 H 415.327 0.64099 -2.92765 0
M  V30 4396 H 412.888 0.20272 -1.60626 0
M  V30 4397 H 414.88 3.14364 -2.54867 0
M  V30 4398 H 413.45 2.69357 -1.58637 0
M  V30 4399 H 412.67 1.3759 -3.69408 0
M  V30 4400 H 413.958 2.20642 -4.5847 0
M  V30 4401 H 413.356 4.88017 -2.86104 0
M  V30 4402 H 411.913 5.41878 -3.62232 0
M  V30 4403 N 415.346 1.54954 0.287554 0
M  V30 4404 C 416.256 1.8991 1.37736 0
M  V30 4405 C 417.272 0.794701 1.54792 0
M  V30 4406 O 418.448 1.09243 1.69198 0
M  V30 4407 C 415.513 2.15108 2.71899 0
M  V30 4408 C 414.574 3.38752 2.63715 0
M  V30 4409 C 413.807 3.62739 3.91479 0
M  V30 4410 O 414.03 2.89492 4.91478 0
M  V30 4411 O 412.964 4.56267 3.92561 0
M  V30 4412 H 416.79 2.82652 1.11092 0
M  V30 4413 H 414.375 1.41315 0.484807 0
M  V30 4414 H 416.257 2.32806 3.51254 0
M  V30 4415 H 414.932 1.25551 2.9836 0
M  V30 4416 H 413.839 3.26405 1.82786 0
M  V30 4417 H 415.172 4.28483 2.42205 0
M  V30 4418 N 416.824 -0.551391 1.4764 0
M  V30 4419 C 417.771 -1.65796 1.60563 0
M  V30 4420 C 418.741 -1.59932 0.448428 0
M  V30 4421 O 419.926 -1.78679 0.669222 0
M  V30 4422 C 417.066 -3.04108 1.63133 0
M  V30 4423 C 416.179 -3.20365 2.89811 0
M  V30 4424 C 415.314 -4.49109 2.8368 0
M  V30 4425 C 414.353 -4.58819 4.05156 0
M  V30 4426 N 413.49 -5.78926 3.97227 0
M  V30 4427 H 418.33 -1.54088 2.5507 0
M  V30 4428 H 415.867 -0.75052 1.26513 0
M  V30 4429 H 417.825 -3.84207 1.62606 0
M  V30 4430 H 416.455 -3.14637 0.721341 0
M  V30 4431 H 415.507 -2.33659 3.00179 0
M  V30 4432 H 416.819 -3.23402 3.79753 0
M  V30 4433 H 415.973 -5.37475 2.81434 0
M  V30 4434 H 414.712 -4.4856 1.91431 0
M  V30 4435 H 413.717 -3.68864 4.077 0
M  V30 4436 H 414.942 -4.61124 4.98539 0
M  V30 4437 H 412.888 -5.79314 3.07785 0
M  V30 4438 H 412.805 -5.83367 4.80853 0
M  V30 4439 H 414.073 -6.69637 3.99007 0
M  V30 4440 N 418.302 -1.35869 -0.798587 0
M  V30 4441 C 419.548 -1.2978 -1.55836 0
M  V30 4442 C 419.881 0.125322 -1.93795 0
M  V30 4443 O 419.156 1.07658 -1.61987 0
M  V30 4444 C 419.439 -2.21188 -2.84162 0
M  V30 4445 C 419.292 -3.72155 -2.52628 0
M  V30 4446 C 420.611 -2.11545 -3.85923 0
M  V30 4447 H 417.73 -0.472769 -0.565383 0
M  V30 4448 H 420.372 -1.66341 -0.918192 0
M  V30 4449 H 418.522 -1.90139 -3.38791 0
M  V30 4450 H 420.194 -4.13682 -2.04121 0
M  V30 4451 H 418.437 -3.92042 -1.85704 0
M  V30 4452 H 419.108 -4.31511 -3.44242 0
M  V30 4453 H 421.584 -2.38855 -3.40716 0
M  V30 4454 H 420.46 -2.77688 -4.73477 0
M  V30 4455 H 420.721 -1.09987 -4.282 0
M  V30 4456 N 419.78 1.02168 -1.19998 0
M  V30 4457 C 420.727 2.10601 -0.944228 0
M  V30 4458 C 421.697 1.65639 0.123664 0
M  V30 4459 O 422.882 1.9079 -0.0199941 0
M  V30 4460 C 420.022 3.41504 -0.496865 0
M  V30 4461 C 419.135 3.99973 -1.63234 0
M  V30 4462 C 418.27 5.18915 -1.13579 0
M  V30 4463 C 417.309 5.69456 -2.24468 0
M  V30 4464 N 416.446 6.79665 -1.76068 0
M  V30 4465 H 421.286 2.31814 -1.8726 0
M  V30 4466 H 418.823 1.13686 -0.933483 0
M  V30 4467 H 420.781 4.16626 -0.218843 0
M  V30 4468 H 419.411 3.2038 0.394508 0
M  V30 4469 H 418.463 3.21997 -2.0254 0
M  V30 4470 H 419.775 4.33492 -2.46752 0
M  V30 4471 H 418.929 6.01222 -0.813429 0
M  V30 4472 H 417.668 4.8695 -0.270434 0
M  V30 4473 H 416.673 4.85757 -2.57526 0
M  V30 4474 H 417.898 6.03459 -3.11472 0
M  V30 4475 H 415.844 6.49538 -0.918516 0
M  V30 4476 H 415.761 7.12349 -2.5317 0
M  V30 4477 H 417.029 7.65549 -1.46817 0
M  V30 4478 N 421.258 1.00505 1.21394 0
M  V30 4479 C 422.506 0.686415 1.90086 0
M  V30 4480 C 422.827 -0.785264 1.7849 0
M  V30 4481 O 422.097 -1.56387 1.17983 0
M  V30 4482 H 420.677 0.2509 0.703604 0
M  V30 4483 H 423.339 1.27417 1.47482 0
M  V30 4484 H 422.435 0.959621 2.96981 0
M  V30 4485 N 422.737 -1.36956 0.779787 0
M  V30 4486 C 423.684 -2.30175 0.169697 0
M  V30 4487 C 424.654 -1.51501 -0.68094 0
M  V30 4488 O 425.839 -1.80042 -0.631629 0
M  V30 4489 C 422.979 -3.37985 -0.697131 0
M  V30 4490 C 422.092 -4.31661 0.170992 0
M  V30 4491 C 421.227 -5.2655 -0.701298 0
M  V30 4492 C 420.266 -6.11867 0.168869 0
M  V30 4493 N 419.403 -6.98973 -0.661855 0
M  V30 4494 H 424.243 -2.81767 0.970135 0
M  V30 4495 H 421.78 -1.38699 0.489994 0
M  V30 4496 H 423.738 -3.99128 -1.2146 0
M  V30 4497 H 422.368 -2.87739 -1.46309 0
M  V30 4498 H 421.42 -3.71756 0.80634 0
M  V30 4499 H 422.732 -4.91644 0.841875 0
M  V30 4500 H 421.886 -5.92937 -1.28494 0
M  V30 4501 H 420.625 -4.66998 -1.40584 0
M  V30 4502 H 419.63 -5.44452 0.764986 0
M  V30 4503 H 420.855 -6.73493 0.870863 0
M  V30 4504 H 418.801 -6.41941 -1.35086 0
M  V30 4505 H 418.718 -7.55984 -0.0484447 0
M  V30 4506 H 419.986 -7.6974 -1.22963 0
M  V30 4507 N 424.215 -0.530993 -1.48385 0
M  V30 4508 C 425.445 -0.00133928 -2.066 0
M  V30 4509 C 425.853 1.28599 -1.38777 0
M  V30 4510 O 425.196 1.77599 -0.469495 0
M  V30 4511 C 425.258 0.292137 -3.58311 0
M  V30 4512 C 424.922 -0.901864 -4.48013 0
M  V30 4513 C 425.919 -1.80053 -4.87726 0
M  V30 4514 C 423.604 -1.10915 -4.89901 0
M  V30 4515 C 425.598 -2.89038 -5.68098 0
M  V30 4516 C 423.285 -2.20213 -5.70043 0
M  V30 4517 C 424.283 -3.09107 -6.0905 0
M  V30 4518 O 423.971 -4.16514 -6.87583 0
M  V30 4519 H 423.703 -0.0308475 -0.675296 0
M  V30 4520 H 426.257 -0.736335 -1.91748 0
M  V30 4521 H 424.487 1.08112 -3.7128 0
M  V30 4522 H 426.176 0.763994 -3.98645 0
M  V30 4523 H 426.942 -1.65234 -4.55986 0
M  V30 4524 H 422.821 -0.426498 -4.59023 0
M  V30 4525 H 426.365 -3.58451 -5.98464 0
M  V30 4526 H 422.262 -2.35016 -6.01197 0
M  V30 4527 H 423.03 -4.14237 -7.05939 0
M  V30 4528 N 425.693 1.55336 -0.266172 0
M  V30 4529 C 426.626 2.18256 0.666296 0
M  V30 4530 C 427.604 1.14064 1.1588 0
M  V30 4531 O 428.788 1.42546 1.23341 0
M  V30 4532 C 425.915 2.79867 1.90768 0
M  V30 4533 C 424.961 3.97283 1.55141 0
M  V30 4534 S 425.794 5.31694 0.637313 0
M  V30 4535 C 426.95 5.96769 1.88727 0
M  V30 4536 H 427.183 2.97008 0.131647 0
M  V30 4537 H 424.716 1.54317 -0.0504869 0
M  V30 4538 H 426.674 3.15996 2.62025 0
M  V30 4539 H 425.335 2.01025 2.41346 0
M  V30 4540 H 424.528 4.3905 2.4749 0
M  V30 4541 H 424.13 3.6253 0.919113 0
M  V30 4542 H 426.422 6.15458 2.83227 0
M  V30 4543 H 427.365 6.91752 1.51276 0
M  V30 4544 H 427.773 5.26034 2.04814 0
M  V30 4545 N 427.171 -0.0066808 1.57599 0
M  V30 4546 C 428.399 -0.704087 1.94551 0
M  V30 4547 C 428.814 -1.67677 0.867746 0
M  V30 4548 O 428.171 -1.8185 -0.153925 0
M  V30 4549 C 428.222 -1.44177 3.31505 0
M  V30 4550 O 427.943 -0.508097 4.35144 0
M  V30 4551 C 429.444 -2.23429 3.82876 0
M  V30 4552 H 426.664 -0.196523 0.641576 0
M  V30 4553 H 429.208 0.042453 2.04456 0
M  V30 4554 H 427.363 -2.13999 3.22929 0
M  V30 4555 H 427.777 -1.02782 5.14331 0
M  V30 4556 H 429.251 -2.70552 4.8115 0
M  V30 4557 H 429.728 -3.05818 3.15233 0
M  V30 4558 H 430.334 -1.58636 3.94607 0
M  V30 4559 N 428.649 -1.55105 -0.279332 0
M  V30 4560 C 429.612 -1.86783 -1.32834 0
M  V30 4561 C 430.612 -0.74199 -1.42657 0
M  V30 4562 O 431.802 -1.0102 -1.41918 0
M  V30 4563 C 428.934 -2.06746 -2.71052 0
M  V30 4564 H 430.127 -2.8055 -1.05979 0
M  V30 4565 H 427.68 -1.47499 -0.517087 0
M  V30 4566 H 428.415 -1.15339 -3.03097 0
M  V30 4567 H 428.2 -2.88711 -2.65309 0
M  V30 4568 H 429.69 -2.32549 -3.46858 0
M  V30 4569 N 430.127 0.543554 -1.4793 0
M  V30 4570 C 431.355 1.32516 -1.58894 0
M  V30 4571 C 431.77 1.87215 -0.244131 0
M  V30 4572 O 431.127 1.65709 0.764652 0
M  V30 4573 C 431.178 2.48554 -2.62494 0
M  V30 4574 O 430.899 1.96112 -3.91755 0
M  V30 4575 C 432.4 3.40572 -2.8377 0
M  V30 4576 H 429.62 0.403472 -0.536145 0
M  V30 4577 H 432.164 0.657106 -1.93655 0
M  V30 4578 H 430.319 3.1127 -2.30629 0
M  V30 4579 H 430.733 2.71967 -4.4848 0
M  V30 4580 H 432.207 4.18375 -3.60093 0
M  V30 4581 H 432.684 3.94965 -1.92092 0
M  V30 4582 H 433.29 2.8366 -3.16887 0
M  V30 4583 N 431.605 1.3629 0.791371 0
M  V30 4584 C 432.535 1.33137 1.91825 0
M  V30 4585 C 433.516 0.203168 1.68882 0
M  V30 4586 O 434.701 0.400509 1.90025 0
M  V30 4587 C 431.831 1.11793 3.28816 0
M  V30 4588 C 430.785 2.21417 3.66277 0
M  V30 4589 C 430.111 1.85218 5.01596 0
M  V30 4590 C 431.411 3.63489 3.75064 0
M  V30 4591 H 433.105 2.2743 1.9472 0
M  V30 4592 H 430.651 1.09479 0.935437 0
M  V30 4593 H 432.604 1.08222 4.07266 0
M  V30 4594 H 431.328 0.139501 3.26302 0
M  V30 4595 H 429.987 2.2411 2.90121 0
M  V30 4596 H 429.635 0.859544 4.95602 0
M  V30 4597 H 429.335 2.58611 5.27631 0
M  V30 4598 H 430.859 1.832 5.82469 0
M  V30 4599 H 432.273 3.63034 4.43711 0
M  V30 4600 H 430.67 4.35771 4.12582 0
M  V30 4601 H 431.74 3.98536 2.76219 0
M  V30 4602 N 433.083 -1.0153 1.20538 0
M  V30 4603 C 434.329 -1.75408 1.01783 0
M  V30 4604 C 434.662 -1.88943 -0.448814 0
M  V30 4605 O 433.937 -1.4162 -1.33319 0
M  V30 4606 C 434.22 -3.17255 1.70356 0
M  V30 4607 C 434.073 -3.11508 3.24473 0
M  V30 4608 C 435.392 -4.15955 1.43769 0
M  V30 4609 H 432.511 -0.636713 0.371167 0
M  V30 4610 H 435.153 -1.18436 1.4857 0
M  V30 4611 H 433.303 -3.65898 1.30578 0
M  V30 4612 H 434.975 -2.70658 3.73553 0
M  V30 4613 H 433.218 -2.4887 3.55311 0
M  V30 4614 H 433.889 -4.11784 3.67611 0
M  V30 4615 H 436.365 -3.75973 1.7828 0
M  V30 4616 H 435.241 -5.13368 1.94279 0
M  V30 4617 H 435.502 -4.40586 0.365564 0
M  V30 4618 N 434.561 -1.01147 -1.20859 0
M  V30 4619 C 435.786 -0.716698 -1.94623 0
M  V30 4620 C 436.211 0.715415 -1.73964 0
M  V30 4621 O 435.569 1.49157 -1.03062 0
M  V30 4622 C 435.617 -1.0513 -3.44935 0
M  V30 4623 O 434.721 -0.160131 -4.12089 0
M  V30 4624 H 434.062 -0.266404 -0.608214 0
M  V30 4625 H 436.592 -1.35346 -1.53436 0
M  V30 4626 H 436.602 -1.00086 -3.95533 0
M  V30 4627 H 435.277 -2.09475 -3.59295 0
M  V30 4628 H 433.854 -0.267657 -3.71938 0
M  V30 4629 N 436.039 1.36541 -0.78704 0
M  V30 4630 C 437.002 2.28413 -0.189778 0
M  V30 4631 C 438.002 1.48719 0.611499 0
M  V30 4632 O 439.192 1.68737 0.432842 0
M  V30 4633 C 436.324 3.32824 0.737638 0
M  V30 4634 H 437.517 2.82743 -0.999831 0
M  V30 4635 H 435.07 1.46065 -0.556298 0
M  V30 4636 H 435.805 2.83646 1.57212 0
M  V30 4637 H 435.59 3.91752 0.165044 0
M  V30 4638 H 437.08 4.0144 1.15047 0
M  V30 4639 N 437.518 0.538854 1.48102 0
M  V30 4640 C 438.465 -0.219042 2.29758 0
M  V30 4641 C 439.435 -0.925562 1.37922 0
M  V30 4642 O 440.62 -0.924855 1.66886 0
M  V30 4643 C 437.76 -1.25452 3.2149 0
M  V30 4644 C 436.873 -0.555943 4.28408 0
M  V30 4645 C 436.008 -1.57512 5.0731 0
M  V30 4646 C 435.047 -0.860498 6.06021 0
M  V30 4647 N 434.184 -1.82564 6.77949 0
M  V30 4648 H 439.024 0.483449 2.94052 0
M  V30 4649 H 436.561 0.250247 1.44956 0
M  V30 4650 H 438.519 -1.86727 3.7308 0
M  V30 4651 H 437.149 -1.92528 2.591 0
M  V30 4652 H 436.201 0.170938 3.80016 0
M  V30 4653 H 437.513 0.00474616 4.988 0
M  V30 4654 H 436.667 -2.26191 5.62959 0
M  V30 4655 H 435.406 -2.16972 4.36778 0
M  V30 4656 H 434.411 -0.159686 5.49568 0
M  V30 4657 H 435.636 -0.271897 6.78555 0
M  V30 4658 H 433.582 -2.40915 6.10161 0
M  V30 4659 H 433.499 -1.31662 7.44447 0
M  V30 4660 H 434.767 -2.50414 7.38182 0
M  V30 4661 N 438.996 -1.55193 0.274407 0
M  V30 4662 C 440.224 -2.03987 -0.345943 0
M  V30 4663 C 440.639 -1.15279 -1.4952 0
M  V30 4664 O 439.996 -0.172759 -1.8168 0
M  V30 4665 C 440.047 -3.51898 -0.827631 0
M  V30 4666 O 439.768 -4.37231 0.275855 0
M  V30 4667 C 441.269 -4.16577 -1.51587 0
M  V30 4668 H 438.489 -0.666335 -0.0789892 0
M  V30 4669 H 441.033 -2.00423 0.406294 0
M  V30 4670 H 439.188 -3.55909 -1.52996 0
M  V30 4671 H 439.602 -5.24415 -0.0943638 0
M  V30 4672 H 441.076 -5.21678 -1.80433 0
M  V30 4673 H 441.553 -3.64707 -2.44716 0
M  V30 4674 H 442.159 -4.16568 -0.857409 0
M  V30 4675 N 440.474 -0.00167713 -1.576 0
M  V30 4676 C 441.722 0.681471 -1.90264 0
M  V30 4677 C 442.043 1.7422 -0.875924 0
M  V30 4678 O 441.313 1.95709 0.0864412 0
M  V30 4679 H 439.893 0.254696 -0.702239 0
M  V30 4680 H 442.555 -0.0429996 -1.94853 0
M  V30 4681 H 441.651 1.15166 -2.90075 0
M  V30 4682 N 441.952 1.55251 0.271103 0
M  V30 4683 C 442.862 1.9136 1.35714 0
M  V30 4684 C 443.878 0.811075 1.5394 0
M  V30 4685 O 445.054 1.11031 1.6803 0
M  V30 4686 C 442.119 2.1798 2.69603 0
M  V30 4687 C 441.18 3.4153 2.60107 0
M  V30 4688 C 440.413 3.66871 3.8761 0
M  V30 4689 O 440.636 2.94689 4.8838 0
M  V30 4690 O 439.57 4.60405 3.87699 0
M  V30 4691 H 443.396 2.83815 1.08088 0
M  V30 4692 H 440.981 1.41821 0.469792 0
M  V30 4693 H 442.863 2.36518 3.48765 0
M  V30 4694 H 441.538 1.28708 2.97012 0
M  V30 4695 H 440.445 3.28325 1.79314 0
M  V30 4696 H 441.778 4.31027 2.37647 0
M  V30 4697 N 443.43 -0.535701 1.48216 0
M  V30 4698 C 444.679 -1.28828 1.55197 0
M  V30 4699 C 444.992 -1.94263 0.228278 0
M  V30 4700 O 446.198 -2.70927 0.176278 0
M  V30 4701 C 444.654 -2.33727 2.73678 0
M  V30 4702 C 444.262 -1.74386 4.12666 0
M  V30 4703 C 446.006 -3.1003 2.89968 0
M  V30 4704 C 443.913 -2.77192 5.22416 0
M  V30 4705 H 442.843 -0.484484 0.577747 0
M  V30 4706 H 445.494 -0.56646 1.74538 0
M  V30 4707 H 443.876 -3.08919 2.4776 0
M  V30 4708 H 445.05 -1.05421 4.48579 0
M  V30 4709 H 443.365 -1.10595 4.01445 0
M  V30 4710 H 445.962 -3.86842 3.6913 0
M  V30 4711 H 446.305 -3.65542 1.9921 0
M  V30 4712 H 446.838 -2.41952 3.15759 0
M  V30 4713 H 443.577 -2.26507 6.15122 0
M  V30 4714 H 443.097 -3.44502 4.90998 0
M  V30 4715 H 444.776 -3.40285 5.50286 0
M  V30 4716 N 444.908 -1.36708 -0.784132 0
M  V30 4717 C 445.838 -1.34153 -1.91116 0
M  V30 4718 C 446.819 -0.212121 -1.68772 0
M  V30 4719 O 448.004 -0.410581 -1.8981 0
M  V30 4720 C 445.134 -1.13535 -3.28218 0
M  V30 4721 C 444.088 -2.23356 -3.65097 0
M  V30 4722 C 443.414 -1.87875 -5.00607 0
M  V30 4723 C 444.714 -3.65473 -3.73131 0
M  V30 4724 H 446.408 -2.28459 -1.93512 0
M  V30 4725 H 443.954 -1.09973 -0.929618 0
M  V30 4726 H 445.907 -1.10381 -4.06687 0
M  V30 4727 H 444.631 -0.156804 -3.26223 0
M  V30 4728 H 443.29 -2.25645 -2.88929 0
M  V30 4729 H 442.938 -0.885814 -4.95139 0
M  V30 4730 H 442.638 -2.61406 -5.26252 0
M  V30 4731 H 444.162 -1.86286 -5.81489 0
M  V30 4732 H 445.576 -3.65382 -4.41779 0
M  V30 4733 H 443.973 -4.37953 -4.10265 0
M  V30 4734 H 445.043 -3.99995 -2.74102 0
M  V30 4735 N 446.386 1.0089 -1.21074 0
M  V30 4736 C 447.349 2.0775 -0.968129 0
M  V30 4737 C 448.349 1.6069 0.0593445 0
M  V30 4738 O 449.539 1.73293 -0.177525 0
M  V30 4739 C 446.671 3.37794 -0.459108 0
M  V30 4740 H 447.864 2.30707 -1.9161 0
M  V30 4741 H 445.417 1.17807 -1.02719 0
M  V30 4742 H 446.152 3.20516 0.49397 0
M  V30 4743 H 445.937 3.7328 -1.20019 0
M  V30 4744 H 447.427 4.16454 -0.309099 0
M  V30 4745 N 447.864 1.01787 1.20321 0
M  V30 4746 C 449.092 0.727194 1.937 0
M  V30 4747 C 449.507 -0.712305 1.74848 0
M  V30 4748 O 448.864 -1.48327 1.06327 0
M  V30 4749 C 448.915 1.05497 3.45764 0
M  V30 4750 O 448.636 2.43794 3.64 0
M  V30 4751 C 450.137 0.785534 4.36285 0
M  V30 4752 H 447.357 0.266939 0.615617 0
M  V30 4753 H 449.901 1.35939 1.52777 0
M  V30 4754 H 448.056 0.468158 3.84561 0
M  V30 4755 H 448.47 2.55656 4.57974 0
M  V30 4756 H 449.944 1.06495 5.4163 0
M  V30 4757 H 450.421 -0.280273 4.38305 0
M  V30 4758 H 451.027 1.35456 4.03152 0
M  V30 4759 N 449.342 -1.36122 0.79427 0
M  V30 4760 C 450.57 -2.03362 0.380989 0
M  V30 4761 C 450.985 -1.59881 -1.00416 0
M  V30 4762 O 450.342 -0.790515 -1.6449 0
M  V30 4763 C 450.393 -3.58804 0.440649 0
M  V30 4764 O 450.114 -4.007 1.77118 0
M  V30 4765 C 451.615 -4.43296 0.0186117 0
M  V30 4766 H 448.835 -0.652526 0.156367 0
M  V30 4767 H 451.379 -1.73998 1.07447 0
M  V30 4768 H 449.534 -3.8686 -0.204458 0
M  V30 4769 H 449.948 -4.95309 1.72538 0
M  V30 4770 H 451.422 -5.51887 0.111488 0
M  V30 4771 H 451.899 -4.2684 -1.03461 0
M  V30 4772 H 452.505 -4.20512 0.636395 0
M  V30 4773 N 450.82 -0.546701 -1.47814 0
M  V30 4774 C 451.752 0.244196 -2.27895 0
M  V30 4775 C 452.765 0.88911 -1.36377 0
M  V30 4776 O 453.954 0.764733 -1.61289 0
M  V30 4777 C 451.054 1.36252 -3.10304 0
M  V30 4778 C 450.227 0.816382 -4.29714 0
M  V30 4779 C 449.286 1.81789 -4.93801 0
M  V30 4780 O 448.312 1.36818 -5.52512 0
M  V30 4781 N 449.514 3.15085 -4.87547 0
M  V30 4782 H 452.279 -0.442694 -2.96412 0
M  V30 4783 H 449.84 -0.382095 -1.57327 0
M  V30 4784 H 451.832 2.03102 -3.50045 0
M  V30 4785 H 450.402 1.95281 -2.44099 0
M  V30 4786 H 449.622 -0.0285981 -3.9419 0
M  V30 4787 H 450.91 0.430668 -5.06974 0
M  V30 4788 H 450.308 3.54275 -4.41028 0
M  V30 4789 H 448.865 3.77522 -5.31339 0
M  V30 4790 N 452.299 1.55045 -0.282633 0
M  V30 4791 C 453.715 1.59441 0.0712997 0
M  V30 4792 C 453.915 1.2998 1.53972 0
M  V30 4793 O 452.971 1.06431 2.28973 0
M  V30 4794 C 454.284 2.99097 -0.310104 0
M  V30 4795 C 455.832 3.1194 -0.257343 0
M  V30 4796 C 456.307 4.53875 -0.613297 0
M  V30 4797 N 457.798 4.5974 -0.565134 0
M  V30 4798 C 458.533 5.67603 -0.81326 0
M  V30 4799 N 458.029 6.83582 -1.1264 0
M  V30 4800 N 459.822 5.57187 -0.741553 0
M  V30 4801 H 451.973 1.72458 -1.23984 0
M  V30 4802 H 454.236 0.804549 -0.501403 0
M  V30 4803 H 453.942 3.25516 -1.33163 0
M  V30 4804 H 453.816 3.75616 0.345366 0
M  V30 4805 H 456.203 2.85281 0.754905 0
M  V30 4806 H 456.284 2.37618 -0.947178 0
M  V30 4807 H 455.928 4.81261 -1.62327 0
M  V30 4808 H 455.858 5.26508 0.09841 0
M  V30 4809 H 458.349 3.76427 -0.333294 0
M  V30 4810 H 458.662 7.6175 -1.30219 0
M  V30 4811 H 457.007 6.85179 -1.16425 0
M  V30 4812 H 460.198 4.65457 -0.496705 0
M  V30 4813 H 460.371 6.41171 -0.938306 0
M  V30 4814 N 453.777 0.010035 1.57597 0
M  V30 4815 C 455.188 -0.531426 1.78977 0
M  V30 4816 C 455.539 -1.73375 0.918454 0
M  V30 4817 O 454.664 -2.16047 0.123635 0
M  V30 4818 C 455.259 -0.97086 3.24592 0
M  V30 4819 C 453.818 -1.45756 3.47033 0
M  V30 4820 C 452.965 -0.413384 2.74201 0
M  V30 4821 H 455.916 0.236166 1.56933 0
M  V30 4822 H 455.937 -1.83633 3.33255 0
M  V30 4823 H 455.449 -0.0955893 3.87982 0
M  V30 4824 H 453.55 -2.35339 2.88871 0
M  V30 4825 H 453.663 -1.4781 4.55729 0
M  V30 4826 H 452.027 -0.877266 2.39115 0
M  V30 4827 H 452.81 0.453092 3.40297 0
M  V30 4828 N 455.255 -1.55392 -0.262866 0
M  V30 4829 C 456.483 -1.80513 -1.01108 0
M  V30 4830 C 456.898 -0.583533 -1.79556 0
M  V30 4831 O 456.255 0.447585 -1.76926 0
M  V30 4832 C 456.306 -3.03648 -1.96164 0
M  V30 4833 O 456.027 -4.2109 -1.20893 0
M  V30 4834 C 457.528 -3.41448 -2.82715 0
M  V30 4835 H 454.748 -0.601079 -0.298236 0
M  V30 4836 H 457.292 -2.02425 -0.290582 0
M  V30 4837 H 455.447 -2.83832 -2.63663 0
M  V30 4838 H 455.861 -4.90771 -1.85051 0
M  V30 4839 H 457.335 -4.30751 -3.45192 0
M  V30 4840 H 457.812 -2.61308 -3.53008 0
M  V30 4841 H 458.418 -3.63559 -2.20693 0
M  V30 4842 N 456.733 0.527833 -1.48498 0
M  V30 4843 C 457.98 1.28354 -1.56625 0
M  V30 4844 C 458.308 1.93 -0.241096 0
M  V30 4845 O 457.563 1.79967 0.768798 0
M  V30 4846 C 457.862 2.39275 -2.65485 0
M  V30 4847 C 457.528 1.92268 -4.07853 0
M  V30 4848 C 456.19 1.79166 -4.46602 0
M  V30 4849 C 458.542 1.56771 -4.97064 0
M  V30 4850 C 455.87 1.28905 -5.72364 0
M  V30 4851 C 458.222 1.07972 -6.23318 0
M  V30 4852 C 456.886 0.934887 -6.60921 0
M  V30 4853 H 456.156 0.469682 -0.573131 0
M  V30 4854 H 458.803 0.588781 -1.82224 0
M  V30 4855 H 457.108 3.1443 -2.33754 0
M  V30 4856 H 458.805 2.974 -2.68988 0
M  V30 4857 H 455.395 2.03417 -3.77252 0
M  V30 4858 H 459.579 1.65753 -4.67803 0
M  V30 4859 H 454.835 1.16381 -6.00221 0
M  V30 4860 H 459.009 0.795775 -6.91838 0
M  V30 4861 H 456.636 0.543231 -7.58257 0
M  V30 4862 N 458.211 1.37122 0.776871 0
M  V30 4863 C 459.488 1.22586 1.52421 0
M  V30 4864 C 459.868 -0.182726 2.10308 0
M  V30 4865 O 459.216 -1.18979 1.9508 0
M  V30 4866 C 459.426 2.31782 2.60918 0
M  V30 4867 C 460.774 2.69071 3.2846 0
M  V30 4868 O 461.798 2.3092 2.71209 0
M  V30 4869 O 460.657 3.3478 4.31954 0
M  V30 4870 H 457.751 0.478045 0.674835 0
M  V30 4871 H 460.297 1.48888 0.814275 0
M  V30 4872 H 459.069 3.26131 2.16227 0
M  V30 4873 H 458.692 2.06916 3.39517 0
M  V30 4874 N 459.689 -1.00246 1.21608 0
M  V30 4875 C 460.652 -2.07233 0.979133 0
M  V30 4876 C 461.652 -1.6072 -0.0508219 0
M  V30 4877 O 462.842 -1.73196 0.186712 0
M  V30 4878 C 459.974 -3.37546 0.477016 0
M  V30 4879 H 461.167 -2.29687 1.92831 0
M  V30 4880 H 458.72 -1.17261 1.03342 0
M  V30 4881 H 459.455 -3.20773 -0.476966 0
M  V30 4882 H 459.24 -3.72638 1.21997 0
M  V30 4883 H 460.73 -4.16285 0.331181 0
M  V30 4884 N 461.167 -1.02423 -1.1978 0
M  V30 4885 C 462.444 -0.632802 -1.85081 0
M  V30 4886 C 462.824 0.888745 -1.9148 0
M  V30 4887 O 462.172 1.78357 -1.42832 0
M  V30 4888 C 462.382 -1.28947 -3.24305 0
M  V30 4889 C 463.73 -1.40976 -4.00513 0
M  V30 4890 O 464.754 -1.24628 -3.33686 0
M  V30 4891 O 463.613 -1.67467 -5.20209 0
M  V30 4892 H 460.707 -0.219348 -0.79738 0
M  V30 4893 H 463.253 -1.12209 -1.27307 0
M  V30 4894 H 462.025 -2.3288 -3.14456 0
M  V30 4895 H 461.648 -0.787748 -3.89718 0
M  V30 4896 N 462.645 1.35699 -0.801477 0
M  V30 4897 C 463.873 2.03157 -0.391768 0
M  V30 4898 C 464.288 1.60412 0.995668 0
M  V30 4899 O 463.645 0.799228 1.64069 0
M  V30 4900 C 463.696 3.58566 -0.459671 0
M  V30 4901 O 463.417 3.99756 -1.7924 0
M  V30 4902 C 464.918 4.4328 -0.0421205 0
M  V30 4903 H 462.138 0.651688 -0.159825 0
M  V30 4904 H 464.682 1.73426 -1.08368 0
M  V30 4905 H 462.837 3.86963 0.183939 0
M  V30 4906 H 463.251 4.94387 -1.75162 0
M  V30 4907 H 464.725 5.51821 -0.140754 0
M  V30 4908 H 465.202 4.27383 1.01196 0
M  V30 4909 H 465.808 4.20168 -0.658687 0
M  V30 4910 N 464.123 0.554532 1.47522 0
M  V30 4911 C 465.07 -0.19466 2.29978 0
M  V30 4912 C 466.04 -0.910882 1.38896 0
M  V30 4913 O 467.225 -0.907102 1.67858 0
M  V30 4914 C 464.365 -1.22035 3.22802 0
M  V30 4915 C 463.478 -0.510474 4.28973 0
M  V30 4916 C 462.613 -1.52123 5.08952 0
M  V30 4917 C 461.652 -0.796173 6.069 0
M  V30 4918 N 460.789 -1.75363 6.79847 0
M  V30 4919 H 465.629 0.51461 2.93523 0
M  V30 4920 H 463.166 0.265607 1.44682 0
M  V30 4921 H 465.124 -1.8276 3.7504 0
M  V30 4922 H 463.754 -1.89769 2.61127 0
M  V30 4923 H 462.806 0.211234 3.79813 0
M  V30 4924 H 464.118 0.0576503 4.98767 0
M  V30 4925 H 463.272 -2.20207 5.65326 0
M  V30 4926 H 462.011 -2.12327 4.39054 0
M  V30 4927 H 461.016 -0.101388 5.49707 0
M  V30 4928 H 462.241 -0.199911 6.78806 0
M  V30 4929 H 460.187 -2.3443 6.12682 0
M  V30 4930 H 460.104 -1.23759 7.45801 0
M  V30 4931 H 461.372 -2.4257 7.40797 0
M  V30 4932 N 465.601 -1.54893 0.290851 0
M  V30 4933 C 466.511 -2.26812 -0.59945 0
M  V30 4934 C 467.527 -1.29963 -1.15696 0
M  V30 4935 O 468.703 -1.62928 -1.18391 0
M  V30 4936 C 465.768 -2.98716 -1.75982 0
M  V30 4937 C 464.829 -4.1108 -1.2374 0
M  V30 4938 C 464.062 -4.79546 -2.34246 0
M  V30 4939 O 464.285 -4.47309 -3.53936 0
M  V30 4940 O 463.219 -5.67165 -2.01512 0
M  V30 4941 H 467.045 -3.03696 -0.0163561 0
M  V30 4942 H 464.63 -1.49289 0.0576755 0
M  V30 4943 H 466.512 -3.43851 -2.43607 0
M  V30 4944 H 465.187 -2.24737 -2.3297 0
M  V30 4945 H 464.094 -3.70367 -0.527163 0
M  V30 4946 H 465.427 -4.87007 -0.71307 0
M  V30 4947 N 467.08 -0.0183926 -1.57589 0
M  V30 4948 C 468.328 0.661253 -1.90976 0
M  V30 4949 C 468.649 1.73281 -0.894353 0
M  V30 4950 O 467.919 1.9579 0.0656788 0
M  V30 4951 H 466.499 0.247233 -0.704901 0
M  V30 4952 H 469.161 -0.0636639 -1.94796 0
M  V30 4953 H 468.257 1.12083 -2.9128 0
M  V30 4954 N 468.558 1.5553 0.254621 0
M  V30 4955 C 469.807 1.76202 0.981612 0
M  V30 4956 C 470.12 0.580883 1.86776 0
M  V30 4957 O 471.326 0.670448 2.63092 0
M  V30 4958 C 469.782 3.11921 1.79537 0
M  V30 4959 C 469.39 4.37659 0.956991 0
M  V30 4960 C 471.134 3.41936 2.51555 0
M  V30 4961 C 469.041 5.64411 1.76619 0
M  V30 4962 H 467.971 0.656841 0.370237 0
M  V30 4963 H 470.622 1.81969 0.236556 0
M  V30 4964 H 469.004 3.00241 2.58208 0
M  V30 4965 H 470.178 4.60307 0.21315 0
M  V30 4966 H 468.493 4.14922 0.350497 0
M  V30 4967 H 471.09 4.33849 3.12536 0
M  V30 4968 H 471.433 2.62905 3.22779 0
M  V30 4969 H 471.966 3.54797 1.799 0
M  V30 4970 H 468.705 6.46241 1.09783 0
M  V30 4971 H 468.225 5.45877 2.48551 0
M  V30 4972 H 469.904 6.03386 2.33527 0
M  V30 4973 N 470.036 -0.519951 1.48776 0
M  V30 4974 C 471.264 -1.29971 1.60982 0
M  V30 4975 C 471.679 -1.86803 0.273885 0
M  V30 4976 O 471.036 -1.66904 -0.738193 0
M  V30 4977 C 471.087 -2.44346 2.66415 0
M  V30 4978 O 470.808 -1.89855 3.94825 0
M  V30 4979 C 472.309 -3.36014 2.89153 0
M  V30 4980 H 469.529 -0.394891 0.542496 0
M  V30 4981 H 472.073 -0.626214 1.94676 0
M  V30 4982 H 470.228 -3.07562 2.35552 0
M  V30 4983 H 470.642 -2.64798 4.5275 0
M  V30 4984 H 472.116 -4.12593 3.66703 0
M  V30 4985 H 472.593 -3.91859 1.98351 0
M  V30 4986 H 473.199 -2.78582 3.21359 0
M  V30 4987 N 471.514 -1.37532 -0.769588 0
M  V30 4988 C 472.424 -1.35668 -1.91393 0
M  V30 4989 C 473.44 -0.255954 -1.72107 0
M  V30 4990 O 474.616 -0.491704 -1.95305 0
M  V30 4991 C 471.681 -1.16481 -3.26547 0
M  V30 4992 C 470.742 -2.36212 -3.58472 0
M  V30 4993 C 469.975 -2.17932 -4.87177 0
M  V30 4994 O 470.198 -1.1647 -5.58382 0
M  V30 4995 O 469.132 -3.06167 -5.18214 0
M  V30 4996 H 472.958 -2.32055 -1.95918 0
M  V30 4997 H 470.543 -1.18284 -0.912641 0
M  V30 4998 H 472.425 -1.07778 -4.07384 0
M  V30 4999 H 471.1 -0.231687 -3.2287 0
M  V30 5000 H 470.007 -2.50488 -2.77861 0
M  V30 5001 H 471.34 -3.281 -3.66894 0
M  V30 5002 N 472.992 0.995999 -1.22138 0
M  V30 5003 C 474.269 1.70834 -0.952642 0
M  V30 5004 C 474.649 2.04257 0.533119 0
M  V30 5005 O 473.997 1.72343 1.50034 0
M  V30 5006 C 474.207 2.96119 -1.84701 0
M  V30 5007 C 475.555 3.68962 -2.10124 0
M  V30 5008 O 476.579 3.0612 -1.82124 0
M  V30 5009 O 475.438 4.82017 -2.57531 0
M  V30 5010 H 472.532 0.745498 -0.357997 0
M  V30 5011 H 475.078 1.05262 -1.33109 0
M  V30 5012 H 473.85 2.67898 -2.85213 0
M  V30 5013 H 473.473 3.6943 -1.46995 0
M  V30 5014 N 474.47 1.03057 1.19235 0
M  V30 5015 C 475.717 0.728019 1.88961 0
M  V30 5016 C 476.045 -0.743515 1.79728 0
M  V30 5017 O 475.3 -1.55729 1.1852 0
M  V30 5018 C 475.599 1.1268 3.39172 0
M  V30 5019 C 475.265 2.5969 3.68608 0
M  V30 5020 C 473.927 2.99854 3.76352 0
M  V30 5021 C 476.279 3.54793 3.81801 0
M  V30 5022 C 473.607 4.34031 3.94758 0
M  V30 5023 C 475.959 4.88675 4.0172 0
M  V30 5024 C 474.623 5.28526 4.07697 0
M  V30 5025 H 473.893 0.266401 0.691456 0
M  V30 5026 H 476.54 1.29373 1.41191 0
M  V30 5027 H 474.845 0.479722 3.88852 0
M  V30 5028 H 476.542 0.870203 3.91444 0
M  V30 5029 H 473.132 2.27575 3.63191 0
M  V30 5030 H 477.316 3.24914 3.7516 0
M  V30 5031 H 472.572 4.6444 3.97625 0
M  V30 5032 H 476.746 5.6228 4.1087 0
M  V30 5033 H 474.373 6.32506 4.21712 0
M  V30 5034 N 475.948 -1.35272 0.808662 0
M  V30 5035 C 477.194 -1.99003 0.390581 0
M  V30 5036 C 477.527 -1.63999 -1.0401 0
M  V30 5037 O 476.802 -0.904368 -1.72196 0
M  V30 5038 C 477.085 -3.55454 0.576566 0
M  V30 5039 C 476.938 -4.00249 2.05233 0
M  V30 5040 C 478.257 -4.401 0.00354277 0
M  V30 5041 H 475.376 -0.722917 0.143388 0
M  V30 5042 H 478.018 -1.6039 1.01858 0
M  V30 5043 H 476.168 -3.88477 0.0419766 0
M  V30 5044 H 477.84 -3.77626 2.64946 0
M  V30 5045 H 476.083 -3.51082 2.54801 0
M  V30 5046 H 476.754 -5.0911 2.13333 0
M  V30 5047 H 479.23 -4.13548 0.460117 0
M  V30 5048 H 478.106 -5.48656 0.163575 0
M  V30 5049 H 478.367 -4.28444 -1.09032 0
M  V30 5050 N 477.426 -0.562348 -1.47226 0
M  V30 5051 C 478.672 -0.0485293 -2.03342 0
M  V30 5052 C 479.027 1.28898 -1.42839 0
M  V30 5053 O 478.32 1.82719 -0.576563 0
M  V30 5054 C 478.514 0.0969817 -3.57268 0
M  V30 5055 C 478.343 -1.22487 -4.32697 0
M  V30 5056 C 477.113 -1.79357 -4.72397 0
M  V30 5057 C 479.311 -2.14332 -4.67511 0
M  V30 5058 N 477.293 -3.05493 -5.32491 0
M  V30 5059 C 478.664 -3.25049 -5.27961 0
M  V30 5060 C 480.719 -2.14263 -4.4944 0
M  V30 5061 C 479.422 -4.35804 -5.72248 0
M  V30 5062 C 481.448 -3.24033 -4.94729 0
M  V30 5063 C 480.81 -4.3347 -5.55233 0
M  V30 5064 H 476.909 -0.0600464 -0.779691 0
M  V30 5065 H 479.493 -0.750769 -1.79643 0
M  V30 5066 H 477.664 0.768353 -3.80724 0
M  V30 5067 H 479.396 0.613333 -4.00025 0
M  V30 5068 H 476.151 -1.33093 -4.54514 0
M  V30 5069 H 476.575 -3.698 -5.67077 0
M  V30 5070 H 481.217 -1.30935 -4.02015 0
M  V30 5071 H 478.935 -5.19888 -6.18661 0
M  V30 5072 H 482.521 -3.25073 -4.82513 0
M  V30 5073 H 481.401 -5.17008 -5.89638 0
M  V30 5074 N 478.904 1.54736 -0.299062 0
M  V30 5075 C 480.32 1.59507 0.0543849 0
M  V30 5076 C 480.52 1.31606 1.52585 0
M  V30 5077 O 479.576 1.08853 2.27832 0
M  V30 5078 C 480.889 2.98751 -0.34181 0
M  V30 5079 C 482.437 3.1165 -0.290414 0
M  V30 5080 C 482.912 4.53199 -0.661402 0
M  V30 5081 N 484.403 4.59114 -0.613863 0
M  V30 5082 C 485.138 5.66709 -0.873417 0
M  V30 5083 N 484.634 6.82349 -1.19884 0
M  V30 5084 N 486.427 5.56369 -0.800608 0
M  V30 5085 H 478.578 1.71133 -1.25806 0
M  V30 5086 H 480.841 0.799186 -0.509908 0
M  V30 5087 H 480.547 3.24085 -1.36608 0
M  V30 5088 H 480.421 3.75961 0.305508 0
M  V30 5089 H 482.808 2.86066 0.724605 0
M  V30 5090 H 482.889 2.366 -0.972327 0
M  V30 5091 H 482.533 4.79513 -1.67422 0
M  V30 5092 H 482.463 5.26583 0.0425612 0
M  V30 5093 H 484.954 3.76053 -0.3732 0
M  V30 5094 H 485.267 7.60326 -1.38291 0
M  V30 5095 H 483.612 6.83906 -1.23685 0
M  V30 5096 H 486.803 4.64904 -0.546045 0
M  V30 5097 H 486.976 6.40139 -1.00626 0
M  V30 5098 N 480.382 0.0267497 1.57577 0
M  V30 5099 C 481.659 -0.690926 1.82991 0
M  V30 5100 C 482.039 -1.90471 0.910164 0
M  V30 5101 O 481.387 -2.28474 -0.0347985 0
M  V30 5102 C 481.597 -1.07139 3.32148 0
M  V30 5103 C 482.945 -1.46402 3.98562 0
M  V30 5104 O 483.969 -1.16443 3.36629 0
M  V30 5105 O 482.828 -2.02214 5.07712 0
M  V30 5106 H 479.922 -0.338747 0.75444 0
M  V30 5107 H 482.468 0.0542506 1.69613 0
M  V30 5108 H 481.24 -0.207394 3.9075 0
M  V30 5109 H 480.863 -1.87481 3.50623 0
M  V30 5110 N 481.861 -1.55662 -0.24637 0
M  V30 5111 C 483.11 -1.7672 -0.972254 0
M  V30 5112 C 483.423 -0.59078 -1.86465 0
M  V30 5113 O 484.629 -0.684391 -2.62732 0
M  V30 5114 C 483.085 -3.12869 -1.7788 0
M  V30 5115 C 482.693 -4.38161 -0.933768 0
M  V30 5116 C 484.437 -3.43265 -2.49738 0
M  V30 5117 C 482.344 -5.6534 -1.73623 0
M  V30 5118 H 481.274 -0.658795 -0.366749 0
M  V30 5119 H 483.925 -1.82092 -0.226902 0
M  V30 5120 H 482.307 -3.01606 -2.56612 0
M  V30 5121 H 483.481 -4.60413 -0.188736 0
M  V30 5122 H 481.796 -4.15102 -0.328488 0
M  V30 5123 H 484.393 -4.35501 -3.10231 0
M  V30 5124 H 484.736 -2.64614 -3.2138 0
M  V30 5125 H 485.269 -3.55746 -1.78016 0
M  V30 5126 H 482.008 -6.46814 -1.06354 0
M  V30 5127 H 481.528 -5.47188 -2.45653 0
M  V30 5128 H 483.207 -6.04616 -2.30323 0
M  V30 5129 N 483.339 0.512053 -1.4905 0
M  V30 5130 C 484.269 1.62365 -1.67809 0
M  V30 5131 C 485.25 1.61737 -0.526809 0
M  V30 5132 O 486.435 1.78651 -0.761404 0
M  V30 5133 C 483.565 3.00895 -1.73435 0
M  V30 5134 C 482.519 3.16387 -2.88242 0
M  V30 5135 C 481.845 4.56157 -2.78971 0
M  V30 5136 C 483.145 2.97457 -4.29321 0
M  V30 5137 H 484.839 1.46921 -2.60873 0
M  V30 5138 H 482.385 0.705379 -1.2554 0
M  V30 5139 H 484.338 3.78549 -1.85145 0
M  V30 5140 H 483.062 3.17403 -0.769619 0
M  V30 5141 H 481.721 2.41155 -2.76116 0
M  V30 5142 H 481.369 4.69525 -1.8043 0
M  V30 5143 H 481.069 4.67465 -3.5602 0
M  V30 5144 H 482.593 5.35886 -2.92675 0
M  V30 5145 H 484.007 3.64888 -4.42187 0
M  V30 5146 H 482.404 3.20245 -5.07507 0
M  V30 5147 H 483.474 1.93692 -4.44535 0
M  V30 5148 N 484.817 1.37938 0.762283 0
M  V30 5149 C 486.047 1.36685 1.54922 0
M  V30 5150 C 486.455 -0.0474099 1.89141 0
M  V30 5151 O 485.798 -1.02213 1.52638 0
M  V30 5152 C 485.86 2.14963 2.88152 0
M  V30 5153 C 485.524 3.6385 2.76518 0
M  V30 5154 C 486.521 4.57531 2.46904 0
M  V30 5155 C 484.206 4.07095 2.94243 0
M  V30 5156 C 486.2 5.92436 2.35156 0
M  V30 5157 C 483.887 5.42083 2.82116 0
M  V30 5158 C 484.885 6.34567 2.52614 0
M  V30 5159 O 484.573 7.67073 2.40529 0
M  V30 5160 H 484.305 0.469586 0.486276 0
M  V30 5161 H 486.859 1.82012 0.951876 0
M  V30 5162 H 485.089 1.6434 3.50042 0
M  V30 5163 H 486.778 2.06224 3.49609 0
M  V30 5164 H 487.544 4.25428 2.32886 0
M  V30 5165 H 483.423 3.35462 3.16206 0
M  V30 5166 H 486.967 6.64591 2.12049 0
M  V30 5167 H 482.864 5.73785 2.95704 0
M  V30 5168 H 483.632 7.77499 2.55807 0
M  V30 5169 N 486.295 -0.989507 1.22664 0
M  V30 5170 C 487.227 -2.0824 0.957542 0
M  V30 5171 C 488.24 -1.6267 -0.0651098 0
M  V30 5172 O 489.429 -1.77695 0.169312 0
M  V30 5173 C 486.529 -3.36298 0.419145 0
M  V30 5174 C 485.702 -4.10882 1.49982 0
M  V30 5175 C 484.761 -5.17221 0.967904 0
M  V30 5176 O 483.787 -5.44613 1.65487 0
M  V30 5177 N 484.989 -5.80124 -0.20896 0
M  V30 5178 H 487.754 -2.31904 1.89843 0
M  V30 5179 H 485.315 -1.15552 1.13399 0
M  V30 5180 H 487.307 -4.04671 0.0485451 0
M  V30 5181 H 485.877 -3.09671 -0.426937 0
M  V30 5182 H 485.097 -3.37092 2.04359 0
M  V30 5183 H 486.385 -4.57482 2.22682 0
M  V30 5184 H 485.783 -5.60244 -0.783818 0
M  V30 5185 H 484.34 -6.49715 -0.520913 0
M  V30 5186 N 487.773 -1.03688 -1.18687 0
M  V30 5187 C 488.998 -0.757819 -1.93059 0
M  V30 5188 C 489.423 0.678353 -1.75442 0
M  V30 5189 O 488.781 1.46938 -1.06203 0
M  V30 5190 C 488.829 -1.12423 -3.42627 0
M  V30 5191 O 487.933 -0.247505 -4.11657 0
M  V30 5192 H 487.274 -0.279245 -0.602427 0
M  V30 5193 H 489.804 -1.3857 -1.5053 0
M  V30 5194 H 489.814 -1.08454 -3.93322 0
M  V30 5195 H 488.489 -2.17049 -3.54771 0
M  V30 5196 H 487.066 -0.34649 -3.71287 0
M  V30 5197 N 489.251 1.34841 -0.815825 0
M  V30 5198 C 490.199 2.31549 -0.220888 0
M  V30 5199 C 491.193 1.5707 0.634457 0
M  V30 5200 O 492.399 1.72125 0.526589 0
M  V30 5201 H 488.774 0.750153 -0.0526782 0
M  V30 5202 H 490.745 2.7926 -1.05149 0
M  V30 5203 C 489.494 3.42335 0.608427 0
M  V30 5204 H 488.817 3.9978 -0.0404121 0
M  V30 5205 H 490.257 4.12258 0.990931 0
M  V30 5206 C 488.716 2.86173 1.77782 0
M  V30 5207 O 489.246 2.80474 2.87571 0
M  V30 5208 N 487.452 2.43093 1.59229 0
M  V30 5209 H 486.999 2.47928 0.699237 0
M  V30 5210 H 486.957 2.05866 2.37627 0
M  V30 5211 N 490.729 0.570148 1.46925 0
M  V30 5212 C 491.959 0.0561151 2.06524 0
M  V30 5213 C 492.367 -1.24874 1.42137 0
M  V30 5214 O 491.71 -1.76292 0.516417 0
M  V30 5215 C 491.772 -0.197035 3.5896 0
M  V30 5216 C 491.436 1.02033 4.45464 0
M  V30 5217 C 492.433 1.92921 4.82781 0
M  V30 5218 C 490.118 1.23864 4.86788 0
M  V30 5219 C 492.112 3.03999 5.60235 0
M  V30 5220 C 489.799 2.35249 5.64004 0
M  V30 5221 C 490.797 3.25146 6.0064 0
M  V30 5222 O 490.485 4.34598 6.76299 0
M  V30 5223 H 490.217 0.0487409 0.674241 0
M  V30 5224 H 492.771 0.786915 1.89728 0
M  V30 5225 H 491.001 -0.982299 3.74016 0
M  V30 5226 H 492.69 -0.658032 4.00531 0
M  V30 5227 H 493.456 1.77265 4.51444 0
M  V30 5228 H 489.335 0.54805 4.57731 0
M  V30 5229 H 492.879 3.74192 5.8875 0
M  V30 5230 H 488.776 2.50873 5.94755 0
M  V30 5231 H 489.544 4.32808 6.94708 0
M  V30 5232 N 492.207 -1.54576 0.307264 0
M  V30 5233 C 493.117 -2.27435 -0.57536 0
M  V30 5234 C 494.133 -1.31183 -1.14311 0
M  V30 5235 O 495.309 -1.64175 -1.16656 0
M  V30 5236 C 492.374 -3.00566 -1.72803 0
M  V30 5237 C 491.435 -4.12369 -1.19373 0
M  V30 5238 C 490.668 -4.82003 -2.29147 0
M  V30 5239 O 490.891 -4.51038 -3.49171 0
M  V30 5240 O 489.825 -5.69271 -1.95485 0
M  V30 5241 H 493.651 -3.03696 0.0158558 0
M  V30 5242 H 491.236 -1.49219 0.0735064 0
M  V30 5243 H 493.118 -3.46416 -2.39946 0
M  V30 5244 H 491.793 -2.27195 -2.30574 0
M  V30 5245 H 490.7 -3.70905 -0.487851 0
M  V30 5246 H 492.033 -4.87736 -0.661376 0
M  V30 5247 N 493.685 -0.035106 -1.57561 0
M  V30 5248 C 495.096 0.502885 -1.798 0
M  V30 5249 C 495.447 1.71892 -0.945921 0
M  V30 5250 O 494.572 2.15822 -0.157991 0
M  V30 5251 C 495.167 0.919097 -3.26095 0
M  V30 5252 C 493.726 1.40216 -3.49308 0
M  V30 5253 C 492.873 0.369709 -2.74824 0
M  V30 5254 H 495.824 -0.261102 -1.56537 0
M  V30 5255 H 495.845 1.78308 -3.36135 0
M  V30 5256 H 495.357 0.0338526 -3.88085 0
M  V30 5257 H 493.458 2.30714 -2.92578 0
M  V30 5258 H 493.571 1.40541 -4.58023 0
M  V30 5259 H 491.935 0.839113 -2.40481 0
M  V30 5260 H 492.718 -0.507173 -3.39533 0
M  V30 5261 N 495.163 1.55791 0.238111 0
M  V30 5262 C 496.411 1.77681 0.963001 0
M  V30 5263 C 496.732 0.600674 1.85518 0
M  V30 5264 O 496.002 -0.383182 1.92116 0
M  V30 5265 H 494.582 0.655315 0.358568 0
M  V30 5266 H 497.244 1.93239 0.253945 0
M  V30 5267 H 496.34 2.69177 1.57956 0
M  V30 5268 N 496.642 -0.504142 1.49319 0
M  V30 5269 C 497.867 -1.28729 1.62615 0
M  V30 5270 C 498.292 -1.85752 0.296309 0
M  V30 5271 O 497.65 -1.65704 -0.735649 0
M  V30 5272 C 497.698 -2.39561 2.69524 0
M  V30 5273 O 496.802 -3.43324 2.28478 0
M  V30 5274 H 496.143 -0.380172 0.544395 0
M  V30 5275 H 498.673 -0.603872 1.95485 0
M  V30 5276 H 498.683 -2.8537 2.91595 0
M  V30 5277 H 497.358 -1.97423 3.66056 0
M  V30 5278 H 495.935 -3.03455 2.16725 0
M  V30 5279 N 498.12 -1.38341 -0.754957 0
M  V30 5280 C 499.348 -1.37704 -1.54419 0
M  V30 5281 C 499.763 0.0335243 -1.8877 0
M  V30 5282 O 499.12 0.999773 -1.52679 0
M  V30 5283 C 499.171 -2.23136 -2.84416 0
M  V30 5284 O 498.892 -3.58697 -2.51531 0
M  V30 5285 C 500.393 -2.30664 -3.78562 0
M  V30 5286 H 497.613 -0.471061 -0.477852 0
M  V30 5287 H 500.157 -1.81902 -0.934446 0
M  V30 5288 H 498.312 -1.82403 -3.41772 0
M  V30 5289 H 498.726 -4.03665 -3.34896 0
M  V30 5290 H 500.2 -2.9473 -4.66732 0
M  V30 5291 H 500.677 -1.3199 -4.18898 0
M  V30 5292 H 501.283 -2.71781 -3.27131 0
M  V30 5293 N 499.598 0.982988 -1.23187 0
M  V30 5294 C 500.531 2.07302 -0.953993 0
M  V30 5295 C 501.509 1.62249 0.106753 0
M  V30 5296 O 502.693 1.88481 -0.0269525 0
M  V30 5297 C 499.82 3.35873 -0.436716 0
M  V30 5298 C 498.866 3.99862 -1.48367 0
M  V30 5299 S 499.699 4.39443 -3.06023 0
M  V30 5300 C 500.855 5.7117 -2.55959 0
M  V30 5301 H 501.088 2.30554 -1.87702 0
M  V30 5302 H 498.621 1.11883 -1.06403 0
M  V30 5303 H 500.579 4.10244 -0.144872 0
M  V30 5304 H 499.24 3.10634 0.465351 0
M  V30 5305 H 498.433 4.92471 -1.07182 0
M  V30 5306 H 498.035 3.31857 -1.72473 0
M  V30 5307 H 500.327 6.47977 -1.97818 0
M  V30 5308 H 501.27 6.17194 -3.47098 0
M  V30 5309 H 501.678 5.29046 -1.96902 0
M  V30 5310 N 501.076 1.04316 1.18135 0
M  V30 5311 C 502.023 0.636398 2.21853 0
M  V30 5312 C 502.993 -0.357039 1.62217 0
M  V30 5313 O 504.178 -0.250453 1.89149 0
M  V30 5314 C 501.318 0.00812779 3.45099 0
M  V30 5315 C 500.431 1.04933 4.19062 0
M  V30 5316 C 499.566 0.389313 5.29771 0
M  V30 5317 C 498.605 1.41544 5.9551 0
M  V30 5318 N 497.742 0.78021 6.97751 0
M  V30 5319 H 502.582 1.52536 2.56002 0
M  V30 5320 H 500.119 0.76304 1.25762 0
M  V30 5321 H 502.077 -0.373497 4.15525 0
M  V30 5322 H 500.707 -0.844336 3.11562 0
M  V30 5323 H 499.759 1.54888 3.47439 0
M  V30 5324 H 501.071 1.82862 4.64072 0
M  V30 5325 H 500.225 -0.0463805 6.06682 0
M  V30 5326 H 498.964 -0.422038 4.8587 0
M  V30 5327 H 497.969 1.86124 5.17337 0
M  V30 5328 H 499.194 2.22854 6.41493 0
M  V30 5329 H 497.14 -0.0107899 6.55999 0
M  V30 5330 H 497.057 1.49716 7.41027 0
M  V30 5331 H 498.325 0.368996 7.78626 0
M  V30 5332 N 502.554 -1.34406 0.822964 0
M  V30 5333 C 503.8 -1.98578 0.411666 0
M  V30 5334 C 504.133 -1.65093 -1.02264 0
M  V30 5335 O 503.408 -0.92258 -1.71227 0
M  V30 5336 C 503.691 -3.54823 0.614235 0
M  V30 5337 C 503.544 -3.9805 2.09466 0
M  V30 5338 C 504.863 -4.40071 0.050221 0
M  V30 5339 H 501.982 -0.721355 0.151047 0
M  V30 5340 H 504.624 -1.59301 1.03554 0
M  V30 5341 H 502.774 -3.88411 0.0831774 0
M  V30 5342 H 504.446 -3.74795 2.68936 0
M  V30 5343 H 502.689 -3.4836 2.5851 0
M  V30 5344 H 503.36 -5.06819 2.18721 0
M  V30 5345 H 505.836 -4.13037 0.503953 0
M  V30 5346 H 504.712 -5.48452 0.221759 0
M  V30 5347 H 504.973 -4.29576 -1.04482 0
M  V30 5348 N 504.032 -0.577932 -1.46621 0
M  V30 5349 C 504.965 0.206312 -2.27265 0
M  V30 5350 C 505.943 0.901306 -1.35334 0
M  V30 5351 O 507.127 0.916151 -1.64739 0
M  V30 5352 C 504.254 1.29563 -3.1294 0
M  V30 5353 C 503.3 0.706981 -4.206 0
M  V30 5354 S 504.133 -0.462459 -5.33499 0
M  V30 5355 C 505.289 0.628171 -6.2274 0
M  V30 5356 H 505.522 -0.477961 -2.93433 0
M  V30 5357 H 503.055 -0.364715 -1.50031 0
M  V30 5358 H 505.013 1.91935 -3.62865 0
M  V30 5359 H 503.674 1.95183 -2.46095 0
M  V30 5360 H 502.867 1.52565 -4.80354 0
M  V30 5361 H 502.469 0.159022 -3.73662 0
M  V30 5362 H 504.761 1.51506 -6.60342 0
M  V30 5363 H 505.704 0.0674961 -7.08068 0
M  V30 5364 H 506.112 0.930167 -5.56784 0
M  V30 5365 N 505.51 1.54411 -0.315457 0
M  V30 5366 C 506.443 2.20265 0.596522 0
M  V30 5367 C 507.421 1.17693 1.12192 0
M  V30 5368 O 508.605 1.46397 1.18744 0
M  V30 5369 C 505.732 2.85794 1.81767 0
M  V30 5370 C 504.778 4.02017 1.42424 0
M  V30 5371 S 505.611 5.33452 0.467836 0
M  V30 5372 C 506.767 6.02471 1.69645 0
M  V30 5373 H 507 2.97277 0.0370896 0
M  V30 5374 H 504.533 1.54079 -0.0995562 0
M  V30 5375 H 506.491 3.24172 2.51839 0
M  V30 5376 H 505.152 2.08601 2.34828 0
M  V30 5377 H 504.345 4.46701 2.33396 0
M  V30 5378 H 503.947 3.65271 0.803311 0
M  V30 5379 H 506.239 6.24157 2.63504 0
M  V30 5380 H 507.182 6.96215 1.29192 0
M  V30 5381 H 507.59 5.32284 1.87974 0
M  V30 5382 N 506.988 0.0434614 1.5754 0
M  V30 5383 C 507.918 -0.931651 2.14109 0
M  V30 5384 C 508.899 -1.32971 1.06079 0
M  V30 5385 O 510.084 -1.40579 1.33982 0
M  V30 5386 C 507.214 -2.20914 2.67982 0
M  V30 5387 C 506.168 -1.95139 3.80926 0
M  V30 5388 C 505.494 -3.29276 4.21285 0
M  V30 5389 C 506.794 -1.27913 5.06395 0
M  V30 5390 H 508.488 -0.460497 2.95837 0
M  V30 5391 H 506.034 -0.220058 1.42309 0
M  V30 5392 H 507.987 -2.89522 3.06194 0
M  V30 5393 H 506.711 -2.70221 1.83434 0
M  V30 5394 H 505.37 -1.28945 3.43175 0
M  V30 5395 H 505.018 -3.76369 3.33699 0
M  V30 5396 H 504.718 -3.12831 4.97404 0
M  V30 5397 H 506.242 -3.99129 4.62091 0
M  V30 5398 H 507.656 -1.86544 5.42102 0
M  V30 5399 H 506.053 -1.2182 5.87605 0
M  V30 5400 H 507.123 -0.254066 4.84234 0
M  V30 5401 N 508.466 -1.55915 -0.229846 0
M  V30 5402 C 509.429 -1.90914 -1.26824 0
M  V30 5403 C 510.429 -0.786999 -1.40225 0
M  V30 5404 O 511.619 -1.05484 -1.38632 0
M  V30 5405 C 508.751 -2.15264 -2.64337 0
M  V30 5406 H 509.944 -2.8378 -0.969998 0
M  V30 5407 H 507.497 -1.49069 -0.4699 0
M  V30 5408 H 508.232 -1.24923 -2.99274 0
M  V30 5409 H 508.017 -2.97005 -2.55989 0
M  V30 5410 H 509.507 -2.43467 -3.39284 0
M  V30 5411 N 509.944 0.496216 -1.49584 0
M  V30 5412 C 510.907 1.57952 -1.66084 0
M  V30 5413 C 511.907 1.51729 -0.53244 0
M  V30 5414 O 513.097 1.54796 -0.79899 0
M  V30 5415 C 510.229 2.97604 -1.66268 0
M  V30 5416 H 511.422 1.44649 -2.6271 0
M  V30 5417 H 508.975 0.7208 -1.38687 0
M  V30 5418 H 509.71 3.16378 -0.712432 0
M  V30 5419 H 509.495 3.03528 -2.4822 0
M  V30 5420 H 510.985 3.76301 -1.81073 0
M  V30 5421 N 511.423 1.38739 0.74761 0
M  V30 5422 C 512.386 1.36241 1.84312 0
M  V30 5423 C 513.386 0.261811 1.58654 0
M  V30 5424 O 514.576 0.519031 1.66288 0
M  V30 5425 C 511.708 1.12253 3.21888 0
M  V30 5426 H 512.901 2.33712 1.87933 0
M  V30 5427 H 510.454 1.2412 0.949946 0
M  V30 5428 H 511.189 0.154133 3.23934 0
M  V30 5429 H 510.974 1.91943 3.41907 0
M  V30 5430 H 512.464 1.13215 4.0196 0
M  V30 5431 N 512.901 -0.976442 1.23707 0
M  V30 5432 C 514.15 -1.71254 1.06559 0
M  V30 5433 C 514.463 -1.91528 -0.397024 0
M  V30 5434 O 515.669 -2.62625 -0.688518 0
M  V30 5435 C 514.125 -3.08207 1.8584 0
M  V30 5436 C 513.733 -2.95806 3.36456 0
M  V30 5437 C 515.477 -3.85749 1.77194 0
M  V30 5438 C 513.384 -4.28015 4.08114 0
M  V30 5439 H 512.314 -0.642171 0.395136 0
M  V30 5440 H 514.965 -1.08877 1.4771 0
M  V30 5441 H 513.347 -3.71363 1.37498 0
M  V30 5442 H 514.521 -2.41716 3.92314 0
M  V30 5443 H 512.836 -2.31736 3.45959 0
M  V30 5444 H 515.433 -4.83633 2.28041 0
M  V30 5445 H 515.776 -4.09752 0.735477 0
M  V30 5446 H 516.309 -3.29303 2.23169 0
M  V30 5447 H 513.048 -4.09208 5.12083 0
M  V30 5448 H 512.568 -4.81955 3.57043 0
M  V30 5449 H 514.247 -4.96681 4.14629 0
M  V30 5450 N 514.379 -1.04941 -1.1758 0
M  V30 5451 C 515.656 -0.671918 -1.83697 0
M  V30 5452 C 516.036 0.847929 -1.93322 0
M  V30 5453 O 515.384 1.75287 -1.46583 0
M  V30 5454 C 515.594 -1.35797 -3.21497 0
M  V30 5455 C 516.942 -1.4944 -3.97433 0
M  V30 5456 O 517.966 -1.31678 -3.30967 0
M  V30 5457 O 516.825 -1.78463 -5.1654 0
M  V30 5458 H 513.919 -0.236212 -0.792548 0
M  V30 5459 H 516.465 -1.14884 -1.24899 0
M  V30 5460 H 515.237 -2.39498 -3.09446 0
M  V30 5461 H 514.86 -0.870236 -3.8796 0
M  V30 5462 N 515.857 1.33968 -0.830081 0
M  V30 5463 C 516.805 2.31301 -0.245435 0
M  V30 5464 C 517.799 1.57734 0.617762 0
M  V30 5465 O 519.005 1.72674 0.508303 0
M  V30 5466 H 515.38 0.749552 -0.0606316 0
M  V30 5467 H 517.351 2.78129 -1.08105 0
M  V30 5468 C 516.1 3.42961 0.572084 0
M  V30 5469 H 515.423 3.99714 -0.0828118 0
M  V30 5470 H 516.863 4.13286 0.94715 0
M  V30 5471 C 515.322 2.88043 1.74737 0
M  V30 5472 O 515.852 2.83508 2.8458 0
M  V30 5473 N 514.058 2.44768 1.56642 0
M  V30 5474 H 513.605 2.48656 0.672901 0
M  V30 5475 H 513.563 2.08375 2.3543 0
M  V30 5476 N 517.335 0.585699 1.46312 0
M  V30 5477 C 518.283 -0.158577 2.32059 0
M  V30 5478 C 519.277 -0.881427 1.44662 0
M  V30 5479 O 520.483 -0.799476 1.61271 0
M  V30 5480 H 516.858 -0.0700066 0.748734 0
M  V30 5481 H 518.829 0.583383 2.92642 0
M  V30 5482 C 517.578 -1.15701 3.27885 0
M  V30 5483 H 516.901 -0.610215 3.95116 0
M  V30 5484 H 518.341 -1.64812 3.90657 0
M  V30 5485 C 516.8 -2.21951 2.53455 0
M  V30 5486 O 517.33 -3.29352 2.29978 0
M  V30 5487 N 515.536 -1.9664 2.13965 0
M  V30 5488 H 515.083 -1.09309 2.33258 0
M  V30 5489 H 515.041 -2.6794 1.64485 0
M  V30 5490 N 518.813 -1.54241 0.323641 0
M  V30 5491 C 520.041 -2.04985 -0.280871 0
M  V30 5492 C 520.456 -1.19978 -1.45777 0
M  V30 5493 O 519.813 -0.230471 -1.81039 0
M  V30 5494 C 519.864 -3.54353 -0.715258 0
M  V30 5495 O 519.585 -4.36132 0.414817 0
M  V30 5496 C 521.086 -4.21189 -1.38257 0
M  V30 5497 H 518.306 -0.66851 -0.0577502 0
M  V30 5498 H 520.85 -1.99029 0.469852 0
M  V30 5499 H 519.005 -3.60596 -1.41596 0
M  V30 5500 H 519.419 -5.2445 0.0725227 0
M  V30 5501 H 520.893 -5.27154 -1.63745 0
M  V30 5502 H 521.37 -3.72307 -2.32989 0
M  V30 5503 H 521.976 -4.19085 -0.724447 0
M  V30 5504 N 520.291 -0.0518155 -1.57515 0
M  V30 5505 C 521.538 0.621823 -1.92716 0
M  V30 5506 C 521.866 1.70813 -0.930229 0
M  V30 5507 O 521.121 1.95616 0.0573708 0
M  V30 5508 C 521.42 1.25607 -3.34601 0
M  V30 5509 C 521.086 0.297901 -4.49915 0
M  V30 5510 C 519.748 0.034243 -4.81188 0
M  V30 5511 C 522.1 -0.358738 -5.19964 0
M  V30 5512 C 519.428 -0.893479 -5.79857 0
M  V30 5513 C 521.78 -1.27466 -6.19625 0
M  V30 5514 C 520.444 -1.54698 -6.49326 0
M  V30 5515 H 519.714 0.227541 -0.705199 0
M  V30 5516 H 522.361 -0.118432 -1.91133 0
M  V30 5517 H 520.666 2.07161 -3.32553 0
M  V30 5518 H 522.363 1.78424 -3.59118 0
M  V30 5519 H 518.953 0.513581 -4.25512 0
M  V30 5520 H 523.137 -0.168133 -4.96015 0
M  V30 5521 H 518.393 -1.11193 -6.01204 0
M  V30 5522 H 522.567 -1.78953 -6.73015 0
M  V30 5523 H 520.194 -2.26748 -7.25596 0
M  V30 5524 N 521.769 1.56035 0.221574 0
M  V30 5525 C 523.18 1.69229 0.788567 0
M  V30 5526 C 523.531 0.653814 1.84986 0
M  V30 5527 O 522.656 -0.195065 2.15519 0
M  V30 5528 C 523.251 3.06809 1.43713 0
M  V30 5529 C 521.81 3.21858 1.95152 0
M  V30 5530 C 520.957 2.65155 0.811685 0
M  V30 5531 H 523.908 1.587 -0.00307894 0
M  V30 5532 H 523.929 3.02666 2.30594 0
M  V30 5533 H 523.441 3.82369 0.664475 0
M  V30 5534 H 521.542 2.51167 2.7522 0
M  V30 5535 H 521.655 4.29073 2.1315 0
M  V30 5536 H 520.019 2.23635 1.21899 0
M  V30 5537 H 520.802 3.43261 0.0516987 0
M  V30 5538 N 523.247 -0.488276 1.49845 0
M  V30 5539 C 524.495 -1.23911 1.59657 0
M  V30 5540 C 524.816 -1.92816 0.291005 0
M  V30 5541 O 524.086 -1.83328 -0.690485 0
M  V30 5542 H 522.666 -0.460357 0.588286 0
M  V30 5543 H 525.328 -0.564794 1.86537 0
M  V30 5544 H 524.424 -1.99625 2.39909 0
M  V30 5545 N 524.725 -1.39134 -0.740242 0
M  V30 5546 C 525.973 -1.35803 -1.49673 0
M  V30 5547 C 526.294 0.0470897 -1.94943 0
M  V30 5548 O 525.564 0.997347 -1.68611 0
M  V30 5549 H 524.144 -0.499736 -0.555224 0
M  V30 5550 H 526.806 -1.73947 -0.879107 0
M  V30 5551 H 525.902 -2.0174 -2.38133 0
M  V30 5552 N 526.204 0.969867 -1.24223 0
M  V30 5553 C 527.114 2.09806 -1.0497 0
M  V30 5554 C 528.13 1.73998 0.00886455 0
M  V30 5555 O 529.306 2.00513 -0.188848 0
M  V30 5556 C 526.371 3.40467 -0.654452 0
M  V30 5557 C 525.432 3.90236 -1.78926 0
M  V30 5558 C 524.665 5.14662 -1.41277 0
M  V30 5559 O 524.888 5.69602 -0.301632 0
M  V30 5560 O 523.822 5.58761 -2.23763 0
M  V30 5561 H 527.648 2.28942 -1.99548 0
M  V30 5562 H 525.233 1.08197 -1.03023 0
M  V30 5563 H 527.115 4.19039 -0.445452 0
M  V30 5564 H 525.79 3.22636 0.262216 0
M  V30 5565 H 524.697 3.12735 -2.05299 0
M  V30 5566 H 526.03 4.1254 -2.68462 0
M  V30 5567 N 527.682 1.05563 1.17022 0
M  V30 5568 C 528.928 0.769074 1.87652 0
M  V30 5569 C 529.261 -0.702326 1.81055 0
M  V30 5570 O 528.536 -1.5139 1.22112 0
M  V30 5571 C 528.819 1.25492 3.37526 0
M  V30 5572 C 528.672 2.78953 3.52853 0
M  V30 5573 C 529.991 0.856919 4.31677 0
M  V30 5574 H 527.11 0.280854 0.681388 0
M  V30 5575 H 529.752 1.31027 1.37593 0
M  V30 5576 H 527.902 0.794516 3.80289 0
M  V30 5577 H 529.574 3.33146 3.19079 0
M  V30 5578 H 527.817 3.18046 2.95007 0
M  V30 5579 H 528.488 3.08011 4.58076 0
M  V30 5580 H 530.964 1.25334 3.96775 0
M  V30 5581 H 529.84 1.22443 5.35069 0
M  V30 5582 H 530.101 -0.238787 4.41455 0
M  V30 5583 N 529.16 -1.33526 0.837174 0
M  V30 5584 C 530.407 -1.97837 0.432064 0
M  V30 5585 C 530.735 -1.66324 -1.00829 0
M  V30 5586 O 529.99 -0.93448 -1.71948 0
M  V30 5587 C 530.289 -3.52367 0.597675 0
M  V30 5588 C 529.955 -4.03826 2.00587 0
M  V30 5589 C 528.617 -4.1759 2.39106 0
M  V30 5590 C 530.969 -4.31333 2.92576 0
M  V30 5591 C 528.297 -4.56195 3.68921 0
M  V30 5592 C 530.649 -4.7139 4.2187 0
M  V30 5593 C 529.313 -4.8336 4.60347 0
M  V30 5594 H 528.583 -0.723937 0.158104 0
M  V30 5595 H 531.23 -1.5923 1.06387 0
M  V30 5596 H 529.535 -3.91624 -0.117452 0
M  V30 5597 H 531.232 -4.00126 0.26454 0
M  V30 5598 H 527.822 -3.93586 1.69671 0
M  V30 5599 H 532.006 -4.20224 2.64056 0
M  V30 5600 H 527.262 -4.63655 3.9854 0
M  V30 5601 H 531.436 -4.91631 4.93226 0
M  V30 5602 H 529.063 -5.1303 5.60985 0
M  V30 5603 N 530.638 -0.59345 -1.46 0
M  V30 5604 C 531.586 0.146268 -2.3214 0
M  V30 5605 C 532.58 0.873743 -1.45128 0
M  V30 5606 O 533.786 0.790912 -1.61693 0
M  V30 5607 H 530.161 0.0660349 -0.749095 0
M  V30 5608 H 532.132 -0.598895 -2.92328 0
M  V30 5609 C 530.881 1.1396 -3.28494 0
M  V30 5610 H 530.204 0.589252 -3.95434 0
M  V30 5611 H 531.644 1.62738 -3.91526 0
M  V30 5612 C 530.103 2.20604 -2.54628 0
M  V30 5613 O 530.633 3.28128 -2.31722 0
M  V30 5614 N 528.839 1.95502 -2.15005 0
M  V30 5615 H 528.386 1.0807 -2.33834 0
M  V30 5616 H 528.344 2.67064 -1.65904 0
M  V30 5617 N 532.116 1.54067 -0.331816 0
M  V30 5618 C 533.341 2.05599 0.272705 0
M  V30 5619 C 533.766 1.2059 1.44359 0
M  V30 5620 O 533.124 0.216907 1.79998 0
M  V30 5621 C 533.172 3.54188 0.677021 0
M  V30 5622 O 532.276 3.72082 1.77844 0
M  V30 5623 H 531.617 0.662286 0.0476801 0
M  V30 5624 H 534.147 1.98826 -0.482624 0
M  V30 5625 H 534.157 3.96608 0.957415 0
M  V30 5626 H 532.832 4.15513 -0.179325 0
M  V30 5627 H 531.409 3.41566 1.49622 0
M  V30 5628 N 533.594 0.0601682 1.57485 0
M  V30 5629 C 534.819 -0.624416 1.97777 0
M  V30 5630 C 535.244 -1.63051 0.937867 0
M  V30 5631 O 534.602 -1.81036 -0.0978845 0
M  V30 5632 C 534.65 -1.27979 3.37126 0
M  V30 5633 O 533.754 -2.39556 3.35688 0
M  V30 5634 H 533.095 -0.161581 0.64404 0
M  V30 5635 H 535.625 0.131237 2.04179 0
M  V30 5636 H 535.635 -1.62937 3.74053 0
M  V30 5637 H 534.31 -0.542501 4.12347 0
M  V30 5638 H 532.887 -2.06478 3.10517 0
M  V30 5639 N 535.072 -1.5615 -0.213296 0
M  V30 5640 C 535.982 -1.96265 -1.28519 0
M  V30 5641 C 536.998 -0.86765 -1.50824 0
M  V30 5642 O 538.174 -1.17191 -1.63793 0
M  V30 5643 C 535.239 -2.27836 -2.61327 0
M  V30 5644 C 534.3 -3.50949 -2.47252 0
M  V30 5645 C 533.533 -3.81004 -3.73727 0
M  V30 5646 O 533.756 -3.12612 -4.77106 0
M  V30 5647 O 532.69 -4.74477 -3.70344 0
M  V30 5648 H 536.516 -2.87631 -0.974795 0
M  V30 5649 H 534.101 -1.43467 -0.416832 0
M  V30 5650 H 535.983 -2.49299 -3.39747 0
M  V30 5651 H 534.658 -1.39643 -2.9203 0
M  V30 5652 H 533.565 -3.34754 -1.67004 0
M  V30 5653 H 534.898 -4.39551 -2.21486 0
M  V30 5654 N 536.55 0.480323 -1.50102 0
M  V30 5655 C 537.48 1.58769 -1.71215 0
M  V30 5656 C 538.461 1.60583 -0.560997 0
M  V30 5657 O 539.646 1.76996 -0.799127 0
M  V30 5658 C 536.776 2.97148 -1.79778 0
M  V30 5659 C 535.73 3.10201 -2.94888 0
M  V30 5660 C 535.056 4.50137 -2.88584 0
M  V30 5661 C 536.356 2.88283 -4.35534 0
M  V30 5662 H 538.05 1.41354 -2.6393 0
M  V30 5663 H 535.596 0.678591 -1.27008 0
M  V30 5664 H 537.549 3.74536 -1.93133 0
M  V30 5665 H 536.273 3.15699 -0.836772 0
M  V30 5666 H 534.932 2.35244 -2.81169 0
M  V30 5667 H 534.58 4.65593 -1.90349 0
M  V30 5668 H 534.28 4.59808 -3.65856 0
M  V30 5669 H 535.804 5.29558 -3.03976 0
M  V30 5670 H 537.218 3.55427 -4.49827 0
M  V30 5671 H 535.615 3.09408 -5.14186 0
M  V30 5672 H 536.685 1.84219 -4.48544 0
M  V30 5673 N 538.028 1.39524 0.732853 0
M  V30 5674 C 538.975 1.38416 1.84688 0
M  V30 5675 C 539.945 0.243539 1.64305 0
M  V30 5676 O 541.13 0.438979 1.85681 0
M  V30 5677 C 538.27 1.23555 3.22224 0
M  V30 5678 C 537.383 2.47179 3.54298 0
M  V30 5679 C 536.518 2.2489 4.81246 0
M  V30 5680 C 535.557 3.44178 5.0617 0
M  V30 5681 N 534.694 3.21192 6.24323 0
M  V30 5682 H 539.534 2.33645 1.84971 0
M  V30 5683 H 537.071 1.16059 0.903804 0
M  V30 5684 H 539.029 1.12949 4.0162 0
M  V30 5685 H 537.659 0.31954 3.21215 0
M  V30 5686 H 536.711 2.68379 2.69587 0
M  V30 5687 H 538.023 3.36022 3.68633 0
M  V30 5688 H 537.177 2.11538 5.68627 0
M  V30 5689 H 535.916 1.33443 4.69089 0
M  V30 5690 H 534.921 3.58025 4.17251 0
M  V30 5691 H 536.146 4.36528 5.20212 0
M  V30 5692 H 534.092 2.32413 6.1345 0
M  V30 5693 H 534.009 4.03594 6.39256 0
M  V30 5694 H 535.277 3.1154 7.14537 0
M  V30 5695 N 539.506 -0.963266 1.24736 0
M  V30 5696 C 540.755 -1.70115 1.08369 0
M  V30 5697 C 541.068 -1.91939 -0.376688 0
M  V30 5698 O 542.274 -2.6334 -0.660624 0
M  V30 5699 C 540.73 -3.06218 1.89099 0
M  V30 5700 C 540.338 -2.92221 3.39574 0
M  V30 5701 C 542.082 -3.83848 1.81275 0
M  V30 5702 C 539.989 -4.23662 4.12631 0
M  V30 5703 H 538.919 -0.637944 0.401924 0
M  V30 5704 H 541.57 -1.07304 1.48856 0
M  V30 5705 H 539.952 -3.69884 1.41429 0
M  V30 5706 H 541.126 -2.37541 3.94856 0
M  V30 5707 H 539.441 -2.28054 3.48397 0
M  V30 5708 H 542.038 -4.81188 2.33158 0
M  V30 5709 H 542.381 -4.08949 0.778895 0
M  V30 5710 H 542.914 -3.26918 2.26649 0
M  V30 5711 H 539.653 -4.03753 5.16395 0
M  V30 5712 H 539.173 -4.78141 3.62135 0
M  V30 5713 H 540.852 -4.92256 4.19873 0
M  V30 5714 N 540.985 -1.06182 -1.16461 0
M  V30 5715 C 541.948 -0.675723 -2.19013 0
M  V30 5716 C 542.948 0.277963 -1.58379 0
M  V30 5717 O 544.138 0.0604962 -1.74095 0
M  V30 5718 C 541.27 0.00591459 -3.40899 0
M  V30 5719 H 542.463 -1.58353 -2.54685 0
M  V30 5720 H 540.016 -0.856908 -1.30716 0
M  V30 5721 H 540.751 0.92652 -3.10783 0
M  V30 5722 H 540.536 -0.67984 -3.86161 0
M  V30 5723 H 542.026 0.26181 -4.16778 0
M  V30 5724 N 542.463 1.3308 -0.844243 0
M  V30 5725 C 543.74 1.92178 -0.364261 0
M  V30 5726 C 544.12 1.76961 1.15101 0
M  V30 5727 O 543.468 1.16128 1.9679 0
M  V30 5728 C 543.678 3.393 -0.817106 0
M  V30 5729 C 545.026 4.16444 -0.828236 0
M  V30 5730 O 546.05 3.47975 -0.761062 0
M  V30 5731 O 544.909 5.38685 -0.920926 0
M  V30 5732 H 542.003 0.820411 -0.10419 0
M  V30 5733 H 544.549 1.41918 -0.930453 0
M  V30 5734 H 543.321 3.44272 -1.85991 0
M  V30 5735 H 542.944 3.96947 -0.227785 0
M  V30 5736 N 543.941 0.601185 1.45683 0
M  V30 5737 C 544.904 -0.111398 2.28929 0
M  V30 5738 C 545.904 -0.801246 1.39416 0
M  V30 5739 O 547.094 -0.650383 1.61603 0
M  V30 5740 C 544.226 -1.16773 3.20276 0
M  V30 5741 H 545.419 0.620412 2.93413 0
M  V30 5742 H 542.972 0.359946 1.52099 0
M  V30 5743 H 543.707 -1.93051 2.60579 0
M  V30 5744 H 543.492 -0.677358 3.86205 0
M  V30 5745 H 544.982 -1.66698 3.82886 0
M  V30 5746 N 545.419 -1.53889 0.339982 0
M  V30 5747 C 546.647 -2.05271 -0.259114 0
M  V30 5748 C 547.062 -1.21517 -1.44496 0
M  V30 5749 O 546.419 -0.24966 -1.80784 0
M  V30 5750 C 546.47 -3.55092 -0.677634 0
M  V30 5751 O 546.191 -4.35667 0.461051 0
M  V30 5752 C 547.692 -4.22631 -1.33782 0
M  V30 5753 H 544.912 -0.669085 -0.0506566 0
M  V30 5754 H 547.456 -1.9852 0.490935 0
M  V30 5755 H 545.611 -3.62077 -1.37763 0
M  V30 5756 H 546.025 -5.24343 0.128144 0
M  V30 5757 H 547.499 -5.28861 -1.58145 0
M  V30 5758 H 547.976 -3.74758 -2.29027 0
M  V30 5759 H 548.582 -4.19829 -0.679957 0
M  V30 5760 N 546.897 -0.0685191 -1.57451 0
M  V30 5761 C 548.146 0.600898 -1.92541 0
M  V30 5762 C 548.459 1.70967 -0.950239 0
M  V30 5763 O 549.665 2.43844 -1.19384 0
M  V30 5764 C 548.121 1.12019 -3.42023 0
M  V30 5765 C 547.729 0.0426028 -4.4798 0
M  V30 5766 C 549.473 1.76386 -3.86119 0
M  V30 5767 C 547.38 0.575759 -5.88591 0
M  V30 5768 H 546.31 0.228225 -0.71863 0
M  V30 5769 H 548.961 -0.140223 -1.82963 0
M  V30 5770 H 547.343 1.91418 -3.46663 0
M  V30 5771 H 548.517 -0.73182 -4.54952 0
M  V30 5772 H 546.832 -0.504642 -4.13331 0
M  V30 5773 H 549.429 2.17302 -4.88553 0
M  V30 5774 H 549.772 2.62255 -3.23308 0
M  V30 5775 H 550.305 1.03615 -3.84069 0
M  V30 5776 H 547.044 -0.245691 -6.55039 0
M  V30 5777 H 546.564 1.31778 -5.85145 0
M  V30 5778 H 548.243 1.0532 -6.3837 0
M  V30 5779 N 548.375 1.56261 0.205012 0
M  V30 5780 C 549.791 1.49623 0.555433 0
M  V30 5781 C 549.991 0.766719 1.86343 0
M  V30 5782 O 549.047 0.313158 2.50551 0
M  V30 5783 C 550.36 2.94253 0.619347 0
M  V30 5784 C 551.908 3.04868 0.708855 0
M  V30 5785 C 552.383 4.50888 0.803969 0
M  V30 5786 N 553.874 4.54999 0.867758 0
M  V30 5787 C 554.609 5.65284 0.96135 0
M  V30 5788 N 554.105 6.85282 1.01786 0
M  V30 5789 N 555.898 5.53174 0.997771 0
M  V30 5790 H 548.049 2.0211 -0.653094 0
M  V30 5791 H 550.312 0.919333 -0.231366 0
M  V30 5792 H 550.018 3.50643 -0.272458 0
M  V30 5793 H 549.892 3.47063 1.47741 0
M  V30 5794 H 552.279 2.48532 1.5911 0
M  V30 5795 H 552.36 2.55199 -0.175205 0
M  V30 5796 H 552.004 5.07846 -0.0738798 0
M  V30 5797 H 551.934 4.98279 1.70369 0
M  V30 5798 H 554.425 3.68588 0.833735 0
M  V30 5799 H 554.738 7.65081 1.08951 0
M  V30 5800 H 553.083 6.8796 0.986706 0
M  V30 5801 H 556.274 4.5835 0.950392 0
M  V30 5802 H 556.447 6.39151 1.06725 0
M  V30 5803 N 549.853 -0.472356 1.50355 0
M  V30 5804 C 551.13 -1.23356 1.51798 0
M  V30 5805 C 551.51 -2.09469 0.26193 0
M  V30 5806 O 550.858 -2.15677 -0.754691 0
M  V30 5807 C 551.068 -2.06568 2.81302 0
M  V30 5808 C 552.416 -2.648 3.31913 0
M  V30 5809 O 553.44 -2.16812 2.82614 0
M  V30 5810 O 552.299 -3.52231 4.17846 0
M  V30 5811 H 549.393 -0.559707 0.608816 0
M  V30 5812 H 551.939 -0.48428 1.62643 0
M  V30 5813 H 550.711 -1.43103 3.64194 0
M  V30 5814 H 550.334 -2.88633 2.73454 0
M  V30 5815 N 551.331 -1.39911 -0.725443 0
M  V30 5816 C 552.577 -1.38862 -1.48624 0
M  V30 5817 C 552.932 0.0125913 -1.92396 0
M  V30 5818 O 552.225 0.981046 -1.64578 0
M  V30 5819 C 552.419 -2.30368 -2.7325 0
M  V30 5820 C 552.248 -3.79247 -2.41665 0
M  V30 5821 C 551.018 -4.48119 -2.3349 0
M  V30 5822 C 553.216 -4.70988 -2.06579 0
M  V30 5823 N 551.198 -5.82282 -1.94476 0
M  V30 5824 C 552.569 -5.93873 -1.78087 0
M  V30 5825 C 554.624 -4.58917 -1.9313 0
M  V30 5826 C 553.327 -7.06036 -1.37499 0
M  V30 5827 C 555.353 -5.71012 -1.53946 0
M  V30 5828 C 554.715 -6.92976 -1.26345 0
M  V30 5829 H 550.814 -0.563394 -0.54232 0
M  V30 5830 H 553.398 -1.75542 -0.842213 0
M  V30 5831 H 551.569 -1.95831 -3.35417 0
M  V30 5832 H 553.301 -2.20245 -3.39521 0
M  V30 5833 H 550.056 -4.01677 -2.50904 0
M  V30 5834 H 550.48 -6.53307 -1.77535 0
M  V30 5835 H 555.122 -3.65149 -2.13134 0
M  V30 5836 H 552.84 -7.99697 -1.16237 0
M  V30 5837 H 556.426 -5.63664 -1.44132 0
M  V30 5838 H 555.306 -7.78243 -0.964787 0
M  V30 5839 N 552.809 0.956637 -1.25245 0
M  V30 5840 C 554.086 1.67716 -1.00651 0
M  V30 5841 C 554.466 2.0585 0.467866 0
M  V30 5842 O 553.814 1.77029 1.44475 0
M  V30 5843 C 554.024 2.90093 -1.94028 0
M  V30 5844 C 555.372 3.6209 -2.21756 0
M  V30 5845 O 556.396 3.00171 -1.9177 0
M  V30 5846 O 555.255 4.7358 -2.72735 0
M  V30 5847 H 552.349 0.733731 -0.381533 0
M  V30 5848 H 554.895 1.00974 -1.3639 0
M  V30 5849 H 553.667 2.58689 -2.93591 0
M  V30 5850 H 553.29 3.64566 -1.58674 0
M  V30 5851 N 554.287 1.06798 1.15896 0
M  V30 5852 C 555.533 0.788934 1.86825 0
M  V30 5853 C 555.866 -0.683084 1.8179 0
M  V30 5854 O 555.141 -1.50086 1.23711 0
M  V30 5855 C 555.424 1.29065 3.36176 0
M  V30 5856 C 555.277 2.8268 3.49874 0
M  V30 5857 C 556.596 0.902655 4.30744 0
M  V30 5858 H 553.715 0.288066 0.678371 0
M  V30 5859 H 556.357 1.32479 1.36195 0
M  V30 5860 H 554.507 0.834806 3.79425 0
M  V30 5861 H 556.179 3.36511 3.15528 0
M  V30 5862 H 554.422 3.21157 2.91617 0
M  V30 5863 H 555.093 3.12852 4.54783 0
M  V30 5864 H 557.569 1.29535 3.95424 0
M  V30 5865 H 556.445 1.28111 5.3374 0
M  V30 5866 H 556.706 -0.191951 4.41683 0
M  V30 5867 N 555.766 -1.3263 0.851289 0
M  V30 5868 C 556.714 -2.30882 0.282202 0
M  V30 5869 C 557.708 -1.58697 -0.592589 0
M  V30 5870 O 558.914 -1.73461 -0.480768 0
M  V30 5871 H 555.289 -0.748492 0.0725487 0
M  V30 5872 H 557.26 -2.76374 1.12516 0
M  V30 5873 C 556.009 -3.43828 -0.517449 0
M  V30 5874 H 555.332 -3.99532 0.146392 0
M  V30 5875 H 556.772 -4.1474 -0.88128 0
M  V30 5876 C 555.231 -2.90786 -1.70133 0
M  V30 5877 O 555.761 -2.88 -2.80034 0
M  V30 5878 N 553.967 -2.4723 -1.52728 0
M  V30 5879 H 553.514 -2.49695 -0.633257 0
M  V30 5880 H 553.472 -2.12094 -2.32085 0
M  V30 5881 N 557.244 -0.608902 -1.45362 0
M  V30 5882 C 558.154 0.110969 -2.34337 0
M  V30 5883 C 559.17 0.859007 -1.51318 0
M  V30 5884 O 560.346 0.816296 -1.84116 0
M  V30 5885 C 557.411 1.09494 -3.28956 0
M  V30 5886 C 556.472 0.348718 -4.27881 0
M  V30 5887 C 555.705 1.28582 -5.17979 0
M  V30 5888 O 555.928 2.52369 -5.11533 0
M  V30 5889 O 554.862 0.782172 -5.96796 0
M  V30 5890 H 558.688 -0.620258 -2.97299 0
M  V30 5891 H 556.273 -0.36916 -1.44767 0
M  V30 5892 H 558.155 1.66163 -3.87257 0
M  V30 5893 H 556.83 1.80717 -2.68557 0
M  V30 5894 H 555.737 -0.260465 -3.73192 0
M  V30 5895 H 557.07 -0.323049 -4.91139 0
M  V30 5896 N 558.722 1.53707 -0.348139 0
M  V30 5897 C 559.97 2.00591 0.246478 0
M  V30 5898 C 560.291 1.23753 1.50699 0
M  V30 5899 O 559.561 0.345964 1.92821 0
M  V30 5900 H 558.141 0.741053 0.0940679 0
M  V30 5901 H 560.803 1.89139 -0.470354 0
M  V30 5902 H 559.899 3.08297 0.485714 0
M  V30 5903 N 560.2 0.0768682 1.57412 0
M  V30 5904 C 561.13 -0.886026 2.16037 0
M  V30 5905 C 562.111 -1.30691 1.08876 0
M  V30 5906 O 563.296 -1.37705 1.36934 0
M  V30 5907 C 560.426 -2.1518 2.72608 0
M  V30 5908 C 559.38 -1.87015 3.8498 0
M  V30 5909 C 558.706 -3.20266 4.28175 0
M  V30 5910 C 560.006 -1.17143 5.08994 0
M  V30 5911 H 561.7 -0.397642 2.96748 0
M  V30 5912 H 559.246 -0.189823 1.42743 0
M  V30 5913 H 561.199 -2.82962 3.12266 0
M  V30 5914 H 559.923 -2.66269 1.89125 0
M  V30 5915 H 558.582 -1.21636 3.45833 0
M  V30 5916 H 558.23 -3.69207 3.41607 0
M  V30 5917 H 557.93 -3.0221 5.03927 0
M  V30 5918 H 559.454 -3.89237 4.70454 0
M  V30 5919 H 560.868 -1.75003 5.45937 0
M  V30 5920 H 559.265 -1.09328 5.90057 0
M  V30 5921 H 560.335 -0.151295 4.84664 0
M  V30 5922 N 561.678 -1.56367 -0.196722 0
M  V30 5923 C 562.906 -1.84639 -0.933608 0
M  V30 5924 C 563.321 -0.659164 -1.76919 0
M  V30 5925 O 562.678 0.372142 -1.78665 0
M  V30 5926 C 562.729 -3.11694 -1.83109 0
M  V30 5927 O 562.45 -4.25838 -1.02924 0
M  V30 5928 C 563.951 -3.53132 -2.67979 0
M  V30 5929 H 561.171 -0.613188 -0.272473 0
M  V30 5930 H 563.715 -2.03475 -0.204465 0
M  V30 5931 H 561.87 -2.94759 -2.51387 0
M  V30 5932 H 562.284 -4.98178 -1.64069 0
M  V30 5933 H 563.758 -4.45005 -3.26611 0
M  V30 5934 H 564.235 -2.76045 -3.41608 0
M  V30 5935 H 564.841 -3.72592 -2.05074 0
M  V30 5936 N 563.156 0.464375 -1.50603 0
M  V30 5937 C 564.404 1.21356 -1.61608 0
M  V30 5938 C 564.725 1.92329 -0.321643 0
M  V30 5939 O 563.995 1.84403 0.661232 0
M  V30 5940 H 562.575 0.45094 -0.595535 0
M  V30 5941 H 565.237 0.535046 -1.87412 0
M  V30 5942 H 564.333 1.95783 -2.43054 0
M  V30 5943 N 564.634 1.40294 0.718013 0
M  V30 5944 C 565.882 1.38167 1.47494 0
M  V30 5945 C 566.203 -0.01607 1.94993 0
M  V30 5946 O 565.473 -0.970396 1.70177 0
M  V30 5947 H 564.053 0.508505 0.547203 0
M  V30 5948 H 566.715 1.75324 0.851322 0
M  V30 5949 H 565.811 2.05503 2.34894 0
M  V30 5950 N 566.112 -0.949982 1.2575 0
M  V30 5951 C 567.528 -1.22191 1.02672 0
M  V30 5952 C 567.728 -1.99898 -0.253588 0
M  V30 5953 O 566.784 -2.33329 -0.965076 0
M  V30 5954 C 568.097 -1.99175 2.25277 0
M  V30 5955 C 569.645 -2.12201 2.30087 0
M  V30 5956 C 570.12 -2.92586 3.5236 0
M  V30 5957 N 571.611 -3.00163 3.52784 0
M  V30 5958 C 572.346 -3.62766 4.44059 0
M  V30 5959 N 571.842 -4.26943 5.45611 0
M  V30 5960 N 573.635 -3.59953 4.3173 0
M  V30 5961 H 565.786 -0.430258 2.07996 0
M  V30 5962 H 568.049 -0.252844 0.91366 0
M  V30 5963 H 567.755 -1.49479 3.18354 0
M  V30 5964 H 567.629 -2.99868 2.28821 0
M  V30 5965 H 570.016 -2.61093 1.3753 0
M  V30 5966 H 570.097 -1.10799 2.30559 0
M  V30 5967 H 569.741 -2.44383 4.45241 0
M  V30 5968 H 569.671 -3.94224 3.49134 0
M  V30 5969 H 572.162 -2.54529 2.79327 0
M  V30 5970 H 572.475 -4.72583 6.11461 0
M  V30 5971 H 570.82 -4.25557 5.49478 0
M  V30 5972 H 574.011 -3.09003 3.51617 0
M  V30 5973 H 574.184 -4.08455 5.03059 0
M  V30 5974 N 567.59 -1.07411 -1.15328 0
M  V30 5975 C 568.523 -0.63913 -2.19067 0
M  V30 5976 C 569.501 0.343929 -1.58921 0
M  V30 5977 O 570.685 0.250207 -1.86832 0
M  V30 5978 C 567.812 0.0613977 -3.38644 0
M  V30 5979 C 566.858 -0.880201 -4.17318 0
M  V30 5980 S 567.691 -2.38152 -4.79629 0
M  V30 5981 C 568.847 -1.69281 -6.02573 0
M  V30 5982 H 569.08 -1.51799 -2.55626 0
M  V30 5983 H 566.613 -0.888138 -1.26299 0
M  V30 5984 H 568.571 0.459323 -4.07922 0
M  V30 5985 H 567.232 0.916605 -3.00428 0
M  V30 5986 H 566.425 -0.336781 -5.02874 0
M  V30 5987 H 566.027 -1.21854 -3.53592 0
M  V30 5988 H 568.319 -1.00488 -6.70006 0
M  V30 5989 H 569.262 -2.52671 -6.61485 0
M  V30 5990 H 569.67 -1.17053 -5.52231 0
M  V30 5991 N 569.068 1.32177 -0.85831 0
M  V30 5992 C 570.001 2.26823 -0.25035 0
M  V30 5993 C 570.979 1.50571 0.61378 0
M  V30 5994 O 572.163 1.79682 0.569777 0
M  V30 5995 C 569.29 3.32472 0.646556 0
M  V30 5996 C 568.336 4.26255 -0.144675 0
M  V30 5997 S 569.169 5.13608 -1.5155 0
M  V30 5998 C 570.325 6.22778 -0.624408 0
M  V30 5999 H 570.558 2.7804 -1.05267 0
M  V30 6000 H 568.091 1.39764 -0.656152 0
M  V30 6001 H 570.049 3.93817 1.15837 0
M  V30 6002 H 568.71 2.80031 1.42272 0
M  V30 6003 H 567.903 5.01114 0.538613 0
M  V30 6004 H 567.505 3.69346 -0.588198 0
M  V30 6005 H 569.797 6.77287 0.169846 0
M  V30 6006 H 570.74 6.95233 -1.34376 0
M  V30 6007 H 571.148 5.64156 -0.197128 0
M  V30 6008 N 570.547 0.616602 1.45037 0
M  V30 6009 C 571.775 0.121968 2.0654 0
M  V30 6010 C 572.19 -1.19743 1.45969 0
M  V30 6011 O 571.547 -1.73133 0.577168 0
M  V30 6012 C 571.598 -0.0145171 3.61497 0
M  V30 6013 O 571.319 1.25269 4.19809 0
M  V30 6014 C 572.82 -0.539555 4.40004 0
M  V30 6015 H 570.04 0.0729837 0.667019 0
M  V30 6016 H 572.584 0.846891 1.8614 0
M  V30 6017 H 570.739 -0.689809 3.81209 0
M  V30 6018 H 571.153 1.08816 5.13088 0
M  V30 6019 H 572.627 -0.584112 5.48901 0
M  V30 6020 H 573.104 -1.56368 4.10421 0
M  V30 6021 H 573.71 0.101995 4.25178 0
M  V30 6022 N 572.025 -1.5352 0.356285 0
M  V30 6023 C 573.272 -2.01117 -0.236303 0
M  V30 6024 C 573.6 -1.24381 -1.49531 0
M  V30 6025 O 572.855 -0.323057 -1.93015 0
M  V30 6026 C 573.154 -3.52607 -0.583369 0
M  V30 6027 C 572.82 -4.47151 0.58023 0
M  V30 6028 C 571.482 -4.72718 0.899528 0
M  V30 6029 C 573.834 -5.03137 1.36024 0
M  V30 6030 C 571.162 -5.51523 2.00098 0
M  V30 6031 C 573.514 -5.83145 2.45204 0
M  V30 6032 C 572.178 -6.07001 2.77679 0
M  V30 6033 H 571.448 -0.735938 -0.0864695 0
M  V30 6034 H 574.095 -1.85209 0.48683 0
M  V30 6035 H 572.4 -3.66413 -1.38739 0
M  V30 6036 H 574.097 -3.86901 -1.05397 0
M  V30 6037 H 570.687 -4.27394 0.321322 0
M  V30 6038 H 574.871 -4.83339 1.12682 0
M  V30 6039 H 570.127 -5.68229 2.25668 0
M  V30 6040 H 574.301 -6.25537 3.06067 0
M  V30 6041 H 571.928 -6.67851 3.63151 0
M  V30 6042 N 573.503 -0.0852151 -1.57369 0
M  V30 6043 C 574.728 0.592872 -1.98746 0
M  V30 6044 C 575.153 1.61538 -0.963689 0
M  V30 6045 O 574.511 1.81168 0.069071 0
M  V30 6046 C 574.559 1.22599 -3.39119 0
M  V30 6047 O 573.663 2.34185 -3.39457 0
M  V30 6048 H 573.004 0.151314 -0.646529 0
M  V30 6049 H 575.534 -0.163703 -2.03944 0
M  V30 6050 H 575.544 1.56965 -3.76598 0
M  V30 6051 H 574.219 0.476831 -4.13158 0
M  V30 6052 H 572.796 2.01512 -3.13763 0
M  V30 6053 N 574.981 1.5647 0.188427 0
M  V30 6054 C 575.913 1.91611 1.25769 0
M  V30 6055 C 576.926 0.807436 1.41366 0
M  V30 6056 O 578.115 1.08586 1.41673 0
M  V30 6057 C 575.215 2.13874 2.6289 0
M  V30 6058 C 574.388 3.45047 2.68815 0
M  V30 6059 C 573.447 3.56342 3.87178 0
M  V30 6060 O 572.473 4.29109 3.73971 0
M  V30 6061 N 573.675 2.89924 5.02916 0
M  V30 6062 H 576.44 2.8393 0.959373 0
M  V30 6063 H 574.001 1.57418 0.378306 0
M  V30 6064 H 575.993 2.18713 3.4051 0
M  V30 6065 H 574.563 1.28022 2.85183 0
M  V30 6066 H 573.783 3.52017 1.77419 0
M  V30 6067 H 575.071 4.31395 2.6977 0
M  V30 6068 H 574.469 2.30644 5.16546 0
M  V30 6069 H 573.026 3.0038 5.78459 0
M  V30 6070 N 576.459 -0.456382 1.50847 0
M  V30 6071 C 577.707 -1.20497 1.62249 0
M  V30 6072 C 578.028 -1.92156 0.331839 0
M  V30 6073 O 577.298 -1.84751 -0.651443 0
M  V30 6074 H 575.878 -0.447775 0.597918 0
M  V30 6075 H 578.54 -0.525099 1.87693 0
M  V30 6076 H 577.636 -1.94492 2.44089 0
M  V30 6077 N 577.937 -1.40673 -0.710563 0
M  V30 6078 C 579.184 -1.39222 -1.47049 0
M  V30 6079 C 579.512 0.0037691 -1.945 0
M  V30 6080 O 578.767 0.989224 -1.68857 0
M  V30 6081 C 579.066 -2.33253 -2.70791 0
M  V30 6082 C 578.732 -3.80406 -2.42079 0
M  V30 6083 C 577.394 -4.20496 -2.33959 0
M  V30 6084 C 579.746 -4.73375 -2.18094 0
M  V30 6085 C 577.074 -5.51584 -1.99929 0
M  V30 6086 C 579.426 -6.04768 -1.85576 0
M  V30 6087 C 578.09 -6.43895 -1.75941 0
M  V30 6088 H 577.36 -0.509449 -0.538092 0
M  V30 6089 H 580.007 -1.73363 -0.81348 0
M  V30 6090 H 578.312 -1.92314 -3.41354 0
M  V30 6091 H 580.009 -2.29412 -3.28894 0
M  V30 6092 H 576.599 -3.48645 -2.49288 0
M  V30 6093 H 580.783 -4.43217 -2.23321 0
M  V30 6094 H 576.039 -5.80797 -1.91011 0
M  V30 6095 H 580.213 -6.76318 -1.66033 0
M  V30 6096 H 577.84 -7.45387 -1.4934 0
M  V30 6097 N 579.415 0.9433 -1.26252 0
M  V30 6098 C 580.378 2.02326 -1.07689 0
M  V30 6099 C 581.378 1.60779 -0.0259174 0
M  V30 6100 O 582.568 1.72108 -0.269134 0
M  V30 6101 C 579.7 3.34886 -0.63752 0
M  V30 6102 H 580.893 2.20225 -2.0357 0
M  V30 6103 H 578.446 1.12197 -1.08819 0
M  V30 6104 H 579.181 3.22684 0.323377 0
M  V30 6105 H 578.966 3.66393 -1.39637 0
M  V30 6106 H 580.456 4.14231 -0.529418 0
M  V30 6107 N 580.893 1.08022 1.14757 0
M  V30 6108 C 581.843 0.676345 2.17737 0
M  V30 6109 C 582.827 -0.302018 1.5804 0
M  V30 6110 O 584.019 -0.11466 1.76628 0
M  V30 6111 C 581.148 0.082984 3.432 0
M  V30 6112 C 580.234 1.0869 4.09936 0
M  V30 6113 N 580.625 2.26891 4.52055 0
M  V30 6114 C 578.923 0.921768 4.36371 0
M  V30 6115 C 579.624 2.90636 5.0389 0
M  V30 6116 N 578.6 2.18266 4.97856 0
M  V30 6117 H 582.402 1.5765 2.4804 0
M  V30 6118 H 579.916 0.954374 1.31398 0
M  V30 6119 H 581.913 -0.224289 4.16296 0
M  V30 6120 H 580.573 -0.812206 3.14378 0
M  V30 6121 H 581.584 2.6457 4.45223 0
M  V30 6122 H 578.261 0.0800499 4.17423 0
M  V30 6123 H 579.651 3.9104 5.46386 0
M  V30 6124 N 582.371 -1.3172 0.865308 0
M  V30 6125 C 583.596 -2.01591 0.487415 0
M  V30 6126 C 584.021 -1.6455 -0.911307 0
M  V30 6127 O 583.379 -0.851689 -1.6005 0
M  V30 6128 C 583.427 -3.54759 0.646401 0
M  V30 6129 O 582.531 -4.11185 -0.316284 0
M  V30 6130 H 581.872 -0.634884 0.194468 0
M  V30 6131 H 584.402 -1.68024 1.16744 0
M  V30 6132 H 584.412 -4.04438 0.537932 0
M  V30 6133 H 583.087 -3.8106 1.66632 0
M  V30 6134 H 581.664 -3.72543 -0.163162 0
M  V30 6135 N 583.85 -0.624285 -1.44708 0
M  V30 6136 C 585.075 -0.131171 -2.06985 0
M  V30 6137 C 585.5 1.18234 -1.46295 0
M  V30 6138 O 584.858 1.72375 -0.561842 0
M  V30 6139 C 584.906 -0.0226724 -3.60593 0
M  V30 6140 O 584.01 1.02314 -3.99507 0
M  V30 6141 H 583.351 -0.0816556 -0.65896 0
M  V30 6142 H 585.88 -0.859027 -1.85693 0
M  V30 6143 H 585.891 0.170138 -4.07645 0
M  V30 6144 H 584.566 -0.981685 -4.04148 0
M  V30 6145 H 583.143 0.805452 -3.64097 0
M  V30 6146 N 585.328 1.53329 -0.364422 0
M  V30 6147 C 586.276 2.27212 0.497737 0
M  V30 6148 C 587.27 1.30146 1.08437 0
M  V30 6149 O 588.476 1.47778 1.0277 0
M  V30 6150 H 584.851 0.730329 0.179232 0
M  V30 6151 H 586.822 2.98037 -0.147182 0
M  V30 6152 C 585.571 3.07333 1.6261 0
M  V30 6153 H 584.894 3.81866 1.184 0
M  V30 6154 H 586.334 3.62209 2.20409 0
M  V30 6155 C 584.793 2.18102 2.56775 0
M  V30 6156 O 585.323 1.79104 3.59562 0
M  V30 6157 N 583.529 1.82759 2.25937 0
M  V30 6158 H 583.076 2.14671 1.42387 0
M  V30 6159 H 583.034 1.23342 2.89196 0
M  V30 6160 N 586.806 0.0935595 1.57322 0
M  V30 6161 C 588.052 -0.571355 1.94585 0
M  V30 6162 C 588.385 -1.67929 0.975366 0
M  V30 6163 O 587.66 -1.94498 0.00816206 0
M  V30 6164 C 587.943 -1.12797 3.41978 0
M  V30 6165 C 587.796 -0.0251881 4.49793 0
M  V30 6166 C 589.115 -2.02682 3.90651 0
M  V30 6167 H 586.234 -0.206223 0.70756 0
M  V30 6168 H 588.876 0.163956 1.89291 0
M  V30 6169 H 587.026 -1.75461 3.4662 0
M  V30 6170 H 588.698 0.608979 4.57263 0
M  V30 6171 H 586.941 0.641399 4.29032 0
M  V30 6172 H 587.612 -0.455433 5.50118 0
M  V30 6173 H 590.088 -1.49925 3.88152 0
M  V30 6174 H 588.964 -2.38555 4.94351 0
M  V30 6175 H 589.225 -2.94362 3.29854 0
M  V30 6176 N 588.284 -1.56567 -0.180126 0
M  V30 6177 C 589.532 -1.81133 -0.896392 0
M  V30 6178 C 589.853 -0.669114 -1.83161 0
M  V30 6179 O 589.123 0.311616 -1.93406 0
M  V30 6180 H 587.703 -0.668172 -0.333999 0
M  V30 6181 H 590.365 -1.94048 -0.182051 0
M  V30 6182 H 589.461 -2.74854 -1.47857 0
M  V30 6183 N 589.762 0.448376 -1.51087 0
M  V30 6184 C 590.695 1.56298 -1.66272 0
M  V30 6185 C 591.673 1.54381 -0.510419 0
M  V30 6186 O 592.857 1.73671 -0.732854 0
M  V30 6187 C 589.984 2.94883 -1.66618 0
M  V30 6188 C 589.03 3.14868 -2.87681 0
M  V30 6189 S 589.863 2.9234 -4.48662 0
M  V30 6190 C 591.019 4.33227 -4.51735 0
M  V30 6191 H 591.252 1.43182 -2.6055 0
M  V30 6192 H 588.785 0.637309 -1.40633 0
M  V30 6193 H 590.743 3.74771 -1.67502 0
M  V30 6194 H 589.404 3.05371 -0.735358 0
M  V30 6195 H 588.597 4.16166 -2.84292 0
M  V30 6196 H 588.199 2.42788 -2.84482 0
M  V30 6197 H 590.491 5.26247 -4.26697 0
M  V30 6198 H 591.434 4.41653 -5.53487 0
M  V30 6199 H 591.842 4.16367 -3.81181 0
M  V30 6200 N 591.24 1.41047 0.703093 0
M  V30 6201 C 592.468 1.4334 1.49202 0
M  V30 6202 C 592.883 0.0365596 1.88765 0
M  V30 6203 O 592.24 -0.942419 1.56284 0
M  V30 6204 C 592.291 2.33538 2.75939 0
M  V30 6205 O 592.012 3.67786 2.38045 0
M  V30 6206 C 593.513 2.44555 3.6974 0
M  V30 6207 H 590.733 0.488472 0.460039 0
M  V30 6208 H 593.277 1.85245 0.86629 0
M  V30 6209 H 591.432 1.94962 3.34766 0
M  V30 6210 H 591.846 4.15816 3.19683 0
M  V30 6211 H 593.32 3.11849 4.55471 0
M  V30 6212 H 593.797 1.47447 4.1371 0
M  V30 6213 H 594.403 2.83735 3.16819 0
M  V30 6214 N 592.718 -0.936591 1.26751 0
M  V30 6215 C 593.648 -2.05315 1.11212 0
M  V30 6216 C 594.629 -1.70092 0.0160262 0
M  V30 6217 O 595.814 -1.93279 0.188894 0
M  V30 6218 C 592.944 -3.39123 0.749171 0
M  V30 6219 C 591.898 -3.88425 1.79751 0
M  V30 6220 C 591.224 -5.18936 1.28876 0
M  V30 6221 C 592.524 -4.12798 3.19992 0
M  V30 6222 H 594.218 -2.18573 2.04613 0
M  V30 6223 H 591.764 -1.05027 0.985159 0
M  V30 6224 H 593.717 -4.16704 0.627323 0
M  V30 6225 H 592.441 -3.25855 -0.220543 0
M  V30 6226 H 591.1 -3.13028 1.90811 0
M  V30 6227 H 590.748 -5.02051 0.308757 0
M  V30 6228 H 590.448 -5.52892 1.98958 0
M  V30 6229 H 591.972 -5.99096 1.17967 0
M  V30 6230 H 593.386 -4.80977 3.11983 0
M  V30 6231 H 591.783 -4.58044 3.87705 0
M  V30 6232 H 592.853 -3.18412 3.65707 0
M  V30 6233 N 594.196 -1.08629 -1.14182 0
M  V30 6234 C 595.126 -0.740003 -2.21464 0
M  V30 6235 C 596.107 0.278591 -1.67803 0
M  V30 6236 O 597.292 0.148461 -1.93632 0
M  V30 6237 C 594.422 -0.150952 -3.46972 0
M  V30 6238 C 593.376 -1.09815 -4.13672 0
M  V30 6239 C 592.702 -0.3712 -5.3341 0
M  V30 6240 C 594.002 -2.43722 -4.61949 0
M  V30 6241 H 595.696 -1.63697 -2.50686 0
M  V30 6242 H 593.242 -0.788526 -1.20492 0
M  V30 6243 H 595.195 0.103325 -4.21273 0
M  V30 6244 H 593.919 0.781164 -3.1712 0
M  V30 6245 H 592.578 -1.33756 -3.41328 0
M  V30 6246 H 592.226 0.564792 -4.99819 0
M  V30 6247 H 591.926 -1.00267 -5.78982 0
M  V30 6248 H 593.45 -0.12503 -6.10472 0
M  V30 6249 H 594.864 -2.24034 -5.27714 0
M  V30 6250 H 593.261 -3.02582 -5.18232 0
M  V30 6251 H 594.331 -3.05082 -3.76899 0
M  V30 6252 N 595.674 1.31259 -0.872281 0
M  V30 6253 C 596.584 2.32221 -0.333255 0
M  V30 6254 C 597.6 1.6481 0.558013 0
M  V30 6255 O 598.776 1.96212 0.454175 0
M  V30 6256 C 595.841 3.43708 0.454479 0
M  V30 6257 C 594.902 4.26774 -0.465024 0
M  V30 6258 C 594.135 5.32937 0.28521 0
M  V30 6259 O 594.358 5.49968 1.513 0
M  V30 6260 O 593.292 6.00834 -0.358126 0
M  V30 6261 H 597.118 2.80252 -1.17016 0
M  V30 6262 H 594.703 1.352 -0.635724 0
M  V30 6263 H 596.585 4.11656 0.900963 0
M  V30 6264 H 595.26 2.97836 1.26789 0
M  V30 6265 H 594.167 3.61571 -0.960055 0
M  V30 6266 H 595.5 4.76217 -1.2441 0
M  V30 6267 N 597.152 0.631951 1.44375 0
M  V30 6268 C 598.084 -0.110911 2.28931 0
M  V30 6269 C 599.097 -0.808086 1.41329 0
M  V30 6270 O 600.286 -0.669396 1.65473 0
M  V30 6271 C 597.386 -1.17928 3.1772 0
M  V30 6272 C 596.559 -0.564458 4.33743 0
M  V30 6273 C 595.618 -1.5269 5.0356 0
M  V30 6274 O 594.644 -1.04372 5.59549 0
M  V30 6275 N 595.846 -2.86123 5.05088 0
M  V30 6276 H 598.611 0.614758 2.93327 0
M  V30 6277 H 596.172 0.473171 1.54831 0
M  V30 6278 H 598.164 -1.82348 3.61291 0
M  V30 6279 H 596.734 -1.80717 2.55069 0
M  V30 6280 H 595.954 0.258373 3.93352 0
M  V30 6281 H 597.242 -0.134355 5.08623 0
M  V30 6282 H 596.64 -3.27959 4.60933 0
M  V30 6283 H 595.197 -3.45901 5.52445 0
M  V30 6284 N 598.631 -1.53133 0.372548 0
M  V30 6285 C 599.578 -2.25951 -0.470631 0
M  V30 6286 C 600.548 -1.26895 -1.07176 0
M  V30 6287 O 601.733 -1.55691 -1.10294 0
M  V30 6288 C 598.873 -3.05726 -1.6008 0
M  V30 6289 C 597.986 -4.19684 -1.02416 0
M  V30 6290 C 597.121 -4.86888 -2.124 0
M  V30 6291 C 596.16 -5.92866 -1.52238 0
M  V30 6292 N 595.297 -6.53732 -2.56084 0
M  V30 6293 H 600.137 -2.97587 0.156816 0
M  V30 6294 H 597.674 -1.4683 0.0891571 0
M  V30 6295 H 599.632 -3.50258 -2.26661 0
M  V30 6296 H 598.262 -2.36331 -2.1988 0
M  V30 6297 H 597.314 -3.79588 -0.248426 0
M  V30 6298 H 598.626 -4.95821 -0.544366 0
M  V30 6299 H 597.78 -5.34638 -2.86787 0
M  V30 6300 H 596.519 -4.10239 -2.63734 0
M  V30 6301 H 595.524 -5.4447 -0.763685 0
M  V30 6302 H 596.749 -6.71439 -1.0172 0
M  V30 6303 H 594.695 -5.79932 -3.06618 0
M  V30 6304 H 594.612 -7.25429 -2.12811 0
M  V30 6305 H 595.88 -7.0613 -3.30152 0
M  V30 6306 N 600.109 -0.101901 -1.5727 0
M  V30 6307 C 601.042 0.891377 -2.10071 0
M  V30 6308 C 602.02 1.27197 -1.01291 0
M  V30 6309 O 603.204 1.37602 -1.28833 0
M  V30 6310 C 600.331 2.19049 -2.58331 0
M  V30 6311 C 599.377 1.95925 -3.78834 0
M  V30 6312 S 600.21 1.19106 -5.22086 0
M  V30 6313 C 601.366 2.50234 -5.73702 0
M  V30 6314 H 601.599 0.442212 -2.93993 0
M  V30 6315 H 599.132 0.111529 -1.53997 0
M  V30 6316 H 601.09 2.937 -2.86793 0
M  V30 6317 H 599.751 2.61086 -1.74622 0
M  V30 6318 H 598.944 2.92143 -4.10693 0
M  V30 6319 H 598.546 1.29401 -3.50901 0
M  V30 6320 H 600.838 3.46173 -5.82384 0
M  V30 6321 H 601.781 2.22944 -6.72088 0
M  V30 6322 H 602.189 2.58818 -5.01671 0
M  V30 6323 N 601.587 1.56661 0.17182 0
M  V30 6324 C 602.835 1.81606 0.886774 0
M  V30 6325 C 603.156 0.678818 1.82803 0
M  V30 6326 O 602.426 -0.301354 1.93568 0
M  V30 6327 H 601.006 0.669934 0.330451 0
M  V30 6328 H 603.668 1.94142 0.171757 0
M  V30 6329 H 602.764 2.75634 1.46398 0
M  V30 6330 N 603.065 -0.440357 1.51323 0
M  V30 6331 C 604.342 -1.20109 1.5438 0
M  V30 6332 C 604.722 -2.08866 0.306303 0
M  V30 6333 O 604.07 -2.1723 -0.708773 0
M  V30 6334 C 604.28 -2.00555 2.8562 0
M  V30 6335 C 605.628 -2.577 3.37455 0
M  V30 6336 O 606.652 -2.10769 2.8715 0
M  V30 6337 O 605.511 -3.43289 4.25224 0
M  V30 6338 H 602.605 -0.546668 0.620551 0
M  V30 6339 H 605.151 -0.449672 1.63634 0
M  V30 6340 H 603.923 -1.35346 3.67147 0
M  V30 6341 H 603.546 -2.82768 2.79514 0
M  V30 6342 N 604.543 -1.41418 -0.695603 0
M  V30 6343 C 605.506 -1.42988 -1.79129 0
M  V30 6344 C 606.506 -0.320514 -1.57573 0
M  V30 6345 O 607.696 -0.58039 -1.64247 0
M  V30 6346 C 604.828 -1.24122 -3.175 0
M  V30 6347 H 606.021 -2.40526 -1.7913 0
M  V30 6348 H 603.574 -1.2756 -0.903225 0
M  V30 6349 H 604.309 -0.274253 -3.23138 0
M  V30 6350 H 604.094 -2.045 -3.34547 0
M  V30 6351 H 605.584 -1.28056 -3.97481 0
M  V30 6352 N 606.021 0.929856 -1.27246 0
M  V30 6353 C 607.249 1.71144 -1.16265 0
M  V30 6354 C 607.664 1.867 0.280786 0
M  V30 6355 O 607.021 1.38249 1.19136 0
M  V30 6356 C 607.072 3.11222 -1.83911 0
M  V30 6357 O 606.793 2.96398 -3.22614 0
M  V30 6358 C 608.294 4.05541 -1.79028 0
M  V30 6359 H 605.514 0.535499 -0.404328 0
M  V30 6360 H 608.058 1.16492 -1.68077 0
M  V30 6361 H 606.213 3.6274 -1.36009 0
M  V30 6362 H 606.627 3.8494 -3.56261 0
M  V30 6363 H 608.101 5.01351 -2.30978 0
M  V30 6364 H 608.578 4.32589 -0.759168 0
M  V30 6365 H 609.184 3.59947 -2.26535 0
M  V30 6366 N 607.499 1.09233 1.13605 0
M  V30 6367 C 608.745 0.838255 1.85324 0
M  V30 6368 C 609.1 -0.629314 1.81817 0
M  V30 6369 O 608.393 -1.45729 1.24393 0
M  V30 6370 C 608.587 1.305 3.32723 0
M  V30 6371 C 608.416 2.81641 3.50583 0
M  V30 6372 C 607.186 3.49494 3.64941 0
M  V30 6373 C 609.384 3.79789 3.46792 0
M  V30 6374 N 607.366 4.89082 3.71042 0
M  V30 6375 C 608.737 5.05319 3.59239 0
M  V30 6376 C 610.792 3.72673 3.30181 0
M  V30 6377 C 609.495 6.24574 3.56791 0
M  V30 6378 C 611.521 4.91413 3.29039 0
M  V30 6379 C 610.883 6.15785 3.42035 0
M  V30 6380 H 606.982 0.359572 0.69443 0
M  V30 6381 H 609.566 1.39232 1.36098 0
M  V30 6382 H 607.737 0.778411 3.8052 0
M  V30 6383 H 609.469 0.996465 3.92241 0
M  V30 6384 H 606.224 2.9992 3.66531 0
M  V30 6385 H 606.648 5.61787 3.77789 0
M  V30 6386 H 611.29 2.77444 3.19037 0
M  V30 6387 H 609.008 7.20105 3.66708 0
M  V30 6388 H 612.594 4.87604 3.17386 0
M  V30 6389 H 611.474 7.06126 3.41111 0
M  V30 6390 N 608.977 -1.30795 0.87923 0
M  V30 6391 C 609.907 -2.30742 0.357796 0
M  V30 6392 C 610.888 -1.60747 -0.556283 0
M  V30 6393 O 612.073 -1.88393 -0.47135 0
M  V30 6394 C 609.203 -3.44583 -0.433555 0
M  V30 6395 C 608.157 -4.26235 0.388251 0
M  V30 6396 C 607.483 -5.32073 -0.529352 0
M  V30 6397 C 608.783 -4.96303 1.62729 0
M  V30 6398 H 610.477 -2.74605 1.19299 0
M  V30 6399 H 608.023 -1.32017 0.575104 0
M  V30 6400 H 609.976 -4.13563 -0.808934 0
M  V30 6401 H 608.7 -2.99511 -1.30234 0
M  V30 6402 H 607.359 -3.58936 0.745695 0
M  V30 6403 H 607.007 -4.83249 -1.39569 0
M  V30 6404 H 606.707 -5.87598 0.0166741 0
M  V30 6405 H 608.231 -6.0391 -0.901373 0
M  V30 6406 H 609.645 -5.5783 1.32283 0
M  V30 6407 H 608.042 -5.61666 2.11309 0
M  V30 6408 H 609.112 -4.22758 2.37494 0
M  V30 6409 N 610.455 -0.639598 -1.44038 0
M  V30 6410 C 611.732 -0.078012 -1.95444 0
M  V30 6411 C 612.112 1.39847 -1.58133 0
M  V30 6412 O 611.46 2.11714 -0.859614 0
M  V30 6413 C 611.67 -0.309832 -3.47622 0
M  V30 6414 C 613.018 -0.207521 -4.24093 0
M  V30 6415 O 614.042 -0.241653 -3.55379 0
M  V30 6416 O 612.901 -0.119641 -5.46369 0
M  V30 6417 H 609.995 0.0174534 -0.826816 0
M  V30 6418 H 612.541 -0.711891 -1.54046 0
M  V30 6419 H 611.313 -1.33401 -3.67858 0
M  V30 6420 H 610.936 0.357777 -3.95987 0
M  V30 6421 N 611.933 1.52934 -0.380664 0
M  V30 6422 C 613.163 2.05587 0.204302 0
M  V30 6423 C 613.571 1.25288 1.41773 0
M  V30 6424 O 612.914 0.290394 1.8139 0
M  V30 6425 C 612.976 3.53624 0.647324 0
M  V30 6426 C 612.64 4.54765 -0.451465 0
M  V30 6427 C 613.637 5.03226 -1.30614 0
M  V30 6428 C 611.322 4.98508 -0.616025 0
M  V30 6429 C 613.316 5.94046 -2.31058 0
M  V30 6430 C 611.003 5.89131 -1.62381 0
M  V30 6431 C 612.001 6.36792 -2.46952 0
M  V30 6432 O 611.689 7.25626 -3.46009 0
M  V30 6433 H 611.421 0.675013 0.0365198 0
M  V30 6434 H 613.975 1.98125 -0.541827 0
M  V30 6435 H 612.205 3.58676 1.44529 0
M  V30 6436 H 613.894 3.89061 1.15698 0
M  V30 6437 H 614.66 4.70167 -1.19027 0
M  V30 6438 H 610.539 4.60989 0.0324987 0
M  V30 6439 H 614.083 6.3117 -2.97104 0
M  V30 6440 H 609.98 6.21603 -1.7401 0
M  V30 6441 H 610.748 7.43664 -3.41916 0
M  V30 6442 N 613.412 0.11024 1.57214 0
M  V30 6443 C 614.342 -0.840002 2.17867 0
M  V30 6444 C 615.323 -1.28352 1.11624 0
M  V30 6445 O 616.508 -1.3477 1.39824 0
M  V30 6446 C 613.638 -2.09349 2.77111 0
M  V30 6447 C 612.592 -1.78807 3.8886 0
M  V30 6448 C 611.918 -3.11112 4.34872 0
M  V30 6449 C 613.218 -1.0632 5.11364 0
M  V30 6450 H 614.912 -0.334608 2.97524 0
M  V30 6451 H 612.458 -0.159502 1.43114 0
M  V30 6452 H 614.411 -2.76275 3.18198 0
M  V30 6453 H 613.135 -2.62198 1.9473 0
M  V30 6454 H 611.794 -1.14273 3.48335 0
M  V30 6455 H 611.442 -3.61877 3.49362 0
M  V30 6456 H 611.142 -2.91453 5.10224 0
M  V30 6457 H 612.666 -3.79171 4.78604 0
M  V30 6458 H 614.08 -1.63383 5.49526 0
M  V30 6459 H 612.477 -0.967876 5.92243 0
M  V30 6460 H 613.547 -0.0484569 4.84876 0
M  V30 6461 N 614.89 -1.56749 -0.16351 0
M  V30 6462 C 615.838 -1.97939 -1.22159 0
M  V30 6463 C 616.832 -0.869288 -1.45395 0
M  V30 6464 O 618.038 -1.05443 -1.45883 0
M  V30 6465 H 614.413 -0.629869 -0.410815 0
M  V30 6466 H 616.384 -2.86115 -0.847381 0
M  V30 6467 C 615.133 -2.36206 -2.55151 0
M  V30 6468 H 614.456 -3.2117 -2.38097 0
M  V30 6469 H 615.896 -2.68863 -3.27854 0
M  V30 6470 C 614.355 -1.20841 -3.14482 0
M  V30 6471 O 614.885 -0.500258 -3.98573 0
M  V30 6472 N 613.091 -0.976943 -2.73686 0
M  V30 6473 H 612.638 -1.55457 -2.05404 0
M  V30 6474 H 612.596 -0.206912 -3.13718 0
M  V30 6475 N 616.368 0.432326 -1.51554 0
M  V30 6476 C 617.784 0.769195 -1.39841 0
M  V30 6477 C 617.984 1.95584 -0.484675 0
M  V30 6478 O 617.04 2.52433 0.0582829 0
M  V30 6479 C 618.353 1.04487 -2.81963 0
M  V30 6480 C 619.901 1.149 -2.91148 0
M  V30 6481 C 620.376 1.45758 -4.34187 0
M  V30 6482 N 621.867 1.52671 -4.37317 0
M  V30 6483 C 622.602 1.78129 -5.4503 0
M  V30 6484 N 622.098 2.01345 -6.62897 0
M  V30 6485 N 623.891 1.79953 -5.32516 0
M  V30 6486 H 616.042 -0.349122 -2.09511 0
M  V30 6487 H 618.305 -0.0938113 -0.943347 0
M  V30 6488 H 618.011 0.24557 -3.50842 0
M  V30 6489 H 617.885 1.97119 -3.21596 0
M  V30 6490 H 620.272 1.93891 -2.22464 0
M  V30 6491 H 620.353 0.201568 -2.55005 0
M  V30 6492 H 619.997 0.672917 -5.03423 0
M  V30 6493 H 619.927 2.41715 -4.67848 0
M  V30 6494 H 622.418 1.36612 -3.52343 0
M  V30 6495 H 622.731 2.20155 -7.40778 0
M  V30 6496 H 621.076 1.98657 -6.66003 0
M  V30 6497 H 624.267 1.61337 -4.39418 0
M  V30 6498 H 624.44 1.99455 -6.1654 0
M  V30 6499 N 617.846 1.41785 0.688094 0
M  V30 6500 C 619.093 1.41544 1.44816 0
M  V30 6501 C 619.421 0.0271746 1.94481 0
M  V30 6502 O 618.676 -0.962235 1.7041 0
M  V30 6503 C 618.975 2.37532 2.67046 0
M  V30 6504 C 618.641 3.84209 2.35996 0
M  V30 6505 C 617.303 4.24165 2.27239 0
M  V30 6506 C 619.655 4.76785 2.10536 0
M  V30 6507 C 616.983 5.54695 1.91128 0
M  V30 6508 C 619.335 6.07644 1.75931 0
M  V30 6509 C 617.999 6.46613 1.65675 0
M  V30 6510 H 617.269 0.517945 0.529919 0
M  V30 6511 H 619.916 1.74635 0.785797 0
M  V30 6512 H 618.221 1.9772 3.38251 0
M  V30 6513 H 619.918 2.34615 3.25203 0
M  V30 6514 H 616.508 3.52567 2.4371 0
M  V30 6515 H 620.692 4.46714 2.16242 0
M  V30 6516 H 615.948 5.83762 1.81746 0
M  V30 6517 H 620.122 6.78874 1.55252 0
M  V30 6518 H 617.749 7.47668 1.37463 0
M  V30 6519 N 619.324 -0.923095 1.27737 0
M  V30 6520 C 620.271 -2.02432 1.1086 0
M  V30 6521 C 621.241 -1.66098 0.00835195 0
M  V30 6522 O 622.426 -1.90027 0.171542 0
M  V30 6523 C 619.566 -3.36476 0.766671 0
M  V30 6524 C 618.679 -3.85737 1.94501 0
M  V30 6525 C 617.814 -5.08249 1.54455 0
M  V30 6526 C 616.853 -5.49818 2.6901 0
M  V30 6527 N 615.99 -6.63524 2.29521 0
M  V30 6528 H 620.83 -2.16201 2.05089 0
M  V30 6529 H 618.367 -1.05909 1.02087 0
M  V30 6530 H 620.325 -4.13569 0.549223 0
M  V30 6531 H 618.955 -3.22502 -0.13867 0
M  V30 6532 H 618.007 -3.04883 2.27487 0
M  V30 6533 H 619.319 -4.12513 2.80419 0
M  V30 6534 H 618.473 -5.92857 1.28862 0
M  V30 6535 H 617.212 -4.83261 0.656534 0
M  V30 6536 H 616.217 -4.63757 2.95313 0
M  V30 6537 H 617.442 -5.76799 3.5844 0
M  V30 6538 H 615.388 -6.40185 1.43177 0
M  V30 6539 H 615.305 -6.89978 3.08977 0
M  V30 6540 H 616.573 -7.51461 2.07187 0
M  V30 6541 N 620.802 -1.09834 -1.13024 0
M  V30 6542 C 622.049 -0.83695 -1.84395 0
M  V30 6543 C 622.377 0.637463 -1.83757 0
M  V30 6544 O 621.632 1.48554 -1.27398 0
M  V30 6545 C 621.931 -1.32263 -3.32026 0
M  V30 6546 C 621.597 -2.80739 -3.52841 0
M  V30 6547 C 620.259 -3.21286 -3.5823 0
M  V30 6548 C 622.611 -3.76449 -3.60466 0
M  V30 6549 C 619.939 -4.56308 -3.68781 0
M  V30 6550 C 622.291 -5.11266 -3.72546 0
M  V30 6551 C 620.955 -5.51397 -3.76189 0
M  V30 6552 H 620.225 -0.306262 -0.674748 0
M  V30 6553 H 622.872 -1.37385 -1.33408 0
M  V30 6554 H 621.177 -0.705618 -3.85394 0
M  V30 6555 H 622.874 -1.09695 -3.85705 0
M  V30 6556 H 619.464 -2.48363 -3.49305 0
M  V30 6557 H 623.648 -3.46234 -3.55578 0
M  V30 6558 H 618.904 -4.86832 -3.69871 0
M  V30 6559 H 623.078 -5.85279 -3.77388 0
M  V30 6560 H 620.705 -6.56017 -3.84117 0
M  V30 6561 N 622.28 1.30327 -0.886154 0
M  V30 6562 C 623.528 1.9571 -0.504195 0
M  V30 6563 C 623.849 1.70294 0.950003 0
M  V30 6564 O 623.119 1.02718 1.66811 0
M  V30 6565 H 621.699 0.72412 -0.183465 0
M  V30 6566 H 624.361 1.58835 -1.12949 0
M  V30 6567 H 623.457 3.04704 -0.675431 0
M  V30 6568 N 623.758 0.647228 1.43697 0
M  V30 6569 C 625.004 0.158422 2.0218 0
M  V30 6570 C 625.337 -1.22233 1.50907 0
M  V30 6571 O 624.612 -1.81478 0.699702 0
M  V30 6572 C 624.895 0.1627 3.59732 0
M  V30 6573 C 624.748 1.57694 4.21251 0
M  V30 6574 C 626.067 -0.504138 4.37203 0
M  V30 6575 H 623.186 0.059042 0.734631 0
M  V30 6576 H 625.828 0.826772 1.71069 0
M  V30 6577 H 623.978 -0.406414 3.86368 0
M  V30 6578 H 625.65 2.19618 4.05667 0
M  V30 6579 H 623.893 2.12603 3.7813 0
M  V30 6580 H 624.564 1.53183 5.3032 0
M  V30 6581 H 627.04 -0.0199841 4.16095 0
M  V30 6582 H 625.916 -0.470394 5.46881 0
M  V30 6583 H 626.177 -1.57726 4.13007 0
M  V30 6584 N 625.236 -1.5273 0.388769 0
M  V30 6585 C 626.647 -1.86505 -0.0853788 0
M  V30 6586 C 626.998 -1.30847 -1.46197 0
M  V30 6587 O 626.123 -0.639609 -2.06732 0
M  V30 6588 C 626.718 -3.38414 -0.161703 0
M  V30 6589 C 625.277 -3.71902 -0.580144 0
M  V30 6590 C 624.424 -2.76095 0.258218 0
M  V30 6591 H 627.375 -1.46647 0.606665 0
M  V30 6592 H 627.396 -3.67638 -0.980936 0
M  V30 6593 H 626.908 -3.78893 0.840333 0
M  V30 6594 H 625.009 -3.36992 -1.58957 0
M  V30 6595 H 625.122 -4.77902 -0.338663 0
M  V30 6596 H 623.486 -2.53195 -0.276432 0
M  V30 6597 H 624.269 -3.19411 1.25822 0
M  V30 6598 N 626.714 -0.118576 -1.57153 0
M  V30 6599 C 627.942 0.54726 -1.99531 0
M  V30 6600 C 628.357 1.60251 -0.998246 0
M  V30 6601 O 627.714 1.82498 0.00893106 0
M  V30 6602 C 627.765 1.17378 -3.41913 0
M  V30 6603 O 627.486 0.160703 -4.37805 0
M  V30 6604 C 628.987 1.92297 -3.9942 0
M  V30 6605 H 626.207 0.144919 -0.655164 0
M  V30 6606 H 628.751 -0.20479 -2.03472 0
M  V30 6607 H 626.906 1.87661 -3.38913 0
M  V30 6608 H 627.32 0.61586 -5.20872 0
M  V30 6609 H 628.794 2.31462 -5.01128 0
M  V30 6610 H 629.271 2.79801 -3.38538 0
M  V30 6611 H 629.877 1.26777 -4.05965 0
M  V30 6612 N 628.193 1.56834 0.155195 0
M  V30 6613 C 629.609 1.51315 0.50755 0
M  V30 6614 C 629.809 0.825614 1.83809 0
M  V30 6615 O 628.865 0.39271 2.49427 0
M  V30 6616 C 630.178 2.96074 0.52542 0
M  V30 6617 C 631.726 3.06968 0.611505 0
M  V30 6618 C 632.201 4.53218 0.660115 0
M  V30 6619 N 633.692 4.5753 0.722564 0
M  V30 6620 C 634.427 5.68056 0.781023 0
M  V30 6621 N 633.923 6.88173 0.799327 0
M  V30 6622 N 635.716 5.56068 0.821278 0
M  V30 6623 H 627.867 1.9993 -0.717063 0
M  V30 6624 H 630.13 0.911507 -0.260496 0
M  V30 6625 H 629.836 3.49599 -0.383875 0
M  V30 6626 H 629.71 3.51587 1.36624 0
M  V30 6627 H 632.097 2.53468 1.51122 0
M  V30 6628 H 632.178 2.54513 -0.256306 0
M  V30 6629 H 631.822 5.07354 -0.23541 0
M  V30 6630 H 631.752 5.03447 1.5443 0
M  V30 6631 H 634.243 3.71054 0.716049 0
M  V30 6632 H 634.556 7.6816 0.845553 0
M  V30 6633 H 632.901 6.90751 0.767337 0
M  V30 6634 H 636.092 4.61142 0.804091 0
M  V30 6635 H 636.265 6.42223 0.863372 0
M  V30 6636 N 629.671 -0.424282 1.51781 0
M  V30 6637 C 630.918 -1.1726 1.65095 0
M  V30 6638 C 631.246 -1.90881 0.373477 0
M  V30 6639 O 630.501 -1.84835 -0.642997 0
M  V30 6640 C 630.8 -2.20418 2.81337 0
M  V30 6641 C 630.466 -1.63715 4.20129 0
M  V30 6642 C 629.128 -1.47975 4.57883 0
M  V30 6643 C 631.48 -1.22157 5.06682 0
M  V30 6644 C 628.808 -0.891703 5.79884 0
M  V30 6645 C 631.16 -0.647767 6.29275 0
M  V30 6646 C 629.824 -0.477371 6.65791 0
M  V30 6647 H 629.094 -0.429085 0.604125 0
M  V30 6648 H 631.741 -0.461852 1.85847 0
M  V30 6649 H 630.046 -2.97581 2.54859 0
M  V30 6650 H 631.743 -2.78163 2.88836 0
M  V30 6651 H 628.333 -1.76946 3.90369 0
M  V30 6652 H 632.517 -1.33133 4.7811 0
M  V30 6653 H 627.773 -0.747563 6.06813 0
M  V30 6654 H 631.947 -0.317291 6.95677 0
M  V30 6655 H 629.574 -0.0195936 7.60197 0
M  V30 6656 N 631.149 -1.42148 -0.680565 0
M  V30 6657 C 632.397 -1.42029 -1.43779 0
M  V30 6658 C 632.718 -0.0356347 -1.94967 0
M  V30 6659 O 631.988 0.924936 -1.7269 0
M  V30 6660 H 630.568 -0.522835 -0.533529 0
M  V30 6661 H 633.23 -1.7752 -0.804538 0
M  V30 6662 H 632.326 -2.11658 -2.29363 0
M  V30 6663 N 632.627 0.916307 -1.28225 0
M  V30 6664 C 633.557 2.0352 -1.14464 0
M  V30 6665 C 634.538 1.70045 -0.0430844 0
M  V30 6666 O 635.723 1.92954 -0.219619 0
M  V30 6667 C 632.853 3.37889 -0.803027 0
M  V30 6668 C 631.807 3.85516 -1.85908 0
M  V30 6669 C 631.133 5.1682 -1.37116 0
M  V30 6670 C 632.433 4.07655 -3.26519 0
M  V30 6671 H 634.127 2.1529 -2.08064 0
M  V30 6672 H 631.673 1.03446 -1.00174 0
M  V30 6673 H 633.626 4.15654 -0.693537 0
M  V30 6674 H 632.35 3.26164 0.168674 0
M  V30 6675 H 631.009 3.09953 -1.95767 0
M  V30 6676 H 630.657 5.01497 -0.38859 0
M  V30 6677 H 630.357 5.49657 -2.07728 0
M  V30 6678 H 631.881 5.97143 -1.27484 0
M  V30 6679 H 633.295 4.75953 -3.19596 0
M  V30 6680 H 631.692 4.51818 -3.94943 0
M  V30 6681 H 632.762 3.12553 -3.70727 0
M  V30 6682 N 634.105 1.10431 1.1244 0
M  V30 6683 C 635.333 0.868872 1.87772 0
M  V30 6684 C 635.748 -0.580645 1.7965 0
M  V30 6685 O 635.105 -1.40031 1.17036 0
M  V30 6686 C 635.156 1.30855 3.36986 0
M  V30 6687 O 634.877 2.70123 3.44914 0
M  V30 6688 C 636.378 1.107 4.29256 0
M  V30 6689 H 633.598 0.311868 0.59412 0
M  V30 6690 H 636.142 1.46897 1.42273 0
M  V30 6691 H 634.297 0.752126 3.80029 0
M  V30 6692 H 634.711 2.88923 4.37748 0
M  V30 6693 H 636.185 1.46378 5.32238 0
M  V30 6694 H 636.662 0.0456228 4.39176 0
M  V30 6695 H 637.268 1.64988 3.91994 0
M  V30 6696 N 635.583 -1.29855 0.893053 0
M  V30 6697 C 636.86 -1.90694 0.435336 0
M  V30 6698 C 637.24 -1.8111 -1.08454 0
M  V30 6699 O 636.588 -1.23352 -1.92345 0
M  V30 6700 C 636.798 -3.36033 0.942472 0
M  V30 6701 C 638.146 -4.13083 0.982226 0
M  V30 6702 O 639.17 -3.4491 0.889686 0
M  V30 6703 O 638.029 -5.34896 1.12022 0
M  V30 6704 H 635.123 -0.815978 0.134567 0
M  V30 6705 H 637.669 -1.38367 0.982484 0
M  V30 6706 H 636.441 -3.37132 1.9864 0
M  V30 6707 H 636.064 -3.95828 0.374952 0
M  V30 6708 N 637.061 -0.65484 -1.43351 0
M  V30 6709 C 637.971 0.0363603 -2.34572 0
M  V30 6710 C 638.987 0.810432 -1.53974 0
M  V30 6711 O 640.163 0.757308 -1.86619 0
M  V30 6712 C 637.228 0.989733 -3.32273 0
M  V30 6713 C 636.289 0.212414 -4.28774 0
M  V30 6714 C 635.522 1.12038 -5.21808 0
M  V30 6715 O 635.745 2.35967 -5.19303 0
M  V30 6716 O 634.679 0.59191 -5.98982 0
M  V30 6717 H 638.505 -0.714527 -2.95175 0
M  V30 6718 H 636.09 -0.415029 -1.4352 0
M  V30 6719 H 637.972 1.53759 -3.92347 0
M  V30 6720 H 636.647 1.72082 -2.74171 0
M  V30 6721 H 635.554 -0.379062 -3.72175 0
M  V30 6722 H 636.887 -0.479138 -4.89862 0
M  V30 6723 N 638.539 1.52521 -0.396863 0
M  V30 6724 C 639.769 2.05792 0.182485 0
M  V30 6725 C 640.177 1.26784 1.40436 0
M  V30 6726 O 639.52 0.309617 1.81072 0
M  V30 6727 C 639.582 3.54291 0.609781 0
M  V30 6728 C 639.246 4.5426 -0.499674 0
M  V30 6729 C 640.243 5.01812 -1.35944 0
M  V30 6730 C 637.928 4.97827 -0.668864 0
M  V30 6731 C 639.922 5.91562 -2.37346 0
M  V30 6732 C 637.609 5.87376 -1.68621 0
M  V30 6733 C 638.607 6.34137 -2.53692 0
M  V30 6734 O 638.295 7.21915 -3.53686 0
M  V30 6735 H 638.027 0.675362 0.0293583 0
M  V30 6736 H 640.581 1.97539 -0.56281 0
M  V30 6737 H 638.811 3.60188 1.40717 0
M  V30 6738 H 640.5 3.90267 1.11565 0
M  V30 6739 H 641.266 4.68879 -1.24008 0
M  V30 6740 H 637.145 4.60997 -0.0163971 0
M  V30 6741 H 640.689 6.27983 -3.03782 0
M  V30 6742 H 636.586 6.19723 -1.80593 0
M  V30 6743 H 637.354 7.39996 -3.49784 0
M  V30 6744 N 640.017 0.126909 1.57088 0
M  V30 6745 C 640.98 -0.806097 2.14557 0
M  V30 6746 C 641.98 -1.18918 1.08236 0
M  V30 6747 O 643.17 -1.11339 1.33975 0
M  V30 6748 C 640.302 -2.09116 2.69227 0
M  V30 6749 H 641.495 -0.306522 2.98329 0
M  V30 6750 H 639.048 -0.122393 1.5582 0
M  V30 6751 H 639.783 -2.63486 1.89065 0
M  V30 6752 H 639.568 -1.82588 3.46993 0
M  V30 6753 H 641.058 -2.75794 3.13572 0
M  V30 6754 N 641.495 -1.56914 -0.146875 0
M  V30 6755 C 642.743 -1.82994 -0.85777 0
M  V30 6756 C 643.064 -0.707814 -1.817 0
M  V30 6757 O 642.334 0.270521 -1.94023 0
M  V30 6758 H 640.914 -0.675106 -0.319751 0
M  V30 6759 H 643.576 -1.9439 -0.140849 0
M  V30 6760 H 642.672 -2.77928 -1.41994 0
M  V30 6761 N 642.974 0.416227 -1.52004 0
M  V30 6762 C 643.906 1.52552 -1.71058 0
M  V30 6763 C 644.919 1.51693 -0.59102 0
M  V30 6764 O 646.108 1.56087 -0.865973 0
M  V30 6765 C 643.208 2.91455 -1.72937 0
M  V30 6766 C 642.381 3.16584 -3.01816 0
M  V30 6767 C 641.44 4.35322 -2.95603 0
M  V30 6768 O 640.466 4.32947 -3.6952 0
M  V30 6769 N 641.668 5.40049 -2.12903 0
M  V30 6770 H 644.433 1.36604 -2.66757 0
M  V30 6771 H 641.994 0.60544 -1.50153 0
M  V30 6772 H 643.986 3.68944 -1.66321 0
M  V30 6773 H 642.556 3.00895 -0.847418 0
M  V30 6774 H 641.776 2.27203 -3.22137 0
M  V30 6775 H 643.064 3.30213 -3.87088 0
M  V30 6776 H 642.462 5.44823 -1.52265 0
M  V30 6777 H 641.019 6.16308 -2.1215 0
M  V30 6778 N 644.452 1.42507 0.673017 0
M  V30 6779 C 645.382 1.48916 1.79851 0
M  V30 6780 C 646.363 0.345566 1.66553 0
M  V30 6781 O 647.548 0.560116 1.85947 0
M  V30 6782 C 644.678 1.39258 3.18158 0
M  V30 6783 C 643.632 2.51662 3.46194 0
M  V30 6784 C 642.958 2.27062 4.84094 0
M  V30 6785 C 644.258 3.93968 3.42909 0
M  V30 6786 H 645.952 2.43114 1.74745 0
M  V30 6787 H 643.498 1.17013 0.839288 0
M  V30 6788 H 645.451 1.42349 3.96629 0
M  V30 6789 H 644.175 0.415542 3.23946 0
M  V30 6790 H 642.834 2.47891 2.70084 0
M  V30 6791 H 642.482 1.27648 4.86534 0
M  V30 6792 H 642.182 3.02398 5.03815 0
M  V30 6793 H 643.706 2.31905 5.64847 0
M  V30 6794 H 645.12 3.99332 4.11347 0
M  V30 6795 H 643.517 4.6917 3.74165 0
M  V30 6796 H 644.587 4.20512 2.41449 0
M  V30 6797 N 645.93 -0.909495 1.28709 0
M  V30 6798 C 647.341 -1.47419 1.14563 0
M  V30 6799 C 647.692 -1.94432 -0.262832 0
M  V30 6800 O 646.817 -1.82842 -1.15748 0
M  V30 6801 C 647.412 -2.67933 2.07358 0
M  V30 6802 C 645.971 -3.20568 1.97264 0
M  V30 6803 C 645.118 -1.93269 1.98852 0
M  V30 6804 H 648.069 -0.721787 1.41336 0
M  V30 6805 H 648.09 -3.43339 1.64007 0
M  V30 6806 H 647.602 -2.33685 3.09859 0
M  V30 6807 H 645.703 -3.59531 0.978157 0
M  V30 6808 H 645.816 -3.85529 2.84436 0
M  V30 6809 H 644.18 -2.10553 1.43317 0
M  V30 6810 H 644.963 -1.61312 3.0304 0
M  V30 6811 N 647.408 -1.11026 -1.11852 0
M  V30 6812 C 648.371 -0.768006 -2.1595 0
M  V30 6813 C 649.371 0.210538 -1.59416 0
M  V30 6814 O 650.561 -0.0133978 -1.74195 0
M  V30 6815 C 647.693 -0.138678 -3.40618 0
M  V30 6816 H 648.886 -1.69012 -2.4774 0
M  V30 6817 H 646.439 -0.911578 -1.26964 0
M  V30 6818 H 647.174 0.793872 -3.14433 0
M  V30 6819 H 646.959 -0.843012 -3.8293 0
M  V30 6820 H 648.449 0.0848039 -4.17514 0
M  V30 6821 N 648.886 1.2938 -0.899927 0
M  V30 6822 C 650.163 1.9046 -0.445443 0
M  V30 6823 C 650.543 1.81683 1.07492 0
M  V30 6824 O 649.891 1.24371 1.91688 0
M  V30 6825 C 650.101 3.35529 -0.960279 0
M  V30 6826 C 651.449 4.12556 -1.00412 0
M  V30 6827 O 652.473 3.44434 -0.907965 0
M  V30 6828 O 651.332 5.34294 -1.14857 0
M  V30 6829 H 648.426 0.815253 -0.138893 0
M  V30 6830 H 650.972 1.37844 -0.989808 0
M  V30 6831 H 649.744 3.36074 -2.00425 0
M  V30 6832 H 649.367 3.95624 -0.395939 0
M  V30 6833 N 650.364 0.662433 1.43002 0
M  V30 6834 C 651.312 -0.035345 2.32573 0
M  V30 6835 C 652.306 -0.803505 1.49131 0
M  V30 6836 O 653.512 -0.712865 1.65282 0
M  V30 6837 H 649.887 -0.0302194 0.751393 0
M  V30 6838 H 651.858 0.737686 2.89138 0
M  V30 6839 C 650.607 -0.981575 3.33557 0
M  V30 6840 H 649.93 -0.399914 3.97795 0
M  V30 6841 H 651.37 -1.43873 3.98844 0
M  V30 6842 C 649.829 -2.08204 2.64863 0
M  V30 6843 O 650.359 -3.16698 2.47113 0
M  V30 6844 N 648.565 -1.85022 2.24088 0
M  V30 6845 H 648.112 -0.967909 2.38724 0
M  V30 6846 H 648.07 -2.58845 1.78457 0
M  V30 6847 N 651.842 -1.52309 0.404946 0
M  V30 6848 C 653.091 -2.00952 -0.173529 0
M  V30 6849 C 653.404 -1.29512 -1.46581 0
M  V30 6850 O 654.61 -1.6895 -2.12528 0
M  V30 6851 C 653.066 -3.58097 -0.359801 0
M  V30 6852 C 652.674 -4.38449 0.920138 0
M  V30 6853 C 654.418 -4.14984 -0.893794 0
M  V30 6854 C 652.325 -5.87227 0.701285 0
M  V30 6855 H 651.255 -0.750871 -0.0686244 0
M  V30 6856 H 653.906 -1.75687 0.529749 0
M  V30 6857 H 652.288 -3.79675 -1.12531 0
M  V30 6858 H 653.462 -4.28633 1.69147 0
M  V30 6859 H 651.777 -3.92859 1.38024 0
M  V30 6860 H 654.374 -5.23813 -1.0735 0
M  V30 6861 H 654.717 -3.72072 -1.8673 0
M  V30 6862 H 655.25 -3.97358 -0.187453 0
M  V30 6863 H 651.989 -6.34491 1.64624 0
M  V30 6864 H 651.509 -5.99792 -0.0308288 0
M  V30 6865 H 653.188 -6.46096 0.341846 0
M  V30 6866 N 653.32 -0.135238 -1.57019 0
M  V30 6867 C 654.566 0.519563 -1.96032 0
M  V30 6868 C 654.899 1.65284 -1.01955 0
M  V30 6869 O 654.174 1.94408 -0.059727 0
M  V30 6870 C 654.457 1.0369 -3.44848 0
M  V30 6871 C 654.31 -0.0940754 -4.49702 0
M  V30 6872 C 655.629 1.92254 -3.95887 0
M  V30 6873 H 652.748 0.18739 -0.712779 0
M  V30 6874 H 655.39 -0.214086 -1.8879 0
M  V30 6875 H 653.54 1.66209 -3.5115 0
M  V30 6876 H 655.212 -0.73 -4.55487 0
M  V30 6877 H 653.455 -0.754924 -4.27181 0
M  V30 6878 H 654.126 0.309419 -5.51132 0
M  V30 6879 H 656.602 1.39581 -3.9199 0
M  V30 6880 H 655.478 2.25364 -5.00502 0
M  V30 6881 H 655.739 2.85513 -3.37543 0
M  V30 6882 N 654.798 1.5699 0.138552 0
M  V30 6883 C 655.746 1.99858 1.18994 0
M  V30 6884 C 656.74 0.89231 1.43994 0
M  V30 6885 O 657.946 1.0775 1.44187 0
M  V30 6886 H 654.321 0.636325 0.400743 0
M  V30 6887 H 656.292 2.87427 0.801755 0
M  V30 6888 C 655.041 2.40235 2.51361 0
M  V30 6889 H 654.364 3.24917 2.32957 0
M  V30 6890 H 655.804 2.74045 3.23535 0
M  V30 6891 C 654.263 1.25829 3.1252 0
M  V30 6892 O 654.793 0.563604 3.97727 0
M  V30 6893 N 652.999 1.02036 2.72097 0
M  V30 6894 H 652.546 1.58705 2.02905 0
M  V30 6895 H 652.504 0.256796 3.1335 0
M  V30 6896 N 656.276 -0.40816 1.52223 0
M  V30 6897 C 657.525 -1.15212 1.65557 0
M  V30 6898 C 657.838 -1.9163 0.392096 0
M  V30 6899 O 659.044 -2.68458 0.405256 0
M  V30 6900 C 657.5 -2.09691 2.92502 0
M  V30 6901 C 657.108 -1.38785 4.25961 0
M  V30 6902 C 658.852 -2.8434 3.152 0
M  V30 6903 C 656.759 -2.31919 5.44029 0
M  V30 6904 H 655.689 -0.433776 0.616729 0
M  V30 6905 H 658.34 -0.4165 1.78711 0
M  V30 6906 H 656.722 -2.8681 2.7305 0
M  V30 6907 H 657.896 -0.670248 4.55899 0
M  V30 6908 H 656.211 -0.761741 4.09373 0
M  V30 6909 H 658.808 -3.54166 4.00587 0
M  V30 6910 H 659.151 -3.47344 2.29473 0
M  V30 6911 H 659.684 -2.14321 3.35129 0
M  V30 6912 H 656.423 -1.7356 6.32105 0
M  V30 6913 H 655.943 -3.0165 5.18428 0
M  V30 6914 H 657.622 -2.92424 5.77146 0
M  V30 6915 N 657.755 -1.42862 -0.66545 0
M  V30 6916 C 658.718 -1.46756 -1.76055 0
M  V30 6917 C 659.718 -0.353866 -1.56858 0
M  V30 6918 O 660.908 -0.615099 -1.62979 0
M  V30 6919 C 658.04 -1.30829 -3.14796 0
M  V30 6920 H 659.233 -2.44271 -1.73987 0
M  V30 6921 H 656.786 -1.29447 -0.875965 0
M  V30 6922 H 657.521 -0.342733 -3.22484 0
M  V30 6923 H 657.306 -2.11551 -3.30134 0
M  V30 6924 H 658.796 -1.36458 -3.94676 0
M  V30 6925 N 659.233 0.902656 -1.29189 0
M  V30 6926 C 660.165 2.01149 -1.09872 0
M  V30 6927 C 661.178 1.62732 -0.0471046 0
M  V30 6928 O 662.367 1.76107 -0.29132 0
M  V30 6929 C 659.467 3.32612 -0.649818 0
M  V30 6930 C 658.64 3.99574 -1.7793 0
M  V30 6931 C 657.699 5.09325 -1.32191 0
M  V30 6932 O 656.725 5.31919 -2.02611 0
M  V30 6933 N 657.927 5.80185 -0.191171 0
M  V30 6934 H 660.692 2.18276 -2.05368 0
M  V30 6935 H 658.253 1.07466 -1.2109 0
M  V30 6936 H 660.245 4.03375 -0.327199 0
M  V30 6937 H 658.815 3.11876 0.212597 0
M  V30 6938 H 658.035 3.22213 -2.27095 0
M  V30 6939 H 659.323 4.41056 -2.53668 0
M  V30 6940 H 658.721 5.64312 0.396016 0
M  V30 6941 H 657.278 6.5176 0.0721001 0
M  V30 6942 N 660.711 1.11618 1.11262 0
M  V30 6943 C 661.936 0.889013 1.8738 0
M  V30 6944 C 662.361 -0.555884 1.79698 0
M  V30 6945 O 661.719 -1.39272 1.16073 0
M  V30 6946 C 661.767 1.35759 3.34069 0
M  V30 6947 O 660.871 0.530499 4.08974 0
M  V30 6948 H 660.212 0.320082 0.581759 0
M  V30 6949 H 662.742 1.48611 1.40627 0
M  V30 6950 H 662.752 1.35291 3.84916 0
M  V30 6951 H 661.427 2.40973 3.38976 0
M  V30 6952 H 660.004 0.601439 3.68018 0
M  V30 6953 N 662.189 -1.289 0.906776 0
M  V30 6954 C 663.414 -1.99939 0.551303 0
M  V30 6955 C 663.839 -1.67366 -0.858496 0
M  V30 6956 O 663.197 -0.902176 -1.57259 0
M  V30 6957 C 663.245 -3.52523 0.758937 0
M  V30 6958 O 662.349 -4.11983 -0.185308 0
M  V30 6959 H 661.69 -0.628376 0.214568 0
M  V30 6960 H 664.22 -1.64225 1.2203 0
M  V30 6961 H 664.23 -4.02522 0.666329 0
M  V30 6962 H 662.905 -3.75566 1.78671 0
M  V30 6963 H 661.482 -3.72873 -0.0445577 0
M  V30 6964 N 663.667 -0.670007 -1.42649 0
M  V30 6965 C 664.914 -0.190286 -2.01604 0
M  V30 6966 C 665.242 1.20155 -1.52948 0
M  V30 6967 O 664.497 1.81964 -0.72026 0
M  V30 6968 C 664.796 -0.168298 -3.57004 0
M  V30 6969 C 664.462 -1.50415 -4.25072 0
M  V30 6970 C 663.124 -1.86992 -4.43382 0
M  V30 6971 C 665.476 -2.38414 -4.63474 0
M  V30 6972 C 662.804 -3.11203 -4.97363 0
M  V30 6973 C 665.156 -3.61933 -5.18833 0
M  V30 6974 C 663.82 -3.98685 -5.35356 0
M  V30 6975 H 663.09 -0.0696305 -0.737721 0
M  V30 6976 H 665.737 -0.864044 -1.70899 0
M  V30 6977 H 664.042 0.588958 -3.87348 0
M  V30 6978 H 665.739 0.22001 -4.00396 0
M  V30 6979 H 662.329 -1.20959 -4.11177 0
M  V30 6980 H 666.513 -2.11442 -4.49006 0
M  V30 6981 H 661.769 -3.39705 -5.08341 0
M  V30 6982 H 665.943 -4.30326 -5.47533 0
M  V30 6983 H 663.57 -4.95009 -5.76949 0
M  V30 6984 N 665.145 1.52092 -0.413018 0
M  V30 6985 C 666.393 2.01456 0.161178 0
M  V30 6986 C 666.714 1.30034 1.45314 0
M  V30 6987 O 665.984 0.427435 1.9118 0
M  V30 6988 H 664.564 0.744376 0.0625526 0
M  V30 6989 H 667.226 1.86974 -0.550151 0
M  V30 6990 H 666.322 3.1008 0.354517 0
M  V30 6991 N 666.623 0.143563 1.56945 0
M  V30 6992 C 667.555 -0.828353 2.13708 0
M  V30 6993 C 668.568 -1.21313 1.08568 0
M  V30 6994 O 669.757 -1.1578 1.35857 0
M  V30 6995 C 666.857 -2.12248 2.64204 0
M  V30 6996 C 666.03 -1.90561 3.93707 0
M  V30 6997 C 665.089 -3.03931 4.29549 0
M  V30 6998 O 664.115 -2.75772 4.97934 0
M  V30 6999 N 665.317 -4.31016 3.88852 0
M  V30 7000 H 668.082 -0.343242 2.97728 0
M  V30 7001 H 665.643 -0.0401152 1.6185 0
M  V30 7002 H 667.635 -2.87132 2.85197 0
M  V30 7003 H 666.205 -2.52033 1.84928 0
M  V30 7004 H 665.425 -0.997327 3.81375 0
M  V30 7005 H 666.713 -1.73405 4.78339 0
M  V30 7006 H 666.111 -4.56762 3.33743 0
M  V30 7007 H 664.668 -5.02691 4.14903 0
M  V30 7008 N 668.101 -1.57061 -0.130224 0
M  V30 7009 C 669.349 -1.83893 -0.838313 0
M  V30 7010 C 669.67 -0.727046 -1.80939 0
M  V30 7011 O 668.94 0.249927 -1.94299 0
M  V30 7012 H 667.52 -0.67846 -0.312573 0
M  V30 7013 H 670.182 -1.94529 -0.120224 0
M  V30 7014 H 669.278 -2.79419 -1.39038 0
M  V30 7015 N 669.579 0.400081 -1.52437 0
M  V30 7016 C 670.828 1.14332 -1.66166 0
M  V30 7017 C 671.141 1.91419 -0.402253 0
M  V30 7018 O 672.347 2.6824 -0.419487 0
M  V30 7019 C 670.803 2.08137 -2.9361 0
M  V30 7020 C 670.411 1.36524 -4.26691 0
M  V30 7021 C 672.155 2.82664 -3.16703 0
M  V30 7022 C 670.062 2.29031 -5.45251 0
M  V30 7023 H 668.992 0.430499 -0.61902 0
M  V30 7024 H 671.643 0.407017 -1.78929 0
M  V30 7025 H 670.025 2.85358 -2.74567 0
M  V30 7026 H 671.199 0.646061 -4.56249 0
M  V30 7027 H 669.514 0.74002 -4.09771 0
M  V30 7028 H 672.111 3.52037 -4.0246 0
M  V30 7029 H 672.454 3.46122 -2.31312 0
M  V30 7030 H 672.987 2.12541 -3.36261 0
M  V30 7031 H 669.726 1.70206 -6.33017 0
M  V30 7032 H 669.246 2.98896 -5.2002 0
M  V30 7033 H 670.925 2.89359 -5.78689 0
M  V30 7034 N 671.057 1.43213 0.657864 0
M  V30 7035 C 672.282 1.48227 1.45064 0
M  V30 7036 C 672.707 0.0999939 1.87834 0
M  V30 7037 O 672.065 -0.905269 1.57081 0
M  V30 7038 C 672.113 2.42931 2.6649 0
M  V30 7039 O 671.217 1.91237 3.6538 0
M  V30 7040 H 670.558 0.501551 0.435135 0
M  V30 7041 H 673.088 1.8808 0.805431 0
M  V30 7042 H 673.098 2.6008 3.1436 0
M  V30 7043 H 671.773 3.43348 2.34701 0
M  V30 7044 H 670.35 1.83726 3.24498 0
M  V30 7045 N 672.536 -0.895792 1.29666 0
M  V30 7046 C 673.782 -1.64908 1.18039 0
M  V30 7047 C 674.115 -1.9236 -0.266682 0
M  V30 7048 O 673.39 -1.53682 -1.19214 0
M  V30 7049 C 673.673 -2.99574 1.99819 0
M  V30 7050 C 673.526 -2.79163 3.52687 0
M  V30 7051 C 674.845 -4.00358 1.82761 0
M  V30 7052 H 671.964 -0.598437 0.430165 0
M  V30 7053 H 674.606 -1.03736 1.59182 0
M  V30 7054 H 672.756 -3.51786 1.64859 0
M  V30 7055 H 674.428 -2.33821 3.9765 0
M  V30 7056 H 672.671 -2.13871 3.77414 0
M  V30 7057 H 673.342 -3.74871 4.05186 0
M  V30 7058 H 675.818 -3.57268 2.13304 0
M  V30 7059 H 674.694 -4.92514 2.42325 0
M  V30 7060 H 674.955 -4.35096 0.783839 0
M  V30 7061 N 674.014 -1.12206 -1.10668 0
M  V30 7062 C 675.242 -0.898635 -1.86366 0
M  V30 7063 C 675.657 0.551991 -1.80551 0
M  V30 7064 O 675.014 1.38152 -1.19249 0
M  V30 7065 C 675.065 -1.36199 -3.34861 0
M  V30 7066 O 674.786 -2.75576 -3.40573 0
M  V30 7067 C 676.287 -1.17515 -4.2744 0
M  V30 7068 H 673.507 -0.321281 -0.589084 0
M  V30 7069 H 676.051 -1.49142 -1.39918 0
M  V30 7070 H 674.206 -0.81249 -3.78784 0
M  V30 7071 H 674.62 -2.95851 -4.33096 0
M  V30 7072 H 676.094 -1.54827 -5.29842 0
M  V30 7073 H 676.571 -0.115486 -4.39048 0
M  V30 7074 H 677.177 -1.71203 -3.89319 0
M  V30 7075 N 675.492 1.28418 -0.913599 0
M  V30 7076 C 676.424 2.26368 -0.359169 0
M  V30 7077 C 677.437 1.54858 0.502285 0
M  V30 7078 O 678.626 1.75659 0.31719 0
M  V30 7079 C 675.726 3.35112 0.50526 0
M  V30 7080 C 674.899 4.36126 -0.333648 0
M  V30 7081 C 673.958 5.24134 0.465845 0
M  V30 7082 O 672.984 5.6907 -0.121538 0
M  V30 7083 N 674.186 5.52892 1.76891 0
M  V30 7084 H 676.951 2.74579 -1.2011 0
M  V30 7085 H 674.512 1.41898 -0.779532 0
M  V30 7086 H 676.504 3.90926 1.04684 0
M  V30 7087 H 675.074 2.86611 1.2479 0
M  V30 7088 H 674.294 3.79776 -1.0566 0
M  V30 7089 H 675.582 5.00638 -0.907669 0
M  V30 7090 H 674.98 5.18217 2.26865 0
M  V30 7091 H 673.537 6.11464 2.25732 0
M  V30 7092 N 676.97 0.677563 1.42291 0
M  V30 7093 C 678.198 0.209459 2.05837 0
M  V30 7094 C 678.613 -1.13444 1.50917 0
M  V30 7095 O 677.97 -1.70529 0.65008 0
M  V30 7096 C 678.021 0.138819 3.61233 0
M  V30 7097 O 677.742 1.42962 4.14118 0
M  V30 7098 C 679.243 -0.352449 4.41897 0
M  V30 7099 H 676.463 0.101209 0.663323 0
M  V30 7100 H 679.007 0.925077 1.8238 0
M  V30 7101 H 677.162 -0.527505 3.83792 0
M  V30 7102 H 677.576 1.3048 5.08011 0
M  V30 7103 H 679.05 -0.350778 5.50884 0
M  V30 7104 H 679.527 -1.3882 4.16684 0
M  V30 7105 H 680.133 0.282236 4.24362 0
M  V30 7106 N 678.448 -1.51871 0.421078 0
M  V30 7107 C 679.38 -2.25052 -0.434065 0
M  V30 7108 C 680.393 -1.28458 -1.00013 0
M  V30 7109 O 681.582 -1.54323 -0.897033 0
M  V30 7110 C 678.682 -2.97813 -1.61743 0
M  V30 7111 C 677.855 -4.21374 -1.17315 0
M  V30 7112 C 676.914 -4.76854 -2.22478 0
M  V30 7113 O 675.94 -5.39123 -1.82577 0
M  V30 7114 N 677.142 -4.59467 -3.54782 0
M  V30 7115 H 679.907 -2.99077 0.193073 0
M  V30 7116 H 677.468 -1.59972 0.249088 0
M  V30 7117 H 679.46 -3.3182 -2.31685 0
M  V30 7118 H 678.03 -2.26899 -2.15024 0
M  V30 7119 H 677.25 -3.93046 -0.3014 0
M  V30 7120 H 678.538 -5.01591 -0.853444 0
M  V30 7121 H 677.936 -4.09832 -3.89941 0
M  V30 7122 H 676.493 -4.9788 -4.20665 0
M  V30 7123 N 679.926 -0.151884 -1.56866 0
M  V30 7124 C 680.859 0.824094 -2.128 0
M  V30 7125 C 681.837 1.2391 -1.05286 0
M  V30 7126 O 683.021 1.33433 -1.33146 0
M  V30 7127 C 680.148 2.1072 -2.65169 0
M  V30 7128 C 679.194 1.83774 -3.84876 0
M  V30 7129 S 680.027 1.02436 -5.25611 0
M  V30 7130 C 681.183 2.31855 -5.81373 0
M  V30 7131 H 681.416 0.348456 -2.95251 0
M  V30 7132 H 678.949 0.0624794 -1.54274 0
M  V30 7133 H 680.907 2.84428 -2.95992 0
M  V30 7134 H 679.568 2.55398 -1.8284 0
M  V30 7135 H 678.761 2.78929 -4.19779 0
M  V30 7136 H 678.363 1.18172 -3.5484 0
M  V30 7137 H 680.655 3.27469 -5.93102 0
M  V30 7138 H 681.598 2.01449 -6.7884 0
M  V30 7139 H 682.006 2.42727 -5.09651 0
M  V30 7140 N 681.404 1.57128 0.121893 0
M  V30 7141 C 682.653 1.83888 0.828748 0
M  V30 7142 C 682.966 0.737087 1.81181 0
M  V30 7143 O 684.172 0.891007 2.56463 0
M  V30 7144 C 682.628 3.26014 1.52455 0
M  V30 7145 C 682.236 4.44195 0.58263 0
M  V30 7146 C 683.98 3.62025 2.21671 0
M  V30 7147 C 681.887 5.77349 1.28149 0
M  V30 7148 H 680.817 0.685856 0.313238 0
M  V30 7149 H 683.468 1.83319 0.0814851 0
M  V30 7150 H 681.85 3.21044 2.31834 0
M  V30 7151 H 683.024 4.60457 -0.177729 0
M  V30 7152 H 681.339 4.164 -0.00241228 0
M  V30 7153 H 683.936 4.58776 2.74643 0
M  V30 7154 H 684.279 2.89315 2.99337 0
M  V30 7155 H 684.812 3.68767 1.49184 0
M  V30 7156 H 681.551 6.53221 0.546189 0
M  V30 7157 H 681.071 5.64978 2.01394 0
M  V30 7158 H 682.75 6.21006 1.81549 0
M  V30 7159 N 682.882 -0.391992 1.52647 0
M  V30 7160 C 684.298 -0.731848 1.41831 0
M  V30 7161 C 684.498 -1.9423 0.536361 0
M  V30 7162 O 683.554 -2.52499 0.00866571 0
M  V30 7163 C 684.867 -0.969743 2.84634 0
M  V30 7164 C 686.415 -1.0714 2.94092 0
M  V30 7165 C 686.89 -1.34195 4.37899 0
M  V30 7166 N 688.381 -1.41023 4.41211 0
M  V30 7167 C 689.116 -1.63616 5.49561 0
M  V30 7168 N 688.612 -1.83699 6.68002 0
M  V30 7169 N 690.405 -1.65771 5.371 0
M  V30 7170 H 682.556 0.404547 2.08512 0
M  V30 7171 H 684.819 0.11879 0.940528 0
M  V30 7172 H 684.525 -0.152465 3.51369 0
M  V30 7173 H 684.399 -1.88523 3.26709 0
M  V30 7174 H 686.786 -1.87925 2.27526 0
M  V30 7175 H 686.867 -0.133887 2.55449 0
M  V30 7176 H 686.511 -0.539207 5.0503 0
M  V30 7177 H 686.441 -2.29226 4.74092 0
M  V30 7178 H 688.932 -1.27223 3.55841 0
M  V30 7179 H 689.245 -2.00437 7.46354 0
M  V30 7180 H 687.59 -1.8093 6.71036 0
M  V30 7181 H 690.781 -1.4963 4.43541 0
M  V30 7182 H 690.954 -1.83038 6.21612 0
M  V30 7183 N 684.36 -1.4356 -0.65026 0
M  V30 7184 C 685.323 -1.48615 -1.74489 0
M  V30 7185 C 686.323 -0.370483 -1.56474 0
M  V30 7186 O 687.513 -0.632351 -1.62317 0
M  V30 7187 C 684.645 -1.34161 -3.13391 0
M  V30 7188 H 685.838 -2.46103 -1.71387 0
M  V30 7189 H 683.391 -1.30369 -0.862186 0
M  V30 7190 H 684.126 -0.376918 -3.22102 0
M  V30 7191 H 683.911 -2.1504 -3.27872 0
M  V30 7192 H 685.401 -1.40637 -3.93206 0
M  V30 7193 N 685.838 0.888903 -1.30139 0
M  V30 7194 C 687.085 1.64037 -1.18736 0
M  V30 7195 C 687.413 1.92771 0.258801 0
M  V30 7196 O 686.668 1.54427 1.20212 0
M  V30 7197 C 686.967 2.99041 -1.95728 0
M  V30 7198 C 686.633 2.89874 -3.45375 0
M  V30 7199 C 685.295 2.87082 -3.86183 0
M  V30 7200 C 687.647 2.78289 -4.40687 0
M  V30 7201 C 684.975 2.70536 -5.20603 0
M  V30 7202 C 687.327 2.63282 -5.75209 0
M  V30 7203 C 685.991 2.58861 -6.15262 0
M  V30 7204 H 685.261 0.600253 -0.434485 0
M  V30 7205 H 687.908 1.0338 -1.61198 0
M  V30 7206 H 686.213 3.63626 -1.45888 0
M  V30 7207 H 687.91 3.56139 -1.843 0
M  V30 7208 H 684.5 2.92856 -3.12943 0
M  V30 7209 H 688.684 2.79516 -4.10103 0
M  V30 7210 H 683.94 2.65526 -5.50732 0
M  V30 7211 H 688.114 2.5329 -6.48704 0
M  V30 7212 H 685.741 2.45799 -7.19366 0
M  V30 7213 N 687.317 1.12792 1.10072 0
M  V30 7214 C 688.545 0.908506 1.85886 0
M  V30 7215 C 688.96 -0.542408 1.80841 0
M  V30 7216 O 688.317 -1.37517 1.1998 0
M  V30 7217 C 688.368 1.37973 3.34134 0
M  V30 7218 O 688.089 2.77378 3.39106 0
M  V30 7219 C 689.59 1.1978 4.26811 0
M  V30 7220 H 686.81 0.3244 0.587372 0
M  V30 7221 H 689.354 1.49882 1.39125 0
M  V30 7222 H 687.509 0.832566 3.78348 0
M  V30 7223 H 687.923 2.98144 4.31521 0
M  V30 7224 H 689.397 1.57635 5.29014 0
M  V30 7225 H 689.874 0.138768 4.38981 0
M  V30 7226 H 690.48 1.73266 3.88406 0
M  V30 7227 N 688.795 -1.27931 0.920396 0
M  V30 7228 C 689.758 -2.25345 0.41858 0
M  V30 7229 C 690.758 -1.54116 -0.458798 0
M  V30 7230 O 691.948 -1.72235 -0.260912 0
M  V30 7231 C 689.08 -3.38556 -0.399104 0
M  V30 7232 H 690.273 -2.71251 1.27918 0
M  V30 7233 H 687.826 -1.39728 0.700406 0
M  V30 7234 H 688.561 -2.98021 -1.27882 0
M  V30 7235 H 688.346 -3.91426 0.229863 0
M  V30 7236 H 689.836 -4.10976 -0.740817 0
M  V30 7237 N 690.273 -0.685099 -1.4193 0
M  V30 7238 C 691.522 -0.208816 -2.00616 0
M  V30 7239 C 691.835 1.19506 -1.54847 0
M  V30 7240 O 693.041 1.76826 -2.06021 0
M  V30 7241 C 691.497 -0.322446 -3.58453 0
M  V30 7242 C 691.105 -1.73102 -4.13206 0
M  V30 7243 C 692.849 0.0945979 -4.24395 0
M  V30 7244 C 690.756 -1.79687 -5.63442 0
M  V30 7245 H 689.686 -0.0743092 -0.750329 0
M  V30 7246 H 692.337 -0.851778 -1.62533 0
M  V30 7247 H 690.719 0.388588 -3.94089 0
M  V30 7248 H 691.893 -2.46997 -3.8901 0
M  V30 7249 H 690.208 -2.09682 -3.59753 0
M  V30 7250 H 692.805 0.0656937 -5.3466 0
M  V30 7251 H 693.148 1.1316 -4.00625 0
M  V30 7252 H 693.681 -0.56579 -3.93756 0
M  V30 7253 H 690.42 -2.81404 -5.92024 0
M  V30 7254 H 689.94 -1.10162 -5.89597 0
M  V30 7255 H 691.619 -1.55498 -6.28036 0
M  V30 7256 N 691.751 1.51645 -0.429126 0
M  V30 7257 C 692.714 2.26116 0.374726 0
M  V30 7258 C 693.714 1.29242 0.956714 0
M  V30 7259 O 694.904 1.53022 0.832452 0
M  V30 7260 C 692.036 3.04669 1.52937 0
M  V30 7261 H 693.229 2.9861 -0.277818 0
M  V30 7262 H 690.782 1.55236 -0.182097 0
M  V30 7263 H 691.517 2.36571 2.21821 0
M  V30 7264 H 691.302 3.75814 1.11833 0
M  V30 7265 H 692.792 3.61102 2.09751 0
M  V30 7266 N 693.229 0.160201 1.56784 0
M  V30 7267 C 694.177 -0.791402 2.18723 0
M  V30 7268 C 695.171 -1.24567 1.14801 0
M  V30 7269 O 696.377 -1.21262 1.33025 0
M  V30 7270 H 692.752 -0.273458 0.700517 0
M  V30 7271 H 694.723 -0.244931 2.97393 0
M  V30 7272 C 693.472 -2.01509 2.83354 0
M  V30 7273 H 692.795 -1.67454 3.63041 0
M  V30 7274 H 694.235 -2.66006 3.30177 0
M  V30 7275 C 692.694 -2.83159 1.82545 0
M  V30 7276 O 693.224 -3.79944 1.30405 0
M  V30 7277 N 691.43 -2.47953 1.51552 0
M  V30 7278 H 690.977 -1.69309 1.94144 0
M  V30 7279 H 690.935 -3.02873 0.843519 0
M  V30 7280 N 694.707 -1.5719 -0.113559 0
M  V30 7281 C 695.984 -1.76117 -0.850999 0
M  V30 7282 C 696.364 -0.737085 -1.97814 0
M  V30 7283 O 695.712 0.237942 -2.27258 0
M  V30 7284 C 695.922 -3.21298 -1.36266 0
M  V30 7285 C 697.27 -3.83955 -1.81283 0
M  V30 7286 O 698.294 -3.24934 -1.45933 0
M  V30 7287 O 697.153 -4.87707 -2.46585 0
M  V30 7288 H 694.247 -0.721308 -0.404529 0
M  V30 7289 H 696.793 -1.69423 -0.0968756 0
M  V30 7290 H 695.565 -3.87355 -0.554235 0
M  V30 7291 H 695.188 -3.32552 -2.17933 0
M  V30 7292 N 696.185 0.383891 -1.52853 0
M  V30 7293 C 697.433 1.12619 -1.67814 0
M  V30 7294 C 697.754 1.90354 -0.423141 0
M  V30 7295 O 697.024 1.87649 0.562554 0
M  V30 7296 H 695.604 0.418738 -0.618601 0
M  V30 7297 H 698.266 0.43495 -1.89985 0
M  V30 7298 H 697.362 1.82624 -2.5309 0
M  V30 7299 N 697.663 1.43903 0.642637 0
M  V30 7300 C 698.909 1.46296 1.40447 0
M  V30 7301 C 699.242 0.0908361 1.93987 0
M  V30 7302 O 698.517 -0.889884 1.72949 0
M  V30 7303 C 698.8 2.51399 2.57819 0
M  V30 7304 C 698.653 3.97926 2.09702 0
M  V30 7305 C 699.972 2.53125 3.60022 0
M  V30 7306 H 697.091 0.532676 0.509338 0
M  V30 7307 H 699.733 1.75515 0.727635 0
M  V30 7308 H 697.883 2.26614 3.1556 0
M  V30 7309 H 699.555 4.33804 1.5688 0
M  V30 7310 H 697.798 4.10252 1.40982 0
M  V30 7311 H 698.469 4.67096 2.94152 0
M  V30 7312 H 700.945 2.75242 3.12059 0
M  V30 7313 H 699.821 3.28589 4.39682 0
M  V30 7314 H 700.082 1.56895 4.13324 0
M  V30 7315 N 699.141 -0.881989 1.30609 0
M  V30 7316 C 700.074 -1.99066 1.11571 0
M  V30 7317 C 701.052 -1.62584 0.022516 0
M  V30 7318 O 702.236 -1.87671 0.176644 0
M  V30 7319 C 699.363 -3.3134 0.702237 0
M  V30 7320 C 698.409 -3.86807 1.79673 0
M  V30 7321 S 699.242 -4.13735 3.39976 0
M  V30 7322 C 700.398 -5.49024 3.00538 0
M  V30 7323 H 700.631 -2.1491 2.05429 0
M  V30 7324 H 698.164 -1.03074 1.14957 0
M  V30 7325 H 700.122 -4.07796 0.470415 0
M  V30 7326 H 698.783 -3.13349 -0.217034 0
M  V30 7327 H 697.976 -4.82397 1.45977 0
M  V30 7328 H 697.578 -3.17102 1.98298 0
M  V30 7329 H 699.87 -6.30208 2.48684 0
M  V30 7330 H 700.813 -5.8766 3.95046 0
M  V30 7331 H 701.221 -5.11726 2.3832 0
M  V30 7332 N 700.619 -1.13374 -1.09472 0
M  V30 7333 C 701.549 -0.833268 -2.18126 0
M  V30 7334 C 702.53 0.207169 -1.68834 0
M  V30 7335 O 703.715 0.0662012 -1.94087 0
M  V30 7336 C 700.845 -0.297979 -3.46019 0
M  V30 7337 C 699.799 -1.27261 -4.08642 0
M  V30 7338 C 699.125 -0.597104 -5.31356 0
M  V30 7339 C 700.425 -2.63095 -4.51197 0
M  V30 7340 H 702.119 -1.74182 -2.43518 0
M  V30 7341 H 699.665 -0.838921 -1.17039 0
M  V30 7342 H 701.618 -0.0754444 -4.21332 0
M  V30 7343 H 700.342 0.645959 -3.20148 0
M  V30 7344 H 699.001 -1.48113 -3.35348 0
M  V30 7345 H 698.649 0.352293 -5.01765 0
M  V30 7346 H 698.349 -1.24734 -5.74208 0
M  V30 7347 H 699.873 -0.38384 -6.09392 0
M  V30 7348 H 701.287 -2.46214 -5.17737 0
M  V30 7349 H 699.684 -3.2429 -5.04932 0
M  V30 7350 H 700.754 -3.20793 -3.6362 0
M  V30 7351 N 702.098 1.27442 -0.927168 0
M  V30 7352 C 703.008 2.30599 -0.431448 0
M  V30 7353 C 704.024 1.67028 0.48761 0
M  V30 7354 O 705.2 1.97962 0.370546 0
M  V30 7355 C 702.265 3.45327 0.308292 0
M  V30 7356 C 701.326 4.24418 -0.645615 0
M  V30 7357 C 700.559 5.33667 0.0589164 0
M  V30 7358 O 700.782 5.5589 1.27838 0
M  V30 7359 O 699.716 5.98774 -0.612638 0
M  V30 7360 H 703.542 2.75036 -1.28797 0
M  V30 7361 H 701.127 1.32382 -0.692495 0
M  V30 7362 H 703.009 4.15107 0.725555 0
M  V30 7363 H 701.684 3.02945 1.14043 0
M  V30 7364 H 700.591 3.57174 -1.11255 0
M  V30 7365 H 701.924 4.70512 -1.44496 0
M  V30 7366 N 703.576 0.692616 1.41565 0
M  V30 7367 C 704.987 0.297478 1.84315 0
M  V30 7368 C 705.338 -1.16379 1.57957 0
M  V30 7369 O 704.463 -1.89303 1.0485 0
M  V30 7370 C 705.058 0.533136 3.34579 0
M  V30 7371 C 703.617 0.191944 3.7591 0
M  V30 7372 C 702.764 0.816873 2.64995 0
M  V30 7373 H 705.715 0.893488 1.31158 0
M  V30 7374 H 705.736 -0.209105 3.79925 0
M  V30 7375 H 705.248 1.59674 3.53731 0
M  V30 7376 H 703.349 -0.867512 3.6236 0
M  V30 7377 H 703.462 0.644902 4.7474 0
M  V30 7378 H 701.826 0.246715 2.53502 0
M  V30 7379 H 702.609 1.88429 2.86966 0
M  V30 7380 N 705.054 -1.51416 0.437162 0
M  V30 7381 C 706.001 -2.27743 -0.374374 0
M  V30 7382 C 706.971 -1.31327 -1.01698 0
M  V30 7383 O 708.156 -1.60229 -1.03592 0
M  V30 7384 C 705.296 -3.12241 -1.46969 0
M  V30 7385 C 704.409 -4.23651 -0.845236 0
M  V30 7386 C 703.544 -4.95458 -1.91559 0
M  V30 7387 C 702.583 -5.98789 -1.26956 0
M  V30 7388 N 701.72 -6.64005 -2.28126 0
M  V30 7389 H 706.56 -2.96654 0.282892 0
M  V30 7390 H 704.097 -1.46319 0.151352 0
M  V30 7391 H 706.055 -3.59556 -2.11602 0
M  V30 7392 H 704.685 -2.45445 -2.09659 0
M  V30 7393 H 703.737 -3.803 -0.0872059 0
M  V30 7394 H 705.049 -4.97683 -0.333582 0
M  V30 7395 H 704.203 -5.46321 -2.63854 0
M  V30 7396 H 702.942 -4.21055 -2.46097 0
M  V30 7397 H 701.947 -5.47219 -0.53207 0
M  V30 7398 H 703.172 -6.75149 -0.731509 0
M  V30 7399 H 701.118 -5.92415 -2.81745 0
M  V30 7400 H 701.035 -7.33802 -1.81852 0
M  V30 7401 H 702.303 -7.19498 -2.99905 0
M  V30 7402 N 706.532 -0.168513 -1.56696 0
M  V30 7403 C 707.779 0.477158 -1.96798 0
M  V30 7404 C 708.107 1.63442 -1.05437 0
M  V30 7405 O 707.362 1.95503 -0.0878903 0
M  V30 7406 C 707.661 1.00441 -3.42996 0
M  V30 7407 C 707.327 -0.0366556 -4.50885 0
M  V30 7408 C 705.989 -0.322785 -4.80116 0
M  V30 7409 C 708.341 -0.743447 -5.1587 0
M  V30 7410 C 705.669 -1.32114 -5.71632 0
M  V30 7411 C 708.021 -1.73077 -6.08463 0
M  V30 7412 C 706.685 -2.02437 -6.36062 0
M  V30 7413 H 705.955 0.174604 -0.720135 0
M  V30 7414 H 708.602 -0.259884 -1.89728 0
M  V30 7415 H 706.907 1.81922 -3.47004 0
M  V30 7416 H 708.604 1.51294 -3.71364 0
M  V30 7417 H 705.194 0.196532 -4.28149 0
M  V30 7418 H 709.378 -0.535602 -4.93401 0
M  V30 7419 H 704.634 -1.55482 -5.913 0
M  V30 7420 H 708.808 -2.28382 -6.57886 0
M  V30 7421 H 706.435 -2.79946 -7.06777 0
M  V30 7422 N 708.01 1.57248 0.105221 0
M  V30 7423 C 709.259 1.84756 0.809198 0
M  V30 7424 C 709.572 0.756262 1.80389 0
M  V30 7425 O 710.778 0.918158 2.55504 0
M  V30 7426 C 709.234 3.27613 1.48989 0
M  V30 7427 C 708.842 4.44788 0.535484 0
M  V30 7428 C 710.586 3.64356 2.17819 0
M  V30 7429 C 708.493 5.78676 1.22019 0
M  V30 7430 H 707.423 0.689139 0.305946 0
M  V30 7431 H 710.074 1.83395 0.0620371 0
M  V30 7432 H 708.456 3.23485 2.28415 0
M  V30 7433 H 709.63 4.60243 -0.226557 0
M  V30 7434 H 707.945 4.16374 -0.0465769 0
M  V30 7435 H 710.542 4.61663 2.69761 0
M  V30 7436 H 710.885 2.92474 2.96251 0
M  V30 7437 H 711.418 3.70328 1.45264 0
M  V30 7438 H 708.157 6.53763 0.476875 0
M  V30 7439 H 707.677 5.67083 1.9539 0
M  V30 7440 H 709.356 6.22897 1.74952 0
M  V30 7441 N 709.488 -0.375779 1.53054 0
M  V30 7442 C 710.713 -1.14484 1.7294 0
M  V30 7443 C 711.138 -1.82572 0.452668 0
M  V30 7444 O 710.496 -1.71343 -0.592567 0
M  V30 7445 C 710.544 -2.15857 2.88857 0
M  V30 7446 O 709.648 -3.22725 2.56753 0
M  V30 7447 H 708.989 -0.332666 0.574656 0
M  V30 7448 H 711.519 -0.436025 1.999 0
M  V30 7449 H 711.529 -2.59631 3.14731 0
M  V30 7450 H 710.204 -1.65689 3.81471 0
M  V30 7451 H 708.781 -2.83996 2.41663 0
M  V30 7452 N 710.966 -1.44241 -0.634997 0
M  V30 7453 C 711.929 -1.50457 -1.72903 0
M  V30 7454 C 712.929 -0.387058 -1.56072 0
M  V30 7455 O 714.119 -0.649531 -1.61638 0
M  V30 7456 C 711.251 -1.37477 -3.1195 0
M  V30 7457 H 712.444 -2.47907 -1.68767 0
M  V30 7458 H 709.997 -1.31276 -0.84831 0
M  V30 7459 H 710.732 -0.41106 -3.21684 0
M  V30 7460 H 710.517 -2.18506 -3.25573 0
M  V30 7461 H 712.007 -1.44799 -3.91692 0
M  V30 7462 N 712.444 0.87505 -1.31075 0
M  V30 7463 C 713.693 1.62245 -1.19831 0
M  V30 7464 C 714.006 1.94078 0.24357 0
M  V30 7465 O 715.212 2.67265 0.477646 0
M  V30 7466 C 713.668 2.92464 -2.09744 0
M  V30 7467 C 713.276 2.68134 -3.58898 0
M  V30 7468 C 715.02 3.70449 -2.07287 0
M  V30 7469 C 712.927 3.9423 -4.40836 0
M  V30 7470 H 711.857 0.608741 -0.444916 0
M  V30 7471 H 714.508 0.967947 -1.55894 0
M  V30 7472 H 712.89 3.59262 -1.66574 0
M  V30 7473 H 714.064 2.09776 -4.10281 0
M  V30 7474 H 712.379 2.03511 -3.6328 0
M  V30 7475 H 714.976 4.63983 -2.65752 0
M  V30 7476 H 715.319 4.02611 -1.05876 0
M  V30 7477 H 715.852 3.10528 -2.48631 0
M  V30 7478 H 712.591 3.67221 -5.42982 0
M  V30 7479 H 712.111 4.52058 -3.94213 0
M  V30 7480 H 713.79 4.62162 -4.52786 0
M  V30 7481 N 713.922 1.13953 1.08869 0
M  V30 7482 C 715.152 0.926825 1.84644 0
M  V30 7483 C 715.56 -0.527941 1.81685 0
M  V30 7484 O 714.903 -1.37742 1.21543 0
M  V30 7485 C 714.965 1.34416 3.33426 0
M  V30 7486 C 714.629 2.81351 3.60126 0
M  V30 7487 C 715.626 3.79486 3.55368 0
M  V30 7488 C 713.311 3.1865 3.88288 0
M  V30 7489 C 715.305 5.1293 3.78393 0
M  V30 7490 C 712.992 4.5227 4.10968 0
M  V30 7491 C 713.99 5.4922 4.06013 0
M  V30 7492 O 713.678 6.80429 4.28102 0
M  V30 7493 H 713.41 0.33013 0.589907 0
M  V30 7494 H 715.964 1.51738 1.38436 0
M  V30 7495 H 714.194 0.696901 3.80368 0
M  V30 7496 H 715.883 1.10302 3.90626 0
M  V30 7497 H 716.649 3.52017 3.3363 0
M  V30 7498 H 712.528 2.43785 3.91267 0
M  V30 7499 H 716.072 5.88591 3.74442 0
M  V30 7500 H 711.969 4.79462 4.32188 0
M  V30 7501 H 712.737 6.86617 4.45533 0
M  V30 7502 N 715.4 -1.26948 0.933913 0
M  V30 7503 C 716.677 -1.89212 0.495784 0
M  V30 7504 C 717.057 -1.84469 -1.02637 0
M  V30 7505 O 716.405 -1.29409 -1.88323 0
M  V30 7506 C 716.615 -3.32865 1.0489 0
M  V30 7507 C 717.963 -4.09749 1.11315 0
M  V30 7508 O 718.987 -3.41905 0.998966 0
M  V30 7509 O 717.846 -5.31061 1.28983 0
M  V30 7510 H 714.94 -0.811284 0.160459 0
M  V30 7511 H 717.486 -1.35171 1.02601 0
M  V30 7512 H 716.258 -3.30642 2.09265 0
M  V30 7513 H 715.881 -3.94435 0.500692 0
M  V30 7514 N 716.879 -0.700114 -1.41195 0
M  V30 7515 C 718.29 -0.307249 -1.84154 0
M  V30 7516 C 718.641 1.15539 -1.58572 0
M  V30 7517 O 717.766 1.88744 -1.05852 0
M  V30 7518 C 718.361 -0.550872 -3.34292 0
M  V30 7519 C 716.92 -0.211877 -3.75803 0
M  V30 7520 C 716.067 -0.830915 -2.64558 0
M  V30 7521 H 719.018 -0.900431 -1.30683 0
M  V30 7522 H 719.039 0.188954 -3.80031 0
M  V30 7523 H 718.551 -1.61548 -3.5288 0
M  V30 7524 H 716.652 0.848283 -3.62815 0
M  V30 7525 H 716.765 -0.67007 -4.74391 0
M  V30 7526 H 715.129 -0.260155 -2.53368 0
M  V30 7527 H 715.912 -1.89948 -2.85963 0
M  V30 7528 N 718.357 1.51182 -0.445186 0
M  V30 7529 C 719.305 2.29531 0.376597 0
M  V30 7530 C 720.299 1.35711 1.01385 0
M  V30 7531 O 721.505 1.53018 0.947922 0
M  V30 7532 H 717.88 0.738803 0.140267 0
M  V30 7533 H 719.851 2.96838 -0.304958 0
M  V30 7534 C 718.6 3.1552 1.4609 0
M  V30 7535 H 717.923 3.87605 0.979912 0
M  V30 7536 H 719.363 3.73384 2.009 0
M  V30 7537 C 717.822 2.31406 2.44852 0
M  V30 7538 O 718.352 1.97912 3.49562 0
M  V30 7539 N 716.558 1.94478 2.15932 0
M  V30 7540 H 716.105 2.21917 1.30808 0
M  V30 7541 H 716.063 1.38498 2.82251 0
M  V30 7542 N 719.835 0.176821 1.56605 0
M  V30 7543 C 721.112 -0.513365 1.88743 0
M  V30 7544 C 721.492 -1.80929 1.08757 0
M  V30 7545 O 720.84 -2.27765 0.183127 0
M  V30 7546 C 721.05 -0.749925 3.40848 0
M  V30 7547 C 722.398 -1.07747 4.10701 0
M  V30 7548 O 723.422 -0.838277 3.46196 0
M  V30 7549 O 722.281 -1.52901 5.24675 0
M  V30 7550 H 719.375 -0.265296 0.783292 0
M  V30 7551 H 721.921 0.215669 1.68324 0
M  V30 7552 H 720.693 0.16599 3.90948 0
M  V30 7553 H 720.316 -1.53208 3.66897 0
M  V30 7554 N 721.313 -1.57302 -0.09688 0
M  V30 7555 C 722.245 -1.98618 -1.14384 0
M  V30 7556 C 723.258 -0.888483 -1.36418 0
M  V30 7557 O 724.447 -1.16661 -1.35101 0
M  V30 7558 C 721.547 -2.28838 -2.49973 0
M  V30 7559 C 720.72 -3.60132 -2.48241 0
M  V30 7560 C 719.779 -3.7831 -3.65743 0
M  V30 7561 O 718.805 -4.50183 -3.48316 0
M  V30 7562 N 720.007 -3.18752 -4.85157 0
M  V30 7563 H 722.772 -2.8904 -0.792202 0
M  V30 7564 H 720.333 -1.59356 -0.285883 0
M  V30 7565 H 722.325 -2.38193 -3.27179 0
M  V30 7566 H 720.895 -1.44431 -2.77233 0
M  V30 7567 H 720.115 -3.61763 -1.56593 0
M  V30 7568 H 721.403 -4.46389 -2.4416 0
M  V30 7569 H 720.801 -2.60368 -5.0222 0
M  V30 7570 H 719.358 -3.33595 -5.59962 0
M  V30 7571 N 722.791 0.367657 -1.53252 0
M  V30 7572 C 724.019 1.13119 -1.73239 0
M  V30 7573 C 724.434 1.831 -0.460404 0
M  V30 7574 O 723.791 1.73483 0.566557 0
M  V30 7575 C 723.842 2.16308 -2.89643 0
M  V30 7576 O 723.563 1.49175 -4.1192 0
M  V30 7577 C 725.064 3.05224 -3.21486 0
M  V30 7578 H 722.284 0.338318 -0.579467 0
M  V30 7579 H 724.828 0.42721 -1.99988 0
M  V30 7580 H 722.983 2.82307 -2.65295 0
M  V30 7581 H 723.397 2.17912 -4.7709 0
M  V30 7582 H 724.871 3.73613 -4.06346 0
M  V30 7583 H 725.348 3.69919 -2.36763 0
M  V30 7584 H 725.954 2.44843 -3.47753 0
M  V30 7585 N 724.269 1.44576 0.627338 0
M  V30 7586 C 725.232 1.51372 1.72102 0
M  V30 7587 C 726.232 0.395329 1.55865 0
M  V30 7588 O 727.422 0.658094 1.61291 0
M  V30 7589 C 724.554 1.39129 3.11217 0
M  V30 7590 H 725.747 2.48798 1.6745 0
M  V30 7591 H 723.3 1.31724 0.841336 0
M  V30 7592 H 724.035 0.428114 3.21462 0
M  V30 7593 H 723.82 2.20229 3.24409 0
M  V30 7594 H 725.31 1.46874 3.90919 0
M  V30 7595 N 725.747 -0.868086 1.31537 0
M  V30 7596 C 727.163 -1.15414 1.10235 0
M  V30 7597 C 727.363 -2.01106 -0.125947 0
M  V30 7598 O 726.419 -2.38994 -0.814734 0
M  V30 7599 C 727.732 -1.84445 2.37488 0
M  V30 7600 C 729.28 -1.97139 2.43116 0
M  V30 7601 C 729.755 -2.69585 3.70254 0
M  V30 7602 N 731.246 -2.77119 3.71159 0
M  V30 7603 C 731.981 -3.33791 4.6623 0
M  V30 7604 N 731.477 -3.9138 5.71659 0
M  V30 7605 N 733.27 -3.31767 4.53747 0
M  V30 7606 H 725.421 -0.297109 2.10312 0
M  V30 7607 H 727.684 -0.194227 0.92789 0
M  V30 7608 H 727.39 -1.2893 3.27215 0
M  V30 7609 H 727.264 -2.84709 2.47428 0
M  V30 7610 H 729.651 -2.51818 1.53856 0
M  V30 7611 H 729.732 -0.95912 2.37138 0
M  V30 7612 H 729.376 -2.15572 4.59881 0
M  V30 7613 H 729.306 -3.71223 3.73499 0
M  V30 7614 H 731.797 -2.3625 2.94948 0
M  V30 7615 H 732.11 -4.3274 6.40278 0
M  V30 7616 H 730.455 -3.8975 5.7543 0
M  V30 7617 H 733.646 -2.86016 3.70557 0
M  V30 7618 H 733.819 -3.75636 5.28017 0
M  V30 7619 N 727.225 -1.14528 -1.08264 0
M  V30 7620 C 728.172 -0.833556 -2.15222 0
M  V30 7621 C 729.142 0.209539 -1.64773 0
M  V30 7622 O 730.327 0.0791388 -1.90636 0
M  V30 7623 C 727.467 -0.318799 -3.43624 0
M  V30 7624 C 726.58 -1.42237 -4.07913 0
M  V30 7625 C 725.715 -0.864704 -5.24115 0
M  V30 7626 C 724.754 -1.94585 -5.80347 0
M  V30 7627 N 723.891 -1.40525 -6.87893 0
M  V30 7628 H 728.731 -1.74965 -2.41228 0
M  V30 7629 H 726.268 -0.873169 -1.18381 0
M  V30 7630 H 728.226 -0.00213088 -4.172 0
M  V30 7631 H 726.856 0.560397 -3.17898 0
M  V30 7632 H 725.908 -1.8554 -3.32083 0
M  V30 7633 H 727.22 -2.23901 -4.45724 0
M  V30 7634 H 726.374 -0.500025 -6.04636 0
M  V30 7635 H 725.113 -0.0171219 -4.87697 0
M  V30 7636 H 724.118 -2.31946 -4.98479 0
M  V30 7637 H 725.343 -2.79704 -6.18823 0
M  V30 7638 H 723.289 -0.579873 -6.53432 0
M  V30 7639 H 723.206 -2.15825 -7.24538 0
M  V30 7640 H 724.474 -1.06852 -7.72142 0
M  V30 7641 N 728.703 1.26451 -0.940633 0
M  V30 7642 C 729.928 1.98407 -0.60412 0
M  V30 7643 C 730.353 1.69584 0.81382 0
M  V30 7644 O 729.711 0.943553 1.54812 0
M  V30 7645 C 729.759 3.50387 -0.852136 0
M  V30 7646 O 728.863 4.1233 0.076013 0
M  V30 7647 H 728.204 0.622466 -0.231153 0
M  V30 7648 H 730.734 1.60932 -1.26342 0
M  V30 7649 H 730.744 4.00614 -0.772816 0
M  V30 7650 H 729.419 3.70696 -1.88566 0
M  V30 7651 H 727.996 3.7286 -0.0543187 0
M  V30 7652 N 730.181 0.707592 1.40822 0
M  V30 7653 C 731.113 0.0105968 2.29198 0
M  V30 7654 C 732.126 -0.732035 1.45414 0
M  V30 7655 O 733.315 -0.580741 1.68789 0
M  V30 7656 C 730.415 -1.00921 3.23525 0
M  V30 7657 C 729.588 -0.333747 4.36125 0
M  V30 7658 C 728.647 -1.25783 5.10945 0
M  V30 7659 O 727.673 -0.745646 5.64295 0
M  V30 7660 N 728.875 -2.58947 5.19545 0
M  V30 7661 H 731.64 0.76938 2.89656 0
M  V30 7662 H 729.201 0.554579 1.52105 0
M  V30 7663 H 731.193 -1.6294 3.70449 0
M  V30 7664 H 729.763 -1.66942 2.6429 0
M  V30 7665 H 728.983 0.466518 3.9143 0
M  V30 7666 H 730.271 0.135444 5.0862 0
M  V30 7667 H 729.669 -3.03065 4.7767 0
M  V30 7668 H 728.226 -3.16131 5.70004 0
M  V30 7669 N 731.66 -1.50943 0.453197 0
M  V30 7670 C 732.607 -2.28128 -0.350197 0
M  V30 7671 C 733.577 -1.32398 -1.00299 0
M  V30 7672 O 734.762 -1.61319 -1.01887 0
M  V30 7673 C 731.902 -3.13782 -1.43649 0
M  V30 7674 C 731.015 -4.24523 -0.800255 0
M  V30 7675 C 730.15 -4.97462 -1.86293 0
M  V30 7676 C 729.189 -6.00102 -1.20598 0
M  V30 7677 N 728.326 -6.66387 -2.21071 0
M  V30 7678 H 733.166 -2.96337 0.31434 0
M  V30 7679 H 730.703 -1.46151 0.166863 0
M  V30 7680 H 732.661 -3.6178 -2.07776 0
M  V30 7681 H 731.291 -2.47655 -2.07044 0
M  V30 7682 H 730.343 -3.80371 -0.0468651 0
M  V30 7683 H 731.655 -4.98009 -0.280777 0
M  V30 7684 H 730.809 -5.49088 -2.58044 0
M  V30 7685 H 729.548 -4.23642 -2.41617 0
M  V30 7686 H 728.553 -5.47753 -0.474 0
M  V30 7687 H 729.778 -6.75887 -0.659859 0
M  V30 7688 H 727.724 -5.9537 -2.75446 0
M  V30 7689 H 727.641 -7.3569 -1.74058 0
M  V30 7690 H 728.909 -7.22638 -2.92257 0
M  V30 7691 N 733.138 -0.185124 -1.56509 0
M  V30 7692 C 734.048 0.751908 -2.22224 0
M  V30 7693 C 735.064 1.24244 -1.21817 0
M  V30 7694 O 736.24 1.29169 -1.54523 0
M  V30 7695 C 733.305 1.95837 -2.86092 0
M  V30 7696 C 732.366 1.51337 -4.01741 0
M  V30 7697 C 731.599 2.66233 -4.62554 0
M  V30 7698 O 731.822 3.8346 -4.22273 0
M  V30 7699 O 730.756 2.39517 -5.52191 0
M  V30 7700 H 734.582 0.222304 -3.02885 0
M  V30 7701 H 732.167 0.0437141 -1.49336 0
M  V30 7702 H 734.049 2.66368 -3.26536 0
M  V30 7703 H 732.724 2.47677 -2.08417 0
M  V30 7704 H 731.631 0.777155 -3.65939 0
M  V30 7705 H 732.964 1.04175 -4.81049 0
M  V30 7706 N 734.616 1.57351 0.0885366 0
M  V30 7707 C 735.865 1.85604 0.789556 0
M  V30 7708 C 736.178 0.775352 1.79576 0
M  V30 7709 O 737.384 0.945206 2.54515 0
M  V30 7710 C 735.84 3.29175 1.45506 0
M  V30 7711 C 735.448 4.45331 0.488278 0
M  V30 7712 C 737.192 3.66646 2.13942 0
M  V30 7713 C 735.099 5.79937 1.15874 0
M  V30 7714 H 734.029 0.692346 0.298619 0
M  V30 7715 H 736.68 1.83451 0.0425821 0
M  V30 7716 H 735.062 3.25889 2.24972 0
M  V30 7717 H 736.236 4.59977 -0.275359 0
M  V30 7718 H 734.551 4.16301 -0.0907363 0
M  V30 7719 H 737.148 4.64498 2.6485 0
M  V30 7720 H 737.491 2.956 2.93132 0
M  V30 7721 H 738.024 3.71848 1.41328 0
M  V30 7722 H 734.763 6.54232 0.407508 0
M  V30 7723 H 734.283 5.69123 1.89364 0
M  V30 7724 H 735.962 6.24718 1.68336 0
M  V30 7725 N 736.094 -0.359525 1.53444 0
M  V30 7726 C 737.34 -1.10315 1.70172 0
M  V30 7727 C 737.673 -1.88788 0.455287 0
M  V30 7728 O 736.948 -1.86635 -0.547514 0
M  V30 7729 C 737.231 -2.05744 2.95536 0
M  V30 7730 C 737.084 -1.3084 4.3035 0
M  V30 7731 C 738.403 -3.05784 3.16518 0
M  V30 7732 H 735.522 -0.399662 0.619225 0
M  V30 7733 H 738.164 -0.383338 1.86093 0
M  V30 7734 H 736.314 -2.67125 2.82093 0
M  V30 7735 H 737.986 -0.721959 4.55615 0
M  V30 7736 H 736.229 -0.610283 4.29486 0
M  V30 7737 H 736.9 -2.00718 5.14214 0
M  V30 7738 H 739.376 -2.5451 3.29187 0
M  V30 7739 H 738.252 -3.69772 4.05659 0
M  V30 7740 H 738.513 -3.76289 2.32076 0
M  V30 7741 N 737.572 -1.44907 -0.619662 0
M  V30 7742 C 738.82 -1.47999 -1.37625 0
M  V30 7743 C 739.141 -0.118295 -1.94641 0
M  V30 7744 O 738.411 0.85086 -1.76457 0
M  V30 7745 H 736.991 -0.544993 -0.510873 0
M  V30 7746 H 739.653 -1.80772 -0.728522 0
M  V30 7747 H 738.749 -2.21196 -2.20179 0
M  V30 7748 N 739.05 0.861098 -1.31996 0
M  V30 7749 C 739.998 1.99052 -1.20337 0
M  V30 7750 C 740.992 1.69045 -0.109623 0
M  V30 7751 O 742.198 1.77931 -0.272117 0
M  V30 7752 H 738.573 0.653064 -0.372843 0
M  V30 7753 H 740.544 2.06015 -2.15872 0
M  V30 7754 C 739.293 3.34846 -0.936663 0
M  V30 7755 H 738.616 3.58462 -1.77045 0
M  V30 7756 H 740.056 4.1444 -0.895302 0
M  V30 7757 C 738.515 3.34965 0.360607 0
M  V30 7758 O 739.045 3.7745 1.37456 0
M  V30 7759 N 737.251 2.88101 0.380296 0
M  V30 7760 H 736.798 2.53721 -0.445351 0
M  V30 7761 H 736.756 2.88563 1.24816 0
M  V30 7762 N 740.528 1.15101 1.07655 0
M  V30 7763 C 741.939 0.933848 1.61667 0
M  V30 7764 C 742.29 -0.525569 1.8903 0
M  V30 7765 O 741.415 -1.39605 1.65346 0
M  V30 7766 C 742.01 1.68876 2.93711 0
M  V30 7767 C 740.569 1.51697 3.44478 0
M  V30 7768 C 739.716 1.70633 2.18586 0
M  V30 7769 H 742.667 1.30171 0.907816 0
M  V30 7770 H 742.688 1.15645 3.625 0
M  V30 7771 H 742.2 2.7509 2.73764 0
M  V30 7772 H 740.301 0.478635 3.69513 0
M  V30 7773 H 740.414 2.29194 4.20722 0
M  V30 7774 H 738.778 1.13259 2.28132 0
M  V30 7775 H 739.561 2.78206 2.01137 0
M  V30 7776 N 742.006 -1.2595 0.947325 0
M  V30 7777 C 743.252 -1.9375 0.599064 0
M  V30 7778 C 743.585 -1.74088 -0.860632 0
M  V30 7779 O 742.86 -1.08158 -1.61654 0
M  V30 7780 C 743.143 -3.47353 0.949634 0
M  V30 7781 C 742.996 -3.76273 2.46452 0
M  V30 7782 C 744.315 -4.37589 0.469442 0
M  V30 7783 H 741.434 -0.703674 0.219115 0
M  V30 7784 H 744.076 -1.48705 1.18266 0
M  V30 7785 H 742.226 -3.8585 0.453008 0
M  V30 7786 H 743.898 -3.47455 3.03435 0
M  V30 7787 H 742.141 -3.22135 2.90537 0
M  V30 7788 H 742.812 -4.83664 2.66032 0
M  V30 7789 H 745.288 -4.06353 0.89534 0
M  V30 7790 H 744.164 -5.43841 0.7435 0
M  V30 7791 H 744.425 -4.37579 -0.630618 0
M  V30 7792 N 743.484 -0.715051 -1.40445 0
M  V30 7793 C 744.709 -0.26254 -2.05732 0
M  V30 7794 C 745.134 1.08691 -1.53519 0
M  V30 7795 O 744.492 1.68453 -0.670328 0
M  V30 7796 C 744.54 -0.25195 -3.59719 0
M  V30 7797 O 743.644 0.766998 -4.05205 0
M  V30 7798 H 742.985 -0.123398 -0.652433 0
M  V30 7799 H 745.515 -0.975382 -1.79854 0
M  V30 7800 H 745.525 -0.0894537 -4.07902 0
M  V30 7801 H 744.2 -1.23672 -3.97087 0
M  V30 7802 H 742.777 0.572269 -3.68483 0
M  V30 7803 N 744.962 1.50701 -0.461195 0
M  V30 7804 C 745.909 2.2831 0.338094 0
M  V30 7805 C 746.879 1.32928 0.995957 0
M  V30 7806 O 748.064 1.61857 1.0103 0
M  V30 7807 C 745.204 3.14539 1.41983 0
M  V30 7808 C 744.317 4.24942 0.77773 0
M  V30 7809 C 743.452 4.98443 1.83652 0
M  V30 7810 C 742.491 6.00733 1.17413 0
M  V30 7811 N 741.628 6.6755 2.17533 0
M  V30 7812 H 746.468 2.96167 -0.330051 0
M  V30 7813 H 744.005 1.4606 -0.174611 0
M  V30 7814 H 745.963 3.62877 2.05855 0
M  V30 7815 H 744.593 2.48749 2.05727 0
M  V30 7816 H 743.645 3.80391 0.0266924 0
M  V30 7817 H 744.957 4.98151 0.254362 0
M  V30 7818 H 744.111 5.50449 2.55129 0
M  V30 7819 H 742.85 4.24917 2.39367 0
M  V30 7820 H 741.855 5.47997 0.444944 0
M  V30 7821 H 743.08 6.76227 0.624006 0
M  V30 7822 H 741.026 5.96823 2.72284 0
M  V30 7823 H 740.943 7.36603 1.70154 0
M  V30 7824 H 742.211 7.24178 2.88421 0
M  V30 7825 N 746.441 0.193421 1.56409 0
M  V30 7826 C 747.718 -0.493318 1.89277 0
M  V30 7827 C 748.098 -1.79765 1.10669 0
M  V30 7828 O 747.446 -2.27558 0.207274 0
M  V30 7829 C 747.656 -0.713732 3.41624 0
M  V30 7830 C 749.004 -1.03385 4.11821 0
M  V30 7831 O 750.028 -0.801511 3.47065 0
M  V30 7832 O 748.887 -1.47327 5.26267 0
M  V30 7833 H 745.981 -0.256973 0.786062 0
M  V30 7834 H 748.527 0.23351 1.68086 0
M  V30 7835 H 747.299 0.207446 3.9075 0
M  V30 7836 H 746.922 -1.49308 3.68501 0
M  V30 7837 N 747.919 -1.57396 -0.0801906 0
M  V30 7838 C 748.882 -2.02133 -1.0805 0
M  V30 7839 C 749.882 -0.91707 -1.32085 0
M  V30 7840 O 751.072 -1.18217 -1.27947 0
M  V30 7841 C 748.204 -2.39479 -2.42616 0
M  V30 7842 H 749.397 -2.91733 -0.6951 0
M  V30 7843 H 746.95 -1.52869 -0.325677 0
M  V30 7844 H 747.685 -1.52879 -2.86004 0
M  V30 7845 H 747.47 -3.20052 -2.26515 0
M  V30 7846 H 748.96 -2.74697 -3.14534 0
M  V30 7847 N 749.397 0.351382 -1.53633 0
M  V30 7848 C 750.36 1.41403 -1.80383 0
M  V30 7849 C 751.36 1.45963 -0.674635 0
M  V30 7850 O 752.55 1.46476 -0.942895 0
M  V30 7851 C 749.682 2.80401 -1.93876 0
M  V30 7852 H 750.875 1.18951 -2.75301 0
M  V30 7853 H 748.428 0.58533 -1.44926 0
M  V30 7854 H 749.163 3.08147 -1.01074 0
M  V30 7855 H 748.948 2.78488 -2.7602 0
M  V30 7856 H 750.438 3.57329 -2.16116 0
M  V30 7857 N 750.875 1.45233 0.611969 0
M  V30 7858 C 752.1 1.52767 1.40274 0
M  V30 7859 C 752.525 0.159701 1.87421 0
M  V30 7860 O 751.883 -0.854837 1.59882 0
M  V30 7861 C 751.931 2.51286 2.58626 0
M  V30 7862 O 751.035 2.02764 3.59111 0
M  V30 7863 H 750.376 0.515141 0.418958 0
M  V30 7864 H 752.906 1.90547 0.745188 0
M  V30 7865 H 752.916 2.69949 3.05927 0
M  V30 7866 H 751.591 3.50641 2.23659 0
M  V30 7867 H 750.168 1.93957 3.18489 0
M  V30 7868 N 752.353 -0.854086 1.3245 0
M  V30 7869 C 753.283 -1.97827 1.24044 0
M  V30 7870 C 754.264 -1.69646 0.124166 0
M  V30 7871 O 755.449 -1.91687 0.31143 0
M  V30 7872 C 752.579 -3.33673 0.963324 0
M  V30 7873 C 751.533 -3.76207 2.04089 0
M  V30 7874 C 750.859 -5.0969 1.61618 0
M  V30 7875 C 752.159 -3.91612 3.45597 0
M  V30 7876 H 753.853 -2.05118 2.18099 0
M  V30 7877 H 751.399 -0.985489 1.04996 0
M  V30 7878 H 753.352 -4.11871 0.891061 0
M  V30 7879 H 752.076 -3.26597 -0.0128649 0
M  V30 7880 H 750.735 -3.0026 2.10332 0
M  V30 7881 H 750.383 -4.99072 0.627418 0
M  V30 7882 H 750.083 -5.3912 2.33717 0
M  V30 7883 H 751.607 -5.90381 1.55829 0
M  V30 7884 H 753.021 -4.60163 3.4194 0
M  V30 7885 H 751.418 -4.3246 4.16051 0
M  V30 7886 H 752.488 -2.9451 3.85217 0
M  V30 7887 N 753.831 -1.1567 -1.07043 0
M  V30 7888 C 755.059 -0.957471 -1.83412 0
M  V30 7889 C 755.474 0.494271 -1.82215 0
M  V30 7890 O 754.831 1.34288 -1.23584 0
M  V30 7891 C 754.882 -1.46784 -3.30359 0
M  V30 7892 O 754.603 -2.86271 -3.31633 0
M  V30 7893 C 756.104 -1.31054 -4.23485 0
M  V30 7894 H 753.324 -0.33986 -0.578564 0
M  V30 7895 H 755.868 -1.53518 -1.35102 0
M  V30 7896 H 754.023 -0.932586 -3.76007 0
M  V30 7897 H 754.437 -3.0948 -4.23465 0
M  V30 7898 H 755.911 -1.71605 -5.24648 0
M  V30 7899 H 756.388 -0.255107 -4.38458 0
M  V30 7900 H 756.994 -1.83503 -3.83676 0
M  V30 7901 N 755.309 1.25446 -0.953992 0
M  V30 7902 C 756.725 1.4539 -0.658316 0
M  V30 7903 C 756.925 1.85607 0.784356 0
M  V30 7904 O 755.981 1.98568 1.55972 0
M  V30 7905 C 757.294 2.52643 -1.6307 0
M  V30 7906 C 758.842 2.66484 -1.64181 0
M  V30 7907 C 759.317 3.76921 -2.60182 0
M  V30 7908 N 760.808 3.84331 -2.58542 0
M  V30 7909 C 761.543 4.69271 -3.29503 0
M  V30 7910 N 761.039 5.58503 -4.09934 0
M  V30 7911 N 762.832 4.6323 -3.18393 0
M  V30 7912 H 754.983 0.976337 -1.8863 0
M  V30 7913 H 757.246 0.490343 -0.811337 0
M  V30 7914 H 756.952 2.29949 -2.66114 0
M  V30 7915 H 756.826 3.50547 -1.39271 0
M  V30 7916 H 759.213 2.88545 -0.618552 0
M  V30 7917 H 759.294 1.68982 -1.92038 0
M  V30 7918 H 758.938 3.55612 -3.62633 0
M  V30 7919 H 758.868 4.73906 -2.29609 0
M  V30 7920 H 761.359 3.20544 -2.0015 0
M  V30 7921 H 761.672 6.20241 -4.61 0
M  V30 7922 H 760.017 5.58214 -4.14032 0
M  V30 7923 H 763.208 3.92527 -2.5503 0
M  V30 7924 H 763.381 5.29204 -3.73961 0
M  V30 7925 N 756.787 0.722489 1.40064 0
M  V30 7926 C 758.015 0.274838 2.05066 0
M  V30 7927 C 758.43 -1.08586 1.54449 0
M  V30 7928 O 757.787 -1.68375 0.704003 0
M  V30 7929 C 757.838 0.253673 3.60609 0
M  V30 7930 O 757.559 1.56064 4.0936 0
M  V30 7931 C 759.06 -0.211684 4.42794 0
M  V30 7932 H 756.28 0.12226 0.659768 0
M  V30 7933 H 758.824 0.982632 1.79345 0
M  V30 7934 H 756.979 -0.405137 3.85276 0
M  V30 7935 H 757.393 1.46576 5.03603 0
M  V30 7936 H 758.867 -0.175341 5.51721 0
M  V30 7937 H 759.344 -1.25493 4.2089 0
M  V30 7938 H 759.95 0.4171 4.2325 0
M  V30 7939 N 758.265 -1.50454 0.469181 0
M  V30 7940 C 759.213 -2.30101 -0.340033 0
M  V30 7941 C 760.207 -1.37306 -0.992135 0
M  V30 7942 O 761.413 -1.54506 -0.923458 0
M  V30 7943 H 757.788 -0.740941 -0.128495 0
M  V30 7944 H 759.759 -2.96315 0.352144 0
M  V30 7945 C 758.508 -3.17804 -1.41052 0
M  V30 7946 H 757.831 -3.89115 -0.918124 0
M  V30 7947 H 759.271 -3.76533 -1.94934 0
M  V30 7948 C 757.73 -2.35272 -2.4114 0
M  V30 7949 O 758.26 -2.03448 -3.4637 0
M  V30 7950 N 756.466 -1.97889 -2.1281 0
M  V30 7951 H 756.013 -2.2397 -1.27261 0
M  V30 7952 H 755.971 -1.42971 -2.80012 0
M  V30 7953 N 759.743 -0.201713 -1.56304 0
M  V30 7954 C 760.676 0.755976 -2.15314 0
M  V30 7955 C 761.654 1.20497 -1.09175 0
M  V30 7956 O 762.838 1.2913 -1.37323 0
M  V30 7957 C 759.965 2.02177 -2.71739 0
M  V30 7958 C 759.011 1.71436 -3.90528 0
M  V30 7959 S 759.844 0.856624 -5.28604 0
M  V30 7960 C 761 2.13242 -5.88455 0
M  V30 7961 H 761.233 0.254348 -2.9621 0
M  V30 7962 H 758.766 0.0133669 -1.54394 0
M  V30 7963 H 760.724 2.74867 -3.04891 0
M  V30 7964 H 759.385 2.49452 -1.90873 0
M  V30 7965 H 758.578 2.65433 -4.28441 0
M  V30 7966 H 758.18 1.06823 -3.5842 0
M  V30 7967 H 760.472 3.08435 -6.0322 0
M  V30 7968 H 761.415 1.7975 -6.84905 0
M  V30 7969 H 761.823 2.2639 -5.17115 0
M  V30 7970 N 761.222 1.57436 0.0718424 0
M  V30 7971 C 762.468 1.87525 0.772149 0
M  V30 7972 C 762.801 0.79399 1.77227 0
M  V30 7973 O 762.076 -0.195733 1.93513 0
M  V30 7974 C 762.359 3.28272 1.48018 0
M  V30 7975 C 762.212 4.47052 0.49647 0
M  V30 7976 C 763.531 3.67256 2.42509 0
M  V30 7977 H 760.65 0.682049 0.279245 0
M  V30 7978 H 763.292 1.89967 0.03534 0
M  V30 7979 H 761.442 3.26321 2.10824 0
M  V30 7980 H 763.114 4.61127 -0.126375 0
M  V30 7981 H 761.357 4.33392 -0.188205 0
M  V30 7982 H 762.028 5.42315 1.02949 0
M  V30 7983 H 764.504 3.70301 1.89781 0
M  V30 7984 H 763.38 4.66626 2.89053 0
M  V30 7985 H 763.641 2.97186 3.27312 0
M  V30 7986 N 762.7 -0.34323 1.53817 0
M  V30 7987 C 763.63 -1.42709 1.84814 0
M  V30 7988 C 764.611 -1.5488 0.703297 0
M  V30 7989 O 765.796 -1.69082 0.955237 0
M  V30 7990 C 762.926 -2.79756 2.05801 0
M  V30 7991 C 761.88 -2.82392 3.21619 0
M  V30 7992 C 761.206 -4.22326 3.2794 0
M  V30 7993 C 762.506 -2.479 4.59721 0
M  V30 7994 H 764.2 -1.17018 2.75585 0
M  V30 7995 H 761.746 -0.561485 1.32602 0
M  V30 7996 H 763.699 -3.55627 2.26069 0
M  V30 7997 H 762.423 -3.06883 1.11761 0
M  V30 7998 H 761.082 -2.08974 3.01207 0
M  V30 7999 H 760.73 -4.46564 2.31494 0
M  V30 8000 H 760.43 -4.25001 4.05768 0
M  V30 8001 H 761.954 -5.00039 3.50419 0
M  V30 8002 H 763.368 -3.13484 4.80001 0
M  V30 8003 H 761.765 -2.61857 5.39954 0
M  V30 8004 H 762.835 -1.43087 4.63308 0
M  V30 8005 N 764.178 -1.45556 -0.604258 0
M  V30 8006 C 765.424 -1.49968 -1.36519 0
M  V30 8007 C 765.757 -0.142236 -1.93678 0
M  V30 8008 O 765.032 0.843717 -1.75247 0
M  V30 8009 C 765.315 -2.58146 -2.51063 0
M  V30 8010 C 765.168 -4.03346 -1.99078 0
M  V30 8011 C 766.487 -2.62581 -3.53184 0
M  V30 8012 H 763.606 -0.545993 -0.495036 0
M  V30 8013 H 766.248 -1.77382 -0.680845 0
M  V30 8014 H 764.398 -2.34901 -3.09441 0
M  V30 8015 H 766.07 -4.37811 -1.45323 0
M  V30 8016 H 764.313 -4.13845 -1.30055 0
M  V30 8017 H 764.984 -4.74731 -2.81664 0
M  V30 8018 H 767.46 -2.83419 -3.04652 0
M  V30 8019 H 766.336 -3.40131 -4.30816 0
M  V30 8020 H 766.597 -1.67798 -4.09019 0
M  V30 8021 N 765.656 0.84705 -1.32902 0
M  V30 8022 C 766.904 1.5986 -1.2365 0
M  V30 8023 C 767.225 1.93974 0.199789 0
M  V30 8024 O 766.495 1.60273 1.12648 0
M  V30 8025 H 765.075 0.592696 -0.454665 0
M  V30 8026 H 767.737 1.01278 -1.66519 0
M  V30 8027 H 766.833 2.53218 -1.82448 0
M  V30 8028 N 767.134 1.16236 1.06428 0
M  V30 8029 C 768.362 0.967184 1.82902 0
M  V30 8030 C 768.777 -0.484601 1.82475 0
M  V30 8031 O 768.134 -1.33631 1.24294 0
M  V30 8032 C 768.185 1.48534 3.29576 0
M  V30 8033 O 767.906 2.88026 3.3011 0
M  V30 8034 C 769.407 1.33298 4.22784 0
M  V30 8035 H 766.627 0.342923 0.576754 0
M  V30 8036 H 769.171 1.54232 1.34286 0
M  V30 8037 H 767.326 0.952513 3.75508 0
M  V30 8038 H 767.74 3.11721 4.21818 0
M  V30 8039 H 769.214 1.74385 5.23731 0
M  V30 8040 H 769.691 0.278356 4.38317 0
M  V30 8041 H 770.297 1.85535 3.82697 0
M  V30 8042 N 768.612 -1.24939 0.960631 0
M  V30 8043 C 769.889 -1.88118 0.535807 0
M  V30 8044 C 770.269 -1.86605 -0.987009 0
M  V30 8045 O 769.617 -1.33375 -1.85536 0
M  V30 8046 C 769.827 -3.30565 1.11927 0
M  V30 8047 C 771.175 -4.07296 1.19981 0
M  V30 8048 O 772.199 -3.39709 1.07126 0
M  V30 8049 O 771.058 -5.28206 1.40218 0
M  V30 8050 H 768.152 -0.807698 0.177631 0
M  V30 8051 H 770.698 -1.32964 1.05445 0
M  V30 8052 H 769.47 -3.26128 2.16231 0
M  V30 8053 H 769.093 -3.93284 0.584245 0
M  V30 8054 N 770.09 -0.729906 -1.39679 0
M  V30 8055 C 771.501 -0.346241 -1.83461 0
M  V30 8056 C 771.852 1.1215 -1.60987 0
M  V30 8057 O 770.977 1.86456 -1.09832 0
M  V30 8058 C 771.572 -0.621656 -3.33048 0
M  V30 8059 C 770.131 -0.291543 -3.75269 0
M  V30 8060 C 769.278 -0.886844 -2.62736 0
M  V30 8061 H 772.229 -0.927949 -1.28743 0
M  V30 8062 H 772.25 0.108301 -3.80346 0
M  V30 8063 H 771.762 -1.68996 -3.49373 0
M  V30 8064 H 769.863 0.771133 -3.64533 0
M  V30 8065 H 769.976 -0.770544 -4.72863 0
M  V30 8066 H 768.34 -0.313839 -2.52759 0
M  V30 8067 H 769.123 -1.95971 -2.81869 0
M  V30 8068 N 771.568 1.50203 -0.477153 0
M  V30 8069 C 772.814 2.02658 0.0758507 0
M  V30 8070 C 773.147 1.358 1.38824 0
M  V30 8071 O 772.422 0.485696 1.88338 0
M  V30 8072 C 772.705 3.59208 0.253339 0
M  V30 8073 C 772.558 4.36629 -1.0805 0
M  V30 8074 C 773.877 4.28469 1.00509 0
M  V30 8075 H 770.996 0.736538 0.0260921 0
M  V30 8076 H 773.638 1.79464 -0.623925 0
M  V30 8077 H 771.788 3.79101 0.849378 0
M  V30 8078 H 773.46 4.28292 -1.71358 0
M  V30 8079 H 771.703 4.0013 -1.67566 0
M  V30 8080 H 772.374 5.44449 -0.909883 0
M  V30 8081 H 774.85 4.13087 0.499818 0
M  V30 8082 H 773.726 5.37804 1.09808 0
M  V30 8083 H 773.987 3.92057 2.04314 0
M  V30 8084 N 773.046 0.209999 1.56195 0
M  V30 8085 C 774.276 -0.429373 2.02089 0
M  V30 8086 C 774.684 -1.54703 1.0892 0
M  V30 8087 O 774.027 -1.83485 0.0889535 0
M  V30 8088 C 774.089 -1.03266 3.44349 0
M  V30 8089 C 773.753 -0.0518873 4.56971 0
M  V30 8090 C 774.75 0.744249 5.14545 0
M  V30 8091 C 772.435 0.0635185 5.0226 0
M  V30 8092 C 774.429 1.64261 6.15871 0
M  V30 8093 C 772.116 0.965423 6.03426 0
M  V30 8094 C 773.114 1.75352 6.60106 0
M  V30 8095 O 772.802 2.64029 7.59305 0
M  V30 8096 H 772.534 -0.110604 0.66689 0
M  V30 8097 H 775.088 0.320436 2.02885 0
M  V30 8098 H 773.318 -1.83134 3.40586 0
M  V30 8099 H 775.007 -1.57823 3.73961 0
M  V30 8100 H 775.773 0.665476 4.80413 0
M  V30 8101 H 771.652 -0.539762 4.57829 0
M  V30 8102 H 775.196 2.25819 6.60039 0
M  V30 8103 H 771.093 1.04526 6.36981 0
M  V30 8104 H 771.861 2.57974 7.76783 0
M  V30 8105 N 774.524 -1.57472 -0.0634922 0
M  V30 8106 C 775.772 -1.87283 -0.759563 0
M  V30 8107 C 776.093 -0.803135 -1.77693 0
M  V30 8108 O 775.363 0.167293 -1.95184 0
M  V30 8109 H 773.943 -0.691106 -0.283516 0
M  V30 8110 H 776.605 -1.94864 -0.0376091 0
M  V30 8111 H 775.701 -2.85064 -1.27062 0
M  V30 8112 N 776.003 0.335068 -1.53997 0
M  V30 8113 C 777.231 1.09418 -1.756 0
M  V30 8114 C 777.646 1.82083 -0.499138 0
M  V30 8115 O 777.003 1.74646 0.529631 0
M  V30 8116 C 777.054 2.10115 -2.94166 0
M  V30 8117 O 776.775 1.40404 -4.14992 0
M  V30 8118 C 778.276 2.98336 -3.27888 0
M  V30 8119 H 775.496 0.32595 -0.586513 0
M  V30 8120 H 778.04 0.384693 -2.00849 0
M  V30 8121 H 776.195 2.76616 -2.71224 0
M  V30 8122 H 776.609 2.07743 -4.81605 0
M  V30 8123 H 778.083 3.6491 -4.1418 0
M  V30 8124 H 778.56 3.64814 -2.44556 0
M  V30 8125 H 779.166 2.37412 -3.52868 0
M  V30 8126 N 777.481 1.45874 0.596531 0
M  V30 8127 C 778.414 1.49889 1.72071 0
M  V30 8128 C 779.392 0.354224 1.58695 0
M  V30 8129 O 780.576 0.556355 1.80103 0
M  V30 8130 C 777.703 1.3644 3.10003 0
M  V30 8131 C 776.749 2.54913 3.41938 0
M  V30 8132 S 777.582 4.17336 3.35545 0
M  V30 8133 C 778.738 4.06372 4.76039 0
M  V30 8134 H 778.971 2.45005 1.68404 0
M  V30 8135 H 776.504 1.33592 0.77412 0
M  V30 8136 H 778.462 1.29368 3.89582 0
M  V30 8137 H 777.123 0.427762 3.11174 0
M  V30 8138 H 776.316 2.41458 4.42396 0
M  V30 8139 H 775.918 2.58904 2.69898 0
M  V30 8140 H 778.21 3.72199 5.66105 0
M  V30 8141 H 779.153 5.0678 4.9455 0
M  V30 8142 H 779.561 3.37846 4.52239 0
M  V30 8143 N 778.959 -0.83999 1.33349 0
M  V30 8144 C 780.189 -1.62492 1.27593 0
M  V30 8145 C 780.597 -1.88559 -0.155597 0
M  V30 8146 O 779.94 -1.46537 -1.10782 0
M  V30 8147 C 780.002 -2.99984 1.98116 0
M  V30 8148 C 779.666 -2.96892 3.47425 0
M  V30 8149 C 780.663 -2.72688 4.42648 0
M  V30 8150 C 778.348 -3.17063 3.89585 0
M  V30 8151 C 780.342 -2.68681 5.78004 0
M  V30 8152 C 778.029 -3.12682 5.25046 0
M  V30 8153 C 779.027 -2.88522 6.19067 0
M  V30 8154 O 778.715 -2.84042 7.52047 0
M  V30 8155 H 778.447 -0.512358 0.440982 0
M  V30 8156 H 781.001 -1.0545 1.76265 0
M  V30 8157 H 779.231 -3.58875 1.44034 0
M  V30 8158 H 780.92 -3.6084 1.85875 0
M  V30 8159 H 781.686 -2.56856 4.114 0
M  V30 8160 H 777.565 -3.34889 3.16813 0
M  V30 8161 H 781.109 -2.49743 6.51363 0
M  V30 8162 H 777.006 -3.28063 5.55918 0
M  V30 8163 H 777.774 -2.99892 7.61582 0
M  V30 8164 N 780.437 -1.16799 -1.0581 0
M  V30 8165 C 781.385 -0.875111 -2.1551 0
M  V30 8166 C 782.379 0.157781 -1.68664 0
M  V30 8167 O 783.585 0.011297 -1.79996 0
M  V30 8168 H 779.96 -0.26542 -0.703602 0
M  V30 8169 H 781.931 -1.8076 -2.37421 0
M  V30 8170 C 780.68 -0.39802 -3.45414 0
M  V30 8171 H 780.003 -1.18425 -3.81858 0
M  V30 8172 H 781.443 -0.231913 -4.23365 0
M  V30 8173 C 779.902 0.88327 -3.25115 0
M  V30 8174 O 780.432 1.95145 -3.51114 0
M  V30 8175 N 778.638 0.828961 -2.78526 0
M  V30 8176 H 778.185 -0.0405029 -2.57568 0
M  V30 8177 H 778.143 1.68673 -2.65324 0
M  V30 8178 N 781.915 1.24427 -0.967243 0
M  V30 8179 C 782.865 2.23143 -0.468106 0
M  V30 8180 C 783.849 1.5449 0.449633 0
M  V30 8181 O 785.041 1.74761 0.28063 0
M  V30 8182 C 782.17 3.42454 0.240867 0
M  V30 8183 C 781.256 4.18355 -0.695674 0
M  V30 8184 N 781.647 4.71428 -1.83273 0
M  V30 8185 C 779.945 4.43116 -0.506365 0
M  V30 8186 C 780.646 5.29041 -2.41849 0
M  V30 8187 N 779.622 5.16213 -1.70369 0
M  V30 8188 H 783.424 2.61795 -1.3357 0
M  V30 8189 H 780.938 1.39809 -0.826277 0
M  V30 8190 H 782.935 4.12329 0.615668 0
M  V30 8191 H 781.595 3.05323 1.10491 0
M  V30 8192 H 782.606 4.68177 -2.21428 0
M  V30 8193 H 779.283 4.16319 0.313747 0
M  V30 8194 H 780.673 5.80811 -3.37799 0
M  V30 8195 N 783.393 0.737304 1.3929 0
M  V30 8196 C 784.618 0.295237 2.05288 0
M  V30 8197 C 785.043 -1.06235 1.55228 0
M  V30 8198 O 784.401 -1.67365 0.697043 0
M  V30 8199 C 784.449 0.309146 3.59272 0
M  V30 8200 O 783.553 -0.702437 4.06374 0
M  V30 8201 H 782.894 0.133762 0.650387 0
M  V30 8202 H 785.424 1.00387 1.78279 0
M  V30 8203 H 785.434 0.154336 4.07708 0
M  V30 8204 H 784.109 1.29974 3.95069 0
M  V30 8205 H 782.686 -0.513574 3.69346 0
M  V30 8206 N 784.871 -1.49948 0.485112 0
M  V30 8207 C 786.099 -2.06806 -0.0622824 0
M  V30 8208 C 786.514 -1.34736 -1.32256 0
M  V30 8209 O 785.871 -0.420836 -1.77582 0
M  V30 8210 C 785.922 -3.59934 -0.336096 0
M  V30 8211 O 785.643 -4.29289 0.874203 0
M  V30 8212 C 787.144 -4.33459 -0.928903 0
M  V30 8213 H 784.364 -0.670867 0.0133472 0
M  V30 8214 H 786.908 -1.92937 0.677917 0
M  V30 8215 H 785.063 -3.7356 -1.02625 0
M  V30 8216 H 785.477 -5.20735 0.627332 0
M  V30 8217 H 786.951 -5.41527 -1.07017 0
M  V30 8218 H 787.428 -3.94881 -1.92265 0
M  V30 8219 H 788.034 -4.24399 -0.276705 0
M  V30 8220 N 786.349 -0.21828 -1.56081 0
M  V30 8221 C 787.597 0.413488 -1.97825 0
M  V30 8222 C 787.918 1.60527 -1.10707 0
M  V30 8223 O 787.188 1.9504 -0.183378 0
M  V30 8224 H 785.768 0.155757 -0.730581 0
M  V30 8225 H 788.43 -0.310413 -1.92412 0
M  V30 8226 H 787.526 0.742024 -3.03151 0
M  V30 8227 N 787.827 1.57504 0.0551401 0
M  V30 8228 C 788.774 2.04825 1.06373 0
M  V30 8229 C 789.744 0.932108 1.37481 0
M  V30 8230 O 790.929 1.20093 1.48265 0
M  V30 8231 C 788.069 2.51091 2.36743 0
M  V30 8232 C 787.182 3.76392 2.12021 0
M  V30 8233 C 786.317 4.11373 3.36074 0
M  V30 8234 C 785.356 5.29666 3.0679 0
M  V30 8235 N 784.493 5.60205 4.2322 0
M  V30 8236 H 789.333 2.90753 0.653216 0
M  V30 8237 H 786.87 1.43776 0.310951 0
M  V30 8238 H 788.828 2.75973 3.12881 0
M  V30 8239 H 787.458 1.68118 2.75565 0
M  V30 8240 H 786.51 3.58751 1.26498 0
M  V30 8241 H 787.822 4.62662 1.86401 0
M  V30 8242 H 786.976 4.37245 4.20597 0
M  V30 8243 H 785.715 3.23704 3.64784 0
M  V30 8244 H 784.72 5.03574 2.20664 0
M  V30 8245 H 785.945 6.18968 2.79385 0
M  V30 8246 H 783.891 4.75495 4.5193 0
M  V30 8247 H 783.808 6.40928 4.00933 0
M  V30 8248 H 785.076 5.90637 5.08692 0
M  V30 8249 N 789.305 -0.326896 1.54172 0
M  V30 8250 C 790.716 -0.901533 1.63491 0
M  V30 8251 C 791.067 -1.88994 0.52684 0
M  V30 8252 O 790.192 -2.137 -0.340794 0
M  V30 8253 C 790.787 -1.64192 2.96355 0
M  V30 8254 C 789.346 -2.16533 3.07881 0
M  V30 8255 C 788.493 -0.98966 2.59039 0
M  V30 8256 H 791.444 -0.104568 1.58355 0
M  V30 8257 H 791.465 -2.50592 2.86328 0
M  V30 8258 H 790.977 -0.922291 3.76982 0
M  V30 8259 H 789.078 -2.91622 2.31922 0
M  V30 8260 H 789.191 -2.41762 4.13628 0
M  V30 8261 H 787.555 -1.36787 2.14852 0
M  V30 8262 H 788.338 -0.284401 3.4212 0
M  V30 8263 N 790.784 -1.46188 -0.588786 0
M  V30 8264 C 792.012 -1.54743 -1.37339 0
M  V30 8265 C 792.427 -0.186446 -1.87877 0
M  V30 8266 O 791.784 0.815247 -1.63279 0
M  V30 8267 C 791.835 -2.54727 -2.56508 0
M  V30 8268 O 791.556 -3.85539 -2.08066 0
M  V30 8269 C 793.057 -2.73163 -3.49137 0
M  V30 8270 H 790.277 -0.523484 -0.419768 0
M  V30 8271 H 792.821 -1.91543 -0.716345 0
M  V30 8272 H 790.976 -2.20948 -3.18215 0
M  V30 8273 H 791.39 -4.39905 -2.85629 0
M  V30 8274 H 792.864 -3.47057 -4.2925 0
M  V30 8275 H 793.341 -1.79856 -4.00685 0
M  V30 8276 H 793.947 -3.08014 -2.9327 0
M  V30 8277 N 792.262 0.832906 -1.33792 0
M  V30 8278 C 793.508 1.59089 -1.25772 0
M  V30 8279 C 793.841 1.93414 0.174601 0
M  V30 8280 O 793.116 1.59195 1.11746 0
M  V30 8281 C 793.399 2.89699 -2.13885 0
M  V30 8282 C 793.252 2.62017 -3.65605 0
M  V30 8283 C 794.571 3.91182 -2.01654 0
M  V30 8284 H 791.69 0.577232 -0.458227 0
M  V30 8285 H 794.332 0.960227 -1.6395 0
M  V30 8286 H 792.482 3.4352 -1.81456 0
M  V30 8287 H 794.154 2.14582 -4.08353 0
M  V30 8288 H 792.397 1.95621 -3.87189 0
M  V30 8289 H 793.068 3.55112 -4.2261 0
M  V30 8290 H 795.544 3.46684 -2.30107 0
M  V30 8291 H 794.42 4.80391 -2.65548 0
M  V30 8292 H 794.681 4.30861 -0.990536 0
M  V30 8293 N 793.74 1.17359 1.05189 0
M  V30 8294 C 794.968 0.986529 1.81866 0
M  V30 8295 C 795.383 -0.46522 1.82979 0
M  V30 8296 O 794.74 -1.32305 1.25705 0
M  V30 8297 C 794.791 1.52021 3.27982 0
M  V30 8298 O 794.512 2.91511 3.27037 0
M  V30 8299 C 796.013 1.37774 4.21347 0
M  V30 8300 H 793.233 0.349021 0.573084 0
M  V30 8301 H 795.777 1.55648 1.32643 0
M  V30 8302 H 793.932 0.992287 3.74476 0
M  V30 8303 H 794.346 3.16178 4.18488 0
M  V30 8304 H 795.82 1.7993 5.21852 0
M  V30 8305 H 796.297 0.32483 4.37997 0
M  V30 8306 H 796.903 1.89583 3.80708 0
M  V30 8307 N 795.218 -1.23913 0.973828 0
M  V30 8308 C 796.464 -1.92436 0.640026 0
M  V30 8309 C 796.797 -1.75875 -0.823512 0
M  V30 8310 O 796.072 -1.11563 -1.59323 0
M  V30 8311 C 796.355 -3.4526 1.0231 0
M  V30 8312 C 796.208 -3.70961 2.54378 0
M  V30 8313 C 797.527 -4.36495 0.562155 0
M  V30 8314 H 794.646 -0.698868 0.233992 0
M  V30 8315 H 797.288 -1.46163 1.21393 0
M  V30 8316 H 795.438 -3.84802 0.534751 0
M  V30 8317 H 797.11 -3.40941 3.10737 0
M  V30 8318 H 795.353 -3.15899 2.97305 0
M  V30 8319 H 796.024 -4.77912 2.76232 0
M  V30 8320 H 798.5 -4.04363 0.981333 0
M  V30 8321 H 797.376 -5.42142 0.858689 0
M  V30 8322 H 797.637 -4.38818 -0.537659 0
M  V30 8323 N 796.696 -0.74468 -1.38897 0
M  V30 8324 C 798.107 -0.36568 -1.83084 0
M  V30 8325 C 798.458 1.10436 -1.62168 0
M  V30 8326 O 797.583 1.85281 -1.11804 0
M  V30 8327 C 798.178 -0.656946 -3.3237 0
M  V30 8328 C 796.737 -0.331329 -3.74939 0
M  V30 8329 C 795.884 -0.914661 -2.61781 0
M  V30 8330 H 798.835 -0.941551 -1.27752 0
M  V30 8331 H 798.856 0.0679546 -3.80439 0
M  V30 8332 H 798.368 -1.72693 -3.47561 0
M  V30 8333 H 796.469 0.732426 -3.6533 0
M  V30 8334 H 796.582 -0.820655 -4.72019 0
M  V30 8335 H 794.946 -0.34063 -2.52412 0
M  V30 8336 H 795.729 -1.98949 -2.79775 0
M  V30 8337 N 798.174 1.49689 -0.493057 0
M  V30 8338 C 799.422 2.02027 0.0541642 0
M  V30 8339 C 799.743 1.37554 1.38217 0
M  V30 8340 O 799.013 0.528174 1.88646 0
M  V30 8341 H 797.593 0.746646 0.0230069 0
M  V30 8342 H 800.255 1.83795 -0.648489 0
M  V30 8343 H 799.351 3.11523 0.189652 0
M  V30 8344 N 799.652 0.226554 1.55963 0
M  V30 8345 C 800.584 -0.713907 2.17798 0
M  V30 8346 C 801.597 -1.15387 1.14846 0
M  V30 8347 O 802.786 -1.08416 1.41804 0
M  V30 8348 C 799.886 -1.97945 2.75084 0
M  V30 8349 C 799.059 -1.69424 4.03255 0
M  V30 8350 C 798.118 -2.80734 4.45056 0
M  V30 8351 O 797.144 -2.4899 5.11852 0
M  V30 8352 N 798.346 -4.09797 4.11152 0
M  V30 8353 H 801.111 -0.18494 2.99129 0
M  V30 8354 H 798.672 0.0457346 1.61835 0
M  V30 8355 H 800.664 -2.71611 3.00016 0
M  V30 8356 H 799.234 -2.41876 1.98027 0
M  V30 8357 H 798.454 -0.793767 3.86126 0
M  V30 8358 H 799.742 -1.47806 4.86858 0
M  V30 8359 H 799.14 -4.38429 3.57486 0
M  V30 8360 H 797.697 -4.79992 4.40966 0
M  V30 8361 N 801.13 -1.57531 -0.0467866 0
M  V30 8362 C 802.078 -2.06455 -1.0714 0
M  V30 8363 C 803.072 -0.974744 -1.38546 0
M  V30 8364 O 804.278 -1.15974 -1.37659 0
M  V30 8365 H 800.653 -0.658607 -0.362962 0
M  V30 8366 H 802.624 -2.91613 -0.632813 0
M  V30 8367 C 801.373 -2.54481 -2.36927 0
M  V30 8368 H 800.696 -3.37946 -2.13617 0
M  V30 8369 H 802.136 -2.92442 -3.07007 0
M  V30 8370 C 800.595 -1.43836 -3.04652 0
M  V30 8371 O 801.125 -0.794531 -3.93764 0
M  V30 8372 N 799.331 -1.17727 -2.65686 0
M  V30 8373 H 798.878 -1.70265 -1.93307 0
M  V30 8374 H 798.836 -0.439051 -3.11319 0
M  V30 8375 N 802.608 0.318715 -1.54344 0
M  V30 8376 C 803.854 1.05765 -1.73037 0
M  V30 8377 C 804.187 1.87514 -0.505181 0
M  V30 8378 O 803.462 1.88021 0.497838 0
M  V30 8379 C 803.745 1.97836 -3.00887 0
M  V30 8380 C 803.598 1.19384 -4.33668 0
M  V30 8381 C 804.917 2.97285 -3.24514 0
M  V30 8382 H 802.036 0.383104 -0.629603 0
M  V30 8383 H 804.678 0.333864 -1.87044 0
M  V30 8384 H 802.828 2.59552 -2.89076 0
M  V30 8385 H 804.5 0.600906 -4.57369 0
M  V30 8386 H 802.743 0.496198 -4.30953 0
M  V30 8387 H 803.414 1.87014 -5.19355 0
M  V30 8388 H 805.89 2.45693 -3.35819 0
M  V30 8389 H 804.766 3.58887 -4.15321 0
M  V30 8390 H 805.027 3.70003 -2.41971 0
M  V30 8391 N 804.086 1.46499 0.581025 0
M  V30 8392 C 805.049 1.5677 1.672 0
M  V30 8393 C 806.049 0.444716 1.54528 0
M  V30 8394 O 807.239 0.709074 1.59116 0
M  V30 8395 C 804.371 1.4896 3.06633 0
M  V30 8396 H 805.564 2.54 1.5945 0
M  V30 8397 H 803.117 1.34334 0.799003 0
M  V30 8398 H 803.852 0.530168 3.19937 0
M  V30 8399 H 803.637 2.30439 3.17239 0
M  V30 8400 H 805.127 1.59237 3.86048 0
M  V30 8401 N 805.565 -0.825799 1.34232 0
M  V30 8402 C 806.495 -1.95151 1.28212 0
M  V30 8403 C 807.476 -1.69345 0.160123 0
M  V30 8404 O 808.661 -1.90983 0.352019 0
M  V30 8405 C 805.791 -3.31554 1.03388 0
M  V30 8406 C 804.745 -3.71793 2.12023 0
M  V30 8407 C 804.071 -5.06147 1.72392 0
M  V30 8408 C 805.371 -3.84193 3.53826 0
M  V30 8409 H 807.065 -2.00445 2.22401 0
M  V30 8410 H 804.611 -0.962996 1.07063 0
M  V30 8411 H 806.564 -4.09889 0.978225 0
M  V30 8412 H 805.288 -3.26551 0.0564142 0
M  V30 8413 H 803.947 -2.95731 2.16654 0
M  V30 8414 H 803.595 -4.97628 0.733137 0
M  V30 8415 H 803.295 -5.34041 2.451 0
M  V30 8416 H 804.819 -5.86943 1.68317 0
M  V30 8417 H 806.233 -4.52806 3.51624 0
M  V30 8418 H 804.63 -4.23538 4.2513 0
M  V30 8419 H 805.7 -2.86272 3.91377 0
M  V30 8420 N 807.043 -1.17915 -1.04565 0
M  V30 8421 C 807.99 -0.901605 -2.12461 0
M  V30 8422 C 808.96 0.157011 -1.65356 0
M  V30 8423 O 810.145 0.0184494 -1.90791 0
M  V30 8424 C 807.285 -0.42796 -3.42436 0
M  V30 8425 C 806.398 -1.55142 -4.03181 0
M  V30 8426 C 805.533 -1.03101 -5.21098 0
M  V30 8427 C 804.572 -2.1295 -5.73863 0
M  V30 8428 N 803.709 -1.62339 -6.83074 0
M  V30 8429 H 808.549 -1.82551 -2.3554 0
M  V30 8430 H 806.086 -0.910389 -1.15544 0
M  V30 8431 H 808.044 -0.134859 -4.16982 0
M  V30 8432 H 806.674 0.458977 -3.1952 0
M  V30 8433 H 805.726 -1.96011 -3.26012 0
M  V30 8434 H 807.038 -2.37968 -4.38375 0
M  V30 8435 H 806.192 -0.692132 -6.02739 0
M  V30 8436 H 804.931 -0.17227 -4.87396 0
M  V30 8437 H 803.936 -2.47687 -4.90847 0
M  V30 8438 H 805.161 -2.9925 -6.09611 0
M  V30 8439 H 803.107 -0.787464 -6.51256 0
M  V30 8440 H 803.024 -2.38767 -7.17305 0
M  V30 8441 H 804.292 -1.31363 -7.68351 0
M  V30 8442 N 808.521 1.23394 -0.980386 0
M  V30 8443 C 809.746 1.96384 -0.666935 0
M  V30 8444 C 810.171 1.72087 0.759456 0
M  V30 8445 O 809.529 0.992328 1.51732 0
M  V30 8446 C 809.577 3.47499 -0.963177 0
M  V30 8447 O 808.681 4.12363 -0.0552051 0
M  V30 8448 H 808.022 0.614797 -0.250839 0
M  V30 8449 H 810.552 1.56831 -1.31398 0
M  V30 8450 H 810.562 3.97953 -0.899877 0
M  V30 8451 H 809.237 3.6451 -2.00264 0
M  V30 8452 H 807.814 3.72499 -0.172914 0
M  V30 8453 N 809.999 0.752036 1.385 0
M  V30 8454 C 811.247 0.306895 1.99756 0
M  V30 8455 C 811.568 -1.11478 1.59992 0
M  V30 8456 O 810.838 -1.76206 0.856045 0
M  V30 8457 H 809.418 0.11048 0.738785 0
M  V30 8458 H 812.08 0.965785 1.69289 0
M  V30 8459 H 811.176 0.368797 3.09913 0
M  V30 8460 N 811.477 -1.49425 0.500989 0
M  V30 8461 C 812.705 -2.06861 -0.0403443 0
M  V30 8462 C 813.12 -1.36132 -1.30819 0
M  V30 8463 O 812.477 -0.439647 -1.77125 0
M  V30 8464 C 812.528 -3.6027 -0.297902 0
M  V30 8465 O 812.249 -4.28338 0.919686 0
M  V30 8466 C 813.75 -4.34419 -0.882876 0
M  V30 8467 H 810.97 -0.670688 0.0204619 0
M  V30 8468 H 813.514 -1.92207 0.698342 0
M  V30 8469 H 811.669 -3.74627 -0.98657 0
M  V30 8470 H 812.083 -5.2004 0.682528 0
M  V30 8471 H 813.557 -5.42631 -1.01268 0
M  V30 8472 H 814.034 -3.96898 -1.88066 0
M  V30 8473 H 814.64 -4.24669 -0.231677 0
M  V30 8474 N 812.955 -0.234822 -1.55841 0
M  V30 8475 C 813.918 0.656378 -2.196 0
M  V30 8476 C 814.918 1.11179 -1.16171 0
M  V30 8477 O 816.108 1.01845 -1.41326 0
M  V30 8478 C 813.24 1.90072 -2.82993 0
M  V30 8479 H 814.433 0.100281 -2.99732 0
M  V30 8480 H 811.986 0.0147613 -1.56293 0
M  V30 8481 H 812.721 2.49836 -2.06767 0
M  V30 8482 H 812.506 1.5825 -3.58747 0
M  V30 8483 H 813.996 2.53538 -3.31826 0
M  V30 8484 N 814.433 1.57553 0.0384317 0
M  V30 8485 C 815.365 2.02726 1.06934 0
M  V30 8486 C 816.378 0.938502 1.33026 0
M  V30 8487 O 817.567 1.21595 1.30678 0
M  V30 8488 C 814.667 2.37958 2.41308 0
M  V30 8489 C 813.84 3.69098 2.34703 0
M  V30 8490 C 812.899 3.91623 3.51451 0
M  V30 8491 O 811.925 4.628 3.31368 0
M  V30 8492 N 813.127 3.36538 4.72993 0
M  V30 8493 H 815.892 2.91781 0.684381 0
M  V30 8494 H 813.453 1.60307 0.226542 0
M  V30 8495 H 815.445 2.50172 3.18113 0
M  V30 8496 H 814.015 1.54621 2.71682 0
M  V30 8497 H 813.235 3.67325 1.43059 0
M  V30 8498 H 814.523 4.55144 2.27424 0
M  V30 8499 H 813.921 2.78828 4.92211 0
M  V30 8500 H 812.478 3.54148 5.47195 0
M  V30 8501 N 815.911 -0.310526 1.54511 0
M  V30 8502 C 817.16 -1.0445 1.72549 0
M  V30 8503 C 817.473 -1.88748 0.513172 0
M  V30 8504 O 818.679 -2.65338 0.575165 0
M  V30 8505 C 817.135 -1.90665 3.05246 0
M  V30 8506 C 816.743 -1.11415 4.33925 0
M  V30 8507 C 818.487 -2.63719 3.32645 0
M  V30 8508 C 816.394 -1.96852 5.57677 0
M  V30 8509 H 815.324 -0.393676 0.643067 0
M  V30 8510 H 817.975 -0.302003 1.80998 0
M  V30 8511 H 816.357 -2.68864 2.90737 0
M  V30 8512 H 817.531 -0.378956 4.59239 0
M  V30 8513 H 815.846 -0.499853 4.13389 0
M  V30 8514 H 818.443 -3.27974 4.223 0
M  V30 8515 H 818.786 -3.32047 2.51098 0
M  V30 8516 H 819.319 -1.92574 3.48081 0
M  V30 8517 H 816.058 -1.33009 6.41864 0
M  V30 8518 H 815.578 -2.68069 5.36562 0
M  V30 8519 H 817.257 -2.55127 5.94575 0
M  V30 8520 N 817.389 -1.46805 -0.573248 0
M  V30 8521 C 818.352 -1.57655 -1.66366 0
M  V30 8522 C 819.352 -0.452905 -1.5429 0
M  V30 8523 O 820.542 -0.717502 -1.58737 0
M  V30 8524 C 817.674 -1.50584 -3.05839 0
M  V30 8525 H 818.867 -2.54842 -1.581 0
M  V30 8526 H 816.42 -1.34756 -0.791868 0
M  V30 8527 H 817.155 -0.547127 -3.19651 0
M  V30 8528 H 816.94 -2.32118 -3.16012 0
M  V30 8529 H 818.43 -1.61282 -3.85199 0
M  V30 8530 N 818.867 0.818669 -1.34668 0
M  V30 8531 C 820.144 1.56118 -1.17841 0
M  V30 8532 C 820.524 2.09646 0.24731 0
M  V30 8533 O 819.872 1.91329 1.24922 0
M  V30 8534 C 820.082 2.67922 -2.23649 0
M  V30 8535 C 821.43 3.36579 -2.58843 0
M  V30 8536 O 822.454 2.78182 -2.22471 0
M  V30 8537 O 821.313 4.42045 -3.21339 0
M  V30 8538 H 818.407 0.689216 -0.457067 0
M  V30 8539 H 820.953 0.859674 -1.46314 0
M  V30 8540 H 819.725 2.26153 -3.19328 0
M  V30 8541 H 819.348 3.45719 -1.96377 0
M  V30 8542 N 820.346 1.18468 1.03938 0
M  V30 8543 C 821.256 0.927889 2.1547 0
M  V30 8544 C 822.272 -0.108447 1.73662 0
M  V30 8545 O 823.448 0.0737636 2.01265 0
M  V30 8546 C 820.513 0.458494 3.43655 0
M  V30 8547 C 819.574 1.56295 3.99838 0
M  V30 8548 C 818.807 1.11586 5.21904 0
M  V30 8549 O 819.03 -0.0249057 5.70395 0
M  V30 8550 O 817.964 1.91412 5.70653 0
M  V30 8551 H 821.79 1.86116 2.39989 0
M  V30 8552 H 819.375 0.966607 1.13917 0
M  V30 8553 H 821.257 0.204861 4.20902 0
M  V30 8554 H 819.932 -0.446464 3.20606 0
M  V30 8555 H 818.839 1.87061 3.23974 0
M  V30 8556 H 820.172 2.44408 4.2723 0
M  V30 8557 N 821.824 -1.22873 0.986916 0
M  V30 8558 C 822.771 -2.2458 0.532215 0
M  V30 8559 C 823.741 -1.60375 -0.432322 0
M  V30 8560 O 824.926 -1.87775 -0.338416 0
M  V30 8561 C 822.066 -3.44761 -0.152864 0
M  V30 8562 C 821.179 -4.23501 0.852704 0
M  V30 8563 C 820.314 -5.31011 0.14176 0
M  V30 8564 C 819.353 -6.01464 1.1361 0
M  V30 8565 N 818.49 -7.00631 0.453871 0
M  V30 8566 H 823.33 -2.62838 1.40428 0
M  V30 8567 H 820.867 -1.29185 0.703543 0
M  V30 8568 H 822.825 -4.1333 -0.566926 0
M  V30 8569 H 821.455 -3.07284 -0.988756 0
M  V30 8570 H 820.507 -3.54286 1.38512 0
M  V30 8571 H 821.819 -4.72097 1.61014 0
M  V30 8572 H 820.973 -6.05805 -0.329337 0
M  V30 8573 H 819.712 -4.83373 -0.648229 0
M  V30 8574 H 818.717 -5.25456 1.61789 0
M  V30 8575 H 819.942 -6.5119 1.92686 0
M  V30 8576 H 817.888 -6.55235 -0.316791 0
M  V30 8577 H 817.805 -7.47204 1.14986 0
M  V30 8578 H 819.073 -7.795 0.00537823 0
M  V30 8579 N 823.302 -0.75937 -1.38099 0
M  V30 8580 C 824.25 -0.124954 -2.32264 0
M  V30 8581 C 825.244 0.698863 -1.54312 0
M  V30 8582 O 826.45 0.597312 -1.698 0
M  V30 8583 H 822.825 -0.0216142 -0.751689 0
M  V30 8584 H 824.796 -0.935115 -2.83369 0
M  V30 8585 C 823.545 0.749463 -3.39527 0
M  V30 8586 H 822.868 0.124932 -3.99605 0
M  V30 8587 H 824.308 1.16055 -4.07808 0
M  V30 8588 C 822.767 1.89464 -2.78577 0
M  V30 8589 O 823.297 2.98923 -2.68343 0
M  V30 8590 N 821.503 1.69145 -2.36301 0
M  V30 8591 H 821.05 0.801157 -2.44825 0
M  V30 8592 H 821.008 2.45936 -1.95864 0
M  V30 8593 N 824.78 1.49157 -0.508906 0
M  V30 8594 C 826.028 2.02073 0.0327335 0
M  V30 8595 C 826.349 1.39012 1.3675 0
M  V30 8596 O 825.619 0.548153 1.88075 0
M  V30 8597 H 824.199 0.746848 0.0150864 0
M  V30 8598 H 826.861 1.83097 -0.667946 0
M  V30 8599 H 825.957 3.11707 0.1566 0
M  V30 8600 N 826.258 0.243083 1.55714 0
M  V30 8601 C 827.506 -0.381964 1.98458 0
M  V30 8602 C 827.827 -1.58745 1.13247 0
M  V30 8603 O 827.097 -1.94723 0.214384 0
M  V30 8604 H 825.677 -0.144114 0.732967 0
M  V30 8605 H 828.339 0.340985 1.91894 0
M  V30 8606 H 827.435 -0.693702 3.04293 0
M  V30 8607 N 827.736 -1.57571 -0.0300757 0
M  V30 8608 C 828.966 -1.93204 -0.731828 0
M  V30 8609 C 829.374 -0.841156 -1.69473 0
M  V30 8610 O 828.717 0.191231 -1.82702 0
M  V30 8611 C 828.779 -3.2463 -1.54453 0
M  V30 8612 C 828.443 -4.50862 -0.746507 0
M  V30 8613 C 829.44 -5.19879 -0.0472309 0
M  V30 8614 C 827.125 -4.9738 -0.701347 0
M  V30 8615 C 829.119 -6.33692 0.686518 0
M  V30 8616 C 826.806 -6.11089 0.036148 0
M  V30 8617 C 827.804 -6.791 0.728841 0
M  V30 8618 O 827.492 -7.90635 1.45436 0
M  V30 8619 H 827.224 -0.6423 -0.210775 0
M  V30 8620 H 829.778 -2.05398 0.00804194 0
M  V30 8621 H 828.008 -3.0876 -2.32818 0
M  V30 8622 H 829.697 -3.45597 -2.1288 0
M  V30 8623 H 830.463 -4.84945 -0.0731582 0
M  V30 8624 H 826.342 -4.44288 -1.23001 0
M  V30 8625 H 829.886 -6.86711 1.22773 0
M  V30 8626 H 825.783 -6.45468 0.064002 0
M  V30 8627 H 826.551 -8.06988 1.36794 0
M  V30 8628 N 829.214 0.302327 -1.54673 0
M  V30 8629 C 830.144 1.37759 -1.88533 0
M  V30 8630 C 831.125 1.52961 -0.744113 0
M  V30 8631 O 832.31 1.6649 -0.999731 0
M  V30 8632 C 829.44 2.74201 -2.13146 0
M  V30 8633 C 828.394 2.73765 -3.28993 0
M  V30 8634 C 827.72 4.13483 -3.39022 0
M  V30 8635 C 829.02 2.35624 -4.66132 0
M  V30 8636 H 830.714 1.0967 -2.78591 0
M  V30 8637 H 828.26 0.52613 -1.34044 0
M  V30 8638 H 830.213 3.49508 -2.35419 0
M  V30 8639 H 828.937 3.03812 -1.19858 0
M  V30 8640 H 827.596 2.00914 -3.06642 0
M  V30 8641 H 827.244 4.40269 -2.43253 0
M  V30 8642 H 826.944 4.14093 -4.16894 0
M  V30 8643 H 828.468 4.90572 -3.63553 0
M  V30 8644 H 829.882 3.00647 -4.88143 0
M  V30 8645 H 828.279 2.47449 -5.46707 0
M  V30 8646 H 829.349 1.30753 -4.66939 0
M  V30 8647 N 830.692 1.47107 0.565454 0
M  V30 8648 C 831.938 1.53535 1.32495 0
M  V30 8649 C 832.271 0.193537 1.93233 0
M  V30 8650 O 831.546 -0.796956 1.77423 0
M  V30 8651 C 831.829 2.64712 2.4413 0
M  V30 8652 C 831.682 4.08482 1.88314 0
M  V30 8653 C 833.001 2.71853 3.46098 0
M  V30 8654 H 830.12 0.558926 0.480386 0
M  V30 8655 H 832.762 1.79125 0.633575 0
M  V30 8656 H 830.912 2.43023 3.03104 0
M  V30 8657 H 832.584 4.4151 1.33665 0
M  V30 8658 H 830.827 4.17148 1.19037 0
M  V30 8659 H 831.498 4.82032 2.68978 0
M  V30 8660 H 833.974 2.91397 2.97031 0
M  V30 8661 H 832.85 3.51433 4.21646 0
M  V30 8662 H 833.111 1.78584 4.04426 0
M  V30 8663 N 832.17 -0.811516 1.35101 0
M  V30 8664 C 833.418 -1.56525 1.27845 0
M  V30 8665 C 833.739 -1.94435 -0.14829 0
M  V30 8666 O 833.009 -1.63203 -1.08359 0
M  V30 8667 H 831.589 -0.580433 0.47022 0
M  V30 8668 H 834.251 -0.968277 1.69146 0
M  V30 8669 H 833.347 -2.48291 1.89097 0
M  V30 8670 N 833.648 -1.19017 -1.03309 0
M  V30 8671 C 834.578 -0.94772 -2.13402 0
M  V30 8672 C 835.559 0.117383 -1.69694 0
M  V30 8673 O 836.744 -0.0367733 -1.94165 0
M  V30 8674 C 833.874 -0.480977 -3.43953 0
M  V30 8675 C 832.828 -1.48743 -4.01322 0
M  V30 8676 C 832.154 -0.877924 -5.27443 0
M  V30 8677 C 833.454 -2.86642 -4.36616 0
M  V30 8678 H 835.148 -1.86846 -2.33942 0
M  V30 8679 H 832.694 -0.899781 -1.12427 0
M  V30 8680 H 834.647 -0.298677 -4.2034 0
M  V30 8681 H 833.371 0.475348 -3.23122 0
M  V30 8682 H 832.03 -1.65681 -3.27025 0
M  V30 8683 H 831.678 0.0858232 -5.02927 0
M  V30 8684 H 831.378 -1.54996 -5.66789 0
M  V30 8685 H 832.902 -0.706326 -6.06501 0
M  V30 8686 H 834.316 -2.73312 -5.03958 0
M  V30 8687 H 832.713 -3.50599 -4.87032 0
M  V30 8688 H 833.783 -3.39617 -3.46105 0
M  V30 8689 N 835.127 1.22348 -0.993418 0
M  V30 8690 C 836.355 1.95125 -0.688021 0
M  V30 8691 C 836.77 1.73377 0.747388 0
M  V30 8692 O 836.127 1.03317 1.50439 0
M  V30 8693 C 836.178 3.47819 -0.985097 0
M  V30 8694 O 835.899 3.68838 -2.3641 0
M  V30 8695 C 837.4 4.37779 -0.697474 0
M  V30 8696 H 834.62 0.62087 -0.254481 0
M  V30 8697 H 837.164 1.55485 -1.32833 0
M  V30 8698 H 835.319 3.85426 -0.390583 0
M  V30 8699 H 835.733 4.63032 -2.46377 0
M  V30 8700 H 837.207 5.43666 -0.955604 0
M  V30 8701 H 837.684 4.37651 0.368524 0
M  V30 8702 H 838.29 4.05799 -1.27306 0
M  V30 8703 N 836.605 0.766683 1.37694 0
M  V30 8704 C 837.882 0.25366 1.93948 0
M  V30 8705 C 838.262 -1.25041 1.70082 0
M  V30 8706 O 837.61 -2.03115 1.04674 0
M  V30 8707 C 837.82 0.621549 3.43421 0
M  V30 8708 C 839.168 0.588504 4.20502 0
M  V30 8709 O 840.192 0.560632 3.5176 0
M  V30 8710 O 839.051 0.61107 5.43073 0
M  V30 8711 H 836.145 0.0570586 0.825029 0
M  V30 8712 H 838.691 0.847693 1.47011 0
M  V30 8713 H 837.463 1.65979 3.54354 0
M  V30 8714 H 837.086 0.000197027 3.976 0
M  V30 8715 N 838.083 -1.48885 0.516809 0
M  V30 8716 C 839.313 -2.06592 -0.018375 0
M  V30 8717 C 839.721 -1.37543 -1.29917 0
M  V30 8718 O 839.064 -0.452527 -1.78039 0
M  V30 8719 C 839.126 -3.58016 -0.326315 0
M  V30 8720 C 838.79 -4.48853 0.859072 0
M  V30 8721 C 839.787 -4.89422 1.75391 0
M  V30 8722 C 837.472 -4.90937 1.06235 0
M  V30 8723 C 839.466 -5.70831 2.83604 0
M  V30 8724 C 837.153 -5.72119 2.14763 0
M  V30 8725 C 838.151 -6.11972 3.03281 0
M  V30 8726 O 837.839 -6.91527 4.09934 0
M  V30 8727 H 837.571 -0.675559 0.0244023 0
M  V30 8728 H 840.125 -1.92442 0.718005 0
M  V30 8729 H 838.355 -3.70231 -1.1165 0
M  V30 8730 H 840.044 -3.97898 -0.801999 0
M  V30 8731 H 840.81 -4.57542 1.60875 0
M  V30 8732 H 836.689 -4.59409 0.382677 0
M  V30 8733 H 840.233 -6.01857 3.52724 0
M  V30 8734 H 836.13 -6.03412 2.29268 0
M  V30 8735 H 836.898 -7.0986 4.07482 0
M  V30 8736 N 839.561 -0.251338 -1.55583 0
M  V30 8737 C 840.81 0.372681 -1.98227 0
M  V30 8738 C 841.123 1.58743 -1.1428 0
M  V30 8739 O 842.329 2.28289 -1.46957 0
M  V30 8740 C 840.785 0.714439 -3.52738 0
M  V30 8741 C 840.393 -0.479168 -4.4543 0
M  V30 8742 C 842.137 1.3024 -4.04027 0
M  V30 8743 C 840.044 -0.113318 -5.91291 0
M  V30 8744 H 838.974 0.14302 -0.740312 0
M  V30 8745 H 841.625 -0.352253 -1.80087 0
M  V30 8746 H 840.007 1.49762 -3.66589 0
M  V30 8747 H 841.181 -1.25644 -4.4334 0
M  V30 8748 H 839.496 -0.982359 -4.04646 0
M  V30 8749 H 842.093 1.58953 -5.10527 0
M  V30 8750 H 842.436 2.22837 -3.51638 0
M  V30 8751 H 842.969 0.582024 -3.93519 0
M  V30 8752 H 839.708 -1.00654 -6.47726 0
M  V30 8753 H 839.228 0.627666 -5.96507 0
M  V30 8754 H 840.907 0.30293 -6.4629 0
M  V30 8755 N 841.039 1.57585 0.0217189 0
M  V30 8756 C 842.286 1.89606 0.711045 0
M  V30 8757 C 842.614 0.849535 1.74966 0
M  V30 8758 O 841.869 -0.14856 1.95135 0
M  V30 8759 C 842.168 3.28377 1.41079 0
M  V30 8760 C 841.834 4.48035 0.507454 0
M  V30 8761 C 840.496 4.80504 0.258672 0
M  V30 8762 C 842.848 5.21071 -0.115793 0
M  V30 8763 C 840.176 5.83393 -0.622013 0
M  V30 8764 C 842.528 6.24897 -0.984224 0
M  V30 8765 C 841.192 6.55836 -1.2424 0
M  V30 8766 H 840.462 0.693817 0.26019 0
M  V30 8767 H 843.109 1.91478 -0.0291424 0
M  V30 8768 H 841.414 3.22528 2.22448 0
M  V30 8769 H 843.111 3.50404 1.94982 0
M  V30 8770 H 839.701 4.22653 0.711516 0
M  V30 8771 H 843.885 4.96259 0.0634327 0
M  V30 8772 H 839.141 6.05736 -0.830267 0
M  V30 8773 H 843.315 6.8063 -1.47363 0
M  V30 8774 H 840.942 7.35383 -1.92653 0
M  V30 8775 N 842.517 -0.29412 1.54831 0
M  V30 8776 C 843.742 -1.05156 1.78765 0
M  V30 8777 C 844.167 -1.79916 0.548809 0
M  V30 8778 O 843.525 -1.74243 -0.500909 0
M  V30 8779 C 843.573 -2.00242 2.99893 0
M  V30 8780 O 842.677 -3.08662 2.73499 0
M  V30 8781 H 842.018 -0.301737 0.591482 0
M  V30 8782 H 844.548 -0.329449 2.0193 0
M  V30 8783 H 844.558 -2.42583 3.28051 0
M  V30 8784 H 843.233 -1.45235 3.89717 0
M  V30 8785 H 841.81 -2.70786 2.56377 0
M  V30 8786 N 843.995 -1.47404 -0.557645 0
M  V30 8787 C 844.958 -1.59411 -1.64684 0
M  V30 8788 C 845.958 -0.469244 -1.53801 0
M  V30 8789 O 847.148 -0.734298 -1.57967 0
M  V30 8790 C 844.28 -1.5382 -3.04224 0
M  V30 8791 H 845.473 -2.56504 -1.55389 0
M  V30 8792 H 843.026 -1.35588 -0.777531 0
M  V30 8793 H 843.761 -0.581 -3.19053 0
M  V30 8794 H 843.546 -2.35456 -3.13533 0
M  V30 8795 H 845.036 -1.65358 -3.83466 0
M  V30 8796 N 845.473 0.80434 -1.35529 0
M  V30 8797 C 846.719 1.56385 -1.29118 0
M  V30 8798 C 847.052 1.9374 0.133536 0
M  V30 8799 O 846.327 1.6153 1.08344 0
M  V30 8800 C 846.61 2.85097 -2.19981 0
M  V30 8801 C 846.463 2.54204 -3.7108 0
M  V30 8802 C 847.782 3.86817 -2.09907 0
M  V30 8803 H 844.901 0.567382 -0.470368 0
M  V30 8804 H 847.543 0.925235 -1.6595 0
M  V30 8805 H 845.693 3.39594 -1.88701 0
M  V30 8806 H 847.365 2.05872 -4.12813 0
M  V30 8807 H 845.608 1.87364 -3.91251 0
M  V30 8808 H 846.279 3.46068 -4.30048 0
M  V30 8809 H 848.755 3.41725 -2.37409 0
M  V30 8810 H 847.631 4.7465 -2.75678 0
M  V30 8811 H 847.892 4.28663 -1.08171 0
M  V30 8812 N 846.951 1.19563 1.02676 0
M  V30 8813 C 848.176 1.02556 1.80269 0
M  V30 8814 C 848.601 -0.421056 1.83327 0
M  V30 8815 O 847.959 -1.30279 1.26084 0
M  V30 8816 C 848.007 1.60165 3.23078 0
M  V30 8817 O 847.111 0.832404 4.03912 0
M  V30 8818 H 846.452 0.362354 0.556413 0
M  V30 8819 H 848.982 1.58633 1.29216 0
M  V30 8820 H 848.992 1.6347 3.7382 0
M  V30 8821 H 847.667 2.65454 3.20167 0
M  V30 8822 H 846.244 0.872768 3.62543 0
M  V30 8823 N 848.429 -1.21819 0.999893 0
M  V30 8824 C 849.362 -2.22635 0.500887 0
M  V30 8825 C 850.34 -1.56459 -0.442636 0
M  V30 8826 O 851.524 -1.84902 -0.366551 0
M  V30 8827 C 848.651 -3.37598 -0.273046 0
M  V30 8828 C 847.697 -4.22006 0.617511 0
M  V30 8829 S 848.53 -4.93583 2.07693 0
M  V30 8830 C 849.686 -6.1198 1.31269 0
M  V30 8831 H 849.919 -2.64618 1.35516 0
M  V30 8832 H 847.452 -1.31606 0.807419 0
M  V30 8833 H 849.41 -4.04251 -0.713515 0
M  V30 8834 H 848.071 -2.94108 -1.10268 0
M  V30 8835 H 847.264 -5.03995 0.0216543 0
M  V30 8836 H 846.866 -3.6052 0.99504 0
M  V30 8837 H 849.158 -6.74979 0.583933 0
M  V30 8838 H 850.101 -6.75991 2.10811 0
M  V30 8839 H 850.509 -5.5847 0.822901 0
M  V30 8840 N 849.908 -0.773975 -1.37286 0
M  V30 8841 C 851.133 -0.349561 -2.04433 0
M  V30 8842 C 851.558 1.02082 -1.5799 0
M  V30 8843 O 850.916 1.65458 -0.741172 0
M  V30 8844 C 850.964 -0.404292 -3.58326 0
M  V30 8845 O 850.068 0.594447 -4.08093 0
M  V30 8846 H 849.409 -0.150959 -0.646612 0
M  V30 8847 H 851.939 -1.05079 -1.75555 0
M  V30 8848 H 851.949 -0.262378 -4.07155 0
M  V30 8849 H 850.624 -1.40403 -3.91484 0
M  V30 8850 H 849.201 0.415468 -3.70578 0
M  V30 8851 N 851.386 1.48609 -0.524698 0
M  V30 8852 C 852.797 1.86516 -0.0828846 0
M  V30 8853 C 853.148 1.43478 1.33822 0
M  V30 8854 O 852.273 0.823139 2.00133 0
M  V30 8855 C 852.868 3.38495 -0.143639 0
M  V30 8856 C 851.427 3.75615 0.242951 0
M  V30 8857 C 850.574 2.72649 -0.505747 0
M  V30 8858 H 853.525 1.40589 -0.736233 0
M  V30 8859 H 853.546 3.74977 0.645955 0
M  V30 8860 H 853.058 3.69789 -1.17805 0
M  V30 8861 H 851.159 3.49935 1.27971 0
M  V30 8862 H 851.272 4.7901 -0.0929834 0
M  V30 8863 H 849.636 2.54656 0.0473482 0
M  V30 8864 H 850.419 3.06786 -1.54069 0
M  V30 8865 N 852.864 0.259585 1.55447 0
M  V30 8866 C 853.827 -0.621359 2.20617 0
M  V30 8867 C 854.827 -1.09317 1.17925 0
M  V30 8868 O 856.017 -0.995842 1.42929 0
M  V30 8869 C 853.149 -1.85546 2.85982 0
M  V30 8870 H 854.342 -0.0525833 2.99854 0
M  V30 8871 H 851.895 0.0101055 1.56297 0
M  V30 8872 H 852.63 -2.46515 2.10715 0
M  V30 8873 H 852.415 -1.52523 3.61219 0
M  V30 8874 H 853.905 -2.48227 3.35817 0
M  V30 8875 N 854.342 -1.57594 -0.0133615 0
M  V30 8876 C 855.252 -2.10991 -1.02566 0
M  V30 8877 C 856.268 -1.05208 -1.3859 0
M  V30 8878 O 857.444 -1.37034 -1.47593 0
M  V30 8879 C 854.509 -2.59165 -2.30292 0
M  V30 8880 C 853.57 -3.79495 -2.00704 0
M  V30 8881 C 852.803 -4.25361 -3.22341 0
M  V30 8882 O 853.026 -3.70645 -4.33565 0
M  V30 8883 O 851.96 -5.17649 -3.07121 0
M  V30 8884 H 855.786 -2.97678 -0.601806 0
M  V30 8885 H 853.371 -1.47598 -0.23135 0
M  V30 8886 H 855.253 -2.90409 -3.05354 0
M  V30 8887 H 853.928 -1.75582 -2.71942 0
M  V30 8888 H 852.835 -3.53245 -1.23161 0
M  V30 8889 H 854.168 -4.64109 -1.639 0
M  V30 8890 N 855.82 0.285905 -1.54985 0
M  V30 8891 C 856.768 1.37302 -1.87752 0
M  V30 8892 C 857.762 1.51763 -0.752616 0
M  V30 8893 O 858.968 1.53701 -0.936805 0
M  V30 8894 H 855.343 0.458935 -0.59572 0
M  V30 8895 H 857.314 1.0691 -2.78591 0
M  V30 8896 C 856.063 2.72885 -2.15474 0
M  V30 8897 H 855.386 2.62545 -3.01513 0
M  V30 8898 H 856.826 3.47925 -2.42331 0
M  V30 8899 C 855.285 3.22989 -0.958124 0
M  V30 8900 O 855.815 4.01268 -0.186219 0
M  V30 8901 N 854.021 2.80503 -0.759354 0
M  V30 8902 H 853.568 2.16961 -1.38874 0
M  V30 8903 H 853.526 3.14375 0.0396937 0
M  V30 8904 N 857.298 1.47698 0.54982 0
M  V30 8905 C 858.709 1.48474 1.13191 0
M  V30 8906 C 859.06 0.243504 1.94683 0
M  V30 8907 O 858.185 -0.651009 2.06375 0
M  V30 8908 C 858.78 2.69022 2.05944 0
M  V30 8909 C 857.339 2.72733 2.5941 0
M  V30 8910 C 856.486 2.41691 1.35944 0
M  V30 8911 H 859.437 1.55101 0.336048 0
M  V30 8912 H 859.458 2.46412 2.89934 0
M  V30 8913 H 858.97 3.59345 1.46605 0
M  V30 8914 H 857.071 1.86568 3.22526 0
M  V30 8915 H 857.184 3.73628 2.99899 0
M  V30 8916 H 855.548 1.92428 1.66864 0
M  V30 8917 H 856.331 3.34231 0.783869 0
M  V30 8918 N 858.776 -0.797141 1.35954 0
M  V30 8919 C 860.053 -1.54224 1.2031 0
M  V30 8920 C 860.433 -2.10013 -0.213926 0
M  V30 8921 O 859.781 -1.93292 -1.21862 0
M  V30 8922 C 859.991 -2.6433 2.27883 0
M  V30 8923 C 861.339 -3.32418 2.64165 0
M  V30 8924 O 862.363 -2.74607 2.26868 0
M  V30 8925 O 861.222 -4.36876 3.28331 0
M  V30 8926 H 858.316 -0.681857 0.467974 0
M  V30 8927 H 860.862 -0.836288 1.47663 0
M  V30 8928 H 859.634 -2.21044 3.22885 0
M  V30 8929 H 859.257 -3.42551 2.01853 0
M  V30 8930 N 860.254 -1.20106 -1.0204 0
M  V30 8931 C 861.501 -1.00889 -1.75578 0
M  V30 8932 C 861.829 0.459415 -1.88996 0
M  V30 8933 O 861.084 1.35735 -1.40977 0
M  V30 8934 C 861.383 -1.63308 -3.17908 0
M  V30 8935 C 861.049 -3.13091 -3.24476 0
M  V30 8936 C 859.711 -3.53968 -3.25976 0
M  V30 8937 C 862.063 -4.09093 -3.22944 0
M  V30 8938 C 859.391 -4.89381 -3.2361 0
M  V30 8939 C 861.743 -5.44447 -3.22119 0
M  V30 8940 C 860.407 -5.84742 -3.2192 0
M  V30 8941 H 859.677 -0.36918 -0.642485 0
M  V30 8942 H 862.324 -1.49475 -1.19706 0
M  V30 8943 H 860.629 -1.06974 -3.76914 0
M  V30 8944 H 862.326 -1.45958 -3.73493 0
M  V30 8945 H 858.916 -2.80526 -3.24042 0
M  V30 8946 H 863.1 -3.78549 -3.20958 0
M  V30 8947 H 858.356 -5.1987 -3.21785 0
M  V30 8948 H 862.53 -6.18584 -3.19885 0
M  V30 8949 H 860.157 -6.89642 -3.19841 0
M  V30 8950 N 861.732 1.21287 -1.00634 0
M  V30 8951 C 862.981 1.89706 -0.685178 0
M  V30 8952 C 863.294 1.79044 0.787566 0
M  V30 8953 O 864.5 2.42502 1.22086 0
M  V30 8954 C 862.956 3.40176 -1.17508 0
M  V30 8955 C 862.564 3.59446 -2.674 0
M  V30 8956 C 864.308 4.14213 -0.928869 0
M  V30 8957 C 862.215 5.03688 -3.09923 0
M  V30 8958 H 861.145 0.710434 -0.252586 0
M  V30 8959 H 863.796 1.37277 -1.21768 0
M  V30 8960 H 862.178 3.91867 -0.570622 0
M  V30 8961 H 863.352 3.18188 -3.33306 0
M  V30 8962 H 861.667 2.98764 -2.9005 0
M  V30 8963 H 864.264 5.20546 -1.22212 0
M  V30 8964 H 864.607 4.16082 0.134859 0
M  V30 8965 H 865.14 3.68591 -1.49619 0
M  V30 8966 H 861.879 5.06968 -4.15529 0
M  V30 8967 H 861.399 5.45796 -2.4873 0
M  V30 8968 H 863.078 5.72204 -3.0198 0
M  V30 8969 N 863.21 0.781244 1.36873 0
M  V30 8970 C 864.14 0.188128 2.32741 0
M  V30 8971 C 865.121 -0.672326 1.56249 0
M  V30 8972 O 866.306 -0.607835 1.84442 0
M  V30 8973 C 863.436 -0.684341 3.40491 0
M  V30 8974 C 862.39 0.0755641 4.27933 0
M  V30 8975 C 861.716 -0.916968 5.26779 0
M  V30 8976 C 863.016 1.26006 5.06873 0
M  V30 8977 H 864.71 0.989016 2.82593 0
M  V30 8978 H 862.256 0.477038 1.35869 0
M  V30 8979 H 864.209 -1.10915 4.06541 0
M  V30 8980 H 862.933 -1.51785 2.89187 0
M  V30 8981 H 861.592 0.481258 3.63427 0
M  V30 8982 H 861.24 -1.74528 4.71751 0
M  V30 8983 H 860.94 -0.413 5.86147 0
M  V30 8984 H 862.464 -1.34052 5.95703 0
M  V30 8985 H 863.878 0.911425 5.66009 0
M  V30 8986 H 862.275 1.69676 5.75613 0
M  V30 8987 H 863.345 2.05948 4.38991 0
M  V30 8988 N 864.689 -1.48329 0.532571 0
M  V30 8989 C 865.919 -2.066 0.00353785 0
M  V30 8990 C 866.327 -1.38913 -1.28451 0
M  V30 8991 O 865.67 -0.471385 -1.77549 0
M  V30 8992 C 865.732 -3.58342 -0.288324 0
M  V30 8993 C 865.396 -4.47917 0.906631 0
M  V30 8994 C 866.393 -4.87534 1.80572 0
M  V30 8995 C 864.078 -4.89783 1.11436 0
M  V30 8996 C 866.072 -5.6779 2.89642 0
M  V30 8997 C 863.759 -5.69809 2.20819 0
M  V30 8998 C 864.757 -6.08721 3.09755 0
M  V30 8999 O 864.445 -6.8714 4.17246 0
M  V30 9000 H 864.177 -0.675263 0.0315661 0
M  V30 9001 H 866.731 -1.91669 0.738375 0
M  V30 9002 H 864.961 -3.71395 -1.07717 0
M  V30 9003 H 866.65 -3.98726 -0.759752 0
M  V30 9004 H 867.416 -4.5581 1.65719 0
M  V30 9005 H 863.295 -4.58977 0.431382 0
M  V30 9006 H 866.839 -5.98082 3.59087 0
M  V30 9007 H 862.736 -6.00947 2.35655 0
M  V30 9008 H 863.504 -7.05498 4.14988 0
M  V30 9009 N 866.167 -0.267825 -1.55308 0
M  V30 9010 C 867.413 0.351556 -1.9973 0
M  V30 9011 C 867.746 1.56049 -1.15596 0
M  V30 9012 O 867.021 1.93203 -0.224274 0
M  V30 9013 C 867.304 0.74091 -3.52395 0
M  V30 9014 C 867.157 -0.474861 -4.47286 0
M  V30 9015 C 868.476 1.5801 -4.10756 0
M  V30 9016 H 865.595 0.126308 -0.726096 0
M  V30 9017 H 868.237 -0.373316 -1.86296 0
M  V30 9018 H 866.387 1.35851 -3.63973 0
M  V30 9019 H 868.059 -1.1134 -4.47662 0
M  V30 9020 H 866.302 -1.11425 -4.19246 0
M  V30 9021 H 866.973 -0.158782 -5.51772 0
M  V30 9022 H 869.449 1.05857 -4.0241 0
M  V30 9023 H 868.325 1.82135 -5.17801 0
M  V30 9024 H 868.586 2.55878 -3.60526 0
M  V30 9025 N 867.645 1.57599 0.00500368 0
M  V30 9026 C 868.873 1.94626 0.702016 0
M  V30 9027 C 869.288 0.86953 1.67585 0
M  V30 9028 O 868.645 -0.15199 1.81866 0
M  V30 9029 C 868.696 3.31658 1.43824 0
M  V30 9030 O 868.417 4.35197 0.503467 0
M  V30 9031 C 869.918 3.83114 2.23021 0
M  V30 9032 H 867.138 0.641785 0.195841 0
M  V30 9033 H 869.682 2.04451 -0.0446287 0
M  V30 9034 H 867.837 3.23156 2.13655 0
M  V30 9035 H 868.251 5.1444 1.02235 0
M  V30 9036 H 869.725 4.81438 2.7004 0
M  V30 9037 H 870.202 3.15559 3.05482 0
M  V30 9038 H 870.808 3.94775 1.58216 0
M  V30 9039 N 869.123 -0.277682 1.55134 0
M  V30 9040 C 870.369 -1.0114 1.7578 0
M  V30 9041 C 870.702 -1.86109 0.554719 0
M  V30 9042 O 869.977 -1.89275 -0.447813 0
M  V30 9043 C 870.26 -1.89789 3.06027 0
M  V30 9044 C 870.113 -1.07844 4.3668 0
M  V30 9045 C 871.432 -2.88577 3.32282 0
M  V30 9046 H 868.551 -0.366277 0.639539 0
M  V30 9047 H 871.193 -0.284155 1.87863 0
M  V30 9048 H 869.343 -2.51796 2.95856 0
M  V30 9049 H 871.015 -0.479432 4.58802 0
M  V30 9050 H 869.258 -0.381764 4.32117 0
M  V30 9051 H 869.929 -1.73179 5.24131 0
M  V30 9052 H 872.405 -2.36702 3.42215 0
M  V30 9053 H 871.281 -3.47749 4.2469 0
M  V30 9054 H 871.542 -3.63458 2.51696 0
M  V30 9055 N 870.601 -1.47988 -0.541979 0
M  V30 9056 C 871.533 -1.5769 -1.66332 0
M  V30 9057 C 872.546 -0.461994 -1.56107 0
M  V30 9058 O 873.735 -0.732306 -1.62787 0
M  V30 9059 C 870.835 -1.47939 -3.04905 0
M  V30 9060 C 870.008 -2.74263 -3.40733 0
M  V30 9061 C 869.067 -2.58133 -4.58534 0
M  V30 9062 O 868.093 -3.31991 -4.62354 0
M  V30 9063 N 869.295 -1.6696 -5.55972 0
M  V30 9064 H 872.06 -2.54389 -1.5845 0
M  V30 9065 H 869.621 -1.4456 -0.728979 0
M  V30 9066 H 871.613 -1.34861 -3.81569 0
M  V30 9067 H 870.183 -0.592626 -3.06931 0
M  V30 9068 H 869.403 -3.01992 -2.53366 0
M  V30 9069 H 870.691 -3.58094 -3.6145 0
M  V30 9070 H 870.089 -1.06134 -5.55655 0
M  V30 9071 H 868.646 -1.59826 -6.31901 0
M  V30 9072 N 872.079 0.78992 -1.36375 0
M  V30 9073 C 873.011 1.91113 -1.26524 0
M  V30 9074 C 874.024 1.61747 -0.184851 0
M  V30 9075 O 875.213 1.73004 -0.439524 0
M  V30 9076 C 872.313 3.25908 -0.92937 0
M  V30 9077 C 871.486 3.83057 -2.11154 0
M  V30 9078 C 870.545 4.96289 -1.74881 0
M  V30 9079 O 869.571 5.12834 -2.46962 0
M  V30 9080 N 870.773 5.76478 -0.682193 0
M  V30 9081 H 873.538 2.00085 -2.23128 0
M  V30 9082 H 871.099 0.968165 -1.29762 0
M  V30 9083 H 873.091 3.99151 -0.667884 0
M  V30 9084 H 871.661 3.12556 -0.0524843 0
M  V30 9085 H 870.881 3.01808 -2.53586 0
M  V30 9086 H 872.169 4.1797 -2.90135 0
M  V30 9087 H 871.567 5.65638 -0.0836661 0
M  V30 9088 H 870.124 6.50026 -0.480529 0
M  V30 9089 N 873.557 1.20646 1.01402 0
M  V30 9090 C 874.968 1.01823 1.56489 0
M  V30 9091 C 875.319 -0.42463 1.9155 0
M  V30 9092 O 874.444 -1.30644 1.72514 0
M  V30 9093 C 875.039 1.84208 2.84347 0
M  V30 9094 C 873.598 1.69743 3.35953 0
M  V30 9095 C 872.745 1.8198 2.09233 0
M  V30 9096 H 875.696 1.348 0.837539 0
M  V30 9097 H 875.717 1.34698 3.55861 0
M  V30 9098 H 875.229 2.89215 2.58798 0
M  V30 9099 H 873.33 0.673833 3.66456 0
M  V30 9100 H 873.443 2.51173 4.07981 0
M  V30 9101 H 871.807 1.25193 2.21808 0
M  V30 9102 H 872.59 2.88477 1.86107 0
M  V30 9103 N 875.035 -1.20752 1.01276 0
M  V30 9104 C 875.945 -2.27079 0.589277 0
M  V30 9105 C 876.961 -1.6999 -0.371389 0
M  V30 9106 O 878.137 -2.00044 -0.233294 0
M  V30 9107 C 875.202 -3.4663 -0.0696715 0
M  V30 9108 C 874.263 -4.18962 0.936454 0
M  V30 9109 C 873.496 -5.32806 0.308856 0
M  V30 9110 O 873.719 -5.63376 -0.8924 0
M  V30 9111 O 872.653 -5.93131 1.02367 0
M  V30 9112 H 876.479 -2.6551 1.47438 0
M  V30 9113 H 874.064 -1.27297 0.782045 0
M  V30 9114 H 875.946 -4.19119 -0.437873 0
M  V30 9115 H 874.621 -3.10082 -0.929029 0
M  V30 9116 H 873.528 -3.48661 1.35595 0
M  V30 9117 H 874.861 -4.59441 1.76565 0
M  V30 9118 N 876.513 -0.788492 -1.36457 0
M  V30 9119 C 877.463 -0.159377 -2.27442 0
M  V30 9120 C 878.447 0.656146 -1.46913 0
M  V30 9121 O 879.639 0.516372 -1.693 0
M  V30 9122 C 876.768 0.705703 -3.35968 0
M  V30 9123 C 875.854 -0.11856 -4.23934 0
M  V30 9124 N 876.245 -1.1726 -4.9202 0
M  V30 9125 C 874.543 0.102752 -4.45882 0
M  V30 9126 C 875.244 -1.6743 -5.57083 0
M  V30 9127 N 874.22 -0.983682 -5.34626 0
M  V30 9128 H 878.022 -0.96614 -2.77566 0
M  V30 9129 H 875.536 -0.627864 -1.49772 0
M  V30 9130 H 877.533 1.17231 -4.00078 0
M  V30 9131 H 876.193 1.51102 -2.87399 0
M  V30 9132 H 877.204 -1.55502 -4.94004 0
M  V30 9133 H 873.881 0.878651 -4.08149 0
M  V30 9134 H 875.271 -2.55423 -6.21457 0
M  V30 9135 N 877.991 1.48044 -0.54043 0
M  V30 9136 C 879.221 2.06595 -0.0144943 0
M  V30 9137 C 879.629 1.39593 1.27713 0
M  V30 9138 O 878.972 0.480794 1.77297 0
M  V30 9139 C 879.034 3.5849 0.269316 0
M  V30 9140 C 878.698 4.47429 -0.930372 0
M  V30 9141 C 879.695 4.8657 -1.83155 0
M  V30 9142 C 877.38 4.89185 -1.14032 0
M  V30 9143 C 879.374 5.66246 -2.92649 0
M  V30 9144 C 877.061 5.6863 -2.23838 0
M  V30 9145 C 878.059 6.07069 -3.12979 0
M  V30 9146 O 877.747 6.84917 -4.20884 0
M  V30 9147 H 877.479 0.675086 -0.0351467 0
M  V30 9148 H 880.033 1.91275 -0.74853 0
M  V30 9149 H 878.263 3.71961 1.05745 0
M  V30 9150 H 879.952 3.99124 0.738595 0
M  V30 9151 H 880.718 4.54924 -1.68134 0
M  V30 9152 H 876.597 4.58742 -0.455717 0
M  V30 9153 H 880.141 5.96169 -3.62254 0
M  V30 9154 H 876.038 5.99688 -2.38839 0
M  V30 9155 H 876.806 7.03287 -4.18723 0
M  V30 9156 N 879.47 0.276058 1.55163 0
M  V30 9157 C 880.695 -0.346648 2.04483 0
M  V30 9158 C 881.12 -1.48613 1.15308 0
M  V30 9159 O 880.478 -1.80663 0.151875 0
M  V30 9160 C 880.526 -0.804268 3.51517 0
M  V30 9161 O 879.63 -1.91143 3.65429 0
M  V30 9162 H 878.971 -0.0715251 0.660136 0
M  V30 9163 H 881.501 0.410631 2.00437 0
M  V30 9164 H 881.511 -1.09977 3.92898 0
M  V30 9165 H 880.186 0.0294123 4.1589 0
M  V30 9166 H 878.763 -1.61839 3.3595 0
M  V30 9167 N 880.948 -1.576 0.00335426 0
M  V30 9168 C 882.196 -1.90336 -0.679446 0
M  V30 9169 C 882.517 -0.877777 -1.74127 0
M  V30 9170 O 881.787 0.0843585 -1.95718 0
M  V30 9171 H 880.367 -0.702509 -0.253948 0
M  V30 9172 H 883.029 -1.94848 0.0450731 0
M  V30 9173 H 882.125 -2.90197 -1.14857 0
M  V30 9174 N 882.426 0.269451 -1.5528 0
M  V30 9175 C 883.675 0.998381 -1.75258 0
M  V30 9176 C 883.988 1.87321 -0.563034 0
M  V30 9177 O 885.194 2.63719 -0.645313 0
M  V30 9178 C 883.65 1.82505 -3.10193 0
M  V30 9179 C 883.258 0.99871 -4.36726 0
M  V30 9180 C 885.002 2.54807 -3.3952 0
M  V30 9181 C 882.909 1.81997 -5.627 0
M  V30 9182 H 881.839 0.376488 -0.653278 0
M  V30 9183 H 884.49 0.253909 -1.81735 0
M  V30 9184 H 882.872 2.61061 -2.97763 0
M  V30 9185 H 884.046 0.257064 -4.60082 0
M  V30 9186 H 882.361 0.390074 -4.14569 0
M  V30 9187 H 884.958 3.16662 -4.30847 0
M  V30 9188 H 885.301 3.25273 -2.59813 0
M  V30 9189 H 885.834 1.83278 -3.53064 0
M  V30 9190 H 882.573 1.15945 -6.45164 0
M  V30 9191 H 882.093 2.53749 -5.43481 0
M  V30 9192 H 883.772 2.39274 -6.0113 0
M  V30 9193 N 883.904 1.48273 0.534124 0
M  V30 9194 C 884.836 1.5857 1.65494 0
M  V30 9195 C 885.849 0.470266 1.5586 0
M  V30 9196 O 887.038 0.740928 1.62396 0
M  V30 9197 C 884.138 1.49554 3.04117 0
M  V30 9198 C 883.311 2.76066 3.39273 0
M  V30 9199 C 882.37 2.60562 4.57159 0
M  V30 9200 O 881.396 3.34438 4.60587 0
M  V30 9201 N 882.598 1.69906 5.55079 0
M  V30 9202 H 885.363 2.55226 1.57099 0
M  V30 9203 H 882.924 1.44944 0.721303 0
M  V30 9204 H 884.916 1.36882 3.80848 0
M  V30 9205 H 883.486 0.608895 3.06613 0
M  V30 9206 H 882.706 3.03332 2.51761 0
M  V30 9207 H 883.994 3.60006 3.59546 0
M  V30 9208 H 883.392 1.09079 5.55084 0
M  V30 9209 H 881.949 1.63175 6.31044 0
M  V30 9210 N 885.382 -0.782676 1.36792 0
M  V30 9211 C 886.312 -1.90973 1.34356 0
M  V30 9212 C 887.293 -1.6875 0.213917 0
M  V30 9213 O 888.478 -1.89766 0.412601 0
M  V30 9214 C 885.608 -3.28097 1.13884 0
M  V30 9215 C 884.562 -3.6486 2.23744 0
M  V30 9216 C 883.888 -5.00406 1.88408 0
M  V30 9217 C 885.188 -3.72742 3.6587 0
M  V30 9218 H 886.882 -1.93268 2.28665 0
M  V30 9219 H 884.428 -0.928447 1.10072 0
M  V30 9220 H 886.381 -4.06569 1.10813 0
M  V30 9221 H 885.105 -3.26206 0.160275 0
M  V30 9222 H 883.764 -2.88689 2.25952 0
M  V30 9223 H 883.412 -4.95044 0.891083 0
M  V30 9224 H 883.112 -5.25973 2.61966 0
M  V30 9225 H 884.636 -5.81291 1.86905 0
M  V30 9226 H 886.05 -4.4139 3.65852 0
M  V30 9227 H 884.447 -4.09798 4.38389 0
M  V30 9228 H 885.517 -2.73676 4.00287 0
M  V30 9229 N 886.86 -1.21182 -1.00761 0
M  V30 9230 C 888.108 -1.02543 -1.74153 0
M  V30 9231 C 888.429 0.442372 -1.89916 0
M  V30 9232 O 887.699 1.31927 -1.44818 0
M  V30 9233 H 886.279 -0.37644 -0.645214 0
M  V30 9234 H 888.941 -1.52446 -1.21434 0
M  V30 9235 H 888.037 -1.49122 -2.7417 0
M  V30 9236 N 888.338 1.20213 -1.01915 0
M  V30 9237 C 889.248 2.26763 -0.601311 0
M  V30 9238 C 890.264 1.70185 0.362369 0
M  V30 9239 O 891.44 2.00165 0.222682 0
M  V30 9240 C 888.505 3.46662 0.0512879 0
M  V30 9241 C 887.566 4.18459 -0.958659 0
M  V30 9242 C 886.799 5.32634 -0.337107 0
M  V30 9243 O 887.022 5.63841 0.86251 0
M  V30 9244 O 885.956 5.9258 -1.05511 0
M  V30 9245 H 889.782 2.64725 -1.48844 0
M  V30 9246 H 887.367 1.2688 -0.788784 0
M  V30 9247 H 889.249 4.19345 0.41564 0
M  V30 9248 H 887.924 3.1057 0.912572 0
M  V30 9249 H 886.831 3.47937 -1.37442 0
M  V30 9250 H 888.164 4.58498 -1.78999 0
M  V30 9251 N 889.816 0.795718 1.36037 0
M  V30 9252 C 891.063 0.371024 1.99072 0
M  V30 9253 C 891.391 -1.05896 1.63145 0
M  V30 9254 O 890.646 -1.7474 0.881163 0
M  V30 9255 C 890.945 0.489038 3.54038 0
M  V30 9256 C 890.611 1.88075 4.09803 0
M  V30 9257 C 889.273 2.26152 4.24745 0
M  V30 9258 C 891.625 2.79174 4.40126 0
M  V30 9259 C 888.953 3.54718 4.67324 0
M  V30 9260 C 891.305 4.07175 4.8414 0
M  V30 9261 C 889.969 4.45266 4.97287 0
M  V30 9262 H 889.239 0.135767 0.728456 0
M  V30 9263 H 891.886 1.0144 1.62426 0
M  V30 9264 H 890.191 -0.237823 3.91078 0
M  V30 9265 H 891.888 0.141374 4.00751 0
M  V30 9266 H 888.478 1.57488 3.98617 0
M  V30 9267 H 892.662 2.51009 4.28145 0
M  V30 9268 H 887.918 3.84093 4.75691 0
M  V30 9269 H 892.092 4.77875 5.06565 0
M  V30 9270 H 889.719 5.44943 5.30038 0
M  V30 9271 N 891.294 -1.47756 0.548274 0
M  V30 9272 C 892.257 -2.28379 -0.193857 0
M  V30 9273 C 893.257 -1.36436 -0.850986 0
M  V30 9274 O 894.447 -1.59154 -0.70822 0
M  V30 9275 C 891.579 -3.15858 -1.28243 0
M  V30 9276 H 892.772 -2.95458 0.514231 0
M  V30 9277 H 890.325 -1.53298 0.304879 0
M  V30 9278 H 891.06 -2.5345 -2.0232 0
M  V30 9279 H 890.845 -3.83512 -0.816148 0
M  V30 9280 H 892.335 -3.76627 -1.80393 0
M  V30 9281 N 892.772 -0.284283 -1.55015 0
M  V30 9282 C 893.72 0.615091 -2.2432 0
M  V30 9283 C 894.714 1.15051 -1.24337 0
M  V30 9284 O 895.92 1.10308 -1.4224 0
M  V30 9285 H 892.295 0.216927 -0.720033 0
M  V30 9286 H 894.266 0.00783216 -2.98399 0
M  V30 9287 C 893.015 1.78355 -2.98471 0
M  V30 9288 H 892.338 1.38076 -3.752 0
M  V30 9289 H 893.778 2.38927 -3.50271 0
M  V30 9290 C 892.237 2.67757 -2.04469 0
M  V30 9291 O 892.767 3.6838 -1.60185 0
M  V30 9292 N 890.973 2.35125 -1.70776 0
M  V30 9293 H 890.52 1.53346 -2.06985 0
M  V30 9294 H 890.478 2.95212 -1.08153 0
M  V30 9295 N 894.251 1.57596 -0.0117121 0
M  V30 9296 C 895.662 1.79033 0.529521 0
M  V30 9297 C 896.013 0.920299 1.73277 0
M  V30 9298 O 895.138 0.125934 2.16033 0
M  V30 9299 C 895.733 3.24695 0.967405 0
M  V30 9300 C 894.292 3.47188 1.45387 0
M  V30 9301 C 893.439 2.74245 0.410466 0
M  V30 9302 H 896.39 1.56908 -0.237836 0
M  V30 9303 H 896.411 3.33451 1.83278 0
M  V30 9304 H 895.923 3.87992 0.0914605 0
M  V30 9305 H 894.024 2.89121 2.35032 0
M  V30 9306 H 894.137 4.55886 1.47325 0
M  V30 9307 H 892.501 2.39209 0.874721 0
M  V30 9308 H 893.284 3.40248 -0.456713 0
M  V30 9309 N 895.729 -0.261212 1.5542 0
M  V30 9310 C 896.978 -0.989072 1.75785 0
M  V30 9311 C 897.291 -1.8702 0.572961 0
M  V30 9312 O 898.497 -2.63374 0.659289 0
M  V30 9313 C 896.953 -1.80857 3.11157 0
M  V30 9314 C 896.561 -0.975535 4.3725 0
M  V30 9315 C 898.305 -2.53003 3.40866 0
M  V30 9316 C 896.212 -1.7901 5.63657 0
M  V30 9317 H 895.142 -0.373019 0.655266 0
M  V30 9318 H 897.793 -0.244267 1.81867 0
M  V30 9319 H 896.175 -2.59479 2.99144 0
M  V30 9320 H 897.349 -0.232661 4.60212 0
M  V30 9321 H 895.664 -0.368083 4.1477 0
M  V30 9322 H 898.261 -3.14372 4.32521 0
M  V30 9323 H 898.604 -3.23891 2.61535 0
M  V30 9324 H 899.137 -1.81403 3.54031 0
M  V30 9325 H 895.876 -1.12522 6.4577 0
M  V30 9326 H 895.396 -2.50863 5.44819 0
M  V30 9327 H 897.075 -2.36082 6.0239 0
M  V30 9328 N 897.207 -1.48554 -0.526253 0
M  V30 9329 C 898.137 -1.66252 -1.63959 0
M  V30 9330 C 899.118 -0.511351 -1.62232 0
M  V30 9331 O 900.303 -0.744322 -1.7937 0
M  V30 9332 C 897.433 -1.70556 -3.02536 0
M  V30 9333 C 896.387 -2.8521 -3.19123 0
M  V30 9334 C 895.713 -2.74606 -4.58798 0
M  V30 9335 C 897.013 -4.26463 -3.0154 0
M  V30 9336 H 898.707 -2.59459 -1.49404 0
M  V30 9337 H 896.253 -1.24862 -0.717326 0
M  V30 9338 H 898.206 -1.81524 -3.80298 0
M  V30 9339 H 896.93 -0.739297 -3.18123 0
M  V30 9340 H 895.589 -2.73802 -2.43779 0
M  V30 9341 H 895.237 -1.75941 -4.71226 0
M  V30 9342 H 894.937 -3.51544 -4.70841 0
M  V30 9343 H 896.461 -2.87548 -5.38655 0
M  V30 9344 H 897.875 -4.38685 -3.69091 0
M  V30 9345 H 896.272 -5.04428 -3.25073 0
M  V30 9346 H 897.342 -4.42667 -1.97925 0
M  V30 9347 N 898.685 0.775411 -1.37205 0
M  V30 9348 C 899.595 1.91967 -1.34855 0
M  V30 9349 C 900.611 1.72214 -0.248656 0
M  V30 9350 O 901.787 1.95512 -0.483421 0
M  V30 9351 C 898.852 3.27038 -1.15096 0
M  V30 9352 C 897.913 3.5947 -2.34691 0
M  V30 9353 C 897.146 4.88097 -2.15865 0
M  V30 9354 O 897.369 5.58871 -1.14102 0
M  V30 9355 O 896.303 5.19507 -3.03967 0
M  V30 9356 H 900.129 1.969 -2.31223 0
M  V30 9357 H 897.714 0.917647 -1.17897 0
M  V30 9358 H 899.596 4.07837 -1.0605 0
M  V30 9359 H 898.271 3.22965 -0.217999 0
M  V30 9360 H 897.178 2.7892 -2.49308 0
M  V30 9361 H 898.511 3.68282 -3.26541 0
M  V30 9362 N 900.163 1.21714 1.00117 0
M  V30 9363 C 901.579 0.97532 1.26332 0
M  V30 9364 C 901.779 -0.336029 1.98678 0
M  V30 9365 O 900.835 -1.06073 2.29139 0
M  V30 9366 C 902.148 2.16848 2.0832 0
M  V30 9367 C 903.696 2.21115 2.21533 0
M  V30 9368 C 904.171 3.3996 3.06906 0
M  V30 9369 N 905.662 3.40071 3.14494 0
M  V30 9370 C 906.397 4.28678 3.80818 0
M  V30 9371 N 905.893 5.2749 4.49139 0
M  V30 9372 N 907.686 4.16476 3.77497 0
M  V30 9373 H 899.837 2.06039 0.515897 0
M  V30 9374 H 902.1 0.902423 0.290408 0
M  V30 9375 H 901.806 3.119 1.62515 0
M  V30 9376 H 901.68 2.16226 3.09073 0
M  V30 9377 H 904.067 1.26616 2.66557 0
M  V30 9378 H 904.148 2.2578 1.20238 0
M  V30 9379 H 903.792 4.34755 2.62585 0
M  V30 9380 H 903.722 3.32534 4.08324 0
M  V30 9381 H 906.213 2.68563 2.65861 0
M  V30 9382 H 906.526 5.91397 4.97463 0
M  V30 9383 H 904.871 5.31412 4.47914 0
M  V30 9384 H 908.062 3.38539 3.23278 0
M  V30 9385 H 908.235 4.85739 4.28908 0
M  V30 9386 N 901.641 -1.19671 1.02551 0
M  V30 9387 C 902.604 -2.20987 0.608055 0
M  V30 9388 C 903.604 -1.5745 -0.326534 0
M  V30 9389 O 904.794 -1.73827 -0.114003 0
M  V30 9390 C 901.926 -3.4072 -0.11074 0
M  V30 9391 H 903.119 -2.59434 1.50446 0
M  V30 9392 H 900.672 -1.3329 0.816307 0
M  V30 9393 H 901.407 -3.07787 -1.02165 0
M  V30 9394 H 901.192 -3.88069 0.560772 0
M  V30 9395 H 902.682 -4.15776 -0.389848 0
M  V30 9396 N 903.119 -0.802921 -1.35613 0
M  V30 9397 C 904.344 -0.392846 -2.03645 0
M  V30 9398 C 904.769 0.987075 -1.6012 0
M  V30 9399 O 904.127 1.63849 -0.776101 0
M  V30 9400 C 904.175 -0.480208 -3.57388 0
M  V30 9401 O 903.279 0.507751 -4.09262 0
M  V30 9402 H 902.62 -0.16464 -0.643265 0
M  V30 9403 H 905.15 -1.08779 -1.73287 0
M  V30 9404 H 905.16 -0.348683 -4.06507 0
M  V30 9405 H 903.835 -1.48675 -3.88418 0
M  V30 9406 H 902.412 0.336769 -3.71376 0
M  V30 9407 N 904.597 1.47463 -0.556102 0
M  V30 9408 C 905.56 2.28478 0.181743 0
M  V30 9409 C 906.56 1.36886 0.843738 0
M  V30 9410 O 907.75 1.59527 0.69977 0
M  V30 9411 C 904.882 3.16534 1.26566 0
M  V30 9412 H 906.075 2.95182 -0.529892 0
M  V30 9413 H 903.628 1.53134 -0.313005 0
M  V30 9414 H 904.363 2.5452 2.00973 0
M  V30 9415 H 904.148 3.83939 0.795798 0
M  V30 9416 H 905.638 3.77579 1.78393 0
M  V30 9417 N 906.075 0.2925 1.54862 0
M  V30 9418 C 907.008 -0.629155 2.19356 0
M  V30 9419 C 907.986 -1.13927 1.16014 0
M  V30 9420 O 909.17 -1.20904 1.44618 0
M  V30 9421 C 906.297 -1.8599 2.83064 0
M  V30 9422 C 905.343 -1.48376 3.99859 0
M  V30 9423 S 906.176 -0.546976 5.32699 0
M  V30 9424 C 907.332 -1.7857 5.99886 0
M  V30 9425 H 907.565 -0.0812166 2.97189 0
M  V30 9426 H 905.098 0.0766721 1.5421 0
M  V30 9427 H 907.056 -2.56623 3.20398 0
M  V30 9428 H 905.717 -2.37899 2.05092 0
M  V30 9429 H 904.91 -2.40002 4.43187 0
M  V30 9430 H 904.512 -0.857447 3.64038 0
M  V30 9431 H 906.804 -2.7274 6.20177 0
M  V30 9432 H 907.747 -1.39513 6.9422 0
M  V30 9433 H 908.155 -1.95856 5.29434 0
M  V30 9434 N 907.553 -1.57587 0.0200696 0
M  V30 9435 C 908.5 -2.09667 -0.964791 0
M  V30 9436 C 909.47 -0.99664 -1.32877 0
M  V30 9437 O 910.655 -1.2703 -1.42366 0
M  V30 9438 C 907.795 -2.62101 -2.24493 0
M  V30 9439 C 906.908 -3.8608 -1.93821 0
M  V30 9440 C 906.043 -4.26939 -3.16064 0
M  V30 9441 C 905.082 -5.43701 -2.81169 0
M  V30 9442 N 904.219 -5.79759 -3.9601 0
M  V30 9443 H 909.059 -2.93538 -0.513751 0
M  V30 9444 H 906.596 -1.45096 -0.242 0
M  V30 9445 H 908.554 -2.90587 -2.99358 0
M  V30 9446 H 907.184 -1.81074 -2.6723 0
M  V30 9447 H 906.236 -3.64378 -1.09237 0
M  V30 9448 H 907.548 -4.71028 -1.64115 0
M  V30 9449 H 906.702 -4.56814 -3.99257 0
M  V30 9450 H 905.441 -3.40739 -3.48924 0
M  V30 9451 H 904.446 -5.13529 -1.96387 0
M  V30 9452 H 905.671 -6.31593 -2.49535 0
M  V30 9453 H 903.617 -4.96516 -4.28729 0
M  V30 9454 H 903.534 -6.59327 -3.69896 0
M  V30 9455 H 904.802 -6.14235 -4.79933 0
M  V30 9456 N 909.032 0.252966 -1.55557 0
M  V30 9457 C 910.309 1.00432 -1.67847 0
M  V30 9458 C 910.689 2.03587 -0.55816 0
M  V30 9459 O 910.037 2.24239 0.439197 0
M  V30 9460 C 910.247 1.64313 -3.079 0
M  V30 9461 C 911.595 2.14726 -3.66303 0
M  V30 9462 O 912.619 1.74264 -3.10661 0
M  V30 9463 O 911.478 2.89 -4.63833 0
M  V30 9464 H 908.572 0.467102 -0.682455 0
M  V30 9465 H 911.118 0.247233 -1.67889 0
M  V30 9466 H 909.89 0.896681 -3.80888 0
M  V30 9467 H 909.513 2.46657 -3.11843 0
M  V30 9468 N 910.51 1.48831 0.518367 0
M  V30 9469 C 911.735 1.61379 1.30275 0
M  V30 9470 C 912.16 0.278571 1.86026 0
M  V30 9471 O 911.518 -0.751427 1.64995 0
M  V30 9472 C 911.566 2.67225 2.42122 0
M  V30 9473 O 910.67 2.25192 3.45489 0
M  V30 9474 H 910.011 0.540742 0.385349 0
M  V30 9475 H 912.541 1.949 0.622498 0
M  V30 9476 H 912.551 2.88859 2.8814 0
M  V30 9477 H 911.226 3.64155 2.00907 0
M  V30 9478 H 909.803 2.13819 3.05509 0
M  V30 9479 N 911.988 -0.768124 1.37614 0
M  V30 9480 C 912.918 -1.89537 1.36374 0
M  V30 9481 C 913.899 -1.68513 0.231803 0
M  V30 9482 O 915.084 -1.89318 0.432705 0
M  V30 9483 C 912.214 -3.26871 1.17358 0
M  V30 9484 C 911.168 -3.62466 2.27602 0
M  V30 9485 C 910.494 -4.9838 1.93705 0
M  V30 9486 C 911.794 -3.68841 3.69802 0
M  V30 9487 H 913.488 -1.90832 2.30702 0
M  V30 9488 H 911.034 -0.91672 1.11051 0
M  V30 9489 H 912.987 -4.05371 1.15119 0
M  V30 9490 H 911.711 -3.26018 0.194865 0
M  V30 9491 H 910.37 -2.86276 2.29002 0
M  V30 9492 H 910.018 -4.94071 0.943539 0
M  V30 9493 H 909.718 -5.23165 2.6753 0
M  V30 9494 H 911.242 -5.79276 1.93059 0
M  V30 9495 H 912.656 -4.37485 3.70513 0
M  V30 9496 H 911.053 -4.05126 4.42711 0
M  V30 9497 H 912.123 -2.69415 4.03167 0
M  V30 9498 N 913.466 -1.22244 -0.994698 0
M  V30 9499 C 914.414 -0.988118 -2.10568 0
M  V30 9500 C 915.408 0.0681541 -1.69263 0
M  V30 9501 O 916.614 -0.0841311 -1.79803 0
M  V30 9502 H 912.989 -0.302343 -0.688544 0
M  V30 9503 H 914.96 -1.93091 -2.27505 0
M  V30 9504 C 913.709 -0.580557 -3.42819 0
M  V30 9505 H 913.032 -1.385 -3.75044 0
M  V30 9506 H 914.472 -0.456004 -4.21541 0
M  V30 9507 C 912.931 0.709692 -3.2934 0
M  V30 9508 O 913.461 1.76259 -3.60965 0
M  V30 9509 N 911.667 0.680155 -2.82528 0
M  V30 9510 H 911.214 -0.176977 -2.56991 0
M  V30 9511 H 911.172 1.54372 -2.73892 0
M  V30 9512 N 914.944 1.19125 -1.03184 0
M  V30 9513 C 915.874 2.24675 -0.635889 0
M  V30 9514 C 916.855 1.66321 0.356565 0
M  V30 9515 O 918.04 1.92728 0.238625 0
M  V30 9516 C 915.17 3.47298 0.011069 0
M  V30 9517 C 914.124 4.18345 -0.903979 0
M  V30 9518 C 913.45 5.34561 -0.12197 0
M  V30 9519 C 914.75 4.72816 -2.21907 0
M  V30 9520 H 916.444 2.5805 -1.51825 0
M  V30 9521 H 913.99 1.24039 -0.73146 0
M  V30 9522 H 915.943 4.20333 0.299729 0
M  V30 9523 H 914.667 3.13131 0.928245 0
M  V30 9524 H 913.326 3.47196 -1.17688 0
M  V30 9525 H 912.974 4.9664 0.797334 0
M  V30 9526 H 912.674 5.83029 -0.731498 0
M  V30 9527 H 914.198 6.10391 0.159881 0
M  V30 9528 H 915.612 5.3759 -1.99173 0
M  V30 9529 H 914.009 5.31782 -2.78078 0
M  V30 9530 H 915.079 3.9072 -2.87168 0
M  V30 9531 N 916.422 0.810101 1.35185 0
M  V30 9532 C 917.354 0.180581 2.28488 0
M  V30 9533 C 918.367 -0.622154 1.50443 0
M  V30 9534 O 919.556 -0.453938 1.72632 0
M  V30 9535 C 916.656 -0.766447 3.30119 0
M  V30 9536 C 915.829 -0.00932028 4.37399 0
M  V30 9537 C 914.888 -0.875354 5.18868 0
M  V30 9538 O 913.914 -0.325012 5.68271 0
M  V30 9539 N 915.116 -2.19695 5.37321 0
M  V30 9540 H 917.881 0.98212 2.83151 0
M  V30 9541 H 915.442 0.665879 1.47573 0
M  V30 9542 H 917.434 -1.35012 3.81515 0
M  V30 9543 H 916.004 -1.46878 2.75945 0
M  V30 9544 H 915.224 0.755585 3.86891 0
M  V30 9545 H 916.512 0.512352 5.06214 0
M  V30 9546 H 915.91 -2.66797 4.98834 0
M  V30 9547 H 914.467 -2.72978 5.91884 0
M  V30 9548 N 917.9 -1.47166 0.563914 0
M  V30 9549 C 919.128 -2.06846 0.0474287 0
M  V30 9550 C 919.543 -1.41557 -1.24928 0
M  V30 9551 O 918.9 -0.514376 -1.75101 0
M  V30 9552 C 918.951 -3.6121 -0.144831 0
M  V30 9553 O 918.672 -4.24052 1.10053 0
M  V30 9554 C 920.173 -4.37773 -0.69783 0
M  V30 9555 H 917.393 -0.669217 0.0488896 0
M  V30 9556 H 919.937 -1.89072 0.779235 0
M  V30 9557 H 918.092 -3.78474 -0.82679 0
M  V30 9558 H 918.506 -5.16677 0.902481 0
M  V30 9559 H 919.98 -5.46438 -0.781616 0
M  V30 9560 H 920.457 -4.04517 -1.71063 0
M  V30 9561 H 921.063 -4.25269 -0.0513516 0
M  V30 9562 N 919.378 -0.300708 -1.54705 0
M  V30 9563 C 920.606 0.31127 -2.04545 0
M  V30 9564 C 921.021 1.47542 -1.178 0
M  V30 9565 O 920.378 1.81361 -0.203571 0
M  V30 9566 C 920.429 0.767783 -3.53253 0
M  V30 9567 O 920.15 -0.350027 -4.36699 0
M  V30 9568 C 921.651 1.44494 -4.1909 0
M  V30 9569 H 918.871 0.067668 -0.667579 0
M  V30 9570 H 921.415 -0.440254 -1.99705 0
M  V30 9571 H 919.57 1.46933 -3.58454 0
M  V30 9572 H 919.984 0.00534038 -5.245 0
M  V30 9573 H 921.458 1.71553 -5.24665 0
M  V30 9574 H 921.935 2.3849 -3.68808 0
M  V30 9575 H 922.541 0.786581 -4.17963 0
M  V30 9576 N 920.856 1.57574 -0.0284266 0
M  V30 9577 C 921.819 2.09096 0.938691 0
M  V30 9578 C 922.819 1.00588 1.25454 0
M  V30 9579 O 924.009 1.2675 1.19499 0
M  V30 9580 C 921.141 2.55624 2.25542 0
M  V30 9581 H 922.334 2.95829 0.49248 0
M  V30 9582 H 919.887 1.5475 0.219594 0
M  V30 9583 H 920.622 1.72218 2.74793 0
M  V30 9584 H 920.407 3.34896 2.03929 0
M  V30 9585 H 921.897 2.95712 2.94863 0
M  V30 9586 N 922.334 -0.244713 1.55689 0
M  V30 9587 C 923.281 -1.30301 1.905 0
M  V30 9588 C 924.251 -1.4772 0.759478 0
M  V30 9589 O 925.436 -1.61667 1.01333 0
M  V30 9590 C 922.576 -2.653 2.20703 0
M  V30 9591 C 921.689 -2.55872 3.48071 0
M  V30 9592 C 920.824 -3.83238 3.67834 0
M  V30 9593 C 919.863 -3.68436 4.88796 0
M  V30 9594 N 919 -4.877 5.05068 0
M  V30 9595 H 923.84 -0.999143 2.80751 0
M  V30 9596 H 921.377 -0.482099 1.38976 0
M  V30 9597 H 923.335 -3.43884 2.36219 0
M  V30 9598 H 921.965 -2.93831 1.33653 0
M  V30 9599 H 921.017 -1.68846 3.40874 0
M  V30 9600 H 922.329 -2.40845 4.36801 0
M  V30 9601 H 921.483 -4.70266 3.83321 0
M  V30 9602 H 920.222 -4.01165 2.77341 0
M  V30 9603 H 919.227 -2.79793 4.73282 0
M  V30 9604 H 920.452 -3.52003 5.8075 0
M  V30 9605 H 918.398 -5.05983 4.17513 0
M  V30 9606 H 918.315 -4.75312 5.8789 0
M  V30 9607 H 919.583 -5.76219 5.24969 0
M  V30 9608 N 923.813 -1.49104 -0.510467 0
M  V30 9609 C 924.776 -1.64569 -1.59529 0
M  V30 9610 C 925.776 -0.517937 -1.5223 0
M  V30 9611 O 926.966 -0.784183 -1.55551 0
M  V30 9612 C 924.098 -1.6342 -2.99177 0
M  V30 9613 H 925.291 -2.61318 -1.4715 0
M  V30 9614 H 922.844 -1.37993 -0.734001 0
M  V30 9615 H 923.579 -0.68221 -3.17043 0
M  V30 9616 H 923.364 -2.45312 -3.05883 0
M  V30 9617 H 924.854 -1.77474 -3.78011 0
M  V30 9618 N 925.291 0.760815 -1.38019 0
M  V30 9619 C 926.221 1.88811 -1.37377 0
M  V30 9620 C 927.202 1.68388 -0.240737 0
M  V30 9621 O 928.387 1.89086 -0.442739 0
M  V30 9622 C 925.517 3.26244 -1.1909 0
M  V30 9623 C 924.471 3.61254 -2.29521 0
M  V30 9624 C 923.797 4.97346 -1.96345 0
M  V30 9625 C 925.097 3.66874 -3.71753 0
M  V30 9626 H 926.791 1.89606 -2.31711 0
M  V30 9627 H 924.337 0.910818 -1.11535 0
M  V30 9628 H 926.29 4.04755 -1.17267 0
M  V30 9629 H 925.014 3.2591 -0.212152 0
M  V30 9630 H 923.673 2.85057 -2.30517 0
M  V30 9631 H 923.321 4.93564 -0.969728 0
M  V30 9632 H 923.021 5.21739 -2.703 0
M  V30 9633 H 924.545 5.78244 -1.96129 0
M  V30 9634 H 925.959 4.35514 -3.72828 0
M  V30 9635 H 924.356 4.02772 -4.44853 0
M  V30 9636 H 925.426 2.67273 -4.0459 0
M  V30 9637 N 926.769 1.22769 0.988202 0
M  V30 9638 C 927.679 1.01844 2.11341 0
M  V30 9639 C 928.695 -0.0346937 1.73965 0
M  V30 9640 O 929.871 0.159061 2.00771 0
M  V30 9641 C 926.936 0.603837 3.41401 0
M  V30 9642 C 925.997 1.73113 3.92849 0
M  V30 9643 C 925.23 1.33621 5.16702 0
M  V30 9644 O 925.453 0.217041 5.69987 0
M  V30 9645 O 924.387 2.15444 5.62021 0
M  V30 9646 H 928.213 1.96127 2.31879 0
M  V30 9647 H 925.798 1.01405 1.09715 0
M  V30 9648 H 927.68 0.383196 4.19654 0
M  V30 9649 H 926.355 -0.310082 3.22211 0
M  V30 9650 H 925.262 2.00634 3.15748 0
M  V30 9651 H 926.595 2.62308 4.1648 0
M  V30 9652 N 928.247 -1.18576 1.03814 0
M  V30 9653 C 929.179 -2.21607 0.585055 0
M  V30 9654 C 930.192 -1.59125 -0.343963 0
M  V30 9655 O 931.381 -1.77959 -0.138882 0
M  V30 9656 C 928.481 -3.38495 -0.165602 0
M  V30 9657 C 927.654 -4.30557 0.770662 0
M  V30 9658 C 926.713 -5.26161 0.0637534 0
M  V30 9659 O 925.739 -5.64961 0.693359 0
M  V30 9660 N 926.941 -5.67882 -1.20377 0
M  V30 9661 H 929.706 -2.61104 1.47121 0
M  V30 9662 H 927.267 -1.33336 0.918316 0
M  V30 9663 H 929.259 -3.99474 -0.648292 0
M  V30 9664 H 927.829 -2.97711 -0.953268 0
M  V30 9665 H 927.049 -3.67221 1.43326 0
M  V30 9666 H 928.337 -4.88969 1.40667 0
M  V30 9667 H 927.735 -5.38409 -1.73586 0
M  V30 9668 H 926.292 -6.31069 -1.63079 0
M  V30 9669 N 929.725 -0.817259 -1.34754 0
M  V30 9670 C 930.971 -0.403244 -1.98751 0
M  V30 9671 C 931.304 1.02963 -1.64658 0
M  V30 9672 O 930.579 1.71617 -0.915314 0
M  V30 9673 C 930.862 -0.599188 -3.5508 0
M  V30 9674 C 930.715 -2.07777 -3.98934 0
M  V30 9675 C 932.034 -0.0315656 -4.40089 0
M  V30 9676 H 929.153 -0.147988 -0.721989 0
M  V30 9677 H 931.795 -1.02877 -1.59738 0
M  V30 9678 H 929.945 -0.0667116 -3.88443 0
M  V30 9679 H 931.617 -2.67345 -3.75931 0
M  V30 9680 H 929.86 -2.57031 -3.49453 0
M  V30 9681 H 930.531 -2.16571 -5.07741 0
M  V30 9682 H 933.007 -0.48644 -4.13247 0
M  V30 9683 H 931.883 -0.198507 -5.48541 0
M  V30 9684 H 932.144 1.06302 -4.2913 0
M  V30 9685 N 931.203 1.46865 -0.571711 0
M  V30 9686 C 932.428 2.07323 -0.0564655 0
M  V30 9687 C 932.853 1.41938 1.23431 0
M  V30 9688 O 932.211 0.499334 1.74288 0
M  V30 9689 C 932.259 3.6044 0.107339 0
M  V30 9690 O 931.363 3.95558 1.1665 0
M  V30 9691 H 930.704 0.661475 -0.0578465 0
M  V30 9692 H 933.234 1.88669 -0.791524 0
M  V30 9693 H 933.244 4.06767 0.316987 0
M  V30 9694 H 931.919 4.07425 -0.835348 0
M  V30 9695 H 930.496 3.60957 0.936189 0
M  V30 9696 N 932.681 0.308908 1.54543 0
M  V30 9697 C 933.613 -0.597453 2.21276 0
M  V30 9698 C 934.626 -1.09137 1.20801 0
M  V30 9699 O 935.815 -1.00747 1.47351 0
M  V30 9700 C 932.915 -1.83085 2.85189 0
M  V30 9701 C 932.088 -1.4781 4.11669 0
M  V30 9702 C 931.147 -2.56748 4.59311 0
M  V30 9703 O 930.173 -2.21507 5.24331 0
M  V30 9704 N 931.375 -3.87427 4.32297 0
M  V30 9705 H 934.14 -0.0261183 2.99689 0
M  V30 9706 H 931.701 0.131456 1.61365 0
M  V30 9707 H 933.693 -2.55326 3.13992 0
M  V30 9708 H 932.263 -2.31039 2.1057 0
M  V30 9709 H 931.483 -0.587974 3.8979 0
M  V30 9710 H 932.771 -1.2179 4.94009 0
M  V30 9711 H 932.169 -4.18863 3.80224 0
M  V30 9712 H 930.726 -4.55942 4.6579 0
M  V30 9713 N 934.159 -1.57557 0.0367827 0
M  V30 9714 C 935.091 -2.07597 -0.971395 0
M  V30 9715 C 936.104 -1.0009 -1.28397 0
M  V30 9716 O 937.293 -1.27692 -1.24728 0
M  V30 9717 C 934.393 -2.492 -2.2968 0
M  V30 9718 C 933.566 -3.79875 -2.16826 0
M  V30 9719 C 932.625 -4.07946 -3.32366 0
M  V30 9720 O 931.651 -4.78083 -3.0891 0
M  V30 9721 N 932.853 -3.58722 -4.56397 0
M  V30 9722 H 935.618 -2.94714 -0.544389 0
M  V30 9723 H 933.179 -1.61205 -0.1498 0
M  V30 9724 H 935.171 -2.65065 -3.05815 0
M  V30 9725 H 933.741 -1.67407 -2.63995 0
M  V30 9726 H 932.961 -3.73732 -1.2537 0
M  V30 9727 H 934.249 -4.65476 -2.0545 0
M  V30 9728 H 933.647 -3.01994 -4.78347 0
M  V30 9729 H 932.204 -3.79852 -5.29675 0
M  V30 9730 N 935.637 0.236453 -1.55816 0
M  V30 9731 C 936.862 0.98449 -1.82545 0
M  V30 9732 C 937.287 1.77755 -0.615206 0
M  V30 9733 O 936.645 1.75982 0.435895 0
M  V30 9734 C 936.693 1.88973 -3.07118 0
M  V30 9735 O 935.797 2.98298 -2.84766 0
M  V30 9736 H 935.138 0.279577 -0.602273 0
M  V30 9737 H 937.668 0.254277 -2.03014 0
M  V30 9738 H 937.678 2.3024 -3.36829 0
M  V30 9739 H 936.353 1.30671 -3.94839 0
M  V30 9740 H 934.93 2.61085 -2.6625 0
M  V30 9741 N 937.115 1.49373 0.502552 0
M  V30 9742 C 938.526 1.52 1.0841 0
M  V30 9743 C 938.877 0.305317 1.9381 0
M  V30 9744 O 938.002 -0.585023 2.08342 0
M  V30 9745 C 938.597 2.75437 1.97281 0
M  V30 9746 C 937.156 2.80848 2.50602 0
M  V30 9747 C 936.303 2.45894 1.28186 0
M  V30 9748 H 939.254 1.56092 0.286533 0
M  V30 9749 H 939.275 2.55511 2.81947 0
M  V30 9750 H 938.787 3.63827 1.35098 0
M  V30 9751 H 936.888 1.96735 3.16427 0
M  V30 9752 H 937.001 3.82979 2.8786 0
M  V30 9753 H 935.365 1.97639 1.60657 0
M  V30 9754 H 936.148 3.36556 0.677139 0
M  V30 9755 N 938.594 -0.753485 1.38421 0
M  V30 9756 C 939.824 -1.54049 1.37669 0
M  V30 9757 C 940.232 -1.89167 -0.0353656 0
M  V30 9758 O 939.575 -1.53285 -1.01239 0
M  V30 9759 C 939.637 -2.86777 2.16793 0
M  V30 9760 C 939.301 -2.74196 3.65603 0
M  V30 9761 C 940.298 -2.43985 4.59094 0
M  V30 9762 C 937.983 -2.91645 4.0896 0
M  V30 9763 C 939.977 -2.31379 5.93921 0
M  V30 9764 C 937.664 -2.78658 5.43868 0
M  V30 9765 C 938.662 -2.48568 6.36163 0
M  V30 9766 O 938.35 -2.3564 7.68589 0
M  V30 9767 H 938.082 -0.483276 0.472673 0
M  V30 9768 H 940.636 -0.940267 1.82615 0
M  V30 9769 H 938.866 -3.48988 1.66565 0
M  V30 9770 H 940.555 -3.48289 2.08446 0
M  V30 9771 H 941.321 -2.30172 4.26902 0
M  V30 9772 H 937.2 -3.14063 3.37469 0
M  V30 9773 H 940.744 -2.07813 6.65927 0
M  V30 9774 H 936.641 -2.92044 5.75656 0
M  V30 9775 H 937.409 -2.50851 7.79112 0
M  V30 9776 N 940.072 -1.23292 -0.981677 0
M  V30 9777 C 941.483 -1.05936 -1.53735 0
M  V30 9778 C 941.834 0.373695 -1.92608 0
M  V30 9779 O 940.959 1.26024 -1.75917 0
M  V30 9780 C 941.554 -1.91682 -2.79363 0
M  V30 9781 C 940.113 -1.78591 -3.31334 0
M  V30 9782 C 939.26 -1.87463 -2.04335 0
M  V30 9783 H 942.211 -1.36973 -0.801505 0
M  V30 9784 H 942.232 -1.44085 -3.52164 0
M  V30 9785 H 941.744 -2.95975 -2.51039 0
M  V30 9786 H 939.845 -0.770755 -3.64541 0
M  V30 9787 H 939.958 -2.61902 -4.01179 0
M  V30 9788 H 938.322 -1.3103 -2.18411 0
M  V30 9789 H 939.105 -2.9331 -1.78394 0
M  V30 9790 N 941.55 1.18024 -1.04442 0
M  V30 9791 C 942.483 2.20623 -0.583171 0
M  V30 9792 C 943.461 1.57994 0.384262 0
M  V30 9793 O 944.645 1.86135 0.297673 0
M  V30 9794 C 941.772 3.38378 0.147561 0
M  V30 9795 C 940.818 4.19423 -0.773711 0
M  V30 9796 S 941.651 4.85534 -2.25869 0
M  V30 9797 C 942.807 6.06686 -1.53891 0
M  V30 9798 H 943.04 2.59406 -1.45244 0
M  V30 9799 H 940.573 1.28518 -0.855708 0
M  V30 9800 H 942.531 4.06621 0.562988 0
M  V30 9801 H 941.192 2.97998 0.992765 0
M  V30 9802 H 940.385 5.03568 -0.208694 0
M  V30 9803 H 939.987 3.56579 -1.12816 0
M  V30 9804 H 942.279 6.72347 -0.834045 0
M  V30 9805 H 943.222 6.67702 -2.35755 0
M  V30 9806 H 943.63 5.55031 -1.02961 0
M  V30 9807 N 943.028 0.824394 1.34319 0
M  V30 9808 C 944.439 0.471802 1.8064 0
M  V30 9809 C 944.79 -1.00793 1.6833 0
M  V30 9810 O 943.915 -1.78447 1.22416 0
M  V30 9811 C 944.51 0.849609 3.27974 0
M  V30 9812 C 943.069 0.549365 3.72369 0
M  V30 9813 C 942.216 1.06573 2.56003 0
M  V30 9814 H 945.167 1.01443 1.22045 0
M  V30 9815 H 945.188 0.153968 3.80188 0
M  V30 9816 H 944.7 1.92663 3.36902 0
M  V30 9817 H 942.801 -0.518182 3.68979 0
M  V30 9818 H 942.914 1.09446 4.66432 0
M  V30 9819 H 941.278 0.487214 2.49997 0
M  V30 9820 H 942.061 2.14923 2.677 0
M  V30 9821 N 944.506 -1.46559 0.579492 0
M  V30 9822 C 945.731 -2.0729 0.0674595 0
M  V30 9823 C 946.156 -1.4259 -1.22677 0
M  V30 9824 O 945.514 -0.50857 -1.74021 0
M  V30 9825 C 945.562 -3.60492 -0.0882227 0
M  V30 9826 O 944.666 -3.96172 -1.14551 0
M  V30 9827 H 944.007 -0.661159 0.0613536 0
M  V30 9828 H 946.537 -1.88247 0.801519 0
M  V30 9829 H 946.547 -4.06929 -0.295411 0
M  V30 9830 H 945.222 -4.06976 0.856943 0
M  V30 9831 H 943.799 -3.61448 -0.917033 0
M  V30 9832 N 945.984 -0.3171 -1.54377 0
M  V30 9833 C 947.23 0.287836 -2.00747 0
M  V30 9834 C 947.563 1.52292 -1.20502 0
M  V30 9835 O 946.838 1.92391 -0.285626 0
M  V30 9836 C 947.121 0.628423 -3.54574 0
M  V30 9837 C 946.974 -0.616922 -4.45549 0
M  V30 9838 C 948.293 1.44862 -4.15575 0
M  V30 9839 H 945.412 0.103144 -0.729747 0
M  V30 9840 H 948.054 -0.432396 -1.85014 0
M  V30 9841 H 946.204 1.24203 -3.68111 0
M  V30 9842 H 947.876 -1.25526 -4.43893 0
M  V30 9843 H 946.119 -1.24706 -4.15489 0
M  V30 9844 H 946.79 -0.334243 -5.50987 0
M  V30 9845 H 949.266 0.930015 -4.05574 0
M  V30 9846 H 948.142 1.6557 -5.23333 0
M  V30 9847 H 948.403 2.44279 -3.68484 0
M  V30 9848 N 947.462 1.57535 -0.0451378 0
M  V30 9849 C 948.409 2.11176 0.931313 0
M  V30 9850 C 949.379 1.01765 1.31275 0
M  V30 9851 O 950.564 1.29279 1.40327 0
M  V30 9852 C 947.704 2.65639 2.20295 0
M  V30 9853 C 946.817 3.89114 1.87654 0
M  V30 9854 C 945.952 4.31914 3.09232 0
M  V30 9855 C 944.991 5.48105 2.72484 0
M  V30 9856 N 944.128 5.85986 3.86736 0
M  V30 9857 H 948.968 2.94318 0.466986 0
M  V30 9858 H 946.505 1.45462 0.218886 0
M  V30 9859 H 948.463 2.95312 2.94697 0
M  V30 9860 H 947.093 1.85303 2.64316 0
M  V30 9861 H 946.145 3.6607 1.03427 0
M  V30 9862 H 947.457 4.7358 1.56601 0
M  V30 9863 H 946.611 4.63108 3.91939 0
M  V30 9864 H 945.35 3.46247 3.43459 0
M  V30 9865 H 944.355 5.16589 1.88192 0
M  V30 9866 H 945.58 6.35482 2.39455 0
M  V30 9867 H 943.526 5.03273 4.20775 0
M  V30 9868 H 943.443 6.65129 3.5936 0
M  V30 9869 H 944.711 6.21793 4.701 0
M  V30 9870 N 948.94 -0.228186 1.55939 0
M  V30 9871 C 950.217 -0.977492 1.69424 0
M  V30 9872 C 950.597 -2.02674 0.590479 0
M  V30 9873 O 949.945 -2.2491 -0.403467 0
M  V30 9874 C 950.155 -1.59394 3.10475 0
M  V30 9875 C 951.503 -2.08871 3.69673 0
M  V30 9876 O 952.527 -1.693 3.13394 0
M  V30 9877 O 951.386 -2.81584 4.68372 0
M  V30 9878 H 948.48 -0.456185 0.6898 0
M  V30 9879 H 951.026 -0.220492 1.68261 0
M  V30 9880 H 949.798 -0.835971 3.82266 0
M  V30 9881 H 949.421 -2.41665 3.15727 0
M  V30 9882 N 950.418 -1.49637 -0.494624 0
M  V30 9883 C 951.667 -1.58691 -1.24499 0
M  V30 9884 C 951.98 -0.281763 -1.9356 0
M  V30 9885 O 953.186 -0.250925 -2.70338 0
M  V30 9886 C 951.642 -2.8002 -2.26091 0
M  V30 9887 C 951.25 -4.17318 -1.6294 0
M  V30 9888 C 952.994 -2.98407 -3.01916 0
M  V30 9889 C 950.901 -5.29862 -2.62679 0
M  V30 9890 H 949.831 -0.590888 -0.468367 0
M  V30 9891 H 952.482 -1.76034 -0.518112 0
M  V30 9892 H 950.864 -2.56185 -3.01969 0
M  V30 9893 H 952.038 -4.51315 -0.930108 0
M  V30 9894 H 950.353 -4.04342 -0.994819 0
M  V30 9895 H 952.95 -3.79658 -3.76516 0
M  V30 9896 H 953.293 -2.09214 -3.5991 0
M  V30 9897 H 953.826 -3.22312 -2.33152 0
M  V30 9898 H 950.565 -6.21134 -2.09458 0
M  V30 9899 H 950.085 -5.00311 -3.3083 0
M  V30 9900 H 951.764 -5.59461 -3.2498 0
M  V30 9901 N 951.896 0.746133 -1.38819 0
M  V30 9902 C 953.121 1.54049 -1.38866 0
M  V30 9903 C 953.546 1.88092 0.0176624 0
M  V30 9904 O 952.904 1.51113 1.00173 0
M  V30 9905 C 952.952 2.8116 -2.25791 0
M  V30 9906 O 952.056 3.76623 -1.68014 0
M  V30 9907 H 951.397 0.465648 -0.473359 0
M  V30 9908 H 953.927 0.921469 -1.82675 0
M  V30 9909 H 953.937 3.30009 -2.39913 0
M  V30 9910 H 952.612 2.55713 -3.27999 0
M  V30 9911 H 951.189 3.35352 -1.63074 0
M  V30 9912 N 953.375 1.23811 0.975125 0
M  V30 9913 C 954.786 1.0675 1.53171 0
M  V30 9914 C 955.137 -0.363475 1.92804 0
M  V30 9915 O 954.262 -1.25089 1.76583 0
M  V30 9916 C 954.857 1.93161 2.78342 0
M  V30 9917 C 953.416 1.80346 3.30382 0
M  V30 9918 C 952.563 1.88544 2.03338 0
M  V30 9919 H 955.514 1.37396 0.79423 0
M  V30 9920 H 955.535 1.45951 3.51395 0
M  V30 9921 H 955.047 2.97302 2.49465 0
M  V30 9922 H 953.148 0.790077 3.64127 0
M  V30 9923 H 953.261 2.64026 3.99784 0
M  V30 9924 H 951.625 1.32186 2.17713 0
M  V30 9925 H 952.408 2.94252 1.76836 0
M  V30 9926 N 954.853 -1.17469 1.05066 0
M  V30 9927 C 956.101 -1.87327 0.758485 0
M  V30 9928 C 956.422 -1.81358 -0.716549 0
M  V30 9929 O 955.692 -1.23868 -1.51768 0
M  V30 9930 H 954.272 -0.693512 0.277579 0
M  V30 9931 H 956.934 -1.4251 1.32954 0
M  V30 9932 H 956.03 -2.93101 1.0723 0
M  V30 9933 N 956.331 -0.831506 -1.3388 0
M  V30 9934 C 957.608 -0.345907 -1.92517 0
M  V30 9935 C 957.988 1.16784 -1.75854 0
M  V30 9936 O 957.336 1.97889 -1.14245 0
M  V30 9937 C 957.546 -0.784692 -3.40064 0
M  V30 9938 C 958.894 -0.78846 -4.17215 0
M  V30 9939 O 959.918 -0.727823 -3.48685 0
M  V30 9940 O 958.777 -0.869481 -5.39539 0
M  V30 9941 H 955.871 -0.0963568 -0.821367 0
M  V30 9942 H 958.417 -0.916868 -1.42799 0
M  V30 9943 H 957.189 -1.82697 -3.46031 0
M  V30 9944 H 956.812 -0.189897 -3.97146 0
M  V30 9945 N 957.809 1.4625 -0.587256 0
M  V30 9946 C 958.739 2.33132 0.131076 0
M  V30 9947 C 959.72 1.45619 0.879158 0
M  V30 9948 O 960.905 1.74428 0.853723 0
M  V30 9949 C 958.035 3.27975 1.14236 0
M  V30 9950 C 956.989 4.24965 0.508819 0
M  V30 9951 C 956.315 5.09349 1.62689 0
M  V30 9952 C 957.615 5.19322 -0.55694 0
M  V30 9953 H 959.309 2.93442 -0.594333 0
M  V30 9954 H 956.855 1.41106 -0.287263 0
M  V30 9955 H 958.808 3.87614 1.65328 0
M  V30 9956 H 957.532 2.65781 1.8981 0
M  V30 9957 H 956.191 3.66595 0.0189337 0
M  V30 9958 H 955.839 4.43537 2.37242 0
M  V30 9959 H 955.539 5.75036 1.20861 0
M  V30 9960 H 957.063 5.71852 2.14049 0
M  V30 9961 H 958.477 5.73151 -0.130903 0
M  V30 9962 H 956.874 5.93376 -0.895801 0
M  V30 9963 H 957.944 4.62979 -1.44148 0
M  V30 9964 N 959.287 0.325282 1.54207 0
M  V30 9965 C 960.25 -0.527228 2.23054 0
M  V30 9966 C 961.25 -1.04217 1.22456 0
M  V30 9967 O 962.44 -0.934325 1.47024 0
M  V30 9968 C 959.572 -1.7325 2.93594 0
M  V30 9969 H 960.765 0.0746423 2.99807 0
M  V30 9970 H 958.318 0.0763872 1.56113 0
M  V30 9971 H 959.053 -2.37356 2.20981 0
M  V30 9972 H 958.838 -1.37065 3.67363 0
M  V30 9973 H 960.328 -2.3376 3.46043 0
M  V30 9974 N 960.765 -1.57509 0.0534917 0
M  V30 9975 C 961.675 -2.15152 -0.935249 0
M  V30 9976 C 962.691 -1.10991 -1.34003 0
M  V30 9977 O 963.867 -1.43171 -1.41648 0
M  V30 9978 C 960.932 -2.68699 -2.19093 0
M  V30 9979 C 959.993 -3.87666 -1.84428 0
M  V30 9980 C 959.226 -4.3865 -3.0401 0
M  V30 9981 O 959.449 -3.887 -4.17455 0
M  V30 9982 O 958.383 -5.30209 -2.84889 0
M  V30 9983 H 962.209 -2.99962 -0.475009 0
M  V30 9984 H 959.794 -1.48446 -0.16854 0
M  V30 9985 H 961.676 -3.03098 -2.92762 0
M  V30 9986 H 960.351 -1.86958 -2.6425 0
M  V30 9987 H 959.258 -3.58151 -1.08068 0
M  V30 9988 H 960.591 -4.70643 -1.44068 0
M  V30 9989 N 962.243 0.219913 -1.56058 0
M  V30 9990 C 963.153 1.29349 -1.95719 0
M  V30 9991 C 964.169 1.5119 -0.861248 0
M  V30 9992 O 965.345 1.64289 -1.16495 0
M  V30 9993 C 962.41 2.6229 -2.26726 0
M  V30 9994 C 961.471 2.48738 -3.49897 0
M  V30 9995 C 960.704 3.75339 -3.79416 0
M  V30 9996 O 960.927 4.78427 -3.10586 0
M  V30 9997 O 959.861 3.72352 -4.72903 0
M  V30 9998 H 963.687 0.986979 -2.87215 0
M  V30 9999 H 961.272 0.42291 -1.43289 0
M  V30 10000 H 963.154 3.408 -2.47857 0
M  V30 10001 H 961.829 2.92619 -1.38404 0
M  V30 10002 H 960.736 1.68422 -3.34043 0
M  V30 10003 H 962.069 2.23347 -4.38608 0
M  V30 10004 N 963.721 1.49897 0.486681 0
M  V30 10005 C 964.651 1.7054 1.59494 0
M  V30 10006 C 965.632 0.554184 1.60819 0
M  V30 10007 O 966.817 0.791617 1.77333 0
M  V30 10008 C 963.947 1.78517 2.97908 0
M  V30 10009 C 962.901 2.93571 3.11449 0
M  V30 10010 C 962.227 2.86674 4.51356 0
M  V30 10011 C 963.527 4.34308 2.90127 0
M  V30 10012 H 965.221 2.63329 1.42472 0
M  V30 10013 H 962.767 1.2672 0.683969 0
M  V30 10014 H 964.72 1.91544 3.75352 0
M  V30 10015 H 963.444 0.823381 3.16051 0
M  V30 10016 H 962.103 2.80169 2.36433 0
M  V30 10017 H 961.751 1.88373 4.66395 0
M  V30 10018 H 961.451 3.63903 4.61355 0
M  V30 10019 H 962.975 3.01728 5.30841 0
M  V30 10020 H 964.389 4.48317 3.57331 0
M  V30 10021 H 962.786 5.12869 3.11585 0
M  V30 10022 H 963.856 4.47759 1.86119 0
M  V30 10023 N 965.199 -0.738761 1.39212 0
M  V30 10024 C 966.615 -1.04381 1.20734 0
M  V30 10025 C 966.815 -2.01391 0.0663082 0
M  V30 10026 O 965.871 -2.45672 -0.583229 0
M  V30 10027 C 967.184 -1.6097 2.53987 0
M  V30 10028 C 968.732 -1.73069 2.60799 0
M  V30 10029 C 969.207 -2.33067 3.94264 0
M  V30 10030 N 970.698 -2.40481 3.95883 0
M  V30 10031 C 971.433 -2.87834 4.95923 0
M  V30 10032 N 970.929 -3.35111 6.0636 0
M  V30 10033 N 972.722 -2.87009 4.83304 0
M  V30 10034 H 964.873 -0.0952996 2.12186 0
M  V30 10035 H 967.136 -0.104902 0.942178 0
M  V30 10036 H 966.842 -0.971548 3.38015 0
M  V30 10037 H 966.716 -2.59829 2.73439 0
M  V30 10038 H 969.103 -2.36007 1.77157 0
M  V30 10039 H 969.184 -0.728728 2.452 0
M  V30 10040 H 968.828 -1.70758 4.78335 0
M  V30 10041 H 968.758 -3.33933 4.07181 0
M  V30 10042 H 971.249 -2.07061 3.16123 0
M  V30 10043 H 971.562 -3.69742 6.78609 0
M  V30 10044 H 969.907 -3.33129 6.09959 0
M  V30 10045 H 973.098 -2.49395 3.96131 0
M  V30 10046 H 973.271 -3.23598 5.61416 0
M  V30 10047 N 966.677 -1.24326 -0.968545 0
M  V30 10048 C 968.093 -1.00847 -1.23701 0
M  V30 10049 C 968.293 0.283235 -1.99499 0
M  V30 10050 O 967.349 0.999607 -2.31871 0
M  V30 10051 C 968.662 -2.22295 -2.02498 0
M  V30 10052 C 970.21 -2.26911 -2.15593 0
M  V30 10053 C 970.685 -3.47978 -2.97784 0
M  V30 10054 N 972.176 -3.48289 -3.05367 0
M  V30 10055 C 972.911 -4.38625 -3.69318 0
M  V30 10056 N 972.407 -5.39213 -4.34995 0
M  V30 10057 N 974.2 -4.26339 -3.66322 0
M  V30 10058 H 966.351 -2.07335 -0.461087 0
M  V30 10059 H 968.614 -0.909805 -0.26638 0
M  V30 10060 H 968.32 -3.161 -1.54188 0
M  V30 10061 H 968.194 -2.24344 -3.03232 0
M  V30 10062 H 970.581 -1.33639 -2.63106 0
M  V30 10063 H 970.662 -2.28888 -1.14209 0
M  V30 10064 H 970.306 -4.41564 -2.50965 0
M  V30 10065 H 970.236 -3.43244 -3.99364 0
M  V30 10066 H 972.727 -2.75517 -2.58648 0
M  V30 10067 H 973.04 -6.04378 -4.81608 0
M  V30 10068 H 971.385 -5.43101 -4.33667 0
M  V30 10069 H 974.576 -3.46991 -3.14189 0
M  V30 10070 H 974.749 -4.9694 -4.15878 0
M  V30 10071 N 968.156 1.1691 -1.05688 0
M  V30 10072 C 969.104 2.2315 -0.656262 0
M  V30 10073 C 970.098 1.66256 0.324873 0
M  V30 10074 O 971.304 1.7899 0.190397 0
M  V30 10075 H 967.679 0.726527 -0.19407 0
M  V30 10076 H 969.65 2.54233 -1.56231 0
M  V30 10077 C 968.399 3.47661 -0.0522431 0
M  V30 10078 H 967.722 3.91749 -0.798299 0
M  V30 10079 H 969.162 4.23571 0.190626 0
M  V30 10080 C 967.621 3.14709 1.20248 0
M  V30 10081 O 968.151 3.29947 2.29124 0
M  V30 10082 N 966.357 2.68892 1.10207 0
M  V30 10083 H 965.904 2.56692 0.216063 0
M  V30 10084 H 965.862 2.47218 1.94244 0
M  V30 10085 N 969.634 0.838594 1.33437 0
M  V30 10086 C 970.564 0.286672 2.31734 0
M  V30 10087 C 971.545 -0.605451 1.5896 0
M  V30 10088 O 972.73 -0.529059 1.86854 0
M  V30 10089 C 969.86 -0.539311 3.43087 0
M  V30 10090 C 968.814 0.256997 4.27228 0
M  V30 10091 C 968.14 -0.692718 5.30194 0
M  V30 10092 C 969.44 1.47391 5.01072 0
M  V30 10093 H 971.134 1.10798 2.78144 0
M  V30 10094 H 968.68 0.534235 1.33723 0
M  V30 10095 H 970.633 -0.935724 4.1088 0
M  V30 10096 H 969.357 -1.39383 2.95364 0
M  V30 10097 H 968.016 0.634967 3.61059 0
M  V30 10098 H 967.664 -1.54363 4.78729 0
M  V30 10099 H 967.364 -0.164023 5.87371 0
M  V30 10100 H 968.888 -1.08665 6.00853 0
M  V30 10101 H 970.302 1.15067 5.61634 0
M  V30 10102 H 968.699 1.93937 5.67898 0
M  V30 10103 H 969.769 2.24382 4.29861 0
M  V30 10104 N 971.112 -1.45937 0.595003 0
M  V30 10105 C 972.358 -2.0262 0.0854317 0
M  V30 10106 C 972.691 -1.46402 -1.27594 0
M  V30 10107 O 971.966 -0.633823 -1.83883 0
M  V30 10108 C 972.249 -3.60085 0.0329075 0
M  V30 10109 C 972.102 -4.26663 1.42405 0
M  V30 10110 C 973.421 -4.35101 -0.661426 0
M  V30 10111 H 970.54 -0.736282 0.0325196 0
M  V30 10112 H 973.182 -1.73938 0.764563 0
M  V30 10113 H 971.332 -3.84652 -0.545439 0
M  V30 10114 H 973.004 -4.13321 2.04851 0
M  V30 10115 H 971.247 -3.85549 1.98833 0
M  V30 10116 H 971.918 -5.35497 1.33965 0
M  V30 10117 H 974.394 -4.15753 -0.169977 0
M  V30 10118 H 973.27 -5.44829 -0.667243 0
M  V30 10119 H 973.531 -4.07053 -1.72513 0
M  V30 10120 N 972.59 -0.333456 -1.54032 0
M  V30 10121 C 973.522 0.562174 -2.22199 0
M  V30 10122 C 974.535 1.07202 -1.22522 0
M  V30 10123 O 975.724 0.983897 -1.48935 0
M  V30 10124 C 972.824 1.78525 -2.88066 0
M  V30 10125 C 971.997 1.41242 -4.13968 0
M  V30 10126 C 971.056 2.49408 -4.63338 0
M  V30 10127 O 970.082 2.13138 -5.27789 0
M  V30 10128 N 971.284 3.805 -4.38406 0
M  V30 10129 H 974.049 -0.0215629 -2.99692 0
M  V30 10130 H 971.61 -0.157111 -1.61136 0
M  V30 10131 H 973.602 2.50298 -3.18014 0
M  V30 10132 H 972.172 2.2766 -2.14219 0
M  V30 10133 H 971.392 0.525887 -3.90676 0
M  V30 10134 H 972.68 1.13916 -4.95884 0
M  V30 10135 H 972.078 4.12761 -3.86839 0
M  V30 10136 H 970.635 4.48474 -4.72984 0
M  V30 10137 N 974.068 1.57479 -0.061844 0
M  V30 10138 C 975.479 1.80627 0.472295 0
M  V30 10139 C 975.83 0.97496 1.70261 0
M  V30 10140 O 974.955 0.1946 2.15523 0
M  V30 10141 C 975.55 3.27608 0.863616 0
M  V30 10142 C 974.109 3.51638 1.34267 0
M  V30 10143 C 973.256 2.75412 0.323009 0
M  V30 10144 H 976.207 1.56072 -0.287634 0
M  V30 10145 H 976.228 3.39113 1.72577 0
M  V30 10146 H 975.74 3.88087 -0.0320226 0
M  V30 10147 H 973.841 2.96452 2.25714 0
M  V30 10148 H 973.954 4.60342 1.32747 0
M  V30 10149 H 972.318 2.4187 0.798175 0
M  V30 10150 H 973.101 3.38623 -0.564729 0
M  V30 10151 N 975.546 -0.211634 1.56173 0
M  V30 10152 C 976.795 -0.932647 1.78842 0
M  V30 10153 C 977.108 -1.85103 0.63217 0
M  V30 10154 O 978.314 -2.61143 0.742746 0
M  V30 10155 C 976.77 -1.70866 3.16753 0
M  V30 10156 C 976.378 -0.835934 4.40132 0
M  V30 10157 C 978.122 -2.4203 3.48743 0
M  V30 10158 C 976.029 -1.60987 5.69067 0
M  V30 10159 H 974.959 -0.351983 0.666801 0
M  V30 10160 H 977.61 -0.186284 1.82552 0
M  V30 10161 H 975.992 -2.4983 3.07247 0
M  V30 10162 H 977.166 -0.0861298 4.60719 0
M  V30 10163 H 975.481 -0.235941 4.15731 0
M  V30 10164 H 978.078 -3.00453 4.42303 0
M  V30 10165 H 978.421 -3.15406 2.71707 0
M  V30 10166 H 978.954 -1.70048 3.59623 0
M  V30 10167 H 975.693 -0.9192 6.49023 0
M  V30 10168 H 975.213 -2.33403 5.52524 0
M  V30 10169 H 976.892 -2.16798 6.09596 0
M  V30 10170 N 977.024 -1.50153 -0.478725 0
M  V30 10171 C 978.27 -1.60998 -1.23318 0
M  V30 10172 C 978.603 -0.305868 -1.91776 0
M  V30 10173 O 977.878 0.692158 -1.81767 0
M  V30 10174 C 978.161 -2.78495 -2.28282 0
M  V30 10175 C 978.014 -4.18767 -1.64178 0
M  V30 10176 C 979.333 -2.91569 -3.2966 0
M  V30 10177 H 976.452 -0.585983 -0.446982 0
M  V30 10178 H 979.094 -1.82514 -0.528063 0
M  V30 10179 H 977.244 -2.60281 -2.8842 0
M  V30 10180 H 978.916 -4.48552 -1.07696 0
M  V30 10181 H 977.159 -4.23379 -0.94514 0
M  V30 10182 H 977.83 -4.96894 -2.40417 0
M  V30 10183 H 980.306 -3.08219 -2.79536 0
M  V30 10184 H 979.182 -3.75419 -4.0044 0
M  V30 10185 H 979.443 -2.01859 -3.93326 0
M  V30 10186 N 978.502 0.731368 -1.39602 0
M  V30 10187 C 979.748 1.49321 -1.37227 0
M  V30 10188 C 980.081 1.94176 0.0306502 0
M  V30 10189 O 979.356 1.67046 0.996294 0
M  V30 10190 C 979.639 2.73035 -2.34784 0
M  V30 10191 C 979.492 2.34176 -3.84033 0
M  V30 10192 C 980.811 3.75146 -2.30116 0
M  V30 10193 H 977.93 0.541652 -0.499783 0
M  V30 10194 H 980.572 0.835968 -1.70621 0
M  V30 10195 H 978.722 3.29114 -2.06437 0
M  V30 10196 H 980.394 1.83701 -4.23145 0
M  V30 10197 H 978.637 1.66361 -4.00633 0
M  V30 10198 H 979.308 3.22786 -4.47787 0
M  V30 10199 H 981.784 3.28661 -2.55189 0
M  V30 10200 H 980.66 4.5937 -3.00451 0
M  V30 10201 H 980.921 4.22326 -1.30741 0
M  V30 10202 N 979.98 1.24838 0.961938 0
M  V30 10203 C 981.228 1.08936 1.70227 0
M  V30 10204 C 981.549 -0.371582 1.91427 0
M  V30 10205 O 980.819 -1.26461 1.49614 0
M  V30 10206 H 979.399 0.400128 0.630799 0
M  V30 10207 H 982.061 1.56848 1.15692 0
M  V30 10208 H 981.157 1.59195 2.68446 0
M  V30 10209 N 981.458 -1.16348 1.06306 0
M  V30 10210 C 982.686 -1.90782 0.800614 0
M  V30 10211 C 983.101 -1.77439 -0.645033 0
M  V30 10212 O 982.458 -1.11912 -1.4416 0
M  V30 10213 C 982.509 -3.41484 1.18621 0
M  V30 10214 O 982.23 -3.54428 2.57512 0
M  V30 10215 C 983.731 -4.32968 0.951525 0
M  V30 10216 H 980.951 -0.604977 0.290247 0
M  V30 10217 H 983.495 -1.47476 1.41672 0
M  V30 10218 H 981.65 -3.82493 0.614633 0
M  V30 10219 H 982.064 -4.4788 2.72954 0
M  V30 10220 H 983.538 -5.37169 1.27095 0
M  V30 10221 H 984.015 -4.39055 -0.112734 0
M  V30 10222 H 984.621 -3.97687 1.50749 0
M  V30 10223 N 982.937 -0.845659 -1.3299 0
M  V30 10224 C 984.185 -0.443774 -1.97168 0
M  V30 10225 C 984.506 1.00192 -1.67292 0
M  V30 10226 O 983.776 1.69891 -0.975397 0
M  V30 10227 H 982.356 -0.161111 -0.729419 0
M  V30 10228 H 985.018 -1.08011 -1.62233 0
M  V30 10229 H 984.114 -0.581414 -3.06637 0
M  V30 10230 N 984.415 1.45619 -0.602734 0
M  V30 10231 C 985.643 2.06647 -0.102253 0
M  V30 10232 C 986.058 1.4482 1.21131 0
M  V30 10233 O 985.415 0.560621 1.73676 0
M  V30 10234 C 985.466 3.61467 0.0490113 0
M  V30 10235 O 985.187 4.20985 -1.21257 0
M  V30 10236 C 986.688 4.39469 0.581517 0
M  V30 10237 H 983.908 0.667685 -0.0666155 0
M  V30 10238 H 986.452 1.86939 -0.829091 0
M  V30 10239 H 984.607 3.80534 0.726153 0
M  V30 10240 H 985.021 5.14103 -1.03915 0
M  V30 10241 H 986.495 5.48318 0.636462 0
M  V30 10242 H 986.972 4.0891 1.60277 0
M  V30 10243 H 987.578 4.25256 -0.061419 0
M  V30 10244 N 985.893 0.34162 1.53853 0
M  V30 10245 C 986.84 -0.516058 2.24957 0
M  V30 10246 C 987.81 -1.09711 1.2471 0
M  V30 10247 O 988.995 -1.13409 1.53438 0
M  V30 10248 C 986.135 -1.66207 3.02439 0
M  V30 10249 C 985.248 -1.10851 4.17536 0
M  V30 10250 C 984.383 -2.22167 4.82509 0
M  V30 10251 C 983.422 -1.64152 5.89678 0
M  V30 10252 N 982.559 -2.69203 6.4844 0
M  V30 10253 H 987.399 0.0968275 2.97843 0
M  V30 10254 H 984.936 0.0595565 1.46979 0
M  V30 10255 H 986.894 -2.33672 3.4562 0
M  V30 10256 H 985.524 -2.24597 2.31853 0
M  V30 10257 H 984.576 -0.324853 3.7901 0
M  V30 10258 H 985.888 -0.644151 4.94623 0
M  V30 10259 H 985.042 -2.97501 5.28751 0
M  V30 10260 H 983.781 -2.71946 4.04842 0
M  V30 10261 H 982.786 -0.873228 5.42821 0
M  V30 10262 H 984.011 -1.15228 6.69253 0
M  V30 10263 H 981.957 -3.1824 5.73637 0
M  V30 10264 H 981.874 -2.27383 7.20994 0
M  V30 10265 H 983.142 -3.44312 6.99335 0
M  V30 10266 N 987.371 -1.57444 0.0701946 0
M  V30 10267 C 988.62 -1.92605 -0.598849 0
M  V30 10268 C 988.933 -0.952058 -1.70866 0
M  V30 10269 O 990.139 -1.19643 -2.43716 0
M  V30 10270 C 988.595 -3.42142 -1.11655 0
M  V30 10271 C 988.203 -4.47984 -0.0378355 0
M  V30 10272 C 989.947 -3.86307 -1.75975 0
M  V30 10273 C 987.854 -5.88652 -0.569495 0
M  V30 10274 H 986.784 -0.718873 -0.22746 0
M  V30 10275 H 989.435 -1.82948 0.14217 0
M  V30 10276 H 987.817 -3.46866 -1.91049 0
M  V30 10277 H 988.991 -4.54874 0.736661 0
M  V30 10278 H 987.306 -4.13277 0.50904 0
M  V30 10279 H 989.903 -4.88784 -2.16782 0
M  V30 10280 H 990.246 -3.23587 -2.61911 0
M  V30 10281 H 990.779 -3.84179 -1.03206 0
M  V30 10282 H 987.518 -6.55013 0.252662 0
M  V30 10283 H 987.038 -5.85285 -1.31155 0
M  V30 10284 H 988.717 -6.38482 -1.04641 0
M  V30 10285 N 988.849 0.203349 -1.56283 0
M  V30 10286 C 989.796 1.25205 -1.93888 0
M  V30 10287 C 990.766 1.45654 -0.798376 0
M  V30 10288 O 991.951 1.58924 -1.05583 0
M  V30 10289 C 989.091 2.59355 -2.27659 0
M  V30 10290 C 988.204 2.46553 -3.54733 0
M  V30 10291 C 987.339 3.73351 -3.77865 0
M  V30 10292 C 986.378 3.55347 -4.98392 0
M  V30 10293 N 985.515 4.74137 -5.17821 0
M  V30 10294 H 990.355 0.924356 -2.83301 0
M  V30 10295 H 987.892 0.445082 -1.40205 0
M  V30 10296 H 989.85 3.375 -2.45254 0
M  V30 10297 H 988.48 2.90184 -1.41396 0
M  V30 10298 H 987.532 1.59749 -3.45231 0
M  V30 10299 H 988.844 2.2918 -4.43033 0
M  V30 10300 H 987.998 4.59937 -3.95655 0
M  V30 10301 H 986.737 3.9367 -2.8788 0
M  V30 10302 H 985.742 2.67146 -4.80534 0
M  V30 10303 H 986.967 3.36482 -5.89879 0
M  V30 10304 H 984.913 4.94735 -4.30782 0
M  V30 10305 H 984.83 4.59558 -6.00285 0
M  V30 10306 H 986.098 5.62098 -5.40061 0
M  V30 10307 N 990.327 1.50405 0.470755 0
M  V30 10308 C 991.275 1.6982 1.58946 0
M  V30 10309 C 992.269 0.56407 1.59733 0
M  V30 10310 O 993.475 0.744576 1.63878 0
M  V30 10311 H 989.85 0.536016 0.527438 0
M  V30 10312 H 991.821 2.63662 1.39732 0
M  V30 10313 C 990.57 1.80986 2.96883 0
M  V30 10314 H 989.893 2.67645 2.96996 0
M  V30 10315 H 991.333 1.98596 3.74614 0
M  V30 10316 C 989.792 0.561551 3.32187 0
M  V30 10317 O 990.322 -0.299136 4.00585 0
M  V30 10318 N 988.528 0.415476 2.87615 0
M  V30 10319 H 988.075 1.11691 2.32127 0
M  V30 10320 H 988.033 -0.418592 3.11601 0
M  V30 10321 N 991.805 -0.723954 1.39988 0
M  V30 10322 C 993.03 -1.5182 1.41299 0
M  V30 10323 C 993.455 -1.88096 0.0122636 0
M  V30 10324 O 992.813 -1.52687 -0.977559 0
M  V30 10325 C 992.861 -2.77532 2.30235 0
M  V30 10326 O 991.965 -3.73903 1.73984 0
M  V30 10327 H 991.306 -0.458058 0.480707 0
M  V30 10328 H 993.836 -0.892291 1.84118 0
M  V30 10329 H 993.846 -3.2615 2.45132 0
M  V30 10330 H 992.521 -2.50462 3.32026 0
M  V30 10331 H 991.098 -3.32715 1.68389 0
M  V30 10332 N 993.283 -1.25346 -0.955304 0
M  V30 10333 C 994.508 -1.12892 -1.73983 0
M  V30 10334 C 994.933 0.313455 -1.8547 0
M  V30 10335 O 994.291 1.22706 -1.33465 0
M  V30 10336 C 994.339 -1.78729 -3.1319 0
M  V30 10337 O 993.443 -1.06648 -3.98372 0
M  V30 10338 H 992.784 -0.394178 -0.534341 0
M  V30 10339 H 995.314 -1.65897 -1.19747 0
M  V30 10340 H 995.324 -1.84987 -3.63653 0
M  V30 10341 H 993.999 -2.83669 -3.04146 0
M  V30 10342 H 992.576 -1.08266 -3.56837 0
M  V30 10343 N 994.761 1.15782 -1.06922 0
M  V30 10344 C 995.724 2.18578 -0.689654 0
M  V30 10345 C 996.724 1.58553 0.267872 0
M  V30 10346 O 997.914 1.7413 0.0494097 0
M  V30 10347 C 995.046 3.40896 -0.0157919 0
M  V30 10348 H 996.239 2.53672 -1.59971 0
M  V30 10349 H 993.792 1.30168 -0.865214 0
M  V30 10350 H 994.527 3.11367 0.906712 0
M  V30 10351 H 994.312 3.85721 -0.704415 0
M  V30 10352 H 995.802 4.16937 0.235266 0
M  V30 10353 N 996.239 0.8527 1.3254 0
M  V30 10354 C 997.149 0.298744 2.3269 0
M  V30 10355 C 998.165 -0.582418 1.63963 0
M  V30 10356 O 999.341 -0.483253 1.95516 0
M  V30 10357 C 996.406 -0.505453 3.42996 0
M  V30 10358 C 995.467 0.401618 4.27417 0
M  V30 10359 C 994.7 -0.364294 5.32455 0
M  V30 10360 O 994.923 -1.59448 5.47661 0
M  V30 10361 O 993.857 0.268892 6.01299 0
M  V30 10362 H 997.683 1.12843 2.81958 0
M  V30 10363 H 995.268 0.615584 1.36128 0
M  V30 10364 H 997.15 -0.961974 4.10273 0
M  V30 10365 H 995.825 -1.31197 2.95921 0
M  V30 10366 H 994.732 0.906274 3.62957 0
M  V30 10367 H 996.065 1.17327 4.78012 0
M  V30 10368 N 997.718 -1.45297 0.610449 0
M  V30 10369 C 998.628 -2.34349 -0.108475 0
M  V30 10370 C 999.644 -1.51409 -0.857397 0
M  V30 10371 O 1000.82 -1.84202 -0.814337 0
M  V30 10372 C 997.885 -3.29072 -1.09144 0
M  V30 10373 C 996.946 -4.27918 -0.344165 0
M  V30 10374 C 996.179 -5.18116 -1.28031 0
M  V30 10375 O 996.402 -5.11802 -2.51824 0
M  V30 10376 O 995.336 -5.96879 -0.775821 0
M  V30 10377 H 999.162 -2.97232 0.623421 0
M  V30 10378 H 996.747 -1.44728 0.3707 0
M  V30 10379 H 998.629 -3.87433 -1.65751 0
M  V30 10380 H 997.304 -2.68749 -1.80431 0
M  V30 10381 H 996.211 -3.73164 0.264437 0
M  V30 10382 H 997.544 -4.91104 0.328275 0
M  V30 10383 N 999.196 -0.349774 -1.5367 0
M  V30 10384 C 1000.44 0.244343 -2.00617 0
M  V30 10385 C 1000.76 1.50567 -1.23914 0
M  V30 10386 O 1000.03 1.92784 -0.348016 0
M  V30 10387 H 998.615 0.0932792 -0.741153 0
M  V30 10388 H 1001.28 -0.472367 -1.89089 0
M  V30 10389 H 1000.37 0.482433 -3.08349 0
M  V30 10390 N 1000.67 1.57404 -0.0785433 0
M  V30 10391 C 1001.62 2.13104 0.88631 0
M  V30 10392 C 1002.59 1.04527 1.29086 0
M  V30 10393 O 1003.78 1.32226 1.37553 0
M  V30 10394 C 1000.92 2.70252 2.14611 0
M  V30 10395 C 1000.03 3.93007 1.79358 0
M  V30 10396 C 999.164 4.38376 3 0
M  V30 10397 C 998.203 5.53761 2.60796 0
M  V30 10398 N 997.34 5.94058 3.74219 0
M  V30 10399 H 1002.18 2.95243 0.404452 0
M  V30 10400 H 999.717 1.45894 0.187982 0
M  V30 10401 H 1001.67 3.01497 2.88367 0
M  V30 10402 H 1000.3 1.90868 2.60326 0
M  V30 10403 H 999.357 3.68181 0.956384 0
M  V30 10404 H 1000.67 4.76795 1.4652 0
M  V30 10405 H 999.823 4.71317 3.82027 0
M  V30 10406 H 998.562 3.53455 3.36037 0
M  V30 10407 H 997.567 5.20464 1.77192 0
M  V30 10408 H 998.792 6.40419 2.25922 0
M  V30 10409 H 996.738 5.12085 4.10005 0
M  V30 10410 H 996.655 6.72602 3.45171 0
M  V30 10411 H 997.923 6.31624 4.56805 0
M  V30 10412 N 1002.15 -0.195058 1.56388 0
M  V30 10413 C 1003.1 -1.26122 1.95438 0
M  V30 10414 C 1004.09 -1.47117 0.839818 0
M  V30 10415 O 1005.3 -1.47978 1.02482 0
M  V30 10416 H 1001.67 -0.423422 0.621464 0
M  V30 10417 H 1003.65 -0.904854 2.8435 0
M  V30 10418 C 1002.39 -2.59858 2.31017 0
M  V30 10419 H 1001.72 -2.44519 3.16308 0
M  V30 10420 H 1003.16 -3.33205 2.62203 0
M  V30 10421 C 1001.62 -3.16853 1.14481 0
M  V30 10422 O 1002.15 -3.995 0.419853 0
M  V30 10423 N 1000.35 -2.75599 0.921604 0
M  V30 10424 H 999.9 -2.08495 1.51287 0
M  V30 10425 H 999.858 -3.14072 0.143663 0
M  V30 10426 N 1003.63 -1.50653 -0.462772 0
M  V30 10427 C 1004.56 -1.73056 -1.5676 0
M  V30 10428 C 1005.54 -0.579699 -1.59917 0
M  V30 10429 O 1006.73 -0.819729 -1.76051 0
M  V30 10430 C 1003.86 -1.83234 -2.9503 0
M  V30 10431 C 1002.81 -2.98488 -3.06739 0
M  V30 10432 C 1002.14 -2.93818 -4.46738 0
M  V30 10433 C 1003.44 -4.38869 -2.83181 0
M  V30 10434 H 1005.13 -2.65562 -1.38265 0
M  V30 10435 H 1002.68 -1.27792 -0.663722 0
M  V30 10436 H 1004.63 -1.97491 -3.72257 0
M  V30 10437 H 1003.35 -0.873558 -3.14701 0
M  V30 10438 H 1002.01 -2.83895 -2.31946 0
M  V30 10439 H 1001.66 -1.95769 -4.63339 0
M  V30 10440 H 1001.36 -3.71197 -4.55507 0
M  V30 10441 H 1002.88 -3.10135 -5.25974 0
M  V30 10442 H 1004.3 -4.53945 -3.50153 0
M  V30 10443 H 1002.69 -5.17762 -3.03386 0
M  V30 10444 H 1003.76 -4.50663 -1.78972 0
M  V30 10445 N 1005.11 0.71652 -1.4037 0
M  V30 10446 C 1006.07 1.81231 -1.40313 0
M  V30 10447 C 1007.07 1.58032 -0.297087 0
M  V30 10448 O 1008.26 1.65091 -0.555944 0
M  V30 10449 C 1005.39 3.19308 -1.19395 0
M  V30 10450 H 1006.59 1.8268 -2.3784 0
M  V30 10451 H 1004.14 0.922062 -1.26205 0
M  V30 10452 H 1004.87 3.2351 -0.226252 0
M  V30 10453 H 1004.66 3.37546 -1.99512 0
M  V30 10454 H 1006.15 3.99339 -1.22141 0
M  V30 10455 N 1006.59 1.25851 0.948643 0
M  V30 10456 C 1008 1.09975 1.50872 0
M  V30 10457 C 1008.35 -0.322497 1.93531 0
M  V30 10458 O 1007.47 -1.21316 1.79197 0
M  V30 10459 C 1008.07 1.99021 2.74182 0
M  V30 10460 C 1006.63 1.87313 3.26483 0
M  V30 10461 C 1005.77 1.92815 1.99293 0
M  V30 10462 H 1008.73 1.3905 0.764908 0
M  V30 10463 H 1008.75 1.53372 3.4822 0
M  V30 10464 H 1008.26 3.02527 2.43103 0
M  V30 10465 H 1006.36 0.867136 3.62369 0
M  V30 10466 H 1006.47 2.72446 3.94094 0
M  V30 10467 H 1004.84 1.36774 2.1486 0
M  V30 10468 H 1005.62 2.97936 1.70554 0
M  V30 10469 N 1008.06 -1.15214 1.07534 0
M  V30 10470 C 1009.01 -2.22078 0.69168 0
M  V30 10471 C 1010.01 -1.66751 -0.298382 0
M  V30 10472 O 1011.21 -1.7927 -0.161897 0
M  V30 10473 H 1007.59 -0.723347 0.205604 0
M  V30 10474 H 1009.56 -2.51716 1.60256 0
M  V30 10475 C 1008.31 -3.47534 0.107546 0
M  V30 10476 H 1007.63 -3.90429 0.860522 0
M  V30 10477 H 1009.07 -4.23821 -0.123215 0
M  V30 10478 C 1007.53 -3.16583 -1.15226 0
M  V30 10479 O 1008.06 -3.33551 -2.23845 0
M  V30 10480 N 1006.27 -2.70611 -1.05915 0
M  V30 10481 H 1005.81 -2.57004 -0.175198 0
M  V30 10482 H 1005.77 -2.50277 -1.90287 0
M  V30 10483 N 1009.54 -0.859717 -1.32086 0
M  V30 10484 C 1010.47 -0.265258 -2.2766 0
M  V30 10485 C 1011.49 0.565889 -1.52648 0
M  V30 10486 O 1012.68 0.389554 -1.74197 0
M  V30 10487 C 1009.78 0.643397 -3.32737 0
M  V30 10488 C 1008.95 -0.153024 -4.37132 0
M  V30 10489 C 1008.01 0.682176 -5.21759 0
M  V30 10490 O 1007.03 0.113878 -5.69086 0
M  V30 10491 N 1008.24 1.99602 -5.45105 0
M  V30 10492 H 1011 -1.08653 -2.79311 0
M  V30 10493 H 1008.56 -0.720191 -1.45 0
M  V30 10494 H 1010.55 1.20759 -3.86263 0
M  V30 10495 H 1009.12 1.36535 -2.81206 0
M  V30 10496 H 1008.34 -0.898657 -3.8382 0
M  V30 10497 H 1009.63 -0.699877 -5.03963 0
M  V30 10498 H 1009.03 2.481 -5.08393 0
M  V30 10499 H 1007.59 2.50823 -6.01607 0
M  V30 10500 N 1011.02 1.44971 -0.618145 0
M  V30 10501 C 1011.95 2.28815 0.132751 0
M  V30 10502 C 1012.97 1.40551 0.821535 0
M  V30 10503 O 1014.15 1.64827 0.685155 0
M  V30 10504 C 1011.25 3.1658 1.20955 0
M  V30 10505 C 1010.43 4.33184 0.605821 0
M  V30 10506 C 1009.49 5.0208 1.57488 0
M  V30 10507 O 1008.51 5.58528 1.09706 0
M  V30 10508 N 1009.71 5.02335 2.9093 0
M  V30 10509 H 1012.48 2.939 -0.58674 0
M  V30 10510 H 1010.04 1.55276 -0.458375 0
M  V30 10511 H 1012.03 3.59535 1.85787 0
M  V30 10512 H 1010.6 2.53333 1.83143 0
M  V30 10513 H 1009.82 3.93581 -0.220827 0
M  V30 10514 H 1011.11 5.08471 0.182883 0
M  V30 10515 H 1010.51 4.57783 3.32342 0
M  V30 10516 H 1009.07 5.49119 3.51157 0
M  V30 10517 N 1012.5 0.357919 1.53482 0
M  V30 10518 C 1013.74 -0.23451 2.0144 0
M  V30 10519 C 1014.08 -1.49044 1.24497 0
M  V30 10520 O 1013.35 -1.91566 0.336535 0
M  V30 10521 C 1013.64 -0.534193 3.56116 0
M  V30 10522 C 1013.49 0.734834 4.43757 0
M  V30 10523 C 1014.81 -1.33793 4.1927 0
M  V30 10524 H 1011.93 -0.0837595 0.732225 0
M  V30 10525 H 1014.57 0.481297 1.83803 0
M  V30 10526 H 1012.72 -1.144 3.71275 0
M  V30 10527 H 1014.39 1.37251 4.40409 0
M  V30 10528 H 1012.63 1.35678 4.12036 0
M  V30 10529 H 1013.3 0.48021 5.49907 0
M  V30 10530 H 1015.78 -0.822158 4.07897 0
M  V30 10531 H 1014.66 -1.51636 5.27539 0
M  V30 10532 H 1014.92 -2.34423 3.74831 0
M  V30 10533 N 1013.98 -1.5736 0.0868897 0
M  V30 10534 C 1014.91 -2.16596 -0.872252 0
M  V30 10535 C 1015.89 -1.09706 -1.29995 0
M  V30 10536 O 1017.07 -1.37808 -1.36831 0
M  V30 10537 C 1014.2 -2.73972 -2.1344 0
M  V30 10538 C 1013.16 -3.86163 -1.8456 0
M  V30 10539 C 1012.48 -4.30206 -3.17533 0
M  V30 10540 C 1013.78 -5.0973 -1.13899 0
M  V30 10541 H 1015.48 -2.96995 -0.378738 0
M  V30 10542 H 1013.02 -1.42861 -0.18073 0
M  V30 10543 H 1014.98 -3.14062 -2.80968 0
M  V30 10544 H 1013.7 -1.90817 -2.6506 0
M  V30 10545 H 1012.36 -3.466 -1.19432 0
M  V30 10546 H 1012.01 -3.43951 -3.67024 0
M  V30 10547 H 1011.71 -5.05841 -2.98996 0
M  V30 10548 H 1013.23 -4.72922 -3.86234 0
M  V30 10549 H 1014.64 -5.4704 -1.71523 0
M  V30 10550 H 1013.04 -5.90741 -1.05569 0
M  V30 10551 H 1014.11 -4.8475 -0.120432 0
M  V30 10552 N 1015.45 0.186762 -1.56489 0
M  V30 10553 C 1016.7 0.904077 -1.80303 0
M  V30 10554 C 1017.02 1.84073 -0.661538 0
M  V30 10555 O 1018.22 2.59928 -0.784197 0
M  V30 10556 C 1016.68 1.65806 -3.19432 0
M  V30 10557 C 1016.29 0.765807 -4.41406 0
M  V30 10558 C 1018.03 2.36451 -3.52549 0
M  V30 10559 C 1015.94 1.51913 -5.71556 0
M  V30 10560 H 1014.87 0.34133 -0.672317 0
M  V30 10561 H 1017.52 0.157218 -1.82825 0
M  V30 10562 H 1015.9 2.44911 -3.11183 0
M  V30 10563 H 1017.07 0.0128225 -4.60798 0
M  V30 10564 H 1015.39 0.169772 -4.16054 0
M  V30 10565 H 1017.99 2.93378 -4.47027 0
M  V30 10566 H 1018.33 3.11044 -2.7669 0
M  V30 10567 H 1018.86 1.64305 -3.62283 0
M  V30 10568 H 1015.6 0.815829 -6.50403 0
M  V30 10569 H 1015.12 2.24583 -5.56168 0
M  V30 10570 H 1016.8 2.07073 -6.12968 0
M  V30 10571 N 1016.93 1.50896 0.454776 0
M  V30 10572 C 1017.86 1.73885 1.5584 0
M  V30 10573 C 1018.84 0.588172 1.59607 0
M  V30 10574 O 1020.03 0.829054 1.75614 0
M  V30 10575 C 1017.16 1.84796 2.94054 0
M  V30 10576 C 1016.11 3.00111 3.05152 0
M  V30 10577 C 1015.44 2.96183 4.45174 0
M  V30 10578 C 1016.74 4.40365 2.80849 0
M  V30 10579 H 1018.43 2.66292 1.36854 0
M  V30 10580 H 1015.98 1.28142 0.656936 0
M  V30 10581 H 1017.93 1.99462 3.71204 0
M  V30 10582 H 1016.66 0.890235 3.14233 0
M  V30 10583 H 1015.31 2.85121 2.30438 0
M  V30 10584 H 1014.96 1.98224 4.62295 0
M  V30 10585 H 1014.66 3.73608 4.53532 0
M  V30 10586 H 1016.19 3.1292 5.24322 0
M  V30 10587 H 1017.6 4.55795 3.47741 0
M  V30 10588 H 1016 5.19363 3.00636 0
M  V30 10589 H 1017.07 4.51606 1.76579 0
M  V30 10590 N 1018.41 -0.709066 1.40748 0
M  V30 10591 C 1019.64 -1.50313 1.42901 0
M  V30 10592 C 1020.06 -1.88072 0.032213 0
M  V30 10593 O 1019.42 -1.53716 -0.96131 0
M  V30 10594 C 1019.47 -2.75074 2.33166 0
M  V30 10595 O 1018.57 -3.72036 1.7794 0
M  V30 10596 H 1017.91 -0.452934 0.485538 0
M  V30 10597 H 1020.44 -0.872712 1.85054 0
M  V30 10598 H 1020.45 -3.23532 2.48578 0
M  V30 10599 H 1019.13 -2.46927 3.34664 0
M  V30 10600 H 1017.7 -3.30911 1.71908 0
M  V30 10601 N 1019.89 -1.26353 -0.941956 0
M  V30 10602 C 1021.17 -1.02601 -1.6653 0
M  V30 10603 C 1021.55 0.44381 -2.06382 0
M  V30 10604 O 1020.89 1.42399 -1.78703 0
M  V30 10605 C 1021.1 -1.97401 -2.87809 0
M  V30 10606 C 1022.45 -2.25967 -3.59478 0
M  V30 10607 O 1023.48 -1.95261 -2.97912 0
M  V30 10608 O 1022.34 -2.78244 -4.70364 0
M  V30 10609 H 1019.43 -0.39007 -0.729228 0
M  V30 10610 H 1021.98 -1.37559 -0.993754 0
M  V30 10611 H 1020.75 -2.9659 -2.55245 0
M  V30 10612 H 1020.37 -1.62918 -3.62689 0
M  V30 10613 N 1021.37 1.14642 -1.08144 0
M  V30 10614 C 1022.31 2.1964 -0.708995 0
M  V30 10615 C 1023.28 1.63303 0.303512 0
M  V30 10616 O 1024.47 1.8987 0.18813 0
M  V30 10617 C 1021.61 3.44886 -0.121585 0
M  V30 10618 C 1020.72 4.15386 -1.18654 0
M  V30 10619 C 1019.86 5.28205 -0.56328 0
M  V30 10620 C 1018.9 5.90534 -1.61046 0
M  V30 10621 N 1018.03 6.94809 -1.00919 0
M  V30 10622 H 1022.87 2.50848 -1.6087 0
M  V30 10623 H 1020.41 1.23185 -0.803975 0
M  V30 10624 H 1022.37 4.16528 0.23668 0
M  V30 10625 H 1021 3.14169 0.741445 0
M  V30 10626 H 1020.05 3.42159 -1.66227 0
M  V30 10627 H 1021.36 4.57809 -1.9802 0
M  V30 10628 H 1020.52 6.06507 -0.153109 0
M  V30 10629 H 1019.26 4.86995 0.262066 0
M  V30 10630 H 1018.26 5.10938 -2.03033 0
M  V30 10631 H 1019.49 6.33819 -2.43824 0
M  V30 10632 H 1017.43 6.5568 -0.204894 0
M  V30 10633 H 1017.35 7.35704 -1.73999 0
M  V30 10634 H 1018.62 7.76992 -0.624792 0
M  V30 10635 N 1022.85 0.866709 1.31628 0
M  V30 10636 C 1023.81 0.325041 2.26883 0
M  V30 10637 C 1024.81 -0.522133 1.52087 0
M  V30 10638 O 1026 -0.331908 1.71009 0
M  V30 10639 C 1023.13 -0.538756 3.36616 0
M  V30 10640 H 1024.32 1.16592 2.76308 0
M  V30 10641 H 1021.88 0.642029 1.42505 0
M  V30 10642 H 1022.61 -1.40096 2.92478 0
M  V30 10643 H 1022.4 0.0678115 3.92041 0
M  V30 10644 H 1023.89 -0.910123 4.07562 0
M  V30 10645 N 1024.32 -1.44642 0.625825 0
M  V30 10646 C 1025.23 -2.34451 -0.0836134 0
M  V30 10647 C 1026.25 -1.5231 -0.841289 0
M  V30 10648 O 1027.43 -1.85056 -0.794754 0
M  V30 10649 C 1024.49 -3.30211 -1.05648 0
M  V30 10650 C 1023.55 -4.28259 -0.298759 0
M  V30 10651 C 1022.78 -5.19444 -1.22528 0
M  V30 10652 O 1023.01 -5.14444 -2.46382 0
M  V30 10653 O 1021.94 -5.97668 -0.71247 0
M  V30 10654 H 1025.77 -2.96555 0.654912 0
M  V30 10655 H 1023.35 -1.44327 0.386029 0
M  V30 10656 H 1025.23 -3.8917 -1.61632 0
M  V30 10657 H 1023.91 -2.70648 -1.77571 0
M  V30 10658 H 1022.82 -3.72863 0.304001 0
M  V30 10659 H 1024.15 -4.90728 0.380345 0
M  V30 10660 N 1025.8 -0.366053 -1.5329 0
M  V30 10661 C 1026.71 0.488111 -2.29466 0
M  V30 10662 C 1027.73 1.09219 -1.35452 0
M  V30 10663 O 1028.9 1.10303 -1.68509 0
M  V30 10664 C 1025.97 1.61202 -3.06944 0
M  V30 10665 C 1025.03 1.03543 -4.16626 0
M  V30 10666 C 1024.26 2.10578 -4.904 0
M  V30 10667 O 1024.49 3.31697 -4.6404 0
M  V30 10668 O 1023.42 1.73609 -5.76319 0
M  V30 10669 H 1027.25 -0.131789 -3.03414 0
M  V30 10670 H 1024.83 -0.130421 -1.4883 0
M  V30 10671 H 1026.71 2.26546 -3.55324 0
M  V30 10672 H 1025.39 2.21732 -2.35832 0
M  V30 10673 H 1024.29 0.345892 -3.72498 0
M  V30 10674 H 1025.63 0.474687 -4.89906 0
M  V30 10675 N 1027.28 1.57312 -0.0952337 0
M  V30 10676 C 1028.53 1.94646 0.569284 0
M  V30 10677 C 1028.86 0.977152 1.67825 0
M  V30 10678 O 1028.13 0.0102318 1.94497 0
M  V30 10679 C 1028.42 3.42098 1.12433 0
M  V30 10680 C 1028.27 4.49795 0.0204016 0
M  V30 10681 C 1029.59 3.90866 2.02266 0
M  V30 10682 H 1026.71 0.707779 0.205469 0
M  V30 10683 H 1029.35 1.89274 -0.16597 0
M  V30 10684 H 1027.5 3.46807 1.75092 0
M  V30 10685 H 1029.17 4.57198 -0.613845 0
M  V30 10686 H 1027.41 4.28964 -0.645965 0
M  V30 10687 H 1028.09 5.50166 0.449579 0
M  V30 10688 H 1030.56 3.88311 1.49512 0
M  V30 10689 H 1029.44 4.94604 2.38029 0
M  V30 10690 H 1029.7 3.30167 2.9401 0
M  V30 10691 N 1028.76 -0.17846 1.56586 0
M  V30 10692 C 1030.17 -0.741599 1.71339 0
M  V30 10693 C 1030.52 -1.83112 0.704579 0
M  V30 10694 O 1029.64 -2.15975 -0.135557 0
M  V30 10695 C 1030.24 -1.35198 3.10656 0
M  V30 10696 C 1028.8 -1.86202 3.27118 0
M  V30 10697 C 1027.95 -0.738255 2.67292 0
M  V30 10698 H 1030.9 0.0468424 1.58631 0
M  V30 10699 H 1030.92 -2.2216 3.0891 0
M  V30 10700 H 1030.43 -0.558776 3.84056 0
M  V30 10701 H 1028.53 -2.68188 2.58661 0
M  V30 10702 H 1028.64 -2.01237 4.34788 0
M  V30 10703 H 1027.01 -1.15686 2.26912 0
M  V30 10704 H 1027.79 0.0429821 3.43273 0
M  V30 10705 N 1030.24 -1.51135 -0.446768 0
M  V30 10706 C 1031.51 -1.5387 -1.20762 0
M  V30 10707 C 1031.89 -0.297446 -2.08994 0
M  V30 10708 O 1031.24 0.717975 -2.16927 0
M  V30 10709 C 1031.45 -2.84767 -2.01764 0
M  V30 10710 C 1032.8 -3.3636 -2.59128 0
M  V30 10711 O 1033.82 -2.86254 -2.11984 0
M  V30 10712 O 1032.68 -4.23765 -3.45088 0
M  V30 10713 H 1029.78 -0.618228 -0.549293 0
M  V30 10714 H 1032.32 -1.63442 -0.456605 0
M  V30 10715 H 1031.09 -3.6657 -1.36901 0
M  V30 10716 H 1030.72 -2.78313 -2.8395 0
M  V30 10717 N 1031.71 0.701592 -1.41122 0
M  V30 10718 C 1032.65 1.8257 -1.36907 0
M  V30 10719 C 1033.62 1.6086 -0.237245 0
M  V30 10720 O 1034.81 1.83688 -0.423182 0
M  V30 10721 C 1031.94 3.19149 -1.13408 0
M  V30 10722 C 1030.98 3.59661 -2.29229 0
M  V30 10723 S 1031.81 3.65161 -3.91685 0
M  V30 10724 C 1032.97 5.04477 -3.70478 0
M  V30 10725 H 1033.2 1.85867 -2.32036 0
M  V30 10726 H 1030.74 0.869726 -1.27574 0
M  V30 10727 H 1032.69 3.97998 -1.00537 0
M  V30 10728 H 1031.36 3.13468 -0.199099 0
M  V30 10729 H 1030.55 4.58866 -2.08466 0
M  V30 10730 H 1030.15 2.88105 -2.38477 0
M  V30 10731 H 1032.44 5.91803 -3.29811 0
M  V30 10732 H 1033.39 5.3028 -4.69264 0
M  V30 10733 H 1033.79 4.75731 -3.03876 0
M  V30 10734 N 1033.19 1.2685 0.935242 0
M  V30 10735 C 1034.42 1.15371 1.71386 0
M  V30 10736 C 1034.83 -0.293048 1.86917 0
M  V30 10737 O 1034.17 -1.212 1.38044 0
M  V30 10738 C 1034.23 1.75652 3.13666 0
M  V30 10739 C 1033.9 3.24788 3.215 0
M  V30 10740 C 1034.9 4.21525 3.04323 0
M  V30 10741 C 1032.58 3.65359 3.447 0
M  V30 10742 C 1034.57 5.56812 3.10224 0
M  V30 10743 C 1032.26 5.00778 3.50235 0
M  V30 10744 C 1033.26 5.96314 3.33014 0
M  V30 10745 O 1032.95 7.29266 3.38269 0
M  V30 10746 H 1032.68 0.40234 0.54323 0
M  V30 10747 H 1035.23 1.68083 1.18056 0
M  V30 10748 H 1033.46 1.17408 3.68446 0
M  V30 10749 H 1035.15 1.58994 3.73465 0
M  V30 10750 H 1035.92 3.91519 2.86249 0
M  V30 10751 H 1031.8 2.91479 3.57157 0
M  V30 10752 H 1035.34 6.3136 2.967 0
M  V30 10753 H 1031.24 5.30444 3.67831 0
M  V30 10754 H 1032.01 7.37616 3.54774 0
M  V30 10755 N 1034.67 -1.14067 1.0875 0
M  V30 10756 C 1035.92 -1.84819 0.817698 0
M  V30 10757 C 1036.24 -1.83545 -0.658488 0
M  V30 10758 O 1035.51 -1.28633 -1.47751 0
M  V30 10759 H 1034.09 -0.68433 0.299502 0
M  V30 10760 H 1036.75 -1.38208 1.37421 0
M  V30 10761 H 1035.85 -2.89541 1.16501 0
M  V30 10762 N 1036.15 -0.873678 -1.31166 0
M  V30 10763 C 1037.39 -0.496513 -1.97247 0
M  V30 10764 C 1037.75 0.941605 -1.67784 0
M  V30 10765 O 1037.04 1.65469 -0.965947 0
M  V30 10766 C 1037.24 -0.69462 -3.50585 0
M  V30 10767 C 1037.07 -2.15044 -3.94951 0
M  V30 10768 C 1035.84 -2.79278 -4.21108 0
M  V30 10769 C 1038.03 -3.1231 -4.08616 0
M  V30 10770 N 1036.02 -4.15574 -4.51853 0
M  V30 10771 C 1037.39 -4.33646 -4.43115 0
M  V30 10772 C 1039.44 -3.08251 -3.91006 0
M  V30 10773 C 1038.14 -5.51447 -4.61842 0
M  V30 10774 C 1040.17 -4.25314 -4.10929 0
M  V30 10775 C 1039.53 -5.45413 -4.45763 0
M  V30 10776 H 1035.63 -0.230797 -0.747166 0
M  V30 10777 H 1038.22 -1.12905 -1.58621 0
M  V30 10778 H 1036.39 -0.0916484 -3.88292 0
M  V30 10779 H 1038.12 -0.285475 -4.03692 0
M  V30 10780 H 1034.87 -2.30207 -4.13886 0
M  V30 10781 H 1035.3 -4.85932 -4.7138 0
M  V30 10782 H 1039.94 -2.16505 -3.6316 0
M  V30 10783 H 1037.66 -6.43707 -4.88535 0
M  V30 10784 H 1041.24 -4.2363 -3.98785 0
M  V30 10785 H 1040.12 -6.34487 -4.60865 0
M  V30 10786 N 1037.63 1.44308 -0.633487 0
M  V30 10787 C 1038.85 2.06384 -0.146063 0
M  V30 10788 C 1039.27 1.47357 1.18031 0
M  V30 10789 O 1038.63 0.597334 1.72448 0
M  V30 10790 C 1038.68 3.61489 -0.0276722 0
M  V30 10791 O 1038.4 4.18318 -1.3016 0
M  V30 10792 C 1039.9 4.40604 0.488168 0
M  V30 10793 H 1037.12 0.666122 -0.0807632 0
M  V30 10794 H 1039.66 1.85139 -0.868557 0
M  V30 10795 H 1037.82 3.81988 0.645273 0
M  V30 10796 H 1038.23 5.11783 -1.14797 0
M  V30 10797 H 1039.71 5.49545 0.520013 0
M  V30 10798 H 1040.18 4.12218 1.51568 0
M  V30 10799 H 1040.79 4.2503 -0.151608 0
M  V30 10800 N 1039.1 0.374177 1.53094 0
M  V30 10801 C 1040.05 -0.468226 2.26001 0
M  V30 10802 C 1041.02 -1.07041 1.27009 0
M  V30 10803 O 1042.21 -1.10129 1.55809 0
M  V30 10804 C 1039.35 -1.59754 3.05896 0
M  V30 10805 C 1038.46 -1.01969 4.19793 0
M  V30 10806 C 1037.59 -2.11882 4.87113 0
M  V30 10807 C 1036.63 -1.51607 5.93028 0
M  V30 10808 N 1035.77 -2.55388 6.54004 0
M  V30 10809 H 1040.61 0.159983 2.9757 0
M  V30 10810 H 1038.15 0.0907196 1.4682 0
M  V30 10811 H 1040.11 -2.26288 3.50499 0
M  V30 10812 H 1038.74 -2.19628 2.36565 0
M  V30 10813 H 1037.79 -0.244386 3.79614 0
M  V30 10814 H 1039.1 -0.539089 4.95878 0
M  V30 10815 H 1038.25 -2.86218 5.34943 0
M  V30 10816 H 1036.99 -2.63297 4.10519 0
M  V30 10817 H 1036 -0.757891 5.44551 0
M  V30 10818 H 1037.22 -1.01006 6.71546 0
M  V30 10819 H 1035.17 -3.06 5.80258 0
M  V30 10820 H 1035.09 -2.12039 7.25655 0
M  V30 10821 H 1036.35 -3.294 7.06481 0
M  V30 10822 N 1040.58 -1.57259 0.103575 0
M  V30 10823 C 1041.49 -2.18018 -0.866327 0
M  V30 10824 C 1042.51 -1.15198 -1.30404 0
M  V30 10825 O 1043.68 -1.47605 -1.37021 0
M  V30 10826 C 1040.75 -2.75533 -2.10434 0
M  V30 10827 C 1039.81 -3.93337 -1.72002 0
M  V30 10828 C 1039.04 -4.481 -2.89901 0
M  V30 10829 O 1039.27 -4.01784 -4.04877 0
M  V30 10830 O 1038.2 -5.39004 -2.67877 0
M  V30 10831 H 1042.03 -3.01322 -0.379338 0
M  V30 10832 H 1039.61 -1.48907 -0.121228 0
M  V30 10833 H 1041.49 -3.12259 -2.8297 0
M  V30 10834 H 1040.17 -1.9527 -2.58169 0
M  V30 10835 H 1039.08 -3.61408 -0.966193 0
M  V30 10836 H 1040.41 -4.74989 -1.29022 0
M  V30 10837 N 1042.06 0.170153 -1.56679 0
M  V30 10838 C 1043.29 0.902134 -1.86197 0
M  V30 10839 C 1043.7 1.75775 -0.689098 0
M  V30 10840 O 1043.06 1.79271 0.341763 0
M  V30 10841 C 1043.11 1.77792 -3.14757 0
M  V30 10842 O 1042.83 0.956817 -4.27524 0
M  V30 10843 C 1044.33 2.61947 -3.57629 0
M  V30 10844 H 1041.55 0.262026 -0.617724 0
M  V30 10845 H 1044.1 0.169899 -2.03793 0
M  V30 10846 H 1042.25 2.46348 -2.98984 0
M  V30 10847 H 1042.67 1.5559 -5.00891 0
M  V30 10848 H 1044.14 3.19011 -4.50484 0
M  V30 10849 H 1044.62 3.36873 -2.81803 0
M  V30 10850 H 1045.22 1.98721 -3.76019 0
M  V30 10851 N 1043.54 1.5137 0.438746 0
M  V30 10852 C 1044.5 1.71993 1.51496 0
M  V30 10853 C 1045.5 0.589978 1.49586 0
M  V30 10854 O 1046.69 0.857505 1.51633 0
M  V30 10855 C 1043.82 1.77508 2.91039 0
M  V30 10856 H 1045.02 2.68041 1.34514 0
M  V30 10857 H 1042.57 1.41338 0.667326 0
M  V30 10858 H 1043.3 0.832698 3.13427 0
M  V30 10859 H 1043.09 2.59627 2.9383 0
M  V30 10860 H 1044.58 1.95308 3.69113 0
M  V30 10861 N 1045.02 -0.694098 1.41492 0
M  V30 10862 C 1045.93 -1.83778 1.45818 0
M  V30 10863 C 1046.94 -1.70471 0.348639 0
M  V30 10864 O 1048.12 -1.92361 0.596588 0
M  V30 10865 C 1045.18 -3.19771 1.33967 0
M  V30 10866 C 1044.24 -3.45175 2.5525 0
M  V30 10867 C 1043.48 -4.74681 2.43955 0
M  V30 10868 O 1043.7 -5.51268 1.46491 0
M  V30 10869 O 1042.63 -5.00901 3.33739 0
M  V30 10870 H 1046.46 -1.83084 2.42309 0
M  V30 10871 H 1044.05 -0.847349 1.23046 0
M  V30 10872 H 1045.93 -4.00961 1.29648 0
M  V30 10873 H 1044.6 -3.21145 0.405926 0
M  V30 10874 H 1043.51 -2.6391 2.65146 0
M  V30 10875 H 1044.84 -3.48617 3.47458 0
M  V30 10876 N 1046.49 -1.27344 -0.928501 0
M  V30 10877 C 1047.72 -1.16447 -1.7102 0
M  V30 10878 C 1048.14 0.278799 -1.8673 0
M  V30 10879 O 1047.49 1.18989 -1.38376 0
M  V30 10880 C 1047.55 -1.84242 -3.11026 0
M  V30 10881 O 1047.27 -3.2293 -2.96054 0
M  V30 10882 C 1048.77 -1.7946 -4.05351 0
M  V30 10883 H 1045.99 -0.404898 -0.535069 0
M  V30 10884 H 1048.53 -1.68201 -1.16313 0
M  V30 10885 H 1046.69 -1.36395 -3.62595 0
M  V30 10886 H 1047.1 -3.5667 -3.8456 0
M  V30 10887 H 1048.57 -2.31511 -5.01105 0
M  V30 10888 H 1049.05 -0.763771 -4.32508 0
M  V30 10889 H 1049.66 -2.26918 -3.59706 0
M  V30 10890 N 1047.97 1.13488 -1.09353 0
M  V30 10891 C 1048.9 2.20988 -0.75409 0
M  V30 10892 C 1049.88 1.67977 0.267901 0
M  V30 10893 O 1051.07 1.93722 0.136128 0
M  V30 10894 C 1048.2 3.46869 -0.173042 0
M  V30 10895 C 1047.15 4.12965 -1.12446 0
M  V30 10896 C 1046.48 5.33163 -0.405157 0
M  V30 10897 C 1047.78 4.60388 -2.46658 0
M  V30 10898 H 1049.47 2.49639 -1.6529 0
M  V30 10899 H 1047.02 1.19987 -0.796182 0
M  V30 10900 H 1048.97 4.21331 0.0764988 0
M  V30 10901 H 1047.7 3.17611 0.760956 0
M  V30 10902 H 1046.35 3.40469 -1.35927 0
M  V30 10903 H 1046 5.00169 0.532955 0
M  V30 10904 H 1045.7 5.78332 -1.03952 0
M  V30 10905 H 1047.23 6.1038 -0.163899 0
M  V30 10906 H 1048.64 5.26276 -2.27389 0
M  V30 10907 H 1047.04 5.16294 -3.05876 0
M  V30 10908 H 1048.11 3.74949 -3.07476 0
M  V30 10909 N 1049.45 0.880621 1.30701 0
M  V30 10910 C 1050.41 0.349087 2.26526 0
M  V30 10911 C 1051.41 -0.505973 1.52632 0
M  V30 10912 O 1052.6 -0.313751 1.71351 0
M  V30 10913 C 1049.74 -0.503023 3.37168 0
M  V30 10914 H 1050.93 1.19516 2.75056 0
M  V30 10915 H 1048.48 0.657107 1.41816 0
M  V30 10916 H 1049.22 -1.36986 2.93948 0
M  V30 10917 H 1049 0.109389 3.91947 0
M  V30 10918 H 1050.49 -0.866845 4.08504 0
M  V30 10919 N 1050.93 -1.4397 0.641131 0
M  V30 10920 C 1051.88 -2.30728 -0.0577905 0
M  V30 10921 C 1052.85 -1.44059 -0.826819 0
M  V30 10922 O 1054.03 -1.72947 -0.805853 0
M  V30 10923 C 1051.17 -3.29478 -1.02657 0
M  V30 10924 C 1050.28 -4.31247 -0.254913 0
M  V30 10925 C 1049.42 -5.17085 -1.2164 0
M  V30 10926 C 1048.46 -6.10556 -0.434481 0
M  V30 10927 N 1047.6 -6.89059 -1.34694 0
M  V30 10928 H 1052.44 -2.8995 0.687953 0
M  V30 10929 H 1049.97 -1.4285 0.351029 0
M  V30 10930 H 1051.93 -3.85228 -1.60173 0
M  V30 10931 H 1050.56 -2.71932 -1.73933 0
M  V30 10932 H 1049.61 -3.77889 0.436338 0
M  V30 10933 H 1050.92 -4.97545 0.353642 0
M  V30 10934 H 1050.08 -5.77402 -1.86258 0
M  V30 10935 H 1048.82 -4.50885 -1.85888 0
M  V30 10936 H 1047.82 -5.49339 0.225125 0
M  V30 10937 H 1049.05 -6.78795 0.203415 0
M  V30 10938 H 1046.99 -6.25518 -1.97644 0
M  V30 10939 H 1046.91 -7.51833 -0.792657 0
M  V30 10940 H 1048.18 -7.5389 -1.98165 0
M  V30 10941 N 1052.41 -0.382291 -1.52893 0
M  V30 10942 C 1053.65 0.194935 -2.02464 0
M  V30 10943 C 1054.01 1.45051 -1.26404 0
M  V30 10944 O 1053.3 1.88302 -0.353968 0
M  V30 10945 C 1053.5 0.523437 -3.53546 0
M  V30 10946 C 1053.32 -0.698754 -4.44238 0
M  V30 10947 C 1052.09 -1.2159 -4.90453 0
M  V30 10948 C 1054.29 -1.56899 -4.89783 0
M  V30 10949 N 1052.27 -2.39637 -5.65197 0
M  V30 10950 C 1053.65 -2.59595 -5.63037 0
M  V30 10951 C 1055.7 -1.58991 -4.71833 0
M  V30 10952 C 1054.4 -3.6426 -6.20248 0
M  V30 10953 C 1056.43 -2.62559 -5.29922 0
M  V30 10954 C 1055.79 -3.63977 -6.03076 0
M  V30 10955 H 1051.89 0.0336043 -0.781278 0
M  V30 10956 H 1054.47 -0.530603 -1.8733 0
M  V30 10957 H 1052.65 1.21804 -3.68807 0
M  V30 10958 H 1054.38 1.0872 -3.89823 0
M  V30 10959 H 1051.13 -0.777967 -4.67167 0
M  V30 10960 H 1051.56 -2.99348 -6.07223 0
M  V30 10961 H 1056.2 -0.819305 -4.14786 0
M  V30 10962 H 1053.92 -4.42192 -6.76382 0
M  V30 10963 H 1057.5 -2.65052 -5.17918 0
M  V30 10964 H 1056.38 -4.42802 -6.47222 0
M  V30 10965 N 1053.89 1.57202 -0.111913 0
M  V30 10966 C 1054.82 2.17957 0.837683 0
M  V30 10967 C 1055.8 1.1176 1.28233 0
M  V30 10968 O 1056.98 1.39967 1.34621 0
M  V30 10969 C 1054.11 2.77333 2.09054 0
M  V30 10970 C 1053.07 3.8905 1.78393 0
M  V30 10971 C 1052.39 4.35203 3.10649 0
M  V30 10972 C 1053.69 5.11477 1.05775 0
M  V30 10973 H 1055.39 2.9756 0.331441 0
M  V30 10974 H 1052.93 1.43131 0.157979 0
M  V30 10975 H 1054.88 3.18492 2.75936 0
M  V30 10976 H 1053.61 1.95009 2.6199 0
M  V30 10977 H 1052.27 3.48456 1.13903 0
M  V30 10978 H 1051.92 3.49747 3.61506 0
M  V30 10979 H 1051.62 5.10534 2.9091 0
M  V30 10980 H 1053.14 4.79007 3.78661 0
M  V30 10981 H 1054.55 5.497 1.62798 0
M  V30 10982 H 1052.95 5.92346 0.961573 0
M  V30 10983 H 1054.02 4.84881 0.043297 0
M  V30 10984 N 1055.36 -0.161842 1.56767 0
M  V30 10985 C 1056.31 -1.21948 1.98069 0
M  V30 10986 C 1057.31 -1.45303 0.870835 0
M  V30 10987 O 1058.51 -1.45771 1.05598 0
M  V30 10988 H 1054.89 -0.410145 0.630306 0
M  V30 10989 H 1056.86 -0.844336 2.86205 0
M  V30 10990 C 1055.61 -2.549 2.36477 0
M  V30 10991 H 1054.93 -2.37755 3.21423 0
M  V30 10992 H 1056.37 -3.27568 2.69212 0
M  V30 10993 C 1054.83 -3.14353 1.21176 0
M  V30 10994 O 1055.36 -3.98519 0.504499 0
M  V30 10995 N 1053.56 -2.73582 0.979855 0
M  V30 10996 H 1053.11 -2.05239 1.55675 0
M  V30 10997 H 1053.07 -3.13696 0.21025 0
M  V30 10998 N 1056.84 -1.516 -0.430713 0
M  V30 10999 C 1058.09 -1.63829 -1.17657 0
M  V30 11000 C 1058.4 -0.363605 -1.92191 0
M  V30 11001 O 1059.61 -0.365358 -2.6903 0
M  V30 11002 C 1058.07 -2.89357 -2.14011 0
M  V30 11003 C 1057.67 -4.23854 -1.45094 0
M  V30 11004 C 1059.42 -3.10944 -2.88988 0
M  V30 11005 C 1057.32 -5.40526 -2.3997 0
M  V30 11006 H 1056.25 -0.610221 -0.442884 0
M  V30 11007 H 1058.91 -1.78073 -0.442984 0
M  V30 11008 H 1057.29 -2.68762 -2.90832 0
M  V30 11009 H 1058.46 -4.54854 -0.737853 0
M  V30 11010 H 1056.78 -4.08197 -0.822429 0
M  V30 11011 H 1059.37 -3.95286 -3.60074 0
M  V30 11012 H 1059.72 -2.24291 -3.50712 0
M  V30 11013 H 1060.25 -3.3191 -2.19272 0
M  V30 11014 H 1056.99 -6.29459 -1.82925 0
M  V30 11015 H 1056.51 -5.13893 -3.09313 0
M  V30 11016 H 1058.19 -5.72741 -3.00959 0
M  V30 11017 N 1058.32 0.686584 -1.41858 0
M  V30 11018 C 1059.23 1.83002 -1.46791 0
M  V30 11019 C 1060.25 1.70284 -0.357675 0
M  V30 11020 O 1061.42 1.92042 -0.606781 0
M  V30 11021 C 1058.49 3.19056 -1.35661 0
M  V30 11022 C 1057.55 3.43817 -2.57077 0
M  V30 11023 C 1056.78 4.7338 -2.46469 0
M  V30 11024 O 1057 5.50483 -1.49413 0
M  V30 11025 O 1055.94 4.99124 -3.36391 0
M  V30 11026 H 1059.76 1.81797 -2.43277 0
M  V30 11027 H 1057.35 0.840812 -1.23494 0
M  V30 11028 H 1059.23 4.00267 -1.31773 0
M  V30 11029 H 1057.91 3.20925 -0.422951 0
M  V30 11030 H 1056.81 2.625 -2.66541 0
M  V30 11031 H 1058.15 3.4677 -3.49302 0
M  V30 11032 N 1059.8 1.27835 0.921735 0
M  V30 11033 C 1060.73 1.136 2.04003 0
M  V30 11034 C 1061.71 0.0358756 1.70062 0
M  V30 11035 O 1062.89 0.211438 1.93046 0
M  V30 11036 C 1060.02 0.788697 3.38226 0
M  V30 11037 C 1058.98 1.84272 3.863 0
M  V30 11038 C 1058.3 1.34923 5.17397 0
M  V30 11039 C 1059.6 3.24788 4.09035 0
M  V30 11040 H 1061.3 2.07149 2.1617 0
M  V30 11041 H 1058.84 0.997349 1.0387 0
M  V30 11042 H 1060.8 0.675911 4.15944 0
M  V30 11043 H 1059.52 -0.182499 3.2609 0
M  V30 11044 H 1058.18 1.94451 3.1078 0
M  V30 11045 H 1057.83 0.367328 5.01657 0
M  V30 11046 H 1057.53 2.05397 5.50532 0
M  V30 11047 H 1059.05 1.24951 5.97678 0
M  V30 11048 H 1060.47 3.17575 4.77304 0
M  V30 11049 H 1058.86 3.93025 4.53488 0
M  V30 11050 H 1059.93 3.69398 3.14122 0
M  V30 11051 N 1061.28 -1.12907 1.09954 0
M  V30 11052 C 1062.19 -2.22082 0.756095 0
M  V30 11053 C 1063.2 -1.72277 -0.244272 0
M  V30 11054 O 1064.38 -2.01224 -0.0842637 0
M  V30 11055 C 1061.44 -3.46192 0.187642 0
M  V30 11056 C 1060.5 -4.10861 1.24465 0
M  V30 11057 C 1059.74 -5.29047 0.703227 0
M  V30 11058 O 1059.96 -5.68443 -0.472043 0
M  V30 11059 O 1058.89 -5.83904 1.46082 0
M  V30 11060 H 1062.72 -2.53842 1.66727 0
M  V30 11061 H 1060.3 -1.21145 0.874316 0
M  V30 11062 H 1062.19 -4.21212 -0.125774 0
M  V30 11063 H 1060.86 -3.16119 -0.696459 0
M  V30 11064 H 1059.77 -3.37643 1.61085 0
M  V30 11065 H 1061.1 -4.45078 2.10159 0
M  V30 11066 N 1062.75 -0.88754 -1.30232 0
M  V30 11067 C 1064 -0.507279 -1.96043 0
M  V30 11068 C 1064.33 0.944059 -1.70052 0
M  V30 11069 O 1063.58 1.68255 -0.999444 0
M  V30 11070 C 1063.88 -0.731765 -3.49828 0
M  V30 11071 C 1063.55 -2.15858 -3.95874 0
M  V30 11072 C 1062.21 -2.54875 -4.08157 0
M  V30 11073 C 1064.56 -3.0883 -4.19849 0
M  V30 11074 C 1061.89 -3.86069 -4.41778 0
M  V30 11075 C 1064.24 -4.39559 -4.5494 0
M  V30 11076 C 1062.91 -4.78465 -4.65432 0
M  V30 11077 H 1062.18 -0.185627 -0.717373 0
M  V30 11078 H 1064.82 -1.12388 -1.55052 0
M  V30 11079 H 1063.13 -0.0321473 -3.91787 0
M  V30 11080 H 1064.83 -0.417107 -3.98825 0
M  V30 11081 H 1061.42 -1.84574 -3.86821 0
M  V30 11082 H 1065.6 -2.79906 -4.09837 0
M  V30 11083 H 1060.86 -4.1595 -4.48102 0
M  V30 11084 H 1065.03 -5.11636 -4.72442 0
M  V30 11085 H 1062.66 -5.80162 -4.91239 0
M  V30 11086 N 1064.23 1.43628 -0.648757 0
M  V30 11087 C 1065.16 2.29045 0.0841858 0
M  V30 11088 C 1066.18 1.42262 0.791537 0
M  V30 11089 O 1067.37 1.66243 0.650039 0
M  V30 11090 C 1064.47 3.19075 1.14212 0
M  V30 11091 C 1063.64 4.34372 0.513799 0
M  V30 11092 C 1062.7 5.05307 1.46803 0
M  V30 11093 O 1061.72 5.60729 0.978346 0
M  V30 11094 N 1062.93 5.08393 2.80209 0
M  V30 11095 H 1065.69 2.9259 -0.648948 0
M  V30 11096 H 1063.25 1.54268 -0.491209 0
M  V30 11097 H 1065.24 3.63395 1.78119 0
M  V30 11098 H 1063.81 2.57161 1.77728 0
M  V30 11099 H 1063.03 3.93024 -0.304262 0
M  V30 11100 H 1064.32 5.08745 0.0749871 0
M  V30 11101 H 1063.72 4.64729 3.22557 0
M  V30 11102 H 1062.28 5.56445 3.3943 0
M  V30 11103 N 1065.71 0.390394 1.52688 0
M  V30 11104 C 1066.96 -0.191067 2.01195 0
M  V30 11105 C 1067.28 -1.47229 1.27862 0
M  V30 11106 O 1066.55 -1.91793 0.399007 0
M  V30 11107 H 1065.13 -0.073596 0.743366 0
M  V30 11108 H 1067.79 0.522334 1.8777 0
M  V30 11109 H 1066.89 -0.40051 3.0952 0
M  V30 11110 N 1067.19 -1.57141 0.120249 0
M  V30 11111 C 1068.41 -2.00017 -0.548454 0
M  V30 11112 C 1068.84 -0.999433 -1.59352 0
M  V30 11113 O 1068.2 0.0286978 -1.81277 0
M  V30 11114 C 1068.24 -3.41766 -1.15015 0
M  V30 11115 O 1067.35 -3.44589 -2.26566 0
M  V30 11116 H 1066.69 -0.649739 -0.136875 0
M  V30 11117 H 1069.22 -2.03529 0.209092 0
M  V30 11118 H 1069.23 -3.80001 -1.48537 0
M  V30 11119 H 1067.9 -4.14117 -0.384681 0
M  V30 11120 H 1066.48 -3.18174 -1.94473 0
M  V30 11121 N 1068.67 0.153526 -1.5685 0
M  V30 11122 C 1069.91 0.865519 -1.82629 0
M  V30 11123 C 1070.24 1.81999 -0.700105 0
M  V30 11124 O 1069.51 1.93907 0.278744 0
M  V30 11125 H 1068.09 0.32261 -0.673745 0
M  V30 11126 H 1070.75 0.149088 -1.94329 0
M  V30 11127 H 1069.84 1.43171 -2.77324 0
M  V30 11128 N 1070.14 1.51827 0.422667 0
M  V30 11129 C 1071.37 1.69337 1.19748 0
M  V30 11130 C 1071.79 0.396312 1.83878 0
M  V30 11131 O 1071.15 -0.644976 1.6944 0
M  V30 11132 C 1071.2 2.82082 2.24637 0
M  V30 11133 O 1070.3 2.46708 3.30468 0
M  V30 11134 H 1069.65 0.564154 0.35018 0
M  V30 11135 H 1072.18 1.98465 0.497289 0
M  V30 11136 H 1072.19 3.06599 2.69186 0
M  V30 11137 H 1070.86 3.76195 1.77341 0
M  V30 11138 H 1069.44 2.32815 2.91293 0
M  V30 11139 N 1071.62 -0.679052 1.4222 0
M  V30 11140 C 1072.85 -1.46747 1.45852 0
M  V30 11141 C 1073.27 -1.88675 0.0685937 0
M  V30 11142 O 1072.62 -1.57861 -0.915757 0
M  V30 11143 C 1072.67 -2.71935 2.38188 0
M  V30 11144 O 1072.39 -2.31768 3.71773 0
M  V30 11145 C 1073.9 -3.65536 2.50796 0
M  V30 11146 H 1071.12 -0.451682 0.49621 0
M  V30 11147 H 1073.66 -0.834723 1.86689 0
M  V30 11148 H 1071.81 -3.31409 2.00616 0
M  V30 11149 H 1072.23 -3.12579 4.21182 0
M  V30 11150 H 1073.7 -4.50113 3.19535 0
M  V30 11151 H 1074.18 -4.11148 1.54447 0
M  V30 11152 H 1074.79 -3.11957 2.89072 0
M  V30 11153 N 1073.1 -1.28322 -0.914942 0
M  V30 11154 C 1074.35 -1.15578 -1.66642 0
M  V30 11155 C 1074.68 0.295209 -1.91943 0
M  V30 11156 O 1073.95 1.21482 -1.51896 0
M  V30 11157 C 1074.24 -1.9535 -3.02507 0
M  V30 11158 C 1074.09 -3.48504 -2.84367 0
M  V30 11159 C 1075.41 -1.76798 -4.03027 0
M  V30 11160 H 1072.53 -0.421234 -0.604757 0
M  V30 11161 H 1075.17 -1.57625 -1.06087 0
M  V30 11162 H 1073.32 -1.59619 -3.54195 0
M  V30 11163 H 1074.99 -3.94135 -2.39699 0
M  V30 11164 H 1073.24 -3.74198 -2.1945 0
M  V30 11165 H 1073.91 -3.99576 -3.80845 0
M  V30 11166 H 1076.38 -2.07977 -3.60395 0
M  V30 11167 H 1075.26 -2.34987 -4.96057 0
M  V30 11168 H 1075.52 -0.719162 -4.36211 0
M  V30 11169 N 1074.58 1.12322 -1.10551 0
M  V30 11170 C 1075.51 2.17819 -0.713263 0
M  V30 11171 C 1076.52 1.6086 0.250604 0
M  V30 11172 O 1077.71 1.78466 0.0348909 0
M  V30 11173 C 1074.81 3.38885 -0.0320325 0
M  V30 11174 C 1073.99 4.25332 -1.02038 0
M  V30 11175 C 1073.04 5.24895 -0.370412 0
M  V30 11176 O 1072.07 5.59958 -1.02157 0
M  V30 11177 N 1073.27 5.73934 0.870633 0
M  V30 11178 H 1076.04 2.52083 -1.62094 0
M  V30 11179 H 1073.6 1.27755 -0.994492 0
M  V30 11180 H 1075.59 4.02574 0.414285 0
M  V30 11181 H 1074.16 3.02762 0.778072 0
M  V30 11182 H 1073.38 3.5824 -1.64492 0
M  V30 11183 H 1074.67 4.79936 -1.68936 0
M  V30 11184 H 1074.07 5.47614 1.419 0
M  V30 11185 H 1072.62 6.39504 1.26008 0
M  V30 11186 N 1076.06 0.894434 1.2976 0
M  V30 11187 C 1077 0.366586 2.2787 0
M  V30 11188 C 1077.97 -0.548425 1.56785 0
M  V30 11189 O 1079.16 -0.474804 1.84798 0
M  V30 11190 C 1076.3 -0.404531 3.42721 0
M  V30 11191 C 1075.41 0.540774 4.28602 0
M  V30 11192 C 1074.55 -0.246875 5.30626 0
M  V30 11193 C 1073.59 0.693294 6.08161 0
M  V30 11194 N 1072.72 -0.059619 7.02075 0
M  V30 11195 H 1077.56 1.20834 2.72402 0
M  V30 11196 H 1075.1 0.607205 1.33983 0
M  V30 11197 H 1077.06 -0.86762 4.08079 0
M  V30 11198 H 1075.69 -1.21078 2.99232 0
M  V30 11199 H 1074.74 1.12237 3.63465 0
M  V30 11200 H 1076.05 1.26065 4.82606 0
M  V30 11201 H 1075.21 -0.771398 6.01776 0
M  V30 11202 H 1073.94 -0.999918 4.77339 0
M  V30 11203 H 1072.95 1.22936 5.35879 0
M  V30 11204 H 1074.17 1.44558 6.63536 0
M  V30 11205 H 1072.12 -0.795026 6.51165 0
M  V30 11206 H 1072.04 0.60045 7.53612 0
M  V30 11207 H 1073.31 -0.564577 7.77453 0
M  V30 11208 N 1077.53 -1.43282 0.656365 0
M  V30 11209 C 1078.47 -2.29087 -0.0720378 0
M  V30 11210 C 1079.48 -1.4268 -0.783982 0
M  V30 11211 O 1080.67 -1.66585 -0.641213 0
M  V30 11212 C 1077.77 -3.19676 -1.12519 0
M  V30 11213 C 1076.94 -4.34638 -0.490756 0
M  V30 11214 C 1076 -5.06079 -1.44121 0
M  V30 11215 O 1075.03 -5.6124 -0.948595 0
M  V30 11216 N 1076.23 -5.09872 -2.77509 0
M  V30 11217 H 1078.99 -2.92241 0.664456 0
M  V30 11218 H 1076.55 -1.54006 0.499383 0
M  V30 11219 H 1078.55 -3.64334 -1.76189 0
M  V30 11220 H 1077.12 -2.581 -1.76362 0
M  V30 11221 H 1076.34 -3.92857 0.3251 0
M  V30 11222 H 1077.62 -5.08777 -0.0480061 0
M  V30 11223 H 1077.02 -4.66433 -3.20088 0
M  V30 11224 H 1075.58 -5.58237 -3.36474 0
M  V30 11225 N 1079.01 -0.398486 -1.52479 0
M  V30 11226 C 1080.29 0.238776 -1.94137 0
M  V30 11227 C 1080.67 1.63558 -1.33462 0
M  V30 11228 O 1080.02 2.22821 -0.506272 0
M  V30 11229 C 1080.23 0.255863 -3.48061 0
M  V30 11230 C 1081.58 0.480376 -4.21874 0
M  V30 11231 O 1082.6 0.335679 -3.54615 0
M  V30 11232 O 1081.46 0.764654 -5.41124 0
M  V30 11233 H 1078.55 0.150806 -0.813134 0
M  V30 11234 H 1081.1 -0.453659 -1.63524 0
M  V30 11235 H 1079.87 -0.722171 -3.84578 0
M  V30 11236 H 1079.49 0.99284 -3.85004 0
M  V30 11237 N 1080.49 1.57075 -0.12858 0
M  V30 11238 C 1081.74 1.9581 0.527868 0
M  V30 11239 C 1082.07 1.01253 1.65715 0
M  V30 11240 O 1081.35 0.0514853 1.94432 0
M  V30 11241 C 1081.63 3.44406 1.05151 0
M  V30 11242 C 1081.48 4.49737 -0.0750113 0
M  V30 11243 C 1082.8 3.95069 1.9393 0
M  V30 11244 H 1079.92 0.711978 0.19041 0
M  V30 11245 H 1082.56 1.88879 -0.206081 0
M  V30 11246 H 1080.71 3.50443 1.67697 0
M  V30 11247 H 1082.38 4.55793 -0.710685 0
M  V30 11248 H 1080.63 4.27497 -0.736809 0
M  V30 11249 H 1081.3 5.50996 0.332779 0
M  V30 11250 H 1083.77 3.91395 1.41241 0
M  V30 11251 H 1082.65 4.99542 2.27484 0
M  V30 11252 H 1082.91 3.36329 2.86941 0
M  V30 11253 N 1081.97 -0.145205 1.5693 0
M  V30 11254 C 1083.39 -0.497905 1.51635 0
M  V30 11255 C 1083.59 -1.8328 0.837301 0
M  V30 11256 O 1082.64 -2.49172 0.408584 0
M  V30 11257 C 1083.95 -0.506557 2.96403 0
M  V30 11258 C 1085.5 -0.591947 3.07352 0
M  V30 11259 C 1085.98 -0.631244 4.53629 0
M  V30 11260 N 1087.47 -0.693417 4.5798 0
M  V30 11261 C 1088.2 -0.744836 5.68542 0
M  V30 11262 N 1087.7 -0.755492 6.88668 0
M  V30 11263 N 1089.49 -0.785854 5.5658 0
M  V30 11264 H 1081.64 0.729779 1.99469 0
M  V30 11265 H 1083.91 0.266295 0.90983 0
M  V30 11266 H 1083.61 0.406127 3.49347 0
M  V30 11267 H 1083.49 -1.34383 3.5245 0
M  V30 11268 H 1085.87 -1.49505 2.54425 0
M  V30 11269 H 1085.95 0.272507 2.54344 0
M  V30 11270 H 1085.6 0.26771 5.07194 0
M  V30 11271 H 1085.53 -1.51221 5.0442 0
M  V30 11272 H 1088.02 -0.692408 3.71503 0
M  V30 11273 H 1088.33 -0.796624 7.68683 0
M  V30 11274 H 1086.68 -0.723339 6.91226 0
M  V30 11275 H 1089.87 -0.774712 4.61645 0
M  V30 11276 H 1090.04 -0.822461 6.42759 0
M  V30 11277 N 1083.45 -1.52049 -0.414609 0
M  V30 11278 C 1084.41 -1.74382 -1.4874 0
M  V30 11279 C 1085.41 -0.613701 -1.48628 0
M  V30 11280 O 1086.6 -0.88152 -1.50249 0
M  V30 11281 C 1083.73 -1.82116 -2.88178 0
M  V30 11282 H 1084.93 -2.70147 -1.30233 0
M  V30 11283 H 1082.48 -1.42382 -0.644756 0
M  V30 11284 H 1083.21 -0.882457 -3.12063 0
M  V30 11285 H 1083 -2.64268 -2.89663 0
M  V30 11286 H 1084.49 -2.01155 -3.65959 0
M  V30 11287 N 1084.93 0.6715 -1.42579 0
M  V30 11288 C 1085.87 1.80623 -1.46554 0
M  V30 11289 C 1086.87 1.65934 -0.340932 0
M  V30 11290 O 1088.07 1.72502 -0.514098 0
M  V30 11291 H 1084.45 0.595619 -0.459067 0
M  V30 11292 H 1086.42 1.74388 -2.42139 0
M  V30 11293 C 1085.17 3.18794 -1.38801 0
M  V30 11294 H 1084.49 3.30725 -2.24635 0
M  V30 11295 H 1085.93 3.98201 -1.45645 0
M  V30 11296 C 1084.39 3.36742 -0.103219 0
M  V30 11297 O 1084.92 3.92761 0.842715 0
M  V30 11298 N 1083.13 2.90594 -0.0193034 0
M  V30 11299 H 1082.67 2.45192 -0.78986 0
M  V30 11300 H 1082.63 3.0298 0.839686 0
M  V30 11301 N 1086.4 1.28806 0.908124 0
M  V30 11302 C 1087.63 1.19153 1.69146 0
M  V30 11303 C 1088.05 -0.249056 1.8715 0
M  V30 11304 O 1087.4 -1.16772 1.40251 0
M  V30 11305 C 1087.45 1.89167 3.08055 0
M  V30 11306 O 1087.18 3.27599 2.90879 0
M  V30 11307 C 1088.68 1.85886 4.02444 0
M  V30 11308 H 1085.9 0.413359 0.528559 0
M  V30 11309 H 1088.44 1.7003 1.13622 0
M  V30 11310 H 1086.6 1.42146 3.60379 0
M  V30 11311 H 1087.01 3.62743 3.78837 0
M  V30 11312 H 1088.48 2.39454 4.97359 0
M  V30 11313 H 1088.96 0.832483 4.31238 0
M  V30 11314 H 1089.57 2.32612 3.5605 0
M  V30 11315 N 1087.88 -1.11734 1.11145 0
M  V30 11316 C 1088.84 -2.15868 0.770303 0
M  V30 11317 C 1089.84 -1.59438 -0.208842 0
M  V30 11318 O 1091.03 -1.74193 0.0152516 0
M  V30 11319 C 1088.17 -3.40603 0.142303 0
M  V30 11320 H 1089.36 -2.4756 1.69276 0
M  V30 11321 H 1086.91 -1.26867 0.912929 0
M  V30 11322 H 1087.65 -3.14517 -0.790526 0
M  V30 11323 H 1087.43 -3.8284 0.847087 0
M  V30 11324 H 1088.92 -4.17523 -0.0803608 0
M  V30 11325 N 1089.36 -0.901303 -1.29284 0
M  V30 11326 C 1090.61 -0.52401 -1.94774 0
M  V30 11327 C 1090.92 0.934645 -1.71825 0
M  V30 11328 O 1092.13 1.41953 -2.31434 0
M  V30 11329 C 1090.58 -0.886262 -3.48817 0
M  V30 11330 C 1090.19 -2.3638 -3.80564 0
M  V30 11331 C 1091.94 -0.578955 -4.20533 0
M  V30 11332 C 1089.84 -2.66682 -5.27858 0
M  V30 11333 H 1088.77 -0.192244 -0.72908 0
M  V30 11334 H 1091.42 -1.09852 -1.46986 0
M  V30 11335 H 1089.81 -0.240666 -3.95268 0
M  V30 11336 H 1090.98 -3.05508 -3.44966 0
M  V30 11337 H 1089.29 -2.64029 -3.2199 0
M  V30 11338 H 1091.89 -0.782185 -5.28948 0
M  V30 11339 H 1092.23 0.482605 -4.13493 0
M  V30 11340 H 1092.77 -1.18246 -3.79819 0
M  V30 11341 H 1089.51 -3.71643 -5.39965 0
M  V30 11342 H 1089.03 -2.02179 -5.64698 0
M  V30 11343 H 1090.71 -2.53033 -5.95469 0
M  V30 11344 N 1090.84 1.42931 -0.663954 0
M  V30 11345 C 1091.78 2.3079 0.0210764 0
M  V30 11346 C 1092.75 1.45356 0.803796 0
M  V30 11347 O 1093.94 1.74207 0.778237 0
M  V30 11348 C 1091.08 3.31069 0.974023 0
M  V30 11349 C 1090.19 4.31598 0.186273 0
M  V30 11350 C 1089.33 5.18955 1.13399 0
M  V30 11351 C 1088.37 6.1117 0.337292 0
M  V30 11352 N 1087.5 6.91114 1.23715 0
M  V30 11353 H 1092.34 2.88819 -0.733995 0
M  V30 11354 H 1089.88 1.42274 -0.373711 0
M  V30 11355 H 1091.84 3.87727 1.54024 0
M  V30 11356 H 1090.47 2.74665 1.69585 0
M  V30 11357 H 1089.52 3.77147 -0.496402 0
M  V30 11358 H 1090.83 4.96919 -0.432753 0
M  V30 11359 H 1089.99 5.80292 1.77049 0
M  V30 11360 H 1088.73 4.53785 1.78691 0
M  V30 11361 H 1087.73 5.48911 -0.312492 0
M  V30 11362 H 1088.96 6.78386 -0.31138 0
M  V30 11363 H 1086.9 6.28583 1.87668 0
M  V30 11364 H 1086.82 7.52999 0.672946 0
M  V30 11365 H 1088.09 7.56948 1.86146 0
M  V30 11366 N 1092.32 0.406567 1.52266 0
M  V30 11367 C 1093.59 -0.228477 1.94261 0
M  V30 11368 C 1093.97 -1.62848 1.34328 0
M  V30 11369 O 1093.32 -2.22549 0.518082 0
M  V30 11370 C 1093.53 -0.237401 3.48192 0
M  V30 11371 C 1094.88 -0.457997 4.22123 0
M  V30 11372 O 1095.9 -0.316868 3.54788 0
M  V30 11373 O 1094.76 -0.735946 5.41522 0
M  V30 11374 H 1091.86 -0.146492 0.813922 0
M  V30 11375 H 1094.4 0.462325 1.63281 0
M  V30 11376 H 1093.17 0.742556 3.8419 0
M  V30 11377 H 1092.8 -0.972408 3.85526 0
M  V30 11378 N 1093.79 -1.57004 0.136909 0
M  V30 11379 C 1095.04 -1.94972 -0.51662 0
M  V30 11380 C 1095.36 -1.02367 -1.66674 0
M  V30 11381 O 1096.56 -1.29873 -2.38423 0
M  V30 11382 C 1095.02 -3.4657 -0.970435 0
M  V30 11383 C 1094.63 -4.47741 0.152204 0
M  V30 11384 C 1096.37 -3.93423 -1.59432 0
M  V30 11385 C 1094.28 -5.90537 -0.319315 0
M  V30 11386 H 1093.21 -0.727873 -0.196766 0
M  V30 11387 H 1095.86 -1.82181 0.219637 0
M  V30 11388 H 1094.24 -3.54657 -1.76165 0
M  V30 11389 H 1095.41 -4.5134 0.928925 0
M  V30 11390 H 1093.73 -4.10746 0.683867 0
M  V30 11391 H 1096.33 -4.97539 -1.95856 0
M  V30 11392 H 1096.67 -3.34404 -2.47951 0
M  V30 11393 H 1097.2 -3.8821 -0.868193 0
M  V30 11394 H 1093.94 -6.53352 0.530248 0
M  V30 11395 H 1093.46 -5.90321 -1.06213 0
M  V30 11396 H 1095.14 -6.42346 -0.774662 0
M  V30 11397 N 1095.27 0.136881 -1.57004 0
M  V30 11398 C 1096.22 1.16869 -1.99023 0
M  V30 11399 C 1097.19 1.42137 -0.859435 0
M  V30 11400 O 1098.37 1.54303 -1.12229 0
M  V30 11401 C 1095.51 2.49466 -2.38455 0
M  V30 11402 C 1094.63 2.31286 -3.64871 0
M  V30 11403 C 1093.76 3.56989 -3.9336 0
M  V30 11404 C 1092.8 3.33889 -5.13015 0
M  V30 11405 N 1091.94 4.51748 -5.37464 0
M  V30 11406 H 1096.78 0.803366 -2.86967 0
M  V30 11407 H 1094.32 0.385216 -1.41967 0
M  V30 11408 H 1096.27 3.26794 -2.59348 0
M  V30 11409 H 1094.9 2.83926 -1.53577 0
M  V30 11410 H 1093.96 1.44962 -3.51696 0
M  V30 11411 H 1095.27 2.10183 -4.52355 0
M  V30 11412 H 1094.42 4.42742 -4.14806 0
M  V30 11413 H 1093.16 3.81106 -3.04318 0
M  V30 11414 H 1092.17 2.46525 -4.91432 0
M  V30 11415 H 1093.39 3.1116 -6.03619 0
M  V30 11416 H 1091.34 4.76019 -4.51377 0
M  V30 11417 H 1091.25 4.33684 -6.19237 0
M  V30 11418 H 1092.52 5.38686 -5.63416 0
M  V30 11419 N 1096.75 1.52266 0.40654 0
M  V30 11420 C 1097.7 1.75794 1.4955 0
M  V30 11421 C 1098.67 0.600472 1.54866 0
M  V30 11422 O 1099.85 0.838305 1.71397 0
M  V30 11423 C 1096.99 1.91682 2.86971 0
M  V30 11424 C 1096.11 3.19337 2.90943 0
M  V30 11425 C 1095.24 3.25641 4.1968 0
M  V30 11426 C 1094.28 4.47488 4.17637 0
M  V30 11427 N 1093.42 4.51171 5.37949 0
M  V30 11428 H 1098.26 2.68733 1.28789 0
M  V30 11429 H 1095.79 1.33157 0.625102 0
M  V30 11430 H 1097.75 1.98877 3.66748 0
M  V30 11431 H 1096.38 1.02121 3.06221 0
M  V30 11432 H 1095.43 3.21301 2.03642 0
M  V30 11433 H 1096.75 4.09153 2.85299 0
M  V30 11434 H 1095.9 3.31922 5.07851 0
M  V30 11435 H 1094.64 2.33769 4.28023 0
M  V30 11436 H 1093.64 4.41351 3.27856 0
M  V30 11437 H 1094.87 5.40659 4.10932 0
M  V30 11438 H 1092.81 3.62182 5.46955 0
M  V30 11439 H 1092.73 5.34835 5.3431 0
M  V30 11440 H 1094 4.61685 6.28066 0
M  V30 11441 N 1098.23 -0.663929 1.42933 0
M  V30 11442 C 1099.48 -1.41973 1.43271 0
M  V30 11443 C 1099.79 -1.95518 0.0566103 0
M  V30 11444 O 1101 -2.71428 -0.0625862 0
M  V30 11445 C 1099.45 -2.56882 2.52071 0
M  V30 11446 C 1099.06 -2.0999 3.95737 0
M  V30 11447 C 1100.8 -3.34322 2.61589 0
M  V30 11448 C 1098.71 -3.22046 4.96025 0
M  V30 11449 H 1097.64 -0.5334 0.532917 0
M  V30 11450 H 1100.29 -0.717709 1.68882 0
M  V30 11451 H 1098.67 -3.29504 2.19643 0
M  V30 11452 H 1099.85 -1.44449 4.37574 0
M  V30 11453 H 1098.16 -1.45459 3.90168 0
M  V30 11454 H 1100.76 -4.17796 3.33692 0
M  V30 11455 H 1101.1 -3.8164 1.66302 0
M  V30 11456 H 1101.64 -2.68775 2.93266 0
M  V30 11457 H 1098.38 -2.79708 5.92827 0
M  V30 11458 H 1097.9 -3.86333 4.5881 0
M  V30 11459 H 1099.57 -3.87345 5.1824 0
M  V30 11460 N 1099.71 -1.29285 -0.901281 0
M  V30 11461 C 1100.93 -1.20048 -1.68511 0
M  V30 11462 C 1101.35 0.239128 -1.8728 0
M  V30 11463 O 1100.71 1.16027 -1.40869 0
M  V30 11464 C 1100.76 -1.90798 -3.07048 0
M  V30 11465 O 1100.48 -3.29137 -2.89138 0
M  V30 11466 C 1101.98 -1.88017 -4.01453 0
M  V30 11467 H 1099.2 -0.416157 -0.52636 0
M  V30 11468 H 1101.74 -1.7063 -1.12719 0
M  V30 11469 H 1099.9 -1.44055 -3.5962 0
M  V30 11470 H 1100.31 -3.64747 -3.76908 0
M  V30 11471 H 1101.79 -2.42088 -4.96082 0
M  V30 11472 H 1102.26 -0.855341 -4.30791 0
M  V30 11473 H 1102.87 -2.34497 -3.54812 0
M  V30 11474 N 1101.18 1.11143 -1.11736 0
M  V30 11475 C 1102.11 2.19339 -0.800795 0
M  V30 11476 C 1103.1 1.68508 0.23221 0
M  V30 11477 O 1104.28 1.93967 0.0950063 0
M  V30 11478 C 1101.41 3.46424 -0.246579 0
M  V30 11479 C 1100.36 4.10487 -1.21181 0
M  V30 11480 C 1099.69 5.32183 -0.518158 0
M  V30 11481 C 1100.99 4.55052 -2.56368 0
M  V30 11482 H 1102.68 2.46077 -1.70548 0
M  V30 11483 H 1100.23 1.18271 -0.821454 0
M  V30 11484 H 1102.18 4.21398 -0.0128889 0
M  V30 11485 H 1100.91 3.19154 0.693415 0
M  V30 11486 H 1099.57 3.3751 -1.43118 0
M  V30 11487 H 1099.21 5.01187 0.426742 0
M  V30 11488 H 1098.91 5.75997 -1.16196 0
M  V30 11489 H 1100.44 6.09895 -0.293333 0
M  V30 11490 H 1101.85 5.21335 -2.38501 0
M  V30 11491 H 1100.25 5.0969 -3.16758 0
M  V30 11492 H 1101.32 3.68343 -3.1536 0
M  V30 11493 N 1102.66 0.908147 1.28804 0
M  V30 11494 C 1103.89 0.55409 1.99343 0
M  V30 11495 C 1104.31 -0.863262 1.67908 0
M  V30 11496 O 1103.66 -1.571 0.92875 0
M  V30 11497 C 1103.71 0.746916 3.537 0
M  V30 11498 O 1103.43 2.10849 3.84024 0
M  V30 11499 C 1104.94 0.398939 4.41501 0
M  V30 11500 H 1102.16 0.211784 0.636701 0
M  V30 11501 H 1104.7 1.21981 1.64137 0
M  V30 11502 H 1102.85 0.128264 3.87188 0
M  V30 11503 H 1103.27 2.14404 4.78676 0
M  V30 11504 H 1104.74 0.584656 5.48895 0
M  V30 11505 H 1105.22 -0.664517 4.34144 0
M  V30 11506 H 1105.83 0.994892 4.135 0
M  V30 11507 N 1104.14 -1.42577 0.671525 0
M  V30 11508 C 1105.07 -2.33499 0.00506984 0
M  V30 11509 C 1106.05 -1.50497 -0.792763 0
M  V30 11510 O 1107.24 -1.79109 -0.750574 0
M  V30 11511 C 1104.37 -3.34077 -0.949194 0
M  V30 11512 C 1103.32 -4.27208 -0.260187 0
M  V30 11513 C 1102.65 -5.17968 -1.32716 0
M  V30 11514 C 1103.95 -5.15192 0.858772 0
M  V30 11515 H 1105.64 -2.89477 0.764407 0
M  V30 11516 H 1103.19 -1.39191 0.369043 0
M  V30 11517 H 1105.14 -3.96594 -1.42448 0
M  V30 11518 H 1103.86 -2.76396 -1.73991 0
M  V30 11519 H 1102.52 -3.66082 0.194834 0
M  V30 11520 H 1102.17 -4.56615 -2.10979 0
M  V30 11521 H 1101.87 -5.81104 -0.871293 0
M  V30 11522 H 1103.39 -5.83359 -1.80345 0
M  V30 11523 H 1104.81 -5.71412 0.464844 0
M  V30 11524 H 1103.21 -5.87144 1.24023 0
M  V30 11525 H 1104.28 -4.53787 1.70895 0
M  V30 11526 N 1105.62 -0.414636 -1.52048 0
M  V30 11527 C 1106.87 0.159034 -2.01473 0
M  V30 11528 C 1107.19 1.45176 -1.30188 0
M  V30 11529 O 1106.46 1.91134 -0.429469 0
M  V30 11530 H 1105.04 0.0617604 -0.744443 0
M  V30 11531 H 1107.7 -0.552141 -1.86916 0
M  V30 11532 H 1106.8 0.351217 -3.10118 0
M  V30 11533 N 1107.1 1.56929 -0.145233 0
M  V30 11534 C 1108.37 1.8767 0.551288 0
M  V30 11535 C 1108.75 1.05089 1.83083 0
M  V30 11536 O 1108.1 0.137201 2.28088 0
M  V30 11537 C 1108.31 3.39268 0.818445 0
M  V30 11538 C 1109.66 4.08447 1.16 0
M  V30 11539 O 1110.68 3.44436 0.907857 0
M  V30 11540 O 1109.54 5.21488 1.63441 0
M  V30 11541 H 1106.64 0.777788 0.281024 0
M  V30 11542 H 1109.18 1.68724 -0.181712 0
M  V30 11543 H 1107.95 3.91203 -0.0871897 0
M  V30 11544 H 1107.58 3.63735 1.60569 0
M  V30 11545 O 1108.61 0.00658954 1.61499 0
M  V30 11546 H 1109.3 -0.609168 1.83872 0
M  V30 END ATOM
M  V30 BEGIN BOND
M  V30 END BOND
M  V30 END CTAB
M  END
$$$$
