drugbank_target|P36405 ADP-ribosylation factor-like protein 3 (DB03814; DB04315)
 OpenBabel12092120573D

  0  0  0     0  0            999 V3000
M  V30 BEGIN CTAB
M  V30 COUNTS 2911 2933 0 0 0
M  V30 BEGIN ATOM
M  V30 1 H -0.908 1.98254 -0.117106 0
M  V30 2 N 0 1.576 0 0
M  V30 3 C 0.933 2.03868 1.02534 0
M  V30 4 C 1.911 0.928543 1.3348 0
M  V30 5 O 3.095 1.19667 1.45644 0
M  V30 6 C 0.222 2.43627 2.35294 0
M  V30 7 C -0.732 3.65373 2.2001 0
M  V30 8 S 0.101 5.13292 1.52614 0
M  V30 9 C 1.257 5.56322 2.86805 0
M  V30 10 H 1.49 2.90518 0.631377 0
M  V30 11 H -0.977 1.52953 0.210867 0
M  V30 12 H 0.981 2.67203 3.11629 0
M  V30 13 H -0.358 1.57376 2.7183 0
M  V30 14 H -1.165 3.90944 3.18086 0
M  V30 15 H -1.563 3.418 1.51819 0
M  V30 16 H 0.729 5.58782 3.83104 0
M  V30 17 H 1.672 6.56266 2.65933 0
M  V30 18 H 2.08 4.83886 2.90714 0
M  V30 19 N 1.4781 -0.272755 1.55222 0
M  V30 20 C 2.7261 -1.00234 1.75492 0
M  V30 21 C 3.0471 -1.8681 0.5592 0
M  V30 22 O 2.3171 -1.91215 -0.425882 0
M  V30 23 H 0.8971 -0.373076 0.647166 0
M  V30 24 H 3.5591 -0.296926 1.92625 0
M  V30 25 H 2.6551 -1.63913 2.65592 0
M  V30 26 N 2.9562 -1.48159 -0.537278 0
M  V30 27 C 3.8862 -1.65029 -1.6519 0
M  V30 28 C 4.8672 -0.499281 -1.62607 0
M  V30 29 O 6.0522 -0.730972 -1.79918 0
M  V30 30 C 3.1822 -1.68303 -3.03795 0
M  V30 31 C 2.1362 -2.8283 -3.21234 0
M  V30 32 C 1.4622 -2.71189 -4.60826 0
M  V30 33 C 2.7622 -4.24211 -3.04701 0
M  V30 34 H 4.4562 -2.58341 -1.51328 0
M  V30 35 H 2.0022 -1.24325 -0.726585 0
M  V30 36 H 3.9552 -1.78693 -3.81637 0
M  V30 37 H 2.6792 -0.715635 -3.18663 0
M  V30 38 H 1.3382 -2.71983 -2.45807 0
M  V30 39 H 0.9862 -1.72435 -4.7252 0
M  V30 40 H 0.6862 -3.48035 -4.7344 0
M  V30 41 H 2.2102 -2.83537 -5.40777 0
M  V30 42 H 3.6242 -4.3593 -3.72341 0
M  V30 43 H 2.0212 -5.01998 -3.28813 0
M  V30 44 H 3.0912 -4.41184 -2.01209 0
M  V30 45 N 4.4343 0.785586 -1.36625 0
M  V30 46 C 5.3643 1.91259 -1.33949 0
M  V30 47 C 6.3453 1.68795 -0.210325 0
M  V30 48 O 7.5303 1.89854 -0.408561 0
M  V30 49 C 4.6603 3.28339 -1.13186 0
M  V30 50 C 3.6143 3.65335 -2.22967 0
M  V30 51 C 2.9403 5.00806 -1.87342 0
M  V30 52 C 4.2403 3.7352 -3.65075 0
M  V30 53 H 5.9343 1.93755 -2.28253 0
M  V30 54 H 3.4803 0.930788 -1.09874 0
M  V30 55 H 5.4333 4.06804 -1.09948 0
M  V30 56 H 4.1573 3.2624 -0.153332 0
M  V30 57 H 2.8163 2.89169 -2.25337 0
M  V30 58 H 2.4643 4.95233 -0.880545 0
M  V30 59 H 2.1643 5.26529 -2.60846 0
M  V30 60 H 3.6883 5.81687 -1.85667 0
M  V30 61 H 5.1023 4.42168 -3.64911 0
M  V30 62 H 3.4993 4.10731 -4.37516 0
M  V30 63 H 4.5693 2.74527 -3.99703 0
M  V30 64 N 5.9124 1.20967 1.01018 0
M  V30 65 C 7.1374 1.0503 1.78839 0
M  V30 66 C 7.5624 -0.395752 1.8389 0
M  V30 67 O 6.9204 -1.28529 1.27867 0
M  V30 68 C 6.9684 1.64602 3.2084 0
M  V30 69 O 6.0724 0.887988 4.02726 0
M  V30 70 H 5.4134 0.369987 0.551367 0
M  V30 71 H 7.9434 1.60399 1.27018 0
M  V30 72 H 7.9534 1.68607 3.71532 0
M  V30 73 H 6.6284 2.69841 3.16479 0
M  V30 74 H 5.2054 0.922648 3.61305 0
M  V30 75 N 7.3905 -1.2043 1.01659 0
M  V30 76 C 8.6395 -1.89118 0.701237 0
M  V30 77 C 8.9525 -1.79705 -0.772358 0
M  V30 78 O 10.1585 -2.43528 -1.20026 0
M  V30 79 C 8.6145 -3.39168 1.20388 0
M  V30 80 C 8.2225 -3.57166 2.70438 0
M  V30 81 C 9.9665 -4.1341 0.963953 0
M  V30 82 C 7.8735 -5.01042 3.14183 0
M  V30 83 H 6.8035 -0.708267 0.2586 0
M  V30 84 H 9.4545 -1.36239 1.22927 0
M  V30 85 H 7.8365 -3.91369 0.603824 0
M  V30 86 H 9.0105 -3.15351 3.35992 0
M  V30 87 H 7.3255 -2.96294 2.92572 0
M  V30 88 H 9.9225 -5.19491 1.26621 0
M  V30 89 H 10.2655 -4.16181 -0.099578 0
M  V30 90 H 10.7985 -3.67309 1.52738 0
M  V30 91 H 7.5375 -5.03426 4.19812 0
M  V30 92 H 7.0575 -5.43668 2.53348 0
M  V30 93 H 8.7365 -5.69623 3.0682 0
M  V30 94 N 8.8686 -0.792821 -1.36206 0
M  V30 95 C 9.7986 -0.207853 -2.32573 0
M  V30 96 C 10.7796 0.659055 -1.56813 0
M  V30 97 O 11.9646 0.592176 -1.84951 0
M  V30 98 C 9.0946 0.655449 -3.41059 0
M  V30 99 C 8.0486 -0.111842 -4.27854 0
M  V30 100 C 7.3746 0.872274 -5.27537 0
M  V30 101 C 8.6746 -1.30299 -5.05786 0
M  V30 102 H 10.3686 -1.01294 -2.81744 0
M  V30 103 H 7.9146 -0.48854 -1.3546 0
M  V30 104 H 9.8676 1.07464 -4.07467 0
M  V30 105 H 8.5916 1.49328 -2.90463 0
M  V30 106 H 7.2506 -0.512053 -3.63006 0
M  V30 107 H 6.8986 1.70523 -4.73214 0
M  V30 108 H 6.5986 0.363291 -5.86476 0
M  V30 109 H 8.1226 1.28996 -5.96818 0
M  V30 110 H 9.5366 -0.959379 -5.65216 0
M  V30 111 H 7.9336 -1.7455 -5.74154 0
M  V30 112 H 9.0036 -2.09663 -4.37229 0
M  V30 113 N 10.3467 1.47872 -0.545128 0
M  V30 114 C 11.7627 1.5829 -0.204032 0
M  V30 115 C 11.9627 1.54529 1.29317 0
M  V30 116 O 11.0187 1.44232 2.07252 0
M  V30 117 C 12.3317 2.89304 -0.819987 0
M  V30 118 C 13.8797 3.02864 -0.790105 0
M  V30 119 C 14.3547 4.3656 -1.38491 0
M  V30 120 N 15.8457 4.43165 -1.34755 0
M  V30 121 C 16.5807 5.45153 -1.77753 0
M  V30 122 N 16.0767 6.54016 -2.2855 0
M  V30 123 N 17.8697 5.36125 -1.68897 0
M  V30 124 H 10.0207 1.4856 -1.51802 0
M  V30 125 H 12.2837 0.706305 -0.632327 0
M  V30 126 H 11.9897 2.97757 -1.87173 0
M  V30 127 H 11.8637 3.75957 -0.305915 0
M  V30 128 H 14.2507 2.94014 0.252913 0
M  V30 129 H 14.3317 2.17782 -1.34181 0
M  V30 130 H 13.9757 4.46164 -2.42693 0
M  V30 131 H 13.9057 5.20353 -0.808754 0
M  V30 132 H 16.3967 3.65083 -0.975855 0
M  V30 133 H 16.7097 7.27994 -2.59314 0
M  V30 134 H 15.0547 6.54938 -2.32553 0
M  V30 135 H 18.2457 4.49975 -1.28998 0
M  V30 136 H 18.4187 6.15472 -2.02726 0
M  V30 137 N 11.8248 0.280983 1.55075 0
M  V30 138 C 12.7718 -0.603937 2.22758 0
M  V30 139 C 13.7418 -1.1452 1.20309 0
M  V30 140 O 14.9268 -1.19343 1.48869 0
M  V30 141 C 12.0668 -1.77947 2.95684 0
M  V30 142 C 11.1798 -1.2715 4.12864 0
M  V30 143 C 10.3148 -2.4093 4.7342 0
M  V30 144 C 9.3538 -1.87165 5.82783 0
M  V30 145 N 8.4908 -2.94441 6.37377 0
M  V30 146 H 13.3308 -0.020124 2.97993 0
M  V30 147 H 10.8678 0.00183425 1.471 0
M  V30 148 H 12.8258 -2.47055 3.36184 0
M  V30 149 H 11.4558 -2.33522 2.22861 0
M  V30 150 H 10.5078 -0.473331 3.77444 0
M  V30 151 H 11.8198 -0.837751 4.91715 0
M  V30 152 H 10.9738 -3.18021 5.1667 0
M  V30 153 H 9.7128 -2.87623 3.93859 0
M  V30 154 H 8.7178 -1.08556 5.38976 0
M  V30 155 H 9.9428 -1.41401 6.64216 0
M  V30 156 H 7.8888 -3.40505 5.60707 0
M  V30 157 H 7.8058 -2.55501 7.11516 0
M  V30 158 H 9.0738 -3.71489 6.85285 0
M  V30 159 N 13.3029 -1.57598 0.00835791 0
M  V30 160 C 14.2329 -2.1198 -0.979113 0
M  V30 161 C 15.2139 -1.03091 -1.35301 0
M  V30 162 O 16.3989 -1.30818 -1.43528 0
M  V30 163 C 13.5289 -2.62995 -2.26828 0
M  V30 164 C 12.4829 -3.76485 -2.03576 0
M  V30 165 C 11.8089 -4.13846 -3.38579 0
M  V30 166 C 13.1089 -5.0342 -1.39161 0
M  V30 167 H 14.8029 -2.94738 -0.526281 0
M  V30 168 H 12.3489 -1.41783 -0.251704 0
M  V30 169 H 14.3019 -2.99669 -2.96271 0
M  V30 170 H 13.0259 -1.7737 -2.7424 0
M  V30 171 H 11.6849 -3.40217 -1.36557 0
M  V30 172 H 11.3329 -3.25232 -3.83709 0
M  V30 173 H 11.0329 -4.90312 -3.23834 0
M  V30 174 H 12.5569 -4.53086 -4.09323 0
M  V30 175 H 13.9709 -5.37812 -1.98573 0
M  V30 176 H 12.3679 -5.84746 -1.34878 0
M  V30 177 H 13.4379 -4.83548 -0.361868 0
M  V30 178 N 14.781 0.264519 -1.55364 0
M  V30 179 C 15.728 1.32717 -1.88825 0
M  V30 180 C 16.698 1.48675 -0.740605 0
M  V30 181 O 17.883 1.62945 -0.992657 0
M  V30 182 C 15.023 2.68089 -2.17307 0
M  V30 183 C 14.136 2.60284 -3.44785 0
M  V30 184 C 13.271 3.87892 -3.62924 0
M  V30 185 C 12.31 3.74631 -4.84064 0
M  V30 186 N 11.447 4.94092 -4.98816 0
M  V30 187 H 16.287 1.03481 -2.79456 0
M  V30 188 H 13.824 0.499757 -1.3835 0
M  V30 189 H 15.782 3.46864 -2.31821 0
M  V30 190 H 14.412 2.95509 -1.299 0
M  V30 191 H 13.464 1.73173 -3.38697 0
M  V30 192 H 14.776 2.46388 -4.33698 0
M  V30 193 H 13.93 4.75109 -3.77302 0
M  V30 194 H 12.669 4.04664 -2.7221 0
M  V30 195 H 11.674 2.85797 -4.69681 0
M  V30 196 H 12.899 3.5937 -5.76221 0
M  V30 197 H 10.845 5.11259 -4.11036 0
M  V30 198 H 10.762 4.8276 -5.81789 0
M  V30 199 H 12.03 5.82857 -5.17588 0
M  V30 200 N 16.2591 1.48442 0.529413 0
M  V30 201 C 17.4841 1.60406 1.31471 0
M  V30 202 C 17.9091 0.264738 1.86228 0
M  V30 203 O 17.2671 -0.763668 1.64432 0
M  V30 204 C 17.3151 2.65419 2.44101 0
M  V30 205 O 16.4191 2.22618 3.47153 0
M  V30 206 H 15.7601 0.537863 0.389357 0
M  V30 207 H 18.2901 1.94432 0.636965 0
M  V30 208 H 18.3001 2.86709 2.90279 0
M  V30 209 H 16.9751 3.62652 2.03608 0
M  V30 210 H 15.5521 2.11543 3.0709 0
M  V30 211 N 17.7372 -0.778329 1.37039 0
M  V30 212 C 18.7002 -1.87301 1.32102 0
M  V30 213 C 19.7002 -1.59198 0.226405 0
M  V30 214 O 20.8902 -1.67403 0.481861 0
M  V30 215 C 18.0222 -3.24309 1.05055 0
M  V30 216 H 19.2152 -1.93093 2.29467 0
M  V30 217 H 16.7682 -0.977358 1.21973 0
M  V30 218 H 17.5032 -3.24196 0.0819373 0
M  V30 219 H 17.2882 -3.46098 1.84279 0
M  V30 220 H 18.7782 -4.04382 1.04234 0
M  V30 221 N 19.2153 -1.21501 -1.00376 0
M  V30 222 C 20.6263 -1.03146 -1.55621 0
M  V30 223 C 20.9773 0.408375 -1.91903 0
M  V30 224 O 20.1023 1.29177 -1.73616 0
M  V30 225 C 20.6973 -1.86612 -2.82775 0
M  V30 226 C 19.2563 -1.72586 -3.34501 0
M  V30 227 C 18.4033 -1.83747 -2.07683 0
M  V30 228 H 21.3543 -1.35505 -0.826081 0
M  V30 229 H 21.3753 -1.3771 -3.54706 0
M  V30 230 H 20.8873 -2.91399 -2.56336 0
M  V30 231 H 18.9883 -0.704877 -3.65872 0
M  V30 232 H 19.1013 -2.54623 -4.05837 0
M  V30 233 H 17.4653 -1.27069 -2.20739 0
M  V30 234 H 18.2483 -2.90044 -1.83655 0
M  V30 235 N 20.6934 1.19889 -1.02296 0
M  V30 236 C 21.9704 1.85148 -0.630832 0
M  V30 237 C 22.3504 1.91385 0.890782 0
M  V30 238 O 21.6984 1.42642 1.78509 0
M  V30 239 C 21.9084 3.24442 -1.28602 0
M  V30 240 C 23.2564 4.00663 -1.4055 0
M  V30 241 O 24.2804 3.33818 -1.24273 0
M  V30 242 O 23.1394 5.20387 -1.66913 0
M  V30 243 H 20.2334 0.797613 -0.218499 0
M  V30 244 H 22.7794 1.27427 -1.12074 0
M  V30 245 H 21.5514 3.14704 -2.32545 0
M  V30 246 H 21.1744 3.89802 -0.7836 0
M  V30 247 N 22.1715 0.800033 1.35784 0
M  V30 248 C 23.1035 0.163596 2.28615 0
M  V30 249 C 24.1165 -0.633317 1.49976 0
M  V30 250 O 25.3055 -0.466754 1.72289 0
M  V30 251 C 22.4055 -0.790958 3.29541 0
M  V30 252 C 21.5785 -0.0418255 4.3738 0
M  V30 253 C 20.6375 -0.91389 5.18203 0
M  V30 254 O 19.6635 -0.367234 5.68014 0
M  V30 255 N 20.8655 -2.23682 5.35674 0
M  V30 256 H 23.6305 0.96105 2.83873 0
M  V30 257 H 21.1915 0.654894 1.48063 0
M  V30 258 H 23.1835 -1.37844 3.80501 0
M  V30 259 H 21.7535 -1.48925 2.74846 0
M  V30 260 H 20.9735 0.726813 3.87442 0
M  V30 261 H 22.2615 0.474719 5.06581 0
M  V30 262 H 21.6595 -2.70497 4.96838 0
M  V30 263 H 20.2165 -2.77369 5.89839 0
M  V30 264 N 23.6496 -1.47581 0.552962 0
M  V30 265 C 24.5596 -2.33743 -0.200353 0
M  V30 266 C 25.5756 -1.47928 -0.916151 0
M  V30 267 O 26.7516 -1.80865 -0.885993 0
M  V30 268 C 23.8166 -3.24536 -1.21973 0
M  V30 269 C 22.8776 -4.26238 -0.511819 0
M  V30 270 C 22.1106 -5.12693 -1.48263 0
M  V30 271 O 22.3336 -5.01525 -2.71714 0
M  V30 272 O 21.2676 -5.93375 -1.00945 0
M  V30 273 H 25.0936 -2.9945 0.506304 0
M  V30 274 H 22.6786 -1.46071 0.313622 0
M  V30 275 H 24.5606 -3.80631 -1.80827 0
M  V30 276 H 23.2356 -2.61462 -1.90839 0
M  V30 277 H 22.1426 -3.73914 0.117799 0
M  V30 278 H 23.4756 -4.92014 0.135308 0
M  V30 279 N 25.1277 -0.289203 -1.54924 0
M  V30 280 C 26.3737 0.323998 -2.00195 0
M  V30 281 C 26.7067 1.54441 -1.17735 0
M  V30 282 O 25.9817 1.92875 -0.250878 0
M  V30 283 C 26.2647 0.692276 -3.53383 0
M  V30 284 C 26.1177 -0.536457 -4.46589 0
M  V30 285 C 27.4367 1.52335 -4.12895 0
M  V30 286 H 24.5557 0.116289 -0.727768 0
M  V30 287 H 27.1977 -0.398954 -1.85764 0
M  V30 288 H 25.3477 1.30822 -3.65811 0
M  V30 289 H 27.0197 -1.17499 -4.46085 0
M  V30 290 H 25.2627 -1.17192 -4.1767 0
M  V30 291 H 25.9337 -0.234806 -5.515 0
M  V30 292 H 28.4097 1.00302 -4.0383 0
M  V30 293 H 27.2857 1.74982 -5.20262 0
M  V30 294 H 27.5467 2.50886 -3.64018 0
M  V30 295 N 26.6058 1.57591 -0.0167156 0
M  V30 296 C 28.0218 1.55946 0.339557 0
M  V30 297 C 28.2218 1.02109 1.73713 0
M  V30 298 O 27.2778 0.662303 2.43659 0
M  V30 299 C 28.5908 3.00037 0.199499 0
M  V30 300 C 30.1388 3.11805 0.273193 0
M  V30 301 C 30.6138 4.57713 0.162068 0
M  V30 302 N 32.1048 4.6268 0.219444 0
M  V30 303 C 32.8398 5.73185 0.157054 0
M  V30 304 N 32.3358 6.92786 0.0442936 0
M  V30 305 N 34.1288 5.61707 0.21014 0
M  V30 306 H 26.2798 1.90921 -0.930758 0
M  V30 307 H 28.5428 0.877674 -0.358319 0
M  V30 308 H 28.2488 3.4333 -0.76273 0
M  V30 309 H 28.1228 3.64387 0.974786 0
M  V30 310 H 30.5098 2.68433 1.22587 0
M  V30 311 H 30.5908 2.50201 -0.532256 0
M  V30 312 H 30.2348 5.01763 -0.78714 0
M  V30 313 H 30.1648 5.17283 0.986222 0
M  V30 314 H 32.6558 3.76649 0.307246 0
M  V30 315 H 32.9688 7.728 0.00304069 0
M  V30 316 H 31.3138 6.94999 0.00968457 0
M  V30 317 H 34.5048 4.6716 0.296546 0
M  V30 318 H 34.6778 6.47807 0.158054 0
M  V30 319 N 28.0839 -0.256276 1.55502 0
M  V30 320 C 29.3329 -0.983486 1.76098 0
M  V30 321 C 29.6459 -1.86837 0.578896 0
M  V30 322 O 30.8519 -2.63163 0.667648 0
M  V30 323 C 29.3079 -1.79868 3.1173 0
M  V30 324 C 28.9159 -0.961648 4.37557 0
M  V30 325 C 30.6599 -2.51919 3.41668 0
M  V30 326 C 28.5669 -1.77219 5.64223 0
M  V30 327 H 27.4969 -0.370936 0.656447 0
M  V30 328 H 30.1479 -0.238492 1.81944 0
M  V30 329 H 28.5299 -2.58527 2.99966 0
M  V30 330 H 29.7039 -0.218048 4.60284 0
M  V30 331 H 28.0189 -0.354913 4.14885 0
M  V30 332 H 30.6159 -3.12998 4.33516 0
M  V30 333 H 30.9589 -3.23059 2.62562 0
M  V30 334 H 31.4919 -1.80278 3.54605 0
M  V30 335 H 28.2309 -1.10471 6.46124 0
M  V30 336 H 27.7509 -2.49132 5.45613 0
M  V30 337 H 29.4299 -2.34169 6.03137 0
M  V30 338 N 29.562 -1.4872 -0.521534 0
M  V30 339 C 30.492 -1.66771 -1.63431 0
M  V30 340 C 31.473 -0.516499 -1.62069 0
M  V30 341 O 32.658 -0.750013 -1.79132 0
M  V30 342 C 29.788 -1.71515 -3.01993 0
M  V30 343 C 28.742 -2.86222 -3.18216 0
M  V30 344 C 28.068 -2.76061 -4.57924 0
M  V30 345 C 29.368 -4.27419 -3.00184 0
M  V30 346 H 31.062 -2.59932 -1.48579 0
M  V30 347 H 28.608 -1.25089 -0.713358 0
M  V30 348 H 30.561 -1.82731 -3.7972 0
M  V30 349 H 29.285 -0.749393 -3.17886 0
M  V30 350 H 27.944 -2.74575 -2.42908 0
M  V30 351 H 27.592 -1.77437 -4.70665 0
M  V30 352 H 27.292 -3.53037 -4.69722 0
M  V30 353 H 28.816 -2.89256 -5.37739 0
M  V30 354 H 30.23 -4.39855 -3.67697 0
M  V30 355 H 28.627 -5.05458 -3.2347 0
M  V30 356 H 29.697 -4.43293 -1.96518 0
M  V30 357 N 31.0401 0.771051 -1.3745 0
M  V30 358 C 31.9701 1.89827 -1.3597 0
M  V30 359 C 32.9511 1.68562 -0.228216 0
M  V30 360 O 34.1361 1.8941 -0.428675 0
M  V30 361 C 31.2661 3.2712 -1.16662 0
M  V30 362 C 30.2201 3.6295 -2.2683 0
M  V30 363 C 29.5461 4.98791 -1.92644 0
M  V30 364 C 30.8461 3.69627 -3.69017 0
M  V30 365 H 32.5401 1.91323 -2.30295 0
M  V30 366 H 30.0861 0.919082 -1.10855 0
M  V30 367 H 32.0391 4.05615 -1.14256 0
M  V30 368 H 30.7631 3.26059 -0.187926 0
M  V30 369 H 29.4221 2.86763 -2.28392 0
M  V30 370 H 29.0701 4.94271 -0.933021 0
M  V30 371 H 28.7701 5.23733 -2.66416 0
M  V30 372 H 30.2941 5.79685 -1.91826 0
M  V30 373 H 31.7081 4.38273 -3.69581 0
M  V30 374 H 30.1051 4.06067 -4.41848 0
M  V30 375 H 31.1751 2.70273 -4.02592 0
M  V30 376 N 32.5182 1.22032 0.997298 0
M  V30 377 C 33.4482 1.01065 2.10495 0
M  V30 378 C 34.4292 -0.0669542 1.69968 0
M  V30 379 O 35.6142 0.0943987 1.9397 0
M  V30 380 C 32.7442 0.582874 3.42374 0
M  V30 381 C 31.6982 1.60592 3.96729 0
M  V30 382 C 31.0242 1.03412 5.24605 0
M  V30 383 C 32.3242 2.99478 4.27914 0
M  V30 384 H 34.0182 1.93708 2.28292 0
M  V30 385 H 31.5642 0.932761 1.09707 0
M  V30 386 H 33.5172 0.423332 4.19268 0
M  V30 387 H 32.2412 -0.379213 3.24391 0
M  V30 388 H 30.9002 1.75316 3.21963 0
M  V30 389 H 30.5482 0.063518 5.0296 0
M  V30 390 H 30.2482 1.71754 5.61938 0
M  V30 391 H 31.7722 0.886066 6.04137 0
M  V30 392 H 33.1862 2.88153 4.95622 0
M  V30 393 H 31.5832 3.64903 4.76409 0
M  V30 394 H 32.6532 3.49742 3.3587 0
M  V30 395 N 33.9963 -1.19345 1.0293 0
M  V30 396 C 35.2443 -1.88665 0.724574 0
M  V30 397 C 35.5653 -1.80036 -0.749144 0
M  V30 398 O 34.8353 -1.2111 -1.53978 0
M  V30 399 H 33.4153 -0.698406 0.265025 0
M  V30 400 H 36.0773 -1.44885 1.30362 0
M  V30 401 H 35.1733 -2.94987 1.01926 0
M  V30 402 N 35.4744 -0.807222 -1.35358 0
M  V30 403 C 36.4044 -0.232509 -2.3234 0
M  V30 404 C 37.3854 0.642386 -1.57504 0
M  V30 405 O 38.5704 0.572526 -1.85569 0
M  V30 406 C 35.7004 0.619238 -3.41735 0
M  V30 407 C 34.6544 -0.157215 -4.27711 0
M  V30 408 C 33.9804 0.816273 -5.28433 0
M  V30 409 C 35.2804 -1.35656 -5.04376 0
M  V30 410 H 36.9744 -1.04276 -2.80654 0
M  V30 411 H 34.5204 -0.50288 -1.34934 0
M  V30 412 H 36.4734 1.03137 -4.08584 0
M  V30 413 H 35.1974 1.46239 -2.92031 0
M  V30 414 H 33.8564 -0.550525 -3.62443 0
M  V30 415 H 33.5044 1.65494 -4.74996 0
M  V30 416 H 33.2044 0.301067 -5.86828 0
M  V30 417 H 34.7284 1.22659 -5.98153 0
M  V30 418 H 36.1424 -1.01927 -5.64166 0
M  V30 419 H 34.5394 -1.8063 -5.7227 0
M  V30 420 H 35.6094 -2.14288 -4.34981 0
M  V30 421 N 36.9525 1.47285 -0.560781 0
M  V30 422 C 38.2295 1.9558 0.0277798 0
M  V30 423 C 38.6095 1.5034 1.48192 0
M  V30 424 O 37.9575 0.743882 2.16052 0
M  V30 425 C 38.1675 3.48789 -0.121418 0
M  V30 426 C 39.5155 4.24594 0.0220912 0
M  V30 427 O 40.5395 3.56166 -0.0491439 0
M  V30 428 O 39.3985 5.46217 0.175958 0
M  V30 429 H 36.4925 0.824663 0.0621342 0
M  V30 430 H 39.0385 1.5767 -0.627556 0
M  V30 431 H 37.8105 3.74533 -1.13316 0
M  V30 432 H 37.4335 3.93473 0.571366 0
M  V30 433 N 38.4306 0.297415 1.54768 0
M  V30 434 C 39.3786 -0.596051 2.24833 0
M  V30 435 C 40.3726 -1.13992 1.25308 0
M  V30 436 O 41.5786 -1.09098 1.4317 0
M  V30 437 H 37.9536 -0.210814 0.721846 0
M  V30 438 H 39.9246 0.0174667 2.98395 0
M  V30 439 C 38.6736 -1.75818 2.99972 0
M  V30 440 H 37.9966 -1.3489 3.76357 0
M  V30 441 H 39.4366 -2.35949 3.52284 0
M  V30 442 C 37.8956 -2.66014 2.06732 0
M  V30 443 O 38.4256 -3.67009 1.63302 0
M  V30 444 N 36.6316 -2.33669 1.72763 0
M  V30 445 H 36.1786 -1.51586 2.08277 0
M  V30 446 H 36.1366 -2.94285 1.10652 0
M  V30 447 N 39.9087 -1.5758 0.0250728 0
M  V30 448 C 40.8717 -2.08896 -0.943139 0
M  V30 449 C 41.8717 -1.00321 -1.25668 0
M  V30 450 O 43.0617 -1.26495 -1.19769 0
M  V30 451 C 40.1937 -2.55143 -2.26086 0
M  V30 452 H 41.3867 -2.95723 -0.498775 0
M  V30 453 H 38.9397 -1.54703 -0.222888 0
M  V30 454 H 39.6747 -1.71633 -2.75159 0
M  V30 455 H 39.4597 -3.34461 -2.04641 0
M  V30 456 H 40.9497 -2.95083 -2.95492 0
M  V30 457 N 41.3868 0.248026 -1.55636 0
M  V30 458 C 42.6348 0.974295 -1.77065 0
M  V30 459 C 42.9558 1.85897 -0.588849 0
M  V30 460 O 42.2258 1.91868 0.395407 0
M  V30 461 H 40.8058 0.362733 -0.653019 0
M  V30 462 H 43.4678 0.266244 -1.93073 0
M  V30 463 H 42.5638 1.59667 -2.68166 0
M  V30 464 N 42.8649 1.48995 0.513639 0
M  V30 465 C 43.8119 1.6473 1.61656 0
M  V30 466 C 44.7819 0.488984 1.58739 0
M  V30 467 O 45.9669 0.714478 1.76918 0
M  V30 468 C 43.1069 1.7082 2.99858 0
M  V30 469 C 42.2199 2.9787 3.12885 0
M  V30 470 C 41.3549 2.95017 4.41744 0
M  V30 471 C 40.3939 4.16702 4.48359 0
M  V30 472 N 39.5309 4.11832 5.68629 0
M  V30 473 H 44.3709 2.58909 1.47547 0
M  V30 474 H 41.9079 1.28382 0.71808 0
M  V30 475 H 43.8659 1.72331 3.79944 0
M  V30 476 H 42.4959 0.801181 3.12699 0
M  V30 477 H 41.5479 3.06029 2.25944 0
M  V30 478 H 42.8599 3.8786 3.13633 0
M  V30 479 H 42.0139 2.95021 5.30139 0
M  V30 480 H 40.7529 2.02784 4.43542 0
M  V30 481 H 39.7579 4.16955 3.58369 0
M  V30 482 H 40.9829 5.10113 4.48287 0
M  V30 483 H 38.9289 3.22428 5.71293 0
M  V30 484 H 38.8459 4.95543 5.7094 0
M  V30 485 H 40.1139 4.1592 6.59266 0
M  V30 486 N 44.343 -0.763751 1.37857 0
M  V30 487 C 45.571 -1.55293 1.36718 0
M  V30 488 C 45.986 -1.88745 -0.0455434 0
M  V30 489 O 45.343 -1.52039 -1.00947 0
M  V30 490 C 45.394 -2.85831 2.2132 0
M  V30 491 O 45.115 -2.5381 3.57089 0
M  V30 492 C 46.616 -3.80023 2.28249 0
M  V30 493 H 43.836 -0.480841 0.468009 0
M  V30 494 H 46.38 -0.946009 1.81303 0
M  V30 495 H 44.535 -3.42926 1.80223 0
M  V30 496 H 44.949 -3.37459 4.01524 0
M  V30 497 H 46.423 -4.68599 2.91752 0
M  V30 498 H 46.9 -4.1973 1.2932 0
M  V30 499 H 47.506 -3.28855 2.69693 0
M  V30 500 N 45.8211 -1.22559 -0.990812 0
M  V30 501 C 47.0491 -1.07779 -1.76611 0
M  V30 502 C 47.4641 0.371513 -1.85109 0
M  V30 503 O 46.8211 1.25737 -1.32274 0
M  V30 504 C 46.8721 -1.68512 -3.19822 0
M  V30 505 O 46.5931 -3.07774 -3.1178 0
M  V30 506 C 48.0941 -1.59035 -4.13791 0
M  V30 507 H 45.3141 -0.377729 -0.554583 0
M  V30 508 H 47.8581 -1.62195 -1.24551 0
M  V30 509 H 46.0131 -1.18154 -3.68942 0
M  V30 510 H 46.4271 -3.37062 -4.01858 0
M  V30 511 H 47.9011 -2.0625 -5.1202 0
M  V30 512 H 48.3781 -0.547273 -4.35777 0
M  V30 513 H 48.9841 -2.08709 -3.70568 0
M  V30 514 N 47.2992 1.18797 -1.03562 0
M  V30 515 C 48.2292 2.24472 -0.643019 0
M  V30 516 C 49.2102 1.66433 0.351283 0
M  V30 517 O 50.3952 1.92803 0.232505 0
M  V30 518 C 47.5252 3.473 4.24935e-05 0
M  V30 519 C 46.4792 4.18055 -0.917257 0
M  V30 520 C 45.8052 5.34519 -0.138941 0
M  V30 521 C 47.1052 4.72109 -2.23407 0
M  V30 522 H 48.7992 2.57566 -1.52643 0
M  V30 523 H 46.3452 1.23806 -0.735394 0
M  V30 524 H 48.2982 4.20426 0.286383 0
M  V30 525 H 47.0222 3.13424 0.918299 0
M  V30 526 H 45.6812 3.46821 -1.1879 0
M  V30 527 H 45.3292 4.96891 0.781562 0
M  V30 528 H 45.0292 5.82794 -0.750005 0
M  V30 529 H 46.5532 6.10438 0.1405 0
M  V30 530 H 47.9672 5.36955 -2.00879 0
M  V30 531 H 46.3642 5.30897 -2.79765 0
M  V30 532 H 47.4342 3.89807 -2.88407 0
M  V30 533 N 48.7773 0.814389 1.34928 0
M  V30 534 C 49.7073 0.244827 2.32213 0
M  V30 535 C 50.6883 -0.634024 1.57842 0
M  V30 536 O 51.8733 -0.562676 1.8587 0
M  V30 537 C 49.0033 -0.601106 3.42058 0
M  V30 538 C 47.9573 0.179896 4.27622 0
M  V30 539 C 47.2833 -0.788237 5.28858 0
M  V30 540 C 48.5833 1.38329 5.03649 0
M  V30 541 H 50.2773 1.05763 2.80097 0
M  V30 542 H 47.8233 0.510029 1.34665 0
M  V30 543 H 49.7763 -1.00968 4.09125 0
M  V30 544 H 48.5003 -1.44688 2.92802 0
M  V30 545 H 47.1593 0.569739 3.62146 0
M  V30 546 H 46.8073 -1.62973 4.75866 0
M  V30 547 H 46.5073 -0.269942 5.8698 0
M  V30 548 H 48.0313 -1.19485 5.98795 0
M  V30 549 H 49.4453 1.04918 5.63618 0
M  V30 550 H 47.8423 1.83662 5.71304 0
M  V30 551 H 48.9123 2.16592 4.33839 0
M  V30 552 N 50.2554 -1.46986 0.568584 0
M  V30 553 C 51.2024 -2.30153 -0.172707 0
M  V30 554 C 52.1724 -1.39759 -0.897586 0
M  V30 555 O 53.3574 -1.68716 -0.891044 0
M  V30 556 C 50.4974 -3.23952 -1.1895 0
M  V30 557 C 49.6104 -4.29441 -0.469517 0
M  V30 558 C 48.7454 -5.1038 -1.47259 0
M  V30 559 C 47.7844 -6.07632 -0.738225 0
M  V30 560 N 46.9214 -6.8149 -1.68868 0
M  V30 561 H 51.7614 -2.93019 0.542596 0
M  V30 562 H 49.2984 -1.44422 0.279401 0
M  V30 563 H 51.2564 -3.76767 -1.79173 0
M  V30 564 H 49.8864 -2.62926 -1.87269 0
M  V30 565 H 48.9384 -3.79594 0.247467 0
M  V30 566 H 50.2504 -4.98689 0.105241 0
M  V30 567 H 49.4044 -5.67402 -2.14803 0
M  V30 568 H 48.1434 -4.4106 -2.08128 0
M  V30 569 H 47.1484 -5.49778 -0.0489293 0
M  V30 570 H 48.3734 -6.78966 -0.135129 0
M  V30 571 H 46.3194 -6.14891 -2.28573 0
M  V30 572 H 46.2364 -7.46948 -1.16636 0
M  V30 573 H 47.5044 -7.43078 -2.3549 0
M  V30 574 N 51.7335 -0.305618 -1.54608 0
M  V30 575 C 52.6655 0.602161 -2.21149 0
M  V30 576 C 53.6785 1.09394 -1.20569 0
M  V30 577 O 54.8675 1.0106 -1.47136 0
M  V30 578 C 51.9675 1.83692 -2.84799 0
M  V30 579 C 51.1405 1.48686 -4.11353 0
M  V30 580 C 50.1995 2.57725 -4.58764 0
M  V30 581 O 49.2255 2.22623 -5.23858 0
M  V30 582 N 50.4275 3.88346 -4.31471 0
M  V30 583 H 53.1925 0.0324966 -2.99682 0
M  V30 584 H 50.7535 -0.128021 -1.61393 0
M  V30 585 H 52.7455 2.55994 -3.13448 0
M  V30 586 H 51.3155 2.31486 -2.10078 0
M  V30 587 H 50.5355 0.596269 -3.89664 0
M  V30 588 H 51.8235 1.22842 -4.93748 0
M  V30 589 H 51.2215 4.19671 -3.79331 0
M  V30 590 H 49.7785 4.56932 -4.64818 0
M  V30 591 N 53.2116 1.57565 -0.0334293 0
M  V30 592 C 54.1416 2.13511 0.945265 0
M  V30 593 C 55.1226 1.05231 1.33643 0
M  V30 594 O 56.3076 1.33084 1.41429 0
M  V30 595 C 53.4376 2.6657 2.22616 0
M  V30 596 C 52.3916 3.79676 1.97561 0
M  V30 597 C 51.7176 4.1918 3.31952 0
M  V30 598 C 53.0176 5.0557 1.31135 0
M  V30 599 H 54.7116 2.95538 0.479325 0
M  V30 600 H 52.2576 1.42166 0.229115 0
M  V30 601 H 54.2106 3.04344 2.91466 0
M  V30 602 H 52.9346 1.8171 2.71384 0
M  V30 603 H 51.5936 3.42347 1.31127 0
M  V30 604 H 51.2416 3.31296 3.78487 0
M  V30 605 H 50.9416 4.95402 3.15992 0
M  V30 606 H 52.4656 4.59541 4.02063 0
M  V30 607 H 53.8796 5.40903 1.89992 0
M  V30 608 H 52.2766 5.86818 1.25559 0
M  V30 609 H 53.3466 4.84062 0.284894 0
M  V30 610 N 54.6897 -0.239769 1.55765 0
M  V30 611 C 55.6527 -1.28038 1.90103 0
M  V30 612 C 56.6527 -1.40723 0.778055 0
M  V30 613 O 57.8427 -1.39301 1.04599 0
M  V30 614 C 54.9747 -2.65702 2.13577 0
M  V30 615 H 56.1677 -0.988048 2.83157 0
M  V30 616 H 53.7207 -0.479382 1.48767 0
M  V30 617 H 54.4557 -3.00063 1.23015 0
M  V30 618 H 54.2407 -2.57875 2.95369 0
M  V30 619 H 55.7307 -3.40828 2.41301 0
M  V30 620 N 56.1678 -1.49265 -0.50573 0
M  V30 621 C 57.3928 -1.62478 -1.28902 0
M  V30 622 C 57.8178 -0.294332 -1.85783 0
M  V30 623 O 57.1758 0.737412 -1.65626 0
M  V30 624 C 57.2238 -2.69268 -2.39848 0
M  V30 625 O 56.3278 -2.28113 -3.43567 0
M  V30 626 H 55.6688 -0.54399 -0.380751 0
M  V30 627 H 58.1988 -1.95421 -0.605952 0
M  V30 628 H 58.2088 -2.91291 -2.85681 0
M  V30 629 H 56.8838 -3.65846 -1.97812 0
M  V30 630 H 55.4608 -2.16401 -3.03685 0
M  V30 631 N 57.6459 0.756429 -1.3826 0
M  V30 632 C 58.5559 1.9009 -1.37488 0
M  V30 633 C 59.5719 1.71855 -0.272366 0
M  V30 634 O 60.7479 1.94827 -0.510318 0
M  V30 635 C 57.8129 3.25421 -1.19592 0
M  V30 636 C 56.8739 3.56202 -2.39622 0
M  V30 637 C 56.1069 4.85075 -2.2257 0
M  V30 638 O 56.3299 5.57246 -1.21793 0
M  V30 639 O 55.2639 5.15269 -3.11098 0
M  V30 640 H 59.0899 1.93695 -2.33914 0
M  V30 641 H 56.6749 0.901313 -1.1915 0
M  V30 642 H 58.5569 4.06337 -1.11661 0
M  V30 643 H 57.2319 3.22634 -0.262486 0
M  V30 644 H 56.1389 2.75458 -2.53128 0
M  V30 645 H 57.4719 3.63747 -3.31586 0
M  V30 646 N 59.124 1.23083 0.984299 0
M  V30 647 C 60.401 0.9689 1.69917 0
M  V30 648 C 60.781 -0.513604 2.04757 0
M  V30 649 O 60.129 -1.48383 1.73767 0
M  V30 650 C 60.339 1.87518 2.94343 0
M  V30 651 C 61.687 2.13636 3.6694 0
M  V30 652 O 62.711 1.85036 3.04368 0
M  V30 653 O 61.57 2.62119 4.79537 0
M  V30 654 H 58.664 0.365095 0.742048 0
M  V30 655 H 61.21 1.34107 1.03987 0
M  V30 656 H 59.982 2.87756 2.65164 0
M  V30 657 H 59.605 1.50514 3.6801 0
M  V30 658 N 60.6021 -1.18246 1.0419 0
M  V30 659 C 61.8511 -1.87588 0.741194 0
M  V30 660 C 62.1641 -1.81303 -0.734066 0
M  V30 661 O 63.3701 -2.46019 -1.14834 0
M  V30 662 C 61.8261 -3.36538 1.27555 0
M  V30 663 C 61.4341 -3.51349 2.77953 0
M  V30 664 C 63.1781 -4.11273 1.05143 0
M  V30 665 C 61.0851 -4.94265 3.2474 0
M  V30 666 H 60.0151 -0.702622 0.273565 0
M  V30 667 H 62.6661 -1.33601 1.25789 0
M  V30 668 H 61.0481 -3.9 0.686703 0
M  V30 669 H 62.2221 -3.08153 3.42605 0
M  V30 670 H 60.5371 -2.90022 2.98791 0
M  V30 671 H 63.1341 -5.16689 1.37611 0
M  V30 672 H 63.4771 -4.16298 -0.0112774 0
M  V30 673 H 64.0101 -3.63987 1.60495 0
M  V30 674 H 60.7491 -4.94408 4.30396 0
M  V30 675 H 60.2691 -5.38172 2.64823 0
M  V30 676 H 61.9481 -5.62987 3.18834 0
M  V30 677 N 62.0802 -0.821533 -1.34494 0
M  V30 678 C 63.3052 -0.420873 -2.03085 0
M  V30 679 C 63.7302 0.964915 -1.61465 0
M  V30 680 O 63.0882 1.62763 -0.798607 0
M  V30 681 C 63.1362 -0.529414 -3.56693 0
M  V30 682 O 62.2402 0.451302 -4.09923 0
M  V30 683 H 61.5812 -0.173489 -0.640935 0
M  V30 684 H 64.1112 -1.11157 -1.71771 0
M  V30 685 H 64.1212 -0.404671 -4.05988 0
M  V30 686 H 62.7962 -1.54014 -3.86332 0
M  V30 687 H 61.3732 0.285558 -3.71805 0
M  V30 688 N 63.5583 1.46682 -0.576371 0
M  V30 689 C 64.5083 2.27278 0.181288 0
M  V30 690 C 65.4923 1.35497 0.867721 0
M  V30 691 O 66.6843 1.59717 0.762863 0
M  V30 692 C 63.8133 3.21703 1.19841 0
M  V30 693 C 62.8993 4.20969 0.51442 0
M  V30 694 N 63.2903 5.03999 -0.426407 0
M  V30 695 C 61.5883 4.39373 0.765963 0
M  V30 696 C 62.2893 5.75812 -0.825565 0
M  V30 697 N 61.2653 5.43315 -0.176116 0
M  V30 698 H 65.0673 2.88863 -0.541785 0
M  V30 699 H 62.5813 1.57455 -0.397697 0
M  V30 700 H 64.5783 3.78145 1.75533 0
M  V30 701 H 63.2383 2.61677 1.92238 0
M  V30 702 H 64.2493 5.11659 -0.8016 0
M  V30 703 H 60.9263 3.90502 1.47698 0
M  V30 704 H 62.3163 6.52577 -1.59976 0
M  V30 705 N 65.0364 0.313813 1.54444 0
M  V30 706 C 66.2854 -0.292519 1.99568 0
M  V30 707 C 66.5984 -1.54011 1.20582 0
M  V30 708 O 67.8044 -2.22183 1.56035 0
M  V30 709 C 66.2604 -0.571752 3.55329 0
M  V30 710 C 65.8684 0.658229 4.43138 0
M  V30 711 C 67.6124 -1.13857 4.08946 0
M  V30 712 C 65.5194 0.351439 5.90355 0
M  V30 713 H 64.4494 -0.113079 0.745472 0
M  V30 714 H 67.1004 0.424518 1.78522 0
M  V30 715 H 65.4824 -1.34872 3.72325 0
M  V30 716 H 66.6564 1.43403 4.37918 0
M  V30 717 H 64.9714 1.14458 4.0036 0
M  V30 718 H 67.5684 -1.38257 5.16516 0
M  V30 719 H 67.9114 -2.08489 3.6033 0
M  V30 720 H 68.4444 -0.423015 3.95544 0
M  V30 721 H 65.1834 1.26667 6.43145 0
M  V30 722 H 64.7034 -0.386842 5.98551 0
M  V30 723 H 66.3824 -0.0423134 6.46986 0
M  V30 724 N 66.5145 -1.57545 0.0417849 0
M  V30 725 C 67.7425 -1.96624 -0.643928 0
M  V30 726 C 68.1575 -0.918897 -1.64929 0
M  V30 727 O 67.5145 0.0979323 -1.82237 0
M  V30 728 C 67.5655 -3.35781 -1.33914 0
M  V30 729 O 67.2865 -4.365 -0.374048 0
M  V30 730 C 68.7875 -3.89566 -2.1155 0
M  V30 731 H 66.0075 -0.647316 -0.176702 0
M  V30 732 H 68.5515 -2.04229 0.105304 0
M  V30 733 H 66.7065 -3.29357 -2.03968 0
M  V30 734 H 67.1205 -5.17248 -0.869179 0
M  V30 735 H 68.5945 -4.89242 -2.55628 0
M  V30 736 H 69.0715 -3.24488 -2.9598 0
M  V30 737 H 69.6775 -3.99298 -1.46427 0
M  V30 738 N 67.9926 0.231505 -1.5589 0
M  V30 739 C 69.4036 0.799327 -1.68724 0
M  V30 740 C 69.7546 1.85398 -0.642022 0
M  V30 741 O 68.8796 2.1539 0.208784 0
M  V30 742 C 69.4746 1.45664 -3.05888 0
M  V30 743 C 68.0336 1.97197 -3.20609 0
M  V30 744 C 67.1806 0.828552 -2.64632 0
M  V30 745 H 70.1316 0.00702616 -1.58698 0
M  V30 746 H 70.1526 2.32517 -3.01191 0
M  V30 747 H 69.6646 0.688808 -3.81939 0
M  V30 748 H 67.7656 2.76813 -2.4941 0
M  V30 749 H 67.8786 2.15878 -4.27707 0
M  V30 750 H 66.2426 1.23321 -2.22854 0
M  V30 751 H 67.0256 0.0735544 -3.43221 0
M  V30 752 N 69.4707 1.49531 0.497807 0
M  V30 753 C 70.6987 1.62893 1.27567 0
M  V30 754 C 71.1137 0.301585 1.86376 0
M  V30 755 O 70.4707 -0.713335 1.67982 0
M  V30 756 C 70.5217 2.70013 2.40364 0
M  V30 757 O 70.2427 3.976 1.83972 0
M  V30 758 C 71.7437 2.94109 3.31685 0
M  V30 759 H 68.9637 0.548298 0.386794 0
M  V30 760 H 71.5077 1.95584 0.597245 0
M  V30 761 H 69.6627 2.40092 3.04031 0
M  V30 762 H 70.0767 4.56631 2.58047 0
M  V30 763 H 71.5507 3.72788 4.07104 0
M  V30 764 H 72.0277 2.04147 3.88871 0
M  V30 765 H 72.6337 3.2546 2.73781 0
M  V30 766 N 70.9488 -0.749086 1.3866 0
M  V30 767 C 71.8808 -1.87273 1.32142 0
M  V30 768 C 72.8938 -1.61127 0.232787 0
M  V30 769 O 74.0828 -1.71623 0.49069 0
M  V30 770 C 71.1828 -3.23005 1.02571 0
M  V30 771 C 70.3558 -3.7662 2.22433 0
M  V30 772 C 69.4148 -4.90879 1.89537 0
M  V30 773 O 68.4408 -5.05276 2.62078 0
M  V30 774 N 69.6428 -5.74198 0.853031 0
M  V30 775 H 72.4078 -1.93373 2.28969 0
M  V30 776 H 69.9688 -0.929216 1.32579 0
M  V30 777 H 71.9608 -3.96992 0.786085 0
M  V30 778 H 70.5308 -3.12262 0.145249 0
M  V30 779 H 69.7508 -2.94147 2.62434 0
M  V30 780 H 71.0388 -4.09173 3.02415 0
M  V30 781 H 70.4368 -5.6514 0.25155 0
M  V30 782 H 68.9938 -6.48313 0.67329 0
M  V30 783 N 72.4269 -1.23603 -0.977757 0
M  V30 784 C 73.6749 -1.06759 -1.71601 0
M  V30 785 C 73.9959 0.395929 -1.90938 0
M  V30 786 O 73.2659 1.28356 -1.47992 0
M  V30 787 H 71.8459 -0.392062 -0.635843 0
M  V30 788 H 74.5079 -1.55362 -1.1768 0
M  V30 789 H 73.6039 -1.55763 -2.70452 0
M  V30 790 N 73.905 1.17692 -1.04816 0
M  V30 791 C 75.152 1.87859 -0.75599 0
M  V30 792 C 75.48 1.80812 0.716752 0
M  V30 793 O 74.735 1.20819 1.53952 0
M  V30 794 C 75.034 3.37462 -1.17703 0
M  V30 795 C 74.7 3.64713 -2.65133 0
M  V30 796 C 73.362 3.71859 -3.05408 0
M  V30 797 C 75.714 3.76492 -3.60421 0
M  V30 798 C 73.042 3.88271 -4.39843 0
M  V30 799 C 75.394 3.94421 -4.94585 0
M  V30 800 C 74.058 3.99806 -5.3452 0
M  V30 801 H 73.328 0.687425 -0.276636 0
M  V30 802 H 75.975 1.39255 -1.31455 0
M  V30 803 H 74.28 3.88097 -0.537395 0
M  V30 804 H 75.977 3.90109 -0.928218 0
M  V30 805 H 72.567 3.59772 -2.32942 0
M  V30 806 H 76.751 3.70295 -3.30447 0
M  V30 807 H 72.007 3.90687 -4.70291 0
M  V30 808 H 76.181 4.02477 -5.68318 0
M  V30 809 H 73.808 4.12276 -6.38696 0
M  V30 810 N 75.3831 0.828654 1.34056 0
M  V30 811 C 76.3311 0.242973 2.31327 0
M  V30 812 C 77.3251 -0.61944 1.57668 0
M  V30 813 O 78.5311 -0.51014 1.7262 0
M  V30 814 H 74.9061 0.059834 0.749616 0
M  V30 815 H 76.8771 1.07809 2.78244 0
M  V30 816 C 75.6261 -0.575733 3.429 0
M  V30 817 H 74.9491 0.0785582 3.99723 0
M  V30 818 H 76.3891 -0.951547 4.13185 0
M  V30 819 C 74.8481 -1.75044 2.87856 0
M  V30 820 O 75.3781 -2.84882 2.83205 0
M  V30 821 N 73.5841 -1.56903 2.44602 0
M  V30 822 H 73.1311 -0.675547 2.48584 0
M  V30 823 H 73.0891 -2.35652 2.08124 0
M  V30 824 N 76.8612 -1.46375 0.584142 0
M  V30 825 C 78.1102 -2.01585 0.0679741 0
M  V30 826 C 78.4232 -1.46109 -1.30045 0
M  V30 827 O 79.6292 -1.93148 -1.90804 0
M  V30 828 C 78.0852 -3.5983 0.0709207 0
M  V30 829 C 77.6932 -4.24303 1.43775 0
M  V30 830 C 79.4372 -4.22693 -0.391228 0
M  V30 831 C 77.3442 -5.74631 1.39834 0
M  V30 832 H 76.2742 -0.753689 0.0216421 0
M  V30 833 H 78.9252 -1.68093 0.736001 0
M  V30 834 H 77.3072 -3.90405 -0.663299 0
M  V30 835 H 78.4812 -4.05335 2.19181 0
M  V30 836 H 76.7962 -3.73539 1.84004 0
M  V30 837 H 79.3932 -5.3289 -0.439524 0
M  V30 838 H 79.7362 -3.91728 -1.40906 0
M  V30 839 H 80.2692 -3.96749 0.288974 0
M  V30 840 H 77.0082 -6.10258 2.39303 0
M  V30 841 H 76.5282 -5.95858 0.686505 0
M  V30 842 H 78.2072 -6.37375 1.11187 0
M  V30 843 N 78.3393 -0.321999 -1.54275 0
M  V30 844 C 79.2863 0.544664 -2.24281 0
M  V30 845 C 80.2563 1.1129 -1.23303 0
M  V30 846 O 81.4413 1.15354 -1.51981 0
M  V30 847 C 78.5813 1.70045 -3.00298 0
M  V30 848 C 77.6943 1.16159 -4.1609 0
M  V30 849 C 76.8293 2.28293 -4.79641 0
M  V30 850 C 75.8683 1.71648 -5.8754 0
M  V30 851 N 75.0053 2.77438 -6.44959 0
M  V30 852 H 79.8453 -0.0588907 -2.97942 0
M  V30 853 H 77.3823 -0.0408345 -1.47043 0
M  V30 854 H 79.3403 2.38054 -3.42616 0
M  V30 855 H 77.9703 2.27531 -2.28975 0
M  V30 856 H 77.0223 0.373092 -3.78566 0
M  V30 857 H 78.3343 0.707087 -4.93763 0
M  V30 858 H 77.4883 3.0421 -5.2492 0
M  V30 859 H 76.2273 2.77079 -4.01346 0
M  V30 860 H 75.2323 0.942282 -5.41665 0
M  V30 861 H 76.4573 1.23741 -6.67731 0
M  V30 862 H 74.4033 3.25519 -5.69538 0
M  V30 863 H 74.3203 2.36547 -7.1804 0
M  V30 864 H 75.5883 3.53189 -6.94894 0
M  V30 865 N 79.8174 1.5752 -0.0501392 0
M  V30 866 C 81.0424 1.97376 0.636997 0
M  V30 867 C 81.4674 0.927466 1.63645 0
M  V30 868 O 80.8254 -0.10941 1.8097 0
M  V30 869 C 80.8734 3.36304 1.30123 0
M  V30 870 O 79.9774 3.34156 2.41689 0
M  V30 871 H 79.3184 0.642998 0.165679 0
M  V30 872 H 81.8484 2.04258 -0.118233 0
M  V30 873 H 81.8584 3.73008 1.65315 0
M  V30 874 H 80.5334 4.11993 0.568746 0
M  V30 875 H 79.1104 3.09196 2.08451 0
M  V30 876 N 81.2955 -0.223234 1.56011 0
M  V30 877 C 82.5415 -0.949279 1.79211 0
M  V30 878 C 82.8745 -1.84054 0.619494 0
M  V30 879 O 82.1495 -1.90726 -0.381317 0
M  V30 880 C 82.4325 -1.78965 3.12479 0
M  V30 881 C 82.2855 -0.924997 4.40186 0
M  V30 882 C 83.6045 -2.76774 3.42175 0
M  V30 883 H 80.7235 -0.343676 0.651963 0
M  V30 884 H 83.3655 -0.218253 1.88742 0
M  V30 885 H 81.5155 -2.41291 3.04485 0
M  V30 886 H 83.1875 -0.318615 4.60198 0
M  V30 887 H 81.4305 -0.230344 4.33188 0
M  V30 888 H 82.1015 -1.54735 5.29869 0
M  V30 889 H 84.5775 -2.24584 3.50287 0
M  V30 890 H 83.4535 -3.32678 4.36597 0
M  V30 891 H 83.7145 -3.54429 2.64258 0
M  V30 892 N 82.7736 -1.49793 -0.48987 0
M  V30 893 C 83.7056 -1.63413 -1.60713 0
M  V30 894 C 84.7186 -0.516329 -1.54395 0
M  V30 895 O 85.9076 -0.788812 -1.60125 0
M  V30 896 C 83.0076 -1.58516 -2.99543 0
M  V30 897 C 82.1806 -2.86016 -3.30928 0
M  V30 898 C 81.2396 -2.74018 -4.49222 0
M  V30 899 O 80.2656 -3.47964 -4.50455 0
M  V30 900 N 81.4676 -1.86309 -5.4979 0
M  V30 901 H 84.2326 -2.59777 -1.49452 0
M  V30 902 H 81.7936 -1.47022 -0.677955 0
M  V30 903 H 83.7856 -1.48128 -3.76617 0
M  V30 904 H 82.3556 -0.69965 -3.0467 0
M  V30 905 H 81.5756 -3.10672 -2.42645 0
M  V30 906 H 82.8636 -3.70521 -3.487 0
M  V30 907 H 82.2616 -1.2551 -5.51601 0
M  V30 908 H 80.8186 -1.81837 -6.25922 0
M  V30 909 N 84.2517 0.741722 -1.39055 0
M  V30 910 C 85.4767 1.53607 -1.39354 0
M  V30 911 C 85.9017 1.88096 0.0116905 0
M  V30 912 O 85.2597 1.5143 0.996924 0
M  V30 913 C 85.3077 2.80441 -2.26682 0
M  V30 914 O 84.4117 3.76088 -1.69208 0
M  V30 915 H 83.7527 0.464142 -0.474835 0
M  V30 916 H 86.2827 0.915665 -1.82967 0
M  V30 917 H 86.2927 3.29246 -2.40959 0
M  V30 918 H 84.9677 2.5467 -3.2881 0
M  V30 919 H 83.5447 3.34833 -1.64138 0
M  V30 920 N 85.7298 1.2412 0.971189 0
M  V30 921 C 86.6618 0.988349 2.06795 0
M  V30 922 C 87.6748 -0.0409541 1.62748 0
M  V30 923 O 88.8638 0.195673 1.77424 0
M  V30 924 C 85.9638 0.469023 3.35639 0
M  V30 925 C 85.1368 1.56065 4.08611 0
M  V30 926 C 84.1958 1.04458 5.15728 0
M  V30 927 O 83.2218 1.73553 5.42096 0
M  V30 928 N 84.4238 -0.122817 5.8037 0
M  V30 929 H 87.1888 1.93265 2.29061 0
M  V30 930 H 84.7498 1.15102 1.13856 0
M  V30 931 H 86.7418 0.108613 4.04554 0
M  V30 932 H 85.3118 -0.380919 3.1027 0
M  V30 933 H 84.5318 2.09341 3.34021 0
M  V30 934 H 85.8198 2.29449 4.54126 0
M  V30 935 H 85.2178 -0.700563 5.61345 0
M  V30 936 H 83.7748 -0.424404 6.50417 0
M  V30 937 N 87.2079 -1.17134 1.05439 0
M  V30 938 C 88.4559 -1.87085 0.764429 0
M  V30 939 C 88.7769 -1.81584 -0.710787 0
M  V30 940 O 88.0469 -1.24349 -1.51374 0
M  V30 941 H 86.6269 -0.692627 0.279779 0
M  V30 942 H 89.2889 -1.42087 1.33406 0
M  V30 943 H 88.3849 -2.92759 1.0816 0
M  V30 944 N 88.686 -0.835752 -1.33615 0
M  V30 945 C 89.933 -0.429959 -1.97883 0
M  V30 946 C 90.261 1.01006 -1.66217 0
M  V30 947 O 89.516 1.72047 -0.93265 0
M  V30 948 C 89.815 -0.593925 -3.52431 0
M  V30 949 C 89.481 -2.00158 -4.04039 0
M  V30 950 C 88.143 -2.38662 -4.17844 0
M  V30 951 C 90.495 -2.92117 -4.31644 0
M  V30 952 C 87.823 -3.68435 -4.56588 0
M  V30 953 C 90.175 -4.21368 -4.71838 0
M  V30 954 C 88.839 -4.59833 -4.83849 0
M  V30 955 H 88.109 -0.157333 -0.724104 0
M  V30 956 H 90.756 -1.06217 -1.59343 0
M  V30 957 H 89.061 0.121619 -3.91611 0
M  V30 958 H 90.758 -0.260282 -4.00154 0
M  V30 959 H 87.348 -1.69252 -3.93766 0
M  V30 960 H 91.532 -2.63608 -4.20505 0
M  V30 961 H 86.788 -3.98046 -4.64079 0
M  V30 962 H 90.962 -4.92703 -4.92155 0
M  V30 963 H 88.589 -5.60438 -5.13627 0
M  V30 964 N 90.1641 1.46063 -0.591896 0
M  V30 965 C 91.1111 2.30399 0.136069 0
M  V30 966 C 92.0811 1.41169 0.875238 0
M  V30 967 O 93.2661 1.70112 0.86409 0
M  V30 968 C 90.4061 3.25804 1.13781 0
M  V30 969 C 89.5191 4.30134 0.401137 0
M  V30 970 C 88.6541 5.12659 1.39121 0
M  V30 971 C 87.6931 6.0873 0.641462 0
M  V30 972 N 86.8301 6.8409 1.58004 0
M  V30 973 H 91.6701 2.92118 -0.589144 0
M  V30 974 H 89.2071 1.43959 -0.302342 0
M  V30 975 H 91.1651 3.79569 1.73156 0
M  V30 976 H 89.7951 2.65872 1.83062 0
M  V30 977 H 88.8471 3.79152 -0.307826 0
M  V30 978 H 90.1591 4.98458 -0.184565 0
M  V30 979 H 89.3131 5.70747 2.05749 0
M  V30 980 H 88.0521 4.44316 2.01084 0
M  V30 981 H 87.0571 5.49786 -0.0385419 0
M  V30 982 H 88.2821 6.79095 0.0270945 0
M  V30 983 H 86.2281 6.18449 2.18761 0
M  V30 984 H 86.1451 7.48709 1.04738 0
M  V30 985 H 87.4131 7.4673 2.23639 0
M  V30 986 N 91.6422 0.330177 1.54103 0
M  V30 987 C 92.5722 -0.525353 2.27513 0
M  V30 988 C 93.5532 -1.11383 1.2856 0
M  V30 989 O 94.7382 -1.13773 1.57383 0
M  V30 990 C 91.8682 -1.6831 3.03791 0
M  V30 991 C 90.8222 -1.2236 4.10137 0
M  V30 992 C 90.1482 -2.46882 4.74293 0
M  V30 993 C 91.4482 -0.333697 5.21233 0
M  V30 994 H 93.1422 0.087013 2.99274 0
M  V30 995 H 90.6882 0.0432893 1.43935 0
M  V30 996 H 92.6412 -2.28795 3.5388 0
M  V30 997 H 91.3652 -2.32216 2.29659 0
M  V30 998 H 90.0242 -0.64165 3.60941 0
M  V30 999 H 89.6722 -3.09165 3.96769 0
M  V30 1000 H 89.3722 -2.16825 5.46133 0
M  V30 1001 H 90.8962 -3.08117 5.27159 0
M  V30 1002 H 92.3102 -0.845013 5.67038 0
M  V30 1003 H 90.7072 -0.125612 5.99969 0
M  V30 1004 H 91.7772 0.633724 4.80741 0
M  V30 1005 N 93.1203 -1.57491 0.0584922 0
M  V30 1006 C 94.0683 -2.13148 -0.931168 0
M  V30 1007 C 95.0623 -1.06507 -1.31729 0
M  V30 1008 O 96.2683 -1.24906 -1.29609 0
M  V30 1009 H 92.6433 -0.68137 -0.31818 0
M  V30 1010 H 94.6143 -2.95187 -0.436707 0
M  V30 1011 C 93.3633 -2.69732 -2.19408 0
M  V30 1012 H 92.6863 -3.51454 -1.90578 0
M  V30 1013 H 94.1263 -3.12287 -2.86798 0
M  V30 1014 C 92.5853 -1.63855 -2.94369 0
M  V30 1015 O 93.1153 -1.05565 -3.87581 0
M  V30 1016 N 91.3213 -1.35202 -2.57233 0
M  V30 1017 H 90.8683 -1.82791 -1.81508 0
M  V30 1018 H 90.8263 -0.645922 -3.07693 0
M  V30 1019 N 94.5984 0.214957 -1.56127 0
M  V30 1020 C 95.8444 0.939762 -1.79712 0
M  V30 1021 C 96.1774 1.83723 -0.629247 0
M  V30 1022 O 95.4524 1.90925 0.371197 0
M  V30 1023 C 95.7354 1.77306 -3.13424 0
M  V30 1024 C 95.5884 0.90164 -4.40671 0
M  V30 1025 C 96.9074 2.74956 -3.43638 0
M  V30 1026 H 94.0264 0.340214 -0.653776 0
M  V30 1027 H 96.6684 0.20824 -1.88855 0
M  V30 1028 H 94.8184 2.39673 -3.0576 0
M  V30 1029 H 96.4904 0.294206 -4.60361 0
M  V30 1030 H 94.7334 0.207368 -4.33304 0
M  V30 1031 H 95.4044 1.51923 -5.30682 0
M  V30 1032 H 97.8804 2.22724 -3.51473 0
M  V30 1033 H 96.7564 3.30358 -4.38355 0
M  V30 1034 H 97.0174 3.53023 -2.66134 0
M  V30 1035 N 96.0765 1.50051 0.48192 0
M  V30 1036 C 97.3225 1.61706 1.2338 0
M  V30 1037 C 97.6775 0.308488 1.89911 0
M  V30 1038 O 96.9705 -0.692798 1.78636 0
M  V30 1039 C 97.1645 2.72717 2.30998 0
M  V30 1040 C 96.9935 4.14242 1.75024 0
M  V30 1041 C 95.7635 4.80786 1.55476 0
M  V30 1042 C 97.9615 4.98846 1.25128 0
M  V30 1043 N 95.9435 6.06563 0.946311 0
M  V30 1044 C 97.3145 6.15258 0.765382 0
M  V30 1045 C 99.3695 4.84702 1.13881 0
M  V30 1046 C 98.0725 7.19079 0.178113 0
M  V30 1047 C 100.098 5.8869 0.565486 0
M  V30 1048 C 99.4605 7.04343 0.0899105 0
M  V30 1049 H 95.5595 0.645958 0.440753 0
M  V30 1050 H 98.1435 1.8713 0.537624 0
M  V30 1051 H 96.3145 2.49033 2.98055 0
M  V30 1052 H 98.0465 2.73789 2.9803 0
M  V30 1053 H 94.8015 4.37899 1.80392 0
M  V30 1054 H 95.2255 6.73767 0.660812 0
M  V30 1055 H 99.8675 3.95583 1.49244 0
M  V30 1056 H 97.5855 8.07882 -0.187749 0
M  V30 1057 H 101.171 5.79808 0.480974 0
M  V30 1058 H 100.051 7.83433 -0.346782 0
M  V30 1059 N 97.5546 -0.734337 1.39446 0
M  V30 1060 C 98.8316 -1.48579 1.27215 0
M  V30 1061 C 99.2116 -2.1077 -0.117968 0
M  V30 1062 O 98.5596 -1.98646 -1.12924 0
M  V30 1063 C 98.7696 -2.53667 2.39696 0
M  V30 1064 C 100.118 -3.20031 2.79044 0
M  V30 1065 O 101.142 -2.6398 2.39151 0
M  V30 1066 O 100.001 -4.21455 3.47905 0
M  V30 1067 H 97.0946 -0.659816 0.49857 0
M  V30 1068 H 99.6406 -0.768106 1.51322 0
M  V30 1069 H 98.4126 -2.06096 3.32626 0
M  V30 1070 H 98.0356 -3.32994 2.17258 0
M  V30 1071 N 99.0327 -1.24633 -0.964593 0
M  V30 1072 C 100.282 -1.08188 -1.7023 0
M  V30 1073 C 100.595 0.37873 -1.91898 0
M  V30 1074 O 101.801 0.663427 -2.6327 0
M  V30 1075 C 100.257 -1.88773 -3.06419 0
M  V30 1076 C 99.8647 -3.39263 -2.92582 0
M  V30 1077 C 101.609 -1.80867 -3.84041 0
M  V30 1078 C 99.5157 -4.1218 -4.24101 0
M  V30 1079 H 98.4457 -0.401245 -0.638372 0
M  V30 1080 H 101.097 -1.48742 -1.07462 0
M  V30 1081 H 99.4787 -1.41035 -3.70034 0
M  V30 1082 H 100.653 -3.94603 -2.37961 0
M  V30 1083 H 98.9677 -3.48154 -2.28424 0
M  V30 1084 H 101.565 -2.32646 -4.81435 0
M  V30 1085 H 101.908 -0.774543 -4.09031 0
M  V30 1086 H 102.441 -2.26301 -3.27159 0
M  V30 1087 H 99.1797 -5.15965 -4.04303 0
M  V30 1088 H 98.6997 -3.61626 -4.78526 0
M  V30 1089 H 100.379 -4.19349 -4.92702 0
M  V30 1090 N 100.511 1.16574 -1.06058 0
M  V30 1091 C 101.759 1.86677 -0.77434 0
M  V30 1092 C 102.08 1.81959 0.701147 0
M  V30 1093 O 101.35 1.2515 1.50713 0
M  V30 1094 H 99.9298 0.691134 -0.283449 0
M  V30 1095 H 102.592 1.41378 -1.34158 0
M  V30 1096 H 101.688 2.92181 -1.09711 0
M  V30 1097 N 101.989 0.842826 1.3317 0
M  V30 1098 C 103.237 0.439577 1.97262 0
M  V30 1099 C 103.558 -1.00548 1.67078 0
M  V30 1100 O 102.828 -1.70098 0.971779 0
M  V30 1101 H 101.408 0.159558 0.72976 0
M  V30 1102 H 104.07 1.07665 1.62463 0
M  V30 1103 H 103.166 0.574886 3.0676 0
M  V30 1104 N 103.467 -1.45747 0.599634 0
M  V30 1105 C 104.399 -2.28628 -0.161879 0
M  V30 1106 C 105.412 -1.39494 -0.839367 0
M  V30 1107 O 106.601 -1.63941 -0.706089 0
M  V30 1108 C 103.701 -3.15014 -1.24976 0
M  V30 1109 C 102.874 -4.32378 -0.660935 0
M  V30 1110 C 101.933 -5.00033 -1.63869 0
M  V30 1111 O 100.959 -5.57085 -1.1681 0
M  V30 1112 N 102.161 -4.98589 -2.97303 0
M  V30 1113 H 104.926 -2.94624 0.549265 0
M  V30 1114 H 102.487 -1.55847 0.438565 0
M  V30 1115 H 104.479 -3.5714 -1.9035 0
M  V30 1116 H 103.049 -2.5098 -1.86354 0
M  V30 1117 H 102.269 -3.9383 0.170688 0
M  V30 1118 H 103.557 -5.08197 -0.247619 0
M  V30 1119 H 102.955 -4.53514 -3.38145 0
M  V30 1120 H 101.512 -5.44603 -3.58121 0
M  V30 1121 N 104.945 -0.338344 -1.53925 0
M  V30 1122 C 106.361 0.0137736 -1.59594 0
M  V30 1123 C 106.561 1.49186 -1.35447 0
M  V30 1124 O 105.617 2.24987 -1.14616 0
M  V30 1125 C 106.93 -0.41773 -2.97784 0
M  V30 1126 C 108.478 -0.369633 -3.1081 0
M  V30 1127 C 108.953 -0.776524 -4.51369 0
M  V30 1128 N 110.444 -0.730506 -4.57403 0
M  V30 1129 C 111.179 -1.01736 -5.64303 0
M  V30 1130 N 110.675 -1.3721 -6.79077 0
M  V30 1131 N 112.468 -0.941942 -5.54151 0
M  V30 1132 H 104.619 -1.3012 -1.67876 0
M  V30 1133 H 106.882 -0.530082 -0.78595 0
M  V30 1134 H 106.588 -1.44811 -3.20504 0
M  V30 1135 H 106.462 0.209729 -3.76616 0
M  V30 1136 H 108.849 0.651568 -2.87817 0
M  V30 1137 H 108.93 -1.03223 -2.34049 0
M  V30 1138 H 108.574 -1.79571 -4.75096 0
M  V30 1139 H 108.504 -0.0914649 -5.26521 0
M  V30 1140 H 110.995 -0.468783 -3.74981 0
M  V30 1141 H 111.308 -1.57597 -7.5656 0
M  V30 1142 H 109.653 -1.4105 -6.80536 0
M  V30 1143 H 112.844 -0.664184 -4.63364 0
M  V30 1144 H 113.017 -1.16884 -6.37371 0
M  V30 1145 N 106.423 1.57458 -0.0668435 0
M  V30 1146 C 107.37 2.12439 0.902122 0
M  V30 1147 C 108.34 1.03565 1.2986 0
M  V30 1148 O 109.525 1.312 1.38532 0
M  V30 1149 C 106.665 2.6865 2.16614 0
M  V30 1150 C 105.778 3.91663 1.82274 0
M  V30 1151 C 104.913 4.36134 3.0325 0
M  V30 1152 C 103.952 5.51808 2.64904 0
M  V30 1153 N 103.089 5.9126 3.78624 0
M  V30 1154 H 107.929 2.94934 0.426382 0
M  V30 1155 H 105.466 1.4575 0.198819 0
M  V30 1156 H 107.424 2.99346 2.90599 0
M  V30 1157 H 106.054 1.88928 2.61737 0
M  V30 1158 H 105.106 3.6746 0.983719 0
M  V30 1159 H 106.418 4.75693 1.50059 0
M  V30 1160 H 105.572 4.68465 3.85519 0
M  V30 1161 H 104.311 3.50948 3.38655 0
M  V30 1162 H 103.316 5.19133 1.81055 0
M  V30 1163 H 104.541 6.38722 2.30675 0
M  V30 1164 H 102.487 5.09024 4.138 0
M  V30 1165 H 102.404 6.70018 3.5016 0
M  V30 1166 H 103.672 6.28212 4.61486 0
M  V30 1167 N 107.901 -0.206675 1.56239 0
M  V30 1168 C 109.15 -0.926964 1.79138 0
M  V30 1169 C 109.463 -1.84901 0.638043 0
M  V30 1170 O 110.669 -2.60906 0.751033 0
M  V30 1171 C 109.125 -1.6986 3.17294 0
M  V30 1172 C 108.733 -0.821956 4.40395 0
M  V30 1173 C 110.477 -2.40922 3.4951 0
M  V30 1174 C 108.384 -1.59179 5.69575 0
M  V30 1175 H 107.314 -0.349864 0.667915 0
M  V30 1176 H 109.965 -0.180487 1.8261 0
M  V30 1177 H 108.347 -2.48853 3.08039 0
M  V30 1178 H 109.521 -0.0715019 4.60745 0
M  V30 1179 H 107.836 -0.222741 4.15804 0
M  V30 1180 H 110.433 -2.99047 4.43255 0
M  V30 1181 H 110.776 -3.14542 2.72707 0
M  V30 1182 H 111.309 -1.68905 3.60161 0
M  V30 1183 H 108.048 -0.898589 6.49312 0
M  V30 1184 H 107.568 -2.31648 5.53262 0
M  V30 1185 H 109.247 -2.14862 6.10281 0
M  V30 1186 N 109.379 -1.50304 -0.473955 0
M  V30 1187 C 110.795 -1.37667 -0.807466 0
M  V30 1188 C 110.995 -0.430555 -1.96846 0
M  V30 1189 O 110.051 0.127874 -2.52176 0
M  V30 1190 C 111.364 -2.78974 -1.12223 0
M  V30 1191 C 112.912 -2.87868 -1.22885 0
M  V30 1192 C 113.387 -4.30003 -1.57676 0
M  V30 1193 N 114.878 -4.3294 -1.64673 0
M  V30 1194 C 115.613 -5.3991 -1.93091 0
M  V30 1195 N 115.109 -6.57092 -2.1955 0
M  V30 1196 N 116.902 -5.27351 -1.94569 0
M  V30 1197 H 109.053 -2.10394 0.291212 0
M  V30 1198 H 111.316 -0.945575 0.0677609 0
M  V30 1199 H 111.022 -3.50031 -0.342229 0
M  V30 1200 H 110.896 -3.16038 -2.05913 0
M  V30 1201 H 113.283 -2.17032 -1.99953 0
M  V30 1202 H 113.364 -2.54352 -0.271814 0
M  V30 1203 H 113.008 -5.01375 -0.81149 0
M  V30 1204 H 112.938 -4.61004 -2.54525 0
M  V30 1205 H 115.429 -3.48441 -1.46277 0
M  V30 1206 H 115.742 -7.34425 -2.405 0
M  V30 1207 H 114.087 -6.60272 -2.16948 0
M  V30 1208 H 117.278 -4.34801 -1.73394 0
M  V30 1209 H 117.451 -6.10805 -2.16381 0
M  V30 1210 N 110.857 0.726932 -1.39834 0
M  V30 1211 C 112.268 1.30558 -1.3346 0
M  V30 1212 C 112.619 1.962 -0.00273003 0
M  V30 1213 O 111.744 1.96826 0.899371 0
M  V30 1214 C 112.339 2.37404 -2.41713 0
M  V30 1215 C 110.898 2.90921 -2.38835 0
M  V30 1216 C 110.045 1.64578 -2.2318 0
M  V30 1217 H 112.996 0.523862 -1.49804 0
M  V30 1218 H 113.017 3.17984 -2.08966 0
M  V30 1219 H 112.529 1.89599 -3.38635 0
M  V30 1220 H 110.63 3.42985 -1.45575 0
M  V30 1221 H 110.743 3.43487 -3.33997 0
M  V30 1222 H 109.107 1.89219 -1.70494 0
M  V30 1223 H 109.89 1.18814 -3.22084 0
M  V30 1224 N 112.336 1.25143 0.95797 0
M  V30 1225 C 113.566 1.12261 1.73439 0
M  V30 1226 C 113.974 -0.326715 1.86358 0
M  V30 1227 O 113.317 -1.2367 1.35836 0
M  V30 1228 C 113.379 1.69966 3.16784 0
M  V30 1229 C 113.043 3.18936 3.27305 0
M  V30 1230 C 114.04 4.15968 3.11877 0
M  V30 1231 C 111.725 3.59083 3.51234 0
M  V30 1232 C 113.719 5.51126 3.20217 0
M  V30 1233 C 111.406 4.9438 3.5921 0
M  V30 1234 C 112.404 5.90211 3.43716 0
M  V30 1235 O 112.092 7.23046 3.51368 0
M  V30 1236 H 111.824 0.392476 0.550399 0
M  V30 1237 H 114.378 1.65927 1.21068 0
M  V30 1238 H 112.608 1.10744 3.70503 0
M  V30 1239 H 114.297 1.52232 3.76272 0
M  V30 1240 H 115.063 3.86292 2.93264 0
M  V30 1241 H 110.942 2.84989 3.62356 0
M  V30 1242 H 114.486 6.25905 3.0804 0
M  V30 1243 H 110.383 5.23723 3.77339 0
M  V30 1244 H 111.151 7.31097 3.6802 0
M  V30 1245 N 113.814 -1.1601 1.06675 0
M  V30 1246 C 115.06 -1.87145 0.796766 0
M  V30 1247 C 115.415 -1.8037 -0.669658 0
M  V30 1248 O 114.708 -1.21116 -1.48463 0
M  V30 1249 C 114.902 -3.35547 1.23057 0
M  V30 1250 C 114.731 -3.56769 2.73762 0
M  V30 1251 C 113.501 -3.72635 3.41279 0
M  V30 1252 C 115.699 -3.55166 3.7197 0
M  V30 1253 N 113.681 -3.81845 4.80695 0
M  V30 1254 C 115.052 -3.70406 4.97191 0
M  V30 1255 C 117.107 -3.384 3.65226 0
M  V30 1256 C 115.81 -3.70615 6.16471 0
M  V30 1257 C 117.836 -3.39904 4.83962 0
M  V30 1258 C 117.198 -3.55667 6.08013 0
M  V30 1259 H 113.297 -0.702267 0.344014 0
M  V30 1260 H 115.881 -1.39165 1.36166 0
M  V30 1261 H 114.052 -3.82159 0.693456 0
M  V30 1262 H 115.784 -3.94363 0.908844 0
M  V30 1263 H 112.539 -3.73121 2.91681 0
M  V30 1264 H 112.963 -3.90209 5.53232 0
M  V30 1265 H 117.605 -3.25138 2.70269 0
M  V30 1266 H 115.323 -3.82658 7.11757 0
M  V30 1267 H 118.909 -3.28169 4.80413 0
M  V30 1268 H 117.789 -3.56755 6.98352 0
M  V30 1269 N 115.292 -0.849877 -1.32721 0
M  V30 1270 C 116.239 -0.289033 -2.28983 0
M  V30 1271 C 117.209 0.601324 -1.54833 0
M  V30 1272 O 118.394 0.537253 -1.8308 0
M  V30 1273 C 115.534 0.520623 -3.4115 0
M  V30 1274 C 114.647 -0.394989 -4.3019 0
M  V30 1275 C 113.782 0.426834 -5.29482 0
M  V30 1276 C 112.821 -0.486476 -6.10164 0
M  V30 1277 N 111.958 0.297879 -7.01468 0
M  V30 1278 H 116.798 -1.11519 -2.76347 0
M  V30 1279 H 114.335 -0.56138 -1.35967 0
M  V30 1280 H 116.293 1.00563 -4.04899 0
M  V30 1281 H 114.923 1.31165 -2.9495 0
M  V30 1282 H 113.975 -0.99836 -3.67065 0
M  V30 1283 H 115.287 -1.09612 -4.86607 0
M  V30 1284 H 114.441 0.975205 -5.98811 0
M  V30 1285 H 113.18 1.16136 -4.73671 0
M  V30 1286 H 112.185 -1.04677 -5.39743 0
M  V30 1287 H 113.41 -1.21953 -6.6806 0
M  V30 1288 H 111.356 1.01558 -6.48091 0
M  V30 1289 H 111.273 -0.344318 -7.55216 0
M  V30 1290 H 112.541 0.828131 -7.75089 0
M  V30 1291 N 116.77 1.45427 -0.607355 0
M  V30 1292 C 117.718 2.32269 0.12411 0
M  V30 1293 C 118.712 1.45955 0.859854 0
M  V30 1294 O 119.918 1.6244 0.775447 0
M  V30 1295 H 116.293 0.749691 0.0588839 0
M  V30 1296 H 118.264 2.91743 -0.626762 0
M  V30 1297 C 117.013 3.29567 1.1082 0
M  V30 1298 H 116.336 3.95978 0.551492 0
M  V30 1299 H 117.776 3.93061 1.58995 0
M  V30 1300 C 116.235 2.56722 2.18164 0
M  V30 1301 O 116.765 2.34842 3.25902 0
M  V30 1302 N 114.971 2.16861 1.93442 0
M  V30 1303 H 114.518 2.34855 1.05834 0
M  V30 1304 H 114.476 1.68444 2.65469 0
M  V30 1305 N 118.248 0.346503 1.53744 0
M  V30 1306 C 119.478 -0.250047 2.05081 0
M  V30 1307 C 119.886 -1.44529 1.22098 0
M  V30 1308 O 119.229 -1.81992 0.249917 0
M  V30 1309 C 119.291 -0.725934 3.52094 0
M  V30 1310 C 118.955 0.350053 4.55657 0
M  V30 1311 C 119.952 1.19372 5.0601 0
M  V30 1312 C 117.637 0.504827 4.99757 0
M  V30 1313 C 119.631 2.17768 5.99046 0
M  V30 1314 C 117.318 1.49218 5.92602 0
M  V30 1315 C 118.316 2.32706 6.42135 0
M  V30 1316 O 118.004 3.2976 7.33153 0
M  V30 1317 H 117.736 -0.0515469 0.674032 0
M  V30 1318 H 120.29 0.497559 1.99282 0
M  V30 1319 H 118.52 -1.52483 3.55367 0
M  V30 1320 H 120.209 -1.24336 3.86388 0
M  V30 1321 H 120.975 1.08525 4.72702 0
M  V30 1322 H 116.854 -0.135178 4.60802 0
M  V30 1323 H 120.398 2.82971 6.37631 0
M  V30 1324 H 116.295 1.6012 6.25325 0
M  V30 1325 H 117.063 3.25265 7.51096 0
M  V30 1326 N 119.726 -1.57421 0.075193 0
M  V30 1327 C 120.973 -1.93618 -0.593146 0
M  V30 1328 C 121.301 -0.955484 -1.69413 0
M  V30 1329 O 120.556 0.0283251 -1.9568 0
M  V30 1330 C 120.855 -3.36428 -1.20626 0
M  V30 1331 C 120.521 -4.50307 -0.231078 0
M  V30 1332 C 119.183 -4.81186 0.0371936 0
M  V30 1333 C 121.535 -5.19374 0.435888 0
M  V30 1334 C 118.863 -5.78466 0.979461 0
M  V30 1335 C 121.215 -6.17665 1.3665 0
M  V30 1336 C 119.879 -6.46958 1.6432 0
M  V30 1337 H 119.149 -0.708499 -0.217047 0
M  V30 1338 H 121.796 -1.90937 0.146793 0
M  V30 1339 H 120.101 -3.35592 -2.02201 0
M  V30 1340 H 121.798 -3.61727 -1.73073 0
M  V30 1341 H 118.388 -4.26227 -0.450357 0
M  V30 1342 H 122.572 -4.95711 0.241748 0
M  V30 1343 H 117.828 -5.99487 1.20106 0
M  V30 1344 H 122.002 -6.70284 1.88924 0
M  V30 1345 H 119.629 -7.2215 2.37494 0
M  V30 1346 N 121.204 0.198386 -1.56346 0
M  V30 1347 C 122.114 1.2664 -1.97483 0
M  V30 1348 C 123.13 1.49989 -0.882002 0
M  V30 1349 O 124.306 1.62668 -1.18748 0
M  V30 1350 C 121.371 2.59141 -2.30319 0
M  V30 1351 C 120.432 2.43892 -3.53292 0
M  V30 1352 C 119.665 3.70074 -3.84553 0
M  V30 1353 O 119.888 4.74101 -3.1715 0
M  V30 1354 O 118.822 3.658 -4.7799 0
M  V30 1355 H 122.648 0.947304 -2.88548 0
M  V30 1356 H 120.233 0.403123 -1.43859 0
M  V30 1357 H 122.115 3.37352 -2.5253 0
M  V30 1358 H 120.79 2.90684 -1.42423 0
M  V30 1359 H 119.697 1.63803 -3.36332 0
M  V30 1360 H 121.03 2.17282 -4.41644 0
M  V30 1361 N 122.682 1.50554 0.465978 0
M  V30 1362 C 123.63 1.70324 1.58406 0
M  V30 1363 C 124.624 0.569139 1.59553 0
M  V30 1364 O 125.83 0.749776 1.63641 0
M  V30 1365 H 122.205 0.537688 0.525734 0
M  V30 1366 H 124.176 2.64104 1.38894 0
M  V30 1367 C 122.925 1.81928 2.96307 0
M  V30 1368 H 122.248 2.68586 2.96144 0
M  V30 1369 H 123.688 1.99784 3.73982 0
M  V30 1370 C 122.147 0.572095 3.32007 0
M  V30 1371 O 122.677 -0.286416 4.00678 0
M  V30 1372 N 120.883 0.424606 2.87481 0
M  V30 1373 H 120.43 1.12427 2.31771 0
M  V30 1374 H 120.388 -0.408697 3.11732 0
M  V30 1375 N 124.16 -0.719506 1.40217 0
M  V30 1376 C 125.388 -1.50864 1.41589 0
M  V30 1377 C 125.803 -1.88794 0.0145275 0
M  V30 1378 O 125.16 -1.55174 -0.960594 0
M  V30 1379 C 125.211 -2.78646 2.30302 0
M  V30 1380 O 124.932 -2.42321 3.64983 0
M  V30 1381 C 126.433 -3.72569 2.40224 0
M  V30 1382 H 123.653 -0.465709 0.48307 0
M  V30 1383 H 126.197 -0.88785 1.84221 0
M  V30 1384 H 124.352 -3.37019 1.91042 0
M  V30 1385 H 124.766 -3.24514 4.12057 0
M  V30 1386 H 126.24 -4.5908 3.06512 0
M  V30 1387 H 126.717 -4.15403 1.42608 0
M  V30 1388 H 127.323 -3.20109 2.80019 0
M  V30 1389 N 125.638 -1.25649 -0.95132 0
M  V30 1390 C 126.915 -1.01361 -1.67288 0
M  V30 1391 C 127.295 0.459135 -2.06046 0
M  V30 1392 O 126.643 1.43723 -1.7764 0
M  V30 1393 C 126.853 -1.95256 -2.89268 0
M  V30 1394 C 128.201 -2.23289 -3.61147 0
M  V30 1395 O 129.225 -1.93041 -2.99355 0
M  V30 1396 O 128.084 -2.74741 -4.72419 0
M  V30 1397 H 125.178 -0.38464 -0.732107 0
M  V30 1398 H 127.724 -1.36817 -1.00395 0
M  V30 1399 H 126.496 -2.94685 -2.57442 0
M  V30 1400 H 126.119 -1.60218 -3.6389 0
M  V30 1401 N 127.117 1.15442 -1.07289 0
M  V30 1402 C 128.366 1.85557 -0.790669 0
M  V30 1403 C 128.679 1.83186 0.685739 0
M  V30 1404 O 129.885 2.48977 1.0827 0
M  V30 1405 C 128.341 3.33038 -1.36433 0
M  V30 1406 C 127.949 3.43856 -2.8717 0
M  V30 1407 C 129.693 4.0834 -1.1601 0
M  V30 1408 C 127.6 4.85482 -3.3773 0
M  V30 1409 H 126.53 0.695122 -0.292098 0
M  V30 1410 H 129.181 1.30219 -1.29287 0
M  V30 1411 H 127.563 3.88043 -0.789864 0
M  V30 1412 H 128.737 2.98961 -3.50655 0
M  V30 1413 H 127.052 2.81998 -3.06376 0
M  V30 1414 H 129.649 5.12859 -1.51262 0
M  V30 1415 H 129.992 4.16182 -0.0991007 0
M  V30 1416 H 130.525 3.59603 -1.70089 0
M  V30 1417 H 127.264 4.82823 -4.43353 0
M  V30 1418 H 126.784 5.30961 -2.78999 0
M  V30 1419 H 128.463 5.54335 -3.33648 0
M  V30 1420 N 128.595 0.856903 1.32268 0
M  V30 1421 C 129.525 0.31858 2.31316 0
M  V30 1422 C 130.506 -0.583487 1.59779 0
M  V30 1423 O 131.691 -0.503259 1.87566 0
M  V30 1424 C 128.821 -0.491979 3.43798 0
M  V30 1425 C 127.775 0.315849 4.26833 0
M  V30 1426 C 127.101 -0.619586 5.31098 0
M  V30 1427 C 128.401 1.54282 4.98993 0
M  V30 1428 H 130.095 1.14621 2.76591 0
M  V30 1429 H 127.641 0.552613 1.32974 0
M  V30 1430 H 129.594 -0.879012 4.1213 0
M  V30 1431 H 128.318 -1.35299 2.97257 0
M  V30 1432 H 126.977 0.684664 3.6015 0
M  V30 1433 H 126.625 -1.47751 4.8081 0
M  V30 1434 H 126.325 -0.0830621 5.87541 0
M  V30 1435 H 127.849 -1.00375 6.02293 0
M  V30 1436 H 129.263 1.22796 5.59995 0
M  V30 1437 H 127.66 2.01745 5.65172 0
M  V30 1438 H 128.73 2.30285 4.26728 0
M  V30 1439 N 130.073 -1.45103 0.615059 0
M  V30 1440 C 131.322 -2.01396 0.110718 0
M  V30 1441 C 131.635 -1.48834 -1.26916 0
M  V30 1442 O 132.841 -1.97152 -1.86664 0
M  V30 1443 C 131.297 -3.59599 0.14723 0
M  V30 1444 C 130.905 -4.21158 1.52743 0
M  V30 1445 C 132.649 -4.23428 -0.30148 0
M  V30 1446 C 130.556 -5.71535 1.51992 0
M  V30 1447 H 129.486 -0.753061 0.0376241 0
M  V30 1448 H 132.137 -1.66494 0.77149 0
M  V30 1449 H 130.519 -3.91724 -0.580339 0
M  V30 1450 H 131.693 -4.00594 2.2773 0
M  V30 1451 H 130.008 -3.69552 1.91886 0
M  V30 1452 H 132.605 -5.33703 -0.326392 0
M  V30 1453 H 132.948 -3.94629 -1.32565 0
M  V30 1454 H 133.481 -3.96047 0.373065 0
M  V30 1455 H 130.22 -6.05044 2.52193 0
M  V30 1456 H 129.74 -5.94268 0.81274 0
M  V30 1457 H 131.419 -6.34873 1.24681 0
M  V30 1458 N 131.551 -0.354651 -1.53558 0
M  V30 1459 C 132.781 0.239167 -2.05211 0
M  V30 1460 C 133.189 1.43879 -1.22863 0
M  V30 1461 O 132.532 1.81857 -0.259565 0
M  V30 1462 C 132.594 0.707251 -3.52474 0
M  V30 1463 C 132.258 -0.374212 -4.55465 0
M  V30 1464 C 133.255 -1.22054 -5.0537 0
M  V30 1465 C 130.94 -0.531323 -4.99482 0
M  V30 1466 C 132.934 -2.20942 -5.97882 0
M  V30 1467 C 130.621 -1.52358 -5.91802 0
M  V30 1468 C 131.619 -2.36108 -6.40892 0
M  V30 1469 O 131.307 -3.33643 -7.31394 0
M  V30 1470 H 131.039 0.0479716 -0.674296 0
M  V30 1471 H 133.593 -0.508121 -1.99016 0
M  V30 1472 H 131.823 1.50596 -3.56171 0
M  V30 1473 H 133.512 1.22285 -3.87042 0
M  V30 1474 H 134.278 -1.1103 -4.7212 0
M  V30 1475 H 130.157 0.110738 -4.60867 0
M  V30 1476 H 133.701 -2.86348 -6.36121 0
M  V30 1477 H 129.598 -1.63434 -6.24467 0
M  V30 1478 H 130.366 -3.29244 -7.4936 0
M  V30 1479 N 133.029 1.57378 -0.0835403 0
M  V30 1480 C 134.275 1.94217 0.583733 0
M  V30 1481 C 134.608 0.964653 1.68547 0
M  V30 1482 O 133.883 -0.00422258 1.945 0
M  V30 1483 C 134.166 3.41253 1.14972 0
M  V30 1484 C 134.019 4.49768 0.0538277 0
M  V30 1485 C 135.338 3.89352 2.05166 0
M  V30 1486 H 132.457 0.706233 0.210724 0
M  V30 1487 H 135.099 1.89392 -0.1519 0
M  V30 1488 H 133.249 3.45496 1.77665 0
M  V30 1489 H 134.921 4.57641 -0.579851 0
M  V30 1490 H 133.164 4.29432 -0.614068 0
M  V30 1491 H 133.835 5.49817 0.490452 0
M  V30 1492 H 136.311 3.87189 1.52393 0
M  V30 1493 H 135.187 4.92822 2.41698 0
M  V30 1494 H 135.448 3.27973 2.96456 0
M  V30 1495 N 134.507 -0.190092 1.56449 0
M  V30 1496 C 135.756 -0.907912 1.80111 0
M  V30 1497 C 136.069 -1.84214 0.657619 0
M  V30 1498 O 137.275 -2.60094 0.778663 0
M  V30 1499 C 135.731 -1.66485 3.19078 0
M  V30 1500 C 135.339 -0.7752 4.41242 0
M  V30 1501 C 137.083 -2.37201 3.52045 0
M  V30 1502 C 134.99 -1.53129 5.71231 0
M  V30 1503 H 133.92 -0.34276 0.671589 0
M  V30 1504 H 136.571 -0.161109 1.82791 0
M  V30 1505 H 134.953 -2.45572 3.10661 0
M  V30 1506 H 136.127 -0.0226298 4.60794 0
M  V30 1507 H 134.442 -0.178627 4.16017 0
M  V30 1508 H 137.039 -2.94329 4.46402 0
M  V30 1509 H 137.382 -3.11632 2.76028 0
M  V30 1510 H 137.915 -1.65075 3.61932 0
M  V30 1511 H 134.654 -0.82967 6.50228 0
M  V30 1512 H 134.174 -2.25767 5.55688 0
M  V30 1513 H 135.853 -2.08377 6.12526 0
M  V30 1514 N 135.985 -1.50799 -0.457987 0
M  V30 1515 C 137.262 -1.52968 -1.21902 0
M  V30 1516 C 137.642 -0.281906 -2.09209 0
M  V30 1517 O 136.99 0.734076 -2.16388 0
M  V30 1518 C 137.2 -2.8326 -2.03875 0
M  V30 1519 C 138.548 -3.34425 -2.6162 0
M  V30 1520 O 139.572 -2.8467 -2.14106 0
M  V30 1521 O 138.431 -4.21188 -3.48228 0
M  V30 1522 H 135.525 -0.614129 -0.553873 0
M  V30 1523 H 138.071 -1.63098 -0.468739 0
M  V30 1524 H 136.843 -3.65543 -1.39621 0
M  V30 1525 H 136.466 -2.76195 -2.8601 0
M  V30 1526 N 137.463 0.71206 -1.40597 0
M  V30 1527 C 138.688 1.50617 -1.42581 0
M  V30 1528 C 139.113 1.88079 -0.0282102 0
M  V30 1529 O 138.471 1.53511 0.964579 0
M  V30 1530 C 138.519 2.7557 -2.3258 0
M  V30 1531 O 137.623 3.72414 -1.77148 0
M  V30 1532 H 136.964 0.453966 -0.484573 0
M  V30 1533 H 139.494 0.876649 -1.84868 0
M  V30 1534 H 139.504 3.2406 -2.47889 0
M  V30 1535 H 138.179 2.47639 -3.34138 0
M  V30 1536 H 136.756 3.31276 -1.71204 0
M  V30 1537 N 138.941 1.26152 0.944643 0
M  V30 1538 C 139.904 1.07474 2.0244 0
M  V30 1539 C 140.904 0.0242064 1.60782 0
M  V30 1540 O 142.094 0.267302 1.72137 0
M  V30 1541 C 139.226 0.633956 3.34953 0
M  V30 1542 H 140.419 2.03336 2.20442 0
M  V30 1543 H 137.972 1.087 1.12312 0
M  V30 1544 H 138.707 -0.326811 3.22649 0
M  V30 1545 H 138.492 1.39247 3.66542 0
M  V30 1546 H 139.982 0.52501 4.14287 0
M  V30 1547 N 140.419 -1.14872 1.07899 0
M  V30 1548 C 141.696 -1.81928 0.71845 0
M  V30 1549 C 142.076 -1.95417 -0.798455 0
M  V30 1550 O 141.424 -1.50997 -1.715 0
M  V30 1551 C 141.634 -3.17937 1.43935 0
M  V30 1552 C 142.982 -3.93501 1.59506 0
M  V30 1553 O 144.006 -3.27509 1.40058 0
M  V30 1554 O 142.865 -5.1183 1.91551 0
M  V30 1555 H 139.959 -0.78628 0.256305 0
M  V30 1556 H 142.505 -1.21934 1.18026 0
M  V30 1557 H 141.277 -3.0325 2.47295 0
M  V30 1558 H 140.9 -3.85619 0.968687 0
M  V30 1559 N 141.898 -0.863906 -1.31812 0
M  V30 1560 C 143.314 -0.555004 -1.49639 0
M  V30 1561 C 143.514 0.912266 -1.79666 0
M  V30 1562 O 142.57 1.69479 -1.87171 0
M  V30 1563 C 143.883 -1.44998 -2.63431 0
M  V30 1564 C 145.431 -1.45138 -2.77316 0
M  V30 1565 C 145.906 -2.33179 -3.94197 0
M  V30 1566 N 147.397 -2.31025 -4.01474 0
M  V30 1567 C 148.132 -2.95871 -4.9117 0
M  V30 1568 N 147.628 -3.69863 -5.8581 0
M  V30 1569 N 149.421 -2.85211 -4.84367 0
M  V30 1570 H 141.572 -1.81339 -1.10589 0
M  V30 1571 H 143.835 -0.77505 -0.545895 0
M  V30 1572 H 143.541 -2.49377 -2.48 0
M  V30 1573 H 143.415 -1.14409 -3.59431 0
M  V30 1574 H 145.802 -0.415201 -2.92164 0
M  V30 1575 H 145.883 -1.79747 -1.82001 0
M  V30 1576 H 145.527 -3.3687 -3.80107 0
M  V30 1577 H 145.457 -1.95897 -4.88807 0
M  V30 1578 H 147.948 -1.77238 -3.33759 0
M  V30 1579 H 148.261 -4.16486 -6.50968 0
M  V30 1580 H 146.606 -3.73971 -5.85808 0
M  V30 1581 H 149.797 -2.26948 -4.09405 0
M  V30 1582 H 149.97 -3.36027 -5.54066 0
M  V30 1583 N 143.376 1.44774 -0.622745 0
M  V30 1584 C 144.323 2.30635 0.0871679 0
M  V30 1585 C 145.293 1.42994 0.845097 0
M  V30 1586 O 146.478 1.71907 0.827812 0
M  V30 1587 C 143.618 3.28144 1.06844 0
M  V30 1588 C 142.731 4.30888 0.309809 0
M  V30 1589 C 141.866 5.15494 1.28215 0
M  V30 1590 C 140.905 6.09953 0.512198 0
M  V30 1591 N 140.042 6.87287 1.43458 0
M  V30 1592 H 144.882 2.90803 -0.650974 0
M  V30 1593 H 142.419 1.43286 -0.33281 0
M  V30 1594 H 144.377 3.83157 1.65066 0
M  V30 1595 H 143.007 2.69695 1.77382 0
M  V30 1596 H 142.059 3.78414 -0.388181 0
M  V30 1597 H 143.371 4.97955 -0.290254 0
M  V30 1598 H 142.525 5.74983 1.93596 0
M  V30 1599 H 141.264 4.48481 1.91614 0
M  V30 1600 H 140.269 5.49581 -0.155151 0
M  V30 1601 H 141.494 6.78999 -0.116958 0
M  V30 1602 H 139.44 6.2295 2.05594 0
M  V30 1603 H 139.357 7.50763 0.888335 0
M  V30 1604 H 140.625 7.51306 2.07749 0
M  V30 1605 N 144.854 0.36279 1.53368 0
M  V30 1606 C 146.27 0.0116182 1.59596 0
M  V30 1607 C 146.47 -1.47012 1.37803 0
M  V30 1608 O 145.526 -2.23136 1.18181 0
M  V30 1609 C 146.839 0.465052 2.97082 0
M  V30 1610 C 148.387 0.419033 3.10182 0
M  V30 1611 C 148.862 0.848235 4.50077 0
M  V30 1612 N 150.353 0.803183 4.56183 0
M  V30 1613 C 151.088 1.107 5.62613 0
M  V30 1614 N 150.584 1.47996 6.76808 0
M  V30 1615 N 152.377 1.02998 5.52583 0
M  V30 1616 H 144.528 1.32775 1.65785 0
M  V30 1617 H 146.791 0.542518 0.777417 0
M  V30 1618 H 146.497 1.49892 3.18159 0
M  V30 1619 H 146.371 -0.149786 3.76902 0
M  V30 1620 H 148.758 -0.605696 2.88817 0
M  V30 1621 H 148.839 1.06933 2.32377 0
M  V30 1622 H 148.483 1.87107 4.7218 0
M  V30 1623 H 148.413 0.175218 5.26308 0
M  V30 1624 H 150.904 0.52838 3.74188 0
M  V30 1625 H 151.217 1.69613 7.53957 0
M  V30 1626 H 149.562 1.51859 6.78206 0
M  V30 1627 H 152.753 0.737817 4.62249 0
M  V30 1628 H 152.926 1.2701 6.35431 0
M  V30 1629 N 146.332 -1.57332 0.0918853 0
M  V30 1630 C 147.579 -1.94236 -0.572577 0
M  V30 1631 C 147.907 -0.973398 -1.6839 0
M  V30 1632 O 147.162 0.00756912 -1.95699 0
M  V30 1633 C 147.461 -3.37689 -1.17051 0
M  V30 1634 C 147.127 -4.50527 -0.183304 0
M  V30 1635 C 145.789 -4.81119 0.0882276 0
M  V30 1636 C 148.141 -5.18883 0.49095 0
M  V30 1637 C 145.469 -5.77395 1.04076 0
M  V30 1638 C 147.821 -6.1618 1.43193 0
M  V30 1639 C 146.485 -6.45179 1.71173 0
M  V30 1640 H 145.755 -0.710762 -0.209521 0
M  V30 1641 H 148.402 -1.9077 0.167036 0
M  V30 1642 H 146.707 -3.37718 -1.9863 0
M  V30 1643 H 148.404 -3.63543 -1.69227 0
M  V30 1644 H 144.994 -4.26681 -0.405124 0
M  V30 1645 H 149.178 -4.95427 0.294312 0
M  V30 1646 H 144.434 -5.98179 1.26457 0
M  V30 1647 H 148.608 -6.68243 1.96023 0
M  V30 1648 H 146.235 -7.1959 2.4514 0
M  V30 1649 N 147.81 0.181792 -1.56548 0
M  V30 1650 C 148.72 1.24538 -1.98815 0
M  V30 1651 C 149.736 1.49045 -0.897861 0
M  V30 1652 O 150.912 1.61399 -1.20467 0
M  V30 1653 C 147.977 2.56683 -2.33055 0
M  V30 1654 C 147.038 2.40131 -3.55859 0
M  V30 1655 C 146.271 3.65975 -3.88456 0
M  V30 1656 O 146.494 4.70711 -3.22161 0
M  V30 1657 O 145.428 3.6071 -4.81842 0
M  V30 1658 H 149.254 0.916647 -2.89536 0
M  V30 1659 H 146.839 0.387842 -1.44278 0
M  V30 1660 H 148.721 3.34655 -2.56094 0
M  V30 1661 H 147.396 2.89157 -1.45498 0
M  V30 1662 H 146.303 1.60226 -3.38051 0
M  V30 1663 H 147.636 2.12585 -4.43924 0
M  V30 1664 N 149.288 1.51039 0.449983 0
M  V30 1665 C 150.198 1.74261 1.57067 0
M  V30 1666 C 151.214 0.626363 1.62335 0
M  V30 1667 O 152.39 0.907162 1.79812 0
M  V30 1668 C 149.455 1.85114 2.93144 0
M  V30 1669 C 148.516 3.0893 2.98095 0
M  V30 1670 C 147.749 3.19256 4.27681 0
M  V30 1671 O 147.972 2.35835 5.19363 0
M  V30 1672 O 146.906 4.12144 4.38658 0
M  V30 1673 H 150.732 2.69303 1.40391 0
M  V30 1674 H 148.317 1.35389 0.631688 0
M  V30 1675 H 150.199 1.94311 3.73926 0
M  V30 1676 H 148.874 0.932588 3.09975 0
M  V30 1677 H 147.781 3.0522 2.16314 0
M  V30 1678 H 149.114 4.00433 2.86206 0
M  V30 1679 N 150.766 -0.704594 1.40972 0
M  V30 1680 C 151.994 -1.49354 1.43182 0
M  V30 1681 C 152.409 -1.88768 0.0345508 0
M  V30 1682 O 151.766 -1.56184 -0.944081 0
M  V30 1683 C 151.817 -2.76187 2.33244 0
M  V30 1684 O 151.538 -2.38436 3.67532 0
M  V30 1685 C 153.039 -3.7 2.44162 0
M  V30 1686 H 150.259 -0.460559 0.487982 0
M  V30 1687 H 152.803 -0.868261 1.85153 0
M  V30 1688 H 150.958 -3.34974 1.94606 0
M  V30 1689 H 151.372 -3.20126 4.15475 0
M  V30 1690 H 152.846 -4.55803 3.11364 0
M  V30 1691 H 153.323 -4.13867 1.47006 0
M  V30 1692 H 153.929 -3.17121 2.83398 0
M  V30 1693 N 152.244 -1.26651 -0.937939 0
M  V30 1694 C 153.492 -1.12165 -1.68118 0
M  V30 1695 C 153.813 0.334983 -1.92101 0
M  V30 1696 O 153.083 1.23583 -1.52 0
M  V30 1697 H 151.663 -0.412093 -0.623048 0
M  V30 1698 H 154.325 -1.59027 -1.12678 0
M  V30 1699 H 153.421 -1.64289 -2.6536 0
M  V30 1700 N 153.722 1.14298 -1.08507 0
M  V30 1701 C 154.654 2.1907 -0.673859 0
M  V30 1702 C 155.667 1.60381 0.279577 0
M  V30 1703 O 156.856 1.78374 0.0670754 0
M  V30 1704 C 153.956 3.38888 0.0290979 0
M  V30 1705 C 153.129 4.27103 -0.943494 0
M  V30 1706 C 152.188 5.25477 -0.275676 0
M  V30 1707 O 151.214 5.61709 -0.920401 0
M  V30 1708 N 152.416 5.7227 0.974013 0
M  V30 1709 H 155.181 2.54965 -1.57521 0
M  V30 1710 H 152.742 1.29528 -0.971287 0
M  V30 1711 H 154.734 4.01761 0.48683 0
M  V30 1712 H 153.304 3.01309 0.832555 0
M  V30 1713 H 152.524 3.61149 -1.58004 0
M  V30 1714 H 153.812 4.82905 -1.60251 0
M  V30 1715 H 153.21 5.44965 1.51755 0
M  V30 1716 H 151.767 6.37127 1.37522 0
M  V30 1717 N 155.201 0.870884 1.31352 0
M  V30 1718 C 156.111 0.330783 2.32256 0
M  V30 1719 C 157.127 -0.559767 1.6475 0
M  V30 1720 O 158.303 -0.456263 1.96164 0
M  V30 1721 C 155.368 -0.458137 3.4366 0
M  V30 1722 C 154.429 0.460482 4.26823 0
M  V30 1723 C 153.662 -0.290881 5.32907 0
M  V30 1724 O 153.885 -1.51885 5.49806 0
M  V30 1725 O 152.819 0.351732 6.00871 0
M  V30 1726 H 156.645 1.16718 2.80376 0
M  V30 1727 H 154.23 0.634285 1.35267 0
M  V30 1728 H 156.112 -0.905343 4.1156 0
M  V30 1729 H 154.787 -1.27106 2.97701 0
M  V30 1730 H 153.694 0.956207 3.61673 0
M  V30 1731 H 155.027 1.23903 4.7635 0
M  V30 1732 N 156.679 -1.44442 0.630414 0
M  V30 1733 C 157.609 -2.33418 -0.0618083 0
M  V30 1734 C 158.59 -1.48165 -0.835541 0
M  V30 1735 O 159.775 -1.76886 -0.801564 0
M  V30 1736 C 156.905 -3.31222 -1.04449 0
M  V30 1737 C 155.859 -4.26288 -0.382436 0
M  V30 1738 C 155.185 -5.13954 -1.47497 0
M  V30 1739 C 156.485 -5.1744 0.710865 0
M  V30 1740 H 158.179 -2.91548 0.681184 0
M  V30 1741 H 155.725 -1.40191 0.329026 0
M  V30 1742 H 157.678 -3.92351 -1.53748 0
M  V30 1743 H 156.402 -2.71299 -1.81836 0
M  V30 1744 H 155.061 -3.6649 0.0899054 0
M  V30 1745 H 154.709 -4.50385 -2.2397 0
M  V30 1746 H 154.409 -5.7837 -1.03737 0
M  V30 1747 H 155.933 -5.77955 -1.96979 0
M  V30 1748 H 157.347 -5.72509 0.300996 0
M  V30 1749 H 155.744 -5.90455 1.07156 0
M  V30 1750 H 156.814 -4.58496 1.57829 0
M  V30 1751 N 158.157 -0.370918 -1.53173 0
M  V30 1752 C 159.12 0.460778 -2.24521 0
M  V30 1753 C 160.12 1.00536 -1.25496 0
M  V30 1754 O 161.31 0.890266 -1.49733 0
M  V30 1755 C 158.442 1.64457 -2.98608 0
M  V30 1756 H 159.635 -0.163613 -2.99453 0
M  V30 1757 H 157.188 -0.122699 -1.55818 0
M  V30 1758 H 157.923 2.30691 -2.2793 0
M  V30 1759 H 157.708 1.26099 -3.7127 0
M  V30 1760 H 159.198 2.23384 -3.5283 0
M  V30 1761 N 159.635 1.57281 -0.100228 0
M  V30 1762 C 160.545 2.17833 0.870965 0
M  V30 1763 C 161.561 1.14921 1.30649 0
M  V30 1764 O 162.737 1.47313 1.37335 0
M  V30 1765 C 159.802 2.75085 2.1102 0
M  V30 1766 C 158.863 3.9297 1.72838 0
M  V30 1767 C 158.096 4.47482 2.90854 0
M  V30 1768 O 158.319 4.00922 4.05731 0
M  V30 1769 O 157.253 5.38433 2.69023 0
M  V30 1770 H 161.079 3.0124 0.38575 0
M  V30 1771 H 158.664 1.48881 0.124397 0
M  V30 1772 H 160.546 3.11656 2.83634 0
M  V30 1773 H 159.221 1.94721 2.58584 0
M  V30 1774 H 158.128 3.61201 0.973883 0
M  V30 1775 H 159.461 4.74713 1.30033 0
M  V30 1776 N 161.113 -0.173488 1.56642 0
M  V30 1777 C 162.043 -1.2171 1.99271 0
M  V30 1778 C 163.024 -1.46289 0.867959 0
M  V30 1779 O 164.209 -1.5766 1.13388 0
M  V30 1780 C 161.339 -2.55651 2.35074 0
M  V30 1781 C 160.293 -2.45645 3.50489 0
M  V30 1782 C 159.619 -3.84056 3.72028 0
M  V30 1783 C 160.919 -1.96302 4.84007 0
M  V30 1784 H 162.613 -0.86275 2.867 0
M  V30 1785 H 160.159 -0.413571 1.37933 0
M  V30 1786 H 162.112 -3.2886 2.63494 0
M  V30 1787 H 160.836 -2.92869 1.44552 0
M  V30 1788 H 159.495 -1.7489 3.22194 0
M  V30 1789 H 159.143 -4.18664 2.788 0
M  V30 1790 H 158.843 -3.7823 4.49684 0
M  V30 1791 H 160.367 -4.58854 4.02846 0
M  V30 1792 H 161.781 -2.59284 5.11317 0
M  V30 1793 H 160.178 -2.01429 5.65284 0
M  V30 1794 H 161.248 -0.917226 4.76146 0
M  V30 1795 N 162.591 -1.51276 -0.441967 0
M  V30 1796 C 163.521 -1.752 -1.54361 0
M  V30 1797 C 164.502 -0.601682 -1.59103 0
M  V30 1798 O 165.687 -0.843913 -1.74905 0
M  V30 1799 C 162.817 -1.87282 -2.92477 0
M  V30 1800 C 161.771 -3.02687 -3.02596 0
M  V30 1801 C 161.097 -2.99947 -4.42647 0
M  V30 1802 C 162.397 -4.4273 -2.77106 0
M  V30 1803 H 164.091 -2.67442 -1.34592 0
M  V30 1804 H 161.637 -1.28694 -0.646048 0
M  V30 1805 H 163.59 -2.02602 -3.695 0
M  V30 1806 H 162.314 -0.916844 -3.13467 0
M  V30 1807 H 160.973 -2.87065 -2.28012 0
M  V30 1808 H 160.621 -2.02136 -4.60597 0
M  V30 1809 H 160.321 -3.77439 -4.50348 0
M  V30 1810 H 161.845 -3.17354 -5.2165 0
M  V30 1811 H 163.259 -4.58727 -3.43864 0
M  V30 1812 H 161.656 -5.21893 -2.96222 0
M  V30 1813 H 162.726 -4.53087 -1.72744 0
M  V30 1814 N 164.069 0.697108 -1.41344 0
M  V30 1815 C 164.979 1.84088 -1.45427 0
M  V30 1816 C 165.995 1.70545 -0.34501 0
M  V30 1817 O 167.171 1.92488 -0.592492 0
M  V30 1818 C 164.236 3.20056 -1.33286 0
M  V30 1819 C 163.297 3.45718 -2.54514 0
M  V30 1820 C 162.53 4.75199 -2.42944 0
M  V30 1821 O 162.753 5.51579 -1.45318 0
M  V30 1822 O 161.687 5.0161 -3.32672 0
M  V30 1823 H 165.513 1.836 -2.41919 0
M  V30 1824 H 163.098 0.849966 -1.22866 0
M  V30 1825 H 164.98 4.01236 -1.28794 0
M  V30 1826 H 163.655 3.2123 -0.39909 0
M  V30 1827 H 162.562 2.64474 -2.64583 0
M  V30 1828 H 163.895 3.49356 -3.46715 0
M  V30 1829 N 165.547 1.27147 0.931209 0
M  V30 1830 C 166.457 1.11372 2.06478 0
M  V30 1831 C 167.473 0.044645 1.73943 0
M  V30 1832 O 168.649 0.250417 1.99837 0
M  V30 1833 C 165.714 0.758838 3.38294 0
M  V30 1834 C 164.775 1.90841 3.84549 0
M  V30 1835 C 164.008 1.57036 5.10074 0
M  V30 1836 O 164.231 0.476645 5.68405 0
M  V30 1837 O 163.165 2.40839 5.51616 0
M  V30 1838 H 166.991 2.06493 2.22698 0
M  V30 1839 H 164.576 1.06301 1.04978 0
M  V30 1840 H 166.458 0.574098 4.17471 0
M  V30 1841 H 165.133 -0.162879 3.2329 0
M  V30 1842 H 164.04 2.14819 3.06274 0
M  V30 1843 H 165.373 2.81021 4.04089 0
M  V30 1844 N 167.025 -1.13721 1.09112 0
M  V30 1845 C 167.935 -2.22638 0.73957 0
M  V30 1846 C 168.951 -1.72091 -0.257068 0
M  V30 1847 O 170.127 -2.01155 -0.0992154 0
M  V30 1848 C 167.192 -3.46322 0.16191 0
M  V30 1849 C 166.253 -4.11775 1.21408 0
M  V30 1850 C 165.486 -5.29555 0.663891 0
M  V30 1851 O 165.709 -5.68077 -0.514274 0
M  V30 1852 O 164.643 -5.84973 1.41738 0
M  V30 1853 H 168.469 -2.55074 1.64836 0
M  V30 1854 H 166.054 -1.21791 0.865289 0
M  V30 1855 H 167.936 -4.21107 -0.157073 0
M  V30 1856 H 166.611 -3.15593 -0.719932 0
M  V30 1857 H 165.518 -3.3883 1.58571 0
M  V30 1858 H 166.851 -4.46627 2.06845 0
M  V30 1859 N 168.503 -0.877838 -1.30888 0
M  V30 1860 C 169.45 -0.337538 -2.28318 0
M  V30 1861 C 170.42 0.568346 -1.56074 0
M  V30 1862 O 171.605 0.498298 -1.84178 0
M  V30 1863 C 168.745 0.448142 -3.42178 0
M  V30 1864 C 167.858 -0.48615 -4.29256 0
M  V30 1865 C 166.993 0.314427 -5.30269 0
M  V30 1866 C 166.032 -0.615791 -6.08995 0
M  V30 1867 N 165.169 0.14902 -7.01942 0
M  V30 1868 H 170.009 -1.17356 -2.73919 0
M  V30 1869 H 167.546 -0.590094 -1.34745 0
M  V30 1870 H 169.504 0.919517 -4.06941 0
M  V30 1871 H 168.134 1.24879 -2.97666 0
M  V30 1872 H 167.186 -1.076 -3.64865 0
M  V30 1873 H 168.498 -1.19909 -4.84173 0
M  V30 1874 H 167.652 0.847969 -6.00745 0
M  V30 1875 H 166.391 1.06062 -4.76027 0
M  V30 1876 H 165.396 -1.16102 -5.37401 0
M  V30 1877 H 166.621 -1.36097 -6.65323 0
M  V30 1878 H 164.567 0.877884 -6.50099 0
M  V30 1879 H 164.484 -0.504433 -7.54315 0
M  V30 1880 H 165.752 0.663537 -7.76671 0
M  V30 1881 N 169.982 1.44106 -0.638065 0
M  V30 1882 C 170.912 2.33448 0.0494287 0
M  V30 1883 C 171.893 1.48606 0.827672 0
M  V30 1884 O 173.078 1.77308 0.792173 0
M  V30 1885 C 170.208 3.31771 1.02691 0
M  V30 1886 C 169.162 4.26485 0.359823 0
M  V30 1887 C 168.488 5.14729 1.44769 0
M  V30 1888 C 169.788 5.17056 -0.738296 0
M  V30 1889 H 171.482 2.91183 -0.696636 0
M  V30 1890 H 169.028 1.40014 -0.336456 0
M  V30 1891 H 170.981 3.93161 1.51666 0
M  V30 1892 H 169.705 2.7226 1.80395 0
M  V30 1893 H 168.364 3.66437 -0.10934 0
M  V30 1894 H 168.012 4.51566 2.21578 0
M  V30 1895 H 167.712 5.78913 1.00668 0
M  V30 1896 H 169.236 5.78991 1.93911 0
M  V30 1897 H 170.65 5.72342 -0.331354 0
M  V30 1898 H 169.047 5.89879 -1.10286 0
M  V30 1899 H 170.117 4.57652 -1.60258 0
M  V30 1900 N 171.46 0.379036 1.52974 0
M  V30 1901 C 172.685 -0.209353 2.06341 0
M  V30 1902 C 173.11 -1.40583 1.24972 0
M  V30 1903 O 172.468 -1.79246 0.272155 0
M  V30 1904 C 172.516 -0.567786 3.56102 0
M  V30 1905 O 171.62 -1.66318 3.77375 0
M  V30 1906 H 170.961 -0.0272919 0.663439 0
M  V30 1907 H 173.491 0.543536 1.97248 0
M  V30 1908 H 173.501 -0.835003 3.99364 0
M  V30 1909 H 172.176 0.307013 4.14765 0
M  V30 1910 H 170.753 -1.39048 3.46006 0
M  V30 1911 N 172.938 -1.57226 0.108567 0
M  V30 1912 C 174.178 -1.96717 -0.555155 0
M  V30 1913 C 174.542 -0.990003 -1.64508 0
M  V30 1914 O 175.743 -1.2739 -2.36696 0
M  V30 1915 C 174.014 -3.40575 -1.08367 0
M  V30 1916 S 175.573 -4.02072 -1.75737 0
M  V30 1917 H 172.391 -0.687638 -0.180762 0
M  V30 1918 H 174.993 -1.94563 0.191172 0
M  V30 1919 H 173.697 -4.0945 -0.279092 0
M  V30 1920 H 173.228 -3.46356 -1.86551 0
M  V30 1921 H 175.243 -3.91977 -3.04251 0
M  V30 1922 N 174.416 0.165178 -1.56732 0
M  V30 1923 C 175.662 0.882112 -1.82611 0
M  V30 1924 C 175.995 1.81628 -0.687378 0
M  V30 1925 O 175.27 1.92009 0.310267 0
M  V30 1926 C 175.553 1.67245 -3.18906 0
M  V30 1927 C 175.406 0.760987 -4.43316 0
M  V30 1928 C 176.725 2.63884 -3.52212 0
M  V30 1929 H 173.844 0.319242 -0.664269 0
M  V30 1930 H 176.486 0.148052 -1.89422 0
M  V30 1931 H 174.636 2.29824 -3.1323 0
M  V30 1932 H 176.308 0.147596 -4.61064 0
M  V30 1933 H 174.551 0.0694102 -4.33744 0
M  V30 1934 H 175.222 1.34962 -5.35247 0
M  V30 1935 H 177.698 2.11429 -3.58381 0
M  V30 1936 H 176.574 3.16245 -4.48643 0
M  V30 1937 H 176.835 3.44377 -2.77231 0
M  V30 1938 N 175.894 1.51508 0.433938 0
M  V30 1939 C 177.305 1.56784 1.01369 0
M  V30 1940 C 177.656 0.393349 1.92217 0
M  V30 1941 O 176.781 -0.489441 2.10792 0
M  V30 1942 C 177.376 2.84144 1.8452 0
M  V30 1943 C 175.935 2.9198 2.37539 0
M  V30 1944 C 175.082 2.51482 1.16843 0
M  V30 1945 H 178.033 1.57236 0.215081 0
M  V30 1946 H 178.054 2.68098 2.70007 0
M  V30 1947 H 177.566 3.69607 1.18373 0
M  V30 1948 H 175.667 2.10955 3.0713 0
M  V30 1949 H 175.78 3.95704 2.70103 0
M  V30 1950 H 174.144 2.04758 1.51481 0
M  V30 1951 H 174.927 3.39293 0.523015 0
M  V30 1952 N 177.372 -0.689602 1.41712 0
M  V30 1953 C 178.618 -1.45181 1.41599 0
M  V30 1954 C 178.951 -1.94181 0.0270081 0
M  V30 1955 O 178.226 -1.6993 -0.946265 0
M  V30 1956 C 178.509 -2.65945 2.42787 0
M  V30 1957 C 178.362 -2.22672 3.90816 0
M  V30 1958 C 179.681 -3.68149 2.41151 0
M  V30 1959 H 176.8 -0.526576 0.515642 0
M  V30 1960 H 179.442 -0.784947 1.73028 0
M  V30 1961 H 177.592 -3.2284 2.16116 0
M  V30 1962 H 179.264 -1.71058 4.28412 0
M  V30 1963 H 177.507 -1.54394 4.05395 0
M  V30 1964 H 178.178 -3.0935 4.57172 0
M  V30 1965 H 180.654 -3.2094 2.64834 0
M  V30 1966 H 179.53 -4.50248 3.13955 0
M  V30 1967 H 179.791 -4.18259 1.43221 0
M  V30 1968 N 178.85 -1.27639 -0.924453 0
M  V30 1969 C 179.78 -1.13166 -2.04244 0
M  V30 1970 C 180.761 -0.032256 -1.70069 0
M  V30 1971 O 181.946 -0.207328 -1.9309 0
M  V30 1972 C 179.076 -0.781496 -3.38393 0
M  V30 1973 C 178.03 -1.83449 -3.86692 0
M  V30 1974 C 177.356 -1.33822 -5.17683 0
M  V30 1975 C 178.656 -3.23917 -4.09726 0
M  V30 1976 H 180.35 -2.06689 -2.1661 0
M  V30 1977 H 177.896 -0.995136 -1.04082 0
M  V30 1978 H 179.849 -0.667057 -4.16087 0
M  V30 1979 H 178.573 0.189439 -3.2605 0
M  V30 1980 H 177.232 -1.93789 -3.11193 0
M  V30 1981 H 176.88 -0.35665 -5.01734 0
M  V30 1982 H 176.58 -2.04224 -5.50968 0
M  V30 1983 H 178.104 -1.23679 -5.97943 0
M  V30 1984 H 179.518 -3.16559 -4.77978 0
M  V30 1985 H 177.915 -3.92059 -4.54324 0
M  V30 1986 H 178.985 -3.68729 -3.14908 0
M  V30 1987 N 180.328 1.1314 -1.09713 0
M  V30 1988 C 181.577 1.83838 -0.829851 0
M  V30 1989 C 181.89 1.84599 0.646728 0
M  V30 1990 O 183.096 2.51218 1.02965 0
M  V30 1991 C 181.552 3.30069 -1.43466 0
M  V30 1992 C 181.16 3.37688 -2.94399 0
M  V30 1993 C 182.904 4.05788 -1.24645 0
M  V30 1994 C 180.811 4.78209 -3.47952 0
M  V30 1995 H 179.741 0.68877 -0.306777 0
M  V30 1996 H 182.392 1.27448 -1.3202 0
M  V30 1997 H 180.774 3.8628 -0.871996 0
M  V30 1998 H 181.948 2.91456 -3.56918 0
M  V30 1999 H 180.263 2.75436 -3.12289 0
M  V30 2000 H 182.86 5.09535 -1.62107 0
M  V30 2001 H 183.203 4.15878 -0.187357 0
M  V30 2002 H 183.736 3.55915 -1.77678 0
M  V30 2003 H 180.475 4.73311 -4.53495 0
M  V30 2004 H 179.995 5.24924 -2.90198 0
M  V30 2005 H 181.674 5.47133 -3.45332 0
M  V30 2006 N 181.806 0.884767 1.30421 0
M  V30 2007 C 183.053 0.503105 1.96151 0
M  V30 2008 C 183.381 -0.947676 1.69851 0
M  V30 2009 O 182.636 -1.68467 0.995861 0
M  V30 2010 C 182.935 0.724318 3.49983 0
M  V30 2011 C 182.601 2.15015 3.96332 0
M  V30 2012 C 181.263 2.54005 4.08699 0
M  V30 2013 C 183.615 3.07936 4.20505 0
M  V30 2014 C 180.943 3.85128 4.42599 0
M  V30 2015 C 183.295 4.3859 4.55874 0
M  V30 2016 C 181.959 4.77474 4.66449 0
M  V30 2017 H 181.229 0.184099 0.717766 0
M  V30 2018 H 183.876 1.12058 1.55291 0
M  V30 2019 H 182.181 0.0238086 3.91793 0
M  V30 2020 H 183.878 0.408617 3.98913 0
M  V30 2021 H 180.468 1.8375 3.87213 0
M  V30 2022 H 184.652 2.79033 4.10431 0
M  V30 2023 H 179.908 4.14996 4.48986 0
M  V30 2024 H 184.082 5.10629 4.7353 0
M  V30 2025 H 181.709 5.79115 4.92473 0
M  V30 2026 N 183.284 -1.43765 0.645699 0
M  V30 2027 C 184.247 -2.29163 -0.0409488 0
M  V30 2028 C 185.247 -1.41813 -0.757996 0
M  V30 2029 O 186.437 -1.63527 -0.600382 0
M  V30 2030 C 183.569 -3.23716 -1.06869 0
M  V30 2031 H 184.762 -2.91366 0.710345 0
M  V30 2032 H 182.315 -1.5092 0.406547 0
M  V30 2033 H 183.05 -2.66393 -1.84947 0
M  V30 2034 H 182.835 -3.88105 -0.558277 0
M  V30 2035 H 184.325 -3.87831 -1.54845 0
M  V30 2036 N 184.763 -0.387143 -1.52771 0
M  V30 2037 C 185.711 0.463953 -2.27926 0
M  V30 2038 C 186.705 1.06493 -1.31741 0
M  V30 2039 O 187.911 1.00565 -1.49287 0
M  V30 2040 H 184.286 0.16837 -0.732909 0
M  V30 2041 H 186.257 -0.19141 -2.97785 0
M  V30 2042 C 185.006 1.5803 -3.09713 0
M  V30 2043 H 184.329 1.12718 -3.83581 0
M  V30 2044 H 185.769 2.15008 -3.65442 0
M  V30 2045 C 184.228 2.53509 -2.2189 0
M  V30 2046 O 184.758 3.56863 -1.84422 0
M  V30 2047 N 182.964 2.23199 -1.86093 0
M  V30 2048 H 182.511 1.39185 -2.16761 0
M  V30 2049 H 182.469 2.87333 -1.27621 0
M  V30 2050 N 186.241 1.57166 -0.116904 0
M  V30 2051 C 187.188 2.15202 0.83408 0
M  V30 2052 C 188.158 1.07644 1.26499 0
M  V30 2053 O 189.343 1.35541 1.34288 0
M  V30 2054 C 186.483 2.75405 2.07957 0
M  V30 2055 C 185.596 3.97264 1.69721 0
M  V30 2056 C 184.731 4.45561 2.89221 0
M  V30 2057 C 183.77 5.59956 2.47215 0
M  V30 2058 N 182.907 6.03006 3.59622 0
M  V30 2059 H 187.747 2.96141 0.332335 0
M  V30 2060 H 185.284 1.46309 0.152349 0
M  V30 2061 H 187.242 3.08439 2.80929 0
M  V30 2062 H 185.872 1.97159 2.55594 0
M  V30 2063 H 184.924 3.70404 0.866316 0
M  V30 2064 H 186.236 4.80226 1.34849 0
M  V30 2065 H 185.39 4.80493 3.7042 0
M  V30 2066 H 184.129 3.61544 3.27318 0
M  V30 2067 H 183.134 5.2463 1.64448 0
M  V30 2068 H 184.359 6.45738 2.10238 0
M  V30 2069 H 182.305 5.21931 3.97396 0
M  V30 2070 H 182.222 6.80819 3.28667 0
M  V30 2071 H 183.49 6.42576 4.41267 0
M  V30 2072 N 187.719 -0.156864 1.56817 0
M  V30 2073 C 188.651 -1.21883 1.94106 0
M  V30 2074 C 189.664 -1.3971 0.835754 0
M  V30 2075 O 190.853 -1.39457 1.11418 0
M  V30 2076 C 187.953 -2.58527 2.19127 0
M  V30 2077 C 187.126 -2.61809 3.50393 0
M  V30 2078 C 186.185 -3.7992 3.64071 0
M  V30 2079 O 185.211 -3.65249 4.36557 0
M  V30 2080 N 186.413 -4.96973 2.99997 0
M  V30 2081 H 189.178 -0.901974 2.85805 0
M  V30 2082 H 186.739 -0.346513 1.58148 0
M  V30 2083 H 188.731 -3.36034 2.25529 0
M  V30 2084 H 187.301 -2.82545 1.33742 0
M  V30 2085 H 186.521 -1.7029 3.5552 0
M  V30 2086 H 187.809 -2.61024 4.36742 0
M  V30 2087 H 187.207 -5.11794 2.41004 0
M  V30 2088 H 185.764 -5.7229 3.11974 0
M  V30 2089 N 189.197 -1.51736 -0.425897 0
M  V30 2090 C 190.474 -1.55519 -1.1863 0
M  V30 2091 C 190.854 -0.326219 -2.08564 0
M  V30 2092 O 190.202 0.688012 -2.17896 0
M  V30 2093 C 190.412 -2.87521 -1.9782 0
M  V30 2094 C 191.76 -3.39899 -2.54468 0
M  V30 2095 O 192.784 -2.89148 -2.08019 0
M  V30 2096 O 191.643 -4.2848 -3.39215 0
M  V30 2097 H 188.737 -0.625739 -0.540721 0
M  V30 2098 H 191.283 -1.64055 -0.434038 0
M  V30 2099 H 190.055 -3.68422 -1.31836 0
M  V30 2100 H 189.678 -2.822 -2.80088 0
M  V30 2101 N 190.675 0.682077 -1.42076 0
M  V30 2102 C 191.605 1.80796 -1.47767 0
M  V30 2103 C 192.586 1.6677 -0.334954 0
M  V30 2104 O 193.771 1.863 -0.548264 0
M  V30 2105 C 190.901 3.19038 -1.37229 0
M  V30 2106 C 189.855 3.47789 -2.49453 0
M  V30 2107 C 189.181 4.8553 -2.23975 0
M  V30 2108 C 190.481 3.45411 -3.91776 0
M  V30 2109 H 192.175 1.7629 -2.41997 0
M  V30 2110 H 189.721 0.846721 -1.16476 0
M  V30 2111 H 191.674 3.97528 -1.39821 0
M  V30 2112 H 190.398 3.24204 -0.394907 0
M  V30 2113 H 189.057 2.71657 -2.46166 0
M  V30 2114 H 188.705 4.87337 -1.24547 0
M  V30 2115 H 188.405 5.0573 -2.99184 0
M  V30 2116 H 189.929 5.66312 -2.28304 0
M  V30 2117 H 191.343 4.13882 -3.96705 0
M  V30 2118 H 189.74 3.77145 -4.66778 0
M  V30 2119 H 190.81 2.44122 -4.18966 0
M  V30 2120 N 192.153 1.28127 0.917671 0
M  V30 2121 C 193.083 1.14248 2.03641 0
M  V30 2122 C 194.064 0.0412748 1.7005 0
M  V30 2123 O 195.249 0.217566 1.92977 0
M  V30 2124 C 192.379 0.799431 3.37974 0
M  V30 2125 C 191.333 1.85497 3.85713 0
M  V30 2126 C 190.659 1.36565 5.16966 0
M  V30 2127 C 191.959 3.26085 4.08002 0
M  V30 2128 H 193.653 2.07835 2.15511 0
M  V30 2129 H 191.199 1.00064 1.03553 0
M  V30 2130 H 193.152 0.689114 4.15727 0
M  V30 2131 H 191.876 -0.172145 3.26146 0
M  V30 2132 H 190.535 1.95437 3.10161 0
M  V30 2133 H 190.183 0.383253 5.01538 0
M  V30 2134 H 189.883 2.07143 5.49878 0
M  V30 2135 H 191.407 1.26848 5.97279 0
M  V30 2136 H 192.821 3.19089 4.76293 0
M  V30 2137 H 191.218 3.94462 4.52238 0
M  V30 2138 H 192.288 3.70394 3.12948 0
M  V30 2139 N 193.631 -1.12557 1.10312 0
M  V30 2140 C 194.859 -1.87864 0.866873 0
M  V30 2141 C 195.274 -1.79588 -0.582557 0
M  V30 2142 O 194.631 -1.16887 -1.40156 0
M  V30 2143 C 194.682 -3.37125 1.30496 0
M  V30 2144 O 194.403 -3.45201 2.69755 0
M  V30 2145 C 195.904 -4.29373 1.10243 0
M  V30 2146 H 193.124 -0.594452 0.311236 0
M  V30 2147 H 195.668 -1.42429 1.46745 0
M  V30 2148 H 193.823 -3.80109 0.748081 0
M  V30 2149 H 194.237 -4.38056 2.88457 0
M  V30 2150 H 195.711 -5.32394 1.45811 0
M  V30 2151 H 196.188 -4.39181 0.0409492 0
M  V30 2152 H 196.794 -3.92169 1.64571 0
M  V30 2153 N 195.109 -0.891671 -1.2995 0
M  V30 2154 C 196.072 -0.36828 -2.26222 0
M  V30 2155 C 197.072 0.493014 -1.53056 0
M  V30 2156 O 198.262 0.299213 -1.71611 0
M  V30 2157 C 195.394 0.47442 -3.37583 0
M  V30 2158 H 196.587 -1.21844 -2.74033 0
M  V30 2159 H 194.14 -0.669107 -1.41254 0
M  V30 2160 H 194.875 1.34489 -2.95099 0
M  V30 2161 H 194.66 -0.142615 -3.91841 0
M  V30 2162 H 196.15 0.83218 -4.09224 0
M  V30 2163 N 196.587 1.43421 -0.653314 0
M  V30 2164 C 197.55 2.29182 0.0287951 0
M  V30 2165 C 198.55 1.42213 0.750465 0
M  V30 2166 O 199.74 1.63843 0.591701 0
M  V30 2167 C 196.872 3.24278 1.05151 0
M  V30 2168 H 198.065 2.90985 -0.725786 0
M  V30 2169 H 195.618 1.50702 -0.414545 0
M  V30 2170 H 196.353 2.6737 1.83532 0
M  V30 2171 H 196.138 3.88396 0.537687 0
M  V30 2172 H 197.628 3.88647 1.52786 0
M  V30 2173 N 198.065 0.39524 1.52563 0
M  V30 2174 C 199.476 -0.0774719 1.86539 0
M  V30 2175 C 199.827 -1.45641 1.31466 0
M  V30 2176 O 198.952 -2.06459 0.648367 0
M  V30 2177 C 199.547 -0.147356 3.38479 0
M  V30 2178 C 198.106 -0.564373 3.72145 0
M  V30 2179 C 197.253 0.269919 2.75983 0
M  V30 2180 H 200.204 0.612876 1.46388 0
M  V30 2181 H 200.225 -0.965343 3.68051 0
M  V30 2182 H 199.737 0.856387 3.78534 0
M  V30 2183 H 197.838 -1.57527 3.37663 0
M  V30 2184 H 197.951 -0.318402 4.78041 0
M  V30 2185 H 196.315 -0.265696 2.5331 0
M  V30 2186 H 197.098 1.27175 3.18875 0
M  V30 2187 N 199.544 -1.57102 0.125237 0
M  V30 2188 C 200.507 -2.14471 -0.80838 0
M  V30 2189 C 201.507 -1.0811 -1.19033 0
M  V30 2190 O 202.697 -1.33856 -1.11482 0
M  V30 2191 C 199.829 -2.69005 -2.09402 0
M  V30 2192 H 201.022 -2.98297 -0.309696 0
M  V30 2193 H 198.575 -1.55807 -0.124051 0
M  V30 2194 H 199.31 -1.88785 -2.63687 0
M  V30 2195 H 199.095 -3.46799 -1.82957 0
M  V30 2196 H 200.585 -3.13278 -2.76128 0
M  V30 2197 N 201.022 0.148545 -1.56898 0
M  V30 2198 C 202.247 0.880385 -1.87787 0
M  V30 2199 C 202.672 1.74018 -0.714093 0
M  V30 2200 O 202.03 1.78153 0.336343 0
M  V30 2201 C 202.078 1.71422 -3.17249 0
M  V30 2202 O 201.182 2.8183 -3.01074 0
M  V30 2203 H 200.523 0.245301 -0.617028 0
M  V30 2204 H 203.053 0.139826 -2.04122 0
M  V30 2205 H 203.063 2.10954 -3.49231 0
M  V30 2206 H 201.738 1.08284 -4.01556 0
M  V30 2207 H 200.315 2.45715 -2.80497 0
M  V30 2208 N 202.5 1.5196 0.417844 0
M  V30 2209 C 203.41 1.77554 1.53336 0
M  V30 2210 C 204.426 0.660655 1.6097 0
M  V30 2211 O 205.602 0.945099 1.77848 0
M  V30 2212 C 202.667 1.91291 2.89152 0
M  V30 2213 C 201.728 3.15183 2.91475 0
M  V30 2214 C 200.961 3.28256 4.20813 0
M  V30 2215 O 201.184 2.46798 5.14244 0
M  V30 2216 O 200.118 4.21356 4.29817 0
M  V30 2217 H 203.944 2.7222 1.34647 0
M  V30 2218 H 201.529 1.36698 0.602828 0
M  V30 2219 H 203.411 2.02199 3.69721 0
M  V30 2220 H 202.086 0.998129 3.07927 0
M  V30 2221 H 200.993 3.09739 2.09791 0
M  V30 2222 H 202.326 4.06414 2.77648 0
M  V30 2223 N 203.978 -0.674533 1.42435 0
M  V30 2224 C 205.227 -1.43034 1.42212 0
M  V30 2225 C 205.54 -1.95555 0.0420788 0
M  V30 2226 O 206.746 -2.71374 -0.0827558 0
M  V30 2227 C 205.202 -2.58748 2.50155 0
M  V30 2228 C 204.81 -2.12925 3.94166 0
M  V30 2229 C 206.554 -3.36257 2.59098 0
M  V30 2230 C 204.461 -3.25723 4.93618 0
M  V30 2231 H 203.391 -0.537345 0.528939 0
M  V30 2232 H 206.042 -0.73024 1.68344 0
M  V30 2233 H 204.424 -3.31128 2.17188 0
M  V30 2234 H 205.598 -1.47697 4.36488 0
M  V30 2235 H 203.913 -1.48354 3.89076 0
M  V30 2236 H 206.51 -4.20264 3.30578 0
M  V30 2237 H 206.853 -3.82866 1.63461 0
M  V30 2238 H 207.386 -2.70947 2.9126 0
M  V30 2239 H 204.125 -2.84105 5.90732 0
M  V30 2240 H 203.645 -3.89732 4.55926 0
M  V30 2241 H 205.324 -3.91186 5.15347 0
M  V30 2242 N 205.456 -1.28612 -0.910864 0
M  V30 2243 C 206.419 -1.12803 -1.9952 0
M  V30 2244 C 207.419 -0.0668264 -1.60661 0
M  V30 2245 O 208.609 -0.312847 -1.71368 0
M  V30 2246 C 205.741 -0.72254 -3.33155 0
M  V30 2247 H 206.934 -2.09109 -2.14973 0
M  V30 2248 H 204.487 -1.11639 -1.09391 0
M  V30 2249 H 205.222 0.241152 -3.23402 0
M  V30 2250 H 205.007 -1.48916 -3.62721 0
M  V30 2251 H 206.497 -0.634666 -4.12749 0
M  V30 2252 N 206.934 1.1197 -1.10907 0
M  V30 2253 C 207.844 2.21433 -0.774896 0
M  V30 2254 C 208.86 1.72478 0.229657 0
M  V30 2255 O 210.036 2.01288 0.0672008 0
M  V30 2256 C 207.101 3.4602 -0.216986 0
M  V30 2257 C 206.162 4.09791 -1.27944 0
M  V30 2258 C 205.395 5.28431 -0.748055 0
M  V30 2259 O 205.618 5.68823 0.423833 0
M  V30 2260 O 204.552 5.82644 -1.51027 0
M  V30 2261 H 208.378 2.5242 -1.68873 0
M  V30 2262 H 205.963 1.20399 -0.884555 0
M  V30 2263 H 207.845 4.21304 0.090059 0
M  V30 2264 H 206.52 3.16698 0.669633 0
M  V30 2265 H 205.427 3.36265 -1.63941 0
M  V30 2266 H 206.76 4.4328 -2.13925 0
M  V30 2267 N 208.412 0.89855 1.29475 0
M  V30 2268 C 209.66 0.522847 1.9522 0
M  V30 2269 C 209.981 -0.93371 1.71192 0
M  V30 2270 O 209.251 -1.65823 1.04305 0
M  V30 2271 H 207.831 0.190366 0.722336 0
M  V30 2272 H 210.493 1.14459 1.5775 0
M  V30 2273 H 209.589 0.704476 3.04045 0
M  V30 2274 N 209.89 -1.43072 0.660911 0
M  V30 2275 C 210.82 -2.33497 -0.0122829 0
M  V30 2276 C 211.801 -1.49903 -0.803925 0
M  V30 2277 O 212.986 -1.78546 -0.763864 0
M  V30 2278 C 210.116 -3.33363 -0.973994 0
M  V30 2279 C 209.07 -4.27003 -0.291928 0
M  V30 2280 C 208.396 -5.16967 -1.36562 0
M  V30 2281 C 209.696 -5.15816 0.820462 0
M  V30 2282 H 211.39 -2.90038 0.742873 0
M  V30 2283 H 208.936 -1.39461 0.358688 0
M  V30 2284 H 210.889 -3.95524 -1.45392 0
M  V30 2285 H 209.613 -2.75095 -1.7604 0
M  V30 2286 H 208.272 -3.66217 0.167623 0
M  V30 2287 H 207.92 -4.55034 -2.14366 0
M  V30 2288 H 207.62 -5.80441 -0.914454 0
M  V30 2289 H 209.144 -5.82003 -1.84675 0
M  V30 2290 H 210.558 -5.71742 0.422366 0
M  V30 2291 H 208.955 -5.8805 1.19656 0
M  V30 2292 H 210.025 -4.55045 1.67518 0
M  V30 2293 N 211.368 -0.403325 -1.52352 0
M  V30 2294 C 212.316 0.439752 -2.28405 0
M  V30 2295 C 213.31 1.05089 -1.32863 0
M  V30 2296 O 214.516 0.989759 -1.50345 0
M  V30 2297 H 210.891 0.160587 -0.734653 0
M  V30 2298 H 212.862 -0.222983 -2.97566 0
M  V30 2299 C 211.611 1.54736 -3.11371 0
M  V30 2300 H 210.934 1.08643 -3.84755 0
M  V30 2301 H 212.374 2.1112 -3.67701 0
M  V30 2302 C 210.833 2.51141 -2.24566 0
M  V30 2303 O 211.363 3.54887 -1.88196 0
M  V30 2304 N 209.569 2.21213 -1.8845 0
M  V30 2305 H 209.116 1.36878 -2.18225 0
M  V30 2306 H 209.074 2.85963 -1.30662 0
M  V30 2307 N 212.846 1.57033 -0.133567 0
M  V30 2308 C 213.776 2.1909 0.807567 0
M  V30 2309 C 214.757 1.13517 1.26681 0
M  V30 2310 O 215.942 1.41809 1.32679 0
M  V30 2311 C 213.072 2.80188 2.05212 0
M  V30 2312 C 212.026 3.91471 1.73015 0
M  V30 2313 C 211.352 4.39443 3.04622 0
M  V30 2314 C 212.652 5.12886 0.987168 0
M  V30 2315 H 214.346 2.97988 0.290403 0
M  V30 2316 H 211.892 1.43335 0.138239 0
M  V30 2317 H 213.845 3.22264 2.71521 0
M  V30 2318 H 212.569 1.98601 2.59278 0
M  V30 2319 H 211.228 3.49993 1.0909 0
M  V30 2320 H 210.876 3.54695 3.56651 0
M  V30 2321 H 210.576 5.14495 2.83847 0
M  V30 2322 H 212.1 4.8418 3.72024 0
M  V30 2323 H 213.514 5.51891 1.55208 0
M  V30 2324 H 211.911 5.93615 0.87985 0
M  V30 2325 H 212.981 4.84894 -0.0235286 0
M  V30 2326 N 214.325 -0.140222 1.56975 0
M  V30 2327 C 215.275 -1.17827 1.95194 0
M  V30 2328 C 216.259 -1.38195 0.824075 0
M  V30 2329 O 217.451 -1.39643 1.0876 0
M  V30 2330 C 214.58 -2.51024 2.34184 0
M  V30 2331 C 213.666 -2.3422 3.53556 0
M  V30 2332 N 214.057 -1.87185 4.69889 0
M  V30 2333 C 212.355 -2.64949 3.58773 0
M  V30 2334 C 213.056 -1.83586 5.5197 0
M  V30 2335 N 212.032 -2.2715 4.93866 0
M  V30 2336 H 215.834 -0.806817 2.82609 0
M  V30 2337 H 213.348 -0.348208 1.58623 0
M  V30 2338 H 215.345 -3.26074 2.59772 0
M  V30 2339 H 214.005 -2.88945 1.48124 0
M  V30 2340 H 215.016 -1.57048 4.93514 0
M  V30 2341 H 211.693 -3.067 2.8327 0
M  V30 2342 H 213.083 -1.48655 6.55249 0
M  V30 2343 N 215.803 -1.52179 -0.40978 0
M  V30 2344 C 217.031 -1.70054 -1.17853 0
M  V30 2345 C 217.446 -0.409735 -1.843 0
M  V30 2346 O 216.803 0.614183 -1.71855 0
M  V30 2347 C 216.854 -2.83568 -2.24213 0
M  V30 2348 O 216.575 -4.0765 -1.60478 0
M  V30 2349 C 218.076 -3.12947 -3.13973 0
M  V30 2350 H 215.296 -0.569917 -0.354169 0
M  V30 2351 H 217.84 -1.98734 -0.482198 0
M  V30 2352 H 215.995 -2.57409 -2.89516 0
M  V30 2353 H 216.409 -4.70899 -2.30986 0
M  V30 2354 H 217.883 -3.95889 -3.84677 0
M  V30 2355 H 218.36 -2.26472 -3.76307 0
M  V30 2356 H 218.966 -3.40868 -2.5434 0
M  V30 2357 N 217.281 0.66697 -1.42791 0
M  V30 2358 C 218.53 1.42278 -1.42968 0
M  V30 2359 C 218.843 1.9553 -0.0524489 0
M  V30 2360 O 220.049 2.71414 0.068363 0
M  V30 2361 C 218.505 2.57418 -2.51524 0
M  V30 2362 C 218.113 2.10832 -3.9529 0
M  V30 2363 C 219.857 3.34878 -2.60877 0
M  V30 2364 C 217.764 3.23101 -4.95338 0
M  V30 2365 H 216.694 0.534533 -0.531781 0
M  V30 2366 H 219.345 0.721302 -1.68729 0
M  V30 2367 H 217.727 3.29971 -2.18941 0
M  V30 2368 H 218.901 1.4538 -4.37266 0
M  V30 2369 H 217.216 1.46289 -3.89857 0
M  V30 2370 H 219.813 4.18505 -3.32802 0
M  V30 2371 H 220.156 3.81993 -1.6549 0
M  V30 2372 H 220.689 2.69398 -2.92693 0
M  V30 2373 H 217.428 2.80969 -5.9223 0
M  V30 2374 H 216.948 3.87309 -4.57987 0
M  V30 2375 H 218.627 3.88447 -5.17415 0
M  V30 2376 N 218.759 1.29093 0.90403 0
M  V30 2377 C 220.175 1.07011 1.1841 0
M  V30 2378 C 220.375 -0.181358 2.00682 0
M  V30 2379 O 219.431 -0.880331 2.36657 0
M  V30 2380 C 220.744 2.32311 1.90924 0
M  V30 2381 C 222.292 2.37587 2.03768 0
M  V30 2382 C 222.767 3.62679 2.79693 0
M  V30 2383 N 224.258 3.63376 2.87249 0
M  V30 2384 C 224.993 4.56848 3.46522 0
M  V30 2385 N 224.489 5.60648 4.06996 0
M  V30 2386 N 226.282 4.44426 3.44154 0
M  V30 2387 H 218.433 2.09412 0.354993 0
M  V30 2388 H 220.696 0.922181 0.219742 0
M  V30 2389 H 220.402 3.23536 1.37905 0
M  V30 2390 H 220.276 2.39483 2.91424 0
M  V30 2391 H 222.663 1.46853 2.55965 0
M  V30 2392 H 222.744 2.34403 1.02415 0
M  V30 2393 H 222.388 4.53762 2.28173 0
M  V30 2394 H 222.318 3.63119 3.81381 0
M  V30 2395 H 224.809 2.88321 2.44293 0
M  V30 2396 H 225.122 6.28101 4.50232 0
M  V30 2397 H 223.467 5.64463 4.05471 0
M  V30 2398 H 226.658 3.62529 2.96126 0
M  V30 2399 H 226.831 5.17457 3.90054 0
M  V30 2400 N 220.237 -1.11381 1.11499 0
M  V30 2401 C 221.514 -1.7955 0.775965 0
M  V30 2402 C 221.894 -1.97859 -0.73588 0
M  V30 2403 O 221.242 -1.56376 -1.66609 0
M  V30 2404 C 221.452 -3.13196 1.53977 0
M  V30 2405 C 222.8 -3.88227 1.71944 0
M  V30 2406 O 223.824 -3.22887 1.50407 0
M  V30 2407 O 222.683 -5.05477 2.07738 0
M  V30 2408 H 219.777 -0.777728 0.28119 0
M  V30 2409 H 222.323 -1.18118 1.21845 0
M  V30 2410 H 221.095 -2.95229 2.56818 0
M  V30 2411 H 220.718 -3.82342 1.09088 0
M  V30 2412 N 221.715 -0.905404 -1.28997 0
M  V30 2413 C 223.131 -0.60233 -1.47798 0
M  V30 2414 C 223.331 0.854645 -1.82478 0
M  V30 2415 O 222.387 1.63439 -1.92468 0
M  V30 2416 C 223.7 -1.53306 -2.58685 0
M  V30 2417 C 225.248 -1.53887 -2.72558 0
M  V30 2418 C 225.723 -2.45602 -3.86579 0
M  V30 2419 N 227.214 -2.43681 -3.93921 0
M  V30 2420 C 227.949 -3.11347 -4.81509 0
M  V30 2421 N 227.445 -3.88313 -5.73746 0
M  V30 2422 N 229.238 -3.00476 -4.75048 0
M  V30 2423 H 221.389 -1.84765 -1.04764 0
M  V30 2424 H 223.652 -0.792025 -0.520961 0
M  V30 2425 H 223.358 -2.57141 -2.39941 0
M  V30 2426 H 223.232 -1.25787 -3.55609 0
M  V30 2427 H 225.619 -0.507941 -2.90696 0
M  V30 2428 H 225.7 -1.85447 -1.76191 0
M  V30 2429 H 225.344 -3.48792 -3.69197 0
M  V30 2430 H 225.274 -2.11349 -4.82327 0
M  V30 2431 H 227.765 -1.87767 -3.27951 0
M  V30 2432 H 228.078 -4.36985 -6.37389 0
M  V30 2433 H 226.423 -3.92419 -5.73614 0
M  V30 2434 H 229.614 -2.39858 -4.01977 0
M  V30 2435 H 229.787 -3.53485 -5.43095 0
M  V30 2436 N 223.193 1.4272 -0.668489 0
M  V30 2437 C 224.439 2.01923 -0.188419 0
M  V30 2438 C 224.772 1.52704 1.19979 0
M  V30 2439 O 224.047 0.726566 1.8042 0
M  V30 2440 C 224.33 3.59451 -0.216085 0
M  V30 2441 C 224.183 4.18864 -1.6393 0
M  V30 2442 C 225.502 4.37903 0.439179 0
M  V30 2443 H 222.621 0.733674 -0.0699412 0
M  V30 2444 H 225.263 1.69822 -0.852076 0
M  V30 2445 H 223.413 3.86929 0.349012 0
M  V30 2446 H 225.085 4.02362 -2.25616 0
M  V30 2447 H 223.328 3.74933 -2.18193 0
M  V30 2448 H 223.999 5.27987 -1.61039 0
M  V30 2449 H 226.475 4.16079 -0.0417878 0
M  V30 2450 H 225.351 5.47519 0.389157 0
M  V30 2451 H 225.612 4.15303 1.51577 0
M  V30 2452 N 224.671 0.411399 1.52136 0
M  V30 2453 C 225.917 -0.156262 2.02799 0
M  V30 2454 C 226.272 -1.42613 1.29149 0
M  V30 2455 O 225.565 -1.87592 0.389839 0
M  V30 2456 C 225.759 -0.455872 3.54481 0
M  V30 2457 C 225.588 0.783404 4.42824 0
M  V30 2458 C 224.358 1.30928 4.88043 0
M  V30 2459 C 226.556 1.66217 4.86699 0
M  V30 2460 N 224.538 2.5038 5.6052 0
M  V30 2461 C 225.909 2.70292 5.5798 0
M  V30 2462 C 227.964 1.67966 4.68713 0
M  V30 2463 C 226.667 3.7603 6.13184 0
M  V30 2464 C 228.693 2.72624 5.24815 0
M  V30 2465 C 228.055 3.7542 5.9602 0
M  V30 2466 H 224.154 -0.0186886 0.781777 0
M  V30 2467 H 226.738 0.566255 1.86284 0
M  V30 2468 H 224.909 -1.14743 3.71064 0
M  V30 2469 H 226.641 -1.01261 3.91827 0
M  V30 2470 H 223.396 0.866977 4.65597 0
M  V30 2471 H 223.82 3.10881 6.014 0
M  V30 2472 H 228.462 0.898312 4.13147 0
M  V30 2473 H 226.18 4.55019 6.6782 0
M  V30 2474 H 229.766 2.74887 5.12765 0
M  V30 2475 H 228.646 4.55073 6.38654 0
M  V30 2476 N 226.149 -1.5696 0.141893 0
M  V30 2477 C 227.081 -2.13619 -0.830627 0
M  V30 2478 C 228.094 -1.08439 -1.21428 0
M  V30 2479 O 229.283 -1.35734 -1.15925 0
M  V30 2480 C 226.383 -2.63978 -2.12529 0
M  V30 2481 C 225.556 -3.93504 -1.9098 0
M  V30 2482 C 224.615 -4.29225 -3.04388 0
M  V30 2483 O 223.641 -4.97641 -2.76302 0
M  V30 2484 N 224.843 -3.88393 -4.31429 0
M  V30 2485 H 227.608 -2.97691 -0.34641 0
M  V30 2486 H 225.169 -1.61846 -0.0418375 0
M  V30 2487 H 227.161 -2.84891 -2.87436 0
M  V30 2488 H 225.731 -1.84659 -2.52229 0
M  V30 2489 H 224.951 -3.81269 -1.00139 0
M  V30 2490 H 226.239 -4.78154 -1.73914 0
M  V30 2491 H 225.637 -3.33257 -4.57117 0
M  V30 2492 H 224.194 -4.14368 -5.03133 0
M  V30 2493 N 227.627 0.131896 -1.57047 0
M  V30 2494 C 228.876 0.84044 -1.83356 0
M  V30 2495 C 229.189 1.81646 -0.725535 0
M  V30 2496 O 230.395 2.57025 -0.874659 0
M  V30 2497 C 228.851 1.54528 -3.25037 0
M  V30 2498 C 228.459 0.610902 -4.43815 0
M  V30 2499 C 230.203 2.23972 -3.60606 0
M  V30 2500 C 228.11 1.31823 -5.76521 0
M  V30 2501 H 227.04 0.317599 -0.683847 0
M  V30 2502 H 229.691 0.0931561 -1.83263 0
M  V30 2503 H 228.073 2.33873 -3.19561 0
M  V30 2504 H 229.247 -0.148407 -4.60561 0
M  V30 2505 H 227.562 0.0241016 -4.16393 0
M  V30 2506 H 230.159 2.77558 -4.57018 0
M  V30 2507 H 230.502 3.01173 -2.87403 0
M  V30 2508 H 231.035 1.51529 -3.6781 0
M  V30 2509 H 227.774 0.587771 -6.52859 0
M  V30 2510 H 227.294 2.04987 -5.63685 0
M  V30 2511 H 228.973 1.855 -6.19838 0
M  V30 2512 N 229.106 1.52395 0.401703 0
M  V30 2513 C 230.038 1.72505 1.50912 0
M  V30 2514 C 231.051 0.605468 1.51122 0
M  V30 2515 O 232.24 0.880828 1.55254 0
M  V30 2516 C 229.34 1.75711 2.89791 0
M  V30 2517 C 228.513 3.04824 3.1369 0
M  V30 2518 C 227.572 2.99743 4.32482 0
M  V30 2519 O 226.598 3.73635 4.29402 0
M  V30 2520 N 227.8 2.18047 5.37992 0
M  V30 2521 H 230.565 2.68049 1.34052 0
M  V30 2522 H 228.126 1.50724 0.591084 0
M  V30 2523 H 230.118 1.69834 3.6734 0
M  V30 2524 H 228.688 0.876092 3.00072 0
M  V30 2525 H 227.908 3.2429 2.24119 0
M  V30 2526 H 229.196 3.90221 3.26504 0
M  V30 2527 H 228.594 1.57456 5.43345 0
M  V30 2528 H 227.151 2.18021 6.14256 0
M  V30 2529 N 230.584 -0.659388 1.43143 0
M  V30 2530 C 231.809 -1.45221 1.48073 0
M  V30 2531 C 232.234 -1.87845 0.097995 0
M  V30 2532 O 231.592 -1.56985 -0.90694 0
M  V30 2533 C 231.64 -2.66748 2.42647 0
M  V30 2534 O 230.744 -3.65583 1.90848 0
M  V30 2535 H 230.085 -0.435669 0.501088 0
M  V30 2536 H 232.615 -0.807432 1.87994 0
M  V30 2537 H 232.625 -3.14637 2.59745 0
M  V30 2538 H 231.3 -2.35067 3.43098 0
M  V30 2539 H 229.877 -3.24693 1.83381 0
M  V30 2540 N 232.062 -1.29571 -0.897171 0
M  V30 2541 C 233.302 -1.18959 -1.66217 0
M  V30 2542 C 233.666 0.254271 -1.90309 0
M  V30 2543 O 234.867 0.483407 -2.64417 0
M  V30 2544 C 233.138 -1.98302 -2.9734 0
M  V30 2545 S 234.697 -2.04253 -3.88364 0
M  V30 2546 H 231.515 -0.424137 -0.570639 0
M  V30 2547 H 234.117 -1.6389 -1.06585 0
M  V30 2548 H 232.821 -3.02342 -2.77521 0
M  V30 2549 H 232.352 -1.53986 -3.62011 0
M  V30 2550 H 234.367 -1.16105 -4.82425 0
M  V30 2551 N 233.54 1.10788 -1.12088 0
M  V30 2552 C 234.765 1.87002 -0.896949 0
M  V30 2553 C 235.19 1.79933 0.548261 0
M  V30 2554 O 234.548 1.16662 1.38779 0
M  V30 2555 C 234.596 3.3349 -1.37174 0
M  V30 2556 O 233.7 4.08745 -0.547831 0
M  V30 2557 H 233.041 0.580397 -0.322545 0
M  V30 2558 H 235.571 1.39996 -1.49206 0
M  V30 2559 H 235.581 3.84339 -1.36922 0
M  V30 2560 H 234.256 3.37951 -2.42408 0
M  V30 2561 H 232.833 3.6776 -0.617034 0
M  V30 2562 N 235.018 0.912232 1.28515 0
M  V30 2563 C 235.981 0.404223 2.25607 0
M  V30 2564 C 236.981 -0.468602 1.53821 0
M  V30 2565 O 238.171 -0.271873 1.72065 0
M  V30 2566 C 235.303 -0.420653 3.38295 0
M  V30 2567 H 236.496 1.26188 2.7206 0
M  V30 2568 H 234.049 0.691495 1.40171 0
M  V30 2569 H 234.784 -1.29777 2.97201 0
M  V30 2570 H 234.569 0.204935 3.91564 0
M  V30 2571 H 236.059 -0.766971 4.10496 0
M  V30 2572 N 236.496 -1.42363 0.676048 0
M  V30 2573 C 237.426 -2.33497 0.0124832 0
M  V30 2574 C 238.407 -1.50748 -0.787981 0
M  V30 2575 O 239.592 -1.79346 -0.744884 0
M  V30 2576 C 236.722 -3.34377 -0.938582 0
M  V30 2577 C 235.676 -4.27289 -0.246622 0
M  V30 2578 C 235.002 -5.18386 -1.31071 0
M  V30 2579 C 236.302 -5.14916 0.875125 0
M  V30 2580 H 237.996 -2.89233 0.773593 0
M  V30 2581 H 235.542 -1.39073 0.37346 0
M  V30 2582 H 237.495 -3.97044 -1.41188 0
M  V30 2583 H 236.219 -2.76947 -1.73113 0
M  V30 2584 H 234.878 -3.66018 0.206456 0
M  V30 2585 H 234.526 -4.57282 -2.09528 0
M  V30 2586 H 234.226 -5.81378 -0.852839 0
M  V30 2587 H 235.75 -5.83929 -1.78492 0
M  V30 2588 H 237.164 -5.71262 0.482983 0
M  V30 2589 H 235.561 -5.86747 1.25887 0
M  V30 2590 H 236.631 -4.53242 1.72335 0
M  V30 2591 N 237.974 -0.419461 -1.51915 0
M  V30 2592 C 239.202 0.152136 -2.0634 0
M  V30 2593 C 239.617 1.37988 -1.28859 0
M  V30 2594 O 238.974 1.79243 -0.343232 0
M  V30 2595 C 239.025 0.492266 -3.58133 0
M  V30 2596 O 238.746 -0.686736 -4.32684 0
M  V30 2597 C 240.247 1.11648 -4.2901 0
M  V30 2598 H 237.467 0.0158325 -0.670813 0
M  V30 2599 H 240.011 -0.593394 -1.95702 0
M  V30 2600 H 238.166 1.18769 -3.68745 0
M  V30 2601 H 238.58 -0.400341 -5.2297 0
M  V30 2602 H 240.054 1.3046 -5.36362 0
M  V30 2603 H 240.531 2.09251 -3.86148 0
M  V30 2604 H 241.137 0.460958 -4.22795 0
M  V30 2605 N 239.452 1.56882 -0.150215 0
M  V30 2606 C 240.7 1.9584 0.499105 0
M  V30 2607 C 241.021 1.03623 1.65188 0
M  V30 2608 O 240.291 0.0984084 1.95653 0
M  V30 2609 H 238.871 0.723119 0.187373 0
M  V30 2610 H 241.533 1.9358 -0.226466 0
M  V30 2611 H 240.629 2.99638 0.873122 0
M  V30 2612 N 240.93 -0.123565 1.57115 0
M  V30 2613 C 241.84 -1.17074 2.033 0
M  V30 2614 C 242.856 -1.4561 0.952559 0
M  V30 2615 O 244.032 -1.56817 1.26374 0
M  V30 2616 C 241.097 -2.47857 2.42421 0
M  V30 2617 C 240.158 -2.26758 3.64526 0
M  V30 2618 C 239.391 -3.51305 4.01771 0
M  V30 2619 O 239.614 -4.5843 3.39409 0
M  V30 2620 O 238.548 -3.42578 4.94898 0
M  V30 2621 H 242.374 -0.808555 2.92739 0
M  V30 2622 H 239.959 -0.334027 1.45618 0
M  V30 2623 H 241.841 -3.2492 2.68338 0
M  V30 2624 H 240.516 -2.83558 1.5613 0
M  V30 2625 H 239.423 -1.47569 3.43765 0
M  V30 2626 H 240.756 -1.95963 4.51508 0
M  V30 2627 N 242.408 -1.52605 -0.393616 0
M  V30 2628 C 243.656 -1.67093 -1.13685 0
M  V30 2629 C 243.977 -0.411011 -1.90619 0
M  V30 2630 O 243.247 0.574491 -1.87287 0
M  V30 2631 H 241.827 -0.615923 -0.422668 0
M  V30 2632 H 244.489 -1.89704 -0.447039 0
M  V30 2633 H 243.585 -2.51922 -1.84232 0
M  V30 2634 N 243.887 0.651787 -1.4349 0
M  V30 2635 C 245.133 1.41376 -1.45398 0
M  V30 2636 C 245.466 1.94041 -0.0784823 0
M  V30 2637 O 244.741 1.72379 0.900878 0
M  V30 2638 C 245.024 2.59414 -2.49752 0
M  V30 2639 C 244.877 2.12232 -3.96582 0
M  V30 2640 C 246.196 3.61626 -2.50827 0
M  V30 2641 H 243.315 0.512719 -0.529422 0
M  V30 2642 H 245.957 0.738796 -1.75048 0
M  V30 2643 H 244.107 3.16997 -2.246 0
M  V30 2644 H 245.779 1.59639 -4.32797 0
M  V30 2645 H 244.022 1.43592 -4.09346 0
M  V30 2646 H 244.693 2.9712 -4.65214 0
M  V30 2647 H 247.169 3.13805 -2.7325 0
M  V30 2648 H 246.045 4.41766 -3.25783 0
M  V30 2649 H 246.306 4.14314 -1.5426 0
M  V30 2650 N 245.365 1.30045 0.890287 0
M  V30 2651 C 246.297 1.11786 2.00091 0
M  V30 2652 C 247.31 0.0626307 1.62679 0
M  V30 2653 O 248.499 0.308112 1.75821 0
M  V30 2654 C 245.599 0.681527 3.31977 0
M  V30 2655 C 244.772 1.81735 3.97858 0
M  V30 2656 C 243.831 1.37045 5.08041 0
M  V30 2657 O 242.857 2.07677 5.29961 0
M  V30 2658 N 244.059 0.246525 5.79976 0
M  V30 2659 H 246.824 2.07441 2.16306 0
M  V30 2660 H 244.385 1.2211 1.06305 0
M  V30 2661 H 246.377 0.365675 4.03045 0
M  V30 2662 H 244.947 -0.182828 3.12065 0
M  V30 2663 H 244.167 2.30159 3.20032 0
M  V30 2664 H 245.455 2.57865 4.38615 0
M  V30 2665 H 244.853 -0.34215 5.64664 0
M  V30 2666 H 243.41 -0.00990438 6.51799 0
M  V30 2667 N 246.843 -1.10192 1.12674 0
M  V30 2668 C 248.12 -1.78717 0.794965 0
M  V30 2669 C 248.5 -1.98628 -0.714853 0
M  V30 2670 O 247.848 -1.58135 -1.64941 0
M  V30 2671 C 248.058 -3.11546 1.5729 0
M  V30 2672 C 249.406 -3.86382 1.76052 0
M  V30 2673 O 250.43 -3.21274 1.53823 0
M  V30 2674 O 249.289 -5.03246 2.13087 0
M  V30 2675 H 246.383 -0.774702 0.289423 0
M  V30 2676 H 248.929 -1.16819 1.23091 0
M  V30 2677 H 247.701 -2.92489 2.59935 0
M  V30 2678 H 247.324 -3.81164 1.13137 0
M  V30 2679 N 248.321 -0.919034 -1.28029 0
M  V30 2680 C 249.569 -0.553838 -1.94363 0
M  V30 2681 C 249.89 0.906357 -1.72656 0
M  V30 2682 O 249.16 1.64143 -1.0693 0
M  V30 2683 H 247.74 -0.201834 -0.719216 0
M  V30 2684 H 250.402 -1.16954 -1.55909 0
M  V30 2685 H 249.498 -0.752758 -3.02886 0
M  V30 2686 N 249.799 1.42003 -0.683588 0
M  V30 2687 C 250.732 2.28166 0.039592 0
M  V30 2688 C 251.71 1.41562 0.799942 0
M  V30 2689 O 252.894 1.70997 0.793248 0
M  V30 2690 C 250.021 3.21575 1.06335 0
M  V30 2691 C 249.067 4.24643 0.397562 0
M  V30 2692 S 249.9 5.2869 -0.851296 0
M  V30 2693 C 251.056 6.25666 0.171166 0
M  V30 2694 H 251.289 2.89153 -0.691229 0
M  V30 2695 H 248.822 1.46962 -0.473435 0
M  V30 2696 H 250.78 3.75928 1.6489 0
M  V30 2697 H 249.441 2.59707 1.76667 0
M  V30 2698 H 248.634 4.90223 1.17035 0
M  V30 2699 H 248.236 3.73824 -0.114611 0
M  V30 2700 H 250.528 6.69653 1.02819 0
M  V30 2701 H 251.471 7.06666 -0.450397 0
M  V30 2702 H 251.879 5.62095 0.520578 0
M  V30 2703 N 251.277 0.427512 1.51691 0
M  V30 2704 C 252.225 -0.403359 2.29076 0
M  V30 2705 C 253.219 -1.02962 1.34518 0
M  V30 2706 O 254.425 -0.965715 1.51901 0
M  V30 2707 H 250.8 -0.148879 0.737115 0
M  V30 2708 H 252.771 0.270295 2.97173 0
M  V30 2709 C 251.52 -1.49763 3.13794 0
M  V30 2710 H 250.843 -1.02508 3.86435 0
M  V30 2711 H 252.283 -2.05244 3.71014 0
M  V30 2712 C 250.742 -2.47536 2.28533 0
M  V30 2713 O 251.272 -3.51848 1.93819 0
M  V30 2714 N 249.478 -2.18187 1.91945 0
M  V30 2715 H 249.025 -1.33389 2.20375 0
M  V30 2716 H 248.983 -2.83848 1.35195 0
M  V30 2717 N 252.755 -1.56801 0.158532 0
M  V30 2718 C 254.001 -1.97559 -0.483957 0
M  V30 2719 C 254.356 -1.04239 -1.61716 0
M  V30 2720 O 253.649 -0.079603 -1.91435 0
M  V30 2721 C 253.843 -3.4235 -1.02623 0
M  V30 2722 C 253.672 -4.49669 0.0528929 0
M  V30 2723 C 252.442 -5.02838 0.498234 0
M  V30 2724 C 254.64 -5.0725 0.848616 0
M  V30 2725 N 252.622 -5.93775 1.559 0
M  V30 2726 C 253.993 -5.94506 1.7596 0
M  V30 2727 C 256.048 -4.89788 0.895121 0
M  V30 2728 C 254.751 -6.66169 2.71314 0
M  V30 2729 C 256.777 -5.62161 1.83654 0
M  V30 2730 C 256.139 -6.49134 2.73503 0
M  V30 2731 H 252.238 -0.768332 -0.145566 0
M  V30 2732 H 254.822 -1.93012 0.255799 0
M  V30 2733 H 252.993 -3.47467 -1.73555 0
M  V30 2734 H 254.725 -3.70145 -1.63629 0
M  V30 2735 H 251.48 -4.73498 0.0983222 0
M  V30 2736 H 251.904 -6.43948 2.08949 0
M  V30 2737 H 256.546 -4.22255 0.21453 0
M  V30 2738 H 254.264 -7.32923 3.40367 0
M  V30 2739 H 257.85 -5.5064 1.87847 0
M  V30 2740 H 256.73 -7.04153 3.45163 0
M  V30 2741 N 254.233 0.115231 -1.57178 0
M  V30 2742 C 255.479 0.82357 -1.85325 0
M  V30 2743 C 255.812 1.79349 -0.744814 0
M  V30 2744 O 255.087 1.92899 0.249024 0
M  V30 2745 C 255.37 1.57014 -3.24066 0
M  V30 2746 C 255.223 0.619565 -4.45513 0
M  V30 2747 C 256.542 2.52545 -3.60429 0
M  V30 2748 H 253.661 0.297948 -0.674089 0
M  V30 2749 H 256.303 0.0877138 -1.89797 0
M  V30 2750 H 254.453 2.19742 -3.20383 0
M  V30 2751 H 256.125 0.000837639 -4.613 0
M  V30 2752 H 254.368 -0.0686174 -4.33746 0
M  V30 2753 H 255.039 1.17866 -5.3927 0
M  V30 2754 H 257.515 1.9992 -3.64926 0
M  V30 2755 H 256.391 3.01811 -4.58477 0
M  V30 2756 H 256.652 3.35383 -2.88047 0
M  V30 2757 N 255.711 1.52812 0.385517 0
M  V30 2758 C 256.951 1.69716 1.13911 0
M  V30 2759 C 257.315 0.42962 1.87132 0
M  V30 2760 O 258.516 0.475071 2.64569 0
M  V30 2761 C 256.787 2.90021 2.0886 0
M  V30 2762 S 258.346 3.27531 2.92009 0
M  V30 2763 H 255.164 0.59739 0.385547 0
M  V30 2764 H 257.766 1.90868 0.423061 0
M  V30 2765 H 256.47 3.80493 1.53797 0
M  V30 2766 H 256.001 2.71213 2.84969 0
M  V30 2767 H 258.016 2.77989 4.11019 0
M  V30 2768 N 257.189 -0.644168 1.43834 0
M  V30 2769 C 258.136 -1.75671 1.49694 0
M  V30 2770 C 259.106 -1.6246 0.345809 0
M  V30 2771 O 260.291 -1.82573 0.554234 0
M  V30 2772 C 257.431 -3.13867 1.43463 0
M  V30 2773 C 256.544 -3.38147 2.6885 0
M  V30 2774 C 255.679 -4.66241 2.54544 0
M  V30 2775 C 254.718 -4.83657 3.75157 0
M  V30 2776 N 253.855 -6.03016 3.59605 0
M  V30 2777 H 258.695 -1.69998 2.44754 0
M  V30 2778 H 256.232 -0.829458 1.21484 0
M  V30 2779 H 258.19 -3.9377 1.37843 0
M  V30 2780 H 256.82 -3.18588 0.519783 0
M  V30 2781 H 255.872 -2.52276 2.84712 0
M  V30 2782 H 257.184 -3.46899 3.58417 0
M  V30 2783 H 256.338 -5.54285 2.46683 0
M  V30 2784 H 255.077 -4.59826 1.62516 0
M  V30 2785 H 254.082 -3.94046 3.83416 0
M  V30 2786 H 255.307 -4.91896 4.68204 0
M  V30 2787 H 253.253 -5.97715 2.7032 0
M  V30 2788 H 253.17 -6.12766 4.42779 0
M  V30 2789 H 254.438 -6.93657 3.55613 0
M  V30 2790 N 258.668 -1.30515 -0.883378 0
M  V30 2791 C 259.616 -1.16941 -2.01066 0
M  V30 2792 C 260.61 -0.0809148 -1.69207 0
M  V30 2793 O 261.816 -0.241877 -1.78367 0
M  V30 2794 H 258.191 -0.361705 -0.659298 0
M  V30 2795 H 260.162 -2.12344 -2.09649 0
M  V30 2796 C 258.911 -0.879694 -3.36388 0
M  V30 2797 H 258.234 -1.70936 -3.61415 0
M  V30 2798 H 259.674 -0.82483 -4.159 0
M  V30 2799 C 258.133 0.417409 -3.34304 0
M  V30 2800 O 258.663 1.43843 -3.75063 0
M  V30 2801 N 256.869 0.429141 -2.87414 0
M  V30 2802 H 256.416 -0.402222 -2.5444 0
M  V30 2803 H 256.374 1.29696 -2.86403 0
M  V30 2804 N 260.146 1.09593 -1.13257 0
M  V30 2805 C 261.392 1.82003 -0.89458 0
M  V30 2806 C 261.725 1.85402 0.577906 0
M  V30 2807 O 261 1.32099 1.42759 0
M  V30 2808 C 261.283 3.28237 -1.48096 0
M  V30 2809 C 261.136 3.3312 -3.02244 0
M  V30 2810 C 262.455 4.24871 -1.14774 0
M  V30 2811 H 259.574 0.66077 -0.326424 0
M  V30 2812 H 262.216 1.28389 -1.40058 0
M  V30 2813 H 260.366 3.74024 -1.05062 0
M  V30 2814 H 262.038 2.95748 -3.54021 0
M  V30 2815 H 260.281 2.72756 -3.37323 0
M  V30 2816 H 260.952 4.3613 -3.38371 0
M  V30 2817 H 263.428 3.87361 -1.51957 0
M  V30 2818 H 262.304 5.25532 -1.58452 0
M  V30 2819 H 262.565 4.42058 -0.0611849 0
M  V30 2820 N 261.624 0.925811 1.2754 0
M  V30 2821 C 262.572 0.413897 2.28888 0
M  V30 2822 C 263.566 -0.500779 1.61829 0
M  V30 2823 O 264.772 -0.38069 1.75928 0
M  V30 2824 H 261.147 0.115274 0.743112 0
M  V30 2825 H 263.118 1.28151 2.69481 0
M  V30 2826 C 261.867 -0.319792 3.46226 0
M  V30 2827 H 261.19 0.374846 3.98039 0
M  V30 2828 H 262.63 -0.642435 4.19105 0
M  V30 2829 C 261.089 -1.53209 3.00048 0
M  V30 2830 O 261.619 -2.6309 3.03557 0
M  V30 2831 N 259.825 -1.38326 2.55566 0
M  V30 2832 H 259.372 -0.489292 2.5291 0
M  V30 2833 H 259.33 -2.19564 2.25031 0
M  V30 2834 N 263.102 -1.41638 0.69111 0
M  V30 2835 C 264.065 -2.29178 0.0319786 0
M  V30 2836 C 265.065 -1.44153 -0.712496 0
M  V30 2837 O 266.255 -1.65354 -0.548053 0
M  V30 2838 C 263.387 -3.26952 -0.965161 0
M  V30 2839 H 264.58 -2.88959 0.802681 0
M  V30 2840 H 262.133 -1.4955 0.454356 0
M  V30 2841 H 262.868 -2.72142 -1.76378 0
M  V30 2842 H 262.653 -3.89685 -0.434522 0
M  V30 2843 H 264.143 -3.92561 -1.42428 0
M  V30 2844 N 264.58 -0.43555 -1.51462 0
M  V30 2845 C 265.527 0.376797 -2.27703 0
M  V30 2846 C 266.497 1.01838 -1.31219 0
M  V30 2847 O 267.682 1.03762 -1.60119 0
M  V30 2848 C 264.822 1.47301 -3.12084 0
M  V30 2849 C 263.935 0.849744 -4.2356 0
M  V30 2850 C 263.07 1.92086 -4.95254 0
M  V30 2851 C 262.109 1.27593 -5.98654 0
M  V30 2852 N 261.246 2.28833 -6.63762 0
M  V30 2853 H 266.086 -0.279734 -2.96684 0
M  V30 2854 H 263.623 -0.149795 -1.46335 0
M  V30 2855 H 265.581 2.11984 -3.59331 0
M  V30 2856 H 264.211 2.0992 -2.45221 0
M  V30 2857 H 263.263 0.0912529 -3.80291 0
M  V30 2858 H 264.575 0.338878 -4.97648 0
M  V30 2859 H 263.729 2.64435 -5.46039 0
M  V30 2860 H 262.468 2.46545 -4.20793 0
M  V30 2861 H 261.473 0.537893 -5.47162 0
M  V30 2862 H 262.698 0.738693 -6.7507 0
M  V30 2863 H 260.644 2.82375 -5.92115 0
M  V30 2864 H 260.561 1.82632 -7.33608 0
M  V30 2865 H 261.829 3.00671 -7.19178 0
M  V30 2866 N 266.058 1.56714 -0.166846 0
M  V30 2867 C 267.005 2.17746 0.765193 0
M  V30 2868 C 267.975 1.11614 1.23011 0
M  V30 2869 O 269.16 1.39745 1.29908 0
M  V30 2870 C 266.3 2.81882 1.9909 0
M  V30 2871 C 265.413 4.02462 1.56997 0
M  V30 2872 C 264.548 4.54537 2.749 0
M  V30 2873 C 263.587 5.67538 2.29275 0
M  V30 2874 N 262.724 6.14142 3.40255 0
M  V30 2875 H 267.564 2.97048 0.237952 0
M  V30 2876 H 265.101 1.4672 0.105725 0
M  V30 2877 H 267.059 3.17221 2.70974 0
M  V30 2878 H 265.689 2.05191 2.49192 0
M  V30 2879 H 264.741 3.72973 0.748037 0
M  V30 2880 H 266.053 4.84273 1.19503 0
M  V30 2881 H 265.207 4.92035 3.54946 0
M  V30 2882 H 263.946 3.71774 3.1565 0
M  V30 2883 H 262.951 5.29597 1.47674 0
M  V30 2884 H 264.176 6.52099 1.89588 0
M  V30 2885 H 262.122 5.3431 3.8059 0
M  V30 2886 H 262.039 6.9093 3.06841 0
M  V30 2887 H 263.307 6.56289 4.206 0
M  V30 2888 N 267.536 -0.106894 1.57237 0
M  V30 2889 C 268.483 -1.13049 2.01217 0
M  V30 2890 C 269.453 -1.40471 0.886403 0
M  V30 2891 O 270.638 -1.52133 1.15153 0
M  V30 2892 C 267.778 -2.4487 2.43172 0
M  V30 2893 C 266.891 -2.24281 3.69218 0
M  V30 2894 C 266.026 -3.49417 4.00101 0
M  V30 2895 C 265.065 -3.24038 5.19294 0
M  V30 2896 N 264.202 -4.41409 5.45988 0
M  V30 2897 H 269.042 -0.748456 2.88448 0
M  V30 2898 H 266.579 -0.358054 1.42676 0
M  V30 2899 H 268.537 -3.21786 2.65537 0
M  V30 2900 H 267.167 -2.80944 1.58967 0
M  V30 2901 H 266.219 -1.38224 3.54398 0
M  V30 2902 H 267.531 -2.01512 4.56283 0
M  V30 2903 H 266.685 -4.34746 4.2318 0
M  V30 2904 H 265.424 -3.75229 3.11535 0
M  V30 2905 H 264.429 -2.37102 4.96047 0
M  V30 2906 H 265.654 -2.99584 6.09447 0
M  V30 2907 H 263.6 -4.67319 4.60379 0
M  V30 2908 H 263.517 -4.21788 6.274 0
M  V30 2909 H 264.785 -5.27836 5.73593 0
M  V30 2910 O 269.053 -1.59537 -0.25105 0
M  V30 2911 H 269.744 -1.71804 -0.894607 0
M  V30 END ATOM
M  V30 BEGIN BOND
M  V30 END BOND
M  V30 END CTAB
M  END
$$$$
