drugbank_target|P49760 Dual specificity protein kinase CLK2 (DB12010)
 OpenBabel12092121153D

  0  0  0     0  0            999 V3000
M  V30 BEGIN CTAB
M  V30 COUNTS 8332 8436 0 0 0
M  V30 BEGIN ATOM
M  V30 1 H -0.908 1.98254 -0.117106 0
M  V30 2 N 0 1.576 0 0
M  V30 3 C 0.933 2.03868 1.02534 0
M  V30 4 C 1.911 0.928543 1.3348 0
M  V30 5 O 3.095 1.19667 1.45644 0
M  V30 6 C 0.222 2.43627 2.35294 0
M  V30 7 C -0.732 3.65373 2.2001 0
M  V30 8 S 0.101 5.13292 1.52614 0
M  V30 9 C 1.257 5.56322 2.86805 0
M  V30 10 H 1.49 2.90518 0.631377 0
M  V30 11 H -0.977 1.52953 0.210867 0
M  V30 12 H 0.981 2.67203 3.11629 0
M  V30 13 H -0.358 1.57376 2.7183 0
M  V30 14 H -1.165 3.90944 3.18086 0
M  V30 15 H -1.563 3.418 1.51819 0
M  V30 16 H 0.729 5.58782 3.83104 0
M  V30 17 H 1.672 6.56266 2.65933 0
M  V30 18 H 2.08 4.83886 2.90714 0
M  V30 19 N 1.4781 -0.272755 1.55222 0
M  V30 20 C 2.8891 -0.84378 1.66545 0
M  V30 21 C 3.2401 -1.87035 0.592641 0
M  V30 22 O 2.3651 -2.14761 -0.265818 0
M  V30 23 C 2.9601 -1.53723 3.01918 0
M  V30 24 C 1.5191 -2.05628 3.15268 0
M  V30 25 C 0.6661 -0.898424 2.62343 0
M  V30 26 H 3.6171 -0.0490998 1.58624 0
M  V30 27 H 3.6381 -2.40421 2.94921 0
M  V30 28 H 3.1501 -0.78983 3.79978 0
M  V30 29 H 1.2511 -2.83329 2.41983 0
M  V30 30 H 1.3641 -2.27142 4.21833 0
M  V30 31 H -0.2719 -1.29186 2.19506 0
M  V30 32 H 0.5111 -0.164528 3.42906 0
M  V30 33 N 2.9562 -1.48159 -0.537278 0
M  V30 34 C 3.9062 -1.5854 -1.63857 0
M  V30 35 C 4.8902 -0.442969 -1.54682 0
M  V30 36 O 6.0822 -0.69401 -1.62827 0
M  V30 37 C 3.2112 -1.62144 -3.02596 0
M  V30 38 C 2.2972 -2.81841 -3.16901 0
M  V30 39 N 2.6882 -4.06337 -3.01204 0
M  V30 40 C 0.9862 -2.79021 -3.47942 0
M  V30 41 C 1.6872 -4.86606 -3.18731 0
M  V30 42 N 0.6632 -4.19288 -3.45974 0
M  V30 43 H 4.4652 -2.5255 -1.50319 0
M  V30 44 H 1.9792 -1.4443 -0.742555 0
M  V30 45 H 3.9762 -1.67674 -3.81695 0
M  V30 46 H 2.6362 -0.69245 -3.17231 0
M  V30 47 H 3.6472 -4.36888 -2.78117 0
M  V30 48 H 0.3242 -1.95347 -3.6898 0
M  V30 49 H 1.7142 -5.95385 -3.11394 0
M  V30 50 N 4.4343 0.785586 -1.36625 0
M  V30 51 C 5.8453 1.36101 -1.27803 0
M  V30 52 C 6.1963 1.96035 0.0804875 0
M  V30 53 O 5.3213 1.92834 0.982042 0
M  V30 54 C 5.9163 2.47442 -2.31426 0
M  V30 55 C 4.4753 3.00789 -2.26281 0
M  V30 56 C 3.6223 1.73896 -2.15999 0
M  V30 57 H 6.5733 0.586928 -1.47448 0
M  V30 58 H 6.5943 3.2656 -1.95291 0
M  V30 59 H 6.1063 2.03791 -3.30289 0
M  V30 60 H 4.2073 3.48851 -1.30896 0
M  V30 61 H 4.3203 3.57343 -3.19128 0
M  V30 62 H 2.6843 1.9628 -1.62316 0
M  V30 63 H 3.4673 1.32368 -3.16755 0
M  V30 64 N 5.9124 1.20967 1.01018 0
M  V30 65 C 7.3284 0.965905 1.27053 0
M  V30 66 C 7.5284 -0.350785 1.98423 0
M  V30 67 O 6.5844 -1.07773 2.28344 0
M  V30 68 C 7.8974 2.15294 2.09926 0
M  V30 69 C 9.4454 2.19463 2.23171 0
M  V30 70 C 9.9204 3.3767 3.09424 0
M  V30 71 N 11.4114 3.37724 3.17012 0
M  V30 72 C 12.1464 4.25837 3.83993 0
M  V30 73 N 11.6424 5.24138 4.53047 0
M  V30 74 N 13.4354 4.1366 3.80581 0
M  V30 75 H 5.5864 2.0565 0.531194 0
M  V30 76 H 7.8494 0.90024 0.297106 0
M  V30 77 H 7.5554 3.10684 1.64828 0
M  V30 78 H 7.4294 2.13923 3.10672 0
M  V30 79 H 9.8164 1.24632 2.6749 0
M  V30 80 H 9.8974 2.2488 1.21912 0
M  V30 81 H 9.5414 4.32791 2.65808 0
M  V30 82 H 9.4714 3.29491 4.10784 0
M  V30 83 H 11.9624 2.6658 2.6785 0
M  V30 84 H 12.2754 5.87684 5.01844 0
M  V30 85 H 10.6204 5.28068 4.5185 0
M  V30 86 H 13.8114 3.36127 3.25785 0
M  V30 87 H 13.9844 4.82538 4.32505 0
M  V30 88 N 7.3905 -1.2043 1.01659 0
M  V30 89 C 8.8065 -1.41852 0.731442 0
M  V30 90 C 9.0065 -1.89358 -0.688898 0
M  V30 91 O 8.0625 -2.06247 -1.45666 0
M  V30 92 C 9.3755 -2.44019 1.75714 0
M  V30 93 C 10.9235 -2.57785 1.77527 0
M  V30 94 C 11.3985 -3.63194 2.79023 0
M  V30 95 N 12.8895 -3.70678 2.77763 0
M  V30 96 C 13.6245 -4.51897 3.52954 0
M  V30 97 N 13.1205 -5.36921 4.37821 0
M  V30 98 N 14.9135 -4.4643 3.41551 0
M  V30 99 H 7.0645 -0.879093 1.93354 0
M  V30 100 H 9.3275 -0.448425 0.835236 0
M  V30 101 H 9.0335 -2.1611 2.77469 0
M  V30 102 H 8.9075 -3.43007 1.56927 0
M  V30 103 H 11.2945 -2.85023 0.764569 0
M  V30 104 H 11.3755 -1.58992 2.00387 0
M  V30 105 H 11.0195 -3.36699 3.80258 0
M  V30 106 H 10.9495 -4.61609 2.53425 0
M  V30 107 H 13.4405 -3.09944 2.16201 0
M  V30 108 H 13.7535 -5.95981 4.91962 0
M  V30 109 H 12.0985 -5.36424 4.41899 0
M  V30 110 H 15.2895 -3.79042 2.74672 0
M  V30 111 H 15.4625 -5.09491 4.00404 0
M  V30 112 N 8.8686 -0.792821 -1.36206 0
M  V30 113 C 10.0986 -0.378275 -2.03107 0
M  V30 114 C 10.5066 1.01119 -1.59911 0
M  V30 115 O 9.8496 1.66052 -0.785658 0
M  V30 116 C 9.9116 -0.366535 -3.57627 0
M  V30 117 C 9.5756 -1.70416 -4.24037 0
M  V30 118 C 10.5726 -2.6602 -4.46687 0
M  V30 119 C 8.2576 -1.98439 -4.6144 0
M  V30 120 C 10.2516 -3.8784 -5.05825 0
M  V30 121 C 7.9386 -3.20525 -5.20295 0
M  V30 122 C 8.9366 -4.15044 -5.42427 0
M  V30 123 O 8.6246 -5.34978 -6.00045 0
M  V30 124 H 8.3566 -0.153543 -0.658332 0
M  V30 125 H 10.9106 -1.07383 -1.75094 0
M  V30 126 H 9.1406 0.385539 -3.84773 0
M  V30 127 H 10.8296 0.0238088 -4.05893 0
M  V30 128 H 11.5956 -2.45658 -4.18183 0
M  V30 129 H 7.4746 -1.25686 -4.43536 0
M  V30 130 H 11.0186 -4.61628 -5.23015 0
M  V30 131 H 6.9156 -3.40764 -5.48225 0
M  V30 132 H 7.6836 -5.36088 -6.18508 0
M  V30 133 N 10.3467 1.47872 -0.545128 0
M  V30 134 C 11.2967 2.26842 0.229456 0
M  V30 135 C 12.2807 1.33626 0.896267 0
M  V30 136 O 13.4727 1.58063 0.79657 0
M  V30 137 C 10.6017 3.19089 1.26638 0
M  V30 138 C 9.6877 4.19783 0.603598 0
M  V30 139 N 10.0787 5.0479 -0.319405 0
M  V30 140 C 8.3767 4.3765 0.858989 0
M  V30 141 C 9.0777 5.77433 -0.703241 0
M  V30 142 N 8.0537 5.43566 -0.0608309 0
M  V30 143 H 11.8557 2.89947 -0.480391 0
M  V30 144 H 9.3697 1.58263 -0.364209 0
M  V30 145 H 11.3667 3.74337 1.83515 0
M  V30 146 H 10.0267 2.5754 1.97745 0
M  V30 147 H 11.0377 5.13244 -0.692889 0
M  V30 148 H 7.7147 3.87281 1.55948 0
M  V30 149 H 9.1047 6.55824 -1.46098 0
M  V30 150 N 11.8248 0.280983 1.55075 0
M  V30 151 C 13.0498 -0.340154 2.04592 0
M  V30 152 C 13.4748 -1.48246 1.15779 0
M  V30 153 O 12.8328 -1.80614 0.15761 0
M  V30 154 C 12.8808 -0.793104 3.5177 0
M  V30 155 O 11.9848 -1.89981 3.66034 0
M  V30 156 H 11.3258 -0.0694289 0.66036 0
M  V30 157 H 13.8558 0.416993 2.00306 0
M  V30 158 H 13.8658 -1.08729 3.93245 0
M  V30 159 H 12.5408 0.0426163 4.15878 0
M  V30 160 H 11.1178 -1.60771 3.36463 0
M  V30 161 N 13.3029 -1.57598 0.00835791 0
M  V30 162 C 14.5279 -1.95617 -0.689103 0
M  V30 163 C 14.9529 -0.883753 -1.66046 0
M  V30 164 O 14.3109 0.157352 -1.80616 0
M  V30 165 C 14.3589 -3.32736 -1.38994 0
M  V30 166 O 13.4629 -3.27631 -2.50463 0
M  V30 167 H 12.8039 -0.638379 -0.182668 0
M  V30 168 H 15.3339 -2.045 0.064036 0
M  V30 169 H 15.3439 -3.68494 -1.75147 0
M  V30 170 H 14.0189 -4.1034 -0.677778 0
M  V30 171 H 12.5959 -3.03561 -2.16576 0
M  V30 172 N 14.781 0.264519 -1.55364 0
M  V30 173 C 15.691 1.34902 -1.91934 0
M  V30 174 C 16.707 1.53595 -0.817593 0
M  V30 175 O 17.883 1.67558 -1.11742 0
M  V30 176 C 14.948 2.68676 -2.19121 0
M  V30 177 C 14.009 2.58657 -3.4263 0
M  V30 178 C 13.242 3.86051 -3.68511 0
M  V30 179 O 13.465 4.87126 -2.96757 0
M  V30 180 O 12.399 3.85744 -4.62045 0
M  V30 181 H 16.225 1.06883 -2.8427 0
M  V30 182 H 13.81 0.463775 -1.42019 0
M  V30 183 H 15.692 3.47759 -2.37995 0
M  V30 184 H 14.367 2.96463 -1.29966 0
M  V30 185 H 13.274 1.7792 -3.29082 0
M  V30 186 H 14.607 2.35818 -4.32031 0
M  V30 187 N 16.2591 1.48442 0.529413 0
M  V30 188 C 17.6751 1.34575 0.858004 0
M  V30 189 C 17.8751 0.3572 1.98309 0
M  V30 190 O 16.9311 -0.221379 2.51528 0
M  V30 191 C 18.2441 2.74617 1.22499 0
M  V30 192 C 19.7921 2.83109 1.33484 0
M  V30 193 C 20.2671 4.23854 1.73526 0
M  V30 194 N 21.7581 4.2653 1.80628 0
M  V30 195 C 22.4931 5.32372 2.12997 0
M  V30 196 N 21.9891 6.48491 2.43786 0
M  V30 197 N 23.7821 5.19766 2.14008 0
M  V30 198 H 15.9331 2.1133 -0.212925 0
M  V30 199 H 18.1961 0.947439 -0.0326199 0
M  V30 200 H 17.9021 3.4852 0.471905 0
M  V30 201 H 17.7761 3.08177 2.17501 0
M  V30 202 H 20.1631 2.09462 2.0787 0
M  V30 203 H 20.2441 2.53168 0.366027 0
M  V30 204 H 19.8881 4.98018 0.997013 0
M  V30 205 H 19.8181 4.5124 2.71459 0
M  V30 206 H 22.3091 3.42772 1.59108 0
M  V30 207 H 22.6221 7.24993 2.67592 0
M  V30 208 H 20.9671 6.51765 2.41304 0
M  V30 209 H 24.1581 4.28066 1.89412 0
M  V30 210 H 24.3311 6.02354 2.38902 0
M  V30 211 N 17.7372 -0.778329 1.37039 0
M  V30 212 C 18.9852 -1.53361 1.31623 0
M  V30 213 C 19.3062 -1.94739 -0.100831 0
M  V30 214 O 18.5762 -1.65797 -1.04347 0
M  V30 215 H 17.1562 -0.568794 0.484234 0
M  V30 216 H 19.8182 -0.926742 1.71457 0
M  V30 217 H 18.9142 -2.43606 1.95096 0
M  V30 218 N 19.2153 -1.21501 -1.00376 0
M  V30 219 C 20.4403 -1.05977 -1.78279 0
M  V30 220 C 20.8653 0.385994 -1.84097 0
M  V30 221 O 20.2233 1.27849 -1.28547 0
M  V30 222 C 20.2713 -1.66302 -3.19963 0
M  V30 223 O 19.3753 -0.909333 -4.0225 0
M  V30 224 H 18.7163 -0.372906 -0.549397 0
M  V30 225 H 21.2463 -1.6107 -1.26165 0
M  V30 226 H 21.2563 -1.70574 -3.70632 0
M  V30 227 H 19.9313 -2.71515 -3.15043 0
M  V30 228 H 18.5083 -0.941795 -3.60811 0
M  V30 229 N 20.6934 1.19889 -1.02296 0
M  V30 230 C 22.1094 1.41462 -0.738954 0
M  V30 231 C 22.3094 1.89721 0.678846 0
M  V30 232 O 21.3654 2.07016 1.4457 0
M  V30 233 C 22.6784 2.43083 -1.77005 0
M  V30 234 C 24.2264 2.5684 -1.78892 0
M  V30 235 C 24.7014 3.61709 -2.80945 0
M  V30 236 N 26.1924 3.69199 -2.79725 0
M  V30 237 C 26.9274 4.50019 -3.55345 0
M  V30 238 N 26.4234 5.34592 -4.40662 0
M  V30 239 N 28.2164 4.44612 -3.43914 0
M  V30 240 H 20.3674 0.868827 -1.93817 0
M  V30 241 H 22.6304 0.44399 -0.837602 0
M  V30 242 H 22.3364 2.14636 -2.78612 0
M  V30 243 H 22.2104 3.4217 -1.58744 0
M  V30 244 H 24.5974 2.84614 -0.779674 0
M  V30 245 H 24.6784 1.57927 -2.01228 0
M  V30 246 H 24.3224 3.34678 -3.82038 0
M  V30 247 H 24.2524 4.60259 -2.5587 0
M  V30 248 H 26.7434 3.08794 -2.17842 0
M  V30 249 H 27.0564 5.93363 -4.95116 0
M  V30 250 H 25.4014 5.34073 -4.44737 0
M  V30 251 H 28.5924 3.7758 -2.76679 0
M  V30 252 H 28.7654 5.0736 -4.031 0
M  V30 253 N 22.1715 0.800033 1.35784 0
M  V30 254 C 23.4195 0.376597 1.9856 0
M  V30 255 C 23.7405 -1.05812 1.63795 0
M  V30 256 O 23.0105 -1.73103 0.917171 0
M  V30 257 H 21.5905 0.136261 0.734467 0
M  V30 258 H 24.2525 1.02442 1.65806 0
M  V30 259 H 23.3485 0.477002 3.08433 0
M  V30 260 N 23.6496 -1.47581 0.552962 0
M  V30 261 C 24.8746 -2.07378 0.0300593 0
M  V30 262 C 25.2996 -1.40355 -1.25229 0
M  V30 263 O 24.6576 -0.477099 -1.7491 0
M  V30 264 C 24.7056 -3.60274 -0.153231 0
M  V30 265 O 23.8096 -3.94041 -1.21678 0
M  V30 266 H 23.1506 -0.662158 0.0494182 0
M  V30 267 H 25.6806 -1.89662 0.767434 0
M  V30 268 H 25.6906 -4.0633 -0.368761 0
M  V30 269 H 24.3656 -4.08455 0.783397 0
M  V30 270 H 22.9426 -3.59735 -0.982079 0
M  V30 271 N 25.1277 -0.289203 -1.54924 0
M  V30 272 C 26.3577 0.325989 -2.04012 0
M  V30 273 C 26.7657 1.48961 -1.1665 0
M  V30 274 O 26.1087 1.82794 -0.1822 0
M  V30 275 C 26.1707 0.856112 -3.49158 0
M  V30 276 C 25.8347 -0.180697 -4.56643 0
M  V30 277 C 26.8317 -1.0051 -5.10092 0
M  V30 278 C 24.5167 -0.318998 -5.01286 0
M  V30 279 C 26.5107 -1.95385 -6.06715 0
M  V30 280 C 24.1977 -1.27121 -5.97732 0
M  V30 281 C 25.1957 -2.08713 -6.50329 0
M  V30 282 O 24.8837 -3.02322 -7.44887 0
M  V30 283 H 24.6157 0.0765276 -0.671654 0
M  V30 284 H 27.1697 -0.423254 -2.00992 0
M  V30 285 H 25.3997 1.65567 -3.49463 0
M  V30 286 H 27.0887 1.38591 -3.81507 0
M  V30 287 H 27.8547 -0.90906 -4.76404 0
M  V30 288 H 23.7337 0.306108 -4.59983 0
M  V30 289 H 27.2777 -2.59111 -6.47694 0
M  V30 290 H 23.1747 -1.36801 -6.30837 0
M  V30 291 H 23.9427 -2.97165 -7.6265 0
M  V30 292 N 26.6058 1.57591 -0.0167156 0
M  V30 293 C 28.0218 1.55946 0.339557 0
M  V30 294 C 28.2218 1.02109 1.73713 0
M  V30 295 O 27.2778 0.662303 2.43659 0
M  V30 296 C 28.5908 3.00037 0.199499 0
M  V30 297 C 30.1388 3.11805 0.273193 0
M  V30 298 C 30.6138 4.57713 0.162068 0
M  V30 299 N 32.1048 4.6268 0.219444 0
M  V30 300 C 32.8398 5.73185 0.157054 0
M  V30 301 N 32.3358 6.92786 0.0442936 0
M  V30 302 N 34.1288 5.61707 0.21014 0
M  V30 303 H 26.2798 1.90921 -0.930758 0
M  V30 304 H 28.5428 0.877674 -0.358319 0
M  V30 305 H 28.2488 3.4333 -0.76273 0
M  V30 306 H 28.1228 3.64387 0.974786 0
M  V30 307 H 30.5098 2.68433 1.22587 0
M  V30 308 H 30.5908 2.50201 -0.532256 0
M  V30 309 H 30.2348 5.01763 -0.78714 0
M  V30 310 H 30.1648 5.17283 0.986222 0
M  V30 311 H 32.6558 3.76649 0.307246 0
M  V30 312 H 32.9688 7.728 0.00304069 0
M  V30 313 H 31.3138 6.94999 0.00968457 0
M  V30 314 H 34.5048 4.6716 0.296546 0
M  V30 315 H 34.6778 6.47807 0.158054 0
M  V30 316 N 28.0839 -0.256276 1.55502 0
M  V30 317 C 28.9939 -1.33882 1.92647 0
M  V30 318 C 30.0099 -1.53159 0.825727 0
M  V30 319 O 31.1859 -1.66963 1.12629 0
M  V30 320 C 28.2509 -2.6751 2.20543 0
M  V30 321 C 27.3119 -2.56836 3.43997 0
M  V30 322 C 26.5449 -3.84092 3.70553 0
M  V30 323 O 26.7679 -4.85545 2.99336 0
M  V30 324 O 25.7019 -3.83288 4.64084 0
M  V30 325 H 29.5279 -1.05374 2.84833 0
M  V30 326 H 27.1129 -0.456237 1.42263 0
M  V30 327 H 28.9949 -3.46492 2.39835 0
M  V30 328 H 27.6699 -2.9577 1.31536 0
M  V30 329 H 26.5769 -1.76172 3.30021 0
M  V30 330 H 27.9099 -2.33523 4.33275 0
M  V30 331 N 29.562 -1.4872 -0.521534 0
M  V30 332 C 30.512 -1.60269 -1.62166 0
M  V30 333 C 31.496 -0.45935 -1.54204 0
M  V30 334 O 32.688 -0.711241 -1.62081 0
M  V30 335 C 29.817 -1.65344 -3.00859 0
M  V30 336 C 28.903 -2.85187 -3.13894 0
M  V30 337 N 29.294 -4.09509 -2.96877 0
M  V30 338 C 27.592 -2.82695 -3.44963 0
M  V30 339 C 28.293 -4.89959 -3.13552 0
M  V30 340 N 27.269 -4.22934 -3.41508 0
M  V30 341 H 31.071 -2.5413 -1.47632 0
M  V30 342 H 28.585 -1.45209 -0.727194 0
M  V30 343 H 30.582 -1.71713 -3.79895 0
M  V30 344 H 29.242 -0.726058 -3.16478 0
M  V30 345 H 30.253 -4.39814 -2.73467 0
M  V30 346 H 26.93 -1.99249 -3.66887 0
M  V30 347 H 28.32 -5.98654 -3.05061 0
M  V30 348 N 31.0401 0.771051 -1.3745 0
M  V30 349 C 32.2701 1.55789 -1.35696 0
M  V30 350 C 32.6781 1.89107 0.0594523 0
M  V30 351 O 32.0211 1.51984 1.03183 0
M  V30 352 C 32.0831 2.89515 -2.13123 0
M  V30 353 C 31.7471 2.78829 -3.62082 0
M  V30 354 C 32.7441 2.49812 -4.5595 0
M  V30 355 C 30.4291 2.9683 -4.05213 0
M  V30 356 C 32.4231 2.38923 -5.90927 0
M  V30 357 C 30.1101 2.85562 -5.40276 0
M  V30 358 C 31.1081 2.56649 -6.32946 0
M  V30 359 O 30.7961 2.45408 -7.65526 0
M  V30 360 H 30.5281 0.489257 -0.466481 0
M  V30 361 H 33.0821 0.963446 -1.81403 0
M  V30 362 H 31.3121 3.51081 -1.62107 0
M  V30 363 H 33.0011 3.50915 -2.03994 0
M  V30 364 H 33.7671 2.3559 -4.23937 0
M  V30 365 H 29.6461 3.18335 -3.33442 0
M  V30 366 H 33.1901 2.16277 -6.63227 0
M  V30 367 H 29.0871 2.99351 -5.71891 0
M  V30 368 H 29.8551 2.60753 -7.75855 0
M  V30 369 N 32.5182 1.22032 0.997298 0
M  V30 370 C 33.9342 0.979326 1.26021 0
M  V30 371 C 34.1342 -0.32972 1.98784 0
M  V30 372 O 33.1902 -1.05345 2.29475 0
M  V30 373 C 34.5032 2.17509 2.07631 0
M  V30 374 C 36.0512 2.21817 2.2083 0
M  V30 375 C 36.5262 3.40933 3.05825 0
M  V30 376 N 38.0172 3.41067 3.13412 0
M  V30 377 C 38.7522 4.29885 3.79455 0
M  V30 378 N 38.2482 5.28914 4.47462 0
M  V30 379 N 40.0412 4.17673 3.76173 0
M  V30 380 H 32.1922 2.06202 0.509352 0
M  V30 381 H 34.4552 0.90334 0.287541 0
M  V30 382 H 34.1612 3.12415 1.61524 0
M  V30 383 H 34.0352 2.17206 3.08385 0
M  V30 384 H 36.4222 1.27462 2.66153 0
M  V30 385 H 36.5032 2.2616 1.1952 0
M  V30 386 H 36.1472 4.35586 2.61203 0
M  V30 387 H 36.0772 3.33829 4.07266 0
M  V30 388 H 38.5682 2.69406 2.65007 0
M  V30 389 H 38.8812 5.92973 4.95583 0
M  V30 390 H 37.2262 5.32831 4.46224 0
M  V30 391 H 40.4172 3.39564 3.22202 0
M  V30 392 H 40.5902 4.87098 4.27363 0
M  V30 393 N 33.9963 -1.19345 1.0293 0
M  V30 394 C 35.2213 -1.93538 0.745511 0
M  V30 395 C 35.6463 -1.75007 -0.689511 0
M  V30 396 O 35.0043 -1.05265 -1.47611 0
M  V30 397 C 35.0523 -3.43336 1.10239 0
M  V30 398 O 34.1563 -4.11806 0.221289 0
M  V30 399 H 33.4973 -0.604193 0.275404 0
M  V30 400 H 36.0273 -1.5141 1.37609 0
M  V30 401 H 36.0373 -3.94004 1.05947 0
M  V30 402 H 34.7123 -3.56146 2.14786 0
M  V30 403 H 33.2893 -3.715 0.322842 0
M  V30 404 N 35.4744 -0.807222 -1.35358 0
M  V30 405 C 36.8904 -0.491038 -1.51858 0
M  V30 406 C 37.0904 0.987648 -1.75635 0
M  V30 407 O 36.1464 1.77265 -1.79815 0
M  V30 408 C 37.4594 -1.33695 -2.69344 0
M  V30 409 C 39.0074 -1.33246 -2.83222 0
M  V30 410 C 39.4824 -2.1625 -4.03733 0
M  V30 411 N 40.9734 -2.1379 -4.10911 0
M  V30 412 C 41.7084 -2.74772 -5.03277 0
M  V30 413 N 41.2044 -3.44684 -6.0097 0
M  V30 414 N 42.9974 -2.6441 -4.96028 0
M  V30 415 H 35.1484 -1.76485 -1.18181 0
M  V30 416 H 37.4114 -0.751199 -0.578276 0
M  V30 417 H 37.1174 -2.38634 -2.58354 0
M  V30 418 H 36.9914 -0.990618 -3.6396 0
M  V30 419 H 39.3784 -0.290911 -2.93663 0
M  V30 420 H 39.4594 -1.71866 -1.89461 0
M  V30 421 H 39.1034 -3.20445 -3.94052 0
M  V30 422 H 39.0334 -1.74989 -4.96675 0
M  V30 423 H 41.5244 -1.62923 -3.40976 0
M  V30 424 H 41.8374 -3.88501 -6.68047 0
M  V30 425 H 40.1824 -3.48788 -6.01142 0
M  V30 426 H 43.3734 -2.0938 -4.18662 0
M  V30 427 H 43.5464 -3.12225 -5.6782 0
M  V30 428 N 36.9525 1.47285 -0.560781 0
M  V30 429 C 37.8995 2.30058 0.18491 0
M  V30 430 C 38.8695 1.39281 0.904986 0
M  V30 431 O 40.0545 1.68241 0.899979 0
M  V30 432 C 37.1945 3.23317 1.20666 0
M  V30 433 C 36.3075 4.29186 0.492285 0
M  V30 434 C 35.4425 5.09592 1.49964 0
M  V30 435 C 34.4815 6.07232 0.770439 0
M  V30 436 N 33.6185 6.80584 1.72479 0
M  V30 437 H 38.4585 2.93302 -0.527048 0
M  V30 438 H 35.9955 1.44568 -0.271738 0
M  V30 439 H 37.9535 3.75811 1.81168 0
M  V30 440 H 36.5835 2.61929 1.88661 0
M  V30 441 H 35.6355 3.7972 -0.227333 0
M  V30 442 H 36.9475 4.98738 -0.0787929 0
M  V30 443 H 36.1015 5.66254 2.17809 0
M  V30 444 H 34.8405 4.3995 2.10464 0
M  V30 445 H 33.8455 5.49745 0.0780846 0
M  V30 446 H 35.0705 6.78884 0.171134 0
M  V30 447 H 33.0165 6.1367 2.3183 0
M  V30 448 H 32.9335 7.46319 1.20596 0
M  V30 449 H 34.2015 7.41818 2.39428 0
M  V30 450 N 38.4306 0.297415 1.54768 0
M  V30 451 C 39.3806 -0.595275 2.20092 0
M  V30 452 C 40.3646 -1.10163 1.17273 0
M  V30 453 O 41.5566 -1.043 1.43006 0
M  V30 454 C 38.6856 -1.7684 2.94249 0
M  V30 455 C 37.7716 -1.27818 4.0438 0
M  V30 456 N 38.1626 -0.505695 5.03266 0
M  V30 457 C 36.4606 -1.55923 4.17857 0
M  V30 458 C 37.1616 -0.245094 5.81183 0
M  V30 459 N 36.1376 -0.823881 5.3732 0
M  V30 460 H 39.9396 0.00250837 2.939 0
M  V30 461 H 37.4536 0.102007 1.62079 0
M  V30 462 H 39.4506 -2.41944 3.39513 0
M  V30 463 H 38.1106 -2.36992 2.21957 0
M  V30 464 H 39.1216 -0.150928 5.1768 0
M  V30 465 H 35.7986 -2.16849 3.56767 0
M  V30 466 H 37.1886 0.375084 6.70852 0
M  V30 467 N 39.9087 -1.5758 0.0250728 0
M  V30 468 C 40.8557 -2.09973 -0.958129 0
M  V30 469 C 41.8257 -1.00085 -1.3256 0
M  V30 470 O 43.0107 -1.27481 -1.41962 0
M  V30 471 C 40.1507 -2.62812 -2.2366 0
M  V30 472 C 39.2637 -3.86693 -1.92594 0
M  V30 473 C 38.3987 -4.27941 -3.14707 0
M  V30 474 C 37.4377 -5.44591 -2.79442 0
M  V30 475 N 36.5747 -5.81014 -3.94167 0
M  V30 476 H 41.4147 -2.937 -0.504428 0
M  V30 477 H 38.9517 -1.45172 -0.237392 0
M  V30 478 H 40.9097 -2.91536 -2.98434 0
M  V30 479 H 39.5397 -1.81922 -2.66654 0
M  V30 480 H 38.5917 -3.64723 -1.0808 0
M  V30 481 H 39.9037 -4.71547 -1.62619 0
M  V30 482 H 39.0577 -4.58079 -3.97804 0
M  V30 483 H 37.7967 -3.41845 -3.4784 0
M  V30 484 H 36.8017 -5.1415 -1.94755 0
M  V30 485 H 38.0267 -6.32382 -2.47528 0
M  V30 486 H 35.9727 -4.97874 -4.2715 0
M  V30 487 H 35.8897 -6.60498 -3.67801 0
M  V30 488 H 37.1577 -6.15756 -4.7798 0
M  V30 489 N 41.3868 0.248026 -1.55636 0
M  V30 490 C 42.8028 0.596483 -1.48035 0
M  V30 491 C 43.0028 1.88386 -0.715039 0
M  V30 492 O 42.0588 2.51319 -0.243944 0
M  V30 493 C 43.3718 0.700258 -2.92433 0
M  V30 494 C 44.9198 0.792659 -3.02797 0
M  V30 495 C 45.3948 0.928005 -4.485 0
M  V30 496 N 46.8858 0.992903 -4.52433 0
M  V30 497 C 47.6208 1.11687 -5.62418 0
M  V30 498 N 47.1168 1.20645 -6.82214 0
M  V30 499 N 48.9098 1.14994 -5.50212 0
M  V30 500 H 41.0608 -0.597109 -2.03834 0
M  V30 501 H 43.3238 -0.205925 -0.925364 0
M  V30 502 H 43.0298 -0.175658 -3.51261 0
M  V30 503 H 42.9038 1.57255 -3.42857 0
M  V30 504 H 45.2908 1.65903 -2.4405 0
M  V30 505 H 45.3718 -0.104762 -2.55585 0
M  V30 506 H 45.0158 0.0661971 -5.07857 0
M  V30 507 H 44.9458 1.84045 -4.93391 0
M  V30 508 H 47.4368 0.935064 -3.66149 0
M  V30 509 H 47.7498 1.30008 -7.61786 0
M  V30 510 H 46.0948 1.17605 -6.84977 0
M  V30 511 H 49.2858 1.07643 -4.55555 0
M  V30 512 H 49.4588 1.24311 -6.35965 0
M  V30 513 N 42.8649 1.48995 0.513639 0
M  V30 514 C 44.2809 1.35478 0.843682 0
M  V30 515 C 44.4809 0.378213 1.97919 0
M  V30 516 O 43.5369 -0.194689 2.51748 0
M  V30 517 C 44.8499 2.75901 1.1958 0
M  V30 518 C 46.3979 2.84509 1.30474 0
M  V30 519 C 46.8729 4.25671 1.69021 0
M  V30 520 N 48.3639 4.28422 1.76094 0
M  V30 521 C 49.0989 5.34601 2.07338 0
M  V30 522 N 48.5949 6.5104 2.36894 0
M  V30 523 N 50.3879 5.22007 2.08483 0
M  V30 524 H 42.5389 2.11092 -0.235328 0
M  V30 525 H 44.8019 0.947039 -0.0426669 0
M  V30 526 H 44.5079 3.49001 0.434913 0
M  V30 527 H 44.3819 3.10467 2.1422 0
M  V30 528 H 46.7689 2.11655 2.05637 0
M  V30 529 H 46.8499 2.53542 0.339155 0
M  V30 530 H 46.4939 4.99048 0.944135 0
M  V30 531 H 46.4239 4.54094 2.66658 0
M  V30 532 H 48.9149 3.44441 1.55464 0
M  V30 533 H 49.2279 7.2779 2.59887 0
M  V30 534 H 47.5729 6.54287 2.34378 0
M  V30 535 H 50.7639 4.30051 1.84861 0
M  V30 536 H 50.9369 6.04854 2.325 0
M  V30 537 N 44.343 -0.763751 1.37857 0
M  V30 538 C 45.759 -1.06542 1.18832 0
M  V30 539 C 45.959 -2.01478 0.0299722 0
M  V30 540 O 45.015 -2.4458 -0.627447 0
M  V30 541 C 46.328 -1.65525 2.51042 0
M  V30 542 C 47.876 -1.77745 2.57635 0
M  V30 543 C 48.351 -2.4014 3.89996 0
M  V30 544 N 49.842 -2.47582 3.91481 0
M  V30 545 C 50.577 -2.96732 4.9065 0
M  V30 546 N 50.073 -3.45993 6.00217 0
M  V30 547 N 51.866 -2.95679 4.78048 0
M  V30 548 H 44.017 -0.133556 2.1198 0
M  V30 549 H 46.28 -0.121879 0.940133 0
M  V30 550 H 45.986 -1.03236 3.36207 0
M  V30 551 H 45.86 -2.64719 2.68707 0
M  V30 552 H 48.247 -2.39164 1.72872 0
M  V30 553 H 48.328 -0.772836 2.43846 0
M  V30 554 H 47.972 -1.79358 4.75177 0
M  V30 555 H 47.902 -3.41223 4.01092 0
M  V30 556 H 50.393 -2.1273 3.12337 0
M  V30 557 H 50.706 -3.81922 6.7183 0
M  V30 558 H 49.051 -3.44077 6.03851 0
M  V30 559 H 52.242 -2.56499 3.91568 0
M  V30 560 H 52.415 -3.33672 5.55488 0
M  V30 561 N 45.8211 -1.22559 -0.990812 0
M  V30 562 C 47.0461 -1.07862 -1.77145 0
M  V30 563 C 47.4711 0.366447 -1.84496 0
M  V30 564 O 46.8291 1.26478 -1.29896 0
M  V30 565 C 46.8771 -1.69686 -3.18181 0
M  V30 566 O 45.9811 -0.951946 -4.01263 0
M  V30 567 H 45.3221 -0.378712 -0.545411 0
M  V30 568 H 47.8521 -1.62399 -1.2445 0
M  V30 569 H 47.8621 -1.74496 -3.68802 0
M  V30 570 H 46.5371 -2.74841 -3.12146 0
M  V30 571 H 45.1141 -0.980011 -3.59792 0
M  V30 572 N 47.2992 1.18797 -1.03562 0
M  V30 573 C 48.7152 1.40671 -0.753917 0
M  V30 574 C 48.9152 1.9043 0.658686 0
M  V30 575 O 47.9712 2.08538 1.42366 0
M  V30 576 C 49.2842 2.41192 -1.79574 0
M  V30 577 C 50.8322 2.54928 -1.81606 0
M  V30 578 C 51.3072 3.58709 -2.84766 0
M  V30 579 N 52.7982 3.66212 -2.83625 0
M  V30 580 C 53.5332 4.46225 -3.60098 0
M  V30 581 N 53.0292 5.29888 -4.46308 0
M  V30 582 N 54.8222 4.40939 -3.4861 0
M  V30 583 H 46.9732 0.848221 -1.94728 0
M  V30 584 H 49.2362 0.435081 -0.842264 0
M  V30 585 H 48.9422 2.11669 -2.80872 0
M  V30 586 H 48.8162 3.40467 -1.62365 0
M  V30 587 H 51.2032 2.83771 -0.809817 0
M  V30 588 H 51.2842 1.55784 -2.02891 0
M  V30 589 H 50.9282 3.30607 -3.85566 0
M  V30 590 H 50.8582 4.57519 -2.60737 0
M  V30 591 H 53.3492 3.06466 -2.21105 0
M  V30 592 H 53.6622 5.88078 -5.01382 0
M  V30 593 H 52.0072 5.29326 -4.50377 0
M  V30 594 H 55.1982 3.74624 -2.80668 0
M  V30 595 H 55.3712 5.03056 -4.08459 0
M  V30 596 N 48.7773 0.814389 1.34928 0
M  V30 597 C 50.0023 0.410097 2.03305 0
M  V30 598 C 50.4273 -0.973464 1.60951 0
M  V30 599 O 49.7853 -1.63185 0.789964 0
M  V30 600 C 49.8333 0.51049 3.56968 0
M  V30 601 O 48.9373 -0.473035 4.09678 0
M  V30 602 H 48.2783 0.170088 0.641846 0
M  V30 603 H 50.8083 1.10244 1.72358 0
M  V30 604 H 50.8183 0.383135 4.06197 0
M  V30 605 H 49.4933 1.51963 3.87144 0
M  V30 606 H 48.0703 -0.305272 3.71648 0
M  V30 607 N 50.2554 -1.46986 0.568584 0
M  V30 608 C 51.5014 -2.0332 0.0571487 0
M  V30 609 C 51.8564 -1.43384 -1.28291 0
M  V30 610 O 51.1494 -0.584304 -1.82473 0
M  V30 611 C 51.3434 -3.57306 -0.081836 0
M  V30 612 C 51.1724 -4.32174 1.24321 0
M  V30 613 C 49.9424 -4.71633 1.81358 0
M  V30 614 C 52.1404 -4.66598 2.16312 0
M  V30 615 N 50.1224 -5.31191 3.07748 0
M  V30 616 C 51.4934 -5.26578 3.27285 0
M  V30 617 C 53.5484 -4.48527 2.16166 0
M  V30 618 C 52.2514 -5.70395 4.38226 0
M  V30 619 C 54.2774 -4.93351 3.26127 0
M  V30 620 C 53.6394 -5.5339 4.3582 0
M  V30 621 H 49.7384 -0.77943 0.063351 0
M  V30 622 H 52.3224 -1.79323 0.758378 0
M  V30 623 H 50.4934 -3.81046 -0.752207 0
M  V30 624 H 52.2254 -4.00282 -0.59637 0
M  V30 625 H 48.9804 -4.53946 1.35019 0
M  V30 626 H 49.4044 -5.65505 3.72201 0
M  V30 627 H 54.0464 -4.01456 1.32638 0
M  V30 628 H 51.7644 -6.16452 5.22506 0
M  V30 629 H 55.3504 -4.81131 3.27115 0
M  V30 630 H 54.2304 -5.87441 5.19503 0
M  V30 631 N 51.7335 -0.305618 -1.54608 0
M  V30 632 C 52.9585 0.307562 -2.05107 0
M  V30 633 C 53.3835 1.46385 -1.18123 0
M  V30 634 O 52.7415 1.8034 -0.186324 0
M  V30 635 C 52.7895 0.73704 -3.52987 0
M  V30 636 O 51.8935 1.84134 -3.6901 0
M  V30 637 H 51.2345 0.0589143 -0.661381 0
M  V30 638 H 53.7645 -0.448807 -1.99617 0
M  V30 639 H 53.7745 1.02459 -3.94925 0
M  V30 640 H 52.4495 -0.108773 -4.15758 0
M  V30 641 H 51.0265 1.55398 -3.38978 0
M  V30 642 N 53.2116 1.57565 -0.0334293 0
M  V30 643 C 54.4366 1.96689 0.657895 0
M  V30 644 C 54.8616 0.910057 1.64619 0
M  V30 645 O 54.2196 -0.128598 1.80843 0
M  V30 646 C 54.2676 3.34905 1.33683 0
M  V30 647 O 53.3716 3.31574 2.45219 0
M  V30 648 H 52.7126 0.641205 0.172489 0
M  V30 649 H 55.2426 2.04372 -0.0965621 0
M  V30 650 H 55.2526 3.71234 1.69262 0
M  V30 651 H 53.9276 4.11366 0.612411 0
M  V30 652 H 52.5046 3.06968 2.11719 0
M  V30 653 N 54.6897 -0.239769 1.55765 0
M  V30 654 C 55.9147 -0.988373 1.82335 0
M  V30 655 C 56.3397 -1.77886 0.611421 0
M  V30 656 O 55.6977 -1.75889 -0.439639 0
M  V30 657 C 55.7457 -1.89627 3.06715 0
M  V30 658 O 54.8497 -2.98904 2.84131 0
M  V30 659 H 54.1907 -0.280858 0.601677 0
M  V30 660 H 56.7207 -0.258597 2.02959 0
M  V30 661 H 56.7307 -2.30957 3.36338 0
M  V30 662 H 55.4057 -1.31511 3.9456 0
M  V30 663 H 53.9827 -2.61651 2.65694 0
M  V30 664 N 56.1678 -1.49265 -0.50573 0
M  V30 665 C 57.3928 -1.62478 -1.28902 0
M  V30 666 C 57.8178 -0.294332 -1.85783 0
M  V30 667 O 57.1758 0.737412 -1.65626 0
M  V30 668 C 57.2238 -2.69268 -2.39848 0
M  V30 669 O 56.3278 -2.28113 -3.43567 0
M  V30 670 H 55.6688 -0.54399 -0.380751 0
M  V30 671 H 58.1988 -1.95421 -0.605952 0
M  V30 672 H 58.2088 -2.91291 -2.85681 0
M  V30 673 H 56.8838 -3.65846 -1.97812 0
M  V30 674 H 55.4608 -2.16401 -3.03685 0
M  V30 675 N 57.6459 0.756429 -1.3826 0
M  V30 676 C 58.9229 1.50584 -1.24835 0
M  V30 677 C 59.3029 2.10556 0.151485 0
M  V30 678 O 58.6509 1.96825 1.1607 0
M  V30 679 C 58.8609 2.57448 -2.3563 0
M  V30 680 C 60.2089 3.24429 -2.73917 0
M  V30 681 O 61.2329 2.67751 -2.34921 0
M  V30 682 O 60.0919 4.26937 -3.41156 0
M  V30 683 H 57.1859 0.667664 -0.48801 0
M  V30 684 H 59.7319 0.792083 -1.5008 0
M  V30 685 H 58.5039 2.11362 -3.29305 0
M  V30 686 H 58.1269 3.36408 -2.11933 0
M  V30 687 N 59.124 1.23083 0.984299 0
M  V30 688 C 60.54 0.992637 1.24975 0
M  V30 689 C 60.74 -0.308618 1.99123 0
M  V30 690 O 59.796 -1.02905 2.30579 0
M  V30 691 C 61.109 2.19698 2.05312 0
M  V30 692 C 62.657 2.24147 2.18465 0
M  V30 693 C 63.132 3.44157 3.02192 0
M  V30 694 N 64.623 3.44372 3.09777 0
M  V30 695 C 65.358 4.33886 3.74874 0
M  V30 696 N 64.854 5.3363 4.41827 0
M  V30 697 N 66.647 4.21639 3.71721 0
M  V30 698 H 58.798 2.06731 0.487453 0
M  V30 699 H 61.061 0.906339 0.277944 0
M  V30 700 H 60.767 3.1411 1.58201 0
M  V30 701 H 60.641 2.20465 3.06064 0
M  V30 702 H 63.028 1.30277 2.64786 0
M  V30 703 H 63.109 2.27415 1.17115 0
M  V30 704 H 62.753 4.38332 2.56568 0
M  V30 705 H 62.683 3.3813 4.03702 0
M  V30 706 H 65.174 2.72201 2.62135 0
M  V30 707 H 65.487 5.98196 4.89266 0
M  V30 708 H 63.832 5.37534 4.40548 0
M  V30 709 H 67.023 3.42962 3.18582 0
M  V30 710 H 67.196 4.91604 4.22173 0
M  V30 711 N 60.6021 -1.18246 1.0419 0
M  V30 712 C 61.8301 -1.92195 0.766072 0
M  V30 713 C 62.2451 -1.76247 -0.676933 0
M  V30 714 O 61.6021 -1.09293 -1.46155 0
M  V30 715 C 61.6531 -3.43568 1.12442 0
M  V30 716 O 61.3741 -3.59015 2.51078 0
M  V30 717 C 62.8751 -4.34613 0.873275 0
M  V30 718 H 60.0951 -0.610114 0.279288 0
M  V30 719 H 62.6391 -1.50007 1.38989 0
M  V30 720 H 60.7941 -3.8354 0.545542 0
M  V30 721 H 61.2081 -4.5273 2.64831 0
M  V30 722 H 62.6821 -5.39374 1.17385 0
M  V30 723 H 63.1591 -4.38781 -0.191909 0
M  V30 724 H 63.7651 -4.00341 1.43551 0
M  V30 725 N 62.0802 -0.821533 -1.34494 0
M  V30 726 C 63.4962 -0.507117 -1.51329 0
M  V30 727 C 63.6962 0.968964 -1.76673 0
M  V30 728 O 62.7522 1.75348 -1.81685 0
M  V30 729 C 64.0652 -1.36544 -2.67911 0
M  V30 730 C 65.6132 -1.36242 -2.81793 0
M  V30 731 C 66.0882 -2.2052 -4.01416 0
M  V30 732 N 67.5792 -2.18136 -4.08621 0
M  V30 733 C 68.3142 -2.80095 -5.00334 0
M  V30 734 N 67.8102 -3.51039 -5.9728 0
M  V30 735 N 69.6032 -2.69656 -4.93196 0
M  V30 736 H 61.7542 -1.77729 -1.16302 0
M  V30 737 H 64.0172 -0.757291 -0.570276 0
M  V30 738 H 63.7232 -2.41361 -2.55808 0
M  V30 739 H 63.5972 -1.02917 -3.62888 0
M  V30 740 H 65.9842 -0.322041 -2.93338 0
M  V30 741 H 66.0652 -1.73866 -1.87628 0
M  V30 742 H 65.7092 -3.24607 -3.90631 0
M  V30 743 H 65.6392 -1.80247 -4.94791 0
M  V30 744 H 68.1302 -1.6653 -3.39229 0
M  V30 745 H 68.4432 -3.95565 -6.63889 0
M  V30 746 H 66.7882 -3.55145 -5.97409 0
M  V30 747 H 69.9792 -2.13808 -4.16418 0
M  V30 748 H 70.1522 -3.1823 -5.64476 0
M  V30 749 N 63.5583 1.46682 -0.576371 0
M  V30 750 C 64.9743 1.57822 -0.237562 0
M  V30 751 C 65.1743 1.57237 1.26011 0
M  V30 752 O 64.2303 1.48596 2.04146 0
M  V30 753 C 65.5433 2.87499 -0.881168 0
M  V30 754 C 67.0913 3.01119 -0.85417 0
M  V30 755 C 67.5663 4.33524 -1.4772 0
M  V30 756 N 69.0573 4.40207 -1.44125 0
M  V30 757 C 69.7923 5.4126 -1.89276 0
M  V30 758 N 69.2883 6.49021 -2.42371 0
M  V30 759 N 71.0813 5.32422 -1.80231 0
M  V30 760 H 63.2323 1.45306 -1.54919 0
M  V30 761 H 65.4953 0.692733 -0.647167 0
M  V30 762 H 65.2013 2.9372 -1.93447 0
M  V30 763 H 65.0753 3.75224 -0.385592 0
M  V30 764 H 67.4623 2.94485 0.190491 0
M  V30 765 H 67.5433 2.14887 -1.3877 0
M  V30 766 H 67.1873 4.40916 -2.52103 0
M  V30 767 H 67.1173 5.1852 -0.918947 0
M  V30 768 H 69.6083 3.62931 -1.05307 0
M  V30 769 H 69.9213 7.2233 -2.74698 0
M  V30 770 H 68.2663 6.49858 -2.46393 0
M  V30 771 H 71.4573 4.47137 -1.38514 0
M  V30 772 H 71.6303 6.11034 -2.15735 0
M  V30 773 N 65.0364 0.313813 1.54444 0
M  V30 774 C 66.4524 -0.0391619 1.59552 0
M  V30 775 C 66.6524 -1.51322 1.33056 0
M  V30 776 O 65.7084 -2.26782 1.11022 0
M  V30 777 C 67.0214 0.370302 2.98411 0
M  V30 778 C 68.5694 0.320139 3.11358 0
M  V30 779 C 69.0444 0.704617 4.52547 0
M  V30 780 N 70.5354 0.657645 4.58508 0
M  V30 781 C 71.2704 0.927453 5.6585 0
M  V30 782 N 70.7664 1.26389 6.81174 0
M  V30 783 N 72.5594 0.853662 5.5558 0
M  V30 784 H 64.7104 1.27433 1.69925 0
M  V30 785 H 66.9734 0.517511 0.794284 0
M  V30 786 H 66.6794 1.39694 3.22767 0
M  V30 787 H 66.5534 -0.269619 3.76235 0
M  V30 788 H 68.9404 -0.697275 2.86744 0
M  V30 789 H 69.0214 0.99486 2.35661 0
M  V30 790 H 68.6654 1.7199 4.77893 0
M  V30 791 H 68.5954 0.00768843 5.26599 0
M  V30 792 H 71.0864 0.409067 3.75679 0
M  V30 793 H 71.3994 1.4554 7.58972 0
M  V30 794 H 69.7444 1.30206 6.82694 0
M  V30 795 H 72.9354 0.590383 4.64362 0
M  V30 796 H 73.1084 1.0673 6.3915 0
M  V30 797 N 66.5145 -1.57545 0.0417849 0
M  V30 798 C 67.9305 -1.56467 -0.314704 0
M  V30 799 C 68.1305 -1.04859 -1.72066 0
M  V30 800 O 67.1865 -0.700983 -2.42575 0
M  V30 801 C 68.4995 -3.00317 -0.15174 0
M  V30 802 C 70.0475 -3.12201 -0.223553 0
M  V30 803 C 70.5225 -4.57913 -0.0892295 0
M  V30 804 N 72.0135 -4.6297 -0.145808 0
M  V30 805 C 72.7485 -5.73362 -0.0658459 0
M  V30 806 N 72.2445 -6.92769 0.0659282 0
M  V30 807 N 74.0375 -5.6197 -0.12075 0
M  V30 808 H 66.1885 -1.89416 0.961014 0
M  V30 809 H 68.4515 -0.871862 0.372237 0
M  V30 810 H 68.1575 -3.42073 0.817254 0
M  V30 811 H 68.0315 -3.65892 -0.916692 0
M  V30 812 H 70.4185 -2.70349 -1.18301 0
M  V30 813 H 70.4995 -2.49323 0.571994 0
M  V30 814 H 70.1435 -5.00448 0.866867 0
M  V30 815 H 70.0735 -5.18786 -0.903802 0
M  V30 816 H 72.5645 -3.7709 -0.247286 0
M  V30 817 H 72.8775 -7.72707 0.119905 0
M  V30 818 H 71.2225 -6.94927 0.100885 0
M  V30 819 H 74.4135 -4.67572 -0.222187 0
M  V30 820 H 74.5865 -6.47977 -0.0549735 0
M  V30 821 N 67.9926 0.231505 -1.5589 0
M  V30 822 C 69.4086 0.580748 -1.48659 0
M  V30 823 C 69.6086 1.87617 -0.73498 0
M  V30 824 O 68.6646 2.51046 -0.270586 0
M  V30 825 C 69.9776 0.669202 -2.93159 0
M  V30 826 C 71.5256 0.760499 -3.03621 0
M  V30 827 C 72.0006 0.880383 -4.49459 0
M  V30 828 N 73.4916 0.944861 -4.53461 0
M  V30 829 C 74.2266 1.05716 -5.63571 0
M  V30 830 N 73.7226 1.13403 -6.83456 0
M  V30 831 N 75.5156 1.09152 -5.514 0
M  V30 832 H 67.6666 -0.618695 -2.03189 0
M  V30 833 H 69.9296 -0.215728 -0.923128 0
M  V30 834 H 69.6356 -0.212904 -3.51055 0
M  V30 835 H 69.5096 1.5361 -3.44505 0
M  V30 836 H 71.8966 1.63305 -2.45796 0
M  V30 837 H 71.9776 -0.131864 -2.5546 0
M  V30 838 H 71.6216 0.0123284 -5.07899 0
M  V30 839 H 71.5516 1.78802 -4.95316 0
M  V30 840 H 74.0426 0.896176 -3.6712 0
M  V30 841 H 74.3556 1.21921 -7.63122 0
M  V30 842 H 72.7006 1.10333 -6.86186 0
M  V30 843 H 75.8916 1.02805 -4.56671 0
M  V30 844 H 76.0646 1.17558 -6.37247 0
M  V30 845 N 69.4707 1.49531 0.497807 0
M  V30 846 C 70.3807 1.69176 1.62532 0
M  V30 847 C 71.3967 0.5744 1.64246 0
M  V30 848 O 72.5727 0.849497 1.82608 0
M  V30 849 C 69.6377 1.75695 2.98885 0
M  V30 850 C 68.6987 2.9929 3.07773 0
M  V30 851 C 67.9317 3.05488 4.37622 0
M  V30 852 O 68.1547 2.19192 5.26603 0
M  V30 853 O 67.0887 3.9798 4.51548 0
M  V30 854 H 70.9147 2.647 1.48887 0
M  V30 855 H 68.4997 1.3331 0.674441 0
M  V30 856 H 70.3817 1.82317 3.79919 0
M  V30 857 H 69.0567 0.8335 3.12785 0
M  V30 858 H 67.9637 2.98183 2.25915 0
M  V30 859 H 69.2967 3.91125 2.98801 0
M  V30 860 N 70.9488 -0.749086 1.3866 0
M  V30 861 C 72.2258 -1.4992 1.25632 0
M  V30 862 C 72.6058 -2.10633 -0.140317 0
M  V30 863 O 71.9538 -1.97437 -1.15025 0
M  V30 864 C 72.1638 -2.56195 2.36992 0
M  V30 865 C 73.5118 -3.22972 2.75634 0
M  V30 866 O 74.5358 -2.66502 2.36337 0
M  V30 867 O 73.3948 -4.25122 3.43415 0
M  V30 868 H 70.4888 -0.665067 0.491544 0
M  V30 869 H 73.0348 -0.784113 1.50498 0
M  V30 870 H 71.8068 -2.09612 3.30422 0
M  V30 871 H 71.4298 -3.35279 2.13714 0
M  V30 872 N 72.4269 -1.23603 -0.977757 0
M  V30 873 C 73.6519 -1.09735 -1.75991 0
M  V30 874 C 74.0769 0.346858 -1.84874 0
M  V30 875 O 73.4349 1.25093 -1.3123 0
M  V30 876 C 73.4829 -1.73051 -3.16363 0
M  V30 877 O 72.5869 -0.994452 -4.0023 0
M  V30 878 H 71.9279 -0.384476 -0.541364 0
M  V30 879 H 74.4579 -1.6371 -1.2272 0
M  V30 880 H 74.4679 -1.78398 -3.66931 0
M  V30 881 H 73.1429 -2.78137 -3.09213 0
M  V30 882 H 71.7199 -1.01812 -3.58732 0
M  V30 883 N 73.905 1.17692 -1.04816 0
M  V30 884 C 75.135 1.91508 -0.775128 0
M  V30 885 C 75.543 1.76844 0.67253 0
M  V30 886 O 74.886 1.10057 1.47082 0
M  V30 887 C 74.948 3.43167 -1.0713 0
M  V30 888 C 74.612 3.81612 -2.51438 0
M  V30 889 C 75.609 3.84772 -3.49638 0
M  V30 890 C 73.294 4.12687 -2.86348 0
M  V30 891 C 75.288 4.18469 -4.80794 0
M  V30 892 C 72.975 4.46053 -4.17708 0
M  V30 893 C 73.973 4.48921 -5.14741 0
M  V30 894 O 73.661 4.81504 -6.43746 0
M  V30 895 H 73.393 0.614575 -0.281555 0
M  V30 896 H 75.947 1.50206 -1.40098 0
M  V30 897 H 74.177 3.84745 -0.388342 0
M  V30 898 H 75.866 3.98239 -0.784883 0
M  V30 899 H 76.632 3.60893 -3.24008 0
M  V30 900 H 72.511 4.09627 -2.11486 0
M  V30 901 H 76.055 4.20623 -5.56527 0
M  V30 902 H 71.952 4.69393 -4.43103 0
M  V30 903 H 72.72 4.99377 -6.4851 0
M  V30 904 N 75.3831 0.828654 1.34056 0
M  V30 905 C 76.3331 0.226828 2.26869 0
M  V30 906 C 77.3171 -0.612243 1.48796 0
M  V30 907 O 78.5091 -0.465884 1.70759 0
M  V30 908 C 75.6381 -0.605654 3.37915 0
M  V30 909 C 74.7241 0.244361 4.23395 0
M  V30 910 N 75.1151 1.31815 4.88322 0
M  V30 911 C 73.4131 0.0296616 4.4599 0
M  V30 912 C 74.1141 1.83895 5.51867 0
M  V30 913 N 73.0901 1.14196 5.3147 0
M  V30 914 H 76.8921 1.04811 2.74576 0
M  V30 915 H 74.4061 0.67205 1.47842 0
M  V30 916 H 76.4031 -1.05302 4.03382 0
M  V30 917 H 75.0631 -1.42504 2.91758 0
M  V30 918 H 76.0741 1.70099 4.8917 0
M  V30 919 H 72.7511 -0.757097 4.10578 0
M  V30 920 H 74.1411 2.7376 6.136 0
M  V30 921 N 76.8612 -1.46375 0.584142 0
M  V30 922 C 78.1072 -2.02678 0.0703716 0
M  V30 923 C 78.4402 -1.4545 -1.28678 0
M  V30 924 O 77.7152 -0.62014 -1.84349 0
M  V30 925 C 77.9982 -3.60099 0.00614674 0
M  V30 926 C 77.8512 -4.27709 1.3923 0
M  V30 927 C 79.1702 -4.34598 -0.693742 0
M  V30 928 H 76.2892 -0.736504 0.027047 0
M  V30 929 H 78.9312 -1.74501 0.751615 0
M  V30 930 H 77.0812 -3.84236 -0.574009 0
M  V30 931 H 78.7532 -4.14832 2.01773 0
M  V30 932 H 76.9962 -3.87016 1.95962 0
M  V30 933 H 77.6672 -5.36478 1.29982 0
M  V30 934 H 80.1432 -4.15615 -0.200869 0
M  V30 935 H 79.0192 -5.44318 -0.707714 0
M  V30 936 H 79.2802 -4.05759 -1.75533 0
M  V30 937 N 78.3393 -0.321999 -1.54275 0
M  V30 938 C 79.7553 0.0306999 -1.5957 0
M  V30 939 C 79.9553 1.50614 -1.33857 0
M  V30 940 O 79.0113 2.2619 -1.12223 0
M  V30 941 C 80.3243 -0.386122 -2.98211 0
M  V30 942 C 81.8723 -0.336647 -3.11184 0
M  V30 943 C 82.3473 -0.728607 -4.52167 0
M  V30 944 N 83.8383 -0.681952 -4.58152 0
M  V30 945 C 84.5733 -0.957449 -5.6535 0
M  V30 946 N 84.0693 -1.3 -6.80494 0
M  V30 947 N 85.8623 -0.883113 -5.55119 0
M  V30 948 H 78.0133 -1.28332 -1.69247 0
M  V30 949 H 80.2763 -0.521716 -0.791528 0
M  V30 950 H 79.9823 -1.41404 -3.22022 0
M  V30 951 H 79.8563 0.249662 -3.76373 0
M  V30 952 H 82.2433 0.682058 -2.8711 0
M  V30 953 H 82.3243 -1.00734 -2.3513 0
M  V30 954 H 81.9683 -1.74522 -4.76974 0
M  V30 955 H 81.8983 -0.0356152 -5.26588 0
M  V30 956 H 84.3893 -0.428985 -3.75457 0
M  V30 957 H 84.7023 -1.49563 -7.58189 0
M  V30 958 H 83.0473 -1.33824 -6.81994 0
M  V30 959 H 86.2383 -0.615001 -4.64042 0
M  V30 960 H 86.4113 -1.10118 -6.38575 0
M  V30 961 N 79.8174 1.5752 -0.0501392 0
M  V30 962 C 81.0424 1.97376 0.636997 0
M  V30 963 C 81.4674 0.927466 1.63645 0
M  V30 964 O 80.8254 -0.10941 1.8097 0
M  V30 965 C 80.8734 3.36304 1.30123 0
M  V30 966 O 79.9774 3.34156 2.41689 0
M  V30 967 H 79.3184 0.642998 0.165679 0
M  V30 968 H 81.8484 2.04258 -0.118233 0
M  V30 969 H 81.8584 3.73008 1.65315 0
M  V30 970 H 80.5334 4.11993 0.568746 0
M  V30 971 H 79.1104 3.09196 2.08451 0
M  V30 972 N 81.2955 -0.223234 1.56011 0
M  V30 973 C 82.7115 -0.572856 1.48965 0
M  V30 974 C 82.9115 -1.87225 0.74492 0
M  V30 975 O 81.9675 -2.50899 0.283896 0
M  V30 976 C 83.2805 -0.653646 2.9351 0
M  V30 977 C 84.8285 -0.744386 3.0402 0
M  V30 978 C 85.3035 -0.856535 4.49919 0
M  V30 979 N 86.7945 -0.9208 4.53955 0
M  V30 980 C 87.5295 -1.02726 5.64123 0
M  V30 981 N 87.0255 -1.09777 6.84047 0
M  V30 982 N 88.8185 -1.06226 5.51971 0
M  V30 983 H 80.9695 0.629462 2.02858 0
M  V30 984 H 83.2325 0.220621 0.921971 0
M  V30 985 H 82.9385 0.231518 3.50937 0
M  V30 986 H 82.8125 -1.51781 3.45315 0
M  V30 987 H 85.1995 -1.61999 2.46658 0
M  V30 988 H 85.2805 0.14541 2.55386 0
M  V30 989 H 84.9245 0.0146069 5.07898 0
M  V30 990 H 84.8545 -1.76172 4.96257 0
M  V30 991 H 87.3455 -0.876694 3.6759 0
M  V30 992 H 87.6585 -1.17872 7.63758 0
M  V30 993 H 86.0035 -1.06693 6.86762 0
M  V30 994 H 89.1945 -1.00382 4.5721 0
M  V30 995 H 89.3675 -1.14177 6.37862 0
M  V30 996 N 82.7736 -1.49793 -0.48987 0
M  V30 997 C 83.9986 -1.63836 -1.27172 0
M  V30 998 C 84.4236 -0.31402 -1.8546 0
M  V30 999 O 83.7816 0.719803 -1.66399 0
M  V30 1000 C 83.8296 -2.71797 -2.36978 0
M  V30 1001 O 82.9336 -2.31744 -3.41128 0
M  V30 1002 H 82.2746 -0.547997 -0.37496 0
M  V30 1003 H 84.8046 -1.96053 -0.585191 0
M  V30 1004 H 84.8146 -2.94305 -2.82575 0
M  V30 1005 H 83.4896 -3.67923 -1.93921 0
M  V30 1006 H 82.0666 -2.1961 -3.01373 0
M  V30 1007 N 84.2517 0.741722 -1.39055 0
M  V30 1008 C 85.4767 1.53607 -1.39354 0
M  V30 1009 C 85.9017 1.88096 0.0116905 0
M  V30 1010 O 85.2597 1.5143 0.996924 0
M  V30 1011 C 85.3077 2.80441 -2.26682 0
M  V30 1012 O 84.4117 3.76088 -1.69208 0
M  V30 1013 H 83.7527 0.464142 -0.474835 0
M  V30 1014 H 86.2827 0.915665 -1.82967 0
M  V30 1015 H 86.2927 3.29246 -2.40959 0
M  V30 1016 H 84.9677 2.5467 -3.2881 0
M  V30 1017 H 83.5447 3.34833 -1.64138 0
M  V30 1018 N 85.7298 1.2412 0.971189 0
M  V30 1019 C 86.9598 1.10415 1.7462 0
M  V30 1020 C 87.3678 -0.346462 1.86001 0
M  V30 1021 O 86.7108 -1.25104 1.34517 0
M  V30 1022 C 86.7728 1.66596 3.18568 0
M  V30 1023 C 86.4368 3.15446 3.3067 0
M  V30 1024 C 87.4338 4.12636 3.16271 0
M  V30 1025 C 85.1188 3.55337 3.55022 0
M  V30 1026 C 87.1128 5.47699 3.26044 0
M  V30 1027 C 84.7998 4.90542 3.64434 0
M  V30 1028 C 85.7978 5.86532 3.49956 0
M  V30 1029 O 85.4858 7.19279 3.59017 0
M  V30 1030 H 85.2178 0.386616 0.55453 0
M  V30 1031 H 87.7718 1.64633 1.22821 0
M  V30 1032 H 86.0018 1.06808 3.71657 0
M  V30 1033 H 87.6908 1.48232 3.77865 0
M  V30 1034 H 88.4568 3.8316 2.97344 0
M  V30 1035 H 84.3358 2.8113 3.65359 0
M  V30 1036 H 87.8798 6.22603 3.14661 0
M  V30 1037 H 83.7768 5.19691 3.82873 0
M  V30 1038 H 84.5448 7.27153 3.75754 0
M  V30 1039 N 87.2079 -1.17134 1.05439 0
M  V30 1040 C 88.4849 -1.83411 0.679699 0
M  V30 1041 C 88.8649 -1.9368 -0.839726 0
M  V30 1042 O 88.2129 -1.47325 -1.74664 0
M  V30 1043 C 88.4229 -3.20918 1.37159 0
M  V30 1044 C 89.7709 -3.96796 1.51123 0
M  V30 1045 O 90.7949 -3.30406 1.3308 0
M  V30 1046 O 89.6539 -5.15778 1.80651 0
M  V30 1047 H 86.7479 -0.79154 0.239569 0
M  V30 1048 H 89.2939 -1.24411 1.15413 0
M  V30 1049 H 88.0659 -3.08428 2.40807 0
M  V30 1050 H 87.6889 -3.87587 0.886674 0
M  V30 1051 N 88.686 -0.835752 -1.33615 0
M  V30 1052 C 89.963 -0.352017 -1.92406 0
M  V30 1053 C 90.343 1.16225 -1.76224 0
M  V30 1054 O 89.691 1.97526 -1.14873 0
M  V30 1055 C 89.901 -0.795485 -3.39813 0
M  V30 1056 C 91.249 -0.801703 -4.16963 0
M  V30 1057 O 92.273 -0.738889 -3.48452 0
M  V30 1058 O 91.132 -0.886607 -5.3926 0
M  V30 1059 H 88.226 -0.0989641 -0.821057 0
M  V30 1060 H 90.772 -0.921397 -1.42507 0
M  V30 1061 H 89.544 -1.83795 -3.45449 0
M  V30 1062 H 89.167 -0.202505 -3.97084 0
M  V30 1063 N 90.1641 1.46063 -0.591896 0
M  V30 1064 C 91.5801 1.57561 -0.254288 0
M  V30 1065 C 91.7801 1.58565 1.24336 0
M  V30 1066 O 90.8361 1.50753 2.02558 0
M  V30 1067 C 92.1491 2.86549 -0.911611 0
M  V30 1068 C 93.6971 3.00197 -0.886059 0
M  V30 1069 C 94.1721 4.31933 -1.5231 0
M  V30 1070 N 95.6631 4.38654 -1.48786 0
M  V30 1071 C 96.3981 5.39222 -1.95006 0
M  V30 1072 N 95.8941 6.46414 -2.49241 0
M  V30 1073 N 97.6871 5.3048 -1.85868 0
M  V30 1074 H 89.8381 1.43655 -1.56451 0
M  V30 1075 H 92.1011 0.68583 -0.654478 0
M  V30 1076 H 91.8071 2.91651 -1.96551 0
M  V30 1077 H 91.6811 3.74794 -0.425368 0
M  V30 1078 H 94.0681 2.9467 0.159246 0
M  V30 1079 H 94.1491 2.13403 -1.41041 0
M  V30 1080 H 93.7931 4.38217 -2.56765 0
M  V30 1081 H 93.7231 5.17516 -0.973891 0
M  V30 1082 H 96.2141 3.61793 -1.09151 0
M  V30 1083 H 96.5271 7.19376 -2.82344 0
M  V30 1084 H 94.8721 6.47208 -2.53272 0
M  V30 1085 H 98.0631 4.45643 -1.43248 0
M  V30 1086 H 98.2361 6.08711 -2.22204 0
M  V30 1087 N 91.6422 0.330177 1.54103 0
M  V30 1088 C 92.8672 -0.274893 2.0557 0
M  V30 1089 C 93.2922 -1.44487 1.20437 0
M  V30 1090 O 92.6502 -1.80021 0.214991 0
M  V30 1091 C 92.6982 -0.68079 3.54115 0
M  V30 1092 O 91.8022 -1.7824 3.71893 0
M  V30 1093 H 91.1432 -0.0483849 0.662235 0
M  V30 1094 H 93.6732 0.480508 1.98878 0
M  V30 1095 H 93.6832 -0.961635 3.96505 0
M  V30 1096 H 92.3582 0.174903 4.15532 0
M  V30 1097 H 90.9352 -1.49985 3.41407 0
M  V30 1098 N 93.1203 -1.57491 0.0584922 0
M  V30 1099 C 94.3453 -1.97711 -0.62652 0
M  V30 1100 C 94.7703 -0.936132 -1.63151 0
M  V30 1101 O 94.1283 0.099811 -1.81025 0
M  V30 1102 C 94.1763 -3.36989 -1.28338 0
M  V30 1103 O 93.2803 -3.35433 -2.39913 0
M  V30 1104 H 92.6213 -0.643868 -0.162266 0
M  V30 1105 H 95.1513 -2.04193 0.129064 0
M  V30 1106 H 95.1613 -3.73879 -1.63335 0
M  V30 1107 H 93.8363 -4.12289 -0.546889 0
M  V30 1108 H 92.4133 -3.10298 -2.06809 0
M  V30 1109 N 94.5984 0.214957 -1.56127 0
M  V30 1110 C 95.8754 0.963093 -1.70247 0
M  V30 1111 C 96.2554 2.02166 -0.60764 0
M  V30 1112 O 95.6034 2.25244 0.384385 0
M  V30 1113 C 95.8134 1.56756 -3.11815 0
M  V30 1114 C 97.1614 2.0573 -3.7143 0
M  V30 1115 O 98.1854 1.66637 -3.14818 0
M  V30 1116 O 97.0444 2.77603 -4.70743 0
M  V30 1117 H 94.1384 0.450321 -0.693643 0
M  V30 1118 H 96.6844 0.206219 -1.68442 0
M  V30 1119 H 95.4564 0.803533 -3.82961 0
M  V30 1120 H 95.0794 2.3898 -3.17765 0
M  V30 1121 N 96.0765 1.50051 0.48192 0
M  V30 1122 C 97.4925 1.37237 0.814756 0
M  V30 1123 C 97.6925 0.420109 1.97072 0
M  V30 1124 O 96.7485 -0.141246 2.52105 0
M  V30 1125 C 98.0615 2.78375 1.13701 0
M  V30 1126 C 99.6095 2.87213 1.2441 0
M  V30 1127 C 100.084 4.29161 1.59954 0
M  V30 1128 N 101.575 4.32061 1.66967 0
M  V30 1129 C 102.31 5.38879 1.95952 0
M  V30 1130 N 101.806 6.55918 2.23031 0
M  V30 1131 N 103.599 5.26312 1.97363 0
M  V30 1132 H 95.7505 2.10546 -0.28005 0
M  V30 1133 H 98.0135 0.945921 -0.0627454 0
M  V30 1134 H 97.7195 3.49845 0.360787 0
M  V30 1135 H 97.5935 3.14941 2.07586 0
M  V30 1136 H 99.9805 2.15969 2.01101 0
M  V30 1137 H 100.061 2.54204 0.285299 0
M  V30 1138 H 99.7055 5.00938 0.838067 0
M  V30 1139 H 99.6355 4.59648 2.56966 0
M  V30 1140 H 102.126 3.47661 1.48123 0
M  V30 1141 H 102.439 7.33139 2.44391 0
M  V30 1142 H 100.784 6.59112 2.20447 0
M  V30 1143 H 103.975 4.33876 1.75697 0
M  V30 1144 H 104.148 6.09649 2.19618 0
M  V30 1145 N 97.5546 -0.734337 1.39446 0
M  V30 1146 C 98.9706 -1.03997 1.21065 0
M  V30 1147 C 99.1706 -2.01369 0.0727019 0
M  V30 1148 O 98.2266 -2.45856 -0.575426 0
M  V30 1149 C 99.5396 -1.60163 2.54496 0
M  V30 1150 C 101.088 -1.7224 2.61347 0
M  V30 1151 C 101.563 -2.31814 3.95002 0
M  V30 1152 N 103.054 -2.39223 3.96644 0
M  V30 1153 C 103.789 -2.86258 4.96834 0
M  V30 1154 N 103.285 -3.33184 6.07421 0
M  V30 1155 N 105.078 -2.85473 4.84213 0
M  V30 1156 H 97.2286 -0.0885624 2.12215 0
M  V30 1157 H 99.4916 -0.10191 0.942506 0
M  V30 1158 H 99.1976 -0.960811 3.38321 0
M  V30 1159 H 99.0716 -2.5896 2.74262 0
M  V30 1160 H 101.459 -2.35443 1.77906 0
M  V30 1161 H 101.54 -0.720939 2.4543 0
M  V30 1162 H 101.184 -1.69238 4.78875 0
M  V30 1163 H 101.114 -3.32638 4.08239 0
M  V30 1164 H 103.605 -2.06057 3.16779 0
M  V30 1165 H 103.918 -3.67586 6.7978 0
M  V30 1166 H 102.263 -3.31191 6.11013 0
M  V30 1167 H 105.454 -2.48136 3.96921 0
M  V30 1168 H 105.627 -3.21814 5.62441 0
M  V30 1169 N 99.0327 -1.24633 -0.964593 0
M  V30 1170 C 100.279 -1.08949 -1.71049 0
M  V30 1171 C 100.612 0.370302 -1.90637 0
M  V30 1172 O 99.8867 1.27349 -1.47011 0
M  V30 1173 C 100.17 -1.83329 -3.0994 0
M  V30 1174 C 100.023 -3.37077 -2.97824 0
M  V30 1175 C 101.342 -1.60846 -4.09654 0
M  V30 1176 H 98.4607 -0.397178 -0.620821 0
M  V30 1177 H 101.103 -1.5334 -1.12191 0
M  V30 1178 H 99.2527 -1.45597 -3.60186 0
M  V30 1179 H 100.925 -3.84425 -2.5498 0
M  V30 1180 H 99.1677 -3.65298 -2.33965 0
M  V30 1181 H 99.8387 -3.84324 -3.96231 0
M  V30 1182 H 102.315 -1.93674 -3.68279 0
M  V30 1183 H 101.191 -2.1534 -5.04896 0
M  V30 1184 H 101.452 -0.547434 -4.38698 0
M  V30 1185 N 100.511 1.16574 -1.06058 0
M  V30 1186 C 101.741 1.90675 -0.795397 0
M  V30 1187 C 102.149 1.77547 0.653735 0
M  V30 1188 O 101.492 1.11611 1.45907 0
M  V30 1189 C 101.554 3.42011 -1.10764 0
M  V30 1190 C 101.218 3.78924 -2.55471 0
M  V30 1191 C 102.215 3.81042 -3.53699 0
M  V30 1192 C 99.8998 4.09626 -2.90708 0
M  V30 1193 C 101.894 4.13346 -4.85205 0
M  V30 1194 C 99.5808 4.41597 -4.22416 0
M  V30 1195 C 100.579 4.43436 -5.19474 0
M  V30 1196 O 100.267 4.74649 -6.48817 0
M  V30 1197 H 99.9988 0.611554 -0.288058 0
M  V30 1198 H 102.553 1.48711 -1.41683 0
M  V30 1199 H 100.783 3.84312 -0.429128 0
M  V30 1200 H 102.472 3.97384 -0.827077 0
M  V30 1201 H 103.238 3.57437 -3.27817 0
M  V30 1202 H 99.1168 4.07361 -2.15819 0
M  V30 1203 H 102.661 4.14696 -5.60957 0
M  V30 1204 H 98.5578 4.64667 -4.48056 0
M  V30 1205 H 99.3258 4.9247 -6.5377 0
M  V30 1206 N 101.989 0.842826 1.3317 0
M  V30 1207 C 103.266 0.362216 1.92217 0
M  V30 1208 C 103.646 -1.15289 1.76838 0
M  V30 1209 O 102.994 -1.96914 1.15919 0
M  V30 1210 C 103.204 0.813495 3.39387 0
M  V30 1211 C 104.552 0.823804 4.16532 0
M  V30 1212 O 105.576 0.757358 3.48055 0
M  V30 1213 O 104.435 0.915193 5.38782 0
M  V30 1214 H 101.529 0.103317 0.820521 0
M  V30 1215 H 104.075 0.928942 1.42017 0
M  V30 1216 H 102.847 1.85624 3.4447 0
M  V30 1217 H 102.47 0.223561 3.96971 0
M  V30 1218 N 103.467 -1.45747 0.599634 0
M  V30 1219 C 104.883 -1.57424 0.26264 0
M  V30 1220 C 105.083 -1.59222 -1.23493 0
M  V30 1221 O 104.139 -1.51825 -2.01756 0
M  V30 1222 C 105.452 -2.86061 0.926795 0
M  V30 1223 C 107 -2.99722 0.901967 0
M  V30 1224 C 107.475 -4.31119 1.54598 0
M  V30 1225 N 108.966 -4.37858 1.5111 0
M  V30 1226 C 109.701 -5.3818 1.97863 0
M  V30 1227 N 109.197 -6.45083 2.52666 0
M  V30 1228 N 110.99 -5.29487 1.88679 0
M  V30 1229 H 103.141 -1.42823 1.57211 0
M  V30 1230 H 105.404 -0.68235 0.658105 0
M  V30 1231 H 105.11 -2.90605 1.98095 0
M  V30 1232 H 104.984 -3.74563 0.445238 0
M  V30 1233 H 107.371 -2.9475 -0.143617 0
M  V30 1234 H 107.452 -2.12652 1.42171 0
M  V30 1235 H 107.096 -4.36849 2.59085 0
M  V30 1236 H 107.026 -5.16992 1.00132 0
M  V30 1237 H 109.517 -3.61209 1.11068 0
M  V30 1238 H 109.83 -7.17869 2.86155 0
M  V30 1239 H 108.175 -6.45856 2.56701 0
M  V30 1240 H 111.366 -4.44877 1.4561 0
M  V30 1241 H 111.539 -6.07524 2.25429 0
M  V30 1242 N 104.945 -0.338344 -1.53925 0
M  V30 1243 C 106.361 0.0137736 -1.59594 0
M  V30 1244 C 106.561 1.49186 -1.35447 0
M  V30 1245 O 105.617 2.24987 -1.14616 0
M  V30 1246 C 106.93 -0.41773 -2.97784 0
M  V30 1247 C 108.478 -0.369633 -3.1081 0
M  V30 1248 C 108.953 -0.776524 -4.51369 0
M  V30 1249 N 110.444 -0.730506 -4.57403 0
M  V30 1250 C 111.179 -1.01736 -5.64303 0
M  V30 1251 N 110.675 -1.3721 -6.79077 0
M  V30 1252 N 112.468 -0.941942 -5.54151 0
M  V30 1253 H 104.619 -1.3012 -1.67876 0
M  V30 1254 H 106.882 -0.530082 -0.78595 0
M  V30 1255 H 106.588 -1.44811 -3.20504 0
M  V30 1256 H 106.462 0.209729 -3.76616 0
M  V30 1257 H 108.849 0.651568 -2.87817 0
M  V30 1258 H 108.93 -1.03223 -2.34049 0
M  V30 1259 H 108.574 -1.79571 -4.75096 0
M  V30 1260 H 108.504 -0.0914649 -5.26521 0
M  V30 1261 H 110.995 -0.468783 -3.74981 0
M  V30 1262 H 111.308 -1.57597 -7.5656 0
M  V30 1263 H 109.653 -1.4105 -6.80536 0
M  V30 1264 H 112.844 -0.664184 -4.63364 0
M  V30 1265 H 113.017 -1.16884 -6.37371 0
M  V30 1266 N 106.423 1.57458 -0.0668435 0
M  V30 1267 C 107.653 1.97337 0.611677 0
M  V30 1268 C 108.061 0.943744 1.63982 0
M  V30 1269 O 107.404 -0.0785584 1.83532 0
M  V30 1270 C 107.466 3.33511 1.34205 0
M  V30 1271 C 107.13 4.54598 0.467941 0
M  V30 1272 C 108.127 5.19186 -0.272439 0
M  V30 1273 C 105.812 5.0075 0.39427 0
M  V30 1274 C 107.806 6.28274 -1.07476 0
M  V30 1275 C 105.493 6.09711 -0.411729 0
M  V30 1276 C 106.491 6.73335 -1.14492 0
M  V30 1277 O 106.179 7.80199 -1.93763 0
M  V30 1278 H 105.911 0.654042 0.170893 0
M  V30 1279 H 108.465 2.04961 -0.134289 0
M  V30 1280 H 106.695 3.22487 2.13398 0
M  V30 1281 H 108.384 3.58029 1.91233 0
M  V30 1282 H 109.15 4.84477 -0.225086 0
M  V30 1283 H 105.029 4.51009 0.954569 0
M  V30 1284 H 108.573 6.77866 -1.64755 0
M  V30 1285 H 104.47 6.43854 -0.460664 0
M  V30 1286 H 105.238 7.97053 -1.86142 0
M  V30 1287 N 107.901 -0.206675 1.56239 0
M  V30 1288 C 109.141 -0.93574 1.81723 0
M  V30 1289 C 109.505 -1.80927 0.642609 0
M  V30 1290 O 110.706 -2.57323 0.777081 0
M  V30 1291 C 108.977 -1.74012 3.12177 0
M  V30 1292 S 110.536 -2.52279 3.59028 0
M  V30 1293 H 107.354 -0.314065 0.637875 0
M  V30 1294 H 109.956 -0.200071 1.94474 0
M  V30 1295 H 108.66 -1.0888 3.95693 0
M  V30 1296 H 108.191 -2.51782 3.02274 0
M  V30 1297 H 110.206 -3.76209 3.23545 0
M  V30 1298 N 109.379 -1.50304 -0.473955 0
M  V30 1299 C 110.627 -1.60832 -1.22382 0
M  V30 1300 C 110.948 -0.30939 -1.9253 0
M  V30 1301 O 110.218 0.67296 -1.83978 0
M  V30 1302 H 108.798 -0.592652 -0.454723 0
M  V30 1303 H 111.46 -1.87068 -0.546968 0
M  V30 1304 H 110.556 -2.41803 -1.97327 0
M  V30 1305 N 110.857 0.726932 -1.39834 0
M  V30 1306 C 112.082 1.52121 -1.40976 0
M  V30 1307 C 112.507 1.88098 -0.00826029 0
M  V30 1308 O 111.865 1.52479 0.980807 0
M  V30 1309 C 111.913 2.78021 -2.29644 0
M  V30 1310 O 111.017 3.74272 -1.73188 0
M  V30 1311 H 110.358 0.45908 -0.479731 0
M  V30 1312 H 112.888 0.896207 -1.83927 0
M  V30 1313 H 112.898 3.26671 -2.44438 0
M  V30 1314 H 111.573 2.51169 -3.31492 0
M  V30 1315 H 110.15 3.33073 -1.6768 0
M  V30 1316 N 112.336 1.25143 0.95797 0
M  V30 1317 C 113.566 1.12261 1.73439 0
M  V30 1318 C 113.974 -0.326715 1.86358 0
M  V30 1319 O 113.317 -1.2367 1.35836 0
M  V30 1320 C 113.379 1.69966 3.16784 0
M  V30 1321 C 113.043 3.18936 3.27305 0
M  V30 1322 C 114.04 4.15968 3.11877 0
M  V30 1323 C 111.725 3.59083 3.51234 0
M  V30 1324 C 113.719 5.51126 3.20217 0
M  V30 1325 C 111.406 4.9438 3.5921 0
M  V30 1326 C 112.404 5.90211 3.43716 0
M  V30 1327 O 112.092 7.23046 3.51368 0
M  V30 1328 H 111.824 0.392476 0.550399 0
M  V30 1329 H 114.378 1.65927 1.21068 0
M  V30 1330 H 112.608 1.10744 3.70503 0
M  V30 1331 H 114.297 1.52232 3.76272 0
M  V30 1332 H 115.063 3.86292 2.93264 0
M  V30 1333 H 110.942 2.84989 3.62356 0
M  V30 1334 H 114.486 6.25905 3.0804 0
M  V30 1335 H 110.383 5.23723 3.77339 0
M  V30 1336 H 111.151 7.31097 3.6802 0
M  V30 1337 N 113.814 -1.1601 1.06675 0
M  V30 1338 C 115.23 -1.38622 0.790948 0
M  V30 1339 C 115.43 -1.92109 -0.607965 0
M  V30 1340 O 114.486 -2.12239 -1.36787 0
M  V30 1341 C 115.799 -2.36347 1.85905 0
M  V30 1342 C 117.347 -2.50023 1.88301 0
M  V30 1343 C 117.822 -3.51033 2.94176 0
M  V30 1344 N 119.313 -3.58563 2.93235 0
M  V30 1345 C 120.048 -4.36521 3.71803 0
M  V30 1346 N 119.544 -5.17869 4.602 0
M  V30 1347 N 121.337 -4.31541 3.60178 0
M  V30 1348 H 113.488 -0.796294 1.96908 0
M  V30 1349 H 115.751 -0.412597 0.853503 0
M  V30 1350 H 115.457 -2.04147 2.86386 0
M  V30 1351 H 115.331 -3.36042 1.71334 0
M  V30 1352 H 117.718 -2.81524 0.884769 0
M  V30 1353 H 117.799 -1.5035 2.06951 0
M  V30 1354 H 117.443 -3.20268 3.94196 0
M  V30 1355 H 117.373 -4.50445 2.72776 0
M  V30 1356 H 119.864 -3.00496 2.29152 0
M  V30 1357 H 120.177 -5.74578 5.16797 0
M  V30 1358 H 118.522 -5.17199 4.64253 0
M  V30 1359 H 121.713 -3.67051 2.90502 0
M  V30 1360 H 121.886 -4.9205 4.21653 0
M  V30 1361 N 115.292 -0.849877 -1.32721 0
M  V30 1362 C 116.708 -0.539102 -1.50219 0
M  V30 1363 C 116.908 0.931271 -1.78689 0
M  V30 1364 O 115.964 1.71455 -1.85363 0
M  V30 1365 C 117.277 -1.42196 -2.64954 0
M  V30 1366 C 118.825 -1.42189 -2.78839 0
M  V30 1367 C 119.3 -2.28985 -3.96648 0
M  V30 1368 N 120.791 -2.26754 -4.03902 0
M  V30 1369 C 121.526 -2.90644 -4.94281 0
M  V30 1370 N 121.022 -3.63629 -5.897 0
M  V30 1371 N 122.815 -2.80057 -4.87365 0
M  V30 1372 H 114.966 -1.80156 -1.12506 0
M  V30 1373 H 117.229 -0.769217 -0.554085 0
M  V30 1374 H 116.935 -2.46733 -2.50631 0
M  V30 1375 H 116.809 -1.10591 -3.60624 0
M  V30 1376 H 119.196 -0.38419 -2.92588 0
M  V30 1377 H 119.277 -1.77807 -1.83898 0
M  V30 1378 H 118.921 -3.32819 -3.83658 0
M  V30 1379 H 118.851 -1.90702 -4.90857 0
M  V30 1380 H 121.342 -1.73688 -3.3562 0
M  V30 1381 H 121.655 -4.09558 -6.55349 0
M  V30 1382 H 120 -3.67737 -5.89741 0
M  V30 1383 H 123.191 -2.22593 -4.11789 0
M  V30 1384 H 123.364 -3.30132 -5.57599 0
M  V30 1385 N 116.77 1.45427 -0.607355 0
M  V30 1386 C 117.718 2.32269 0.12411 0
M  V30 1387 C 118.712 1.45955 0.859854 0
M  V30 1388 O 119.918 1.6244 0.775447 0
M  V30 1389 H 116.293 0.749691 0.0588839 0
M  V30 1390 H 118.264 2.91743 -0.626762 0
M  V30 1391 C 117.013 3.29567 1.1082 0
M  V30 1392 H 116.336 3.95978 0.551492 0
M  V30 1393 H 117.776 3.93061 1.58995 0
M  V30 1394 C 116.235 2.56722 2.18164 0
M  V30 1395 O 116.765 2.34842 3.25902 0
M  V30 1396 N 114.971 2.16861 1.93442 0
M  V30 1397 H 114.518 2.34855 1.05834 0
M  V30 1398 H 114.476 1.68444 2.65469 0
M  V30 1399 N 118.248 0.346503 1.53744 0
M  V30 1400 C 119.525 -0.304532 1.93215 0
M  V30 1401 C 119.905 -1.67993 1.27834 0
M  V30 1402 O 119.253 -2.24411 0.430352 0
M  V30 1403 C 119.463 -0.373852 3.46992 0
M  V30 1404 C 120.811 -0.62329 4.2 0
M  V30 1405 O 121.835 -0.455847 3.53271 0
M  V30 1406 O 120.694 -0.947879 5.38217 0
M  V30 1407 H 117.788 -0.178318 0.807547 0
M  V30 1408 H 120.334 0.397895 1.64969 0
M  V30 1409 H 119.106 0.591224 3.86808 0
M  V30 1410 H 118.729 -1.12294 3.81413 0
M  V30 1411 N 119.726 -1.57421 0.075193 0
M  V30 1412 C 120.956 -1.97659 -0.601203 0
M  V30 1413 C 121.364 -0.952427 -1.63479 0
M  V30 1414 O 120.707 0.0688241 -1.83571 0
M  V30 1415 C 120.769 -3.34218 -1.32434 0
M  V30 1416 C 120.433 -4.5484 -0.443826 0
M  V30 1417 C 121.43 -5.19034 0.299969 0
M  V30 1418 C 119.115 -5.00952 -0.367709 0
M  V30 1419 C 121.109 -6.27695 1.10807 0
M  V30 1420 C 118.796 -6.09484 0.444058 0
M  V30 1421 C 119.794 -6.72719 1.18061 0
M  V30 1422 O 119.482 -7.79161 1.97898 0
M  V30 1423 H 119.214 -0.65494 -0.167422 0
M  V30 1424 H 121.768 -2.04886 0.145157 0
M  V30 1425 H 119.998 -3.23615 -2.11685 0
M  V30 1426 H 121.687 -3.59038 -1.89331 0
M  V30 1427 H 122.453 -4.84351 0.250776 0
M  V30 1428 H 118.332 -4.51509 -0.930638 0
M  V30 1429 H 121.876 -6.76982 1.68347 0
M  V30 1430 H 117.773 -6.43601 0.494803 0
M  V30 1431 H 118.541 -7.96055 1.90367 0
M  V30 1432 N 121.204 0.198386 -1.56346 0
M  V30 1433 C 122.429 0.939682 -1.84891 0
M  V30 1434 C 122.854 1.76202 -0.658369 0
M  V30 1435 O 122.212 1.76993 0.392851 0
M  V30 1436 C 122.26 1.81428 -3.11635 0
M  V30 1437 O 121.364 2.91265 -2.91956 0
M  V30 1438 H 120.705 0.264807 -0.608912 0
M  V30 1439 H 123.235 0.204695 -2.03573 0
M  V30 1440 H 123.245 2.21958 -3.42343 0
M  V30 1441 H 121.92 1.21004 -3.97908 0
M  V30 1442 H 120.497 2.54514 -2.72538 0
M  V30 1443 N 122.682 1.50554 0.465978 0
M  V30 1444 C 124.098 1.38093 0.800154 0
M  V30 1445 C 124.298 0.440988 1.96615 0
M  V30 1446 O 123.354 -0.114499 2.5224 0
M  V30 1447 C 124.667 2.79565 1.10742 0
M  V30 1448 C 126.215 2.88516 1.21357 0
M  V30 1449 C 126.69 4.30833 1.55393 0
M  V30 1450 N 128.181 4.33807 1.62375 0
M  V30 1451 C 128.916 5.40927 1.90225 0
M  V30 1452 N 128.412 6.58247 2.16062 0
M  V30 1453 N 130.205 5.28376 1.9177 0
M  V30 1454 H 122.356 2.10237 -0.302366 0
M  V30 1455 H 124.619 0.945203 -0.0727746 0
M  V30 1456 H 124.325 3.50208 0.323661 0
M  V30 1457 H 124.199 3.17125 2.04234 0
M  V30 1458 H 126.586 2.1809 1.98799 0
M  V30 1459 H 126.667 2.54492 0.258321 0
M  V30 1460 H 126.311 5.01799 0.784889 0
M  V30 1461 H 126.241 4.62347 2.52076 0
M  V30 1462 H 128.732 3.49212 1.44427 0
M  V30 1463 H 129.045 7.3569 2.36601 0
M  V30 1464 H 127.39 6.61413 2.13444 0
M  V30 1465 H 130.581 4.35715 1.71085 0
M  V30 1466 H 130.754 6.11944 2.13139 0
M  V30 1467 N 124.16 -0.719506 1.40217 0
M  V30 1468 C 125.437 -1.47221 1.28784 0
M  V30 1469 C 125.817 -2.10883 -0.0956067 0
M  V30 1470 O 125.165 -1.99833 -1.10811 0
M  V30 1471 C 125.375 -2.5111 2.42373 0
M  V30 1472 C 126.723 -3.17053 2.82423 0
M  V30 1473 O 127.747 -2.61429 2.41937 0
M  V30 1474 O 126.606 -4.17742 3.52355 0
M  V30 1475 H 123.7 -0.654491 0.50554 0
M  V30 1476 H 126.246 -0.752014 1.52128 0
M  V30 1477 H 125.018 -2.02556 3.34793 0
M  V30 1478 H 124.641 -3.3067 2.20778 0
M  V30 1479 N 125.638 -1.25649 -0.95132 0
M  V30 1480 C 127.054 -1.02542 -1.223 0
M  V30 1481 C 127.254 0.255715 -1.99871 0
M  V30 1482 O 126.31 0.967558 -2.33226 0
M  V30 1483 C 127.623 -2.25065 -1.99415 0
M  V30 1484 C 129.171 -2.29861 -2.12446 0
M  V30 1485 C 129.646 -3.52048 -2.92961 0
M  V30 1486 N 131.137 -3.52465 -3.00538 0
M  V30 1487 C 131.872 -4.43672 -3.63239 0
M  V30 1488 N 131.368 -5.45157 -4.27523 0
M  V30 1489 N 133.161 -4.31346 -3.60412 0
M  V30 1490 H 125.312 -2.07951 -0.432471 0
M  V30 1491 H 127.575 -0.91339 -0.253816 0
M  V30 1492 H 127.281 -3.18194 -1.49817 0
M  V30 1493 H 127.155 -2.28502 -3.00111 0
M  V30 1494 H 129.542 -1.37252 -2.61239 0
M  V30 1495 H 129.623 -2.3044 -1.11044 0
M  V30 1496 H 129.267 -4.44981 -2.44856 0
M  V30 1497 H 129.197 -3.48715 -3.94596 0
M  V30 1498 H 131.688 -2.79056 -2.54826 0
M  V30 1499 H 132.001 -6.10958 -4.73234 0
M  V30 1500 H 130.346 -5.49025 -4.26141 0
M  V30 1501 H 133.537 -3.51288 -3.09377 0
M  V30 1502 H 133.71 -5.02624 -4.0899 0
M  V30 1503 N 127.117 1.15442 -1.07289 0
M  V30 1504 C 128.365 1.85845 -0.794096 0
M  V30 1505 C 128.686 1.82692 0.681809 0
M  V30 1506 O 127.956 1.26741 1.49377 0
M  V30 1507 H 126.536 0.688089 -0.290763 0
M  V30 1508 H 129.198 1.39947 -1.3565 0
M  V30 1509 H 128.294 2.91001 -1.12804 0
M  V30 1510 N 128.595 0.856903 1.32268 0
M  V30 1511 C 129.872 0.382583 1.91822 0
M  V30 1512 C 130.252 -1.13407 1.78051 0
M  V30 1513 O 129.6 -1.95673 1.18001 0
M  V30 1514 C 129.81 0.849446 3.38505 0
M  V30 1515 C 131.158 0.867936 4.15634 0
M  V30 1516 O 132.182 0.794232 3.47232 0
M  V30 1517 O 131.041 0.972286 5.37781 0
M  V30 1518 H 128.135 0.112014 0.819379 0
M  V30 1519 H 130.681 0.943952 1.41024 0
M  V30 1520 H 129.453 1.89267 3.42482 0
M  V30 1521 H 129.076 0.265652 3.96712 0
M  V30 1522 N 130.073 -1.45103 0.615059 0
M  V30 1523 C 131.036 -2.29025 -0.0895485 0
M  V30 1524 C 132.036 -1.40174 -0.787906 0
M  V30 1525 O 133.226 -1.62217 -0.634933 0
M  V30 1526 C 130.358 -3.21376 -1.13711 0
M  V30 1527 H 131.551 -2.92807 0.648382 0
M  V30 1528 H 129.104 -1.51749 0.374444 0
M  V30 1529 H 129.839 -2.6241 -1.90556 0
M  V30 1530 H 129.624 -3.86834 -0.640475 0
M  V30 1531 H 131.114 -3.84459 -1.63036 0
M  V30 1532 N 131.551 -0.354651 -1.53558 0
M  V30 1533 C 132.781 0.239167 -2.05211 0
M  V30 1534 C 133.189 1.43879 -1.22863 0
M  V30 1535 O 132.532 1.81857 -0.259565 0
M  V30 1536 C 132.594 0.707251 -3.52474 0
M  V30 1537 C 132.258 -0.374212 -4.55465 0
M  V30 1538 C 133.255 -1.22054 -5.0537 0
M  V30 1539 C 130.94 -0.531323 -4.99482 0
M  V30 1540 C 132.934 -2.20942 -5.97882 0
M  V30 1541 C 130.621 -1.52358 -5.91802 0
M  V30 1542 C 131.619 -2.36108 -6.40892 0
M  V30 1543 O 131.307 -3.33643 -7.31394 0
M  V30 1544 H 131.039 0.0479716 -0.674296 0
M  V30 1545 H 133.593 -0.508121 -1.99016 0
M  V30 1546 H 131.823 1.50596 -3.56171 0
M  V30 1547 H 133.512 1.22285 -3.87042 0
M  V30 1548 H 134.278 -1.1103 -4.7212 0
M  V30 1549 H 130.157 0.110738 -4.60867 0
M  V30 1550 H 133.701 -2.86348 -6.36121 0
M  V30 1551 H 129.598 -1.63434 -6.24467 0
M  V30 1552 H 130.366 -3.29244 -7.4936 0
M  V30 1553 N 133.029 1.57378 -0.0835403 0
M  V30 1554 C 134.259 1.97975 0.590713 0
M  V30 1555 C 134.667 0.961083 1.62972 0
M  V30 1556 O 134.01 -0.0590879 1.83605 0
M  V30 1557 C 134.072 3.34915 1.3066 0
M  V30 1558 C 133.736 4.55069 0.419698 0
M  V30 1559 C 134.733 5.18868 -0.32749 0
M  V30 1560 C 132.418 5.0114 0.341137 0
M  V30 1561 C 134.412 6.27098 -1.14134 0
M  V30 1562 C 132.099 6.0924 -0.476374 0
M  V30 1563 C 133.097 6.72083 -1.21627 0
M  V30 1564 O 132.785 7.781 -2.02028 0
M  V30 1565 H 132.517 0.655818 0.163947 0
M  V30 1566 H 135.071 2.04807 -0.156021 0
M  V30 1567 H 133.301 3.24733 2.09966 0
M  V30 1568 H 134.99 3.60037 1.87424 0
M  V30 1569 H 135.756 4.84211 -0.276459 0
M  V30 1570 H 131.635 4.51996 0.90668 0
M  V30 1571 H 135.179 6.7608 -1.71935 0
M  V30 1572 H 131.076 6.43329 -0.528927 0
M  V30 1573 H 131.844 7.95034 -1.94586 0
M  V30 1574 N 134.507 -0.190092 1.56449 0
M  V30 1575 C 135.784 -0.935886 1.71757 0
M  V30 1576 C 136.164 -2.01173 0.639726 0
M  V30 1577 O 135.512 -2.25827 -0.348502 0
M  V30 1578 C 135.722 -1.51775 3.1427 0
M  V30 1579 C 137.07 -1.99794 3.74656 0
M  V30 1580 O 138.094 -1.61607 3.1743 0
M  V30 1581 O 136.953 -2.70079 4.751 0
M  V30 1582 H 134.047 -0.439229 0.700719 0
M  V30 1583 H 136.593 -0.179395 1.68749 0
M  V30 1584 H 135.365 -0.742505 3.84191 0
M  V30 1585 H 134.988 -2.33894 3.21527 0
M  V30 1586 N 135.985 -1.50799 -0.457987 0
M  V30 1587 C 137.213 -1.66218 -1.23203 0
M  V30 1588 C 137.628 -0.350894 -1.85511 0
M  V30 1589 O 136.985 0.668546 -1.69814 0
M  V30 1590 C 137.036 -2.76291 -2.33121 0
M  V30 1591 O 136.757 -4.02338 -1.73366 0
M  V30 1592 C 138.258 -3.028 -3.2377 0
M  V30 1593 H 135.478 -0.558361 -0.372121 0
M  V30 1594 H 138.022 -1.97099 -0.545179 0
M  V30 1595 H 136.177 -2.48068 -2.97558 0
M  V30 1596 H 136.591 -4.63312 -2.4585 0
M  V30 1597 H 138.065 -3.8345 -3.97077 0
M  V30 1598 H 138.542 -2.14385 -3.83322 0
M  V30 1599 H 139.148 -3.32604 -2.65056 0
M  V30 1600 N 137.463 0.71206 -1.40597 0
M  V30 1601 C 138.74 1.46536 -1.29563 0
M  V30 1602 C 139.12 2.10931 0.0844217 0
M  V30 1603 O 138.468 2.00418 1.0975 0
M  V30 1604 C 138.678 2.49821 -2.43701 0
M  V30 1605 C 140.026 3.15551 -2.841 0
M  V30 1606 O 141.05 2.60142 -2.4332 0
M  V30 1607 O 139.909 4.15867 -3.54566 0
M  V30 1608 H 137.003 0.651801 -0.509004 0
M  V30 1609 H 139.549 0.743935 -1.52524 0
M  V30 1610 H 138.321 2.00778 -3.35863 0
M  V30 1611 H 137.944 3.29495 -2.22528 0
M  V30 1612 N 138.941 1.26152 0.944643 0
M  V30 1613 C 140.171 1.14094 1.72239 0
M  V30 1614 C 140.579 -0.306931 1.86694 0
M  V30 1615 O 139.922 -1.22222 1.3714 0
M  V30 1616 C 139.984 1.73316 3.14963 0
M  V30 1617 C 139.648 3.2239 3.23904 0
M  V30 1618 C 140.645 4.19252 3.07447 0
M  V30 1619 C 138.33 3.62788 3.47405 0
M  V30 1620 C 140.324 5.54491 3.14353 0
M  V30 1621 C 138.011 4.98162 3.53947 0
M  V30 1622 C 139.009 5.93823 3.37436 0
M  V30 1623 O 138.697 7.26732 3.43679 0
M  V30 1624 H 138.429 0.398292 0.546205 0
M  V30 1625 H 140.983 1.67201 1.19301 0
M  V30 1626 H 139.213 1.14667 3.69308 0
M  V30 1627 H 140.902 1.56214 3.74636 0
M  V30 1628 H 141.668 3.8938 2.8915 0
M  V30 1629 H 137.547 2.88816 3.59313 0
M  V30 1630 H 141.091 6.29137 3.01384 0
M  V30 1631 H 136.988 5.27695 3.71763 0
M  V30 1632 H 137.756 7.3496 3.60245 0
M  V30 1633 N 140.419 -1.14872 1.07899 0
M  V30 1634 C 141.835 -1.37776 0.805606 0
M  V30 1635 C 142.035 -1.92743 -0.587555 0
M  V30 1636 O 141.091 -2.13678 -1.34528 0
M  V30 1637 C 142.404 -2.34361 1.88402 0
M  V30 1638 C 143.952 -2.48012 1.90942 0
M  V30 1639 C 144.427 -3.47893 2.97883 0
M  V30 1640 N 145.918 -3.55433 2.97021 0
M  V30 1641 C 146.653 -4.32553 3.76412 0
M  V30 1642 N 146.149 -5.12959 4.65666 0
M  V30 1643 N 147.942 -4.27697 3.64735 0
M  V30 1644 H 140.093 -0.775365 1.97742 0
M  V30 1645 H 142.356 -0.403521 0.857831 0
M  V30 1646 H 142.062 -2.01098 2.88535 0
M  V30 1647 H 141.936 -3.34206 1.74889 0
M  V30 1648 H 144.323 -2.8057 0.914579 0
M  V30 1649 H 144.404 -1.48147 2.08534 0
M  V30 1650 H 144.048 -3.16069 3.97571 0
M  V30 1651 H 143.978 -4.47527 2.77538 0
M  V30 1652 H 146.469 -2.98048 2.32326 0
M  V30 1653 H 146.782 -5.69065 5.22862 0
M  V30 1654 H 145.127 -5.12245 4.69712 0
M  V30 1655 H 148.318 -3.63949 2.94378 0
M  V30 1656 H 148.491 -4.8755 4.26848 0
M  V30 1657 N 141.898 -0.863906 -1.31812 0
M  V30 1658 C 142.848 -0.286898 -2.26188 0
M  V30 1659 C 143.832 0.572577 -1.50367 0
M  V30 1660 O 145.024 0.420447 -1.71934 0
M  V30 1661 C 142.153 0.515849 -3.39402 0
M  V30 1662 C 141.239 -0.356531 -4.22599 0
M  V30 1663 N 141.63 -1.44716 -4.84656 0
M  V30 1664 C 139.928 -0.147898 -4.45755 0
M  V30 1665 C 140.629 -1.98462 -5.46798 0
M  V30 1666 N 139.605 -1.28247 -5.28255 0
M  V30 1667 H 143.407 -1.12055 -2.717 0
M  V30 1668 H 140.921 -0.711012 -1.46008 0
M  V30 1669 H 142.918 0.945701 -4.06032 0
M  V30 1670 H 141.578 1.34718 -2.95434 0
M  V30 1671 H 142.589 -1.83008 -4.84488 0
M  V30 1672 H 139.266 0.647973 -4.12441 0
M  V30 1673 H 140.656 -2.89932 -6.06126 0
M  V30 1674 N 143.376 1.44774 -0.622745 0
M  V30 1675 C 144.601 2.06999 -0.128968 0
M  V30 1676 C 145.026 1.4617 1.1839 0
M  V30 1677 O 144.384 0.560007 1.72434 0
M  V30 1678 C 144.432 3.60595 -0.0188351 0
M  V30 1679 O 143.536 3.99398 1.02739 0
M  V30 1680 H 142.877 0.659047 -0.0809544 0
M  V30 1681 H 145.407 1.85784 -0.85705 0
M  V30 1682 H 145.417 4.07627 0.174476 0
M  V30 1683 H 144.092 4.04252 -0.977384 0
M  V30 1684 H 142.669 3.64011 0.809326 0
M  V30 1685 N 144.854 0.36279 1.53368 0
M  V30 1686 C 146.084 -0.228281 2.05335 0
M  V30 1687 C 146.492 -1.43226 1.23625 0
M  V30 1688 O 145.835 -1.81717 0.269206 0
M  V30 1689 C 145.897 -0.688549 3.52845 0
M  V30 1690 C 145.561 0.398362 4.5526 0
M  V30 1691 C 146.558 1.24732 5.04716 0
M  V30 1692 C 144.243 0.557805 4.99193 0
M  V30 1693 C 146.237 2.2411 5.96702 0
M  V30 1694 C 143.924 1.55495 5.90986 0
M  V30 1695 C 144.922 2.39503 6.39631 0
M  V30 1696 O 144.61 3.37517 7.29615 0
M  V30 1697 H 144.342 -0.044395 0.674541 0
M  V30 1698 H 146.896 0.518668 1.98744 0
M  V30 1699 H 145.126 -1.48706 3.56964 0
M  V30 1700 H 146.815 -1.20231 3.87685 0
M  V30 1701 H 147.581 1.13532 4.71525 0
M  V30 1702 H 143.46 -0.0862959 4.60919 0
M  V30 1703 H 147.004 2.89718 6.34594 0
M  V30 1704 H 142.901 1.66744 6.23592 0
M  V30 1705 H 143.669 3.33213 7.47604 0
M  V30 1706 N 146.332 -1.57332 0.0918853 0
M  V30 1707 C 147.242 -2.17368 -0.882505 0
M  V30 1708 C 148.258 -1.14226 -1.31257 0
M  V30 1709 O 149.434 -1.46582 -1.38115 0
M  V30 1710 C 146.499 -2.73962 -2.12476 0
M  V30 1711 C 145.56 -3.92048 -1.7492 0
M  V30 1712 C 144.793 -4.45933 -2.93223 0
M  V30 1713 O 145.016 -3.98764 -4.07852 0
M  V30 1714 O 143.95 -5.36999 -2.71875 0
M  V30 1715 H 147.776 -3.01031 -0.40172 0
M  V30 1716 H 145.361 -1.48813 -0.132291 0
M  V30 1717 H 147.243 -3.10147 -2.85283 0
M  V30 1718 H 145.918 -1.93347 -2.59613 0
M  V30 1719 H 144.825 -3.6068 -0.993025 0
M  V30 1720 H 146.158 -4.74017 -1.32548 0
M  V30 1721 N 147.81 0.181792 -1.56548 0
M  V30 1722 C 149.04 0.914618 -1.85252 0
M  V30 1723 C 149.448 1.76791 -0.673914 0
M  V30 1724 O 148.791 1.80009 0.366416 0
M  V30 1725 C 148.853 1.85019 -3.08234 0
M  V30 1726 C 148.517 1.17754 -4.41569 0
M  V30 1727 C 149.514 0.548035 -5.17003 0
M  V30 1728 C 147.199 1.17742 -4.88305 0
M  V30 1729 C 149.193 -0.0726128 -6.37359 0
M  V30 1730 C 146.88 0.552946 -6.08593 0
M  V30 1731 C 147.878 -0.070978 -6.82963 0
M  V30 1732 O 147.566 -0.685635 -8.00971 0
M  V30 1733 H 147.298 0.271695 -0.618998 0
M  V30 1734 H 149.852 0.189944 -2.0452 0
M  V30 1735 H 148.082 2.61491 -2.84885 0
M  V30 1736 H 149.771 2.45195 -3.23472 0
M  V30 1737 H 150.537 0.540174 -4.81982 0
M  V30 1738 H 146.416 1.65246 -4.30366 0
M  V30 1739 H 149.96 -0.560213 -6.95347 0
M  V30 1740 H 145.857 0.558354 -6.43081 0
M  V30 1741 H 146.625 -0.58385 -8.16415 0
M  V30 1742 N 149.288 1.51039 0.449983 0
M  V30 1743 C 150.22 1.67617 1.56324 0
M  V30 1744 C 151.233 0.557083 1.52972 0
M  V30 1745 O 152.422 0.830989 1.57977 0
M  V30 1746 C 149.522 1.66402 2.95235 0
M  V30 1747 C 148.695 2.9469 3.23229 0
M  V30 1748 C 147.754 2.85832 4.41799 0
M  V30 1749 O 146.78 3.59785 4.41071 0
M  V30 1750 N 147.982 2.00821 5.44657 0
M  V30 1751 H 150.747 2.63648 1.42512 0
M  V30 1752 H 148.308 1.48767 0.638737 0
M  V30 1753 H 150.3 1.58062 3.72557 0
M  V30 1754 H 148.87 0.780182 3.02708 0
M  V30 1755 H 148.09 3.16996 2.34323 0
M  V30 1756 H 149.378 3.79636 3.38754 0
M  V30 1757 H 148.776 1.40091 5.48079 0
M  V30 1758 H 147.333 1.98368 6.20881 0
M  V30 1759 N 150.766 -0.704594 1.40972 0
M  V30 1760 C 152.182 -1.01406 1.23244 0
M  V30 1761 C 152.382 -2.01169 0.115399 0
M  V30 1762 O 151.438 -2.47021 -0.523147 0
M  V30 1763 C 152.751 -1.54728 2.57836 0
M  V30 1764 C 154.299 -1.66658 2.64942 0
M  V30 1765 C 154.774 -2.23383 3.9983 0
M  V30 1766 N 156.265 -2.30756 4.01629 0
M  V30 1767 C 157 -2.75655 5.02794 0
M  V30 1768 N 156.496 -3.20225 6.14352 0
M  V30 1769 N 158.289 -2.75138 4.90159 0
M  V30 1770 H 150.44 -0.0435285 2.12355 0
M  V30 1771 H 152.703 -0.0818951 0.944456 0
M  V30 1772 H 152.409 -0.888832 3.40283 0
M  V30 1773 H 152.283 -2.53084 2.79693 0
M  V30 1774 H 154.67 -2.31617 1.8286 0
M  V30 1775 H 154.751 -0.668717 2.46904 0
M  V30 1776 H 154.395 -1.59043 4.82357 0
M  V30 1777 H 154.325 -3.23904 4.15203 0
M  V30 1778 H 156.816 -1.99291 3.21079 0
M  V30 1779 H 157.129 -3.53084 6.87424 0
M  V30 1780 H 155.474 -3.18156 6.17901 0
M  V30 1781 H 158.665 -2.39661 4.02095 0
M  V30 1782 H 158.838 -3.09812 5.6914 0
M  V30 1783 N 152.244 -1.26651 -0.937939 0
M  V30 1784 C 153.154 -1.10276 -2.07066 0
M  V30 1785 C 154.17 -0.0354197 -1.73964 0
M  V30 1786 O 155.346 -0.239816 -1.99967 0
M  V30 1787 C 152.411 -0.740887 -3.38691 0
M  V30 1788 C 151.472 -1.88799 -3.85556 0
M  V30 1789 C 150.705 -1.54329 -5.10899 0
M  V30 1790 O 150.928 -0.446494 -5.6865 0
M  V30 1791 O 149.862 -2.37911 -5.52885 0
M  V30 1792 H 153.688 -2.05309 -2.23789 0
M  V30 1793 H 151.273 -1.05743 -1.0554 0
M  V30 1794 H 153.155 -0.55195 -4.1777 0
M  V30 1795 H 151.83 0.180022 -3.23199 0
M  V30 1796 H 150.737 -2.13191 -3.07409 0
M  V30 1797 H 152.07 -2.78874 -4.05574 0
M  V30 1798 N 153.722 1.14298 -1.08507 0
M  V30 1799 C 154.67 2.21483 -0.710483 0
M  V30 1800 C 155.664 1.66998 0.284234 0
M  V30 1801 O 156.87 1.79401 0.146692 0
M  V30 1802 H 153.245 0.721578 -0.211729 0
M  V30 1803 H 155.216 2.50348 -1.62384 0
M  V30 1804 C 153.965 3.4743 -0.137007 0
M  V30 1805 H 153.288 3.89686 -0.893592 0
M  V30 1806 H 154.728 4.2391 0.0872789 0
M  V30 1807 C 153.187 3.17548 1.12538 0
M  V30 1808 O 153.717 3.35437 2.21009 0
M  V30 1809 N 151.923 2.71499 1.03617 0
M  V30 1810 H 151.47 2.57143 0.153403 0
M  V30 1811 H 151.428 2.51881 1.88158 0
M  V30 1812 N 155.201 0.870884 1.31352 0
M  V30 1813 C 156.426 0.495957 2.01383 0
M  V30 1814 C 156.851 -0.904324 1.64935 0
M  V30 1815 O 156.209 -1.59687 0.858466 0
M  V30 1816 C 156.257 0.661433 3.54482 0
M  V30 1817 O 155.361 -0.298851 4.11316 0
M  V30 1818 H 154.702 0.197158 0.634054 0
M  V30 1819 H 157.232 1.17455 1.67527 0
M  V30 1820 H 157.242 0.555072 4.04207 0
M  V30 1821 H 155.917 1.68246 3.8035 0
M  V30 1822 H 154.494 -0.147368 3.72609 0
M  V30 1823 N 156.679 -1.44442 0.630414 0
M  V30 1824 C 157.904 -2.06927 0.139944 0
M  V30 1825 C 158.329 -1.46795 -1.17613 0
M  V30 1826 O 157.687 -0.569144 -1.72135 0
M  V30 1827 C 157.735 -3.6058 0.0379581 0
M  V30 1828 O 156.839 -3.99937 -1.0062 0
M  V30 1829 H 156.18 -0.658608 0.0844483 0
M  V30 1830 H 158.71 -1.85327 0.866891 0
M  V30 1831 H 158.72 -4.07714 -0.152856 0
M  V30 1832 H 157.395 -4.03728 0.998809 0
M  V30 1833 H 155.972 -3.64436 -0.79001 0
M  V30 1834 N 158.157 -0.370918 -1.53173 0
M  V30 1835 C 159.387 0.217389 -2.05453 0
M  V30 1836 C 159.795 1.42568 -1.24382 0
M  V30 1837 O 159.138 1.81571 -0.278839 0
M  V30 1838 C 159.2 0.669827 -3.53205 0
M  V30 1839 C 158.864 -0.4225 -4.55043 0
M  V30 1840 C 159.861 -1.27407 -5.04047 0
M  V30 1841 C 157.546 -0.58427 -4.9889 0
M  V30 1842 C 159.54 -2.27271 -5.95505 0
M  V30 1843 C 157.227 -1.58627 -5.90153 0
M  V30 1844 C 158.225 -2.42892 -6.38351 0
M  V30 1845 O 157.913 -3.41382 -7.27814 0
M  V30 1846 H 157.645 0.0408171 -0.674767 0
M  V30 1847 H 160.199 -0.5292 -1.98466 0
M  V30 1848 H 158.429 1.4681 -3.57748 0
M  V30 1849 H 160.118 1.18173 -3.88317 0
M  V30 1850 H 160.884 -1.16031 -4.70916 0
M  V30 1851 H 156.763 0.061851 -4.60959 0
M  V30 1852 H 160.307 -2.93079 -6.33049 0
M  V30 1853 H 156.204 -1.70048 -6.22699 0
M  V30 1854 H 156.972 -3.37173 -7.45826 0
M  V30 1855 N 159.635 1.57281 -0.100228 0
M  V30 1856 C 161.051 1.57527 0.256416 0
M  V30 1857 C 161.251 1.11173 1.68056 0
M  V30 1858 O 160.307 0.79053 2.39806 0
M  V30 1859 C 161.62 3.00673 0.0401747 0
M  V30 1860 C 163.168 3.12815 0.107528 0
M  V30 1861 C 163.643 4.57929 -0.0807834 0
M  V30 1862 N 165.134 4.63193 -0.0261207 0
M  V30 1863 C 165.869 5.73212 -0.146999 0
M  V30 1864 N 165.365 6.92047 -0.322999 0
M  V30 1865 N 167.158 5.62031 -0.0879044 0
M  V30 1866 H 159.309 1.85718 -1.03065 0
M  V30 1867 H 161.572 0.857446 -0.404339 0
M  V30 1868 H 161.278 3.38804 -0.943649 0
M  V30 1869 H 161.152 3.69042 0.780262 0
M  V30 1870 H 163.539 2.74554 1.08186 0
M  V30 1871 H 163.62 2.47028 -0.664134 0
M  V30 1872 H 163.264 4.96886 -1.05201 0
M  V30 1873 H 163.194 5.21783 0.710635 0
M  V30 1874 H 165.685 3.77748 0.107161 0
M  V30 1875 H 165.998 7.7173 -0.406608 0
M  V30 1876 H 164.343 6.94074 -0.358733 0
M  V30 1877 H 167.534 4.68075 0.048498 0
M  V30 1878 H 167.707 6.47734 -0.185557 0
M  V30 1879 N 161.113 -0.173488 1.56642 0
M  V30 1880 C 162.338 -0.910149 1.86363 0
M  V30 1881 C 162.763 -1.75132 0.686318 0
M  V30 1882 O 162.121 -1.77595 -0.364643 0
M  V30 1883 C 162.169 -1.76447 3.14482 0
M  V30 1884 O 161.273 -2.86584 2.96553 0
M  V30 1885 H 160.614 -0.255086 0.613047 0
M  V30 1886 H 163.144 -0.172283 2.03873 0
M  V30 1887 H 163.154 -2.16483 3.45831 0
M  V30 1888 H 161.829 -1.14658 3.99783 0
M  V30 1889 H 160.406 -2.50146 2.76553 0
M  V30 1890 N 162.591 -1.51276 -0.441967 0
M  V30 1891 C 163.523 -1.68444 -1.55433 0
M  V30 1892 C 164.536 -0.565187 -1.52674 0
M  V30 1893 O 165.725 -0.839356 -1.57534 0
M  V30 1894 C 162.825 -1.67966 -2.94348 0
M  V30 1895 C 161.998 -2.964 -3.21661 0
M  V30 1896 C 161.057 -2.88171 -4.40277 0
M  V30 1897 O 160.083 -3.62119 -4.39157 0
M  V30 1898 N 161.285 -2.03706 -5.43584 0
M  V30 1899 H 164.05 -2.644 -1.41112 0
M  V30 1900 H 161.611 -1.49104 -0.630838 0
M  V30 1901 H 163.603 -1.60035 -3.71713 0
M  V30 1902 H 162.173 -0.796225 -3.0229 0
M  V30 1903 H 161.393 -3.18234 -2.32638 0
M  V30 1904 H 162.681 -3.81427 -3.36736 0
M  V30 1905 H 162.079 -1.42995 -5.47329 0
M  V30 1906 H 160.636 -2.01658 -6.1982 0
M  V30 1907 N 164.069 0.697108 -1.41344 0
M  V30 1908 C 165.485 1.00751 -1.2378 0
M  V30 1909 C 165.685 2.01105 -0.126066 0
M  V30 1910 O 164.741 2.47295 0.51004 0
M  V30 1911 C 166.054 1.53359 -2.58653 0
M  V30 1912 C 167.602 1.6525 -2.65822 0
M  V30 1913 C 168.077 2.2126 -4.01009 0
M  V30 1914 N 169.568 2.28622 -4.02847 0
M  V30 1915 C 170.303 2.72984 -5.04249 0
M  V30 1916 N 169.799 3.16962 -6.16041 0
M  V30 1917 N 171.592 2.72534 -4.91611 0
M  V30 1918 H 163.743 0.0322662 -2.12375 0
M  V30 1919 H 166.006 0.0768853 -0.944877 0
M  V30 1920 H 165.712 0.870773 -3.4075 0
M  V30 1921 H 165.586 2.51597 -2.81032 0
M  V30 1922 H 167.973 2.30644 -1.84086 0
M  V30 1923 H 168.054 0.655614 -2.47256 0
M  V30 1924 H 167.698 1.56482 -4.83193 0
M  V30 1925 H 167.628 3.21698 -4.16915 0
M  V30 1926 H 170.119 1.97585 -3.22131 0
M  V30 1927 H 170.432 3.49434 -6.89287 0
M  V30 1928 H 168.777 3.14875 -6.1958 0
M  V30 1929 H 171.968 2.37525 -4.0336 0
M  V30 1930 H 172.141 3.06789 -5.70775 0
M  V30 1931 N 165.547 1.27147 0.931209 0
M  V30 1932 C 166.772 1.16191 1.71797 0
M  V30 1933 C 167.197 -0.278004 1.86034 0
M  V30 1934 O 166.555 -1.20137 1.35782 0
M  V30 1935 C 166.603 1.84673 3.09723 0
M  V30 1936 O 165.707 1.14231 3.96264 0
M  V30 1937 H 165.048 0.404303 0.526721 0
M  V30 1938 H 167.578 1.68152 1.1656 0
M  V30 1939 H 167.588 1.91893 3.60057 0
M  V30 1940 H 166.263 2.89421 2.98677 0
M  V30 1941 H 164.84 1.15056 3.54706 0
M  V30 1942 N 167.025 -1.13721 1.09112 0
M  V30 1943 C 168.25 -1.89314 0.847053 0
M  V30 1944 C 168.675 -1.78416 -0.595774 0
M  V30 1945 O 168.033 -1.12942 -1.41823 0
M  V30 1946 C 168.081 -3.3701 1.28284 0
M  V30 1947 O 167.185 -4.10054 0.439267 0
M  V30 1948 H 166.526 -0.588745 0.307044 0
M  V30 1949 H 169.056 -1.43902 1.45442 0
M  V30 1950 H 169.066 -3.87834 1.26683 0
M  V30 1951 H 167.741 -3.4426 2.33363 0
M  V30 1952 H 166.318 -3.69266 0.519312 0
M  V30 1953 N 168.503 -0.877838 -1.30888 0
M  V30 1954 C 169.919 -0.570844 -1.49042 0
M  V30 1955 C 170.119 0.893159 -1.80624 0
M  V30 1956 O 169.175 1.67485 -1.88958 0
M  V30 1957 C 170.488 -1.47784 -2.61878 0
M  V30 1958 C 172.036 -1.48071 -2.75761 0
M  V30 1959 C 172.511 -2.37347 -3.91702 0
M  V30 1960 N 174.002 -2.35271 -3.99001 0
M  V30 1961 C 174.737 -3.01063 -4.88004 0
M  V30 1962 N 174.233 -3.76055 -5.81854 0
M  V30 1963 N 176.026 -2.90332 -4.81315 0
M  V30 1964 H 168.177 -1.82502 -1.0866 0
M  V30 1965 H 170.44 -0.780797 -0.537644 0
M  V30 1966 H 170.146 -2.51993 -2.45341 0
M  V30 1967 H 170.02 -1.18215 -3.58197 0
M  V30 1968 H 172.407 -0.446166 -2.91708 0
M  V30 1969 H 172.488 -1.81668 -1.80085 0
M  V30 1970 H 172.132 -3.40883 -3.76512 0
M  V30 1971 H 172.062 -2.01071 -4.86701 0
M  V30 1972 H 174.553 -1.80768 -3.3186 0
M  V30 1973 H 174.866 -4.23366 -6.46514 0
M  V30 1974 H 173.211 -3.80163 -5.81808 0
M  V30 1975 H 176.402 -2.31278 -4.06974 0
M  V30 1976 H 176.575 -3.41885 -5.50471 0
M  V30 1977 N 169.982 1.44106 -0.638065 0
M  V30 1978 C 171.398 1.56672 -0.304286 0
M  V30 1979 C 171.598 1.6244 1.19228 0
M  V30 1980 O 170.654 1.57121 1.9766 0
M  V30 1981 C 171.967 2.83503 -1.00231 0
M  V30 1982 C 173.515 2.97226 -0.981116 0
M  V30 1983 C 173.99 4.26868 -1.65974 0
M  V30 1984 N 175.481 4.33698 -1.62666 0
M  V30 1985 C 176.216 5.32745 -2.12063 0
M  V30 1986 N 175.712 6.38157 -2.6968 0
M  V30 1987 N 177.505 5.24299 -2.02651 0
M  V30 1988 H 169.656 1.38605 -1.60942 0
M  V30 1989 H 171.919 0.664661 -0.675965 0
M  V30 1990 H 171.625 2.85251 -2.0573 0
M  V30 1991 H 171.499 3.73251 -0.54439 0
M  V30 1992 H 173.886 2.95027 0.0654188 0
M  V30 1993 H 173.967 2.08808 -1.47759 0
M  V30 1994 H 173.611 4.29826 -2.70576 0
M  V30 1995 H 173.541 5.14156 -1.13804 0
M  V30 1996 H 176.032 3.58138 -1.20606 0
M  V30 1997 H 176.345 7.10029 -3.05087 0
M  V30 1998 H 174.69 6.38823 -2.73734 0
M  V30 1999 H 177.881 4.4086 -1.57353 0
M  V30 2000 H 178.054 6.01334 -2.41457 0
M  V30 2001 N 171.46 0.379036 1.52974 0
M  V30 2002 C 172.407 -0.461048 2.26148 0
M  V30 2003 C 173.377 -1.06637 1.27349 0
M  V30 2004 O 174.562 -1.09633 1.56157 0
M  V30 2005 C 171.702 -1.58782 3.06402 0
M  V30 2006 C 170.815 -1.00636 4.20115 0
M  V30 2007 C 169.95 -2.10334 4.87784 0
M  V30 2008 C 168.989 -1.49724 5.93506 0
M  V30 2009 N 168.126 -2.5331 6.54812 0
M  V30 2010 H 172.966 0.169429 2.97518 0
M  V30 2011 H 170.503 0.0953806 1.4679 0
M  V30 2012 H 172.461 -2.25174 3.51215 0
M  V30 2013 H 171.091 -2.18876 2.37261 0
M  V30 2014 H 170.143 -0.232332 3.7969 0
M  V30 2015 H 171.455 -0.523343 4.96047 0
M  V30 2016 H 170.609 -2.84519 5.35849 0
M  V30 2017 H 169.348 -2.61992 4.11353 0
M  V30 2018 H 168.353 -0.740598 5.44789 0
M  V30 2019 H 169.578 -0.988732 6.71864 0
M  V30 2020 H 167.524 -3.04156 5.81227 0
M  V30 2021 H 167.441 -2.09734 7.26325 0
M  V30 2022 H 168.709 -3.27155 7.07524 0
M  V30 2023 N 172.938 -1.57226 0.108567 0
M  V30 2024 C 173.888 -2.11305 -0.856396 0
M  V30 2025 C 174.872 -1.03129 -1.23504 0
M  V30 2026 O 176.064 -1.29381 -1.20787 0
M  V30 2027 C 173.193 -2.70771 -2.11041 0
M  V30 2028 C 172.279 -3.86011 -1.7566 0
M  V30 2029 N 172.67 -4.93492 -1.10902 0
M  V30 2030 C 170.968 -3.95999 -2.05185 0
M  V30 2031 C 171.669 -5.73984 -0.944308 0
M  V30 2032 N 170.645 -5.2346 -1.46596 0
M  V30 2033 H 174.447 -2.91784 -0.352002 0
M  V30 2034 H 171.961 -1.62126 -0.0942324 0
M  V30 2035 H 173.958 -3.07851 -2.81128 0
M  V30 2036 H 172.618 -1.91751 -2.62034 0
M  V30 2037 H 173.629 -5.1208 -0.774235 0
M  V30 2038 H 170.306 -3.28007 -2.58298 0
M  V30 2039 H 171.696 -6.70479 -0.436813 0
M  V30 2040 N 174.416 0.165178 -1.56732 0
M  V30 2041 C 175.832 0.517174 -1.50988 0
M  V30 2042 C 176.032 1.84331 -0.813894 0
M  V30 2043 O 175.088 2.49672 -0.37682 0
M  V30 2044 C 176.401 0.544261 -2.95733 0
M  V30 2045 C 177.949 0.631039 -3.06573 0
M  V30 2046 C 178.424 0.68896 -4.52788 0
M  V30 2047 N 179.915 0.751683 -4.5706 0
M  V30 2048 C 180.65 0.817177 -5.67547 0
M  V30 2049 N 180.146 0.843129 -6.8765 0
M  V30 2050 N 181.939 0.856668 -5.55534 0
M  V30 2051 H 174.09 -0.704318 -2.00382 0
M  V30 2052 H 176.353 -0.254687 -0.913148 0
M  V30 2053 H 176.059 -0.361607 -3.49836 0
M  V30 2054 H 175.933 1.3886 -3.5071 0
M  V30 2055 H 178.32 1.52733 -2.52501 0
M  V30 2056 H 178.401 -0.240095 -2.54671 0
M  V30 2057 H 178.045 -0.2031 -5.07494 0
M  V30 2058 H 177.975 1.57633 -5.02454 0
M  V30 2059 H 180.466 0.739661 -3.70591 0
M  V30 2060 H 180.779 0.894448 -7.67606 0
M  V30 2061 H 179.124 0.811304 -6.90248 0
M  V30 2062 H 182.315 0.833437 -4.60621 0
M  V30 2063 H 182.488 0.904247 -6.4166 0
M  V30 2064 N 175.894 1.51508 0.433938 0
M  V30 2065 C 177.31 1.39759 0.770682 0
M  V30 2066 C 177.51 0.482594 1.95636 0
M  V30 2067 O 176.566 -0.0609691 2.52426 0
M  V30 2068 C 177.879 2.81851 1.04787 0
M  V30 2069 C 179.427 2.91025 1.1521 0
M  V30 2070 C 179.902 4.34032 1.46219 0
M  V30 2071 N 181.393 4.37154 1.53136 0
M  V30 2072 C 182.128 5.4484 1.78709 0
M  V30 2073 N 181.624 6.62682 2.02051 0
M  V30 2074 N 183.417 5.32324 1.80519 0
M  V30 2075 H 175.568 2.09548 -0.346892 0
M  V30 2076 H 177.831 0.943446 -0.0928074 0
M  V30 2077 H 177.537 3.50815 0.249304 0
M  V30 2078 H 177.411 3.21386 1.97461 0
M  V30 2079 H 179.798 2.22257 1.94128 0
M  V30 2080 H 179.879 2.54983 0.204281 0
M  V30 2081 H 179.523 5.03351 0.678274 0
M  V30 2082 H 179.453 4.6759 2.42212 0
M  V30 2083 H 181.944 3.52197 1.36987 0
M  V30 2084 H 182.257 7.40543 2.20943 0
M  V30 2085 H 180.602 6.65791 1.99366 0
M  V30 2086 H 183.793 4.39246 1.61805 0
M  V30 2087 H 183.966 6.16328 2.00111 0
M  V30 2088 N 177.372 -0.689602 1.41712 0
M  V30 2089 C 178.788 -1.00093 1.24312 0
M  V30 2090 C 178.988 -2.01036 0.136729 0
M  V30 2091 O 178.044 -2.47562 -0.496918 0
M  V30 2092 C 179.357 -1.51985 2.59463 0
M  V30 2093 C 180.905 -1.63838 2.66695 0
M  V30 2094 C 181.38 -2.1913 4.02177 0
M  V30 2095 N 182.871 -2.26483 4.04054 0
M  V30 2096 C 183.606 -2.70306 5.0569 0
M  V30 2097 N 183.102 -3.13691 6.17713 0
M  V30 2098 N 184.895 -2.69923 4.9305 0
M  V30 2099 H 177.046 -0.0210029 2.1239 0
M  V30 2100 H 179.309 -0.0718733 0.945272 0
M  V30 2101 H 179.015 -0.85269 3.41207 0
M  V30 2102 H 178.889 -2.50103 2.82362 0
M  V30 2103 H 181.276 -2.29664 1.85306 0
M  V30 2104 H 181.357 -0.642492 2.476 0
M  V30 2105 H 181.001 -1.53918 4.84016 0
M  V30 2106 H 180.931 -3.19482 4.18615 0
M  V30 2107 H 183.422 -1.95874 3.23174 0
M  V30 2108 H 183.735 -3.45773 6.9113 0
M  V30 2109 H 182.08 -3.11585 6.21241 0
M  V30 2110 H 185.271 -2.35382 4.04614 0
M  V30 2111 H 185.444 -3.03758 5.72394 0
M  V30 2112 N 178.85 -1.27639 -0.924453 0
M  V30 2113 C 180.266 -1.05113 -1.20097 0
M  V30 2114 C 180.466 0.213262 -2.00368 0
M  V30 2115 O 179.522 0.91787 -2.35226 0
M  V30 2116 C 180.835 -2.29244 -1.94596 0
M  V30 2117 C 182.383 -2.34315 -2.07522 0
M  V30 2118 C 182.858 -3.58183 -2.85427 0
M  V30 2119 N 184.349 -3.5876 -2.92994 0
M  V30 2120 C 185.084 -4.51277 -3.53746 0
M  V30 2121 N 184.58 -5.54102 -4.15863 0
M  V30 2122 N 186.373 -4.38894 -3.51181 0
M  V30 2123 H 178.524 -2.08821 -0.388264 0
M  V30 2124 H 180.787 -0.918568 -0.234385 0
M  V30 2125 H 180.493 -3.21301 -1.43034 0
M  V30 2126 H 180.367 -2.34816 -2.95197 0
M  V30 2127 H 182.754 -1.42762 -2.58269 0
M  V30 2128 H 182.835 -2.32744 -1.06131 0
M  V30 2129 H 182.479 -4.50074 -2.35363 0
M  V30 2130 H 182.409 -3.57006 -3.8711 0
M  V30 2131 H 184.9 -2.84398 -2.4885 0
M  V30 2132 H 185.213 -6.20859 -4.60168 0
M  V30 2133 H 183.558 -5.57941 -4.144 0
M  V30 2134 H 186.749 -3.57772 -3.01856 0
M  V30 2135 H 186.922 -5.11186 -3.98237 0
M  V30 2136 N 180.328 1.1314 -1.09713 0
M  V30 2137 C 181.744 1.36477 -0.827423 0
M  V30 2138 C 181.944 1.93654 0.556817 0
M  V30 2139 O 181 2.15791 1.31112 0
M  V30 2140 C 182.313 2.31334 -1.92106 0
M  V30 2141 C 183.861 2.44943 -1.94864 0
M  V30 2142 C 184.336 3.4311 -3.0338 0
M  V30 2143 N 185.827 3.50662 -3.02639 0
M  V30 2144 C 186.562 4.2651 -3.83246 0
M  V30 2145 N 186.058 5.05485 -4.73768 0
M  V30 2146 N 187.851 4.2184 -3.71493 0
M  V30 2147 H 180.002 0.743807 -1.9895 0
M  V30 2148 H 182.265 0.389823 -0.864143 0
M  V30 2149 H 181.971 1.96483 -2.91698 0
M  V30 2150 H 181.845 3.31381 -1.80184 0
M  V30 2151 H 184.232 2.79079 -0.959099 0
M  V30 2152 H 184.313 1.4481 -2.10864 0
M  V30 2153 H 183.957 3.09704 -4.02549 0
M  V30 2154 H 183.887 4.43055 -2.84622 0
M  V30 2155 H 186.378 2.94315 -2.37039 0
M  V30 2156 H 186.691 5.60675 -5.3185 0
M  V30 2157 H 185.036 5.04708 -4.77802 0
M  V30 2158 H 188.227 3.5922 -3.00131 0
M  V30 2159 H 188.4 4.80697 -4.3455 0
M  V30 2160 N 181.806 0.884767 1.30421 0
M  V30 2161 C 183.222 0.57874 1.48737 0
M  V30 2162 C 183.422 -0.883567 1.81095 0
M  V30 2163 O 182.478 -1.6648 1.89844 0
M  V30 2164 C 183.791 1.49171 2.61091 0
M  V30 2165 C 185.339 1.49532 2.74971 0
M  V30 2166 C 185.814 2.39421 3.90438 0
M  V30 2167 N 187.305 2.37383 3.97748 0
M  V30 2168 C 188.04 3.03647 4.86401 0
M  V30 2169 N 187.536 3.79136 5.79852 0
M  V30 2170 N 189.329 2.9288 4.79768 0
M  V30 2171 H 181.48 1.83075 1.0769 0
M  V30 2172 H 183.743 0.783637 0.533495 0
M  V30 2173 H 183.449 2.53291 2.44001 0
M  V30 2174 H 183.323 1.20113 3.57565 0
M  V30 2175 H 185.71 0.46163 2.91467 0
M  V30 2176 H 185.791 1.8262 1.79119 0
M  V30 2177 H 185.435 3.42874 3.74699 0
M  V30 2178 H 185.365 2.03649 4.85628 0
M  V30 2179 H 187.856 1.82525 3.30897 0
M  V30 2180 H 188.169 4.26789 6.4426 0
M  V30 2181 H 186.514 3.83243 5.79784 0
M  V30 2182 H 189.705 2.33433 4.05742 0
M  V30 2183 H 189.878 3.448 5.4865 0
M  V30 2184 N 183.284 -1.43765 0.645699 0
M  V30 2185 C 184.509 -2.06767 0.161883 0
M  V30 2186 C 184.934 -1.48034 -1.16049 0
M  V30 2187 O 184.292 -0.587369 -1.71522 0
M  V30 2188 C 184.34 -3.60519 0.0762003 0
M  V30 2189 O 183.444 -4.00982 -0.963721 0
M  V30 2190 H 182.785 -0.657675 0.091429 0
M  V30 2191 H 185.315 -1.84397 0.886499 0
M  V30 2192 H 185.325 -4.07853 -0.109604 0
M  V30 2193 H 184 -4.02646 1.04157 0
M  V30 2194 H 182.577 -3.65253 -0.751312 0
M  V30 2195 N 184.763 -0.387143 -1.52771 0
M  V30 2196 C 186.179 -0.037007 -1.59557 0
M  V30 2197 C 186.379 1.44801 -1.40124 0
M  V30 2198 O 185.435 2.21227 -1.21716 0
M  V30 2199 C 186.748 -0.512256 -2.96305 0
M  V30 2200 C 188.296 -0.468328 -3.09476 0
M  V30 2201 C 188.771 -0.919731 -4.4867 0
M  V30 2202 N 190.262 -0.875656 -4.54848 0
M  V30 2203 C 190.997 -1.19637 -5.6078 0
M  V30 2204 N 190.493 -1.58745 -6.74368 0
M  V30 2205 N 192.286 -1.11776 -5.50874 0
M  V30 2206 H 184.437 -1.35395 -1.63652 0
M  V30 2207 H 186.7 -0.554818 -0.768688 0
M  V30 2208 H 186.406 -1.54935 -3.15734 0
M  V30 2209 H 186.28 0.089805 -3.77093 0
M  V30 2210 H 188.667 0.559671 -2.89744 0
M  V30 2211 H 188.748 -1.10616 -2.30646 0
M  V30 2212 H 188.392 -1.94595 -4.69143 0
M  V30 2213 H 188.322 -0.258927 -5.25963 0
M  V30 2214 H 190.813 -0.587843 -3.733 0
M  V30 2215 H 191.126 -1.81586 -7.51163 0
M  V30 2216 H 189.471 -1.6263 -6.75705 0
M  V30 2217 H 192.662 -0.811264 -4.61016 0
M  V30 2218 H 192.835 -1.37103 -6.3333 0
M  V30 2219 N 186.241 1.57166 -0.116904 0
M  V30 2220 C 187.469 1.99473 0.549383 0
M  V30 2221 C 187.884 0.996541 1.60357 0
M  V30 2222 O 187.241 -0.0108731 1.82497 0
M  V30 2223 C 187.292 3.41788 1.17741 0
M  V30 2224 O 187.013 4.37788 0.165362 0
M  V30 2225 C 188.514 3.99216 1.92722 0
M  V30 2226 H 185.734 0.655009 0.145616 0
M  V30 2227 H 188.278 2.03494 -0.202625 0
M  V30 2228 H 186.433 3.38713 1.88021 0
M  V30 2229 H 186.847 5.20806 0.621403 0
M  V30 2230 H 188.321 5.00882 2.31995 0
M  V30 2231 H 188.798 3.3824 2.80161 0
M  V30 2232 H 189.404 4.0583 1.27209 0
M  V30 2233 N 187.719 -0.156864 1.56817 0
M  V30 2234 C 188.966 -0.871125 1.82805 0
M  V30 2235 C 189.294 -1.81611 0.696262 0
M  V30 2236 O 188.549 -1.93141 -0.315459 0
M  V30 2237 C 188.848 -1.68737 3.1506 0
M  V30 2238 C 188.514 -0.890045 4.42028 0
M  V30 2239 C 187.176 -0.670042 4.76512 0
M  V30 2240 C 189.528 -0.331769 5.20143 0
M  V30 2241 C 186.856 0.119104 5.86579 0
M  V30 2242 C 189.208 0.444365 6.31037 0
M  V30 2243 C 187.872 0.675035 6.64078 0
M  V30 2244 H 187.142 -0.318767 0.668931 0
M  V30 2245 H 189.789 -0.135274 1.91022 0
M  V30 2246 H 188.094 -2.49304 3.0225 0
M  V30 2247 H 189.791 -2.24331 3.3238 0
M  V30 2248 H 186.381 -1.07157 4.14988 0
M  V30 2249 H 190.565 -0.489043 4.93885 0
M  V30 2250 H 185.821 0.307417 6.10627 0
M  V30 2251 H 189.995 0.884139 6.90765 0
M  V30 2252 H 187.622 1.28839 7.49203 0
M  V30 2253 N 189.197 -1.51736 -0.425897 0
M  V30 2254 C 190.422 -1.69082 -1.20108 0
M  V30 2255 C 190.847 -0.392398 -1.83962 0
M  V30 2256 O 190.205 0.64858 -1.69302 0
M  V30 2257 C 190.253 -2.81604 -2.25237 0
M  V30 2258 O 189.357 -2.46004 -3.30992 0
M  V30 2259 H 188.698 -0.563408 -0.35138 0
M  V30 2260 H 191.228 -1.98358 -0.501512 0
M  V30 2261 H 191.238 -3.06025 -2.69838 0
M  V30 2262 H 189.913 -3.75817 -1.78142 0
M  V30 2263 H 188.49 -2.32195 -2.91787 0
M  V30 2264 N 190.675 0.682077 -1.42076 0
M  V30 2265 C 192.091 0.994324 -1.24841 0
M  V30 2266 C 192.291 2.0096 -0.147389 0
M  V30 2267 O 191.347 2.47822 0.483782 0
M  V30 2268 C 192.66 1.50607 -2.60265 0
M  V30 2269 C 194.208 1.62421 -2.6756 0
M  V30 2270 C 194.683 2.16994 -4.03333 0
M  V30 2271 N 196.174 2.24337 -4.0525 0
M  V30 2272 C 196.909 2.67621 -5.07116 0
M  V30 2273 N 196.405 3.1041 -6.19368 0
M  V30 2274 N 198.198 2.67305 -4.94474 0
M  V30 2275 H 190.349 0.00973908 -2.12398 0
M  V30 2276 H 192.612 0.0668593 -0.945639 0
M  V30 2277 H 192.318 0.834583 -3.41654 0
M  V30 2278 H 192.192 2.48602 -2.83684 0
M  V30 2279 H 194.579 2.28678 -1.86521 0
M  V30 2280 H 194.66 0.629352 -2.47937 0
M  V30 2281 H 194.304 1.51349 -4.84826 0
M  V30 2282 H 194.234 3.17258 -4.20304 0
M  V30 2283 H 196.725 1.94158 -3.24209 0
M  V30 2284 H 197.038 3.42103 -6.92954 0
M  V30 2285 H 195.383 3.08286 -6.22884 0
M  V30 2286 H 198.574 2.33233 -4.05857 0
M  V30 2287 H 198.747 3.00718 -5.73997 0
M  V30 2288 N 192.153 1.28127 0.917671 0
M  V30 2289 C 193.378 1.18007 1.70555 0
M  V30 2290 C 193.803 -0.258257 1.86319 0
M  V30 2291 O 193.161 -1.1869 1.37049 0
M  V30 2292 C 193.209 1.87948 3.07746 0
M  V30 2293 O 192.313 1.18427 3.9503 0
M  V30 2294 H 191.654 0.409867 0.522403 0
M  V30 2295 H 194.184 1.69379 1.1477 0
M  V30 2296 H 194.194 1.95701 3.58001 0
M  V30 2297 H 192.869 2.92573 2.95591 0
M  V30 2298 H 191.446 1.18811 3.53466 0
M  V30 2299 N 193.631 -1.12557 1.10312 0
M  V30 2300 C 194.856 -1.88405 0.867085 0
M  V30 2301 C 195.281 -1.79038 -0.576817 0
M  V30 2302 O 194.639 -1.14439 -1.40618 0
M  V30 2303 C 194.687 -3.3563 1.31851 0
M  V30 2304 O 193.791 -4.09565 0.482734 0
M  V30 2305 H 193.132 -0.585455 0.313271 0
M  V30 2306 H 195.662 -1.42352 1.4696 0
M  V30 2307 H 195.672 -3.86469 1.3079 0
M  V30 2308 H 194.347 -3.41765 2.37001 0
M  V30 2309 H 192.924 -3.68695 0.558448 0
M  V30 2310 N 195.109 -0.891671 -1.2995 0
M  V30 2311 C 196.334 -0.527932 -2.00568 0
M  V30 2312 C 196.759 0.877969 -1.66353 0
M  V30 2313 O 196.117 1.58301 -0.883762 0
M  V30 2314 C 196.165 -0.717745 -3.53385 0
M  V30 2315 O 195.269 0.233376 -4.11739 0
M  V30 2316 H 194.61 -0.20722 -0.630837 0
M  V30 2317 H 197.14 -1.20105 -1.65638 0
M  V30 2318 H 197.15 -0.619307 -4.03272 0
M  V30 2319 H 195.825 -1.74276 -3.77625 0
M  V30 2320 H 194.402 0.0880706 -3.72796 0
M  V30 2321 N 196.587 1.43421 -0.653314 0
M  V30 2322 C 197.519 2.29071 0.0769134 0
M  V30 2323 C 198.532 1.42513 0.787017 0
M  V30 2324 O 199.721 1.66449 0.644757 0
M  V30 2325 C 196.821 3.19436 1.13199 0
M  V30 2326 C 195.994 4.34533 0.500006 0
M  V30 2327 C 195.053 5.05771 1.45198 0
M  V30 2328 O 194.079 5.61037 0.960538 0
M  V30 2329 N 195.281 5.0928 2.78594 0
M  V30 2330 H 198.046 2.92382 -0.658235 0
M  V30 2331 H 195.607 1.54112 -0.496104 0
M  V30 2332 H 197.599 3.63958 1.76964 0
M  V30 2333 H 196.169 2.57724 1.7691 0
M  V30 2334 H 195.389 3.92925 -0.316738 0
M  V30 2335 H 196.677 5.08766 0.0588345 0
M  V30 2336 H 196.075 4.65751 3.2108 0
M  V30 2337 H 194.632 5.57519 3.37662 0
M  V30 2338 N 198.065 0.39524 1.52563 0
M  V30 2339 C 199.015 -0.4541 2.23432 0
M  V30 2340 C 199.999 -1.02482 1.24042 0
M  V30 2341 O 201.191 -0.949938 1.49349 0
M  V30 2342 C 198.32 -1.57769 3.049 0
M  V30 2343 C 197.406 -1.01842 4.1169 0
M  V30 2344 N 197.797 -0.184613 5.05463 0
M  V30 2345 C 196.095 -1.29033 4.26927 0
M  V30 2346 C 196.796 0.125013 5.81566 0
M  V30 2347 N 195.772 -0.480498 5.41472 0
M  V30 2348 H 199.574 0.189413 2.93289 0
M  V30 2349 H 197.088 0.204877 1.61102 0
M  V30 2350 H 199.085 -2.19862 3.54212 0
M  V30 2351 H 197.745 -2.22397 2.36579 0
M  V30 2352 H 198.756 0.178602 5.17592 0
M  V30 2353 H 195.433 -1.93721 3.69836 0
M  V30 2354 H 196.823 0.800962 6.67109 0
M  V30 2355 N 199.544 -1.57102 0.125237 0
M  V30 2356 C 200.769 -2.0019 -0.542101 0
M  V30 2357 C 201.194 -1.00449 -1.59034 0
M  V30 2358 O 200.552 0.0229423 -1.81285 0
M  V30 2359 C 200.6 -3.42129 -1.13929 0
M  V30 2360 O 199.704 -3.45307 -2.2547 0
M  V30 2361 H 199.045 -0.650171 -0.134812 0
M  V30 2362 H 201.575 -2.03461 0.215553 0
M  V30 2363 H 201.585 -3.80471 -1.4733 0
M  V30 2364 H 200.26 -4.14237 -0.371531 0
M  V30 2365 H 198.837 -3.1879 -1.93462 0
M  V30 2366 N 201.022 0.148545 -1.56898 0
M  V30 2367 C 202.247 0.880385 -1.87787 0
M  V30 2368 C 202.672 1.74018 -0.714093 0
M  V30 2369 O 202.03 1.78153 0.336343 0
M  V30 2370 C 202.078 1.71422 -3.17249 0
M  V30 2371 O 201.182 2.8183 -3.01074 0
M  V30 2372 H 200.523 0.245301 -0.617028 0
M  V30 2373 H 203.053 0.139826 -2.04122 0
M  V30 2374 H 203.063 2.10954 -3.49231 0
M  V30 2375 H 201.738 1.08284 -4.01556 0
M  V30 2376 H 200.315 2.45715 -2.80497 0
M  V30 2377 N 202.5 1.5196 0.417844 0
M  V30 2378 C 203.916 1.40569 0.755816 0
M  V30 2379 C 204.116 0.503316 1.95113 0
M  V30 2380 O 203.172 -0.0341925 2.52477 0
M  V30 2381 C 204.485 2.82947 1.01791 0
M  V30 2382 C 206.033 2.92231 1.12116 0
M  V30 2383 C 206.508 4.35559 1.41608 0
M  V30 2384 N 207.999 4.38753 1.48491 0
M  V30 2385 C 208.734 5.46705 1.7292 0
M  V30 2386 N 208.23 6.64788 1.95011 0
M  V30 2387 N 210.023 5.34209 1.74863 0
M  V30 2388 H 202.174 2.09168 -0.369098 0
M  V30 2389 H 204.437 0.942409 -0.102809 0
M  V30 2390 H 204.143 3.5106 0.212081 0
M  V30 2391 H 204.017 3.23462 1.94042 0
M  V30 2392 H 206.404 2.24304 1.9176 0
M  V30 2393 H 206.485 2.55185 0.177225 0
M  V30 2394 H 206.129 5.04042 0.624848 0
M  V30 2395 H 206.059 4.70133 2.37239 0
M  V30 2396 H 208.55 3.5363 1.33244 0
M  V30 2397 H 208.863 7.42845 2.13076 0
M  V30 2398 H 207.208 6.67869 1.92293 0
M  V30 2399 H 210.399 4.40937 1.57137 0
M  V30 2400 H 210.572 6.18415 1.93563 0
M  V30 2401 N 203.978 -0.674533 1.42435 0
M  V30 2402 C 205.394 -0.98769 1.25367 0
M  V30 2403 C 205.594 -2.00879 0.158044 0
M  V30 2404 O 204.65 -2.48075 -0.470633 0
M  V30 2405 C 205.963 -1.49224 2.6106 0
M  V30 2406 C 207.511 -1.61 2.68417 0
M  V30 2407 C 207.986 -2.14852 4.04478 0
M  V30 2408 N 209.477 -2.22185 4.06434 0
M  V30 2409 C 210.212 -2.64928 5.08528 0
M  V30 2410 N 209.708 -3.07121 6.21006 0
M  V30 2411 N 211.501 -2.64679 4.95885 0
M  V30 2412 H 203.652 0.00152503 2.124 0
M  V30 2413 H 205.915 -0.0618434 0.945981 0
M  V30 2414 H 205.621 -0.816453 3.42092 0
M  V30 2415 H 205.495 -2.47094 2.84999 0
M  V30 2416 H 207.882 -2.27686 1.87732 0
M  V30 2417 H 207.963 -0.616195 2.48267 0
M  V30 2418 H 207.607 -1.48775 4.85622 0
M  V30 2419 H 207.537 -3.15024 4.2198 0
M  V30 2420 H 210.028 -1.92435 3.25234 0
M  V30 2421 H 210.341 -3.38423 6.94759 0
M  V30 2422 H 208.686 -3.04978 6.24511 0
M  V30 2423 H 211.877 -2.31078 4.07088 0
M  V30 2424 H 212.05 -2.9767 5.75584 0
M  V30 2425 N 205.456 -1.28612 -0.910864 0
M  V30 2426 C 206.419 -1.12803 -1.9952 0
M  V30 2427 C 207.419 -0.0668264 -1.60661 0
M  V30 2428 O 208.609 -0.312847 -1.71368 0
M  V30 2429 C 205.741 -0.72254 -3.33155 0
M  V30 2430 H 206.934 -2.09109 -2.14973 0
M  V30 2431 H 204.487 -1.11639 -1.09391 0
M  V30 2432 H 205.222 0.241152 -3.23402 0
M  V30 2433 H 205.007 -1.48916 -3.62721 0
M  V30 2434 H 206.497 -0.634666 -4.12749 0
M  V30 2435 N 206.934 1.1197 -1.10907 0
M  V30 2436 C 207.881 2.17846 -0.762345 0
M  V30 2437 C 208.851 1.63995 0.263599 0
M  V30 2438 O 210.036 1.90273 0.141773 0
M  V30 2439 C 207.176 3.44487 -0.205651 0
M  V30 2440 C 206.289 4.12369 -1.28748 0
M  V30 2441 C 205.424 5.26674 -0.691919 0
M  V30 2442 C 204.463 5.86431 -1.75399 0
M  V30 2443 N 203.6 6.92142 -1.17833 0
M  V30 2444 H 208.44 2.46851 -1.6694 0
M  V30 2445 H 205.977 1.21188 -0.833776 0
M  V30 2446 H 207.935 4.16981 0.135037 0
M  V30 2447 H 206.565 3.15884 0.664613 0
M  V30 2448 H 205.617 3.38003 -1.74522 0
M  V30 2449 H 206.929 4.52844 -2.09125 0
M  V30 2450 H 206.083 6.05953 -0.300963 0
M  V30 2451 H 204.822 4.8749 0.143232 0
M  V30 2452 H 203.827 5.05835 -2.15432 0
M  V30 2453 H 205.052 6.27685 -2.59208 0
M  V30 2454 H 202.998 6.54985 -0.364725 0
M  V30 2455 H 202.915 7.31242 -1.91887 0
M  V30 2456 H 204.183 7.75237 -0.81408 0
M  V30 2457 N 208.412 0.89855 1.29475 0
M  V30 2458 C 209.637 0.538561 2.00285 0
M  V30 2459 C 210.062 -0.869135 1.66816 0
M  V30 2460 O 209.42 -1.57831 0.892145 0
M  V30 2461 C 209.468 0.736475 3.52999 0
M  V30 2462 O 208.572 -0.211537 4.11857 0
M  V30 2463 H 207.913 0.210563 0.62973 0
M  V30 2464 H 210.443 1.20982 1.64998 0
M  V30 2465 H 210.453 0.640685 4.02938 0
M  V30 2466 H 209.128 1.76276 3.76696 0
M  V30 2467 H 207.705 -0.0682991 3.72837 0
M  V30 2468 N 209.89 -1.43072 0.660911 0
M  V30 2469 C 211.136 -2.0202 0.177708 0
M  V30 2470 C 211.469 -1.52066 -1.20787 0
M  V30 2471 O 210.744 -0.716987 -1.80802 0
M  V30 2472 C 211.027 -3.59561 0.197019 0
M  V30 2473 C 210.88 -4.19727 1.61706 0
M  V30 2474 C 212.199 -4.37664 -0.462396 0
M  V30 2475 H 209.318 -0.734034 0.0660494 0
M  V30 2476 H 211.96 -1.70272 0.843058 0
M  V30 2477 H 210.11 -3.86739 -0.369527 0
M  V30 2478 H 211.782 -4.03553 2.23479 0
M  V30 2479 H 210.025 -3.76084 2.16201 0
M  V30 2480 H 210.696 -5.28834 1.58237 0
M  V30 2481 H 213.172 -4.16095 0.0197215 0
M  V30 2482 H 212.048 -5.47305 -0.418188 0
M  V30 2483 H 212.309 -4.14493 -1.53778 0
M  V30 2484 N 211.368 -0.403325 -1.52352 0
M  V30 2485 C 212.278 0.432009 -2.30588 0
M  V30 2486 C 213.294 1.05884 -1.38075 0
M  V30 2487 O 214.47 1.06161 -1.71148 0
M  V30 2488 C 211.535 1.53669 -3.10784 0
M  V30 2489 C 210.596 0.933525 -4.19027 0
M  V30 2490 C 209.829 1.98557 -4.9539 0
M  V30 2491 O 210.052 3.20283 -4.71991 0
M  V30 2492 O 208.986 1.59504 -5.80381 0
M  V30 2493 H 212.812 -0.205739 -3.03002 0
M  V30 2494 H 210.397 -0.166675 -1.48467 0
M  V30 2495 H 212.279 2.17814 -3.60742 0
M  V30 2496 H 210.954 2.15915 -2.41169 0
M  V30 2497 H 209.861 0.254954 -3.7323 0
M  V30 2498 H 211.194 0.35508 -4.90918 0
M  V30 2499 N 212.846 1.57033 -0.133567 0
M  V30 2500 C 214.123 1.87256 0.56522 0
M  V30 2501 C 214.503 1.03726 1.83859 0
M  V30 2502 O 213.851 0.120247 2.28183 0
M  V30 2503 C 214.061 3.3865 0.843636 0
M  V30 2504 C 215.409 4.07574 1.19032 0
M  V30 2505 O 216.433 3.43752 0.933429 0
M  V30 2506 O 215.292 5.20259 1.67312 0
M  V30 2507 H 212.386 0.775678 0.286796 0
M  V30 2508 H 214.932 1.68855 -0.169168 0
M  V30 2509 H 213.704 3.91257 -0.0581149 0
M  V30 2510 H 213.327 3.62532 1.63268 0
M  V30 2511 N 214.325 -0.140222 1.56975 0
M  V30 2512 C 215.602 -0.880769 1.74648 0
M  V30 2513 C 215.982 -1.99036 0.703404 0
M  V30 2514 O 215.33 -2.26821 -0.27648 0
M  V30 2515 C 215.54 -1.417 3.18939 0
M  V30 2516 C 216.888 -1.87774 3.80823 0
M  V30 2517 O 217.912 -1.51427 3.2241 0
M  V30 2518 O 216.771 -2.54827 4.83452 0
M  V30 2519 H 213.865 -0.416713 0.714338 0
M  V30 2520 H 216.411 -0.125618 1.69234 0
M  V30 2521 H 215.183 -0.619902 3.86359 0
M  V30 2522 H 214.806 -2.23546 3.28805 0
M  V30 2523 N 215.803 -1.52179 -0.40978 0
M  V30 2524 C 216.766 -1.74853 -1.48186 0
M  V30 2525 C 217.766 -0.618417 -1.48433 0
M  V30 2526 O 218.956 -0.886286 -1.49969 0
M  V30 2527 C 216.088 -1.8303 -2.87598 0
M  V30 2528 H 217.281 -2.70559 -1.29374 0
M  V30 2529 H 214.834 -1.42586 -0.640233 0
M  V30 2530 H 215.569 -0.89236 -3.11781 0
M  V30 2531 H 215.354 -2.65187 -2.88822 0
M  V30 2532 H 216.844 -2.02316 -3.65319 0
M  V30 2533 N 217.281 0.66697 -1.42791 0
M  V30 2534 C 218.191 1.80962 -1.49299 0
M  V30 2535 C 219.207 1.69775 -0.381108 0
M  V30 2536 O 220.383 1.91188 -0.633188 0
M  V30 2537 C 217.448 3.17156 -1.40045 0
M  V30 2538 C 216.509 3.40242 -2.6179 0
M  V30 2539 C 215.742 4.69939 -2.52969 0
M  V30 2540 O 215.965 5.48372 -1.56985 0
M  V30 2541 O 214.899 4.94441 -3.43237 0
M  V30 2542 H 218.725 1.78427 -2.45759 0
M  V30 2543 H 216.31 0.823713 -1.24641 0
M  V30 2544 H 218.192 3.98413 -1.37276 0
M  V30 2545 H 216.867 3.20312 -0.467138 0
M  V30 2546 H 215.774 2.58802 -2.70134 0
M  V30 2547 H 217.107 3.41923 -3.54047 0
M  V30 2548 N 218.759 1.29093 0.90403 0
M  V30 2549 C 220.007 1.16583 1.65085 0
M  V30 2550 C 220.328 -0.283933 1.92922 0
M  V30 2551 O 219.598 -1.19509 1.55224 0
M  V30 2552 H 218.178 0.428467 0.611903 0
M  V30 2553 H 220.84 1.61959 1.08422 0
M  V30 2554 H 219.936 1.71266 2.6091 0
M  V30 2555 N 220.237 -1.11381 1.11499 0
M  V30 2556 C 221.187 -2.15555 0.74298 0
M  V30 2557 C 222.171 -1.58894 -0.253276 0
M  V30 2558 O 223.363 -1.76897 -0.0602918 0
M  V30 2559 C 220.492 -3.42782 0.188481 0
M  V30 2560 C 219.578 -4.064 1.21244 0
M  V30 2561 N 219.969 -4.44864 2.40685 0
M  V30 2562 C 218.267 -4.3333 1.05552 0
M  V30 2563 C 218.968 -4.94715 3.05994 0
M  V30 2564 N 217.944 -4.90909 2.33472 0
M  V30 2565 H 221.746 -2.43074 1.65203 0
M  V30 2566 H 219.26 -1.28401 0.994329 0
M  V30 2567 H 221.257 -4.16789 -0.0961693 0
M  V30 2568 H 219.917 -3.16727 -0.715149 0
M  V30 2569 H 220.928 -4.36876 2.78136 0
M  V30 2570 H 217.605 -4.1698 0.208372 0
M  V30 2571 H 218.995 -5.34103 4.07656 0
M  V30 2572 N 221.715 -0.905404 -1.28997 0
M  V30 2573 C 222.645 -0.404212 -2.29975 0
M  V30 2574 C 223.626 0.523784 -1.61835 0
M  V30 2575 O 224.811 0.433298 -1.89304 0
M  V30 2576 C 221.941 0.364042 -3.45387 0
M  V30 2577 C 220.895 -0.474048 -4.25367 0
M  V30 2578 C 220.221 0.422045 -5.33032 0
M  V30 2579 C 221.521 -1.72696 -4.92923 0
M  V30 2580 H 223.215 -1.24807 -2.72146 0
M  V30 2581 H 220.761 -0.601585 -1.30832 0
M  V30 2582 H 222.714 0.725447 -4.15109 0
M  V30 2583 H 221.438 1.24174 -3.02074 0
M  V30 2584 H 220.097 -0.81786 -3.57361 0
M  V30 2585 H 219.745 1.29804 -4.85963 0
M  V30 2586 H 219.445 -0.135057 -5.87445 0
M  V30 2587 H 220.969 0.779517 -6.05604 0
M  V30 2588 H 222.383 -1.43495 -5.55051 0
M  V30 2589 H 220.78 -2.22582 -5.57295 0
M  V30 2590 H 221.85 -2.45964 -4.17887 0
M  V30 2591 N 223.193 1.4272 -0.668489 0
M  V30 2592 C 224.442 2.00846 -0.185389 0
M  V30 2593 C 224.755 1.53442 1.21305 0
M  V30 2594 O 225.961 2.03944 1.79218 0
M  V30 2595 C 224.417 3.58805 -0.280591 0
M  V30 2596 C 224.025 4.15198 -1.68268 0
M  V30 2597 C 225.769 4.24255 0.14412 0
M  V30 2598 C 223.676 5.655 -1.73099 0
M  V30 2599 H 222.606 0.751145 -0.0655475 0
M  V30 2600 H 225.257 1.63516 -0.832752 0
M  V30 2601 H 223.639 3.93608 0.434553 0
M  V30 2602 H 224.813 3.91866 -2.42441 0
M  V30 2603 H 223.128 3.62176 -2.05469 0
M  V30 2604 H 225.725 5.34547 0.128086 0
M  V30 2605 H 226.068 3.99277 1.17827 0
M  V30 2606 H 226.601 3.94389 -0.519798 0
M  V30 2607 H 223.34 5.95268 -2.74475 0
M  V30 2608 H 222.86 5.90842 -1.03274 0
M  V30 2609 H 224.539 6.29808 -1.48158 0
M  V30 2610 N 224.671 0.411399 1.52136 0
M  V30 2611 C 225.901 -0.16284 2.05957 0
M  V30 2612 C 226.309 -1.3922 1.28119 0
M  V30 2613 O 225.652 -1.80768 0.326881 0
M  V30 2614 C 225.714 -0.575946 3.54856 0
M  V30 2615 C 225.378 0.542998 4.53763 0
M  V30 2616 C 226.375 1.40726 5.00492 0
M  V30 2617 C 224.06 0.716337 4.97166 0
M  V30 2618 C 226.054 2.4298 5.8927 0
M  V30 2619 C 223.741 1.74218 5.8574 0
M  V30 2620 C 224.739 2.59731 6.31687 0
M  V30 2621 O 224.427 3.60558 7.18507 0
M  V30 2622 H 224.159 -0.0229125 0.675612 0
M  V30 2623 H 226.713 0.581634 1.96993 0
M  V30 2624 H 224.943 -1.37274 3.61515 0
M  V30 2625 H 226.632 -1.07836 3.91313 0
M  V30 2626 H 227.398 1.28476 4.67674 0
M  V30 2627 H 223.277 0.0603857 4.6096 0
M  V30 2628 H 226.821 3.0976 6.25055 0
M  V30 2629 H 222.718 1.86498 6.17971 0
M  V30 2630 H 223.486 3.56829 7.36624 0
M  V30 2631 N 226.149 -1.5696 0.141893 0
M  V30 2632 C 227.099 -2.13074 -0.811383 0
M  V30 2633 C 228.083 -1.05726 -1.21288 0
M  V30 2634 O 229.275 -1.31914 -1.18015 0
M  V30 2635 C 226.404 -2.75186 -2.0525 0
M  V30 2636 C 225.49 -3.8965 -1.67432 0
M  V30 2637 N 225.881 -4.95733 -1.0041 0
M  V30 2638 C 224.179 -4.00262 -1.96739 0
M  V30 2639 C 224.88 -5.75858 -0.822345 0
M  V30 2640 N 223.856 -5.26452 -1.3546 0
M  V30 2641 H 227.658 -2.92465 -0.290031 0
M  V30 2642 H 225.172 -1.6229 -0.0598218 0
M  V30 2643 H 227.169 -3.13745 -2.74535 0
M  V30 2644 H 225.829 -1.97266 -2.57907 0
M  V30 2645 H 226.84 -5.13607 -0.665441 0
M  V30 2646 H 223.517 -3.33412 -2.51282 0
M  V30 2647 H 224.907 -6.71254 -0.294496 0
M  V30 2648 N 227.627 0.131896 -1.57047 0
M  V30 2649 C 228.873 0.843179 -1.84441 0
M  V30 2650 C 229.206 1.80129 -0.725749 0
M  V30 2651 O 228.481 1.92624 0.269469 0
M  V30 2652 C 228.764 1.60442 -3.22382 0
M  V30 2653 C 228.617 0.666782 -4.4483 0
M  V30 2654 C 229.936 2.56354 -3.5773 0
M  V30 2655 H 227.055 0.305081 -0.670891 0
M  V30 2656 H 229.697 0.107839 -1.89694 0
M  V30 2657 H 227.847 2.23128 -3.18035 0
M  V30 2658 H 229.519 0.0497646 -4.61273 0
M  V30 2659 H 227.762 -0.022609 -4.33794 0
M  V30 2660 H 228.433 1.23579 -5.37989 0
M  V30 2661 H 230.909 2.0378 -3.62785 0
M  V30 2662 H 229.785 3.06657 -4.5525 0
M  V30 2663 H 230.046 3.38419 -2.84473 0
M  V30 2664 N 229.106 1.52395 0.401703 0
M  V30 2665 C 230.354 1.66488 1.14569 0
M  V30 2666 C 230.675 0.400897 1.90835 0
M  V30 2667 O 229.945 -0.584415 1.8698 0
M  V30 2668 H 228.525 0.613672 0.425929 0
M  V30 2669 H 231.187 1.89464 0.457093 0
M  V30 2670 H 230.283 2.50942 1.85566 0
M  V30 2671 N 230.584 -0.659388 1.43143 0
M  V30 2672 C 231.861 -1.41627 1.34912 0
M  V30 2673 C 232.241 -2.11099 -0.00607785 0
M  V30 2674 O 231.589 -2.04353 -1.02236 0
M  V30 2675 C 231.799 -2.40604 2.52805 0
M  V30 2676 C 233.147 -3.04789 2.95616 0
M  V30 2677 O 234.171 -2.50932 2.52807 0
M  V30 2678 O 233.03 -4.02421 3.69756 0
M  V30 2679 H 230.124 -0.63246 0.532844 0
M  V30 2680 H 232.67 -0.686814 1.5518 0
M  V30 2681 H 231.442 -1.88174 3.43083 0
M  V30 2682 H 231.065 -3.21009 2.34604 0
M  V30 2683 N 232.062 -1.29571 -0.897171 0
M  V30 2684 C 233.308 -1.18873 -1.65048 0
M  V30 2685 C 233.663 0.256707 -1.9068 0
M  V30 2686 O 232.956 1.18202 -1.50794 0
M  V30 2687 C 233.15 -1.9382 -3.00281 0
M  V30 2688 C 232.979 -3.45503 -2.8785 0
M  V30 2689 C 231.749 -4.14856 -2.88483 0
M  V30 2690 C 233.947 -4.40956 -2.64693 0
M  V30 2691 N 231.929 -5.52886 -2.66815 0
M  V30 2692 C 233.3 -5.66464 -2.5203 0
M  V30 2693 C 235.355 -4.3069 -2.49821 0
M  V30 2694 C 234.058 -6.82871 -2.26008 0
M  V30 2695 C 236.084 -5.46852 -2.25182 0
M  V30 2696 C 235.446 -6.71333 -2.13286 0
M  V30 2697 H 231.545 -0.489998 -0.609447 0
M  V30 2698 H 234.129 -1.63431 -1.05822 0
M  V30 2699 H 232.3 -1.51671 -3.57562 0
M  V30 2700 H 234.032 -1.75366 -3.64731 0
M  V30 2701 H 230.787 -3.66579 -2.99861 0
M  V30 2702 H 231.211 -6.25487 -2.59027 0
M  V30 2703 H 235.853 -3.35141 -2.5776 0
M  V30 2704 H 233.571 -7.78473 -2.16806 0
M  V30 2705 H 237.157 -5.40809 -2.14515 0
M  V30 2706 H 236.037 -7.59701 -1.94485 0
M  V30 2707 N 233.54 1.10788 -1.12088 0
M  V30 2708 C 234.47 2.19083 -0.807755 0
M  V30 2709 C 235.451 1.6858 0.226859 0
M  V30 2710 O 236.636 1.93997 0.0888475 0
M  V30 2711 C 233.766 3.46344 -0.257576 0
M  V30 2712 C 232.72 4.101 -1.22483 0
M  V30 2713 C 232.046 5.32016 -0.535052 0
M  V30 2714 C 233.346 4.54236 -2.57811 0
M  V30 2715 H 235.04 2.45534 -1.71328 0
M  V30 2716 H 232.586 1.1801 -0.825205 0
M  V30 2717 H 234.539 4.21392 -0.0262679 0
M  V30 2718 H 233.263 3.19373 0.683278 0
M  V30 2719 H 231.922 3.37054 -1.44189 0
M  V30 2720 H 231.57 5.01319 0.410827 0
M  V30 2721 H 231.27 5.75625 -1.18024 0
M  V30 2722 H 232.794 6.09799 -0.312695 0
M  V30 2723 H 234.208 5.20575 -2.40155 0
M  V30 2724 H 232.605 5.08682 -3.18375 0
M  V30 2725 H 233.675 3.6734 -3.16528 0
M  V30 2726 N 235.018 0.912232 1.28515 0
M  V30 2727 C 235.95 0.35676 2.26406 0
M  V30 2728 C 236.963 -0.503933 1.54804 0
M  V30 2729 O 238.152 -0.319059 1.75625 0
M  V30 2730 C 235.252 -0.508825 3.35058 0
M  V30 2731 C 234.425 0.329007 4.36161 0
M  V30 2732 C 233.484 -0.471422 5.24084 0
M  V30 2733 O 232.51 0.115482 5.69083 0
M  V30 2734 N 233.712 -1.77479 5.52704 0
M  V30 2735 H 236.477 1.19818 2.74707 0
M  V30 2736 H 234.038 0.778022 1.4198 0
M  V30 2737 H 236.03 -1.051 3.90815 0
M  V30 2738 H 234.6 -1.25095 2.86478 0
M  V30 2739 H 233.82 1.05256 3.79888 0
M  V30 2740 H 235.108 0.90234 5.00735 0
M  V30 2741 H 234.506 -2.27417 5.17975 0
M  V30 2742 H 233.063 -2.26382 6.11224 0
M  V30 2743 N 236.496 -1.42363 0.676048 0
M  V30 2744 C 237.406 -2.346 -0.00153389 0
M  V30 2745 C 238.422 -1.5516 -0.787485 0
M  V30 2746 O 239.598 -1.87723 -0.729521 0
M  V30 2747 C 236.663 -3.33705 -0.940298 0
M  V30 2748 C 235.724 -4.29042 -0.148739 0
M  V30 2749 C 234.957 -5.23413 -1.04279 0
M  V30 2750 O 235.18 -5.22749 -2.28232 0
M  V30 2751 O 234.114 -5.99795 -0.502925 0
M  V30 2752 H 237.94 -2.94082 0.758268 0
M  V30 2753 H 235.525 -1.42888 0.436289 0
M  V30 2754 H 237.407 -3.94586 -1.47917 0
M  V30 2755 H 236.082 -2.76695 -1.67993 0
M  V30 2756 H 234.989 -3.71571 0.43427 0
M  V30 2757 H 236.322 -4.89097 0.551805 0
M  V30 2758 N 237.974 -0.419461 -1.51915 0
M  V30 2759 C 239.39 -0.0708431 -1.59443 0
M  V30 2760 C 239.59 1.41796 -1.43164 0
M  V30 2761 O 238.646 2.18596 -1.26381 0
M  V30 2762 C 239.959 -0.574991 -2.95151 0
M  V30 2763 C 241.507 -0.533867 -3.08413 0
M  V30 2764 C 241.982 -1.01469 -4.46618 0
M  V30 2765 N 243.473 -0.971939 -4.52888 0
M  V30 2766 C 244.208 -1.31505 -5.58116 0
M  V30 2767 N 243.704 -1.73014 -6.70849 0
M  V30 2768 N 245.497 -1.23436 -5.48379 0
M  V30 2769 H 237.648 -1.38836 -1.60743 0
M  V30 2770 H 239.911 -0.570998 -0.756747 0
M  V30 2771 H 239.617 -1.61597 -3.12377 0
M  V30 2772 H 239.491 0.00979777 -3.77199 0
M  V30 2773 H 241.878 0.498086 -2.90866 0
M  V30 2774 H 241.959 -1.15484 -2.28248 0
M  V30 2775 H 241.603 -2.04502 -4.6491 0
M  V30 2776 H 241.533 -0.370433 -5.25295 0
M  V30 2777 H 244.024 -0.666893 -3.71969 0
M  V30 2778 H 244.337 -1.97479 -7.47143 0
M  V30 2779 H 242.682 -1.76926 -6.72103 0
M  V30 2780 H 245.873 -0.908869 -4.59192 0
M  V30 2781 H 246.046 -1.50506 -6.30279 0
M  V30 2782 N 239.452 1.56882 -0.150215 0
M  V30 2783 C 240.682 2.00302 0.506213 0
M  V30 2784 C 241.09 1.02934 1.58749 0
M  V30 2785 O 240.433 0.0188384 1.8369 0
M  V30 2786 C 240.495 3.40156 1.16337 0
M  V30 2787 C 240.159 4.56439 0.226311 0
M  V30 2788 C 241.156 5.17012 -0.547265 0
M  V30 2789 C 238.841 5.02136 0.128279 0
M  V30 2790 C 240.835 6.21693 -1.40629 0
M  V30 2791 C 238.522 6.06672 -0.734345 0
M  V30 2792 C 239.52 6.6632 -1.50023 0
M  V30 2793 O 239.208 7.68831 -2.34848 0
M  V30 2794 H 238.94 0.662182 0.135984 0
M  V30 2795 H 241.494 2.03961 -0.242746 0
M  V30 2796 H 239.724 3.33346 1.96004 0
M  V30 2797 H 241.413 3.67663 1.71985 0
M  V30 2798 H 242.179 4.82603 -0.48158 0
M  V30 2799 H 238.058 4.55435 0.714157 0
M  V30 2800 H 241.602 6.68179 -2.00455 0
M  V30 2801 H 237.499 6.40507 -0.801309 0
M  V30 2802 H 238.267 7.86065 -2.28131 0
M  V30 2803 N 240.93 -0.123565 1.57115 0
M  V30 2804 C 241.84 -1.17074 2.033 0
M  V30 2805 C 242.856 -1.4561 0.952559 0
M  V30 2806 O 244.032 -1.56817 1.26374 0
M  V30 2807 C 241.097 -2.47857 2.42421 0
M  V30 2808 C 240.158 -2.26758 3.64526 0
M  V30 2809 C 239.391 -3.51305 4.01771 0
M  V30 2810 O 239.614 -4.5843 3.39409 0
M  V30 2811 O 238.548 -3.42578 4.94898 0
M  V30 2812 H 242.374 -0.808555 2.92739 0
M  V30 2813 H 239.959 -0.334027 1.45618 0
M  V30 2814 H 241.841 -3.2492 2.68338 0
M  V30 2815 H 240.516 -2.83558 1.5613 0
M  V30 2816 H 239.423 -1.47569 3.43765 0
M  V30 2817 H 240.756 -1.95963 4.51508 0
M  V30 2818 N 242.408 -1.52605 -0.393616 0
M  V30 2819 C 243.657 -1.66649 -1.13627 0
M  V30 2820 C 243.97 -0.410364 -1.91247 0
M  V30 2821 O 245.176 -0.430854 -2.68059 0
M  V30 2822 C 243.632 -2.9449 -2.06891 0
M  V30 2823 C 243.24 -4.27266 -1.34714 0
M  V30 2824 C 244.984 -3.17899 -2.81319 0
M  V30 2825 C 242.891 -5.46217 -2.26717 0
M  V30 2826 H 241.821 -0.62084 -0.427871 0
M  V30 2827 H 244.472 -1.791 -0.399428 0
M  V30 2828 H 242.854 -2.75774 -2.84191 0
M  V30 2829 H 244.028 -4.56518 -0.626714 0
M  V30 2830 H 242.343 -4.10081 -0.722643 0
M  V30 2831 H 244.94 -4.03949 -3.50328 0
M  V30 2832 H 245.283 -2.32777 -3.45139 0
M  V30 2833 H 245.816 -3.37159 -2.11113 0
M  V30 2834 H 242.555 -6.33733 -1.67521 0
M  V30 2835 H 242.075 -5.21283 -2.96689 0
M  V30 2836 H 243.754 -5.7991 -2.86903 0
M  V30 2837 N 243.887 0.651787 -1.4349 0
M  V30 2838 C 245.133 1.41376 -1.45398 0
M  V30 2839 C 245.466 1.94041 -0.0784823 0
M  V30 2840 O 244.741 1.72379 0.900878 0
M  V30 2841 C 245.024 2.59414 -2.49752 0
M  V30 2842 C 244.877 2.12232 -3.96582 0
M  V30 2843 C 246.196 3.61626 -2.50827 0
M  V30 2844 H 243.315 0.512719 -0.529422 0
M  V30 2845 H 245.957 0.738796 -1.75048 0
M  V30 2846 H 244.107 3.16997 -2.246 0
M  V30 2847 H 245.779 1.59639 -4.32797 0
M  V30 2848 H 244.022 1.43592 -4.09346 0
M  V30 2849 H 244.693 2.9712 -4.65214 0
M  V30 2850 H 247.169 3.13805 -2.7325 0
M  V30 2851 H 246.045 4.41766 -3.25783 0
M  V30 2852 H 246.306 4.14314 -1.5426 0
M  V30 2853 N 245.365 1.30045 0.890287 0
M  V30 2854 C 246.59 1.21598 1.68014 0
M  V30 2855 C 247.015 -0.218678 1.86825 0
M  V30 2856 O 246.373 -1.15756 1.39536 0
M  V30 2857 C 246.421 1.94434 3.03691 0
M  V30 2858 O 245.525 1.2678 3.92429 0
M  V30 2859 H 244.866 0.420856 0.513592 0
M  V30 2860 H 247.396 1.71775 1.11151 0
M  V30 2861 H 247.406 2.03251 3.5377 0
M  V30 2862 H 246.081 2.98777 2.89318 0
M  V30 2863 H 244.658 1.26282 3.50866 0
M  V30 2864 N 246.843 -1.10192 1.12674 0
M  V30 2865 C 248.071 -1.85983 0.906527 0
M  V30 2866 C 248.486 -1.80783 -0.544333 0
M  V30 2867 O 247.843 -1.19834 -1.37645 0
M  V30 2868 C 247.894 -3.34281 1.37618 0
M  V30 2869 O 247.615 -3.39401 2.77017 0
M  V30 2870 C 249.116 -4.26938 1.19325 0
M  V30 2871 H 246.336 -0.587716 0.323775 0
M  V30 2872 H 248.88 -1.39284 1.49734 0
M  V30 2873 H 247.035 -3.78436 0.828539 0
M  V30 2874 H 247.449 -4.31838 2.97684 0
M  V30 2875 H 248.923 -5.29181 1.57071 0
M  V30 2876 H 249.4 -4.38995 0.134097 0
M  V30 2877 H 250.006 -3.8859 1.72852 0
M  V30 2878 N 248.321 -0.919034 -1.28029 0
M  V30 2879 C 249.251 -0.428581 -2.29533 0
M  V30 2880 C 250.232 0.50659 -1.62381 0
M  V30 2881 O 251.417 0.413195 -1.89753 0
M  V30 2882 C 248.547 0.327388 -3.45753 0
M  V30 2883 C 247.501 -0.519137 -4.2484 0
M  V30 2884 C 246.827 0.365486 -5.33449 0
M  V30 2885 C 248.127 -1.77914 -4.91064 0
M  V30 2886 H 249.821 -1.27687 -2.70807 0
M  V30 2887 H 247.367 -0.615428 -1.30186 0
M  V30 2888 H 249.32 0.681378 -4.15855 0
M  V30 2889 H 248.044 1.20963 -3.03374 0
M  V30 2890 H 246.703 -0.855717 -3.56473 0
M  V30 2891 H 246.351 1.24642 -4.87312 0
M  V30 2892 H 246.051 -0.197356 -5.87268 0
M  V30 2893 H 247.575 0.715241 -6.06396 0
M  V30 2894 H 248.989 -1.49374 -5.53498 0
M  V30 2895 H 247.386 -2.2848 -5.54903 0
M  V30 2896 H 248.456 -2.50382 -4.15255 0
M  V30 2897 N 249.799 1.42003 -0.683588 0
M  V30 2898 C 251.047 2.01015 -0.209101 0
M  V30 2899 C 251.368 1.54365 1.19149 0
M  V30 2900 O 250.638 0.769083 1.80172 0
M  V30 2901 H 249.218 0.743294 -0.074315 0
M  V30 2902 H 251.88 1.73798 -0.882066 0
M  V30 2903 H 250.976 3.11343 -0.2172 0
M  V30 2904 N 251.277 0.427512 1.51691 0
M  V30 2905 C 252.187 -0.39527 2.31246 0
M  V30 2906 C 253.203 -1.03674 1.39742 0
M  V30 2907 O 254.379 -1.03425 1.72816 0
M  V30 2908 C 251.444 -1.48706 3.13189 0
M  V30 2909 C 250.505 -0.866743 4.20459 0
M  V30 2910 C 249.738 -1.90651 4.98486 0
M  V30 2911 O 249.961 -3.12733 4.77026 0
M  V30 2912 O 248.895 -1.5025 5.82845 0
M  V30 2913 H 252.721 0.253918 3.02637 0
M  V30 2914 H 250.306 0.190274 1.48183 0
M  V30 2915 H 252.188 -2.12047 3.64162 0
M  V30 2916 H 250.863 -2.12051 2.44573 0
M  V30 2917 H 249.77 -0.195544 3.73589 0
M  V30 2918 H 251.103 -0.276934 4.9142 0
M  V30 2919 N 252.755 -1.56801 0.158532 0
M  V30 2920 C 254.003 -1.96102 -0.488712 0
M  V30 2921 C 254.324 -1.04498 -1.64636 0
M  V30 2922 O 253.594 -0.108783 -1.95598 0
M  V30 2923 H 252.174 -0.724102 -0.183535 0
M  V30 2924 H 254.836 -1.93457 0.236728 0
M  V30 2925 H 253.932 -3.00097 -0.857219 0
M  V30 2926 N 254.233 0.115231 -1.57178 0
M  V30 2927 C 255.461 0.836437 -1.89239 0
M  V30 2928 C 255.876 1.73256 -0.750175 0
M  V30 2929 O 255.233 1.80357 0.278832 0
M  V30 2930 C 255.284 1.66671 -3.20785 0
M  V30 2931 O 255.005 0.806652 -4.3061 0
M  V30 2932 C 256.506 2.49274 -3.66575 0
M  V30 2933 H 253.726 0.240253 -0.626514 0
M  V30 2934 H 256.27 0.0984932 -2.04263 0
M  V30 2935 H 254.425 2.35737 -3.0742 0
M  V30 2936 H 254.839 1.37969 -5.06028 0
M  V30 2937 H 256.313 3.03055 -4.6137 0
M  V30 2938 H 256.79 3.26807 -2.93417 0
M  V30 2939 H 257.396 1.85443 -3.82741 0
M  V30 2940 N 255.711 1.52812 0.385517 0
M  V30 2941 C 256.958 1.68026 1.1302 0
M  V30 2942 C 257.286 0.421934 1.89868 0
M  V30 2943 O 256.541 -0.595749 1.86412 0
M  V30 2944 C 256.84 2.86856 2.13187 0
M  V30 2945 C 256.506 4.24159 1.5297 0
M  V30 2946 C 255.168 4.61501 1.36274 0
M  V30 2947 C 257.52 5.09627 1.09223 0
M  V30 2948 C 254.848 5.81966 0.743837 0
M  V30 2949 C 257.2 6.30719 0.487411 0
M  V30 2950 C 255.864 6.6679 0.307777 0
M  V30 2951 H 255.134 0.614849 0.413571 0
M  V30 2952 H 257.781 1.86962 0.414405 0
M  V30 2953 H 256.086 2.6235 2.90998 0
M  V30 2954 H 257.783 2.95821 2.70722 0
M  V30 2955 H 254.373 3.94746 1.66954 0
M  V30 2956 H 258.557 4.81343 1.20922 0
M  V30 2957 H 253.813 6.08519 0.592891 0
M  V30 2958 H 257.987 6.96259 0.140143 0
M  V30 2959 H 255.614 7.60001 -0.173879 0
M  V30 2960 N 257.189 -0.644168 1.43834 0
M  V30 2961 C 258.437 -1.40117 1.45642 0
M  V30 2962 C 258.758 -1.94814 0.0852413 0
M  V30 2963 O 258.028 -1.74988 -0.880688 0
M  V30 2964 H 256.608 -0.52005 0.536243 0
M  V30 2965 H 259.27 -0.7591 1.7951 0
M  V30 2966 H 258.366 -2.23902 2.17427 0
M  V30 2967 N 258.668 -1.30515 -0.883378 0
M  V30 2968 C 260.084 -1.08881 -1.16692 0
M  V30 2969 C 260.284 0.149409 -2.00945 0
M  V30 2970 O 259.34 0.84257 -2.38027 0
M  V30 2971 C 260.653 -2.35319 -1.87204 0
M  V30 2972 C 262.201 -2.40799 -1.99962 0
M  V30 2973 C 262.676 -3.67083 -2.73887 0
M  V30 2974 N 264.167 -3.679 -2.81432 0
M  V30 2975 C 264.902 -4.62303 -3.3921 0
M  V30 2976 N 264.398 -5.67052 -3.98025 0
M  V30 2977 N 266.191 -4.49845 -3.3704 0
M  V30 2978 H 258.342 -2.09951 -0.321633 0
M  V30 2979 H 260.605 -0.92556 -0.205043 0
M  V30 2980 H 260.311 -3.25689 -1.3274 0
M  V30 2981 H 260.185 -2.44089 -2.87577 0
M  V30 2982 H 262.572 -1.50907 -2.53597 0
M  V30 2983 H 262.653 -2.36003 -0.98673 0
M  V30 2984 H 262.297 -4.57334 -2.20925 0
M  V30 2985 H 262.227 -3.69141 -3.75556 0
M  V30 2986 H 264.718 -2.92171 -2.39676 0
M  V30 2987 H 265.031 -6.35184 -4.40183 0
M  V30 2988 H 263.376 -5.70842 -3.96439 0
M  V30 2989 H 266.567 -3.67194 -2.90321 0
M  V30 2990 H 266.74 -5.23597 -3.81772 0
M  V30 2991 N 260.146 1.09593 -1.13257 0
M  V30 2992 C 261.392 1.82003 -0.89458 0
M  V30 2993 C 261.725 1.85402 0.577906 0
M  V30 2994 O 261 1.32099 1.42759 0
M  V30 2995 C 261.283 3.28237 -1.48096 0
M  V30 2996 C 261.136 3.3312 -3.02244 0
M  V30 2997 C 262.455 4.24871 -1.14774 0
M  V30 2998 H 259.574 0.66077 -0.326424 0
M  V30 2999 H 262.216 1.28389 -1.40058 0
M  V30 3000 H 260.366 3.74024 -1.05062 0
M  V30 3001 H 262.038 2.95748 -3.54021 0
M  V30 3002 H 260.281 2.72756 -3.37323 0
M  V30 3003 H 260.952 4.3613 -3.38371 0
M  V30 3004 H 263.428 3.87361 -1.51957 0
M  V30 3005 H 262.304 5.25532 -1.58452 0
M  V30 3006 H 262.565 4.42058 -0.0611849 0
M  V30 3007 N 261.624 0.925811 1.2754 0
M  V30 3008 C 262.87 0.566092 1.94739 0
M  V30 3009 C 263.203 -0.890057 1.72603 0
M  V30 3010 O 262.478 -1.63467 1.05399 0
M  V30 3011 C 262.761 0.89054 3.48915 0
M  V30 3012 C 262.614 2.4003 3.80402 0
M  V30 3013 C 263.933 0.395101 4.38323 0
M  V30 3014 H 261.052 0.20714 0.707292 0
M  V30 3015 H 263.694 1.15725 1.50691 0
M  V30 3016 H 261.844 0.387452 3.86563 0
M  V30 3017 H 263.516 2.97494 3.52555 0
M  V30 3018 H 261.759 2.85028 3.2702 0
M  V30 3019 H 262.43 2.57785 4.8811 0
M  V30 3020 H 264.906 0.826241 4.07814 0
M  V30 3021 H 263.782 0.651086 5.45025 0
M  V30 3022 H 264.043 -0.704798 4.36446 0
M  V30 3023 N 263.102 -1.41638 0.69111 0
M  V30 3024 C 264.034 -2.29194 -0.0161523 0
M  V30 3025 C 265.047 -1.44549 -0.748955 0
M  V30 3026 O 266.236 -1.681 -0.6004 0
M  V30 3027 C 263.336 -3.22325 -1.0469 0
M  V30 3028 C 262.509 -4.35706 -0.384621 0
M  V30 3029 C 261.568 -5.09443 -1.31737 0
M  V30 3030 O 260.594 -5.63386 -0.811451 0
M  V30 3031 N 261.796 -5.16487 -2.64993 0
M  V30 3032 H 264.561 -2.90534 0.735523 0
M  V30 3033 H 262.122 -1.52742 0.53679 0
M  V30 3034 H 264.114 -3.68522 -1.67252 0
M  V30 3035 H 262.684 -2.62323 -1.70015 0
M  V30 3036 H 261.904 -3.91948 0.420804 0
M  V30 3037 H 263.192 -5.08743 0.0760765 0
M  V30 3038 H 262.59 -4.741 -3.08619 0
M  V30 3039 H 261.147 -5.66276 -3.22761 0
M  V30 3040 N 264.58 -0.43555 -1.51462 0
M  V30 3041 C 265.82 0.130708 -2.03982 0
M  V30 3042 C 266.184 1.40117 -1.31268 0
M  V30 3043 O 267.385 2.04755 -1.74152 0
M  V30 3044 C 265.656 0.346102 -3.5572 0
M  V30 3045 S 267.215 0.876022 -4.29967 0
M  V30 3046 H 264.033 0.0326881 -0.710248 0
M  V30 3047 H 266.635 -0.594544 -1.8624 0
M  V30 3048 H 265.339 -0.584911 -4.0621 0
M  V30 3049 H 264.87 1.09849 -3.77752 0
M  V30 3050 H 266.885 2.15379 -4.47019 0
M  V30 3051 N 266.058 1.56714 -0.166846 0
M  V30 3052 C 267.304 1.97039 0.479962 0
M  V30 3053 C 267.637 1.05264 1.63197 0
M  V30 3054 O 266.912 0.0988833 1.94248 0
M  V30 3055 C 267.195 3.46867 0.967212 0
M  V30 3056 C 267.048 4.49421 -0.18466 0
M  V30 3057 C 268.367 3.9968 1.84238 0
M  V30 3058 H 265.486 0.71641 0.172992 0
M  V30 3059 H 268.128 1.8832 -0.252079 0
M  V30 3060 H 266.278 3.54428 1.59101 0
M  V30 3061 H 267.95 4.53924 -0.821621 0
M  V30 3062 H 266.193 4.25573 -0.840837 0
M  V30 3063 H 266.864 5.51644 0.198317 0
M  V30 3064 H 269.34 3.94723 1.31655 0
M  V30 3065 H 268.216 5.04941 2.15234 0
M  V30 3066 H 268.477 3.43226 2.78654 0
M  V30 3067 N 267.536 -0.106894 1.57237 0
M  V30 3068 C 268.813 -0.843526 1.76477 0
M  V30 3069 C 269.193 -1.97499 0.745464 0
M  V30 3070 O 268.541 -2.27357 -0.228306 0
M  V30 3071 C 268.751 -1.34903 3.21873 0
M  V30 3072 C 270.099 -1.79654 3.8472 0
M  V30 3073 O 271.123 -1.44554 3.2555 0
M  V30 3074 O 269.982 -2.44515 4.88748 0
M  V30 3075 H 267.076 -0.401468 0.723016 0
M  V30 3076 H 269.622 -0.0896927 1.69463 0
M  V30 3077 H 268.394 -0.53781 3.87586 0
M  V30 3078 H 268.017 -2.16522 3.33473 0
M  V30 3079 N 269.014 -1.53014 -0.377408 0
M  V30 3080 C 269.964 -1.74996 -1.46152 0
M  V30 3081 C 270.948 -0.604236 -1.49123 0
M  V30 3082 O 272.14 -0.862489 -1.54564 0
M  V30 3083 C 269.269 -1.93267 -2.8373 0
M  V30 3084 C 268.355 -3.13807 -2.85283 0
M  V30 3085 N 268.746 -4.35941 -2.56493 0
M  V30 3086 C 267.044 -3.14288 -3.16448 0
M  V30 3087 C 267.745 -5.17615 -2.65424 0
M  V30 3088 N 266.721 -4.53559 -2.99641 0
M  V30 3089 H 270.523 -2.67044 -1.22738 0
M  V30 3090 H 268.037 -1.51479 -0.585479 0
M  V30 3091 H 270.034 -2.0714 -3.61799 0
M  V30 3092 H 268.694 -1.0244 -3.08117 0
M  V30 3093 H 269.705 -4.63876 -2.30302 0
M  V30 3094 H 266.382 -2.33312 -3.46225 0
M  V30 3095 H 267.772 -6.25006 -2.46612 0
M  V30 3096 N 270.492 0.636531 -1.44174 0
M  V30 3097 C 271.908 0.954104 -1.27941 0
M  V30 3098 C 272.108 2.0039 -0.211248 0
M  V30 3099 O 271.164 2.49236 0.404695 0
M  V30 3100 C 272.477 1.4225 -2.64925 0
M  V30 3101 C 274.025 1.53827 -2.72592 0
M  V30 3102 C 274.5 2.04053 -4.10032 0
M  V30 3103 N 275.991 2.11331 -4.12182 0
M  V30 3104 C 276.726 2.51352 -5.15374 0
M  V30 3105 N 276.222 2.90549 -6.2893 0
M  V30 3106 N 278.015 2.51438 -5.02728 0
M  V30 3107 H 270.166 -0.0578386 -2.12321 0
M  V30 3108 H 272.429 0.0367406 -0.947288 0
M  V30 3109 H 272.135 0.725466 -3.44136 0
M  V30 3110 H 272.009 2.39451 -2.9145 0
M  V30 3111 H 274.396 2.22628 -1.93702 0
M  V30 3112 H 274.477 0.550154 -2.49814 0
M  V30 3113 H 274.121 1.35848 -4.89395 0
M  V30 3114 H 274.051 3.03726 -4.30184 0
M  V30 3115 H 276.542 1.83745 -3.30222 0
M  V30 3116 H 276.855 3.19884 -7.03487 0
M  V30 3117 H 275.2 2.88313 -6.32377 0
M  V30 3118 H 278.391 2.20203 -4.13072 0
M  V30 3119 H 278.564 2.82304 -5.83274 0
M  V30 3120 N 271.97 1.30982 0.876444 0
M  V30 3121 C 273.386 1.09498 1.16113 0
M  V30 3122 C 273.586 -0.13875 2.01022 0
M  V30 3123 O 272.642 -0.829935 2.38471 0
M  V30 3124 C 273.955 2.36308 1.85954 0
M  V30 3125 C 275.503 2.41856 1.98683 0
M  V30 3126 C 275.978 3.6853 2.71937 0
M  V30 3127 N 277.469 3.69387 2.79477 0
M  V30 3128 C 278.204 4.64096 3.36753 0
M  V30 3129 N 277.7 5.69155 3.95012 0
M  V30 3130 N 279.493 4.51626 3.3465 0
M  V30 3131 H 271.644 2.10118 0.310494 0
M  V30 3132 H 273.907 0.926634 0.200131 0
M  V30 3133 H 273.613 3.26388 1.31011 0
M  V30 3134 H 273.487 2.4561 2.86278 0
M  V30 3135 H 275.874 1.52249 2.52793 0
M  V30 3136 H 275.955 2.36523 0.9742 0
M  V30 3137 H 275.599 4.58499 2.18496 0
M  V30 3138 H 275.529 3.71127 3.73593 0
M  V30 3139 H 278.02 2.93438 2.38123 0
M  V30 3140 H 278.333 6.3751 4.36808 0
M  V30 3141 H 276.678 5.72937 3.93406 0
M  V30 3142 H 279.869 3.68728 2.8837 0
M  V30 3143 H 280.042 5.25614 3.7899 0
M  V30 3144 N 273.449 -1.08991 1.13837 0
M  V30 3145 C 274.697 -1.80899 0.901098 0
M  V30 3146 C 275.018 -1.86356 -0.574134 0
M  V30 3147 O 274.288 -1.35235 -1.41733 0
M  V30 3148 H 272.868 -0.669966 0.330386 0
M  V30 3149 H 275.53 -1.318 1.43578 0
M  V30 3150 H 274.626 -2.83929 1.29578 0
M  V30 3151 N 274.927 -0.932562 -1.27047 0
M  V30 3152 C 276.175 -0.574422 -1.93765 0
M  V30 3153 C 276.496 0.887993 -1.73608 0
M  V30 3154 O 275.766 1.62999 -1.08665 0
M  V30 3155 H 274.346 -0.209451 -0.717035 0
M  V30 3156 H 277.008 -1.18601 -1.5466 0
M  V30 3157 H 276.104 -0.784841 -3.02071 0
M  V30 3158 N 276.405 1.4127 -0.698611 0
M  V30 3159 C 277.368 2.29158 -0.044132 0
M  V30 3160 C 278.368 1.44529 0.704841 0
M  V30 3161 O 279.558 1.65643 0.539276 0
M  V30 3162 C 276.69 3.27459 0.947809 0
M  V30 3163 H 277.883 2.88529 -0.817994 0
M  V30 3164 H 275.436 1.49307 -0.46228 0
M  V30 3165 H 276.171 2.73073 1.74933 0
M  V30 3166 H 275.956 3.8991 0.41385 0
M  V30 3167 H 277.446 3.93311 1.40344 0
M  V30 3168 N 277.883 0.443576 1.51229 0
M  V30 3169 C 279.299 0.0962001 1.5931 0
M  V30 3170 C 279.499 -1.39501 1.45402 0
M  V30 3171 O 278.555 -2.16557 1.29843 0
M  V30 3172 C 279.868 0.621875 2.94199 0
M  V30 3173 C 281.416 0.582865 3.07525 0
M  V30 3174 C 281.891 1.08562 4.44948 0
M  V30 3175 N 283.382 1.04387 4.51284 0
M  V30 3176 C 284.117 1.40368 5.55954 0
M  V30 3177 N 283.613 1.83664 6.68011 0
M  V30 3178 N 285.406 1.32145 5.46346 0
M  V30 3179 H 277.557 1.41376 1.58514 0
M  V30 3180 H 279.82 0.582965 0.747567 0
M  V30 3181 H 279.526 1.66546 3.09767 0
M  V30 3182 H 279.4 0.0502125 3.77167 0
M  V30 3183 H 281.787 -0.451749 2.91622 0
M  V30 3184 H 281.868 1.191 2.26382 0
M  V30 3185 H 281.512 2.11873 4.61598 0
M  V30 3186 H 281.442 0.453956 5.2464 0
M  V30 3187 H 283.933 0.725986 3.70861 0
M  V30 3188 H 284.246 2.0934 7.43906 0
M  V30 3189 H 282.591 1.87596 6.69203 0
M  V30 3190 H 285.782 0.981808 4.57688 0
M  V30 3191 H 285.955 1.60514 6.27805 0
M  V30 3192 N 279.361 -1.56624 0.175154 0
M  V30 3193 C 280.607 -1.9729 -0.469506 0
M  V30 3194 C 280.94 -1.06128 -1.62636 0
M  V30 3195 O 280.215 -0.109183 -1.94193 0
M  V30 3196 C 280.498 -3.47375 -0.948804 0
M  V30 3197 C 280.351 -4.49317 0.208491 0
M  V30 3198 C 281.67 -4.00652 -1.82116 0
M  V30 3199 H 278.789 -0.717317 -0.16919 0
M  V30 3200 H 281.431 -1.88184 0.262062 0
M  V30 3201 H 279.581 -3.55267 -1.57219 0
M  V30 3202 H 281.253 -4.53482 0.845682 0
M  V30 3203 H 279.496 -4.25121 0.863395 0
M  V30 3204 H 280.167 -5.51741 -0.169059 0
M  V30 3205 H 282.643 -3.95416 -1.2956 0
M  V30 3206 H 281.519 -5.06075 -2.12554 0
M  V30 3207 H 281.78 -3.44699 -2.7683 0
M  V30 3208 N 280.839 0.0985539 -1.57292 0
M  V30 3209 C 281.802 1.10402 -2.00858 0
M  V30 3210 C 282.802 1.33146 -0.901593 0
M  V30 3211 O 283.992 1.29318 -1.16716 0
M  V30 3212 C 281.124 2.45394 -2.36632 0
M  V30 3213 H 282.317 0.729099 -2.90902 0
M  V30 3214 H 279.87 0.343495 -1.52479 0
M  V30 3215 H 280.605 2.87769 -1.49531 0
M  V30 3216 H 280.39 2.30235 -3.17387 0
M  V30 3217 H 281.88 3.17718 -2.71007 0
M  V30 3218 N 282.317 1.53212 0.369288 0
M  V30 3219 C 283.247 1.82365 1.45826 0
M  V30 3220 C 284.228 0.676907 1.56051 0
M  V30 3221 O 285.413 0.926401 1.70679 0
M  V30 3222 C 282.543 2.01023 2.83208 0
M  V30 3223 C 281.497 3.1678 2.8781 0
M  V30 3224 C 280.823 3.20724 4.27832 0
M  V30 3225 C 282.123 4.55447 2.55667 0
M  V30 3226 H 283.817 2.73559 1.21678 0
M  V30 3227 H 281.363 1.3163 0.583911 0
M  V30 3228 H 283.316 2.20001 3.59413 0
M  V30 3229 H 282.04 1.06536 3.08736 0
M  V30 3230 H 280.699 2.97616 2.14056 0
M  V30 3231 H 280.347 2.23882 4.50429 0
M  V30 3232 H 280.047 3.98496 4.31827 0
M  V30 3233 H 281.571 3.41881 5.05915 0
M  V30 3234 H 282.985 4.74611 3.21586 0
M  V30 3235 H 281.382 5.35432 2.70984 0
M  V30 3236 H 282.452 4.60812 1.5093 0
M  V30 3237 N 283.795 -0.628877 1.44509 0
M  V30 3238 C 284.742 -1.74074 1.51549 0
M  V30 3239 C 285.712 -1.62084 0.363021 0
M  V30 3240 O 286.897 -1.81975 0.573567 0
M  V30 3241 C 284.037 -3.12328 1.46784 0
M  V30 3242 C 283.15 -3.35277 2.72422 0
M  V30 3243 C 282.285 -4.63515 2.59475 0
M  V30 3244 C 281.324 -4.7965 3.80266 0
M  V30 3245 N 280.461 -5.99168 3.65981 0
M  V30 3246 H 285.301 -1.67392 2.46544 0
M  V30 3247 H 282.838 -0.816527 1.22357 0
M  V30 3248 H 284.796 -3.92286 1.42012 0
M  V30 3249 H 283.426 -3.18018 0.553544 0
M  V30 3250 H 282.478 -2.49242 2.87372 0
M  V30 3251 H 283.79 -3.43078 3.62076 0
M  V30 3252 H 282.944 -5.51638 2.52548 0
M  V30 3253 H 281.683 -4.58076 1.67384 0
M  V30 3254 H 280.688 -3.89957 3.87574 0
M  V30 3255 H 281.913 -4.86902 4.73395 0
M  V30 3256 H 279.859 -5.94814 2.76644 0
M  V30 3257 H 279.776 -6.08035 4.49254 0
M  V30 3258 H 281.044 -6.89846 3.6295 0
M  V30 3259 N 285.273 -1.31445 -0.869486 0
M  V30 3260 C 286.522 -1.20517 -1.61736 0
M  V30 3261 C 286.835 0.235341 -1.94179 0
M  V30 3262 O 288.041 0.466312 -2.67465 0
M  V30 3263 C 286.497 -2.10982 -2.91573 0
M  V30 3264 C 286.105 -3.60032 -2.66611 0
M  V30 3265 C 287.849 -2.08856 -3.69567 0
M  V30 3266 C 285.756 -4.42503 -3.92358 0
M  V30 3267 H 284.686 -0.447493 -0.606849 0
M  V30 3268 H 287.337 -1.56303 -0.96133 0
M  V30 3269 H 285.719 -1.68095 -3.58553 0
M  V30 3270 H 286.893 -4.11167 -2.08035 0
M  V30 3271 H 285.208 -3.64139 -2.0197 0
M  V30 3272 H 287.805 -2.67716 -4.62852 0
M  V30 3273 H 288.148 -1.07582 -4.02159 0
M  V30 3274 H 288.681 -2.49945 -3.09471 0
M  V30 3275 H 285.42 -5.44533 -3.64916 0
M  V30 3276 H 284.94 -3.96125 -4.50383 0
M  V30 3277 H 286.619 -4.54741 -4.60238 0
M  V30 3278 N 286.751 1.08385 -1.14413 0
M  V30 3279 C 288 1.80153 -0.907076 0
M  V30 3280 C 288.313 1.87176 0.567851 0
M  V30 3281 O 289.519 2.55359 0.922172 0
M  V30 3282 C 287.975 3.23687 -1.57336 0
M  V30 3283 C 287.583 3.24897 -3.08457 0
M  V30 3284 C 289.327 4.00136 -1.41744 0
M  V30 3285 C 287.234 4.6302 -3.67921 0
M  V30 3286 H 286.164 0.675139 -0.335714 0
M  V30 3287 H 288.815 1.21733 -1.37307 0
M  V30 3288 H 287.197 3.82234 -1.03505 0
M  V30 3289 H 288.371 2.76055 -3.68958 0
M  V30 3290 H 286.686 2.61943 -3.2369 0
M  V30 3291 H 289.283 5.02201 -1.83572 0
M  V30 3292 H 289.626 4.14709 -0.363576 0
M  V30 3293 H 290.159 3.48058 -1.92614 0
M  V30 3294 H 286.898 4.5365 -4.73161 0
M  V30 3295 H 286.418 5.12143 -3.12201 0
M  V30 3296 H 288.097 5.31994 -3.68227 0
M  V30 3297 N 288.23 0.939286 1.26551 0
M  V30 3298 C 289.177 0.446088 2.26448 0
M  V30 3299 C 290.147 -0.493234 1.58608 0
M  V30 3300 O 291.332 -0.409857 1.86346 0
M  V30 3301 C 288.472 -0.284375 3.43926 0
M  V30 3302 C 287.585 0.690399 4.26448 0
M  V30 3303 C 286.72 -0.0610712 5.31165 0
M  V30 3304 C 285.759 0.905649 6.05363 0
M  V30 3305 N 284.896 0.186055 7.01853 0
M  V30 3306 H 289.736 1.30291 2.68008 0
M  V30 3307 H 287.273 0.65371 1.31776 0
M  V30 3308 H 289.231 -0.724313 4.10864 0
M  V30 3309 H 287.861 -1.10535 3.03285 0
M  V30 3310 H 286.913 1.24885 3.59316 0
M  V30 3311 H 288.225 1.42873 4.779 0
M  V30 3312 H 287.379 -0.56038 6.04106 0
M  V30 3313 H 286.118 -0.832297 4.80546 0
M  V30 3314 H 285.123 1.4161 5.3125 0
M  V30 3315 H 286.348 1.67685 6.58072 0
M  V30 3316 H 284.294 -0.566714 6.53548 0
M  V30 3317 H 284.211 0.863752 7.51049 0
M  V30 3318 H 285.479 -0.292221 7.78952 0
M  V30 3319 N 289.708 -1.40897 0.706093 0
M  V30 3320 C 290.656 -2.32572 0.0361893 0
M  V30 3321 C 291.65 -1.51532 -0.757266 0
M  V30 3322 O 292.856 -1.67396 -0.661703 0
M  V30 3323 H 289.231 -0.751966 -0.00709935 0
M  V30 3324 H 291.202 -2.86733 0.826249 0
M  V30 3325 C 289.951 -3.36418 -0.87854 0
M  V30 3326 H 289.274 -3.98836 -0.277401 0
M  V30 3327 H 290.714 -4.0308 -1.3154 0
M  V30 3328 C 289.173 -2.71141 -1.99961 0
M  V30 3329 O 289.703 -2.56735 -3.0895 0
M  V30 3330 N 287.909 -2.29671 -1.78043 0
M  V30 3331 H 287.456 -2.41588 -0.894042 0
M  V30 3332 H 287.414 -1.86332 -2.53235 0
M  V30 3333 N 291.186 -0.45159 -1.50991 0
M  V30 3334 C 292.432 0.110237 -2.025 0
M  V30 3335 C 292.765 1.41109 -1.33424 0
M  V30 3336 O 292.04 1.89135 -0.453659 0
M  V30 3337 C 292.323 0.314271 -3.58726 0
M  V30 3338 C 292.176 -1.00623 -4.38401 0
M  V30 3339 C 293.495 1.07767 -4.26702 0
M  V30 3340 H 290.614 0.0385897 -0.735989 0
M  V30 3341 H 293.256 -0.593374 -1.80497 0
M  V30 3342 H 291.406 0.913601 -3.77605 0
M  V30 3343 H 293.078 -1.64064 -4.31139 0
M  V30 3344 H 291.321 -1.6075 -4.02917 0
M  V30 3345 H 291.992 -0.817341 -5.45915 0
M  V30 3346 H 294.468 0.56986 -4.12179 0
M  V30 3347 H 293.344 1.18921 -5.35863 0
M  V30 3348 H 293.605 2.10939 -3.88532 0
M  V30 3349 N 292.664 1.56529 -0.183458 0
M  V30 3350 C 293.574 2.22144 0.754272 0
M  V30 3351 C 294.59 1.21684 1.24374 0
M  V30 3352 O 295.766 1.54385 1.29333 0
M  V30 3353 C 292.831 2.85884 1.96141 0
M  V30 3354 C 291.892 4.01579 1.51765 0
M  V30 3355 C 291.125 4.6227 2.66725 0
M  V30 3356 O 291.348 4.21865 3.83909 0
M  V30 3357 O 290.282 5.51936 2.40104 0
M  V30 3358 H 294.108 3.02861 0.225527 0
M  V30 3359 H 291.693 1.49331 0.0453032 0
M  V30 3360 H 293.575 3.26253 2.66715 0
M  V30 3361 H 292.25 2.08154 2.47899 0
M  V30 3362 H 291.157 3.65856 0.781049 0
M  V30 3363 H 292.49 4.80938 1.04686 0
M  V30 3364 N 294.142 -0.090211 1.57342 0
M  V30 3365 C 295.089 -1.10909 2.02405 0
M  V30 3366 C 296.059 -1.39523 0.901252 0
M  V30 3367 O 297.244 -1.50903 1.1676 0
M  V30 3368 C 294.384 -2.42277 2.45755 0
M  V30 3369 C 293.497 -2.20352 3.71576 0
M  V30 3370 C 292.632 -3.45154 4.03785 0
M  V30 3371 C 291.671 -3.18512 5.22701 0
M  V30 3372 N 290.808 -4.35593 5.50639 0
M  V30 3373 H 295.648 -0.71782 2.89225 0
M  V30 3374 H 293.185 -0.342901 1.43048 0
M  V30 3375 H 295.143 -3.18951 2.68935 0
M  V30 3376 H 293.773 -2.79242 1.61938 0
M  V30 3377 H 292.825 -1.34458 3.55844 0
M  V30 3378 H 294.137 -1.96661 4.58395 0
M  V30 3379 H 293.291 -4.30233 4.27767 0
M  V30 3380 H 292.03 -3.71904 3.15498 0
M  V30 3381 H 291.035 -2.31827 4.98534 0
M  V30 3382 H 292.26 -2.93103 6.12591 0
M  V30 3383 H 290.206 -4.6241 4.6531 0
M  V30 3384 H 290.123 -4.1511 6.31838 0
M  V30 3385 H 291.391 -5.21723 5.7916 0
M  V30 3386 N 295.62 -1.53406 -0.361157 0
M  V30 3387 C 296.85 -1.73465 -1.1222 0
M  V30 3388 C 297.258 -0.465486 -1.83384 0
M  V30 3389 O 296.601 0.571611 -1.7458 0
M  V30 3390 C 296.663 -2.84834 -2.19339 0
M  V30 3391 C 296.327 -4.25038 -1.67903 0
M  V30 3392 C 297.324 -5.07231 -1.14074 0
M  V30 3393 C 295.009 -4.71464 -1.73282 0
M  V30 3394 C 297.003 -6.33942 -0.663068 0
M  V30 3395 C 294.69 -5.98153 -1.25127 0
M  V30 3396 C 295.688 -6.79223 -0.717296 0
M  V30 3397 O 295.376 -8.03533 -0.242865 0
M  V30 3398 H 295.108 -0.583526 -0.341283 0
M  V30 3399 H 297.662 -2.00964 -0.424591 0
M  V30 3400 H 295.892 -2.5282 -2.92607 0
M  V30 3401 H 297.581 -2.9303 -2.80871 0
M  V30 3402 H 298.347 -4.72534 -1.09254 0
M  V30 3403 H 294.226 -4.08432 -2.13786 0
M  V30 3404 H 297.77 -6.97167 -0.245612 0
M  V30 3405 H 293.667 -6.32347 -1.29642 0
M  V30 3406 H 294.435 -8.177 -0.361786 0
M  V30 3407 N 297.098 0.621204 -1.44841 0
M  V30 3408 C 298.045 1.73267 -1.5247 0
M  V30 3409 C 299.015 1.6189 -0.371611 0
M  V30 3410 O 300.2 1.81668 -0.58321 0
M  V30 3411 C 297.34 3.11545 -1.48438 0
M  V30 3412 C 296.453 3.33827 -2.74196 0
M  V30 3413 C 295.588 4.62133 -2.61929 0
M  V30 3414 C 294.627 4.77627 -3.82804 0
M  V30 3415 N 293.764 5.97219 -3.69153 0
M  V30 3416 H 298.604 1.66082 -2.47428 0
M  V30 3417 H 296.141 0.810026 -1.22788 0
M  V30 3418 H 298.099 3.91528 -1.4409 0
M  V30 3419 H 296.729 3.1772 -0.570402 0
M  V30 3420 H 295.781 2.47715 -2.88689 0
M  V30 3421 H 297.093 3.41153 -3.6389 0
M  V30 3422 H 296.247 5.50291 -2.5547 0
M  V30 3423 H 294.986 4.57182 -1.69811 0
M  V30 3424 H 293.991 3.87896 -3.89637 0
M  V30 3425 H 295.216 4.84385 -4.75971 0
M  V30 3426 H 293.162 5.93339 -2.79794 0
M  V30 3427 H 293.079 6.05644 -4.52472 0
M  V30 3428 H 294.347 6.87912 -3.66603 0
M  V30 3429 N 298.576 1.31904 0.862503 0
M  V30 3430 C 299.486 1.22161 2.00285 0
M  V30 3431 C 300.502 0.136785 1.73462 0
M  V30 3432 O 301.678 0.355994 1.98229 0
M  V30 3433 C 298.743 0.937093 3.33796 0
M  V30 3434 C 297.804 2.10957 3.73893 0
M  V30 3435 C 297.037 1.83853 5.01033 0
M  V30 3436 O 297.26 0.777274 5.65079 0
M  V30 3437 O 296.194 2.69741 5.38074 0
M  V30 3438 H 300.02 2.18008 2.11439 0
M  V30 3439 H 297.605 1.11716 0.991957 0
M  V30 3440 H 299.487 0.794583 4.13841 0
M  V30 3441 H 298.162 0.00871894 3.23699 0
M  V30 3442 H 297.069 2.30752 2.94456 0
M  V30 3443 H 298.402 3.02046 3.88625 0
M  V30 3444 N 300.054 -1.07777 1.14986 0
M  V30 3445 C 301.017 -2.13041 0.845358 0
M  V30 3446 C 302.017 -1.60071 -0.152931 0
M  V30 3447 O 303.207 -1.74033 0.0761879 0
M  V30 3448 C 300.339 -3.39896 0.261383 0
M  V30 3449 H 301.532 -2.41485 1.77834 0
M  V30 3450 H 299.085 -1.23595 0.956757 0
M  V30 3451 H 299.82 -3.17091 -0.68 0
M  V30 3452 H 299.605 -3.79642 0.980514 0
M  V30 3453 H 301.095 -4.17548 0.0657687 0
M  V30 3454 N 301.532 -0.945985 -1.26051 0
M  V30 3455 C 302.495 -0.463897 -2.24456 0
M  V30 3456 C 303.495 0.427655 -1.55009 0
M  V30 3457 O 304.685 0.226157 -1.72726 0
M  V30 3458 C 301.817 0.330812 -3.39291 0
M  V30 3459 H 303.01 -1.33357 -2.68619 0
M  V30 3460 H 300.563 -0.728416 -1.38289 0
M  V30 3461 H 301.298 1.21852 -3.00537 0
M  V30 3462 H 301.083 -0.308679 -3.90883 0
M  V30 3463 H 302.573 0.657865 -4.12386 0
M  V30 3464 N 303.011 1.40521 -0.713556 0
M  V30 3465 C 304.427 1.54839 -0.386907 0
M  V30 3466 C 304.627 1.68532 1.1045 0
M  V30 3467 O 303.683 1.67377 1.89053 0
M  V30 3468 C 304.996 2.77792 -1.15118 0
M  V30 3469 C 306.544 2.91607 -1.13729 0
M  V30 3470 C 307.019 4.1747 -1.88368 0
M  V30 3471 N 308.51 4.24466 -1.85427 0
M  V30 3472 C 309.245 5.20755 -2.40004 0
M  V30 3473 N 308.741 6.22965 -3.03129 0
M  V30 3474 N 310.534 5.1282 -2.30158 0
M  V30 3475 H 302.685 1.29879 -1.68063 0
M  V30 3476 H 304.948 0.627896 -0.710247 0
M  V30 3477 H 304.654 2.73944 -2.20561 0
M  V30 3478 H 304.528 3.6984 -0.741477 0
M  V30 3479 H 306.915 2.94959 -0.0910608 0
M  V30 3480 H 306.996 2.00682 -1.5862 0
M  V30 3481 H 306.64 4.1488 -2.9298 0
M  V30 3482 H 306.57 5.074 -1.40898 0
M  V30 3483 H 309.061 3.51241 -1.3942 0
M  V30 3484 H 309.374 6.92859 -3.42295 0
M  V30 3485 H 307.719 6.23415 -3.07212 0
M  V30 3486 H 310.91 4.31899 -1.80501 0
M  V30 3487 H 311.083 5.87689 -2.72993 0
M  V30 3488 N 304.489 0.459591 1.5075 0
M  V30 3489 C 305.419 -0.330644 2.31147 0
M  V30 3490 C 306.4 -1.00087 1.37538 0
M  V30 3491 O 307.585 -1.00025 1.66459 0
M  V30 3492 C 304.715 -1.41958 3.16962 0
M  V30 3493 C 303.669 -0.871608 4.19031 0
M  V30 3494 C 302.995 -2.05797 4.9351 0
M  V30 3495 C 304.295 0.109251 5.22186 0
M  V30 3496 H 305.989 0.340336 2.97459 0
M  V30 3497 H 303.535 0.165119 1.4305 0
M  V30 3498 H 305.488 -1.9798 3.71997 0
M  V30 3499 H 304.212 -2.11917 2.48513 0
M  V30 3500 H 302.871 -0.333442 3.6508 0
M  V30 3501 H 302.519 -2.74427 4.21544 0
M  V30 3502 H 302.219 -1.6976 5.62544 0
M  V30 3503 H 303.743 -2.62331 5.51375 0
M  V30 3504 H 305.157 -0.361405 5.7216 0
M  V30 3505 H 303.554 0.383316 5.98875 0
M  V30 3506 H 304.624 1.03887 4.73641 0
M  V30 3507 N 305.967 -1.56429 0.191757 0
M  V30 3508 C 306.877 -2.22541 -0.742481 0
M  V30 3509 C 307.893 -1.22342 -1.23727 0
M  V30 3510 O 309.069 -1.55069 -1.28513 0
M  V30 3511 C 306.134 -2.8692 -1.94623 0
M  V30 3512 C 305.195 -4.02378 -1.49633 0
M  V30 3513 C 304.428 -4.63678 -2.6427 0
M  V30 3514 O 304.651 -4.23895 -3.81666 0
M  V30 3515 O 303.585 -5.53202 -2.37174 0
M  V30 3516 H 307.411 -3.02977 -0.209462 0
M  V30 3517 H 304.996 -1.49353 -0.0373832 0
M  V30 3518 H 306.878 -3.27663 -2.64982 0
M  V30 3519 H 305.553 -2.09466 -2.46791 0
M  V30 3520 H 304.46 -3.66265 -0.761636 0
M  V30 3521 H 305.793 -4.81487 -1.02134 0
M  V30 3522 N 307.445 0.0818655 -1.57387 0
M  V30 3523 C 308.694 0.781681 -1.85937 0
M  V30 3524 C 309.007 1.79246 -0.782957 0
M  V30 3525 O 310.213 2.54112 -0.955987 0
M  V30 3526 C 308.669 1.44109 -3.29789 0
M  V30 3527 C 308.277 0.469396 -4.45534 0
M  V30 3528 C 310.021 2.12386 -3.67549 0
M  V30 3529 C 307.928 1.13415 -5.80423 0
M  V30 3530 H 306.858 0.295682 -0.693605 0
M  V30 3531 H 309.509 0.0348051 -1.83467 0
M  V30 3532 H 307.891 2.23588 -3.2684 0
M  V30 3533 H 309.065 -0.294856 -4.59856 0
M  V30 3534 H 307.38 -0.108383 -4.16259 0
M  V30 3535 H 309.977 2.62878 -4.65617 0
M  V30 3536 H 310.32 2.91877 -2.96839 0
M  V30 3537 H 310.853 1.39751 -3.72444 0
M  V30 3538 H 307.592 0.379771 -6.54399 0
M  V30 3539 H 307.112 1.8695 -5.69921 0
M  V30 3540 H 308.791 1.65686 -6.25426 0
M  V30 3541 N 308.923 1.53595 0.353017 0
M  V30 3542 C 309.871 1.81605 1.45335 0
M  V30 3543 C 310.865 0.685923 1.54892 0
M  V30 3544 O 312.071 0.869095 1.57628 0
M  V30 3545 H 308.446 0.575204 0.484401 0
M  V30 3546 H 310.417 2.73679 1.18921 0
M  V30 3547 C 309.166 2.03406 2.81995 0
M  V30 3548 H 308.489 2.89814 2.75405 0
M  V30 3549 H 309.929 2.26975 3.58132 0
M  V30 3550 C 308.388 0.816794 3.26849 0
M  V30 3551 O 308.918 0.0115856 4.01698 0
M  V30 3552 N 307.124 0.636682 2.8354 0
M  V30 3553 H 306.671 1.2931 2.22793 0
M  V30 3554 H 306.629 -0.176336 3.13905 0
M  V30 3555 N 310.401 -0.613514 1.45168 0
M  V30 3556 C 311.647 -1.37471 1.49096 0
M  V30 3557 C 311.98 -1.93765 0.129901 0
M  V30 3558 O 311.255 -1.74707 -0.854858 0
M  V30 3559 C 311.538 -2.52701 2.56542 0
M  V30 3560 C 311.391 -2.01643 4.0207 0
M  V30 3561 C 312.71 -3.54849 2.60327 0
M  V30 3562 H 309.829 -0.498502 0.54283 0
M  V30 3563 H 312.471 -0.692125 1.76945 0
M  V30 3564 H 310.621 -3.10931 2.32926 0
M  V30 3565 H 312.293 -1.48108 4.36877 0
M  V30 3566 H 310.536 -1.32688 4.13009 0
M  V30 3567 H 311.207 -2.84681 4.72928 0
M  V30 3568 H 313.683 -3.0645 2.81474 0
M  V30 3569 H 312.559 -4.32973 3.37381 0
M  V30 3570 H 312.82 -4.10079 1.6519 0
M  V30 3571 N 311.879 -1.3236 -0.855495 0
M  V30 3572 C 312.809 -1.23833 -1.97958 0
M  V30 3573 C 313.79 -0.122361 -1.69659 0
M  V30 3574 O 314.975 -0.30939 -1.9172 0
M  V30 3575 C 312.105 -0.959772 -3.33775 0
M  V30 3576 C 311.059 -2.03689 -3.76424 0
M  V30 3577 C 310.385 -1.61075 -5.09862 0
M  V30 3578 C 311.685 -3.4518 -3.9198 0
M  V30 3579 H 313.379 -2.1788 -2.0535 0
M  V30 3580 H 310.925 -1.04891 -0.986605 0
M  V30 3581 H 312.878 -0.886678 -4.11966 0
M  V30 3582 H 311.602 0.0163404 -3.26596 0
M  V30 3583 H 310.261 -2.10012 -3.00484 0
M  V30 3584 H 309.909 -0.622107 -4.99138 0
M  V30 3585 H 309.609 -2.33143 -5.39368 0
M  V30 3586 H 311.133 -1.55201 -5.90546 0
M  V30 3587 H 312.547 -3.4145 -4.60526 0
M  V30 3588 H 310.944 -4.1559 -4.32903 0
M  V30 3589 H 312.014 -3.84903 -2.94919 0
M  V30 3590 N 313.357 1.07166 -1.15556 0
M  V30 3591 C 314.267 2.17947 -0.868116 0
M  V30 3592 C 315.283 1.73297 0.156297 0
M  V30 3593 O 316.459 2.01392 -0.0182327 0
M  V30 3594 C 313.524 3.44789 -0.36355 0
M  V30 3595 C 312.585 4.03996 -1.45209 0
M  V30 3596 C 311.818 5.24783 -0.971508 0
M  V30 3597 O 312.041 5.70109 0.182194 0
M  V30 3598 O 310.975 5.75715 -1.75603 0
M  V30 3599 H 314.801 2.4503 -1.79427 0
M  V30 3600 H 312.386 1.16539 -0.934824 0
M  V30 3601 H 314.268 4.21307 -0.0887113 0
M  V30 3602 H 312.943 3.19253 0.534708 0
M  V30 3603 H 311.85 3.29009 -1.78056 0
M  V30 3604 H 313.183 4.33808 -2.32533 0
M  V30 3605 N 314.835 0.952656 1.25548 0
M  V30 3606 C 315.782 0.47008 2.25962 0
M  V30 3607 C 316.752 -0.476384 1.59122 0
M  V30 3608 O 317.937 -0.39007 1.8677 0
M  V30 3609 C 315.077 -0.247881 3.44209 0
M  V30 3610 C 314.19 0.735591 4.25691 0
M  V30 3611 C 313.325 -0.0047306 5.312 0
M  V30 3612 C 312.364 0.969805 6.04368 0
M  V30 3613 N 311.501 0.260486 7.01617 0
M  V30 3614 H 316.341 1.33126 2.66611 0
M  V30 3615 H 313.878 0.66765 1.31076 0
M  V30 3616 H 315.836 -0.680695 4.1161 0
M  V30 3617 H 314.466 -1.07312 3.0444 0
M  V30 3618 H 313.518 1.28689 3.57971 0
M  V30 3619 H 314.83 1.47934 4.76358 0
M  V30 3620 H 313.984 -0.496275 6.04667 0
M  V30 3621 H 312.723 -0.781282 4.81401 0
M  V30 3622 H 311.728 1.47237 5.29718 0
M  V30 3623 H 312.953 1.74655 6.56256 0
M  V30 3624 H 310.899 -0.497364 6.54112 0
M  V30 3625 H 310.816 0.943362 7.50091 0
M  V30 3626 H 312.084 -0.209587 7.79218 0
M  V30 3627 N 316.313 -1.40141 0.720998 0
M  V30 3628 C 317.562 -2.0002 0.259804 0
M  V30 3629 C 317.875 -1.57839 -1.15526 0
M  V30 3630 O 319.081 -2.10455 -1.71525 0
M  V30 3631 C 317.537 -3.57516 0.413566 0
M  V30 3632 C 317.145 -4.08667 1.83562 0
M  V30 3633 C 318.889 -4.24498 0.0134387 0
M  V30 3634 C 316.796 -5.58686 1.93968 0
M  V30 3635 H 315.726 -0.748195 0.0933806 0
M  V30 3636 H 318.377 -1.60313 0.892866 0
M  V30 3637 H 316.759 -3.9495 -0.288169 0
M  V30 3638 H 317.933 -3.82598 2.56817 0
M  V30 3639 H 316.248 -3.543 2.1877 0
M  V30 3640 H 318.845 -5.34654 0.0703954 0
M  V30 3641 H 319.188 -4.03375 -1.02927 0
M  V30 3642 H 319.721 -3.92188 0.665815 0
M  V30 3643 H 316.46 -5.8467 2.96379 0
M  V30 3644 H 315.98 -5.86602 1.25131 0
M  V30 3645 H 317.659 -6.23875 1.71431 0
M  V30 3646 N 317.792 -0.46758 -1.50504 0
M  V30 3647 C 318.74 0.342482 -2.30065 0
M  V30 3648 C 319.734 0.993596 -1.37201 0
M  V30 3649 O 320.94 0.925102 -1.54408 0
M  V30 3650 H 317.315 0.129283 -0.740803 0
M  V30 3651 H 319.286 -0.34899 -2.96352 0
M  V30 3652 C 318.035 1.4139 -3.17654 0
M  V30 3653 H 317.358 0.922264 -3.89017 0
M  V30 3654 H 318.798 1.95335 -3.76325 0
M  V30 3655 C 317.257 2.4139 -2.35016 0
M  V30 3656 O 317.787 3.46586 -2.03079 0
M  V30 3657 N 315.993 2.13021 -1.97662 0
M  V30 3658 H 315.54 1.27499 -2.23834 0
M  V30 3659 H 315.498 2.80164 -1.42673 0
M  V30 3660 N 319.27 1.56325 -0.20005 0
M  V30 3661 C 320.18 2.22931 0.730668 0
M  V30 3662 C 321.196 1.22997 1.23076 0
M  V30 3663 O 322.372 1.55748 1.27689 0
M  V30 3664 C 319.437 2.87948 1.93098 0
M  V30 3665 C 318.498 4.03166 1.47497 0
M  V30 3666 C 317.731 4.65073 2.61807 0
M  V30 3667 O 317.954 4.25913 3.79413 0
M  V30 3668 O 316.888 5.54452 2.34237 0
M  V30 3669 H 320.714 3.03084 0.193391 0
M  V30 3670 H 318.299 1.49371 0.0294621 0
M  V30 3671 H 320.181 3.29063 2.6324 0
M  V30 3672 H 318.856 2.10771 2.45677 0
M  V30 3673 H 317.763 3.66664 0.742201 0
M  V30 3674 H 319.096 4.82022 0.995796 0
M  V30 3675 N 320.748 -0.0735177 1.57428 0
M  V30 3676 C 321.695 -1.08756 2.0357 0
M  V30 3677 C 322.665 -1.38559 0.916 0
M  V30 3678 O 323.85 -1.49656 1.18354 0
M  V30 3679 C 320.99 -2.39657 2.48311 0
M  V30 3680 C 320.103 -2.16399 3.73892 0
M  V30 3681 C 319.238 -3.40852 4.07423 0
M  V30 3682 C 318.277 -3.1295 5.2605 0
M  V30 3683 N 317.414 -4.29729 5.55228 0
M  V30 3684 H 322.254 -0.687104 2.8997 0
M  V30 3685 H 319.791 -0.327709 1.43403 0
M  V30 3686 H 321.749 -3.16081 2.72303 0
M  V30 3687 H 320.379 -2.77508 1.64891 0
M  V30 3688 H 319.431 -1.30676 3.57251 0
M  V30 3689 H 320.743 -1.91788 4.60455 0
M  V30 3690 H 319.897 -4.25671 4.32306 0
M  V30 3691 H 318.636 -3.68537 3.19425 0
M  V30 3692 H 317.641 -2.26526 5.00965 0
M  V30 3693 H 318.866 -2.86589 6.15665 0
M  V30 3694 H 316.812 -4.57448 4.70188 0
M  V30 3695 H 316.729 -4.08385 6.36206 0
M  V30 3696 H 317.997 -5.1555 5.84661 0
M  V30 3697 N 322.226 -1.5378 -0.344866 0
M  V30 3698 C 323.503 -1.61589 -1.10219 0
M  V30 3699 C 323.883 -0.436316 -2.06542 0
M  V30 3700 O 323.231 0.571543 -2.21237 0
M  V30 3701 C 323.441 -2.97602 -1.82301 0
M  V30 3702 C 324.789 -3.5291 -2.36093 0
M  V30 3703 O 325.813 -2.99768 -1.924 0
M  V30 3704 O 324.672 -4.45859 -3.16026 0
M  V30 3705 H 321.766 -0.653522 -0.506792 0
M  V30 3706 H 324.312 -1.66126 -0.346465 0
M  V30 3707 H 323.084 -3.74893 -1.12121 0
M  V30 3708 H 322.707 -2.9665 -2.64735 0
M  V30 3709 N 323.704 0.605807 -1.45491 0
M  V30 3710 C 325.115 1.18777 -1.44045 0
M  V30 3711 C 325.466 1.95471 -0.169001 0
M  V30 3712 O 324.591 2.0374 0.729324 0
M  V30 3713 C 325.186 2.16064 -2.60963 0
M  V30 3714 C 323.745 2.69633 -2.62631 0
M  V30 3715 C 322.892 1.45072 -2.36325 0
M  V30 3716 H 325.843 0.395017 -1.53705 0
M  V30 3717 H 325.864 2.9913 -2.35163 0
M  V30 3718 H 325.376 1.60217 -3.53486 0
M  V30 3719 H 323.477 3.29414 -1.74119 0
M  V30 3720 H 323.59 3.13944 -3.61906 0
M  V30 3721 H 321.954 1.74089 -1.85917 0
M  V30 3722 H 322.737 0.910899 -3.30995 0
M  V30 3723 N 325.182 1.32811 0.848464 0
M  V30 3724 C 326.459 1.14334 1.58704 0
M  V30 3725 C 326.839 -0.293948 2.09043 0
M  V30 3726 O 326.187 -1.29153 1.88499 0
M  V30 3727 C 326.397 2.17626 2.72837 0
M  V30 3728 C 327.745 2.51282 3.42261 0
M  V30 3729 O 328.769 2.16219 2.83068 0
M  V30 3730 O 327.628 3.11413 4.49093 0
M  V30 3731 H 324.722 0.441601 0.699226 0
M  V30 3732 H 327.268 1.44362 0.892053 0
M  V30 3733 H 326.04 3.14211 2.3321 0
M  V30 3734 H 325.663 1.88628 3.50008 0
M  V30 3735 N 326.66 -1.06551 1.16123 0
M  V30 3736 C 327.608 -2.16063 0.861371 0
M  V30 3737 C 328.602 -1.6856 -0.168517 0
M  V30 3738 O 329.808 -1.79986 -0.0227579 0
M  V30 3739 H 326.183 -0.705278 0.260934 0
M  V30 3740 H 328.154 -2.38567 1.79244 0
M  V30 3741 C 326.903 -3.45661 0.376018 0
M  V30 3742 H 326.226 -3.82604 1.15992 0
M  V30 3743 H 327.666 -4.23504 0.204951 0
M  V30 3744 C 326.125 -3.24546 -0.903954 0
M  V30 3745 O 326.655 -3.49865 -1.97377 0
M  V30 3746 N 324.861 -2.77992 -0.846679 0
M  V30 3747 H 324.408 -2.57589 0.0241017 0
M  V30 3748 H 324.366 -2.64244 -1.70359 0
M  V30 3749 N 328.138 -0.959301 -1.25041 0
M  V30 3750 C 329.085 -0.482057 -2.2571 0
M  V30 3751 C 330.055 0.467939 -1.59372 0
M  V30 3752 O 331.24 0.380159 -1.86974 0
M  V30 3753 C 328.38 0.229623 -3.44335 0
M  V30 3754 C 327.493 -0.758156 -4.25295 0
M  V30 3755 C 326.628 -0.0234403 -5.31195 0
M  V30 3756 C 325.667 -1.00184 -6.03846 0
M  V30 3757 N 324.804 -0.29769 -7.01469 0
M  V30 3758 H 329.644 -1.34538 -2.65901 0
M  V30 3759 H 327.181 -0.674592 -1.3072 0
M  V30 3760 H 329.139 0.658856 -4.11965 0
M  V30 3761 H 327.769 1.05696 -3.05005 0
M  V30 3762 H 326.821 -1.30586 -3.57284 0
M  V30 3763 H 328.133 -1.50458 -4.75567 0
M  V30 3764 H 327.287 0.464201 -6.04922 0
M  V30 3765 H 326.026 0.755741 -4.81809 0
M  V30 3766 H 325.031 -1.50044 -5.2893 0
M  V30 3767 H 326.256 -1.78133 -6.55321 0
M  V30 3768 H 324.202 0.462668 -6.54366 0
M  V30 3769 H 324.119 -0.983128 -7.4958 0
M  V30 3770 H 325.387 0.16826 -7.79318 0
M  V30 3771 N 329.616 1.39756 -0.72842 0
M  V30 3772 C 330.564 2.32485 -0.0731849 0
M  V30 3773 C 331.558 1.52717 0.733063 0
M  V30 3774 O 332.764 1.68428 0.634988 0
M  V30 3775 H 329.139 0.751984 -0.00486469 0
M  V30 3776 H 331.11 2.85382 -0.871761 0
M  V30 3777 C 329.859 3.37773 0.824908 0
M  V30 3778 H 329.182 3.99227 0.213915 0
M  V30 3779 H 330.622 4.05121 1.25111 0
M  V30 3780 C 329.081 2.74287 1.95622 0
M  V30 3781 O 329.611 2.61618 3.04826 0
M  V30 3782 N 327.817 2.32475 1.74367 0
M  V30 3783 H 327.364 2.4298 0.855494 0
M  V30 3784 H 327.322 1.90337 2.50238 0
M  V30 3785 N 331.094 0.475555 1.50254 0
M  V30 3786 C 332.024 -0.30611 2.31485 0
M  V30 3787 C 333.005 -0.986228 1.38591 0
M  V30 3788 O 334.19 -0.982541 1.67511 0
M  V30 3789 C 331.32 -1.38588 3.1845 0
M  V30 3790 C 330.274 -0.827115 4.19932 0
M  V30 3791 C 329.6 -2.00551 4.95665 0
M  V30 3792 C 330.9 0.16463 5.2204 0
M  V30 3793 H 332.594 0.371866 2.97082 0
M  V30 3794 H 330.14 0.180282 1.42867 0
M  V30 3795 H 332.093 -1.94023 3.74076 0
M  V30 3796 H 330.817 -2.09269 2.50747 0
M  V30 3797 H 329.476 -0.294702 3.65414 0
M  V30 3798 H 329.124 -2.6994 4.2443 0
M  V30 3799 H 328.824 -1.63784 5.64313 0
M  V30 3800 H 330.348 -2.56468 5.54127 0
M  V30 3801 H 331.762 -0.300699 5.72511 0
M  V30 3802 H 330.159 0.446813 5.98434 0
M  V30 3803 H 331.229 1.08905 4.72512 0
M  V30 3804 N 332.573 -1.56217 0.208337 0
M  V30 3805 C 333.813 -1.99849 -0.428927 0
M  V30 3806 C 334.177 -1.09262 -1.57879 0
M  V30 3807 O 335.378 -1.42185 -2.28116 0
M  V30 3808 C 333.649 -3.46777 -0.864879 0
M  V30 3809 S 335.208 -4.12434 -1.49811 0
M  V30 3810 H 332.026 -0.697742 -0.136665 0
M  V30 3811 H 334.628 -1.92953 0.314519 0
M  V30 3812 H 333.332 -4.10396 -0.0181326 0
M  V30 3813 H 332.863 -3.57518 -1.64147 0
M  V30 3814 H 334.878 -4.10532 -2.78707 0
M  V30 3815 N 334.051 0.0651679 -1.57465 0
M  V30 3816 C 335.297 0.764193 -1.87851 0
M  V30 3817 C 335.63 1.76889 -0.801495 0
M  V30 3818 O 334.905 1.93594 0.187528 0
M  V30 3819 C 335.188 1.46625 -3.28897 0
M  V30 3820 C 335.041 0.477515 -4.47258 0
M  V30 3821 C 336.36 2.4095 -3.68281 0
M  V30 3822 H 333.479 0.276351 -0.683227 0
M  V30 3823 H 336.121 0.0272868 -1.8998 0
M  V30 3824 H 334.271 2.09438 -3.27212 0
M  V30 3825 H 335.943 -0.145922 -4.61069 0
M  V30 3826 H 334.186 -0.206576 -4.33308 0
M  V30 3827 H 334.857 1.0065 -5.42746 0
M  V30 3828 H 337.333 1.88209 -3.71102 0
M  V30 3829 H 336.209 2.87072 -4.67847 0
M  V30 3830 H 336.47 3.26049 -2.98571 0
M  V30 3831 N 335.529 1.53961 0.336706 0
M  V30 3832 C 336.461 1.78751 1.4346 0
M  V30 3833 C 337.474 0.669019 1.48418 0
M  V30 3834 O 338.663 0.945884 1.51378 0
M  V30 3835 C 335.763 1.87844 2.82078 0
M  V30 3836 C 334.936 3.17854 3.00479 0
M  V30 3837 C 333.995 3.17816 4.19379 0
M  V30 3838 O 333.021 3.91511 4.13168 0
M  V30 3839 N 334.223 2.40669 5.2826 0
M  V30 3840 H 336.988 2.73493 1.22563 0
M  V30 3841 H 334.549 1.53096 0.526625 0
M  V30 3842 H 336.541 1.85261 3.59806 0
M  V30 3843 H 335.111 1.00257 2.96086 0
M  V30 3844 H 334.331 3.33504 2.10163 0
M  V30 3845 H 335.619 4.03718 3.0966 0
M  V30 3846 H 335.017 1.8036 5.36178 0
M  V30 3847 H 333.574 2.43877 6.04456 0
M  V30 3848 N 337.007 -0.598083 1.45811 0
M  V30 3849 C 337.94 -1.7223 1.49706 0
M  V30 3850 C 338.918 -1.58732 0.352535 0
M  V30 3851 O 340.102 -1.80162 0.554438 0
M  V30 3852 C 337.229 -3.10148 1.3611 0
M  V30 3853 C 336.275 -3.42209 2.54549 0
M  V30 3854 S 337.108 -3.35989 4.16979 0
M  V30 3855 C 338.264 -4.76471 4.05865 0
M  V30 3856 H 338.497 -1.68665 2.44826 0
M  V30 3857 H 336.03 -0.775541 1.33509 0
M  V30 3858 H 337.988 -3.8972 1.28953 0
M  V30 3859 H 336.649 -3.11219 0.424451 0
M  V30 3860 H 335.842 -4.42652 2.40988 0
M  V30 3861 H 335.444 -2.70173 2.58617 0
M  V30 3862 H 337.736 -5.665 3.71596 0
M  V30 3863 H 338.679 -4.95089 5.06253 0
M  V30 3864 H 339.087 -4.52599 3.37364 0
M  V30 3865 N 338.485 -1.33259 -0.841409 0
M  V30 3866 C 339.732 -1.24572 -1.5965 0
M  V30 3867 C 340.06 0.189137 -1.93578 0
M  V30 3868 O 339.315 1.14566 -1.5866 0
M  V30 3869 C 339.614 -2.06381 -2.9179 0
M  V30 3870 C 339.28 -3.556 -2.77235 0
M  V30 3871 C 337.942 -3.96282 -2.72973 0
M  V30 3872 C 340.294 -4.50433 -2.62221 0
M  V30 3873 C 337.622 -5.30017 -2.51592 0
M  V30 3874 C 339.974 -5.84327 -2.42374 0
M  V30 3875 C 338.638 -6.24194 -2.36512 0
M  V30 3876 H 337.908 -0.455842 -0.5842 0
M  V30 3877 H 340.555 -1.6482 -0.975016 0
M  V30 3878 H 338.86 -1.58903 -3.5813 0
M  V30 3879 H 340.557 -1.97019 -3.49263 0
M  V30 3880 H 337.147 -3.23298 -2.81384 0
M  V30 3881 H 341.331 -4.19914 -2.64549 0
M  V30 3882 H 336.587 -5.59947 -2.45499 0
M  V30 3883 H 340.761 -6.57414 -2.29739 0
M  V30 3884 H 338.388 -7.27759 -2.19706 0
M  V30 3885 N 339.963 1.05934 -1.16686 0
M  V30 3886 C 341.24 1.75643 -0.860747 0
M  V30 3887 C 341.62 2.01144 0.640641 0
M  V30 3888 O 340.968 1.64147 1.58959 0
M  V30 3889 C 341.178 3.05493 -1.68745 0
M  V30 3890 C 342.526 3.79581 -1.90271 0
M  V30 3891 O 343.55 3.15344 -1.65641 0
M  V30 3892 O 342.409 4.9499 -2.31618 0
M  V30 3893 H 339.503 0.763426 -0.317977 0
M  V30 3894 H 342.049 1.1217 -1.27342 0
M  V30 3895 H 340.821 2.8264 -2.70611 0
M  V30 3896 H 340.444 3.76702 -1.27206 0
M  V30 3897 N 341.441 0.965919 1.2453 0
M  V30 3898 C 342.687 0.637349 1.93156 0
M  V30 3899 C 343.042 -0.818261 1.74133 0
M  V30 3900 O 342.335 -1.58079 1.08266 0
M  V30 3901 C 342.529 0.945428 3.44669 0
M  V30 3902 C 342.358 2.42944 3.78429 0
M  V30 3903 C 341.128 3.08895 3.9989 0
M  V30 3904 C 343.326 3.40941 3.8505 0
M  V30 3905 N 341.308 4.47052 4.20735 0
M  V30 3906 C 342.679 4.64448 4.10717 0
M  V30 3907 C 344.734 3.35624 3.67779 0
M  V30 3908 C 343.437 5.83292 4.20907 0
M  V30 3909 C 345.463 4.53818 3.79214 0
M  V30 3910 C 344.825 5.76114 4.05304 0
M  V30 3911 H 340.924 0.284034 0.728594 0
M  V30 3912 H 343.508 1.24041 1.50073 0
M  V30 3913 H 341.679 0.371193 3.86622 0
M  V30 3914 H 343.411 0.575613 4.00586 0
M  V30 3915 H 340.166 2.59432 3.96222 0
M  V30 3916 H 340.59 5.18634 4.35141 0
M  V30 3917 H 345.232 2.4211 3.46616 0
M  V30 3918 H 342.95 6.77236 4.40883 0
M  V30 3919 H 346.536 4.51263 3.67224 0
M  V30 3920 H 345.416 6.66045 4.13949 0
M  V30 3921 N 342.919 -1.39368 0.735821 0
M  V30 3922 C 344.166 -2.00497 0.284123 0
M  V30 3923 C 344.494 -1.58387 -1.12889 0
M  V30 3924 O 343.749 -0.804359 -1.78406 0
M  V30 3925 C 344.048 -3.5583 0.334651 0
M  V30 3926 C 343.714 -4.17593 1.7008 0
M  V30 3927 C 342.376 -4.34176 2.07472 0
M  V30 3928 C 344.728 -4.51848 2.59775 0
M  V30 3929 C 342.056 -4.82304 3.34065 0
M  V30 3930 C 344.408 -5.01384 3.85741 0
M  V30 3931 C 343.072 -5.16175 4.23225 0
M  V30 3932 H 342.342 -0.73367 0.103968 0
M  V30 3933 H 344.989 -1.66683 0.942825 0
M  V30 3934 H 343.294 -3.89674 -0.407625 0
M  V30 3935 H 344.991 -4.00986 -0.0329927 0
M  V30 3936 H 341.581 -4.05087 1.40008 0
M  V30 3937 H 345.765 -4.38653 2.32157 0
M  V30 3938 H 341.021 -4.91941 3.63049 0
M  V30 3939 H 345.195 -5.26863 4.55399 0
M  V30 3940 H 342.822 -5.5323 5.21384 0
M  V30 3941 N 344.397 -0.483516 -1.5 0
M  V30 3942 C 345.674 0.129337 -1.95172 0
M  V30 3943 C 346.054 1.55802 -1.4244 0
M  V30 3944 O 345.402 2.19625 -0.630649 0
M  V30 3945 C 345.612 0.0599251 -3.48949 0
M  V30 3946 C 346.96 0.242617 -4.23906 0
M  V30 3947 O 347.984 0.135933 -3.55941 0
M  V30 3948 O 346.843 0.459454 -5.44565 0
M  V30 3949 H 343.937 0.104887 -0.820322 0
M  V30 3950 H 346.483 -0.544807 -1.60717 0
M  V30 3951 H 345.255 -0.937079 -3.79914 0
M  V30 3952 H 344.878 0.774984 -3.89974 0
M  V30 3953 N 345.875 1.56104 -0.216619 0
M  V30 3954 C 347.105 2.02269 0.420802 0
M  V30 3955 C 347.513 1.09575 1.5424 0
M  V30 3956 O 346.856 0.0967308 1.83445 0
M  V30 3957 C 346.918 3.44784 1.01806 0
M  V30 3958 C 346.582 4.56988 0.0325154 0
M  V30 3959 C 347.579 5.14225 -0.766055 0
M  V30 3960 C 345.264 5.02228 -0.0848092 0
M  V30 3961 C 347.258 6.15169 -1.6687 0
M  V30 3962 C 344.945 6.03011 -0.990994 0
M  V30 3963 C 345.943 6.59357 -1.78149 0
M  V30 3964 O 345.631 7.58179 -2.67245 0
M  V30 3965 H 345.363 0.667353 0.107776 0
M  V30 3966 H 347.917 2.02747 -0.329034 0
M  V30 3967 H 346.147 3.41359 1.81689 0
M  V30 3968 H 347.836 3.74626 1.56237 0
M  V30 3969 H 348.602 4.80126 -0.685836 0
M  V30 3970 H 344.481 4.58054 0.520349 0
M  V30 3971 H 348.025 6.59076 -2.28615 0
M  V30 3972 H 343.922 6.36532 -1.07225 0
M  V30 3973 H 344.69 7.75682 -2.61265 0
M  V30 3974 N 347.353 -0.0568162 1.57498 0
M  V30 3975 C 348.303 -1.07315 2.01166 0
M  V30 3976 C 349.287 -1.33632 0.896171 0
M  V30 3977 O 350.479 -1.33682 1.16009 0
M  V30 3978 C 347.608 -2.38257 2.47161 0
M  V30 3979 C 346.694 -2.1515 3.65474 0
M  V30 3980 N 347.085 -1.62014 4.7915 0
M  V30 3981 C 345.383 -2.45559 3.72313 0
M  V30 3982 C 346.084 -1.54069 5.60926 0
M  V30 3983 N 345.06 -2.00652 5.05213 0
M  V30 3984 H 348.862 -0.655878 2.86488 0
M  V30 3985 H 346.376 -0.263635 1.60246 0
M  V30 3986 H 348.373 -3.11845 2.76691 0
M  V30 3987 H 347.033 -2.80687 1.63232 0
M  V30 3988 H 348.044 -1.30667 5.01145 0
M  V30 3989 H 344.721 -2.91253 2.99129 0
M  V30 3990 H 346.111 -1.13712 6.62208 0
M  V30 3991 N 348.832 -1.54138 -0.328536 0
M  V30 3992 C 350.08 -1.71765 -1.06496 0
M  V30 3993 C 350.401 -0.49149 -1.88704 0
M  V30 3994 O 349.671 0.494539 -1.89555 0
M  V30 3995 H 348.251 -0.633295 -0.396164 0
M  V30 3996 H 350.913 -1.91429 -0.366176 0
M  V30 3997 H 350.009 -2.5951 -1.73381 0
M  V30 3998 N 350.31 0.590341 -1.46126 0
M  V30 3999 C 351.26 1.69466 -1.5253 0
M  V30 4000 C 352.244 1.56179 -0.386917 0
M  V30 4001 O 353.436 1.65223 -0.634858 0
M  V30 4002 C 350.565 3.08245 -1.5113 0
M  V30 4003 C 349.651 3.26856 -2.70233 0
M  V30 4004 N 350.042 3.15657 -3.95214 0
M  V30 4005 C 348.34 3.57775 -2.66296 0
M  V30 4006 C 349.041 3.36066 -4.74799 0
M  V30 4007 N 348.017 3.60865 -4.06543 0
M  V30 4008 H 351.819 1.59326 -2.46966 0
M  V30 4009 H 349.333 0.79414 -1.41659 0
M  V30 4010 H 351.33 3.87492 -1.53804 0
M  V30 4011 H 349.99 3.19521 -0.577636 0
M  V30 4012 H 351.001 2.93686 -4.26578 0
M  V30 4013 H 347.678 3.75782 -1.81918 0
M  V30 4014 H 349.068 3.32655 -5.83772 0
M  V30 4015 N 351.788 1.33704 0.83433 0
M  V30 4016 C 352.721 1.18675 1.94914 0
M  V30 4017 C 353.699 0.0811145 1.62398 0
M  V30 4018 O 354.883 0.244186 1.86912 0
M  V30 4019 C 352.01 0.821231 3.28593 0
M  V30 4020 C 351.056 1.93501 3.80079 0
M  V30 4021 S 351.889 3.54671 4.01209 0
M  V30 4022 C 353.045 3.20136 5.37833 0
M  V30 4023 H 353.278 2.13043 2.07364 0
M  V30 4024 H 350.811 1.18598 0.988624 0
M  V30 4025 H 352.769 0.617123 4.05835 0
M  V30 4026 H 351.43 -0.103927 3.13928 0
M  V30 4027 H 350.623 1.63273 4.76821 0
M  V30 4028 H 350.225 2.09601 3.09747 0
M  V30 4029 H 352.517 2.71242 6.20833 0
M  V30 4030 H 353.46 4.15975 5.73036 0
M  V30 4031 H 353.868 2.56613 5.02802 0
M  V30 4032 N 353.266 -1.05314 1.17247 0
M  V30 4033 C 354.506 -1.79869 0.970898 0
M  V30 4034 C 354.87 -1.85594 -0.491808 0
M  V30 4035 O 356.071 -2.56229 -0.812409 0
M  V30 4036 C 354.342 -3.19937 1.59295 0
M  V30 4037 S 355.901 -4.10986 1.53741 0
M  V30 4038 H 352.719 -0.61949 0.348931 0
M  V30 4039 H 355.321 -1.26368 1.49169 0
M  V30 4040 H 354.025 -3.13372 2.65003 0
M  V30 4041 H 353.556 -3.78515 1.07191 0
M  V30 4042 H 355.571 -4.93203 0.544537 0
M  V30 4043 N 354.744 -0.972509 -1.24016 0
M  V30 4044 C 355.993 -0.632603 -1.91523 0
M  V30 4045 C 356.306 0.836641 -1.76804 0
M  V30 4046 O 357.512 1.28728 -2.39043 0
M  V30 4047 C 355.968 -1.08082 -3.43287 0
M  V30 4048 C 355.576 -2.57386 -3.66683 0
M  V30 4049 C 357.32 -0.814288 -4.16617 0
M  V30 4050 C 355.227 -2.95915 -5.12043 0
M  V30 4051 H 354.157 -0.232898 -0.717129 0
M  V30 4052 H 356.808 -1.17936 -1.40582 0
M  V30 4053 H 355.19 -0.462339 -3.93292 0
M  V30 4054 H 356.364 -3.24405 -3.27258 0
M  V30 4055 H 354.679 -2.81701 -3.06649 0
M  V30 4056 H 357.276 -1.0781 -5.23718 0
M  V30 4057 H 357.619 0.24955 -4.15551 0
M  V30 4058 H 358.152 -1.39397 -3.72577 0
M  V30 4059 H 354.891 -4.0139 -5.18234 0
M  V30 4060 H 354.411 -2.33584 -5.52448 0
M  V30 4061 H 356.09 -2.86086 -5.80314 0
M  V30 4062 N 356.222 1.38976 -0.743202 0
M  V30 4063 C 357.447 2.05161 -0.303936 0
M  V30 4064 C 357.872 1.55677 1.05576 0
M  V30 4065 O 357.23 0.704131 1.67068 0
M  V30 4066 C 357.278 3.59138 -0.324373 0
M  V30 4067 O 356.382 4.06668 0.685204 0
M  V30 4068 H 355.723 0.649815 -0.136518 0
M  V30 4069 H 358.253 1.77852 -1.01142 0
M  V30 4070 H 358.263 4.07639 -0.171618 0
M  V30 4071 H 356.938 3.94515 -1.31647 0
M  V30 4072 H 355.515 3.69561 0.497913 0
M  V30 4073 N 357.7 0.491464 1.49741 0
M  V30 4074 C 358.947 -0.0564256 2.02421 0
M  V30 4075 C 359.275 -1.37872 1.37192 0
M  V30 4076 O 358.53 -1.89375 0.493508 0
M  V30 4077 C 358.829 -0.267329 3.56399 0
M  V30 4078 C 358.495 0.975775 4.40215 0
M  V30 4079 C 357.157 1.31655 4.62839 0
M  V30 4080 C 359.509 1.80251 4.89039 0
M  V30 4081 C 356.837 2.48375 5.31532 0
M  V30 4082 C 359.189 2.96116 5.59015 0
M  V30 4083 C 357.853 3.30585 5.79888 0
M  V30 4084 H 357.123 -0.0206476 0.740712 0
M  V30 4085 H 359.77 0.649686 1.80143 0
M  V30 4086 H 358.075 -1.05588 3.77304 0
M  V30 4087 H 359.772 -0.705549 3.94744 0
M  V30 4088 H 356.362 0.700315 4.2284 0
M  V30 4089 H 360.546 1.55239 4.71396 0
M  V30 4090 H 355.802 2.7533 5.45897 0
M  V30 4091 H 359.976 3.60509 5.95824 0
M  V30 4092 H 357.603 4.21132 6.32892 0
M  V30 4093 N 359.178 -1.55987 0.224894 0
M  V30 4094 C 360.088 -2.24066 -0.69511 0
M  V30 4095 C 361.104 -1.24939 -1.21104 0
M  V30 4096 O 362.28 -1.5776 -1.25195 0
M  V30 4097 C 359.345 -2.90983 -1.88493 0
M  V30 4098 C 358.406 -4.05462 -1.41064 0
M  V30 4099 C 357.639 -4.69179 -2.54375 0
M  V30 4100 O 357.862 -4.31895 -3.72589 0
M  V30 4101 O 356.796 -5.58108 -2.25386 0
M  V30 4102 H 360.622 -3.03353 -0.145149 0
M  V30 4103 H 358.207 -1.49399 -0.00569476 0
M  V30 4104 H 360.089 -3.33209 -2.57972 0
M  V30 4105 H 358.764 -2.14653 -2.42293 0
M  V30 4106 H 357.671 -3.67798 -0.683774 0
M  V30 4107 H 359.004 -4.83545 -0.918985 0
M  V30 4108 N 360.656 0.0484629 -1.57525 0
M  V30 4109 C 361.586 1.0549 -2.08313 0
M  V30 4110 C 362.567 1.38929 -0.981463 0
M  V30 4111 O 363.752 1.48151 -1.25558 0
M  V30 4112 C 360.882 2.36162 -2.54646 0
M  V30 4113 C 359.836 2.17016 -3.68901 0
M  V30 4114 C 359.162 3.53278 -4.01371 0
M  V30 4115 C 360.462 1.57219 -4.98076 0
M  V30 4116 H 362.156 0.632195 -2.92649 0
M  V30 4117 H 359.702 0.302654 -1.40784 0
M  V30 4118 H 361.655 3.06882 -2.88793 0
M  V30 4119 H 360.379 2.80456 -1.67368 0
M  V30 4120 H 359.038 1.48733 -3.35073 0
M  V30 4121 H 358.686 3.95185 -3.11188 0
M  V30 4122 H 358.386 3.41299 -4.78318 0
M  V30 4123 H 359.91 4.25391 -4.38035 0
M  V30 4124 H 361.324 2.17832 -5.30304 0
M  V30 4125 H 359.721 1.55871 -5.79503 0
M  V30 4126 H 360.791 0.535956 -4.81929 0
M  V30 4127 N 362.134 1.5431 0.320358 0
M  V30 4128 C 363.064 1.86912 1.3995 0
M  V30 4129 C 364.045 0.726211 1.53819 0
M  V30 4130 O 365.23 0.980233 1.67646 0
M  V30 4131 C 362.36 2.09932 2.7667 0
M  V30 4132 C 361.314 3.25776 2.77586 0
M  V30 4133 C 360.64 3.34173 4.17412 0
M  V30 4134 C 361.94 4.6335 2.41048 0
M  V30 4135 H 363.634 2.77292 1.12914 0
M  V30 4136 H 361.18 1.33421 0.541738 0
M  V30 4137 H 363.133 2.31324 3.52232 0
M  V30 4138 H 361.857 1.16304 3.0519 0
M  V30 4139 H 360.516 3.04276 2.04479 0
M  V30 4140 H 360.164 2.38098 4.43078 0
M  V30 4141 H 359.864 4.12033 4.18931 0
M  V30 4142 H 361.388 3.57803 4.94782 0
M  V30 4143 H 362.802 4.84602 3.06324 0
M  V30 4144 H 361.199 5.43782 2.53813 0
M  V30 4145 H 362.269 4.65381 1.36193 0
M  V30 4146 N 363.613 -0.582584 1.46437 0
M  V30 4147 C 364.861 -1.33814 1.51453 0
M  V30 4148 C 365.182 -1.94277 0.167792 0
M  V30 4149 O 364.452 -1.78566 -0.805677 0
M  V30 4150 H 363.032 -0.496838 0.557818 0
M  V30 4151 H 365.694 -0.682281 1.82568 0
M  V30 4152 H 364.79 -2.14479 2.26728 0
M  V30 4153 N 365.091 -1.34144 -0.827227 0
M  V30 4154 C 366.021 -1.28005 -1.95287 0
M  V30 4155 C 367.002 -0.158321 -1.69362 0
M  V30 4156 O 368.187 -0.349987 -1.9102 0
M  V30 4157 C 365.317 -1.03036 -3.31664 0
M  V30 4158 C 364.271 -2.11628 -3.72019 0
M  V30 4159 C 363.597 -1.71854 -5.0633 0
M  V30 4160 C 364.897 -3.53417 -3.8457 0
M  V30 4161 H 366.591 -2.22187 -2.00682 0
M  V30 4162 H 364.137 -1.0696 -0.964135 0
M  V30 4163 H 366.09 -0.973863 -4.09993 0
M  V30 4164 H 364.814 -0.0529391 -3.26557 0
M  V30 4165 H 363.473 -2.16339 -2.95961 0
M  V30 4166 H 363.121 -0.727841 -4.97706 0
M  V30 4167 H 362.821 -2.44531 -5.34302 0
M  V30 4168 H 364.345 -1.67692 -5.87122 0
M  V30 4169 H 365.759 -3.51142 -4.5318 0
M  V30 4170 H 364.156 -4.24679 -4.2399 0
M  V30 4171 H 365.226 -3.91072 -2.86689 0
M  V30 4172 N 366.569 1.04691 -1.17803 0
M  V30 4173 C 367.794 1.81984 -0.994813 0
M  V30 4174 C 368.219 1.82586 0.452112 0
M  V30 4175 O 367.577 1.23854 1.324 0
M  V30 4176 C 367.625 3.2575 -1.54659 0
M  V30 4177 O 366.729 4.05267 -0.763728 0
M  V30 4178 H 366.07 0.562483 -0.352857 0
M  V30 4179 H 368.6 1.3189 -1.56417 0
M  V30 4180 H 368.61 3.76541 -1.57102 0
M  V30 4181 H 367.285 3.24627 -2.59981 0
M  V30 4182 H 365.862 3.63972 -0.811108 0
M  V30 4183 N 368.047 0.979072 1.23499 0
M  V30 4184 C 369.275 0.665202 1.95915 0
M  V30 4185 C 369.69 -0.767571 1.72493 0
M  V30 4186 O 369.047 -1.51635 1.01554 0
M  V30 4187 C 369.098 0.944438 3.48945 0
M  V30 4188 O 368.819 2.3209 3.71572 0
M  V30 4189 C 370.32 0.646336 4.38563 0
M  V30 4190 H 367.54 0.247218 0.623798 0
M  V30 4191 H 370.084 1.31009 1.57025 0
M  V30 4192 H 368.239 0.345575 3.85856 0
M  V30 4193 H 368.653 2.40957 4.65876 0
M  V30 4194 H 370.127 0.892091 5.44744 0
M  V30 4195 H 370.604 -0.419575 4.37191 0
M  V30 4196 H 371.21 1.22562 4.07258 0
M  V30 4197 N 369.525 -1.3858 0.750561 0
M  V30 4198 C 370.772 -2.00184 0.305373 0
M  V30 4199 C 371.1 -1.59575 -1.11203 0
M  V30 4200 O 370.355 -0.823236 -1.77542 0
M  V30 4201 C 370.654 -3.55455 0.372373 0
M  V30 4202 C 370.32 -4.15765 1.745 0
M  V30 4203 C 368.982 -4.31951 2.12065 0
M  V30 4204 C 371.334 -4.49067 2.64553 0
M  V30 4205 C 368.662 -4.78734 3.39162 0
M  V30 4206 C 371.014 -4.97265 3.91038 0
M  V30 4207 C 369.678 -5.11658 4.28676 0
M  V30 4208 H 368.948 -0.732526 0.111744 0
M  V30 4209 H 371.595 -1.65673 0.960451 0
M  V30 4210 H 369.9 -3.90084 -0.366272 0
M  V30 4211 H 371.597 -4.00999 0.00953918 0
M  V30 4212 H 368.187 -4.03579 1.44297 0
M  V30 4213 H 372.371 -4.36166 2.36796 0
M  V30 4214 H 367.627 -4.88062 3.68246 0
M  V30 4215 H 371.801 -5.22003 4.60962 0
M  V30 4216 H 369.428 -5.47668 5.27222 0
M  V30 4217 N 371.003 -0.499398 -1.49478 0
M  V30 4218 C 372.28 0.108629 -1.95298 0
M  V30 4219 C 372.66 1.54282 -1.44084 0
M  V30 4220 O 372.008 2.18944 -0.653908 0
M  V30 4221 C 372.218 0.0229111 -3.48992 0
M  V30 4222 C 373.566 0.197643 -4.2414 0
M  V30 4223 O 374.59 0.0981735 -3.56065 0
M  V30 4224 O 373.449 0.401669 -5.45022 0
M  V30 4225 H 370.543 0.096181 -0.821388 0
M  V30 4226 H 373.089 -0.561822 -1.6013 0
M  V30 4227 H 371.861 -0.977321 -3.78899 0
M  V30 4228 H 371.484 0.733579 -3.90774 0
M  V30 4229 N 372.481 1.55866 -0.233164 0
M  V30 4230 C 373.728 1.98603 0.395374 0
M  V30 4231 C 374.056 1.12105 1.58942 0
M  V30 4232 O 373.311 0.168656 1.94972 0
M  V30 4233 C 373.61 3.46856 0.861724 0
M  V30 4234 C 373.276 4.50348 -0.223066 0
M  V30 4235 C 371.938 4.78371 -0.521038 0
M  V30 4236 C 374.29 5.12355 -0.956124 0
M  V30 4237 C 371.618 5.6568 -1.55638 0
M  V30 4238 C 373.97 6.00786 -1.98089 0
M  V30 4239 C 372.634 6.27148 -2.28565 0
M  V30 4240 H 371.904 0.726739 0.144677 0
M  V30 4241 H 374.551 1.88491 -0.338114 0
M  V30 4242 H 372.856 3.5423 1.67418 0
M  V30 4243 H 374.553 3.77302 1.35809 0
M  V30 4244 H 371.143 4.28596 0.0193234 0
M  V30 4245 H 375.327 4.90765 -0.739166 0
M  V30 4246 H 370.583 5.84365 -1.798 0
M  V30 4247 H 374.757 6.4788 -2.55391 0
M  V30 4248 H 372.384 6.94597 -3.08932 0
M  V30 4249 N 373.959 -0.0401083 1.57549 0
M  V30 4250 C 374.889 -1.04384 2.08869 0
M  V30 4251 C 375.87 -1.38407 0.988817 0
M  V30 4252 O 377.055 -1.47483 1.26342 0
M  V30 4253 C 374.185 -2.34808 2.55895 0
M  V30 4254 C 373.139 -2.15057 3.70047 0
M  V30 4255 C 372.465 -3.51145 4.03239 0
M  V30 4256 C 373.765 -1.54576 4.98902 0
M  V30 4257 H 375.459 -0.616666 2.92981 0
M  V30 4258 H 373.005 -0.295184 1.40942 0
M  V30 4259 H 374.958 -3.05346 2.90417 0
M  V30 4260 H 373.682 -2.79565 1.68853 0
M  V30 4261 H 372.341 -1.46954 3.35857 0
M  V30 4262 H 371.989 -3.93529 3.13279 0
M  V30 4263 H 371.689 -3.38758 4.80122 0
M  V30 4264 H 373.213 -4.23062 4.40285 0
M  V30 4265 H 374.627 -2.15017 5.31451 0
M  V30 4266 H 373.024 -1.52796 5.80322 0
M  V30 4267 H 374.094 -0.51039 4.82206 0
M  V30 4268 N 375.437 -1.54477 -0.31217 0
M  V30 4269 C 376.384 -1.84655 -1.38461 0
M  V30 4270 C 377.354 -0.694536 -1.50882 0
M  V30 4271 O 378.539 -0.942081 -1.6592 0
M  V30 4272 C 375.679 -2.0896 -2.74645 0
M  V30 4273 C 374.792 -3.36618 -2.70763 0
M  V30 4274 C 373.927 -3.50824 -3.98868 0
M  V30 4275 C 372.966 -4.72315 -3.89339 0
M  V30 4276 N 372.103 -4.83387 -5.09197 0
M  V30 4277 H 376.943 -2.76142 -1.12026 0
M  V30 4278 H 374.48 -1.36748 -0.542065 0
M  V30 4279 H 376.438 -2.21045 -3.53829 0
M  V30 4280 H 375.068 -1.20752 -2.99364 0
M  V30 4281 H 374.12 -3.33211 -1.83506 0
M  V30 4282 H 375.432 -4.25917 -2.59608 0
M  V30 4283 H 374.586 -3.62513 -4.86486 0
M  V30 4284 H 373.325 -2.59638 -4.12843 0
M  V30 4285 H 372.33 -4.6067 -3.00105 0
M  V30 4286 H 373.555 -5.64897 -3.76919 0
M  V30 4287 H 371.501 -3.9512 -5.23657 0
M  V30 4288 H 371.418 -5.66669 -5.00422 0
M  V30 4289 H 372.686 -4.9942 -5.98498 0
M  V30 4290 N 376.915 0.57481 -1.46744 0
M  V30 4291 C 378.192 1.3352 -1.4294 0
M  V30 4292 C 378.572 2.10775 -0.117009 0
M  V30 4293 O 377.92 2.09966 0.901474 0
M  V30 4294 C 378.13 2.25456 -2.66403 0
M  V30 4295 C 379.478 2.87035 -3.12883 0
M  V30 4296 O 380.502 2.35766 -2.67007 0
M  V30 4297 O 379.361 3.80179 -3.92589 0
M  V30 4298 H 376.455 0.600318 -0.568812 0
M  V30 4299 H 379.001 0.595171 -1.58921 0
M  V30 4300 H 377.773 1.67851 -3.53471 0
M  V30 4301 H 377.396 3.06785 -2.52921 0
M  V30 4302 N 378.394 1.34581 0.820102 0
M  V30 4303 C 379.342 1.26401 1.95258 0
M  V30 4304 C 380.336 0.161553 1.68628 0
M  V30 4305 O 381.542 0.326703 1.7701 0
M  V30 4306 H 377.917 0.392749 0.64129 0
M  V30 4307 H 379.888 2.22105 1.99279 0
M  V30 4308 C 378.637 1.03919 3.31807 0
M  V30 4309 H 377.96 1.87984 3.52848 0
M  V30 4310 H 379.4 1.02232 4.11491 0
M  V30 4311 C 377.859 -0.257433 3.35915 0
M  V30 4312 O 378.389 -1.25784 3.81499 0
M  V30 4313 N 376.595 -0.291524 2.89134 0
M  V30 4314 H 376.142 0.523161 2.52232 0
M  V30 4315 H 376.1 -1.15883 2.92264 0
M  V30 4316 N 379.872 -1.04064 1.18357 0
M  V30 4317 C 380.82 -2.14187 0.907007 0
M  V30 4318 C 381.814 -1.68879 -0.132725 0
M  V30 4319 O 383.02 -1.79993 0.0154248 0
M  V30 4320 H 379.395 -0.699585 0.275835 0
M  V30 4321 H 381.366 -2.34711 1.84264 0
M  V30 4322 C 380.115 -3.44785 0.449254 0
M  V30 4323 H 379.438 -3.80058 1.24081 0
M  V30 4324 H 380.878 -4.22974 0.294737 0
M  V30 4325 C 379.337 -3.26391 -0.834909 0
M  V30 4326 O 379.867 -3.53973 -1.89911 0
M  V30 4327 N 378.073 -2.79726 -0.787523 0
M  V30 4328 H 377.62 -2.5748 0.0787347 0
M  V30 4329 H 377.578 -2.67798 -1.64716 0
M  V30 4330 N 381.35 -0.985608 -1.22978 0
M  V30 4331 C 382.58 -0.674603 -1.95276 0
M  V30 4332 C 382.988 0.763483 -1.73111 0
M  V30 4333 O 382.331 1.52601 -1.02268 0
M  V30 4334 C 382.393 -0.891597 -3.48268 0
M  V30 4335 C 382.057 -2.31275 -3.94158 0
M  V30 4336 C 383.054 -3.29179 -4.02415 0
M  V30 4337 C 380.739 -2.64524 -4.27004 0
M  V30 4338 C 382.733 -4.58407 -4.42879 0
M  V30 4339 C 380.42 -3.93974 -4.67149 0
M  V30 4340 C 381.418 -4.90727 -4.75053 0
M  V30 4341 O 381.106 -6.17865 -5.14294 0
M  V30 4342 H 380.838 -0.249251 -0.628371 0
M  V30 4343 H 383.392 -1.32106 -1.5728 0
M  V30 4344 H 381.622 -0.187962 -3.86243 0
M  V30 4345 H 383.311 -0.576957 -4.01779 0
M  V30 4346 H 384.077 -3.04823 -3.77237 0
M  V30 4347 H 379.956 -1.89923 -4.2006 0
M  V30 4348 H 383.5 -5.33926 -4.48964 0
M  V30 4349 H 379.397 -4.18122 -4.91777 0
M  V30 4350 H 380.165 -6.21694 -5.32389 0
M  V30 4351 N 382.828 1.3818 -0.7579 0
M  V30 4352 C 383.758 2.33027 -0.148597 0
M  V30 4353 C 384.739 1.55085 0.69875 0
M  V30 4354 O 385.924 1.83384 0.639053 0
M  V30 4355 C 383.054 3.3928 0.742034 0
M  V30 4356 C 382.008 4.28 -0.00291946 0
M  V30 4357 C 381.334 5.25146 1.00625 0
M  V30 4358 C 382.634 5.08938 -1.17385 0
M  V30 4359 H 384.328 2.84231 -0.940909 0
M  V30 4360 H 381.874 1.36659 -0.453908 0
M  V30 4361 H 383.827 4.046 1.17799 0
M  V30 4362 H 382.551 2.86569 1.56671 0
M  V30 4363 H 381.21 3.64192 -0.419504 0
M  V30 4364 H 380.858 4.68721 1.8251 0
M  V30 4365 H 380.558 5.85361 0.512428 0
M  V30 4366 H 382.082 5.93342 1.44143 0
M  V30 4367 H 383.496 5.67474 -0.815224 0
M  V30 4368 H 381.893 5.7841 -1.59882 0
M  V30 4369 H 382.963 4.42424 -1.98468 0
M  V30 4370 N 384.306 0.507319 1.49211 0
M  V30 4371 C 385.717 0.0611118 1.866 0
M  V30 4372 C 386.068 -1.35488 1.41907 0
M  V30 4373 O 385.193 -2.0108 0.799726 0
M  V30 4374 C 385.788 0.104125 3.3864 0
M  V30 4375 C 384.347 -0.28677 3.75306 0
M  V30 4376 C 383.494 0.473893 2.73221 0
M  V30 4377 H 386.445 0.719775 1.41439 0
M  V30 4378 H 386.466 -0.689672 3.74198 0
M  V30 4379 H 385.978 1.13482 3.71138 0
M  V30 4380 H 384.079 -1.32046 3.48417 0
M  V30 4381 H 384.192 0.0370745 4.79086 0
M  V30 4382 H 382.556 -0.0770644 2.54583 0
M  V30 4383 H 383.339 1.50478 3.08563 0
M  V30 4384 N 385.784 -1.5574 0.241426 0
M  V30 4385 C 387.014 -2.02913 -0.38857 0
M  V30 4386 C 387.422 -1.12014 -1.52478 0
M  V30 4387 O 386.765 -0.125903 -1.83268 0
M  V30 4388 C 386.827 -3.4636 -0.963075 0
M  V30 4389 C 386.491 -4.56982 0.0401916 0
M  V30 4390 C 387.488 -5.12941 0.847766 0
M  V30 4391 C 385.173 -5.0203 0.164699 0
M  V30 4392 C 387.167 -6.12437 1.76636 0
M  V30 4393 C 384.854 -6.01358 1.0868 0
M  V30 4394 C 385.852 -6.5644 1.88616 0
M  V30 4395 O 385.54 -7.53831 2.79273 0
M  V30 4396 H 385.272 -0.668983 -0.0971452 0
M  V30 4397 H 387.826 -2.02198 0.361248 0
M  V30 4398 H 386.056 -3.44206 -1.76235 0
M  V30 4399 H 387.745 -3.77065 -1.50257 0
M  V30 4400 H 388.511 -4.78974 0.762133 0
M  V30 4401 H 384.39 -4.58824 -0.447411 0
M  V30 4402 H 387.934 -6.55355 2.39071 0
M  V30 4403 H 383.831 -6.34746 1.17338 0
M  V30 4404 H 384.599 -7.71428 2.73572 0
M  V30 4405 N 387.262 0.0317525 -1.57568 0
M  V30 4406 C 388.673 0.578692 -1.77505 0
M  V30 4407 C 389.024 1.75749 -0.872164 0
M  V30 4408 O 388.149 2.16298 -0.0663106 0
M  V30 4409 C 388.744 1.05658 -3.21904 0
M  V30 4410 C 387.303 1.54906 -3.43047 0
M  V30 4411 C 386.45 0.485939 -2.73009 0
M  V30 4412 H 389.401 -0.194475 -1.57504 0
M  V30 4413 H 389.422 1.92404 -3.28269 0
M  V30 4414 H 388.934 0.198422 -3.87592 0
M  V30 4415 H 387.035 2.42915 -2.82529 0
M  V30 4416 H 387.148 1.59841 -4.5165 0
M  V30 4417 H 385.512 0.940354 -2.36705 0
M  V30 4418 H 386.295 -0.362709 -3.41379 0
M  V30 4419 N 388.74 1.54641 0.303973 0
M  V30 4420 C 389.989 1.7299 1.03717 0
M  V30 4421 C 390.302 0.521168 1.88529 0
M  V30 4422 O 391.508 0.586408 2.65092 0
M  V30 4423 C 389.964 3.06051 1.89369 0
M  V30 4424 C 389.572 4.34393 1.09574 0
M  V30 4425 C 391.316 3.3376 2.62306 0
M  V30 4426 C 389.223 5.58506 1.94486 0
M  V30 4427 H 388.153 0.64473 0.390947 0
M  V30 4428 H 390.804 1.81124 0.294328 0
M  V30 4429 H 389.186 2.91874 2.67629 0
M  V30 4430 H 390.36 4.59396 0.359485 0
M  V30 4431 H 388.675 4.13597 0.482324 0
M  V30 4432 H 391.272 4.23687 3.26181 0
M  V30 4433 H 391.615 2.52503 3.3098 0
M  V30 4434 H 392.148 3.48894 1.91097 0
M  V30 4435 H 388.887 6.42422 1.30287 0
M  V30 4436 H 388.407 5.37694 2.65792 0
M  V30 4437 H 390.086 5.95651 2.52605 0
M  V30 4438 N 390.218 -0.567019 1.47046 0
M  V30 4439 C 391.168 -1.67018 1.55207 0
M  V30 4440 C 392.152 -1.55543 0.411714 0
M  V30 4441 O 393.344 -1.64192 0.661064 0
M  V30 4442 C 390.473 -3.05801 1.56014 0
M  V30 4443 C 389.559 -3.22515 2.75399 0
M  V30 4444 N 389.95 -3.09329 4.00186 0
M  V30 4445 C 388.248 -3.53493 2.71954 0
M  V30 4446 C 388.949 -3.2847 4.80086 0
M  V30 4447 N 387.925 -3.54352 4.12233 0
M  V30 4448 H 391.727 -1.55377 2.4947 0
M  V30 4449 H 389.241 -0.771503 1.42904 0
M  V30 4450 H 391.238 -3.84996 1.59949 0
M  V30 4451 H 389.898 -3.18561 0.628396 0
M  V30 4452 H 390.909 -2.86863 4.31196 0
M  V30 4453 H 387.586 -3.7284 1.87873 0
M  V30 4454 H 388.976 -3.23326 5.88991 0
M  V30 4455 N 391.696 -1.35014 -0.812953 0
M  V30 4456 C 392.628 -1.23262 -1.93233 0
M  V30 4457 C 393.641 -0.157371 -1.62038 0
M  V30 4458 O 394.83 -0.410096 -1.73725 0
M  V30 4459 C 391.93 -0.87392 -3.27438 0
M  V30 4460 C 391.103 -2.04622 -3.86586 0
M  V30 4461 C 390.162 -1.66432 -4.99186 0
M  V30 4462 O 389.188 -2.38222 -5.16951 0
M  V30 4463 N 390.39 -0.584248 -5.77552 0
M  V30 4464 H 393.155 -2.19699 -2.03844 0
M  V30 4465 H 390.716 -1.281 -0.99005 0
M  V30 4466 H 392.708 -0.600039 -4.00227 0
M  V30 4467 H 391.278 0.00057392 -3.126 0
M  V30 4468 H 390.498 -2.48427 -3.06068 0
M  V30 4469 H 391.786 -2.82999 -4.22835 0
M  V30 4470 H 391.184 0.0123526 -5.65699 0
M  V30 4471 H 389.741 -0.37013 -6.50748 0
M  V30 4472 N 393.175 1.03435 -1.18907 0
M  V30 4473 C 394.421 1.77005 -0.989798 0
M  V30 4474 C 394.754 1.88205 0.478816 0
M  V30 4475 O 394.029 1.39481 1.35556 0
M  V30 4476 C 394.312 3.19925 -1.65287 0
M  V30 4477 C 394.165 3.1663 -3.19477 0
M  V30 4478 C 395.484 4.18189 -1.37134 0
M  V30 4479 H 392.603 0.642538 -0.360991 0
M  V30 4480 H 395.245 1.20784 -1.46667 0
M  V30 4481 H 393.395 3.67929 -1.24741 0
M  V30 4482 H 395.067 2.76567 -3.692 0
M  V30 4483 H 393.31 2.54491 -3.51307 0
M  V30 4484 H 393.981 4.1758 -3.61013 0
M  V30 4485 H 396.457 3.78761 -1.72276 0
M  V30 4486 H 395.333 5.16394 -1.86087 0
M  V30 4487 H 395.594 4.41112 -0.295424 0
M  V30 4488 N 394.653 0.992116 1.22453 0
M  V30 4489 C 396.069 0.702713 1.43297 0
M  V30 4490 C 396.269 -0.726909 1.87932 0
M  V30 4491 O 395.325 -1.49792 2.0327 0
M  V30 4492 C 396.638 1.70762 2.47509 0
M  V30 4493 C 398.186 1.72298 2.61309 0
M  V30 4494 C 398.661 2.71649 3.68742 0
M  V30 4495 N 400.152 2.70239 3.76199 0
M  V30 4496 C 400.887 3.43778 4.58917 0
M  V30 4497 N 400.383 4.26914 5.45633 0
M  V30 4498 N 402.176 3.32487 4.5322 0
M  V30 4499 H 394.327 1.91543 0.917871 0
M  V30 4500 H 396.59 0.826031 0.465162 0
M  V30 4501 H 396.296 2.73059 2.21657 0
M  V30 4502 H 396.17 1.49985 3.46099 0
M  V30 4503 H 398.557 0.706989 2.86506 0
M  V30 4504 H 398.638 1.97143 1.62997 0
M  V30 4505 H 398.282 3.73397 3.44292 0
M  V30 4506 H 398.212 2.44074 4.66622 0
M  V30 4507 H 400.703 2.09912 3.14237 0
M  V30 4508 H 401.016 4.79855 6.05771 0
M  V30 4509 H 399.361 4.31002 5.45218 0
M  V30 4510 H 402.552 2.6698 3.84499 0
M  V30 4511 H 402.725 3.90058 5.17454 0
M  V30 4512 N 396.131 -1.37776 0.765217 0
M  V30 4513 C 397.081 -2.2768 0.12075 0
M  V30 4514 C 398.065 -1.45778 -0.680988 0
M  V30 4515 O 399.257 -1.684 -0.545033 0
M  V30 4516 C 396.386 -3.34722 -0.762626 0
M  V30 4517 C 395.472 -4.24074 0.0465881 0
M  V30 4518 N 395.863 -4.93939 1.08892 0
M  V30 4519 C 394.161 -4.45643 -0.178418 0
M  V30 4520 C 394.862 -5.59845 1.57951 0
M  V30 4521 N 393.838 -5.36218 0.892797 0
M  V30 4522 H 397.64 -2.79166 0.918889 0
M  V30 4523 H 395.154 -1.50816 0.602353 0
M  V30 4524 H 397.151 -3.98031 -1.24005 0
M  V30 4525 H 395.811 -2.84793 -1.55959 0
M  V30 4526 H 396.822 -4.96572 1.47095 0
M  V30 4527 H 393.499 -4.06599 -0.9478 0
M  V30 4528 H 394.889 -6.25703 2.44838 0
M  V30 4529 N 397.609 -0.515225 -1.4894 0
M  V30 4530 C 398.542 0.302518 -2.26186 0
M  V30 4531 C 399.52 0.957895 -1.31389 0
M  V30 4532 O 400.704 0.985198 -1.60705 0
M  V30 4533 C 397.831 1.42719 -3.07163 0
M  V30 4534 C 396.877 0.884736 -4.17223 0
M  V30 4535 S 397.71 -0.235767 -5.34981 0
M  V30 4536 C 398.866 0.891731 -6.19515 0
M  V30 4537 H 399.099 -0.353076 -2.95196 0
M  V30 4538 H 396.632 -0.300753 -1.51443 0
M  V30 4539 H 398.59 2.07152 -3.54398 0
M  V30 4540 H 397.251 2.05445 -2.37595 0
M  V30 4541 H 396.444 1.72801 -4.73451 0
M  V30 4542 H 396.046 0.317362 -3.72651 0
M  V30 4543 H 398.338 1.79377 -6.53322 0
M  V30 4544 H 399.281 0.367751 -7.07144 0
M  V30 4545 H 399.689 1.16548 -5.52338 0
M  V30 4546 N 399.087 1.5561 -0.249682 0
M  V30 4547 C 400.05 2.20217 0.635394 0
M  V30 4548 C 401.05 1.17227 1.10066 0
M  V30 4549 O 402.24 1.42292 1.00492 0
M  V30 4550 C 399.372 2.84794 1.87363 0
M  V30 4551 H 400.565 2.99814 0.0716752 0
M  V30 4552 H 398.118 1.563 -0.000153234 0
M  V30 4553 H 398.853 2.09142 2.47851 0
M  V30 4554 H 398.638 3.60241 1.5482 0
M  V30 4555 H 400.128 3.3423 2.5036 0
M  V30 4556 N 400.565 -0.0233959 1.57583 0
M  V30 4557 C 401.812 -0.713063 1.8953 0
M  V30 4558 C 402.14 -1.75056 0.847673 0
M  V30 4559 O 401.395 -1.95119 -0.150636 0
M  V30 4560 C 401.694 -1.41428 3.28227 0
M  V30 4561 C 401.36 -0.512222 4.47981 0
M  V30 4562 C 400.022 -0.263785 4.80476 0
M  V30 4563 C 402.374 0.110248 5.21083 0
M  V30 4564 C 399.702 0.615804 5.83459 0
M  V30 4565 C 402.054 0.977573 6.25001 0
M  V30 4566 C 400.718 1.23542 6.55968 0
M  V30 4567 H 399.988 -0.260928 0.69354 0
M  V30 4568 H 402.635 0.0271047 1.91481 0
M  V30 4569 H 400.94 -2.22791 3.22291 0
M  V30 4570 H 402.637 -1.95355 3.50196 0
M  V30 4571 H 399.227 -0.716013 4.22577 0
M  V30 4572 H 403.411 -0.0687137 4.96252 0
M  V30 4573 H 398.667 0.82382 6.05824 0
M  V30 4574 H 402.841 1.46638 6.80786 0
M  V30 4575 H 400.468 1.91871 7.35588 0
M  V30 4576 N 402.043 -1.548 -0.295768 0
M  V30 4577 C 402.975 -1.82492 -1.3867 0
M  V30 4578 C 403.988 -0.708134 -1.46592 0
M  V30 4579 O 405.177 -0.985686 -1.48817 0
M  V30 4580 C 402.277 -1.95256 -2.76999 0
M  V30 4581 C 401.45 -3.25709 -2.91946 0
M  V30 4582 C 400.509 -3.28824 -4.10806 0
M  V30 4583 O 399.535 -4.02328 -4.02643 0
M  V30 4584 N 400.737 -2.5459 -5.21694 0
M  V30 4585 H 403.502 -2.76646 -1.15269 0
M  V30 4586 H 401.063 -1.54438 -0.485849 0
M  V30 4587 H 403.055 -1.94736 -3.54768 0
M  V30 4588 H 401.625 -1.08072 -2.93324 0
M  V30 4589 H 400.845 -3.38959 -2.01247 0
M  V30 4590 H 402.133 -4.11786 -2.98847 0
M  V30 4591 H 401.531 -1.94512 -5.31208 0
M  V30 4592 H 400.088 -2.59818 -5.97778 0
M  V30 4593 N 403.521 0.559213 -1.47345 0
M  V30 4594 C 404.451 1.67622 -1.62558 0
M  V30 4595 C 405.432 1.63331 -0.475087 0
M  V30 4596 O 406.617 1.80983 -0.704182 0
M  V30 4597 C 403.747 3.0626 -1.63774 0
M  V30 4598 C 402.701 3.25397 -2.7803 0
M  V30 4599 C 402.027 4.64801 -2.64318 0
M  V30 4600 C 403.327 3.10965 -4.19641 0
M  V30 4601 H 405.021 1.55146 -2.56067 0
M  V30 4602 H 402.567 0.744961 -1.23233 0
M  V30 4603 H 404.52 3.84247 -1.73008 0
M  V30 4604 H 403.244 3.1969 -0.66825 0
M  V30 4605 H 401.903 2.49817 -2.68304 0
M  V30 4606 H 401.551 4.75028 -1.65401 0
M  V30 4607 H 401.251 4.78555 -3.40968 0
M  V30 4608 H 402.775 5.44926 -2.75478 0
M  V30 4609 H 404.189 3.78772 -4.30354 0
M  V30 4610 H 402.586 3.36229 -4.97062 0
M  V30 4611 H 403.656 2.07736 -4.38148 0
M  V30 4612 N 404.999 1.35443 0.805782 0
M  V30 4613 C 406.239 1.30127 1.57627 0
M  V30 4614 C 406.603 -0.122567 1.91608 0
M  V30 4615 O 407.804 -0.300107 2.67119 0
M  V30 4616 C 406.075 2.18314 2.82973 0
M  V30 4617 S 407.634 2.30521 3.7337 0
M  V30 4618 H 404.452 0.462439 0.540066 0
M  V30 4619 H 407.054 1.70843 0.95042 0
M  V30 4620 H 405.758 3.20741 2.56034 0
M  V30 4621 H 405.289 1.78558 3.50543 0
M  V30 4622 H 407.304 1.49062 4.73281 0
M  V30 4623 N 406.477 -1.02803 1.19454 0
M  V30 4624 C 407.409 -2.11181 0.890807 0
M  V30 4625 C 408.422 -1.6238 -0.116829 0
M  V30 4626 O 409.611 -1.78144 0.112694 0
M  V30 4627 C 406.711 -3.37461 0.311942 0
M  V30 4628 C 405.884 -4.15446 1.36834 0
M  V30 4629 C 404.943 -5.20039 0.802864 0
M  V30 4630 O 403.969 -5.49602 1.48077 0
M  V30 4631 N 405.171 -5.79165 -0.393417 0
M  V30 4632 H 407.936 -2.37827 1.82369 0
M  V30 4633 H 405.497 -1.19101 1.09666 0
M  V30 4634 H 407.489 -4.0462 -0.0802225 0
M  V30 4635 H 406.059 -3.08156 -0.52524 0
M  V30 4636 H 405.279 -3.43423 1.93531 0
M  V30 4637 H 406.567 -4.64335 2.08015 0
M  V30 4638 H 405.965 -5.57466 -0.961658 0
M  V30 4639 H 404.522 -6.47729 -0.727351 0
M  V30 4640 N 407.956 -0.998596 -1.21925 0
M  V30 4641 C 408.919 -0.558679 -2.22287 0
M  V30 4642 C 409.919 0.361525 -1.56683 0
M  V30 4643 O 411.109 0.152695 -1.73529 0
M  V30 4644 C 408.241 0.18661 -3.40389 0
M  V30 4645 H 409.434 -1.4463 -2.62721 0
M  V30 4646 H 406.987 -0.786413 -1.35075 0
M  V30 4647 H 407.722 1.08996 -3.05435 0
M  V30 4648 H 407.507 -0.474188 -3.89222 0
M  V30 4649 H 408.997 0.482367 -4.14805 0
M  V30 4650 N 409.434 1.37368 -0.772513 0
M  V30 4651 C 410.68 1.99969 -0.337681 0
M  V30 4652 C 411.013 1.61184 1.08321 0
M  V30 4653 O 410.288 0.858395 1.74533 0
M  V30 4654 C 410.571 3.56858 -0.482121 0
M  V30 4655 C 410.424 4.0555 -1.94549 0
M  V30 4656 C 411.743 4.39955 0.113143 0
M  V30 4657 H 408.862 0.726464 -0.124171 0
M  V30 4658 H 411.504 1.63034 -0.975699 0
M  V30 4659 H 409.654 3.88452 0.0610361 0
M  V30 4660 H 411.326 3.84518 -2.54841 0
M  V30 4661 H 409.569 3.57715 -2.45403 0
M  V30 4662 H 410.24 5.14587 -1.9976 0
M  V30 4663 H 412.716 4.14623 -0.35031 0
M  V30 4664 H 411.592 5.48897 -0.0180514 0
M  V30 4665 H 411.853 4.25403 1.20354 0
M  V30 4666 N 410.912 0.523116 1.48665 0
M  V30 4667 C 411.859 -0.243398 2.29513 0
M  V30 4668 C 412.829 -0.940139 1.36933 0
M  V30 4669 O 414.014 -0.942503 1.65896 0
M  V30 4670 C 411.154 -1.28855 3.20141 0
M  V30 4671 C 410.267 -0.60135 4.27794 0
M  V30 4672 C 409.402 -1.62884 5.05611 0
M  V30 4673 C 408.441 -0.924726 6.05075 0
M  V30 4674 N 407.578 -1.89744 6.75975 0
M  V30 4675 H 412.418 0.452234 2.94549 0
M  V30 4676 H 409.955 0.234858 1.45213 0
M  V30 4677 H 411.913 -1.90674 3.71079 0
M  V30 4678 H 410.543 -1.95266 2.57043 0
M  V30 4679 H 409.595 0.130623 3.80176 0
M  V30 4680 H 410.907 -0.0481585 4.98777 0
M  V30 4681 H 410.061 -2.32149 5.60528 0
M  V30 4682 H 408.8 -2.21592 4.34452 0
M  V30 4683 H 407.805 -0.217966 5.49368 0
M  V30 4684 H 409.03 -0.343851 6.78229 0
M  V30 4685 H 406.976 -2.47373 6.07571 0
M  V30 4686 H 406.893 -1.3955 7.43009 0
M  V30 4687 H 408.161 -2.58229 7.35485 0
M  V30 4688 N 412.39 -1.55475 0.257931 0
M  V30 4689 C 413.637 -1.99207 -0.363728 0
M  V30 4690 C 413.965 -1.1462 -1.57139 0
M  V30 4691 O 413.22 -0.199653 -1.94679 0
M  V30 4692 C 413.519 -3.48183 -0.806433 0
M  V30 4693 C 413.185 -4.49936 0.294684 0
M  V30 4694 C 411.847 -4.77481 0.597076 0
M  V30 4695 C 414.199 -5.10769 1.03751 0
M  V30 4696 C 411.527 -5.63132 1.64618 0
M  V30 4697 C 413.879 -5.97558 2.07622 0
M  V30 4698 C 412.543 -6.23432 2.38514 0
M  V30 4699 H 411.813 -0.728949 -0.133097 0
M  V30 4700 H 414.46 -1.8793 0.368059 0
M  V30 4701 H 412.765 -3.56848 -1.61761 0
M  V30 4702 H 414.462 -3.79415 -1.29789 0
M  V30 4703 H 411.052 -4.28572 0.0488649 0
M  V30 4704 H 415.236 -4.89527 0.817149 0
M  V30 4705 H 410.492 -5.8143 1.89074 0
M  V30 4706 H 414.666 -6.43735 2.65666 0
M  V30 4707 H 412.293 -6.89594 3.19943 0
M  V30 4708 N 413.868 0.0150385 -1.57593 0
M  V30 4709 C 414.798 1.01047 -2.10503 0
M  V30 4710 C 415.779 1.36816 -1.01071 0
M  V30 4711 O 416.964 1.45455 -1.28672 0
M  V30 4712 C 414.094 2.30708 -2.59598 0
M  V30 4713 C 413.048 2.09142 -3.73421 0
M  V30 4714 C 412.374 3.44685 -4.08774 0
M  V30 4715 C 413.674 1.46619 -5.01298 0
M  V30 4716 H 415.368 0.569978 -2.93925 0
M  V30 4717 H 412.914 0.272724 -1.41394 0
M  V30 4718 H 414.867 3.00687 -2.95238 0
M  V30 4719 H 413.591 2.76843 -1.73279 0
M  V30 4720 H 412.25 1.41592 -3.38153 0
M  V30 4721 H 411.898 3.88495 -3.195 0
M  V30 4722 H 411.598 3.31077 -4.8545 0
M  V30 4723 H 413.122 4.16004 -4.4696 0
M  V30 4724 H 414.536 2.06535 -5.34805 0
M  V30 4725 H 412.933 1.43544 -5.82679 0
M  V30 4726 H 414.003 0.433611 -4.82957 0
M  V30 4727 N 415.346 1.54954 0.287554 0
M  V30 4728 C 416.296 1.8322 1.357 0
M  V30 4729 C 417.28 0.690152 1.45347 0
M  V30 4730 O 418.472 0.951137 1.49273 0
M  V30 4731 C 415.601 2.09481 2.71979 0
M  V30 4732 C 414.687 3.29906 2.66502 0
M  V30 4733 N 415.078 4.50154 2.30641 0
M  V30 4734 C 413.376 3.32203 2.97585 0
M  V30 4735 C 414.077 5.32209 2.34794 0
M  V30 4736 N 413.053 4.70258 2.72688 0
M  V30 4737 H 416.855 2.73746 1.0696 0
M  V30 4738 H 414.369 1.54635 0.496167 0
M  V30 4739 H 416.366 2.27882 3.49107 0
M  V30 4740 H 415.026 1.2023 3.0162 0
M  V30 4741 H 416.037 4.76515 2.02865 0
M  V30 4742 H 412.714 2.53101 3.32034 0
M  V30 4743 H 414.104 6.38321 2.09753 0
M  V30 4744 N 416.824 -0.551391 1.4764 0
M  V30 4745 C 418.101 -1.31229 1.45046 0
M  V30 4746 C 418.481 -2.10563 0.150527 0
M  V30 4747 O 417.829 -2.11374 -0.867956 0
M  V30 4748 C 418.039 -2.21189 2.69956 0
M  V30 4749 C 419.387 -2.82021 3.1741 0
M  V30 4750 O 420.411 -2.31488 2.70724 0
M  V30 4751 O 419.27 -3.73885 3.98588 0
M  V30 4752 H 416.364 -0.591193 0.578291 0
M  V30 4753 H 418.91 -0.569813 1.59847 0
M  V30 4754 H 417.682 -1.62207 3.56096 0
M  V30 4755 H 417.305 -3.02722 2.57769 0
M  V30 4756 N 418.302 -1.35869 -0.798587 0
M  V30 4757 C 419.25 -1.29491 -1.93222 0
M  V30 4758 C 420.244 -0.18836 -1.6835 0
M  V30 4759 O 421.45 -0.354822 -1.76468 0
M  V30 4760 H 417.825 -0.402901 -0.63496 0
M  V30 4761 H 419.796 -2.25247 -1.9572 0
M  V30 4762 C 418.545 -1.09184 -3.30112 0
M  V30 4763 H 417.868 -1.93574 -3.49813 0
M  V30 4764 H 419.308 -1.08766 -4.09812 0
M  V30 4765 C 417.767 0.203959 -3.36282 0
M  V30 4766 O 418.297 1.19699 -3.83451 0
M  V30 4767 N 416.503 0.245488 -2.89561 0
M  V30 4768 H 416.05 -0.563223 -2.51367 0
M  V30 4769 H 416.008 1.11219 -2.94071 0
M  V30 4770 N 419.78 1.02168 -1.19998 0
M  V30 4771 C 420.727 2.10601 -0.944228 0
M  V30 4772 C 421.697 1.65639 0.123664 0
M  V30 4773 O 422.882 1.9079 -0.0199941 0
M  V30 4774 C 420.022 3.41504 -0.496865 0
M  V30 4775 C 419.135 3.99973 -1.63234 0
M  V30 4776 C 418.27 5.18915 -1.13579 0
M  V30 4777 C 417.309 5.69456 -2.24468 0
M  V30 4778 N 416.446 6.79665 -1.76068 0
M  V30 4779 H 421.286 2.31814 -1.8726 0
M  V30 4780 H 418.823 1.13686 -0.933483 0
M  V30 4781 H 420.781 4.16626 -0.218843 0
M  V30 4782 H 419.411 3.2038 0.394508 0
M  V30 4783 H 418.463 3.21997 -2.0254 0
M  V30 4784 H 419.775 4.33492 -2.46752 0
M  V30 4785 H 418.929 6.01222 -0.813429 0
M  V30 4786 H 417.668 4.8695 -0.270434 0
M  V30 4787 H 416.673 4.85757 -2.57526 0
M  V30 4788 H 417.898 6.03459 -3.11472 0
M  V30 4789 H 415.844 6.49538 -0.918516 0
M  V30 4790 H 415.761 7.12349 -2.5317 0
M  V30 4791 H 417.029 7.65549 -1.46817 0
M  V30 4792 N 421.258 1.00505 1.21394 0
M  V30 4793 C 422.188 0.585684 2.26035 0
M  V30 4794 C 423.169 -0.393525 1.65485 0
M  V30 4795 O 424.354 -0.281497 1.92149 0
M  V30 4796 C 421.484 -0.0884283 3.47187 0
M  V30 4797 C 420.438 0.810567 4.20254 0
M  V30 4798 C 419.764 0.00286382 5.347 0
M  V30 4799 C 421.064 2.1132 4.77641 0
M  V30 4800 H 422.758 1.46039 2.61368 0
M  V30 4801 H 420.304 0.703648 1.25638 0
M  V30 4802 H 422.257 -0.393286 4.19561 0
M  V30 4803 H 420.981 -0.997766 3.10986 0
M  V30 4804 H 419.64 1.09925 3.49731 0
M  V30 4805 H 419.288 -0.907765 4.94741 0
M  V30 4806 H 418.988 0.601444 5.84514 0
M  V30 4807 H 420.512 -0.295808 6.09883 0
M  V30 4808 H 421.926 1.87148 5.41893 0
M  V30 4809 H 420.323 2.66164 5.37845 0
M  V30 4810 H 421.393 2.78393 3.9702 0
M  V30 4811 N 422.737 -1.36956 0.779787 0
M  V30 4812 C 423.965 -2.03755 0.359398 0
M  V30 4813 C 424.38 -1.58807 -1.02106 0
M  V30 4814 O 423.737 -0.773024 -1.6532 0
M  V30 4815 C 423.788 -3.59251 0.402568 0
M  V30 4816 O 423.509 -4.02557 1.72858 0
M  V30 4817 C 425.01 -4.43291 -0.0284068 0
M  V30 4818 H 422.23 -0.654148 0.149437 0
M  V30 4819 H 424.774 -1.75128 1.05595 0
M  V30 4820 H 422.929 -3.86621 -0.245478 0
M  V30 4821 H 423.343 -4.97111 1.67275 0
M  V30 4822 H 424.817 -5.51975 0.0529466 0
M  V30 4823 H 425.294 -4.25719 -1.07982 0
M  V30 4824 H 425.9 -4.21163 0.591758 0
M  V30 4825 N 424.215 -0.530993 -1.48385 0
M  V30 4826 C 425.165 0.251092 -2.26613 0
M  V30 4827 C 426.149 0.908977 -1.32765 0
M  V30 4828 O 427.341 0.811616 -1.57295 0
M  V30 4829 C 424.47 1.29677 -3.17866 0
M  V30 4830 C 423.556 0.643627 -4.19188 0
M  V30 4831 N 423.947 -0.271223 -5.05072 0
M  V30 4832 C 422.245 0.900711 -4.3681 0
M  V30 4833 C 422.946 -0.648109 -5.78078 0
M  V30 4834 N 421.922 -0.00895987 -5.43599 0
M  V30 4835 H 425.724 -0.452702 -2.90393 0
M  V30 4836 H 423.238 -0.349091 -1.58604 0
M  V30 4837 H 425.235 1.87079 -3.72568 0
M  V30 4838 H 423.895 2.00193 -2.55642 0
M  V30 4839 H 424.906 -0.643883 -5.13882 0
M  V30 4840 H 421.583 1.59636 -3.85775 0
M  V30 4841 H 422.973 -1.39833 -6.57188 0
M  V30 4842 N 425.693 1.55336 -0.266172 0
M  V30 4843 C 426.921 2.03801 0.356756 0
M  V30 4844 C 427.336 1.14485 1.50129 0
M  V30 4845 O 426.693 0.163121 1.8177 0
M  V30 4846 C 426.744 3.51455 0.846281 0
M  V30 4847 O 426.465 4.37371 -0.252663 0
M  V30 4848 C 427.966 4.15767 1.53794 0
M  V30 4849 H 425.186 0.665906 0.0825218 0
M  V30 4850 H 427.73 2.00636 -0.39566 0
M  V30 4851 H 425.885 3.55092 1.54881 0
M  V30 4852 H 426.299 5.24358 0.122173 0
M  V30 4853 H 427.773 5.20714 1.83198 0
M  V30 4854 H 428.25 3.63404 2.46646 0
M  V30 4855 H 428.856 4.16107 0.879488 0
M  V30 4856 N 427.171 -0.0066808 1.57599 0
M  V30 4857 C 428.448 -0.729586 1.81484 0
M  V30 4858 C 428.828 -1.92359 0.869558 0
M  V30 4859 O 428.176 -2.28348 -0.0832533 0
M  V30 4860 C 428.386 -1.1416 3.29801 0
M  V30 4861 C 429.734 -1.54823 3.95367 0
M  V30 4862 O 430.758 -1.23558 3.34084 0
M  V30 4863 O 429.617 -2.12937 5.03309 0
M  V30 4864 H 426.711 -0.354674 0.747085 0
M  V30 4865 H 429.257 0.0182609 1.6969 0
M  V30 4866 H 428.029 -0.290231 3.90222 0
M  V30 4867 H 427.652 -1.94876 3.46568 0
M  V30 4868 N 428.649 -1.55105 -0.279332 0
M  V30 4869 C 429.579 -1.90557 -1.34945 0
M  V30 4870 C 430.56 -0.766738 -1.51839 0
M  V30 4871 O 431.745 -1.02434 -1.64988 0
M  V30 4872 C 428.875 -2.17193 -2.71006 0
M  V30 4873 C 427.829 -3.33021 -2.68851 0
M  V30 4874 C 427.155 -3.45123 -4.08405 0
M  V30 4875 C 428.455 -4.69578 -2.28678 0
M  V30 4876 H 430.149 -2.80188 -1.05522 0
M  V30 4877 H 427.695 -1.34811 -0.506173 0
M  V30 4878 H 429.648 -2.40581 -3.45975 0
M  V30 4879 H 428.372 -1.24355 -3.01999 0
M  V30 4880 H 427.031 -3.0959 -1.9634 0
M  V30 4881 H 426.679 -2.49762 -4.3661 0
M  V30 4882 H 426.379 -4.22995 -4.07859 0
M  V30 4883 H 427.903 -3.70796 -4.85121 0
M  V30 4884 H 429.317 -4.92553 -2.93368 0
M  V30 4885 H 427.714 -5.5032 -2.39306 0
M  V30 4886 H 428.784 -4.68828 -1.23807 0
M  V30 4887 N 430.127 0.543554 -1.4793 0
M  V30 4888 C 431.074 1.64942 -1.6144 0
M  V30 4889 C 432.044 1.59692 -0.456903 0
M  V30 4890 O 433.229 1.78321 -0.678688 0
M  V30 4891 C 430.369 3.03238 -1.64744 0
M  V30 4892 C 429.482 3.18823 -2.91506 0
M  V30 4893 C 428.617 4.47599 -2.86057 0
M  V30 4894 C 427.656 4.56664 -4.07584 0
M  V30 4895 N 426.793 5.76811 -4.00292 0
M  V30 4896 H 431.633 1.52733 -2.55884 0
M  V30 4897 H 429.17 0.7438 -1.2691 0
M  V30 4898 H 431.128 3.83339 -1.64641 0
M  V30 4899 H 429.758 3.1425 -0.738017 0
M  V30 4900 H 428.81 2.32064 -3.01414 0
M  V30 4901 H 430.122 3.21384 -3.81463 0
M  V30 4902 H 429.276 5.35975 -2.84281 0
M  V30 4903 H 428.015 4.47538 -1.93807 0
M  V30 4904 H 427.02 3.66697 -4.09651 0
M  V30 4905 H 428.245 4.58474 -5.00978 0
M  V30 4906 H 426.191 5.77673 -3.10853 0
M  V30 4907 H 426.108 5.80808 -4.8394 0
M  V30 4908 H 427.376 6.67512 -4.02553 0
M  V30 4909 N 431.605 1.3629 0.791371 0
M  V30 4910 C 433.016 1.27225 1.36641 0
M  V30 4911 C 433.367 -0.0887968 1.95999 0
M  V30 4912 O 432.492 -0.990207 1.92416 0
M  V30 4913 C 433.087 2.30375 2.48421 0
M  V30 4914 C 431.646 2.25004 3.01746 0
M  V30 4915 C 430.793 2.15259 1.7481 0
M  V30 4916 H 433.744 1.47198 0.593173 0
M  V30 4917 H 433.765 1.93905 3.27385 0
M  V30 4918 H 433.277 3.29422 2.05189 0
M  V30 4919 H 431.378 1.29417 3.49403 0
M  V30 4920 H 431.491 3.1761 3.58693 0
M  V30 4921 H 429.855 1.61482 1.96966 0
M  V30 4922 H 430.638 3.16191 1.33709 0
M  V30 4923 N 433.083 -1.0153 1.20538 0
M  V30 4924 C 433.993 -2.13557 0.971113 0
M  V30 4925 C 435.009 -1.73845 -0.0734366 0
M  V30 4926 O 436.185 -2.01075 0.114299 0
M  V30 4927 C 433.25 -3.42661 0.527639 0
M  V30 4928 C 432.311 -3.96608 1.64319 0
M  V30 4929 C 431.544 -5.1955 1.22078 0
M  V30 4930 O 431.767 -5.70329 0.0900198 0
M  V30 4931 O 430.701 -5.66681 2.02871 0
M  V30 4932 H 434.527 -2.3619 1.90913 0
M  V30 4933 H 432.112 -1.11946 0.989362 0
M  V30 4934 H 433.994 -4.20404 0.289621 0
M  V30 4935 H 432.669 -3.21441 -0.381779 0
M  V30 4936 H 431.576 -3.20139 1.93551 0
M  V30 4937 H 432.909 -4.22219 2.52966 0
M  V30 4938 N 434.561 -1.01147 -1.20859 0
M  V30 4939 C 435.509 -0.57059 -2.25493 0
M  V30 4940 C 436.503 0.388109 -1.64894 0
M  V30 4941 O 437.709 0.258592 -1.78133 0
M  V30 4942 H 434.084 -0.166191 -0.733406 0
M  V30 4943 H 436.055 -1.46411 -2.60012 0
M  V30 4944 C 434.804 0.0805241 -3.47607 0
M  V30 4945 H 434.127 -0.648156 -3.94511 0
M  V30 4946 H 435.567 0.352197 -4.22535 0
M  V30 4947 C 434.026 1.32175 -3.09889 0
M  V30 4948 O 434.556 2.41553 -3.20959 0
M  V30 4949 N 432.762 1.20392 -2.64488 0
M  V30 4950 H 432.309 0.313905 -2.5568 0
M  V30 4951 H 432.267 2.03541 -2.39621 0
M  V30 4952 N 436.039 1.36541 -0.78704 0
M  V30 4953 C 437.288 1.98552 -0.35494 0
M  V30 4954 C 437.601 1.63171 1.07864 0
M  V30 4955 O 438.807 2.18399 1.61289 0
M  V30 4956 C 437.263 3.55136 -0.583671 0
M  V30 4957 C 436.871 3.99444 -2.02851 0
M  V30 4958 C 438.615 4.2395 -0.215957 0
M  V30 4959 C 436.522 5.48796 -2.20403 0
M  V30 4960 H 435.452 0.742888 -0.128972 0
M  V30 4961 H 438.103 1.5587 -0.968337 0
M  V30 4962 H 436.485 3.95875 0.0994046 0
M  V30 4963 H 437.659 3.6991 -2.74779 0
M  V30 4964 H 435.974 3.43459 -2.35425 0
M  V30 4965 H 438.571 5.33709 -0.325405 0
M  V30 4966 H 438.914 4.07827 0.835646 0
M  V30 4967 H 439.447 3.88565 -0.852175 0
M  V30 4968 H 436.186 5.69864 -3.23937 0
M  V30 4969 H 435.706 5.79964 -1.52977 0
M  V30 4970 H 437.385 6.14986 -2.01002 0
M  V30 4971 N 437.518 0.538854 1.48102 0
M  V30 4972 C 438.448 -0.207654 2.32575 0
M  V30 4973 C 439.429 -0.926559 1.4265 0
M  V30 4974 O 440.614 -0.91061 1.71527 0
M  V30 4975 C 437.744 -1.24957 3.24042 0
M  V30 4976 C 436.698 -0.648263 4.23062 0
M  V30 4977 C 436.024 -1.79348 5.03725 0
M  V30 4978 C 437.324 0.385897 5.20872 0
M  V30 4979 H 439.018 0.497534 2.95237 0
M  V30 4980 H 436.564 0.240715 1.41974 0
M  V30 4981 H 438.517 -1.77983 3.81969 0
M  V30 4982 H 437.241 -1.98446 2.59397 0
M  V30 4983 H 435.9 -0.139452 3.66335 0
M  V30 4984 H 435.548 -2.51696 4.35498 0
M  V30 4985 H 435.248 -1.39702 5.70751 0
M  V30 4986 H 436.772 -2.32735 5.64506 0
M  V30 4987 H 438.186 -0.057607 5.73271 0
M  V30 4988 H 436.583 0.700227 5.96001 0
M  V30 4989 H 437.653 1.28848 4.67468 0
M  V30 4990 N 438.996 -1.55193 0.274407 0
M  V30 4991 C 440.243 -1.99581 -0.342579 0
M  V30 4992 C 440.571 -1.1628 -1.55914 0
M  V30 4993 O 439.826 -0.22029 -1.94456 0
M  V30 4994 C 440.125 -3.49019 -0.769458 0
M  V30 4995 C 439.791 -4.49598 0.342389 0
M  V30 4996 C 438.453 -4.76821 0.647686 0
M  V30 4997 C 440.805 -5.0964 1.09163 0
M  V30 4998 C 438.133 -5.61354 1.70581 0
M  V30 4999 C 440.485 -5.95323 2.13948 0
M  V30 5000 C 439.149 -6.20867 2.45113 0
M  V30 5001 H 438.419 -0.730319 -0.125358 0
M  V30 5002 H 441.066 -1.87529 0.387971 0
M  V30 5003 H 439.371 -3.58544 -1.57967 0
M  V30 5004 H 441.068 -3.8077 -1.25757 0
M  V30 5005 H 437.658 -4.28496 0.094318 0
M  V30 5006 H 441.842 -4.88632 0.869024 0
M  V30 5007 H 437.098 -5.79392 1.9523 0
M  V30 5008 H 441.272 -6.40881 2.72478 0
M  V30 5009 H 438.899 -6.86162 3.27239 0
M  V30 5010 N 440.474 -0.00167713 -1.576 0
M  V30 5011 C 441.72 0.683832 -1.90923 0
M  V30 5012 C 442.053 1.7333 -0.875799 0
M  V30 5013 O 441.328 1.94215 0.10525 0
M  V30 5014 C 441.611 1.32543 -3.3482 0
M  V30 5015 C 441.464 0.287387 -4.48881 0
M  V30 5016 C 442.783 2.25114 -3.78169 0
M  V30 5017 H 439.902 0.247125 -0.694333 0
M  V30 5018 H 442.544 -0.0533149 -1.89925 0
M  V30 5019 H 440.694 1.95372 -3.35801 0
M  V30 5020 H 442.366 -0.341346 -4.60035 0
M  V30 5021 H 440.609 -0.39017 -4.32042 0
M  V30 5022 H 441.28 0.775393 -5.46527 0
M  V30 5023 H 443.756 1.723 -3.7875 0
M  V30 5024 H 442.632 2.66971 -4.79602 0
M  V30 5025 H 442.893 3.13092 -3.12131 0
M  V30 5026 N 441.952 1.55251 0.271103 0
M  V30 5027 C 442.9 1.89054 1.35504 0
M  V30 5028 C 443.894 0.767064 1.51038 0
M  V30 5029 O 445.1 0.951429 1.528 0
M  V30 5030 H 441.475 0.600072 0.45323 0
M  V30 5031 H 443.446 2.79598 1.04247 0
M  V30 5032 C 442.195 2.18068 2.70817 0
M  V30 5033 H 441.518 3.04005 2.59656 0
M  V30 5034 H 442.958 2.4564 3.45597 0
M  V30 5035 C 441.417 0.988901 3.2206 0
M  V30 5036 O 441.947 0.224501 4.01072 0
M  V30 5037 N 440.153 0.786085 2.79766 0
M  V30 5038 H 439.7 1.40937 2.15626 0
M  V30 5039 H 439.658 -0.00969349 3.14399 0
M  V30 5040 N 443.43 -0.535701 1.48216 0
M  V30 5041 C 444.655 -1.32149 1.59848 0
M  V30 5042 C 445.08 -1.86338 0.256842 0
M  V30 5043 O 444.438 -1.64107 -0.770632 0
M  V30 5044 C 444.486 -2.45224 2.64381 0
M  V30 5045 O 443.59 -3.48093 2.21144 0
M  V30 5046 H 442.931 -0.391634 0.536208 0
M  V30 5047 H 445.461 -0.645202 1.94161 0
M  V30 5048 H 445.471 -2.91491 2.85476 0
M  V30 5049 H 444.146 -2.05143 3.61786 0
M  V30 5050 H 442.723 -3.07984 2.10239 0
M  V30 5051 N 444.908 -1.36708 -0.784132 0
M  V30 5052 C 446.185 -1.21776 -1.53069 0
M  V30 5053 C 446.565 0.193876 -2.10208 0
M  V30 5054 O 445.913 1.20012 -1.94446 0
M  V30 5055 C 446.123 -2.30395 -2.62143 0
M  V30 5056 C 447.471 -2.67325 -3.29882 0
M  V30 5057 O 448.495 -2.29478 -2.7243 0
M  V30 5058 O 447.354 -3.32485 -4.33724 0
M  V30 5059 H 444.448 -0.474459 -0.677361 0
M  V30 5060 H 446.994 -1.48454 -0.82216 0
M  V30 5061 H 445.766 -3.2498 -2.17953 0
M  V30 5062 H 445.389 -2.05112 -3.40609 0
M  V30 5063 N 446.386 1.0089 -1.21074 0
M  V30 5064 C 447.616 1.77933 -1.04993 0
M  V30 5065 C 448.024 1.84847 0.403495 0
M  V30 5066 O 447.367 1.30606 1.29181 0
M  V30 5067 C 447.429 3.23541 -1.56722 0
M  V30 5068 C 447.093 3.40214 -3.05129 0
M  V30 5069 C 448.09 3.2881 -4.02716 0
M  V30 5070 C 445.775 3.65781 -3.44252 0
M  V30 5071 C 447.769 3.42732 -5.37414 0
M  V30 5072 C 445.456 3.79346 -4.79103 0
M  V30 5073 C 446.454 3.67827 -5.75493 0
M  V30 5074 O 446.142 3.80965 -7.07899 0
M  V30 5075 H 445.874 0.566157 -0.369381 0
M  V30 5076 H 448.428 1.27826 -1.60779 0
M  V30 5077 H 446.658 3.74766 -0.953285 0
M  V30 5078 H 448.347 3.82245 -1.36543 0
M  V30 5079 H 449.113 3.08986 -3.73835 0
M  V30 5080 H 444.992 3.73831 -2.69762 0
M  V30 5081 H 448.536 3.33658 -6.12632 0
M  V30 5082 H 444.433 3.98672 -5.07672 0
M  V30 5083 H 445.201 3.97937 -7.15254 0
M  V30 5084 N 447.864 1.01787 1.20321 0
M  V30 5085 C 448.774 0.598898 2.26827 0
M  V30 5086 C 449.79 -0.36418 1.70146 0
M  V30 5087 O 450.966 -0.224812 2.00141 0
M  V30 5088 C 448.031 -0.0549769 3.46656 0
M  V30 5089 C 447.092 0.954205 4.18561 0
M  V30 5090 C 446.325 0.331439 5.3267 0
M  V30 5091 O 446.548 -0.86851 5.63749 0
M  V30 5092 O 445.482 1.0488 5.92692 0
M  V30 5093 H 449.308 1.48562 2.64883 0
M  V30 5094 H 446.893 0.787434 1.26964 0
M  V30 5095 H 448.775 -0.420102 4.19301 0
M  V30 5096 H 447.45 -0.915876 3.10473 0
M  V30 5097 H 446.357 1.37072 3.48083 0
M  V30 5098 H 447.69 1.78511 4.58688 0
M  V30 5099 N 449.342 -1.36122 0.79427 0
M  V30 5100 C 450.272 -2.32551 0.210328 0
M  V30 5101 C 451.253 -1.56884 -0.657386 0
M  V30 5102 O 452.438 -1.85014 -0.590207 0
M  V30 5103 C 449.568 -3.41128 -0.651819 0
M  V30 5104 C 448.522 -4.27842 0.116395 0
M  V30 5105 C 447.848 -5.2763 -0.86666 0
M  V30 5106 C 449.148 -5.05647 1.30837 0
M  V30 5107 H 450.842 -2.81636 1.01594 0
M  V30 5108 H 448.388 -1.35407 0.489981 0
M  V30 5109 H 450.341 -4.07581 -1.07031 0
M  V30 5110 H 449.065 -2.90622 -1.49019 0
M  V30 5111 H 447.724 -3.62952 0.515915 0
M  V30 5112 H 447.372 -4.73395 -1.70019 0
M  V30 5113 H 447.072 -5.86514 -0.35705 0
M  V30 5114 H 448.596 -5.96955 -1.28361 0
M  V30 5115 H 450.01 -5.65113 0.965393 0
M  V30 5116 H 448.407 -5.73967 1.75161 0
M  V30 5117 H 449.477 -4.37006 2.10128 0
M  V30 5118 N 450.82 -0.546701 -1.47814 0
M  V30 5119 C 452.048 -0.0232857 -2.06887 0
M  V30 5120 C 452.463 1.26571 -1.4009 0
M  V30 5121 O 451.82 1.7569 -0.493906 0
M  V30 5122 C 451.871 0.186975 -3.61016 0
M  V30 5123 O 451.592 -1.05097 -4.25307 0
M  V30 5124 C 453.093 0.748872 -4.36929 0
M  V30 5125 H 450.313 -0.0410763 -0.669742 0
M  V30 5126 H 452.857 -0.757117 -1.89968 0
M  V30 5127 H 451.012 0.870903 -3.77484 0
M  V30 5128 H 451.426 -0.842121 -5.17695 0
M  V30 5129 H 452.9 0.845334 -5.45489 0
M  V30 5130 H 453.377 1.75772 -4.02493 0
M  V30 5131 H 453.983 0.100979 -4.2518 0
M  V30 5132 N 452.299 1.55045 -0.282633 0
M  V30 5133 C 453.529 2.03872 0.334635 0
M  V30 5134 C 453.937 1.16018 1.49454 0
M  V30 5135 O 453.28 0.174449 1.8287 0
M  V30 5136 C 453.342 3.48791 0.870905 0
M  V30 5137 C 453.006 4.56715 -0.161338 0
M  V30 5138 C 454.003 5.10513 -0.983466 0
M  V30 5139 C 451.688 5.01417 -0.297745 0
M  V30 5140 C 453.682 6.07538 -1.92811 0
M  V30 5141 C 451.369 5.98265 -1.24586 0
M  V30 5142 C 452.367 6.51208 -2.05954 0
M  V30 5143 O 452.055 7.46162 -2.99162 0
M  V30 5144 H 451.787 0.671324 0.0793742 0
M  V30 5145 H 454.341 2.01169 -0.41473 0
M  V30 5146 H 452.571 3.48758 1.67047 0
M  V30 5147 H 454.26 3.80916 1.40207 0
M  V30 5148 H 455.026 4.76785 -0.888856 0
M  V30 5149 H 450.905 4.59849 0.325604 0
M  V30 5150 H 454.449 6.48787 -2.56363 0
M  V30 5151 H 450.346 6.31412 -1.34126 0
M  V30 5152 H 451.114 7.63903 -2.93929 0
M  V30 5153 N 453.777 0.010035 1.57597 0
M  V30 5154 C 454.725 -0.996272 2.10184 0
M  V30 5155 C 455.719 -1.34942 1.02406 0
M  V30 5156 O 456.925 -1.33389 1.20861 0
M  V30 5157 H 453.3 -0.338982 0.671264 0
M  V30 5158 H 455.271 -0.527272 2.93705 0
M  V30 5159 C 454.02 -2.27599 2.62857 0
M  V30 5160 H 453.343 -2.01295 3.45428 0
M  V30 5161 H 454.783 -2.96265 3.0332 0
M  V30 5162 C 453.242 -2.99269 1.54725 0
M  V30 5163 O 453.772 -3.90644 0.93597 0
M  V30 5164 N 451.978 -2.61269 1.27228 0
M  V30 5165 H 451.525 -1.87043 1.77123 0
M  V30 5166 H 451.483 -3.09534 0.550999 0
M  V30 5167 N 455.255 -1.55392 -0.262866 0
M  V30 5168 C 456.185 -1.91978 -1.32917 0
M  V30 5169 C 457.166 -0.7828 -1.51017 0
M  V30 5170 O 458.351 -1.04178 -1.63892 0
M  V30 5171 C 455.481 -2.20055 -2.68687 0
M  V30 5172 C 454.435 -3.35854 -2.65304 0
M  V30 5173 C 453.761 -3.49435 -4.04721 0
M  V30 5174 C 455.061 -4.71977 -2.23685 0
M  V30 5175 H 456.755 -2.81292 -1.02544 0
M  V30 5176 H 454.301 -1.3534 -0.491846 0
M  V30 5177 H 456.254 -2.44237 -3.43404 0
M  V30 5178 H 454.978 -1.27551 -3.00663 0
M  V30 5179 H 453.637 -3.11655 -1.93045 0
M  V30 5180 H 453.285 -2.54379 -4.33936 0
M  V30 5181 H 452.985 -4.27297 -4.0335 0
M  V30 5182 H 454.509 -3.7592 -4.81161 0
M  V30 5183 H 455.923 -4.95637 -2.88127 0
M  V30 5184 H 454.32 -5.52828 -2.33456 0
M  V30 5185 H 455.39 -4.70115 -1.18827 0
M  V30 5186 N 456.733 0.527833 -1.48498 0
M  V30 5187 C 457.643 1.65907 -1.65867 0
M  V30 5188 C 458.659 1.6537 -0.541192 0
M  V30 5189 O 459.835 1.84282 -0.812534 0
M  V30 5190 C 456.9 3.02364 -1.69637 0
M  V30 5191 C 455.961 3.1374 -2.93028 0
M  V30 5192 C 455.194 4.43688 -2.96609 0
M  V30 5193 O 455.417 5.30913 -2.08538 0
M  V30 5194 O 454.351 4.59475 -3.88802 0
M  V30 5195 H 458.177 1.5419 -2.61647 0
M  V30 5196 H 455.762 0.701163 -1.31924 0
M  V30 5197 H 457.644 3.83515 -1.74625 0
M  V30 5198 H 456.319 3.14401 -0.770312 0
M  V30 5199 H 455.226 2.31877 -2.93571 0
M  V30 5200 H 456.559 3.06621 -3.85026 0
M  V30 5201 N 458.211 1.37122 0.776871 0
M  V30 5202 C 459.158 1.3247 1.88998 0
M  V30 5203 C 460.128 0.191143 1.64997 0
M  V30 5204 O 461.313 0.379683 1.86984 0
M  V30 5205 C 458.453 1.13241 3.25992 0
M  V30 5206 C 457.566 2.35782 3.61982 0
M  V30 5207 C 456.701 2.09465 4.88158 0
M  V30 5208 C 455.74 3.279 5.16864 0
M  V30 5209 N 454.877 3.01167 6.34226 0
M  V30 5210 H 459.717 2.27642 1.9231 0
M  V30 5211 H 457.254 1.13125 0.94027 0
M  V30 5212 H 459.212 1.00115 4.0501 0
M  V30 5213 H 457.842 0.217186 3.22069 0
M  V30 5214 H 456.894 2.59666 2.77989 0
M  V30 5215 H 458.206 3.24125 3.79137 0
M  V30 5216 H 457.36 1.93341 5.75069 0
M  V30 5217 H 456.099 1.18452 4.73097 0
M  V30 5218 H 455.104 3.44569 4.2843 0
M  V30 5219 H 456.329 4.19757 5.33836 0
M  V30 5220 H 454.275 2.12779 6.20533 0
M  V30 5221 H 454.192 3.83052 6.51772 0
M  V30 5222 H 455.46 2.88649 7.24087 0
M  V30 5223 N 459.689 -1.00246 1.21608 0
M  V30 5224 C 460.636 -2.09073 0.977613 0
M  V30 5225 C 461.606 -1.65815 -0.097297 0
M  V30 5226 O 462.791 -1.90734 0.0503445 0
M  V30 5227 C 459.931 -3.40671 0.551133 0
M  V30 5228 C 459.044 -3.97326 1.69576 0
M  V30 5229 C 458.179 -5.17043 1.2182 0
M  V30 5230 C 457.218 -5.65813 2.335 0
M  V30 5231 N 456.355 -6.76778 1.86859 0
M  V30 5232 H 461.195 -2.28806 1.90924 0
M  V30 5233 H 458.732 -1.12186 0.951452 0
M  V30 5234 H 460.69 -4.16225 0.285097 0
M  V30 5235 H 459.32 -3.20967 -0.343489 0
M  V30 5236 H 458.372 -3.18734 2.07637 0
M  V30 5237 H 459.684 -4.29511 2.53617 0
M  V30 5238 H 458.838 -5.99852 0.908975 0
M  V30 5239 H 457.577 -4.86458 0.347869 0
M  V30 5240 H 456.582 -4.81599 2.65222 0
M  V30 5241 H 457.807 -5.98427 3.21033 0
M  V30 5242 H 455.753 -6.47994 1.02174 0
M  V30 5243 H 455.67 -7.08231 2.64471 0
M  V30 5244 H 456.938 -7.63116 1.58978 0
M  V30 5245 N 461.167 -1.02423 -1.1978 0
M  V30 5246 C 462.583 -0.740459 -1.41384 0
M  V30 5247 C 462.783 0.676827 -1.89793 0
M  V30 5248 O 461.839 1.4435 -2.0717 0
M  V30 5249 C 463.152 -1.77264 -2.42895 0
M  V30 5250 C 464.7 -1.79165 -2.56649 0
M  V30 5251 C 465.175 -2.8133 -3.6141 0
M  V30 5252 N 466.666 -2.80118 -3.68901 0
M  V30 5253 C 467.401 -3.55824 -4.49641 0
M  V30 5254 N 466.897 -4.41231 -5.34123 0
M  V30 5255 N 468.69 -3.44387 -4.44246 0
M  V30 5256 H 460.841 -1.9391 -0.866764 0
M  V30 5257 H 463.104 -0.838074 -0.443098 0
M  V30 5258 H 462.81 -2.7884 -2.14339 0
M  V30 5259 H 462.684 -1.59108 -3.42001 0
M  V30 5260 H 465.071 -0.782702 -2.84531 0
M  V30 5261 H 465.152 -2.01396 -1.57713 0
M  V30 5262 H 464.796 -3.82394 -3.34271 0
M  V30 5263 H 464.726 -2.56359 -4.59986 0
M  V30 5264 H 467.217 -2.1817 -3.08562 0
M  V30 5265 H 467.53 -4.95747 -5.92836 0
M  V30 5266 H 465.875 -4.45306 -5.33599 0
M  V30 5267 H 469.066 -2.7708 -3.77285 0
M  V30 5268 H 469.239 -4.0364 -5.06931 0
M  V30 5269 N 462.645 1.35699 -0.801477 0
M  V30 5270 C 463.922 1.9324 -0.302937 0
M  V30 5271 C 464.302 1.73209 1.20672 0
M  V30 5272 O 463.65 1.09809 2.00385 0
M  V30 5273 C 463.86 3.41728 -0.708747 0
M  V30 5274 C 465.208 4.18868 -0.695328 0
M  V30 5275 O 466.232 3.5022 -0.649971 0
M  V30 5276 O 465.091 5.41342 -0.749081 0
M  V30 5277 H 462.185 0.82331 -0.0780367 0
M  V30 5278 H 464.731 1.44806 -0.884832 0
M  V30 5279 H 463.503 3.50015 -1.74944 0
M  V30 5280 H 463.126 3.97471 -0.101384 0
M  V30 5281 N 464.123 0.554532 1.47522 0
M  V30 5282 C 465.033 -0.197865 2.33764 0
M  V30 5283 C 466.049 -0.914576 1.48025 0
M  V30 5284 O 467.225 -0.884067 1.80959 0
M  V30 5285 C 464.29 -1.21628 3.24665 0
M  V30 5286 C 463.351 -0.507283 4.26292 0
M  V30 5287 C 462.584 -1.47718 5.1285 0
M  V30 5288 O 462.807 -2.7118 5.01814 0
M  V30 5289 O 461.741 -1.00313 5.93482 0
M  V30 5290 H 465.567 0.50949 2.99396 0
M  V30 5291 H 463.152 0.315176 1.46038 0
M  V30 5292 H 465.034 -1.80421 3.80823 0
M  V30 5293 H 463.709 -1.9056 2.61665 0
M  V30 5294 H 462.616 0.121778 3.73902 0
M  V30 5295 H 463.949 0.140544 4.91999 0
M  V30 5296 N 465.601 -1.54893 0.290851 0
M  V30 5297 C 467.017 -1.59476 -0.0628432 0
M  V30 5298 C 467.217 -1.30795 -1.5328 0
M  V30 5299 O 466.273 -1.07644 -2.28406 0
M  V30 5300 C 467.586 -2.98928 0.325962 0
M  V30 5301 C 469.134 -3.11799 0.273882 0
M  V30 5302 C 469.609 -4.53544 0.637359 0
M  V30 5303 N 471.1 -4.59433 0.589507 0
M  V30 5304 C 471.835 -5.67164 0.84335 0
M  V30 5305 N 471.331 -6.82975 1.16263 0
M  V30 5306 N 473.124 -5.56786 0.771091 0
M  V30 5307 H 465.275 -1.71798 1.24896 0
M  V30 5308 H 467.538 -0.801879 0.505663 0
M  V30 5309 H 467.244 -3.24805 1.34887 0
M  V30 5310 H 467.118 -3.75793 -0.325441 0
M  V30 5311 H 469.505 -2.85677 -0.739765 0
M  V30 5312 H 469.586 -2.37112 0.959766 0
M  V30 5313 H 469.23 -4.80394 1.64877 0
M  V30 5314 H 469.16 -5.26553 -0.0704866 0
M  V30 5315 H 471.651 -3.76245 0.353252 0
M  V30 5316 H 471.964 -7.61048 1.34257 0
M  V30 5317 H 470.309 -6.84552 1.20057 0
M  V30 5318 H 473.5 -4.65187 0.521383 0
M  V30 5319 H 473.673 -6.40664 0.972295 0
M  V30 5320 N 467.08 -0.0183926 -1.57589 0
M  V30 5321 C 468.305 0.676634 -1.96052 0
M  V30 5322 C 468.73 1.6548 -0.894307 0
M  V30 5323 O 468.088 1.80712 0.145849 0
M  V30 5324 C 468.136 1.36872 -3.33614 0
M  V30 5325 O 467.24 2.48372 -3.29219 0
M  V30 5326 H 466.581 0.1786 -0.63953 0
M  V30 5327 H 469.111 -0.077056 -2.04455 0
M  V30 5328 H 469.121 1.72797 -3.69601 0
M  V30 5329 H 467.796 0.651636 -4.10763 0
M  V30 5330 H 466.373 2.14639 -3.04934 0
M  V30 5331 N 468.558 1.5553 0.254621 0
M  V30 5332 C 469.804 1.77262 0.985193 0
M  V30 5333 C 470.137 0.582286 1.85265 0
M  V30 5334 O 469.412 -0.419666 1.89919 0
M  V30 5335 C 469.695 3.0881 1.85225 0
M  V30 5336 C 469.548 4.38233 1.0135 0
M  V30 5337 C 470.867 3.3653 2.83612 0
M  V30 5338 H 467.986 0.644906 0.356742 0
M  V30 5339 H 470.628 1.88264 0.256236 0
M  V30 5340 H 468.778 2.99562 2.47376 0
M  V30 5341 H 470.45 4.59463 0.411269 0
M  V30 5342 H 468.693 4.32636 0.317574 0
M  V30 5343 H 469.364 5.26644 1.65379 0
M  V30 5344 H 471.84 3.45691 2.31596 0
M  V30 5345 H 470.716 4.29805 3.41407 0
M  V30 5346 H 470.977 2.57064 3.59681 0
M  V30 5347 N 470.036 -0.519951 1.48776 0
M  V30 5348 C 470.983 -1.62352 1.64044 0
M  V30 5349 C 471.953 -1.58945 0.482251 0
M  V30 5350 O 473.138 -1.77219 0.706971 0
M  V30 5351 C 470.278 -3.00579 1.69547 0
M  V30 5352 C 469.391 -3.14145 2.96541 0
M  V30 5353 C 468.526 -4.42991 2.93142 0
M  V30 5354 C 467.565 -4.50122 4.14797 0
M  V30 5355 N 466.702 -5.7037 4.09418 0
M  V30 5356 H 471.542 -1.48643 2.58281 0
M  V30 5357 H 469.079 -0.723516 1.28077 0
M  V30 5358 H 471.037 -3.80671 1.70719 0
M  V30 5359 H 469.667 -3.13036 0.787918 0
M  V30 5360 H 468.719 -2.27239 3.05068 0
M  V30 5361 H 470.031 -3.15275 3.86527 0
M  V30 5362 H 469.185 -5.31385 2.92772 0
M  V30 5363 H 467.924 -4.44398 2.00902 0
M  V30 5364 H 466.929 -3.60133 4.15433 0
M  V30 5365 H 468.154 -4.50445 5.08208 0
M  V30 5366 H 466.1 -5.72655 3.20004 0
M  V30 5367 H 466.017 -5.73036 4.93119 0
M  V30 5368 H 467.285 -6.61023 4.13121 0
M  V30 5369 N 471.514 -1.37532 -0.769588 0
M  V30 5370 C 472.739 -1.36231 -1.56384 0
M  V30 5371 C 473.164 0.0495849 -1.88035 0
M  V30 5372 O 472.522 1.02723 -1.49391 0
M  V30 5373 C 472.57 -2.20986 -2.84952 0
M  V30 5374 O 471.674 -1.61597 -3.79421 0
M  V30 5375 H 471.015 -0.465387 -0.473615 0
M  V30 5376 H 473.545 -1.81085 -0.952342 0
M  V30 5377 H 473.555 -2.34277 -3.34034 0
M  V30 5378 H 472.23 -3.23612 -2.61243 0
M  V30 5379 H 470.807 -1.57359 -3.38072 0
M  V30 5380 N 472.992 0.995999 -1.22138 0
M  V30 5381 C 474.22 1.77066 -1.07029 0
M  V30 5382 C 474.635 1.8495 0.379357 0
M  V30 5383 O 473.992 1.3174 1.26297 0
M  V30 5384 C 474.043 3.20533 -1.67155 0
M  V30 5385 O 473.764 3.13082 -3.06449 0
M  V30 5386 C 475.265 4.14461 -1.5728 0
M  V30 5387 H 472.485 0.556179 -0.375374 0
M  V30 5388 H 475.029 1.25238 -1.61666 0
M  V30 5389 H 473.184 3.6944 -1.16589 0
M  V30 5390 H 473.598 4.03283 -3.35355 0
M  V30 5391 H 475.072 5.1289 -2.04078 0
M  V30 5392 H 475.549 4.36005 -0.528795 0
M  V30 5393 H 476.155 3.71449 -2.07136 0
M  V30 5394 N 474.47 1.03057 1.19235 0
M  V30 5395 C 475.433 0.617418 2.20727 0
M  V30 5396 C 476.433 -0.319856 1.57587 0
M  V30 5397 O 477.623 -0.106633 1.73873 0
M  V30 5398 C 474.755 -0.096296 3.40764 0
M  V30 5399 H 475.948 1.51544 2.58794 0
M  V30 5400 H 473.501 0.821949 1.32942 0
M  V30 5401 H 474.236 -1.00859 3.08217 0
M  V30 5402 H 474.021 0.577217 3.87828 0
M  V30 5403 H 475.511 -0.372219 4.15938 0
M  V30 5404 N 475.948 -1.35272 0.808662 0
M  V30 5405 C 477.194 -1.99003 0.390581 0
M  V30 5406 C 477.527 -1.63999 -1.0401 0
M  V30 5407 O 476.802 -0.904368 -1.72196 0
M  V30 5408 C 477.085 -3.55454 0.576566 0
M  V30 5409 C 476.938 -4.00249 2.05233 0
M  V30 5410 C 478.257 -4.401 0.00354277 0
M  V30 5411 H 475.376 -0.722917 0.143388 0
M  V30 5412 H 478.018 -1.6039 1.01858 0
M  V30 5413 H 476.168 -3.88477 0.0419766 0
M  V30 5414 H 477.84 -3.77626 2.64946 0
M  V30 5415 H 476.083 -3.51082 2.54801 0
M  V30 5416 H 476.754 -5.0911 2.13333 0
M  V30 5417 H 479.23 -4.13548 0.460117 0
M  V30 5418 H 478.106 -5.48656 0.163575 0
M  V30 5419 H 478.367 -4.28444 -1.09032 0
M  V30 5420 N 477.426 -0.562348 -1.47226 0
M  V30 5421 C 478.842 -0.222492 -1.58042 0
M  V30 5422 C 479.042 1.27505 -1.56028 0
M  V30 5423 O 478.098 2.05555 -1.46641 0
M  V30 5424 C 479.411 -0.853694 -2.88327 0
M  V30 5425 C 480.959 -0.825397 -3.01921 0
M  V30 5426 C 481.434 -1.43576 -4.34914 0
M  V30 5427 N 482.925 -1.39918 -4.41562 0
M  V30 5428 C 483.66 -1.84103 -5.43041 0
M  V30 5429 N 483.156 -2.36167 -6.51304 0
M  V30 5430 N 484.949 -1.75142 -5.34118 0
M  V30 5431 H 477.1 -1.53525 -1.46778 0
M  V30 5432 H 479.363 -0.640527 -0.698877 0
M  V30 5433 H 479.069 -1.90635 -2.95552 0
M  V30 5434 H 478.943 -0.34977 -3.75575 0
M  V30 5435 H 481.33 0.218583 -2.94289 0
M  V30 5436 H 481.411 -1.36713 -2.16202 0
M  V30 5437 H 481.055 -2.47884 -4.43301 0
M  V30 5438 H 480.985 -0.869427 -5.19373 0
M  V30 5439 H 483.476 -1.0184 -3.63919 0
M  V30 5440 H 483.789 -2.67793 -7.24919 0
M  V30 5441 H 482.134 -2.40181 -6.52179 0
M  V30 5442 H 485.325 -1.34241 -4.48439 0
M  V30 5443 H 485.498 -2.09895 -6.13065 0
M  V30 5444 N 478.904 1.54736 -0.299062 0
M  V30 5445 C 480.15 2.00397 0.311244 0
M  V30 5446 C 480.483 1.18716 1.53688 0
M  V30 5447 O 479.758 0.263154 1.92712 0
M  V30 5448 C 480.041 3.53817 0.669761 0
M  V30 5449 C 479.894 4.46239 -0.564882 0
M  V30 5450 C 481.213 4.13856 1.49702 0
M  V30 5451 H 478.332 0.728493 0.111653 0
M  V30 5452 H 480.974 1.85506 -0.410774 0
M  V30 5453 H 479.124 3.66637 1.28491 0
M  V30 5454 H 480.796 4.45328 -1.20337 0
M  V30 5455 H 479.039 4.16916 -1.19849 0
M  V30 5456 H 479.71 5.5134 -0.269918 0
M  V30 5457 H 482.186 4.04461 0.977284 0
M  V30 5458 H 481.062 5.21365 1.71666 0
M  V30 5459 H 481.323 3.65608 2.48563 0
M  V30 5460 N 480.382 0.0267497 1.57577 0
M  V30 5461 C 481.628 -0.653371 1.91987 0
M  V30 5462 C 481.961 -1.71915 0.903263 0
M  V30 5463 O 481.236 -1.94358 -0.0743387 0
M  V30 5464 C 481.519 -1.272 3.36886 0
M  V30 5465 C 481.372 -0.215938 4.49281 0
M  V30 5466 C 482.691 -2.19069 3.81703 0
M  V30 5467 H 479.81 -0.236047 0.698177 0
M  V30 5468 H 482.452 0.0835236 1.89816 0
M  V30 5469 H 480.602 -1.90005 3.38866 0
M  V30 5470 H 482.274 0.41449 4.59434 0
M  V30 5471 H 480.517 0.458855 4.31366 0
M  V30 5472 H 481.188 -0.688347 5.47691 0
M  V30 5473 H 483.664 -1.66253 3.81444 0
M  V30 5474 H 482.54 -2.59307 4.83788 0
M  V30 5475 H 482.801 -3.08087 3.17072 0
M  V30 5476 N 481.861 -1.55662 -0.24637 0
M  V30 5477 C 483.138 -1.68272 -0.997198 0
M  V30 5478 C 483.518 -0.566785 -2.03349 0
M  V30 5479 O 482.866 0.429688 -2.24424 0
M  V30 5480 C 483.076 -3.08594 -1.63006 0
M  V30 5481 C 484.424 -3.6721 -2.13171 0
M  V30 5482 O 485.448 -3.11397 -1.72946 0
M  V30 5483 O 484.307 -4.65054 -2.87031 0
M  V30 5484 H 481.401 -0.684429 -0.464205 0
M  V30 5485 H 483.947 -1.67993 -0.240114 0
M  V30 5486 H 482.719 -3.81264 -0.880527 0
M  V30 5487 H 482.342 -3.12886 -2.45333 0
M  V30 5488 N 483.339 0.512053 -1.4905 0
M  V30 5489 C 484.586 1.26686 -1.57978 0
M  V30 5490 C 484.914 1.92733 -0.261553 0
M  V30 5491 O 484.169 1.80772 0.749667 0
M  V30 5492 C 484.468 2.36446 -2.68008 0
M  V30 5493 C 484.134 1.87932 -4.09869 0
M  V30 5494 C 482.796 1.74419 -4.48477 0
M  V30 5495 C 485.148 1.5149 -4.98698 0
M  V30 5496 C 482.476 1.22827 -5.73699 0
M  V30 5497 C 484.828 1.01355 -6.24428 0
M  V30 5498 C 483.492 0.864735 -6.61875 0
M  V30 5499 H 482.762 0.463577 -0.578081 0
M  V30 5500 H 485.409 0.569421 -1.82838 0
M  V30 5501 H 483.714 3.11933 -2.37076 0
M  V30 5502 H 485.411 2.9453 -2.72127 0
M  V30 5503 H 482.001 1.99405 -3.79389 0
M  V30 5504 H 486.185 1.60782 -4.69535 0
M  V30 5505 H 481.441 1.10008 -6.01422 0
M  V30 5506 H 485.615 0.722351 -6.92644 0
M  V30 5507 H 483.242 0.462777 -7.5879 0
M  V30 5508 N 484.817 1.37938 0.762283 0
M  V30 5509 C 486.065 1.33404 1.51815 0
M  V30 5510 C 486.386 -0.0780975 1.94844 0
M  V30 5511 O 485.656 -1.02405 1.67003 0
M  V30 5512 H 484.236 0.490839 0.563104 0
M  V30 5513 H 486.898 1.72527 0.906669 0
M  V30 5514 H 485.994 1.97926 2.41313 0
M  V30 5515 N 486.295 -0.989507 1.22664 0
M  V30 5516 C 487.52 -1.77031 1.08051 0
M  V30 5517 C 487.945 -1.84535 -0.364483 0
M  V30 5518 O 487.303 -1.3003 -1.2634 0
M  V30 5519 C 487.351 -3.18 1.70024 0
M  V30 5520 O 486.455 -4.01161 0.956216 0
M  V30 5521 H 485.796 -0.545008 0.379292 0
M  V30 5522 H 488.326 -1.24277 1.62531 0
M  V30 5523 H 488.336 -3.68616 1.74888 0
M  V30 5524 H 487.011 -3.11853 2.75174 0
M  V30 5525 H 485.588 -3.59687 0.98384 0
M  V30 5526 N 487.773 -1.03688 -1.18687 0
M  V30 5527 C 488.736 -0.629115 -2.20397 0
M  V30 5528 C 489.736 0.311495 -1.57754 0
M  V30 5529 O 490.926 0.0974107 -1.73927 0
M  V30 5530 C 488.058 0.0782231 -3.4081 0
M  V30 5531 H 489.251 -1.52915 -2.57987 0
M  V30 5532 H 486.804 -0.828988 -1.32505 0
M  V30 5533 H 487.539 0.992233 -3.08748 0
M  V30 5534 H 487.324 -0.597776 -3.87517 0
M  V30 5535 H 488.814 0.350156 -4.16129 0
M  V30 5536 N 489.251 1.34841 -0.815825 0
M  V30 5537 C 490.479 2.0273 -0.413294 0
M  V30 5538 C 490.894 1.61459 0.978599 0
M  V30 5539 O 490.251 0.816584 1.63212 0
M  V30 5540 C 490.302 3.58058 -0.497676 0
M  V30 5541 O 490.023 3.97832 -1.8347 0
M  V30 5542 C 491.524 4.4321 -0.0891339 0
M  V30 5543 H 488.744 0.649956 -0.166728 0
M  V30 5544 H 491.288 1.72267 -1.10201 0
M  V30 5545 H 489.443 3.87136 0.142886 0
M  V30 5546 H 489.857 4.92501 -1.80396 0
M  V30 5547 H 491.331 5.5164 -0.199274 0
M  V30 5548 H 491.808 4.28432 0.966571 0
M  V30 5549 H 492.414 4.19446 -0.703214 0
M  V30 5550 N 490.729 0.570148 1.46925 0
M  V30 5551 C 491.976 0.0509529 2.02436 0
M  V30 5552 C 492.304 -1.30405 1.44308 0
M  V30 5553 O 491.559 -1.86493 0.593198 0
M  V30 5554 C 491.858 -0.0780336 3.57315 0
M  V30 5555 C 491.524 1.20775 4.34424 0
M  V30 5556 C 490.186 1.56004 4.5521 0
M  V30 5557 C 492.538 2.0592 4.78797 0
M  V30 5558 C 489.866 2.76201 5.17619 0
M  V30 5559 C 492.218 3.25332 5.42533 0
M  V30 5560 C 490.882 3.60859 5.61549 0
M  V30 5561 H 490.152 0.018645 0.740765 0
M  V30 5562 H 492.799 0.744262 1.76445 0
M  V30 5563 H 491.104 -0.854394 3.82371 0
M  V30 5564 H 492.801 -0.495312 3.97929 0
M  V30 5565 H 489.391 0.923469 4.18533 0
M  V30 5566 H 493.575 1.80008 4.62505 0
M  V30 5567 H 488.831 3.0388 5.30535 0
M  V30 5568 H 493.005 3.91586 5.75876 0
M  V30 5569 H 490.632 4.54088 6.09678 0
M  V30 5570 N 492.207 -1.54576 0.307264 0
M  V30 5571 C 493.484 -1.92377 -0.353605 0
M  V30 5572 C 493.864 -1.23517 -1.71192 0
M  V30 5573 O 493.212 -0.373101 -2.25433 0
M  V30 5574 C 493.422 -3.45928 -0.462039 0
M  V30 5575 C 494.77 -4.18278 -0.729975 0
M  V30 5576 O 495.794 -3.51997 -0.545605 0
M  V30 5577 O 494.653 -5.3563 -1.08454 0
M  V30 5578 H 491.747 -0.802747 -0.198812 0
M  V30 5579 H 494.293 -1.65929 0.355783 0
M  V30 5580 H 493.065 -3.88187 0.492592 0
M  V30 5581 H 492.688 -3.78431 -1.21965 0
M  V30 5582 N 493.685 -0.035106 -1.57561 0
M  V30 5583 C 494.635 0.954034 -2.0708 0
M  V30 5584 C 495.619 1.2818 -0.972558 0
M  V30 5585 O 496.811 1.26691 -1.23606 0
M  V30 5586 C 493.94 2.23442 -2.60631 0
M  V30 5587 C 493.026 1.93475 -3.77396 0
M  V30 5588 N 493.417 1.33802 -4.87781 0
M  V30 5589 C 491.715 2.23434 -3.85996 0
M  V30 5590 C 492.416 1.21103 -5.68954 0
M  V30 5591 N 491.392 1.70855 -5.16052 0
M  V30 5592 H 495.194 0.487731 -2.89825 0
M  V30 5593 H 492.708 0.169759 -1.6151 0
M  V30 5594 H 494.705 2.95183 -2.94402 0
M  V30 5595 H 493.365 2.70693 -1.79319 0
M  V30 5596 H 494.376 1.01227 -5.07911 0
M  V30 5597 H 491.053 2.73317 -3.15601 0
M  V30 5598 H 492.443 0.749105 -6.67711 0
M  V30 5599 N 495.163 1.55791 0.238111 0
M  V30 5600 C 496.073 1.94196 1.31625 0
M  V30 5601 C 497.089 0.843545 1.52185 0
M  V30 5602 O 498.265 1.1457 1.65637 0
M  V30 5603 C 495.33 2.2365 2.64918 0
M  V30 5604 C 494.391 3.46971 2.52804 0
M  V30 5605 C 493.624 3.7501 3.79741 0
M  V30 5606 O 493.847 3.04982 4.82019 0
M  V30 5607 O 492.781 4.68525 3.77846 0
M  V30 5608 H 496.607 2.86044 1.02043 0
M  V30 5609 H 494.192 1.42786 0.439603 0
M  V30 5610 H 496.074 2.43863 3.4367 0
M  V30 5611 H 494.749 1.34979 2.94215 0
M  V30 5612 H 493.656 3.32055 1.72309 0
M  V30 5613 H 494.989 4.35971 2.28451 0
M  V30 5614 N 496.642 -0.504142 1.49319 0
M  V30 5615 C 497.592 -1.60284 1.62151 0
M  V30 5616 C 498.576 -1.53657 0.477315 0
M  V30 5617 O 499.768 -1.6124 0.730108 0
M  V30 5618 C 496.897 -2.98909 1.68844 0
M  V30 5619 C 495.983 -3.10544 2.8883 0
M  V30 5620 N 496.374 -2.92078 4.12946 0
M  V30 5621 C 494.672 -3.4164 2.86702 0
M  V30 5622 C 495.373 -3.07812 4.93585 0
M  V30 5623 N 494.349 -3.36549 4.26891 0
M  V30 5624 H 498.151 -1.44656 2.55835 0
M  V30 5625 H 495.665 -0.710198 1.46048 0
M  V30 5626 H 497.662 -3.77865 1.76134 0
M  V30 5627 H 496.322 -3.15609 0.762943 0
M  V30 5628 H 497.333 -2.68316 4.42975 0
M  V30 5629 H 494.01 -3.64537 2.03517 0
M  V30 5630 H 495.4 -2.98054 6.02174 0
M  V30 5631 N 498.12 -1.38341 -0.754957 0
M  V30 5632 C 499.07 -1.31964 -1.85929 0
M  V30 5633 C 500.054 -0.204181 -1.59599 0
M  V30 5634 O 501.246 -0.440036 -1.71443 0
M  V30 5635 C 498.375 -1.14565 -3.2362 0
M  V30 5636 C 497.461 -2.30727 -3.55846 0
M  V30 5637 N 497.852 -3.56165 -3.59138 0
M  V30 5638 C 496.15 -2.23249 -3.86104 0
M  V30 5639 C 496.851 -4.32865 -3.88591 0
M  V30 5640 N 495.827 -3.62203 -4.05351 0
M  V30 5641 H 499.629 -2.2694 -1.8675 0
M  V30 5642 H 497.143 -1.31553 -0.952243 0
M  V30 5643 H 499.14 -1.0808 -4.02647 0
M  V30 5644 H 497.8 -0.205212 -3.24051 0
M  V30 5645 H 498.811 -3.89854 -3.40932 0
M  V30 5646 H 495.488 -1.37357 -3.94258 0
M  V30 5647 H 496.878 -5.41504 -3.97773 0
M  V30 5648 N 499.598 0.982988 -1.23187 0
M  V30 5649 C 500.823 1.76455 -1.08988 0
M  V30 5650 C 501.248 1.84726 0.354691 0
M  V30 5651 O 500.606 1.30699 1.25649 0
M  V30 5652 C 500.654 3.17094 -1.71708 0
M  V30 5653 O 499.758 4.00648 -0.977477 0
M  V30 5654 H 499.099 0.542988 -0.382177 0
M  V30 5655 H 501.629 1.23413 -1.63188 0
M  V30 5656 H 501.639 3.67684 -1.76841 0
M  V30 5657 H 500.314 3.10389 -2.76823 0
M  V30 5658 H 498.891 3.59161 -1.0029 0
M  V30 5659 N 501.076 1.04316 1.18135 0
M  V30 5660 C 502.304 0.768117 1.92113 0
M  V30 5661 C 502.719 -0.675057 1.76319 0
M  V30 5662 O 502.076 -1.46038 1.09449 0
M  V30 5663 C 502.127 1.12808 3.43448 0
M  V30 5664 O 501.848 2.5146 3.58747 0
M  V30 5665 C 503.349 0.8779 4.3452 0
M  V30 5666 H 500.569 0.279937 0.609817 0
M  V30 5667 H 503.113 1.39149 1.49859 0
M  V30 5668 H 501.268 0.549623 3.83481 0
M  V30 5669 H 501.682 2.65313 4.52448 0
M  V30 5670 H 503.156 1.17959 5.39249 0
M  V30 5671 H 503.633 -0.187239 4.38801 0
M  V30 5672 H 504.239 1.43977 4.00188 0
M  V30 5673 N 502.554 -1.34406 0.822964 0
M  V30 5674 C 503.803 -1.97542 0.407458 0
M  V30 5675 C 504.116 -1.65973 -1.035 0
M  V30 5676 O 505.322 -2.22598 -1.55442 0
M  V30 5677 C 503.778 -3.53463 0.677623 0
M  V30 5678 C 503.386 -3.93925 2.1337 0
M  V30 5679 C 505.13 -4.23229 0.328284 0
M  V30 5680 C 503.037 -5.42759 2.34876 0
M  V30 5681 H 501.967 -0.739207 0.148623 0
M  V30 5682 H 504.618 -1.53248 1.00932 0
M  V30 5683 H 503 -3.96 0.00558965 0
M  V30 5684 H 504.174 -3.62494 2.8449 0
M  V30 5685 H 502.489 -3.37097 2.44448 0
M  V30 5686 H 505.086 -5.32659 0.466794 0
M  V30 5687 H 505.429 -4.09899 -0.727224 0
M  V30 5688 H 505.962 -3.86169 0.954896 0
M  V30 5689 H 502.701 -5.61075 3.38932 0
M  V30 5690 H 502.221 -5.75704 1.68299 0
M  V30 5691 H 503.9 -6.0944 2.17236 0
M  V30 5692 N 504.032 -0.577932 -1.46621 0
M  V30 5693 C 505.278 -0.0617793 -2.02706 0
M  V30 5694 C 505.611 1.29294 -1.44903 0
M  V30 5695 O 504.886 1.8461 -0.61232 0
M  V30 5696 C 505.169 0.00911824 -3.60099 0
M  V30 5697 C 505.022 -1.37416 -4.28295 0
M  V30 5698 C 506.341 0.712159 -4.343 0
M  V30 5699 H 503.46 -0.0239246 -0.736612 0
M  V30 5700 H 506.102 -0.744211 -1.74818 0
M  V30 5701 H 504.252 0.590292 -3.83989 0
M  V30 5702 H 505.924 -2.00013 -4.15683 0
M  V30 5703 H 504.167 -1.94319 -3.87843 0
M  V30 5704 H 504.838 -1.27707 -5.37024 0
M  V30 5705 H 507.314 0.218486 -4.15526 0
M  V30 5706 H 506.19 0.730782 -5.44014 0
M  V30 5707 H 506.451 1.77251 -4.05012 0
M  V30 5708 N 505.51 1.54411 -0.315457 0
M  V30 5709 C 506.735 2.05299 0.294496 0
M  V30 5710 C 507.16 1.19052 1.4563 0
M  V30 5711 O 506.518 0.197804 1.80218 0
M  V30 5712 C 506.566 3.5345 0.714549 0
M  V30 5713 O 505.67 3.70175 1.81781 0
M  V30 5714 H 505.011 0.661743 0.0547019 0
M  V30 5715 H 507.541 1.99327 -0.461508 0
M  V30 5716 H 507.551 3.9557 0.999426 0
M  V30 5717 H 506.226 4.1568 -0.135244 0
M  V30 5718 H 504.803 3.3996 1.53236 0
M  V30 5719 N 506.988 0.0434614 1.5754 0
M  V30 5720 C 508.216 -0.641835 1.96693 0
M  V30 5721 C 508.631 -1.64832 0.920652 0
M  V30 5722 O 507.988 -1.82247 -0.095993 0
M  V30 5723 C 508.039 -1.33557 3.35924 0
M  V30 5724 O 507.76 -0.369403 4.3654 0
M  V30 5725 C 509.261 -2.11135 3.89791 0
M  V30 5726 H 506.481 -0.176013 0.647503 0
M  V30 5727 H 509.025 0.107478 2.04217 0
M  V30 5728 H 507.18 -2.03617 3.29574 0
M  V30 5729 H 507.594 -0.863674 5.1734 0
M  V30 5730 H 509.068 -2.55107 4.89514 0
M  V30 5731 H 509.545 -2.95634 3.24803 0
M  V30 5732 H 510.151 -1.46002 3.99454 0
M  V30 5733 N 508.466 -1.55915 -0.229846 0
M  V30 5734 C 509.882 -1.48721 -0.579166 0
M  V30 5735 C 510.082 -0.736976 -1.87539 0
M  V30 5736 O 509.138 -0.273258 -2.51017 0
M  V30 5737 C 510.451 -2.9323 -0.666082 0
M  V30 5738 C 511.999 -3.03701 -0.757267 0
M  V30 5739 C 512.474 -4.49552 -0.8756 0
M  V30 5740 N 513.965 -4.53561 -0.940035 0
M  V30 5741 C 514.7 -5.63683 -1.05116 0
M  V30 5742 N 514.196 -6.83576 -1.12675 0
M  V30 5743 N 515.989 -5.51516 -1.08565 0
M  V30 5744 H 508.14 -2.03123 0.620857 0
M  V30 5745 H 510.403 -0.922898 0.21671 0
M  V30 5746 H 510.109 -3.51032 0.21664 0
M  V30 5747 H 509.983 -3.44668 -1.53243 0
M  V30 5748 H 512.37 -2.45969 -1.63043 0
M  V30 5749 H 512.451 -2.55446 0.134583 0
M  V30 5750 H 512.095 -5.079 -0.00692351 0
M  V30 5751 H 512.025 -4.95506 -1.78274 0
M  V30 5752 H 514.516 -3.67215 -0.892269 0
M  V30 5753 H 514.829 -7.63251 -1.21109 0
M  V30 5754 H 513.174 -6.86303 -1.09603 0
M  V30 5755 H 516.365 -4.5678 -1.02319 0
M  V30 5756 H 516.538 -6.37372 -1.1688 0
M  V30 5757 N 509.944 0.496216 -1.49584 0
M  V30 5758 C 510.894 1.59422 -1.62999 0
M  V30 5759 C 511.878 1.53402 -0.485457 0
M  V30 5760 O 513.07 1.60851 -0.738649 0
M  V30 5761 C 510.199 2.98009 -1.70427 0
M  V30 5762 C 509.285 3.09008 -2.90473 0
M  V30 5763 N 509.676 2.89884 -4.14489 0
M  V30 5764 C 507.974 3.40115 -2.8851 0
M  V30 5765 C 508.675 3.0519 -4.95211 0
M  V30 5766 N 507.651 3.3428 -4.2867 0
M  V30 5767 H 511.453 1.43297 -2.56599 0
M  V30 5768 H 508.967 0.702443 -1.46422 0
M  V30 5769 H 510.964 3.76926 -1.78136 0
M  V30 5770 H 509.624 3.152 -0.77967 0
M  V30 5771 H 510.635 2.65963 -4.44392 0
M  V30 5772 H 507.312 3.63452 -2.05448 0
M  V30 5773 H 508.702 2.94856 -6.03746 0
M  V30 5774 N 511.423 1.38739 0.74761 0
M  V30 5775 C 512.653 1.3832 1.53464 0
M  V30 5776 C 513.061 -0.0273464 1.8918 0
M  V30 5777 O 512.404 -1.00588 1.53713 0
M  V30 5778 C 512.466 2.18007 2.85855 0
M  V30 5779 C 512.13 3.66762 2.72644 0
M  V30 5780 C 513.127 4.60124 2.42037 0
M  V30 5781 C 510.812 4.10193 2.89909 0
M  V30 5782 C 512.806 5.94897 2.28859 0
M  V30 5783 C 510.493 5.45045 2.7635 0
M  V30 5784 C 511.491 6.37211 2.45869 0
M  V30 5785 O 511.179 7.69581 2.3238 0
M  V30 5786 H 510.911 0.474718 0.481268 0
M  V30 5787 H 513.465 1.83012 0.932518 0
M  V30 5788 H 511.695 1.68043 3.48279 0
M  V30 5789 H 513.384 2.09921 3.47402 0
M  V30 5790 H 514.15 4.27874 2.28361 0
M  V30 5791 H 510.029 3.38797 3.1263 0
M  V30 5792 H 513.573 6.66802 2.04989 0
M  V30 5793 H 509.47 5.76889 2.89601 0
M  V30 5794 H 510.238 7.80169 2.47546 0
M  V30 5795 N 512.901 -0.976442 1.23707 0
M  V30 5796 C 514.317 -1.24341 1.00058 0
M  V30 5797 C 514.517 -1.99315 -0.295932 0
M  V30 5798 O 513.573 -2.3123 -1.01435 0
M  V30 5799 C 514.886 -2.03909 2.21001 0
M  V30 5800 C 516.434 -2.17034 2.25534 0
M  V30 5801 C 516.909 -2.99994 3.46075 0
M  V30 5802 N 518.4 -3.07578 3.46338 0
M  V30 5803 C 519.135 -3.72104 4.36264 0
M  V30 5804 N 518.631 -4.3842 5.36432 0
M  V30 5805 N 520.424 -3.69029 4.23998 0
M  V30 5806 H 512.575 -0.47428 2.07037 0
M  V30 5807 H 514.838 -0.272167 0.908091 0
M  V30 5808 H 514.544 -1.56198 3.15111 0
M  V30 5809 H 514.418 -3.04654 2.22409 0
M  V30 5810 H 516.805 -2.63951 1.31961 0
M  V30 5811 H 516.886 -1.15664 2.28156 0
M  V30 5812 H 516.53 -2.53772 4.39957 0
M  V30 5813 H 516.46 -4.01541 3.40694 0
M  V30 5814 H 518.951 -2.60397 2.73865 0
M  V30 5815 H 519.264 -4.85447 6.013 0
M  V30 5816 H 517.609 -4.37116 5.40328 0
M  V30 5817 H 520.8 -3.16392 3.44984 0
M  V30 5818 H 520.973 -4.19034 4.94282 0
M  V30 5819 N 514.379 -1.04941 -1.1758 0
M  V30 5820 C 515.342 -0.652456 -2.19717 0
M  V30 5821 C 516.342 0.294745 -1.58076 0
M  V30 5822 O 517.532 0.0789579 -1.74021 0
M  V30 5823 C 514.664 0.0420712 -3.40874 0
M  V30 5824 H 515.857 -1.55642 -2.5635 0
M  V30 5825 H 513.41 -0.842995 -1.31618 0
M  V30 5826 H 514.145 0.95943 -3.09783 0
M  V30 5827 H 513.93 -0.638844 -3.86861 0
M  V30 5828 H 515.42 0.306 -4.16477 0
M  V30 5829 N 515.857 1.33968 -0.830081 0
M  V30 5830 C 517.268 1.80439 -0.479455 0
M  V30 5831 C 517.619 1.68756 1.00079 0
M  V30 5832 O 516.744 1.23171 1.77927 0
M  V30 5833 C 517.339 3.27611 -0.863505 0
M  V30 5834 C 515.898 3.72133 -0.565145 0
M  V30 5835 C 515.045 2.55549 -1.07657 0
M  V30 5836 H 517.996 1.21614 -1.0196 0
M  V30 5837 H 518.017 3.8012 -0.170083 0
M  V30 5838 H 517.529 3.36082 -1.94089 0
M  V30 5839 H 515.63 3.69196 0.502536 0
M  V30 5840 H 515.743 4.65963 -1.11422 0
M  V30 5841 H 514.107 2.49788 -0.497807 0
M  V30 5842 H 514.89 2.66786 -2.16055 0
M  V30 5843 N 517.335 0.585699 1.46312 0
M  V30 5844 C 518.245 -0.148236 2.34131 0
M  V30 5845 C 519.261 -0.882972 1.49932 0
M  V30 5846 O 520.437 -0.845484 1.82794 0
M  V30 5847 C 517.502 -1.14714 3.27172 0
M  V30 5848 C 516.563 -0.416746 4.27272 0
M  V30 5849 C 515.796 -1.36806 5.15868 0
M  V30 5850 O 516.019 -2.60475 5.07454 0
M  V30 5851 O 514.953 -0.877018 5.95476 0
M  V30 5852 H 518.779 0.572882 2.98248 0
M  V30 5853 H 516.364 0.346082 1.45336 0
M  V30 5854 H 518.246 -1.72303 3.84564 0
M  V30 5855 H 516.921 -1.84967 2.65648 0
M  V30 5856 H 515.828 0.201061 3.73559 0
M  V30 5857 H 517.161 0.244872 4.9159 0
M  V30 5858 N 518.813 -1.54241 0.323641 0
M  V30 5859 C 520.059 -2.00867 -0.279323 0
M  V30 5860 C 520.392 -1.21146 -1.5178 0
M  V30 5861 O 519.667 -0.29378 -1.92269 0
M  V30 5862 C 519.95 -3.54837 -0.613387 0
M  V30 5863 C 519.803 -4.45284 0.635803 0
M  V30 5864 C 521.122 -4.16186 -1.43099 0
M  V30 5865 H 518.241 -0.730177 -0.100049 0
M  V30 5866 H 520.883 -1.84829 0.440235 0
M  V30 5867 H 519.033 -3.68634 -1.22641 0
M  V30 5868 H 520.705 -4.43357 1.27406 0
M  V30 5869 H 518.948 -4.14956 1.26466 0
M  V30 5870 H 519.619 -5.5084 0.357597 0
M  V30 5871 H 522.095 -4.05964 -0.912814 0
M  V30 5872 H 520.971 -5.24031 -1.6335 0
M  V30 5873 H 521.232 -3.69516 -2.42715 0
M  V30 5874 N 520.291 -0.0518155 -1.57515 0
M  V30 5875 C 521.54 0.621286 -1.91893 0
M  V30 5876 C 521.853 1.71966 -0.932052 0
M  V30 5877 O 523.059 2.45096 -1.16791 0
M  V30 5878 C 521.515 1.15641 -3.40816 0
M  V30 5879 C 521.123 0.0901146 -4.47909 0
M  V30 5880 C 522.867 1.80472 -3.84227 0
M  V30 5881 C 520.774 0.638154 -5.87947 0
M  V30 5882 H 519.704 0.235835 -0.716169 0
M  V30 5883 H 522.355 -0.120809 -1.83102 0
M  V30 5884 H 520.737 1.95084 -3.44613 0
M  V30 5885 H 521.911 -0.683525 -4.55702 0
M  V30 5886 H 520.226 -0.460774 -4.13843 0
M  V30 5887 H 522.823 2.22471 -4.86221 0
M  V30 5888 H 523.166 2.65669 -3.20508 0
M  V30 5889 H 523.699 1.07683 -3.82948 0
M  V30 5890 H 520.438 -0.176202 -6.55263 0
M  V30 5891 H 519.958 1.37976 -5.83714 0
M  V30 5892 H 521.637 1.12085 -6.37217 0
M  V30 5893 N 521.769 1.56035 0.221574 0
M  V30 5894 C 522.699 1.95434 1.2778 0
M  V30 5895 C 523.68 0.822564 1.48889 0
M  V30 5896 O 524.865 1.08486 1.61072 0
M  V30 5897 C 521.995 2.27102 2.62759 0
M  V30 5898 C 520.949 3.4277 2.56306 0
M  V30 5899 C 520.275 3.60043 3.95314 0
M  V30 5900 C 521.575 4.77742 2.11093 0
M  V30 5901 H 523.269 2.83912 0.950504 0
M  V30 5902 H 520.815 1.36596 0.455791 0
M  V30 5903 H 522.768 2.53256 3.36807 0
M  V30 5904 H 521.492 1.35478 2.97176 0
M  V30 5905 H 520.151 3.16664 1.84715 0
M  V30 5906 H 519.799 2.65794 4.27039 0
M  V30 5907 H 519.499 4.37841 3.91879 0
M  V30 5908 H 521.023 3.88545 4.71025 0
M  V30 5909 H 522.437 5.03102 2.74885 0
M  V30 5910 H 520.834 5.58823 2.18716 0
M  V30 5911 H 521.904 4.731 1.06321 0
M  V30 5912 N 523.247 -0.488276 1.49845 0
M  V30 5913 C 524.157 -1.61451 1.70207 0
M  V30 5914 C 525.173 -1.63877 0.584846 0
M  V30 5915 O 526.349 -1.82063 0.861107 0
M  V30 5916 C 523.414 -2.9776 1.77594 0
M  V30 5917 C 522.475 -3.05861 3.01243 0
M  V30 5918 C 521.708 -4.35668 3.08268 0
M  V30 5919 O 521.931 -5.25197 2.22541 0
M  V30 5920 O 520.865 -4.49005 4.00847 0
M  V30 5921 H 524.691 -1.47199 2.65643 0
M  V30 5922 H 522.276 -0.665939 1.33737 0
M  V30 5923 H 524.158 -3.7875 1.84732 0
M  V30 5924 H 522.833 -3.12248 0.8534 0
M  V30 5925 H 521.74 -2.24012 2.99616 0
M  V30 5926 H 523.073 -2.96304 3.9302 0
M  V30 5927 N 524.725 -1.39134 -0.740242 0
M  V30 5928 C 525.655 -1.40165 -1.86751 0
M  V30 5929 C 526.636 -0.265708 -1.68012 0
M  V30 5930 O 527.821 -0.47076 -1.88408 0
M  V30 5931 C 524.951 -1.2392 -3.2444 0
M  V30 5932 C 523.905 -2.34858 -3.57807 0
M  V30 5933 C 523.231 -2.03707 -4.94376 0
M  V30 5934 C 524.531 -3.77159 -3.61315 0
M  V30 5935 H 526.225 -2.345 -1.86145 0
M  V30 5936 H 523.771 -1.12875 -0.89416 0
M  V30 5937 H 525.724 -1.23263 -4.02969 0
M  V30 5938 H 524.448 -0.26051 -3.25559 0
M  V30 5939 H 523.107 -2.34723 -2.81604 0
M  V30 5940 H 522.755 -1.04289 -4.9207 0
M  V30 5941 H 522.455 -2.78016 -5.17669 0
M  V30 5942 H 523.979 -2.04691 -5.75268 0
M  V30 5943 H 525.393 -3.79252 -4.29931 0
M  V30 5944 H 523.79 -4.50784 -3.96124 0
M  V30 5945 H 524.86 -4.08513 -2.61238 0
M  V30 5946 N 526.204 0.969867 -1.24223 0
M  V30 5947 C 527.452 1.70918 -1.0785 0
M  V30 5948 C 527.773 1.91186 0.383763 0
M  V30 5949 O 527.043 1.48806 1.27411 0
M  V30 5950 H 525.623 0.633334 -0.396103 0
M  V30 5951 H 528.285 1.16689 -1.56108 0
M  V30 5952 H 527.381 2.69455 -1.57482 0
M  V30 5953 N 527.682 1.05563 1.17022 0
M  V30 5954 C 528.928 0.778872 1.87897 0
M  V30 5955 C 529.283 -0.686839 1.79723 0
M  V30 5956 O 528.576 -1.49612 1.19694 0
M  V30 5957 C 528.77 1.19849 3.36706 0
M  V30 5958 C 528.599 2.70345 3.59366 0
M  V30 5959 C 527.369 3.37707 3.75875 0
M  V30 5960 C 529.567 3.68564 3.58699 0
M  V30 5961 N 527.549 4.7703 3.86414 0
M  V30 5962 C 528.92 4.93634 3.75134 0
M  V30 5963 C 530.975 3.6198 3.4187 0
M  V30 5964 C 529.678 6.12907 3.76481 0
M  V30 5965 C 531.704 4.80697 3.44507 0
M  V30 5966 C 531.066 6.04592 3.61453 0
M  V30 5967 H 527.165 0.337297 0.705517 0
M  V30 5968 H 529.749 1.34832 1.40458 0
M  V30 5969 H 527.92 0.656958 3.82804 0
M  V30 5970 H 529.652 0.871172 3.95212 0
M  V30 5971 H 526.407 2.88108 3.75887 0
M  V30 5972 H 526.831 5.49483 3.95471 0
M  V30 5973 H 531.473 2.67154 3.27702 0
M  V30 5974 H 529.191 7.08073 3.89432 0
M  V30 5975 H 532.777 4.77259 3.32738 0
M  V30 5976 H 531.657 6.94916 3.63403 0
M  V30 5977 N 529.16 -1.33526 0.837174 0
M  V30 5978 C 530.385 -2.0258 0.444545 0
M  V30 5979 C 530.81 -1.6258 -0.946006 0
M  V30 5980 O 530.168 -0.817548 -1.6182 0
M  V30 5981 C 530.216 -3.5605 0.571006 0
M  V30 5982 O 529.32 -4.10422 -0.403431 0
M  V30 5983 H 528.661 -0.638866 0.180958 0
M  V30 5984 H 531.191 -1.70462 1.13154 0
M  V30 5985 H 531.201 -4.05488 0.452024 0
M  V30 5986 H 529.876 -3.84509 1.58512 0
M  V30 5987 H 528.453 -3.72113 -0.242147 0
M  V30 5988 N 530.638 -0.59345 -1.46 0
M  V30 5989 C 531.57 0.171569 -2.28557 0
M  V30 5990 C 532.583 0.845273 -1.39137 0
M  V30 5991 O 533.772 0.713033 -1.6364 0
M  V30 5992 C 530.872 1.26311 -3.14482 0
M  V30 5993 C 530.045 0.679258 -4.32094 0
M  V30 5994 C 529.104 1.65987 -4.99334 0
M  V30 5995 O 528.13 1.19171 -5.56585 0
M  V30 5996 N 529.332 2.99414 -4.97324 0
M  V30 5997 H 532.097 -0.536771 -2.94854 0
M  V30 5998 H 529.658 -0.431954 -1.56031 0
M  V30 5999 H 531.65 1.91863 -3.5633 0
M  V30 6000 H 530.22 1.87416 -2.50188 0
M  V30 6001 H 529.44 -0.153992 -3.93899 0
M  V30 6002 H 530.728 0.26916 -5.08088 0
M  V30 6003 H 530.126 3.40064 -4.52076 0
M  V30 6004 H 528.683 3.60426 -5.4308 0
M  V30 6005 N 532.116 1.54067 -0.331816 0
M  V30 6006 C 533.527 1.86059 0.15454 0
M  V30 6007 C 533.878 1.25331 1.50952 0
M  V30 6008 O 533.003 0.562441 2.08963 0
M  V30 6009 C 533.598 3.37581 0.287192 0
M  V30 6010 C 532.157 3.69493 0.717773 0
M  V30 6011 C 531.304 2.76863 -0.155569 0
M  V30 6012 H 534.255 1.48797 -0.55182 0
M  V30 6013 H 534.276 3.63744 1.11671 0
M  V30 6014 H 533.788 3.81751 -0.699131 0
M  V30 6015 H 531.889 3.3086 1.71354 0
M  V30 6016 H 532.002 4.76315 0.5158 0
M  V30 6017 H 530.366 2.51995 0.370213 0
M  V30 6018 H 531.149 3.23861 -1.13881 0
M  V30 6019 N 533.594 0.0601682 1.57485 0
M  V30 6020 C 534.834 -0.615384 1.94916 0
M  V30 6021 C 535.198 -1.67475 0.938948 0
M  V30 6022 O 536.399 -2.40502 1.20051 0
M  V30 6023 C 534.67 -1.18788 3.37082 0
M  V30 6024 S 536.229 -1.88018 3.96478 0
M  V30 6025 H 533.047 -0.201821 0.681754 0
M  V30 6026 H 535.649 0.131252 1.95059 0
M  V30 6027 H 534.353 -0.404869 4.08398 0
M  V30 6028 H 533.884 -1.97114 3.40455 0
M  V30 6029 H 535.899 -3.16161 3.82435 0
M  V30 6030 N 535.072 -1.5615 -0.213296 0
M  V30 6031 C 536.349 -1.70349 -0.961281 0
M  V30 6032 C 536.729 -0.609791 -2.02101 0
M  V30 6033 O 536.077 0.381987 -2.25285 0
M  V30 6034 C 536.287 -3.11982 -1.56424 0
M  V30 6035 C 537.635 -3.71649 -2.05334 0
M  V30 6036 O 538.659 -3.14995 -1.66302 0
M  V30 6037 O 537.518 -4.71038 -2.77102 0
M  V30 6038 H 534.612 -0.694121 -0.449582 0
M  V30 6039 H 537.158 -1.68464 -0.204426 0
M  V30 6040 H 535.93 -3.83046 -0.799457 0
M  V30 6041 H 535.553 -3.18019 -2.38641 0
M  V30 6042 N 536.55 0.480323 -1.50102 0
M  V30 6043 C 537.796 1.23489 -1.60867 0
M  V30 6044 C 538.129 1.91809 -0.303827 0
M  V30 6045 O 537.404 1.81694 0.694092 0
M  V30 6046 C 537.687 2.28578 -2.78252 0
M  V30 6047 C 537.54 1.64624 -4.18592 0
M  V30 6048 C 538.859 3.2997 -2.91218 0
M  V30 6049 H 535.978 0.447605 -0.585507 0
M  V30 6050 H 538.62 0.530005 -1.82458 0
M  V30 6051 H 536.77 2.88697 -2.59974 0
M  V30 6052 H 538.442 1.08173 -4.48438 0
M  V30 6053 H 536.685 0.949645 -4.23278 0
M  V30 6054 H 537.356 2.40946 -4.96638 0
M  V30 6055 H 539.832 2.79864 -3.07921 0
M  V30 6056 H 538.708 4.00839 -3.74993 0
M  V30 6057 H 538.969 3.93541 -2.0144 0
M  V30 6058 N 538.028 1.39524 0.732853 0
M  V30 6059 C 539.274 1.38072 1.49358 0
M  V30 6060 C 539.629 -0.0227943 1.92386 0
M  V30 6061 O 538.922 -0.98976 1.64056 0
M  V30 6062 C 539.116 2.28916 2.74468 0
M  V30 6063 C 538.945 3.7796 2.43673 0
M  V30 6064 C 537.715 4.46874 2.35863 0
M  V30 6065 C 539.913 4.69886 2.09074 0
M  V30 6066 N 537.895 5.81242 1.97561 0
M  V30 6067 C 539.266 5.9292 1.81234 0
M  V30 6068 C 541.321 4.57887 1.95561 0
M  V30 6069 C 540.024 7.05297 1.41242 0
M  V30 6070 C 542.05 5.70187 1.56972 0
M  V30 6071 C 541.412 6.92297 1.30018 0
M  V30 6072 H 537.511 0.56051 0.5453 0
M  V30 6073 H 540.095 1.75093 0.85151 0
M  V30 6074 H 538.266 1.9405 3.36451 0
M  V30 6075 H 539.998 2.18441 3.40684 0
M  V30 6076 H 536.753 4.00341 2.5303 0
M  V30 6077 H 537.177 6.52356 1.80997 0
M  V30 6078 H 541.819 3.64014 2.15067 0
M  V30 6079 H 539.537 7.99069 1.20476 0
M  V30 6080 H 543.123 5.62892 1.47119 0
M  V30 6081 H 542.003 7.7772 1.00605 0
M  V30 6082 N 539.506 -0.963266 1.24736 0
M  V30 6083 C 540.731 -1.74699 1.11781 0
M  V30 6084 C 541.156 -1.85267 -0.325258 0
M  V30 6085 O 540.514 -1.32681 -1.23553 0
M  V30 6086 C 540.562 -3.14322 1.76731 0
M  V30 6087 O 539.666 -3.99043 1.04109 0
M  V30 6088 H 539.007 -0.53684 0.390767 0
M  V30 6089 H 541.537 -1.20801 1.65131 0
M  V30 6090 H 541.547 -3.64824 1.82668 0
M  V30 6091 H 540.222 -3.05946 2.81726 0
M  V30 6092 H 538.799 -3.5752 1.05991 0
M  V30 6093 N 540.985 -1.06182 -1.16461 0
M  V30 6094 C 542.234 -0.772927 -1.86303 0
M  V30 6095 C 542.547 0.703187 -1.82523 0
M  V30 6096 O 543.753 1.10641 -2.47933 0
M  V30 6097 C 542.209 -1.33249 -3.34324 0
M  V30 6098 C 541.817 -2.83876 -3.46581 0
M  V30 6099 C 543.561 -1.12108 -4.09429 0
M  V30 6100 C 541.468 -3.33082 -4.88682 0
M  V30 6101 H 540.398 -0.285452 -0.697878 0
M  V30 6102 H 543.049 -1.28039 -1.31447 0
M  V30 6103 H 541.431 -0.7528 -3.88779 0
M  V30 6104 H 542.605 -3.47786 -3.02293 0
M  V30 6105 H 540.92 -3.03671 -2.84909 0
M  V30 6106 H 543.517 -1.46361 -5.14279 0
M  V30 6107 H 543.86 -0.0593832 -4.16258 0
M  V30 6108 H 544.393 -1.6665 -3.6121 0
M  V30 6109 H 541.132 -4.38726 -4.87032 0
M  V30 6110 H 540.652 -2.73919 -5.33599 0
M  V30 6111 H 542.331 -3.28344 -5.57494 0
M  V30 6112 N 542.463 1.3308 -0.844243 0
M  V30 6113 C 543.711 1.97215 -0.441676 0
M  V30 6114 C 544.032 1.67185 1.0037 0
M  V30 6115 O 543.302 0.973588 1.69994 0
M  V30 6116 H 541.882 0.72959 -0.160335 0
M  V30 6117 H 544.544 1.62348 -1.07838 0
M  V30 6118 H 543.64 3.06698 -0.57815 0
M  V30 6119 N 543.941 0.601185 1.45683 0
M  V30 6120 C 545.181 0.0968037 2.04171 0
M  V30 6121 C 545.545 -1.2466 1.46027 0
M  V30 6122 O 546.746 -1.84132 1.95829 0
M  V30 6123 C 545.017 0.051384 3.57363 0
M  V30 6124 S 546.576 -0.392737 4.37039 0
M  V30 6125 H 543.394 0.0464504 0.709481 0
M  V30 6126 H 545.996 0.797846 1.78479 0
M  V30 6127 H 544.7 1.03274 3.97193 0
M  V30 6128 H 544.231 -0.671853 3.87621 0
M  V30 6129 H 546.246 -1.64364 4.68187 0
M  V30 6130 N 545.419 -1.53889 0.339982 0
M  V30 6131 C 546.668 -2.00035 -0.258604 0
M  V30 6132 C 546.981 -1.23179 -1.51942 0
M  V30 6133 O 548.187 -1.59784 -2.19503 0
M  V30 6134 C 546.643 -3.56249 -0.511359 0
M  V30 6135 C 546.251 -4.41957 0.733349 0
M  V30 6136 C 547.995 -4.1082 -1.069 0
M  V30 6137 C 545.902 -5.89673 0.451591 0
M  V30 6138 H 544.832 -0.747284 -0.10041 0
M  V30 6139 H 547.483 -1.77776 0.454758 0
M  V30 6140 H 545.865 -3.7456 -1.28533 0
M  V30 6141 H 547.039 -4.35421 1.50815 0
M  V30 6142 H 545.354 -3.9836 1.21237 0
M  V30 6143 H 547.951 -5.18789 -1.2947 0
M  V30 6144 H 548.294 -3.63817 -2.02343 0
M  V30 6145 H 548.827 -3.96205 -0.355817 0
M  V30 6146 H 545.566 -6.40903 1.37565 0
M  V30 6147 H 545.086 -5.99122 -0.285193 0
M  V30 6148 H 546.765 -6.46965 0.0675067 0
M  V30 6149 N 546.897 -0.0685191 -1.57451 0
M  V30 6150 C 548.146 0.600898 -1.92541 0
M  V30 6151 C 548.459 1.70967 -0.950239 0
M  V30 6152 O 549.665 2.43844 -1.19384 0
M  V30 6153 C 548.121 1.12019 -3.42023 0
M  V30 6154 C 547.729 0.0426028 -4.4798 0
M  V30 6155 C 549.473 1.76386 -3.86119 0
M  V30 6156 C 547.38 0.575759 -5.88591 0
M  V30 6157 H 546.31 0.228225 -0.71863 0
M  V30 6158 H 548.961 -0.140223 -1.82963 0
M  V30 6159 H 547.343 1.91418 -3.46663 0
M  V30 6160 H 548.517 -0.73182 -4.54952 0
M  V30 6161 H 546.832 -0.504642 -4.13331 0
M  V30 6162 H 549.429 2.17302 -4.88553 0
M  V30 6163 H 549.772 2.62255 -3.23308 0
M  V30 6164 H 550.305 1.03615 -3.84069 0
M  V30 6165 H 547.044 -0.245691 -6.55039 0
M  V30 6166 H 546.564 1.31778 -5.85145 0
M  V30 6167 H 548.243 1.0532 -6.3837 0
M  V30 6168 N 548.375 1.56261 0.205012 0
M  V30 6169 C 549.622 1.8004 0.926927 0
M  V30 6170 C 549.95 0.640086 1.83666 0
M  V30 6171 O 549.205 -0.374702 1.92079 0
M  V30 6172 C 549.504 3.09722 1.78345 0
M  V30 6173 C 549.17 4.39082 1.02555 0
M  V30 6174 C 547.832 4.74226 0.816256 0
M  V30 6175 C 550.184 5.18877 0.491559 0
M  V30 6176 C 547.512 5.86668 0.0613287 0
M  V30 6177 C 549.864 6.32105 -0.250107 0
M  V30 6178 C 548.528 6.6584 -0.470508 0
M  V30 6179 H 547.798 0.658812 0.339187 0
M  V30 6180 H 550.445 1.90515 0.19395 0
M  V30 6181 H 548.75 2.9444 2.5848 0
M  V30 6182 H 550.447 3.25324 2.34446 0
M  V30 6183 H 547.037 4.11497 1.19868 0
M  V30 6184 H 551.221 4.92147 0.640684 0
M  V30 6185 H 546.477 6.11283 -0.119501 0
M  V30 6186 H 550.651 6.93157 -0.671307 0
M  V30 6187 H 548.278 7.5281 -1.05739 0
M  V30 6188 N 549.853 -0.472356 1.50355 0
M  V30 6189 C 550.763 -1.59637 1.7191 0
M  V30 6190 C 551.779 -1.63247 0.602195 0
M  V30 6191 O 552.955 -1.81139 0.880369 0
M  V30 6192 C 550.02 -2.9586 1.80742 0
M  V30 6193 C 549.081 -3.02649 3.04471 0
M  V30 6194 C 548.314 -4.32374 3.12872 0
M  V30 6195 O 548.537 -5.22807 2.28099 0
M  V30 6196 O 547.471 -4.44728 4.05587 0
M  V30 6197 H 551.297 -1.44373 2.67189 0
M  V30 6198 H 548.882 -0.651717 1.34436 0
M  V30 6199 H 550.764 -3.7677 1.88739 0
M  V30 6200 H 549.439 -3.11325 0.88647 0
M  V30 6201 H 548.346 -2.20821 3.01975 0
M  V30 6202 H 549.679 -2.92119 3.9614 0
M  V30 6203 N 551.331 -1.39911 -0.725443 0
M  V30 6204 C 552.561 -1.40744 -1.51244 0
M  V30 6205 C 552.969 -0.00275403 -1.892 0
M  V30 6206 O 552.312 0.981299 -1.55294 0
M  V30 6207 C 552.374 -2.22527 -2.82351 0
M  V30 6208 C 552.038 -3.71053 -2.66774 0
M  V30 6209 C 553.035 -4.63916 -2.34686 0
M  V30 6210 C 550.72 -4.14753 -2.83347 0
M  V30 6211 C 552.714 -5.98463 -2.19366 0
M  V30 6212 C 550.401 -5.49372 -2.67644 0
M  V30 6213 C 551.399 -6.41042 -2.357 0
M  V30 6214 O 551.087 -7.73181 -2.20107 0
M  V30 6215 H 550.819 -0.482314 -0.473655 0
M  V30 6216 H 553.373 -1.84472 -0.903284 0
M  V30 6217 H 551.603 -1.73563 -3.45562 0
M  V30 6218 H 553.292 -2.15421 -3.44018 0
M  V30 6219 H 554.058 -4.31453 -2.21525 0
M  V30 6220 H 549.937 -3.43728 -3.072 0
M  V30 6221 H 553.481 -6.69979 -1.94354 0
M  V30 6222 H 549.378 -5.81424 -2.80387 0
M  V30 6223 H 550.146 -7.84008 -2.35103 0
M  V30 6224 N 552.809 0.956637 -1.25245 0
M  V30 6225 C 554.039 1.7332 -1.12445 0
M  V30 6226 C 554.447 1.86392 0.324732 0
M  V30 6227 O 553.79 1.35967 1.23526 0
M  V30 6228 C 553.852 3.16603 -1.70303 0
M  V30 6229 C 553.516 3.26966 -3.19284 0
M  V30 6230 C 554.513 3.11434 -4.16299 0
M  V30 6231 C 552.198 3.50851 -3.59456 0
M  V30 6232 C 554.192 3.1963 -5.51467 0
M  V30 6233 C 551.879 3.58684 -4.94761 0
M  V30 6234 C 552.877 3.43087 -5.90576 0
M  V30 6235 O 552.565 3.50598 -7.2342 0
M  V30 6236 H 552.297 0.549981 -0.393061 0
M  V30 6237 H 554.851 1.20892 -1.66055 0
M  V30 6238 H 553.081 3.70385 -1.11138 0
M  V30 6239 H 554.77 3.76109 -1.52632 0
M  V30 6240 H 555.536 2.92853 -3.86604 0
M  V30 6241 H 551.415 3.62053 -2.85375 0
M  V30 6242 H 554.959 3.07373 -6.26233 0
M  V30 6243 H 550.856 3.76782 -5.24124 0
M  V30 6244 H 551.624 3.67242 -7.31489 0
M  V30 6245 N 554.287 1.06798 1.15896 0
M  V30 6246 C 555.533 0.788934 1.86825 0
M  V30 6247 C 555.866 -0.683084 1.8179 0
M  V30 6248 O 555.141 -1.50086 1.23711 0
M  V30 6249 C 555.424 1.29065 3.36176 0
M  V30 6250 C 555.277 2.8268 3.49874 0
M  V30 6251 C 556.596 0.902655 4.30744 0
M  V30 6252 H 553.715 0.288066 0.678371 0
M  V30 6253 H 556.357 1.32479 1.36195 0
M  V30 6254 H 554.507 0.834806 3.79425 0
M  V30 6255 H 556.179 3.36511 3.15528 0
M  V30 6256 H 554.422 3.21157 2.91617 0
M  V30 6257 H 555.093 3.12852 4.54783 0
M  V30 6258 H 557.569 1.29535 3.95424 0
M  V30 6259 H 556.445 1.28111 5.3374 0
M  V30 6260 H 556.706 -0.191951 4.41683 0
M  V30 6261 N 555.766 -1.3263 0.851289 0
M  V30 6262 C 557.014 -1.96978 0.452128 0
M  V30 6263 C 557.335 -1.67715 -0.99482 0
M  V30 6264 O 556.605 -0.98259 -1.69476 0
M  V30 6265 H 555.185 -0.72873 0.164202 0
M  V30 6266 H 557.847 -1.61774 1.08698 0
M  V30 6267 H 556.943 -3.06387 0.594407 0
M  V30 6268 N 557.244 -0.608902 -1.45362 0
M  V30 6269 C 558.491 -0.104607 -2.0223 0
M  V30 6270 C 558.819 1.26534 -1.47714 0
M  V30 6271 O 558.074 1.84855 -0.642435 0
M  V30 6272 C 558.373 -0.0167296 -3.57396 0
M  V30 6273 C 558.039 -1.32251 -4.31069 0
M  V30 6274 C 556.701 -1.68019 -4.50914 0
M  V30 6275 C 559.053 -2.18542 -4.73169 0
M  V30 6276 C 556.381 -2.89828 -5.10114 0
M  V30 6277 C 558.733 -3.39602 -5.33717 0
M  V30 6278 C 557.397 -3.7562 -5.51784 0
M  V30 6279 H 556.667 -0.0382785 -0.740011 0
M  V30 6280 H 559.314 -0.790782 -1.7441 0
M  V30 6281 H 557.619 0.752715 -3.84502 0
M  V30 6282 H 559.316 0.389634 -3.99103 0
M  V30 6283 H 555.906 -1.03411 -4.15938 0
M  V30 6284 H 560.09 -1.92208 -4.5757 0
M  V30 6285 H 555.346 -3.17839 -5.22291 0
M  V30 6286 H 559.52 -4.06716 -5.65292 0
M  V30 6287 H 557.147 -4.70093 -5.97425 0
M  V30 6288 N 558.722 1.53707 -0.348139 0
M  V30 6289 C 559.95 2.05406 0.248224 0
M  V30 6290 C 560.365 1.22282 1.43849 0
M  V30 6291 O 559.722 0.259244 1.80649 0
M  V30 6292 C 559.773 3.55446 0.658793 0
M  V30 6293 O 559.494 4.35417 -0.484149 0
M  V30 6294 C 560.995 4.23335 1.31539 0
M  V30 6295 H 558.215 0.669344 0.0471075 0
M  V30 6296 H 560.759 1.98257 -0.501456 0
M  V30 6297 H 558.914 3.62803 1.35841 0
M  V30 6298 H 559.328 5.24268 -0.155949 0
M  V30 6299 H 560.802 5.29692 1.55338 0
M  V30 6300 H 561.279 3.75967 2.27036 0
M  V30 6301 H 561.885 4.20184 0.657683 0
M  V30 6302 N 560.2 0.0768682 1.57412 0
M  V30 6303 C 561.13 -0.886026 2.16037 0
M  V30 6304 C 562.111 -1.30691 1.08876 0
M  V30 6305 O 563.296 -1.37705 1.36934 0
M  V30 6306 C 560.426 -2.1518 2.72608 0
M  V30 6307 C 559.38 -1.87015 3.8498 0
M  V30 6308 C 558.706 -3.20266 4.28175 0
M  V30 6309 C 560.006 -1.17143 5.08994 0
M  V30 6310 H 561.7 -0.397642 2.96748 0
M  V30 6311 H 559.246 -0.189823 1.42743 0
M  V30 6312 H 561.199 -2.82962 3.12266 0
M  V30 6313 H 559.923 -2.66269 1.89125 0
M  V30 6314 H 558.582 -1.21636 3.45833 0
M  V30 6315 H 558.23 -3.69207 3.41607 0
M  V30 6316 H 557.93 -3.0221 5.03927 0
M  V30 6317 H 559.454 -3.89237 4.70454 0
M  V30 6318 H 560.868 -1.75003 5.45937 0
M  V30 6319 H 559.265 -1.09328 5.90057 0
M  V30 6320 H 560.335 -0.151295 4.84664 0
M  V30 6321 N 561.678 -1.56367 -0.196722 0
M  V30 6322 C 562.925 -1.80529 -0.917366 0
M  V30 6323 C 563.253 -0.649817 -1.83324 0
M  V30 6324 O 562.508 0.36451 -1.92275 0
M  V30 6325 C 562.807 -3.10663 -1.767 0
M  V30 6326 C 562.473 -4.3962 -1.00225 0
M  V30 6327 C 561.135 -4.74653 -0.791095 0
M  V30 6328 C 563.487 -5.1913 -0.464035 0
M  V30 6329 C 560.815 -5.86692 -0.0302155 0
M  V30 6330 C 563.167 -6.31964 0.283625 0
M  V30 6331 C 561.831 -6.65581 0.505813 0
M  V30 6332 H 561.101 -0.660602 -0.335688 0
M  V30 6333 H 563.748 -1.90615 -0.183844 0
M  V30 6334 H 562.053 -2.95807 -2.56915 0
M  V30 6335 H 563.75 -3.26563 -2.32718 0
M  V30 6336 H 560.34 -4.12127 -1.17684 0
M  V30 6337 H 564.524 -4.9248 -0.614575 0
M  V30 6338 H 559.78 -6.11211 0.151917 0
M  V30 6339 H 563.954 -6.92791 0.708057 0
M  V30 6340 H 561.581 -7.52239 1.0973 0
M  V30 6341 N 563.156 0.464375 -1.50603 0
M  V30 6342 C 564.088 1.57916 -1.66118 0
M  V30 6343 C 565.101 1.53497 -0.54246 0
M  V30 6344 O 566.29 1.58763 -0.815877 0
M  V30 6345 C 563.39 2.96809 -1.63577 0
M  V30 6346 C 562.563 3.26026 -2.91592 0
M  V30 6347 C 561.622 4.44506 -2.81604 0
M  V30 6348 O 560.648 4.44484 -3.55559 0
M  V30 6349 N 561.85 5.46549 -1.95614 0
M  V30 6350 H 564.615 1.45022 -2.62276 0
M  V30 6351 H 562.176 0.652903 -1.48151 0
M  V30 6352 H 564.168 3.74048 -1.54499 0
M  V30 6353 H 562.738 3.03438 -0.751262 0
M  V30 6354 H 561.958 2.37337 -3.14746 0
M  V30 6355 H 563.246 3.42361 -3.76386 0
M  V30 6356 H 562.644 5.49391 -1.34854 0
M  V30 6357 H 561.201 6.22746 -1.92435 0
M  V30 6358 N 564.634 1.40294 0.718013 0
M  V30 6359 C 565.862 1.4175 1.50714 0
M  V30 6360 C 566.277 0.0165366 1.88793 0
M  V30 6361 O 565.634 -0.958942 1.55276 0
M  V30 6362 C 565.685 2.30598 2.784 0
M  V30 6363 O 565.406 3.6524 2.41932 0
M  V30 6364 C 566.907 2.4062 3.72313 0
M  V30 6365 H 564.127 0.483565 0.465194 0
M  V30 6366 H 566.671 1.84316 0.885889 0
M  V30 6367 H 564.826 1.91401 3.36815 0
M  V30 6368 H 565.24 4.12402 3.24076 0
M  V30 6369 H 566.714 3.07001 4.58753 0
M  V30 6370 H 567.191 1.4305 4.15251 0
M  V30 6371 H 567.797 2.80359 3.19811 0
M  V30 6372 N 566.112 -0.949982 1.2575 0
M  V30 6373 C 567.062 -2.03297 1.03221 0
M  V30 6374 C 568.046 -1.60867 -0.0324751 0
M  V30 6375 O 569.238 -1.76047 0.183423 0
M  V30 6376 C 566.367 -3.36938 0.657841 0
M  V30 6377 C 565.453 -3.85878 1.75952 0
M  V30 6378 N 565.844 -4.0756 2.99547 0
M  V30 6379 C 564.142 -4.14709 1.64111 0
M  V30 6380 C 564.843 -4.47961 3.71087 0
M  V30 6381 N 563.819 -4.5416 2.98731 0
M  V30 6382 H 567.621 -2.1806 1.97045 0
M  V30 6383 H 565.135 -1.13516 1.16138 0
M  V30 6384 H 567.132 -4.14155 0.477614 0
M  V30 6385 H 565.792 -3.2355 -0.273025 0
M  V30 6386 H 566.803 -3.94501 3.35544 0
M  V30 6387 H 563.48 -4.10158 0.779527 0
M  V30 6388 H 564.87 -4.73002 4.77199 0
M  V30 6389 N 567.59 -1.07411 -1.15328 0
M  V30 6390 C 568.867 -0.710732 -1.82231 0
M  V30 6391 C 569.247 0.806732 -1.95077 0
M  V30 6392 O 568.595 1.72139 -1.50268 0
M  V30 6393 C 568.805 -1.42586 -3.18544 0
M  V30 6394 C 570.153 -1.57836 -3.94174 0
M  V30 6395 O 571.177 -1.38669 -3.281 0
M  V30 6396 O 570.036 -1.8938 -5.12638 0
M  V30 6397 H 567.13 -0.25297 -0.78736 0
M  V30 6398 H 569.676 -1.17508 -1.22434 0
M  V30 6399 H 568.448 -2.46008 -3.04296 0
M  V30 6400 H 568.071 -0.952332 -3.86026 0
M  V30 6401 N 569.068 1.32177 -0.85831 0
M  V30 6402 C 570.016 2.30729 -0.294442 0
M  V30 6403 C 571.01 1.59009 0.584165 0
M  V30 6404 O 572.216 1.73713 0.471562 0
M  V30 6405 H 568.591 0.748097 -0.0765171 0
M  V30 6406 H 570.562 2.75774 -1.1398 0
M  V30 6407 C 569.311 3.44098 0.499208 0
M  V30 6408 H 568.634 3.99449 -0.167579 0
M  V30 6409 H 570.074 4.15202 0.859273 0
M  V30 6410 C 568.533 2.91684 1.68588 0
M  V30 6411 O 569.063 2.89481 2.78503 0
M  V30 6412 N 567.269 2.48036 1.51415 0
M  V30 6413 H 566.816 2.50027 0.620006 0
M  V30 6414 H 566.774 2.13322 2.30957 0
M  V30 6415 N 570.547 0.616602 1.45037 0
M  V30 6416 C 571.963 0.280994 1.57107 0
M  V30 6417 C 572.163 -1.21627 1.60653 0
M  V30 6418 O 571.219 -1.9997 1.54169 0
M  V30 6419 C 572.532 0.960116 2.8496 0
M  V30 6420 C 574.08 0.936884 2.98649 0
M  V30 6421 C 574.555 1.59619 4.29285 0
M  V30 6422 N 576.046 1.5621 4.36065 0
M  V30 6423 C 576.781 2.04131 5.35834 0
M  V30 6424 N 576.277 2.60177 6.4209 0
M  V30 6425 N 578.07 1.94845 5.27249 0
M  V30 6426 H 570.221 1.58867 1.40979 0
M  V30 6427 H 572.484 0.666024 0.674623 0
M  V30 6428 H 572.19 2.01473 2.88273 0
M  V30 6429 H 572.064 0.488921 3.74018 0
M  V30 6430 H 574.451 -0.109209 2.94898 0
M  V30 6431 H 574.532 1.44643 2.10979 0
M  V30 6432 H 574.176 2.64166 4.33796 0
M  V30 6433 H 574.106 1.06159 5.15789 0
M  V30 6434 H 576.597 1.15276 3.59889 0
M  V30 6435 H 576.91 2.94513 7.1448 0
M  V30 6436 H 575.255 2.64221 6.42816 0
M  V30 6437 H 578.446 1.50792 4.43147 0
M  V30 6438 H 578.619 2.32504 6.04852 0
M  V30 6439 N 572.025 -1.5352 0.356285 0
M  V30 6440 C 572.935 -2.29151 -0.502712 0
M  V30 6441 C 573.951 -1.34753 -1.1008 0
M  V30 6442 O 575.127 -1.67803 -1.11374 0
M  V30 6443 C 572.192 -3.05911 -1.63154 0
M  V30 6444 C 571.253 -4.15958 -1.06194 0
M  V30 6445 C 570.486 -4.8905 -2.13696 0
M  V30 6446 O 570.709 -4.61919 -3.34645 0
M  V30 6447 O 569.643 -5.75202 -1.77275 0
M  V30 6448 H 573.469 -3.03492 0.112466 0
M  V30 6449 H 571.054 -1.4891 0.120942 0
M  V30 6450 H 572.936 -3.53874 -2.28804 0
M  V30 6451 H 571.611 -2.34415 -2.23229 0
M  V30 6452 H 570.518 -3.7227 -0.369603 0
M  V30 6453 H 571.851 -4.89593 -0.505872 0
M  V30 6454 N 573.503 -0.0852151 -1.57369 0
M  V30 6455 C 574.453 0.88767 -2.10011 0
M  V30 6456 C 575.437 1.25021 -1.01285 0
M  V30 6457 O 576.629 1.22694 -1.27574 0
M  V30 6458 C 573.758 2.15037 -2.67608 0
M  V30 6459 C 572.844 1.81371 -3.83361 0
M  V30 6460 N 573.235 1.18216 -4.91791 0
M  V30 6461 C 571.533 2.11041 -3.92909 0
M  V30 6462 C 572.234 1.02941 -5.72519 0
M  V30 6463 N 571.21 1.54351 -5.21226 0
M  V30 6464 H 575.012 0.395279 -2.9123 0
M  V30 6465 H 572.526 0.11829 -1.61969 0
M  V30 6466 H 574.523 2.85667 -3.03644 0
M  V30 6467 H 573.183 2.64851 -1.8784 0
M  V30 6468 H 574.194 0.850168 -5.10874 0
M  V30 6469 H 570.871 2.63138 -3.24136 0
M  V30 6470 H 572.261 0.536298 -6.69756 0
M  V30 6471 N 574.981 1.5647 0.188427 0
M  V30 6472 C 575.911 1.98101 1.23606 0
M  V30 6473 C 576.892 0.853961 1.47111 0
M  V30 6474 O 578.077 1.11879 1.58735 0
M  V30 6475 C 575.207 2.32624 2.57882 0
M  V30 6476 C 574.161 3.48129 2.48978 0
M  V30 6477 C 573.487 3.68347 3.87588 0
M  V30 6478 C 574.787 4.82112 2.00911 0
M  V30 6479 H 576.481 2.85864 0.890068 0
M  V30 6480 H 574.027 1.37532 0.426714 0
M  V30 6481 H 575.98 2.60343 3.3136 0
M  V30 6482 H 574.704 1.41751 2.94235 0
M  V30 6483 H 573.363 3.20511 1.77956 0
M  V30 6484 H 573.011 2.74793 4.21305 0
M  V30 6485 H 572.711 4.46055 3.82503 0
M  V30 6486 H 574.235 3.98449 4.62678 0
M  V30 6487 H 575.649 5.08819 2.64151 0
M  V30 6488 H 574.046 5.63337 2.06814 0
M  V30 6489 H 575.116 4.75249 0.96262 0
M  V30 6490 N 576.459 -0.456382 1.50847 0
M  V30 6491 C 577.422 -1.53493 1.70213 0
M  V30 6492 C 578.422 -1.50264 0.572481 0
M  V30 6493 O 579.612 -1.52623 0.839751 0
M  V30 6494 C 576.744 -2.93091 1.741 0
M  V30 6495 H 577.937 -1.37633 2.66453 0
M  V30 6496 H 575.49 -0.683776 1.4055 0
M  V30 6497 H 576.225 -3.14378 0.796063 0
M  V30 6498 H 576.01 -2.9684 2.5618 0
M  V30 6499 H 577.5 -3.71368 1.90987 0
M  V30 6500 N 577.937 -1.40673 -0.710563 0
M  V30 6501 C 578.87 -1.35742 -1.83438 0
M  V30 6502 C 579.848 -0.226997 -1.61008 0
M  V30 6503 O 581.032 -0.411477 -1.83954 0
M  V30 6504 C 578.159 -1.11374 -3.19865 0
M  V30 6505 C 577.205 -2.26935 -3.61113 0
M  V30 6506 S 578.038 -3.89352 -3.67648 0
M  V30 6507 C 579.194 -3.67258 -5.06826 0
M  V30 6508 H 579.427 -2.30848 -1.87341 0
M  V30 6509 H 576.96 -1.27018 -0.877831 0
M  V30 6510 H 578.918 -0.980004 -3.9863 0
M  V30 6511 H 577.579 -0.179135 -3.13589 0
M  V30 6512 H 576.772 -2.0554 -4.60184 0
M  V30 6513 H 576.374 -2.36638 -2.89618 0
M  V30 6514 H 578.666 -3.26036 -5.93891 0
M  V30 6515 H 579.609 -4.65878 -5.33257 0
M  V30 6516 H 580.017 -3.0084 -4.77656 0
M  V30 6517 N 579.415 0.9433 -1.26252 0
M  V30 6518 C 580.348 2.04162 -1.01946 0
M  V30 6519 C 581.326 1.62507 0.0550808 0
M  V30 6520 O 582.51 1.883 -0.0869025 0
M  V30 6521 C 579.637 3.34313 -0.54335 0
M  V30 6522 C 578.683 3.94939 -1.61013 0
M  V30 6523 S 579.516 4.29484 -3.19849 0
M  V30 6524 C 580.672 5.62738 -2.74001 0
M  V30 6525 H 580.905 2.24466 -1.94942 0
M  V30 6526 H 578.438 1.08441 -1.09909 0
M  V30 6527 H 580.396 4.09576 -0.275315 0
M  V30 6528 H 579.057 3.11957 0.36629 0
M  V30 6529 H 578.25 4.88812 -1.22795 0
M  V30 6530 H 577.852 3.26202 -1.82943 0
M  V30 6531 H 580.144 6.41356 -2.18333 0
M  V30 6532 H 581.087 6.05839 -3.66558 0
M  V30 6533 H 581.495 5.22514 -2.13634 0
M  V30 6534 N 580.893 1.08022 1.14757 0
M  V30 6535 C 581.803 0.718292 2.23333 0
M  V30 6536 C 582.819 -0.273477 1.71837 0
M  V30 6537 O 583.995 -0.118406 2.01052 0
M  V30 6538 C 581.06 0.128855 3.4646 0
M  V30 6539 C 580.121 1.17473 4.12915 0
M  V30 6540 C 579.354 0.61333 5.30164 0
M  V30 6541 O 579.577 -0.568458 5.6756 0
M  V30 6542 O 578.511 1.3615 5.86299 0
M  V30 6543 H 582.337 1.62394 2.56636 0
M  V30 6544 H 579.922 0.853628 1.22611 0
M  V30 6545 H 581.804 -0.197249 4.20938 0
M  V30 6546 H 580.479 -0.750014 3.14891 0
M  V30 6547 H 579.386 1.5533 3.40328 0
M  V30 6548 H 580.719 2.02574 4.48581 0
M  V30 6549 N 582.371 -1.3172 0.865308 0
M  V30 6550 C 583.787 -1.4958 0.556596 0
M  V30 6551 C 583.987 -1.79763 -0.910353 0
M  V30 6552 O 583.043 -1.87351 -1.6928 0
M  V30 6553 C 584.356 -2.63277 1.45279 0
M  V30 6554 C 585.904 -2.77161 1.45433 0
M  V30 6555 C 586.379 -3.93949 2.33598 0
M  V30 6556 N 587.87 -4.01228 2.31453 0
M  V30 6557 C 588.605 -4.90855 2.96393 0
M  V30 6558 N 588.101 -5.85416 3.70486 0
M  V30 6559 N 589.894 -4.84063 2.85726 0
M  V30 6560 H 582.045 -1.10396 1.81456 0
M  V30 6561 H 584.308 -0.54507 0.775631 0
M  V30 6562 H 584.014 -2.47734 2.49641 0
M  V30 6563 H 583.888 -3.59309 1.14792 0
M  V30 6564 H 586.275 -2.9212 0.41831 0
M  V30 6565 H 586.356 -1.8181 1.79941 0
M  V30 6566 H 586 -3.79748 3.37274 0
M  V30 6567 H 585.93 -4.88598 1.96417 0
M  V30 6568 H 588.421 -3.3357 1.77593 0
M  V30 6569 H 588.734 -6.50525 4.17178 0
M  V30 6570 H 587.079 -5.85409 3.74594 0
M  V30 6571 H 590.27 -4.09163 2.27384 0
M  V30 6572 H 590.443 -5.53708 3.36617 0
M  V30 6573 N 583.85 -0.624285 -1.44708 0
M  V30 6574 C 585.099 -0.123539 -2.01321 0
M  V30 6575 C 585.412 1.25966 -1.49639 0
M  V30 6576 O 586.618 1.85405 -1.98336 0
M  V30 6577 C 585.074 -0.170124 -3.59498 0
M  V30 6578 C 584.682 -1.55421 -4.20176 0
M  V30 6579 C 586.426 0.274513 -4.23611 0
M  V30 6580 C 584.332 -1.55628 -5.70556 0
M  V30 6581 H 583.263 -0.0424183 -0.752806 0
M  V30 6582 H 585.913 -0.782076 -1.65999 0
M  V30 6583 H 584.296 0.555385 -3.92086 0
M  V30 6584 H 585.47 -2.30276 -3.99136 0
M  V30 6585 H 583.784 -1.94235 -3.68323 0
M  V30 6586 H 586.382 0.292402 -5.339 0
M  V30 6587 H 586.725 1.3005 -3.95465 0
M  V30 6588 H 587.258 -0.398275 -3.95801 0
M  V30 6589 H 583.997 -2.56041 -6.03426 0
M  V30 6590 H 583.517 -0.850563 -5.93739 0
M  V30 6591 H 585.196 -1.28721 -6.34066 0
M  V30 6592 N 585.328 1.53329 -0.364422 0
M  V30 6593 C 586.258 2.28627 0.474543 0
M  V30 6594 C 587.239 1.31009 1.08492 0
M  V30 6595 O 588.424 1.59878 1.10239 0
M  V30 6596 C 585.554 3.07465 1.61501 0
M  V30 6597 C 584.508 4.1276 1.13194 0
M  V30 6598 C 583.834 4.79674 2.36255 0
M  V30 6599 C 585.134 5.21847 0.217507 0
M  V30 6600 H 586.828 2.99005 -0.153656 0
M  V30 6601 H 584.374 1.43803 -0.0753406 0
M  V30 6602 H 586.327 3.58889 2.20855 0
M  V30 6603 H 585.051 2.34775 2.27042 0
M  V30 6604 H 583.71 3.62281 0.56109 0
M  V30 6605 H 583.358 4.03557 3.00251 0
M  V30 6606 H 583.058 5.50827 2.04606 0
M  V30 6607 H 584.582 5.33892 2.96297 0
M  V30 6608 H 585.996 5.6878 0.718493 0
M  V30 6609 H 584.393 6.00099 -0.00806408 0
M  V30 6610 H 585.463 4.7921 -0.740653 0
M  V30 6611 N 586.806 0.0935595 1.57322 0
M  V30 6612 C 588.054 -0.569383 1.93913 0
M  V30 6613 C 588.375 -1.68817 0.976009 0
M  V30 6614 O 587.645 -1.9588 0.0278099 0
M  V30 6615 H 586.225 -0.21332 0.715894 0
M  V30 6616 H 588.887 0.156531 1.9427 0
M  V30 6617 H 587.983 -0.980577 2.96296 0
M  V30 6618 N 588.284 -1.56567 -0.180126 0
M  V30 6619 C 589.695 -1.7126 -0.743422 0
M  V30 6620 C 590.046 -0.70263 -1.83187 0
M  V30 6621 O 589.171 0.137856 -2.1596 0
M  V30 6622 C 589.766 -3.10512 -1.35528 0
M  V30 6623 C 588.325 -3.26919 -1.8655 0
M  V30 6624 C 587.472 -2.67213 -0.741099 0
M  V30 6625 H 590.423 -1.58636 0.0451543 0
M  V30 6626 H 590.444 -3.08673 -2.22489 0
M  V30 6627 H 589.956 -3.83997 -0.562862 0
M  V30 6628 H 588.057 -2.58376 -2.68464 0
M  V30 6629 H 588.17 -4.34574 -2.01699 0
M  V30 6630 H 586.534 -2.26788 -1.15927 0
M  V30 6631 H 587.317 -3.43277 0.0393291 0
M  V30 6632 N 589.762 0.448376 -1.51087 0
M  V30 6633 C 591.011 1.19561 -1.62444 0
M  V30 6634 C 591.324 1.92602 -0.341151 0
M  V30 6635 O 592.53 2.69439 -0.333936 0
M  V30 6636 C 590.986 2.17373 -2.8684 0
M  V30 6637 C 590.594 1.5003 -4.22131 0
M  V30 6638 C 592.338 2.92597 -3.0755 0
M  V30 6639 C 590.245 2.46262 -5.37689 0
M  V30 6640 H 589.175 0.449975 -0.605011 0
M  V30 6641 H 591.826 0.463735 -1.77544 0
M  V30 6642 H 590.208 2.93948 -2.65349 0
M  V30 6643 H 591.382 0.790886 -4.53962 0
M  V30 6644 H 589.697 0.870011 -4.0721 0
M  V30 6645 H 592.294 3.64663 -3.91056 0
M  V30 6646 H 592.637 3.53306 -2.20183 0
M  V30 6647 H 593.17 2.23131 -3.29329 0
M  V30 6648 H 589.909 1.90258 -6.27281 0
M  V30 6649 H 589.429 3.15289 -5.10248 0
M  V30 6650 H 591.108 3.07623 -5.6919 0
M  V30 6651 N 591.24 1.41047 0.703093 0
M  V30 6652 C 592.651 1.35657 1.28274 0
M  V30 6653 C 593.002 0.0360309 1.96167 0
M  V30 6654 O 592.127 -0.865833 1.98324 0
M  V30 6655 C 592.722 2.45707 2.33267 0
M  V30 6656 C 591.281 2.43738 2.86825 0
M  V30 6657 C 590.428 2.25941 1.60767 0
M  V30 6658 H 593.379 1.50672 0.49836 0
M  V30 6659 H 593.4 2.14333 3.14391 0
M  V30 6660 H 592.912 3.41805 1.83824 0
M  V30 6661 H 591.013 1.51375 3.40465 0
M  V30 6662 H 591.126 3.39779 3.37768 0
M  V30 6663 H 589.49 1.73681 1.86298 0
M  V30 6664 H 590.273 3.24054 1.1333 0
M  V30 6665 N 592.718 -0.936591 1.26751 0
M  V30 6666 C 593.943 -1.72288 1.15462 0
M  V30 6667 C 594.368 -1.85915 -0.285887 0
M  V30 6668 O 593.726 -1.35272 -1.20711 0
M  V30 6669 C 593.774 -3.10503 1.83359 0
M  V30 6670 O 592.878 -3.96745 1.1255 0
M  V30 6671 H 592.219 -0.52843 0.402067 0
M  V30 6672 H 594.749 -1.17271 1.67656 0
M  V30 6673 H 594.759 -3.60867 1.90365 0
M  V30 6674 H 593.434 -2.99901 2.88153 0
M  V30 6675 H 592.011 -3.55191 1.13551 0
M  V30 6676 N 594.196 -1.08629 -1.14182 0
M  V30 6677 C 595.612 -0.814363 -1.3726 0
M  V30 6678 C 595.812 0.575271 -1.93114 0
M  V30 6679 O 594.868 1.33165 -2.1453 0
M  V30 6680 C 596.181 -1.8989 -2.33157 0
M  V30 6681 C 597.729 -1.92518 -2.46791 0
M  V30 6682 C 598.204 -3.00092 -3.45989 0
M  V30 6683 N 599.695 -2.99279 -3.53534 0
M  V30 6684 C 600.43 -3.79158 -4.30147 0
M  V30 6685 N 599.926 -4.68923 -5.09983 0
M  V30 6686 N 601.719 -3.67451 -4.25366 0
M  V30 6687 H 593.87 -1.98232 -0.762758 0
M  V30 6688 H 596.133 -0.860383 -0.398051 0
M  V30 6689 H 595.839 -2.89809 -1.99257 0
M  V30 6690 H 595.713 -1.77013 -3.33086 0
M  V30 6691 H 598.1 -0.932425 -2.79982 0
M  V30 6692 H 598.181 -2.09473 -1.46816 0
M  V30 6693 H 597.825 -3.99575 -3.13532 0
M  V30 6694 H 597.755 -2.80382 -4.45751 0
M  V30 6695 H 600.246 -2.3422 -2.96563 0
M  V30 6696 H 600.559 -5.26475 -5.65724 0
M  V30 6697 H 598.904 -4.72964 -5.09244 0
M  V30 6698 H 602.095 -2.9669 -3.62067 0
M  V30 6699 H 602.268 -4.29944 -4.84822 0
M  V30 6700 N 595.674 1.31259 -0.872281 0
M  V30 6701 C 596.607 2.26544 -0.274394 0
M  V30 6702 C 597.585 1.51213 0.597776 0
M  V30 6703 O 598.769 1.80277 0.550687 0
M  V30 6704 C 595.896 3.33139 0.611256 0
M  V30 6705 C 594.942 4.26077 -0.189876 0
M  V30 6706 S 595.775 5.11971 -1.56989 0
M  V30 6707 C 596.931 6.2208 -0.690427 0
M  V30 6708 H 597.164 2.76908 -1.0821 0
M  V30 6709 H 594.697 1.3906 -0.670939 0
M  V30 6710 H 596.655 3.95024 1.11654 0
M  V30 6711 H 595.316 2.81525 1.39294 0
M  V30 6712 H 594.509 5.01657 0.485433 0
M  V30 6713 H 594.111 3.68701 -0.627339 0
M  V30 6714 H 596.403 6.77429 0.098001 0
M  V30 6715 H 597.346 6.93768 -1.41742 0
M  V30 6716 H 597.754 5.63915 -0.256953 0
M  V30 6717 N 597.152 0.631951 1.44375 0
M  V30 6718 C 598.401 0.134214 2.01253 0
M  V30 6719 C 598.714 -1.25171 1.50305 0
M  V30 6720 O 599.92 -1.8435 1.99317 0
M  V30 6721 C 598.376 0.189187 3.59402 0
M  V30 6722 C 597.984 1.57647 4.19346 0
M  V30 6723 C 599.728 -0.252044 4.23751 0
M  V30 6724 C 597.635 1.58651 5.69722 0
M  V30 6725 H 596.565 0.0464101 0.75257 0
M  V30 6726 H 599.216 0.790868 1.65582 0
M  V30 6727 H 597.598 -0.534584 3.92375 0
M  V30 6728 H 598.772 2.32389 3.97909 0
M  V30 6729 H 597.087 1.96186 3.67288 0
M  V30 6730 H 599.684 -0.264084 5.34047 0
M  V30 6731 H 600.027 -1.27951 3.96149 0
M  V30 6732 H 600.56 0.41926 3.95584 0
M  V30 6733 H 597.299 2.59237 6.0206 0
M  V30 6734 H 596.819 0.882039 5.93279 0
M  V30 6735 H 598.498 1.32082 6.33375 0
M  V30 6736 N 598.631 -1.53133 0.372548 0
M  V30 6737 C 600.047 -1.59585 0.02178 0
M  V30 6738 C 600.247 -1.38736 -1.46132 0
M  V30 6739 O 599.303 -1.19599 -2.22379 0
M  V30 6740 C 600.616 -2.9678 0.483959 0
M  V30 6741 C 602.164 -3.09909 0.438775 0
M  V30 6742 C 602.639 -4.49527 0.876876 0
M  V30 6743 N 604.13 -4.55663 0.832214 0
M  V30 6744 C 604.865 -5.61896 1.14281 0
M  V30 6745 N 604.361 -6.75852 1.52303 0
M  V30 6746 N 606.154 -5.51916 1.06515 0
M  V30 6747 H 598.305 -1.64936 1.33827 0
M  V30 6748 H 600.568 -0.773947 0.547458 0
M  V30 6749 H 600.274 -3.17198 1.51915 0
M  V30 6750 H 600.148 -3.7699 -0.125784 0
M  V30 6751 H 602.535 -2.89197 -0.587294 0
M  V30 6752 H 602.616 -2.31691 1.0841 0
M  V30 6753 H 602.26 -4.70979 1.90109 0
M  V30 6754 H 602.19 -5.26186 0.208727 0
M  V30 6755 H 604.681 -3.73844 0.552195 0
M  V30 6756 H 604.994 -7.52862 1.7441 0
M  V30 6757 H 603.339 -6.77226 1.56175 0
M  V30 6758 H 606.53 -4.6177 0.767235 0
M  V30 6759 H 606.703 -6.34609 1.31053 0
M  V30 6760 N 600.109 -0.101901 -1.5727 0
M  V30 6761 C 601.056 0.854577 -2.14396 0
M  V30 6762 C 602.026 1.27521 -1.06432 0
M  V30 6763 O 603.211 1.35575 -1.34253 0
M  V30 6764 C 600.351 2.10576 -2.73408 0
M  V30 6765 C 599.464 1.73504 -3.95626 0
M  V30 6766 C 598.599 2.9346 -4.42781 0
M  V30 6767 C 597.638 2.52547 -5.57572 0
M  V30 6768 N 596.775 3.65359 -5.99547 0
M  V30 6769 H 601.615 0.360578 -2.9581 0
M  V30 6770 H 599.152 0.166303 -1.46157 0
M  V30 6771 H 601.11 2.83859 -3.05745 0
M  V30 6772 H 599.74 2.57463 -1.94711 0
M  V30 6773 H 598.792 0.901622 -3.6956 0
M  V30 6774 H 600.104 1.39426 -4.78917 0
M  V30 6775 H 599.258 3.74988 -4.76937 0
M  V30 6776 H 597.997 3.30753 -3.58404 0
M  V30 6777 H 597.002 1.69446 -5.23037 0
M  V30 6778 H 598.227 2.1639 -6.43702 0
M  V30 6779 H 596.173 4.02358 -5.18116 0
M  V30 6780 H 596.09 3.35148 -6.77652 0
M  V30 6781 H 597.358 4.47378 -6.38336 0
M  V30 6782 N 601.587 1.56661 0.17182 0
M  V30 6783 C 602.815 1.861 0.904115 0
M  V30 6784 C 603.23 0.687227 1.75848 0
M  V30 6785 O 602.587 -0.343671 1.79235 0
M  V30 6786 C 602.638 3.14568 1.78127 0
M  V30 6787 O 602.359 4.27422 0.961366 0
M  V30 6788 C 603.86 3.5735 2.62327 0
M  V30 6789 H 601.08 0.617445 0.262684 0
M  V30 6790 H 603.624 2.03775 0.172068 0
M  V30 6791 H 601.779 2.98721 2.46666 0
M  V30 6792 H 602.193 5.00725 1.56123 0
M  V30 6793 H 603.667 4.50144 3.1949 0
M  V30 6794 H 604.144 2.81445 3.37173 0
M  V30 6795 H 604.75 3.75807 1.99121 0
M  V30 6796 N 603.065 -0.440357 1.51323 0
M  V30 6797 C 604.481 -0.7766 1.39431 0
M  V30 6798 C 604.681 -1.95838 0.474296 0
M  V30 6799 O 603.737 -2.52398 -0.0716692 0
M  V30 6800 C 605.05 -1.05981 2.81405 0
M  V30 6801 C 606.598 -1.16442 2.90534 0
M  V30 6802 C 607.073 -1.48058 4.33408 0
M  V30 6803 N 608.564 -1.54988 4.36501 0
M  V30 6804 C 609.299 -1.81017 5.44078 0
M  V30 6805 N 608.795 -2.04858 6.61819 0
M  V30 6806 N 610.588 -1.82774 5.31554 0
M  V30 6807 H 602.739 0.338006 2.09693 0
M  V30 6808 H 605.002 0.0888072 0.943831 0
M  V30 6809 H 604.708 -0.264173 3.50706 0
M  V30 6810 H 604.582 -1.98822 3.20546 0
M  V30 6811 H 606.969 -1.95068 2.21432 0
M  V30 6812 H 607.05 -0.215088 2.54894 0
M  V30 6813 H 606.694 -0.699605 5.03059 0
M  V30 6814 H 606.624 -2.44192 4.66559 0
M  V30 6815 H 609.115 -1.38479 3.51613 0
M  V30 6816 H 609.428 -2.2408 7.396 0
M  V30 6817 H 607.773 -2.02187 6.6494 0
M  V30 6818 H 610.964 -1.63665 4.38556 0
M  V30 6819 H 611.137 -2.02722 6.15474 0
M  V30 6820 N 604.543 -1.41418 -0.695603 0
M  V30 6821 C 605.49 -1.43264 -1.80954 0
M  V30 6822 C 606.46 -0.287016 -1.63601 0
M  V30 6823 O 607.645 -0.488054 -1.84452 0
M  V30 6824 C 604.785 -1.32054 -3.18835 0
M  V30 6825 C 603.898 -2.56485 -3.4762 0
M  V30 6826 C 603.033 -2.3757 -4.75115 0
M  V30 6827 C 602.072 -3.57477 -4.96867 0
M  V30 6828 N 601.209 -3.37632 -6.15588 0
M  V30 6829 H 606.049 -2.38467 -1.78711 0
M  V30 6830 H 603.586 -1.18415 -0.872715 0
M  V30 6831 H 605.544 -1.23558 -3.98484 0
M  V30 6832 H 604.174 -0.404592 -3.20254 0
M  V30 6833 H 603.226 -2.75432 -2.62376 0
M  V30 6834 H 604.538 -3.45678 -3.59594 0
M  V30 6835 H 603.692 -2.2654 -5.62818 0
M  V30 6836 H 602.431 -1.45834 -4.65386 0
M  V30 6837 H 601.436 -3.68961 -4.07612 0
M  V30 6838 H 602.661 -4.50167 -5.08455 0
M  V30 6839 H 600.607 -2.48596 -6.07072 0
M  V30 6840 H 600.524 -4.20401 -6.2833 0
M  V30 6841 H 601.792 -3.30375 -7.06026 0
M  V30 6842 N 606.021 0.929856 -1.27246 0
M  V30 6843 C 606.953 2.03434 -1.0558 0
M  V30 6844 C 607.966 1.62795 -0.0125762 0
M  V30 6845 O 609.155 1.76685 -0.2539 0
M  V30 6846 C 606.255 3.33915 -0.57912 0
M  V30 6847 C 605.428 4.03259 -1.69415 0
M  V30 6848 C 604.487 5.12014 -1.21357 0
M  V30 6849 O 603.513 5.36097 -1.91282 0
M  V30 6850 N 604.715 5.8046 -0.0680622 0
M  V30 6851 H 607.48 2.22583 -2.00691 0
M  V30 6852 H 605.041 1.1001 -1.18783 0
M  V30 6853 H 607.033 4.03978 -0.241563 0
M  V30 6854 H 605.603 3.11355 0.278703 0
M  V30 6855 H 604.823 3.26958 -2.20209 0
M  V30 6856 H 606.111 4.46337 -2.44255 0
M  V30 6857 H 605.509 5.63345 0.515626 0
M  V30 6858 H 604.066 6.51461 0.210332 0
M  V30 6859 N 607.499 1.09233 1.13605 0
M  V30 6860 C 608.446 0.729921 2.18954 0
M  V30 6861 C 609.416 -0.287916 1.63586 0
M  V30 6862 O 610.601 -0.170003 1.90041 0
M  V30 6863 C 607.741 0.154489 3.44754 0
M  V30 6864 C 606.854 1.22613 4.14234 0
M  V30 6865 C 605.989 0.613657 5.27644 0
M  V30 6866 C 605.028 1.66674 5.8897 0
M  V30 6867 N 604.165 1.07545 6.93814 0
M  V30 6868 H 609.005 1.63257 2.49302 0
M  V30 6869 H 606.542 0.815693 1.22413 0
M  V30 6870 H 608.5 -0.196923 4.16735 0
M  V30 6871 H 607.13 -0.711433 3.14863 0
M  V30 6872 H 606.182 1.69485 3.40557 0
M  V30 6873 H 607.494 2.0238 4.55899 0
M  V30 6874 H 606.648 0.210976 6.06333 0
M  V30 6875 H 605.387 -0.215584 4.87223 0
M  V30 6876 H 604.392 2.07899 5.08978 0
M  V30 6877 H 605.617 2.49861 6.31464 0
M  V30 6878 H 603.563 0.267451 6.55455 0
M  V30 6879 H 603.48 1.81011 7.3401 0
M  V30 6880 H 604.748 0.698906 7.7636 0
M  V30 6881 N 608.977 -1.30795 0.87923 0
M  V30 6882 C 610.207 -2.00237 0.50881 0
M  V30 6883 C 610.615 -1.66115 -0.905682 0
M  V30 6884 O 609.958 -0.89138 -1.60624 0
M  V30 6885 C 610.02 -3.54508 0.597003 0
M  V30 6886 C 609.684 -4.12131 1.97477 0
M  V30 6887 C 610.681 -4.28552 2.94346 0
M  V30 6888 C 608.366 -4.47644 2.2786 0
M  V30 6889 C 610.36 -4.79689 4.19735 0
M  V30 6890 C 608.047 -4.98481 3.53496 0
M  V30 6891 C 609.045 -5.14456 4.49248 0
M  V30 6892 O 608.733 -5.64199 5.72656 0
M  V30 6893 H 608.465 -0.647026 0.195788 0
M  V30 6894 H 611.019 -1.67785 1.1848 0
M  V30 6895 H 609.249 -3.86461 -0.135945 0
M  V30 6896 H 610.938 -4.05198 0.238684 0
M  V30 6897 H 611.704 -4.01424 2.72183 0
M  V30 6898 H 607.583 -4.34481 1.54102 0
M  V30 6899 H 611.127 -4.92073 4.9448 0
M  V30 6900 H 607.024 -5.25044 3.75498 0
M  V30 6901 H 607.792 -5.82551 5.74957 0
M  V30 6902 N 610.455 -0.639598 -1.44038 0
M  V30 6903 C 611.702 -0.14748 -2.01962 0
M  V30 6904 C 612.03 1.23372 -1.50365 0
M  V30 6905 O 611.285 1.8345 -0.681501 0
M  V30 6906 C 611.584 -0.0925348 -3.5728 0
M  V30 6907 C 611.25 -1.41365 -4.28167 0
M  V30 6908 C 609.912 -1.77545 -4.47248 0
M  V30 6909 C 612.264 -2.2853 -4.68427 0
M  V30 6910 C 609.592 -3.00583 -5.03852 0
M  V30 6911 C 611.944 -3.50846 -5.26393 0
M  V30 6912 C 610.608 -3.8724 -5.43692 0
M  V30 6913 H 609.878 -0.0539666 -0.739032 0
M  V30 6914 H 612.525 -0.827599 -1.72694 0
M  V30 6915 H 610.83 0.670987 -3.86012 0
M  V30 6916 H 612.527 0.304891 -3.99839 0
M  V30 6917 H 609.117 -1.1221 -4.13651 0
M  V30 6918 H 613.301 -2.0187 -4.5339 0
M  V30 6919 H 608.557 -3.28846 -5.15432 0
M  V30 6920 H 612.731 -4.18616 -5.56537 0
M  V30 6921 H 610.358 -4.8266 -5.87319 0
M  V30 6922 N 611.933 1.52934 -0.380664 0
M  V30 6923 C 613.163 2.05587 0.204302 0
M  V30 6924 C 613.571 1.25288 1.41773 0
M  V30 6925 O 612.914 0.290394 1.8139 0
M  V30 6926 C 612.976 3.53624 0.647324 0
M  V30 6927 C 612.64 4.54765 -0.451465 0
M  V30 6928 C 613.637 5.03226 -1.30614 0
M  V30 6929 C 611.322 4.98508 -0.616025 0
M  V30 6930 C 613.316 5.94046 -2.31058 0
M  V30 6931 C 611.003 5.89131 -1.62381 0
M  V30 6932 C 612.001 6.36792 -2.46952 0
M  V30 6933 O 611.689 7.25626 -3.46009 0
M  V30 6934 H 611.421 0.675013 0.0365198 0
M  V30 6935 H 613.975 1.98125 -0.541827 0
M  V30 6936 H 612.205 3.58676 1.44529 0
M  V30 6937 H 613.894 3.89061 1.15698 0
M  V30 6938 H 614.66 4.70167 -1.19027 0
M  V30 6939 H 610.539 4.60989 0.0324987 0
M  V30 6940 H 614.083 6.3117 -2.97104 0
M  V30 6941 H 609.98 6.21603 -1.7401 0
M  V30 6942 H 610.748 7.43664 -3.41916 0
M  V30 6943 N 613.412 0.11024 1.57214 0
M  V30 6944 C 614.828 -0.24638 1.57687 0
M  V30 6945 C 615.028 -1.67344 1.12241 0
M  V30 6946 O 614.084 -2.39298 0.805783 0
M  V30 6947 C 615.397 -0.0210288 3.00693 0
M  V30 6948 C 616.945 -0.0876077 3.12877 0
M  V30 6949 C 617.42 0.10994 4.57868 0
M  V30 6950 N 618.911 0.0556135 4.63167 0
M  V30 6951 C 619.646 0.183495 5.73106 0
M  V30 6952 N 619.142 0.367058 6.91827 0
M  V30 6953 N 620.935 0.123689 5.61964 0
M  V30 6954 H 613.086 1.04246 1.85058 0
M  V30 6955 H 615.349 0.40979 0.854854 0
M  V30 6956 H 615.055 0.965203 3.38196 0
M  V30 6957 H 614.929 -0.756748 3.69531 0
M  V30 6958 H 617.316 -1.06436 2.75237 0
M  V30 6959 H 617.397 0.67985 2.466 0
M  V30 6960 H 617.041 1.08362 4.96206 0
M  V30 6961 H 616.971 -0.677397 5.22225 0
M  V30 6962 H 619.462 -0.0831062 3.77809 0
M  V30 6963 H 619.775 0.455739 7.71455 0
M  V30 6964 H 618.12 0.40292 6.93831 0
M  V30 6965 H 621.311 -0.0186928 4.68096 0
M  V30 6966 H 621.484 0.226797 6.47603 0
M  V30 6967 N 614.89 -1.56749 -0.16351 0
M  V30 6968 C 616.138 -1.82074 -0.87713 0
M  V30 6969 C 616.459 -0.688503 -1.82441 0
M  V30 6970 O 615.729 0.291085 -1.93725 0
M  V30 6971 H 614.309 -0.671677 -0.326893 0
M  V30 6972 H 616.971 -1.9423 -0.161459 0
M  V30 6973 H 616.067 -2.76407 -1.44934 0
M  V30 6974 N 616.368 0.432326 -1.51554 0
M  V30 6975 C 617.784 0.769195 -1.39841 0
M  V30 6976 C 617.984 1.95584 -0.484675 0
M  V30 6977 O 617.04 2.52433 0.0582829 0
M  V30 6978 C 618.353 1.04487 -2.81963 0
M  V30 6979 C 619.901 1.149 -2.91148 0
M  V30 6980 C 620.376 1.45758 -4.34187 0
M  V30 6981 N 621.867 1.52671 -4.37317 0
M  V30 6982 C 622.602 1.78129 -5.4503 0
M  V30 6983 N 622.098 2.01345 -6.62897 0
M  V30 6984 N 623.891 1.79953 -5.32516 0
M  V30 6985 H 616.042 -0.349122 -2.09511 0
M  V30 6986 H 618.305 -0.0938113 -0.943347 0
M  V30 6987 H 618.011 0.24557 -3.50842 0
M  V30 6988 H 617.885 1.97119 -3.21596 0
M  V30 6989 H 620.272 1.93891 -2.22464 0
M  V30 6990 H 620.353 0.201568 -2.55005 0
M  V30 6991 H 619.997 0.672917 -5.03423 0
M  V30 6992 H 619.927 2.41715 -4.67848 0
M  V30 6993 H 622.418 1.36612 -3.52343 0
M  V30 6994 H 622.731 2.20155 -7.40778 0
M  V30 6995 H 621.076 1.98657 -6.66003 0
M  V30 6996 H 624.267 1.61337 -4.39418 0
M  V30 6997 H 624.44 1.99455 -6.1654 0
M  V30 6998 N 617.846 1.41785 0.688094 0
M  V30 6999 C 618.776 1.47 1.8142 0
M  V30 7000 C 619.757 0.327881 1.6691 0
M  V30 7001 O 620.942 0.540362 1.86531 0
M  V30 7002 C 618.072 1.35876 3.19617 0
M  V30 7003 C 617.026 2.47976 3.48844 0
M  V30 7004 C 616.352 2.21915 4.86475 0
M  V30 7005 C 617.652 3.90309 3.47068 0
M  V30 7006 H 619.346 2.41247 1.77314 0
M  V30 7007 H 616.892 1.16116 0.851651 0
M  V30 7008 H 618.845 1.38134 3.98117 0
M  V30 7009 H 617.569 0.38116 3.24368 0
M  V30 7010 H 616.228 2.45013 2.72698 0
M  V30 7011 H 615.876 1.2248 4.8786 0
M  V30 7012 H 615.576 2.97037 5.06994 0
M  V30 7013 H 617.1 2.25901 5.67275 0
M  V30 7014 H 618.514 3.94947 4.1556 0
M  V30 7015 H 616.911 4.65175 3.7912 0
M  V30 7016 H 617.981 4.17927 2.45896 0
M  V30 7017 N 619.324 -0.923095 1.27737 0
M  V30 7018 C 620.601 -1.64989 1.05062 0
M  V30 7019 C 620.981 -2.07018 -0.413124 0
M  V30 7020 O 620.329 -1.80797 -1.39731 0
M  V30 7021 C 620.539 -2.84847 2.01652 0
M  V30 7022 C 621.887 -3.56083 2.31279 0
M  V30 7023 O 622.911 -2.94981 1.99662 0
M  V30 7024 O 621.77 -4.66182 2.85196 0
M  V30 7025 H 618.864 -0.723357 0.400853 0
M  V30 7026 H 621.41 -0.973224 1.3902 0
M  V30 7027 H 620.182 -2.50814 3.00347 0
M  V30 7028 H 619.805 -3.60231 1.68284 0
M  V30 7029 N 620.802 -1.09834 -1.13024 0
M  V30 7030 C 622.048 -0.848072 -1.84876 0
M  V30 7031 C 622.403 0.619663 -1.82148 0
M  V30 7032 O 621.696 1.45067 -1.25164 0
M  V30 7033 C 621.89 -1.32263 -3.32026 0
M  V30 7034 C 621.719 -2.83497 -3.49084 0
M  V30 7035 C 620.489 -3.51425 -3.63082 0
M  V30 7036 C 622.687 -3.81623 -3.44773 0
M  V30 7037 N 620.669 -4.91042 -3.68443 0
M  V30 7038 C 622.04 -5.07217 -3.56555 0
M  V30 7039 C 624.095 -3.74419 -3.282 0
M  V30 7040 C 622.798 -6.26457 -3.53474 0
M  V30 7041 C 624.824 -4.93151 -3.26429 0
M  V30 7042 C 624.186 -6.1759 -3.38765 0
M  V30 7043 H 620.285 -0.363249 -0.692513 0
M  V30 7044 H 622.869 -1.39952 -1.35357 0
M  V30 7045 H 621.04 -0.79858 -3.80102 0
M  V30 7046 H 622.772 -1.01725 -3.91707 0
M  V30 7047 H 619.527 -3.0186 -3.64935 0
M  V30 7048 H 619.951 -5.63782 -3.74805 0
M  V30 7049 H 624.593 -2.79132 -3.17561 0
M  V30 7050 H 622.311 -7.22039 -3.62884 0
M  V30 7051 H 625.897 -4.8928 -3.14796 0
M  V30 7052 H 624.777 -7.07925 -3.37361 0
M  V30 7053 N 622.28 1.30327 -0.886154 0
M  V30 7054 C 623.557 1.90922 -0.425217 0
M  V30 7055 C 623.937 1.80533 1.09413 0
M  V30 7056 O 623.285 1.2233 1.92996 0
M  V30 7057 C 623.495 3.36529 -0.924638 0
M  V30 7058 C 624.843 4.13598 -0.960305 0
M  V30 7059 O 625.867 3.45377 -0.871382 0
M  V30 7060 O 624.726 5.35482 -1.09184 0
M  V30 7061 H 621.82 0.81668 -0.130238 0
M  V30 7062 H 624.366 1.38886 -0.975132 0
M  V30 7063 H 623.138 3.38181 -1.96849 0
M  V30 7064 H 622.761 3.96021 -0.353955 0
M  V30 7065 N 623.758 0.647228 1.43697 0
M  V30 7066 C 624.668 -0.0487997 2.34549 0
M  V30 7067 C 625.684 -0.818586 1.53542 0
M  V30 7068 O 626.86 -0.767195 1.86215 0
M  V30 7069 C 623.925 -1.00734 3.31743 0
M  V30 7070 C 622.986 -0.23515 4.28655 0
M  V30 7071 C 622.219 -1.14803 5.21206 0
M  V30 7072 O 622.442 -2.38717 5.18045 0
M  V30 7073 O 621.376 -0.623667 5.9866 0
M  V30 7074 H 625.202 0.698863 2.9555 0
M  V30 7075 H 622.787 0.407412 1.43738 0
M  V30 7076 H 624.669 -1.55837 3.91526 0
M  V30 7077 H 623.344 -1.73534 2.73254 0
M  V30 7078 H 622.251 0.359319 3.7237 0
M  V30 7079 H 623.584 0.453152 4.9011 0
M  V30 7080 N 625.236 -1.5273 0.388769 0
M  V30 7081 C 626.184 -2.27975 -0.461527 0
M  V30 7082 C 627.178 -1.31854 -1.06352 0
M  V30 7083 O 628.384 -1.49394 -1.00406 0
M  V30 7084 H 624.759 -0.733088 -0.16759 0
M  V30 7085 H 626.73 -2.97765 0.194579 0
M  V30 7086 C 625.479 -3.09881 -1.577 0
M  V30 7087 H 624.802 -3.83701 -1.12309 0
M  V30 7088 H 626.242 -3.6567 -2.14619 0
M  V30 7089 C 624.701 -2.22159 -2.53272 0
M  V30 7090 O 625.231 -1.84802 -3.56667 0
M  V30 7091 N 623.437 -1.8633 -2.23001 0
M  V30 7092 H 622.984 -2.16909 -1.38954 0
M  V30 7093 H 622.942 -1.27927 -2.87197 0
M  V30 7094 N 626.714 -0.118576 -1.57153 0
M  V30 7095 C 627.942 0.54726 -1.99531 0
M  V30 7096 C 628.357 1.60251 -0.998246 0
M  V30 7097 O 627.714 1.82498 0.00893106 0
M  V30 7098 C 627.765 1.17378 -3.41913 0
M  V30 7099 O 627.486 0.160703 -4.37805 0
M  V30 7100 C 628.987 1.92297 -3.9942 0
M  V30 7101 H 626.207 0.144919 -0.655164 0
M  V30 7102 H 628.751 -0.20479 -2.03472 0
M  V30 7103 H 626.906 1.87661 -3.38913 0
M  V30 7104 H 627.32 0.61586 -5.20872 0
M  V30 7105 H 628.794 2.31462 -5.01128 0
M  V30 7106 H 629.271 2.79801 -3.38538 0
M  V30 7107 H 629.877 1.26777 -4.05965 0
M  V30 7108 N 628.193 1.56834 0.155195 0
M  V30 7109 C 629.418 1.87412 0.888337 0
M  V30 7110 C 629.843 0.70671 1.74319 0
M  V30 7111 O 629.201 -0.343892 1.78009 0
M  V30 7112 C 629.249 3.1652 1.72765 0
M  V30 7113 O 628.353 2.99877 2.83103 0
M  V30 7114 H 627.694 0.615983 0.247914 0
M  V30 7115 H 630.224 2.04061 0.148478 0
M  V30 7116 H 630.234 3.48334 2.12433 0
M  V30 7117 H 628.909 4.01094 1.09985 0
M  V30 7118 H 627.486 2.79453 2.46902 0
M  V30 7119 N 629.671 -0.424282 1.51781 0
M  V30 7120 C 630.634 -1.49848 1.73431 0
M  V30 7121 C 631.634 -1.49016 0.604225 0
M  V30 7122 O 632.824 -1.50808 0.871935 0
M  V30 7123 C 629.956 -2.89332 1.80277 0
M  V30 7124 H 631.149 -1.3195 2.69312 0
M  V30 7125 H 628.702 -0.653809 1.41968 0
M  V30 7126 H 629.437 -3.12618 0.862568 0
M  V30 7127 H 629.222 -2.9134 2.62419 0
M  V30 7128 H 630.712 -3.67233 1.98821 0
M  V30 7129 N 631.149 -1.42148 -0.680565 0
M  V30 7130 C 632.397 -1.42029 -1.43779 0
M  V30 7131 C 632.718 -0.0356347 -1.94967 0
M  V30 7132 O 631.988 0.924936 -1.7269 0
M  V30 7133 H 630.568 -0.522835 -0.533529 0
M  V30 7134 H 633.23 -1.7752 -0.804538 0
M  V30 7135 H 632.326 -2.11658 -2.29363 0
M  V30 7136 N 632.627 0.916307 -1.28225 0
M  V30 7137 C 634.043 1.19425 -1.05876 0
M  V30 7138 C 634.243 2.005 0.2005 0
M  V30 7139 O 633.299 2.35806 0.902873 0
M  V30 7140 C 634.612 1.93133 -2.30478 0
M  V30 7141 C 636.16 2.06026 -2.35632 0
M  V30 7142 C 636.635 2.83141 -3.59994 0
M  V30 7143 N 638.126 2.90704 -3.60618 0
M  V30 7144 C 638.861 3.50865 -4.53521 0
M  V30 7145 N 638.357 4.12327 -5.56739 0
M  V30 7146 N 640.15 3.48379 -4.41122 0
M  V30 7147 H 632.301 0.37496 -2.09064 0
M  V30 7148 H 634.564 0.228531 -0.920042 0
M  V30 7149 H 634.27 1.40985 -3.22205 0
M  V30 7150 H 634.144 2.93696 -2.36691 0
M  V30 7151 H 636.531 2.57355 -1.44404 0
M  V30 7152 H 636.612 1.04647 -2.33415 0
M  V30 7153 H 636.256 2.32492 -4.51564 0
M  V30 7154 H 636.186 3.84829 -3.59464 0
M  V30 7155 H 638.677 2.47034 -2.85977 0
M  V30 7156 H 638.99 4.56205 -6.23776 0
M  V30 7157 H 637.335 4.10839 -5.60568 0
M  V30 7158 H 640.526 2.99572 -3.59686 0
M  V30 7159 H 640.699 3.94974 -5.13712 0
M  V30 7160 N 634.105 1.10431 1.1244 0
M  V30 7161 C 635.335 0.867612 1.87499 0
M  V30 7162 C 635.743 -0.585475 1.79913 0
M  V30 7163 O 635.086 -1.41539 1.171 0
M  V30 7164 C 635.148 1.2374 3.37533 0
M  V30 7165 C 634.812 2.69751 3.68895 0
M  V30 7166 C 635.809 3.67988 3.67261 0
M  V30 7167 C 633.494 3.06135 3.98229 0
M  V30 7168 C 635.488 5.00632 3.9452 0
M  V30 7169 C 633.175 4.38967 4.25149 0
M  V30 7170 C 634.173 5.36025 4.23281 0
M  V30 7171 O 633.861 6.66465 4.49533 0
M  V30 7172 H 633.593 0.311196 0.600111 0
M  V30 7173 H 636.147 1.47257 1.43194 0
M  V30 7174 H 634.377 0.575537 3.82393 0
M  V30 7175 H 636.066 0.978187 3.93937 0
M  V30 7176 H 636.832 3.41224 3.44661 0
M  V30 7177 H 632.711 2.31214 3.98825 0
M  V30 7178 H 636.255 5.7638 3.92978 0
M  V30 7179 H 632.152 4.6547 4.47223 0
M  V30 7180 H 632.92 6.72095 4.67152 0
M  V30 7181 N 635.583 -1.29855 0.893053 0
M  V30 7182 C 636.829 -1.96116 0.516349 0
M  V30 7183 C 637.162 -1.70281 -0.933695 0
M  V30 7184 O 636.437 -1.01205 -1.66096 0
M  V30 7185 C 636.72 -3.51068 0.801455 0
M  V30 7186 C 636.573 -3.86387 2.30272 0
M  V30 7187 C 637.892 -4.39186 0.283423 0
M  V30 7188 H 635.011 -0.712335 0.189072 0
M  V30 7189 H 637.653 -1.53587 1.11852 0
M  V30 7190 H 635.803 -3.87424 0.288949 0
M  V30 7191 H 637.475 -3.60012 2.88425 0
M  V30 7192 H 635.718 -3.34167 2.76613 0
M  V30 7193 H 636.389 -4.94512 2.45279 0
M  V30 7194 H 638.865 -4.09785 0.722187 0
M  V30 7195 H 637.741 -5.46505 0.512169 0
M  V30 7196 H 638.002 -4.34511 -0.815643 0
M  V30 7197 N 637.061 -0.65484 -1.43351 0
M  V30 7198 C 638.477 -0.32255 -1.56307 0
M  V30 7199 C 638.677 1.17324 -1.63821 0
M  V30 7200 O 637.733 1.95813 -1.59417 0
M  V30 7201 C 639.046 -1.03533 -2.82314 0
M  V30 7202 C 640.594 -1.01574 -2.9606 0
M  V30 7203 C 641.069 -1.70945 -4.24902 0
M  V30 7204 N 642.56 -1.67716 -4.3177 0
M  V30 7205 C 643.295 -2.18265 -5.30234 0
M  V30 7206 N 642.791 -2.7711 -6.34966 0
M  V30 7207 N 644.584 -2.08756 -5.21898 0
M  V30 7208 H 636.735 -1.62549 -1.36717 0
M  V30 7209 H 638.998 -0.683676 -0.656727 0
M  V30 7210 H 638.704 -2.09045 -2.8283 0
M  V30 7211 H 638.578 -0.587913 -3.7259 0
M  V30 7212 H 640.965 0.0309834 -2.95084 0
M  V30 7213 H 641.046 -1.50186 -2.07069 0
M  V30 7214 H 640.69 -2.75574 -4.26639 0
M  V30 7215 H 640.62 -1.19797 -5.12793 0
M  V30 7216 H 643.111 -1.24777 -3.56706 0
M  V30 7217 H 643.424 -3.13353 -7.06421 0
M  V30 7218 H 641.769 -2.81171 -6.35585 0
M  V30 7219 H 644.96 -1.62488 -4.38994 0
M  V30 7220 H 645.133 -2.48459 -5.98475 0
M  V30 7221 N 638.539 1.52521 -0.396863 0
M  V30 7222 C 639.449 2.30403 0.44178 0
M  V30 7223 C 640.465 1.37625 1.06468 0
M  V30 7224 O 641.641 1.70697 1.06886 0
M  V30 7225 C 638.706 3.1013 1.54986 0
M  V30 7226 C 637.767 4.18628 0.951279 0
M  V30 7227 C 637 4.94543 2.00655 0
M  V30 7228 O 637.223 4.70629 3.22281 0
M  V30 7229 O 636.157 5.797 1.61962 0
M  V30 7230 H 639.983 3.03087 -0.192892 0
M  V30 7231 H 637.568 1.48537 -0.16038 0
M  V30 7232 H 639.45 3.59816 2.19341 0
M  V30 7233 H 638.125 2.40251 2.16935 0
M  V30 7234 H 637.032 3.73119 0.270773 0
M  V30 7235 H 638.365 4.90763 0.375887 0
M  V30 7236 N 640.017 0.126909 1.57088 0
M  V30 7237 C 640.965 -0.837618 2.16995 0
M  V30 7238 C 641.959 -1.26974 1.12133 0
M  V30 7239 O 643.165 -1.24056 1.30423 0
M  V30 7240 H 639.54 -0.288256 0.694559 0
M  V30 7241 H 641.511 -0.307957 2.96807 0
M  V30 7242 C 640.26 -2.07474 2.79016 0
M  V30 7243 H 639.583 -1.75117 3.59408 0
M  V30 7244 H 641.023 -2.72949 3.24461 0
M  V30 7245 C 639.482 -2.86967 1.76498 0
M  V30 7246 O 640.012 -3.82625 1.22316 0
M  V30 7247 N 638.218 -2.51111 1.46258 0
M  V30 7248 H 637.765 -1.73389 1.90509 0
M  V30 7249 H 637.723 -3.04594 0.779085 0
M  V30 7250 N 641.495 -1.56914 -0.146875 0
M  V30 7251 C 642.735 -1.85163 -0.86568 0
M  V30 7252 C 643.099 -0.711215 -1.78342 0
M  V30 7253 O 644.3 -0.874754 -2.54168 0
M  V30 7254 C 642.571 -3.18593 -1.61967 0
M  V30 7255 S 644.13 -3.68397 -2.38388 0
M  V30 7256 H 640.948 -0.6494 -0.289483 0
M  V30 7257 H 643.55 -1.95096 -0.125679 0
M  V30 7258 H 642.254 -3.99562 -0.93694 0
M  V30 7259 H 641.785 -3.11666 -2.40058 0
M  V30 7260 H 643.8 -3.37672 -3.63582 0
M  V30 7261 N 642.974 0.416227 -1.52004 0
M  V30 7262 C 643.921 1.50666 -1.74838 0
M  V30 7263 C 644.891 1.55245 -0.590599 0
M  V30 7264 O 646.076 1.71928 -0.827374 0
M  V30 7265 C 643.216 2.88185 -1.89851 0
M  V30 7266 C 642.329 2.92971 -3.17478 0
M  V30 7267 C 641.464 4.21745 -3.22962 0
M  V30 7268 C 640.503 4.20478 -4.4482 0
M  V30 7269 N 639.64 5.40811 -4.47736 0
M  V30 7270 H 644.48 1.30498 -2.67907 0
M  V30 7271 H 642.017 0.633568 -1.32757 0
M  V30 7272 H 643.975 3.68007 -1.96537 0
M  V30 7273 H 642.605 3.06865 -1.00169 0
M  V30 7274 H 641.657 2.05684 -3.19997 0
M  V30 7275 H 642.969 2.87899 -4.07328 0
M  V30 7276 H 642.123 5.09954 -3.28682 0
M  V30 7277 H 640.862 4.29503 -2.31038 0
M  V30 7278 H 639.867 3.30659 -4.39254 0
M  V30 7279 H 641.092 4.14366 -5.38031 0
M  V30 7280 H 639.038 5.4925 -3.58692 0
M  V30 7281 H 638.955 5.37705 -5.31422 0
M  V30 7282 H 640.223 6.30993 -4.57676 0
M  V30 7283 N 644.452 1.42507 0.673017 0
M  V30 7284 C 645.863 1.38347 1.25367 0
M  V30 7285 C 646.214 0.0776327 1.96046 0
M  V30 7286 O 645.339 -0.823571 2.00116 0
M  V30 7287 C 645.934 2.506 2.28002 0
M  V30 7288 C 644.493 2.49767 2.81591 0
M  V30 7289 C 643.64 2.293 1.55938 0
M  V30 7290 H 646.591 1.51695 0.466288 0
M  V30 7291 H 646.612 2.20953 3.09774 0
M  V30 7292 H 646.124 3.45627 1.76532 0
M  V30 7293 H 644.225 1.58563 3.37177 0
M  V30 7294 H 644.338 3.46867 3.30485 0
M  V30 7295 H 642.702 1.77594 1.82572 0
M  V30 7296 H 643.485 3.26385 1.06431 0
M  V30 7297 N 645.93 -0.909495 1.28709 0
M  V30 7298 C 646.86 -2.0291 1.15542 0
M  V30 7299 C 647.841 -1.7002 0.0521017 0
M  V30 7300 O 649.026 -1.92835 0.229849 0
M  V30 7301 C 646.156 -3.37458 0.820935 0
M  V30 7302 C 645.11 -3.84524 1.87949 0
M  V30 7303 C 644.436 -5.16086 1.39854 0
M  V30 7304 C 645.736 -4.05918 3.28676 0
M  V30 7305 H 647.43 -2.14183 2.09203 0
M  V30 7306 H 644.976 -1.02913 1.00722 0
M  V30 7307 H 646.929 -4.1528 0.715571 0
M  V30 7308 H 645.653 -3.26249 -0.151374 0
M  V30 7309 H 644.312 -3.08911 1.97408 0
M  V30 7310 H 643.96 -5.01284 0.41518 0
M  V30 7311 H 643.66 -5.48547 2.1064 0
M  V30 7312 H 645.184 -5.96459 1.30649 0
M  V30 7313 H 646.598 -4.74252 3.22115 0
M  V30 7314 H 644.995 -4.49717 3.97334 0
M  V30 7315 H 646.065 -3.10583 3.72379 0
M  V30 7316 N 647.408 -1.11026 -1.11852 0
M  V30 7317 C 648.824 -0.843294 -1.35502 0
M  V30 7318 C 649.024 0.534179 -1.9429 0
M  V30 7319 O 648.08 1.28585 -2.17307 0
M  V30 7320 C 649.393 -1.94793 -2.29077 0
M  V30 7321 C 650.941 -1.97709 -2.42652 0
M  V30 7322 C 651.416 -3.07364 -3.39546 0
M  V30 7323 N 652.907 -3.0671 -3.47107 0
M  V30 7324 C 653.642 -3.88197 -4.22008 0
M  V30 7325 N 653.138 -4.79635 -4.99922 0
M  V30 7326 N 654.931 -3.76391 -4.17476 0
M  V30 7327 H 647.082 -1.99805 -0.720538 0
M  V30 7328 H 649.345 -0.868633 -0.379711 0
M  V30 7329 H 649.051 -2.93971 -1.93065 0
M  V30 7330 H 648.925 -1.84039 -3.29256 0
M  V30 7331 H 651.312 -0.991604 -2.77941 0
M  V30 7332 H 651.393 -2.1254 -1.4234 0
M  V30 7333 H 651.037 -4.06136 -3.04985 0
M  V30 7334 H 650.967 -2.89774 -4.39703 0
M  V30 7335 H 653.458 -2.40457 -2.91528 0
M  V30 7336 H 653.771 -5.38357 -5.54429 0
M  V30 7337 H 652.116 -4.8366 -4.99097 0
M  V30 7338 H 655.307 -3.04303 -3.55693 0
M  V30 7339 H 655.48 -4.40131 -4.75593 0
M  V30 7340 N 648.886 1.2938 -0.899927 0
M  V30 7341 C 650.302 1.48052 -0.596059 0
M  V30 7342 C 650.502 1.82114 0.862372 0
M  V30 7343 O 649.558 1.91774 1.64253 0
M  V30 7344 C 650.871 2.59332 -1.52208 0
M  V30 7345 C 652.419 2.73208 -1.5273 0
M  V30 7346 C 652.894 3.87617 -2.43961 0
M  V30 7347 N 654.385 3.9495 -2.42009 0
M  V30 7348 C 655.12 4.82824 -3.09303 0
M  V30 7349 N 654.616 5.75387 -3.85877 0
M  V30 7350 N 656.409 4.76317 -2.98459 0
M  V30 7351 H 648.56 1.05546 -1.8432 0
M  V30 7352 H 650.823 0.524314 -0.78981 0
M  V30 7353 H 650.529 2.41029 -2.56121 0
M  V30 7354 H 650.403 3.56139 -1.24278 0
M  V30 7355 H 652.79 2.90908 -0.495614 0
M  V30 7356 H 652.871 1.76975 -1.84698 0
M  V30 7357 H 652.515 3.70672 -3.47224 0
M  V30 7358 H 652.445 4.83218 -2.09303 0
M  V30 7359 H 654.936 3.28744 -1.86375 0
M  V30 7360 H 655.249 6.39235 -4.34279 0
M  V30 7361 H 653.594 5.75272 -3.89984 0
M  V30 7362 H 656.785 4.0299 -2.38152 0
M  V30 7363 H 656.958 5.44589 -3.51179 0
M  V30 7364 N 650.364 0.662433 1.43002 0
M  V30 7365 C 651.594 0.187343 2.05749 0
M  V30 7366 C 652.002 -1.15582 1.49791 0
M  V30 7367 O 651.345 -1.72651 0.627487 0
M  V30 7368 C 651.407 0.0316493 3.59486 0
M  V30 7369 C 651.071 1.30156 4.38073 0
M  V30 7370 C 652.068 2.23234 4.69535 0
M  V30 7371 C 649.753 1.54572 4.77926 0
M  V30 7372 C 651.747 3.39012 5.39768 0
M  V30 7373 C 649.434 2.70641 5.47902 0
M  V30 7374 C 650.432 3.62687 5.78746 0
M  V30 7375 O 650.12 4.76728 6.47291 0
M  V30 7376 H 649.852 0.0915214 0.669776 0
M  V30 7377 H 652.406 0.905982 1.8434 0
M  V30 7378 H 650.636 -0.742451 3.79506 0
M  V30 7379 H 652.325 -0.401977 4.03905 0
M  V30 7380 H 653.091 2.05616 4.39257 0
M  V30 7381 H 648.97 0.83804 4.53319 0
M  V30 7382 H 652.514 4.10877 5.63761 0
M  V30 7383 H 648.411 2.88189 5.77596 0
M  V30 7384 H 649.179 4.76113 6.65777 0
M  V30 7385 N 651.842 -1.52309 0.404946 0
M  V30 7386 C 652.772 -2.29805 -0.41376 0
M  V30 7387 C 653.753 -1.3384 -1.0498 0
M  V30 7388 O 654.938 -1.62745 -1.05961 0
M  V30 7389 C 652.068 -3.11639 -1.53292 0
M  V30 7390 C 651.022 -4.15616 -1.02211 0
M  V30 7391 C 650.348 -4.8577 -2.23455 0
M  V30 7392 C 651.648 -5.2224 -0.0790725 0
M  V30 7393 H 653.342 -2.98493 0.232878 0
M  V30 7394 H 650.888 -1.43552 0.113441 0
M  V30 7395 H 652.841 -3.64618 -2.11262 0
M  V30 7396 H 651.565 -2.40712 -2.20738 0
M  V30 7397 H 650.224 -3.63641 -0.46484 0
M  V30 7398 H 649.872 -4.11376 -2.89445 0
M  V30 7399 H 649.572 -5.56058 -1.89929 0
M  V30 7400 H 651.096 -5.4156 -2.82038 0
M  V30 7401 H 652.51 -5.70485 -0.567438 0
M  V30 7402 H 650.907 -5.99867 0.167167 0
M  V30 7403 H 651.977 -4.77078 0.867447 0
M  V30 7404 N 653.32 -0.135238 -1.57019 0
M  V30 7405 C 654.548 0.526066 -2.001 0
M  V30 7406 C 654.963 1.59184 -1.01519 0
M  V30 7407 O 654.32 1.82497 -0.0104258 0
M  V30 7408 C 654.371 1.13744 -3.43139 0
M  V30 7409 O 654.092 0.114259 -4.37951 0
M  V30 7410 C 655.593 1.8805 -4.01438 0
M  V30 7411 H 652.813 0.137962 -0.656664 0
M  V30 7412 H 655.357 -0.226359 -2.03243 0
M  V30 7413 H 653.512 1.84056 -3.40885 0
M  V30 7414 H 653.926 0.56058 -5.21496 0
M  V30 7415 H 655.4 2.26133 -5.03555 0
M  V30 7416 H 655.877 2.76194 -3.41487 0
M  V30 7417 H 656.483 1.22464 -4.07287 0
M  V30 7418 N 654.798 1.5699 0.138552 0
M  V30 7419 C 656.023 1.88344 0.86841 0
M  V30 7420 C 656.448 0.725159 1.7356 0
M  V30 7421 O 655.806 -0.324992 1.78363 0
M  V30 7422 C 655.854 3.18334 1.69398 0
M  V30 7423 O 654.958 3.02863 2.79907 0
M  V30 7424 H 654.299 0.618577 0.241367 0
M  V30 7425 H 656.829 2.04207 0.126826 0
M  V30 7426 H 656.839 3.50567 2.08726 0
M  V30 7427 H 655.514 4.02238 1.05725 0
M  V30 7428 H 654.091 2.82056 2.43924 0
M  V30 7429 N 656.276 -0.40816 1.52223 0
M  V30 7430 C 657.186 -1.52202 1.78526 0
M  V30 7431 C 658.202 -1.60546 0.670892 0
M  V30 7432 O 659.378 -1.77242 0.956404 0
M  V30 7433 C 656.443 -2.87928 1.93128 0
M  V30 7434 C 655.504 -2.89463 3.17033 0
M  V30 7435 C 654.737 -4.18715 3.30929 0
M  V30 7436 O 654.96 -5.12662 2.50067 0
M  V30 7437 O 653.894 -4.27125 4.24084 0
M  V30 7438 H 657.72 -1.32911 2.73072 0
M  V30 7439 H 655.305 -0.594112 1.37079 0
M  V30 7440 H 657.187 -3.68426 2.04549 0
M  V30 7441 H 655.862 -3.07285 1.01772 0
M  V30 7442 H 654.769 -2.07815 3.11069 0
M  V30 7443 H 656.102 -2.75055 4.08174 0
M  V30 7444 N 657.755 -1.42862 -0.66545 0
M  V30 7445 C 658.718 -1.46756 -1.76055 0
M  V30 7446 C 659.718 -0.353866 -1.56858 0
M  V30 7447 O 660.908 -0.615099 -1.62979 0
M  V30 7448 C 658.04 -1.30829 -3.14796 0
M  V30 7449 H 659.233 -2.44271 -1.73987 0
M  V30 7450 H 656.786 -1.29447 -0.875965 0
M  V30 7451 H 657.521 -0.342733 -3.22484 0
M  V30 7452 H 657.306 -2.11551 -3.30134 0
M  V30 7453 H 658.796 -1.36458 -3.94676 0
M  V30 7454 N 659.233 0.902656 -1.29189 0
M  V30 7455 C 660.143 2.03946 -1.15944 0
M  V30 7456 C 661.159 1.738 -0.0833803 0
M  V30 7457 O 662.335 1.9923 -0.29487 0
M  V30 7458 C 659.4 3.36519 -0.834006 0
M  V30 7459 C 658.461 3.80203 -1.9936 0
M  V30 7460 C 657.694 5.06449 -1.68359 0
M  V30 7461 O 657.917 5.67202 -0.603141 0
M  V30 7462 O 656.851 5.46114 -2.53067 0
M  V30 7463 H 660.677 2.18043 -2.11403 0
M  V30 7464 H 658.262 1.02584 -1.08613 0
M  V30 7465 H 660.144 4.16089 -0.666949 0
M  V30 7466 H 658.819 3.23573 0.0908245 0
M  V30 7467 H 657.726 3.01413 -2.21588 0
M  V30 7468 H 659.059 3.97729 -2.89952 0
M  V30 7469 N 660.711 1.11618 1.11262 0
M  V30 7470 C 661.621 0.78898 2.20935 0
M  V30 7471 C 662.637 -0.21867 1.7262 0
M  V30 7472 O 663.813 -0.0543826 2.01327 0
M  V30 7473 C 660.878 0.239014 3.45875 0
M  V30 7474 C 659.939 1.3055 4.08968 0
M  V30 7475 C 659.172 0.781687 5.27944 0
M  V30 7476 O 659.395 -0.387605 5.69082 0
M  V30 7477 O 658.329 1.54734 5.81671 0
M  V30 7478 H 662.155 1.70477 2.51339 0
M  V30 7479 H 659.74 0.892203 1.19834 0
M  V30 7480 H 661.622 -0.0632312 4.21353 0
M  V30 7481 H 660.297 -0.649454 3.17118 0
M  V30 7482 H 659.204 1.66079 3.35214 0
M  V30 7483 H 660.537 2.16743 4.41909 0
M  V30 7484 N 662.189 -1.289 0.906776 0
M  V30 7485 C 663.139 -2.25122 0.361109 0
M  V30 7486 C 664.123 -1.52169 -0.52283 0
M  V30 7487 O 665.315 -1.73223 -0.363691 0
M  V30 7488 C 662.444 -3.40915 -0.403982 0
M  V30 7489 C 661.53 -4.21198 0.495279 0
M  V30 7490 N 661.921 -4.79636 1.60572 0
M  V30 7491 C 660.219 -4.45027 0.294372 0
M  V30 7492 C 660.92 -5.39977 2.16332 0
M  V30 7493 N 659.896 -5.23753 1.45546 0
M  V30 7494 H 663.698 -2.67869 1.20927 0
M  V30 7495 H 661.212 -1.43592 0.758632 0
M  V30 7496 H 663.209 -4.08922 -0.811695 0
M  V30 7497 H 661.869 -2.99703 -1.24932 0
M  V30 7498 H 662.88 -4.78209 1.98838 0
M  V30 7499 H 659.557 -4.14348 -0.512021 0
M  V30 7500 H 660.947 -5.96266 3.09704 0
M  V30 7501 N 663.667 -0.670007 -1.42649 0
M  V30 7502 C 664.617 0.0339546 -2.27975 0
M  V30 7503 C 665.601 0.778295 -1.40824 0
M  V30 7504 O 666.793 0.657997 -1.64315 0
M  V30 7505 C 663.922 0.987899 -3.28779 0
M  V30 7506 C 663.008 0.241153 -4.23414 0
M  V30 7507 N 663.399 -0.751392 -5.00188 0
M  V30 7508 C 661.697 0.480269 -4.43407 0
M  V30 7509 C 662.398 -1.19615 -5.69269 0
M  V30 7510 N 661.374 -0.527045 -5.41039 0
M  V30 7511 H 665.176 -0.727425 -2.84756 0
M  V30 7512 H 662.69 -0.498673 -1.54554 0
M  V30 7513 H 664.687 1.50716 -3.88703 0
M  V30 7514 H 663.347 1.74916 -2.73559 0
M  V30 7515 H 664.358 -1.13075 -5.05405 0
M  V30 7516 H 661.035 1.2214 -3.99234 0
M  V30 7517 H 662.425 -2.01836 -6.40868 0
M  V30 7518 N 665.145 1.52092 -0.413018 0
M  V30 7519 C 666.077 2.24819 0.445994 0
M  V30 7520 C 667.09 1.27925 1.00692 0
M  V30 7521 O 668.279 1.53845 0.905204 0
M  V30 7522 C 665.379 2.96951 1.6332 0
M  V30 7523 C 664.552 4.20746 1.19548 0
M  V30 7524 C 663.611 4.75668 2.25003 0
M  V30 7525 O 662.637 5.38148 1.85434 0
M  V30 7526 N 663.839 4.57579 3.57214 0
M  V30 7527 H 666.604 2.99176 -0.177209 0
M  V30 7528 H 664.165 1.60102 -0.240601 0
M  V30 7529 H 666.157 3.30586 2.33441 0
M  V30 7530 H 664.727 2.25756 2.16225 0
M  V30 7531 H 663.947 3.92881 0.32224 0
M  V30 7532 H 665.235 5.01132 0.880033 0
M  V30 7533 H 664.633 4.07758 3.92109 0
M  V30 7534 H 663.19 4.95642 4.23299 0
M  V30 7535 N 666.623 0.143563 1.56945 0
M  V30 7536 C 667.553 -0.7936 2.196 0
M  V30 7537 C 668.534 -1.25955 1.14321 0
M  V30 7538 O 669.719 -1.31773 1.42651 0
M  V30 7539 C 666.849 -2.03424 2.81489 0
M  V30 7540 C 665.803 -1.70519 3.92565 0
M  V30 7541 C 665.129 -3.01817 4.41373 0
M  V30 7542 C 666.429 -0.95449 5.13504 0
M  V30 7543 H 668.123 -0.271423 2.98167 0
M  V30 7544 H 665.669 -0.12911 1.4342 0
M  V30 7545 H 667.622 -2.69463 3.23987 0
M  V30 7546 H 666.346 -2.58008 2.00248 0
M  V30 7547 H 665.005 -1.06859 3.5068 0
M  V30 7548 H 664.653 -3.54386 3.56959 0
M  V30 7549 H 664.353 -2.80565 5.16292 0
M  V30 7550 H 665.877 -3.68934 4.86539 0
M  V30 7551 H 667.291 -1.5169 5.52868 0
M  V30 7552 H 665.688 -0.842035 5.94163 0
M  V30 7553 H 666.758 0.0544033 4.84869 0
M  V30 7554 N 668.101 -1.57061 -0.130224 0
M  V30 7555 C 669.348 -1.84257 -0.839972 0
M  V30 7556 C 669.676 -0.726986 -1.80403 0
M  V30 7557 O 668.931 0.282632 -1.93648 0
M  V30 7558 C 669.23 -3.17878 -1.63365 0
M  V30 7559 C 668.896 -4.43475 -0.814891 0
M  V30 7560 C 667.558 -4.77581 -0.589066 0
M  V30 7561 C 669.91 -5.20631 -0.243437 0
M  V30 7562 C 667.238 -5.86292 0.218648 0
M  V30 7563 C 669.59 -6.30192 0.551408 0
M  V30 7564 C 668.254 -6.62837 0.787653 0
M  V30 7565 H 667.524 -0.674245 -0.307367 0
M  V30 7566 H 670.171 -1.91224 -0.102832 0
M  V30 7567 H 668.476 -3.06437 -2.44138 0
M  V30 7568 H 670.173 -3.3614 -2.18658 0
M  V30 7569 H 666.763 -4.16747 -1.00098 0
M  V30 7570 H 670.947 -4.94644 -0.405145 0
M  V30 7571 H 666.203 -6.10017 0.411016 0
M  V30 7572 H 670.377 -6.89165 1.00126 0
M  V30 7573 H 668.004 -7.46908 1.41537 0
M  V30 7574 N 669.579 0.400081 -1.52437 0
M  V30 7575 C 670.856 1.15973 -1.57511 0
M  V30 7576 C 671.236 2.0798 -0.361572 0
M  V30 7577 O 670.584 2.19032 0.650929 0
M  V30 7578 C 670.794 1.92912 -2.90837 0
M  V30 7579 C 672.142 2.48662 -3.44169 0
M  V30 7580 O 673.166 2.03081 -2.92637 0
M  V30 7581 O 672.025 3.31894 -4.34176 0
M  V30 7582 H 669.119 0.530023 -0.634827 0
M  V30 7583 H 671.665 0.40613 -1.64769 0
M  V30 7584 H 670.437 1.25564 -3.70607 0
M  V30 7585 H 670.06 2.75257 -2.86913 0
M  V30 7586 N 671.057 1.43213 0.657864 0
M  V30 7587 C 671.987 1.50815 1.78262 0
M  V30 7588 C 672.968 0.363211 1.66177 0
M  V30 7589 O 674.153 0.579806 1.85343 0
M  V30 7590 C 671.283 1.42625 3.16663 0
M  V30 7591 C 670.237 2.5532 3.43505 0
M  V30 7592 C 669.563 2.32184 4.81658 0
M  V30 7593 C 670.863 3.97583 3.38711 0
M  V30 7594 H 672.557 2.44954 1.72157 0
M  V30 7595 H 670.103 1.17896 0.82683 0
M  V30 7596 H 672.056 1.46548 3.95097 0
M  V30 7597 H 670.78 0.449877 3.23487 0
M  V30 7598 H 669.439 2.50742 2.6744 0
M  V30 7599 H 669.087 1.32801 4.85153 0
M  V30 7600 H 668.787 3.07724 5.00579 0
M  V30 7601 H 670.311 2.37883 5.62356 0
M  V30 7602 H 671.725 4.03673 4.07089 0
M  V30 7603 H 670.122 4.73112 3.69168 0
M  V30 7604 H 671.192 4.23049 2.36976 0
M  V30 7605 N 672.536 -0.895792 1.29666 0
M  V30 7606 C 673.785 -1.64131 1.17234 0
M  V30 7607 C 674.098 -1.93665 -0.274416 0
M  V30 7608 O 675.304 -2.66472 -0.520105 0
M  V30 7609 C 673.76 -2.95764 2.05065 0
M  V30 7610 C 673.368 -2.7381 3.54587 0
M  V30 7611 C 675.112 -3.737 2.01367 0
M  V30 7612 C 673.019 -4.01194 4.34508 0
M  V30 7613 H 671.949 -0.615742 0.435175 0
M  V30 7614 H 674.6 -0.992626 1.54335 0
M  V30 7615 H 672.982 -3.61867 1.60837 0
M  V30 7616 H 674.156 -2.16277 4.06892 0
M  V30 7617 H 672.471 -2.09265 3.59996 0
M  V30 7618 H 675.068 -4.68152 2.58337 0
M  V30 7619 H 675.411 -4.04245 0.994575 0
M  V30 7620 H 675.944 -3.14444 2.43659 0
M  V30 7621 H 672.683 -3.75813 5.37071 0
M  V30 7622 H 672.203 -4.58272 3.86971 0
M  V30 7623 H 673.882 -4.69307 4.45376 0
M  V30 7624 N 674.014 -1.12206 -1.10668 0
M  V30 7625 C 674.924 -0.800686 -2.20513 0
M  V30 7626 C 675.94 0.209512 -1.72734 0
M  V30 7627 O 677.116 0.043705 -2.01353 0
M  V30 7628 C 674.181 -0.257353 -3.45744 0
M  V30 7629 C 673.242 -1.32718 -4.0827 0
M  V30 7630 C 672.475 -0.809674 -5.27522 0
M  V30 7631 O 672.698 0.35742 -5.69279 0
M  V30 7632 O 671.632 -1.57816 -5.80842 0
M  V30 7633 H 675.458 -1.71807 -2.50432 0
M  V30 7634 H 673.043 -0.898546 -1.19359 0
M  V30 7635 H 674.925 0.0408849 -4.2138 0
M  V30 7636 H 673.6 0.632627 -3.17458 0
M  V30 7637 H 672.507 -1.67855 -3.34329 0
M  V30 7638 H 673.84 -2.19083 -4.40753 0
M  V30 7639 N 675.492 1.28418 -0.913599 0
M  V30 7640 C 676.717 1.99643 -0.561899 0
M  V30 7641 C 677.142 1.67819 0.849608 0
M  V30 7642 O 676.5 0.910503 1.56779 0
M  V30 7643 C 676.548 3.52116 -0.777622 0
M  V30 7644 O 675.652 4.12076 0.163457 0
M  V30 7645 H 674.993 0.627229 -0.217898 0
M  V30 7646 H 677.523 1.63575 -1.229 0
M  V30 7647 H 677.533 4.02163 -0.687666 0
M  V30 7648 H 676.208 3.74613 -1.8066 0
M  V30 7649 H 674.785 3.72892 0.0247827 0
M  V30 7650 N 676.97 0.677563 1.42291 0
M  V30 7651 C 677.903 -0.0492638 2.28147 0
M  V30 7652 C 678.881 -0.805936 1.41221 0
M  V30 7653 O 680.065 -0.80049 1.70659 0
M  V30 7654 C 677.192 -1.07697 3.21122 0
M  V30 7655 C 676.238 -0.41556 4.24471 0
M  V30 7656 S 677.071 0.828876 5.29046 0
M  V30 7657 C 678.227 -0.197687 6.25588 0
M  V30 7658 H 678.46 0.678965 2.89443 0
M  V30 7659 H 675.993 0.467201 1.47162 0
M  V30 7660 H 677.951 -1.66482 3.75225 0
M  V30 7661 H 676.612 -1.77766 2.58956 0
M  V30 7662 H 675.805 -1.19112 4.89723 0
M  V30 7663 H 675.407 0.0987632 3.7387 0
M  V30 7664 H 677.699 -1.05656 6.69211 0
M  V30 7665 H 678.642 0.420437 7.06851 0
M  V30 7666 H 679.05 -0.544401 5.61869 0
M  V30 7667 N 678.448 -1.51871 0.421078 0
M  V30 7668 C 679.378 -2.30231 -0.389363 0
M  V30 7669 C 680.359 -1.34946 -1.03555 0
M  V30 7670 O 681.544 -1.63859 -1.04229 0
M  V30 7671 C 678.674 -3.13247 -1.49979 0
M  V30 7672 C 677.628 -4.16677 -0.977966 0
M  V30 7673 C 676.954 -4.88112 -2.1829 0
M  V30 7674 C 678.254 -5.22295 -0.0236775 0
M  V30 7675 H 679.948 -2.98229 0.264524 0
M  V30 7676 H 677.494 -1.43424 0.12866 0
M  V30 7677 H 679.447 -3.66838 -2.07383 0
M  V30 7678 H 678.171 -2.4304 -2.18173 0
M  V30 7679 H 676.83 -3.64114 -0.426245 0
M  V30 7680 H 676.478 -4.14423 -2.85066 0
M  V30 7681 H 676.178 -5.58041 -1.84021 0
M  V30 7682 H 677.702 -5.44521 -2.76278 0
M  V30 7683 H 679.116 -5.71055 -0.506899 0
M  V30 7684 H 677.513 -5.99656 0.230782 0
M  V30 7685 H 678.583 -4.76131 0.917999 0
M  V30 7686 N 679.926 -0.151884 -1.56866 0
M  V30 7687 C 680.836 0.798876 -2.20579 0
M  V30 7688 C 681.852 1.268 -1.19154 0
M  V30 7689 O 683.028 1.32418 -1.51748 0
M  V30 7690 C 680.093 2.01861 -2.81874 0
M  V30 7691 C 679.154 1.59825 -3.9844 0
M  V30 7692 C 678.387 2.75984 -4.56802 0
M  V30 7693 O 678.61 3.92331 -4.14044 0
M  V30 7694 O 677.544 2.51175 -5.46987 0
M  V30 7695 H 681.37 0.2865 -3.02346 0
M  V30 7696 H 678.955 0.0753806 -1.4921 0
M  V30 7697 H 680.837 2.73235 -3.20813 0
M  V30 7698 H 679.512 2.52042 -2.03117 0
M  V30 7699 H 678.419 0.854601 -3.64208 0
M  V30 7700 H 679.752 1.14355 -4.78731 0
M  V30 7701 N 681.404 1.57128 0.121893 0
M  V30 7702 C 682.634 1.88609 0.843227 0
M  V30 7703 C 683.042 0.740917 1.74089 0
M  V30 7704 O 682.385 -0.297426 1.81276 0
M  V30 7705 C 682.447 3.15073 1.73117 0
M  V30 7706 C 682.111 4.45742 1.0081 0
M  V30 7707 C 683.108 5.18719 0.350255 0
M  V30 7708 C 680.793 4.92444 0.99014 0
M  V30 7709 C 682.787 6.36617 -0.315889 0
M  V30 7710 C 680.474 6.10261 0.320196 0
M  V30 7711 C 681.472 6.82194 -0.331666 0
M  V30 7712 O 681.16 7.97769 -0.990927 0
M  V30 7713 H 680.892 0.628919 0.247865 0
M  V30 7714 H 683.446 2.05096 0.111725 0
M  V30 7715 H 681.676 2.9466 2.50424 0
M  V30 7716 H 683.365 3.32597 2.32667 0
M  V30 7717 H 684.131 4.83693 0.35577 0
M  V30 7718 H 680.01 4.36361 1.48695 0
M  V30 7719 H 683.554 6.92701 -0.825272 0
M  V30 7720 H 679.451 6.44743 0.312433 0
M  V30 7721 H 680.219 8.13591 -0.895113 0
M  V30 7722 N 682.882 -0.391992 1.52647 0
M  V30 7723 C 683.792 -1.503 1.80131 0
M  V30 7724 C 684.808 -1.59825 0.687882 0
M  V30 7725 O 685.984 -1.76218 0.975149 0
M  V30 7726 C 683.049 -2.85863 1.96171 0
M  V30 7727 C 682.11 -2.86084 3.20085 0
M  V30 7728 C 681.343 -4.15181 3.35351 0
M  V30 7729 O 681.566 -5.09981 2.55491 0
M  V30 7730 O 680.5 -4.22603 4.28591 0
M  V30 7731 H 684.326 -1.30007 2.74466 0
M  V30 7732 H 681.911 -0.579539 1.37701 0
M  V30 7733 H 683.793 -3.66236 2.08445 0
M  V30 7734 H 682.468 -3.06189 1.05025 0
M  V30 7735 H 681.375 -2.04504 3.13256 0
M  V30 7736 H 682.708 -2.7071 4.11068 0
M  V30 7737 N 684.36 -1.4356 -0.65026 0
M  V30 7738 C 685.771 -1.40324 -1.2315 0
M  V30 7739 C 686.122 -0.108812 -1.95898 0
M  V30 7740 O 685.247 0.79163 -2.01401 0
M  V30 7741 C 685.842 -2.54195 -2.23987 0
M  V30 7742 C 684.401 -2.54215 -2.77582 0
M  V30 7743 C 683.548 -2.31752 -1.5227 0
M  V30 7744 H 686.499 -1.52418 -0.442095 0
M  V30 7745 H 686.52 -2.25854 -3.0622 0
M  V30 7746 H 686.032 -3.48392 -1.71011 0
M  V30 7747 H 684.133 -1.63907 -3.34612 0
M  V30 7748 H 684.246 -3.52081 -3.24925 0
M  V30 7749 H 682.61 -1.80476 -1.79723 0
M  V30 7750 H 683.393 -3.28037 -1.01225 0
M  V30 7751 N 685.838 0.888903 -1.30139 0
M  V30 7752 C 686.801 1.97576 -1.16174 0
M  V30 7753 C 687.801 1.60525 -0.094086 0
M  V30 7754 O 688.991 1.70812 -0.341889 0
M  V30 7755 C 686.123 3.3188 -0.778983 0
M  V30 7756 H 687.316 2.11393 -2.12728 0
M  V30 7757 H 684.869 1.0748 -1.1348 0
M  V30 7758 H 685.604 3.23765 0.186225 0
M  V30 7759 H 685.389 3.60141 -1.55051 0
M  V30 7760 H 686.879 4.11612 -0.704631 0
M  V30 7761 N 687.317 1.12792 1.10072 0
M  V30 7762 C 688.264 0.79921 2.16521 0
M  V30 7763 C 689.234 -0.235726 1.64419 0
M  V30 7764 O 690.419 -0.109457 1.90486 0
M  V30 7765 C 687.559 0.264091 3.44088 0
M  V30 7766 C 686.672 1.35729 4.10124 0
M  V30 7767 C 685.807 0.781212 5.25424 0
M  V30 7768 C 684.846 1.85327 5.8337 0
M  V30 7769 N 683.983 1.29564 6.90042 0
M  V30 7770 H 688.823 1.71105 2.43981 0
M  V30 7771 H 686.36 0.854225 1.19756 0
M  V30 7772 H 688.318 -0.0642423 4.17151 0
M  V30 7773 H 686.948 -0.610901 3.16967 0
M  V30 7774 H 686 1.80234 3.34993 0
M  V30 7775 H 687.312 2.16782 4.4923 0
M  V30 7776 H 686.466 0.403769 6.05355 0
M  V30 7777 H 685.205 -0.0604686 4.87663 0
M  V30 7778 H 684.21 2.23986 5.02106 0
M  V30 7779 H 685.435 2.69824 6.23195 0
M  V30 7780 H 683.381 0.475844 6.54272 0
M  V30 7781 H 683.298 2.04271 7.2788 0
M  V30 7782 H 684.566 0.945545 7.73744 0
M  V30 7783 N 688.795 -1.27931 0.920396 0
M  V30 7784 C 690.211 -1.47085 0.619537 0
M  V30 7785 C 690.411 -1.83463 -0.833291 0
M  V30 7786 O 689.467 -1.94363 -1.61181 0
M  V30 7787 C 690.78 -2.56878 1.56314 0
M  V30 7788 C 692.328 -2.70743 1.57058 0
M  V30 7789 C 692.803 -3.83687 2.50097 0
M  V30 7790 N 694.294 -3.9105 2.48262 0
M  V30 7791 C 695.029 -4.77842 3.16945 0
M  V30 7792 N 694.525 -5.69176 3.94982 0
M  V30 7793 N 696.318 -4.71509 3.06 0
M  V30 7794 H 688.469 -1.02601 1.85975 0
M  V30 7795 H 690.732 -0.511682 0.798051 0
M  V30 7796 H 690.438 -2.36923 2.59923 0
M  V30 7797 H 690.312 -3.54117 1.29928 0
M  V30 7798 H 692.699 -2.90083 0.541832 0
M  V30 7799 H 692.78 -1.74015 1.8749 0
M  V30 7800 H 692.424 -3.65101 3.53077 0
M  V30 7801 H 692.354 -4.79827 2.16964 0
M  V30 7802 H 694.845 -3.25738 1.91581 0
M  V30 7803 H 695.158 -6.32245 4.44394 0
M  V30 7804 H 693.503 -5.68995 3.99086 0
M  V30 7805 H 696.694 -3.99151 2.44533 0
M  V30 7806 H 696.867 -5.38933 3.59799 0
M  V30 7807 N 690.273 -0.685099 -1.4193 0
M  V30 7808 C 691.203 -0.0273506 -2.33484 0
M  V30 7809 C 692.184 0.778366 -1.51246 0
M  V30 7810 O 693.369 0.733449 -1.79817 0
M  V30 7811 C 690.499 0.917272 -3.34968 0
M  V30 7812 C 689.453 0.21941 -4.27437 0
M  V30 7813 C 688.779 1.27768 -5.1921 0
M  V30 7814 C 690.079 -0.907894 -5.14349 0
M  V30 7815 H 691.773 -0.791994 -2.88735 0
M  V30 7816 H 689.319 -0.382308 -1.38832 0
M  V30 7817 H 691.272 1.38657 -3.97935 0
M  V30 7818 H 689.996 1.71346 -2.78043 0
M  V30 7819 H 688.655 -0.229757 -3.65879 0
M  V30 7820 H 688.303 2.06612 -4.58607 0
M  V30 7821 H 688.003 0.815803 -5.81909 0
M  V30 7822 H 689.527 1.7477 -5.85054 0
M  V30 7823 H 690.941 -0.519348 -5.70943 0
M  V30 7824 H 689.338 -1.2962 -5.85934 0
M  V30 7825 H 690.408 -1.75218 -4.52136 0
M  V30 7826 N 691.751 1.51645 -0.429126 0
M  V30 7827 C 692.979 2.06433 0.138994 0
M  V30 7828 C 693.394 1.29735 1.37165 0
M  V30 7829 O 692.751 0.354638 1.79021 0
M  V30 7830 C 692.802 3.58439 0.469452 0
M  V30 7831 O 692.523 4.32238 -0.714273 0
M  V30 7832 C 694.024 4.29712 1.08914 0
M  V30 7833 H 691.244 0.6709 0.0115608 0
M  V30 7834 H 693.788 1.9532 -0.605843 0
M  V30 7835 H 691.943 3.69494 1.16419 0
M  V30 7836 H 692.357 5.22704 -0.433633 0
M  V30 7837 H 693.831 5.37182 1.27042 0
M  V30 7838 H 694.308 3.87473 2.06788 0
M  V30 7839 H 694.914 4.2308 0.434028 0
M  V30 7840 N 693.229 0.160201 1.56784 0
M  V30 7841 C 694.159 -0.770264 2.2043 0
M  V30 7842 C 695.14 -1.24736 1.15651 0
M  V30 7843 O 696.325 -1.30253 1.44041 0
M  V30 7844 C 693.455 -2.00427 2.83631 0
M  V30 7845 C 692.409 -1.66345 3.94352 0
M  V30 7846 C 691.735 -2.97119 4.4455 0
M  V30 7847 C 693.035 -0.899972 5.14488 0
M  V30 7848 H 694.729 -0.239783 2.98438 0
M  V30 7849 H 692.275 -0.113891 1.43549 0
M  V30 7850 H 694.228 -2.66012 3.26827 0
M  V30 7851 H 692.952 -2.5587 2.02973 0
M  V30 7852 H 691.611 -1.03133 3.51794 0
M  V30 7853 H 691.259 -3.5058 3.60698 0
M  V30 7854 H 690.959 -2.75073 5.19238 0
M  V30 7855 H 692.483 -3.63753 4.90425 0
M  V30 7856 H 693.897 -1.45818 5.54446 0
M  V30 7857 H 692.294 -0.778968 5.95023 0
M  V30 7858 H 693.364 0.105827 4.84785 0
M  V30 7859 N 694.707 -1.5719 -0.113559 0
M  V30 7860 C 695.955 -1.84772 -0.818761 0
M  V30 7861 C 696.276 -0.746196 -1.80158 0
M  V30 7862 O 695.546 0.229305 -1.94553 0
M  V30 7863 H 694.126 -0.681737 -0.305359 0
M  V30 7864 H 696.788 -1.94645 -0.0995845 0
M  V30 7865 H 695.884 -2.80878 -1.36067 0
M  V30 7866 N 696.185 0.383891 -1.52853 0
M  V30 7867 C 697.095 1.49343 -1.80925 0
M  V30 7868 C 698.111 1.59458 -0.696348 0
M  V30 7869 O 699.287 1.75698 -0.984481 0
M  V30 7870 C 696.352 2.84819 -1.97684 0
M  V30 7871 C 695.413 2.84382 -3.21598 0
M  V30 7872 C 694.646 4.13397 -3.37548 0
M  V30 7873 O 694.869 5.08619 -2.58192 0
M  V30 7874 O 693.803 4.20325 -4.30826 0
M  V30 7875 H 697.629 1.2855 -2.75152 0
M  V30 7876 H 695.214 0.572229 -1.38007 0
M  V30 7877 H 697.096 3.65125 -2.10385 0
M  V30 7878 H 695.771 3.05627 -1.06647 0
M  V30 7879 H 694.678 2.0284 -3.14336 0
M  V30 7880 H 696.011 2.68526 -4.12498 0
M  V30 7881 N 697.663 1.43903 0.642637 0
M  V30 7882 C 698.626 1.49538 1.73698 0
M  V30 7883 C 699.626 0.378776 1.56275 0
M  V30 7884 O 700.816 0.64095 1.6198 0
M  V30 7885 C 697.948 1.35821 3.12675 0
M  V30 7886 H 699.141 2.47008 1.70079 0
M  V30 7887 H 696.694 1.30824 0.85526 0
M  V30 7888 H 697.429 0.393994 3.21898 0
M  V30 7889 H 697.214 2.16776 3.26727 0
M  V30 7890 H 698.704 1.4272 3.92455 0
M  V30 7891 N 699.141 -0.881989 1.30609 0
M  V30 7892 C 700.071 -2.00413 1.1982 0
M  V30 7893 C 701.052 -1.69871 0.0881538 0
M  V30 7894 O 702.237 -1.92304 0.2707 0
M  V30 7895 C 699.367 -3.35641 0.89233 0
M  V30 7896 C 698.321 -3.80451 1.96064 0
M  V30 7897 C 697.647 -5.13003 1.5077 0
M  V30 7898 C 698.947 -3.98855 3.37213 0
M  V30 7899 H 700.641 -2.09698 2.13699 0
M  V30 7900 H 698.187 -1.00754 1.02882 0
M  V30 7901 H 700.14 -4.13669 0.803497 0
M  V30 7902 H 698.864 -3.26497 -0.0821381 0
M  V30 7903 H 697.523 -3.04654 2.03916 0
M  V30 7904 H 697.171 -5.0029 0.521417 0
M  V30 7905 H 696.871 -5.43956 2.22229 0
M  V30 7906 H 698.395 -5.93554 1.43271 0
M  V30 7907 H 699.809 -4.67312 3.32103 0
M  V30 7908 H 698.206 -4.41188 4.06784 0
M  V30 7909 H 699.276 -3.02614 3.78883 0
M  V30 7910 N 700.619 -1.13374 -1.09472 0
M  V30 7911 C 701.551 -0.768466 -2.15933 0
M  V30 7912 C 702.564 0.209585 -1.61445 0
M  V30 7913 O 703.753 -0.010539 -1.78497 0
M  V30 7914 C 700.853 -0.118266 -3.38694 0
M  V30 7915 C 700.026 -1.12829 -4.22597 0
M  V30 7916 C 699.085 -0.503875 -5.23782 0
M  V30 7917 O 698.111 -1.16374 -5.57177 0
M  V30 7918 N 699.313 0.724288 -5.75964 0
M  V30 7919 H 702.078 -1.68457 -2.47876 0
M  V30 7920 H 699.639 -1.02668 -1.25183 0
M  V30 7921 H 701.631 0.311698 -4.03498 0
M  V30 7922 H 700.201 0.700769 -3.04644 0
M  V30 7923 H 699.421 -1.73556 -3.53938 0
M  V30 7924 H 700.709 -1.81095 -4.75481 0
M  V30 7925 H 700.107 1.27918 -5.51048 0
M  V30 7926 H 698.664 1.09692 -6.42504 0
M  V30 7927 N 702.098 1.27442 -0.927168 0
M  V30 7928 C 703.048 2.24519 -0.396878 0
M  V30 7929 C 704.032 1.52981 0.498555 0
M  V30 7930 O 705.224 1.7378 0.336087 0
M  V30 7931 C 702.353 3.41514 0.349694 0
M  V30 7932 C 701.439 4.20357 -0.562226 0
M  V30 7933 N 701.83 4.7702 -1.68182 0
M  V30 7934 C 700.128 4.44503 -0.365135 0
M  V30 7935 C 700.829 5.36467 -2.24895 0
M  V30 7936 N 699.805 5.21371 -1.5386 0
M  V30 7937 H 703.607 2.65911 -1.25173 0
M  V30 7938 H 701.121 1.42366 -0.78138 0
M  V30 7939 H 703.118 4.10161 0.746536 0
M  V30 7940 H 701.778 3.01653 1.20148 0
M  V30 7941 H 702.789 4.74985 -2.06421 0
M  V30 7942 H 699.466 4.15111 0.446037 0
M  V30 7943 H 700.856 5.91264 -3.1915 0
M  V30 7944 N 703.576 0.692616 1.41565 0
M  V30 7945 C 704.987 0.297478 1.84315 0
M  V30 7946 C 705.338 -1.16379 1.57957 0
M  V30 7947 O 704.463 -1.89303 1.0485 0
M  V30 7948 C 705.058 0.533136 3.34579 0
M  V30 7949 C 703.617 0.191944 3.7591 0
M  V30 7950 C 702.764 0.816873 2.64995 0
M  V30 7951 H 705.715 0.893488 1.31158 0
M  V30 7952 H 705.736 -0.209105 3.79925 0
M  V30 7953 H 705.248 1.59674 3.53731 0
M  V30 7954 H 703.349 -0.867512 3.6236 0
M  V30 7955 H 703.462 0.644902 4.7474 0
M  V30 7956 H 701.826 0.246715 2.53502 0
M  V30 7957 H 702.609 1.88429 2.86966 0
M  V30 7958 N 705.054 -1.51416 0.437162 0
M  V30 7959 C 706.301 -2.02086 -0.129364 0
M  V30 7960 C 706.629 -1.32133 -1.42728 0
M  V30 7961 O 705.884 -0.424916 -1.91031 0
M  V30 7962 C 706.183 -3.55203 -0.39564 0
M  V30 7963 C 705.849 -4.43447 0.81644 0
M  V30 7964 C 704.511 -4.67285 1.14884 0
M  V30 7965 C 706.863 -4.95219 1.62503 0
M  V30 7966 C 704.191 -5.40141 2.29052 0
M  V30 7967 C 706.543 -5.69327 2.7577 0
M  V30 7968 C 705.207 -5.91429 3.09464 0
M  V30 7969 H 704.477 -0.739486 -0.0473375 0
M  V30 7970 H 707.124 -1.82368 0.584321 0
M  V30 7971 H 705.429 -3.73252 -1.19121 0
M  V30 7972 H 707.126 -3.91944 -0.847399 0
M  V30 7973 H 703.716 -4.2509 0.547422 0
M  V30 7974 H 707.9 -4.76686 1.38144 0
M  V30 7975 H 703.156 -5.55468 2.55471 0
M  V30 7976 H 707.33 -6.08433 3.38795 0
M  V30 7977 H 704.957 -6.47662 3.98042 0
M  V30 7978 N 706.532 -0.168513 -1.56696 0
M  V30 7979 C 707.779 0.477158 -1.96798 0
M  V30 7980 C 708.107 1.63442 -1.05437 0
M  V30 7981 O 707.362 1.95503 -0.0878903 0
M  V30 7982 C 707.661 1.00441 -3.42996 0
M  V30 7983 C 707.327 -0.0366556 -4.50885 0
M  V30 7984 C 705.989 -0.322785 -4.80116 0
M  V30 7985 C 708.341 -0.743447 -5.1587 0
M  V30 7986 C 705.669 -1.32114 -5.71632 0
M  V30 7987 C 708.021 -1.73077 -6.08463 0
M  V30 7988 C 706.685 -2.02437 -6.36062 0
M  V30 7989 H 705.955 0.174604 -0.720135 0
M  V30 7990 H 708.602 -0.259884 -1.89728 0
M  V30 7991 H 706.907 1.81922 -3.47004 0
M  V30 7992 H 708.604 1.51294 -3.71364 0
M  V30 7993 H 705.194 0.196532 -4.28149 0
M  V30 7994 H 709.378 -0.535602 -4.93401 0
M  V30 7995 H 704.634 -1.55482 -5.913 0
M  V30 7996 H 708.808 -2.28382 -6.57886 0
M  V30 7997 H 706.435 -2.79946 -7.06777 0
M  V30 7998 N 708.01 1.57248 0.105221 0
M  V30 7999 C 708.973 2.00388 1.11252 0
M  V30 8000 C 709.973 0.89594 1.33527 0
M  V30 8001 O 711.163 1.16166 1.29811 0
M  V30 8002 C 708.295 2.35589 2.46395 0
M  V30 8003 H 709.488 2.90591 0.741424 0
M  V30 8004 H 707.041 1.52332 0.349956 0
M  V30 8005 H 707.776 1.4831 2.884 0
M  V30 8006 H 707.561 3.16408 2.31578 0
M  V30 8007 H 709.051 2.69658 3.18864 0
M  V30 8008 N 709.488 -0.375779 1.53054 0
M  V30 8009 C 710.904 -0.716764 1.426 0
M  V30 8010 C 711.104 -1.93651 0.556931 0
M  V30 8011 O 710.16 -2.52475 0.0354461 0
M  V30 8012 C 711.473 -0.939499 2.85646 0
M  V30 8013 C 713.021 -1.04015 2.95212 0
M  V30 8014 C 713.496 -1.29543 4.39298 0
M  V30 8015 N 714.987 -1.36335 4.42682 0
M  V30 8016 C 715.722 -1.57778 5.51266 0
M  V30 8017 N 715.218 -1.76604 6.69913 0
M  V30 8018 N 717.011 -1.60065 5.38828 0
M  V30 8019 H 709.162 0.42664 2.08071 0
M  V30 8020 H 711.425 0.128758 0.939215 0
M  V30 8021 H 711.131 -0.115189 3.51511 0
M  V30 8022 H 711.005 -1.85048 3.2869 0
M  V30 8023 H 713.392 -1.85501 2.29507 0
M  V30 8024 H 713.473 -0.106785 2.55577 0
M  V30 8025 H 713.117 -0.485611 5.05573 0
M  V30 8026 H 713.047 -2.24184 4.76497 0
M  V30 8027 H 715.538 -1.23441 3.5717 0
M  V30 8028 H 715.851 -1.9251 7.48438 0
M  V30 8029 H 714.196 -1.73802 6.72917 0
M  V30 8030 H 717.387 -1.44917 4.45103 0
M  V30 8031 H 717.56 -1.76435 6.23518 0
M  V30 8032 N 710.966 -1.44241 -0.634997 0
M  V30 8033 C 711.896 -1.53632 -1.7584 0
M  V30 8034 C 712.877 -0.389603 -1.65578 0
M  V30 8035 O 714.062 -0.609219 -1.84397 0
M  V30 8036 C 711.192 -1.47644 -3.14354 0
M  V30 8037 C 710.146 -2.60752 -3.394 0
M  V30 8038 C 709.472 -2.39817 -4.77904 0
M  V30 8039 C 710.772 -4.02921 -3.32343 0
M  V30 8040 H 712.466 -2.47662 -1.68238 0
M  V30 8041 H 710.012 -1.19197 -0.807969 0
M  V30 8042 H 711.965 -1.52815 -3.92716 0
M  V30 8043 H 710.689 -0.501284 -3.2273 0
M  V30 8044 H 709.348 -2.54965 -2.63417 0
M  V30 8045 H 708.996 -1.40502 -4.82978 0
M  V30 8046 H 708.696 -3.15649 -4.9562 0
M  V30 8047 H 710.22 -2.46799 -5.585 0
M  V30 8048 H 711.634 -4.10098 -4.00615 0
M  V30 8049 H 710.031 -4.78925 -3.61595 0
M  V30 8050 H 711.101 -4.26766 -2.30215 0
M  V30 8051 N 712.444 0.87505 -1.31075 0
M  V30 8052 C 713.86 1.15997 -1.09622 0
M  V30 8053 C 714.06 2.01036 0.136611 0
M  V30 8054 O 713.116 2.38559 0.827397 0
M  V30 8055 C 714.429 1.85702 -2.36506 0
M  V30 8056 C 715.977 1.98425 -2.42067 0
M  V30 8057 C 716.452 2.71544 -3.68819 0
M  V30 8058 N 717.943 2.79084 -3.69684 0
M  V30 8059 C 718.678 3.36259 -4.64454 0
M  V30 8060 N 718.174 3.94406 -5.69575 0
M  V30 8061 N 719.967 3.34169 -4.51982 0
M  V30 8062 H 712.118 0.308258 -2.10151 0
M  V30 8063 H 714.381 0.199145 -0.926847 0
M  V30 8064 H 714.087 1.30663 -3.26527 0
M  V30 8065 H 713.961 2.86017 -2.45915 0
M  V30 8066 H 716.348 2.5263 -1.52518 0
M  V30 8067 H 716.429 0.971682 -2.36626 0
M  V30 8068 H 716.073 2.18008 -4.58732 0
M  V30 8069 H 716.003 3.73198 -3.71525 0
M  V30 8070 H 718.494 2.3781 -2.93691 0
M  V30 8071 H 718.807 4.36129 -6.37974 0
M  V30 8072 H 717.152 3.92797 -5.73355 0
M  V30 8073 H 720.343 2.87977 -3.69035 0
M  V30 8074 H 720.516 3.78431 -5.26017 0
M  V30 8075 N 713.922 1.13953 1.08869 0
M  V30 8076 C 714.885 0.824991 2.13838 0
M  V30 8077 C 715.885 -0.168198 1.59918 0
M  V30 8078 O 717.075 0.0595778 1.74098 0
M  V30 8079 C 714.207 0.228938 3.4013 0
M  V30 8080 H 715.4 1.75521 2.43171 0
M  V30 8081 H 712.953 0.94492 1.24503 0
M  V30 8082 H 713.688 -0.710227 3.16427 0
M  V30 8083 H 713.473 0.944243 3.80561 0
M  V30 8084 H 714.963 0.0259223 4.17592 0
M  V30 8085 N 715.4 -1.26948 0.933913 0
M  V30 8086 C 716.31 -2.30366 0.443671 0
M  V30 8087 C 717.326 -1.67284 -0.478745 0
M  V30 8088 O 718.502 -1.98156 -0.360043 0
M  V30 8089 C 715.567 -3.45485 -0.289974 0
M  V30 8090 C 714.628 -4.24069 0.668114 0
M  V30 8091 C 713.861 -5.33691 -0.0306138 0
M  V30 8092 O 714.084 -5.5656 -1.24888 0
M  V30 8093 O 713.018 -5.98441 0.644384 0
M  V30 8094 H 716.844 -2.74349 1.30254 0
M  V30 8095 H 714.429 -1.32012 0.699506 0
M  V30 8096 H 716.311 -4.15486 -0.70353 0
M  V30 8097 H 714.986 -3.03546 -1.12435 0
M  V30 8098 H 713.893 -3.56579 1.13147 0
M  V30 8099 H 715.226 -4.69739 1.46989 0
M  V30 8100 N 716.879 -0.700114 -1.41195 0
M  V30 8101 C 718.29 -0.307249 -1.84154 0
M  V30 8102 C 718.641 1.15539 -1.58572 0
M  V30 8103 O 717.766 1.88744 -1.05852 0
M  V30 8104 C 718.361 -0.550872 -3.34292 0
M  V30 8105 C 716.92 -0.211877 -3.75803 0
M  V30 8106 C 716.067 -0.830915 -2.64558 0
M  V30 8107 H 719.018 -0.900431 -1.30683 0
M  V30 8108 H 719.039 0.188954 -3.80031 0
M  V30 8109 H 718.551 -1.61548 -3.5288 0
M  V30 8110 H 716.652 0.848283 -3.62815 0
M  V30 8111 H 716.765 -0.67007 -4.74391 0
M  V30 8112 H 715.129 -0.260155 -2.53368 0
M  V30 8113 H 715.912 -1.89948 -2.85963 0
M  V30 8114 N 718.357 1.51182 -0.445186 0
M  V30 8115 C 719.768 1.86693 0.0160999 0
M  V30 8116 C 720.119 1.36183 1.4124 0
M  V30 8117 O 719.244 0.715895 2.04215 0
M  V30 8118 C 719.839 3.38781 0.0359918 0
M  V30 8119 C 718.398 3.73799 0.441715 0
M  V30 8120 C 717.545 2.74947 -0.360511 0
M  V30 8121 H 720.496 1.44294 -0.660674 0
M  V30 8122 H 720.517 3.71026 0.843813 0
M  V30 8123 H 720.029 3.75513 -0.980378 0
M  V30 8124 H 718.13 3.42659 1.4634 0
M  V30 8125 H 718.243 4.78829 0.16106 0
M  V30 8126 H 716.607 2.54047 0.182269 0
M  V30 8127 H 717.39 3.14521 -1.3759 0
M  V30 8128 N 719.835 0.176821 1.56605 0
M  V30 8129 C 720.783 -0.768159 2.1955 0
M  V30 8130 C 721.777 -1.23343 1.16116 0
M  V30 8131 O 722.983 -1.19844 1.34303 0
M  V30 8132 H 719.358 -0.266013 0.703378 0
M  V30 8133 H 721.329 -0.213374 2.97636 0
M  V30 8134 C 720.078 -1.98492 2.85475 0
M  V30 8135 H 719.401 -1.63595 3.64797 0
M  V30 8136 H 720.841 -2.62489 3.3298 0
M  V30 8137 C 719.3 -2.81207 1.85538 0
M  V30 8138 O 719.83 -3.7854 1.34427 0
M  V30 8139 N 718.036 -2.46331 1.54173 0
M  V30 8140 H 717.583 -1.67241 1.95929 0
M  V30 8141 H 717.541 -3.01961 0.875595 0
M  V30 8142 N 721.313 -1.57302 -0.09688 0
M  V30 8143 C 722.26 -2.01933 -1.11766 0
M  V30 8144 C 723.23 -0.895329 -1.39904 0
M  V30 8145 O 724.415 -1.16119 -1.51397 0
M  V30 8146 C 721.555 -2.44726 -2.43317 0
M  V30 8147 C 720.668 -3.70639 -2.21925 0
M  V30 8148 C 719.803 -4.02318 -3.46862 0
M  V30 8149 C 718.842 -5.21346 -3.20725 0
M  V30 8150 N 717.979 -5.48787 -4.37924 0
M  V30 8151 H 722.819 -2.88919 -0.730075 0
M  V30 8152 H 720.356 -1.42901 -0.348962 0
M  V30 8153 H 722.314 -2.6758 -3.20088 0
M  V30 8154 H 720.944 -1.60753 -2.79926 0
M  V30 8155 H 719.996 -3.55271 -1.35965 0
M  V30 8156 H 721.308 -4.57557 -1.98603 0
M  V30 8157 H 720.462 -4.25939 -4.32042 0
M  V30 8158 H 719.201 -3.13918 -3.73238 0
M  V30 8159 H 718.206 -4.97547 -2.33938 0
M  V30 8160 H 719.431 -6.11343 -2.95697 0
M  V30 8161 H 717.377 -4.63346 -4.64378 0
M  V30 8162 H 717.294 -6.30073 -4.17785 0
M  V30 8163 H 718.562 -5.76943 -5.24173 0
M  V30 8164 N 722.791 0.367657 -1.53252 0
M  V30 8165 C 723.721 1.45632 -1.8252 0
M  V30 8166 C 724.702 1.55979 -0.678568 0
M  V30 8167 O 725.887 1.70581 -0.928217 0
M  V30 8168 C 723.017 2.82994 -2.01325 0
M  V30 8169 C 721.971 2.87473 -3.17086 0
M  V30 8170 C 721.297 4.2749 -3.21179 0
M  V30 8171 C 722.597 2.55182 -4.55719 0
M  V30 8172 H 724.291 1.21387 -2.73689 0
M  V30 8173 H 721.837 0.58251 -1.31692 0
M  V30 8174 H 723.79 3.59179 -2.20383 0
M  V30 8175 H 722.514 3.08622 -1.06864 0
M  V30 8176 H 721.173 2.13739 -2.97844 0
M  V30 8177 H 720.821 4.5019 -2.24361 0
M  V30 8178 H 720.521 4.31403 -3.98955 0
M  V30 8179 H 722.045 5.0555 -3.42419 0
M  V30 8180 H 723.459 3.21081 -4.74953 0
M  V30 8181 H 721.856 2.70414 -5.3572 0
M  V30 8182 H 722.926 1.5044 -4.60973 0
M  V30 8183 N 724.269 1.44576 0.627338 0
M  V30 8184 C 725.515 1.4877 1.38705 0
M  V30 8185 C 725.87 0.119976 1.92026 0
M  V30 8186 O 725.163 -0.865341 1.70946 0
M  V30 8187 C 725.357 2.48644 2.56731 0
M  V30 8188 C 725.186 3.94994 2.14965 0
M  V30 8189 C 723.956 4.63139 2.02065 0
M  V30 8190 C 726.154 4.841 1.73643 0
M  V30 8191 N 724.136 5.94296 1.53902 0
M  V30 8192 C 725.507 6.0473 1.36753 0
M  V30 8193 C 727.562 4.71131 1.61058 0
M  V30 8194 C 726.265 7.13831 0.885353 0
M  V30 8195 C 728.291 5.8026 1.14244 0
M  V30 8196 C 727.653 7.00034 0.783067 0
M  V30 8197 H 723.752 0.599415 0.50222 0
M  V30 8198 H 726.336 1.80926 0.719285 0
M  V30 8199 H 724.507 2.18472 3.2113 0
M  V30 8200 H 726.239 2.4311 3.23542 0
M  V30 8201 H 722.994 4.18007 2.22637 0
M  V30 8202 H 723.418 6.63985 1.32108 0
M  V30 8203 H 728.06 3.78964 1.87473 0
M  V30 8204 H 725.778 8.05804 0.608716 0
M  V30 8205 H 729.364 5.72254 1.0496 0
M  V30 8206 H 728.244 7.8304 0.426381 0
M  V30 8207 N 725.747 -0.868086 1.31537 0
M  V30 8208 C 727.024 -1.60384 1.11965 0
M  V30 8209 C 727.404 -2.08584 -0.324949 0
M  V30 8210 O 726.752 -1.86561 -1.31937 0
M  V30 8211 C 726.962 -2.76038 2.13551 0
M  V30 8212 C 728.31 -3.45954 2.46173 0
M  V30 8213 O 729.334 -2.86247 2.11993 0
M  V30 8214 O 728.193 -4.53666 3.04711 0
M  V30 8215 H 725.287 -0.705705 0.431172 0
M  V30 8216 H 727.833 -0.913385 1.43022 0
M  V30 8217 H 726.605 -2.37849 3.10714 0
M  V30 8218 H 726.228 -3.52769 1.83411 0
M  V30 8219 N 727.225 -1.14528 -1.08264 0
M  V30 8220 C 728.45 -0.938381 -1.84957 0
M  V30 8221 C 728.875 0.508044 -1.81109 0
M  V30 8222 O 728.233 1.36146 -1.19724 0
M  V30 8223 C 728.281 -1.44568 -3.30352 0
M  V30 8224 O 727.385 -0.638745 -4.07423 0
M  V30 8225 H 726.726 -0.335394 -0.573068 0
M  V30 8226 H 729.256 -1.52287 -1.36637 0
M  V30 8227 H 729.266 -1.45449 -3.81194 0
M  V30 8228 H 727.941 -2.49876 -3.32468 0
M  V30 8229 H 726.518 -0.698801 -3.66294 0
M  V30 8230 N 728.703 1.26451 -0.940633 0
M  V30 8231 C 729.928 1.98407 -0.60412 0
M  V30 8232 C 730.353 1.69584 0.81382 0
M  V30 8233 O 729.711 0.943553 1.54812 0
M  V30 8234 C 729.759 3.50387 -0.852136 0
M  V30 8235 O 728.863 4.1233 0.076013 0
M  V30 8236 H 728.204 0.622466 -0.231153 0
M  V30 8237 H 730.734 1.60932 -1.26342 0
M  V30 8238 H 730.744 4.00614 -0.772816 0
M  V30 8239 H 729.419 3.70696 -1.88566 0
M  V30 8240 H 727.996 3.7286 -0.0543187 0
M  V30 8241 N 730.181 0.707592 1.40822 0
M  V30 8242 C 731.597 0.38034 1.55002 0
M  V30 8243 C 731.797 -1.11163 1.68062 0
M  V30 8244 O 730.853 -1.89761 1.66574 0
M  V30 8245 C 732.166 1.1394 2.78277 0
M  V30 8246 C 733.714 1.12492 2.92087 0
M  V30 8247 C 734.189 1.86597 4.18265 0
M  V30 8248 N 735.68 1.83626 4.25248 0
M  V30 8249 C 736.415 2.37794 5.21768 0
M  V30 8250 N 735.911 3.00485 6.24244 0
M  V30 8251 N 737.704 2.27982 5.13791 0
M  V30 8252 H 729.855 1.67511 1.3059 0
M  V30 8253 H 732.118 0.707579 0.630901 0
M  V30 8254 H 731.824 2.19398 2.74877 0
M  V30 8255 H 731.698 0.725793 3.70151 0
M  V30 8256 H 734.085 0.0785564 2.94995 0
M  V30 8257 H 734.166 1.57768 2.01353 0
M  V30 8258 H 733.81 2.91219 4.16118 0
M  V30 8259 H 733.74 1.38746 5.07993 0
M  V30 8260 H 736.231 1.3793 3.51829 0
M  V30 8261 H 736.544 3.39355 6.94304 0
M  V30 8262 H 734.889 3.04567 6.24711 0
M  V30 8263 H 738.08 1.78669 4.3266 0
M  V30 8264 H 738.253 2.70499 5.88841 0
M  V30 8265 N 731.66 -1.50943 0.453197 0
M  V30 8266 C 732.937 -1.94872 -0.168633 0
M  V30 8267 C 733.317 -1.39272 -1.5864 0
M  V30 8268 O 732.665 -0.586272 -2.20851 0
M  V30 8269 C 732.875 -3.48757 -0.130217 0
M  V30 8270 C 734.223 -4.23331 -0.327975 0
M  V30 8271 O 735.247 -3.55594 -0.207619 0
M  V30 8272 O 734.106 -5.43529 -0.569077 0
M  V30 8273 H 731.2 -0.818042 -0.121394 0
M  V30 8274 H 733.746 -1.61782 0.512316 0
M  V30 8275 H 732.518 -3.81725 0.860346 0
M  V30 8276 H 732.141 -3.88333 -0.853397 0
M  V30 8277 N 733.138 -0.185124 -1.56509 0
M  V30 8278 C 734.387 0.456421 -1.96468 0
M  V30 8279 C 734.7 1.63448 -1.07444 0
M  V30 8280 O 735.906 2.34316 -1.37143 0
M  V30 8281 C 734.362 0.863404 -3.4939 0
M  V30 8282 C 733.97 -0.289815 -4.47062 0
M  V30 8283 C 735.714 1.47259 -3.98139 0
M  V30 8284 C 733.621 0.137571 -5.9124 0
M  V30 8285 H 732.551 0.17429 -0.733579 0
M  V30 8286 H 735.202 -0.275554 -1.81419 0
M  V30 8287 H 733.584 1.65176 -3.59907 0
M  V30 8288 H 734.758 -1.06728 -4.4827 0
M  V30 8289 H 733.073 -0.809851 -4.08449 0
M  V30 8290 H 735.67 1.80463 -5.03326 0
M  V30 8291 H 736.013 2.3755 -3.41871 0
M  V30 8292 H 736.546 0.748405 -3.90696 0
M  V30 8293 H 733.285 -0.730907 -6.51412 0
M  V30 8294 H 732.805 0.8801 -5.93308 0
M  V30 8295 H 734.484 0.576771 -6.44424 0
M  V30 8296 N 734.616 1.57351 0.0885366 0
M  V30 8297 C 735.841 1.91011 0.80805 0
M  V30 8298 C 736.266 0.780009 1.71165 0
M  V30 8299 O 735.624 -0.268083 1.79307 0
M  V30 8300 C 735.672 3.23562 1.59185 0
M  V30 8301 O 734.776 3.11615 2.7013 0
M  V30 8302 H 734.117 0.625943 0.221565 0
M  V30 8303 H 736.647 2.04507 0.0617954 0
M  V30 8304 H 736.657 3.5703 1.97468 0
M  V30 8305 H 735.332 4.05398 0.928741 0
M  V30 8306 H 733.909 2.89673 2.34827 0
M  V30 8307 N 736.094 -0.359525 1.53444 0
M  V30 8308 C 737.51 -0.701599 1.43352 0
M  V30 8309 C 737.71 -1.93049 0.577439 0
M  V30 8310 O 736.766 -2.52423 0.0622224 0
M  V30 8311 C 738.079 -0.90915 2.86627 0
M  V30 8312 C 739.627 -1.00878 2.96298 0
M  V30 8313 C 740.102 -1.24876 4.40647 0
M  V30 8314 N 741.593 -1.31632 4.44103 0
M  V30 8315 C 742.328 -1.51922 5.52908 0
M  V30 8316 N 741.824 -1.69489 6.71748 0
M  V30 8317 N 743.617 -1.54341 5.40496 0
M  V30 8318 H 735.768 0.448685 2.07607 0
M  V30 8319 H 738.031 0.138713 0.937797 0
M  V30 8320 H 737.737 -0.0778997 3.51614 0
M  V30 8321 H 737.611 -1.81551 3.30634 0
M  V30 8322 H 739.998 -1.83057 2.31461 0
M  V30 8323 H 740.079 -0.0796721 2.55676 0
M  V30 8324 H 739.723 -0.431961 5.0606 0
M  V30 8325 H 739.653 -2.19118 4.78848 0
M  V30 8326 H 742.144 -1.19646 3.5846 0
M  V30 8327 H 742.457 -1.84561 7.50438 0
M  V30 8328 H 740.802 -1.66655 6.74723 0
M  V30 8329 H 743.993 -1.40188 4.46615 0
M  V30 8330 H 744.166 -1.69812 6.25354 0
M  V30 8331 O 737.611 -1.53385 -0.505502 0
M  V30 8332 H 738.302 -1.55093 -1.16042 0
M  V30 END ATOM
M  V30 BEGIN BOND
M  V30 END BOND
M  V30 END CTAB
M  END
$$$$
