drugbank_target|Q8NBN7 Retinol dehydrogenase 13 (DB00162)
 OpenBabel12092119353D

  0  0  0     0  0            999 V3000
M  V30 BEGIN CTAB
M  V30 COUNTS 5100 5147 0 0 0
M  V30 BEGIN ATOM
M  V30 1 H -0.908 1.98254 -0.117106 0
M  V30 2 N 0 1.576 0 0
M  V30 3 C 0.933 2.03868 1.02534 0
M  V30 4 C 1.911 0.928543 1.3348 0
M  V30 5 O 3.095 1.19667 1.45644 0
M  V30 6 C 0.222 2.43627 2.35294 0
M  V30 7 C -0.732 3.65373 2.2001 0
M  V30 8 S 0.101 5.13292 1.52614 0
M  V30 9 C 1.257 5.56322 2.86805 0
M  V30 10 H 1.49 2.90518 0.631377 0
M  V30 11 H -0.977 1.52953 0.210867 0
M  V30 12 H 0.981 2.67203 3.11629 0
M  V30 13 H -0.358 1.57376 2.7183 0
M  V30 14 H -1.165 3.90944 3.18086 0
M  V30 15 H -1.563 3.418 1.51819 0
M  V30 16 H 0.729 5.58782 3.83104 0
M  V30 17 H 1.672 6.56266 2.65933 0
M  V30 18 H 2.08 4.83886 2.90714 0
M  V30 19 N 1.4781 -0.272755 1.55222 0
M  V30 20 C 2.7031 -1.02683 1.80197 0
M  V30 21 C 3.1281 -1.79142 0.573551 0
M  V30 22 O 2.4861 -1.74917 -0.476849 0
M  V30 23 C 2.5341 -1.9609 3.02624 0
M  V30 24 O 1.6381 -3.04863 2.77727 0
M  V30 25 H 0.9791 -0.293557 0.595584 0
M  V30 26 H 3.5091 -0.30159 2.02365 0
M  V30 27 H 3.5191 -2.38039 3.31363 0
M  V30 28 H 2.1941 -1.39851 3.91682 0
M  V30 29 H 0.7711 -2.67228 2.60084 0
M  V30 30 N 2.9562 -1.48159 -0.537278 0
M  V30 31 C 4.3722 -1.34118 -0.865129 0
M  V30 32 C 4.5722 -0.346678 -1.98495 0
M  V30 33 O 3.6282 0.234715 -2.51407 0
M  V30 34 C 4.9412 -2.73963 -1.23954 0
M  V30 35 C 6.4892 -2.82397 -1.34984 0
M  V30 36 C 6.9642 -4.22928 -1.75772 0
M  V30 37 N 8.4552 -4.25566 -1.82887 0
M  V30 38 C 9.1902 -5.31235 -2.15817 0
M  V30 39 N 8.6862 -6.47189 -2.47222 0
M  V30 40 N 10.4792 -5.18624 -2.16761 0
M  V30 41 H 2.6302 -2.1144 0.201715 0
M  V30 42 H 4.8932 -0.947598 0.0275949 0
M  V30 43 H 4.5992 -3.48264 -0.490381 0
M  V30 44 H 4.4732 -3.0702 -2.19132 0
M  V30 45 H 6.8602 -2.08356 -2.08978 0
M  V30 46 H 6.9412 -2.5297 -0.379448 0
M  V30 47 H 6.5852 -4.97482 -1.02341 0
M  V30 48 H 6.5152 -4.49794 -2.73848 0
M  V30 49 H 9.0062 -3.41924 -1.60924 0
M  V30 50 H 9.3192 -7.23564 -2.71433 0
M  V30 51 H 7.6642 -6.50476 -2.44757 0
M  V30 52 H 10.8552 -4.27056 -1.91679 0
M  V30 53 H 11.0282 -6.01078 -2.42093 0
M  V30 54 N 4.4343 0.785586 -1.36625 0
M  V30 55 C 5.6643 1.5722 -1.34036 0
M  V30 56 C 6.0723 1.89033 0.0795062 0
M  V30 57 O 5.4153 1.50881 1.04789 0
M  V30 58 C 5.4773 2.91759 -2.10041 0
M  V30 59 C 5.1413 2.82654 -3.59104 0
M  V30 60 C 6.1383 2.54634 -4.53274 0
M  V30 61 C 3.8233 3.01111 -4.02042 0
M  V30 62 C 5.8173 2.45177 -5.88359 0
M  V30 63 C 3.5043 2.91276 -5.37216 0
M  V30 64 C 4.5023 2.63348 -6.30188 0
M  V30 65 O 4.1903 2.53514 -7.6288 0
M  V30 66 H 3.9223 0.494177 -0.461265 0
M  V30 67 H 6.4763 0.982632 -1.8037 0
M  V30 68 H 4.7063 3.52781 -1.58375 0
M  V30 69 H 6.3953 3.53059 -2.00261 0
M  V30 70 H 7.1613 2.40073 -4.21414 0
M  V30 71 H 3.0403 3.21854 -3.30047 0
M  V30 72 H 6.5843 2.23299 -6.60896 0
M  V30 73 H 2.4813 3.054 -5.68684 0
M  V30 74 H 3.2493 2.68967 -7.73045 0
M  V30 75 N 5.9124 1.20967 1.01018 0
M  V30 76 C 6.8424 0.988272 2.11555 0
M  V30 77 C 7.8234 -0.0849778 1.69888 0
M  V30 78 O 9.0084 0.0738202 1.9406 0
M  V30 79 C 6.1384 0.546528 3.42973 0
M  V30 80 C 5.0924 1.56375 3.9841 0
M  V30 81 C 4.4184 0.97842 5.25672 0
M  V30 82 C 5.7184 2.94922 4.31066 0
M  V30 83 H 7.4124 1.91276 2.30334 0
M  V30 84 H 4.9584 0.921073 1.1069 0
M  V30 85 H 6.9114 0.378839 4.19694 0
M  V30 86 H 5.6354 -0.413598 3.23971 0
M  V30 87 H 4.2944 1.71891 3.23804 0
M  V30 88 H 3.9424 0.0101688 5.02999 0
M  V30 89 H 3.6424 1.65784 5.63728 0
M  V30 90 H 5.1664 0.821939 6.05043 0
M  V30 91 H 6.5804 2.8288 4.9865 0
M  V30 92 H 4.9774 3.5983 4.80253 0
M  V30 93 H 6.0474 3.4616 3.39561 0
M  V30 94 N 7.3905 -1.2043 1.01659 0
M  V30 95 C 8.3205 -2.25466 0.607226 0
M  V30 96 C 9.3015 -1.65853 -0.377716 0
M  V30 97 O 10.4865 -1.92409 -0.263149 0
M  V30 98 C 7.6165 -3.47256 -0.0552949 0
M  V30 99 C 6.5705 -4.19462 0.850632 0
M  V30 100 C 5.8965 -5.34673 0.0538859 0
M  V30 101 C 7.1965 -4.75603 2.15868 0
M  V30 102 H 8.8905 -2.59962 1.48526 0
M  V30 103 H 6.4365 -1.2496 0.715605 0
M  V30 104 H 8.3895 -4.19917 -0.353233 0
M  V30 105 H 7.1135 -3.11924 -0.968045 0
M  V30 106 H 5.7725 -3.48667 1.13257 0
M  V30 107 H 5.4205 -4.95585 -0.860514 0
M  V30 108 H 5.1205 -5.83913 0.657192 0
M  V30 109 H 6.6445 -6.10138 -0.237598 0
M  V30 110 H 8.0585 -5.40083 1.92311 0
M  V30 111 H 6.4555 -5.3528 2.71284 0
M  V30 112 H 7.5255 -3.94346 2.82169 0
M  V30 113 N 8.8686 -0.792821 -1.36206 0
M  V30 114 C 10.2796 -0.429513 -1.81692 0
M  V30 115 C 10.6306 1.04695 -1.65932 0
M  V30 116 O 9.7556 1.81256 -1.18218 0
M  V30 117 C 10.3506 -0.772831 -3.29868 0
M  V30 118 C 8.9096 -0.462307 -3.7355 0
M  V30 119 C 8.0566 -1.00569 -2.5842 0
M  V30 120 H 11.0076 -0.985672 -1.24379 0
M  V30 121 H 11.0286 -0.0651928 -3.80444 0
M  V30 122 H 10.5406 -1.84747 -3.41307 0
M  V30 123 H 8.6416 0.604158 -3.67669 0
M  V30 124 H 8.7546 -0.985299 -4.68859 0
M  V30 125 H 7.1186 -0.428734 -2.51066 0
M  V30 126 H 7.9016 -2.08616 -2.72643 0
M  V30 127 N 10.3467 1.47872 -0.545128 0
M  V30 128 C 11.2767 2.32661 0.197793 0
M  V30 129 C 12.2577 1.43041 0.920504 0
M  V30 130 O 13.4427 1.71912 0.90333 0
M  V30 131 C 10.5727 3.24569 1.23582 0
M  V30 132 C 9.5267 4.23333 0.630323 0
M  V30 133 C 8.8527 5.0448 1.77211 0
M  V30 134 C 10.1527 5.20704 -0.407974 0
M  V30 135 H 11.8467 2.95024 -0.510045 0
M  V30 136 H 9.3927 1.4187 -0.246731 0
M  V30 137 H 11.3457 3.8272 1.76362 0
M  V30 138 H 10.0697 2.60236 1.97344 0
M  V30 139 H 8.7287 3.6639 0.123922 0
M  V30 140 H 8.3767 4.36561 2.49847 0
M  V30 141 H 8.0767 5.71339 1.37281 0
M  V30 142 H 9.6007 5.65487 2.3034 0
M  V30 143 H 11.0147 5.7329 0.033305 0
M  V30 144 H 9.4117 5.95699 -0.725486 0
M  V30 145 H 10.4817 4.66917 -1.30828 0
M  V30 146 N 11.8248 0.280983 1.55075 0
M  V30 147 C 13.0498 -0.340154 2.04592 0
M  V30 148 C 13.4748 -1.48246 1.15779 0
M  V30 149 O 12.8328 -1.80614 0.15761 0
M  V30 150 C 12.8808 -0.793104 3.5177 0
M  V30 151 O 11.9848 -1.89981 3.66034 0
M  V30 152 H 11.3258 -0.0694289 0.66036 0
M  V30 153 H 13.8558 0.416993 2.00306 0
M  V30 154 H 13.8658 -1.08729 3.93245 0
M  V30 155 H 12.5408 0.0426163 4.15878 0
M  V30 156 H 11.1178 -1.60771 3.36463 0
M  V30 157 N 13.3029 -1.57598 0.00835791 0
M  V30 158 C 14.2659 -2.07884 -0.965242 0
M  V30 159 C 15.2659 -0.989825 -1.26725 0
M  V30 160 O 16.4559 -1.25218 -1.21104 0
M  V30 161 C 13.5879 -2.52731 -2.28779 0
M  V30 162 H 14.7809 -2.95178 -0.530112 0
M  V30 163 H 12.3339 -1.54458 -0.239283 0
M  V30 164 H 13.0689 -1.68705 -2.76964 0
M  V30 165 H 12.8539 -3.32272 -2.08177 0
M  V30 166 H 14.3439 -2.91933 -2.98605 0
M  V30 167 N 14.781 0.264519 -1.55364 0
M  V30 168 C 15.711 1.33121 -1.91836 0
M  V30 169 C 16.692 1.51101 -0.781192 0
M  V30 170 O 17.877 1.64003 -1.04003 0
M  V30 171 C 15.007 2.68921 -2.19769 0
M  V30 172 C 13.961 2.65661 -3.35571 0
M  V30 173 C 13.287 4.05093 -3.49004 0
M  V30 174 C 14.587 2.24187 -4.71739 0
M  V30 175 H 16.281 1.02844 -2.81182 0
M  V30 176 H 13.827 0.493286 -1.35287 0
M  V30 177 H 15.78 3.43663 -2.43872 0
M  V30 178 H 14.504 3.00799 -1.27231 0
M  V30 179 H 13.163 1.93377 -3.1145 0
M  V30 180 H 12.811 4.34206 -2.53917 0
M  V30 181 H 12.511 4.03804 -4.26868 0
M  V30 182 H 14.035 4.81561 -3.75408 0
M  V30 183 H 15.449 2.88654 -4.9533 0
M  V30 184 H 13.846 2.34044 -5.52579 0
M  V30 185 H 14.916 1.19327 -4.69988 0
M  V30 186 N 16.2591 1.48442 0.529413 0
M  V30 187 C 17.5071 1.56179 1.28267 0
M  V30 188 C 17.8281 0.237721 1.93546 0
M  V30 189 O 17.0981 -0.740779 1.81354 0
M  V30 190 H 15.6781 0.575367 0.476405 0
M  V30 191 H 18.3401 1.84909 0.61602 0
M  V30 192 H 17.4361 2.34312 2.06165 0
M  V30 193 N 17.7372 -0.778329 1.37039 0
M  V30 194 C 18.9652 -1.56734 1.35063 0
M  V30 195 C 19.3802 -1.88686 -0.0655597 0
M  V30 196 O 18.7372 -1.5096 -1.02554 0
M  V30 197 C 18.7882 -2.88163 2.18276 0
M  V30 198 O 18.5092 -2.57583 3.54376 0
M  V30 199 C 20.0102 -3.82422 2.24206 0
M  V30 200 H 17.2302 -0.485778 0.462883 0
M  V30 201 H 19.7742 -0.965185 1.8029 0
M  V30 202 H 17.9292 -3.44818 1.76576 0
M  V30 203 H 18.3432 -3.41699 3.97922 0
M  V30 204 H 19.8172 -4.71667 2.86765 0
M  V30 205 H 20.2942 -4.21078 1.24861 0
M  V30 206 H 20.9002 -3.31697 2.6619 0
M  V30 207 N 19.2153 -1.21501 -1.00376 0
M  V30 208 C 20.4613 -1.03452 -1.74429 0
M  V30 209 C 20.7943 0.430764 -1.89362 0
M  V30 210 O 20.0693 1.31962 -1.42886 0
M  V30 211 C 20.3523 -1.73375 -3.15615 0
M  V30 212 C 20.2053 -3.27431 -3.08397 0
M  V30 213 C 21.5243 -1.47732 -4.14564 0
M  V30 214 H 18.6433 -0.377226 -0.633143 0
M  V30 215 H 21.2853 -1.49693 -1.17013 0
M  V30 216 H 19.4353 -1.34064 -3.64636 0
M  V30 217 H 21.1073 -3.76119 -2.67081 0
M  V30 218 H 19.3503 -3.5767 -2.45468 0
M  V30 219 H 20.0213 -3.71524 -4.08258 0
M  V30 220 H 22.4973 -1.8186 -3.74254 0
M  V30 221 H 21.3733 -1.99169 -5.11491 0
M  V30 222 H 21.6343 -0.407589 -4.40217 0
M  V30 223 N 20.6934 1.19889 -1.02296 0
M  V30 224 C 21.6564 2.21116 -0.603351 0
M  V30 225 C 22.6564 1.5738 0.329884 0
M  V30 226 O 23.8464 1.73802 0.117702 0
M  V30 227 C 20.9784 3.40696 0.117992 0
M  V30 228 H 22.1714 2.59754 -1.49893 0
M  V30 229 H 19.7244 1.33463 -0.813468 0
M  V30 230 H 20.4594 3.07569 1.0282 0
M  V30 231 H 20.2444 3.88188 -0.552511 0
M  V30 232 H 21.7344 4.15692 0.398696 0
M  V30 233 N 22.1715 0.800033 1.35784 0
M  V30 234 C 23.4195 0.376597 1.9856 0
M  V30 235 C 23.7405 -1.05812 1.63795 0
M  V30 236 O 23.0105 -1.73103 0.917171 0
M  V30 237 H 21.5905 0.136261 0.734467 0
M  V30 238 H 24.2525 1.02442 1.65806 0
M  V30 239 H 23.3485 0.477002 3.08433 0
M  V30 240 N 23.6496 -1.47581 0.552962 0
M  V30 241 C 24.6126 -2.28439 -0.186605 0
M  V30 242 C 25.6126 -1.36706 -0.84665 0
M  V30 243 O 26.8026 -1.59378 -0.703164 0
M  V30 244 C 23.9346 -3.16264 -1.2724 0
M  V30 245 H 25.1276 -2.95294 0.523609 0
M  V30 246 H 22.6806 -1.532 0.309745 0
M  V30 247 H 23.4156 -2.54091 -2.01514 0
M  V30 248 H 23.2006 -3.83769 -0.803968 0
M  V30 249 H 24.6906 -3.77198 -1.79196 0
M  V30 250 N 25.1277 -0.289203 -1.54924 0
M  V30 251 C 26.0907 0.579144 -2.21762 0
M  V30 252 C 27.0907 1.07047 -1.1999 0
M  V30 253 O 28.2807 0.968384 -1.44803 0
M  V30 254 C 25.4127 1.80055 -2.8947 0
M  V30 255 H 26.6057 -0.00464908 -2.999 0
M  V30 256 H 24.1587 -0.0399306 -1.56249 0
M  V30 257 H 24.8937 2.42449 -2.15381 0
M  V30 258 H 24.6787 1.45602 -3.64064 0
M  V30 259 H 26.1687 2.41773 -3.40493 0
M  V30 260 N 26.6058 1.57591 -0.0167156 0
M  V30 261 C 27.8518 1.91567 0.665582 0
M  V30 262 C 28.1848 0.892298 1.72487 0
M  V30 263 O 27.4598 -0.0867127 1.94307 0
M  V30 264 C 27.7428 3.36069 1.29342 0
M  V30 265 C 27.5958 4.49135 0.244541 0
M  V30 266 C 28.9148 3.803 2.21495 0
M  V30 267 H 26.0338 0.69666 0.240488 0
M  V30 268 H 28.6758 1.89866 -0.0714356 0
M  V30 269 H 26.8258 3.3765 1.92158 0
M  V30 270 H 28.4978 4.59689 -0.385228 0
M  V30 271 H 26.7408 4.3165 -0.431379 0
M  V30 272 H 27.4118 5.47242 0.723207 0
M  V30 273 H 29.8878 3.80377 1.68678 0
M  V30 274 H 28.7638 4.82127 2.62382 0
M  V30 275 H 29.0248 3.15104 3.101 0
M  V30 276 N 28.0839 -0.256276 1.55502 0
M  V30 277 C 29.0139 -1.32102 1.92539 0
M  V30 278 C 29.9949 -1.50684 0.789194 0
M  V30 279 O 31.1799 -1.63449 1.04872 0
M  V30 280 C 28.3099 -2.67752 2.21192 0
M  V30 281 C 27.2639 -2.63878 3.36975 0
M  V30 282 C 26.5899 -4.03236 3.51147 0
M  V30 283 C 27.8899 -2.21682 4.72921 0
M  V30 284 H 29.5839 -1.01351 2.81724 0
M  V30 285 H 27.1299 -0.486105 1.35547 0
M  V30 286 H 29.0829 -3.42365 2.45691 0
M  V30 287 H 27.8069 -3.0012 1.28824 0
M  V30 288 H 26.4659 -1.91722 3.12471 0
M  V30 289 H 26.1139 -4.32854 2.56216 0
M  V30 290 H 25.8139 -4.01535 4.29003 0
M  V30 291 H 27.3379 -4.79563 3.77957 0
M  V30 292 H 28.7519 -2.86023 4.96854 0
M  V30 293 H 27.1489 -2.3111 5.53812 0
M  V30 294 H 28.2189 -1.16833 4.70615 0
M  V30 295 N 29.562 -1.4872 -0.521534 0
M  V30 296 C 30.492 -1.66771 -1.63431 0
M  V30 297 C 31.473 -0.516499 -1.62069 0
M  V30 298 O 32.658 -0.750013 -1.79132 0
M  V30 299 C 29.788 -1.71515 -3.01993 0
M  V30 300 C 28.742 -2.86222 -3.18216 0
M  V30 301 C 28.068 -2.76061 -4.57924 0
M  V30 302 C 29.368 -4.27419 -3.00184 0
M  V30 303 H 31.062 -2.59932 -1.48579 0
M  V30 304 H 28.608 -1.25089 -0.713358 0
M  V30 305 H 30.561 -1.82731 -3.7972 0
M  V30 306 H 29.285 -0.749393 -3.17886 0
M  V30 307 H 27.944 -2.74575 -2.42908 0
M  V30 308 H 27.592 -1.77437 -4.70665 0
M  V30 309 H 27.292 -3.53037 -4.69722 0
M  V30 310 H 28.816 -2.89256 -5.37739 0
M  V30 311 H 30.23 -4.39855 -3.67697 0
M  V30 312 H 28.627 -5.05458 -3.2347 0
M  V30 313 H 29.697 -4.43293 -1.96518 0
M  V30 314 N 31.0401 0.771051 -1.3745 0
M  V30 315 C 31.9871 1.88435 -1.3327 0
M  V30 316 C 32.9571 1.64914 -0.198136 0
M  V30 317 O 34.1421 1.86821 -0.387606 0
M  V30 318 C 31.2821 3.25509 -1.14622 0
M  V30 319 C 30.3951 3.60979 -2.37314 0
M  V30 320 C 29.5301 4.87265 -2.11533 0
M  V30 321 C 28.5691 5.15469 -3.30088 0
M  V30 322 N 27.7061 6.32944 -3.03853 0
M  V30 323 H 32.5461 1.91344 -2.28455 0
M  V30 324 H 30.0831 0.935466 -1.13523 0
M  V30 325 H 32.0411 4.04582 -1.01831 0
M  V30 326 H 30.6711 3.21974 -0.230837 0
M  V30 327 H 29.7231 2.76885 -2.60842 0
M  V30 328 H 31.0351 3.77759 -3.25729 0
M  V30 329 H 30.1891 5.74244 -1.95777 0
M  V30 330 H 28.9281 4.7259 -1.20457 0
M  V30 331 H 27.9331 4.26966 -3.46382 0
M  V30 332 H 29.1581 5.32052 -4.22016 0
M  V30 333 H 27.1041 6.19625 -2.15407 0
M  V30 334 H 27.0211 6.50143 -3.85812 0
M  V30 335 H 28.2891 7.22857 -2.91716 0
M  V30 336 N 32.5182 1.22032 0.997298 0
M  V30 337 C 33.7952 0.950823 1.70935 0
M  V30 338 C 34.1752 -0.535292 2.042 0
M  V30 339 O 33.5232 -1.50217 1.72183 0
M  V30 340 C 33.7332 1.84386 2.96315 0
M  V30 341 C 35.0812 2.09732 3.69185 0
M  V30 342 O 36.1052 1.81798 3.06314 0
M  V30 343 O 34.9642 2.57018 4.82291 0
M  V30 344 H 32.0582 0.357204 0.745878 0
M  V30 345 H 34.6042 1.32997 1.05404 0
M  V30 346 H 33.3762 2.84928 2.68201 0
M  V30 347 H 32.9992 1.46602 3.69586 0
M  V30 348 N 33.9963 -1.19345 1.0293 0
M  V30 349 C 35.2263 -1.92717 0.744563 0
M  V30 350 C 35.6343 -1.75751 -0.700579 0
M  V30 351 O 34.9773 -1.07703 -1.48815 0
M  V30 352 C 35.0393 -3.44828 1.01657 0
M  V30 353 C 34.7033 -3.85564 2.45335 0
M  V30 354 C 35.7003 -3.90286 3.43472 0
M  V30 355 C 33.3853 -4.1719 2.79746 0
M  V30 356 C 35.3793 -4.26065 4.74075 0
M  V30 357 C 33.0663 -4.52642 4.10559 0
M  V30 358 C 34.0643 -4.57054 5.07534 0
M  V30 359 O 33.7523 -4.91685 6.36004 0
M  V30 360 H 33.4843 -0.618977 0.271742 0
M  V30 361 H 36.0383 -1.52415 1.37691 0
M  V30 362 H 34.2683 -3.85314 0.327084 0
M  V30 363 H 35.9573 -3.99437 0.721427 0
M  V30 364 H 36.7233 -3.66002 3.18225 0
M  V30 365 H 32.6023 -4.1294 2.04943 0
M  V30 366 H 36.1463 -4.29423 5.49765 0
M  V30 367 H 32.0433 -4.76383 4.35579 0
M  V30 368 H 32.8113 -5.09631 6.40483 0
M  V30 369 N 35.4744 -0.807222 -1.35358 0
M  V30 370 C 36.7204 -0.388463 -1.99045 0
M  V30 371 C 37.0534 1.04184 -1.63888 0
M  V30 372 O 36.3284 1.72292 -0.902535 0
M  V30 373 C 36.6114 -0.572783 -3.55515 0
M  V30 374 C 36.4644 -2.04807 -4.00468 0
M  V30 375 C 37.7834 0.00114064 -4.401 0
M  V30 376 H 34.9024 -0.142619 -0.723069 0
M  V30 377 H 37.5444 -1.01687 -1.60498 0
M  V30 378 H 35.6944 -0.0378425 -3.88482 0
M  V30 379 H 37.3664 -2.64544 -3.77908 0
M  V30 380 H 35.6094 -2.54427 -3.51353 0
M  V30 381 H 36.2804 -2.12792 -5.09337 0
M  V30 382 H 38.7564 -0.455716 -4.13597 0
M  V30 383 H 37.6324 -0.157737 -5.48673 0
M  V30 384 H 37.8934 1.09488 -4.28328 0
M  V30 385 N 36.9525 1.47285 -0.560781 0
M  V30 386 C 38.1805 2.06855 -0.0430262 0
M  V30 387 C 38.5955 1.41291 1.25229 0
M  V30 388 O 37.9525 0.510648 1.7521 0
M  V30 389 C 38.0035 3.61178 0.152518 0
M  V30 390 O 37.7245 4.24285 -1.0915 0
M  V30 391 C 39.2255 4.37624 0.707145 0
M  V30 392 H 36.4455 0.669319 -0.0474652 0
M  V30 393 H 38.9895 1.89237 -0.77521 0
M  V30 394 H 37.1445 3.78298 0.834843 0
M  V30 395 H 37.5585 5.16868 -0.891482 0
M  V30 396 H 39.0325 5.46271 0.793244 0
M  V30 397 H 39.5095 4.04152 1.71923 0
M  V30 398 H 40.1155 4.25257 0.0604027 0
M  V30 399 N 38.4306 0.297415 1.54768 0
M  V30 400 C 39.6786 -0.312295 1.99673 0
M  V30 401 C 39.9996 -1.54686 1.18732 0
M  V30 402 O 39.2696 -1.93854 0.282382 0
M  V30 403 H 37.8496 -0.118381 0.73756 0
M  V30 404 H 40.5116 0.407915 1.90583 0
M  V30 405 H 39.6076 -0.586813 3.06534 0
M  V30 406 N 39.9087 -1.5758 0.0250728 0
M  V30 407 C 41.1567 -1.91255 -0.653151 0
M  V30 408 C 41.4777 -0.901691 -1.729 0
M  V30 409 O 40.7477 0.0573785 -1.95816 0
M  V30 410 H 39.3277 -0.705942 -0.244243 0
M  V30 411 H 41.9897 -1.94767 0.0719209 0
M  V30 412 H 41.0857 -2.91752 -1.10847 0
M  V30 413 N 41.3868 0.248026 -1.55636 0
M  V30 414 C 42.3498 1.29044 -1.89421 0
M  V30 415 C 43.3498 1.41134 -0.770581 0
M  V30 416 O 44.5398 1.39854 -1.03858 0
M  V30 417 C 41.6718 2.66831 -2.12165 0
M  V30 418 H 42.8648 1.00305 -2.82629 0
M  V30 419 H 40.4178 0.487265 -1.48511 0
M  V30 420 H 41.1528 3.00711 -1.21422 0
M  V30 421 H 40.9378 2.59438 -2.93997 0
M  V30 422 H 42.4278 3.42103 -2.3949 0
M  V30 423 N 42.8649 1.48995 0.513639 0
M  V30 424 C 44.1049 1.59452 1.27885 0
M  V30 425 C 44.4689 0.269479 1.90099 0
M  V30 426 O 45.6699 0.249139 2.67643 0
M  V30 427 C 43.9409 2.71277 2.32688 0
M  V30 428 S 45.4999 3.01604 3.18717 0
M  V30 429 H 42.3179 0.562565 0.434789 0
M  V30 430 H 44.9199 1.86595 0.583301 0
M  V30 431 H 43.6239 3.66089 1.8549 0
M  V30 432 H 43.1549 2.46086 3.06929 0
M  V30 433 H 45.1699 2.42155 4.331 0
M  V30 434 N 44.343 -0.763751 1.37857 0
M  V30 435 C 45.754 -1.3405 1.29952 0
M  V30 436 C 46.105 -1.96138 -0.0492898 0
M  V30 437 O 45.23 -1.94372 -0.951239 0
M  V30 438 C 45.825 -2.43729 2.35333 0
M  V30 439 C 44.384 -2.97151 2.31037 0
M  V30 440 C 43.531 -1.70438 2.18738 0
M  V30 441 H 46.482 -0.563396 1.48363 0
M  V30 442 H 46.503 -3.23412 2.00462 0
M  V30 443 H 46.015 -1.9851 3.33489 0
M  V30 444 H 44.116 -3.46724 1.3643 0
M  V30 445 H 44.229 -3.52221 3.24772 0
M  V30 446 H 42.593 -1.93673 1.65418 0
M  V30 447 H 43.376 -1.27312 3.18821 0
M  V30 448 N 45.8211 -1.22559 -0.990812 0
M  V30 449 C 47.0461 -1.07862 -1.77145 0
M  V30 450 C 47.4711 0.366447 -1.84496 0
M  V30 451 O 46.8291 1.26478 -1.29896 0
M  V30 452 C 46.8771 -1.69686 -3.18181 0
M  V30 453 O 45.9811 -0.951946 -4.01263 0
M  V30 454 H 45.3221 -0.378712 -0.545411 0
M  V30 455 H 47.8521 -1.62399 -1.2445 0
M  V30 456 H 47.8621 -1.74496 -3.68802 0
M  V30 457 H 46.5371 -2.74841 -3.12146 0
M  V30 458 H 45.1141 -0.980011 -3.59792 0
M  V30 459 N 47.2992 1.18797 -1.03562 0
M  V30 460 C 48.2462 2.22253 -0.622259 0
M  V30 461 C 49.2162 1.61987 0.36736 0
M  V30 462 O 50.4012 1.88986 0.262492 0
M  V30 463 C 47.5412 3.45097 0.0138462 0
M  V30 464 C 46.6542 4.19722 -1.02263 0
M  V30 465 C 45.7892 5.30009 -0.355573 0
M  V30 466 C 44.8282 5.96399 -1.37749 0
M  V30 467 N 43.9652 6.98234 -0.735766 0
M  V30 468 H 48.8052 2.56968 -1.50903 0
M  V30 469 H 46.3422 1.26245 -0.755017 0
M  V30 470 H 48.3002 4.15279 0.399948 0
M  V30 471 H 46.9302 3.11018 0.864158 0
M  V30 472 H 45.9822 3.48418 -1.52673 0
M  V30 473 H 47.2942 4.65227 -1.79903 0
M  V30 474 H 46.4482 6.0664 0.0850095 0
M  V30 475 H 45.1872 4.85592 0.452967 0
M  V30 476 H 44.1922 5.18512 -1.82826 0
M  V30 477 H 45.4172 6.42899 -2.18764 0
M  V30 478 H 43.3632 6.55979 0.0525597 0
M  V30 479 H 43.2802 7.41965 -1.44995 0
M  V30 480 H 44.5482 7.78845 -0.31941 0
M  V30 481 N 48.7773 0.814389 1.34928 0
M  V30 482 C 49.7403 0.235759 2.27984 0
M  V30 483 C 50.7403 -0.581412 1.49921 0
M  V30 484 O 51.9303 -0.398758 1.69575 0
M  V30 485 C 49.0623 -0.670433 3.34242 0
M  V30 486 H 50.2553 1.05659 2.80671 0
M  V30 487 H 47.8083 0.585614 1.44915 0
M  V30 488 H 48.5433 -1.51466 2.86755 0
M  V30 489 H 48.3283 -0.0860822 3.92005 0
M  V30 490 H 49.8183 -1.06935 4.03676 0
M  V30 491 N 50.2554 -1.46986 0.568584 0
M  V30 492 C 51.4834 -2.0683 0.0539956 0
M  V30 493 C 51.8984 -1.41953 -1.24478 0
M  V30 494 O 51.2554 -0.519933 -1.74937 0
M  V30 495 C 51.3064 -3.61254 -0.133362 0
M  V30 496 O 51.0274 -4.237 1.11399 0
M  V30 497 C 52.5284 -4.37992 -0.683927 0
M  V30 498 H 49.7484 -0.669058 0.0510141 0
M  V30 499 H 52.2924 -1.88824 0.785234 0
M  V30 500 H 50.4474 -3.78735 -0.81477 0
M  V30 501 H 50.8614 -5.16388 0.91888 0
M  V30 502 H 52.3354 -5.46684 -0.764263 0
M  V30 503 H 52.8124 -4.05058 -1.69778 0
M  V30 504 H 53.4184 -4.25283 -0.0378494 0
M  V30 505 N 51.7335 -0.305618 -1.54608 0
M  V30 506 C 52.9825 0.303098 -1.9941 0
M  V30 507 C 53.2955 1.54648 -1.19764 0
M  V30 508 O 54.5015 2.23007 -1.54855 0
M  V30 509 C 52.9575 0.590588 -3.55021 0
M  V30 510 C 52.5655 -0.634719 -4.43481 0
M  V30 511 C 54.3095 1.16025 -4.08336 0
M  V30 512 C 52.2165 -0.320126 -5.90533 0
M  V30 513 H 51.1465 0.117031 -0.744862 0
M  V30 514 H 53.7975 -0.415045 -1.78745 0
M  V30 515 H 52.1795 1.36845 -3.71604 0
M  V30 516 H 53.3535 -1.41079 -4.38672 0
M  V30 517 H 51.6685 -1.12333 -4.00962 0
M  V30 518 H 54.2655 1.40994 -5.15776 0
M  V30 519 H 54.6085 2.10397 -3.5922 0
M  V30 520 H 55.1415 0.443985 -3.95315 0
M  V30 521 H 51.8805 -1.23254 -6.43808 0
M  V30 522 H 51.4005 0.418579 -5.98338 0
M  V30 523 H 53.0795 0.0766241 -6.46955 0
M  V30 524 N 53.2116 1.57565 -0.0334293 0
M  V30 525 C 54.6226 1.79746 0.504798 0
M  V30 526 C 54.9736 0.944091 1.71992 0
M  V30 527 O 54.0986 0.155694 2.15839 0
M  V30 528 C 54.6936 3.25997 0.922567 0
M  V30 529 C 53.2526 3.49159 1.40588 0
M  V30 530 C 52.3996 2.74785 0.372633 0
M  V30 531 H 55.3506 1.56565 -0.259436 0
M  V30 532 H 55.3716 3.35945 1.78666 0
M  V30 533 H 54.8836 3.88081 0.0379825 0
M  V30 534 H 52.9846 2.92332 2.31025 0
M  V30 535 H 53.0976 4.57873 1.41028 0
M  V30 536 H 51.4616 2.40391 0.841672 0
M  V30 537 H 52.2446 3.39587 -0.503559 0
M  V30 538 N 54.6897 -0.239769 1.55765 0
M  V30 539 C 55.9377 -0.964892 1.77579 0
M  V30 540 C 56.2587 -1.85582 0.598699 0
M  V30 541 O 55.5287 -1.92075 -0.385226 0
M  V30 542 H 54.1087 -0.359265 0.654933 0
M  V30 543 H 56.7707 -0.256001 1.93211 0
M  V30 544 H 55.8667 -1.58243 2.69009 0
M  V30 545 N 56.1678 -1.49265 -0.50573 0
M  V30 546 C 57.1148 -1.65585 -1.6078 0
M  V30 547 C 58.0848 -0.497396 -1.58478 0
M  V30 548 O 59.2698 -0.72385 -1.76536 0
M  V30 549 C 56.4098 -1.72408 -2.98948 0
M  V30 550 C 55.5228 -2.99525 -3.11301 0
M  V30 551 C 54.6578 -2.97356 -4.40174 0
M  V30 552 C 53.6968 -4.19074 -4.46143 0
M  V30 553 N 52.8338 -4.14841 -5.66437 0
M  V30 554 H 57.6738 -2.59688 -1.46172 0
M  V30 555 H 55.2108 -1.28761 -0.711261 0
M  V30 556 H 57.1688 -1.74344 -3.79025 0
M  V30 557 H 55.7988 -0.817753 -3.1227 0
M  V30 558 H 54.8508 -3.07222 -2.24318 0
M  V30 559 H 56.1628 -3.89518 -3.11572 0
M  V30 560 H 55.3168 -2.97829 -5.28567 0
M  V30 561 H 54.0558 -2.05133 -4.42461 0
M  V30 562 H 53.0608 -4.1885 -3.56153 0
M  V30 563 H 54.2858 -5.12483 -4.45575 0
M  V30 564 H 52.2318 -3.25453 -5.69575 0
M  V30 565 H 52.1488 -4.98564 -5.68304 0
M  V30 566 H 53.4168 -4.1941 -6.57051 0
M  V30 567 N 57.6459 0.756429 -1.3826 0
M  V30 568 C 58.8739 1.54565 -1.3754 0
M  V30 569 C 59.2889 1.88767 0.0355331 0
M  V30 570 O 58.6459 1.52572 1.0014 0
M  V30 571 C 58.6969 2.84654 -2.22833 0
M  V30 572 O 58.4179 2.51912 -3.5843 0
M  V30 573 C 59.9189 3.78807 -2.30261 0
M  V30 574 H 57.1389 0.478353 -0.470553 0
M  V30 575 H 59.6829 0.936381 -1.81803 0
M  V30 576 H 57.8379 3.41965 -1.8204 0
M  V30 577 H 58.2519 3.35325 -4.03308 0
M  V30 578 H 59.7259 4.67045 -2.94233 0
M  V30 579 H 60.2029 4.19038 -1.31545 0
M  V30 580 H 60.8089 3.2742 -2.71433 0
M  V30 581 N 59.124 1.23083 0.984299 0
M  V30 582 C 60.37 1.06214 1.72761 0
M  V30 583 C 60.703 -0.400584 1.90024 0
M  V30 584 O 59.978 -1.29672 1.44967 0
M  V30 585 C 60.261 1.78375 3.12817 0
M  V30 586 C 60.114 3.32296 3.03149 0
M  V30 587 C 61.433 1.54309 4.12161 0
M  V30 588 H 58.552 0.387251 0.627061 0
M  V30 589 H 61.194 1.51536 1.14616 0
M  V30 590 H 59.344 1.39848 3.62457 0
M  V30 591 H 61.016 3.8032 2.61064 0
M  V30 592 H 59.259 3.6153 2.39747 0
M  V30 593 H 59.93 3.77972 4.02295 0
M  V30 594 H 62.406 1.87791 3.71314 0
M  V30 595 H 61.282 2.07281 5.08258 0
M  V30 596 H 61.543 0.477572 4.39513 0
M  V30 597 N 60.6021 -1.18246 1.0419 0
M  V30 598 C 61.8511 -1.87588 0.741194 0
M  V30 599 C 62.1641 -1.81303 -0.734066 0
M  V30 600 O 63.3701 -2.46019 -1.14834 0
M  V30 601 C 61.8261 -3.36538 1.27555 0
M  V30 602 C 61.4341 -3.51349 2.77953 0
M  V30 603 C 63.1781 -4.11273 1.05143 0
M  V30 604 C 61.0851 -4.94265 3.2474 0
M  V30 605 H 60.0151 -0.702622 0.273565 0
M  V30 606 H 62.6661 -1.33601 1.25789 0
M  V30 607 H 61.0481 -3.9 0.686703 0
M  V30 608 H 62.2221 -3.08153 3.42605 0
M  V30 609 H 60.5371 -2.90022 2.98791 0
M  V30 610 H 63.1341 -5.16689 1.37611 0
M  V30 611 H 63.4771 -4.16298 -0.0112774 0
M  V30 612 H 64.0101 -3.63987 1.60495 0
M  V30 613 H 60.7491 -4.94408 4.30396 0
M  V30 614 H 60.2691 -5.38172 2.64823 0
M  V30 615 H 61.9481 -5.62987 3.18834 0
M  V30 616 N 62.0802 -0.821533 -1.34494 0
M  V30 617 C 63.3262 -0.409552 -1.98622 0
M  V30 618 C 63.6592 1.0244 -1.64984 0
M  V30 619 O 62.9342 1.71325 -0.920758 0
M  V30 620 C 63.2172 -0.610458 -3.54888 0
M  V30 621 C 63.0702 -2.09043 -3.98273 0
M  V30 622 C 64.3892 -0.0455379 -4.40076 0
M  V30 623 H 61.5082 -0.15028 -0.721516 0
M  V30 624 H 64.1502 -1.03384 -1.59411 0
M  V30 625 H 62.3002 -0.079044 -3.8842 0
M  V30 626 H 63.9722 -2.68537 -3.75081 0
M  V30 627 H 62.2152 -2.58139 -3.48635 0
M  V30 628 H 62.8862 -2.18182 -5.07051 0
M  V30 629 H 65.3622 -0.499557 -4.1309 0
M  V30 630 H 64.2382 -0.215922 -5.48475 0
M  V30 631 H 64.4992 1.04939 -4.29465 0
M  V30 632 N 63.5583 1.46682 -0.576371 0
M  V30 633 C 64.7863 2.06798 -0.0649635 0
M  V30 634 C 65.2013 1.42612 1.23723 0
M  V30 635 O 64.5583 0.529203 1.74659 0
M  V30 636 C 64.6093 3.6132 0.114202 0
M  V30 637 O 64.3303 4.23104 -1.13644 0
M  V30 638 C 65.8313 4.38349 0.66069 0
M  V30 639 H 63.0513 0.668778 -0.0545616 0
M  V30 640 H 65.5953 1.88404 -0.795237 0
M  V30 641 H 63.7503 3.79162 0.794673 0
M  V30 642 H 64.1643 5.15894 -0.946253 0
M  V30 643 H 65.6383 5.47081 0.73526 0
M  V30 644 H 66.1153 4.05953 1.67627 0
M  V30 645 H 66.7213 4.25297 0.0152951 0
M  V30 646 N 65.0364 0.313813 1.54444 0
M  V30 647 C 66.2844 -0.291099 1.99993 0
M  V30 648 C 66.6054 -1.53418 1.20366 0
M  V30 649 O 65.8754 -1.93544 0.302927 0
M  V30 650 H 64.4554 -0.110552 0.738774 0
M  V30 651 H 67.1174 0.428106 1.9014 0
M  V30 652 H 66.2134 -0.554268 3.07139 0
M  V30 653 N 66.5145 -1.57545 0.0417849 0
M  V30 654 C 67.4775 -2.09885 -0.92093 0
M  V30 655 C 68.4775 -1.01648 -1.24596 0
M  V30 656 O 69.6675 -1.27759 -1.1842 0
M  V30 657 C 66.7995 -2.57527 -2.23367 0
M  V30 658 H 67.9925 -2.96236 -0.467382 0
M  V30 659 H 65.5455 -1.5493 -0.206467 0
M  V30 660 H 66.2805 -1.74542 -2.73323 0
M  V30 661 H 66.0655 -3.36613 -2.01083 0
M  V30 662 H 67.5555 -2.98201 -2.92346 0
M  V30 663 N 67.9926 0.231505 -1.5589 0
M  V30 664 C 68.9406 1.30649 -1.92441 0
M  V30 665 C 69.9346 1.49037 -0.805254 0
M  V30 666 O 71.1406 1.50329 -0.990007 0
M  V30 667 H 67.5156 0.437812 -0.611412 0
M  V30 668 H 69.4866 0.970973 -2.82161 0
M  V30 669 C 68.2356 2.65179 -2.24889 0
M  V30 670 H 67.5586 2.51835 -3.10514 0
M  V30 671 H 68.9986 3.39234 -2.54355 0
M  V30 672 C 67.4576 3.19439 -1.07054 0
M  V30 673 O 67.9876 4.00371 -0.326499 0
M  V30 674 N 66.1936 2.77675 -0.85703 0
M  V30 675 H 65.7406 2.11969 -1.46379 0
M  V30 676 H 65.6986 3.14321 -0.0703223 0
M  V30 677 N 69.4707 1.49531 0.497807 0
M  V30 678 C 70.6987 1.62893 1.27567 0
M  V30 679 C 71.1137 0.301585 1.86376 0
M  V30 680 O 70.4707 -0.713335 1.67982 0
M  V30 681 C 70.5217 2.70013 2.40364 0
M  V30 682 O 70.2427 3.976 1.83972 0
M  V30 683 C 71.7437 2.94109 3.31685 0
M  V30 684 H 68.9637 0.548298 0.386794 0
M  V30 685 H 71.5077 1.95584 0.597245 0
M  V30 686 H 69.6627 2.40092 3.04031 0
M  V30 687 H 70.0767 4.56631 2.58047 0
M  V30 688 H 71.5507 3.72788 4.07104 0
M  V30 689 H 72.0277 2.04147 3.88871 0
M  V30 690 H 72.6337 3.2546 2.73781 0
M  V30 691 N 70.9488 -0.749086 1.3866 0
M  V30 692 C 72.1968 -1.50535 1.34847 0
M  V30 693 C 72.5178 -1.94909 -0.0595016 0
M  V30 694 O 71.7878 -1.67973 -1.00806 0
M  V30 695 H 70.3678 -0.558395 0.49619 0
M  V30 696 H 73.0298 -0.890165 1.73384 0
M  V30 697 H 72.1258 -2.39413 2.00219 0
M  V30 698 N 72.4269 -1.23603 -0.977757 0
M  V30 699 C 73.6759 -1.06377 -1.71368 0
M  V30 700 C 73.9889 0.399062 -1.91486 0
M  V30 701 O 75.1949 0.691312 -2.62551 0
M  V30 702 C 73.6509 -1.85512 -3.08404 0
M  V30 703 C 73.2589 -3.36141 -2.96164 0
M  V30 704 C 75.0029 -1.76783 -3.85938 0
M  V30 705 C 72.9099 -4.07659 -4.28449 0
M  V30 706 H 71.8399 -0.394452 -0.642591 0
M  V30 707 H 74.4909 -1.47594 -1.09034 0
M  V30 708 H 72.8729 -1.37103 -3.71509 0
M  V30 709 H 74.0469 -3.92056 -2.42133 0
M  V30 710 H 72.3619 -3.45712 -2.32104 0
M  V30 711 H 74.9589 -2.27526 -4.83876 0
M  V30 712 H 75.3019 -0.731116 -4.0983 0
M  V30 713 H 75.8349 -2.22818 -3.2954 0
M  V30 714 H 72.5739 -5.11648 -4.09752 0
M  V30 715 H 72.0939 -3.5653 -4.82334 0
M  V30 716 H 73.7729 -4.141 -4.97122 0
M  V30 717 N 73.905 1.17692 -1.04816 0
M  V30 718 C 75.153 1.87488 -0.754497 0
M  V30 719 C 75.474 1.81205 0.720407 0
M  V30 720 O 74.744 1.23544 1.52032 0
M  V30 721 H 73.324 0.694101 -0.276102 0
M  V30 722 H 75.986 1.42793 -1.32651 0
M  V30 723 H 75.082 2.93328 -1.06606 0
M  V30 724 N 75.3831 0.828654 1.34056 0
M  V30 725 C 76.3301 0.252567 2.29414 0
M  V30 726 C 77.3001 -0.62588 1.53857 0
M  V30 727 O 78.4851 -0.566312 1.82202 0
M  V30 728 C 75.6251 -0.574831 3.40279 0
M  V30 729 C 74.7381 0.326499 4.30764 0
M  V30 730 C 73.8731 -0.511016 5.28736 0
M  V30 731 C 72.9121 0.389342 6.1086 0
M  V30 732 N 72.0491 -0.409439 7.00905 0
M  V30 733 H 76.8891 1.07108 2.78086 0
M  V30 734 H 74.4261 0.539677 1.36843 0
M  V30 735 H 76.3841 -1.06992 4.03248 0
M  V30 736 H 75.0141 -1.35841 2.92826 0
M  V30 737 H 74.0661 0.939837 3.68607 0
M  V30 738 H 75.3781 1.01857 4.88289 0
M  V30 739 H 74.5321 -1.07035 5.97184 0
M  V30 740 H 73.2711 -1.23657 4.71763 0
M  V30 741 H 72.2761 0.960769 5.4134 0
M  V30 742 H 73.5011 1.1131 6.69916 0
M  V30 743 H 71.4471 -1.11856 6.46393 0
M  V30 744 H 71.3641 0.224126 7.55668 0
M  V30 745 H 72.6321 -0.951336 7.73673 0
M  V30 746 N 76.8612 -1.46375 0.584142 0
M  V30 747 C 77.7932 -2.28443 -0.186119 0
M  V30 748 C 78.8062 -1.38596 -0.854115 0
M  V30 749 O 79.9952 -1.63183 -0.723438 0
M  V30 750 C 77.0952 -3.13671 -1.28311 0
M  V30 751 C 76.2682 -4.31652 -0.706758 0
M  V30 752 C 75.3272 -4.98267 -1.69163 0
M  V30 753 O 74.3532 -5.55815 -1.22712 0
M  V30 754 N 75.5552 -4.95408 -3.02575 0
M  V30 755 H 78.3202 -2.9519 0.517986 0
M  V30 756 H 75.8812 -1.56303 0.42201 0
M  V30 757 H 77.8732 -3.55101 -1.94128 0
M  V30 758 H 76.4432 -2.48989 -1.89005 0
M  V30 759 H 75.6632 -3.93989 0.128908 0
M  V30 760 H 76.9512 -5.07906 -0.301506 0
M  V30 761 H 76.3492 -4.49902 -3.42936 0
M  V30 762 H 74.9062 -5.40774 -3.63877 0
M  V30 763 N 78.3393 -0.321999 -1.54275 0
M  V30 764 C 79.5673 0.283052 -2.04955 0
M  V30 765 C 79.9823 1.45904 -1.19823 0
M  V30 766 O 79.3393 1.81063 -0.228545 0
M  V30 767 C 79.3903 0.719028 -3.54277 0
M  V30 768 O 79.1113 -0.410175 -4.36176 0
M  V30 769 C 80.6123 1.38705 -4.21041 0
M  V30 770 H 77.8323 0.0584616 -0.668448 0
M  V30 771 H 80.3763 -0.467734 -1.99079 0
M  V30 772 H 78.5313 1.41979 -3.60445 0
M  V30 773 H 78.9453 -0.0669416 -5.24457 0
M  V30 774 H 80.4193 1.64306 -5.2698 0
M  V30 775 H 80.8963 2.33385 -3.72059 0
M  V30 776 H 81.5023 0.728906 -4.19007 0
M  V30 777 N 79.8174 1.5752 -0.0501392 0
M  V30 778 C 80.7804 2.1037 0.909786 0
M  V30 779 C 81.7804 1.02308 1.24056 0
M  V30 780 O 82.9704 1.28385 1.17741 0
M  V30 781 C 80.1024 2.58708 2.21998 0
M  V30 782 H 81.2954 2.96479 0.451665 0
M  V30 783 H 78.8484 1.55038 0.198248 0
M  V30 784 H 79.5834 1.75989 2.72394 0
M  V30 785 H 79.3684 3.37675 1.99295 0
M  V30 786 H 80.8584 2.99747 2.9076 0
M  V30 787 N 81.2955 -0.223234 1.56011 0
M  V30 788 C 82.2255 -1.27988 1.95298 0
M  V30 789 C 83.2065 -1.48976 0.820979 0
M  V30 790 O 84.3915 -1.61188 1.08315 0
M  V30 791 C 81.5215 -2.63 2.26822 0
M  V30 792 C 80.4755 -2.56671 3.42497 0
M  V30 793 C 79.8015 -3.95697 3.59622 0
M  V30 794 C 81.1015 -2.11601 4.77517 0
M  V30 795 H 82.7955 -0.953525 2.8381 0
M  V30 796 H 80.3415 -0.457244 1.36548 0
M  V30 797 H 82.2945 -3.37077 2.52898 0
M  V30 798 H 81.0185 -2.9732 1.35161 0
M  V30 799 H 79.6775 -1.85051 3.16467 0
M  V30 800 H 79.3255 -4.27322 2.6534 0
M  V30 801 H 79.0255 -3.92345 4.37424 0
M  V30 802 H 80.5495 -4.71438 3.88044 0
M  V30 803 H 81.9635 -2.7542 5.02809 0
M  V30 804 H 80.3605 -2.19311 5.5859 0
M  V30 805 H 81.4305 -1.06824 4.72987 0
M  V30 806 N 82.7736 -1.49793 -0.48987 0
M  V30 807 C 83.6836 -1.70036 -1.61632 0
M  V30 808 C 84.6996 -0.583102 -1.63939 0
M  V30 809 O 85.8756 -0.859169 -1.82154 0
M  V30 810 C 82.9406 -1.77277 -2.97949 0
M  V30 811 C 82.0016 -3.00918 -3.06181 0
M  V30 812 C 81.2346 -3.07804 -4.35996 0
M  V30 813 O 81.4576 -2.21982 -5.25433 0
M  V30 814 O 80.3916 -4.00369 -4.49431 0
M  V30 815 H 84.2176 -2.65486 -1.47482 0
M  V30 816 H 81.8026 -1.33666 -0.667362 0
M  V30 817 H 83.6846 -1.84329 -3.78947 0
M  V30 818 H 82.3596 -0.850076 -3.12339 0
M  V30 819 H 81.2666 -2.99377 -2.2433 0
M  V30 820 H 82.5996 -3.92704 -2.96723 0
M  V30 821 N 84.2517 0.741722 -1.39055 0
M  V30 822 C 85.1817 1.869 -1.39966 0
M  V30 823 C 86.1627 1.6804 -0.26392 0
M  V30 824 O 87.3477 1.88458 -0.468755 0
M  V30 825 C 84.4777 3.24572 -1.23574 0
M  V30 826 C 83.4317 3.58056 -2.34477 0
M  V30 827 C 82.7577 4.94593 -2.0318 0
M  V30 828 C 84.0577 3.61716 -3.76774 0
M  V30 829 H 85.7517 1.86395 -2.34302 0
M  V30 830 H 83.2977 0.895361 -1.1278 0
M  V30 831 H 85.2507 4.031 -1.22834 0
M  V30 832 H 83.9747 3.25587 -0.257045 0
M  V30 833 H 82.6337 2.81854 -2.34423 0
M  V30 834 H 82.2817 4.92181 -1.03765 0
M  V30 835 H 81.9817 5.17964 -2.77465 0
M  V30 836 H 83.5057 5.75486 -2.04079 0
M  V30 837 H 84.9197 4.30335 -3.78794 0
M  V30 838 H 83.3167 3.96603 -4.50362 0
M  V30 839 H 84.3867 2.61672 -4.08235 0
M  V30 840 N 85.7298 1.2412 0.971189 0
M  V30 841 C 86.6928 1.03156 2.04674 0
M  V30 842 C 87.6928 -0.00990322 1.60797 0
M  V30 843 O 88.8828 0.230729 1.72665 0
M  V30 844 C 86.0148 0.562765 3.36223 0
M  V30 845 H 87.2078 1.98614 2.24705 0
M  V30 846 H 84.7608 1.06293 1.14593 0
M  V30 847 H 85.4958 -0.395176 3.21883 0
M  V30 848 H 85.2808 1.31441 3.69413 0
M  V30 849 H 86.7708 0.437015 4.15307 0
M  V30 850 N 87.2079 -1.17134 1.05439 0
M  V30 851 C 88.6239 -1.39454 0.776201 0
M  V30 852 C 88.8239 -1.91454 -0.628307 0
M  V30 853 O 87.8799 -2.10777 -1.39031 0
M  V30 854 C 89.1929 -2.38305 1.83388 0
M  V30 855 C 90.7409 -2.52006 1.85639 0
M  V30 856 C 91.2159 -3.54133 2.90437 0
M  V30 857 N 92.7069 -3.61653 2.89415 0
M  V30 858 C 93.4419 -4.4044 3.67152 0
M  V30 859 N 92.9379 -5.22721 4.54681 0
M  V30 860 N 94.7309 -4.35337 3.55581 0
M  V30 861 H 86.8819 -0.817134 1.96053 0
M  V30 862 H 89.1449 -0.421626 0.849079 0
M  V30 863 H 88.8509 -2.07173 2.84204 0
M  V30 864 H 88.7249 -3.37841 1.67761 0
M  V30 865 H 91.1119 -2.82447 0.85486 0
M  V30 866 H 91.1929 -1.52537 2.05344 0
M  V30 867 H 90.8369 -3.24431 3.90777 0
M  V30 868 H 90.7669 -4.53313 2.67983 0
M  V30 869 H 93.2579 -3.02909 2.25952 0
M  V30 870 H 93.5709 -5.80027 5.10674 0
M  V30 871 H 91.9159 -5.22093 4.58741 0
M  V30 872 H 95.1069 -3.70112 2.86592 0
M  V30 873 H 95.2799 -4.96494 4.1641 0
M  V30 874 N 88.686 -0.835752 -1.33615 0
M  V30 875 C 90.102 -0.523139 -1.50783 0
M  V30 876 C 90.302 0.950171 -1.77691 0
M  V30 877 O 89.358 1.73411 -1.83534 0
M  V30 878 C 90.671 -1.39378 -2.66448 0
M  V30 879 C 92.219 -1.39223 -2.80332 0
M  V30 880 C 92.694 -2.24765 -3.99055 0
M  V30 881 N 94.185 -2.22458 -4.06284 0
M  V30 882 C 94.92 -2.85386 -4.97336 0
M  V30 883 N 94.416 -3.57354 -5.93523 0
M  V30 884 N 96.209 -2.74872 -4.90308 0
M  V30 885 H 88.36 -1.78952 -1.14411 0
M  V30 886 H 90.623 -0.763297 -0.562212 0
M  V30 887 H 90.329 -2.44061 -2.53234 0
M  V30 888 H 90.203 -1.0676 -3.61776 0
M  V30 889 H 92.59 -0.353136 -2.92979 0
M  V30 890 H 92.671 -1.75846 -1.85773 0
M  V30 891 H 92.315 -3.28732 -3.87167 0
M  V30 892 H 92.245 -1.85485 -4.92852 0
M  V30 893 H 94.736 -1.70119 -3.37443 0
M  V30 894 H 95.049 -4.02584 -6.59656 0
M  V30 895 H 93.394 -3.61461 -5.93608 0
M  V30 896 H 96.585 -2.18213 -4.14126 0
M  V30 897 H 96.758 -3.24199 -5.61069 0
M  V30 898 N 90.1641 1.46063 -0.591896 0
M  V30 899 C 91.4121 2.01938 -0.0808391 0
M  V30 900 C 91.7331 1.46475 1.28725 0
M  V30 901 O 91.0031 0.652944 1.84698 0
M  V30 902 H 89.5831 0.746516 -0.0268938 0
M  V30 903 H 92.2451 1.79055 -0.769752 0
M  V30 904 H 91.3411 3.12094 -0.0187578 0
M  V30 905 N 91.6422 0.330177 1.54103 0
M  V30 906 C 92.8902 -0.269871 2.0029 0
M  V30 907 C 93.2112 -1.52133 1.21986 0
M  V30 908 O 92.4812 -1.93212 0.323438 0
M  V30 909 H 91.0612 -0.10271 0.739905 0
M  V30 910 H 93.7232 0.448249 1.89675 0
M  V30 911 H 92.8192 -0.52166 3.07709 0
M  V30 912 N 93.1203 -1.57491 0.0584922 0
M  V30 913 C 94.0683 -2.13148 -0.931168 0
M  V30 914 C 95.0623 -1.06507 -1.31729 0
M  V30 915 O 96.2683 -1.24906 -1.29609 0
M  V30 916 H 92.6433 -0.68137 -0.31818 0
M  V30 917 H 94.6143 -2.95187 -0.436707 0
M  V30 918 C 93.3633 -2.69732 -2.19408 0
M  V30 919 H 92.6863 -3.51454 -1.90578 0
M  V30 920 H 94.1263 -3.12287 -2.86798 0
M  V30 921 C 92.5853 -1.63855 -2.94369 0
M  V30 922 O 93.1153 -1.05565 -3.87581 0
M  V30 923 N 91.3213 -1.35202 -2.57233 0
M  V30 924 H 90.8683 -1.82791 -1.81508 0
M  V30 925 H 90.8263 -0.645922 -3.07693 0
M  V30 926 N 94.5984 0.214957 -1.56127 0
M  V30 927 C 95.8474 0.936451 -1.78643 0
M  V30 928 C 96.1604 1.85237 -0.628229 0
M  V30 929 O 97.3664 2.613 -0.737186 0
M  V30 930 C 95.8224 1.7154 -3.16389 0
M  V30 931 C 95.4304 0.845299 -4.39953 0
M  V30 932 C 97.1744 2.42772 -3.48227 0
M  V30 933 C 95.0814 1.62198 -5.68723 0
M  V30 934 H 94.0114 0.353401 -0.666051 0
M  V30 935 H 96.6624 0.190169 -1.82512 0
M  V30 936 H 95.0444 2.50484 -3.06715 0
M  V30 937 H 96.2184 0.0959353 -4.607 0
M  V30 938 H 94.5334 0.244789 -4.1568 0
M  V30 939 H 97.1304 3.01394 -4.41663 0
M  V30 940 H 97.4734 3.15984 -2.71035 0
M  V30 941 H 98.0064 1.70813 -3.5926 0
M  V30 942 H 94.7454 0.933011 -6.48826 0
M  V30 943 H 94.2654 2.34579 -5.52026 0
M  V30 944 H 95.9444 2.18095 -6.09133 0
M  V30 945 N 96.0765 1.50051 0.48192 0
M  V30 946 C 97.3255 1.59741 1.23149 0
M  V30 947 C 97.6385 0.298163 1.93314 0
M  V30 948 O 98.8445 0.273835 2.70116 0
M  V30 949 C 97.3005 2.81926 2.23708 0
M  V30 950 C 96.9085 4.18685 1.59396 0
M  V30 951 C 98.6525 3.00956 2.99375 0
M  V30 952 C 96.5595 5.3207 2.58178 0
M  V30 953 H 95.4895 0.594838 0.46334 0
M  V30 954 H 98.1405 1.76467 0.503169 0
M  V30 955 H 96.5225 2.58736 2.99786 0
M  V30 956 H 97.6965 4.52088 0.891811 0
M  V30 957 H 96.0115 4.05171 0.960503 0
M  V30 958 H 98.6085 3.82836 3.73283 0
M  V30 959 H 98.9515 2.12258 3.58123 0
M  V30 960 H 99.4845 3.24277 2.30411 0
M  V30 961 H 96.2235 6.22888 2.04184 0
M  V30 962 H 95.7435 5.03098 3.26577 0
M  V30 963 H 97.4225 5.62196 3.20225 0
M  V30 964 N 97.5546 -0.734337 1.39446 0
M  V30 965 C 98.4846 -1.86155 1.40955 0
M  V30 966 C 99.4656 -1.67898 0.272827 0
M  V30 967 O 100.651 -1.88207 0.478743 0
M  V30 968 C 97.7806 -3.23912 1.25294 0
M  V30 969 C 96.7346 -3.56808 2.36373 0
M  V30 970 C 96.0606 -4.93508 2.058 0
M  V30 971 C 97.3606 -3.59713 3.78687 0
M  V30 972 H 99.0546 -1.8515 2.35287 0
M  V30 973 H 96.6006 -0.889367 1.13253 0
M  V30 974 H 98.5536 -4.02443 1.2497 0
M  V30 975 H 97.2776 -3.25446 0.274308 0
M  V30 976 H 95.9366 -2.80606 2.35914 0
M  V30 977 H 95.5846 -4.91623 1.06374 0
M  V30 978 H 95.2846 -5.16486 2.80208 0
M  V30 979 H 96.8086 -5.74396 2.07128 0
M  V30 980 H 98.2226 -4.2832 3.81071 0
M  V30 981 H 96.6196 -3.94209 4.52459 0
M  V30 982 H 97.6896 -2.59504 4.09617 0
M  V30 983 N 99.0327 -1.24633 -0.964593 0
M  V30 984 C 99.9957 -1.0424 -2.04124 0
M  V30 985 C 100.996 0.00137563 -1.608 0
M  V30 986 O 102.186 -0.239883 -1.7254 0
M  V30 987 C 99.3177 -0.580588 -3.3592 0
M  V30 988 H 100.511 -1.99803 -2.23649 0
M  V30 989 H 98.0637 -1.06899 -1.14027 0
M  V30 990 H 98.7987 0.3781 -3.22088 0
M  V30 991 H 98.5837 -1.33398 -3.6871 0
M  V30 992 H 100.074 -0.459034 -4.15069 0
M  V30 993 N 100.511 1.16574 -1.06058 0
M  V30 994 C 101.751 1.88723 -0.78504 0
M  V30 995 C 102.115 1.79706 0.676006 0
M  V30 996 O 103.316 2.46757 1.06603 0
M  V30 997 C 101.587 3.34338 -1.26304 0
M  V30 998 S 103.146 4.24366 -1.1162 0
M  V30 999 H 99.9638 0.651448 -0.284846 0
M  V30 1000 H 102.566 1.40732 -1.35701 0
M  V30 1001 H 101.27 3.38439 -2.32136 0
M  V30 1002 H 100.801 3.87378 -0.685719 0
M  V30 1003 H 102.816 4.96179 -0.0456539 0
M  V30 1004 N 101.989 0.842826 1.3317 0
M  V30 1005 C 103.405 0.531128 1.50503 0
M  V30 1006 C 103.605 -0.940734 1.78192 0
M  V30 1007 O 102.661 -1.72436 1.84451 0
M  V30 1008 C 103.974 1.40789 2.65705 0
M  V30 1009 C 105.522 1.40708 2.79589 0
M  V30 1010 C 105.997 2.26878 3.97857 0
M  V30 1011 N 107.488 2.24609 4.05099 0
M  V30 1012 C 108.223 2.88019 4.95815 0
M  V30 1013 N 107.719 3.60496 5.9162 0
M  V30 1014 N 109.512 2.77469 4.88843 0
M  V30 1015 H 101.663 1.79557 1.1346 0
M  V30 1016 H 103.926 0.766267 0.558156 0
M  V30 1017 H 103.632 2.454 2.51936 0
M  V30 1018 H 103.506 1.08677 3.61205 0
M  V30 1019 H 105.893 0.368668 2.92788 0
M  V30 1020 H 105.974 1.76829 1.84838 0
M  V30 1021 H 105.618 3.3078 3.85418 0
M  V30 1022 H 105.548 1.88096 4.91861 0
M  V30 1023 H 108.039 1.71906 3.36536 0
M  V30 1024 H 108.352 4.06076 6.57512 0
M  V30 1025 H 106.697 3.64604 5.91683 0
M  V30 1026 H 109.888 2.20406 4.12963 0
M  V30 1027 H 110.061 3.2717 5.59342 0
M  V30 1028 N 103.467 -1.45747 0.599634 0
M  V30 1029 C 104.744 -1.95585 0.0240846 0
M  V30 1030 C 105.124 -1.54217 -1.44154 0
M  V30 1031 O 104.472 -0.800903 -2.14004 0
M  V30 1032 C 104.682 -3.48344 0.21385 0
M  V30 1033 C 106.03 -4.24504 0.0904902 0
M  V30 1034 O 107.054 -3.55911 0.143558 0
M  V30 1035 O 105.913 -5.46491 -0.0310766 0
M  V30 1036 H 103.007 -0.82602 -0.0402478 0
M  V30 1037 H 105.553 -1.55951 0.669139 0
M  V30 1038 H 104.325 -3.71397 1.23206 0
M  V30 1039 H 103.948 -3.9485 -0.466842 0
M  V30 1040 N 104.945 -0.338344 -1.53925 0
M  V30 1041 C 105.878 0.563758 -2.21127 0
M  V30 1042 C 106.856 1.10433 -1.19345 0
M  V30 1043 O 108.04 1.16557 -1.48144 0
M  V30 1044 C 105.167 1.77505 -2.88461 0
M  V30 1045 C 104.213 1.3644 -4.04087 0
M  V30 1046 S 105.046 0.388593 -5.34088 0
M  V30 1047 C 106.202 1.60683 -6.04923 0
M  V30 1048 H 106.435 -0.00704546 -2.97299 0
M  V30 1049 H 103.968 -0.122418 -1.53914 0
M  V30 1050 H 105.926 2.46999 -3.27875 0
M  V30 1051 H 104.587 2.31706 -2.12064 0
M  V30 1052 H 103.78 2.26739 -4.50117 0
M  V30 1053 H 103.382 0.748998 -3.66423 0
M  V30 1054 H 105.674 2.54209 -6.28 0
M  V30 1055 H 106.617 1.18842 -6.98056 0
M  V30 1056 H 107.025 1.80052 -5.35015 0
M  V30 1057 N 106.423 1.57458 -0.0668435 0
M  V30 1058 C 107.333 2.15937 0.916975 0
M  V30 1059 C 108.349 1.12123 1.33058 0
M  V30 1060 O 109.525 1.44366 1.40429 0
M  V30 1061 C 106.59 2.70547 2.16807 0
M  V30 1062 C 105.651 3.89215 1.81135 0
M  V30 1063 C 104.884 4.41211 3.0028 0
M  V30 1064 O 105.107 3.92225 4.14144 0
M  V30 1065 O 104.041 5.32605 2.80384 0
M  V30 1066 H 107.867 3.00354 0.449561 0
M  V30 1067 H 105.452 1.48584 0.155949 0
M  V30 1068 H 107.334 3.0557 2.90181 0
M  V30 1069 H 106.009 1.89192 2.62656 0
M  V30 1070 H 104.916 3.59054 1.05028 0
M  V30 1071 H 106.249 4.71848 1.40073 0
M  V30 1072 N 107.901 -0.206675 1.56239 0
M  V30 1073 C 108.848 -1.25617 1.93621 0
M  V30 1074 C 109.818 -1.45824 0.795274 0
M  V30 1075 O 111.003 -1.59148 1.05245 0
M  V30 1076 C 108.143 -2.59839 2.27107 0
M  V30 1077 C 107.256 -2.47308 3.54207 0
M  V30 1078 C 106.391 -3.74155 3.7707 0
M  V30 1079 C 105.43 -3.56407 4.97635 0
M  V30 1080 N 104.567 -4.75238 5.1681 0
M  V30 1081 H 109.407 -0.930383 2.83104 0
M  V30 1082 H 106.944 -0.448065 1.4011 0
M  V30 1083 H 108.902 -3.38021 2.44535 0
M  V30 1084 H 107.532 -2.90485 1.40778 0
M  V30 1085 H 106.584 -1.60483 3.4489 0
M  V30 1086 H 107.896 -2.30122 4.42544 0
M  V30 1087 H 107.05 -4.60778 3.94675 0
M  V30 1088 H 105.789 -3.94282 2.87042 0
M  V30 1089 H 104.794 -2.68168 4.79964 0
M  V30 1090 H 106.019 -3.37736 5.89161 0
M  V30 1091 H 103.965 -4.95651 4.29728 0
M  V30 1092 H 103.882 -4.60835 5.99306 0
M  V30 1093 H 105.15 -5.63246 5.38864 0
M  V30 1094 N 109.379 -1.50304 -0.473955 0
M  V30 1095 C 110.619 -1.62786 -1.23612 0
M  V30 1096 C 110.983 -0.319786 -1.89318 0
M  V30 1097 O 112.184 -0.320012 -2.66888 0
M  V30 1098 C 110.455 -2.77351 -2.25414 0
M  V30 1099 S 112.014 -3.09948 -3.10608 0
M  V30 1100 H 108.832 -0.573895 -0.419721 0
M  V30 1101 H 111.434 -1.88076 -0.533623 0
M  V30 1102 H 110.138 -3.70879 -1.75719 0
M  V30 1103 H 109.669 -2.54137 -3.00296 0
M  V30 1104 H 111.684 -2.53553 -4.26527 0
M  V30 1105 N 110.857 0.726932 -1.39834 0
M  V30 1106 C 111.767 1.87131 -1.41489 0
M  V30 1107 C 112.783 1.71239 -0.308757 0
M  V30 1108 O 113.959 1.93701 -0.551529 0
M  V30 1109 C 111.024 3.22811 -1.26468 0
M  V30 1110 C 110.085 3.51039 -2.47124 0
M  V30 1111 C 109.318 4.80245 -2.3281 0
M  V30 1112 O 109.541 5.54537 -1.33585 0
M  V30 1113 O 108.475 5.08554 -3.21957 0
M  V30 1114 H 112.301 1.8869 -2.3797 0
M  V30 1115 H 109.886 0.875837 -1.21035 0
M  V30 1116 H 111.768 4.03877 -1.20255 0
M  V30 1117 H 110.443 3.22005 -0.330862 0
M  V30 1118 H 109.35 2.70027 -2.58914 0
M  V30 1119 H 110.683 3.56632 -3.39227 0
M  V30 1120 N 112.336 1.25143 0.95797 0
M  V30 1121 C 113.299 1.05321 2.03569 0
M  V30 1122 C 114.299 0.007152 1.60798 0
M  V30 1123 O 115.489 0.24903 1.72411 0
M  V30 1124 C 112.621 0.598394 3.35607 0
M  V30 1125 H 113.814 2.00986 2.22586 0
M  V30 1126 H 111.367 1.07502 1.13459 0
M  V30 1127 H 112.102 -0.361014 3.22284 0
M  V30 1128 H 111.887 1.35351 3.67998 0
M  V30 1129 H 113.377 0.48104 4.1482 0
M  V30 1130 N 113.814 -1.1601 1.06675 0
M  V30 1131 C 114.777 -2.18724 0.685001 0
M  V30 1132 C 115.777 -1.58496 -0.271246 0
M  V30 1133 O 116.967 -1.74119 -0.0531156 0
M  V30 1134 C 114.099 -3.40899 0.00853648 0
M  V30 1135 H 115.292 -2.54011 1.59431 0
M  V30 1136 H 112.845 -1.30352 0.862441 0
M  V30 1137 H 113.58 -3.11173 -0.913337 0
M  V30 1138 H 113.365 -3.8587 0.696204 0
M  V30 1139 H 114.855 -4.16886 -0.24414 0
M  V30 1140 N 115.292 -0.849877 -1.32721 0
M  V30 1141 C 116.255 -0.296122 -2.27279 0
M  V30 1142 C 117.255 0.541458 -1.5141 0
M  V30 1143 O 118.445 0.353658 -1.70572 0
M  V30 1144 C 115.577 0.581579 -3.35902 0
M  V30 1145 H 116.77 -1.13064 -2.77771 0
M  V30 1146 H 114.323 -0.62383 -1.43311 0
M  V30 1147 H 115.058 1.43809 -2.9067 0
M  V30 1148 H 114.843 -0.0178814 -3.92096 0
M  V30 1149 H 116.333 0.961951 -4.0637 0
M  V30 1150 N 116.77 1.45427 -0.607355 0
M  V30 1151 C 117.717 2.3053 0.111625 0
M  V30 1152 C 118.687 1.4209 0.860216 0
M  V30 1153 O 119.872 1.71019 0.845998 0
M  V30 1154 C 117.012 3.26992 1.10319 0
M  V30 1155 C 116.125 4.30535 0.355493 0
M  V30 1156 C 115.26 5.14105 1.33676 0
M  V30 1157 C 114.299 6.09376 0.576862 0
M  V30 1158 N 113.436 6.85727 1.5074 0
M  V30 1159 H 118.276 2.91477 -0.620093 0
M  V30 1160 H 115.813 1.43631 -0.317594 0
M  V30 1161 H 117.771 3.81385 1.6912 0
M  V30 1162 H 116.401 2.67799 1.80232 0
M  V30 1163 H 115.453 3.78805 -0.348023 0
M  V30 1164 H 116.765 4.98235 -0.237423 0
M  V30 1165 H 115.919 5.72897 1.99684 0
M  V30 1166 H 114.658 4.46423 1.9636 0
M  V30 1167 H 113.663 5.49715 -0.0968519 0
M  V30 1168 H 114.888 6.79085 -0.0449341 0
M  V30 1169 H 112.834 6.20735 2.12189 0
M  V30 1170 H 112.751 7.49778 0.967913 0
M  V30 1171 H 114.019 7.4906 2.15706 0
M  V30 1172 N 118.248 0.346503 1.53744 0
M  V30 1173 C 119.525 -0.304532 1.93215 0
M  V30 1174 C 119.905 -1.67993 1.27834 0
M  V30 1175 O 119.253 -2.24411 0.430352 0
M  V30 1176 C 119.463 -0.373852 3.46992 0
M  V30 1177 C 120.811 -0.62329 4.2 0
M  V30 1178 O 121.835 -0.455847 3.53271 0
M  V30 1179 O 120.694 -0.947879 5.38217 0
M  V30 1180 H 117.788 -0.178318 0.807547 0
M  V30 1181 H 120.334 0.397895 1.64969 0
M  V30 1182 H 119.106 0.591224 3.86808 0
M  V30 1183 H 118.729 -1.12294 3.81413 0
M  V30 1184 N 119.726 -1.57421 0.075193 0
M  V30 1185 C 120.975 -1.92794 -0.592731 0
M  V30 1186 C 121.288 -0.957478 -1.70563 0
M  V30 1187 O 122.494 -1.20417 -2.43335 0
M  V30 1188 C 120.95 -3.42495 -1.10569 0
M  V30 1189 C 120.558 -4.47994 -0.0236121 0
M  V30 1190 C 122.302 -3.86864 -1.74748 0
M  V30 1191 C 120.209 -5.88829 -0.550803 0
M  V30 1192 H 119.139 -0.719591 -0.225177 0
M  V30 1193 H 121.79 -1.82902 0.147978 0
M  V30 1194 H 120.172 -3.47471 -1.89947 0
M  V30 1195 H 121.346 -4.54637 0.751099 0
M  V30 1196 H 119.661 -4.13113 0.522159 0
M  V30 1197 H 122.258 -4.8947 -2.15229 0
M  V30 1198 H 122.601 -3.24417 -2.60882 0
M  V30 1199 H 123.134 -3.84504 -1.01986 0
M  V30 1200 H 119.873 -6.54929 0.273457 0
M  V30 1201 H 119.393 -5.85698 -1.29296 0
M  V30 1202 H 121.072 -6.38811 -1.02613 0
M  V30 1203 N 121.204 0.198386 -1.56346 0
M  V30 1204 C 122.62 0.549085 -1.49857 0
M  V30 1205 C 122.82 1.86016 -0.774611 0
M  V30 1206 O 121.876 2.50416 -0.323776 0
M  V30 1207 C 123.189 0.606868 -2.94512 0
M  V30 1208 C 124.737 0.695925 -3.05165 0
M  V30 1209 C 125.212 0.784848 -4.51225 0
M  V30 1210 N 126.703 0.848463 -4.55363 0
M  V30 1211 C 127.438 0.937378 -5.65686 0
M  V30 1212 N 126.934 0.9888 -6.85707 0
M  V30 1213 N 128.727 0.974312 -5.53592 0
M  V30 1214 H 120.878 -0.661655 -2.01831 0
M  V30 1215 H 123.141 -0.235261 -0.918344 0
M  V30 1216 H 122.847 -0.28732 -3.50524 0
M  V30 1217 H 122.721 1.46268 -3.47686 0
M  V30 1218 H 125.108 1.58055 -2.49204 0
M  V30 1219 H 125.189 -0.186022 -2.55123 0
M  V30 1220 H 124.833 -0.0954072 -5.0781 0
M  V30 1221 H 124.763 1.68255 -4.98997 0
M  V30 1222 H 127.254 0.818103 -3.68938 0
M  V30 1223 H 127.567 1.05707 -7.65536 0
M  V30 1224 H 125.912 0.957534 -6.88372 0
M  V30 1225 H 129.103 0.930954 -4.58749 0
M  V30 1226 H 129.276 1.04015 -6.39597 0
M  V30 1227 N 122.682 1.50554 0.465978 0
M  V30 1228 C 123.93 1.61479 1.21528 0
M  V30 1229 C 124.251 0.319596 1.92363 0
M  V30 1230 O 123.521 -0.663194 1.84333 0
M  V30 1231 H 122.101 0.595055 0.451573 0
M  V30 1232 H 124.763 1.87355 0.53704 0
M  V30 1233 H 123.859 2.42846 1.96042 0
M  V30 1234 N 124.16 -0.719506 1.40217 0
M  V30 1235 C 125.07 -1.86378 1.42479 0
M  V30 1236 C 126.086 -1.71073 0.317834 0
M  V30 1237 O 127.262 -1.93406 0.561794 0
M  V30 1238 C 124.327 -3.22136 1.28178 0
M  V30 1239 C 123.388 -3.49723 2.48982 0
M  V30 1240 C 122.621 -4.79004 2.35353 0
M  V30 1241 O 122.844 -5.53821 1.36524 0
M  V30 1242 O 121.778 -5.06839 3.2465 0
M  V30 1243 H 125.604 -1.87425 2.38968 0
M  V30 1244 H 123.189 -0.869405 1.21498 0
M  V30 1245 H 125.071 -4.03234 1.22395 0
M  V30 1246 H 123.746 -3.21825 0.347934 0
M  V30 1247 H 122.653 -2.6865 2.60342 0
M  V30 1248 H 123.986 -3.54828 3.41113 0
M  V30 1249 N 125.638 -1.25649 -0.95132 0
M  V30 1250 C 126.866 -1.13343 -1.73092 0
M  V30 1251 C 127.281 0.312434 -1.86197 0
M  V30 1252 O 126.638 1.21465 -1.36207 0
M  V30 1253 C 126.689 -1.78602 -3.14299 0
M  V30 1254 O 126.41 -3.17537 -3.01831 0
M  V30 1255 C 127.911 -1.72119 -4.08522 0
M  V30 1256 H 125.131 -0.395181 -0.542285 0
M  V30 1257 H 127.675 -1.66076 -1.19328 0
M  V30 1258 H 125.83 -1.29832 -3.64996 0
M  V30 1259 H 126.244 -3.49676 -3.90931 0
M  V30 1260 H 127.718 -2.22435 -5.052 0
M  V30 1261 H 128.195 -0.685635 -4.33815 0
M  V30 1262 H 128.801 -2.20393 -3.63741 0
M  V30 1263 N 127.117 1.15442 -1.07289 0
M  V30 1264 C 128.047 2.22312 -0.714107 0
M  V30 1265 C 129.028 1.67467 0.298155 0
M  V30 1266 O 130.213 1.93445 0.171048 0
M  V30 1267 C 127.343 3.47124 -0.110448 0
M  V30 1268 C 126.297 4.14926 -1.04979 0
M  V30 1269 C 125.623 5.33807 -0.308924 0
M  V30 1270 C 126.923 4.64762 -2.38314 0
M  V30 1271 H 128.617 2.5258 -1.6076 0
M  V30 1272 H 126.163 1.21404 -0.77441 0
M  V30 1273 H 128.116 4.21124 0.152482 0
M  V30 1274 H 126.84 3.16187 0.81812 0
M  V30 1275 H 125.499 3.42866 -1.29764 0
M  V30 1276 H 125.147 4.99126 0.623084 0
M  V30 1277 H 124.847 5.80113 -0.935036 0
M  V30 1278 H 126.371 6.10576 -0.0537771 0
M  V30 1279 H 127.785 5.30292 -2.1786 0
M  V30 1280 H 126.182 5.21728 -2.96514 0
M  V30 1281 H 127.252 3.80434 -3.00663 0
M  V30 1282 N 128.595 0.856903 1.32268 0
M  V30 1283 C 129.543 0.291987 2.3076 0
M  V30 1284 C 130.537 -0.585857 1.58947 0
M  V30 1285 O 131.743 -0.47341 1.73663 0
M  V30 1286 H 128.118 0.075721 0.748178 0
M  V30 1287 H 130.089 1.13687 2.75895 0
M  V30 1288 C 128.838 -0.502869 3.44044 0
M  V30 1289 H 128.161 0.163328 3.99466 0
M  V30 1290 H 129.601 -0.863691 4.1511 0
M  V30 1291 C 128.06 -1.68898 2.91505 0
M  V30 1292 O 128.59 -2.78811 2.89184 0
M  V30 1293 N 126.796 -1.51679 2.47875 0
M  V30 1294 H 126.343 -0.622666 2.49961 0
M  V30 1295 H 126.301 -2.31184 2.13076 0
M  V30 1296 N 130.073 -1.45103 0.615059 0
M  V30 1297 C 131.023 -2.27679 -0.120966 0
M  V30 1298 C 132.007 -1.3775 -0.831491 0
M  V30 1299 O 133.199 -1.61683 -0.720249 0
M  V30 1300 C 130.328 -3.24767 -1.1127 0
M  V30 1301 C 129.414 -4.22184 -0.402627 0
M  V30 1302 N 129.805 -5.02692 0.559884 0
M  V30 1303 C 128.103 -4.4125 -0.649202 0
M  V30 1304 C 128.804 -5.73421 0.977942 0
M  V30 1305 N 127.78 -5.42657 0.320104 0
M  V30 1306 H 131.582 -2.87325 0.618181 0
M  V30 1307 H 129.096 -1.56345 0.439304 0
M  V30 1308 H 131.093 -3.82666 -1.65446 0
M  V30 1309 H 129.753 -2.66682 -1.85232 0
M  V30 1310 H 130.764 -5.09354 0.936976 0
M  V30 1311 H 127.441 -3.9428 -1.37293 0
M  V30 1312 H 128.831 -6.48107 1.77222 0
M  V30 1313 N 131.551 -0.354651 -1.53558 0
M  V30 1314 C 132.501 0.513179 -2.2215 0
M  V30 1315 C 133.485 1.05734 -1.21281 0
M  V30 1316 O 134.677 0.989202 -1.46778 0
M  V30 1317 C 131.806 1.65798 -3.00609 0
M  V30 1318 C 130.892 1.12722 -4.08845 0
M  V30 1319 N 131.283 0.318563 -5.04796 0
M  V30 1320 C 129.581 1.40307 -4.23356 0
M  V30 1321 C 130.282 0.0292224 -5.81693 0
M  V30 1322 N 129.258 0.623891 -5.40008 0
M  V30 1323 H 133.06 -0.111586 -2.93688 0
M  V30 1324 H 130.574 -0.162091 -1.61589 0
M  V30 1325 H 132.571 2.29176 -3.48258 0
M  V30 1326 H 131.231 2.28591 -2.306 0
M  V30 1327 H 132.242 -0.0413091 -5.17884 0
M  V30 1328 H 128.919 2.03458 -3.6457 0
M  V30 1329 H 130.309 -0.623808 -6.68998 0
M  V30 1330 N 133.029 1.57378 -0.0835403 0
M  V30 1331 C 134.275 1.94217 0.583733 0
M  V30 1332 C 134.608 0.964653 1.68547 0
M  V30 1333 O 133.883 -0.00422258 1.945 0
M  V30 1334 C 134.166 3.41253 1.14972 0
M  V30 1335 C 134.019 4.49768 0.0538277 0
M  V30 1336 C 135.338 3.89352 2.05166 0
M  V30 1337 H 132.457 0.706233 0.210724 0
M  V30 1338 H 135.099 1.89392 -0.1519 0
M  V30 1339 H 133.249 3.45496 1.77665 0
M  V30 1340 H 134.921 4.57641 -0.579851 0
M  V30 1341 H 133.164 4.29432 -0.614068 0
M  V30 1342 H 133.835 5.49817 0.490452 0
M  V30 1343 H 136.311 3.87189 1.52393 0
M  V30 1344 H 135.187 4.92822 2.41698 0
M  V30 1345 H 135.448 3.27973 2.96456 0
M  V30 1346 N 134.507 -0.190092 1.56449 0
M  V30 1347 C 135.455 -1.25501 1.95837 0
M  V30 1348 C 136.449 -1.4685 0.844485 0
M  V30 1349 O 137.655 -1.47651 1.02952 0
M  V30 1350 H 134.03 -0.421447 0.622805 0
M  V30 1351 H 136.001 -0.895821 2.84636 0
M  V30 1352 C 134.75 -2.59124 2.31841 0
M  V30 1353 H 134.073 -2.43514 3.17082 0
M  V30 1354 H 135.513 -3.32371 2.6326 0
M  V30 1355 C 133.972 -3.16488 1.15486 0
M  V30 1356 O 134.502 -3.99365 0.432535 0
M  V30 1357 N 132.708 -2.75305 0.930349 0
M  V30 1358 H 132.255 -2.08013 1.51948 0
M  V30 1359 H 132.213 -3.14024 0.153634 0
M  V30 1360 N 135.985 -1.50799 -0.457987 0
M  V30 1361 C 136.948 -1.7005 -1.53674 0
M  V30 1362 C 137.948 -0.570881 -1.50325 0
M  V30 1363 O 139.138 -0.838126 -1.52712 0
M  V30 1364 C 136.27 -1.73788 -2.93276 0
M  V30 1365 H 137.463 -2.66306 -1.37917 0
M  V30 1366 H 135.016 -1.40477 -0.685271 0
M  V30 1367 H 135.751 -0.792717 -3.14462 0
M  V30 1368 H 135.536 -2.55864 -2.97113 0
M  V30 1369 H 137.026 -1.90591 -3.71571 0
M  V30 1370 N 137.463 0.71206 -1.40597 0
M  V30 1371 C 138.879 1.02058 -1.22704 0
M  V30 1372 C 139.079 2.01228 -0.104729 0
M  V30 1373 O 138.135 2.4674 0.53624 0
M  V30 1374 C 139.448 1.56094 -2.57012 0
M  V30 1375 C 140.996 1.6806 -2.64054 0
M  V30 1376 C 141.471 2.25501 -3.9864 0
M  V30 1377 N 142.962 2.32882 -4.004 0
M  V30 1378 C 143.697 2.78317 -5.01325 0
M  V30 1379 N 143.193 3.23478 -6.12645 0
M  V30 1380 N 144.986 2.77733 -4.88693 0
M  V30 1381 H 137.137 0.0547896 -2.12329 0
M  V30 1382 H 139.4 0.0869027 -0.944008 0
M  V30 1383 H 139.106 0.906865 -3.39807 0
M  V30 1384 H 138.98 2.54564 -2.78347 0
M  V30 1385 H 141.367 2.32583 -1.81629 0
M  V30 1386 H 141.448 0.681802 -2.46546 0
M  V30 1387 H 141.092 1.61598 -4.81506 0
M  V30 1388 H 141.022 3.26102 -4.13479 0
M  V30 1389 H 143.513 2.00991 -3.20017 0
M  V30 1390 H 143.826 3.56725 -6.85542 0
M  V30 1391 H 142.171 3.21429 -6.16205 0
M  V30 1392 H 145.362 2.4179 -4.00818 0
M  V30 1393 H 145.535 3.12826 -5.67489 0
M  V30 1394 N 138.941 1.26152 0.944643 0
M  V30 1395 C 139.891 1.04081 2.02857 0
M  V30 1396 C 140.875 -0.0256555 1.6088 0
M  V30 1397 O 142.067 0.190884 1.75968 0
M  V30 1398 C 139.196 0.672118 3.36656 0
M  V30 1399 C 138.282 1.77586 3.85128 0
M  V30 1400 N 138.673 3.01272 4.06287 0
M  V30 1401 C 136.971 1.65867 4.1401 0
M  V30 1402 C 137.672 3.72983 4.46384 0
M  V30 1403 N 136.648 3.00653 4.52889 0
M  V30 1404 H 140.45 1.97968 2.17223 0
M  V30 1405 H 137.964 1.16618 1.13022 0
M  V30 1406 H 139.961 0.495166 4.13949 0
M  V30 1407 H 138.621 -0.259307 3.23663 0
M  V30 1408 H 139.632 3.37213 3.93075 0
M  V30 1409 H 136.309 0.796907 4.09824 0
M  V30 1410 H 137.699 4.792 4.70975 0
M  V30 1411 N 140.419 -1.14872 1.07899 0
M  V30 1412 C 141.349 -2.2193 0.725887 0
M  V30 1413 C 142.33 -1.67622 -0.28927 0
M  V30 1414 O 143.515 -1.93533 -0.160787 0
M  V30 1415 C 140.645 -3.47061 0.128856 0
M  V30 1416 C 139.599 -4.14363 1.07178 0
M  V30 1417 C 138.925 -5.33636 0.337229 0
M  V30 1418 C 140.225 -4.63492 2.40775 0
M  V30 1419 H 141.919 -2.51724 1.62097 0
M  V30 1420 H 139.465 -1.20991 0.780838 0
M  V30 1421 H 141.418 -4.21199 -0.130147 0
M  V30 1422 H 140.142 -3.16617 -0.80134 0
M  V30 1423 H 138.801 -3.42173 1.3158 0
M  V30 1424 H 138.449 -4.99449 -0.596606 0
M  V30 1425 H 138.149 -5.79609 0.965788 0
M  V30 1426 H 139.673 -6.10539 0.0861567 0
M  V30 1427 H 141.087 -5.2913 2.20669 0
M  V30 1428 H 139.484 -5.20148 2.99276 0
M  V30 1429 H 140.554 -3.78834 3.02676 0
M  V30 1430 N 141.898 -0.863906 -1.31812 0
M  V30 1431 C 143.175 -0.39275 -1.91616 0
M  V30 1432 C 143.555 1.12461 -1.7865 0
M  V30 1433 O 142.903 1.95045 -1.19037 0
M  V30 1434 C 143.113 -0.867385 -3.38049 0
M  V30 1435 C 144.461 -0.889966 -4.15168 0
M  V30 1436 O 145.485 -0.812635 -3.46806 0
M  V30 1437 O 144.344 -1.00079 -5.37258 0
M  V30 1438 H 141.438 -0.116358 -0.818773 0
M  V30 1439 H 143.984 -0.951418 -1.40521 0
M  V30 1440 H 142.756 -1.91081 -3.41473 0
M  V30 1441 H 142.379 -0.286687 -3.96565 0
M  V30 1442 N 143.376 1.44774 -0.622745 0
M  V30 1443 C 144.306 2.33382 0.0741861 0
M  V30 1444 C 145.287 1.47719 0.843387 0
M  V30 1445 O 146.472 1.76458 0.810934 0
M  V30 1446 C 143.602 3.30663 1.06204 0
M  V30 1447 C 142.556 4.26079 0.405037 0
M  V30 1448 C 141.882 5.13165 1.5022 0
M  V30 1449 C 143.182 5.1781 -0.683414 0
M  V30 1450 H 144.876 2.91905 -0.665713 0
M  V30 1451 H 142.422 1.40363 -0.321587 0
M  V30 1452 H 144.375 3.9153 1.55827 0
M  V30 1453 H 143.099 2.70331 1.83272 0
M  V30 1454 H 141.758 3.66532 -0.0704683 0
M  V30 1455 H 141.406 4.49191 2.26355 0
M  V30 1456 H 141.106 5.77812 1.06803 0
M  V30 1457 H 142.63 5.76902 2.00041 0
M  V30 1458 H 144.044 5.72661 -0.270631 0
M  V30 1459 H 142.441 5.91015 -1.04023 0
M  V30 1460 H 143.511 4.59326 -1.55395 0
M  V30 1461 N 144.854 0.36279 1.53368 0
M  V30 1462 C 145.817 -0.472679 2.24273 0
M  V30 1463 C 146.817 -1.012 1.24961 0
M  V30 1464 O 148.007 -0.898194 1.49259 0
M  V30 1465 C 145.139 -1.66039 2.97731 0
M  V30 1466 H 146.332 0.14773 2.99536 0
M  V30 1467 H 143.885 0.114434 1.55881 0
M  V30 1468 H 144.62 -2.31896 2.26704 0
M  V30 1469 H 144.405 -1.28066 3.70596 0
M  V30 1470 H 145.895 -2.25252 3.51641 0
M  V30 1471 N 146.332 -1.57332 0.0918853 0
M  V30 1472 C 147.557 -1.98995 -0.584442 0
M  V30 1473 C 147.982 -0.970528 -1.61128 0
M  V30 1474 O 147.34 0.0613904 -1.81196 0
M  V30 1475 C 147.388 -3.39636 -1.21161 0
M  V30 1476 O 146.492 -3.40447 -2.32744 0
M  V30 1477 H 145.833 -0.647165 -0.148572 0
M  V30 1478 H 148.363 -2.03873 0.172347 0
M  V30 1479 H 148.373 -3.7726 -1.55367 0
M  V30 1480 H 147.048 -4.13356 -0.459313 0
M  V30 1481 H 145.625 -3.14614 -2.0018 0
M  V30 1482 N 147.81 0.181792 -1.56548 0
M  V30 1483 C 148.74 1.22765 -1.98623 0
M  V30 1484 C 149.721 1.46747 -0.860189 0
M  V30 1485 O 150.906 1.58259 -1.12551 0
M  V30 1486 C 148.036 2.56894 -2.33715 0
M  V30 1487 C 146.99 2.475 -3.49182 0
M  V30 1488 C 146.316 3.86023 -3.69986 0
M  V30 1489 C 147.616 1.98866 -4.82959 0
M  V30 1490 H 149.31 0.877942 -2.86239 0
M  V30 1491 H 146.856 0.42088 -1.37712 0
M  V30 1492 H 148.809 3.30253 -2.61746 0
M  V30 1493 H 147.533 2.93632 -1.42997 0
M  V30 1494 H 146.192 1.76596 -3.21262 0
M  V30 1495 H 145.84 4.20136 -2.76576 0
M  V30 1496 H 145.54 3.80609 -4.47672 0
M  V30 1497 H 147.064 4.60984 -4.00407 0
M  V30 1498 H 148.478 2.61992 -5.09934 0
M  V30 1499 H 146.875 2.04424 -5.64208 0
M  V30 1500 H 147.945 0.942465 -4.75653 0
M  V30 1501 N 149.288 1.51039 0.449983 0
M  V30 1502 C 150.235 1.71439 1.54523 0
M  V30 1503 C 151.205 0.555871 1.56522 0
M  V30 1504 O 152.39 0.788871 1.73728 0
M  V30 1505 C 149.53 1.83384 2.92343 0
M  V30 1506 C 148.643 3.10873 2.9997 0
M  V30 1507 C 147.778 3.13488 4.28834 0
M  V30 1508 C 146.817 4.35343 4.30282 0
M  V30 1509 N 145.954 4.35579 5.5065 0
M  V30 1510 H 150.794 2.64934 1.36433 0
M  V30 1511 H 148.331 1.31312 0.662982 0
M  V30 1512 H 150.289 1.88291 3.72293 0
M  V30 1513 H 148.919 0.933086 3.0902 0
M  V30 1514 H 147.971 3.15336 2.12761 0
M  V30 1515 H 149.283 4.00814 2.96901 0
M  V30 1516 H 148.437 3.17241 5.17149 0
M  V30 1517 H 147.176 2.21414 4.34543 0
M  V30 1518 H 146.181 4.3178 3.40362 0
M  V30 1519 H 147.406 5.28668 4.26248 0
M  V30 1520 H 145.352 3.46369 5.57104 0
M  V30 1521 H 145.269 5.19313 5.49409 0
M  V30 1522 H 146.537 4.43507 6.41032 0
M  V30 1523 N 150.766 -0.704594 1.40972 0
M  V30 1524 C 151.991 -1.49858 1.43378 0
M  V30 1525 C 152.416 -1.88061 0.038184 0
M  V30 1526 O 151.774 -1.5402 -0.956425 0
M  V30 1527 C 151.822 -2.74333 2.34038 0
M  V30 1528 O 150.926 -3.7147 1.7912 0
M  V30 1529 H 150.267 -0.45139 0.486974 0
M  V30 1530 H 152.797 -0.866832 1.8533 0
M  V30 1531 H 152.807 -3.22741 2.49604 0
M  V30 1532 H 151.482 -2.45863 3.35446 0
M  V30 1533 H 150.059 -3.30363 1.72958 0
M  V30 1534 N 152.244 -1.26651 -0.937939 0
M  V30 1535 C 153.493 -1.11775 -1.67897 0
M  V30 1536 C 153.806 0.33794 -1.92659 0
M  V30 1537 O 155.012 0.607434 -2.64618 0
M  V30 1538 C 153.468 -1.9523 -3.02346 0
M  V30 1539 C 153.076 -3.45393 -2.8532 0
M  V30 1540 C 154.82 -1.88972 -3.80118 0
M  V30 1541 C 152.727 -4.21083 -4.15263 0
M  V30 1542 H 151.657 -0.414696 -0.629717 0
M  V30 1543 H 154.308 -1.50988 -1.04283 0
M  V30 1544 H 152.69 -1.48853 -3.66959 0
M  V30 1545 H 153.864 -3.99561 -2.29537 0
M  V30 1546 H 152.179 -3.52921 -2.20988 0
M  V30 1547 H 154.776 -2.42805 -4.76392 0
M  V30 1548 H 155.119 -0.86113 -4.07296 0
M  V30 1549 H 155.652 -2.33189 -3.22285 0
M  V30 1550 H 152.391 -5.24425 -3.93267 0
M  V30 1551 H 151.911 -3.71695 -4.70747 0
M  V30 1552 H 153.59 -4.29706 -4.83696 0
M  V30 1553 N 153.722 1.14298 -1.08507 0
M  V30 1554 C 155.138 1.37347 -0.812901 0
M  V30 1555 C 155.338 1.93052 0.577325 0
M  V30 1556 O 154.394 2.14389 1.33393 0
M  V30 1557 C 155.707 2.33359 -1.89642 0
M  V30 1558 C 157.255 2.46996 -1.92255 0
M  V30 1559 C 157.73 3.46309 -2.99724 0
M  V30 1560 N 159.221 3.53853 -2.98902 0
M  V30 1561 C 159.956 4.3055 -3.787 0
M  V30 1562 N 159.452 5.10482 -4.6838 0
M  V30 1563 N 161.245 4.25757 -3.66998 0
M  V30 1564 H 153.396 0.764867 -1.9815 0
M  V30 1565 H 155.659 0.398966 -0.859959 0
M  V30 1566 H 155.365 1.99565 -2.89597 0
M  V30 1567 H 155.239 3.33274 -1.76659 0
M  V30 1568 H 157.626 2.80081 -0.929445 0
M  V30 1569 H 157.707 1.47039 -2.09316 0
M  V30 1570 H 157.351 3.13957 -3.99241 0
M  V30 1571 H 157.281 4.46049 -2.79907 0
M  V30 1572 H 159.772 2.96812 -2.33904 0
M  V30 1573 H 160.085 5.66284 -5.25873 0
M  V30 1574 H 158.43 5.09747 -4.72422 0
M  V30 1575 H 161.621 3.62383 -2.96304 0
M  V30 1576 H 161.794 4.85279 -4.29427 0
M  V30 1577 N 155.201 0.870884 1.31352 0
M  V30 1578 C 156.111 0.330783 2.32256 0
M  V30 1579 C 157.127 -0.559767 1.6475 0
M  V30 1580 O 158.303 -0.456263 1.96164 0
M  V30 1581 C 155.368 -0.458137 3.4366 0
M  V30 1582 C 154.429 0.460482 4.26823 0
M  V30 1583 C 153.662 -0.290881 5.32907 0
M  V30 1584 O 153.885 -1.51885 5.49806 0
M  V30 1585 O 152.819 0.351732 6.00871 0
M  V30 1586 H 156.645 1.16718 2.80376 0
M  V30 1587 H 154.23 0.634285 1.35267 0
M  V30 1588 H 156.112 -0.905343 4.1156 0
M  V30 1589 H 154.787 -1.27106 2.97701 0
M  V30 1590 H 153.694 0.956207 3.61673 0
M  V30 1591 H 155.027 1.23903 4.7635 0
M  V30 1592 N 156.679 -1.44442 0.630414 0
M  V30 1593 C 157.926 -2.02052 0.134617 0
M  V30 1594 C 158.254 -1.49576 -1.24327 0
M  V30 1595 O 157.509 -0.669806 -1.83881 0
M  V30 1596 C 157.808 -3.57332 0.0697835 0
M  V30 1597 C 157.474 -4.29058 1.38635 0
M  V30 1598 C 156.136 -4.4837 1.74694 0
M  V30 1599 C 158.488 -4.69872 2.25543 0
M  V30 1600 C 155.816 -5.05756 2.97369 0
M  V30 1601 C 158.168 -5.28616 3.47487 0
M  V30 1602 C 156.832 -5.46147 3.8377 0
M  V30 1603 H 156.102 -0.739361 0.0492598 0
M  V30 1604 H 158.749 -1.73217 0.816586 0
M  V30 1605 H 157.054 -3.85577 -0.695553 0
M  V30 1606 H 158.751 -3.99637 -0.330344 0
M  V30 1607 H 155.341 -4.14357 1.09574 0
M  V30 1608 H 159.525 -4.54666 1.98979 0
M  V30 1609 H 154.781 -5.17515 3.25558 0
M  V30 1610 H 158.955 -5.59192 4.15063 0
M  V30 1611 H 156.582 -5.9038 4.7891 0
M  V30 1612 N 158.157 -0.370918 -1.53173 0
M  V30 1613 C 159.12 0.460778 -2.24521 0
M  V30 1614 C 160.12 1.00536 -1.25496 0
M  V30 1615 O 161.31 0.890266 -1.49733 0
M  V30 1616 C 158.442 1.64457 -2.98608 0
M  V30 1617 H 159.635 -0.163613 -2.99453 0
M  V30 1618 H 157.188 -0.122699 -1.55818 0
M  V30 1619 H 157.923 2.30691 -2.2793 0
M  V30 1620 H 157.708 1.26099 -3.7127 0
M  V30 1621 H 159.198 2.23384 -3.5283 0
M  V30 1622 N 159.635 1.57281 -0.100228 0
M  V30 1623 C 160.598 2.13158 0.842398 0
M  V30 1624 C 161.598 1.06202 1.20738 0
M  V30 1625 O 162.788 1.32066 1.13597 0
M  V30 1626 C 159.92 2.65639 2.13655 0
M  V30 1627 H 161.113 2.97766 0.357114 0
M  V30 1628 H 158.666 1.5559 0.148823 0
M  V30 1629 H 159.401 1.84566 2.66657 0
M  V30 1630 H 159.186 3.43844 1.88451 0
M  V30 1631 H 160.676 3.08846 2.81077 0
M  V30 1632 N 161.113 -0.173488 1.56642 0
M  V30 1633 C 162.06 -1.21482 1.96242 0
M  V30 1634 C 163.03 -1.44104 0.826027 0
M  V30 1635 O 164.215 -1.5688 1.08597 0
M  V30 1636 C 161.355 -2.54964 2.32567 0
M  V30 1637 C 160.468 -2.39739 3.59373 0
M  V30 1638 C 159.603 -3.66072 3.84921 0
M  V30 1639 C 158.642 -3.45771 5.05083 0
M  V30 1640 N 157.779 -4.64169 5.26775 0
M  V30 1641 H 162.619 -0.870123 2.85014 0
M  V30 1642 H 160.156 -0.418245 1.41029 0
M  V30 1643 H 162.114 -3.32758 2.5165 0
M  V30 1644 H 160.744 -2.87433 1.46908 0
M  V30 1645 H 159.796 -1.53131 3.48217 0
M  V30 1646 H 161.108 -2.20683 4.47326 0
M  V30 1647 H 160.262 -4.52303 4.0436 0
M  V30 1648 H 159.001 -3.88105 2.9534 0
M  V30 1649 H 158.006 -2.57927 4.85545 0
M  V30 1650 H 159.231 -3.25163 5.96193 0
M  V30 1651 H 157.177 -4.86425 4.40144 0
M  V30 1652 H 157.094 -4.48019 6.08946 0
M  V30 1653 H 158.362 -5.51689 5.5069 0
M  V30 1654 N 162.591 -1.51276 -0.441967 0
M  V30 1655 C 163.84 -1.6295 -1.18871 0
M  V30 1656 C 164.153 -0.349312 -1.92456 0
M  V30 1657 O 165.359 -0.345355 -2.69295 0
M  V30 1658 C 163.815 -2.87759 -2.16155 0
M  V30 1659 C 163.423 -4.22764 -1.48239 0
M  V30 1660 C 165.167 -3.08788 -2.91291 0
M  V30 1661 C 163.074 -5.38728 -2.4398 0
M  V30 1662 H 162.004 -0.606913 -0.447406 0
M  V30 1663 H 164.655 -1.77739 -0.456205 0
M  V30 1664 H 163.037 -2.66593 -2.92821 0
M  V30 1665 H 164.211 -4.54293 -0.771635 0
M  V30 1666 H 162.526 -4.07575 -0.852741 0
M  V30 1667 H 165.123 -3.92599 -3.63002 0
M  V30 1668 H 165.466 -2.21679 -3.5237 0
M  V30 1669 H 165.999 -3.30272 -2.21733 0
M  V30 1670 H 162.738 -6.28082 -1.87598 0
M  V30 1671 H 162.258 -5.1158 -3.13123 0
M  V30 1672 H 163.937 -5.70489 -3.05207 0
M  V30 1673 N 164.069 0.697108 -1.41344 0
M  V30 1674 C 165.318 1.45279 -1.39918 0
M  V30 1675 C 165.631 1.95597 -0.0109624 0
M  V30 1676 O 166.837 2.71208 0.125919 0
M  V30 1677 C 165.293 2.62695 -2.46007 0
M  V30 1678 C 164.901 2.19169 -3.90729 0
M  V30 1679 C 166.645 3.40336 -2.53715 0
M  V30 1680 C 164.552 3.33535 -4.88373 0
M  V30 1681 H 163.482 0.545692 -0.520323 0
M  V30 1682 H 166.133 0.756929 -1.67161 0
M  V30 1683 H 164.515 3.34541 -2.11892 0
M  V30 1684 H 165.689 1.54623 -4.34083 0
M  V30 1685 H 164.004 1.54525 -3.86666 0
M  V30 1686 H 166.601 4.2547 -3.2385 0
M  V30 1687 H 166.944 3.85418 -1.5735 0
M  V30 1688 H 167.477 2.75546 -2.86913 0
M  V30 1689 H 164.216 2.93468 -5.86137 0
M  V30 1690 H 163.736 3.96936 -4.49668 0
M  V30 1691 H 165.415 3.99335 -5.09059 0
M  V30 1692 N 165.547 1.27147 0.931209 0
M  V30 1693 C 166.457 1.11372 2.06478 0
M  V30 1694 C 167.473 0.044645 1.73943 0
M  V30 1695 O 168.649 0.250417 1.99837 0
M  V30 1696 C 165.714 0.758838 3.38294 0
M  V30 1697 C 164.775 1.90841 3.84549 0
M  V30 1698 C 164.008 1.57036 5.10074 0
M  V30 1699 O 164.231 0.476645 5.68405 0
M  V30 1700 O 163.165 2.40839 5.51616 0
M  V30 1701 H 166.991 2.06493 2.22698 0
M  V30 1702 H 164.576 1.06301 1.04978 0
M  V30 1703 H 166.458 0.574098 4.17471 0
M  V30 1704 H 165.133 -0.162879 3.2329 0
M  V30 1705 H 164.04 2.14819 3.06274 0
M  V30 1706 H 165.373 2.81021 4.04089 0
M  V30 1707 N 167.025 -1.13721 1.09112 0
M  V30 1708 C 167.935 -2.22638 0.73957 0
M  V30 1709 C 168.951 -1.72091 -0.257068 0
M  V30 1710 O 170.127 -2.01155 -0.0992154 0
M  V30 1711 C 167.192 -3.46322 0.16191 0
M  V30 1712 C 166.253 -4.11775 1.21408 0
M  V30 1713 C 165.486 -5.29555 0.663891 0
M  V30 1714 O 165.709 -5.68077 -0.514274 0
M  V30 1715 O 164.643 -5.84973 1.41738 0
M  V30 1716 H 168.469 -2.55074 1.64836 0
M  V30 1717 H 166.054 -1.21791 0.865289 0
M  V30 1718 H 167.936 -4.21107 -0.157073 0
M  V30 1719 H 166.611 -3.15593 -0.719932 0
M  V30 1720 H 165.518 -3.3883 1.58571 0
M  V30 1721 H 166.851 -4.46627 2.06845 0
M  V30 1722 N 168.503 -0.877838 -1.30888 0
M  V30 1723 C 169.413 -0.343096 -2.32078 0
M  V30 1724 C 170.429 0.551022 -1.65045 0
M  V30 1725 O 171.605 0.445854 -1.96403 0
M  V30 1726 C 168.67 0.439905 -3.43898 0
M  V30 1727 C 167.731 -0.483111 -4.26573 0
M  V30 1728 C 166.964 0.262616 -5.33053 0
M  V30 1729 O 167.187 1.48967 -5.50604 0
M  V30 1730 O 166.121 -0.383593 -6.00676 0
M  V30 1731 H 169.947 -1.18203 -2.79753 0
M  V30 1732 H 167.532 -0.64145 -1.34929 0
M  V30 1733 H 169.414 0.883504 -4.12034 0
M  V30 1734 H 168.089 1.25526 -2.98371 0
M  V30 1735 H 166.996 -0.975374 -3.61161 0
M  V30 1736 H 168.329 -1.26427 -4.75686 0
M  V30 1737 N 169.982 1.44106 -0.638065 0
M  V30 1738 C 170.892 2.34513 0.0637334 0
M  V30 1739 C 171.908 1.53018 0.828346 0
M  V30 1740 O 173.084 1.85723 0.779036 0
M  V30 1741 C 170.149 3.31095 1.02844 0
M  V30 1742 C 169.21 4.28497 0.26244 0
M  V30 1743 C 168.443 5.20465 1.1812 0
M  V30 1744 O 168.666 5.16514 2.42011 0
M  V30 1745 O 167.6 5.98251 0.661774 0
M  V30 1746 H 171.426 2.95989 -0.68003 0
M  V30 1747 H 169.011 1.43994 -0.398252 0
M  V30 1748 H 170.893 3.90526 1.58327 0
M  V30 1749 H 169.568 2.72144 1.7527 0
M  V30 1750 H 168.475 3.72592 -0.335602 0
M  V30 1751 H 169.808 4.90388 -0.421936 0
M  V30 1752 N 171.46 0.379036 1.52974 0
M  V30 1753 C 172.876 0.0285448 1.59574 0
M  V30 1754 C 173.076 -1.45542 1.39355 0
M  V30 1755 O 172.132 -2.2187 1.20541 0
M  V30 1756 C 173.445 0.496535 2.96572 0
M  V30 1757 C 174.993 0.451909 3.0972 0
M  V30 1758 C 175.468 0.895924 4.49152 0
M  V30 1759 N 176.959 0.851522 4.55306 0
M  V30 1760 C 177.694 1.16661 5.61407 0
M  V30 1761 N 177.19 1.55166 6.752 0
M  V30 1762 N 178.983 1.08853 5.51459 0
M  V30 1763 H 171.134 1.34525 1.64367 0
M  V30 1764 H 173.397 0.550733 0.771619 0
M  V30 1765 H 173.103 1.53258 3.16552 0
M  V30 1766 H 172.977 -0.109802 3.7704 0
M  V30 1767 H 175.364 -0.575029 2.89443 0
M  V30 1768 H 175.445 1.09392 2.3123 0
M  V30 1769 H 175.089 1.92104 4.70168 0
M  V30 1770 H 175.019 0.23103 5.26093 0
M  V30 1771 H 177.51 0.568038 3.73606 0
M  V30 1772 H 177.823 1.776 7.52116 0
M  V30 1773 H 176.168 1.59044 6.76557 0
M  V30 1774 H 179.359 0.786803 4.6144 0
M  V30 1775 H 179.532 1.33742 6.34048 0
M  V30 1776 N 172.938 -1.57226 0.108567 0
M  V30 1777 C 174.184 -1.95121 -0.552761 0
M  V30 1778 C 174.517 -0.991345 -1.66991 0
M  V30 1779 O 173.792 -0.0267211 -1.94482 0
M  V30 1780 C 174.075 -3.43039 -1.09528 0
M  V30 1781 C 173.928 -4.49797 0.0177332 0
M  V30 1782 C 175.247 -3.92567 -1.98945 0
M  V30 1783 H 172.366 -0.709496 -0.199461 0
M  V30 1784 H 175.008 -1.89126 0.182011 0
M  V30 1785 H 173.158 -3.48279 -1.72146 0
M  V30 1786 H 174.83 -4.56661 0.652584 0
M  V30 1787 H 173.073 -4.284 0.682309 0
M  V30 1788 H 173.744 -5.50528 -0.402919 0
M  V30 1789 H 176.22 -3.89565 -1.46214 0
M  V30 1790 H 175.096 -4.96605 -2.33827 0
M  V30 1791 H 175.357 -3.32648 -2.91201 0
M  V30 1792 N 174.416 0.165178 -1.56732 0
M  V30 1793 C 175.693 0.908443 -1.73224 0
M  V30 1794 C 176.073 2.0013 -0.67165 0
M  V30 1795 O 175.421 2.26353 0.31253 0
M  V30 1796 C 175.631 1.46756 -3.16644 0
M  V30 1797 C 176.979 1.93809 -3.77787 0
M  V30 1798 O 178.003 1.56537 -3.1996 0
M  V30 1799 O 176.862 2.62486 -4.79336 0
M  V30 1800 H 173.956 0.428025 -0.707618 0
M  V30 1801 H 176.502 0.152526 -1.69013 0
M  V30 1802 H 175.274 0.68129 -3.85323 0
M  V30 1803 H 174.897 2.28749 -3.25207 0
M  V30 1804 N 175.894 1.51508 0.433938 0
M  V30 1805 C 177.143 1.63578 1.18005 0
M  V30 1806 C 177.456 0.359514 1.92268 0
M  V30 1807 O 178.662 0.359632 2.69108 0
M  V30 1808 C 177.118 2.88901 2.14626 0
M  V30 1809 C 176.726 4.23544 1.45995 0
M  V30 1810 C 178.47 3.10328 2.89649 0
M  V30 1811 C 176.377 5.40014 2.4112 0
M  V30 1812 H 175.307 0.609277 0.444182 0
M  V30 1813 H 177.958 1.77978 0.446773 0
M  V30 1814 H 176.34 2.68142 2.91403 0
M  V30 1815 H 177.514 4.54696 0.747532 0
M  V30 1816 H 175.829 4.08021 0.831115 0
M  V30 1817 H 178.426 3.94518 3.60915 0
M  V30 1818 H 178.769 2.23544 3.51189 0
M  V30 1819 H 179.302 3.31443 2.19978 0
M  V30 1820 H 176.041 6.29068 1.84264 0
M  V30 1821 H 175.561 5.13233 3.10406 0
M  V30 1822 H 177.24 5.72099 3.02177 0
M  V30 1823 N 177.372 -0.689602 1.41712 0
M  V30 1824 C 178.302 -1.81577 1.46806 0
M  V30 1825 C 179.283 -1.66945 0.326105 0
M  V30 1826 O 180.468 -1.86588 0.538377 0
M  V30 1827 C 177.598 -3.19762 1.35535 0
M  V30 1828 C 176.552 -3.49107 2.47605 0
M  V30 1829 C 175.878 -4.86711 2.21397 0
M  V30 1830 C 177.178 -3.47483 3.89939 0
M  V30 1831 H 178.872 -1.7757 2.41058 0
M  V30 1832 H 176.418 -0.852887 1.16025 0
M  V30 1833 H 178.371 -3.98263 1.3771 0
M  V30 1834 H 177.095 -3.24409 0.377708 0
M  V30 1835 H 175.754 -2.72959 2.44722 0
M  V30 1836 H 175.402 -4.8799 1.21961 0
M  V30 1837 H 175.102 -5.0731 2.96497 0
M  V30 1838 H 176.626 -5.67515 2.25297 0
M  V30 1839 H 178.04 -4.1598 3.94505 0
M  V30 1840 H 176.437 -3.79615 4.64771 0
M  V30 1841 H 177.507 -2.46341 4.17665 0
M  V30 1842 N 178.85 -1.27639 -0.924453 0
M  V30 1843 C 180.099 -1.13549 -1.66702 0
M  V30 1844 C 180.412 0.317487 -1.93006 0
M  V30 1845 O 181.618 0.579333 -2.65247 0
M  V30 1846 C 180.074 -1.98426 -3.00259 0
M  V30 1847 C 179.682 -3.484 -2.81641 0
M  V30 1848 C 181.426 -1.92993 -3.78092 0
M  V30 1849 C 179.333 -4.25464 -4.10773 0
M  V30 1850 H 178.263 -0.421351 -0.625283 0
M  V30 1851 H 180.914 -1.52085 -1.02676 0
M  V30 1852 H 179.296 -1.52736 -3.6536 0
M  V30 1853 H 180.47 -4.01973 -2.25287 0
M  V30 1854 H 178.785 -3.55245 -2.17232 0
M  V30 1855 H 181.382 -2.47844 -4.7379 0
M  V30 1856 H 181.725 -0.904281 -4.0636 0
M  V30 1857 H 182.258 -2.36595 -3.19793 0
M  V30 1858 H 178.997 -5.28566 -3.87683 0
M  V30 1859 H 178.517 -3.76667 -4.66779 0
M  V30 1860 H 180.196 -4.34812 -4.79111 0
M  V30 1861 N 180.328 1.1314 -1.09713 0
M  V30 1862 C 181.276 2.20717 -0.733934 0
M  V30 1863 C 182.27 1.6729 0.266506 0
M  V30 1864 O 183.476 1.79547 0.127656 0
M  V30 1865 H 179.851 0.719292 -0.21937 0
M  V30 1866 H 181.822 2.48611 -1.6503 0
M  V30 1867 C 180.571 3.47265 -0.173849 0
M  V30 1868 H 179.894 3.88716 -0.934873 0
M  V30 1869 H 181.334 4.23979 0.0423126 0
M  V30 1870 C 179.793 3.18724 1.09164 0
M  V30 1871 O 180.323 3.37762 2.17439 0
M  V30 1872 N 178.529 2.72583 1.00732 0
M  V30 1873 H 178.076 2.57291 0.126121 0
M  V30 1874 H 178.034 2.53862 1.85476 0
M  V30 1875 N 181.806 0.884767 1.30421 0
M  V30 1876 C 182.754 0.340869 2.30089 0
M  V30 1877 C 183.748 -0.55201 1.60154 0
M  V30 1878 O 184.954 -0.436467 1.74628 0
M  V30 1879 H 181.329 0.0915739 0.746404 0
M  V30 1880 H 183.3 1.19513 2.73421 0
M  V30 1881 C 182.049 -0.429779 3.45034 0
M  V30 1882 H 181.372 0.248024 3.9903 0
M  V30 1883 H 182.812 -0.775445 4.16849 0
M  V30 1884 C 181.271 -1.62677 2.95022 0
M  V30 1885 O 181.801 -2.72614 2.95033 0
M  V30 1886 N 180.007 -1.46387 2.51036 0
M  V30 1887 H 179.554 -0.569506 2.51226 0
M  V30 1888 H 179.512 -2.26612 2.17932 0
M  V30 1889 N 183.284 -1.43765 0.645699 0
M  V30 1890 C 184.247 -2.29163 -0.0409488 0
M  V30 1891 C 185.247 -1.41813 -0.757996 0
M  V30 1892 O 186.437 -1.63527 -0.600382 0
M  V30 1893 C 183.569 -3.23716 -1.06869 0
M  V30 1894 H 184.762 -2.91366 0.710345 0
M  V30 1895 H 182.315 -1.5092 0.406547 0
M  V30 1896 H 183.05 -2.66393 -1.84947 0
M  V30 1897 H 182.835 -3.88105 -0.558277 0
M  V30 1898 H 184.325 -3.87831 -1.54845 0
M  V30 1899 N 184.763 -0.387143 -1.52771 0
M  V30 1900 C 186.011 0.195349 -2.01154 0
M  V30 1901 C 186.332 1.475 -1.27549 0
M  V30 1902 O 185.602 1.91878 -0.394924 0
M  V30 1903 H 184.182 0.075178 -0.743207 0
M  V30 1904 H 186.844 -0.518337 -1.87881 0
M  V30 1905 H 185.94 0.407096 -3.09434 0
M  V30 1906 N 186.241 1.57166 -0.116904 0
M  V30 1907 C 187.487 1.95412 0.542405 0
M  V30 1908 C 187.82 1.00019 1.66463 0
M  V30 1909 O 187.095 0.0370346 1.94465 0
M  V30 1910 C 187.378 3.43615 1.07708 0
M  V30 1911 C 187.231 4.49781 -0.0415868 0
M  V30 1912 C 188.55 3.93616 1.96861 0
M  V30 1913 H 185.669 0.710543 0.195696 0
M  V30 1914 H 188.311 1.89027 -0.192038 0
M  V30 1915 H 186.461 3.49187 1.70296 0
M  V30 1916 H 188.133 4.56308 -0.676793 0
M  V30 1917 H 186.376 4.28033 -0.705019 0
M  V30 1918 H 187.047 5.50733 0.373717 0
M  V30 1919 H 189.523 3.90335 1.44146 0
M  V30 1920 H 188.399 4.97838 2.3119 0
M  V30 1921 H 188.66 3.34188 2.89432 0
M  V30 1922 N 187.719 -0.156864 1.56817 0
M  V30 1923 C 188.652 -1.22316 1.9265 0
M  V30 1924 C 189.63 -1.42059 0.791076 0
M  V30 1925 O 190.814 -1.56831 1.04576 0
M  V30 1926 C 187.941 -2.58375 2.18998 0
M  V30 1927 C 186.987 -2.55284 3.41661 0
M  V30 1928 S 187.82 -2.02946 4.95553 0
M  V30 1929 C 188.976 -3.40753 5.25013 0
M  V30 1930 H 189.209 -0.917403 2.82791 0
M  V30 1931 H 186.742 -0.362059 1.50095 0
M  V30 1932 H 188.7 -3.36677 2.34859 0
M  V30 1933 H 187.361 -2.86145 1.29538 0
M  V30 1934 H 186.554 -3.55418 3.57343 0
M  V30 1935 H 186.156 -1.85086 3.24991 0
M  V30 1936 H 188.448 -4.36819 5.17876 0
M  V30 1937 H 189.391 -3.29933 6.26538 0
M  V30 1938 H 189.799 -3.37433 4.52548 0
M  V30 1939 N 189.197 -1.51736 -0.425897 0
M  V30 1940 C 190.613 -1.40166 -0.76326 0
M  V30 1941 C 190.813 -0.492962 -1.95377 0
M  V30 1942 O 189.869 0.0475815 -2.52455 0
M  V30 1943 C 191.182 -2.82403 -1.03291 0
M  V30 1944 C 192.73 -2.91632 -1.13665 0
M  V30 1945 C 193.205 -4.34801 -1.43916 0
M  V30 1946 N 194.696 -4.3796 -1.50816 0
M  V30 1947 C 195.431 -5.4578 -1.75817 0
M  V30 1948 N 194.927 -6.63744 -1.98534 0
M  V30 1949 N 196.72 -5.33274 -1.77694 0
M  V30 1950 H 188.871 -2.09361 0.358 0
M  V30 1951 H 191.134 -0.942941 0.0978094 0
M  V30 1952 H 190.84 -3.50943 -0.230696 0
M  V30 1953 H 190.714 -3.22428 -1.95754 0
M  V30 1954 H 193.101 -2.23284 -1.92947 0
M  V30 1955 H 193.182 -2.55088 -0.190756 0
M  V30 1956 H 192.826 -5.03703 -0.65157 0
M  V30 1957 H 192.756 -4.68868 -2.39729 0
M  V30 1958 H 195.247 -3.52919 -1.35118 0
M  V30 1959 H 195.56 -7.41704 -2.17013 0
M  V30 1960 H 193.905 -6.66839 -1.95832 0
M  V30 1961 H 197.096 -4.40098 -1.59473 0
M  V30 1962 H 197.269 -6.1738 -1.9684 0
M  V30 1963 N 190.675 0.682077 -1.42076 0
M  V30 1964 C 191.915 1.45424 -1.43636 0
M  V30 1965 C 192.279 1.91939 -0.0484001 0
M  V30 1966 O 193.48 2.6873 0.0612514 0
M  V30 1967 C 191.751 2.62427 -2.42625 0
M  V30 1968 S 193.31 3.51379 -2.62827 0
M  V30 1969 H 190.128 0.496779 -0.508657 0
M  V30 1970 H 192.73 0.794645 -1.78621 0
M  V30 1971 H 191.434 2.26481 -3.42249 0
M  V30 1972 H 190.965 3.33266 -2.09039 0
M  V30 1973 H 192.98 4.58141 -1.9058 0
M  V30 1974 N 192.153 1.28127 0.917671 0
M  V30 1975 C 193.564 1.13622 1.48145 0
M  V30 1976 C 193.915 -0.275207 1.9426 0
M  V30 1977 O 193.04 -1.1691 1.82102 0
M  V30 1978 C 193.635 2.05648 2.69248 0
M  V30 1979 C 192.194 1.95219 3.21818 0
M  V30 1980 C 191.341 1.97618 1.94532 0
M  V30 1981 H 194.292 1.40874 0.730772 0
M  V30 1982 H 194.313 1.61818 3.44377 0
M  V30 1983 H 193.825 3.08365 2.35653 0
M  V30 1984 H 191.926 0.955244 3.60147 0
M  V30 1985 H 192.039 2.81976 3.87333 0
M  V30 1986 H 190.403 1.41973 2.11461 0
M  V30 1987 H 191.186 3.02007 1.63238 0
M  V30 1988 N 193.631 -1.12557 1.10312 0
M  V30 1989 C 194.581 -2.16331 0.720076 0
M  V30 1990 C 195.565 -1.58616 -0.270115 0
M  V30 1991 O 196.757 -1.76823 -0.0790507 0
M  V30 1992 C 193.886 -3.42963 0.152113 0
M  V30 1993 C 192.972 -4.07663 1.16927 0
M  V30 1994 N 193.363 -4.47392 2.35953 0
M  V30 1995 C 191.661 -4.34425 1.0095 0
M  V30 1996 C 192.362 -4.97932 3.0073 0
M  V30 1997 N 191.338 -4.93358 2.28252 0
M  V30 1998 H 195.14 -2.44813 1.62616 0
M  V30 1999 H 192.654 -1.29449 0.980654 0
M  V30 2000 H 194.651 -4.16664 -0.14037 0
M  V30 2001 H 193.311 -3.1595 -0.748701 0
M  V30 2002 H 194.322 -4.39802 2.73486 0
M  V30 2003 H 190.999 -4.17177 0.164134 0
M  V30 2004 H 192.389 -5.38397 4.01969 0
M  V30 2005 N 195.109 -0.891671 -1.2995 0
M  V30 2006 C 196.355 -0.523649 -1.96544 0
M  V30 2007 C 196.71 0.918394 -1.69066 0
M  V30 2008 O 196.003 1.64122 -0.988659 0
M  V30 2009 C 196.197 -0.742868 -3.49594 0
M  V30 2010 C 196.026 -2.20467 -3.9195 0
M  V30 2011 C 194.796 -2.85055 -4.17219 0
M  V30 2012 C 196.994 -3.17912 -4.04273 0
M  V30 2013 N 194.976 -4.21762 -4.46083 0
M  V30 2014 C 196.347 -4.39712 -4.37097 0
M  V30 2015 C 198.402 -3.1361 -3.86721 0
M  V30 2016 C 197.105 -5.5776 -4.54199 0
M  V30 2017 C 199.131 -4.30936 -4.05028 0
M  V30 2018 C 198.493 -5.51504 -4.38204 0
M  V30 2019 H 194.592 -0.241072 -0.743914 0
M  V30 2020 H 197.176 -1.15081 -1.5705 0
M  V30 2021 H 195.347 -0.14515 -3.88129 0
M  V30 2022 H 197.079 -0.341081 -4.0326 0
M  V30 2023 H 193.834 -2.35889 -4.10674 0
M  V30 2024 H 194.258 -4.92382 -4.64638 0
M  V30 2025 H 198.9 -2.21489 -3.60142 0
M  V30 2026 H 196.618 -6.50379 -4.79618 0
M  V30 2027 H 200.204 -4.29085 -3.92909 0
M  V30 2028 H 199.084 -6.40778 -4.52077 0
M  V30 2029 N 196.587 1.43421 -0.653314 0
M  V30 2030 C 197.815 2.06163 -0.174491 0
M  V30 2031 C 198.23 1.48969 1.1599 0
M  V30 2032 O 197.587 0.621042 1.71608 0
M  V30 2033 C 197.638 3.61417 -0.0774865 0
M  V30 2034 O 197.359 4.16485 -1.35912 0
M  V30 2035 C 198.86 4.41235 0.427402 0
M  V30 2036 H 196.08 0.664946 -0.0899353 0
M  V30 2037 H 198.624 1.83924 -0.893988 0
M  V30 2038 H 196.779 3.82841 0.59257 0
M  V30 2039 H 197.193 5.10153 -1.21839 0
M  V30 2040 H 198.667 5.5021 0.44423 0
M  V30 2041 H 199.144 4.14268 1.45873 0
M  V30 2042 H 199.75 4.2478 -0.210167 0
M  V30 2043 N 198.065 0.39524 1.52563 0
M  V30 2044 C 199.293 -0.184943 2.06072 0
M  V30 2045 C 199.708 -1.40021 1.26647 0
M  V30 2046 O 199.065 -1.79767 0.314672 0
M  V30 2047 C 199.116 -0.549179 3.57304 0
M  V30 2048 O 198.837 0.617813 4.33722 0
M  V30 2049 C 200.338 -1.18459 4.2718 0
M  V30 2050 H 197.558 -0.0265025 0.670476 0
M  V30 2051 H 200.102 0.562184 1.96621 0
M  V30 2052 H 198.257 -1.2462 3.66809 0
M  V30 2053 H 198.671 0.317091 5.23541 0
M  V30 2054 H 200.145 -1.38976 5.34219 0
M  V30 2055 H 200.622 -2.15368 3.82771 0
M  V30 2056 H 201.228 -0.528163 4.22008 0
M  V30 2057 N 199.544 -1.57102 0.125237 0
M  V30 2058 C 200.454 -2.19191 -0.8362 0
M  V30 2059 C 201.47 -1.16985 -1.28805 0
M  V30 2060 O 202.646 -1.49479 -1.34974 0
M  V30 2061 C 199.711 -2.78407 -2.06617 0
M  V30 2062 C 198.772 -3.9567 -1.66565 0
M  V30 2063 C 198.005 -4.52052 -2.83698 0
M  V30 2064 O 198.228 -4.07326 -3.99302 0
M  V30 2065 O 197.162 -5.42645 -2.60423 0
M  V30 2066 H 200.988 -3.01816 -0.337776 0
M  V30 2067 H 198.573 -1.4906 -0.100695 0
M  V30 2068 H 200.455 -3.16129 -2.7864 0
M  V30 2069 H 199.13 -1.9881 -2.55453 0
M  V30 2070 H 198.037 -3.62705 -0.916296 0
M  V30 2071 H 199.37 -4.76722 -1.22464 0
M  V30 2072 N 201.022 0.148545 -1.56898 0
M  V30 2073 C 202.299 0.890019 -1.74178 0
M  V30 2074 C 202.679 1.99407 -0.692839 0
M  V30 2075 O 202.027 2.26671 0.288505 0
M  V30 2076 C 202.237 1.43389 -3.18183 0
M  V30 2077 C 203.585 1.89791 -3.79822 0
M  V30 2078 O 204.609 1.53134 -3.21603 0
M  V30 2079 O 203.468 2.57387 -4.82093 0
M  V30 2080 H 200.562 0.420496 -0.712118 0
M  V30 2081 H 203.108 0.134591 -1.69165 0
M  V30 2082 H 201.88 0.640383 -3.86024 0
M  V30 2083 H 201.503 2.25287 -3.27615 0
M  V30 2084 N 202.5 1.5196 0.417844 0
M  V30 2085 C 203.748 1.65263 1.16329 0
M  V30 2086 C 204.069 0.380634 1.91249 0
M  V30 2087 O 203.339 -0.604214 1.86349 0
M  V30 2088 H 201.919 0.60912 0.432414 0
M  V30 2089 H 204.581 1.88969 0.477162 0
M  V30 2090 H 203.677 2.4896 1.88217 0
M  V30 2091 N 203.978 -0.674533 1.42435 0
M  V30 2092 C 205.225 -1.43459 1.42919 0
M  V30 2093 C 205.553 -1.94446 0.0457312 0
M  V30 2094 O 204.808 -1.7132 -0.94593 0
M  V30 2095 C 205.107 -2.64767 2.40069 0
M  V30 2096 C 204.773 -2.3232 3.86443 0
M  V30 2097 C 203.435 -2.23182 4.26314 0
M  V30 2098 C 205.787 -2.05977 4.78773 0
M  V30 2099 C 203.115 -1.85827 5.56494 0
M  V30 2100 C 205.467 -1.70125 6.09295 0
M  V30 2101 C 204.131 -1.59498 6.48164 0
M  V30 2102 H 203.401 -0.524952 0.522978 0
M  V30 2103 H 206.048 -0.769097 1.75377 0
M  V30 2104 H 204.353 -3.36349 2.00939 0
M  V30 2105 H 206.05 -3.22949 2.37707 0
M  V30 2106 H 202.64 -2.40334 3.54877 0
M  V30 2107 H 206.824 -2.11969 4.48757 0
M  V30 2108 H 202.08 -1.76168 5.8547 0
M  V30 2109 H 206.254 -1.48767 6.80324 0
M  V30 2110 H 203.881 -1.30322 7.48946 0
M  V30 2111 N 205.456 -1.28612 -0.910864 0
M  V30 2112 C 206.366 -1.14643 -2.0468 0
M  V30 2113 C 207.382 -0.0723121 -1.7385 0
M  V30 2114 O 208.558 -0.282178 -1.99413 0
M  V30 2115 C 205.623 -0.812561 -3.37044 0
M  V30 2116 C 204.684 -1.96935 -3.81465 0
M  V30 2117 C 203.917 -1.65131 -5.07511 0
M  V30 2118 O 204.14 -0.567013 -5.67575 0
M  V30 2119 O 203.074 -2.49585 -5.47714 0
M  V30 2120 H 206.9 -2.1001 -2.19384 0
M  V30 2121 H 204.485 -1.07958 -1.03274 0
M  V30 2122 H 206.367 -0.640441 -4.16505 0
M  V30 2123 H 205.042 0.111426 -3.23508 0
M  V30 2124 H 203.949 -2.19664 -3.02818 0
M  V30 2125 H 205.282 -2.87414 -3.99567 0
M  V30 2126 N 206.934 1.1197 -1.10907 0
M  V30 2127 C 207.867 2.16998 -0.706192 0
M  V30 2128 C 208.845 1.59903 0.294897 0
M  V30 2129 O 210.029 1.87513 0.192636 0
M  V30 2130 C 207.156 3.38673 -0.0427664 0
M  V30 2131 C 206.202 4.14414 -1.00811 0
M  V30 2132 S 207.035 4.72079 -2.52789 0
M  V30 2133 C 208.191 5.97083 -1.87731 0
M  V30 2134 H 208.424 2.50837 -1.59587 0
M  V30 2135 H 205.957 1.23508 -0.926555 0
M  V30 2136 H 207.915 4.09142 0.333668 0
M  V30 2137 H 206.576 3.03105 0.823788 0
M  V30 2138 H 205.769 5.016 -0.491259 0
M  V30 2139 H 205.371 3.49678 -1.3267 0
M  V30 2140 H 207.663 6.66599 -1.21044 0
M  V30 2141 H 208.606 6.53403 -2.72892 0
M  V30 2142 H 209.014 5.4837 -1.33979 0
M  V30 2143 N 208.412 0.89855 1.29475 0
M  V30 2144 C 209.344 0.332726 2.26772 0
M  V30 2145 C 210.357 -0.520323 1.54261 0
M  V30 2146 O 211.546 -0.337668 1.75277 0
M  V30 2147 C 208.646 -0.544334 3.345 0
M  V30 2148 C 207.819 0.282728 4.36485 0
M  V30 2149 C 206.878 -0.526982 5.23555 0
M  V30 2150 O 205.904 0.0551165 5.69173 0
M  V30 2151 N 207.106 -1.83331 5.5079 0
M  V30 2152 H 209.871 1.16897 2.75962 0
M  V30 2153 H 207.432 0.762919 1.42798 0
M  V30 2154 H 209.424 -1.09239 3.89678 0
M  V30 2155 H 207.994 -1.28127 2.85136 0
M  V30 2156 H 207.214 1.01221 3.80983 0
M  V30 2157 H 208.502 0.84918 5.01664 0
M  V30 2158 H 207.9 -2.32898 5.15534 0
M  V30 2159 H 206.457 -2.32852 6.08788 0
M  V30 2160 N 209.89 -1.43072 0.660911 0
M  V30 2161 C 211.137 -2.01721 0.177445 0
M  V30 2162 C 211.465 -1.5218 -1.21126 0
M  V30 2163 O 210.72 -0.708659 -1.82419 0
M  V30 2164 C 211.019 -3.57103 0.145563 0
M  V30 2165 C 210.685 -4.26021 1.47705 0
M  V30 2166 C 209.347 -4.44563 1.84165 0
M  V30 2167 C 211.699 -4.64983 2.35458 0
M  V30 2168 C 209.027 -4.99334 3.0803 0
M  V30 2169 C 211.379 -5.21127 3.58622 0
M  V30 2170 C 210.043 -5.37884 3.95268 0
M  V30 2171 H 209.313 -0.73815 0.0649317 0
M  V30 2172 H 211.96 -1.71446 0.853144 0
M  V30 2173 H 210.265 -3.86965 -0.61361 0
M  V30 2174 H 211.962 -4.00248 -0.2455 0
M  V30 2175 H 208.552 -4.11939 1.18339 0
M  V30 2176 H 212.736 -4.50343 2.08579 0
M  V30 2177 H 207.992 -5.10493 3.36462 0
M  V30 2178 H 212.166 -5.50262 4.26831 0
M  V30 2179 H 209.793 -5.80089 4.91325 0
M  V30 2180 N 211.368 -0.403325 -1.52352 0
M  V30 2181 C 212.616 0.174003 -2.0135 0
M  V30 2182 C 212.937 1.46139 -1.29106 0
M  V30 2183 O 212.207 1.91448 -0.415253 0
M  V30 2184 H 210.787 0.0672911 -0.743963 0
M  V30 2185 H 213.449 -0.538235 -1.87321 0
M  V30 2186 H 212.545 0.374254 -3.09848 0
M  V30 2187 N 212.846 1.57033 -0.133567 0
M  V30 2188 C 214.092 1.95976 0.521649 0
M  V30 2189 C 214.425 1.01779 1.65393 0
M  V30 2190 O 213.7 0.0576581 1.94415 0
M  V30 2191 C 213.983 3.44738 1.04057 0
M  V30 2192 C 213.836 4.49711 -0.0892897 0
M  V30 2193 C 215.155 3.95682 1.92675 0
M  V30 2194 H 212.274 0.712579 0.188149 0
M  V30 2195 H 214.916 1.88813 -0.212076 0
M  V30 2196 H 213.066 3.50973 1.66583 0
M  V30 2197 H 214.738 4.55565 -0.725152 0
M  V30 2198 H 212.981 4.27261 -0.750378 0
M  V30 2199 H 213.652 5.51099 0.315284 0
M  V30 2200 H 216.128 3.91841 1.39998 0
M  V30 2201 H 215.004 5.00262 2.25897 0
M  V30 2202 H 215.265 3.37239 2.85872 0
M  V30 2203 N 214.325 -0.140222 1.56975 0
M  V30 2204 C 215.273 -1.19207 1.99731 0
M  V30 2205 C 216.267 -1.44089 0.890777 0
M  V30 2206 O 217.473 -1.44301 1.07597 0
M  V30 2207 H 213.848 -0.40142 0.635898 0
M  V30 2208 H 215.819 -0.804813 2.87342 0
M  V30 2209 C 214.568 -2.51617 2.39967 0
M  V30 2210 H 213.891 -2.33303 3.24669 0
M  V30 2211 H 215.331 -3.23827 2.73701 0
M  V30 2212 C 213.79 -3.12654 1.25496 0
M  V30 2213 O 214.32 -3.97786 0.559371 0
M  V30 2214 N 212.526 -2.72206 1.01746 0
M  V30 2215 H 212.073 -2.03074 1.58489 0
M  V30 2216 H 212.031 -3.13377 0.253461 0
M  V30 2217 N 215.803 -1.52179 -0.40978 0
M  V30 2218 C 216.753 -1.71857 -1.49831 0
M  V30 2219 C 217.737 -0.572469 -1.50372 0
M  V30 2220 O 218.929 -0.829509 -1.56359 0
M  V30 2221 C 216.058 -1.87206 -2.87765 0
M  V30 2222 C 215.144 -3.07685 -2.91875 0
M  V30 2223 N 215.535 -4.30403 -2.65683 0
M  V30 2224 C 213.833 -3.07505 -3.23043 0
M  V30 2225 C 214.534 -5.11868 -2.76344 0
M  V30 2226 N 213.51 -4.47101 -3.09195 0
M  V30 2227 H 217.312 -2.64381 -1.28375 0
M  V30 2228 H 214.826 -1.50203 -0.617479 0
M  V30 2229 H 216.823 -1.99419 -3.66111 0
M  V30 2230 H 215.483 -0.958814 -3.10221 0
M  V30 2231 H 216.494 -4.58887 -2.4009 0
M  V30 2232 H 213.171 -2.25915 -3.51096 0
M  V30 2233 H 214.561 -6.19634 -2.59814 0
M  V30 2234 N 217.281 0.66697 -1.42791 0
M  V30 2235 C 218.211 1.79218 -1.49677 0
M  V30 2236 C 219.192 1.66405 -0.352623 0
M  V30 2237 O 220.377 1.85708 -0.567993 0
M  V30 2238 C 217.507 3.17565 -1.40605 0
M  V30 2239 C 216.461 3.45124 -2.53127 0
M  V30 2240 C 215.787 4.83127 -2.29112 0
M  V30 2241 C 217.087 3.41236 -3.95418 0
M  V30 2242 H 218.781 1.73713 -2.43853 0
M  V30 2243 H 216.327 0.83432 -1.17367 0
M  V30 2244 H 218.28 3.96022 -1.44029 0
M  V30 2245 H 217.004 3.23767 -0.429271 0
M  V30 2246 H 215.663 2.69031 -2.49034 0
M  V30 2247 H 215.311 4.85988 -1.29709 0
M  V30 2248 H 215.011 5.02528 -3.04531 0
M  V30 2249 H 216.535 5.63859 -2.34297 0
M  V30 2250 H 217.949 4.09651 -4.01073 0
M  V30 2251 H 216.346 3.72173 -4.70752 0
M  V30 2252 H 217.416 2.39665 -4.21532 0
M  V30 2253 N 218.759 1.29093 0.90403 0
M  V30 2254 C 220.007 1.16583 1.65085 0
M  V30 2255 C 220.328 -0.283933 1.92922 0
M  V30 2256 O 219.598 -1.19509 1.55224 0
M  V30 2257 H 218.178 0.428467 0.611903 0
M  V30 2258 H 220.84 1.61959 1.08422 0
M  V30 2259 H 219.936 1.71266 2.6091 0
M  V30 2260 N 220.237 -1.11381 1.11499 0
M  V30 2261 C 221.187 -2.15555 0.74298 0
M  V30 2262 C 222.171 -1.58894 -0.253276 0
M  V30 2263 O 223.363 -1.76897 -0.0602918 0
M  V30 2264 C 220.492 -3.42782 0.188481 0
M  V30 2265 C 219.578 -4.064 1.21244 0
M  V30 2266 N 219.969 -4.44864 2.40685 0
M  V30 2267 C 218.267 -4.3333 1.05552 0
M  V30 2268 C 218.968 -4.94715 3.05994 0
M  V30 2269 N 217.944 -4.90909 2.33472 0
M  V30 2270 H 221.746 -2.43074 1.65203 0
M  V30 2271 H 219.26 -1.28401 0.994329 0
M  V30 2272 H 221.257 -4.16789 -0.0961693 0
M  V30 2273 H 219.917 -3.16727 -0.715149 0
M  V30 2274 H 220.928 -4.36876 2.78136 0
M  V30 2275 H 217.605 -4.1698 0.208372 0
M  V30 2276 H 218.995 -5.34103 4.07656 0
M  V30 2277 N 221.715 -0.905404 -1.28997 0
M  V30 2278 C 222.962 -0.534248 -1.95325 0
M  V30 2279 C 223.29 0.920535 -1.71337 0
M  V30 2280 O 222.545 1.66861 -1.02254 0
M  V30 2281 C 222.844 -0.779906 -3.48787 0
M  V30 2282 C 222.51 -2.21293 -3.92861 0
M  V30 2283 C 221.172 -2.60475 -4.04606 0
M  V30 2284 C 223.524 -3.14587 -4.15553 0
M  V30 2285 C 220.852 -3.9212 -4.36416 0
M  V30 2286 C 223.204 -4.45787 -4.48839 0
M  V30 2287 C 221.868 -4.84834 -4.58794 0
M  V30 2288 H 221.138 -0.195495 -0.714747 0
M  V30 2289 H 223.785 -1.14514 -1.53488 0
M  V30 2290 H 222.09 -0.0861365 -3.91705 0
M  V30 2291 H 223.787 -0.472029 -3.98212 0
M  V30 2292 H 220.377 -1.89887 -3.84241 0
M  V30 2293 H 224.561 -2.85528 -4.0594 0
M  V30 2294 H 219.817 -4.22086 -4.42327 0
M  V30 2295 H 223.991 -5.18098 -4.65346 0
M  V30 2296 H 221.618 -5.86877 -4.83197 0
M  V30 2297 N 223.193 1.4272 -0.668489 0
M  V30 2298 C 224.123 2.335 -0.000100175 0
M  V30 2299 C 225.104 1.50328 0.795964 0
M  V30 2300 O 226.289 1.78949 0.754385 0
M  V30 2301 C 223.419 3.33874 0.956302 0
M  V30 2302 C 222.373 4.27152 0.269278 0
M  V30 2303 C 221.699 5.17684 1.33818 0
M  V30 2304 C 222.999 5.15373 -0.847805 0
M  V30 2305 H 224.693 2.89639 -0.758244 0
M  V30 2306 H 222.239 1.39269 -0.366079 0
M  V30 2307 H 224.192 3.9629 1.43292 0
M  V30 2308 H 222.916 2.76025 1.74579 0
M  V30 2309 H 221.575 3.66123 -0.187042 0
M  V30 2310 H 221.223 4.56165 2.1195 0
M  V30 2311 H 220.923 5.80918 0.883659 0
M  V30 2312 H 222.447 5.82974 1.81586 0
M  V30 2313 H 223.861 5.7151 -0.452681 0
M  V30 2314 H 222.258 5.87407 -1.22773 0
M  V30 2315 H 223.328 4.5415 -1.69929 0
M  V30 2316 N 224.671 0.411399 1.52136 0
M  V30 2317 C 225.601 -0.404015 2.29978 0
M  V30 2318 C 226.582 -1.04412 1.34284 0
M  V30 2319 O 227.767 -1.0527 1.63192 0
M  V30 2320 C 224.897 -1.5197 3.12286 0
M  V30 2321 C 223.851 -1.00448 4.16046 0
M  V30 2322 C 223.177 -2.21393 4.86712 0
M  V30 2323 C 224.477 -0.0569336 5.22269 0
M  V30 2324 H 226.171 0.245529 2.98392 0
M  V30 2325 H 223.717 0.119525 1.43503 0
M  V30 2326 H 225.67 -2.09715 3.6551 0
M  V30 2327 H 224.394 -2.19716 2.41646 0
M  V30 2328 H 223.053 -0.449421 3.63835 0
M  V30 2329 H 222.701 -2.87699 4.12599 0
M  V30 2330 H 222.401 -1.87571 5.56858 0
M  V30 2331 H 223.925 -2.7974 5.4275 0
M  V30 2332 H 225.339 -0.54325 5.7072 0
M  V30 2333 H 223.736 0.192594 5.99791 0
M  V30 2334 H 224.806 0.887663 4.76706 0
M  V30 2335 N 226.149 -1.5696 0.141893 0
M  V30 2336 C 227.377 -2.00322 -0.517579 0
M  V30 2337 C 227.792 -1.02193 -1.58752 0
M  V30 2338 O 227.149 -0.0181619 -1.82491 0
M  V30 2339 C 227.2 -3.43618 -1.12289 0
M  V30 2340 O 226.921 -4.37995 -0.0956929 0
M  V30 2341 C 228.422 -4.02231 -1.86347 0
M  V30 2342 H 225.642 -0.657243 -0.135177 0
M  V30 2343 H 228.186 -2.03146 0.234973 0
M  V30 2344 H 226.341 -3.41662 -1.82609 0
M  V30 2345 H 226.755 -5.21729 -0.538469 0
M  V30 2346 H 228.229 -5.04509 -2.23997 0
M  V30 2347 H 228.706 -3.42655 -2.74744 0
M  V30 2348 H 229.312 -4.07802 -1.20737 0
M  V30 2349 N 227.627 0.131896 -1.57047 0
M  V30 2350 C 228.575 1.18146 -2.0036 0
M  V30 2351 C 229.569 1.43614 -0.898406 0
M  V30 2352 O 230.775 1.43729 -1.08361 0
M  V30 2353 H 227.15 0.398042 -0.638018 0
M  V30 2354 H 229.121 0.789564 -2.87765 0
M  V30 2355 C 227.87 2.50341 -2.41298 0
M  V30 2356 H 227.193 2.31578 -3.25902 0
M  V30 2357 H 228.633 3.22371 -2.75414 0
M  V30 2358 C 227.092 3.11984 -1.27153 0
M  V30 2359 O 227.622 3.97484 -0.580459 0
M  V30 2360 N 225.828 2.71662 -1.03189 0
M  V30 2361 H 225.375 2.02231 -1.59564 0
M  V30 2362 H 225.333 3.13238 -0.270077 0
M  V30 2363 N 229.106 1.52395 0.401703 0
M  V30 2364 C 230.036 1.79231 1.49661 0
M  V30 2365 C 231.017 0.643654 1.57452 0
M  V30 2366 O 232.202 0.889989 1.72606 0
M  V30 2367 C 229.332 1.94971 2.87409 0
M  V30 2368 C 228.286 3.10604 2.94465 0
M  V30 2369 C 227.612 3.11577 4.34538 0
M  V30 2370 C 228.912 4.49921 2.6527 0
M  V30 2371 H 230.606 2.70917 1.27454 0
M  V30 2372 H 228.152 1.30362 0.6117 0
M  V30 2373 H 230.105 2.12328 3.63999 0
M  V30 2374 H 228.829 0.999632 3.10926 0
M  V30 2375 H 227.488 2.93009 2.20321 0
M  V30 2376 H 227.136 2.14277 4.55076 0
M  V30 2377 H 226.836 3.89247 4.40183 0
M  V30 2378 H 228.36 3.31073 5.13053 0
M  V30 2379 H 229.774 4.67683 3.31581 0
M  V30 2380 H 228.171 5.29564 2.82281 0
M  V30 2381 H 229.241 4.57507 1.60671 0
M  V30 2382 N 230.584 -0.659388 1.43143 0
M  V30 2383 C 231.514 -1.78422 1.50625 0
M  V30 2384 C 232.495 -1.66216 0.361443 0
M  V30 2385 O 233.68 -1.85404 0.577834 0
M  V30 2386 C 230.81 -3.16815 1.42287 0
M  V30 2387 C 229.764 -3.43777 2.54954 0
M  V30 2388 C 229.09 -4.81905 2.31671 0
M  V30 2389 C 230.39 -3.39134 3.97222 0
M  V30 2390 H 232.084 -1.72417 2.44771 0
M  V30 2391 H 229.63 -0.828084 1.17808 0
M  V30 2392 H 231.583 -3.95253 1.46127 0
M  V30 2393 H 230.307 -3.23534 0.446435 0
M  V30 2394 H 228.966 -2.67707 2.50457 0
M  V30 2395 H 228.614 -4.85294 1.32284 0
M  V30 2396 H 228.314 -5.00906 3.07192 0
M  V30 2397 H 229.838 -5.62609 2.37284 0
M  V30 2398 H 231.252 -4.07518 4.03239 0
M  V30 2399 H 229.649 -3.69671 4.72719 0
M  V30 2400 H 230.719 -2.37426 4.22797 0
M  V30 2401 N 232.062 -1.29571 -0.897171 0
M  V30 2402 C 232.992 -1.17473 -2.01798 0
M  V30 2403 C 233.973 -0.068323 -1.69963 0
M  V30 2404 O 235.158 -0.248239 -1.92607 0
M  V30 2405 C 232.288 -0.853099 -3.36659 0
M  V30 2406 C 231.242 -1.9161 -3.82713 0
M  V30 2407 C 230.568 -1.44773 -5.14728 0
M  V30 2408 C 231.868 -3.32535 -4.02763 0
M  V30 2409 H 233.562 -2.11237 -2.12177 0
M  V30 2410 H 231.108 -1.01699 -1.01948 0
M  V30 2411 H 233.061 -0.755165 -4.14578 0
M  V30 2412 H 231.785 0.120236 -3.26379 0
M  V30 2413 H 230.444 -2.00346 -3.07013 0
M  V30 2414 H 230.092 -0.462995 -5.00865 0
M  V30 2415 H 229.792 -2.15865 -5.46513 0
M  V30 2416 H 231.316 -1.36334 -5.95185 0
M  V30 2417 H 232.73 -3.26626 -4.71156 0
M  V30 2418 H 231.127 -4.01607 -4.45905 0
M  V30 2419 H 232.197 -3.75326 -3.07016 0
M  V30 2420 N 233.54 1.10788 -1.12088 0
M  V30 2421 C 234.817 1.79136 -0.785476 0
M  V30 2422 C 235.197 1.98246 0.725377 0
M  V30 2423 O 234.545 1.57258 1.65778 0
M  V30 2424 C 234.755 3.12375 -1.55636 0
M  V30 2425 C 236.103 3.8731 -1.74001 0
M  V30 2426 O 237.127 3.22085 -1.52117 0
M  V30 2427 O 235.986 5.04369 -2.10415 0
M  V30 2428 H 233.08 0.776226 -0.285311 0
M  V30 2429 H 235.626 1.1747 -1.2247 0
M  V30 2430 H 234.398 2.93863 -2.5838 0
M  V30 2431 H 234.021 3.81758 -1.11114 0
M  V30 2432 N 235.018 0.912232 1.28515 0
M  V30 2433 C 235.965 0.397954 2.27343 0
M  V30 2434 C 236.935 -0.526766 1.57526 0
M  V30 2435 O 238.12 -0.449292 1.85435 0
M  V30 2436 C 235.26 -0.357263 3.43246 0
M  V30 2437 C 234.373 0.599788 4.27816 0
M  V30 2438 C 233.508 -0.173725 5.30916 0
M  V30 2439 C 232.547 0.777039 6.07148 0
M  V30 2440 N 231.684 0.0371398 7.0209 0
M  V30 2441 H 236.524 1.24577 2.70711 0
M  V30 2442 H 234.061 0.625612 1.33133 0
M  V30 2443 H 236.019 -0.8113 4.09236 0
M  V30 2444 H 234.649 -1.16943 3.00872 0
M  V30 2445 H 233.701 1.17235 3.61884 0
M  V30 2446 H 235.013 1.32704 4.80823 0
M  V30 2447 H 234.167 -0.688394 6.02782 0
M  V30 2448 H 232.906 -0.934041 4.78672 0
M  V30 2449 H 231.911 1.3031 5.34134 0
M  V30 2450 H 233.136 1.53689 6.61481 0
M  V30 2451 H 231.082 -0.705213 6.52198 0
M  V30 2452 H 230.999 0.704249 7.52713 0
M  V30 2453 H 232.267 -0.457383 7.78157 0
M  V30 2454 N 236.496 -1.42363 0.676048 0
M  V30 2455 C 237.426 -2.33497 0.0124832 0
M  V30 2456 C 238.407 -1.50748 -0.787981 0
M  V30 2457 O 239.592 -1.79346 -0.744884 0
M  V30 2458 C 236.722 -3.34377 -0.938582 0
M  V30 2459 C 235.676 -4.27289 -0.246622 0
M  V30 2460 C 235.002 -5.18386 -1.31071 0
M  V30 2461 C 236.302 -5.14916 0.875125 0
M  V30 2462 H 237.996 -2.89233 0.773593 0
M  V30 2463 H 235.542 -1.39073 0.37346 0
M  V30 2464 H 237.495 -3.97044 -1.41188 0
M  V30 2465 H 236.219 -2.76947 -1.73113 0
M  V30 2466 H 234.878 -3.66018 0.206456 0
M  V30 2467 H 234.526 -4.57282 -2.09528 0
M  V30 2468 H 234.226 -5.81378 -0.852839 0
M  V30 2469 H 235.75 -5.83929 -1.78492 0
M  V30 2470 H 237.164 -5.71262 0.482983 0
M  V30 2471 H 235.561 -5.86747 1.25887 0
M  V30 2472 H 236.631 -4.53242 1.72335 0
M  V30 2473 N 237.974 -0.419461 -1.51915 0
M  V30 2474 C 238.921 0.400927 -2.27291 0
M  V30 2475 C 239.891 1.03224 -1.30131 0
M  V30 2476 O 241.076 1.05455 -1.59009 0
M  V30 2477 C 238.216 1.50603 -3.10504 0
M  V30 2478 C 237.329 0.89462 -4.22635 0
M  V30 2479 C 236.464 1.97328 -4.93189 0
M  V30 2480 C 235.503 1.33935 -5.97267 0
M  V30 2481 N 234.64 2.3586 -6.61298 0
M  V30 2482 H 239.48 -0.248251 -2.96964 0
M  V30 2483 H 237.017 -0.134266 -1.46486 0
M  V30 2484 H 238.975 2.15783 -3.57062 0
M  V30 2485 H 237.605 2.12509 -2.42981 0
M  V30 2486 H 236.657 0.131583 -3.80172 0
M  V30 2487 H 237.969 0.391641 -4.9726 0
M  V30 2488 H 237.123 2.70211 -5.43204 0
M  V30 2489 H 235.862 2.50994 -4.18155 0
M  V30 2490 H 234.867 0.595896 -5.46561 0
M  V30 2491 H 236.092 0.810252 -6.74249 0
M  V30 2492 H 234.038 2.88639 -5.89087 0
M  V30 2493 H 233.955 1.90403 -7.3163 0
M  V30 2494 H 235.223 3.08282 -7.15949 0
M  V30 2495 N 239.452 1.56882 -0.150215 0
M  V30 2496 C 240.415 2.1573 0.774157 0
M  V30 2497 C 241.415 1.0999 1.17298 0
M  V30 2498 O 242.605 1.35613 1.09338 0
M  V30 2499 C 239.737 2.72302 2.05096 0
M  V30 2500 H 240.93 2.98752 0.262201 0
M  V30 2501 H 238.483 1.55985 0.099248 0
M  V30 2502 H 239.218 1.92956 2.6065 0
M  V30 2503 H 239.003 3.49665 1.77416 0
M  V30 2504 H 240.493 3.17632 2.71109 0
M  V30 2505 N 240.93 -0.123565 1.57115 0
M  V30 2506 C 242.155 -0.850398 1.89164 0
M  V30 2507 C 242.58 -1.7286 0.741688 0
M  V30 2508 O 241.938 -1.78665 -0.307958 0
M  V30 2509 C 241.986 -1.66353 3.19936 0
M  V30 2510 O 241.09 -2.77004 3.0552 0
M  V30 2511 H 240.431 -0.235454 0.620852 0
M  V30 2512 H 242.961 -0.107335 2.04318 0
M  V30 2513 H 242.971 -2.05372 3.52543 0
M  V30 2514 H 241.646 -1.01881 4.03228 0
M  V30 2515 H 240.223 -2.41221 2.84371 0
M  V30 2516 N 242.408 -1.52605 -0.393616 0
M  V30 2517 C 243.371 -1.76415 -1.46323 0
M  V30 2518 C 244.371 -0.634126 -1.47768 0
M  V30 2519 O 245.561 -0.902142 -1.4902 0
M  V30 2520 C 242.693 -1.8607 -2.85641 0
M  V30 2521 H 243.886 -2.71916 -1.26498 0
M  V30 2522 H 241.439 -1.43257 -0.625073 0
M  V30 2523 H 242.174 -0.925378 -3.10817 0
M  V30 2524 H 241.959 -2.68235 -2.85993 0
M  V30 2525 H 243.449 -2.06179 -3.63153 0
M  V30 2526 N 243.887 0.651787 -1.4349 0
M  V30 2527 C 245.298 1.233 -1.40193 0
M  V30 2528 C 245.649 1.9591 -0.106727 0
M  V30 2529 O 244.774 2.01316 0.793773 0
M  V30 2530 C 245.369 2.24257 -2.53957 0
M  V30 2531 C 243.928 2.77852 -2.5392 0
M  V30 2532 C 243.075 1.52517 -2.3159 0
M  V30 2533 H 246.026 0.443717 -1.52371 0
M  V30 2534 H 246.047 3.0646 -2.25528 0
M  V30 2535 H 245.559 1.71382 -3.4821 0
M  V30 2536 H 243.66 3.34786 -1.63551 0
M  V30 2537 H 243.773 3.25299 -3.51735 0
M  V30 2538 H 242.137 1.79915 -1.80285 0
M  V30 2539 H 242.92 1.01574 -3.27929 0
M  V30 2540 N 245.365 1.30045 0.890287 0
M  V30 2541 C 246.59 1.21598 1.68014 0
M  V30 2542 C 247.015 -0.218678 1.86825 0
M  V30 2543 O 246.373 -1.15756 1.39536 0
M  V30 2544 C 246.421 1.94434 3.03691 0
M  V30 2545 O 245.525 1.2678 3.92429 0
M  V30 2546 H 244.866 0.420856 0.513592 0
M  V30 2547 H 247.396 1.71775 1.11151 0
M  V30 2548 H 247.406 2.03251 3.5377 0
M  V30 2549 H 246.081 2.98777 2.89318 0
M  V30 2550 H 244.658 1.26282 3.50866 0
M  V30 2551 N 246.843 -1.10192 1.12674 0
M  V30 2552 C 248.259 -1.34235 0.863317 0
M  V30 2553 C 248.459 -1.95062 -0.505277 0
M  V30 2554 O 247.515 -2.19192 -1.25345 0
M  V30 2555 C 248.828 -2.2616 1.98172 0
M  V30 2556 C 250.376 -2.3969 2.0129 0
M  V30 2557 C 250.851 -3.34946 3.1237 0
M  V30 2558 N 252.342 -3.42515 3.11829 0
M  V30 2559 C 253.077 -4.16199 3.94419 0
M  V30 2560 N 252.573 -4.92747 4.87004 0
M  V30 2561 N 254.366 -4.11843 3.82547 0
M  V30 2562 H 246.517 -0.690798 2.00853 0
M  V30 2563 H 248.78 -0.366774 0.874174 0
M  V30 2564 H 248.486 -1.8868 2.96804 0
M  V30 2565 H 248.36 -3.26488 1.88906 0
M  V30 2566 H 250.747 -2.76438 1.03276 0
M  V30 2567 H 250.828 -1.39169 2.14629 0
M  V30 2568 H 250.472 -2.98923 4.10619 0
M  V30 2569 H 250.402 -4.35353 2.96269 0
M  V30 2570 H 252.893 -2.87926 2.44759 0
M  V30 2571 H 253.206 -5.46376 5.46528 0
M  V30 2572 H 251.551 -4.91862 4.91016 0
M  V30 2573 H 254.742 -3.51136 3.0955 0
M  V30 2574 H 254.915 -4.69007 4.47142 0
M  V30 2575 N 248.321 -0.919034 -1.28029 0
M  V30 2576 C 249.57 -0.550802 -1.94034 0
M  V30 2577 C 249.883 0.910877 -1.73096 0
M  V30 2578 O 251.089 1.3875 -2.33368 0
M  V30 2579 C 249.545 -0.934249 -3.47563 0
M  V30 2580 C 249.153 -2.41602 -3.7727 0
M  V30 2581 C 250.897 -0.636854 -4.19696 0
M  V30 2582 C 248.804 -2.73932 -5.24133 0
M  V30 2583 H 247.734 -0.202273 -0.726362 0
M  V30 2584 H 250.385 -1.11867 -1.45458 0
M  V30 2585 H 248.767 -0.295115 -3.94899 0
M  V30 2586 H 249.941 -3.10233 -3.40723 0
M  V30 2587 H 248.256 -2.68441 -3.18321 0
M  V30 2588 H 250.853 -0.855005 -5.2782 0
M  V30 2589 H 251.196 0.425575 -4.14119 0
M  V30 2590 H 251.729 -1.23469 -3.78154 0
M  V30 2591 H 248.468 -3.79049 -5.34792 0
M  V30 2592 H 247.988 -2.09942 -5.61858 0
M  V30 2593 H 249.667 -2.61215 -5.91925 0
M  V30 2594 N 249.799 1.42003 -0.683588 0
M  V30 2595 C 251.048 2.00638 -0.206681 0
M  V30 2596 C 251.361 1.5472 1.19671 0
M  V30 2597 O 252.567 2.05833 1.77045 0
M  V30 2598 C 251.023 3.58487 -0.318632 0
M  V30 2599 C 250.631 4.1339 -1.72663 0
M  V30 2600 C 252.375 4.24384 0.0991141 0
M  V30 2601 C 250.282 5.63633 -1.79087 0
M  V30 2602 H 249.212 0.750408 -0.0735107 0
M  V30 2603 H 251.863 1.62624 -0.850048 0
M  V30 2604 H 250.245 3.94047 0.392781 0
M  V30 2605 H 251.419 3.89273 -2.46583 0
M  V30 2606 H 249.734 3.59976 -2.09299 0
M  V30 2607 H 252.331 5.34652 0.0713833 0
M  V30 2608 H 252.674 4.00505 1.13586 0
M  V30 2609 H 253.207 3.93816 -0.561599 0
M  V30 2610 H 249.946 5.92323 -2.80774 0
M  V30 2611 H 249.466 5.89714 -1.09535 0
M  V30 2612 H 251.145 6.28201 -1.5483 0
M  V30 2613 N 251.277 0.427512 1.51691 0
M  V30 2614 C 252.225 -0.403359 2.29076 0
M  V30 2615 C 253.219 -1.02962 1.34518 0
M  V30 2616 O 254.425 -0.965715 1.51901 0
M  V30 2617 H 250.8 -0.148879 0.737115 0
M  V30 2618 H 252.771 0.270295 2.97173 0
M  V30 2619 C 251.52 -1.49763 3.13794 0
M  V30 2620 H 250.843 -1.02508 3.86435 0
M  V30 2621 H 252.283 -2.05244 3.71014 0
M  V30 2622 C 250.742 -2.47536 2.28533 0
M  V30 2623 O 251.272 -3.51848 1.93819 0
M  V30 2624 N 249.478 -2.18187 1.91945 0
M  V30 2625 H 249.025 -1.33389 2.20375 0
M  V30 2626 H 248.983 -2.83848 1.35195 0
M  V30 2627 N 252.755 -1.56801 0.158532 0
M  V30 2628 C 253.685 -2.20347 -0.772609 0
M  V30 2629 C 254.666 -1.15518 -1.24859 0
M  V30 2630 O 255.851 -1.43902 -1.30406 0
M  V30 2631 C 252.981 -2.83417 -2.00729 0
M  V30 2632 C 251.935 -3.94174 -1.66765 0
M  V30 2633 C 251.261 -4.44233 -2.97592 0
M  V30 2634 C 252.561 -5.14392 -0.905447 0
M  V30 2635 H 254.255 -2.98413 -0.242959 0
M  V30 2636 H 251.801 -1.43537 -0.115419 0
M  V30 2637 H 253.754 -3.26543 -2.6636 0
M  V30 2638 H 252.478 -2.02701 -2.56086 0
M  V30 2639 H 251.137 -3.51684 -1.03508 0
M  V30 2640 H 250.785 -3.60325 -3.50963 0
M  V30 2641 H 250.485 -5.18945 -2.75626 0
M  V30 2642 H 252.009 -4.90037 -3.64274 0
M  V30 2643 H 253.423 -5.5429 -1.46408 0
M  V30 2644 H 251.82 -5.9494 -0.7853 0
M  V30 2645 H 252.89 -4.84795 0.100668 0
M  V30 2646 N 254.233 0.115231 -1.57178 0
M  V30 2647 C 255.458 0.840354 -1.89612 0
M  V30 2648 C 255.883 1.72464 -0.750845 0
M  V30 2649 O 255.241 1.78826 0.298478 0
M  V30 2650 C 255.289 1.64654 -3.20814 0
M  V30 2651 O 254.393 2.7538 -3.06985 0
M  V30 2652 H 253.734 0.232158 -0.622092 0
M  V30 2653 H 256.264 0.0964977 -2.04372 0
M  V30 2654 H 256.274 2.03499 -3.53627 0
M  V30 2655 H 254.949 0.997416 -4.03763 0
M  V30 2656 H 253.526 2.3971 -2.85646 0
M  V30 2657 N 255.711 1.52812 0.385517 0
M  V30 2658 C 256.936 1.72207 1.15583 0
M  V30 2659 C 257.361 0.441034 1.82857 0
M  V30 2660 O 256.719 -0.603465 1.70962 0
M  V30 2661 C 256.767 2.87476 2.17692 0
M  V30 2662 O 255.871 2.54693 3.24354 0
M  V30 2663 H 255.212 0.572526 0.336319 0
M  V30 2664 H 257.742 1.99618 0.448744 0
M  V30 2665 H 257.752 3.13072 2.6163 0
M  V30 2666 H 256.427 3.80408 1.68115 0
M  V30 2667 H 255.004 2.3985 2.85529 0
M  V30 2668 N 257.189 -0.644168 1.43834 0
M  V30 2669 C 258.119 -1.76814 1.52509 0
M  V30 2670 C 259.1 -1.65823 0.379052 0
M  V30 2671 O 260.285 -1.84781 0.597466 0
M  V30 2672 C 257.415 -3.15288 1.4564 0
M  V30 2673 C 256.369 -3.41053 2.58586 0
M  V30 2674 C 255.695 -4.79421 2.36769 0
M  V30 2675 C 256.995 -3.34902 4.00797 0
M  V30 2676 H 258.689 -1.69812 2.46586 0
M  V30 2677 H 256.235 -0.815542 1.1868 0
M  V30 2678 H 258.188 -3.93681 1.50311 0
M  V30 2679 H 256.912 -3.23043 0.480725 0
M  V30 2680 H 255.571 -2.65035 2.53282 0
M  V30 2681 H 255.219 -4.83863 1.37424 0
M  V30 2682 H 254.919 -4.9762 3.12487 0
M  V30 2683 H 256.443 -5.6006 2.43238 0
M  V30 2684 H 257.857 -4.03218 4.07539 0
M  V30 2685 H 256.254 -3.64637 4.76613 0
M  V30 2686 H 257.324 -2.32928 4.25291 0
M  V30 2687 N 258.668 -1.30515 -0.883378 0
M  V30 2688 C 259.631 -1.1701 -1.97082 0
M  V30 2689 C 260.631 -0.10089 -1.60483 0
M  V30 2690 O 261.821 -0.349127 -1.70666 0
M  V30 2691 C 258.953 -0.793045 -3.31547 0
M  V30 2692 H 260.146 -2.13622 -2.10489 0
M  V30 2693 H 257.699 -1.13935 -1.06998 0
M  V30 2694 H 258.434 0.172499 -3.23841 0
M  V30 2695 H 258.219 -1.56576 -3.5948 0
M  V30 2696 H 259.709 -0.722073 -4.1131 0
M  V30 2697 N 260.146 1.09593 -1.13257 0
M  V30 2698 C 261.096 2.14345 -0.777179 0
M  V30 2699 C 262.08 1.59277 0.227966 0
M  V30 2700 O 263.272 1.76971 0.0321413 0
M  V30 2701 C 260.401 3.42439 -0.242991 0
M  V30 2702 C 259.487 4.04419 -1.27694 0
M  V30 2703 N 259.878 4.40979 -2.47732 0
M  V30 2704 C 258.176 4.31596 -1.12432 0
M  V30 2705 C 258.877 4.89784 -3.13826 0
M  V30 2706 N 257.853 4.87133 -2.41252 0
M  V30 2707 H 261.655 2.40415 -1.69049 0
M  V30 2708 H 259.169 1.26803 -1.01463 0
M  V30 2709 H 261.166 4.16889 0.0298496 0
M  V30 2710 H 259.826 3.17824 0.66467 0
M  V30 2711 H 260.837 4.32396 -2.85051 0
M  V30 2712 H 257.514 4.16595 -0.274684 0
M  V30 2713 H 258.904 5.2755 -4.16102 0
M  V30 2714 N 261.624 0.925811 1.2754 0
M  V30 2715 C 262.87 0.566092 1.94739 0
M  V30 2716 C 263.203 -0.890057 1.72603 0
M  V30 2717 O 262.478 -1.63467 1.05399 0
M  V30 2718 C 262.761 0.89054 3.48915 0
M  V30 2719 C 262.614 2.4003 3.80402 0
M  V30 2720 C 263.933 0.395101 4.38323 0
M  V30 2721 H 261.052 0.20714 0.707292 0
M  V30 2722 H 263.694 1.15725 1.50691 0
M  V30 2723 H 261.844 0.387452 3.86563 0
M  V30 2724 H 263.516 2.97494 3.52555 0
M  V30 2725 H 261.759 2.85028 3.2702 0
M  V30 2726 H 262.43 2.57785 4.8811 0
M  V30 2727 H 264.906 0.826241 4.07814 0
M  V30 2728 H 263.782 0.651086 5.45025 0
M  V30 2729 H 264.043 -0.704798 4.36446 0
M  V30 2730 N 263.102 -1.41638 0.69111 0
M  V30 2731 C 264.065 -2.29178 0.0319786 0
M  V30 2732 C 265.065 -1.44153 -0.712496 0
M  V30 2733 O 266.255 -1.65354 -0.548053 0
M  V30 2734 C 263.387 -3.26952 -0.965161 0
M  V30 2735 H 264.58 -2.88959 0.802681 0
M  V30 2736 H 262.133 -1.4955 0.454356 0
M  V30 2737 H 262.868 -2.72142 -1.76378 0
M  V30 2738 H 262.653 -3.89685 -0.434522 0
M  V30 2739 H 264.143 -3.92561 -1.42428 0
M  V30 2740 N 264.58 -0.43555 -1.51462 0
M  V30 2741 C 265.828 0.131254 -2.01673 0
M  V30 2742 C 266.149 1.43368 -1.32177 0
M  V30 2743 O 265.419 1.90524 -0.455769 0
M  V30 2744 H 263.999 0.0514954 -0.745223 0
M  V30 2745 H 266.661 -0.577847 -1.86137 0
M  V30 2746 H 265.757 0.308446 -3.10572 0
M  V30 2747 N 266.058 1.56714 -0.166846 0
M  V30 2748 C 267.008 2.14338 0.777382 0
M  V30 2749 C 267.992 1.07642 1.19591 0
M  V30 2750 O 269.184 1.33775 1.15902 0
M  V30 2751 C 266.313 2.78417 2.00846 0
M  V30 2752 C 265.399 3.92264 1.61212 0
M  V30 2753 N 265.79 4.97268 0.925104 0
M  V30 2754 C 264.088 4.03342 1.90346 0
M  V30 2755 C 264.789 5.77093 0.730627 0
M  V30 2756 N 263.765 5.2854 1.27067 0
M  V30 2757 H 267.567 2.9289 0.243466 0
M  V30 2758 H 265.081 1.62364 0.0339954 0
M  V30 2759 H 267.078 3.18073 2.69509 0
M  V30 2760 H 265.738 2.01344 2.54736 0
M  V30 2761 H 266.749 5.14601 0.583646 0
M  V30 2762 H 263.426 3.37368 2.45946 0
M  V30 2763 H 264.816 6.71638 0.187668 0
M  V30 2764 N 267.536 -0.106894 1.57237 0
M  V30 2765 C 268.785 -0.811163 1.8467 0
M  V30 2766 C 269.098 -1.80469 0.754342 0
M  V30 2767 O 270.304 -2.55601 0.915439 0
M  V30 2768 C 268.76 -1.49337 3.27454 0
M  V30 2769 C 268.368 -0.540217 4.44731 0
M  V30 2770 C 270.112 -2.18206 3.64124 0
M  V30 2771 C 268.019 -1.22634 5.78545 0
M  V30 2772 H 266.949 -0.306679 0.688813 0
M  V30 2773 H 269.6 -0.0639887 1.83388 0
M  V30 2774 H 267.982 -2.2876 3.23241 0
M  V30 2775 H 269.156 0.221659 4.60267 0
M  V30 2776 H 267.471 0.042146 4.16379 0
M  V30 2777 H 270.068 -2.70253 4.61376 0
M  V30 2778 H 270.411 -2.96562 2.92158 0
M  V30 2779 H 270.944 -1.45658 3.70174 0
M  V30 2780 H 267.683 -0.483832 6.53712 0
M  V30 2781 H 267.203 -1.95993 5.66874 0
M  V30 2782 H 268.882 -1.75615 6.2271 0
M  V30 2783 N 269.014 -1.53014 -0.377408 0
M  V30 2784 C 270.291 -1.59215 -1.13622 0
M  V30 2785 C 270.671 -0.392407 -2.07421 0
M  V30 2786 O 270.019 0.618342 -2.19975 0
M  V30 2787 C 270.229 -2.93669 -1.88573 0
M  V30 2788 C 271.577 -3.47822 -2.43526 0
M  V30 2789 O 272.601 -2.9562 -1.98715 0
M  V30 2790 O 271.46 -4.39055 -3.25412 0
M  V30 2791 H 268.554 -0.642625 -0.52054 0
M  V30 2792 H 271.1 -1.65353 -0.381625 0
M  V30 2793 H 269.872 -3.7243 -1.20048 0
M  V30 2794 H 269.495 -2.90968 -2.70968 0
M  V30 2795 N 270.492 0.636531 -1.44174 0
M  V30 2796 C 271.739 1.39619 -1.46672 0
M  V30 2797 C 272.067 1.94257 -0.0972691 0
M  V30 2798 O 271.322 1.73768 0.900175 0
M  V30 2799 C 271.621 2.58309 -2.47005 0
M  V30 2800 C 271.287 2.21992 -3.92467 0
M  V30 2801 C 269.949 2.118 -4.32081 0
M  V30 2802 C 272.301 1.9321 -4.84065 0
M  V30 2803 C 269.629 1.71007 -5.61225 0
M  V30 2804 C 271.981 1.53911 -6.13591 0
M  V30 2805 C 270.645 1.42257 -6.52165 0
M  V30 2806 H 269.915 0.510902 -0.536712 0
M  V30 2807 H 272.562 0.722328 -1.77355 0
M  V30 2808 H 270.867 3.30903 -2.09786 0
M  V30 2809 H 272.564 3.16533 -2.46186 0
M  V30 2810 H 269.154 2.30841 -3.61124 0
M  V30 2811 H 273.338 1.99997 -4.54219 0
M  V30 2812 H 268.594 1.60583 -5.89935 0
M  V30 2813 H 272.768 1.30677 -6.8403 0
M  V30 2814 H 270.395 1.10419 -7.52138 0
M  V30 2815 N 271.97 1.30982 0.876444 0
M  V30 2816 C 273.247 1.10942 1.61094 0
M  V30 2817 C 273.627 -0.338223 2.08373 0
M  V30 2818 O 272.975 -1.33122 1.85717 0
M  V30 2819 C 273.185 2.11789 2.77392 0
M  V30 2820 C 274.533 2.43965 3.47514 0
M  V30 2821 O 275.557 2.10166 2.87591 0
M  V30 2822 O 274.416 3.01817 4.55597 0
M  V30 2823 H 271.51 0.42667 0.708436 0
M  V30 2824 H 274.056 1.42438 0.922474 0
M  V30 2825 H 272.828 3.09194 2.39823 0
M  V30 2826 H 272.451 1.81161 3.5393 0
M  V30 2827 N 273.449 -1.08991 1.13837 0
M  V30 2828 C 274.726 -1.77863 0.813876 0
M  V30 2829 C 275.106 -1.99375 -0.693746 0
M  V30 2830 O 274.454 -1.59875 -1.63255 0
M  V30 2831 C 274.664 -3.0986 1.60586 0
M  V30 2832 C 276.012 -3.84493 1.8014 0
M  V30 2833 O 277.036 -3.19624 1.57222 0
M  V30 2834 O 275.895 -5.00957 2.18413 0
M  V30 2835 H 272.989 -0.771589 0.297624 0
M  V30 2836 H 275.535 -1.15507 1.24323 0
M  V30 2837 H 274.307 -2.89715 2.63022 0
M  V30 2838 H 273.93 -3.79942 1.17173 0
M  V30 2839 N 274.927 -0.932562 -1.27047 0
M  V30 2840 C 275.857 -0.452902 -2.29066 0
M  V30 2841 C 276.838 0.489338 -1.62909 0
M  V30 2842 O 278.023 0.393046 -1.90181 0
M  V30 2843 C 275.153 0.290698 -3.46081 0
M  V30 2844 C 274.107 -0.564168 -4.24265 0
M  V30 2845 C 273.433 0.308886 -5.33807 0
M  V30 2846 C 274.733 -1.83112 -4.89149 0
M  V30 2847 H 276.427 -1.30552 -2.69437 0
M  V30 2848 H 273.973 -0.629201 -1.29526 0
M  V30 2849 H 275.926 0.637233 -4.16554 0
M  V30 2850 H 274.65 1.17738 -3.0464 0
M  V30 2851 H 273.309 -0.893477 -3.55545 0
M  V30 2852 H 272.957 1.19467 -4.88607 0
M  V30 2853 H 272.657 -0.259633 -5.87026 0
M  V30 2854 H 274.181 0.650884 -6.07121 0
M  V30 2855 H 275.595 -1.55236 -5.51883 0
M  V30 2856 H 273.992 -2.34353 -5.52448 0
M  V30 2857 H 275.062 -2.54772 -4.12576 0
M  V30 2858 N 276.405 1.4127 -0.698611 0
M  V30 2859 C 277.353 2.32588 -0.023855 0
M  V30 2860 C 278.347 1.51128 0.765292 0
M  V30 2861 O 279.553 1.67043 0.670571 0
M  V30 2862 H 275.928 0.751918 0.0110871 0
M  V30 2863 H 277.899 2.87167 -0.811031 0
M  V30 2864 C 276.648 3.35947 0.896369 0
M  V30 2865 H 275.971 3.98684 0.298548 0
M  V30 2866 H 277.411 4.02376 1.33676 0
M  V30 2867 C 275.87 2.70076 2.01396 0
M  V30 2868 O 276.4 2.55093 3.10307 0
M  V30 2869 N 274.606 2.28724 1.79259 0
M  V30 2870 H 274.153 2.4111 0.906841 0
M  V30 2871 H 274.111 1.84986 2.54219 0
M  V30 2872 N 277.883 0.443576 1.51229 0
M  V30 2873 C 279.129 -0.11321 2.03085 0
M  V30 2874 C 279.484 -1.39841 1.32145 0
M  V30 2875 O 278.777 -1.86723 0.429542 0
M  V30 2876 C 278.971 -0.380579 3.55368 0
M  V30 2877 C 278.8 0.877157 4.41062 0
M  V30 2878 C 277.57 1.4125 4.85156 0
M  V30 2879 C 279.768 1.76503 4.83064 0
M  V30 2880 N 277.75 2.62213 5.55083 0
M  V30 2881 C 279.121 2.82067 5.52122 0
M  V30 2882 C 281.176 1.7787 4.65045 0
M  V30 2883 C 279.879 3.88952 6.05069 0
M  V30 2884 C 281.905 2.83694 5.18914 0
M  V30 2885 C 281.267 3.87978 5.87922 0
M  V30 2886 H 277.366 -0.00210178 0.781997 0
M  V30 2887 H 279.95 0.605641 1.85041 0
M  V30 2888 H 278.121 -1.06847 3.73414 0
M  V30 2889 H 279.853 -0.929274 3.93887 0
M  V30 2890 H 276.608 0.965542 4.63653 0
M  V30 2891 H 277.032 3.23568 5.9467 0
M  V30 2892 H 281.674 0.985744 4.11148 0
M  V30 2893 H 279.392 4.69082 6.58018 0
M  V30 2894 H 282.978 2.85702 5.06819 0
M  V30 2895 H 281.858 4.68517 6.28857 0
M  V30 2896 N 279.361 -1.56624 0.175154 0
M  V30 2897 C 280.293 -2.15333 -0.785128 0
M  V30 2898 C 281.306 -1.1099 -1.19101 0
M  V30 2899 O 282.495 -1.38162 -1.13019 0
M  V30 2900 C 279.595 -2.68427 -2.06882 0
M  V30 2901 C 278.768 -3.97466 -1.8259 0
M  V30 2902 C 277.827 -4.35585 -2.95215 0
M  V30 2903 O 276.853 -5.03389 -2.65684 0
M  V30 2904 N 278.055 -3.97457 -4.23094 0
M  V30 2905 H 280.82 -2.98359 -0.283187 0
M  V30 2906 H 278.381 -1.61898 -0.00749817 0
M  V30 2907 H 280.373 -2.90924 -2.81328 0
M  V30 2908 H 278.943 -1.89968 -2.48256 0
M  V30 2909 H 278.163 -3.83307 -0.920287 0
M  V30 2910 H 279.451 -4.81736 -1.63733 0
M  V30 2911 H 278.849 -3.42878 -4.49945 0
M  V30 2912 H 277.406 -4.24947 -4.9423 0
M  V30 2913 N 280.839 0.0985539 -1.57292 0
M  V30 2914 C 282.067 0.816318 -1.90115 0
M  V30 2915 C 282.482 1.72451 -0.768509 0
M  V30 2916 O 281.839 1.80643 0.259687 0
M  V30 2917 C 281.89 1.63259 -3.22535 0
M  V30 2918 O 281.611 0.760934 -4.31441 0
M  V30 2919 C 283.112 2.45372 -3.69199 0
M  V30 2920 H 280.332 0.233595 -0.629027 0
M  V30 2921 H 282.876 0.0768229 -2.04356 0
M  V30 2922 H 281.031 2.32463 -3.09903 0
M  V30 2923 H 281.445 1.32595 -5.07463 0
M  V30 2924 H 282.919 2.98144 -4.64558 0
M  V30 2925 H 283.396 3.23677 -2.96867 0
M  V30 2926 H 284.002 1.81373 -3.84687 0
M  V30 2927 N 282.317 1.53212 0.369288 0
M  V30 2928 C 283.733 1.42902 0.710712 0
M  V30 2929 C 283.933 0.565135 1.93413 0
M  V30 2930 O 282.989 0.0461484 2.52458 0
M  V30 2931 C 284.302 2.86042 0.927382 0
M  V30 2932 C 285.85 2.9565 1.02762 0
M  V30 2933 C 286.325 4.39843 1.27679 0
M  V30 2934 N 287.816 4.43256 1.34457 0
M  V30 2935 C 288.551 5.51929 1.55439 0
M  V30 2936 N 288.047 6.70655 1.73762 0
M  V30 2937 N 289.84 5.39502 1.57779 0
M  V30 2938 H 281.991 2.07888 -0.435457 0
M  V30 2939 H 284.254 0.938661 -0.132739 0
M  V30 2940 H 283.96 3.51557 0.100287 0
M  V30 2941 H 283.834 3.29472 1.83653 0
M  V30 2942 H 286.221 2.30291 1.84527 0
M  V30 2943 H 286.302 2.5562 0.0959504 0
M  V30 2944 H 285.946 5.05774 0.464175 0
M  V30 2945 H 285.876 4.77443 2.22162 0
M  V30 2946 H 288.367 3.5769 1.21926 0
M  V30 2947 H 288.68 7.49248 1.89335 0
M  V30 2948 H 287.025 6.73648 1.70948 0
M  V30 2949 H 290.216 4.45713 1.43029 0
M  V30 2950 H 290.389 6.2426 1.7379 0
M  V30 2951 N 283.795 -0.628877 1.44509 0
M  V30 2952 C 284.742 -1.74074 1.51549 0
M  V30 2953 C 285.712 -1.62084 0.363021 0
M  V30 2954 O 286.897 -1.81975 0.573567 0
M  V30 2955 C 284.037 -3.12328 1.46784 0
M  V30 2956 C 283.15 -3.35277 2.72422 0
M  V30 2957 C 282.285 -4.63515 2.59475 0
M  V30 2958 C 281.324 -4.7965 3.80266 0
M  V30 2959 N 280.461 -5.99168 3.65981 0
M  V30 2960 H 285.301 -1.67392 2.46544 0
M  V30 2961 H 282.838 -0.816527 1.22357 0
M  V30 2962 H 284.796 -3.92286 1.42012 0
M  V30 2963 H 283.426 -3.18018 0.553544 0
M  V30 2964 H 282.478 -2.49242 2.87372 0
M  V30 2965 H 283.79 -3.43078 3.62076 0
M  V30 2966 H 282.944 -5.51638 2.52548 0
M  V30 2967 H 281.683 -4.58076 1.67384 0
M  V30 2968 H 280.688 -3.89957 3.87574 0
M  V30 2969 H 281.913 -4.86902 4.73395 0
M  V30 2970 H 279.859 -5.94814 2.76644 0
M  V30 2971 H 279.776 -6.08035 4.49254 0
M  V30 2972 H 281.044 -6.89846 3.6295 0
M  V30 2973 N 285.273 -1.31445 -0.869486 0
M  V30 2974 C 286.503 -1.23942 -1.65294 0
M  V30 2975 C 286.911 0.197561 -1.88166 0
M  V30 2976 O 286.254 1.14019 -1.44033 0
M  V30 2977 C 286.316 -1.91385 -3.04322 0
M  V30 2978 C 285.98 -3.40726 -3.04557 0
M  V30 2979 C 286.977 -4.36464 -2.82481 0
M  V30 2980 C 284.662 -3.82425 -3.25663 0
M  V30 2981 C 286.656 -5.71876 -2.8149 0
M  V30 2982 C 284.343 -5.1795 -3.243 0
M  V30 2983 C 285.341 -6.12486 -3.02241 0
M  V30 2984 O 285.029 -7.45534 -3.00724 0
M  V30 2985 H 284.761 -0.429459 -0.522054 0
M  V30 2986 H 287.315 -1.73873 -1.0935 0
M  V30 2987 H 285.545 -1.36004 -3.61994 0
M  V30 2988 H 287.234 -1.77791 -3.64891 0
M  V30 2989 H 288 -4.05576 -2.65956 0
M  V30 2990 H 283.879 -3.09274 -3.41863 0
M  V30 2991 H 287.423 -6.45638 -2.64191 0
M  V30 2992 H 283.32 -5.48473 -3.40365 0
M  V30 2993 H 284.088 -7.54713 -3.16782 0
M  V30 2994 N 286.751 1.08385 -1.14413 0
M  V30 2995 C 287.699 2.17406 -0.826888 0
M  V30 2996 C 288.693 1.6827 0.195312 0
M  V30 2997 O 289.899 1.79927 0.0513892 0
M  V30 2998 H 286.274 0.70934 -0.249681 0
M  V30 2999 H 288.245 2.41388 -1.75426 0
M  V30 3000 C 286.994 3.46215 -0.320979 0
M  V30 3001 H 286.317 3.84401 -1.0989 0
M  V30 3002 H 287.757 4.23777 -0.137549 0
M  V30 3003 C 286.216 3.23067 0.955472 0
M  V30 3004 O 286.746 3.4668 2.02918 0
M  V30 3005 N 284.952 2.7661 0.890798 0
M  V30 3006 H 284.499 2.57594 0.0168815 0
M  V30 3007 H 284.457 2.61501 1.74542 0
M  V30 3008 N 288.23 0.939286 1.26551 0
M  V30 3009 C 289.458 0.602536 1.97932 0
M  V30 3010 C 289.873 -0.82206 1.69964 0
M  V30 3011 O 289.23 -1.54789 0.966784 0
M  V30 3012 C 289.281 0.832946 3.51773 0
M  V30 3013 O 289.002 2.20151 3.78768 0
M  V30 3014 C 290.503 0.506483 4.40397 0
M  V30 3015 H 287.723 0.227248 0.631347 0
M  V30 3016 H 290.267 1.25948 1.61113 0
M  V30 3017 H 288.422 0.222644 3.8676 0
M  V30 3018 H 288.836 2.26013 4.73306 0
M  V30 3019 H 290.31 0.718333 5.47306 0
M  V30 3020 H 290.787 -0.558451 4.35635 0
M  V30 3021 H 291.393 1.09543 4.10951 0
M  V30 3022 N 289.708 -1.40897 0.706093 0
M  V30 3023 C 290.655 -2.30751 0.0474474 0
M  V30 3024 C 291.625 -1.47678 -0.76029 0
M  V30 3025 O 292.81 -1.76441 -0.726177 0
M  V30 3026 C 289.95 -3.33815 -0.875309 0
M  V30 3027 C 289.063 -4.31961 -0.0580623 0
M  V30 3028 C 288.198 -5.22093 -0.979425 0
M  V30 3029 C 287.237 -6.11902 -0.155706 0
M  V30 3030 N 286.374 -6.94482 -1.03144 0
M  V30 3031 H 291.214 -2.86513 0.819413 0
M  V30 3032 H 288.751 -1.41102 0.415783 0
M  V30 3033 H 290.709 -3.92129 -1.42446 0
M  V30 3034 H 289.339 -2.79579 -1.61356 0
M  V30 3035 H 288.391 -3.75507 0.608147 0
M  V30 3036 H 289.703 -4.95415 0.580082 0
M  V30 3037 H 288.857 -5.85292 -1.59744 0
M  V30 3038 H 287.596 -4.5889 -1.65141 0
M  V30 3039 H 286.601 -5.47742 0.475309 0
M  V30 3040 H 287.826 -6.77162 0.512635 0
M  V30 3041 H 285.772 -6.33877 -1.68924 0
M  V30 3042 H 285.689 -7.54665 -0.449108 0
M  V30 3043 H 286.957 -7.6214 -1.63593 0
M  V30 3044 N 291.186 -0.45159 -1.50991 0
M  V30 3045 C 292.149 0.341117 -2.26647 0
M  V30 3046 C 293.149 0.937422 -1.30649 0
M  V30 3047 O 294.339 0.809644 -1.54241 0
M  V30 3048 C 291.471 1.48398 -3.06905 0
M  V30 3049 H 292.664 -0.322117 -2.98165 0
M  V30 3050 H 290.217 -0.205122 -1.54948 0
M  V30 3051 H 290.952 2.18284 -2.39838 0
M  V30 3052 H 290.737 1.06241 -3.77432 0
M  V30 3053 H 292.227 2.04367 -3.64176 0
M  V30 3054 N 292.664 1.56529 -0.183458 0
M  V30 3055 C 293.627 2.17324 0.728223 0
M  V30 3056 C 294.627 1.12453 1.14939 0
M  V30 3057 O 295.817 1.37902 1.06437 0
M  V30 3058 C 292.949 2.76591 1.99274 0
M  V30 3059 H 294.142 2.99241 0.198772 0
M  V30 3060 H 291.695 1.5616 0.0661391 0
M  V30 3061 H 292.43 1.98441 2.56499 0
M  V30 3062 H 292.215 3.5335 1.69959 0
M  V30 3063 H 293.705 3.23311 2.6431 0
M  V30 3064 N 294.142 -0.090211 1.57342 0
M  V30 3065 C 295.372 -0.805055 1.90269 0
M  V30 3066 C 295.78 -1.72561 0.775842 0
M  V30 3067 O 295.123 -1.81839 -0.260843 0
M  V30 3068 C 295.185 -1.66734 3.18497 0
M  V30 3069 C 294.849 -0.918092 4.47683 0
M  V30 3070 C 295.846 -0.245674 5.19319 0
M  V30 3071 C 293.531 -0.890724 4.94339 0
M  V30 3072 C 295.525 0.444088 6.35851 0
M  V30 3073 C 293.212 -0.197179 6.10782 0
M  V30 3074 C 294.21 0.469044 6.81388 0
M  V30 3075 O 293.898 1.15146 7.95611 0
M  V30 3076 H 293.63 -0.235143 0.633785 0
M  V30 3077 H 296.184 -0.0703805 2.05279 0
M  V30 3078 H 294.414 -2.44437 2.99646 0
M  V30 3079 H 296.103 -2.25919 3.37217 0
M  V30 3080 H 296.869 -0.258246 4.84312 0
M  V30 3081 H 292.748 -1.39873 4.39268 0
M  V30 3082 H 296.292 0.964667 6.90898 0
M  V30 3083 H 292.189 -0.18247 6.45242 0
M  V30 3084 H 292.957 1.05885 8.11622 0
M  V30 3085 N 295.62 -1.53406 -0.361157 0
M  V30 3086 C 296.86 -1.71507 -1.11197 0
M  V30 3087 C 297.224 -0.459337 -1.86425 0
M  V30 3088 O 298.425 -0.517102 -2.63779 0
M  V30 3089 C 296.696 -2.93307 -2.0422 0
M  V30 3090 S 298.255 -3.32135 -2.86761 0
M  V30 3091 H 295.073 -0.603448 -0.375995 0
M  V30 3092 H 297.675 -1.91516 -0.392642 0
M  V30 3093 H 296.379 -3.82891 -1.47724 0
M  V30 3094 H 295.91 -2.75712 -2.80618 0
M  V30 3095 H 297.925 -2.84493 -4.06544 0
M  V30 3096 N 297.098 0.621204 -1.44841 0
M  V30 3097 C 298.03 1.74615 -1.48466 0
M  V30 3098 C 299.043 1.58377 -0.37691 0
M  V30 3099 O 300.232 1.66508 -0.643215 0
M  V30 3100 C 297.332 3.12459 -1.31236 0
M  V30 3101 C 296.505 3.55064 -2.55438 0
M  V30 3102 C 295.564 4.71821 -2.32963 0
M  V30 3103 O 294.59 4.79628 -3.06505 0
M  V30 3104 N 295.792 5.64186 -1.36654 0
M  V30 3105 H 298.557 1.71973 -2.45449 0
M  V30 3106 H 296.118 0.806077 -1.40407 0
M  V30 3107 H 298.11 3.88302 -1.14032 0
M  V30 3108 H 296.68 3.09686 -0.4258 0
M  V30 3109 H 295.9 2.69324 -2.87851 0
M  V30 3110 H 297.188 3.80284 -3.38026 0
M  V30 3111 H 296.586 5.6058 -0.759344 0
M  V30 3112 H 295.143 6.39618 -1.25425 0
M  V30 3113 N 298.576 1.31904 0.862503 0
M  V30 3114 C 299.801 1.25135 1.65397 0
M  V30 3115 C 300.226 -0.179 1.87246 0
M  V30 3116 O 299.584 -1.1277 1.4196 0
M  V30 3117 C 299.632 2.00832 2.99498 0
M  V30 3118 O 298.736 1.35075 3.89652 0
M  V30 3119 H 298.077 0.431655 0.504549 0
M  V30 3120 H 300.607 1.74094 1.07483 0
M  V30 3121 H 300.617 2.10709 3.49379 0
M  V30 3122 H 299.292 3.04847 2.82916 0
M  V30 3123 H 297.869 1.33696 3.48109 0
M  V30 3124 N 300.054 -1.07777 1.14986 0
M  V30 3125 C 301.001 -2.14867 0.842672 0
M  V30 3126 C 301.971 -1.6486 -0.202552 0
M  V30 3127 O 303.156 -1.90668 -0.0710568 0
M  V30 3128 C 300.296 -3.43486 0.333363 0
M  V30 3129 C 299.409 -4.07306 1.43965 0
M  V30 3130 C 298.544 -5.23744 0.886914 0
M  V30 3131 C 297.583 -5.79517 1.97043 0
M  V30 3132 N 296.72 -6.87291 1.4344 0
M  V30 3133 H 301.56 -2.40485 1.75986 0
M  V30 3134 H 299.097 -1.1801 0.878179 0
M  V30 3135 H 301.055 -4.17195 0.0198163 0
M  V30 3136 H 299.685 -3.18133 -0.546916 0
M  V30 3137 H 298.737 -3.31293 1.86946 0
M  V30 3138 H 300.049 -4.44771 2.25788 0
M  V30 3139 H 299.203 -6.04419 0.525651 0
M  V30 3140 H 297.942 -4.87685 0.0377957 0
M  V30 3141 H 296.947 -4.97491 2.34057 0
M  V30 3142 H 298.172 -6.17632 2.82325 0
M  V30 3143 H 296.118 -6.5318 0.607567 0
M  V30 3144 H 296.035 -7.23617 2.18895 0
M  V30 3145 H 297.303 -7.71682 1.10124 0
M  V30 3146 N 301.532 -0.945985 -1.26051 0
M  V30 3147 C 302.462 -0.477172 -2.28572 0
M  V30 3148 C 303.443 0.472032 -1.63419 0
M  V30 3149 O 304.628 0.372853 -1.90587 0
M  V30 3150 C 301.758 0.253975 -3.4637 0
M  V30 3151 C 300.712 -0.609135 -4.23643 0
M  V30 3152 C 300.038 0.252252 -5.34105 0
M  V30 3153 C 301.338 -1.8829 -4.8718 0
M  V30 3154 H 303.032 -1.33402 -2.68038 0
M  V30 3155 H 300.578 -0.642904 -1.28852 0
M  V30 3156 H 302.531 0.593016 -4.17207 0
M  V30 3157 H 301.255 1.145 -3.05871 0
M  V30 3158 H 299.914 -0.931138 -3.54578 0
M  V30 3159 H 299.562 1.14278 -4.89846 0
M  V30 3160 H 299.262 -0.32188 -5.86718 0
M  V30 3161 H 300.786 0.586454 -6.07777 0
M  V30 3162 H 302.2 -1.61081 -5.50205 0
M  V30 3163 H 300.597 -2.40199 -5.49931 0
M  V30 3164 H 301.667 -2.59134 -4.09851 0
M  V30 3165 N 303.011 1.40521 -0.713556 0
M  V30 3166 C 303.974 2.29098 -0.0684347 0
M  V30 3167 C 304.974 1.45268 0.689472 0
M  V30 3168 O 306.164 1.66205 0.521677 0
M  V30 3169 C 303.296 3.28446 0.913024 0
M  V30 3170 H 304.489 2.87645 -0.84855 0
M  V30 3171 H 302.042 1.48809 -0.47809 0
M  V30 3172 H 302.777 2.74913 1.72027 0
M  V30 3173 H 302.562 3.90327 0.372472 0
M  V30 3174 H 304.052 3.94777 1.36165 0
M  V30 3175 N 304.489 0.459591 1.5075 0
M  V30 3176 C 305.738 -0.100971 2.01447 0
M  V30 3177 C 306.051 -1.41816 1.34713 0
M  V30 3178 O 307.257 -2.06299 1.76502 0
M  V30 3179 C 305.713 -0.23047 3.59161 0
M  V30 3180 C 305.321 1.0776 4.34847 0
M  V30 3181 C 307.065 -0.743608 4.17936 0
M  V30 3182 C 304.972 0.91253 5.84317 0
M  V30 3183 H 303.902 -0.0415102 0.752856 0
M  V30 3184 H 306.553 0.592742 1.73663 0
M  V30 3185 H 304.935 -0.987703 3.83485 0
M  V30 3186 H 306.109 1.8449 4.22256 0
M  V30 3187 H 304.424 1.52097 3.87628 0
M  V30 3188 H 307.021 -0.883959 5.27343 0
M  V30 3189 H 307.364 -1.73196 3.78562 0
M  V30 3190 H 307.897 -0.04408 3.97776 0
M  V30 3191 H 304.636 1.87391 6.28144 0
M  V30 3192 H 304.156 0.185422 5.99513 0
M  V30 3193 H 305.835 0.574547 6.44444 0
M  V30 3194 N 305.967 -1.56429 0.191757 0
M  V30 3195 C 307.213 -1.97777 -0.448554 0
M  V30 3196 C 307.546 -1.07847 -1.61501 0
M  V30 3197 O 306.821 -0.129774 -1.94067 0
M  V30 3198 C 307.104 -3.48362 -0.911906 0
M  V30 3199 C 306.957 -4.4907 0.256136 0
M  V30 3200 C 308.276 -4.02561 -1.77857 0
M  V30 3201 H 305.395 -0.719071 -0.161572 0
M  V30 3202 H 308.037 -1.87896 0.282007 0
M  V30 3203 H 306.187 -3.56914 -1.53442 0
M  V30 3204 H 307.859 -4.5256 0.893733 0
M  V30 3205 H 306.102 -4.24181 0.908436 0
M  V30 3206 H 306.773 -5.51889 -0.11053 0
M  V30 3207 H 309.249 -3.96767 -1.25359 0
M  V30 3208 H 308.125 -5.08301 -2.07174 0
M  V30 3209 H 308.386 -3.47616 -2.73158 0
M  V30 3210 N 307.445 0.0818655 -1.57387 0
M  V30 3211 C 308.375 1.09885 -2.06028 0
M  V30 3212 C 309.356 1.4098 -0.951774 0
M  V30 3213 O 310.541 1.50781 -1.22387 0
M  V30 3214 C 307.671 2.4151 -2.4958 0
M  V30 3215 C 306.625 2.24792 -3.64215 0
M  V30 3216 C 305.951 3.61712 -3.93787 0
M  V30 3217 C 307.251 1.67749 -4.94629 0
M  V30 3218 H 308.945 0.694128 -2.91243 0
M  V30 3219 H 306.491 0.332448 -1.4011 0
M  V30 3220 H 308.444 3.12939 -2.82219 0
M  V30 3221 H 307.168 2.83943 -1.61381 0
M  V30 3222 H 305.827 1.55807 -3.31843 0
M  V30 3223 H 305.475 4.01697 -3.02735 0
M  V30 3224 H 305.175 3.51368 -4.70971 0
M  V30 3225 H 306.699 4.34587 -4.28913 0
M  V30 3226 H 308.113 2.29032 -5.25564 0
M  V30 3227 H 306.51 1.68128 -5.76067 0
M  V30 3228 H 307.58 0.638059 -4.80684 0
M  V30 3229 N 308.923 1.53595 0.353017 0
M  V30 3230 C 310.17 1.70385 1.09431 0
M  V30 3231 C 310.498 0.462113 1.88931 0
M  V30 3232 O 309.753 -0.556074 1.87633 0
M  V30 3233 C 310.052 2.91313 2.07054 0
M  V30 3234 C 309.718 4.27308 1.43939 0
M  V30 3235 C 308.38 4.64287 1.26454 0
M  V30 3236 C 310.732 5.11829 0.983883 0
M  V30 3237 C 308.06 5.83412 0.620226 0
M  V30 3238 C 310.412 6.31611 0.353516 0
M  V30 3239 C 309.076 6.67293 0.166272 0
M  V30 3240 H 308.346 0.623484 0.400436 0
M  V30 3241 H 310.993 1.87799 0.374655 0
M  V30 3242 H 309.298 2.68463 2.85368 0
M  V30 3243 H 310.995 3.01497 2.64387 0
M  V30 3244 H 307.585 3.98198 1.58543 0
M  V30 3245 H 311.769 4.838 1.10685 0
M  V30 3246 H 307.025 6.09639 0.463681 0
M  V30 3247 H 311.199 6.964 -0.00757555 0
M  V30 3248 H 308.826 7.59461 -0.335047 0
M  V30 3249 N 310.401 -0.613514 1.45168 0
M  V30 3250 C 311.629 -1.39946 1.5239 0
M  V30 3251 C 312.044 -1.88167 0.154531 0
M  V30 3252 O 311.401 -1.61872 -0.842843 0
M  V30 3253 C 311.452 -2.60795 2.50337 0
M  V30 3254 O 311.173 -2.1458 3.81952 0
M  V30 3255 C 312.674 -3.53723 2.67198 0
M  V30 3256 H 309.894 -0.428593 0.516284 0
M  V30 3257 H 312.438 -0.748753 1.903 0
M  V30 3258 H 310.593 -3.21919 2.15515 0
M  V30 3259 H 311.007 -2.93055 4.34993 0
M  V30 3260 H 312.481 -4.35079 3.39721 0
M  V30 3261 H 312.958 -4.0368 1.73029 0
M  V30 3262 H 313.564 -2.98456 3.02992 0
M  V30 3263 N 311.879 -1.3236 -0.855495 0
M  V30 3264 C 312.826 -1.21225 -1.964 0
M  V30 3265 C 313.796 -0.0946204 -1.6583 0
M  V30 3266 O 314.981 -0.27002 -1.8888 0
M  V30 3267 C 312.121 -0.940419 -3.32039 0
M  V30 3268 C 311.234 -2.14276 -3.75113 0
M  V30 3269 C 310.369 -1.80648 -4.9954 0
M  V30 3270 C 309.408 -2.97208 -5.35102 0
M  V30 3271 N 308.545 -2.63678 -6.50706 0
M  V30 3272 H 313.385 -2.16042 -2.05255 0
M  V30 3273 H 310.922 -1.07451 -1.00463 0
M  V30 3274 H 312.88 -0.763311 -4.10158 0
M  V30 3275 H 311.51 -0.0290413 -3.22787 0
M  V30 3276 H 310.562 -2.43017 -2.92655 0
M  V30 3277 H 311.874 -3.01468 -3.97389 0
M  V30 3278 H 311.028 -1.59484 -5.85363 0
M  V30 3279 H 309.767 -0.906678 -4.79198 0
M  V30 3280 H 308.772 -3.19004 -4.47791 0
M  V30 3281 H 309.997 -3.87918 -5.57401 0
M  V30 3282 H 307.943 -1.76238 -6.31883 0
M  V30 3283 H 307.86 -3.444 -6.72997 0
M  V30 3284 H 309.128 -2.45942 -7.39684 0
M  V30 3285 N 313.357 1.07166 -1.15556 0
M  V30 3286 C 314.267 2.17947 -0.868116 0
M  V30 3287 C 315.283 1.73297 0.156297 0
M  V30 3288 O 316.459 2.01392 -0.0182327 0
M  V30 3289 C 313.524 3.44789 -0.36355 0
M  V30 3290 C 312.585 4.03996 -1.45209 0
M  V30 3291 C 311.818 5.24783 -0.971508 0
M  V30 3292 O 312.041 5.70109 0.182194 0
M  V30 3293 O 310.975 5.75715 -1.75603 0
M  V30 3294 H 314.801 2.4503 -1.79427 0
M  V30 3295 H 312.386 1.16539 -0.934824 0
M  V30 3296 H 314.268 4.21307 -0.0887113 0
M  V30 3297 H 312.943 3.19253 0.534708 0
M  V30 3298 H 311.85 3.29009 -1.78056 0
M  V30 3299 H 313.183 4.33808 -2.32533 0
M  V30 3300 N 314.835 0.952656 1.25548 0
M  V30 3301 C 315.765 0.489287 2.28316 0
M  V30 3302 C 316.746 -0.463359 1.63667 0
M  V30 3303 O 317.931 -0.36274 1.90782 0
M  V30 3304 C 315.061 -0.235603 3.465 0
M  V30 3305 C 314.015 0.631593 4.23314 0
M  V30 3306 C 313.341 -0.223923 5.34231 0
M  V30 3307 C 314.641 1.90871 4.86174 0
M  V30 3308 H 316.335 1.34822 2.67326 0
M  V30 3309 H 313.881 0.649728 1.28509 0
M  V30 3310 H 315.834 -0.570882 4.17515 0
M  V30 3311 H 314.558 -1.12877 3.06474 0
M  V30 3312 H 313.217 0.949929 3.54079 0
M  V30 3313 H 312.865 -1.11678 4.90446 0
M  V30 3314 H 312.565 0.35299 5.86539 0
M  V30 3315 H 314.089 -0.554214 6.0808 0
M  V30 3316 H 315.503 1.63997 5.49343 0
M  V30 3317 H 313.9 2.43112 5.4865 0
M  V30 3318 H 314.97 2.61304 4.08471 0
M  V30 3319 N 316.313 -1.40141 0.720998 0
M  V30 3320 C 317.538 -2.05618 0.271258 0
M  V30 3321 C 317.963 -1.53978 -1.08039 0
M  V30 3322 O 317.321 -0.677463 -1.68167 0
M  V30 3323 C 317.369 -3.59609 0.267197 0
M  V30 3324 O 316.473 -4.05526 -0.749814 0
M  V30 3325 H 315.814 -0.651904 0.126162 0
M  V30 3326 H 318.344 -1.79439 0.982997 0
M  V30 3327 H 318.354 -4.0786 0.106744 0
M  V30 3328 H 317.029 -3.96559 1.25354 0
M  V30 3329 H 315.606 -3.68722 -0.556644 0
M  V30 3330 N 317.792 -0.46758 -1.50504 0
M  V30 3331 C 319.208 -0.121533 -1.59137 0
M  V30 3332 C 319.408 1.3717 -1.47603 0
M  V30 3333 O 318.464 2.14464 -1.33272 0
M  V30 3334 C 319.777 -0.6686 -2.93173 0
M  V30 3335 C 321.325 -0.631716 -3.06559 0
M  V30 3336 C 321.8 -1.15627 -4.43164 0
M  V30 3337 N 323.291 -1.11553 -4.49567 0
M  V30 3338 C 324.026 -1.49195 -5.5365 0
M  V30 3339 N 323.522 -1.94269 -6.65005 0
M  V30 3340 N 325.315 -1.4082 -5.44175 0
M  V30 3341 H 317.466 -1.4388 -1.56245 0
M  V30 3342 H 319.729 -0.594784 -0.738198 0
M  V30 3343 H 319.435 -1.71453 -3.07078 0
M  V30 3344 H 319.309 -0.11021 -3.77039 0
M  V30 3345 H 321.696 0.405297 -2.92304 0
M  V30 3346 H 321.777 -1.22687 -2.24458 0
M  V30 3347 H 321.421 -2.1919 -4.58168 0
M  V30 3348 H 321.351 -0.537365 -5.23851 0
M  V30 3349 H 323.842 -0.784895 -3.69659 0
M  V30 3350 H 324.155 -2.21148 -7.40482 0
M  V30 3351 H 322.5 -1.98219 -6.66134 0
M  V30 3352 H 325.691 -1.0545 -4.56068 0
M  V30 3353 H 325.864 -1.70481 -6.25172 0
M  V30 3354 N 319.27 1.56325 -0.20005 0
M  V30 3355 C 320.686 1.58839 0.155716 0
M  V30 3356 C 320.886 1.21636 1.60645 0
M  V30 3357 O 319.942 0.941437 2.34293 0
M  V30 3358 C 321.255 3.0032 -0.151124 0
M  V30 3359 C 322.803 3.12866 -0.0916284 0
M  V30 3360 C 323.278 4.56488 -0.371845 0
M  V30 3361 N 324.769 4.62089 -0.320641 0
M  V30 3362 C 325.504 5.71116 -0.511243 0
M  V30 3363 N 325 6.88592 -0.762461 0
M  V30 3364 N 326.793 5.60335 -0.445157 0
M  V30 3365 H 318.944 1.78788 -1.14668 0
M  V30 3366 H 321.207 0.829996 -0.458051 0
M  V30 3367 H 320.913 3.32117 -1.15721 0
M  V30 3368 H 320.787 3.73257 0.543986 0
M  V30 3369 H 323.174 2.80878 0.905065 0
M  V30 3370 H 323.255 2.42304 -0.81989 0
M  V30 3371 H 322.899 4.89189 -1.36588 0
M  V30 3372 H 322.829 5.25246 0.377362 0
M  V30 3373 H 325.32 3.77665 -0.13329 0
M  V30 3374 H 325.633 7.67581 -0.896576 0
M  V30 3375 H 323.978 6.90387 -0.799412 0
M  V30 3376 H 327.169 4.67436 -0.249278 0
M  V30 3377 H 327.342 6.45243 -0.597116 0
M  V30 3378 N 320.748 -0.0735177 1.57428 0
M  V30 3379 C 321.678 -1.0879 2.06608 0
M  V30 3380 C 322.659 -1.40473 0.959237 0
M  V30 3381 O 323.844 -1.5013 1.23185 0
M  V30 3382 C 320.974 -2.40183 2.50857 0
M  V30 3383 C 319.928 -2.22858 3.65402 0
M  V30 3384 C 319.254 -3.59619 3.957 0
M  V30 3385 C 320.554 -1.65123 4.95511 0
M  V30 3386 H 322.248 -0.678673 2.91607 0
M  V30 3387 H 319.794 -0.325013 1.40284 0
M  V30 3388 H 321.747 -3.11437 2.83874 0
M  V30 3389 H 320.471 -2.83083 1.62885 0
M  V30 3390 H 319.13 -1.54045 3.32664 0
M  V30 3391 H 318.778 -4.00086 3.04861 0
M  V30 3392 H 318.478 -3.48866 4.72828 0
M  V30 3393 H 320.002 -4.32306 4.31212 0
M  V30 3394 H 321.416 -2.26241 5.26771 0
M  V30 3395 H 319.813 -1.65071 5.7695 0
M  V30 3396 H 320.883 -0.612559 4.81015 0
M  V30 3397 N 322.226 -1.5378 -0.344866 0
M  V30 3398 C 323.158 -1.77988 -1.44406 0
M  V30 3399 C 324.171 -0.661138 -1.48771 0
M  V30 3400 O 325.36 -0.937842 -1.51877 0
M  V30 3401 C 322.46 -1.86345 -2.8307 0
M  V30 3402 C 321.633 -3.16256 -3.0216 0
M  V30 3403 C 320.692 -3.15588 -4.21059 0
M  V30 3404 O 319.718 -3.89314 -4.15239 0
M  V30 3405 N 320.92 -2.37864 -5.29529 0
M  V30 3406 H 323.685 -2.72839 -1.24012 0
M  V30 3407 H 321.246 -1.52814 -0.534737 0
M  V30 3408 H 323.238 -1.83351 -3.60783 0
M  V30 3409 H 321.808 -0.986858 -2.96614 0
M  V30 3410 H 321.028 -3.32385 -2.11929 0
M  V30 3411 H 322.316 -4.0207 -3.11797 0
M  V30 3412 H 321.714 -1.77514 -5.37127 0
M  V30 3413 H 320.271 -2.40668 -6.05741 0
M  V30 3414 N 323.704 0.605807 -1.45491 0
M  V30 3415 C 324.952 1.36207 -1.49305 0
M  V30 3416 C 325.273 1.94519 -0.136863 0
M  V30 3417 O 324.543 1.77261 0.833983 0
M  V30 3418 H 323.123 0.50565 -0.549843 0
M  V30 3419 H 325.785 0.711239 -1.81459 0
M  V30 3420 H 324.881 2.18058 -2.23287 0
M  V30 3421 N 325.182 1.32811 0.848464 0
M  V30 3422 C 326.407 1.26882 1.6406 0
M  V30 3423 C 326.832 -0.15913 1.87426 0
M  V30 3424 O 326.19 -1.11258 1.43148 0
M  V30 3425 C 326.238 2.03997 2.97351 0
M  V30 3426 O 325.342 1.39201 3.88197 0
M  V30 3427 H 324.683 0.436982 0.499943 0
M  V30 3428 H 327.213 1.75224 1.0563 0
M  V30 3429 H 327.223 2.14403 3.47124 0
M  V30 3430 H 325.898 3.0783 2.79666 0
M  V30 3431 H 324.475 1.37381 3.46671 0
M  V30 3432 N 326.66 -1.06551 1.16123 0
M  V30 3433 C 327.908 -1.78947 0.939267 0
M  V30 3434 C 328.229 -1.87532 -0.534476 0
M  V30 3435 O 327.499 -1.38211 -1.38833 0
M  V30 3436 H 326.079 -0.662807 0.344523 0
M  V30 3437 H 328.741 -1.28725 1.46342 0
M  V30 3438 H 327.837 -2.81117 1.35572 0
M  V30 3439 N 328.138 -0.959301 -1.25041 0
M  V30 3440 C 329.384 -0.617525 -1.9317 0
M  V30 3441 C 329.717 0.843981 -1.74902 0
M  V30 3442 O 328.992 1.60615 -1.09696 0
M  V30 3443 C 329.275 -0.982736 -3.46431 0
M  V30 3444 C 329.128 -2.50032 -3.73904 0
M  V30 3445 C 330.447 -0.511176 -4.37121 0
M  V30 3446 H 327.566 -0.22582 -0.701552 0
M  V30 3447 H 330.208 -1.19679 -1.4757 0
M  V30 3448 H 328.358 -0.489806 -3.854 0
M  V30 3449 H 330.03 -3.06737 -3.44544 0
M  V30 3450 H 328.273 -2.93598 -3.19348 0
M  V30 3451 H 328.944 -2.70635 -4.81103 0
M  V30 3452 H 331.42 -0.934075 -4.0548 0
M  V30 3453 H 330.296 -0.795361 -5.43107 0
M  V30 3454 H 330.557 0.588834 -4.38161 0
M  V30 3455 N 329.616 1.39756 -0.72842 0
M  V30 3456 C 330.844 2.04948 -0.283528 0
M  V30 3457 C 331.259 1.54908 1.0793 0
M  V30 3458 O 330.616 0.711135 1.68075 0
M  V30 3459 C 330.667 3.60498 -0.268957 0
M  V30 3460 O 330.388 4.08695 -1.57798 0
M  V30 3461 C 331.889 4.4288 0.192912 0
M  V30 3462 H 329.109 0.659243 -0.125056 0
M  V30 3463 H 331.653 1.78927 -0.990226 0
M  V30 3464 H 329.808 3.85444 0.388801 0
M  V30 3465 H 330.222 5.02977 -1.48709 0
M  V30 3466 H 331.696 5.51791 0.151952 0
M  V30 3467 H 332.173 4.21418 1.23708 0
M  V30 3468 H 332.779 4.23069 -0.435039 0
M  V30 3469 N 331.094 0.475555 1.50254 0
M  V30 3470 C 332.34 -0.0780073 2.0265 0
M  V30 3471 C 332.673 -1.38968 1.35652 0
M  V30 3472 O 331.948 -1.8839 0.483691 0
M  V30 3473 C 332.231 -0.257161 3.59181 0
M  V30 3474 C 332.084 1.07585 4.36744 0
M  V30 3475 C 333.403 -1.00965 4.28362 0
M  V30 3476 H 330.522 -0.0268758 0.73651 0
M  V30 3477 H 333.164 0.622015 1.7953 0
M  V30 3478 H 331.314 -0.853412 3.79011 0
M  V30 3479 H 332.986 1.70902 4.28474 0
M  V30 3480 H 331.229 1.6714 4.00308 0
M  V30 3481 H 331.9 0.904088 5.44546 0
M  V30 3482 H 334.376 -0.504214 4.13034 0
M  V30 3483 H 333.252 -1.10381 5.37687 0
M  V30 3484 H 333.513 -2.04731 3.91839 0
M  V30 3485 N 332.573 -1.56217 0.208337 0
M  V30 3486 C 333.521 -2.21053 -0.723769 0
M  V30 3487 C 334.515 -1.18578 -1.20978 0
M  V30 3488 O 335.721 -1.36691 -1.17114 0
M  V30 3489 H 332.096 -0.708595 -0.251788 0
M  V30 3490 H 334.067 -2.98006 -0.153365 0
M  V30 3491 C 332.816 -2.89417 -1.927 0
M  V30 3492 H 332.139 -3.68019 -1.56212 0
M  V30 3493 H 333.579 -3.38201 -2.55727 0
M  V30 3494 C 332.038 -1.91166 -2.77411 0
M  V30 3495 O 332.568 -1.42026 -3.75754 0
M  V30 3496 N 330.774 -1.59105 -2.43175 0
M  V30 3497 H 330.321 -1.99259 -1.63259 0
M  V30 3498 H 330.279 -0.936255 -3.00136 0
M  V30 3499 N 334.051 0.0651679 -1.57465 0
M  V30 3500 C 335.014 1.06117 -2.03155 0
M  V30 3501 C 336.014 1.31204 -0.929632 0
M  V30 3502 O 337.204 1.26813 -1.19432 0
M  V30 3503 C 334.336 2.4032 -2.41783 0
M  V30 3504 H 335.529 0.667231 -2.92383 0
M  V30 3505 H 333.082 0.311075 -1.53173 0
M  V30 3506 H 333.817 2.84532 -1.55601 0
M  V30 3507 H 333.602 2.23451 -3.22199 0
M  V30 3508 H 335.092 3.11898 -2.77685 0
M  V30 3509 N 335.529 1.53961 0.336706 0
M  V30 3510 C 336.459 1.85417 1.41925 0
M  V30 3511 C 337.44 0.709856 1.5458 0
M  V30 3512 O 338.625 0.962396 1.68676 0
M  V30 3513 C 335.755 2.06985 2.78881 0
M  V30 3514 C 334.709 3.22813 2.81026 0
M  V30 3515 C 334.035 3.29727 4.20932 0
M  V30 3516 C 335.335 4.60767 2.45949 0
M  V30 3517 H 337.029 2.76079 1.15848 0
M  V30 3518 H 334.575 1.32839 0.555859 0
M  V30 3519 H 336.528 2.27575 3.54665 0
M  V30 3520 H 335.252 1.13061 3.06406 0
M  V30 3521 H 333.911 3.0209 2.07695 0
M  V30 3522 H 333.559 2.33385 4.45579 0
M  V30 3523 H 333.259 4.07566 4.23277 0
M  V30 3524 H 334.783 3.52536 4.98549 0
M  V30 3525 H 336.197 4.81325 3.11446 0
M  V30 3526 H 334.594 5.4106 2.59566 0
M  V30 3527 H 335.664 4.6391 1.41122 0
M  V30 3528 N 337.007 -0.598083 1.45811 0
M  V30 3529 C 337.957 -1.70272 1.51629 0
M  V30 3530 C 338.941 -1.56382 0.378629 0
M  V30 3531 O 340.133 -1.65557 0.626087 0
M  V30 3532 C 337.262 -3.09042 1.49493 0
M  V30 3533 C 336.348 -3.28284 2.68496 0
M  V30 3534 N 336.739 -3.17748 3.93535 0
M  V30 3535 C 335.037 -3.59182 2.64394 0
M  V30 3536 C 335.738 -3.38579 4.7301 0
M  V30 3537 N 334.714 -3.63016 4.04624 0
M  V30 3538 H 338.516 -1.60634 2.46118 0
M  V30 3539 H 336.03 -0.801642 1.41235 0
M  V30 3540 H 338.027 -3.88302 1.51747 0
M  V30 3541 H 336.687 -3.19823 0.560683 0
M  V30 3542 H 337.698 -2.95944 4.25014 0
M  V30 3543 H 334.375 -3.76742 1.79922 0
M  V30 3544 H 335.765 -3.35747 5.82 0
M  V30 3545 N 338.485 -1.33259 -0.841409 0
M  V30 3546 C 339.896 -1.22066 -1.41269 0
M  V30 3547 C 340.247 0.161479 -1.95534 0
M  V30 3548 O 339.372 1.06094 -1.88608 0
M  V30 3549 C 339.967 -2.20996 -2.568 0
M  V30 3550 C 338.526 -2.13649 -3.09888 0
M  V30 3551 C 337.673 -2.08623 -1.82679 0
M  V30 3552 H 340.624 -1.44895 -0.647395 0
M  V30 3553 H 340.645 -1.81621 -3.34356 0
M  V30 3554 H 340.157 -3.2158 -2.17274 0
M  V30 3555 H 338.258 -1.16359 -3.53965 0
M  V30 3556 H 338.371 -3.04079 -3.70234 0
M  V30 3557 H 336.735 -1.54061 -2.02824 0
M  V30 3558 H 337.518 -3.1101 -1.45353 0
M  V30 3559 N 339.963 1.05934 -1.16686 0
M  V30 3560 C 341.211 1.78447 -0.948744 0
M  V30 3561 C 341.532 1.87813 0.524523 0
M  V30 3562 O 340.802 1.38945 1.38098 0
M  V30 3563 H 339.382 0.660971 -0.348033 0
M  V30 3564 H 342.044 1.27947 -1.47022 0
M  V30 3565 H 341.14 2.80394 -1.37061 0
M  V30 3566 N 341.441 0.965919 1.2453 0
M  V30 3567 C 342.687 0.62776 1.92839 0
M  V30 3568 C 343.02 -0.834694 1.75347 0
M  V30 3569 O 342.295 -1.60031 1.10546 0
M  V30 3570 C 342.578 1.00109 3.45905 0
M  V30 3571 C 342.431 2.52011 3.72573 0
M  V30 3572 C 343.75 0.53435 4.36844 0
M  V30 3573 H 340.869 0.229537 0.700344 0
M  V30 3574 H 343.511 1.2046 1.46933 0
M  V30 3575 H 341.661 0.510238 3.85135 0
M  V30 3576 H 343.333 3.08559 3.42912 0
M  V30 3577 H 341.576 2.95287 3.17786 0
M  V30 3578 H 342.247 2.73183 4.79661 0
M  V30 3579 H 344.723 0.955565 4.04979 0
M  V30 3580 H 343.599 0.824152 5.42678 0
M  V30 3581 H 343.86 -0.565589 4.38467 0
M  V30 3582 N 342.919 -1.39368 0.735821 0
M  V30 3583 C 343.882 -2.2896 0.104874 0
M  V30 3584 C 344.882 -1.46347 -0.666274 0
M  V30 3585 O 346.072 -1.67014 -0.49517 0
M  V30 3586 C 343.204 -3.29857 -0.860656 0
M  V30 3587 H 344.397 -2.86259 0.894205 0
M  V30 3588 H 341.95 -1.48029 0.501704 0
M  V30 3589 H 342.685 -2.77615 -1.67631 0
M  V30 3590 H 342.47 -3.9087 -0.310327 0
M  V30 3591 H 343.96 -3.96893 -1.29867 0
M  V30 3592 N 344.397 -0.483516 -1.5 0
M  V30 3593 C 345.813 -0.138404 -1.58999 0
M  V30 3594 C 346.013 1.35597 -1.4905 0
M  V30 3595 O 345.069 2.13039 -1.35539 0
M  V30 3596 C 346.382 -0.699658 -2.92447 0
M  V30 3597 C 347.93 -0.664195 -3.05872 0
M  V30 3598 C 348.405 -1.20321 -4.41913 0
M  V30 3599 N 349.896 -1.16315 -4.48358 0
M  V30 3600 C 350.631 -1.55058 -5.52037 0
M  V30 3601 N 350.127 -2.01311 -6.62907 0
M  V30 3602 N 351.92 -1.46584 -5.42651 0
M  V30 3603 H 344.071 -1.45529 -1.5471 0
M  V30 3604 H 346.334 -0.60258 -0.731848 0
M  V30 3605 H 346.04 -1.747 -3.05242 0
M  V30 3606 H 345.914 -0.150194 -3.76901 0
M  V30 3607 H 348.301 0.374272 -2.92717 0
M  V30 3608 H 348.382 -1.25061 -2.23144 0
M  V30 3609 H 348.026 -2.24037 -4.55818 0
M  V30 3610 H 347.956 -0.592896 -5.23252 0
M  V30 3611 H 350.447 -0.824058 -3.68806 0
M  V30 3612 H 350.76 -2.2899 -7.38095 0
M  V30 3613 H 349.105 -2.05273 -6.63994 0
M  V30 3614 H 352.296 -1.10281 -4.54924 0
M  V30 3615 H 352.469 -1.77103 -6.23329 0
M  V30 3616 N 345.875 1.56104 -0.216619 0
M  V30 3617 C 347.103 2.02563 0.421413 0
M  V30 3618 C 347.518 1.0965 1.53695 0
M  V30 3619 O 346.875 0.10521 1.82196 0
M  V30 3620 C 346.926 3.48584 0.957665 0
M  V30 3621 O 346.647 4.37953 -0.113389 0
M  V30 3622 C 348.148 4.10664 1.66943 0
M  V30 3623 H 345.368 0.662944 0.103665 0
M  V30 3624 H 347.912 2.01793 -0.331629 0
M  V30 3625 H 346.067 3.49985 1.661 0
M  V30 3626 H 346.481 5.23704 0.288932 0
M  V30 3627 H 347.955 5.14622 1.99671 0
M  V30 3628 H 348.432 3.55373 2.58083 0
M  V30 3629 H 349.038 4.13098 1.01142 0
M  V30 3630 N 347.353 -0.0568162 1.57498 0
M  V30 3631 C 348.263 -1.08346 2.08083 0
M  V30 3632 C 349.279 -1.41439 1.01346 0
M  V30 3633 O 350.455 -1.51316 1.32912 0
M  V30 3634 C 347.52 -2.37352 2.52715 0
M  V30 3635 C 346.581 -2.11093 3.73816 0
M  V30 3636 C 345.814 -3.33949 4.1631 0
M  V30 3637 O 346.037 -4.43622 3.58547 0
M  V30 3638 O 344.971 -3.21279 5.08983 0
M  V30 3639 H 348.797 -0.683667 2.95905 0
M  V30 3640 H 346.382 -0.271965 1.46904 0
M  V30 3641 H 348.264 -3.13246 2.81877 0
M  V30 3642 H 346.939 -2.76681 1.68016 0
M  V30 3643 H 345.846 -1.32856 3.49714 0
M  V30 3644 H 347.179 -1.76637 4.59413 0
M  V30 3645 N 348.832 -1.54138 -0.328536 0
M  V30 3646 C 349.762 -1.86167 -1.40939 0
M  V30 3647 C 350.743 -0.718044 -1.54202 0
M  V30 3648 O 351.928 -0.971328 -1.68163 0
M  V30 3649 C 349.058 -2.08461 -2.77779 0
M  V30 3650 C 348.012 -3.24299 -2.7931 0
M  V30 3651 C 347.338 -3.31955 -4.19178 0
M  V30 3652 C 348.638 -4.62065 -2.43502 0
M  V30 3653 H 350.332 -2.76689 -1.14383 0
M  V30 3654 H 347.878 -1.33132 -0.548806 0
M  V30 3655 H 349.831 -2.29453 -3.53454 0
M  V30 3656 H 348.555 -1.14684 -3.05802 0
M  V30 3657 H 347.214 -3.03187 -2.0609 0
M  V30 3658 H 346.862 -2.35745 -4.44335 0
M  V30 3659 H 346.562 -4.09805 -4.2111 0
M  V30 3660 H 348.086 -3.55175 -4.96672 0
M  V30 3661 H 349.5 -4.8297 -3.08889 0
M  V30 3662 H 347.897 -5.42429 -2.56693 0
M  V30 3663 H 348.967 -4.64652 -1.38659 0
M  V30 3664 N 350.31 0.590341 -1.46126 0
M  V30 3665 C 351.558 1.34616 -1.50742 0
M  V30 3666 C 351.879 1.94363 -0.157486 0
M  V30 3667 O 351.149 1.78136 0.815136 0
M  V30 3668 H 349.729 0.499789 -0.555175 0
M  V30 3669 H 352.391 0.691953 -1.82203 0
M  V30 3670 H 351.487 2.15678 -2.25587 0
M  V30 3671 N 351.788 1.33704 0.83433 0
M  V30 3672 C 353.204 1.13137 1.12571 0
M  V30 3673 C 353.404 -0.0747261 2.01361 0
M  V30 3674 O 352.46 -0.753647 2.4099 0
M  V30 3675 C 353.773 2.42105 1.78342 0
M  V30 3676 C 355.321 2.48054 1.90888 0
M  V30 3677 C 355.796 3.76995 2.60075 0
M  V30 3678 N 357.287 3.78092 2.67584 0
M  V30 3679 C 358.022 4.74574 3.21818 0
M  V30 3680 N 357.518 5.81434 3.76705 0
M  V30 3681 N 359.311 4.62044 3.20112 0
M  V30 3682 H 351.462 2.11 0.243489 0
M  V30 3683 H 353.725 0.932532 0.17055 0
M  V30 3684 H 353.431 3.30391 1.20561 0
M  V30 3685 H 353.305 2.54594 2.7832 0
M  V30 3686 H 355.692 1.60215 2.47821 0
M  V30 3687 H 355.773 2.39502 0.898459 0
M  V30 3688 H 355.417 4.65219 2.03799 0
M  V30 3689 H 355.347 3.82825 3.61597 0
M  V30 3690 H 357.838 3.00865 2.28667 0
M  V30 3691 H 358.151 6.51084 4.16305 0
M  V30 3692 H 356.496 5.85163 3.7498 0
M  V30 3693 H 359.687 3.77716 2.76493 0
M  V30 3694 H 359.86 5.37406 3.62076 0
M  V30 3695 N 353.266 -1.05314 1.17247 0
M  V30 3696 C 354.216 -2.11313 0.856196 0
M  V30 3697 C 355.2 -1.60013 -0.168694 0
M  V30 3698 O 356.392 -1.76968 0.0335624 0
M  V30 3699 C 353.521 -3.41301 0.369917 0
M  V30 3700 C 352.607 -3.99401 1.42616 0
M  V30 3701 N 352.998 -4.31481 2.63928 0
M  V30 3702 C 351.296 -4.27126 1.28373 0
M  V30 3703 C 351.997 -4.77799 3.31787 0
M  V30 3704 N 350.973 -4.77843 2.59166 0
M  V30 3705 H 354.775 -2.33976 1.77856 0
M  V30 3706 H 352.289 -1.2295 1.06099 0
M  V30 3707 H 354.286 -4.16713 0.124897 0
M  V30 3708 H 352.946 -3.20072 -0.546253 0
M  V30 3709 H 353.957 -4.21519 3.00902 0
M  V30 3710 H 350.634 -4.15289 0.429111 0
M  V30 3711 H 352.024 -5.11743 4.35395 0
M  V30 3712 N 354.744 -0.972509 -1.24016 0
M  V30 3713 C 355.972 -0.654803 -1.96265 0
M  V30 3714 C 356.387 0.776708 -1.72083 0
M  V30 3715 O 355.744 1.52171 -1.00748 0
M  V30 3716 C 355.795 -0.92592 -3.49441 0
M  V30 3717 O 355.516 -2.30116 -3.72798 0
M  V30 3718 C 357.017 -0.623068 -4.38899 0
M  V30 3719 H 354.237 -0.243907 -0.6251 0
M  V30 3720 H 356.781 -1.30175 -1.57717 0
M  V30 3721 H 354.936 -0.325108 -3.86033 0
M  V30 3722 H 355.35 -2.38483 -4.67147 0
M  V30 3723 H 356.824 -0.863189 -5.45209 0
M  V30 3724 H 357.301 0.442754 -4.36963 0
M  V30 3725 H 357.907 -1.204 -4.07902 0
M  V30 3726 N 356.222 1.38976 -0.743202 0
M  V30 3727 C 357.47 1.99948 -0.29417 0
M  V30 3728 C 357.791 1.59279 1.12495 0
M  V30 3729 O 357.061 0.844808 1.76748 0
M  V30 3730 H 355.641 0.739473 -0.105774 0
M  V30 3731 H 358.303 1.699 -0.954986 0
M  V30 3732 H 357.399 3.10142 -0.349056 0
M  V30 3733 N 357.7 0.491464 1.49741 0
M  V30 3734 C 358.949 -0.0582189 2.01616 0
M  V30 3735 C 359.262 -1.38927 1.3769 0
M  V30 3736 O 360.468 -2.02509 1.80838 0
M  V30 3737 C 358.924 -0.154235 3.59569 0
M  V30 3738 C 358.532 1.1696 4.32463 0
M  V30 3739 C 360.276 -0.65479 4.1942 0
M  V30 3740 C 358.183 1.03627 5.8225 0
M  V30 3741 H 357.113 -0.0255317 0.753568 0
M  V30 3742 H 359.764 0.629445 1.72367 0
M  V30 3743 H 358.146 -0.906138 3.85493 0
M  V30 3744 H 359.32 1.93405 4.18248 0
M  V30 3745 H 357.635 1.60285 3.84315 0
M  V30 3746 H 360.232 -0.771903 5.29099 0
M  V30 3747 H 360.575 -1.65127 3.8215 0
M  V30 3748 H 361.108 0.040304 3.9778 0
M  V30 3749 H 357.847 2.00672 6.24028 0
M  V30 3750 H 357.367 0.312546 5.98985 0
M  V30 3751 H 359.046 0.711114 6.4308 0
M  V30 3752 N 359.178 -1.55987 0.224894 0
M  V30 3753 C 360.128 -2.17076 -0.697296 0
M  V30 3754 C 361.112 -1.12006 -1.15514 0
M  V30 3755 O 362.304 -1.37985 -1.10857 0
M  V30 3756 C 359.433 -2.85679 -1.90374 0
M  V30 3757 C 358.519 -3.97977 -1.46543 0
M  V30 3758 N 358.91 -5.00359 -0.739909 0
M  V30 3759 C 357.208 -4.10128 -1.75245 0
M  V30 3760 C 357.909 -5.79407 -0.515939 0
M  V30 3761 N 356.885 -5.32892 -1.07364 0
M  V30 3762 H 360.687 -2.93592 -0.134594 0
M  V30 3763 H 358.201 -1.62379 0.0262885 0
M  V30 3764 H 360.198 -3.27857 -2.57518 0
M  V30 3765 H 358.858 -2.1066 -2.47088 0
M  V30 3766 H 359.869 -5.16412 -0.392253 0
M  V30 3767 H 356.546 -3.46263 -2.33255 0
M  V30 3768 H 357.936 -6.71872 0.0617349 0
M  V30 3769 N 360.656 0.0484629 -1.57525 0
M  V30 3770 C 361.904 0.741657 -1.88 0
M  V30 3771 C 362.225 1.76918 -0.820054 0
M  V30 3772 O 361.495 1.95335 0.148661 0
M  V30 3773 H 360.075 0.276908 -0.69378 0
M  V30 3774 H 362.737 0.019013 -1.94891 0
M  V30 3775 H 361.833 1.24336 -2.86264 0
M  V30 3776 N 362.134 1.5431 0.320358 0
M  V30 3777 C 363.359 1.76954 1.08175 0
M  V30 3778 C 363.784 0.518193 1.80821 0
M  V30 3779 O 363.142 -0.530411 1.73368 0
M  V30 3780 C 363.19 2.96451 2.05303 0
M  V30 3781 O 362.294 2.68221 3.13259 0
M  V30 3782 H 361.635 0.586275 0.311733 0
M  V30 3783 H 364.165 2.01342 0.363676 0
M  V30 3784 H 364.175 3.23887 2.48116 0
M  V30 3785 H 362.85 3.87196 1.51829 0
M  V30 3786 H 361.427 2.51744 2.75099 0
M  V30 3787 N 363.613 -0.582584 1.46437 0
M  V30 3788 C 364.841 -1.36682 1.55324 0
M  V30 3789 C 365.256 -1.87796 0.194409 0
M  V30 3790 O 364.613 -1.63623 -0.808318 0
M  V30 3791 C 364.664 -2.55426 2.55812 0
M  V30 3792 O 364.385 -2.0643 3.86417 0
M  V30 3793 C 365.886 -3.47976 2.74641 0
M  V30 3794 H 363.106 -0.417545 0.525259 0
M  V30 3795 H 365.65 -0.708219 1.91845 0
M  V30 3796 H 363.805 -3.17275 2.22295 0
M  V30 3797 H 364.219 -2.83762 4.41111 0
M  V30 3798 H 365.693 -4.27775 3.48874 0
M  V30 3799 H 366.17 -3.99919 1.81553 0
M  V30 3800 H 366.776 -2.91962 3.09255 0
M  V30 3801 N 365.091 -1.34144 -0.827227 0
M  V30 3802 C 366.338 -1.26258 -1.58319 0
M  V30 3803 C 366.666 0.168595 -1.93768 0
M  V30 3804 O 365.921 1.12877 -1.59866 0
M  V30 3805 C 366.22 -2.09464 -2.89585 0
M  V30 3806 C 365.886 -3.58521 -2.73448 0
M  V30 3807 C 364.548 -3.99155 -2.68754 0
M  V30 3808 C 366.9 -4.53189 -2.57428 0
M  V30 3809 C 364.228 -5.32656 -2.45957 0
M  V30 3810 C 366.58 -5.86864 -2.36163 0
M  V30 3811 C 365.244 -6.26667 -2.29879 0
M  V30 3812 H 364.514 -0.462013 -0.579332 0
M  V30 3813 H 367.161 -1.65845 -0.95748 0
M  V30 3814 H 365.466 -1.62692 -3.56425 0
M  V30 3815 H 367.163 -2.00712 -3.47154 0
M  V30 3816 H 363.753 -3.26264 -2.77939 0
M  V30 3817 H 367.937 -4.22696 -2.60081 0
M  V30 3818 H 363.193 -5.62519 -2.39546 0
M  V30 3819 H 367.367 -6.59813 -2.22754 0
M  V30 3820 H 364.994 -7.30049 -2.11975 0
M  V30 3821 N 366.569 1.04691 -1.17803 0
M  V30 3822 C 367.794 1.81984 -0.994813 0
M  V30 3823 C 368.219 1.82586 0.452112 0
M  V30 3824 O 367.577 1.23854 1.324 0
M  V30 3825 C 367.625 3.2575 -1.54659 0
M  V30 3826 O 366.729 4.05267 -0.763728 0
M  V30 3827 H 366.07 0.562483 -0.352857 0
M  V30 3828 H 368.6 1.3189 -1.56417 0
M  V30 3829 H 368.61 3.76541 -1.57102 0
M  V30 3830 H 367.285 3.24627 -2.59981 0
M  V30 3831 H 365.862 3.63972 -0.811108 0
M  V30 3832 N 368.047 0.979072 1.23499 0
M  V30 3833 C 369.272 0.664845 1.96455 0
M  V30 3834 C 369.697 -0.761287 1.72006 0
M  V30 3835 O 369.055 -1.51837 0.990713 0
M  V30 3836 C 369.103 0.959479 3.47601 0
M  V30 3837 O 368.207 0.0508168 4.12369 0
M  V30 3838 H 367.548 0.250185 0.615064 0
M  V30 3839 H 370.078 1.31231 1.5697 0
M  V30 3840 H 370.088 0.895642 3.98048 0
M  V30 3841 H 368.763 1.99876 3.64723 0
M  V30 3842 H 367.34 0.16895 3.72517 0
M  V30 3843 N 369.525 -1.3858 0.750561 0
M  V30 3844 C 370.753 -2.04471 0.316098 0
M  V30 3845 C 371.168 -1.56606 -1.05452 0
M  V30 3846 O 370.525 -0.737784 -1.66922 0
M  V30 3847 C 370.576 -3.60025 0.326275 0
M  V30 3848 O 370.297 -4.06133 1.6428 0
M  V30 3849 C 371.798 -4.43131 -0.122429 0
M  V30 3850 H 369.018 -0.65717 0.135528 0
M  V30 3851 H 371.562 -1.77329 1.01857 0
M  V30 3852 H 369.717 -3.86014 -0.327431 0
M  V30 3853 H 370.131 -5.00547 1.56693 0
M  V30 3854 H 371.605 -5.51963 -0.0641473 0
M  V30 3855 H 372.082 -4.23333 -1.16988 0
M  V30 3856 H 372.688 -4.22323 0.50229 0
M  V30 3857 N 371.003 -0.499398 -1.49478 0
M  V30 3858 C 372.231 0.0425456 -2.06856 0
M  V30 3859 C 372.646 1.30964 -1.35992 0
M  V30 3860 O 372.003 1.77172 -0.437762 0
M  V30 3861 C 372.054 0.301735 -3.60239 0
M  V30 3862 O 371.775 -0.915127 -4.28436 0
M  V30 3863 C 373.276 0.887499 -4.34325 0
M  V30 3864 H 370.496 -0.0197482 -0.670709 0
M  V30 3865 H 373.04 -0.696297 -1.92281 0
M  V30 3866 H 371.195 0.990556 -3.74522 0
M  V30 3867 H 371.609 -0.676993 -5.20113 0
M  V30 3868 H 373.083 1.01845 -5.42523 0
M  V30 3869 H 373.56 1.88488 -3.96698 0
M  V30 3870 H 374.166 0.236196 -4.24644 0
M  V30 3871 N 372.481 1.55866 -0.233164 0
M  V30 3872 C 373.411 2.23783 0.666599 0
M  V30 3873 C 374.392 1.21343 1.19205 0
M  V30 3874 O 375.577 1.4996 1.23392 0
M  V30 3875 C 372.707 2.92671 1.86978 0
M  V30 3876 C 371.661 4.01682 1.47768 0
M  V30 3877 C 370.987 4.57926 2.76058 0
M  V30 3878 C 372.287 5.18126 0.658993 0
M  V30 3879 H 373.981 2.99232 0.100306 0
M  V30 3880 H 371.527 1.43924 0.046804 0
M  V30 3881 H 373.48 3.3888 2.50476 0
M  V30 3882 H 372.204 2.14688 2.46123 0
M  V30 3883 H 370.863 3.56222 0.866106 0
M  V30 3884 H 370.511 3.76659 3.33372 0
M  V30 3885 H 370.211 5.31505 2.50552 0
M  V30 3886 H 371.735 5.06859 3.40479 0
M  V30 3887 H 373.149 5.60644 1.19795 0
M  V30 3888 H 371.546 5.98009 0.500552 0
M  V30 3889 H 372.616 4.83763 -0.331856 0
M  V30 3890 N 373.959 -0.0401083 1.57549 0
M  V30 3891 C 375.207 -0.731677 1.8839 0
M  V30 3892 C 375.528 -1.76481 0.829425 0
M  V30 3893 O 374.798 -1.95411 -0.1383 0
M  V30 3894 H 373.378 -0.273225 0.695239 0
M  V30 3895 H 376.04 -0.00867725 1.94898 0
M  V30 3896 H 375.136 -1.22816 2.86919 0
M  V30 3897 N 375.437 -1.54477 -0.31217 0
M  V30 3898 C 376.848 -1.64344 -0.885891 0
M  V30 3899 C 377.199 -0.54485 -1.88483 0
M  V30 3900 O 376.324 0.320387 -2.14015 0
M  V30 3901 C 376.919 -2.97908 -1.61357 0
M  V30 3902 C 375.478 -3.09933 -2.13585 0
M  V30 3903 C 374.625 -2.59971 -0.964897 0
M  V30 3904 H 377.576 -1.58448 -0.0894528 0
M  V30 3905 H 377.597 -2.88706 -2.47848 0
M  V30 3906 H 377.109 -3.77845 -0.886277 0
M  V30 3907 H 375.21 -2.34694 -2.89395 0
M  V30 3908 H 375.323 -4.15916 -2.37804 0
M  V30 3909 H 373.687 -2.16147 -1.34731 0
M  V30 3910 H 374.47 -3.42376 -0.251742 0
M  V30 3911 N 376.915 0.57481 -1.46744 0
M  V30 3912 C 378.164 1.32898 -1.51727 0
M  V30 3913 C 378.477 1.948 -0.176692 0
M  V30 3914 O 379.683 2.71299 -0.104385 0
M  V30 3915 C 378.139 2.40901 -2.67385 0
M  V30 3916 C 377.747 1.85266 -4.07898 0
M  V30 3917 C 379.491 3.17609 -2.81646 0
M  V30 3918 C 377.398 2.90945 -5.14883 0
M  V30 3919 H 376.328 0.499631 -0.564699 0
M  V30 3920 H 378.979 0.612536 -1.72975 0
M  V30 3921 H 377.361 3.15379 -2.39483 0
M  V30 3922 H 378.535 1.17278 -4.45626 0
M  V30 3923 H 376.85 1.21199 -3.98371 0
M  V30 3924 H 379.447 3.96493 -3.58744 0
M  V30 3925 H 379.79 3.70696 -1.89448 0
M  V30 3926 H 380.323 2.50239 -3.09233 0
M  V30 3927 H 377.062 2.42736 -6.089 0
M  V30 3928 H 376.582 3.57398 -4.81691 0
M  V30 3929 H 378.261 3.54755 -5.41071 0
M  V30 3930 N 378.394 1.34581 0.820102 0
M  V30 3931 C 379.641 1.27096 1.57648 0
M  V30 3932 C 379.969 -0.158317 1.93855 0
M  V30 3933 O 379.224 -1.12028 1.60463 0
M  V30 3934 C 379.523 2.10997 2.8847 0
M  V30 3935 C 379.189 3.59966 2.71543 0
M  V30 3936 C 377.851 4.00575 2.66634 0
M  V30 3937 C 380.203 4.54548 2.55021 0
M  V30 3938 C 377.531 5.33953 2.43128 0
M  V30 3939 C 379.883 5.88109 2.33047 0
M  V30 3940 C 378.547 6.27878 2.26552 0
M  V30 3941 H 377.817 0.465078 0.576874 0
M  V30 3942 H 380.464 1.6635 0.948671 0
M  V30 3943 H 378.769 1.6458 3.55557 0
M  V30 3944 H 380.466 2.0255 3.46084 0
M  V30 3945 H 377.056 3.27733 2.76205 0
M  V30 3946 H 381.24 4.24069 2.57835 0
M  V30 3947 H 376.496 5.63781 2.3656 0
M  V30 3948 H 380.67 6.60985 2.19251 0
M  V30 3949 H 378.297 7.31162 2.081 0
M  V30 3950 N 379.872 -1.04064 1.18357 0
M  V30 3951 C 381.118 -1.77658 0.990412 0
M  V30 3952 C 381.473 -1.86446 -0.474944 0
M  V30 3953 O 380.766 -1.36153 -1.34807 0
M  V30 3954 C 380.96 -3.20634 1.57888 0
M  V30 3955 C 380.789 -3.25782 3.09994 0
M  V30 3956 C 379.559 -3.34411 3.7881 0
M  V30 3957 C 381.757 -3.13791 4.0748 0
M  V30 3958 N 379.739 -3.28809 5.18418 0
M  V30 3959 C 381.11 -3.15689 5.33611 0
M  V30 3960 C 383.165 -2.97833 3.98998 0
M  V30 3961 C 381.868 -3.03268 6.52243 0
M  V30 3962 C 383.894 -2.86759 5.17227 0
M  V30 3963 C 383.256 -2.893 6.4225 0
M  V30 3964 H 379.355 -0.661901 0.416427 0
M  V30 3965 H 381.939 -1.23968 1.50133 0
M  V30 3966 H 380.11 -3.7267 1.09414 0
M  V30 3967 H 381.842 -3.82525 1.32124 0
M  V30 3968 H 378.597 -3.40144 3.29543 0
M  V30 3969 H 379.021 -3.29448 5.91433 0
M  V30 3970 H 383.663 -2.94698 3.03171 0
M  V30 3971 H 381.381 -3.05156 7.48268 0
M  V30 3972 H 384.967 -2.75465 5.12455 0
M  V30 3973 H 383.847 -2.80818 7.32196 0
M  V30 3974 N 381.35 -0.985608 -1.22978 0
M  V30 3975 C 382.28 -0.549649 -2.26939 0
M  V30 3976 C 383.261 0.419803 -1.64838 0
M  V30 3977 O 384.446 0.31203 -1.91677 0
M  V30 3978 C 381.576 0.143652 -3.47003 0
M  V30 3979 C 380.53 -0.743606 -4.21491 0
M  V30 3980 C 379.856 0.0822027 -5.34637 0
M  V30 3981 C 381.156 -2.03694 -4.80943 0
M  V30 3982 H 382.85 -1.41862 -2.63658 0
M  V30 3983 H 380.396 -0.683571 -1.26741 0
M  V30 3984 H 382.349 0.459985 -4.18882 0
M  V30 3985 H 381.073 1.04711 -3.09359 0
M  V30 3986 H 379.732 -1.04347 -3.51436 0
M  V30 3987 H 379.38 0.986359 -4.93234 0
M  V30 3988 H 379.08 -0.508377 -5.85397 0
M  V30 3989 H 380.604 0.392797 -6.09335 0
M  V30 3990 H 382.018 -1.78504 -5.44802 0
M  V30 3991 H 380.415 -2.57573 -5.42011 0
M  V30 3992 H 381.485 -2.72042 -4.01399 0
M  V30 3993 N 382.828 1.3818 -0.7579 0
M  V30 3994 C 383.758 2.33027 -0.148597 0
M  V30 3995 C 384.739 1.55085 0.69875 0
M  V30 3996 O 385.924 1.83384 0.639053 0
M  V30 3997 C 383.054 3.3928 0.742034 0
M  V30 3998 C 382.008 4.28 -0.00291946 0
M  V30 3999 C 381.334 5.25146 1.00625 0
M  V30 4000 C 382.634 5.08938 -1.17385 0
M  V30 4001 H 384.328 2.84231 -0.940909 0
M  V30 4002 H 381.874 1.36659 -0.453908 0
M  V30 4003 H 383.827 4.046 1.17799 0
M  V30 4004 H 382.551 2.86569 1.56671 0
M  V30 4005 H 381.21 3.64192 -0.419504 0
M  V30 4006 H 380.858 4.68721 1.8251 0
M  V30 4007 H 380.558 5.85361 0.512428 0
M  V30 4008 H 382.082 5.93342 1.44143 0
M  V30 4009 H 383.496 5.67474 -0.815224 0
M  V30 4010 H 381.893 5.7841 -1.59882 0
M  V30 4011 H 382.963 4.42424 -1.98468 0
M  V30 4012 N 384.306 0.507319 1.49211 0
M  V30 4013 C 385.552 -0.0350047 2.0277 0
M  V30 4014 C 385.885 -1.3606 1.38569 0
M  V30 4015 O 385.16 -1.87321 0.523542 0
M  V30 4016 C 385.443 -0.180916 3.59645 0
M  V30 4017 C 385.296 1.16825 4.34364 0
M  V30 4018 C 386.615 -0.918558 4.30407 0
M  V30 4019 H 383.734 -0.0112473 0.736914 0
M  V30 4020 H 386.376 0.659956 1.7817 0
M  V30 4021 H 384.526 -0.772826 3.80736 0
M  V30 4022 H 386.198 1.79952 4.24753 0
M  V30 4023 H 384.441 1.75594 3.96673 0
M  V30 4024 H 385.112 1.01939 5.42506 0
M  V30 4025 H 387.588 -0.41649 4.1401 0
M  V30 4026 H 386.464 -0.989505 5.39907 0
M  V30 4027 H 386.725 -1.96373 3.96093 0
M  V30 4028 N 385.784 -1.5574 0.241426 0
M  V30 4029 C 386.731 -2.21149 -0.660432 0
M  V30 4030 C 387.701 -1.17356 -1.17545 0
M  V30 4031 O 388.886 -1.45784 -1.23093 0
M  V30 4032 C 386.026 -2.91059 -1.85414 0
M  V30 4033 C 385.139 -4.09495 -1.37616 0
M  V30 4034 C 384.274 -4.67135 -2.529 0
M  V30 4035 C 383.313 -5.77831 -2.01936 0
M  V30 4036 N 382.45 -6.29677 -3.10566 0
M  V30 4037 H 387.29 -2.97845 -0.095955 0
M  V30 4038 H 384.827 -1.47057 -0.0356024 0
M  V30 4039 H 386.785 -3.29788 -2.5553 0
M  V30 4040 H 385.415 -2.16846 -2.39118 0
M  V30 4041 H 384.467 -3.76117 -0.569235 0
M  V30 4042 H 385.779 -4.89423 -0.962618 0
M  V30 4043 H 384.933 -5.08409 -3.31067 0
M  V30 4044 H 383.672 -3.86411 -2.97553 0
M  V30 4045 H 382.677 -5.36039 -1.22238 0
M  V30 4046 H 383.902 -6.60402 -1.58259 0
M  V30 4047 H 381.848 -5.5186 -3.54664 0
M  V30 4048 H 381.765 -7.04783 -2.73526 0
M  V30 4049 H 383.033 -6.75609 -3.88809 0
M  V30 4050 N 387.262 0.0317525 -1.57568 0
M  V30 4051 C 388.487 0.738664 -1.938 0
M  V30 4052 C 388.912 1.68242 -0.841208 0
M  V30 4053 O 388.27 1.80157 0.203267 0
M  V30 4054 C 388.318 1.47417 -3.29091 0
M  V30 4055 O 387.422 2.5872 -3.2115 0
M  V30 4056 H 386.763 0.198856 -0.633524 0
M  V30 4057 H 389.293 -0.0119713 -2.04596 0
M  V30 4058 H 389.303 1.84468 -3.63917 0
M  V30 4059 H 387.978 0.781988 -4.08482 0
M  V30 4060 H 386.555 2.24231 -2.97951 0
M  V30 4061 N 388.74 1.54641 0.303973 0
M  V30 4062 C 390.151 1.64811 0.877163 0
M  V30 4063 C 390.502 0.554838 1.88191 0
M  V30 4064 O 389.627 -0.309033 2.14182 0
M  V30 4065 C 390.222 2.9876 1.59775 0
M  V30 4066 C 388.781 3.11061 2.11938 0
M  V30 4067 C 387.928 2.60479 0.951097 0
M  V30 4068 H 390.879 1.58493 0.0810486 0
M  V30 4069 H 390.9 2.90017 2.46314 0
M  V30 4070 H 390.412 3.7831 0.866226 0
M  V30 4071 H 388.513 2.36225 2.88146 0
M  V30 4072 H 388.626 4.17171 2.35595 0
M  V30 4073 H 386.99 2.16859 1.33583 0
M  V30 4074 H 387.773 3.42504 0.233581 0
M  V30 4075 N 390.218 -0.567019 1.47046 0
M  V30 4076 C 391.128 -1.70247 1.6141 0
M  V30 4077 C 392.144 -1.66746 0.497157 0
M  V30 4078 O 393.32 -1.86371 0.763389 0
M  V30 4079 C 390.385 -3.06756 1.61561 0
M  V30 4080 C 389.446 -3.21399 2.84607 0
M  V30 4081 C 388.679 -4.51396 2.84741 0
M  V30 4082 O 388.902 -5.36255 1.94388 0
M  V30 4083 O 387.836 -4.69621 3.76483 0
M  V30 4084 H 391.662 -1.61073 2.57467 0
M  V30 4085 H 389.247 -0.735894 1.30019 0
M  V30 4086 H 391.129 -3.8801 1.64396 0
M  V30 4087 H 389.804 -3.16333 0.686684 0
M  V30 4088 H 388.711 -2.39579 2.8732 0
M  V30 4089 H 390.044 -3.16721 3.76761 0
M  V30 4090 N 391.696 -1.35014 -0.812953 0
M  V30 4091 C 392.626 -1.30069 -1.93919 0
M  V30 4092 C 393.607 -0.176275 -1.69184 0
M  V30 4093 O 394.792 -0.370227 -1.90638 0
M  V30 4094 C 391.922 -1.06547 -3.30552 0
M  V30 4095 C 390.876 -2.15561 -3.69753 0
M  V30 4096 C 390.202 -1.77214 -5.04479 0
M  V30 4097 C 391.502 -3.57476 -3.808 0
M  V30 4098 H 393.196 -2.24303 -1.98314 0
M  V30 4099 H 390.742 -1.07977 -0.952736 0
M  V30 4100 H 392.695 -1.01729 -4.08937 0
M  V30 4101 H 391.419 -0.0875719 -3.26483 0
M  V30 4102 H 390.078 -2.19466 -2.9365 0
M  V30 4103 H 389.726 -0.780589 -4.96906 0
M  V30 4104 H 389.426 -2.50184 -5.31678 0
M  V30 4105 H 390.95 -1.7391 -5.8531 0
M  V30 4106 H 392.364 -3.55929 -4.4943 0
M  V30 4107 H 390.761 -4.29152 -4.19462 0
M  V30 4108 H 391.831 -3.94091 -2.82525 0
M  V30 4109 N 393.175 1.03435 -1.18907 0
M  V30 4110 C 394.138 2.09756 -0.923844 0
M  V30 4111 C 395.138 1.60528 0.093416 0
M  V30 4112 O 396.328 1.73631 -0.140727 0
M  V30 4113 C 393.46 3.38692 -0.387354 0
M  V30 4114 H 394.653 2.34719 -1.86674 0
M  V30 4115 H 392.206 1.19959 -1.00197 0
M  V30 4116 H 392.941 3.19396 0.561845 0
M  V30 4117 H 392.726 3.75742 -1.12074 0
M  V30 4118 H 394.216 4.17016 -0.220694 0
M  V30 4119 N 394.653 0.992116 1.22453 0
M  V30 4120 C 395.616 0.546883 2.2258 0
M  V30 4121 C 396.616 -0.369829 1.56489 0
M  V30 4122 O 397.806 -0.161896 1.73446 0
M  V30 4123 C 394.938 -0.204659 3.40285 0
M  V30 4124 H 396.131 1.43234 2.63484 0
M  V30 4125 H 393.684 0.779239 1.3549 0
M  V30 4126 H 394.419 -1.10614 3.04853 0
M  V30 4127 H 394.204 0.45354 3.89468 0
M  V30 4128 H 395.694 -0.504358 4.14543 0
M  V30 4129 N 396.131 -1.37776 0.765217 0
M  V30 4130 C 397.063 -2.28958 0.105361 0
M  V30 4131 C 398.076 -1.48316 -0.67128 0
M  V30 4132 O 399.265 -1.71046 -0.51045 0
M  V30 4133 C 396.365 -3.27421 -0.874569 0
M  V30 4134 C 395.538 -4.37132 -0.153123 0
M  V30 4135 C 394.597 -5.1571 -1.04547 0
M  V30 4136 O 393.623 -5.66896 -0.511672 0
M  V30 4137 N 394.825 -5.29808 -2.37243 0
M  V30 4138 H 397.59 -2.86227 0.888495 0
M  V30 4139 H 395.151 -1.49682 0.617 0
M  V30 4140 H 397.143 -3.7687 -1.47483 0
M  V30 4141 H 395.713 -2.70967 -1.55871 0
M  V30 4142 H 394.933 -3.89166 0.627975 0
M  V30 4143 H 396.221 -5.07625 0.345643 0
M  V30 4144 H 395.619 -4.89793 -2.83054 0
M  V30 4145 H 394.176 -5.82589 -2.9229 0
M  V30 4146 N 397.609 -0.515225 -1.4894 0
M  V30 4147 C 399.02 -0.0710067 -1.86565 0
M  V30 4148 C 399.371 1.34733 -1.42623 0
M  V30 4149 O 398.496 2.00653 -0.810379 0
M  V30 4150 C 399.091 -0.122083 -3.3858 0
M  V30 4151 C 397.65 0.266863 -3.75453 0
M  V30 4152 C 396.797 -0.488376 -2.72966 0
M  V30 4153 H 399.748 -0.727266 -1.41055 0
M  V30 4154 H 399.769 0.669818 -3.74558 0
M  V30 4155 H 399.281 -1.15448 -3.70531 0
M  V30 4156 H 397.382 1.30196 -3.49113 0
M  V30 4157 H 397.495 -0.0624811 -4.79059 0
M  V30 4158 H 395.859 0.0635622 -2.54621 0
M  V30 4159 H 396.642 -1.52113 -3.07761 0
M  V30 4160 N 399.087 1.5561 -0.249682 0
M  V30 4161 C 400.312 2.03865 0.381305 0
M  V30 4162 C 400.737 1.12769 1.50548 0
M  V30 4163 O 400.095 0.121189 1.80895 0
M  V30 4164 C 400.143 3.50101 0.863816 0
M  V30 4165 O 399.247 3.62132 1.97318 0
M  V30 4166 H 398.588 0.658827 0.0827194 0
M  V30 4167 H 401.118 2.01105 -0.376552 0
M  V30 4168 H 401.128 3.90975 1.1663 0
M  V30 4169 H 399.803 4.1588 0.0411816 0
M  V30 4170 H 398.38 3.33155 1.67517 0
M  V30 4171 N 400.565 -0.0233959 1.57583 0
M  V30 4172 C 401.793 -0.724682 1.93794 0
M  V30 4173 C 402.208 -1.68588 0.849912 0
M  V30 4174 O 401.565 -1.81676 -0.173204 0
M  V30 4175 C 401.616 -1.47684 3.29957 0
M  V30 4176 O 401.337 -0.554222 4.3458 0
M  V30 4177 C 402.838 -2.27477 3.80485 0
M  V30 4178 H 400.058 -0.203317 0.639455 0
M  V30 4179 H 402.602 0.0207653 2.04489 0
M  V30 4180 H 400.757 -2.17412 3.20641 0
M  V30 4181 H 401.171 -1.08232 5.13212 0
M  V30 4182 H 402.645 -2.7564 4.78254 0
M  V30 4183 H 403.122 -3.09144 3.11972 0
M  V30 4184 H 403.728 -1.62813 3.92902 0
M  V30 4185 N 402.043 -1.548 -0.295768 0
M  V30 4186 C 403.273 -1.78069 -1.04762 0
M  V30 4187 C 403.681 -0.542847 -1.81245 0
M  V30 4188 O 403.024 0.497051 -1.76848 0
M  V30 4189 C 403.086 -2.93881 -2.07061 0
M  V30 4190 C 402.75 -4.31777 -1.49725 0
M  V30 4191 C 403.747 -5.11613 -0.924581 0
M  V30 4192 C 401.432 -4.78389 -1.5313 0
M  V30 4193 C 403.426 -6.36184 -0.393594 0
M  V30 4194 C 401.113 -6.02921 -0.996447 0
M  V30 4195 C 402.111 -6.81654 -0.428569 0
M  V30 4196 O 401.799 -8.0384 0.0981593 0
M  V30 4197 H 401.531 -0.597475 -0.316226 0
M  V30 4198 H 404.085 -2.02584 -0.338973 0
M  V30 4199 H 402.315 -2.65003 -2.81621 0
M  V30 4200 H 404.004 -3.04679 -2.6819 0
M  V30 4201 H 404.77 -4.76743 -0.891136 0
M  V30 4202 H 400.649 -4.17132 -1.9627 0
M  V30 4203 H 404.193 -6.97582 0.0503014 0
M  V30 4204 H 400.09 -6.37277 -1.02706 0
M  V30 4205 H 400.858 -8.18499 -0.0146455 0
M  V30 4206 N 403.521 0.559213 -1.47345 0
M  V30 4207 C 404.451 1.67622 -1.62558 0
M  V30 4208 C 405.432 1.63331 -0.475087 0
M  V30 4209 O 406.617 1.80983 -0.704182 0
M  V30 4210 C 403.747 3.0626 -1.63774 0
M  V30 4211 C 402.701 3.25397 -2.7803 0
M  V30 4212 C 402.027 4.64801 -2.64318 0
M  V30 4213 C 403.327 3.10965 -4.19641 0
M  V30 4214 H 405.021 1.55146 -2.56067 0
M  V30 4215 H 402.567 0.744961 -1.23233 0
M  V30 4216 H 404.52 3.84247 -1.73008 0
M  V30 4217 H 403.244 3.1969 -0.66825 0
M  V30 4218 H 401.903 2.49817 -2.68304 0
M  V30 4219 H 401.551 4.75028 -1.65401 0
M  V30 4220 H 401.251 4.78555 -3.40968 0
M  V30 4221 H 402.775 5.44926 -2.75478 0
M  V30 4222 H 404.189 3.78772 -4.30354 0
M  V30 4223 H 402.586 3.36229 -4.97062 0
M  V30 4224 H 403.656 2.07736 -4.38148 0
M  V30 4225 N 404.999 1.35443 0.805782 0
M  V30 4226 C 405.962 1.28301 1.89925 0
M  V30 4227 C 406.962 0.194285 1.59622 0
M  V30 4228 O 408.152 0.448036 1.6834 0
M  V30 4229 C 405.284 0.984997 3.2636 0
M  V30 4230 H 406.477 2.2553 1.97677 0
M  V30 4231 H 404.03 1.19979 1.00173 0
M  V30 4232 H 404.765 0.016603 3.24296 0
M  V30 4233 H 404.55 1.77269 3.4974 0
M  V30 4234 H 406.04 0.960651 4.064 0
M  V30 4235 N 406.477 -1.02803 1.19454 0
M  V30 4236 C 407.723 -1.76478 0.999171 0
M  V30 4237 C 408.056 -1.88456 -0.468828 0
M  V30 4238 O 407.331 -1.40198 -1.34814 0
M  V30 4239 C 407.614 -3.19044 1.66981 0
M  V30 4240 C 407.467 -3.14932 3.21151 0
M  V30 4241 C 408.786 -4.17456 1.39349 0
M  V30 4242 H 405.905 -0.640614 0.364393 0
M  V30 4243 H 408.547 -1.20005 1.47305 0
M  V30 4244 H 406.697 -3.67263 1.2669 0
M  V30 4245 H 408.369 -2.74605 3.70661 0
M  V30 4246 H 406.612 -2.52625 3.52652 0
M  V30 4247 H 407.283 -4.1566 3.63223 0
M  V30 4248 H 409.759 -3.77842 1.74283 0
M  V30 4249 H 408.635 -5.154 1.88823 0
M  V30 4250 H 408.896 -4.40949 0.318813 0
M  V30 4251 N 407.956 -0.998596 -1.21925 0
M  V30 4252 C 408.919 -0.558679 -2.22287 0
M  V30 4253 C 409.919 0.361525 -1.56683 0
M  V30 4254 O 411.109 0.152695 -1.73529 0
M  V30 4255 C 408.241 0.18661 -3.40389 0
M  V30 4256 H 409.434 -1.4463 -2.62721 0
M  V30 4257 H 406.987 -0.786413 -1.35075 0
M  V30 4258 H 407.722 1.08996 -3.05435 0
M  V30 4259 H 407.507 -0.474188 -3.89222 0
M  V30 4260 H 408.997 0.482367 -4.14805 0
M  V30 4261 N 409.434 1.37368 -0.772513 0
M  V30 4262 C 410.344 2.34053 -0.160081 0
M  V30 4263 C 411.36 1.60216 0.678728 0
M  V30 4264 O 412.536 1.92303 0.59847 0
M  V30 4265 C 409.601 3.3939 0.708182 0
M  V30 4266 C 408.662 4.29048 -0.147172 0
M  V30 4267 C 407.895 5.29354 0.679744 0
M  V30 4268 O 408.118 5.3723 1.91678 0
M  V30 4269 O 407.052 6.01835 0.0885444 0
M  V30 4270 H 410.878 2.88159 -0.959053 0
M  V30 4271 H 408.463 1.39543 -0.533685 0
M  V30 4272 H 410.345 4.03839 1.20384 0
M  V30 4273 H 409.02 2.8761 1.48533 0
M  V30 4274 H 407.927 3.67697 -0.689205 0
M  V30 4275 H 409.26 4.84134 -0.887423 0
M  V30 4276 N 410.912 0.523116 1.48665 0
M  V30 4277 C 411.822 -0.247406 2.33292 0
M  V30 4278 C 412.838 -0.945769 1.46052 0
M  V30 4279 O 414.014 -0.922253 1.79043 0
M  V30 4280 C 411.079 -1.28487 3.22012 0
M  V30 4281 C 410.14 -0.597592 4.2512 0
M  V30 4282 C 409.373 -1.58563 5.09601 0
M  V30 4283 O 409.596 -2.81763 4.95949 0
M  V30 4284 O 408.53 -1.12879 5.91221 0
M  V30 4285 H 412.356 0.445869 3.00409 0
M  V30 4286 H 409.941 0.284128 1.46673 0
M  V30 4287 H 411.823 -1.88459 3.7691 0
M  V30 4288 H 410.498 -1.96068 2.57564 0
M  V30 4289 H 409.405 0.0424407 3.74076 0
M  V30 4290 H 410.738 0.0361517 4.92187 0
M  V30 4291 N 412.39 -1.55475 0.257931 0
M  V30 4292 C 413.32 -2.24815 -0.630912 0
M  V30 4293 C 414.301 -1.23224 -1.17259 0
M  V30 4294 O 415.486 -1.51904 -1.20991 0
M  V30 4295 C 412.616 -2.95609 -1.82298 0
M  V30 4296 C 411.57 -4.03982 -1.41359 0
M  V30 4297 C 410.896 -4.6226 -2.68738 0
M  V30 4298 C 412.196 -5.19109 -0.57648 0
M  V30 4299 H 413.89 -2.99354 -0.0526878 0
M  V30 4300 H 411.436 -1.4398 -0.023901 0
M  V30 4301 H 413.389 -3.42822 -2.45054 0
M  V30 4302 H 412.113 -2.18577 -2.42676 0
M  V30 4303 H 410.772 -3.57555 -0.809324 0
M  V30 4304 H 410.42 -3.81915 -3.27338 0
M  V30 4305 H 410.12 -5.35424 -2.42065 0
M  V30 4306 H 411.644 -5.12212 -3.32372 0
M  V30 4307 H 413.058 -5.62479 -1.10861 0
M  V30 4308 H 411.455 -5.98729 -0.405351 0
M  V30 4309 H 412.525 -4.83174 0.408776 0
M  V30 4310 N 413.868 0.0150385 -1.57593 0
M  V30 4311 C 414.831 0.995996 -2.06428 0
M  V30 4312 C 415.831 1.2818 -0.970903 0
M  V30 4313 O 417.021 1.22949 -1.23406 0
M  V30 4314 C 414.153 2.32506 -2.49307 0
M  V30 4315 H 415.346 0.573873 -2.94358 0
M  V30 4316 H 412.899 0.262186 -1.54085 0
M  V30 4317 H 413.634 2.79438 -1.64575 0
M  V30 4318 H 413.419 2.13087 -3.29145 0
M  V30 4319 H 414.909 3.02906 -2.87468 0
M  V30 4320 N 415.346 1.54954 0.287554 0
M  V30 4321 C 416.623 1.65569 1.04146 0
M  V30 4322 C 417.003 0.512672 2.0478 0
M  V30 4323 O 416.351 -0.489038 2.23205 0
M  V30 4324 C 416.561 3.04163 1.71131 0
M  V30 4325 C 417.909 3.61429 2.22832 0
M  V30 4326 O 418.933 3.06702 1.81141 0
M  V30 4327 O 417.792 4.57281 2.9926 0
M  V30 4328 H 414.886 0.671881 0.482188 0
M  V30 4329 H 417.432 1.67297 0.28457 0
M  V30 4330 H 416.204 3.78796 0.981303 0
M  V30 4331 H 415.827 3.06271 2.53543 0
M  V30 4332 N 416.824 -0.551391 1.4764 0
M  V30 4333 C 418.07 -1.31024 1.54792 0
M  V30 4334 C 418.403 -1.9304 0.211967 0
M  V30 4335 O 417.678 -1.78175 -0.77999 0
M  V30 4336 C 417.961 -2.41593 2.67029 0
M  V30 4337 C 417.814 -1.84408 4.10261 0
M  V30 4338 C 419.133 -3.43488 2.75143 0
M  V30 4339 H 416.252 -0.475031 0.563485 0
M  V30 4340 H 418.894 -0.616454 1.79722 0
M  V30 4341 H 417.044 -3.00772 2.45904 0
M  V30 4342 H 418.716 -1.29445 4.42766 0
M  V30 4343 H 416.959 -1.15051 4.18265 0
M  V30 4344 H 417.63 -2.64367 4.84576 0
M  V30 4345 H 420.106 -2.94236 2.94218 0
M  V30 4346 H 418.982 -4.18274 3.55441 0
M  V30 4347 H 419.243 -4.02703 1.82435 0
M  V30 4348 N 418.302 -1.35869 -0.798587 0
M  V30 4349 C 419.527 -1.32883 -1.59238 0
M  V30 4350 C 419.952 0.0894587 -1.87887 0
M  V30 4351 O 419.31 1.05869 -1.47178 0
M  V30 4352 C 419.358 -2.14892 -2.89575 0
M  V30 4353 O 418.462 -1.53512 -3.82763 0
M  V30 4354 H 417.803 -0.455236 -0.48338 0
M  V30 4355 H 420.333 -1.79024 -0.990539 0
M  V30 4356 H 420.343 -2.27139 -3.38928 0
M  V30 4357 H 419.018 -3.17998 -2.68049 0
M  V30 4358 H 417.595 -1.50153 -3.41334 0
M  V30 4359 N 419.78 1.02168 -1.19998 0
M  V30 4360 C 421.028 1.75338 -1.00504 0
M  V30 4361 C 421.349 1.89387 0.464506 0
M  V30 4362 O 420.619 1.43268 1.33608 0
M  V30 4363 H 419.199 0.649564 -0.368885 0
M  V30 4364 H 421.861 1.23205 -1.51018 0
M  V30 4365 H 420.957 2.75892 -1.45912 0
M  V30 4366 N 421.258 1.00505 1.21394 0
M  V30 4367 C 422.205 0.565496 2.23765 0
M  V30 4368 C 423.175 -0.408466 1.60999 0
M  V30 4369 O 424.36 -0.310503 1.88257 0
M  V30 4370 C 421.5 -0.101667 3.4495 0
M  V30 4371 C 420.613 0.915479 4.22188 0
M  V30 4372 C 419.748 0.220574 5.30742 0
M  V30 4373 C 418.787 1.22527 5.99711 0
M  V30 4374 N 417.924 0.557831 6.9988 0
M  V30 4375 H 422.764 1.44314 2.60725 0
M  V30 4376 H 420.301 0.722643 1.28126 0
M  V30 4377 H 422.259 -0.505504 4.14126 0
M  V30 4378 H 420.889 -0.94303 3.08718 0
M  V30 4379 H 419.941 1.43756 3.52191 0
M  V30 4380 H 421.253 1.68005 4.69655 0
M  V30 4381 H 420.407 -0.239368 6.06228 0
M  V30 4382 H 419.146 -0.576401 4.84282 0
M  V30 4383 H 418.151 1.69571 5.22997 0
M  V30 4384 H 419.376 2.02332 6.48258 0
M  V30 4385 H 417.322 -0.219486 6.55633 0
M  V30 4386 H 417.239 1.26065 7.45415 0
M  V30 4387 H 418.507 0.121095 7.79406 0
M  V30 4388 N 422.737 -1.36956 0.779787 0
M  V30 4389 C 423.967 -2.03459 0.358877 0
M  V30 4390 C 424.375 -1.58939 -1.02641 0
M  V30 4391 O 423.718 -0.769777 -1.66794 0
M  V30 4392 C 423.78 -3.5796 0.332393 0
M  V30 4393 C 423.444 -4.25644 1.66362 0
M  V30 4394 C 424.441 -4.49205 2.61746 0
M  V30 4395 C 422.126 -4.63313 1.94027 0
M  V30 4396 C 424.12 -5.09503 3.82996 0
M  V30 4397 C 421.807 -5.2333 3.15546 0
M  V30 4398 C 422.805 -5.46363 4.0985 0
M  V30 4399 O 422.493 -6.05122 5.29228 0
M  V30 4400 H 422.225 -0.659767 0.147254 0
M  V30 4401 H 424.779 -1.76111 1.05708 0
M  V30 4402 H 423.009 -3.84388 -0.422237 0
M  V30 4403 H 424.698 -4.05852 -0.0625389 0
M  V30 4404 H 425.464 -4.20508 2.41657 0
M  V30 4405 H 421.343 -4.44715 1.21448 0
M  V30 4406 H 424.887 -5.27397 4.56617 0
M  V30 4407 H 420.784 -5.51451 3.35517 0
M  V30 4408 H 421.552 -6.23595 5.30161 0
M  V30 4409 N 424.215 -0.530993 -1.48385 0
M  V30 4410 C 425.462 0.0027373 -2.025 0
M  V30 4411 C 425.79 1.34186 -1.40799 0
M  V30 4412 O 425.045 1.88 -0.543544 0
M  V30 4413 C 425.344 0.172742 -3.56982 0
M  V30 4414 C 425.01 -1.09215 -4.37473 0
M  V30 4415 C 423.672 -1.43881 -4.59186 0
M  V30 4416 C 426.024 -1.93153 -4.84088 0
M  V30 4417 C 423.352 -2.62381 -5.2476 0
M  V30 4418 C 425.704 -3.10833 -5.50968 0
M  V30 4419 C 424.368 -3.45843 -5.70919 0
M  V30 4420 H 423.638 0.00100165 -0.740999 0
M  V30 4421 H 426.285 -0.697219 -1.78357 0
M  V30 4422 H 424.59 0.955473 -3.79971 0
M  V30 4423 H 426.287 0.600642 -3.96476 0
M  V30 4424 H 422.877 -0.812177 -4.20834 0
M  V30 4425 H 427.061 -1.67683 -4.67115 0
M  V30 4426 H 422.317 -2.89707 -5.38405 0
M  V30 4427 H 426.491 -3.7618 -5.86056 0
M  V30 4428 H 424.118 -4.37764 -6.21503 0
M  V30 4429 N 425.693 1.55336 -0.266172 0
M  V30 4430 C 426.97 1.91372 0.404486 0
M  V30 4431 C 427.35 1.18935 1.74407 0
M  V30 4432 O 426.698 0.3132 2.26343 0
M  V30 4433 C 426.908 3.44581 0.553593 0
M  V30 4434 C 428.256 4.16196 0.840618 0
M  V30 4435 O 429.28 3.50426 0.638739 0
M  V30 4436 O 428.139 5.32567 1.22618 0
M  V30 4437 H 425.233 0.797194 0.220025 0
M  V30 4438 H 427.779 1.66813 -0.311664 0
M  V30 4439 H 426.551 3.89357 -0.389498 0
M  V30 4440 H 426.174 3.75065 1.31955 0
M  V30 4441 N 427.171 -0.0066808 1.57599 0
M  V30 4442 C 428.419 -0.691552 1.899 0
M  V30 4443 C 428.74 -1.74682 0.866672 0
M  V30 4444 O 428.01 -1.95661 -0.0968189 0
M  V30 4445 H 426.59 -0.258416 0.700878 0
M  V30 4446 H 429.252 0.0326655 1.94873 0
M  V30 4447 H 428.348 -1.16702 2.8946 0
M  V30 4448 N 428.649 -1.55105 -0.279332 0
M  V30 4449 C 429.579 -1.90557 -1.34945 0
M  V30 4450 C 430.56 -0.766738 -1.51839 0
M  V30 4451 O 431.745 -1.02434 -1.64988 0
M  V30 4452 C 428.875 -2.17193 -2.71006 0
M  V30 4453 C 427.829 -3.33021 -2.68851 0
M  V30 4454 C 427.155 -3.45123 -4.08405 0
M  V30 4455 C 428.455 -4.69578 -2.28678 0
M  V30 4456 H 430.149 -2.80188 -1.05522 0
M  V30 4457 H 427.695 -1.34811 -0.506173 0
M  V30 4458 H 429.648 -2.40581 -3.45975 0
M  V30 4459 H 428.372 -1.24355 -3.01999 0
M  V30 4460 H 427.031 -3.0959 -1.9634 0
M  V30 4461 H 426.679 -2.49762 -4.3661 0
M  V30 4462 H 426.379 -4.22995 -4.07859 0
M  V30 4463 H 427.903 -3.70796 -4.85121 0
M  V30 4464 H 429.317 -4.92553 -2.93368 0
M  V30 4465 H 427.714 -5.5032 -2.39306 0
M  V30 4466 H 428.784 -4.68828 -1.23807 0
M  V30 4467 N 430.127 0.543554 -1.4793 0
M  V30 4468 C 431.074 1.64942 -1.6144 0
M  V30 4469 C 432.044 1.59692 -0.456903 0
M  V30 4470 O 433.229 1.78321 -0.678688 0
M  V30 4471 C 430.369 3.03238 -1.64744 0
M  V30 4472 C 429.482 3.18823 -2.91506 0
M  V30 4473 C 428.617 4.47599 -2.86057 0
M  V30 4474 C 427.656 4.56664 -4.07584 0
M  V30 4475 N 426.793 5.76811 -4.00292 0
M  V30 4476 H 431.633 1.52733 -2.55884 0
M  V30 4477 H 429.17 0.7438 -1.2691 0
M  V30 4478 H 431.128 3.83339 -1.64641 0
M  V30 4479 H 429.758 3.1425 -0.738017 0
M  V30 4480 H 428.81 2.32064 -3.01414 0
M  V30 4481 H 430.122 3.21384 -3.81463 0
M  V30 4482 H 429.276 5.35975 -2.84281 0
M  V30 4483 H 428.015 4.47538 -1.93807 0
M  V30 4484 H 427.02 3.66697 -4.09651 0
M  V30 4485 H 428.245 4.58474 -5.00978 0
M  V30 4486 H 426.191 5.77673 -3.10853 0
M  V30 4487 H 426.108 5.80808 -4.8394 0
M  V30 4488 H 427.376 6.67512 -4.02553 0
M  V30 4489 N 431.605 1.3629 0.791371 0
M  V30 4490 C 432.537 1.26321 1.91248 0
M  V30 4491 C 433.55 0.18313 1.61767 0
M  V30 4492 O 434.739 0.437682 1.73051 0
M  V30 4493 C 431.839 0.925901 3.26007 0
M  V30 4494 C 431.012 2.10746 3.83281 0
M  V30 4495 C 430.071 1.74352 4.96475 0
M  V30 4496 O 429.097 2.46416 5.13096 0
M  V30 4497 N 430.299 0.676058 5.7655 0
M  V30 4498 H 433.064 2.22915 2.00323 0
M  V30 4499 H 430.625 1.29659 0.969546 0
M  V30 4500 H 432.617 0.663636 3.99222 0
M  V30 4501 H 431.187 0.0491581 3.12561 0
M  V30 4502 H 430.407 2.53264 3.02077 0
M  V30 4503 H 431.695 2.8969 4.18279 0
M  V30 4504 H 431.093 0.0776467 5.65647 0
M  V30 4505 H 429.65 0.473612 6.50077 0
M  V30 4506 N 433.083 -1.0153 1.20538 0
M  V30 4507 C 434.03 -2.10098 0.955383 0
M  V30 4508 C 435 -1.65702 -0.114878 0
M  V30 4509 O 436.185 -1.90776 0.0301118 0
M  V30 4510 C 433.325 -3.41236 0.514969 0
M  V30 4511 C 432.438 -3.99102 1.65353 0
M  V30 4512 C 431.573 -5.18306 1.16329 0
M  V30 4513 C 430.612 -5.68258 2.27485 0
M  V30 4514 N 429.749 -6.78722 1.7967 0
M  V30 4515 H 434.589 -2.30818 1.88486 0
M  V30 4516 H 432.126 -1.13189 0.939499 0
M  V30 4517 H 434.084 -4.16504 0.240935 0
M  V30 4518 H 432.714 -3.20585 -0.377512 0
M  V30 4519 H 431.766 -3.20918 2.04245 0
M  V30 4520 H 433.078 -4.32177 2.49047 0
M  V30 4521 H 432.232 -6.00782 0.845302 0
M  V30 4522 H 430.971 -4.86799 0.296254 0
M  V30 4523 H 429.976 -4.84385 2.60099 0
M  V30 4524 H 431.201 -6.01798 3.14667 0
M  V30 4525 H 429.147 -6.49042 0.95295 0
M  V30 4526 H 429.064 -7.10996 2.56944 0
M  V30 4527 H 430.332 -7.64759 1.50875 0
M  V30 4528 N 434.561 -1.01147 -1.20859 0
M  V30 4529 C 435.524 -0.582224 -2.21682 0
M  V30 4530 C 436.524 0.344887 -1.57058 0
M  V30 4531 O 437.714 0.134281 -1.73682 0
M  V30 4532 C 434.846 0.150496 -3.40568 0
M  V30 4533 H 436.039 -1.47408 -2.61172 0
M  V30 4534 H 433.592 -0.800695 -1.34233 0
M  V30 4535 H 434.327 1.0575 -3.06574 0
M  V30 4536 H 434.112 -0.515444 -3.88697 0
M  V30 4537 H 435.602 0.438344 -4.15293 0
M  V30 4538 N 436.039 1.36541 -0.78704 0
M  V30 4539 C 437.45 1.81873 -0.421807 0
M  V30 4540 C 437.801 1.65487 1.05397 0
M  V30 4541 O 436.926 1.17448 1.81755 0
M  V30 4542 C 437.521 3.30192 -0.758841 0
M  V30 4543 C 436.08 3.73743 -0.446468 0
M  V30 4544 C 435.227 2.58844 -0.994728 0
M  V30 4545 H 438.178 1.24796 -0.98039 0
M  V30 4546 H 438.199 3.80468 -0.0490648 0
M  V30 4547 H 437.711 3.42087 -1.83299 0
M  V30 4548 H 435.812 3.6741 0.619739 0
M  V30 4549 H 435.925 4.69272 -0.965415 0
M  V30 4550 H 434.289 2.51245 -0.418087 0
M  V30 4551 H 435.072 2.73525 -2.07458 0
M  V30 4552 N 437.518 0.538854 1.48102 0
M  V30 4553 C 438.481 -0.208395 2.28251 0
M  V30 4554 C 439.481 -0.859656 1.35892 0
M  V30 4555 O 440.671 -0.71834 1.58699 0
M  V30 4556 C 437.803 -1.30252 3.15035 0
M  V30 4557 H 438.996 0.495407 2.9578 0
M  V30 4558 H 436.549 0.295112 1.53489 0
M  V30 4559 H 437.284 -2.0393 2.52157 0
M  V30 4560 H 437.069 -0.840551 3.82985 0
M  V30 4561 H 438.559 -1.82787 3.75471 0
M  V30 4562 N 438.996 -1.55193 0.274407 0
M  V30 4563 C 440.407 -1.85358 -0.223488 0
M  V30 4564 C 440.758 -1.19642 -1.555 0
M  V30 4565 O 439.883 -0.484498 -2.10907 0
M  V30 4566 C 440.478 -3.36282 -0.412285 0
M  V30 4567 C 439.037 -3.66574 -0.854413 0
M  V30 4568 C 438.184 -2.7725 0.0527056 0
M  V30 4569 H 441.135 -1.50743 0.496215 0
M  V30 4570 H 441.156 -3.59349 -1.25094 0
M  V30 4571 H 440.668 -3.84083 0.556965 0
M  V30 4572 H 438.769 -3.24273 -1.83516 0
M  V30 4573 H 438.882 -4.74073 -0.692226 0
M  V30 4574 H 437.246 -2.50447 -0.463484 0
M  V30 4575 H 438.029 -3.27865 1.01783 0
M  V30 4576 N 440.474 -0.00167713 -1.576 0
M  V30 4577 C 441.384 1.00548 -2.1196 0
M  V30 4578 C 442.4 1.3758 -1.06526 0
M  V30 4579 O 443.576 1.46278 -1.38436 0
M  V30 4580 C 440.641 2.27809 -2.6135 0
M  V30 4581 C 439.702 1.97074 -3.81393 0
M  V30 4582 C 438.935 3.18267 -4.28417 0
M  V30 4583 O 439.158 4.30009 -3.74765 0
M  V30 4584 O 438.092 3.02167 -5.20556 0
M  V30 4585 H 441.918 0.573373 -2.98238 0
M  V30 4586 H 439.503 0.217255 -1.47812 0
M  V30 4587 H 441.385 3.02568 -2.93309 0
M  V30 4588 H 440.06 2.70254 -1.78169 0
M  V30 4589 H 438.967 1.19785 -3.54404 0
M  V30 4590 H 440.3 1.59464 -4.65652 0
M  V30 4591 N 441.952 1.55251 0.271103 0
M  V30 4592 C 442.915 1.87484 1.31842 0
M  V30 4593 C 443.915 0.749545 1.42262 0
M  V30 4594 O 445.105 1.01771 1.4138 0
M  V30 4595 C 442.237 2.0818 2.69951 0
M  V30 4596 H 443.43 2.81108 1.0449 0
M  V30 4597 H 440.983 1.47771 0.509258 0
M  V30 4598 H 441.718 1.16944 3.02481 0
M  V30 4599 H 441.503 2.90114 2.63774 0
M  V30 4600 H 442.993 2.34385 3.4562 0
M  V30 4601 N 443.43 -0.535701 1.48216 0
M  V30 4602 C 444.34 -1.66785 1.64985 0
M  V30 4603 C 445.356 -1.65654 0.532414 0
M  V30 4604 O 446.532 -1.8471 0.80275 0
M  V30 4605 C 443.597 -3.0326 1.68031 0
M  V30 4606 C 442.658 -3.1529 2.9136 0
M  V30 4607 C 441.891 -4.45255 2.94252 0
M  V30 4608 O 442.114 -5.32011 2.05719 0
M  V30 4609 O 441.048 -4.6153 3.86359 0
M  V30 4610 H 444.874 -1.55576 2.60825 0
M  V30 4611 H 442.459 -0.70815 1.31551 0
M  V30 4612 H 444.341 -3.84436 1.72589 0
M  V30 4613 H 443.016 -3.14805 0.753628 0
M  V30 4614 H 441.923 -2.3343 2.92337 0
M  V30 4615 H 443.256 -3.08658 3.83394 0
M  V30 4616 N 444.908 -1.36708 -0.784132 0
M  V30 4617 C 446.185 -1.21776 -1.53069 0
M  V30 4618 C 446.565 0.193876 -2.10208 0
M  V30 4619 O 445.913 1.20012 -1.94446 0
M  V30 4620 C 446.123 -2.30395 -2.62143 0
M  V30 4621 C 447.471 -2.67325 -3.29882 0
M  V30 4622 O 448.495 -2.29478 -2.7243 0
M  V30 4623 O 447.354 -3.32485 -4.33724 0
M  V30 4624 H 444.448 -0.474459 -0.677361 0
M  V30 4625 H 446.994 -1.48454 -0.82216 0
M  V30 4626 H 445.766 -3.2498 -2.17953 0
M  V30 4627 H 445.389 -2.05112 -3.40609 0
M  V30 4628 N 446.386 1.0089 -1.21074 0
M  V30 4629 C 447.296 2.13039 -0.982425 0
M  V30 4630 C 448.312 1.73881 0.0642161 0
M  V30 4631 O 449.488 2.01012 -0.12496 0
M  V30 4632 C 446.553 3.42377 -0.545803 0
M  V30 4633 C 445.614 3.95731 -1.6642 0
M  V30 4634 C 444.847 5.18896 -1.24832 0
M  V30 4635 O 445.07 5.70273 -0.120265 0
M  V30 4636 O 444.004 5.65597 -2.05873 0
M  V30 4637 H 447.83 2.35175 -1.92163 0
M  V30 4638 H 445.415 1.1142 -0.995285 0
M  V30 4639 H 447.297 4.20244 -0.311912 0
M  V30 4640 H 445.972 3.21639 0.364727 0
M  V30 4641 H 444.879 3.19108 -1.95246 0
M  V30 4642 H 446.212 4.20872 -2.55201 0
M  V30 4643 N 447.864 1.01787 1.20321 0
M  V30 4644 C 448.774 0.598898 2.26827 0
M  V30 4645 C 449.79 -0.36418 1.70146 0
M  V30 4646 O 450.966 -0.224812 2.00141 0
M  V30 4647 C 448.031 -0.0549769 3.46656 0
M  V30 4648 C 447.092 0.954205 4.18561 0
M  V30 4649 C 446.325 0.331439 5.3267 0
M  V30 4650 O 446.548 -0.86851 5.63749 0
M  V30 4651 O 445.482 1.0488 5.92692 0
M  V30 4652 H 449.308 1.48562 2.64883 0
M  V30 4653 H 446.893 0.787434 1.26964 0
M  V30 4654 H 448.775 -0.420102 4.19301 0
M  V30 4655 H 447.45 -0.915876 3.10473 0
M  V30 4656 H 446.357 1.37072 3.48083 0
M  V30 4657 H 447.69 1.78511 4.58688 0
M  V30 4658 N 449.342 -1.36122 0.79427 0
M  V30 4659 C 450.588 -1.99406 0.369452 0
M  V30 4660 C 450.921 -1.62886 -1.05743 0
M  V30 4661 O 450.196 -0.886053 -1.73145 0
M  V30 4662 C 450.479 -3.56046 0.538833 0
M  V30 4663 C 450.332 -4.02404 2.00976 0
M  V30 4664 C 451.651 -4.40079 -0.0431359 0
M  V30 4665 H 448.77 -0.724397 0.135712 0
M  V30 4666 H 451.412 -1.61461 1.00151 0
M  V30 4667 H 449.562 -3.885 0.000771004 0
M  V30 4668 H 451.234 -3.80415 2.60926 0
M  V30 4669 H 449.477 -3.53765 2.51063 0
M  V30 4670 H 450.148 -5.11344 2.07922 0
M  V30 4671 H 452.624 -4.14013 0.416228 0
M  V30 4672 H 451.5 -5.48799 0.105374 0
M  V30 4673 H 451.761 -4.27264 -1.13571 0
M  V30 4674 N 450.82 -0.546701 -1.47814 0
M  V30 4675 C 451.783 0.196287 -2.28358 0
M  V30 4676 C 452.783 0.852437 -1.36346 0
M  V30 4677 O 453.973 0.709913 -1.59078 0
M  V30 4678 C 451.105 1.28579 -3.15722 0
M  V30 4679 H 452.298 -0.511086 -2.95513 0
M  V30 4680 H 449.851 -0.303248 -1.5333 0
M  V30 4681 H 450.586 2.0259 -2.53235 0
M  V30 4682 H 450.371 0.820229 -3.83425 0
M  V30 4683 H 451.861 1.80793 -3.76435 0
M  V30 4684 N 452.299 1.55045 -0.282633 0
M  V30 4685 C 453.715 1.59441 0.0712997 0
M  V30 4686 C 453.915 1.2998 1.53972 0
M  V30 4687 O 452.971 1.06431 2.28973 0
M  V30 4688 C 454.284 2.99097 -0.310104 0
M  V30 4689 C 455.832 3.1194 -0.257343 0
M  V30 4690 C 456.307 4.53875 -0.613297 0
M  V30 4691 N 457.798 4.5974 -0.565134 0
M  V30 4692 C 458.533 5.67603 -0.81326 0
M  V30 4693 N 458.029 6.83582 -1.1264 0
M  V30 4694 N 459.822 5.57187 -0.741553 0
M  V30 4695 H 451.973 1.72458 -1.23984 0
M  V30 4696 H 454.236 0.804549 -0.501403 0
M  V30 4697 H 453.942 3.25516 -1.33163 0
M  V30 4698 H 453.816 3.75616 0.345366 0
M  V30 4699 H 456.203 2.85281 0.754905 0
M  V30 4700 H 456.284 2.37618 -0.947178 0
M  V30 4701 H 455.928 4.81261 -1.62327 0
M  V30 4702 H 455.858 5.26508 0.09841 0
M  V30 4703 H 458.349 3.76427 -0.333294 0
M  V30 4704 H 458.662 7.6175 -1.30219 0
M  V30 4705 H 457.007 6.85179 -1.16425 0
M  V30 4706 H 460.198 4.65457 -0.496705 0
M  V30 4707 H 460.371 6.41171 -0.938306 0
M  V30 4708 N 453.777 0.010035 1.57597 0
M  V30 4709 C 455.193 -0.346164 1.55801 0
M  V30 4710 C 455.393 -1.74144 1.01371 0
M  V30 4711 O 454.449 -2.43938 0.651968 0
M  V30 4712 C 455.762 -0.212216 2.9995 0
M  V30 4713 C 457.31 -0.286409 3.11687 0
M  V30 4714 C 457.785 -0.18147 4.5764 0
M  V30 4715 N 459.276 -0.239056 4.62583 0
M  V30 4716 C 460.011 -0.181351 5.73113 0
M  V30 4717 N 459.507 -0.073661 6.92761 0
M  V30 4718 N 461.3 -0.233949 5.61613 0
M  V30 4719 H 453.451 0.922657 1.91313 0
M  V30 4720 H 455.714 0.354595 0.879185 0
M  V30 4721 H 455.42 0.748169 3.4365 0
M  V30 4722 H 455.294 -0.990224 3.6397 0
M  V30 4723 H 457.681 -1.23724 2.67911 0
M  V30 4724 H 457.762 0.521645 2.50425 0
M  V30 4725 H 457.406 0.765863 5.02093 0
M  V30 4726 H 457.336 -1.00814 5.1686 0
M  V30 4727 H 459.827 -0.32321 3.76515 0
M  V30 4728 H 460.14 -0.0358003 7.72792 0
M  V30 4729 H 458.485 -0.0391461 6.94989 0
M  V30 4730 H 461.676 -0.316347 4.6703 0
M  V30 4731 H 461.849 -0.185514 6.47734 0
M  V30 4732 N 455.255 -1.55392 -0.262866 0
M  V30 4733 C 456.185 -1.91978 -1.32917 0
M  V30 4734 C 457.166 -0.7828 -1.51017 0
M  V30 4735 O 458.351 -1.04178 -1.63892 0
M  V30 4736 C 455.481 -2.20055 -2.68687 0
M  V30 4737 C 454.435 -3.35854 -2.65304 0
M  V30 4738 C 453.761 -3.49435 -4.04721 0
M  V30 4739 C 455.061 -4.71977 -2.23685 0
M  V30 4740 H 456.755 -2.81292 -1.02544 0
M  V30 4741 H 454.301 -1.3534 -0.491846 0
M  V30 4742 H 456.254 -2.44237 -3.43404 0
M  V30 4743 H 454.978 -1.27551 -3.00663 0
M  V30 4744 H 453.637 -3.11655 -1.93045 0
M  V30 4745 H 453.285 -2.54379 -4.33936 0
M  V30 4746 H 452.985 -4.27297 -4.0335 0
M  V30 4747 H 454.509 -3.7592 -4.81161 0
M  V30 4748 H 455.923 -4.95637 -2.88127 0
M  V30 4749 H 454.32 -5.52828 -2.33456 0
M  V30 4750 H 455.39 -4.70115 -1.18827 0
M  V30 4751 N 456.733 0.527833 -1.48498 0
M  V30 4752 C 457.979 1.28295 -1.57836 0
M  V30 4753 C 458.334 1.9077 -0.249943 0
M  V30 4754 O 457.627 1.76421 0.747402 0
M  V30 4755 C 457.821 2.39275 -2.65485 0
M  V30 4756 C 457.65 1.87679 -4.08664 0
M  V30 4757 C 456.42 1.70187 -4.75778 0
M  V30 4758 C 458.618 1.40409 -4.94762 0
M  V30 4759 N 456.6 1.13238 -6.03366 0
M  V30 4760 C 457.971 0.954216 -6.12613 0
M  V30 4761 C 460.026 1.28732 -4.8097 0
M  V30 4762 C 458.729 0.39915 -7.18192 0
M  V30 4763 C 460.755 0.746244 -5.86673 0
M  V30 4764 C 460.117 0.306457 -7.03733 0
M  V30 4765 H 456.216 0.460408 -0.632099 0
M  V30 4766 H 458.8 0.594913 -1.85388 0
M  V30 4767 H 456.971 3.05572 -2.3975 0
M  V30 4768 H 458.703 3.06308 -2.64495 0
M  V30 4769 H 455.458 1.93772 -4.32145 0
M  V30 4770 H 455.882 0.867687 -6.71417 0
M  V30 4771 H 460.524 1.61338 -3.90807 0
M  V30 4772 H 458.242 0.0607678 -8.08077 0
M  V30 4773 H 461.828 0.659041 -5.78055 0
M  V30 4774 H 460.708 -0.105708 -7.84129 0
M  V30 4775 N 458.211 1.37122 0.776871 0
M  V30 4776 C 459.174 1.32301 1.8716 0
M  V30 4777 C 460.174 0.228099 1.59174 0
M  V30 4778 O 461.364 0.483642 1.67352 0
M  V30 4779 C 458.496 1.054 3.24197 0
M  V30 4780 H 459.689 2.29673 1.92848 0
M  V30 4781 H 457.242 1.22077 0.97606 0
M  V30 4782 H 457.977 0.0853872 3.24188 0
M  V30 4783 H 457.762 1.84648 3.45901 0
M  V30 4784 H 459.252 1.04664 4.04271 0
M  V30 4785 N 459.689 -1.00246 1.21608 0
M  V30 4786 C 460.599 -2.12515 0.993709 0
M  V30 4787 C 461.615 -1.73913 -0.0549939 0
M  V30 4788 O 462.791 -2.00943 0.135619 0
M  V30 4789 C 459.856 -3.42083 0.563953 0
M  V30 4790 C 458.917 -3.94843 1.68516 0
M  V30 4791 C 458.15 -5.18226 1.27582 0
M  V30 4792 O 458.373 -5.70201 0.150506 0
M  V30 4793 O 457.307 -5.64497 2.0887 0
M  V30 4794 H 461.133 -2.34152 1.93407 0
M  V30 4795 H 458.718 -1.10891 1.00118 0
M  V30 4796 H 460.6 -4.20073 0.334194 0
M  V30 4797 H 459.275 -3.21828 -0.347665 0
M  V30 4798 H 458.182 -3.18068 1.96935 0
M  V30 4799 H 459.515 -4.19512 2.5743 0
M  V30 4800 N 461.167 -1.02423 -1.1978 0
M  V30 4801 C 462.392 -0.7373 -1.93852 0
M  V30 4802 C 462.817 0.696923 -1.74713 0
M  V30 4803 O 462.175 1.48056 -1.04638 0
M  V30 4804 C 462.223 -1.08783 -3.438 0
M  V30 4805 O 461.327 -0.20383 -4.11896 0
M  V30 4806 H 460.668 -0.27284 -0.605355 0
M  V30 4807 H 463.198 -1.36966 -1.51992 0
M  V30 4808 H 463.208 -1.04276 -3.9445 0
M  V30 4809 H 461.883 -2.13274 -3.57053 0
M  V30 4810 H 460.46 -0.307091 -3.71633 0
M  V30 4811 N 462.645 1.35699 -0.801477 0
M  V30 4812 C 463.608 2.28199 -0.213994 0
M  V30 4813 C 464.608 1.49359 0.595691 0
M  V30 4814 O 465.798 1.69186 0.414921 0
M  V30 4815 C 462.93 3.33587 0.702297 0
M  V30 4816 H 464.123 2.81666 -1.02976 0
M  V30 4817 H 461.676 1.45467 -0.571759 0
M  V30 4818 H 462.411 2.85297 1.54195 0
M  V30 4819 H 462.196 3.91906 0.123484 0
M  V30 4820 H 463.686 4.02638 1.10783 0
M  V30 4821 N 464.123 0.554532 1.47522 0
M  V30 4822 C 465.539 0.214107 1.58157 0
M  V30 4823 C 465.739 -1.28331 1.55349 0
M  V30 4824 O 464.795 -2.06329 1.45549 0
M  V30 4825 C 466.108 0.838391 2.88776 0
M  V30 4826 C 467.656 0.809374 3.02354 0
M  V30 4827 C 468.131 1.41268 4.35669 0
M  V30 4828 N 469.622 1.37574 4.42298 0
M  V30 4829 C 470.357 1.8122 5.4401 0
M  V30 4830 N 469.853 2.3271 6.52547 0
M  V30 4831 N 471.646 1.72307 5.35039 0
M  V30 4832 H 463.797 1.52744 1.4759 0
M  V30 4833 H 466.06 0.636812 0.702264 0
M  V30 4834 H 465.766 1.89065 2.96559 0
M  V30 4835 H 465.64 0.329847 3.75755 0
M  V30 4836 H 468.027 -0.234187 2.94169 0
M  V30 4837 H 468.108 1.35565 2.16924 0
M  V30 4838 H 467.752 2.45529 4.4461 0
M  V30 4839 H 467.682 0.841871 5.19827 0
M  V30 4840 H 470.173 0.999081 3.64454 0
M  V30 4841 H 470.486 2.63944 7.26329 0
M  V30 4842 H 468.831 2.36719 6.53444 0
M  V30 4843 H 472.022 1.3186 4.49144 0
M  V30 4844 H 472.195 2.06641 6.14169 0
M  V30 4845 N 465.601 -1.54893 0.290851 0
M  V30 4846 C 466.531 -2.26103 -0.583084 0
M  V30 4847 C 467.512 -1.25684 -1.14619 0
M  V30 4848 O 468.697 -1.54436 -1.17741 0
M  V30 4849 C 465.827 -2.99409 -1.75987 0
M  V30 4850 C 464.781 -4.0689 -1.32758 0
M  V30 4851 C 464.107 -4.67856 -2.58872 0
M  V30 4852 C 465.407 -5.20215 -0.46624 0
M  V30 4853 H 467.101 -2.99398 0.0108214 0
M  V30 4854 H 464.647 -1.43998 0.00664468 0
M  V30 4855 H 466.6 -3.47943 -2.37727 0
M  V30 4856 H 465.324 -2.23675 -2.37985 0
M  V30 4857 H 463.983 -3.59191 -0.733299 0
M  V30 4858 H 463.631 -3.88772 -3.19163 0
M  V30 4859 H 463.331 -5.40438 -2.30653 0
M  V30 4860 H 464.855 -5.19147 -3.21433 0
M  V30 4861 H 466.269 -5.64704 -0.989047 0
M  V30 4862 H 464.666 -5.99455 -0.27826 0
M  V30 4863 H 465.736 -4.82198 0.511173 0
M  V30 4864 N 467.08 -0.0183926 -1.57589 0
M  V30 4865 C 468.326 0.663543 -1.91638 0
M  V30 4866 C 468.659 1.72392 -0.894134 0
M  V30 4867 O 467.934 1.94316 0.0846449 0
M  V30 4868 C 468.217 1.28984 -3.36207 0
M  V30 4869 C 468.07 0.239761 -4.49161 0
M  V30 4870 C 469.389 2.2109 -3.80536 0
M  V30 4871 H 466.508 0.239746 -0.696915 0
M  V30 4872 H 469.15 -0.073456 -1.89858 0
M  V30 4873 H 467.3 1.91799 -3.37854 0
M  V30 4874 H 468.972 -0.390119 -4.59647 0
M  V30 4875 H 467.215 -0.435972 -4.31604 0
M  V30 4876 H 467.886 0.717383 -5.47319 0
M  V30 4877 H 470.362 1.68273 -3.80557 0
M  V30 4878 H 469.238 2.61869 -4.82406 0
M  V30 4879 H 469.499 3.09764 -3.15434 0
M  V30 4880 N 468.558 1.5553 0.254621 0
M  V30 4881 C 469.806 1.7665 0.981793 0
M  V30 4882 C 470.127 0.580963 1.86145 0
M  V30 4883 O 469.397 -0.403537 1.91699 0
M  V30 4884 H 467.977 0.651475 0.365498 0
M  V30 4885 H 470.639 1.92958 0.274426 0
M  V30 4886 H 469.735 2.67486 1.60802 0
M  V30 4887 N 470.036 -0.519951 1.48776 0
M  V30 4888 C 470.966 -1.63253 1.66945 0
M  V30 4889 C 471.947 -1.62014 0.518224 0
M  V30 4890 O 473.132 -1.79053 0.751919 0
M  V30 4891 C 470.262 -3.0181 1.71836 0
M  V30 4892 C 469.216 -3.17911 2.8656 0
M  V30 4893 C 468.542 -4.5763 2.76548 0
M  V30 4894 C 469.842 -2.99729 4.27738 0
M  V30 4895 H 471.536 -1.48302 2.6009 0
M  V30 4896 H 469.082 -0.712026 1.25165 0
M  V30 4897 H 471.035 -3.79525 1.83135 0
M  V30 4898 H 469.759 -3.17806 0.752775 0
M  V30 4899 H 468.418 -2.42616 2.74833 0
M  V30 4900 H 468.066 -4.70476 1.77937 0
M  V30 4901 H 467.766 -4.69346 3.53536 0
M  V30 4902 H 469.29 -5.37431 2.89828 0
M  V30 4903 H 470.704 -3.67228 4.40246 0
M  V30 4904 H 469.101 -3.22932 5.05801 0
M  V30 4905 H 470.171 -1.96047 4.43502 0
M  V30 4906 N 471.514 -1.37532 -0.769588 0
M  V30 4907 C 472.424 -1.35668 -1.91393 0
M  V30 4908 C 473.44 -0.255954 -1.72107 0
M  V30 4909 O 474.616 -0.491704 -1.95305 0
M  V30 4910 C 471.681 -1.16481 -3.26547 0
M  V30 4911 C 470.742 -2.36212 -3.58472 0
M  V30 4912 C 469.975 -2.17932 -4.87177 0
M  V30 4913 O 470.198 -1.1647 -5.58382 0
M  V30 4914 O 469.132 -3.06167 -5.18214 0
M  V30 4915 H 472.958 -2.32055 -1.95918 0
M  V30 4916 H 470.543 -1.18284 -0.912641 0
M  V30 4917 H 472.425 -1.07778 -4.07384 0
M  V30 4918 H 471.1 -0.231687 -3.2287 0
M  V30 4919 H 470.007 -2.50488 -2.77861 0
M  V30 4920 H 471.34 -3.281 -3.66894 0
M  V30 4921 N 472.992 0.995999 -1.22138 0
M  V30 4922 C 473.955 2.06711 -0.990109 0
M  V30 4923 C 474.955 1.60744 0.0422978 0
M  V30 4924 O 476.145 1.73095 -0.195895 0
M  V30 4925 C 473.277 3.37288 -0.49491 0
M  V30 4926 H 474.47 2.28661 -1.94047 0
M  V30 4927 H 472.023 1.16711 -1.03963 0
M  V30 4928 H 472.758 3.21022 0.459948 0
M  V30 4929 H 472.543 3.71986 -1.23971 0
M  V30 4930 H 474.033 4.16103 -0.353253 0
M  V30 4931 N 474.47 1.03057 1.19235 0
M  V30 4932 C 475.881 0.757449 1.70645 0
M  V30 4933 C 476.232 -0.722735 1.82403 0
M  V30 4934 O 475.357 -1.56325 1.49638 0
M  V30 4935 C 475.952 1.36833 3.09939 0
M  V30 4936 C 474.511 1.14375 3.58602 0
M  V30 4937 C 473.658 1.46533 2.35422 0
M  V30 4938 H 476.609 1.19828 1.04052 0
M  V30 4939 H 476.63 0.766184 3.72706 0
M  V30 4940 H 476.142 2.44562 3.01349 0
M  V30 4941 H 474.243 0.0847542 3.72504 0
M  V30 4942 H 474.356 1.83366 4.42622 0
M  V30 4943 H 472.72 0.884712 2.38841 0
M  V30 4944 H 473.503 2.55349 2.2946 0
M  V30 4945 N 475.948 -1.35272 0.808662 0
M  V30 4946 C 477.173 -2.03477 0.401475 0
M  V30 4947 C 477.598 -1.60537 -0.980279 0
M  V30 4948 O 476.956 -0.78304 -1.63518 0
M  V30 4949 C 477.004 -3.57181 0.495354 0
M  V30 4950 O 476.108 -4.09474 -0.490397 0
M  V30 4951 H 475.449 -0.642561 0.167366 0
M  V30 4952 H 477.979 -1.72824 1.09512 0
M  V30 4953 H 477.989 -4.06356 0.365912 0
M  V30 4954 H 476.664 -3.87784 1.5032 0
M  V30 4955 H 475.241 -3.71516 -0.321023 0
M  V30 4956 N 477.426 -0.562348 -1.47226 0
M  V30 4957 C 478.672 -0.0402761 -2.0276 0
M  V30 4958 C 479.005 1.30823 -1.43523 0
M  V30 4959 O 478.28 1.85249 -0.592705 0
M  V30 4960 C 478.563 0.047311 -3.60069 0
M  V30 4961 C 478.416 -1.32865 -4.29729 0
M  V30 4962 C 479.735 0.758182 -4.3352 0
M  V30 4963 H 476.854 -0.0161105 -0.736824 0
M  V30 4964 H 479.496 -0.725628 -1.75598 0
M  V30 4965 H 477.646 0.630986 -3.83342 0
M  V30 4966 H 479.318 -1.95593 -4.17781 0
M  V30 4967 H 477.561 -1.90195 -3.89882 0
M  V30 4968 H 478.232 -1.22004 -5.38349 0
M  V30 4969 H 480.708 0.262546 -4.15271 0
M  V30 4970 H 479.584 0.78844 -5.43208 0
M  V30 4971 H 479.845 1.81537 -4.03109 0
M  V30 4972 N 478.904 1.54736 -0.299062 0
M  V30 4973 C 480.32 1.59507 0.0543849 0
M  V30 4974 C 480.52 1.31606 1.52585 0
M  V30 4975 O 479.576 1.08853 2.27832 0
M  V30 4976 C 480.889 2.98751 -0.34181 0
M  V30 4977 C 482.437 3.1165 -0.290414 0
M  V30 4978 C 482.912 4.53199 -0.661402 0
M  V30 4979 N 484.403 4.59114 -0.613863 0
M  V30 4980 C 485.138 5.66709 -0.873417 0
M  V30 4981 N 484.634 6.82349 -1.19884 0
M  V30 4982 N 486.427 5.56369 -0.800608 0
M  V30 4983 H 478.578 1.71133 -1.25806 0
M  V30 4984 H 480.841 0.799186 -0.509908 0
M  V30 4985 H 480.547 3.24085 -1.36608 0
M  V30 4986 H 480.421 3.75961 0.305508 0
M  V30 4987 H 482.808 2.86066 0.724605 0
M  V30 4988 H 482.889 2.366 -0.972327 0
M  V30 4989 H 482.533 4.79513 -1.67422 0
M  V30 4990 H 482.463 5.26583 0.0425612 0
M  V30 4991 H 484.954 3.76053 -0.3732 0
M  V30 4992 H 485.267 7.60326 -1.38291 0
M  V30 4993 H 483.612 6.83906 -1.23685 0
M  V30 4994 H 486.803 4.64904 -0.546045 0
M  V30 4995 H 486.976 6.40139 -1.00626 0
M  V30 4996 N 480.382 0.0267497 1.57577 0
M  V30 4997 C 481.292 -0.971633 2.13533 0
M  V30 4998 C 482.308 -1.35868 1.08701 0
M  V30 4999 O 483.484 -1.44058 1.40746 0
M  V30 5000 C 480.549 -2.23622 2.64941 0
M  V30 5001 C 479.61 -1.90982 3.8448 0
M  V30 5002 C 478.843 -3.11411 4.33427 0
M  V30 5003 O 479.066 -4.23992 3.81558 0
M  V30 5004 O 478 -2.93848 5.25297 0
M  V30 5005 H 481.826 -0.525853 2.99113 0
M  V30 5006 H 479.411 -0.193712 1.48139 0
M  V30 5007 H 481.293 -2.97864 2.98086 0
M  V30 5008 H 479.968 -2.67386 1.82446 0
M  V30 5009 H 478.875 -1.14132 3.56265 0
M  V30 5010 H 480.208 -1.52036 4.6813 0
M  V30 5011 N 481.861 -1.55662 -0.24637 0
M  V30 5012 C 482.793 -1.86811 -1.32794 0
M  V30 5013 C 483.806 -0.754413 -1.44265 0
M  V30 5014 O 484.995 -1.03253 -1.45606 0
M  V30 5015 C 482.095 -2.0397 -2.70646 0
M  V30 5016 C 481.268 -3.34832 -2.81436 0
M  V30 5017 C 480.327 -3.41727 -4.00136 0
M  V30 5018 O 479.353 -4.14934 -3.89639 0
M  V30 5019 N 480.555 -2.71058 -5.1333 0
M  V30 5020 H 483.32 -2.80174 -1.06409 0
M  V30 5021 H 480.881 -1.55906 -0.43647 0
M  V30 5022 H 482.873 -2.05924 -3.48393 0
M  V30 5023 H 481.443 -1.1735 -2.89738 0
M  V30 5024 H 480.663 -3.4519 -1.90361 0
M  V30 5025 H 481.951 -4.21085 -2.85595 0
M  V30 5026 H 481.349 -2.11314 -5.2475 0
M  V30 5027 H 479.906 -2.78704 -5.89209 0
M  V30 5028 N 483.339 0.512053 -1.4905 0
M  V30 5029 C 484.75 1.09376 -1.51307 0
M  V30 5030 C 485.101 1.94 -0.292971 0
M  V30 5031 O 484.226 2.07965 0.598277 0
M  V30 5032 C 484.821 1.99031 -2.74176 0
M  V30 5033 C 483.38 2.52385 -2.79247 0
M  V30 5034 C 482.527 1.29749 -2.45073 0
M  V30 5035 H 485.478 0.296467 -1.55906 0
M  V30 5036 H 485.499 2.83569 -2.53711 0
M  V30 5037 H 485.011 1.37412 -3.62959 0
M  V30 5038 H 483.112 3.17673 -1.94716 0
M  V30 5039 H 483.225 2.90293 -3.81139 0
M  V30 5040 H 481.589 1.61912 -1.96612 0
M  V30 5041 H 482.372 0.698555 -3.36118 0
M  V30 5042 N 484.817 1.37938 0.762283 0
M  V30 5043 C 485.747 1.37176 1.88958 0
M  V30 5044 C 486.728 0.238945 1.68413 0
M  V30 5045 O 487.913 0.440726 1.89133 0
M  V30 5046 C 485.043 1.18742 3.2637 0
M  V30 5047 C 483.997 2.29136 3.61498 0
M  V30 5048 C 483.323 1.95816 4.97554 0
M  V30 5049 C 484.623 3.71363 3.6727 0
M  V30 5050 H 486.317 2.31509 1.89853 0
M  V30 5051 H 483.863 1.11438 0.912005 0
M  V30 5052 H 485.816 1.16837 4.04879 0
M  V30 5053 H 484.54 0.208683 3.25933 0
M  V30 5054 H 483.199 2.30213 2.85303 0
M  V30 5055 H 482.847 0.964475 4.93667 0
M  V30 5056 H 482.547 2.69745 5.22026 0
M  V30 5057 H 484.071 1.95513 5.78452 0
M  V30 5058 H 485.485 3.72364 4.35911 0
M  V30 5059 H 483.882 4.44425 4.03245 0
M  V30 5060 H 484.952 4.04305 2.67704 0
M  V30 5061 N 486.295 -0.989507 1.22664 0
M  V30 5062 C 487.706 -1.54406 1.04955 0
M  V30 5063 C 488.057 -1.92366 -0.385951 0
M  V30 5064 O 487.182 -1.75111 -1.27142 0
M  V30 5065 C 487.777 -2.80578 1.89899 0
M  V30 5066 C 486.336 -3.32464 1.76478 0
M  V30 5067 C 485.483 -2.05524 1.86159 0
M  V30 5068 H 488.434 -0.810211 1.3646 0
M  V30 5069 H 488.455 -3.53075 1.4184 0
M  V30 5070 H 487.967 -2.52918 2.94371 0
M  V30 5071 H 486.068 -3.65024 0.747528 0
M  V30 5072 H 486.181 -4.02838 2.59342 0
M  V30 5073 H 484.545 -2.19241 1.29636 0
M  V30 5074 H 485.328 -1.80258 2.92168 0
M  V30 5075 N 487.773 -1.03688 -1.18687 0
M  V30 5076 C 489.189 -0.755413 -1.4059 0
M  V30 5077 C 489.389 0.656659 -1.905 0
M  V30 5078 O 488.445 1.42144 -2.08689 0
M  V30 5079 C 489.758 -1.7983 -2.41001 0
M  V30 5080 C 491.306 -1.81877 -2.54735 0
M  V30 5081 C 491.781 -2.85148 -3.58406 0
M  V30 5082 N 493.272 -2.84015 -3.6591 0
M  V30 5083 C 494.007 -3.60573 -4.45841 0
M  V30 5084 N 493.503 -4.46871 -5.29413 0
M  V30 5085 N 495.296 -3.49079 -4.40568 0
M  V30 5086 H 487.447 -1.94818 -0.846148 0
M  V30 5087 H 489.71 -0.842727 -0.434184 0
M  V30 5088 H 489.416 -2.81097 -2.1137 0
M  V30 5089 H 489.29 -1.62727 -3.40294 0
M  V30 5090 H 491.677 -0.812836 -2.83685 0
M  V30 5091 H 491.758 -2.03057 -1.55568 0
M  V30 5092 H 491.402 -3.85918 -3.30197 0
M  V30 5093 H 491.332 -2.61224 -4.57241 0
M  V30 5094 H 493.823 -2.21431 -3.0623 0
M  V30 5095 H 494.136 -5.02007 -5.87545 0
M  V30 5096 H 492.481 -4.5094 -5.28846 0
M  V30 5097 H 495.672 -2.81066 -3.74325 0
M  V30 5098 H 495.845 -4.08994 -5.02621 0
M  V30 5099 O 489.29 1.30511 -0.951271 0
M  V30 5100 H 489.981 1.84711 -0.583235 0
M  V30 END ATOM
M  V30 BEGIN BOND
M  V30 END BOND
M  V30 END CTAB
M  END
$$$$
