drugbank_target|P22607 Fibroblast growth factor receptor 3 (DB05014; DB06589; DB08901; DB09078; DB09079; DB12010; DB12147; DB15102; DB15685)
 OpenBabel12092120063D

  0  0  0     0  0            999 V3000
M  V30 BEGIN CTAB
M  V30 COUNTS 12250 12392 0 0 0
M  V30 BEGIN ATOM
M  V30 1 H -0.908 1.98254 -0.117106 0
M  V30 2 N 0 1.576 0 0
M  V30 3 C 0.933 2.03868 1.02534 0
M  V30 4 C 1.911 0.928543 1.3348 0
M  V30 5 O 3.095 1.19667 1.45644 0
M  V30 6 C 0.222 2.43627 2.35294 0
M  V30 7 C -0.732 3.65373 2.2001 0
M  V30 8 S 0.101 5.13292 1.52614 0
M  V30 9 C 1.257 5.56322 2.86805 0
M  V30 10 H 1.49 2.90518 0.631377 0
M  V30 11 H -0.977 1.52953 0.210867 0
M  V30 12 H 0.981 2.67203 3.11629 0
M  V30 13 H -0.358 1.57376 2.7183 0
M  V30 14 H -1.165 3.90944 3.18086 0
M  V30 15 H -1.563 3.418 1.51819 0
M  V30 16 H 0.729 5.58782 3.83104 0
M  V30 17 H 1.672 6.56266 2.65933 0
M  V30 18 H 2.08 4.83886 2.90714 0
M  V30 19 N 1.4781 -0.272755 1.55222 0
M  V30 20 C 2.7261 -1.00234 1.75492 0
M  V30 21 C 3.0471 -1.8681 0.5592 0
M  V30 22 O 2.3171 -1.91215 -0.425882 0
M  V30 23 H 0.8971 -0.373076 0.647166 0
M  V30 24 H 3.5591 -0.296926 1.92625 0
M  V30 25 H 2.6551 -1.63913 2.65592 0
M  V30 26 N 2.9562 -1.48159 -0.537278 0
M  V30 27 C 3.9192 -1.61665 -1.62472 0
M  V30 28 C 4.9192 -0.490395 -1.5314 0
M  V30 29 O 6.1092 -0.755998 -1.5694 0
M  V30 30 C 3.2412 -1.57997 -3.02076 0
M  V30 31 H 4.4342 -2.58621 -1.51839 0
M  V30 32 H 1.9872 -1.36647 -0.758771 0
M  V30 33 H 2.7222 -0.624913 -3.18222 0
M  V30 34 H 2.5072 -2.39755 -3.10258 0
M  V30 35 H 3.9972 -1.70627 -3.81151 0
M  V30 36 N 4.4343 0.785586 -1.36625 0
M  V30 37 C 5.8453 1.36101 -1.27803 0
M  V30 38 C 6.1963 1.96035 0.0804875 0
M  V30 39 O 5.3213 1.92834 0.982042 0
M  V30 40 C 5.9163 2.47442 -2.31426 0
M  V30 41 C 4.4753 3.00789 -2.26281 0
M  V30 42 C 3.6223 1.73896 -2.15999 0
M  V30 43 H 6.5733 0.586928 -1.47448 0
M  V30 44 H 6.5943 3.2656 -1.95291 0
M  V30 45 H 6.1063 2.03791 -3.30289 0
M  V30 46 H 4.2073 3.48851 -1.30896 0
M  V30 47 H 4.3203 3.57343 -3.19128 0
M  V30 48 H 2.6843 1.9628 -1.62316 0
M  V30 49 H 3.4673 1.32368 -3.16755 0
M  V30 50 N 5.9124 1.20967 1.01018 0
M  V30 51 C 6.8754 0.965918 2.07853 0
M  V30 52 C 7.8754 -0.0610545 1.60684 0
M  V30 53 O 9.0654 0.175681 1.73312 0
M  V30 54 C 6.1974 0.455513 3.37843 0
M  V30 55 H 7.3904 1.91365 2.3091 0
M  V30 56 H 4.9434 1.02594 1.17916 0
M  V30 57 H 5.6784 -0.497381 3.20463 0
M  V30 58 H 5.4634 1.19622 3.73407 0
M  V30 59 H 6.9534 0.304667 4.16487 0
M  V30 60 N 7.3905 -1.2043 1.01659 0
M  V30 61 C 8.6305 -1.91507 0.714456 0
M  V30 62 C 8.9945 -1.77073 -0.742237 0
M  V30 63 O 10.1955 -2.42631 -1.15688 0
M  V30 64 C 8.4665 -3.38795 1.13809 0
M  V30 65 S 10.0255 -4.28216 0.957925 0
M  V30 66 H 6.8435 -0.661571 0.260471 0
M  V30 67 H 9.4455 -1.45671 1.30384 0
M  V30 68 H 8.1495 -3.46822 2.19415 0
M  V30 69 H 7.6805 -3.89656 0.541474 0
M  V30 70 H 9.6955 -4.96007 -0.138531 0
M  V30 71 N 8.8686 -0.792821 -1.36206 0
M  V30 72 C 9.8316 -0.199459 -2.2833 0
M  V30 73 C 10.8316 0.605189 -1.48977 0
M  V30 74 O 12.0216 0.425685 -1.68919 0
M  V30 75 C 9.1536 0.723523 -3.33134 0
M  V30 76 H 10.3466 -1.01181 -2.82316 0
M  V30 77 H 7.8996 -0.562485 -1.45828 0
M  V30 78 H 8.6346 1.56008 -2.84309 0
M  V30 79 H 8.4196 0.148436 -3.91819 0
M  V30 80 H 9.9096 1.13344 -4.01924 0
M  V30 81 N 10.3467 1.47872 -0.545128 0
M  V30 82 C 11.2767 2.32661 0.197793 0
M  V30 83 C 12.2577 1.43041 0.920504 0
M  V30 84 O 13.4427 1.71912 0.90333 0
M  V30 85 C 10.5727 3.24569 1.23582 0
M  V30 86 C 9.5267 4.23333 0.630323 0
M  V30 87 C 8.8527 5.0448 1.77211 0
M  V30 88 C 10.1527 5.20704 -0.407974 0
M  V30 89 H 11.8467 2.95024 -0.510045 0
M  V30 90 H 9.3927 1.4187 -0.246731 0
M  V30 91 H 11.3457 3.8272 1.76362 0
M  V30 92 H 10.0697 2.60236 1.97344 0
M  V30 93 H 8.7287 3.6639 0.123922 0
M  V30 94 H 8.3767 4.36561 2.49847 0
M  V30 95 H 8.0767 5.71339 1.37281 0
M  V30 96 H 9.6007 5.65487 2.3034 0
M  V30 97 H 11.0147 5.7329 0.033305 0
M  V30 98 H 9.4117 5.95699 -0.725486 0
M  V30 99 H 10.4817 4.66917 -1.30828 0
M  V30 100 N 11.8248 0.280983 1.55075 0
M  V30 101 C 12.7878 -0.590896 2.21452 0
M  V30 102 C 13.7878 -1.07682 1.19421 0
M  V30 103 O 14.9778 -0.97605 1.44288 0
M  V30 104 C 12.1098 -1.81587 2.88511 0
M  V30 105 H 13.3028 -0.0112554 2.99898 0
M  V30 106 H 10.8558 0.0316438 1.56268 0
M  V30 107 H 11.5908 -2.43587 2.14093 0
M  V30 108 H 11.3758 -1.4753 3.63287 0
M  V30 109 H 12.8658 -2.43575 3.39206 0
M  V30 110 N 13.3029 -1.57598 0.00835791 0
M  V30 111 C 14.2329 -2.1198 -0.979113 0
M  V30 112 C 15.2139 -1.03091 -1.35301 0
M  V30 113 O 16.3989 -1.30818 -1.43528 0
M  V30 114 C 13.5289 -2.62995 -2.26828 0
M  V30 115 C 12.4829 -3.76485 -2.03576 0
M  V30 116 C 11.8089 -4.13846 -3.38579 0
M  V30 117 C 13.1089 -5.0342 -1.39161 0
M  V30 118 H 14.8029 -2.94738 -0.526281 0
M  V30 119 H 12.3489 -1.41783 -0.251704 0
M  V30 120 H 14.3019 -2.99669 -2.96271 0
M  V30 121 H 13.0259 -1.7737 -2.7424 0
M  V30 122 H 11.6849 -3.40217 -1.36557 0
M  V30 123 H 11.3329 -3.25232 -3.83709 0
M  V30 124 H 11.0329 -4.90312 -3.23834 0
M  V30 125 H 12.5569 -4.53086 -4.09323 0
M  V30 126 H 13.9709 -5.37812 -1.98573 0
M  V30 127 H 12.3679 -5.84746 -1.34878 0
M  V30 128 H 13.4379 -4.83548 -0.361868 0
M  V30 129 N 14.781 0.264519 -1.55364 0
M  V30 130 C 16.021 1.00254 -1.78125 0
M  V30 131 C 16.385 1.83187 -0.575017 0
M  V30 132 O 17.586 2.60029 -0.681042 0
M  V30 133 C 15.857 1.85478 -3.05504 0
M  V30 134 S 17.416 2.6543 -3.49417 0
M  V30 135 H 14.234 0.337522 -0.625779 0
M  V30 136 H 16.836 0.272111 -1.93597 0
M  V30 137 H 15.54 1.23491 -3.9138 0
M  V30 138 H 15.071 2.62827 -2.92721 0
M  V30 139 H 17.086 3.87958 -3.09359 0
M  V30 140 N 16.2591 1.48442 0.529413 0
M  V30 141 C 17.5051 1.5672 1.28711 0
M  V30 142 C 17.8381 0.2406 1.92704 0
M  V30 143 O 17.1131 -0.753454 1.79313 0
M  V30 144 C 17.3961 2.70587 2.37603 0
M  V30 145 C 17.2491 4.12953 1.78297 0
M  V30 146 C 18.5681 2.80212 3.39366 0
M  V30 147 H 15.6871 0.570474 0.466613 0
M  V30 148 H 18.3291 1.80617 0.589706 0
M  V30 149 H 16.4791 2.50342 2.97088 0
M  V30 150 H 18.1511 4.44639 1.22858 0
M  V30 151 H 16.3941 4.19927 1.0883 0
M  V30 152 H 17.0651 4.88448 2.57144 0
M  V30 153 H 19.5411 2.98553 2.89836 0
M  V30 154 H 18.4171 3.61611 4.12951 0
M  V30 155 H 18.6781 1.88393 3.99951 0
M  V30 156 N 17.7372 -0.778329 1.37039 0
M  V30 157 C 18.7002 -1.87301 1.32102 0
M  V30 158 C 19.7002 -1.59198 0.226405 0
M  V30 159 O 20.8902 -1.67403 0.481861 0
M  V30 160 C 18.0222 -3.24309 1.05055 0
M  V30 161 H 19.2152 -1.93093 2.29467 0
M  V30 162 H 16.7682 -0.977358 1.21973 0
M  V30 163 H 17.5032 -3.24196 0.0819373 0
M  V30 164 H 17.2882 -3.46098 1.84279 0
M  V30 165 H 18.7782 -4.04382 1.04234 0
M  V30 166 N 19.2153 -1.21501 -1.00376 0
M  V30 167 C 20.4613 -1.03452 -1.74429 0
M  V30 168 C 20.7943 0.430764 -1.89362 0
M  V30 169 O 20.0693 1.31962 -1.42886 0
M  V30 170 C 20.3523 -1.73375 -3.15615 0
M  V30 171 C 20.2053 -3.27431 -3.08397 0
M  V30 172 C 21.5243 -1.47732 -4.14564 0
M  V30 173 H 18.6433 -0.377226 -0.633143 0
M  V30 174 H 21.2853 -1.49693 -1.17013 0
M  V30 175 H 19.4353 -1.34064 -3.64636 0
M  V30 176 H 21.1073 -3.76119 -2.67081 0
M  V30 177 H 19.3503 -3.5767 -2.45468 0
M  V30 178 H 20.0213 -3.71524 -4.08258 0
M  V30 179 H 22.4973 -1.8186 -3.74254 0
M  V30 180 H 21.3733 -1.99169 -5.11491 0
M  V30 181 H 21.6343 -0.407589 -4.40217 0
M  V30 182 N 20.6934 1.19889 -1.02296 0
M  V30 183 C 21.6564 2.21116 -0.603351 0
M  V30 184 C 22.6564 1.5738 0.329884 0
M  V30 185 O 23.8464 1.73802 0.117702 0
M  V30 186 C 20.9784 3.40696 0.117992 0
M  V30 187 H 22.1714 2.59754 -1.49893 0
M  V30 188 H 19.7244 1.33463 -0.813468 0
M  V30 189 H 20.4594 3.07569 1.0282 0
M  V30 190 H 20.2444 3.88188 -0.552511 0
M  V30 191 H 21.7344 4.15692 0.398696 0
M  V30 192 N 22.1715 0.800033 1.35784 0
M  V30 193 C 23.4205 0.37387 1.98205 0
M  V30 194 C 23.7335 -1.06302 1.64193 0
M  V30 195 O 24.9395 -1.59198 2.19928 0
M  V30 196 C 23.3955 0.617532 3.54562 0
M  V30 197 C 23.0035 2.06654 3.9749 0
M  V30 198 C 24.7475 0.256401 4.23725 0
M  V30 199 C 22.6545 2.2563 5.46667 0
M  V30 200 H 21.5845 0.136055 0.741623 0
M  V30 201 H 24.2355 0.983166 1.54939 0
M  V30 202 H 22.6175 -0.0616248 3.95952 0
M  V30 203 H 23.7915 2.78296 3.67271 0
M  V30 204 H 22.1065 2.38691 3.41197 0
M  V30 205 H 24.7035 0.376318 5.33374 0
M  V30 206 H 25.0465 -0.796692 4.08606 0
M  V30 207 H 25.5795 0.889214 3.87734 0
M  V30 208 H 22.3185 3.2936 5.66747 0
M  V30 209 H 21.8385 1.58504 5.78478 0
M  V30 210 H 23.5175 2.06861 6.1304 0
M  V30 211 N 23.6496 -1.47581 0.552962 0
M  V30 212 C 24.8956 -2.02782 0.0273648 0
M  V30 213 C 25.2286 -1.42687 -1.31734 0
M  V30 214 O 24.5036 -0.580897 -1.85623 0
M  V30 215 C 24.7866 -3.60031 -0.0702371 0
M  V30 216 C 24.6396 -4.30566 1.30126 0
M  V30 217 C 25.9586 -4.33028 -0.785771 0
M  V30 218 H 23.0776 -0.736912 0.0114185 0
M  V30 219 H 25.7196 -1.76056 0.714432 0
M  V30 220 H 23.8696 -3.82932 -0.655382 0
M  V30 221 H 25.5416 -4.19018 1.92929 0
M  V30 222 H 23.7846 -3.91086 1.87709 0
M  V30 223 H 24.4556 -5.39114 1.18573 0
M  V30 224 H 26.9316 -4.15095 -0.288982 0
M  V30 225 H 25.8076 -5.42695 -0.823013 0
M  V30 226 H 26.0686 -4.01945 -1.841 0
M  V30 227 N 25.1277 -0.289203 -1.54924 0
M  V30 228 C 26.0907 0.579144 -2.21762 0
M  V30 229 C 27.0907 1.07047 -1.1999 0
M  V30 230 O 28.2807 0.968384 -1.44803 0
M  V30 231 C 25.4127 1.80055 -2.8947 0
M  V30 232 H 26.6057 -0.00464908 -2.999 0
M  V30 233 H 24.1587 -0.0399306 -1.56249 0
M  V30 234 H 24.8937 2.42449 -2.15381 0
M  V30 235 H 24.6787 1.45602 -3.64064 0
M  V30 236 H 26.1687 2.41773 -3.40493 0
M  V30 237 N 26.6058 1.57591 -0.0167156 0
M  V30 238 C 27.8538 1.90906 0.663285 0
M  V30 239 C 28.1748 0.892509 1.73376 0
M  V30 240 O 27.4448 -0.0677623 1.95783 0
M  V30 241 H 26.0248 0.704637 0.247983 0
M  V30 242 H 28.6868 1.94803 -0.0615909 0
M  V30 243 H 27.7828 2.9116 1.12393 0
M  V30 244 N 28.0839 -0.256276 1.55502 0
M  V30 245 C 29.0469 -1.30047 1.88734 0
M  V30 246 C 30.0469 -1.4154 0.763086 0
M  V30 247 O 31.2369 -1.40403 1.03115 0
M  V30 248 C 28.3689 -2.67953 2.10747 0
M  V30 249 H 29.5619 -1.01802 2.82093 0
M  V30 250 H 27.1149 -0.495134 1.4825 0
M  V30 251 H 27.8499 -3.01351 1.19825 0
M  V30 252 H 27.6349 -2.60993 2.92617 0
M  V30 253 H 29.1249 -3.43368 2.37673 0
M  V30 254 N 29.562 -1.4872 -0.521534 0
M  V30 255 C 30.787 -1.61101 -1.30618 0
M  V30 256 C 31.212 -0.274611 -1.86085 0
M  V30 257 O 30.57 0.754937 -1.64834 0
M  V30 258 C 30.618 -2.66709 -2.4269 0
M  V30 259 O 29.722 -2.24456 -3.45967 0
M  V30 260 H 29.063 -0.539921 -0.386499 0
M  V30 261 H 31.593 -1.94767 -0.626645 0
M  V30 262 H 31.603 -2.88245 -2.88754 0
M  V30 263 H 30.278 -3.63727 -2.01682 0
M  V30 264 H 28.855 -2.13168 -3.05964 0
M  V30 265 N 31.0401 0.771051 -1.3745 0
M  V30 266 C 32.2651 1.56529 -1.36065 0
M  V30 267 C 32.6901 1.88029 0.0515859 0
M  V30 268 O 32.0481 1.49282 1.02882 0
M  V30 269 C 32.0961 2.85187 -2.20683 0
M  V30 270 O 31.2001 3.79593 -1.61193 0
M  V30 271 H 30.5411 0.47411 -0.464883 0
M  V30 272 H 33.0711 0.954269 -1.80983 0
M  V30 273 H 33.0811 3.34283 -2.33921 0
M  V30 274 H 31.7561 2.61588 -3.23334 0
M  V30 275 H 30.3331 3.38239 -1.56999 0
M  V30 276 N 32.5182 1.22032 0.997298 0
M  V30 277 C 33.4282 1.00271 2.12092 0
M  V30 278 C 34.4442 -0.047621 1.73935 0
M  V30 279 O 35.6202 0.144136 2.00884 0
M  V30 280 C 32.6852 0.578449 3.4184 0
M  V30 281 C 31.7462 1.70189 3.94125 0
M  V30 282 C 30.9792 1.29778 5.17681 0
M  V30 283 O 31.2022 0.174676 5.70132 0
M  V30 284 O 30.1362 2.11261 5.63607 0
M  V30 285 H 33.9622 1.94398 2.3333 0
M  V30 286 H 31.5472 1.00587 1.10465 0
M  V30 287 H 33.4292 0.351998 4.19927 0
M  V30 288 H 32.1042 -0.334019 3.21972 0
M  V30 289 H 31.0112 1.98282 3.1723 0
M  V30 290 H 32.3442 2.59206 4.18417 0
M  V30 291 N 33.9963 -1.19345 1.0293 0
M  V30 292 C 35.2213 -1.93538 0.745511 0
M  V30 293 C 35.6463 -1.75007 -0.689511 0
M  V30 294 O 35.0043 -1.05265 -1.47611 0
M  V30 295 C 35.0523 -3.43336 1.10239 0
M  V30 296 O 34.1563 -4.11806 0.221289 0
M  V30 297 H 33.4973 -0.604193 0.275404 0
M  V30 298 H 36.0273 -1.5141 1.37609 0
M  V30 299 H 36.0373 -3.94004 1.05947 0
M  V30 300 H 34.7123 -3.56146 2.14786 0
M  V30 301 H 33.2893 -3.715 0.322842 0
M  V30 302 N 35.4744 -0.807222 -1.35358 0
M  V30 303 C 36.4044 -0.232509 -2.3234 0
M  V30 304 C 37.3854 0.642386 -1.57504 0
M  V30 305 O 38.5704 0.572526 -1.85569 0
M  V30 306 C 35.7004 0.619238 -3.41735 0
M  V30 307 C 34.6544 -0.157215 -4.27711 0
M  V30 308 C 33.9804 0.816273 -5.28433 0
M  V30 309 C 35.2804 -1.35656 -5.04376 0
M  V30 310 H 36.9744 -1.04276 -2.80654 0
M  V30 311 H 34.5204 -0.50288 -1.34934 0
M  V30 312 H 36.4734 1.03137 -4.08584 0
M  V30 313 H 35.1974 1.46239 -2.92031 0
M  V30 314 H 33.8564 -0.550525 -3.62443 0
M  V30 315 H 33.5044 1.65494 -4.74996 0
M  V30 316 H 33.2044 0.301067 -5.86828 0
M  V30 317 H 34.7284 1.22659 -5.98153 0
M  V30 318 H 36.1424 -1.01927 -5.64166 0
M  V30 319 H 34.5394 -1.8063 -5.7227 0
M  V30 320 H 35.6094 -2.14288 -4.34981 0
M  V30 321 N 36.9525 1.47285 -0.560781 0
M  V30 322 C 38.2005 2.02064 -0.0379868 0
M  V30 323 C 38.5215 1.43711 1.31803 0
M  V30 324 O 37.7915 0.61362 1.86042 0
M  V30 325 H 36.3715 0.746918 -0.0110531 0
M  V30 326 H 39.0335 1.80648 -0.731598 0
M  V30 327 H 38.1295 3.12064 0.0474463 0
M  V30 328 N 38.4306 0.297415 1.54768 0
M  V30 329 C 39.6586 -0.315623 2.04478 0
M  V30 330 C 40.0736 -1.47792 1.17486 0
M  V30 331 O 39.4306 -1.81404 0.19971 0
M  V30 332 C 39.4816 -0.7753 3.53088 0
M  V30 333 O 39.2026 0.340732 4.36773 0
M  V30 334 C 40.7036 -1.45386 4.18781 0
M  V30 335 H 37.9236 -0.0690887 0.667434 0
M  V30 336 H 40.4676 0.436003 1.99798 0
M  V30 337 H 38.6226 -1.47696 3.58141 0
M  V30 338 H 39.0366 -0.0165035 5.24497 0
M  V30 339 H 40.5106 -1.72669 5.24299 0
M  V30 340 H 40.9876 -2.39275 3.68299 0
M  V30 341 H 41.5936 -0.795475 4.17795 0
M  V30 342 N 39.9087 -1.5758 0.0250728 0
M  V30 343 C 40.8187 -2.1343 -0.973905 0
M  V30 344 C 41.8347 -1.08556 -1.35984 0
M  V30 345 O 43.0107 -1.40592 -1.44207 0
M  V30 346 C 40.0757 -2.64703 -2.23904 0
M  V30 347 C 39.1367 -3.84276 -1.91391 0
M  V30 348 C 38.3697 -4.33095 -3.11873 0
M  V30 349 O 38.5927 -3.81107 -4.24398 0
M  V30 350 O 37.5267 -5.24984 -2.94406 0
M  V30 351 H 41.3527 -2.99057 -0.529036 0
M  V30 352 H 38.9377 -1.48118 -0.195288 0
M  V30 353 H 40.8197 -2.97769 -2.98181 0
M  V30 354 H 39.4947 -1.82161 -2.6758 0
M  V30 355 H 38.4017 -3.56143 -1.14511 0
M  V30 356 H 39.7347 -4.67968 -1.52534 0
M  V30 357 N 41.3868 0.248026 -1.55636 0
M  V30 358 C 42.3188 1.32993 -1.8667 0
M  V30 359 C 43.3318 1.44345 -0.752877 0
M  V30 360 O 44.5208 1.45715 -1.03098 0
M  V30 361 C 41.6208 2.70863 -2.03682 0
M  V30 362 C 40.7938 2.81792 -3.34532 0
M  V30 363 C 39.8528 4.005 -3.41301 0
M  V30 364 O 38.8788 3.9008 -4.14519 0
M  V30 365 N 40.0808 5.13618 -2.70512 0
M  V30 366 H 42.8458 1.06707 -2.8006 0
M  V30 367 H 40.4068 0.438129 -1.55859 0
M  V30 368 H 42.3988 3.48612 -2.05553 0
M  V30 369 H 40.9688 2.89862 -1.17041 0
M  V30 370 H 40.1888 1.90729 -3.44987 0
M  V30 371 H 41.4768 2.86043 -4.20781 0
M  V30 372 H 40.8748 5.24975 -2.10755 0
M  V30 373 H 39.4318 5.89505 -2.78077 0
M  V30 374 N 42.8649 1.48995 0.513639 0
M  V30 375 C 44.2809 1.35478 0.843682 0
M  V30 376 C 44.4809 0.378213 1.97919 0
M  V30 377 O 43.5369 -0.194689 2.51748 0
M  V30 378 C 44.8499 2.75901 1.1958 0
M  V30 379 C 46.3979 2.84509 1.30474 0
M  V30 380 C 46.8729 4.25671 1.69021 0
M  V30 381 N 48.3639 4.28422 1.76094 0
M  V30 382 C 49.0989 5.34601 2.07338 0
M  V30 383 N 48.5949 6.5104 2.36894 0
M  V30 384 N 50.3879 5.22007 2.08483 0
M  V30 385 H 42.5389 2.11092 -0.235328 0
M  V30 386 H 44.8019 0.947039 -0.0426669 0
M  V30 387 H 44.5079 3.49001 0.434913 0
M  V30 388 H 44.3819 3.10467 2.1422 0
M  V30 389 H 46.7689 2.11655 2.05637 0
M  V30 390 H 46.8499 2.53542 0.339155 0
M  V30 391 H 46.4939 4.99048 0.944135 0
M  V30 392 H 46.4239 4.54094 2.66658 0
M  V30 393 H 48.9149 3.44441 1.55464 0
M  V30 394 H 49.2279 7.2779 2.59887 0
M  V30 395 H 47.5729 6.54287 2.34378 0
M  V30 396 H 50.7639 4.30051 1.84861 0
M  V30 397 H 50.9369 6.04854 2.325 0
M  V30 398 N 44.343 -0.763751 1.37857 0
M  V30 399 C 45.589 -1.52483 1.33704 0
M  V30 400 C 45.922 -1.94051 -0.0759612 0
M  V30 401 O 45.197 -1.64675 -1.03501 0
M  V30 402 C 45.48 -2.78441 2.28348 0
M  V30 403 C 45.333 -2.43075 3.78463 0
M  V30 404 C 46.652 -3.80415 2.21298 0
M  V30 405 H 43.771 -0.553169 0.487005 0
M  V30 406 H 46.413 -0.875562 1.68624 0
M  V30 407 H 44.563 -3.33842 1.987 0
M  V30 408 H 46.235 -1.93527 4.18742 0
M  V30 409 H 44.478 -1.75666 3.96641 0
M  V30 410 H 45.149 -3.33149 4.40132 0
M  V30 411 H 47.625 -3.34527 2.47449 0
M  V30 412 H 46.501 -4.66257 2.89647 0
M  V30 413 H 46.762 -4.25262 1.20849 0
M  V30 414 N 45.8211 -1.22559 -0.990812 0
M  V30 415 C 47.0671 -1.05297 -1.73322 0
M  V30 416 C 47.4001 0.410655 -1.89808 0
M  V30 417 O 46.6751 1.30439 -1.44277 0
M  V30 418 C 46.9581 -1.76713 -3.13759 0
M  V30 419 C 46.8111 -3.30684 -3.04907 0
M  V30 420 C 48.1301 -1.52121 -4.12974 0
M  V30 421 H 45.2491 -0.38392 -0.629106 0
M  V30 422 H 47.8911 -1.50926 -1.15418 0
M  V30 423 H 46.0411 -1.37924 -3.63193 0
M  V30 424 H 47.7131 -3.7893 -2.63077 0
M  V30 425 H 45.9561 -3.60253 -2.41661 0
M  V30 426 H 46.6271 -3.75833 -4.04294 0
M  V30 427 H 49.1031 -1.85819 -3.72304 0
M  V30 428 H 47.9791 -2.04582 -5.0935 0
M  V30 429 H 48.2401 -0.454257 -4.3976 0
M  V30 430 N 47.2992 1.18797 -1.03562 0
M  V30 431 C 48.5472 1.88278 -0.734569 0
M  V30 432 C 48.8682 1.8043 0.739586 0
M  V30 433 O 48.1382 1.21925 1.53333 0
M  V30 434 H 46.7182 0.696991 -0.268725 0
M  V30 435 H 49.3802 1.44192 -1.31129 0
M  V30 436 H 48.4762 2.94443 -1.03489 0
M  V30 437 N 48.7773 0.814389 1.34928 0
M  V30 438 C 50.1933 0.499084 1.51596 0
M  V30 439 C 50.3933 -0.978319 1.76157 0
M  V30 440 O 49.4493 -1.76309 1.80752 0
M  V30 441 C 50.7623 1.35121 2.68631 0
M  V30 442 C 52.3103 1.34746 2.82511 0
M  V30 443 C 52.7853 2.18388 4.0258 0
M  V30 444 N 54.2763 2.15966 4.09772 0
M  V30 445 C 55.0113 2.77437 5.01813 0
M  V30 446 N 54.5073 3.47866 5.99134 0
M  V30 447 N 56.3003 2.67037 4.94619 0
M  V30 448 H 48.4513 1.7711 1.17243 0
M  V30 449 H 50.7143 0.754256 0.574284 0
M  V30 450 H 50.4203 2.40001 2.57085 0
M  V30 451 H 50.2943 1.00991 3.63429 0
M  V30 452 H 52.6813 0.30648 2.93504 0
M  V30 453 H 52.7623 1.72869 1.88547 0
M  V30 454 H 52.4063 3.2253 3.92347 0
M  V30 455 H 52.3363 1.77621 4.9574 0
M  V30 456 H 54.8273 1.64729 3.40107 0
M  V30 457 H 55.1403 3.92038 6.65977 0
M  V30 458 H 53.4853 3.51972 5.99284 0
M  V30 459 H 56.6763 2.11597 4.17546 0
M  V30 460 H 56.8493 3.15232 5.66156 0
M  V30 461 N 50.2554 -1.46986 0.568584 0
M  V30 462 C 51.2184 -2.28624 -0.162366 0
M  V30 463 C 52.2184 -1.37596 -0.832103 0
M  V30 464 O 53.4084 -1.60115 -0.68622 0
M  V30 465 C 50.5404 -3.17596 -1.23878 0
M  V30 466 H 51.7334 -2.94722 0.554899 0
M  V30 467 H 49.2864 -1.52863 0.325976 0
M  V30 468 H 50.0214 -2.56214 -1.98808 0
M  V30 469 H 49.8064 -3.846 -0.763219 0
M  V30 470 H 51.2964 -3.79078 -1.75185 0
M  V30 471 N 51.7335 -0.305618 -1.54608 0
M  V30 472 C 52.6965 0.555591 -2.22364 0
M  V30 473 C 53.6965 1.05768 -1.21119 0
M  V30 474 O 54.8865 0.952972 -1.45822 0
M  V30 475 C 52.0185 1.76974 -2.91364 0
M  V30 476 H 53.2115 -0.0364572 -2.99878 0
M  V30 477 H 50.7645 -0.0565007 -1.56198 0
M  V30 478 H 51.4995 2.40151 -2.17941 0
M  V30 479 H 51.2845 1.41732 -3.65588 0
M  V30 480 H 52.7745 2.38148 -3.43038 0
M  V30 481 N 53.2116 1.57565 -0.0334293 0
M  V30 482 C 54.1216 2.13943 0.962572 0
M  V30 483 C 55.1376 1.09276 1.35406 0
M  V30 484 O 56.3136 1.41355 1.4346 0
M  V30 485 C 53.3786 2.65887 2.22497 0
M  V30 486 C 52.4396 3.85286 1.8935 0
M  V30 487 C 51.6726 4.34743 3.09571 0
M  V30 488 O 51.8956 3.83352 4.22371 0
M  V30 489 O 50.8296 5.26538 2.91618 0
M  V30 490 H 54.6556 2.99333 0.513169 0
M  V30 491 H 52.2406 1.4822 0.18743 0
M  V30 492 H 54.1226 2.99346 2.96598 0
M  V30 493 H 52.7976 1.83578 2.6661 0
M  V30 494 H 51.7046 3.56746 1.1262 0
M  V30 495 H 53.0376 4.68771 1.5005 0
M  V30 496 N 54.6897 -0.239769 1.55765 0
M  V30 497 C 55.9357 -0.968234 1.78194 0
M  V30 498 C 56.2687 -1.84701 0.599938 0
M  V30 499 O 55.5437 -1.9031 -0.401524 0
M  V30 500 C 55.8267 -1.8227 3.10564 0
M  V30 501 C 55.6797 -0.971633 4.3918 0
M  V30 502 C 56.9987 -2.80388 3.39221 0
M  V30 503 H 54.1177 -0.350572 0.648281 0
M  V30 504 H 56.7597 -0.238259 1.885 0
M  V30 505 H 54.9097 -2.44507 3.01908 0
M  V30 506 H 56.5817 -0.367408 4.59835 0
M  V30 507 H 54.8247 -0.276276 4.32919 0
M  V30 508 H 55.4957 -1.60346 5.28198 0
M  V30 509 H 57.9717 -2.28287 3.47885 0
M  V30 510 H 56.8477 -3.3729 4.33044 0
M  V30 511 H 57.1087 -3.57212 2.60484 0
M  V30 512 N 56.1678 -1.49265 -0.50573 0
M  V30 513 C 57.5788 -1.51769 -1.08734 0
M  V30 514 C 57.9298 -0.301192 -1.93874 0
M  V30 515 O 57.0548 0.589456 -2.08217 0
M  V30 516 C 57.6498 -2.75017 -1.97867 0
M  V30 517 C 56.2088 -2.80314 -2.51199 0
M  V30 518 C 55.3558 -2.4562 -1.28709 0
M  V30 519 H 58.3068 -1.56031 -0.289855 0
M  V30 520 H 58.3278 -2.5491 -2.82491 0
M  V30 521 H 57.8398 -3.63539 -1.35873 0
M  V30 522 H 55.9408 -1.96061 -3.16845 0
M  V30 523 H 56.0538 -3.82366 -2.88675 0
M  V30 524 H 54.4178 -1.97297 -1.61078 0
M  V30 525 H 55.2008 -3.36411 -0.6843 0
M  V30 526 N 57.6459 0.756429 -1.3826 0
M  V30 527 C 58.8939 1.51248 -1.34047 0
M  V30 528 C 59.2149 1.94875 0.0698372 0
M  V30 529 O 58.4849 1.67436 1.01696 0
M  V30 530 H 57.0649 0.561018 -0.493222 0
M  V30 531 H 59.7269 0.899347 -1.7291 0
M  V30 532 H 58.8229 2.40472 -1.98947 0
M  V30 533 N 59.124 1.23083 0.984299 0
M  V30 534 C 60.535 1.05609 1.5396 0
M  V30 535 C 60.886 -0.377793 1.92528 0
M  V30 536 O 60.011 -1.26398 1.75649 0
M  V30 537 C 60.606 1.91087 2.7977 0
M  V30 538 C 59.165 1.77885 3.31713 0
M  V30 539 C 58.312 1.87028 2.04733 0
M  V30 540 H 61.263 1.36802 0.804419 0
M  V30 541 H 61.284 1.43336 3.5247 0
M  V30 542 H 60.796 2.9544 2.51668 0
M  V30 543 H 58.897 0.762995 3.64704 0
M  V30 544 H 59.01 2.61047 4.01735 0
M  V30 545 H 57.374 1.30565 2.18689 0
M  V30 546 H 58.157 2.92929 1.79017 0
M  V30 547 N 60.6021 -1.18246 1.0419 0
M  V30 548 C 61.5121 -2.25574 0.644476 0
M  V30 549 C 62.5281 -1.70845 -0.329826 0
M  V30 550 O 63.7041 -2.00554 -0.184443 0
M  V30 551 C 60.7691 -3.46697 0.014877 0
M  V30 552 C 59.8301 -4.16554 1.03834 0
M  V30 553 C 59.0631 -5.31894 0.438692 0
M  V30 554 O 59.2861 -5.65385 -0.754752 0
M  V30 555 O 58.2201 -5.90459 1.168 0
M  V30 556 H 62.0461 -2.61836 1.53869 0
M  V30 557 H 59.6311 -1.25352 0.812854 0
M  V30 558 H 61.5131 -4.20062 -0.335538 0
M  V30 559 H 60.1881 -3.12255 -0.853138 0
M  V30 560 H 59.0951 -3.45251 1.44057 0
M  V30 561 H 60.4281 -4.54998 1.87716 0
M  V30 562 N 62.0802 -0.821533 -1.34494 0
M  V30 563 C 63.4912 -0.467956 -1.8074 0
M  V30 564 C 63.8422 1.01151 -1.68116 0
M  V30 565 O 62.9672 1.78707 -1.22036 0
M  V30 566 C 63.5622 -0.842627 -3.28154 0
M  V30 567 C 62.1212 -0.541439 -3.72485 0
M  V30 568 C 61.2682 -1.06028 -2.56229 0
M  V30 569 H 64.2192 -1.01183 -1.22261 0
M  V30 570 H 64.2402 -0.145876 -3.8022 0
M  V30 571 H 63.7522 -1.91945 -3.37311 0
M  V30 572 H 61.8532 0.526034 -3.68868 0
M  V30 573 H 61.9662 -1.08453 -4.66663 0
M  V30 574 H 60.3302 -0.481892 -2.501 0
M  V30 575 H 61.1132 -2.14352 -2.68157 0
M  V30 576 N 63.5583 1.46682 -0.576371 0
M  V30 577 C 64.8063 2.02013 -0.0594163 0
M  V30 578 C 65.1273 1.45101 1.30271 0
M  V30 579 O 64.3973 0.633317 1.8538 0
M  V30 580 H 62.9773 0.746759 -0.0189745 0
M  V30 581 H 65.6393 1.79862 -0.750717 0
M  V30 582 H 64.7353 3.12097 0.014345 0
M  V30 583 N 65.0364 0.313813 1.54444 0
M  V30 584 C 65.9684 -0.590425 2.21465 0
M  V30 585 C 66.9814 -1.08753 1.21147 0
M  V30 586 O 68.1704 -1.00278 1.4767 0
M  V30 587 C 65.2704 -1.82179 2.85769 0
M  V30 588 C 64.4434 -1.46502 4.12136 0
M  V30 589 C 63.5024 -2.55288 4.60124 0
M  V30 590 O 62.5284 -2.19842 5.25032 0
M  V30 591 N 63.7304 -3.86053 4.33525 0
M  V30 592 H 66.4954 -0.0166033 2.99695 0
M  V30 593 H 64.0564 0.136578 1.61323 0
M  V30 594 H 66.0484 -2.54328 3.14801 0
M  V30 595 H 64.6184 -2.30369 2.11303 0
M  V30 596 H 63.8384 -0.575595 3.89975 0
M  V30 597 H 65.1264 -1.20221 4.94393 0
M  V30 598 H 64.5244 -4.17654 3.81552 0
M  V30 599 H 63.0814 -4.54461 4.67235 0
M  V30 600 N 66.5145 -1.57545 0.0417849 0
M  V30 601 C 67.4465 -2.07904 -0.964799 0
M  V30 602 C 68.4595 -1.00497 -1.28079 0
M  V30 603 O 69.6485 -1.28087 -1.24322 0
M  V30 604 C 66.7485 -2.49928 -2.28887 0
M  V30 605 C 65.9215 -3.80562 -2.15619 0
M  V30 606 C 64.9805 -4.08999 -3.31069 0
M  V30 607 O 64.0065 -4.79061 -3.0739 0
M  V30 608 N 65.2085 -3.6017 -4.55256 0
M  V30 609 H 67.9735 -2.94886 -0.535029 0
M  V30 610 H 65.5345 -1.61252 -0.144681 0
M  V30 611 H 67.5265 -2.66034 -3.04972 0
M  V30 612 H 66.0965 -1.68245 -2.63463 0
M  V30 613 H 65.3165 -3.74129 -1.24183 0
M  V30 614 H 66.6045 -4.66126 -2.03971 0
M  V30 615 H 66.0025 -3.03512 -4.77386 0
M  V30 616 H 64.5595 -3.81532 -5.28466 0
M  V30 617 N 67.9926 0.231505 -1.5589 0
M  V30 618 C 68.9026 1.308 -1.94752 0
M  V30 619 C 69.9186 1.51826 -0.849989 0
M  V30 620 O 71.0946 1.6515 -1.15271 0
M  V30 621 C 68.1596 2.63968 -2.24771 0
M  V30 622 C 67.2206 2.51331 -3.48039 0
M  V30 623 C 66.4536 3.78148 -3.76616 0
M  V30 624 O 66.6766 4.80722 -3.07022 0
M  V30 625 O 65.6106 3.75857 -4.70123 0
M  V30 626 H 69.4366 1.0083 -2.86474 0
M  V30 627 H 67.0216 0.433547 -1.42971 0
M  V30 628 H 68.9036 3.42633 -2.45318 0
M  V30 629 H 67.5786 2.9364 -1.36225 0
M  V30 630 H 66.4856 1.709 -3.32782 0
M  V30 631 H 67.8186 2.26601 -4.36936 0
M  V30 632 N 69.4707 1.49531 0.497807 0
M  V30 633 C 70.4027 1.62559 1.61578 0
M  V30 634 C 71.4157 0.508134 1.54667 0
M  V30 635 O 72.6047 0.780309 1.60541 0
M  V30 636 C 69.7047 1.56925 3.00379 0
M  V30 637 C 68.8777 2.84257 3.3244 0
M  V30 638 C 67.9367 2.71632 4.50669 0
M  V30 639 O 66.9627 3.4557 4.52294 0
M  V30 640 N 68.1647 1.83391 5.5077 0
M  V30 641 H 70.9297 2.58981 1.50828 0
M  V30 642 H 68.4907 1.4666 0.685743 0
M  V30 643 H 70.4827 1.46129 3.77397 0
M  V30 644 H 69.0527 0.683483 3.05037 0
M  V30 645 H 68.2727 3.09381 2.44289 0
M  V30 646 H 69.5607 3.68666 3.5066 0
M  V30 647 H 68.9587 1.22583 5.52259 0
M  V30 648 H 67.5157 1.78515 6.26878 0
M  V30 649 N 70.9488 -0.749086 1.3866 0
M  V30 650 C 71.8788 -1.8764 1.38973 0
M  V30 651 C 72.8598 -1.68178 0.255004 0
M  V30 652 O 74.0448 -1.88704 0.458754 0
M  V30 653 C 71.1748 -3.25222 1.21851 0
M  V30 654 C 70.1288 -3.59295 2.32575 0
M  V30 655 C 69.4548 -4.95663 2.00555 0
M  V30 656 C 70.7548 -3.63709 3.7485 0
M  V30 657 H 72.4488 -1.87635 2.3331 0
M  V30 658 H 69.9948 -0.901329 1.12303 0
M  V30 659 H 71.9478 -4.03746 1.20695 0
M  V30 660 H 70.6718 -3.25719 0.239775 0
M  V30 661 H 69.3308 -2.83093 2.32925 0
M  V30 662 H 68.9788 -4.92724 1.01154 0
M  V30 663 H 68.6788 -5.19429 2.74714 0
M  V30 664 H 70.2028 -5.7656 2.01024 0
M  V30 665 H 71.6168 -4.32338 3.76506 0
M  V30 666 H 70.0138 -3.98986 4.48252 0
M  V30 667 H 71.0838 -2.63834 4.06841 0
M  V30 668 N 72.4269 -1.23603 -0.977757 0
M  V30 669 C 73.6729 -1.07129 -1.72195 0
M  V30 670 C 74.0059 0.390501 -1.90233 0
M  V30 671 O 73.2809 1.28902 -1.45653 0
M  V30 672 C 73.5639 -1.80031 -3.11867 0
M  V30 673 C 73.4169 -3.33899 -3.01383 0
M  V30 674 C 74.7359 -1.56492 -4.11337 0
M  V30 675 H 71.8549 -0.390571 -0.624999 0
M  V30 676 H 74.4969 -1.52142 -1.13811 0
M  V30 677 H 72.6469 -1.41768 -3.6171 0
M  V30 678 H 74.3189 -3.81699 -2.59043 0
M  V30 679 H 72.5619 -3.62796 -2.37827 0
M  V30 680 H 73.2329 -3.801 -4.00285 0
M  V30 681 H 75.7089 -1.89757 -3.70313 0
M  V30 682 H 74.5849 -2.09973 -5.07151 0
M  V30 683 H 74.8459 -0.500874 -4.39254 0
M  V30 684 N 73.905 1.17692 -1.04816 0
M  V30 685 C 75.152 1.87859 -0.75599 0
M  V30 686 C 75.48 1.80812 0.716752 0
M  V30 687 O 74.735 1.20819 1.53952 0
M  V30 688 C 75.034 3.37462 -1.17703 0
M  V30 689 C 74.7 3.64713 -2.65133 0
M  V30 690 C 73.362 3.71859 -3.05408 0
M  V30 691 C 75.714 3.76492 -3.60421 0
M  V30 692 C 73.042 3.88271 -4.39843 0
M  V30 693 C 75.394 3.94421 -4.94585 0
M  V30 694 C 74.058 3.99806 -5.3452 0
M  V30 695 H 73.328 0.687425 -0.276636 0
M  V30 696 H 75.975 1.39255 -1.31455 0
M  V30 697 H 74.28 3.88097 -0.537395 0
M  V30 698 H 75.977 3.90109 -0.928218 0
M  V30 699 H 72.567 3.59772 -2.32942 0
M  V30 700 H 76.751 3.70295 -3.30447 0
M  V30 701 H 72.007 3.90687 -4.70291 0
M  V30 702 H 76.181 4.02477 -5.68318 0
M  V30 703 H 73.808 4.12276 -6.38696 0
M  V30 704 N 75.3831 0.828654 1.34056 0
M  V30 705 C 76.6311 0.41863 1.97717 0
M  V30 706 C 76.9521 -1.02314 1.66002 0
M  V30 707 O 76.2221 -1.71119 0.953683 0
M  V30 708 H 74.8021 0.151809 0.731412 0
M  V30 709 H 77.4641 1.05936 1.63596 0
M  V30 710 H 76.5601 0.542318 3.07352 0
M  V30 711 N 76.8612 -1.46375 0.584142 0
M  V30 712 C 78.0862 -2.07268 0.0740405 0
M  V30 713 C 78.5112 -1.42979 -1.22223 0
M  V30 714 O 77.8692 -0.514092 -1.73859 0
M  V30 715 C 77.9172 -3.60518 -0.0767769 0
M  V30 716 O 77.0212 -3.96533 -1.13292 0
M  V30 717 H 76.3622 -0.660961 0.0634524 0
M  V30 718 H 78.8922 -1.87991 0.807492 0
M  V30 719 H 78.9022 -4.07021 -0.282489 0
M  V30 720 H 77.5772 -4.06702 0.86986 0
M  V30 721 H 76.1542 -3.61738 -0.905553 0
M  V30 722 N 78.3393 -0.321999 -1.54275 0
M  V30 723 C 79.5873 0.280489 -2.00144 0
M  V30 724 C 79.9083 1.52777 -1.21178 0
M  V30 725 O 79.1783 1.9338 -0.313187 0
M  V30 726 H 77.7583 0.106632 -0.73935 0
M  V30 727 H 80.4203 -0.438184 -1.8991 0
M  V30 728 H 79.5163 0.537972 -3.07428 0
M  V30 729 N 79.8174 1.5752 -0.0501392 0
M  V30 730 C 81.0944 1.83996 0.663685 0
M  V30 731 C 81.4744 0.938339 1.89099 0
M  V30 732 O 80.8224 -0.00087759 2.285 0
M  V30 733 C 81.0324 3.33702 1.02196 0
M  V30 734 C 82.3804 4.00691 1.40469 0
M  V30 735 O 83.4044 3.38321 1.11433 0
M  V30 736 O 82.2634 5.10658 1.94654 0
M  V30 737 H 79.3574 0.759385 0.32751 0
M  V30 738 H 81.9034 1.69514 -0.0794238 0
M  V30 739 H 80.6754 3.91015 0.149364 0
M  V30 740 H 80.2984 3.53368 1.82255 0
M  V30 741 N 81.2955 -0.223234 1.56011 0
M  V30 742 C 82.2585 -1.26014 1.9145 0
M  V30 743 C 83.2585 -1.3989 0.792937 0
M  V30 744 O 84.4485 -1.38184 1.0607 0
M  V30 745 C 81.5805 -2.63422 2.16383 0
M  V30 746 H 82.7735 -0.95796 2.84189 0
M  V30 747 H 80.3265 -0.463576 1.49267 0
M  V30 748 H 81.0615 -2.98741 1.2619 0
M  V30 749 H 80.8465 -2.54728 2.98088 0
M  V30 750 H 82.3365 -3.38249 2.44903 0
M  V30 751 N 82.7736 -1.49793 -0.48987 0
M  V30 752 C 84.0196 -1.60078 -1.24511 0
M  V30 753 C 84.3526 -0.291608 -1.91998 0
M  V30 754 O 83.6276 0.705647 -1.81248 0
M  V30 755 C 83.9106 -2.76791 -2.30345 0
M  V30 756 C 83.7636 -4.17535 -1.67286 0
M  V30 757 C 85.0826 -2.89111 -3.31817 0
M  V30 758 H 82.2016 -0.582645 -0.451324 0
M  V30 759 H 84.8436 -1.82117 -0.541612 0
M  V30 760 H 82.9936 -2.5813 -2.90346 0
M  V30 761 H 84.6656 -4.4774 -1.11026 0
M  V30 762 H 82.9086 -4.22665 -0.976577 0
M  V30 763 H 83.5796 -4.95094 -2.44103 0
M  V30 764 H 86.0556 -3.06133 -2.81819 0
M  V30 765 H 84.9316 -3.72433 -4.03219 0
M  V30 766 H 85.1926 -1.9893 -3.94815 0
M  V30 767 N 84.2517 0.741722 -1.39055 0
M  V30 768 C 85.1617 1.88621 -1.39496 0
M  V30 769 C 86.1777 1.71557 -0.290578 0
M  V30 770 O 87.3537 1.94275 -0.530954 0
M  V30 771 C 84.4187 3.24134 -1.23037 0
M  V30 772 C 83.4797 3.5364 -2.43387 0
M  V30 773 C 82.7127 4.82687 -2.27703 0
M  V30 774 O 82.9357 5.55922 -1.27696 0
M  V30 775 O 81.8697 5.1194 -3.16545 0
M  V30 776 H 85.6957 1.91203 -2.35956 0
M  V30 777 H 83.2807 0.888625 -1.20099 0
M  V30 778 H 85.1627 4.0513 -1.15964 0
M  V30 779 H 83.8377 3.22337 -0.296691 0
M  V30 780 H 82.7447 2.72758 -2.56035 0
M  V30 781 H 84.0777 3.60209 -3.35425 0
M  V30 782 N 85.7298 1.2412 0.971189 0
M  V30 783 C 86.6598 1.05508 2.08304 0
M  V30 784 C 87.6408 -0.0308864 1.70072 0
M  V30 785 O 88.8258 0.135521 1.93727 0
M  V30 786 C 85.9558 0.655365 3.4106 0
M  V30 787 C 84.9098 1.68971 3.93234 0
M  V30 788 C 84.2358 1.14516 5.22293 0
M  V30 789 C 85.5358 3.08487 4.21465 0
M  V30 790 H 87.2298 1.98507 2.24132 0
M  V30 791 H 84.7758 0.955821 1.07704 0
M  V30 792 H 86.7288 0.51217 4.18276 0
M  V30 793 H 85.4528 -0.31032 3.25122 0
M  V30 794 H 84.1118 1.82106 3.18171 0
M  V30 795 H 83.7598 0.170189 5.02712 0
M  V30 796 H 83.4598 1.83635 5.58168 0
M  V30 797 H 84.9838 1.01401 6.02121 0
M  V30 798 H 86.3978 2.98601 4.89398 0
M  V30 799 H 84.7948 3.74926 4.68562 0
M  V30 800 H 85.8648 3.56787 3.28376 0
M  V30 801 N 87.2079 -1.17134 1.05439 0
M  V30 802 C 88.4329 -1.91913 0.786396 0
M  V30 803 C 88.8579 -1.7643 -0.652234 0
M  V30 804 O 88.2159 -1.08372 -1.45345 0
M  V30 805 C 88.2639 -3.40921 1.17497 0
M  V30 806 O 87.3679 -4.11244 0.308589 0
M  V30 807 H 86.7089 -0.598215 0.288158 0
M  V30 808 H 89.2389 -1.48457 1.4079 0
M  V30 809 H 89.2489 -3.91668 1.14281 0
M  V30 810 H 87.9239 -3.5151 2.22292 0
M  V30 811 H 86.5009 -3.70731 0.40157 0
M  V30 812 N 88.686 -0.835752 -1.33615 0
M  V30 813 C 89.926 -0.43599 -1.99696 0
M  V30 814 C 90.29 0.98557 -1.64774 0
M  V30 815 O 91.491 1.48889 -2.23798 0
M  V30 816 C 89.762 -0.646721 -3.515 0
M  V30 817 S 91.321 -0.341715 -4.37467 0
M  V30 818 H 88.139 -0.164136 -0.691795 0
M  V30 819 H 90.741 -1.08436 -1.62671 0
M  V30 820 H 89.445 -1.68077 -3.74404 0
M  V30 821 H 88.976 0.0159173 -3.93397 0
M  V30 822 H 90.991 0.839708 -4.89043 0
M  V30 823 N 90.1641 1.46063 -0.591896 0
M  V30 824 C 91.5751 1.85944 -0.167822 0
M  V30 825 C 91.9261 1.49429 1.27143 0
M  V30 826 O 91.0511 0.913515 1.96173 0
M  V30 827 C 91.6461 3.37489 -0.297794 0
M  V30 828 C 90.2051 3.76332 0.0714732 0
M  V30 829 C 89.3521 2.7006 -0.629509 0
M  V30 830 H 92.3031 1.37087 -0.799555 0
M  V30 831 H 92.3241 3.77532 0.474349 0
M  V30 832 H 91.8361 3.64034 -1.3454 0
M  V30 833 H 89.9371 3.55405 1.11886 0
M  V30 834 H 90.0501 4.78088 -0.311245 0
M  V30 835 H 88.4141 2.54607 -0.0687867 0
M  V30 836 H 89.1971 2.99444 -1.67894 0
M  V30 837 N 91.6422 0.330177 1.54103 0
M  V30 838 C 93.0532 -0.15652 1.86043 0
M  V30 839 C 93.4042 -1.51086 1.2517 0
M  V30 840 O 92.5292 -2.09023 0.560217 0
M  V30 841 C 93.1242 -0.290784 3.3755 0
M  V30 842 C 91.6832 -0.721705 3.69416 0
M  V30 843 C 90.8302 0.152622 2.7688 0
M  V30 844 H 93.7812 0.550237 1.48856 0
M  V30 845 H 93.8022 -1.12058 3.63625 0
M  V30 846 H 93.3142 0.695068 3.81825 0
M  V30 847 H 91.4152 -1.71706 3.30678 0
M  V30 848 H 91.5282 -0.520869 4.7626 0
M  V30 849 H 89.8922 -0.372894 2.51956 0
M  V30 850 H 90.6752 1.13536 3.23982 0
M  V30 851 N 93.1203 -1.57491 0.0584922 0
M  V30 852 C 94.5313 -1.80526 -0.476138 0
M  V30 853 C 94.8823 -0.971334 -1.70469 0
M  V30 854 O 94.0073 -0.190012 -2.15564 0
M  V30 855 C 94.6023 -3.27424 -0.870587 0
M  V30 856 C 93.1613 -3.51351 -1.35015 0
M  V30 857 C 92.3083 -2.75343 -0.32887 0
M  V30 858 H 95.2593 -1.56133 0.284312 0
M  V30 859 H 95.2803 -3.38745 -1.73299 0
M  V30 860 H 94.7923 -3.88093 0.0237627 0
M  V30 861 H 92.8933 -2.95971 -2.26345 0
M  V30 862 H 93.0063 -4.60059 -1.33726 0
M  V30 863 H 91.3703 -2.417 -0.803321 0
M  V30 864 H 92.1533 -3.38743 0.557521 0
M  V30 865 N 94.5984 0.214957 -1.56127 0
M  V30 866 C 95.8464 0.936518 -1.79091 0
M  V30 867 C 96.1674 1.84606 -0.628148 0
M  V30 868 O 95.4374 1.92664 0.35462 0
M  V30 869 H 94.0174 0.3488 -0.660566 0
M  V30 870 H 96.6794 0.22523 -1.93594 0
M  V30 871 H 95.7754 1.53943 -2.71492 0
M  V30 872 N 96.0765 1.50051 0.48192 0
M  V30 873 C 97.3245 1.60181 1.23234 0
M  V30 874 C 97.6455 0.299176 1.92691 0
M  V30 875 O 96.9155 -0.682708 1.83619 0
M  V30 876 H 95.4955 0.590232 0.457859 0
M  V30 877 H 98.1575 1.86775 0.556881 0
M  V30 878 H 97.2535 2.40753 1.98607 0
M  V30 879 N 97.5546 -0.734337 1.39446 0
M  V30 880 C 98.8026 -1.49096 1.36436 0
M  V30 881 C 99.1236 -1.94961 -0.0388255 0
M  V30 882 O 98.3936 -1.69033 -0.990191 0
M  V30 883 H 96.9736 -0.5531 0.502085 0
M  V30 884 H 99.6356 -0.871725 1.74319 0
M  V30 885 H 98.7316 -2.37276 2.02747 0
M  V30 886 N 99.0327 -1.24633 -0.964593 0
M  V30 887 C 100.444 -1.08045 -1.5226 0
M  V30 888 C 100.795 0.347116 -1.93105 0
M  V30 889 O 99.9197 1.23588 -1.77637 0
M  V30 890 C 100.515 -1.95514 -2.76695 0
M  V30 891 C 99.0737 -1.8314 -3.28841 0
M  V30 892 C 98.2207 -1.90262 -2.01732 0
M  V30 893 H 101.172 -1.38064 -0.782553 0
M  V30 894 H 101.193 -1.48925 -3.50145 0
M  V30 895 H 100.705 -2.99407 -2.46936 0
M  V30 896 H 98.8057 -0.82092 -3.63444 0
M  V30 897 H 98.9187 -2.67406 -3.97531 0
M  V30 898 H 97.2827 -1.34027 -2.16584 0
M  V30 899 H 98.0657 -2.9574 -1.74334 0
M  V30 900 N 100.511 1.16574 -1.06058 0
M  V30 901 C 101.444 2.19798 -0.61352 0
M  V30 902 C 102.422 1.58509 0.362453 0
M  V30 903 O 103.606 1.86527 0.271994 0
M  V30 904 C 100.733 3.3855 0.100915 0
M  V30 905 C 99.7788 4.18317 -0.831438 0
M  V30 906 S 100.612 4.82375 -2.32539 0
M  V30 907 C 101.768 6.04508 -1.62238 0
M  V30 908 H 102.001 2.5738 -1.48805 0
M  V30 909 H 99.5338 1.27327 -0.873338 0
M  V30 910 H 101.492 4.07358 0.506898 0
M  V30 911 H 100.153 2.99338 0.951604 0
M  V30 912 H 99.3458 5.03232 -0.278071 0
M  V30 913 H 98.9478 3.5499 -1.17719 0
M  V30 914 H 101.24 6.71133 -0.926622 0
M  V30 915 H 102.183 6.64389 -2.44934 0
M  V30 916 H 102.591 5.53559 -1.106 0
M  V30 917 N 101.989 0.842826 1.3317 0
M  V30 918 C 103.237 0.439577 1.97262 0
M  V30 919 C 103.558 -1.00548 1.67078 0
M  V30 920 O 102.828 -1.70098 0.971779 0
M  V30 921 H 101.408 0.159558 0.72976 0
M  V30 922 H 104.07 1.07665 1.62463 0
M  V30 923 H 103.166 0.574886 3.0676 0
M  V30 924 N 103.467 -1.45747 0.599634 0
M  V30 925 C 104.878 -1.85853 0.177681 0
M  V30 926 C 105.229 -1.50102 -1.26348 0
M  V30 927 O 104.354 -0.923905 -1.95686 0
M  V30 928 C 104.949 -3.37326 0.315688 0
M  V30 929 C 103.508 -3.76365 -0.0515144 0
M  V30 930 C 102.655 -2.69722 0.643822 0
M  V30 931 H 105.606 -1.36661 0.806814 0
M  V30 932 H 105.627 -3.77778 -0.454321 0
M  V30 933 H 105.139 -3.63315 1.36468 0
M  V30 934 H 103.24 -3.55993 -1.09999 0
M  V30 935 H 103.353 -4.77916 0.336594 0
M  V30 936 H 101.717 -2.54567 0.0822881 0
M  V30 937 H 102.5 -2.98549 1.6948 0
M  V30 938 N 104.945 -0.338344 -1.53925 0
M  V30 939 C 106.173 0.261298 -2.05243 0
M  V30 940 C 106.588 1.44625 -1.21363 0
M  V30 941 O 105.945 1.80811 -0.247736 0
M  V30 942 C 105.996 0.681412 -3.5502 0
M  V30 943 O 105.717 -0.456414 -4.35716 0
M  V30 944 C 107.218 1.34232 -4.22489 0
M  V30 945 H 104.438 0.0513685 -0.669031 0
M  V30 946 H 106.982 -0.488822 -1.98572 0
M  V30 947 H 105.137 1.38148 -3.61931 0
M  V30 948 H 105.551 -0.122564 -5.24357 0
M  V30 949 H 107.025 1.58708 -5.28693 0
M  V30 950 H 107.502 2.29426 -3.74514 0
M  V30 951 H 108.108 0.684424 -4.19757 0
M  V30 952 N 106.423 1.57458 -0.0668435 0
M  V30 953 C 107.669 1.93587 0.6043 0
M  V30 954 C 108.002 0.946722 1.69561 0
M  V30 955 O 107.277 -0.0248516 1.94484 0
M  V30 956 C 107.56 3.40014 1.18585 0
M  V30 957 C 107.413 4.49685 0.101529 0
M  V30 958 C 108.732 3.87154 2.09284 0
M  V30 959 H 105.851 0.703958 0.218202 0
M  V30 960 H 108.493 1.89542 -0.131804 0
M  V30 961 H 106.643 3.43592 1.81319 0
M  V30 962 H 108.315 4.5823 -0.531279 0
M  V30 963 H 106.558 4.30059 -0.568487 0
M  V30 964 H 107.229 5.49266 0.54874 0
M  V30 965 H 109.705 3.85551 1.56491 0
M  V30 966 H 108.581 4.90231 2.46911 0
M  V30 967 H 108.842 3.2481 2.99918 0
M  V30 968 N 107.901 -0.206675 1.56239 0
M  V30 969 C 109.147 -0.925733 1.81113 0
M  V30 970 C 109.502 -1.81368 0.642135 0
M  V30 971 O 108.795 -1.88126 -0.363211 0
M  V30 972 C 108.989 -1.78675 3.09532 0
M  V30 973 C 108.818 -0.98365 4.3881 0
M  V30 974 C 107.588 -0.672661 5.00803 0
M  V30 975 C 109.786 -0.341847 5.13163 0
M  V30 976 N 107.768 0.150283 6.13716 0
M  V30 977 C 109.139 0.343815 6.19046 0
M  V30 978 C 111.194 -0.256392 4.97239 0
M  V30 979 C 109.897 1.10678 7.10734 0
M  V30 980 C 111.923 0.493142 5.8934 0
M  V30 981 C 111.285 1.16729 6.94661 0
M  V30 982 H 107.384 -0.318524 0.714189 0
M  V30 983 H 109.968 -0.195378 1.93717 0
M  V30 984 H 108.139 -2.4888 2.98183 0
M  V30 985 H 109.871 -2.44441 3.22538 0
M  V30 986 H 106.626 -0.994294 4.63045 0
M  V30 987 H 107.05 0.551026 6.74754 0
M  V30 988 H 111.692 -0.763249 4.15854 0
M  V30 989 H 109.41 1.6251 7.91591 0
M  V30 990 H 112.996 0.560465 5.79094 0
M  V30 991 H 111.876 1.738 7.64698 0
M  V30 992 N 109.379 -1.50304 -0.473955 0
M  V30 993 C 110.625 -1.61389 -1.22806 0
M  V30 994 C 110.958 -0.311955 -1.91678 0
M  V30 995 O 110.233 0.686384 -1.81986 0
M  V30 996 C 110.516 -2.79219 -2.27396 0
M  V30 997 C 110.369 -4.19286 -1.62848 0
M  V30 998 C 111.688 -2.92614 -3.28732 0
M  V30 999 H 108.807 -0.587399 -0.445119 0
M  V30 1000 H 111.449 -1.82681 -0.522265 0
M  V30 1001 H 109.599 -2.61195 -2.87592 0
M  V30 1002 H 111.271 -4.48892 -1.06271 0
M  V30 1003 H 109.514 -4.23677 -0.931693 0
M  V30 1004 H 110.185 -4.97655 -2.38838 0
M  V30 1005 H 112.661 -3.09105 -2.78556 0
M  V30 1006 H 111.537 -3.76688 -3.99246 0
M  V30 1007 H 111.798 -2.03107 -3.92683 0
M  V30 1008 N 110.857 0.726932 -1.39834 0
M  V30 1009 C 111.804 1.841 -1.39197 0
M  V30 1010 C 112.774 1.642 -0.250502 0
M  V30 1011 O 113.959 1.85494 -0.446846 0
M  V30 1012 C 111.099 3.21697 -1.24919 0
M  V30 1013 C 110.212 3.53247 -2.48678 0
M  V30 1014 C 109.347 4.80289 -2.26928 0
M  V30 1015 C 108.386 5.04707 -3.4632 0
M  V30 1016 N 107.523 6.22956 -3.23836 0
M  V30 1017 H 112.363 1.83979 -2.34427 0
M  V30 1018 H 109.9 0.898876 -1.16442 0
M  V30 1019 H 111.858 4.01137 -1.1465 0
M  V30 1020 H 110.488 3.21076 -0.333153 0
M  V30 1021 H 109.54 2.68447 -2.69519 0
M  V30 1022 H 110.852 3.67205 -3.37582 0
M  V30 1023 H 110.006 5.67725 -2.13947 0
M  V30 1024 H 108.745 4.68519 -1.35431 0
M  V30 1025 H 107.75 4.1573 -3.5979 0
M  V30 1026 H 108.975 5.18357 -4.38729 0
M  V30 1027 H 106.921 6.12459 -2.35011 0
M  V30 1028 H 106.838 6.37539 -4.063 0
M  V30 1029 H 108.106 7.1321 -3.14566 0
M  V30 1030 N 112.336 1.25143 0.95797 0
M  V30 1031 C 113.613 1.00472 1.67823 0
M  V30 1032 C 113.993 -0.470056 2.058 0
M  V30 1033 O 113.341 -1.44663 1.76875 0
M  V30 1034 C 113.551 1.9372 2.90299 0
M  V30 1035 C 114.899 2.21371 3.62326 0
M  V30 1036 O 115.923 1.91451 3.00375 0
M  V30 1037 O 114.782 2.72231 4.7387 0
M  V30 1038 H 111.876 0.380752 0.734137 0
M  V30 1039 H 114.422 1.36283 1.01119 0
M  V30 1040 H 113.194 2.93316 2.59001 0
M  V30 1041 H 112.817 1.58286 3.64735 0
M  V30 1042 N 113.814 -1.1601 1.06675 0
M  V30 1043 C 115.062 -1.86264 0.784229 0
M  V30 1044 C 115.383 -1.82328 -0.691488 0
M  V30 1045 O 114.653 -1.25947 -1.50047 0
M  V30 1046 H 113.233 -0.689621 0.28711 0
M  V30 1047 H 115.895 -1.40664 1.34906 0
M  V30 1048 H 114.991 -2.91595 1.11259 0
M  V30 1049 N 115.292 -0.849877 -1.32721 0
M  V30 1050 C 116.52 -0.464754 -2.01613 0
M  V30 1051 C 116.935 0.937191 -1.63897 0
M  V30 1052 O 116.292 1.61081 -0.857856 0
M  V30 1053 C 116.343 -0.588638 -3.56675 0
M  V30 1054 O 116.064 -1.93535 -3.93034 0
M  V30 1055 C 117.565 -0.2019 -4.4284 0
M  V30 1056 H 114.785 -0.183215 -0.645502 0
M  V30 1057 H 117.329 -1.1455 -1.69407 0
M  V30 1058 H 115.484 0.0443159 -3.87375 0
M  V30 1059 H 115.898 -1.92871 -4.87751 0
M  V30 1060 H 117.372 -0.339599 -5.50954 0
M  V30 1061 H 117.849 0.857224 -4.30753 0
M  V30 1062 H 118.455 -0.809733 -4.17521 0
M  V30 1063 N 116.77 1.45427 -0.607355 0
M  V30 1064 C 118.018 2.01841 -0.102253 0
M  V30 1065 C 118.339 1.47832 1.27164 0
M  V30 1066 O 117.609 0.672497 1.83995 0
M  V30 1067 H 116.189 0.746188 -0.0348101 0
M  V30 1068 H 118.851 1.78229 -0.7887 0
M  V30 1069 H 117.947 3.12057 -0.0518585 0
M  V30 1070 N 118.248 0.346503 1.53744 0
M  V30 1071 C 119.178 -0.501193 2.28058 0
M  V30 1072 C 120.159 -1.10014 1.29734 0
M  V30 1073 O 121.344 -1.12097 1.58581 0
M  V30 1074 C 118.474 -1.65078 3.05559 0
M  V30 1075 C 117.428 -1.18003 4.11411 0
M  V30 1076 C 116.754 -2.41837 4.76884 0
M  V30 1077 C 118.054 -0.278394 5.21558 0
M  V30 1078 H 119.748 0.11875 2.99164 0
M  V30 1079 H 117.294 0.0585531 1.43881 0
M  V30 1080 H 119.247 -2.25028 3.56287 0
M  V30 1081 H 117.971 -2.29767 2.32109 0
M  V30 1082 H 116.63 -0.603331 3.61601 0
M  V30 1083 H 116.278 -3.0494 4.00026 0
M  V30 1084 H 115.978 -2.1102 5.48402 0
M  V30 1085 H 117.502 -3.02508 5.30397 0
M  V30 1086 H 118.916 -0.784823 5.67903 0
M  V30 1087 H 117.313 -0.0619707 6.00068 0
M  V30 1088 H 118.383 0.684677 4.80042 0
M  V30 1089 N 119.726 -1.57421 0.075193 0
M  V30 1090 C 120.972 -1.93905 -0.594025 0
M  V30 1091 C 121.305 -0.955701 -1.69056 0
M  V30 1092 O 120.58 0.0145373 -1.94495 0
M  V30 1093 C 120.863 -3.40638 -1.1678 0
M  V30 1094 C 120.716 -4.49733 -0.0776792 0
M  V30 1095 C 122.035 -3.88259 -2.07228 0
M  V30 1096 H 119.154 -0.705105 -0.214466 0
M  V30 1097 H 121.796 -1.8947 0.141854 0
M  V30 1098 H 119.946 -3.44549 -1.79494 0
M  V30 1099 H 121.618 -4.57942 0.555573 0
M  V30 1100 H 119.861 -4.29751 0.591286 0
M  V30 1101 H 120.532 -5.49549 -0.519603 0
M  V30 1102 H 123.008 -3.86376 -1.54445 0
M  V30 1103 H 121.884 -4.91533 -2.44308 0
M  V30 1104 H 122.145 -3.26396 -2.98191 0
M  V30 1105 N 121.204 0.198386 -1.56346 0
M  V30 1106 C 122.615 0.763358 -1.70381 0
M  V30 1107 C 122.966 1.83995 -0.681203 0
M  V30 1108 O 122.091 2.15785 0.16305 0
M  V30 1109 C 122.686 1.39143 -3.08909 0
M  V30 1110 C 121.245 1.90352 -3.2472 0
M  V30 1111 C 120.392 0.772233 -2.6633 0
M  V30 1112 H 123.343 -0.0266377 -1.58678 0
M  V30 1113 H 123.364 2.26076 -3.06055 0
M  V30 1114 H 122.876 0.607638 -3.83314 0
M  V30 1115 H 120.977 2.71461 -2.55225 0
M  V30 1116 H 121.09 2.06757 -4.3219 0
M  V30 1117 H 119.454 1.18566 -2.2542 0
M  V30 1118 H 120.237 0.00073556 -3.433 0
M  V30 1119 N 122.682 1.50554 0.465978 0
M  V30 1120 C 123.907 1.65838 1.24549 0
M  V30 1121 C 124.332 0.343486 1.84937 0
M  V30 1122 O 123.69 -0.69324 1.67523 0
M  V30 1123 C 123.738 2.75533 2.32624 0
M  V30 1124 O 122.842 2.37142 3.37398 0
M  V30 1125 H 122.183 0.553893 0.366194 0
M  V30 1126 H 124.713 1.96959 0.553927 0
M  V30 1127 H 124.723 2.98763 2.77857 0
M  V30 1128 H 123.398 3.70962 1.88043 0
M  V30 1129 H 121.975 2.24377 2.97841 0
M  V30 1130 N 124.16 -0.719506 1.40217 0
M  V30 1131 C 125.07 -1.86378 1.42479 0
M  V30 1132 C 126.086 -1.71073 0.317834 0
M  V30 1133 O 127.262 -1.93406 0.561794 0
M  V30 1134 C 124.327 -3.22136 1.28178 0
M  V30 1135 C 123.388 -3.49723 2.48982 0
M  V30 1136 C 122.621 -4.79004 2.35353 0
M  V30 1137 O 122.844 -5.53821 1.36524 0
M  V30 1138 O 121.778 -5.06839 3.2465 0
M  V30 1139 H 125.604 -1.87425 2.38968 0
M  V30 1140 H 123.189 -0.869405 1.21498 0
M  V30 1141 H 125.071 -4.03234 1.22395 0
M  V30 1142 H 123.746 -3.21825 0.347934 0
M  V30 1143 H 122.653 -2.6865 2.60342 0
M  V30 1144 H 123.986 -3.54828 3.41113 0
M  V30 1145 N 125.638 -1.25649 -0.95132 0
M  V30 1146 C 127.054 -1.02542 -1.223 0
M  V30 1147 C 127.254 0.255715 -1.99871 0
M  V30 1148 O 126.31 0.967558 -2.33226 0
M  V30 1149 C 127.623 -2.25065 -1.99415 0
M  V30 1150 C 129.171 -2.29861 -2.12446 0
M  V30 1151 C 129.646 -3.52048 -2.92961 0
M  V30 1152 N 131.137 -3.52465 -3.00538 0
M  V30 1153 C 131.872 -4.43672 -3.63239 0
M  V30 1154 N 131.368 -5.45157 -4.27523 0
M  V30 1155 N 133.161 -4.31346 -3.60412 0
M  V30 1156 H 125.312 -2.07951 -0.432471 0
M  V30 1157 H 127.575 -0.91339 -0.253816 0
M  V30 1158 H 127.281 -3.18194 -1.49817 0
M  V30 1159 H 127.155 -2.28502 -3.00111 0
M  V30 1160 H 129.542 -1.37252 -2.61239 0
M  V30 1161 H 129.623 -2.3044 -1.11044 0
M  V30 1162 H 129.267 -4.44981 -2.44856 0
M  V30 1163 H 129.197 -3.48715 -3.94596 0
M  V30 1164 H 131.688 -2.79056 -2.54826 0
M  V30 1165 H 132.001 -6.10958 -4.73234 0
M  V30 1166 H 130.346 -5.49025 -4.26141 0
M  V30 1167 H 133.537 -3.51288 -3.09377 0
M  V30 1168 H 133.71 -5.02624 -4.0899 0
M  V30 1169 N 127.117 1.15442 -1.07289 0
M  V30 1170 C 128.363 1.86489 -0.796846 0
M  V30 1171 C 128.696 1.82078 0.675371 0
M  V30 1172 O 127.971 1.24346 1.4956 0
M  V30 1173 C 128.254 3.35626 -1.30489 0
M  V30 1174 C 128.107 3.48673 -2.84161 0
M  V30 1175 C 129.426 4.30357 -0.920907 0
M  V30 1176 H 126.545 0.677144 -0.290939 0
M  V30 1177 H 129.187 1.35633 -1.33056 0
M  V30 1178 H 127.337 3.79068 -0.850883 0
M  V30 1179 H 129.009 3.14099 -3.37846 0
M  V30 1180 H 127.252 2.90253 -3.22391 0
M  V30 1181 H 127.923 4.53453 -3.14777 0
M  V30 1182 H 130.399 3.94871 -1.3121 0
M  V30 1183 H 129.275 5.33193 -1.30372 0
M  V30 1184 H 129.536 4.4176 0.173226 0
M  V30 1185 N 128.595 0.856903 1.32268 0
M  V30 1186 C 129.525 0.31858 2.31316 0
M  V30 1187 C 130.506 -0.583487 1.59779 0
M  V30 1188 O 131.691 -0.503259 1.87566 0
M  V30 1189 C 128.821 -0.491979 3.43798 0
M  V30 1190 C 127.775 0.315849 4.26833 0
M  V30 1191 C 127.101 -0.619586 5.31098 0
M  V30 1192 C 128.401 1.54282 4.98993 0
M  V30 1193 H 130.095 1.14621 2.76591 0
M  V30 1194 H 127.641 0.552613 1.32974 0
M  V30 1195 H 129.594 -0.879012 4.1213 0
M  V30 1196 H 128.318 -1.35299 2.97257 0
M  V30 1197 H 126.977 0.684664 3.6015 0
M  V30 1198 H 126.625 -1.47751 4.8081 0
M  V30 1199 H 126.325 -0.0830621 5.87541 0
M  V30 1200 H 127.849 -1.00375 6.02293 0
M  V30 1201 H 129.263 1.22796 5.59995 0
M  V30 1202 H 127.66 2.01745 5.65172 0
M  V30 1203 H 128.73 2.30285 4.26728 0
M  V30 1204 N 130.073 -1.45103 0.615059 0
M  V30 1205 C 131.319 -2.02483 0.113347 0
M  V30 1206 C 131.652 -1.48146 -1.25564 0
M  V30 1207 O 130.927 -0.659104 -1.82992 0
M  V30 1208 C 131.21 -3.60005 0.0825278 0
M  V30 1209 C 131.063 -4.2466 1.48271 0
M  V30 1210 C 132.382 -4.35972 -0.601401 0
M  V30 1211 H 129.501 -0.735764 0.0426632 0
M  V30 1212 H 132.143 -1.72868 0.788461 0
M  V30 1213 H 130.293 -3.85367 -0.492378 0
M  V30 1214 H 131.965 -4.10458 2.10527 0
M  V30 1215 H 130.208 -3.82772 2.04127 0
M  V30 1216 H 130.879 -5.336 1.41332 0
M  V30 1217 H 133.355 -4.15947 -0.112666 0
M  V30 1218 H 132.231 -5.45697 -0.592097 0
M  V30 1219 H 132.492 -4.09391 -1.66887 0
M  V30 1220 N 131.551 -0.354651 -1.53558 0
M  V30 1221 C 132.799 0.237972 -2.00694 0
M  V30 1222 C 133.12 1.50173 -1.24391 0
M  V30 1223 O 132.39 1.92673 -0.354135 0
M  V30 1224 H 130.97 0.0909256 -0.741446 0
M  V30 1225 H 133.632 -0.478368 -1.88938 0
M  V30 1226 H 132.728 0.47264 -3.085 0
M  V30 1227 N 133.029 1.57378 -0.0835403 0
M  V30 1228 C 134.44 1.81261 0.447358 0
M  V30 1229 C 134.791 0.998331 1.68902 0
M  V30 1230 O 133.916 0.224282 2.15235 0
M  V30 1231 C 134.511 3.28767 0.818386 0
M  V30 1232 C 133.07 3.53455 1.29409 0
M  V30 1233 C 132.217 2.75831 0.285024 0
M  V30 1234 H 135.168 1.5566 -0.309115 0
M  V30 1235 H 135.189 3.41459 1.67887 0
M  V30 1236 H 134.701 3.88006 -0.0855019 0
M  V30 1237 H 132.802 2.99534 2.21608 0
M  V30 1238 H 132.915 4.62128 1.2639 0
M  V30 1239 H 131.279 2.42947 0.764767 0
M  V30 1240 H 132.062 3.37813 -0.611341 0
M  V30 1241 N 134.507 -0.190092 1.56449 0
M  V30 1242 C 135.439 -1.25973 1.91477 0
M  V30 1243 C 136.452 -1.41452 0.805931 0
M  V30 1244 O 137.641 -1.41789 1.08435 0
M  V30 1245 C 134.741 -2.63117 2.13594 0
M  V30 1246 C 133.914 -2.69182 3.4476 0
M  V30 1247 C 132.973 -3.87557 3.5593 0
M  V30 1248 O 131.999 -3.74427 4.28711 0
M  V30 1249 N 133.201 -5.03224 2.89388 0
M  V30 1250 H 135.966 -0.962394 2.83828 0
M  V30 1251 H 133.527 -0.379981 1.57378 0
M  V30 1252 H 135.519 -3.40742 2.1835 0
M  V30 1253 H 134.089 -2.85319 1.27719 0
M  V30 1254 H 133.309 -1.77793 3.51828 0
M  V30 1255 H 134.597 -2.70229 4.31107 0
M  V30 1256 H 133.995 -5.16791 2.30094 0
M  V30 1257 H 132.552 -5.78778 2.99764 0
M  V30 1258 N 135.985 -1.50799 -0.457987 0
M  V30 1259 C 137.401 -1.38515 -0.792819 0
M  V30 1260 C 137.601 -0.451409 -1.96379 0
M  V30 1261 O 136.657 0.10112 -2.52297 0
M  V30 1262 C 137.97 -2.80149 -1.09258 0
M  V30 1263 C 139.518 -2.89156 -1.19825 0
M  V30 1264 C 139.993 -4.31651 -1.53106 0
M  V30 1265 N 141.484 -4.34662 -1.60072 0
M  V30 1266 C 142.219 -5.41928 -1.87354 0
M  V30 1267 N 141.715 -6.59384 -2.12568 0
M  V30 1268 N 143.508 -5.29385 -1.88965 0
M  V30 1269 H 135.659 -2.10073 0.313511 0
M  V30 1270 H 137.922 -0.944803 0.0777862 0
M  V30 1271 H 137.628 -3.50374 -0.305084 0
M  V30 1272 H 137.502 -3.18204 -2.02549 0
M  V30 1273 H 139.889 -2.19141 -1.97639 0
M  V30 1274 H 139.97 -2.54626 -0.244821 0
M  V30 1275 H 139.614 -5.02208 -0.758266 0
M  V30 1276 H 139.544 -4.63678 -2.49621 0
M  V30 1277 H 142.035 -3.49973 -1.42573 0
M  V30 1278 H 142.348 -7.36934 -2.32696 0
M  V30 1279 H 140.693 -6.62535 -2.09933 0
M  V30 1280 H 143.884 -4.36616 -1.68772 0
M  V30 1281 H 144.057 -6.13066 -2.09891 0
M  V30 1282 N 137.463 0.71206 -1.40597 0
M  V30 1283 C 138.393 1.83889 -1.43899 0
M  V30 1284 C 139.374 1.67442 -0.299504 0
M  V30 1285 O 140.559 1.87421 -0.508624 0
M  V30 1286 C 137.689 3.21877 -1.30431 0
M  V30 1287 C 136.643 3.53002 -2.42019 0
M  V30 1288 C 135.969 4.90172 -2.13626 0
M  V30 1289 C 137.269 3.53643 -3.84362 0
M  V30 1290 H 138.963 1.81383 -2.38203 0
M  V30 1291 H 136.509 0.871237 -1.14654 0
M  V30 1292 H 138.462 4.00404 -1.31357 0
M  V30 1293 H 137.186 3.24968 -0.326049 0
M  V30 1294 H 135.845 2.76818 -2.40349 0
M  V30 1295 H 135.493 4.89869 -1.14182 0
M  V30 1296 H 135.193 5.11962 -2.88389 0
M  V30 1297 H 136.717 5.71028 -2.1624 0
M  V30 1298 H 138.131 4.22203 -3.87837 0
M  V30 1299 H 136.528 3.86961 -4.58673 0
M  V30 1300 H 137.598 2.52954 -4.13693 0
M  V30 1301 N 138.941 1.26152 0.944643 0
M  V30 1302 C 139.873 1.03199 2.04652 0
M  V30 1303 C 140.886 -0.00642356 1.62799 0
M  V30 1304 O 142.075 0.233263 1.76969 0
M  V30 1305 C 139.175 0.540111 3.34568 0
M  V30 1306 C 138.348 1.64697 4.05208 0
M  V30 1307 C 137.407 1.15374 5.13396 0
M  V30 1308 O 136.433 1.85013 5.38293 0
M  V30 1309 N 137.635 0.00031529 5.805 0
M  V30 1310 H 140.4 1.9808 2.2491 0
M  V30 1311 H 137.961 1.17491 1.11389 0
M  V30 1312 H 139.953 0.194401 4.04233 0
M  V30 1313 H 138.523 -0.315021 3.11009 0
M  V30 1314 H 137.743 2.16379 3.29506 0
M  V30 1315 H 139.031 2.3903 4.49157 0
M  V30 1316 H 138.429 -0.581336 5.62705 0
M  V30 1317 H 136.986 -0.286346 6.51171 0
M  V30 1318 N 140.419 -1.14872 1.07899 0
M  V30 1319 C 141.665 -1.86064 0.806725 0
M  V30 1320 C 141.998 -1.82434 -0.665706 0
M  V30 1321 O 141.273 -1.25138 -1.48899 0
M  V30 1322 C 141.556 -3.34929 1.32267 0
M  V30 1323 C 141.409 -3.47161 2.86006 0
M  V30 1324 C 142.728 -4.29863 0.943717 0
M  V30 1325 H 139.847 -0.675591 0.294526 0
M  V30 1326 H 142.489 -1.34925 1.33773 0
M  V30 1327 H 140.639 -3.78611 0.870974 0
M  V30 1328 H 142.311 -3.12302 3.39507 0
M  V30 1329 H 140.554 -2.88539 3.23925 0
M  V30 1330 H 141.225 -4.51777 3.17177 0
M  V30 1331 H 143.701 -3.9417 1.33302 0
M  V30 1332 H 142.577 -5.32494 1.33198 0
M  V30 1333 H 142.838 -4.41846 -0.149796 0
M  V30 1334 N 141.898 -0.863906 -1.31812 0
M  V30 1335 C 142.828 -0.330843 -2.31144 0
M  V30 1336 C 143.809 0.575005 -1.60087 0
M  V30 1337 O 144.994 0.493304 -1.8783 0
M  V30 1338 C 142.124 0.47374 -3.44054 0
M  V30 1339 C 141.078 -0.338481 -4.26659 0
M  V30 1340 C 140.404 0.591412 -5.31419 0
M  V30 1341 C 141.704 -1.56926 -4.98168 0
M  V30 1342 H 143.398 -1.16086 -2.75979 0
M  V30 1343 H 140.944 -0.559657 -1.32679 0
M  V30 1344 H 142.897 0.857143 -4.12591 0
M  V30 1345 H 141.621 1.33721 -2.9797 0
M  V30 1346 H 140.28 -0.703754 -3.59782 0
M  V30 1347 H 139.928 1.45199 -4.81587 0
M  V30 1348 H 139.628 0.0519022 -5.87577 0
M  V30 1349 H 141.152 0.97179 -6.02817 0
M  V30 1350 H 142.566 -1.25764 -5.59336 0
M  V30 1351 H 140.963 -2.04739 -5.64094 0
M  V30 1352 H 142.033 -2.32544 -4.25501 0
M  V30 1353 N 143.376 1.44774 -0.622745 0
M  V30 1354 C 144.324 2.32387 0.0994683 0
M  V30 1355 C 145.318 1.46859 0.844326 0
M  V30 1356 O 146.524 1.63254 0.758174 0
M  V30 1357 H 142.899 0.750273 0.0509291 0
M  V30 1358 H 144.87 2.91062 -0.65767 0
M  V30 1359 C 143.619 3.30723 1.07319 0
M  V30 1360 H 142.942 3.96541 0.509462 0
M  V30 1361 H 144.382 3.94725 1.54817 0
M  V30 1362 C 142.841 2.59021 2.15429 0
M  V30 1363 O 143.371 2.38286 3.23393 0
M  V30 1364 N 141.577 2.189 1.91131 0
M  V30 1365 H 141.124 2.35964 1.03337 0
M  V30 1366 H 141.082 1.71251 2.63668 0
M  V30 1367 N 144.854 0.36279 1.53368 0
M  V30 1368 C 145.817 -0.472679 2.24273 0
M  V30 1369 C 146.817 -1.012 1.24961 0
M  V30 1370 O 148.007 -0.898194 1.49259 0
M  V30 1371 C 145.139 -1.66039 2.97731 0
M  V30 1372 H 146.332 0.14773 2.99536 0
M  V30 1373 H 143.885 0.114434 1.55881 0
M  V30 1374 H 144.62 -2.31896 2.26704 0
M  V30 1375 H 144.405 -1.28066 3.70596 0
M  V30 1376 H 145.895 -2.25252 3.51641 0
M  V30 1377 N 146.332 -1.57332 0.0918853 0
M  V30 1378 C 147.557 -1.98995 -0.584442 0
M  V30 1379 C 147.982 -0.970528 -1.61128 0
M  V30 1380 O 147.34 0.0613904 -1.81196 0
M  V30 1381 C 147.388 -3.39636 -1.21161 0
M  V30 1382 O 146.492 -3.40447 -2.32744 0
M  V30 1383 H 145.833 -0.647165 -0.148572 0
M  V30 1384 H 148.363 -2.03873 0.172347 0
M  V30 1385 H 148.373 -3.7726 -1.55367 0
M  V30 1386 H 147.048 -4.13356 -0.459313 0
M  V30 1387 H 145.625 -3.14614 -2.0018 0
M  V30 1388 N 147.81 0.181792 -1.56548 0
M  V30 1389 C 148.76 1.22961 -1.92002 0
M  V30 1390 C 149.744 1.40331 -0.787146 0
M  V30 1391 O 150.936 1.42478 -1.05019 0
M  V30 1392 C 148.065 2.57144 -2.27446 0
M  V30 1393 C 147.151 2.43512 -3.47222 0
M  V30 1394 N 147.542 1.99577 -4.64761 0
M  V30 1395 C 145.84 2.74368 -3.51622 0
M  V30 1396 C 146.541 1.98156 -5.46909 0
M  V30 1397 N 145.517 2.40164 -4.8767 0
M  V30 1398 H 149.319 0.881462 -2.8037 0
M  V30 1399 H 146.833 0.390141 -1.57644 0
M  V30 1400 H 148.83 3.32847 -2.51035 0
M  V30 1401 H 147.49 2.92771 -1.40411 0
M  V30 1402 H 148.501 1.70078 -4.89177 0
M  V30 1403 H 145.178 3.14102 -2.75038 0
M  V30 1404 H 146.568 1.65975 -6.51077 0
M  V30 1405 N 149.288 1.51039 0.449983 0
M  V30 1406 C 150.198 1.74261 1.57067 0
M  V30 1407 C 151.214 0.626363 1.62335 0
M  V30 1408 O 152.39 0.907162 1.79812 0
M  V30 1409 C 149.455 1.85114 2.93144 0
M  V30 1410 C 148.516 3.0893 2.98095 0
M  V30 1411 C 147.749 3.19256 4.27681 0
M  V30 1412 O 147.972 2.35835 5.19363 0
M  V30 1413 O 146.906 4.12144 4.38658 0
M  V30 1414 H 150.732 2.69303 1.40391 0
M  V30 1415 H 148.317 1.35389 0.631688 0
M  V30 1416 H 150.199 1.94311 3.73926 0
M  V30 1417 H 148.874 0.932588 3.09975 0
M  V30 1418 H 147.781 3.0522 2.16314 0
M  V30 1419 H 149.114 4.00433 2.86206 0
M  V30 1420 N 150.766 -0.704594 1.40972 0
M  V30 1421 C 152.043 -1.45847 1.30338 0
M  V30 1422 C 152.423 -2.10973 -0.0732344 0
M  V30 1423 O 151.771 -2.00997 -1.08685 0
M  V30 1424 C 151.981 -2.48525 2.45023 0
M  V30 1425 C 153.329 -3.1404 2.8577 0
M  V30 1426 O 154.353 -2.58848 2.44696 0
M  V30 1427 O 153.212 -4.13981 3.56766 0
M  V30 1428 H 150.306 -0.649092 0.512454 0
M  V30 1429 H 152.852 -0.735836 1.52917 0
M  V30 1430 H 151.624 -1.98994 3.36923 0
M  V30 1431 H 151.247 -3.2831 2.24272 0
M  V30 1432 N 152.244 -1.26651 -0.937939 0
M  V30 1433 C 153.469 -1.15279 -1.72411 0
M  V30 1434 C 153.894 0.287866 -1.85884 0
M  V30 1435 O 153.252 1.20855 -1.35143 0
M  V30 1436 C 153.3 -1.83028 -3.10698 0
M  V30 1437 O 152.404 -1.12128 -3.96864 0
M  V30 1438 H 151.745 -0.401504 -0.528858 0
M  V30 1439 H 154.275 -1.67531 -1.1745 0
M  V30 1440 H 154.285 -1.89981 -3.6107 0
M  V30 1441 H 152.96 -2.87833 -3.00208 0
M  V30 1442 H 151.537 -1.13173 -3.55312 0
M  V30 1443 N 153.722 1.14298 -1.08507 0
M  V30 1444 C 154.97 1.84993 -0.813763 0
M  V30 1445 C 155.291 1.83405 0.662393 0
M  V30 1446 O 154.561 1.28319 1.48024 0
M  V30 1447 H 153.141 0.684966 -0.298045 0
M  V30 1448 H 155.803 1.385 -1.37126 0
M  V30 1449 H 154.899 2.89788 -1.15884 0
M  V30 1450 N 155.201 0.870884 1.31352 0
M  V30 1451 C 156.164 0.332243 2.26779 0
M  V30 1452 C 157.164 -0.517302 1.52252 0
M  V30 1453 O 158.354 -0.326477 1.71113 0
M  V30 1454 C 155.486 -0.528066 3.36785 0
M  V30 1455 H 156.679 1.17469 2.75937 0
M  V30 1456 H 154.232 0.64655 1.423 0
M  V30 1457 H 154.967 -1.39167 2.92922 0
M  V30 1458 H 154.752 0.0802582 3.92018 0
M  V30 1459 H 156.242 -0.897179 4.07849 0
M  V30 1460 N 156.679 -1.44442 0.630414 0
M  V30 1461 C 157.909 -2.06115 0.141465 0
M  V30 1462 C 158.317 -1.47179 -1.1889 0
M  V30 1463 O 157.66 -0.588873 -1.74006 0
M  V30 1464 C 157.722 -3.59467 -0.0484355 0
M  V30 1465 C 157.386 -4.40864 1.20366 0
M  V30 1466 C 158.383 -4.74391 2.12719 0
M  V30 1467 C 156.068 -4.8125 1.43887 0
M  V30 1468 C 158.062 -5.47186 3.26904 0
M  V30 1469 C 155.749 -5.53795 2.5837 0
M  V30 1470 C 156.747 -5.86682 3.49705 0
M  V30 1471 O 156.435 -6.57749 4.62191 0
M  V30 1472 H 156.167 -0.671648 0.0765792 0
M  V30 1473 H 158.721 -1.86312 0.864695 0
M  V30 1474 H 156.951 -3.77758 -0.826803 0
M  V30 1475 H 158.64 -4.02909 -0.491849 0
M  V30 1476 H 159.406 -4.43728 1.95781 0
M  V30 1477 H 155.285 -4.55073 0.736853 0
M  V30 1478 H 158.829 -5.72773 3.98217 0
M  V30 1479 H 154.726 -5.83872 2.75251 0
M  V30 1480 H 155.494 -6.76217 4.61164 0
M  V30 1481 N 158.157 -0.370918 -1.53173 0
M  V30 1482 C 159.382 0.220293 -2.06227 0
M  V30 1483 C 159.807 1.41243 -1.24225 0
M  V30 1484 O 159.165 1.79387 -0.262645 0
M  V30 1485 C 159.213 0.586663 -3.55796 0
M  V30 1486 O 158.317 1.68317 -3.76488 0
M  V30 1487 H 157.658 0.0308099 -0.663285 0
M  V30 1488 H 160.188 -0.533068 -1.97534 0
M  V30 1489 H 160.198 0.85617 -3.98916 0
M  V30 1490 H 158.873 -0.285013 -4.14922 0
M  V30 1491 H 157.45 1.40881 -3.45264 0
M  V30 1492 N 159.635 1.57281 -0.100228 0
M  V30 1493 C 160.875 1.96419 0.56558 0
M  V30 1494 C 161.239 0.981265 1.65031 0
M  V30 1495 O 162.44 1.26133 2.37369 0
M  V30 1496 C 160.711 3.39996 1.10171 0
M  V30 1497 S 162.27 4.01134 1.77867 0
M  V30 1498 H 159.088 0.68667 0.184406 0
M  V30 1499 H 161.69 1.94662 -0.180851 0
M  V30 1500 H 160.394 4.09296 0.300803 0
M  V30 1501 H 159.925 3.45361 1.88385 0
M  V30 1502 H 161.94 3.90358 3.06326 0
M  V30 1503 N 161.113 -0.173488 1.56642 0
M  V30 1504 C 162.529 -0.525174 1.50712 0
M  V30 1505 C 162.729 -1.8476 0.804107 0
M  V30 1506 O 161.785 -2.49869 0.363574 0
M  V30 1507 C 163.098 -0.559937 2.95441 0
M  V30 1508 C 164.646 -0.647288 3.06234 0
M  V30 1509 C 165.121 -0.712963 4.52417 0
M  V30 1510 N 166.612 -0.775911 4.56655 0
M  V30 1511 C 167.347 -0.847264 5.67106 0
M  V30 1512 N 166.843 -0.879585 6.87194 0
M  V30 1513 N 168.636 -0.886117 5.55071 0
M  V30 1514 H 160.787 0.693681 2.00753 0
M  V30 1515 H 163.05 0.249841 0.914485 0
M  V30 1516 H 162.756 0.343049 3.50023 0
M  V30 1517 H 162.63 -1.40718 3.49969 0
M  V30 1518 H 165.017 -1.5407 2.51687 0
M  V30 1519 H 165.098 0.226586 2.54794 0
M  V30 1520 H 164.742 0.176183 5.07594 0
M  V30 1521 H 164.672 -1.60295 5.0161 0
M  V30 1522 H 167.163 -0.759304 3.70193 0
M  V30 1523 H 167.476 -0.935144 7.67121 0
M  V30 1524 H 165.821 -0.847898 6.89808 0
M  V30 1525 H 169.012 -0.857853 4.60172 0
M  V30 1526 H 169.185 -0.938263 6.41171 0
M  V30 1527 N 162.591 -1.51276 -0.441967 0
M  V30 1528 C 163.523 -1.68444 -1.55433 0
M  V30 1529 C 164.536 -0.565187 -1.52674 0
M  V30 1530 O 165.725 -0.839356 -1.57534 0
M  V30 1531 C 162.825 -1.67966 -2.94348 0
M  V30 1532 C 161.998 -2.964 -3.21661 0
M  V30 1533 C 161.057 -2.88171 -4.40277 0
M  V30 1534 O 160.083 -3.62119 -4.39157 0
M  V30 1535 N 161.285 -2.03706 -5.43584 0
M  V30 1536 H 164.05 -2.644 -1.41112 0
M  V30 1537 H 161.611 -1.49104 -0.630838 0
M  V30 1538 H 163.603 -1.60035 -3.71713 0
M  V30 1539 H 162.173 -0.796225 -3.0229 0
M  V30 1540 H 161.393 -3.18234 -2.32638 0
M  V30 1541 H 162.681 -3.81427 -3.36736 0
M  V30 1542 H 162.079 -1.42995 -5.47329 0
M  V30 1543 H 160.636 -2.01658 -6.1982 0
M  V30 1544 N 164.069 0.697108 -1.41344 0
M  V30 1545 C 165.485 1.00751 -1.2378 0
M  V30 1546 C 165.685 2.01105 -0.126066 0
M  V30 1547 O 164.741 2.47295 0.51004 0
M  V30 1548 C 166.054 1.53359 -2.58653 0
M  V30 1549 C 167.602 1.6525 -2.65822 0
M  V30 1550 C 168.077 2.2126 -4.01009 0
M  V30 1551 N 169.568 2.28622 -4.02847 0
M  V30 1552 C 170.303 2.72984 -5.04249 0
M  V30 1553 N 169.799 3.16962 -6.16041 0
M  V30 1554 N 171.592 2.72534 -4.91611 0
M  V30 1555 H 163.743 0.0322662 -2.12375 0
M  V30 1556 H 166.006 0.0768853 -0.944877 0
M  V30 1557 H 165.712 0.870773 -3.4075 0
M  V30 1558 H 165.586 2.51597 -2.81032 0
M  V30 1559 H 167.973 2.30644 -1.84086 0
M  V30 1560 H 168.054 0.655614 -2.47256 0
M  V30 1561 H 167.698 1.56482 -4.83193 0
M  V30 1562 H 167.628 3.21698 -4.16915 0
M  V30 1563 H 170.119 1.97585 -3.22131 0
M  V30 1564 H 170.432 3.49434 -6.89287 0
M  V30 1565 H 168.777 3.14875 -6.1958 0
M  V30 1566 H 171.968 2.37525 -4.0336 0
M  V30 1567 H 172.141 3.06789 -5.70775 0
M  V30 1568 N 165.547 1.27147 0.931209 0
M  V30 1569 C 166.477 1.12081 2.04842 0
M  V30 1570 C 167.458 0.0232364 1.70084 0
M  V30 1571 O 168.643 0.197085 1.93197 0
M  V30 1572 C 165.773 0.76354 3.38803 0
M  V30 1573 C 164.727 1.81396 3.87659 0
M  V30 1574 C 164.053 1.31075 5.18385 0
M  V30 1575 C 165.353 3.21739 4.11438 0
M  V30 1576 H 167.047 2.05537 2.17703 0
M  V30 1577 H 164.593 0.989603 1.04608 0
M  V30 1578 H 166.546 0.644982 4.16435 0
M  V30 1579 H 165.27 -0.206727 3.25945 0
M  V30 1580 H 163.929 1.92136 3.12217 0
M  V30 1581 H 163.577 0.330037 5.01916 0
M  V30 1582 H 163.277 2.013 5.52044 0
M  V30 1583 H 164.801 1.20506 5.98591 0
M  V30 1584 H 166.215 3.14019 4.79651 0
M  V30 1585 H 164.612 3.89644 4.56397 0
M  V30 1586 H 165.682 3.67054 3.16859 0
M  V30 1587 N 167.025 -1.13721 1.09112 0
M  V30 1588 C 168.253 -1.88773 0.846899 0
M  V30 1589 C 168.668 -1.7896 -0.601572 0
M  V30 1590 O 168.025 -1.15394 -1.41388 0
M  V30 1591 C 168.076 -3.3849 1.26913 0
M  V30 1592 O 167.797 -3.48043 2.66079 0
M  V30 1593 C 169.298 -4.30518 1.05682 0
M  V30 1594 H 166.518 -0.59772 0.304914 0
M  V30 1595 H 169.062 -1.43977 1.45227 0
M  V30 1596 H 167.217 -3.80881 0.707723 0
M  V30 1597 H 167.631 -4.4109 2.83795 0
M  V30 1598 H 169.105 -5.3391 1.40156 0
M  V30 1599 H 169.582 -4.392 -0.00563416 0
M  V30 1600 H 170.188 -3.93893 1.60402 0
M  V30 1601 N 168.503 -0.877838 -1.30888 0
M  V30 1602 C 169.435 -0.296607 -2.27273 0
M  V30 1603 C 170.448 0.544799 -1.53414 0
M  V30 1604 O 171.637 0.365511 -1.74718 0
M  V30 1605 C 168.737 0.597481 -3.33592 0
M  V30 1606 C 167.91 -0.213251 -4.3688 0
M  V30 1607 C 166.969 0.610208 -5.2265 0
M  V30 1608 O 165.995 0.035441 -5.69189 0
M  V30 1609 N 167.197 1.92071 -5.47804 0
M  V30 1610 H 169.962 -1.12492 -2.77787 0
M  V30 1611 H 167.523 -0.740105 -1.43993 0
M  V30 1612 H 169.515 1.15425 -3.87891 0
M  V30 1613 H 168.085 1.32647 -2.83061 0
M  V30 1614 H 167.305 -0.951466 -3.82545 0
M  V30 1615 H 168.593 -0.769262 -5.02951 0
M  V30 1616 H 167.991 2.4107 -5.11763 0
M  V30 1617 H 166.548 2.42508 -6.05007 0
M  V30 1618 N 169.982 1.44106 -0.638065 0
M  V30 1619 C 171.398 1.56672 -0.304286 0
M  V30 1620 C 171.598 1.6244 1.19228 0
M  V30 1621 O 170.654 1.57121 1.9766 0
M  V30 1622 C 171.967 2.83503 -1.00231 0
M  V30 1623 C 173.515 2.97226 -0.981116 0
M  V30 1624 C 173.99 4.26868 -1.65974 0
M  V30 1625 N 175.481 4.33698 -1.62666 0
M  V30 1626 C 176.216 5.32745 -2.12063 0
M  V30 1627 N 175.712 6.38157 -2.6968 0
M  V30 1628 N 177.505 5.24299 -2.02651 0
M  V30 1629 H 169.656 1.38605 -1.60942 0
M  V30 1630 H 171.919 0.664661 -0.675965 0
M  V30 1631 H 171.625 2.85251 -2.0573 0
M  V30 1632 H 171.499 3.73251 -0.54439 0
M  V30 1633 H 173.886 2.95027 0.0654188 0
M  V30 1634 H 173.967 2.08808 -1.47759 0
M  V30 1635 H 173.611 4.29826 -2.70576 0
M  V30 1636 H 173.541 5.14156 -1.13804 0
M  V30 1637 H 176.032 3.58138 -1.20606 0
M  V30 1638 H 176.345 7.10029 -3.05087 0
M  V30 1639 H 174.69 6.38823 -2.73734 0
M  V30 1640 H 177.881 4.4086 -1.57353 0
M  V30 1641 H 178.054 6.01334 -2.41457 0
M  V30 1642 N 171.46 0.379036 1.52974 0
M  V30 1643 C 172.706 -0.206727 2.01744 0
M  V30 1644 C 173.039 -1.47314 1.26539 0
M  V30 1645 O 172.314 -1.91084 0.362903 0
M  V30 1646 C 172.597 -0.485066 3.56818 0
M  V30 1647 C 172.45 0.795919 4.42702 0
M  V30 1648 C 173.769 -1.28003 4.21074 0
M  V30 1649 H 170.888 -0.0736607 0.73331 0
M  V30 1650 H 173.53 0.506581 1.83122 0
M  V30 1651 H 171.68 -1.09272 3.72816 0
M  V30 1652 H 173.352 1.43307 4.38476 0
M  V30 1653 H 171.595 1.41344 4.10127 0
M  V30 1654 H 172.266 0.555947 5.49193 0
M  V30 1655 H 174.742 -0.765867 4.08991 0
M  V30 1656 H 173.618 -1.44352 5.29579 0
M  V30 1657 H 173.879 -2.29236 3.78026 0
M  V30 1658 N 172.938 -1.57226 0.108567 0
M  V30 1659 C 173.868 -2.17778 -0.84232 0
M  V30 1660 C 174.849 -1.11487 -1.2847 0
M  V30 1661 O 176.034 -1.39681 -1.34918 0
M  V30 1662 C 173.164 -2.76888 -2.09644 0
M  V30 1663 C 172.118 -3.88669 -1.79221 0
M  V30 1664 C 171.444 -4.34541 -3.11574 0
M  V30 1665 C 172.744 -5.11251 -1.06864 0
M  V30 1666 H 174.438 -2.97489 -0.337774 0
M  V30 1667 H 171.984 -1.43097 -0.161025 0
M  V30 1668 H 173.937 -3.17904 -2.76614 0
M  V30 1669 H 172.661 -1.94451 -2.62405 0
M  V30 1670 H 171.32 -3.48213 -1.14644 0
M  V30 1671 H 170.968 -3.48977 -3.62249 0
M  V30 1672 H 170.668 -5.09914 -2.91996 0
M  V30 1673 H 172.192 -4.782 -3.7968 0
M  V30 1674 H 173.606 -5.49352 -1.63968 0
M  V30 1675 H 172.003 -5.9214 -0.974178 0
M  V30 1676 H 173.073 -4.8487 -0.0536168 0
M  V30 1677 N 174.416 0.165178 -1.56732 0
M  V30 1678 C 175.656 0.887231 -1.8414 0
M  V30 1679 C 176.02 1.79159 -0.690353 0
M  V30 1680 O 177.221 2.55172 -0.845032 0
M  V30 1681 C 175.492 1.65674 -3.16681 0
M  V30 1682 S 177.051 2.42671 -3.6559 0
M  V30 1683 H 173.869 0.297042 -0.645978 0
M  V30 1684 H 176.471 0.148439 -1.94936 0
M  V30 1685 H 175.175 0.983507 -3.98441 0
M  V30 1686 H 174.706 2.43679 -3.08843 0
M  V30 1687 H 176.721 3.67499 -3.33406 0
M  V30 1688 N 175.894 1.51508 0.433938 0
M  V30 1689 C 176.844 1.69451 1.52546 0
M  V30 1690 C 177.828 0.548474 1.51263 0
M  V30 1691 O 179.02 0.804529 1.57659 0
M  V30 1692 C 176.149 1.82604 2.90707 0
M  V30 1693 C 175.235 3.03002 2.96733 0
M  V30 1694 N 175.626 4.26121 2.72496 0
M  V30 1695 C 173.924 3.02327 3.27894 0
M  V30 1696 C 174.625 5.07407 2.84452 0
M  V30 1697 N 173.601 4.42126 3.16269 0
M  V30 1698 H 177.403 2.62305 1.32564 0
M  V30 1699 H 174.917 1.49202 0.641297 0
M  V30 1700 H 176.914 1.93569 3.69238 0
M  V30 1701 H 175.574 0.909339 3.11707 0
M  V30 1702 H 176.585 4.55009 2.4736 0
M  V30 1703 H 173.262 2.20301 3.54646 0
M  V30 1704 H 174.652 6.15422 2.69639 0
M  V30 1705 N 177.372 -0.689602 1.41712 0
M  V30 1706 C 178.619 -1.44966 1.4139 0
M  V30 1707 C 178.947 -1.94484 0.025105 0
M  V30 1708 O 178.202 -1.70307 -0.964048 0
M  V30 1709 C 178.501 -2.67298 2.37247 0
M  V30 1710 C 178.167 -2.36405 3.83958 0
M  V30 1711 C 176.829 -2.27691 4.23923 0
M  V30 1712 C 179.181 -2.11043 4.76561 0
M  V30 1713 C 176.509 -1.91719 5.54492 0
M  V30 1714 C 178.861 -1.76578 6.07456 0
M  V30 1715 C 177.525 -1.66363 6.46436 0
M  V30 1716 H 176.795 -0.53047 0.517381 0
M  V30 1717 H 179.442 -0.787655 1.74552 0
M  V30 1718 H 177.747 -3.38461 1.9736 0
M  V30 1719 H 179.444 -3.25452 2.34269 0
M  V30 1720 H 176.034 -2.44085 3.52308 0
M  V30 1721 H 180.218 -2.16717 4.46483 0
M  V30 1722 H 175.474 -1.82367 5.83568 0
M  V30 1723 H 179.648 -1.55974 6.78708 0
M  V30 1724 H 177.275 -1.38258 7.47522 0
M  V30 1725 N 178.85 -1.27639 -0.924453 0
M  V30 1726 C 180.075 -1.17101 -1.71179 0
M  V30 1727 C 180.5 0.268134 -1.86179 0
M  V30 1728 O 179.858 1.19415 -1.36418 0
M  V30 1729 C 179.906 -1.86313 -3.08739 0
M  V30 1730 O 179.01 -1.16331 -3.95652 0
M  V30 1731 H 178.351 -0.407091 -0.524569 0
M  V30 1732 H 180.881 -1.68767 -1.15666 0
M  V30 1733 H 180.891 -1.938 -3.59034 0
M  V30 1734 H 179.566 -2.91001 -2.97138 0
M  V30 1735 H 178.143 -1.16935 -3.54091 0
M  V30 1736 N 180.328 1.1314 -1.09713 0
M  V30 1737 C 181.574 1.84757 -0.836224 0
M  V30 1738 C 181.907 1.8347 0.636598 0
M  V30 1739 O 181.182 1.27491 1.46889 0
M  V30 1740 C 181.465 3.32782 -1.37578 0
M  V30 1741 C 181.318 3.42567 -2.91493 0
M  V30 1742 C 182.637 4.28307 -1.01198 0
M  V30 1743 H 179.756 0.67082 -0.305236 0
M  V30 1744 H 182.398 1.3278 -1.35903 0
M  V30 1745 H 180.548 3.77177 -0.931097 0
M  V30 1746 H 182.22 3.06862 -3.44432 0
M  V30 1747 H 180.463 2.83349 -3.28475 0
M  V30 1748 H 181.134 4.46674 -3.24324 0
M  V30 1749 H 183.61 3.91999 -1.39556 0
M  V30 1750 H 182.486 5.30307 -1.41653 0
M  V30 1751 H 182.747 4.42029 0.0794833 0
M  V30 1752 N 181.806 0.884767 1.30421 0
M  V30 1753 C 183.222 0.57874 1.48737 0
M  V30 1754 C 183.422 -0.883567 1.81095 0
M  V30 1755 O 182.478 -1.6648 1.89844 0
M  V30 1756 C 183.791 1.49171 2.61091 0
M  V30 1757 C 185.339 1.49532 2.74971 0
M  V30 1758 C 185.814 2.39421 3.90438 0
M  V30 1759 N 187.305 2.37383 3.97748 0
M  V30 1760 C 188.04 3.03647 4.86401 0
M  V30 1761 N 187.536 3.79136 5.79852 0
M  V30 1762 N 189.329 2.9288 4.79768 0
M  V30 1763 H 181.48 1.83075 1.0769 0
M  V30 1764 H 183.743 0.783637 0.533495 0
M  V30 1765 H 183.449 2.53291 2.44001 0
M  V30 1766 H 183.323 1.20113 3.57565 0
M  V30 1767 H 185.71 0.46163 2.91467 0
M  V30 1768 H 185.791 1.8262 1.79119 0
M  V30 1769 H 185.435 3.42874 3.74699 0
M  V30 1770 H 185.365 2.03649 4.85628 0
M  V30 1771 H 187.856 1.82525 3.30897 0
M  V30 1772 H 188.169 4.26789 6.4426 0
M  V30 1773 H 186.514 3.83243 5.79784 0
M  V30 1774 H 189.705 2.33433 4.05742 0
M  V30 1775 H 189.878 3.448 5.4865 0
M  V30 1776 N 183.284 -1.43765 0.645699 0
M  V30 1777 C 184.53 -2.02197 0.156271 0
M  V30 1778 C 184.863 -1.50776 -1.22393 0
M  V30 1779 O 184.138 -0.697771 -1.81553 0
M  V30 1780 C 184.421 -3.59749 0.158872 0
M  V30 1781 C 184.274 -4.21419 1.57245 0
M  V30 1782 C 185.593 -4.37149 -0.50879 0
M  V30 1783 H 182.712 -0.734694 0.0582602 0
M  V30 1784 H 185.354 -1.71157 0.824951 0
M  V30 1785 H 183.504 -3.86325 -0.410525 0
M  V30 1786 H 185.176 -4.059 2.19186 0
M  V30 1787 H 183.419 -3.78356 2.122 0
M  V30 1788 H 184.09 -5.30482 1.52619 0
M  V30 1789 H 186.566 -4.16093 -0.024412 0
M  V30 1790 H 185.442 -5.4683 -0.476213 0
M  V30 1791 H 185.703 -4.12839 -1.58165 0
M  V30 1792 N 184.763 -0.387143 -1.52771 0
M  V30 1793 C 185.991 0.195869 -2.05971 0
M  V30 1794 C 186.406 1.40691 -1.25903 0
M  V30 1795 O 185.763 1.79931 -0.305134 0
M  V30 1796 C 185.814 0.56812 -3.57008 0
M  V30 1797 O 185.535 -0.594803 -4.34043 0
M  V30 1798 C 187.036 1.20723 -4.26545 0
M  V30 1799 H 184.256 0.0300578 -0.670326 0
M  V30 1800 H 186.8 -0.551749 -1.96916 0
M  V30 1801 H 184.955 1.26564 -3.66143 0
M  V30 1802 H 185.369 -0.289322 -5.23701 0
M  V30 1803 H 186.843 1.41807 -5.33474 0
M  V30 1804 H 187.32 2.17395 -3.81623 0
M  V30 1805 H 187.926 0.550535 -4.21722 0
M  V30 1806 N 186.241 1.57166 -0.116904 0
M  V30 1807 C 187.518 1.86645 0.585049 0
M  V30 1808 C 187.898 1.0177 1.84949 0
M  V30 1809 O 187.246 0.0960379 2.28298 0
M  V30 1810 C 187.456 3.37736 0.879507 0
M  V30 1811 C 188.804 4.06289 1.23348 0
M  V30 1812 O 189.828 3.42743 0.969836 0
M  V30 1813 O 188.687 5.18455 1.7282 0
M  V30 1814 H 185.781 0.772593 0.295007 0
M  V30 1815 H 188.327 1.69025 -0.151249 0
M  V30 1816 H 187.099 3.91296 -0.0166136 0
M  V30 1817 H 186.722 3.6078 1.67103 0
M  V30 1818 N 187.719 -0.156864 1.56817 0
M  V30 1819 C 188.682 -1.17781 1.96622 0
M  V30 1820 C 189.682 -1.36401 0.851555 0
M  V30 1821 O 190.872 -1.33561 1.11836 0
M  V30 1822 C 188.004 -2.54008 2.27361 0
M  V30 1823 H 189.197 -0.836564 2.87996 0
M  V30 1824 H 186.75 -0.39985 1.51099 0
M  V30 1825 H 187.485 -2.9312 1.38748 0
M  V30 1826 H 187.27 -2.41856 3.08623 0
M  V30 1827 H 188.76 -3.27558 2.59029 0
M  V30 1828 N 189.197 -1.51736 -0.425897 0
M  V30 1829 C 190.608 -1.5732 -1.00536 0
M  V30 1830 C 190.959 -0.403537 -1.92005 0
M  V30 1831 O 190.084 0.478256 -2.11049 0
M  V30 1832 C 190.679 -2.85119 -1.8301 0
M  V30 1833 C 189.238 -2.93236 -2.35987 0
M  V30 1834 C 188.385 -2.52098 -1.15508 0
M  V30 1835 H 191.336 -1.57348 -0.206739 0
M  V30 1836 H 191.357 -2.69526 -2.68581 0
M  V30 1837 H 190.869 -3.7023 -1.16411 0
M  V30 1838 H 188.97 -2.12581 -3.06007 0
M  V30 1839 H 189.083 -3.9713 -2.68001 0
M  V30 1840 H 187.447 -2.05558 -1.50393 0
M  V30 1841 H 188.23 -3.39565 -0.505014 0
M  V30 1842 N 190.675 0.682077 -1.42076 0
M  V30 1843 C 191.9 1.47558 -1.45744 0
M  V30 1844 C 192.325 1.87977 -0.0680981 0
M  V30 1845 O 191.683 1.55522 0.9318 0
M  V30 1846 C 191.731 2.70575 -2.38373 0
M  V30 1847 O 190.835 3.68573 -1.85007 0
M  V30 1848 H 190.176 0.443585 -0.494093 0
M  V30 1849 H 192.706 0.837238 -1.86686 0
M  V30 1850 H 192.716 3.18729 -2.54707 0
M  V30 1851 H 191.391 2.40495 -3.39315 0
M  V30 1852 H 189.968 3.2757 -1.78192 0
M  V30 1853 N 192.153 1.28127 0.917671 0
M  V30 1854 C 193.378 1.18007 1.70555 0
M  V30 1855 C 193.803 -0.258257 1.86319 0
M  V30 1856 O 193.161 -1.1869 1.37049 0
M  V30 1857 C 193.209 1.87948 3.07746 0
M  V30 1858 O 192.313 1.18427 3.9503 0
M  V30 1859 H 191.654 0.409867 0.522403 0
M  V30 1860 H 194.184 1.69379 1.1477 0
M  V30 1861 H 194.194 1.95701 3.58001 0
M  V30 1862 H 192.869 2.92573 2.95591 0
M  V30 1863 H 191.446 1.18811 3.53466 0
M  V30 1864 N 193.631 -1.12557 1.10312 0
M  V30 1865 C 194.879 -1.83675 0.843091 0
M  V30 1866 C 195.2 -1.84435 -0.633131 0
M  V30 1867 O 194.47 -1.30657 -1.45964 0
M  V30 1868 H 193.05 -0.680138 0.308904 0
M  V30 1869 H 195.712 -1.36301 1.39313 0
M  V30 1870 H 194.808 -2.87908 1.2048 0
M  V30 1871 N 195.109 -0.891671 -1.2995 0
M  V30 1872 C 196.386 -0.433307 -1.9074 0
M  V30 1873 C 196.766 1.08646 -1.80995 0
M  V30 1874 O 196.114 1.92476 -1.23147 0
M  V30 1875 C 196.324 -0.938895 -3.36134 0
M  V30 1876 C 197.672 -0.977829 -4.13187 0
M  V30 1877 O 198.696 -0.886015 -3.45005 0
M  V30 1878 O 197.555 -1.11453 -5.35015 0
M  V30 1879 H 194.649 -0.133699 -0.816121 0
M  V30 1880 H 197.195 -0.981011 -1.38471 0
M  V30 1881 H 195.967 -1.98281 -3.37343 0
M  V30 1882 H 195.59 -0.37074 -3.95868 0
M  V30 1883 N 196.587 1.43421 -0.653314 0
M  V30 1884 C 197.864 1.95361 -0.0966581 0
M  V30 1885 C 198.244 1.59461 1.38331 0
M  V30 1886 O 197.592 0.879777 2.10884 0
M  V30 1887 C 197.802 3.47311 -0.342988 0
M  V30 1888 C 199.15 4.23875 -0.24798 0
M  V30 1889 O 200.174 3.55133 -0.275553 0
M  V30 1890 O 199.033 5.4623 -0.171771 0
M  V30 1891 H 196.127 0.826945 0.00956291 0
M  V30 1892 H 198.673 1.5336 -0.726558 0
M  V30 1893 H 197.445 3.66569 -1.36906 0
M  V30 1894 H 197.068 3.9631 0.319975 0
M  V30 1895 N 198.065 0.39524 1.52563 0
M  V30 1896 C 198.975 -0.444232 2.30356 0
M  V30 1897 C 199.991 -1.06615 1.37511 0
M  V30 1898 O 201.167 -1.07067 1.70583 0
M  V30 1899 C 198.232 -1.55315 3.09964 0
M  V30 1900 C 197.293 -0.955734 4.18526 0
M  V30 1901 C 196.526 -2.01181 4.9433 0
M  V30 1902 O 196.749 -3.22781 4.70285 0
M  V30 1903 O 195.683 -1.62579 5.79527 0
M  V30 1904 H 199.509 0.189667 3.03107 0
M  V30 1905 H 197.094 0.1588 1.48554 0
M  V30 1906 H 198.976 -2.19724 3.59582 0
M  V30 1907 H 197.651 -2.17191 2.4002 0
M  V30 1908 H 196.558 -0.274743 3.7309 0
M  V30 1909 H 197.891 -0.381109 4.90722 0
M  V30 1910 N 199.544 -1.57102 0.125237 0
M  V30 1911 C 200.821 -1.86953 -0.575142 0
M  V30 1912 C 201.201 -1.02749 -1.84407 0
M  V30 1913 O 200.549 -0.108144 -2.28244 0
M  V30 1914 C 200.759 -3.38198 -0.861583 0
M  V30 1915 C 202.107 -4.06937 -1.21192 0
M  V30 1916 O 203.131 -3.43252 -0.951645 0
M  V30 1917 O 201.99 -5.19364 -1.70068 0
M  V30 1918 H 199.084 -0.774147 -0.290906 0
M  V30 1919 H 201.63 -1.68942 0.160211 0
M  V30 1920 H 200.402 -3.91282 0.0373647 0
M  V30 1921 H 200.025 -3.61661 -1.65188 0
M  V30 1922 N 201.022 0.148545 -1.56898 0
M  V30 1923 C 202.27 0.859717 -1.82902 0
M  V30 1924 C 202.591 1.81775 -0.70588 0
M  V30 1925 O 201.861 1.93994 0.272586 0
M  V30 1926 H 200.441 0.320469 -0.674766 0
M  V30 1927 H 203.103 0.142918 -1.94375 0
M  V30 1928 H 202.199 1.4229 -2.77777 0
M  V30 1929 N 202.5 1.5196 0.417844 0
M  V30 1930 C 203.41 1.77554 1.53336 0
M  V30 1931 C 204.426 0.660655 1.6097 0
M  V30 1932 O 205.602 0.945099 1.77848 0
M  V30 1933 C 202.667 1.91291 2.89152 0
M  V30 1934 C 201.728 3.15183 2.91475 0
M  V30 1935 C 200.961 3.28256 4.20813 0
M  V30 1936 O 201.184 2.46798 5.14244 0
M  V30 1937 O 200.118 4.21356 4.29817 0
M  V30 1938 H 203.944 2.7222 1.34647 0
M  V30 1939 H 201.529 1.36698 0.602828 0
M  V30 1940 H 203.411 2.02199 3.69721 0
M  V30 1941 H 202.086 0.998129 3.07927 0
M  V30 1942 H 200.993 3.09739 2.09791 0
M  V30 1943 H 202.326 4.06414 2.77648 0
M  V30 1944 N 203.978 -0.674533 1.42435 0
M  V30 1945 C 205.255 -1.4305 1.33402 0
M  V30 1946 C 205.635 -2.11081 -0.0284674 0
M  V30 1947 O 204.983 -2.03257 -1.04397 0
M  V30 1948 C 205.193 -2.43272 2.50239 0
M  V30 1949 C 206.541 -3.07907 2.92367 0
M  V30 1950 O 207.565 -2.53599 2.50132 0
M  V30 1951 O 206.424 -4.0632 3.65467 0
M  V30 1952 H 203.518 -0.638076 0.526106 0
M  V30 1953 H 206.064 -0.703235 1.54443 0
M  V30 1954 H 204.836 -1.91803 3.41068 0
M  V30 1955 H 204.459 -3.23479 2.31186 0
M  V30 1956 N 205.456 -1.28612 -0.910864 0
M  V30 1957 C 206.366 -1.14643 -2.0468 0
M  V30 1958 C 207.382 -0.0723121 -1.7385 0
M  V30 1959 O 208.558 -0.282178 -1.99413 0
M  V30 1960 C 205.623 -0.812561 -3.37044 0
M  V30 1961 C 204.684 -1.96935 -3.81465 0
M  V30 1962 C 203.917 -1.65131 -5.07511 0
M  V30 1963 O 204.14 -0.567013 -5.67575 0
M  V30 1964 O 203.074 -2.49585 -5.47714 0
M  V30 1965 H 206.9 -2.1001 -2.19384 0
M  V30 1966 H 204.485 -1.07958 -1.03274 0
M  V30 1967 H 206.367 -0.640441 -4.16505 0
M  V30 1968 H 205.042 0.111426 -3.23508 0
M  V30 1969 H 203.949 -2.19664 -3.02818 0
M  V30 1970 H 205.282 -2.87414 -3.99567 0
M  V30 1971 N 206.934 1.1197 -1.10907 0
M  V30 1972 C 207.897 2.16031 -0.765707 0
M  V30 1973 C 208.897 1.59393 0.212235 0
M  V30 1974 O 210.087 1.74196 -0.0115441 0
M  V30 1975 C 207.219 3.40632 -0.135053 0
M  V30 1976 H 208.412 2.47919 -1.68748 0
M  V30 1977 H 205.965 1.27061 -0.910226 0
M  V30 1978 H 206.7 3.14348 0.797218 0
M  V30 1979 H 206.485 3.8302 -0.838937 0
M  V30 1980 H 207.975 4.17505 0.0892469 0
M  V30 1981 N 208.412 0.89855 1.29475 0
M  V30 1982 C 209.322 0.379974 2.31502 0
M  V30 1983 C 210.338 -0.524695 1.659 0
M  V30 1984 O 211.514 -0.414551 1.97087 0
M  V30 1985 C 208.579 -0.385138 3.44554 0
M  V30 1986 C 207.64 0.550914 4.2575 0
M  V30 1987 C 206.873 -0.177778 5.33404 0
M  V30 1988 O 207.096 -1.40189 5.52904 0
M  V30 1989 O 206.03 0.479106 5.9999 0
M  V30 1990 H 209.856 1.22639 2.77837 0
M  V30 1991 H 207.441 0.662834 1.33891 0
M  V30 1992 H 209.323 -0.817841 4.13388 0
M  V30 1993 H 207.998 -1.20763 3.0033 0
M  V30 1994 H 206.905 1.03271 3.59564 0
M  V30 1995 H 208.238 1.33979 4.73614 0
M  V30 1996 N 209.89 -1.43072 0.660911 0
M  V30 1997 C 211.167 -1.95307 0.107017 0
M  V30 1998 C 211.547 -1.60192 -1.37484 0
M  V30 1999 O 210.895 -0.890949 -2.10415 0
M  V30 2000 C 211.105 -3.47124 0.361402 0
M  V30 2001 C 212.453 -4.23738 0.270455 0
M  V30 2002 O 213.477 -3.54981 0.294382 0
M  V30 2003 O 212.336 -5.46131 0.200737 0
M  V30 2004 H 209.43 -0.826984 -0.00517729 0
M  V30 2005 H 211.976 -1.52972 0.734681 0
M  V30 2006 H 210.748 -3.65837 1.38848 0
M  V30 2007 H 210.371 -3.96475 -0.298953 0
M  V30 2008 N 211.368 -0.403325 -1.52352 0
M  V30 2009 C 212.596 0.174012 -2.06167 0
M  V30 2010 C 213.011 1.39347 -1.27388 0
M  V30 2011 O 212.368 1.79597 -0.324201 0
M  V30 2012 C 212.419 0.530223 -3.5759 0
M  V30 2013 O 212.14 -0.640806 -4.33388 0
M  V30 2014 C 213.641 1.16192 -4.27802 0
M  V30 2015 H 210.861 0.0229464 -0.670608 0
M  V30 2016 H 213.405 -0.572604 -1.9632 0
M  V30 2017 H 211.56 1.22673 -3.67464 0
M  V30 2018 H 211.974 -0.344851 -5.23365 0
M  V30 2019 H 213.448 1.36141 -5.34948 0
M  V30 2020 H 213.925 2.13335 -3.83907 0
M  V30 2021 H 214.531 0.505775 -4.22282 0
M  V30 2022 N 212.846 1.57033 -0.133567 0
M  V30 2023 C 214.094 1.953 0.519848 0
M  V30 2024 C 214.415 1.01866 1.66278 0
M  V30 2025 O 213.685 0.0776513 1.95746 0
M  V30 2026 H 212.265 0.721091 0.195032 0
M  V30 2027 H 214.927 1.93809 -0.205921 0
M  V30 2028 H 214.023 2.98695 0.904854 0
M  V30 2029 N 214.325 -0.140222 1.56975 0
M  V30 2030 C 215.571 -0.852949 1.83991 0
M  V30 2031 C 215.904 -1.80512 0.716187 0
M  V30 2032 O 215.179 -1.92479 -0.279681 0
M  V30 2033 C 215.462 -1.6215 3.21527 0
M  V30 2034 C 215.315 -0.690363 4.4447 0
M  V30 2035 C 216.634 -2.58247 3.56366 0
M  V30 2036 H 213.753 -0.308634 0.669264 0
M  V30 2037 H 216.395 -0.117898 1.89634 0
M  V30 2038 H 214.545 -2.24812 3.16847 0
M  V30 2039 H 216.217 -0.0742264 4.6124 0
M  V30 2040 H 214.46 -0.000396433 4.338 0
M  V30 2041 H 215.131 -1.2643 5.37326 0
M  V30 2042 H 217.607 -2.05701 3.61699 0
M  V30 2043 H 216.483 -3.09067 4.53617 0
M  V30 2044 H 216.744 -3.39923 2.82674 0
M  V30 2045 N 215.803 -1.52179 -0.40978 0
M  V30 2046 C 217.08 -1.56769 -1.16974 0
M  V30 2047 C 217.46 -0.348322 -2.08206 0
M  V30 2048 O 216.808 0.664862 -2.18613 0
M  V30 2049 C 217.018 -2.89603 -1.9476 0
M  V30 2050 C 218.366 -3.42579 -2.50849 0
M  V30 2051 O 219.39 -2.91338 -2.04941 0
M  V30 2052 O 218.249 -4.32054 -3.34652 0
M  V30 2053 H 215.343 -0.631439 -0.534054 0
M  V30 2054 H 217.889 -1.64507 -0.416613 0
M  V30 2055 H 216.661 -3.698 -1.27921 0
M  V30 2056 H 216.284 -2.85155 -2.77079 0
M  V30 2057 N 217.281 0.66697 -1.42791 0
M  V30 2058 C 218.509 1.45505 -1.47091 0
M  V30 2059 C 218.924 1.8861 -0.0845873 0
M  V30 2060 O 218.281 1.58632 0.90234 0
M  V30 2061 C 218.332 2.69906 -2.40485 0
M  V30 2062 O 218.053 2.28608 -3.73725 0
M  V30 2063 C 219.554 3.63396 -2.53886 0
M  V30 2064 H 216.774 0.447459 -0.500022 0
M  V30 2065 H 219.318 0.818866 -1.8739 0
M  V30 2066 H 217.473 3.29696 -2.03419 0
M  V30 2067 H 217.887 3.08997 -4.23817 0
M  V30 2068 H 219.361 4.47387 -3.2334 0
M  V30 2069 H 219.838 4.09824 -1.57927 0
M  V30 2070 H 220.444 3.09495 -2.91706 0
M  V30 2071 N 218.759 1.29093 0.90403 0
M  V30 2072 C 220.007 1.16583 1.65085 0
M  V30 2073 C 220.328 -0.283933 1.92922 0
M  V30 2074 O 219.598 -1.19509 1.55224 0
M  V30 2075 H 218.178 0.428467 0.611903 0
M  V30 2076 H 220.84 1.61959 1.08422 0
M  V30 2077 H 219.936 1.71266 2.6091 0
M  V30 2078 N 220.237 -1.11381 1.11499 0
M  V30 2079 C 221.2 -2.15622 0.777153 0
M  V30 2080 C 222.2 -1.59504 -0.203779 0
M  V30 2081 O 223.39 -1.74188 0.020782 0
M  V30 2082 C 220.522 -3.40556 0.153116 0
M  V30 2083 H 221.715 -2.47021 1.70061 0
M  V30 2084 H 219.268 -1.26577 0.916952 0
M  V30 2085 H 220.003 -3.14767 -0.780536 0
M  V30 2086 H 219.788 -3.8257 0.859238 0
M  V30 2087 H 221.278 -4.17546 -0.0671044 0
M  V30 2088 N 221.715 -0.905404 -1.28997 0
M  V30 2089 C 223.126 -0.581953 -1.77398 0
M  V30 2090 C 223.477 0.902552 -1.74208 0
M  V30 2091 O 222.602 1.70584 -1.33154 0
M  V30 2092 C 223.197 -1.04961 -3.22131 0
M  V30 2093 C 221.756 -0.777229 -3.68288 0
M  V30 2094 C 220.903 -1.22109 -2.48967 0
M  V30 2095 H 223.854 -1.08754 -1.15578 0
M  V30 2096 H 223.875 -0.387387 -3.78523 0
M  V30 2097 H 223.387 -2.13008 -3.24421 0
M  V30 2098 H 221.488 0.290383 -3.71467 0
M  V30 2099 H 221.601 -1.37911 -4.58822 0
M  V30 2100 H 219.965 -0.639971 -2.46529 0
M  V30 2101 H 220.748 -2.30972 -2.53982 0
M  V30 2102 N 223.193 1.4272 -0.668489 0
M  V30 2103 C 224.423 2.05668 -0.196063 0
M  V30 2104 C 224.831 1.5028 1.14946 0
M  V30 2105 O 224.174 0.6348 1.72383 0
M  V30 2106 C 224.236 3.59469 -0.0468879 0
M  V30 2107 C 223.9 4.37518 -1.32012 0
M  V30 2108 C 224.897 4.68584 -2.25222 0
M  V30 2109 C 222.582 4.77266 -1.56596 0
M  V30 2110 C 224.576 5.38326 -3.41297 0
M  V30 2111 C 222.263 5.4675 -2.72962 0
M  V30 2112 C 223.261 5.77204 -3.65137 0
M  V30 2113 O 222.949 6.45264 -4.79468 0
M  V30 2114 H 222.681 0.669382 -0.0943599 0
M  V30 2115 H 225.235 1.83954 -0.913788 0
M  V30 2116 H 223.465 3.79817 0.726357 0
M  V30 2117 H 225.154 4.04071 0.384852 0
M  V30 2118 H 225.92 4.38382 -2.07477 0
M  V30 2119 H 221.799 4.52959 -0.857249 0
M  V30 2120 H 225.343 5.62014 -4.13263 0
M  V30 2121 H 221.24 5.76369 -2.90635 0
M  V30 2122 H 222.008 6.63753 -4.78931 0
M  V30 2123 N 224.671 0.411399 1.52136 0
M  V30 2124 C 225.917 -0.156262 2.02799 0
M  V30 2125 C 226.272 -1.42613 1.29149 0
M  V30 2126 O 225.565 -1.87592 0.389839 0
M  V30 2127 C 225.759 -0.455872 3.54481 0
M  V30 2128 C 225.588 0.783404 4.42824 0
M  V30 2129 C 224.358 1.30928 4.88043 0
M  V30 2130 C 226.556 1.66217 4.86699 0
M  V30 2131 N 224.538 2.5038 5.6052 0
M  V30 2132 C 225.909 2.70292 5.5798 0
M  V30 2133 C 227.964 1.67966 4.68713 0
M  V30 2134 C 226.667 3.7603 6.13184 0
M  V30 2135 C 228.693 2.72624 5.24815 0
M  V30 2136 C 228.055 3.7542 5.9602 0
M  V30 2137 H 224.154 -0.0186886 0.781777 0
M  V30 2138 H 226.738 0.566255 1.86284 0
M  V30 2139 H 224.909 -1.14743 3.71064 0
M  V30 2140 H 226.641 -1.01261 3.91827 0
M  V30 2141 H 223.396 0.866977 4.65597 0
M  V30 2142 H 223.82 3.10881 6.014 0
M  V30 2143 H 228.462 0.898312 4.13147 0
M  V30 2144 H 226.18 4.55019 6.6782 0
M  V30 2145 H 229.766 2.74887 5.12765 0
M  V30 2146 H 228.646 4.55073 6.38654 0
M  V30 2147 N 226.149 -1.5696 0.141893 0
M  V30 2148 C 227.377 -2.00322 -0.517579 0
M  V30 2149 C 227.792 -1.02193 -1.58752 0
M  V30 2150 O 227.149 -0.0181619 -1.82491 0
M  V30 2151 C 227.2 -3.43618 -1.12289 0
M  V30 2152 O 226.921 -4.37995 -0.0956929 0
M  V30 2153 C 228.422 -4.02231 -1.86347 0
M  V30 2154 H 225.642 -0.657243 -0.135177 0
M  V30 2155 H 228.186 -2.03146 0.234973 0
M  V30 2156 H 226.341 -3.41662 -1.82609 0
M  V30 2157 H 226.755 -5.21729 -0.538469 0
M  V30 2158 H 228.229 -5.04509 -2.23997 0
M  V30 2159 H 228.706 -3.42655 -2.74744 0
M  V30 2160 H 229.312 -4.07802 -1.20737 0
M  V30 2161 N 227.627 0.131896 -1.57047 0
M  V30 2162 C 229.043 0.485031 -1.52051 0
M  V30 2163 C 229.243 1.82563 -0.85281 0
M  V30 2164 O 228.299 2.48817 -0.429694 0
M  V30 2165 C 229.612 0.481409 -2.96821 0
M  V30 2166 C 231.16 0.565868 -3.07842 0
M  V30 2167 C 231.635 0.592762 -4.54148 0
M  V30 2168 N 233.126 0.654564 -4.58552 0
M  V30 2169 C 233.861 0.696608 -5.69153 0
M  V30 2170 N 233.357 0.697078 -6.89284 0
M  V30 2171 N 235.15 0.738639 -5.57226 0
M  V30 2172 H 227.301 -0.746664 -1.98843 0
M  V30 2173 H 229.564 -0.273999 -0.90754 0
M  V30 2174 H 229.27 -0.435731 -3.4899 0
M  V30 2175 H 229.144 1.3139 -3.53577 0
M  V30 2176 H 231.531 1.47343 -2.55684 0
M  V30 2177 H 231.612 -0.29406 -2.54104 0
M  V30 2178 H 231.256 -0.310701 -5.06949 0
M  V30 2179 H 231.186 1.46939 -5.05684 0
M  V30 2180 H 233.677 0.660887 -3.72076 0
M  V30 2181 H 233.99 0.731426 -7.69331 0
M  V30 2182 H 232.335 0.66471 -6.91814 0
M  V30 2183 H 235.526 0.735545 -4.62285 0
M  V30 2184 H 235.699 0.767938 -6.43434 0
M  V30 2185 N 229.106 1.52395 0.401703 0
M  V30 2186 C 230.517 1.58899 0.980202 0
M  V30 2187 C 230.868 0.434032 1.91339 0
M  V30 2188 O 229.993 -0.444619 2.11783 0
M  V30 2189 C 230.588 2.87994 1.78451 0
M  V30 2190 C 229.147 2.96953 2.31292 0
M  V30 2191 C 228.294 2.53903 1.11483 0
M  V30 2192 H 231.245 1.57657 0.18168 0
M  V30 2193 H 231.266 2.73765 2.64259 0
M  V30 2194 H 230.778 3.72035 1.10506 0
M  V30 2195 H 228.879 2.17422 3.02586 0
M  V30 2196 H 228.992 4.01344 2.61649 0
M  V30 2197 H 227.356 2.07925 1.47104 0
M  V30 2198 H 228.139 3.40326 0.450928 0
M  V30 2199 N 230.584 -0.659388 1.43143 0
M  V30 2200 C 231.494 -1.80167 1.50256 0
M  V30 2201 C 232.51 -1.69571 0.390106 0
M  V30 2202 O 233.686 -1.90849 0.643319 0
M  V30 2203 C 230.751 -3.16409 1.41725 0
M  V30 2204 C 229.812 -3.38848 2.63591 0
M  V30 2205 C 229.045 -4.68591 2.55458 0
M  V30 2206 O 229.268 -5.47532 1.59891 0
M  V30 2207 O 228.202 -4.92614 3.45854 0
M  V30 2208 H 232.028 -1.77121 2.46702 0
M  V30 2209 H 229.613 -0.817092 1.25076 0
M  V30 2210 H 231.495 -3.9768 1.39387 0
M  V30 2211 H 230.17 -3.20059 0.484118 0
M  V30 2212 H 229.077 -2.57366 2.71502 0
M  V30 2213 H 230.41 -3.4004 3.55856 0
M  V30 2214 N 232.062 -1.29571 -0.897171 0
M  V30 2215 C 233.478 -1.07637 -1.17841 0
M  V30 2216 C 233.678 0.170713 -2.00776 0
M  V30 2217 O 232.734 0.867768 -2.3712 0
M  V30 2218 C 234.047 -2.3332 -1.8969 0
M  V30 2219 C 235.595 -2.38664 -2.02505 0
M  V30 2220 C 236.07 -3.64157 -2.77765 0
M  V30 2221 N 237.561 -3.64894 -2.85318 0
M  V30 2222 C 238.296 -4.58679 -3.44094 0
M  V30 2223 N 237.792 -5.62799 -4.04017 0
M  V30 2224 N 239.585 -4.46245 -3.41793 0
M  V30 2225 H 231.736 -2.09598 -0.343883 0
M  V30 2226 H 233.999 -0.923333 -0.214848 0
M  V30 2227 H 233.705 -3.24262 -1.36187 0
M  V30 2228 H 233.579 -2.41025 -2.9015 0
M  V30 2229 H 235.966 -1.48208 -2.55183 0
M  V30 2230 H 236.047 -2.34943 -1.01171 0
M  V30 2231 H 235.691 -4.54965 -2.25763 0
M  V30 2232 H 235.621 -3.65137 -3.7945 0
M  V30 2233 H 238.112 -2.89613 -2.42761 0
M  V30 2234 H 238.425 -6.3048 -4.46895 0
M  V30 2235 H 236.77 -5.66605 -4.02472 0
M  V30 2236 H 239.961 -3.64094 -2.94199 0
M  V30 2237 H 240.134 -5.19518 -3.87304 0
M  V30 2238 N 233.54 1.10788 -1.12088 0
M  V30 2239 C 234.473 2.16237 -0.729168 0
M  V30 2240 C 235.451 1.60207 0.277921 0
M  V30 2241 O 236.635 1.87707 0.172737 0
M  V30 2242 C 233.762 3.38609 -0.0786848 0
M  V30 2243 C 232.808 4.13322 -1.05201 0
M  V30 2244 S 233.641 4.69371 -2.57781 0
M  V30 2245 C 234.797 5.95058 -1.94053 0
M  V30 2246 H 235.03 2.4913 -1.62239 0
M  V30 2247 H 232.563 1.22519 -0.939603 0
M  V30 2248 H 234.521 4.09473 0.290254 0
M  V30 2249 H 233.182 3.03962 0.791593 0
M  V30 2250 H 232.375 5.01051 -0.544433 0
M  V30 2251 H 231.977 3.48251 -1.36371 0
M  V30 2252 H 234.269 6.65278 -1.28107 0
M  V30 2253 H 235.212 6.50472 -2.79807 0
M  V30 2254 H 235.62 5.46918 -1.39787 0
M  V30 2255 N 235.018 0.912232 1.28515 0
M  V30 2256 C 236.295 0.463597 1.90027 0
M  V30 2257 C 236.675 -1.05753 1.82701 0
M  V30 2258 O 236.023 -1.90492 1.26194 0
M  V30 2259 C 236.233 0.992253 3.34597 0
M  V30 2260 C 237.581 1.04344 4.11579 0
M  V30 2261 O 238.605 0.94079 3.43551 0
M  V30 2262 O 237.464 1.1995 5.33174 0
M  V30 2263 H 234.558 0.146666 0.813891 0
M  V30 2264 H 237.104 1.00292 1.36893 0
M  V30 2265 H 235.876 2.03623 3.34146 0
M  V30 2266 H 235.499 0.433672 3.95228 0
M  V30 2267 N 236.496 -1.42363 0.676048 0
M  V30 2268 C 237.443 -2.308 -0.00150904 0
M  V30 2269 C 238.413 -1.46032 -0.791444 0
M  V30 2270 O 239.598 -1.74861 -0.76344 0
M  V30 2271 C 236.738 -3.31883 -0.945919 0
M  V30 2272 C 235.851 -4.31741 -0.149675 0
M  V30 2273 C 234.986 -5.19898 -1.08995 0
M  V30 2274 C 234.025 -6.11434 -0.285465 0
M  V30 2275 N 233.162 -6.92138 -1.17851 0
M  V30 2276 H 238.002 -2.88187 0.758455 0
M  V30 2277 H 235.539 -1.41952 0.38576 0
M  V30 2278 H 237.497 -3.89019 -1.50731 0
M  V30 2279 H 236.127 -2.76093 -1.6725 0
M  V30 2280 H 235.179 -3.76713 0.528359 0
M  V30 2281 H 236.491 -4.96534 0.474866 0
M  V30 2282 H 235.645 -5.81772 -1.72123 0
M  V30 2283 H 234.384 -4.55284 -1.74837 0
M  V30 2284 H 233.389 -5.48627 0.359018 0
M  V30 2285 H 234.614 -6.78097 0.368883 0
M  V30 2286 H 232.56 -6.30152 -1.82332 0
M  V30 2287 H 232.477 -7.53542 -0.609082 0
M  V30 2288 H 233.745 -7.58499 -1.79722 0
M  V30 2289 N 237.974 -0.419461 -1.51915 0
M  V30 2290 C 238.921 0.400927 -2.27291 0
M  V30 2291 C 239.891 1.03224 -1.30131 0
M  V30 2292 O 241.076 1.05455 -1.59009 0
M  V30 2293 C 238.216 1.50603 -3.10504 0
M  V30 2294 C 237.329 0.89462 -4.22635 0
M  V30 2295 C 236.464 1.97328 -4.93189 0
M  V30 2296 C 235.503 1.33935 -5.97267 0
M  V30 2297 N 234.64 2.3586 -6.61298 0
M  V30 2298 H 239.48 -0.248251 -2.96964 0
M  V30 2299 H 237.017 -0.134266 -1.46486 0
M  V30 2300 H 238.975 2.15783 -3.57062 0
M  V30 2301 H 237.605 2.12509 -2.42981 0
M  V30 2302 H 236.657 0.131583 -3.80172 0
M  V30 2303 H 237.969 0.391641 -4.9726 0
M  V30 2304 H 237.123 2.70211 -5.43204 0
M  V30 2305 H 235.862 2.50994 -4.18155 0
M  V30 2306 H 234.867 0.595896 -5.46561 0
M  V30 2307 H 236.092 0.810252 -6.74249 0
M  V30 2308 H 234.038 2.88639 -5.89087 0
M  V30 2309 H 233.955 1.90403 -7.3163 0
M  V30 2310 H 235.223 3.08282 -7.15949 0
M  V30 2311 N 239.452 1.56882 -0.150215 0
M  V30 2312 C 240.382 2.19935 0.784284 0
M  V30 2313 C 241.363 1.14854 1.25469 0
M  V30 2314 O 242.548 1.43209 1.31168 0
M  V30 2315 C 239.678 2.82349 2.02229 0
M  V30 2316 C 238.632 3.93285 1.68853 0
M  V30 2317 C 237.958 4.42649 2.99944 0
M  V30 2318 C 239.258 5.13904 0.932714 0
M  V30 2319 H 240.952 2.9828 0.258781 0
M  V30 2320 H 238.498 1.43473 0.123029 0
M  V30 2321 H 240.451 3.25126 2.68088 0
M  V30 2322 H 239.175 2.0134 2.57157 0
M  V30 2323 H 237.834 3.5113 1.05371 0
M  V30 2324 H 237.482 3.58458 3.52869 0
M  V30 2325 H 237.182 5.17476 2.78374 0
M  V30 2326 H 238.706 4.88099 3.66868 0
M  V30 2327 H 240.12 5.53506 1.49345 0
M  V30 2328 H 238.517 5.94515 0.81684 0
M  V30 2329 H 239.587 4.84842 -0.0749568 0
M  V30 2330 N 240.93 -0.123565 1.57115 0
M  V30 2331 C 241.86 -1.15309 2.03042 0
M  V30 2332 C 242.841 -1.43454 0.914061 0
M  V30 2333 O 244.026 -1.53973 1.18347 0
M  V30 2334 C 241.156 -2.48043 2.43089 0
M  V30 2335 C 240.11 -2.3437 3.58127 0
M  V30 2336 C 239.436 -3.72026 3.84059 0
M  V30 2337 C 240.736 -1.80804 4.90007 0
M  V30 2338 H 242.43 -0.771102 2.893 0
M  V30 2339 H 239.976 -0.369479 1.39179 0
M  V30 2340 H 241.929 -3.20311 2.73823 0
M  V30 2341 H 240.653 -2.88122 1.53796 0
M  V30 2342 H 239.312 -1.64551 3.27595 0
M  V30 2343 H 238.96 -4.09582 2.91979 0
M  V30 2344 H 238.66 -3.63732 4.6149 0
M  V30 2345 H 240.184 -4.45806 4.1724 0
M  V30 2346 H 241.598 -2.42886 5.19307 0
M  V30 2347 H 239.995 -1.83343 5.71407 0
M  V30 2348 H 241.065 -0.76528 4.78823 0
M  V30 2349 N 242.408 -1.52605 -0.393616 0
M  V30 2350 C 243.371 -1.76415 -1.46323 0
M  V30 2351 C 244.371 -0.634126 -1.47768 0
M  V30 2352 O 245.561 -0.902142 -1.4902 0
M  V30 2353 C 242.693 -1.8607 -2.85641 0
M  V30 2354 H 243.886 -2.71916 -1.26498 0
M  V30 2355 H 241.439 -1.43257 -0.625073 0
M  V30 2356 H 242.174 -0.925378 -3.10817 0
M  V30 2357 H 241.959 -2.68235 -2.85993 0
M  V30 2358 H 243.449 -2.06179 -3.63153 0
M  V30 2359 N 243.887 0.651787 -1.4349 0
M  V30 2360 C 245.133 1.41376 -1.45398 0
M  V30 2361 C 245.466 1.94041 -0.0784823 0
M  V30 2362 O 244.741 1.72379 0.900878 0
M  V30 2363 C 245.024 2.59414 -2.49752 0
M  V30 2364 C 244.877 2.12232 -3.96582 0
M  V30 2365 C 246.196 3.61626 -2.50827 0
M  V30 2366 H 243.315 0.512719 -0.529422 0
M  V30 2367 H 245.957 0.738796 -1.75048 0
M  V30 2368 H 244.107 3.16997 -2.246 0
M  V30 2369 H 245.779 1.59639 -4.32797 0
M  V30 2370 H 244.022 1.43592 -4.09346 0
M  V30 2371 H 244.693 2.9712 -4.65214 0
M  V30 2372 H 247.169 3.13805 -2.7325 0
M  V30 2373 H 246.045 4.41766 -3.25783 0
M  V30 2374 H 246.306 4.14314 -1.5426 0
M  V30 2375 N 245.365 1.30045 0.890287 0
M  V30 2376 C 246.776 1.16738 1.45702 0
M  V30 2377 C 247.127 -0.233939 1.948 0
M  V30 2378 O 246.252 -1.13021 1.84541 0
M  V30 2379 C 246.847 2.11313 2.64825 0
M  V30 2380 C 245.406 2.02001 3.17604 0
M  V30 2381 C 244.553 2.01699 1.90296 0
M  V30 2382 H 247.504 1.42392 0.700726 0
M  V30 2383 H 247.525 1.69086 3.40867 0
M  V30 2384 H 247.037 3.13294 2.2906 0
M  V30 2385 H 245.138 1.03142 3.5804 0
M  V30 2386 H 245.251 2.90128 3.81264 0
M  V30 2387 H 243.615 1.46427 2.08402 0
M  V30 2388 H 244.398 3.05402 1.56795 0
M  V30 2389 N 246.843 -1.10192 1.12674 0
M  V30 2390 C 247.806 -2.14786 0.799979 0
M  V30 2391 C 248.806 -1.59711 -0.18685 0
M  V30 2392 O 249.996 -1.74156 0.0392558 0
M  V30 2393 C 247.128 -3.40374 0.189228 0
M  V30 2394 H 248.321 -2.45203 1.72671 0
M  V30 2395 H 245.874 -1.25597 0.930326 0
M  V30 2396 H 246.609 -3.15577 -0.747107 0
M  V30 2397 H 246.394 -3.81637 0.899766 0
M  V30 2398 H 247.884 -4.17594 -0.0228143 0
M  V30 2399 N 248.321 -0.919034 -1.28029 0
M  V30 2400 C 249.284 -0.416182 -2.2539 0
M  V30 2401 C 250.284 0.460438 -1.54067 0
M  V30 2402 O 251.474 0.262744 -1.72207 0
M  V30 2403 C 248.606 0.402707 -3.38513 0
M  V30 2404 H 249.799 -1.27629 -2.71387 0
M  V30 2405 H 247.352 -0.698919 -1.39803 0
M  V30 2406 H 248.087 1.282 -2.97885 0
M  V30 2407 H 247.872 -0.225698 -3.9145 0
M  V30 2408 H 249.362 0.745191 -4.10897 0
M  V30 2409 N 249.799 1.42003 -0.683588 0
M  V30 2410 C 250.747 2.326 0.000815408 0
M  V30 2411 C 251.741 1.50308 0.781278 0
M  V30 2412 O 252.947 1.66322 0.688251 0
M  V30 2413 H 249.322 0.751758 0.0190616 0
M  V30 2414 H 251.293 2.88011 -0.780528 0
M  V30 2415 C 250.042 3.34978 0.93195 0
M  V30 2416 H 249.365 3.98345 0.340817 0
M  V30 2417 H 250.805 4.00936 1.37936 0
M  V30 2418 C 249.264 2.67925 2.04249 0
M  V30 2419 O 249.794 2.51788 3.12995 0
M  V30 2420 N 248 2.2681 1.81675 0
M  V30 2421 H 247.547 2.40135 0.932363 0
M  V30 2422 H 247.505 1.8228 2.56167 0
M  V30 2423 N 251.277 0.427512 1.51691 0
M  V30 2424 C 252.505 -0.141191 2.06418 0
M  V30 2425 C 252.92 -1.37303 1.29589 0
M  V30 2426 O 252.277 -1.79059 0.352732 0
M  V30 2427 C 252.328 -0.473266 3.58389 0
M  V30 2428 O 252.049 0.709673 4.32314 0
M  V30 2429 C 253.55 -1.09371 4.29596 0
M  V30 2430 H 250.77 -0.0122747 0.670888 0
M  V30 2431 H 253.314 0.603764 1.95384 0
M  V30 2432 H 251.469 -1.16812 3.69369 0
M  V30 2433 H 251.883 0.42807 5.2275 0
M  V30 2434 H 253.357 -1.27613 5.37046 0
M  V30 2435 H 253.834 -2.072 3.87253 0
M  V30 2436 H 254.44 -0.43853 4.23033 0
M  V30 2437 N 252.755 -1.56801 0.158532 0
M  V30 2438 C 254.001 -1.96781 -0.490405 0
M  V30 2439 C 254.334 -1.04397 -1.63753 0
M  V30 2440 O 253.609 -0.0885805 -1.94298 0
M  V30 2441 C 253.892 -3.4635 -0.985594 0
M  V30 2442 C 253.745 -4.49512 0.160824 0
M  V30 2443 C 255.064 -3.98697 -1.86355 0
M  V30 2444 H 252.183 -0.715482 -0.176788 0
M  V30 2445 H 254.825 -1.88451 0.242088 0
M  V30 2446 H 252.975 -3.53579 -1.60978 0
M  V30 2447 H 254.647 -4.54353 0.797537 0
M  V30 2448 H 252.89 -4.26013 0.818256 0
M  V30 2449 H 253.561 -5.51531 -0.227569 0
M  V30 2450 H 256.037 -3.94019 -1.33746 0
M  V30 2451 H 254.913 -5.03792 -2.17909 0
M  V30 2452 H 255.174 -3.41744 -2.8047 0
M  V30 2453 N 254.233 0.115231 -1.57178 0
M  V30 2454 C 255.649 0.468877 -1.52557 0
M  V30 2455 C 255.849 1.81649 -0.872125 0
M  V30 2456 O 254.905 2.48347 -0.45606 0
M  V30 2457 C 256.218 0.4499 -2.97315 0
M  V30 2458 C 257.766 0.533185 -3.08425 0
M  V30 2459 C 258.241 0.54456 -4.54751 0
M  V30 2460 N 259.732 0.605892 -4.5922 0
M  V30 2461 C 260.467 0.636203 -5.6986 0
M  V30 2462 N 259.963 0.623931 -6.89985 0
M  V30 2463 N 261.756 0.679496 -5.57978 0
M  V30 2464 H 253.907 -0.767712 -1.9804 0
M  V30 2465 H 256.17 -0.283609 -0.904583 0
M  V30 2466 H 255.876 -0.472721 -3.48509 0
M  V30 2467 H 255.75 1.27632 -3.5495 0
M  V30 2468 H 258.137 1.44623 -2.57232 0
M  V30 2469 H 258.218 -0.320995 -2.53778 0
M  V30 2470 H 257.862 -0.364452 -5.06591 0
M  V30 2471 H 257.792 1.41568 -5.07214 0
M  V30 2472 H 260.283 0.621386 -3.72756 0
M  V30 2473 H 260.596 0.649787 -7.70063 0
M  V30 2474 H 258.941 0.591296 -6.9248 0
M  V30 2475 H 262.132 0.686472 -4.63039 0
M  V30 2476 H 262.305 0.69965 -6.44212 0
M  V30 2477 N 255.711 1.52812 0.385517 0
M  V30 2478 C 256.958 1.68026 1.1302 0
M  V30 2479 C 257.286 0.421934 1.89868 0
M  V30 2480 O 256.541 -0.595749 1.86412 0
M  V30 2481 C 256.84 2.86856 2.13187 0
M  V30 2482 C 256.506 4.24159 1.5297 0
M  V30 2483 C 255.168 4.61501 1.36274 0
M  V30 2484 C 257.52 5.09627 1.09223 0
M  V30 2485 C 254.848 5.81966 0.743837 0
M  V30 2486 C 257.2 6.30719 0.487411 0
M  V30 2487 C 255.864 6.6679 0.307777 0
M  V30 2488 H 255.134 0.614849 0.413571 0
M  V30 2489 H 257.781 1.86962 0.414405 0
M  V30 2490 H 256.086 2.6235 2.90998 0
M  V30 2491 H 257.783 2.95821 2.70722 0
M  V30 2492 H 254.373 3.94746 1.66954 0
M  V30 2493 H 258.557 4.81343 1.20922 0
M  V30 2494 H 253.813 6.08519 0.592891 0
M  V30 2495 H 257.987 6.96259 0.140143 0
M  V30 2496 H 255.614 7.60001 -0.173879 0
M  V30 2497 N 257.189 -0.644168 1.43834 0
M  V30 2498 C 258.605 -0.960875 1.27434 0
M  V30 2499 C 258.805 -2.00499 0.200618 0
M  V30 2500 O 257.861 -2.49018 -0.417906 0
M  V30 2501 C 259.174 -1.43653 2.64167 0
M  V30 2502 C 260.722 -1.55271 2.71772 0
M  V30 2503 C 261.197 -2.06224 4.08944 0
M  V30 2504 N 262.688 -2.13513 4.11055 0
M  V30 2505 C 263.423 -2.54081 5.14033 0
M  V30 2506 N 262.919 -2.9388 6.27381 0
M  V30 2507 N 264.712 -2.54101 5.01387 0
M  V30 2508 H 256.863 0.0465779 2.12349 0
M  V30 2509 H 259.126 -0.0417638 0.94708 0
M  V30 2510 H 258.832 -0.743706 3.43747 0
M  V30 2511 H 258.706 -2.40993 2.90176 0
M  V30 2512 H 261.093 -2.23653 1.92519 0
M  V30 2513 H 261.174 -0.563395 2.49519 0
M  V30 2514 H 260.818 -1.38441 4.88668 0
M  V30 2515 H 260.748 -3.06003 4.28567 0
M  V30 2516 H 263.239 -1.85493 3.29242 0
M  V30 2517 H 263.552 -3.2361 7.01781 0
M  V30 2518 H 261.897 -2.91663 6.30839 0
M  V30 2519 H 265.088 -2.22391 4.11898 0
M  V30 2520 H 265.261 -2.85394 5.81768 0
M  V30 2521 N 258.668 -1.30515 -0.883378 0
M  V30 2522 C 259.908 -1.20716 -1.64946 0
M  V30 2523 C 260.272 0.234072 -1.90568 0
M  V30 2524 O 261.473 0.455335 -2.64915 0
M  V30 2525 C 259.744 -2.01444 -2.9522 0
M  V30 2526 S 261.303 -2.0836 -3.86175 0
M  V30 2527 H 258.121 -0.430165 -0.566109 0
M  V30 2528 H 260.723 -1.65011 -1.04841 0
M  V30 2529 H 259.427 -3.05268 -2.74298 0
M  V30 2530 H 258.958 -1.57817 -3.60357 0
M  V30 2531 H 260.973 -1.21215 -4.81167 0
M  V30 2532 N 260.146 1.09593 -1.13257 0
M  V30 2533 C 261.557 1.63229 -0.906274 0
M  V30 2534 C 261.908 1.8811 0.557578 0
M  V30 2535 O 261.033 1.62953 1.42391 0
M  V30 2536 C 261.628 2.96535 -1.63867 0
M  V30 2537 C 260.187 3.47003 -1.45828 0
M  V30 2538 C 259.334 2.2145 -1.66898 0
M  V30 2539 H 262.285 0.92978 -1.28611 0
M  V30 2540 H 262.306 3.64411 -1.09476 0
M  V30 2541 H 261.818 2.78394 -2.70404 0
M  V30 2542 H 259.919 3.70272 -0.415848 0
M  V30 2543 H 260.032 4.24551 -2.2202 0
M  V30 2544 H 258.396 2.30022 -1.09371 0
M  V30 2545 H 259.179 2.0583 -2.74752 0
M  V30 2546 N 261.624 0.925811 1.2754 0
M  V30 2547 C 262.587 0.428129 2.25166 0
M  V30 2548 C 263.587 -0.452261 1.54309 0
M  V30 2549 O 264.777 -0.253608 1.72344 0
M  V30 2550 C 261.909 -0.384749 3.38722 0
M  V30 2551 H 263.102 1.29066 2.70706 0
M  V30 2552 H 260.655 0.706323 1.3943 0
M  V30 2553 H 261.39 -1.26618 2.98561 0
M  V30 2554 H 261.175 0.246454 3.91325 0
M  V30 2555 H 262.665 -0.723389 4.11287 0
M  V30 2556 N 263.102 -1.41638 0.69111 0
M  V30 2557 C 264.065 -2.29178 0.0319786 0
M  V30 2558 C 265.065 -1.44153 -0.712496 0
M  V30 2559 O 266.255 -1.65354 -0.548053 0
M  V30 2560 C 263.387 -3.26952 -0.965161 0
M  V30 2561 H 264.58 -2.88959 0.802681 0
M  V30 2562 H 262.133 -1.4955 0.454356 0
M  V30 2563 H 262.868 -2.72142 -1.76378 0
M  V30 2564 H 262.653 -3.89685 -0.434522 0
M  V30 2565 H 264.143 -3.92561 -1.42428 0
M  V30 2566 N 264.58 -0.43555 -1.51462 0
M  V30 2567 C 265.828 0.131254 -2.01673 0
M  V30 2568 C 266.149 1.43368 -1.32177 0
M  V30 2569 O 265.419 1.90524 -0.455769 0
M  V30 2570 H 263.999 0.0514954 -0.745223 0
M  V30 2571 H 266.661 -0.577847 -1.86137 0
M  V30 2572 H 265.757 0.308446 -3.10572 0
M  V30 2573 N 266.058 1.56714 -0.166846 0
M  V30 2574 C 267.006 2.19056 0.782123 0
M  V30 2575 C 268 1.15328 1.24079 0
M  V30 2576 O 269.206 1.33537 1.20697 0
M  V30 2577 H 265.581 0.70167 0.270486 0
M  V30 2578 H 267.552 2.97494 0.232322 0
M  V30 2579 C 266.301 2.84206 2.00306 0
M  V30 2580 H 265.624 3.63748 1.65914 0
M  V30 2581 H 267.064 3.31302 2.64604 0
M  V30 2582 C 265.523 1.83744 2.82382 0
M  V30 2583 O 266.053 1.32014 3.79388 0
M  V30 2584 N 264.259 1.52601 2.47308 0
M  V30 2585 H 263.806 1.9486 1.68485 0
M  V30 2586 H 263.764 0.856351 3.02513 0
M  V30 2587 N 267.536 -0.106894 1.57237 0
M  V30 2588 C 268.947 -0.662723 1.74542 0
M  V30 2589 C 269.298 -1.7971 0.787319 0
M  V30 2590 O 268.423 -2.16368 -0.0369636 0
M  V30 2591 C 269.018 -1.20896 3.16496 0
M  V30 2592 C 267.577 -1.71096 3.35266 0
M  V30 2593 C 266.724 -0.615642 2.7038 0
M  V30 2594 H 269.675 0.119106 1.58252 0
M  V30 2595 H 269.696 -2.07847 3.18716 0
M  V30 2596 H 269.208 -0.383122 3.86204 0
M  V30 2597 H 267.309 -2.56119 2.70618 0
M  V30 2598 H 267.422 -1.81208 4.43509 0
M  V30 2599 H 265.786 -1.05222 2.31949 0
M  V30 2600 H 266.569 0.199419 3.4272 0
M  V30 2601 N 269.014 -1.53014 -0.377408 0
M  V30 2602 C 270.242 -1.72515 -1.14219 0
M  V30 2603 C 270.657 -0.448735 -1.8339 0
M  V30 2604 O 270.014 0.577592 -1.73119 0
M  V30 2605 C 270.065 -2.8826 -2.18148 0
M  V30 2606 O 269.786 -4.10962 -1.51795 0
M  V30 2607 C 271.287 -3.19536 -3.07264 0
M  V30 2608 H 268.507 -0.577301 -0.342001 0
M  V30 2609 H 271.051 -1.99712 -0.439935 0
M  V30 2610 H 269.206 -2.63492 -2.83991 0
M  V30 2611 H 269.62 -4.75693 -2.20945 0
M  V30 2612 H 271.094 -4.03959 -3.76193 0
M  V30 2613 H 271.571 -2.34403 -3.71419 0
M  V30 2614 H 272.177 -3.46186 -2.47053 0
M  V30 2615 N 270.492 0.636531 -1.44174 0
M  V30 2616 C 271.903 1.21806 -1.41493 0
M  V30 2617 C 272.254 1.95785 -0.1275 0
M  V30 2618 O 271.379 2.02147 0.772376 0
M  V30 2619 C 271.974 2.21551 -2.56321 0
M  V30 2620 C 270.533 2.75143 -2.56853 0
M  V30 2621 C 269.68 1.50052 -2.33195 0
M  V30 2622 H 272.631 0.427531 -1.52833 0
M  V30 2623 H 272.652 3.0405 -2.28765 0
M  V30 2624 H 272.164 1.67679 -3.50008 0
M  V30 2625 H 270.265 3.33033 -1.67093 0
M  V30 2626 H 270.378 3.2155 -3.55165 0
M  V30 2627 H 268.742 1.77993 -1.82183 0
M  V30 2628 H 269.525 0.980903 -3.28988 0
M  V30 2629 N 271.97 1.30982 0.876444 0
M  V30 2630 C 273.195 1.23373 1.66715 0
M  V30 2631 C 273.62 -0.19885 1.87046 0
M  V30 2632 O 272.978 -1.1427 1.40756 0
M  V30 2633 C 273.026 1.97644 3.01611 0
M  V30 2634 O 272.13 1.30935 3.91062 0
M  V30 2635 H 271.471 0.426279 0.509099 0
M  V30 2636 H 274.001 1.72944 1.09323 0
M  V30 2637 H 274.011 2.06992 3.51594 0
M  V30 2638 H 272.686 3.01829 2.86133 0
M  V30 2639 H 271.263 1.29996 3.49507 0
M  V30 2640 N 273.449 -1.08991 1.13837 0
M  V30 2641 C 274.698 -1.80631 0.897509 0
M  V30 2642 C 275.011 -1.86872 -0.57777 0
M  V30 2643 O 276.217 -2.54866 -0.935701 0
M  V30 2644 C 274.673 -3.24517 1.55618 0
M  V30 2645 C 274.281 -3.26529 3.0673 0
M  V30 2646 C 276.025 -4.00882 1.3962 0
M  V30 2647 C 273.932 -4.64965 3.65461 0
M  V30 2648 H 272.862 -0.67691 0.332129 0
M  V30 2649 H 275.513 -1.2246 1.3666 0
M  V30 2650 H 273.895 -3.82778 1.01476 0
M  V30 2651 H 275.069 -2.78008 3.67489 0
M  V30 2652 H 273.384 -2.63656 3.22296 0
M  V30 2653 H 275.981 -5.03167 1.80906 0
M  V30 2654 H 276.324 -4.14896 0.341578 0
M  V30 2655 H 276.857 -3.49075 1.90766 0
M  V30 2656 H 273.596 -4.56153 4.70749 0
M  V30 2657 H 273.116 -5.13792 3.09481 0
M  V30 2658 H 274.795 -5.3394 3.654 0
M  V30 2659 N 274.927 -0.932562 -1.27047 0
M  V30 2660 C 276.152 -0.591474 -1.98787 0
M  V30 2661 C 276.577 0.824601 -1.69062 0
M  V30 2662 O 275.935 1.5541 -0.933677 0
M  V30 2663 C 275.983 -0.829808 -3.50922 0
M  V30 2664 O 275.087 0.102266 -4.12273 0
M  V30 2665 H 274.428 -0.227185 -0.623926 0
M  V30 2666 H 276.958 -1.25314 -1.61733 0
M  V30 2667 H 276.968 -0.747292 -4.01098 0
M  V30 2668 H 275.643 -1.86201 -3.7189 0
M  V30 2669 H 274.22 -0.0305761 -3.72887 0
M  V30 2670 N 276.405 1.4127 -0.698611 0
M  V30 2671 C 277.651 2.01979 -0.239972 0
M  V30 2672 C 278.006 1.54353 1.14861 0
M  V30 2673 O 277.299 0.746218 1.76471 0
M  V30 2674 C 277.493 3.56592 -0.240192 0
M  V30 2675 C 277.322 4.19226 -1.62726 0
M  V30 2676 C 276.092 4.53389 -2.23084 0
M  V30 2677 C 278.29 4.45228 -2.57443 0
M  V30 2678 N 276.272 5.01327 -3.54323 0
M  V30 2679 C 277.643 4.94973 -3.73365 0
M  V30 2680 C 279.698 4.27243 -2.55671 0
M  V30 2681 C 278.401 5.28624 -4.878 0
M  V30 2682 C 280.427 4.61985 -3.69221 0
M  V30 2683 C 279.789 5.11904 -4.83873 0
M  V30 2684 H 275.888 0.770561 -0.133269 0
M  V30 2685 H 278.472 1.71767 -0.916748 0
M  V30 2686 H 276.643 3.86271 0.406082 0
M  V30 2687 H 278.375 4.04025 0.23356 0
M  V30 2688 H 275.13 4.39946 -1.75341 0
M  V30 2689 H 275.554 5.29697 -4.21604 0
M  V30 2690 H 280.196 3.87884 -1.68243 0
M  V30 2691 H 277.914 5.66905 -5.75885 0
M  V30 2692 H 281.5 4.49725 -3.69105 0
M  V30 2693 H 280.38 5.38282 -5.70282 0
M  V30 2694 N 277.883 0.443576 1.51229 0
M  V30 2695 C 278.813 -0.355142 2.30783 0
M  V30 2696 C 279.794 -1.0154 1.36468 0
M  V30 2697 O 280.979 -1.01785 1.65389 0
M  V30 2698 C 278.109 -1.45312 3.15439 0
M  V30 2699 C 277.063 -0.916002 4.18083 0
M  V30 2700 C 276.389 -2.1102 4.91299 0
M  V30 2701 C 277.689 0.0538602 5.22272 0
M  V30 2702 H 279.383 0.308767 2.97804 0
M  V30 2703 H 276.929 0.149937 1.43217 0
M  V30 2704 H 278.882 -2.01914 3.69876 0
M  V30 2705 H 277.606 -2.14541 2.46252 0
M  V30 2706 H 276.265 -0.372145 3.64706 0
M  V30 2707 H 275.913 -2.78882 4.18609 0
M  V30 2708 H 275.613 -1.75717 5.60712 0
M  V30 2709 H 277.137 -2.68164 5.48562 0
M  V30 2710 H 278.551 -0.422069 5.71744 0
M  V30 2711 H 276.948 0.319776 5.99247 0
M  V30 2712 H 278.018 0.98858 4.74716 0
M  V30 2713 N 279.361 -1.56624 0.175154 0
M  V30 2714 C 280.308 -2.18149 -0.753634 0
M  V30 2715 C 281.278 -1.12265 -1.22417 0
M  V30 2716 O 282.463 -1.40432 -1.29165 0
M  V30 2717 C 279.603 -2.82933 -1.97592 0
M  V30 2718 C 278.716 -4.03289 -1.5486 0
M  V30 2719 C 277.851 -4.55988 -2.72485 0
M  V30 2720 C 276.89 -5.68746 -2.26262 0
M  V30 2721 N 276.027 -6.15938 -3.36994 0
M  V30 2722 H 280.867 -2.9717 -0.222195 0
M  V30 2723 H 278.404 -1.46774 -0.0979422 0
M  V30 2724 H 280.362 -3.18653 -2.69288 0
M  V30 2725 H 278.992 -2.06509 -2.481 0
M  V30 2726 H 278.044 -3.73364 -0.728246 0
M  V30 2727 H 279.356 -4.849 -1.16933 0
M  V30 2728 H 278.51 -4.9391 -3.52332 0
M  V30 2729 H 277.249 -3.73443 -3.13674 0
M  V30 2730 H 276.254 -5.30372 -1.44863 0
M  V30 2731 H 277.479 -6.53095 -1.86127 0
M  V30 2732 H 275.425 -5.36321 -3.77751 0
M  V30 2733 H 275.342 -6.92548 -3.03172 0
M  V30 2734 H 276.61 -6.58511 -4.17114 0
M  V30 2735 N 280.839 0.0985539 -1.57292 0
M  V30 2736 C 281.787 1.1387 -2.02821 0
M  V30 2737 C 282.781 1.41676 -0.928666 0
M  V30 2738 O 283.987 1.41398 -1.11385 0
M  V30 2739 H 280.362 0.384419 -0.646317 0
M  V30 2740 H 282.333 0.728347 -2.89375 0
M  V30 2741 C 281.082 2.45166 -2.46554 0
M  V30 2742 H 280.405 2.24613 -3.3074 0
M  V30 2743 H 281.845 3.16456 -2.8219 0
M  V30 2744 C 280.304 3.09216 -1.33742 0
M  V30 2745 O 280.834 3.96163 -0.66464 0
M  V30 2746 N 279.04 2.69413 -1.08928 0
M  V30 2747 H 278.587 1.98801 -1.63817 0
M  V30 2748 H 278.545 3.12594 -0.336458 0
M  V30 2749 N 282.317 1.53212 0.369288 0
M  V30 2750 C 283.565 1.68881 1.11012 0
M  V30 2751 C 283.886 0.441285 1.89941 0
M  V30 2752 O 283.156 -0.544623 1.88177 0
M  V30 2753 H 281.736 0.622569 0.412816 0
M  V30 2754 H 284.398 1.90391 0.416802 0
M  V30 2755 H 283.494 2.54822 1.80201 0
M  V30 2756 N 283.795 -0.628877 1.44509 0
M  V30 2757 C 285.211 -0.947305 1.28446 0
M  V30 2758 C 285.411 -2.00275 0.221872 0
M  V30 2759 O 284.467 -2.49447 -0.391471 0
M  V30 2760 C 285.78 -1.40843 2.65676 0
M  V30 2761 C 287.328 -1.52379 2.73404 0
M  V30 2762 C 287.803 -2.01875 4.11109 0
M  V30 2763 N 289.294 -2.09142 4.13296 0
M  V30 2764 C 290.029 -2.48615 5.16699 0
M  V30 2765 N 289.525 -2.87209 6.30462 0
M  V30 2766 N 291.318 -2.48768 5.04054 0
M  V30 2767 H 283.469 0.0690977 2.12288 0
M  V30 2768 H 285.732 -0.0317164 0.947469 0
M  V30 2769 H 285.438 -0.707206 3.44516 0
M  V30 2770 H 285.312 -2.37902 2.92716 0
M  V30 2771 H 287.699 -2.21598 1.9488 0
M  V30 2772 H 287.78 -0.536898 2.50102 0
M  V30 2773 H 287.424 -1.3325 4.90109 0
M  V30 2774 H 287.354 -3.0144 4.31789 0
M  V30 2775 H 289.845 -1.81991 3.31191 0
M  V30 2776 H 290.158 -3.16149 7.05174 0
M  V30 2777 H 288.503 -2.84955 6.33897 0
M  V30 2778 H 291.694 -2.18009 4.14234 0
M  V30 2779 H 291.867 -2.79207 5.84763 0
M  V30 2780 N 285.273 -1.31445 -0.869486 0
M  V30 2781 C 286.183 -1.21097 -2.0093 0
M  V30 2782 C 287.199 -0.127584 -1.73532 0
M  V30 2783 O 288.375 -0.345477 -1.98415 0
M  V30 2784 C 285.44 -0.919378 -3.34288 0
M  V30 2785 C 284.501 -2.08971 -3.75006 0
M  V30 2786 C 283.734 -1.81194 -5.02001 0
M  V30 2787 O 283.957 -0.747296 -5.65484 0
M  V30 2788 O 282.891 -2.66883 -5.39497 0
M  V30 2789 H 286.717 -2.16883 -2.12592 0
M  V30 2790 H 284.302 -1.11189 -0.997868 0
M  V30 2791 H 286.184 -0.772625 -4.14257 0
M  V30 2792 H 284.859 0.00844772 -3.23699 0
M  V30 2793 H 283.766 -2.29187 -2.95676 0
M  V30 2794 H 285.099 -2.9998 -3.90221 0
M  V30 2795 N 286.751 1.08385 -1.14413 0
M  V30 2796 C 287.998 1.80776 -0.912482 0
M  V30 2797 C 288.326 1.86236 0.560934 0
M  V30 2798 O 287.581 1.33431 1.43159 0
M  V30 2799 C 287.88 3.26273 -1.45879 0
M  V30 2800 C 287.546 3.4093 -2.95089 0
M  V30 2801 C 286.208 3.44638 -3.35824 0
M  V30 2802 C 288.56 3.44591 -3.91033 0
M  V30 2803 C 285.888 3.49597 -4.71167 0
M  V30 2804 C 288.24 3.51086 -5.26233 0
M  V30 2805 C 286.904 3.53067 -5.6648 0
M  V30 2806 H 286.174 0.661507 -0.333901 0
M  V30 2807 H 288.821 1.27613 -1.42784 0
M  V30 2808 H 287.126 3.82146 -0.864376 0
M  V30 2809 H 288.823 3.80839 -1.2555 0
M  V30 2810 H 285.413 3.38736 -2.62594 0
M  V30 2811 H 289.597 3.40957 -3.60641 0
M  V30 2812 H 284.853 3.49424 -5.0171 0
M  V30 2813 H 289.027 3.52864 -6.00383 0
M  V30 2814 H 286.654 3.56662 -6.71339 0
M  V30 2815 N 288.23 0.939286 1.26551 0
M  V30 2816 C 289.646 0.641304 1.46149 0
M  V30 2817 C 289.846 -0.805964 1.84679 0
M  V30 2818 O 288.902 -1.58278 1.96734 0
M  V30 2819 C 290.215 1.6011 2.54529 0
M  V30 2820 C 291.763 1.6106 2.68382 0
M  V30 2821 C 292.238 2.55765 3.79932 0
M  V30 2822 N 293.729 2.5404 3.87322 0
M  V30 2823 C 294.464 3.24004 4.73085 0
M  V30 2824 N 293.96 4.03388 5.63249 0
M  V30 2825 N 295.753 3.12965 4.66914 0
M  V30 2826 H 287.904 1.87478 0.998285 0
M  V30 2827 H 290.167 0.805559 0.499779 0
M  V30 2828 H 289.873 2.63412 2.33039 0
M  V30 2829 H 289.747 1.35171 3.52149 0
M  V30 2830 H 292.134 0.584835 2.89247 0
M  V30 2831 H 292.215 1.90053 1.71212 0
M  V30 2832 H 291.859 3.58458 3.5982 0
M  V30 2833 H 291.789 2.24063 4.76554 0
M  V30 2834 H 294.28 1.96396 3.22858 0
M  V30 2835 H 294.593 4.5373 6.25579 0
M  V30 2836 H 292.938 4.07489 5.63008 0
M  V30 2837 H 296.129 2.50432 3.95476 0
M  V30 2838 H 296.302 3.67759 5.33533 0
M  V30 2839 N 289.708 -1.40897 0.706093 0
M  V30 2840 C 290.956 -2.00657 0.241054 0
M  V30 2841 C 291.277 -1.56241 -1.16678 0
M  V30 2842 O 290.547 -0.79765 -1.78926 0
M  V30 2843 H 289.127 -0.742018 0.0861308 0
M  V30 2844 H 291.789 -1.72372 0.909604 0
M  V30 2845 H 290.885 -3.10958 0.266705 0
M  V30 2846 N 291.186 -0.45159 -1.50991 0
M  V30 2847 C 292.096 0.358431 -2.31846 0
M  V30 2848 C 293.112 1.01438 -1.41373 0
M  V30 2849 O 294.288 1.00663 -1.74439 0
M  V30 2850 C 291.353 1.43704 -3.15515 0
M  V30 2851 C 290.414 0.799742 -4.21785 0
M  V30 2852 C 289.647 1.82696 -5.01456 0
M  V30 2853 O 289.87 3.05105 -4.81941 0
M  V30 2854 O 288.804 1.40958 -5.85162 0
M  V30 2855 H 292.63 -0.302032 -3.02194 0
M  V30 2856 H 290.215 -0.213825 -1.47862 0
M  V30 2857 H 292.097 2.06227 -3.67489 0
M  V30 2858 H 290.772 2.08133 -2.47916 0
M  V30 2859 H 289.679 0.136084 -3.73852 0
M  V30 2860 H 291.012 0.198718 -4.91799 0
M  V30 2861 N 292.664 1.56529 -0.183458 0
M  V30 2862 C 293.614 2.1515 0.754605 0
M  V30 2863 C 294.598 1.08904 1.18443 0
M  V30 2864 O 295.79 1.34997 1.14476 0
M  V30 2865 C 292.919 2.80531 1.97881 0
M  V30 2866 C 292.005 3.93952 1.57043 0
M  V30 2867 N 292.396 4.98221 0.87231 0
M  V30 2868 C 290.694 4.05338 1.86057 0
M  V30 2869 C 291.395 5.77836 0.669377 0
M  V30 2870 N 290.371 5.29858 1.21454 0
M  V30 2871 H 294.173 2.93132 0.212387 0
M  V30 2872 H 291.687 1.62391 0.0167725 0
M  V30 2873 H 293.684 3.20914 2.6612 0
M  V30 2874 H 292.344 2.04035 2.52586 0
M  V30 2875 H 293.355 5.15191 0.529033 0
M  V30 2876 H 290.032 3.39957 2.42354 0
M  V30 2877 H 291.422 6.71799 0.116422 0
M  V30 2878 N 294.142 -0.090211 1.57342 0
M  V30 2879 C 295.558 -0.444547 1.53284 0
M  V30 2880 C 295.758 -1.80238 0.900914 0
M  V30 2881 O 294.814 -2.4759 0.495513 0
M  V30 2882 C 296.127 -0.402543 2.97993 0
M  V30 2883 C 297.675 -0.48405 3.09234 0
M  V30 2884 C 298.15 -0.472144 4.5556 0
M  V30 2885 N 299.641 -0.532757 4.60126 0
M  V30 2886 C 300.376 -0.545462 5.708 0
M  V30 2887 N 299.872 -0.514082 6.9089 0
M  V30 2888 N 301.665 -0.59064 5.58988 0
M  V30 2889 H 293.816 0.799121 1.96794 0
M  V30 2890 H 296.079 0.297965 0.899956 0
M  V30 2891 H 295.785 0.528106 3.47712 0
M  V30 2892 H 295.659 -1.21969 3.56936 0
M  V30 2893 H 298.046 -1.40512 2.595 0
M  V30 2894 H 298.127 0.361328 2.53235 0
M  V30 2895 H 297.771 0.445 5.05947 0
M  V30 2896 H 297.701 -1.3348 5.09402 0
M  V30 2897 H 300.192 -0.562006 3.73698 0
M  V30 2898 H 300.505 -0.527195 7.71 0
M  V30 2899 H 298.85 -0.481054 6.93333 0
M  V30 2900 H 302.041 -0.61272 4.64073 0
M  V30 2901 H 302.214 -0.597073 6.45243 0
M  V30 2902 N 295.62 -1.53406 -0.361157 0
M  V30 2903 C 296.869 -1.69022 -1.10066 0
M  V30 2904 C 297.182 -0.450838 -1.90333 0
M  V30 2905 O 298.388 -0.487617 -2.67085 0
M  V30 2906 C 296.844 -2.98812 -2.00598 0
M  V30 2907 C 296.452 -4.30027 -1.25621 0
M  V30 2908 C 298.196 -3.23795 -2.74513 0
M  V30 2909 C 296.103 -5.50903 -2.1508 0
M  V30 2910 H 295.033 -0.629776 -0.414606 0
M  V30 2911 H 297.684 -1.79907 -0.361348 0
M  V30 2912 H 296.066 -2.8174 -2.78278 0
M  V30 2913 H 297.24 -4.57745 -0.529739 0
M  V30 2914 H 295.555 -4.11522 -0.635496 0
M  V30 2915 H 298.152 -4.11289 -3.41681 0
M  V30 2916 H 298.495 -2.40045 -3.40123 0
M  V30 2917 H 299.028 -3.41561 -2.03914 0
M  V30 2918 H 295.767 -6.37143 -1.54041 0
M  V30 2919 H 295.287 -5.27459 -2.85565 0
M  V30 2920 H 296.966 -5.85865 -2.74538 0
M  V30 2921 N 297.098 0.621204 -1.44841 0
M  V30 2922 C 298.346 1.37783 -1.47852 0
M  V30 2923 C 298.667 1.94653 -0.116224 0
M  V30 2924 O 297.937 1.76367 0.852737 0
M  V30 2925 H 296.517 0.511453 -0.544449 0
M  V30 2926 H 299.179 0.730446 -1.80694 0
M  V30 2927 H 298.275 2.20414 -2.20961 0
M  V30 2928 N 298.576 1.31904 0.862503 0
M  V30 2929 C 299.824 1.21776 1.61292 0
M  V30 2930 C 300.145 -0.222413 1.93727 0
M  V30 2931 O 299.415 -1.1451 1.58947 0
M  V30 2932 H 297.995 0.447717 0.597962 0
M  V30 2933 H 300.657 1.65326 1.03215 0
M  V30 2934 H 299.753 1.7948 2.5533 0
M  V30 2935 N 300.054 -1.07777 1.14986 0
M  V30 2936 C 301.303 -1.79669 0.916617 0
M  V30 2937 C 301.616 -1.87474 -0.557917 0
M  V30 2938 O 302.822 -2.55845 -0.908617 0
M  V30 2939 C 301.278 -3.22848 1.59051 0
M  V30 2940 C 300.886 -3.23257 3.10176 0
M  V30 2941 C 302.63 -3.99379 1.43864 0
M  V30 2942 C 300.537 -4.61063 3.70372 0
M  V30 2943 H 299.467 -0.673349 0.33929 0
M  V30 2944 H 302.118 -1.21003 1.37951 0
M  V30 2945 H 300.5 -3.8168 1.0553 0
M  V30 2946 H 301.674 -2.74095 3.70417 0
M  V30 2947 H 299.989 -2.60222 3.25074 0
M  V30 2948 H 302.586 -5.0122 1.86232 0
M  V30 2949 H 302.929 -4.14511 0.385564 0
M  V30 2950 H 303.462 -3.47032 1.94457 0
M  V30 2951 H 300.201 -4.51135 4.7556 0
M  V30 2952 H 299.721 -5.1048 3.14913 0
M  V30 2953 H 301.4 -5.30034 3.71043 0
M  V30 2954 N 301.532 -0.945985 -1.26051 0
M  V30 2955 C 302.479 -0.45809 -2.26208 0
M  V30 2956 C 303.449 0.484816 -1.58867 0
M  V30 2957 O 304.634 0.399969 -1.86561 0
M  V30 2958 C 301.774 0.266131 -3.44072 0
M  V30 2959 C 300.887 -0.713005 -4.26075 0
M  V30 2960 C 300.022 0.0329013 -5.3119 0
M  V30 2961 C 299.061 -0.93774 -6.04874 0
M  V30 2962 N 298.198 -0.223274 -7.01745 0
M  V30 2963 H 303.038 -1.3171 -2.67313 0
M  V30 2964 H 300.575 -0.66069 -1.31428 0
M  V30 2965 H 302.533 0.702514 -4.11243 0
M  V30 2966 H 301.163 1.08925 -3.03867 0
M  V30 2967 H 300.215 -1.26789 -3.58648 0
M  V30 2968 H 301.527 -1.45406 -4.77136 0
M  V30 2969 H 300.681 0.528335 -6.04395 0
M  V30 2970 H 299.42 0.806801 -4.8098 0
M  V30 2971 H 298.425 -1.44425 -5.30492 0
M  V30 2972 H 299.65 -1.71172 -6.57173 0
M  V30 2973 H 297.596 0.532046 -6.53839 0
M  V30 2974 H 297.513 -0.90357 -7.50581 0
M  V30 2975 H 298.781 0.250907 -7.79096 0
M  V30 2976 N 303.011 1.40521 -0.713556 0
M  V30 2977 C 303.941 2.33381 -0.0743864 0
M  V30 2978 C 304.922 1.52784 0.747735 0
M  V30 2979 O 306.107 1.81258 0.697071 0
M  V30 2980 C 303.237 3.36748 0.849598 0
M  V30 2981 C 302.191 4.27793 0.133247 0
M  V30 2982 C 301.517 5.21679 1.17281 0
M  V30 2983 C 302.817 5.12415 -1.01134 0
M  V30 2984 H 304.511 2.87081 -0.850007 0
M  V30 2985 H 302.057 1.38034 -0.410201 0
M  V30 2986 H 304.01 4.00648 1.30612 0
M  V30 2987 H 302.734 2.81439 1.65709 0
M  V30 2988 H 301.393 3.65342 -0.303426 0
M  V30 2989 H 301.041 4.62677 1.9733 0
M  V30 2990 H 300.741 5.83435 0.698397 0
M  V30 2991 H 302.265 5.88456 1.62947 0
M  V30 2992 H 303.679 5.69781 -0.634274 0
M  V30 2993 H 302.076 5.83203 -1.41399 0
M  V30 2994 H 303.146 4.48514 -1.84292 0
M  V30 2995 N 304.489 0.459591 1.5075 0
M  V30 2996 C 305.905 0.113092 1.59199 0
M  V30 2997 C 306.105 -1.37951 1.46874 0
M  V30 2998 O 305.161 -2.15168 1.32132 0
M  V30 2999 C 306.474 0.653043 2.93523 0
M  V30 3000 C 308.022 0.615449 3.0689 0
M  V30 3001 C 308.497 1.13275 4.43771 0
M  V30 3002 N 309.988 1.09167 4.50152 0
M  V30 3003 C 310.723 1.46256 5.54434 0
M  V30 3004 N 310.219 1.90739 6.66026 0
M  V30 3005 N 312.012 1.37932 5.44914 0
M  V30 3006 H 304.163 1.43049 1.57005 0
M  V30 3007 H 306.426 0.590861 0.741341 0
M  V30 3008 H 306.132 1.69822 3.07983 0
M  V30 3009 H 306.006 0.0902132 3.77092 0
M  V30 3010 H 308.393 -0.420793 2.92084 0
M  V30 3011 H 308.474 1.21495 2.25106 0
M  V30 3012 H 308.118 2.16757 4.59324 0
M  V30 3013 H 308.048 0.509576 5.24129 0
M  V30 3014 H 310.539 0.76528 3.7007 0
M  V30 3015 H 310.852 2.17218 7.41644 0
M  V30 3016 H 309.197 1.94683 6.67176 0
M  V30 3017 H 312.388 1.0303 4.56621 0
M  V30 3018 H 312.561 1.67164 6.26067 0
M  V30 3019 N 305.967 -1.56429 0.191757 0
M  V30 3020 C 306.917 -2.15548 -0.743184 0
M  V30 3021 C 307.901 -1.09531 -1.17863 0
M  V30 3022 O 309.093 -1.35602 -1.13759 0
M  V30 3023 C 306.222 -2.81577 -1.96391 0
M  V30 3024 C 305.308 -3.9478 -1.54951 0
M  V30 3025 N 305.699 -4.98677 -0.845876 0
M  V30 3026 C 303.997 -4.06319 -1.83905 0
M  V30 3027 C 304.698 -5.78183 -0.638724 0
M  V30 3028 N 303.674 -5.30495 -1.18643 0
M  V30 3029 H 307.476 -2.9324 -0.196839 0
M  V30 3030 H 304.99 -1.62398 -0.0081603 0
M  V30 3031 H 306.987 -3.22321 -2.64415 0
M  V30 3032 H 305.647 -2.05371 -2.51501 0
M  V30 3033 H 306.658 -5.15464 -0.501704 0
M  V30 3034 H 303.335 -3.41238 -2.40548 0
M  V30 3035 H 304.725 -6.71851 -0.0807929 0
M  V30 3036 N 307.445 0.0818655 -1.57387 0
M  V30 3037 C 308.377 1.12484 -1.997 0
M  V30 3038 C 309.39 1.35564 -0.90146 0
M  V30 3039 O 310.579 1.33982 -1.17945 0
M  V30 3040 C 307.679 2.47778 -2.31213 0
M  V30 3041 C 306.852 2.44793 -3.62485 0
M  V30 3042 C 305.911 3.62117 -3.81782 0
M  V30 3043 O 304.937 3.44005 -4.53486 0
M  V30 3044 N 306.139 4.82094 -3.23367 0
M  V30 3045 H 308.904 0.764585 -2.89783 0
M  V30 3046 H 306.465 0.270664 -1.59621 0
M  V30 3047 H 308.457 3.24891 -2.41304 0
M  V30 3048 H 307.027 2.75843 -1.4707 0
M  V30 3049 H 306.247 1.53134 -3.6324 0
M  V30 3050 H 307.535 2.39889 -4.48699 0
M  V30 3051 H 306.933 4.99713 -2.65148 0
M  V30 3052 H 305.49 5.56753 -3.38923 0
M  V30 3053 N 308.923 1.53595 0.353017 0
M  V30 3054 C 309.855 1.77219 1.45348 0
M  V30 3055 C 310.868 0.65324 1.49119 0
M  V30 3056 O 312.057 0.929775 1.52373 0
M  V30 3057 C 309.157 1.84841 2.84055 0
M  V30 3058 C 308.33 3.14649 3.03833 0
M  V30 3059 C 307.389 3.13351 4.22727 0
M  V30 3060 O 306.415 3.87107 4.17297 0
M  V30 3061 N 307.617 2.35052 5.30783 0
M  V30 3062 H 310.382 2.72178 1.25457 0
M  V30 3063 H 307.943 1.52528 0.542833 0
M  V30 3064 H 309.935 1.81435 3.61751 0
M  V30 3065 H 308.505 0.971114 2.97133 0
M  V30 3066 H 307.725 3.31256 2.13689 0
M  V30 3067 H 309.013 4.00411 3.13925 0
M  V30 3068 H 308.411 1.74663 5.38061 0
M  V30 3069 H 306.968 2.37453 6.07009 0
M  V30 3070 N 310.401 -0.613514 1.45168 0
M  V30 3071 C 311.647 -1.37279 1.50087 0
M  V30 3072 C 312.002 -1.91902 0.138294 0
M  V30 3073 O 311.295 -1.71764 -0.84899 0
M  V30 3074 C 311.489 -2.54347 2.51083 0
M  V30 3075 C 311.318 -2.11186 3.97027 0
M  V30 3076 C 310.088 -1.97636 4.65046 0
M  V30 3077 C 312.286 -1.69016 4.85735 0
M  V30 3078 N 310.268 -1.48224 5.95737 0
M  V30 3079 C 311.639 -1.30976 6.06008 0
M  V30 3080 C 313.694 -1.56555 4.72647 0
M  V30 3081 C 312.397 -0.817197 7.14643 0
M  V30 3082 C 314.423 -1.08702 5.81324 0
M  V30 3083 C 313.785 -0.716233 7.00749 0
M  V30 3084 H 309.884 -0.496478 0.60418 0
M  V30 3085 H 312.468 -0.701988 1.81605 0
M  V30 3086 H 310.639 -3.19031 2.21527 0
M  V30 3087 H 312.371 -3.21208 2.46187 0
M  V30 3088 H 309.126 -2.18638 4.20112 0
M  V30 3089 H 309.55 -1.25767 6.65216 0
M  V30 3090 H 314.192 -1.83849 3.80736 0
M  V30 3091 H 311.91 -0.531797 8.06348 0
M  V30 3092 H 315.496 -0.994943 5.7323 0
M  V30 3093 H 314.376 -0.351642 7.83411 0
M  V30 3094 N 311.879 -1.3236 -0.855495 0
M  V30 3095 C 313.104 -1.2601 -1.64731 0
M  V30 3096 C 313.529 0.169068 -1.87339 0
M  V30 3097 O 312.887 1.12016 -1.42556 0
M  V30 3098 C 312.935 -2.02417 -2.98429 0
M  V30 3099 O 312.039 -1.3714 -3.8893 0
M  V30 3100 H 311.38 -0.434325 -0.502253 0
M  V30 3101 H 313.91 -1.74661 -1.06558 0
M  V30 3102 H 313.92 -2.12559 -3.48257 0
M  V30 3103 H 312.595 -3.06343 -2.81295 0
M  V30 3104 H 311.172 -1.3554 -3.47395 0
M  V30 3105 N 313.357 1.07166 -1.15556 0
M  V30 3106 C 314.287 2.16403 -0.877046 0
M  V30 3107 C 315.268 1.69217 0.173111 0
M  V30 3108 O 316.453 1.94181 0.027084 0
M  V30 3109 C 313.583 3.45349 -0.367632 0
M  V30 3110 C 312.537 4.05995 -1.35468 0
M  V30 3111 C 311.863 5.30045 -0.704038 0
M  V30 3112 C 313.163 4.45804 -2.72132 0
M  V30 3113 H 314.857 2.39959 -1.79053 0
M  V30 3114 H 312.403 1.15325 -0.862331 0
M  V30 3115 H 314.356 4.21095 -0.160317 0
M  V30 3116 H 313.08 3.21385 0.581326 0
M  V30 3117 H 311.739 3.32296 -1.54839 0
M  V30 3118 H 311.387 5.02373 0.251128 0
M  V30 3119 H 311.087 5.71579 -1.36277 0
M  V30 3120 H 312.611 6.08495 -0.50654 0
M  V30 3121 H 314.025 5.12671 -2.56595 0
M  V30 3122 H 312.422 4.98296 -3.34397 0
M  V30 3123 H 313.492 3.57083 -3.28054 0
M  V30 3124 N 314.835 0.952656 1.25548 0
M  V30 3125 C 316.081 0.607272 1.93494 0
M  V30 3126 C 316.414 -0.853245 1.74452 0
M  V30 3127 O 315.689 -1.61194 1.08843 0
M  V30 3128 C 315.972 0.96435 3.46947 0
M  V30 3129 C 315.825 2.48045 3.75225 0
M  V30 3130 C 317.144 0.487987 4.37386 0
M  V30 3131 H 314.263 0.222096 0.702739 0
M  V30 3132 H 316.905 1.18895 1.48203 0
M  V30 3133 H 315.055 0.469361 3.85654 0
M  V30 3134 H 316.727 3.04905 3.46166 0
M  V30 3135 H 314.97 2.919 3.209 0
M  V30 3136 H 315.641 2.6808 4.82532 0
M  V30 3137 H 318.117 0.912558 4.0597 0
M  V30 3138 H 316.993 0.766547 5.43521 0
M  V30 3139 H 317.254 -0.612063 4.37843 0
M  V30 3140 N 316.313 -1.40141 0.720998 0
M  V30 3141 C 317.246 -2.2819 0.020916 0
M  V30 3142 C 318.224 -1.43633 -0.762129 0
M  V30 3143 O 319.408 -1.7304 -0.747633 0
M  V30 3144 C 316.535 -3.24281 -0.977715 0
M  V30 3145 C 315.581 -4.25548 -0.284836 0
M  V30 3146 S 316.414 -5.26247 0.991169 0
M  V30 3147 C 317.57 -6.259 -0.0052214 0
M  V30 3148 H 317.803 -2.87218 0.767649 0
M  V30 3149 H 315.336 -1.45656 0.512233 0
M  V30 3150 H 317.294 -3.80167 -1.54865 0
M  V30 3151 H 315.955 -2.643 -1.69719 0
M  V30 3152 H 315.148 -4.93154 -1.03996 0
M  V30 3153 H 314.75 -3.73389 0.213684 0
M  V30 3154 H 317.042 -6.72143 -0.850279 0
M  V30 3155 H 317.985 -7.05224 0.637599 0
M  V30 3156 H 318.393 -5.63277 -0.371366 0
M  V30 3157 N 317.792 -0.46758 -1.50504 0
M  V30 3158 C 318.702 0.33382 -2.32213 0
M  V30 3159 C 319.718 0.999323 -1.42441 0
M  V30 3160 O 320.894 0.988068 -1.75497 0
M  V30 3161 C 317.959 1.4035 -3.17022 0
M  V30 3162 C 317.02 0.754961 -4.2261 0
M  V30 3163 C 316.253 1.77367 -5.03365 0
M  V30 3164 O 316.476 2.99976 -4.8515 0
M  V30 3165 O 315.41 1.34744 -5.86624 0
M  V30 3166 H 319.236 -0.334067 -3.01857 0
M  V30 3167 H 316.821 -0.229496 -1.47627 0
M  V30 3168 H 318.703 2.02318 -3.69656 0
M  V30 3169 H 317.378 2.05492 -2.5011 0
M  V30 3170 H 316.285 0.0964244 -3.73976 0
M  V30 3171 H 317.618 0.146545 -4.91982 0
M  V30 3172 N 319.27 1.56325 -0.20005 0
M  V30 3173 C 320.495 2.02548 0.44597 0
M  V30 3174 C 320.92 1.07922 1.5406 0
M  V30 3175 O 320.278 0.0635775 1.81188 0
M  V30 3176 C 320.326 3.47175 0.974761 0
M  V30 3177 O 319.43 3.55671 2.08739 0
M  V30 3178 H 318.771 0.655862 0.103638 0
M  V30 3179 H 321.301 2.02201 -0.312381 0
M  V30 3180 H 321.311 3.87067 1.2901 0
M  V30 3181 H 319.986 4.15538 0.17347 0
M  V30 3182 H 318.563 3.27657 1.78032 0
M  V30 3183 N 320.748 -0.0735177 1.57428 0
M  V30 3184 C 321.994 -0.774145 1.87443 0
M  V30 3185 C 322.327 -1.77311 0.792103 0
M  V30 3186 O 321.602 -1.93492 -0.197793 0
M  V30 3187 C 321.885 -1.48367 3.28115 0
M  V30 3188 C 321.738 -0.501227 4.46999 0
M  V30 3189 C 323.057 -2.429 3.66998 0
M  V30 3190 H 320.176 -0.279971 0.681752 0
M  V30 3191 H 322.818 -0.0373616 1.89963 0
M  V30 3192 H 320.968 -2.11171 3.26097 0
M  V30 3193 H 322.64 0.121468 4.6114 0
M  V30 3194 H 320.883 0.183593 4.33411 0
M  V30 3195 H 321.554 -1.03526 5.42205 0
M  V30 3196 H 324.03 -1.90175 3.70098 0
M  V30 3197 H 322.906 -2.89549 4.66318 0
M  V30 3198 H 323.167 -3.27628 2.96837 0
M  V30 3199 N 322.226 -1.5378 -0.344866 0
M  V30 3200 C 323.472 -1.71216 -1.08687 0
M  V30 3201 C 323.805 -0.473281 -1.88345 0
M  V30 3202 O 323.08 0.52968 -1.87149 0
M  V30 3203 C 323.363 -2.97486 -2.02914 0
M  V30 3204 C 323.216 -4.31579 -1.26727 0
M  V30 3205 C 324.535 -3.19422 -3.0275 0
M  V30 3206 H 321.654 -0.62301 -0.393735 0
M  V30 3207 H 324.296 -1.8645 -0.365563 0
M  V30 3208 H 322.446 -2.84629 -2.64421 0
M  V30 3209 H 324.118 -4.56284 -0.67845 0
M  V30 3210 H 322.361 -4.30049 -0.569273 0
M  V30 3211 H 323.032 -5.16106 -1.95803 0
M  V30 3212 H 325.508 -3.316 -2.51357 0
M  V30 3213 H 324.384 -4.09169 -3.65885 0
M  V30 3214 H 324.645 -2.35656 -3.74057 0
M  V30 3215 N 323.704 0.605807 -1.45491 0
M  V30 3216 C 325.115 1.18777 -1.44045 0
M  V30 3217 C 325.466 1.95471 -0.169001 0
M  V30 3218 O 324.591 2.0374 0.729324 0
M  V30 3219 C 325.186 2.16064 -2.60963 0
M  V30 3220 C 323.745 2.69633 -2.62631 0
M  V30 3221 C 322.892 1.45072 -2.36325 0
M  V30 3222 H 325.843 0.395017 -1.53705 0
M  V30 3223 H 325.864 2.9913 -2.35163 0
M  V30 3224 H 325.376 1.60217 -3.53486 0
M  V30 3225 H 323.477 3.29414 -1.74119 0
M  V30 3226 H 323.59 3.13944 -3.61906 0
M  V30 3227 H 321.954 1.74089 -1.85917 0
M  V30 3228 H 322.737 0.910899 -3.30995 0
M  V30 3229 N 325.182 1.32811 0.848464 0
M  V30 3230 C 326.407 1.26882 1.6406 0
M  V30 3231 C 326.832 -0.15913 1.87426 0
M  V30 3232 O 326.19 -1.11258 1.43148 0
M  V30 3233 C 326.238 2.03997 2.97351 0
M  V30 3234 O 325.342 1.39201 3.88197 0
M  V30 3235 H 324.683 0.436982 0.499943 0
M  V30 3236 H 327.213 1.75224 1.0563 0
M  V30 3237 H 327.223 2.14403 3.47124 0
M  V30 3238 H 325.898 3.0783 2.79666 0
M  V30 3239 H 324.475 1.37381 3.46671 0
M  V30 3240 N 326.66 -1.06551 1.16123 0
M  V30 3241 C 327.937 -1.76097 0.85142 0
M  V30 3242 C 328.317 -2.00802 -0.6513 0
M  V30 3243 O 327.665 -1.63302 -1.59827 0
M  V30 3244 C 327.875 -3.06384 1.67122 0
M  V30 3245 C 329.223 -3.80585 1.88255 0
M  V30 3246 O 330.247 -3.16218 1.63966 0
M  V30 3247 O 329.106 -4.96212 2.2899 0
M  V30 3248 H 326.2 -0.765102 0.313923 0
M  V30 3249 H 328.746 -1.12844 1.26745 0
M  V30 3250 H 327.518 -2.84071 2.69108 0
M  V30 3251 H 327.141 -3.77371 1.25206 0
M  V30 3252 N 328.138 -0.959301 -1.25041 0
M  V30 3253 C 329.554 -0.664474 -1.4511 0
M  V30 3254 C 329.754 0.776481 -1.85938 0
M  V30 3255 O 328.81 1.55128 -1.99227 0
M  V30 3256 C 330.123 -1.64139 -2.5195 0
M  V30 3257 C 331.671 -1.65309 -2.65786 0
M  V30 3258 C 332.146 -2.61777 -3.75815 0
M  V30 3259 N 333.637 -2.60169 -3.83231 0
M  V30 3260 C 334.372 -3.31489 -4.6787 0
M  V30 3261 N 333.868 -4.12298 -5.56761 0
M  V30 3262 N 335.661 -3.20354 -4.61876 0
M  V30 3263 H 327.812 -1.89043 -0.968332 0
M  V30 3264 H 330.075 -0.813408 -0.4869 0
M  V30 3265 H 329.781 -2.67086 -2.28819 0
M  V30 3266 H 329.655 -1.40756 -3.49954 0
M  V30 3267 H 332.042 -0.630778 -2.8828 0
M  V30 3268 H 332.123 -1.92753 -1.68167 0
M  V30 3269 H 331.767 -3.64137 -3.54071 0
M  V30 3270 H 331.697 -2.31616 -4.72929 0
M  V30 3271 H 334.188 -2.01507 -3.19692 0
M  V30 3272 H 334.501 -4.63625 -6.18281 0
M  V30 3273 H 332.846 -4.16395 -5.56454 0
M  V30 3274 H 336.037 -2.56692 -3.91442 0
M  V30 3275 H 336.21 -3.76201 -5.27614 0
M  V30 3276 N 329.616 1.39756 -0.72842 0
M  V30 3277 C 330.864 2.00248 -0.272946 0
M  V30 3278 C 331.185 1.58077 1.14178 0
M  V30 3279 O 330.455 0.826014 1.77634 0
M  V30 3280 H 329.035 0.740554 -0.0979247 0
M  V30 3281 H 331.697 1.70903 -0.936912 0
M  V30 3282 H 330.793 3.10495 -0.316142 0
M  V30 3283 N 331.094 0.475555 1.50254 0
M  V30 3284 C 332.042 -0.330276 2.30243 0
M  V30 3285 C 333.036 -0.986306 1.37726 0
M  V30 3286 O 334.242 -0.9169 1.54897 0
M  V30 3287 H 330.617 -0.125353 0.741479 0
M  V30 3288 H 332.588 0.364702 2.96163 0
M  V30 3289 C 331.337 -1.39704 3.18399 0
M  V30 3290 H 330.66 -0.901621 3.89501 0
M  V30 3291 H 332.1 -1.93336 3.77355 0
M  V30 3292 C 330.559 -2.4014 2.36293 0
M  V30 3293 O 331.089 -3.45504 2.04914 0
M  V30 3294 N 329.295 -2.1197 1.98789 0
M  V30 3295 H 328.842 -1.2631 2.24507 0
M  V30 3296 H 328.8 -2.79403 1.44157 0
M  V30 3297 N 332.573 -1.56217 0.208337 0
M  V30 3298 C 333.803 -2.02043 -0.431523 0
M  V30 3299 C 334.211 -1.08755 -1.54819 0
M  V30 3300 O 333.554 -0.0870009 -1.83494 0
M  V30 3301 C 333.616 -3.44239 -1.03633 0
M  V30 3302 C 333.28 -4.56965 -0.0567502 0
M  V30 3303 C 334.277 -5.14624 0.738773 0
M  V30 3304 C 331.962 -5.02266 0.0581736 0
M  V30 3305 C 333.956 -6.16045 1.63605 0
M  V30 3306 C 331.643 -6.03528 0.959001 0
M  V30 3307 C 332.641 -6.60293 1.7465 0
M  V30 3308 O 332.329 -7.59586 2.6322 0
M  V30 3309 H 332.061 -0.666772 -0.111313 0
M  V30 3310 H 334.615 -2.02919 0.318277 0
M  V30 3311 H 332.845 -3.40391 -1.83497 0
M  V30 3312 H 334.534 -3.73793 -1.58221 0
M  V30 3313 H 335.3 -4.80483 0.660364 0
M  V30 3314 H 331.179 -4.57771 -0.544633 0
M  V30 3315 H 334.723 -6.60279 2.25116 0
M  V30 3316 H 330.62 -6.37092 1.03848 0
M  V30 3317 H 331.388 -7.77057 2.57148 0
M  V30 3318 N 334.051 0.0651679 -1.57465 0
M  V30 3319 C 335.279 0.775808 -1.91804 0
M  V30 3320 C 335.694 1.70782 -0.804916 0
M  V30 3321 O 335.051 1.81153 0.221311 0
M  V30 3322 C 335.102 1.56381 -3.25925 0
M  V30 3323 O 334.823 0.669248 -4.32958 0
M  V30 3324 C 336.324 2.37485 -3.7432 0
M  V30 3325 H 333.544 0.2202 -0.63384 0
M  V30 3326 H 336.088 0.0334587 -2.04473 0
M  V30 3327 H 334.243 2.25837 -3.14764 0
M  V30 3328 H 334.657 1.21801 -5.10162 0
M  V30 3329 H 336.131 2.88223 -4.70778 0
M  V30 3330 H 336.608 3.17307 -3.03666 0
M  V30 3331 H 337.214 1.73173 -3.88447 0
M  V30 3332 N 335.529 1.53961 0.336706 0
M  V30 3333 C 336.769 1.73254 1.08454 0
M  V30 3334 C 337.133 0.488937 1.8567 0
M  V30 3335 O 338.334 0.559001 2.62923 0
M  V30 3336 C 336.605 2.96519 1.99528 0
M  V30 3337 S 338.164 3.36655 2.81441 0
M  V30 3338 H 334.982 0.609353 0.366347 0
M  V30 3339 H 337.584 1.92117 0.362124 0
M  V30 3340 H 336.288 3.85193 1.41614 0
M  V30 3341 H 335.819 2.80142 2.76196 0
M  V30 3342 H 337.834 2.90925 4.01967 0
M  V30 3343 N 337.007 -0.598083 1.45811 0
M  V30 3344 C 338.253 -1.35882 1.50545 0
M  V30 3345 C 338.586 -1.93616 0.150445 0
M  V30 3346 O 337.861 -1.75604 -0.83628 0
M  V30 3347 C 338.144 -2.49966 2.59208 0
M  V30 3348 C 337.997 -1.97367 4.04186 0
M  V30 3349 C 339.316 -3.52068 2.64076 0
M  V30 3350 H 336.435 -0.492717 0.548087 0
M  V30 3351 H 339.077 -0.673319 1.77669 0
M  V30 3352 H 337.227 -3.08443 2.3621 0
M  V30 3353 H 338.899 -1.43466 4.38423 0
M  V30 3354 H 337.142 -1.283 4.14393 0
M  V30 3355 H 337.813 -2.79649 4.75921 0
M  V30 3356 H 340.289 -3.03448 2.84708 0
M  V30 3357 H 339.165 -4.2937 3.41954 0
M  V30 3358 H 339.426 -4.08304 1.69531 0
M  V30 3359 N 338.485 -1.33259 -0.841409 0
M  V30 3360 C 339.731 -1.24757 -1.59886 0
M  V30 3361 C 340.064 0.186913 -1.93298 0
M  V30 3362 O 339.339 1.12757 -1.5848 0
M  V30 3363 C 339.622 -2.12036 -2.91055 0
M  V30 3364 C 339.475 -3.63929 -2.6434 0
M  V30 3365 C 340.794 -1.9916 -3.92458 0
M  V30 3366 H 337.913 -0.454542 -0.580138 0
M  V30 3367 H 340.555 -1.63335 -0.970647 0
M  V30 3368 H 338.705 -1.79265 -3.44669 0
M  V30 3369 H 340.377 -4.06978 -2.17178 0
M  V30 3370 H 338.62 -3.85935 -1.98082 0
M  V30 3371 H 339.291 -4.20341 -3.57796 0
M  V30 3372 H 341.767 -2.27895 -3.48143 0
M  V30 3373 H 340.643 -2.62484 -4.82072 0
M  V30 3374 H 340.904 -0.963082 -4.31482 0
M  V30 3375 N 339.963 1.05934 -1.16686 0
M  V30 3376 C 340.873 2.17014 -0.891183 0
M  V30 3377 C 341.889 1.73453 0.137907 0
M  V30 3378 O 343.065 2.01361 -0.039592 0
M  V30 3379 C 340.13 3.44384 -0.400099 0
M  V30 3380 C 339.191 4.02433 -1.49486 0
M  V30 3381 C 338.424 5.23723 -1.02711 0
M  V30 3382 O 338.647 5.7027 0.121716 0
M  V30 3383 O 337.581 5.7382 -1.81699 0
M  V30 3384 H 341.407 2.43113 -1.82015 0
M  V30 3385 H 338.992 1.15541 -0.947132 0
M  V30 3386 H 340.874 4.21189 -0.133392 0
M  V30 3387 H 339.549 3.19802 0.500817 0
M  V30 3388 H 338.456 3.27102 -1.81535 0
M  V30 3389 H 339.789 4.31317 -2.37121 0
M  V30 3390 N 341.441 0.965919 1.2453 0
M  V30 3391 C 342.389 0.486506 2.27455 0
M  V30 3392 C 343.383 -0.449041 1.6334 0
M  V30 3393 O 344.589 -0.324527 1.7705 0
M  V30 3394 H 340.964 0.138857 0.739069 0
M  V30 3395 H 342.935 1.3666 2.65267 0
M  V30 3396 C 341.684 -0.209481 3.47068 0
M  V30 3397 H 341.007 0.50129 3.96645 0
M  V30 3398 H 342.447 -0.508775 4.20936 0
M  V30 3399 C 340.906 -1.43586 3.0477 0
M  V30 3400 O 341.436 -2.53299 3.11773 0
M  V30 3401 N 339.642 -1.30126 2.59838 0
M  V30 3402 H 339.189 -0.408583 2.54339 0
M  V30 3403 H 339.147 -2.12294 2.31902 0
M  V30 3404 N 342.919 -1.39368 0.735821 0
M  V30 3405 C 343.866 -2.30599 0.0963825 0
M  V30 3406 C 344.836 -1.49257 -0.728794 0
M  V30 3407 O 346.021 -1.77941 -0.688588 0
M  V30 3408 C 343.161 -3.35596 -0.804305 0
M  V30 3409 C 342.274 -4.31987 0.0335761 0
M  V30 3410 C 341.409 -5.24053 -0.868461 0
M  V30 3411 C 340.448 -6.12095 -0.0258776 0
M  V30 3412 N 339.585 -6.96514 -0.883893 0
M  V30 3413 H 344.425 -2.8471 0.880002 0
M  V30 3414 H 341.962 -1.40188 0.445619 0
M  V30 3415 H 343.92 -3.95062 -1.34096 0
M  V30 3416 H 342.55 -2.82938 -1.55389 0
M  V30 3417 H 341.602 -3.74133 0.68766 0
M  V30 3418 H 342.914 -4.94074 0.685036 0
M  V30 3419 H 342.068 -5.88549 -1.47293 0
M  V30 3420 H 340.807 -4.62289 -1.5537 0
M  V30 3421 H 339.812 -5.4661 0.591386 0
M  V30 3422 H 341.037 -6.75923 0.656156 0
M  V30 3423 H 338.983 -6.37318 -1.55441 0
M  V30 3424 H 338.9 -7.55448 -0.288931 0
M  V30 3425 H 340.168 -7.65439 -1.4739 0
M  V30 3426 N 344.397 -0.483516 -1.5 0
M  V30 3427 C 345.644 0.0671597 -2.02389 0
M  V30 3428 C 345.972 1.38597 -1.36459 0
M  V30 3429 O 345.227 1.89634 -0.483458 0
M  V30 3430 C 345.526 0.286226 -3.56252 0
M  V30 3431 C 345.192 -0.952416 -4.40726 0
M  V30 3432 C 343.854 -1.29199 -4.63531 0
M  V30 3433 C 346.206 -1.77655 -4.89988 0
M  V30 3434 C 343.534 -2.45553 -5.32842 0
M  V30 3435 C 345.886 -2.93147 -5.60578 0
M  V30 3436 C 344.55 -3.27505 -5.81633 0
M  V30 3437 H 343.82 0.0245755 -0.740592 0
M  V30 3438 H 346.467 -0.640124 -1.80485 0
M  V30 3439 H 344.772 1.07587 -3.76739 0
M  V30 3440 H 346.469 0.726473 -3.94365 0
M  V30 3441 H 343.059 -0.677881 -4.23205 0
M  V30 3442 H 347.243 -1.52737 -4.72213 0
M  V30 3443 H 342.499 -2.72431 -5.47349 0
M  V30 3444 H 346.673 -3.57344 -5.97727 0
M  V30 3445 H 344.3 -4.1777 -6.35116 0
M  V30 3446 N 345.875 1.56104 -0.216619 0
M  V30 3447 C 347.123 1.97781 0.415593 0
M  V30 3448 C 347.444 1.10536 1.60645 0
M  V30 3449 O 346.714 0.181303 1.95059 0
M  V30 3450 H 345.294 0.730415 0.156534 0
M  V30 3451 H 347.956 1.92445 -0.308366 0
M  V30 3452 H 347.052 3.03072 0.74525 0
M  V30 3453 N 347.353 -0.0568162 1.57498 0
M  V30 3454 C 348.578 -0.769402 1.92601 0
M  V30 3455 C 349.003 -1.69559 0.814336 0
M  V30 3456 O 348.361 -1.79811 -0.231903 0
M  V30 3457 C 348.409 -1.52634 3.26704 0
M  V30 3458 O 347.513 -2.63797 3.16994 0
M  V30 3459 H 346.854 -0.208909 0.63028 0
M  V30 3460 H 349.384 -0.0205798 2.0459 0
M  V30 3461 H 349.394 -1.90234 3.60936 0
M  V30 3462 H 348.069 -0.846875 4.07186 0
M  V30 3463 H 346.646 -2.28943 2.94346 0
M  V30 3464 N 348.832 -1.54138 -0.328536 0
M  V30 3465 C 350.081 -1.71318 -1.06456 0
M  V30 3466 C 350.394 -0.491109 -1.89334 0
M  V30 3467 O 351.6 -0.54416 -2.65991 0
M  V30 3468 C 350.056 -3.03 -1.94214 0
M  V30 3469 C 349.664 -4.32595 -1.16471 0
M  V30 3470 C 351.408 -3.29544 -2.67583 0
M  V30 3471 C 349.315 -5.55341 -2.03347 0
M  V30 3472 H 348.245 -0.638429 -0.401155 0
M  V30 3473 H 350.896 -1.80633 -0.323106 0
M  V30 3474 H 349.278 -2.87579 -2.72239 0
M  V30 3475 H 350.452 -4.58766 -0.432525 0
M  V30 3476 H 348.767 -4.12777 -0.548063 0
M  V30 3477 H 351.364 -4.18444 -3.3288 0
M  V30 3478 H 351.707 -2.47206 -3.34955 0
M  V30 3479 H 352.24 -3.45809 -1.96623 0
M  V30 3480 H 348.979 -6.40268 -1.40491 0
M  V30 3481 H 348.499 -5.33397 -2.74313 0
M  V30 3482 H 350.178 -5.91557 -2.62049 0
M  V30 3483 N 350.31 0.590341 -1.46126 0
M  V30 3484 C 351.726 0.912917 -1.30912 0
M  V30 3485 C 351.926 1.99616 -0.274893 0
M  V30 3486 O 350.982 2.50397 0.325197 0
M  V30 3487 C 352.295 1.3375 -2.69317 0
M  V30 3488 C 353.843 1.45077 -2.77348 0
M  V30 3489 C 354.318 1.90904 -4.16317 0
M  V30 3490 N 355.809 1.9811 -4.18696 0
M  V30 3491 C 356.544 2.34828 -5.23109 0
M  V30 3492 N 356.04 2.70393 -6.37856 0
M  V30 3493 N 357.833 2.35317 -5.10473 0
M  V30 3494 H 349.984 -0.125358 -2.1203 0
M  V30 3495 H 352.247 0.00658481 -0.947977 0
M  V30 3496 H 351.953 0.615614 -3.4627 0
M  V30 3497 H 351.827 2.30058 -2.9892 0
M  V30 3498 H 354.214 2.16353 -2.00687 0
M  V30 3499 H 354.295 0.4704 -2.51438 0
M  V30 3500 H 353.939 1.20209 -4.9347 0
M  V30 3501 H 353.869 2.89886 -4.39629 0
M  V30 3502 H 356.36 1.73146 -3.359 0
M  V30 3503 H 356.673 2.97341 -7.13308 0
M  V30 3504 H 355.018 2.68048 -6.41229 0
M  V30 3505 H 358.209 2.0695 -4.19868 0
M  V30 3506 H 358.382 2.63605 -5.9196 0
M  V30 3507 N 351.788 1.33704 0.83433 0
M  V30 3508 C 352.72 1.20172 1.9517 0
M  V30 3509 C 353.733 0.131572 1.62267 0
M  V30 3510 O 354.922 0.382406 1.74356 0
M  V30 3511 C 352.022 0.821716 3.28787 0
M  V30 3512 C 351.195 1.98446 3.89792 0
M  V30 3513 C 350.254 1.58469 5.01771 0
M  V30 3514 O 349.28 2.29968 5.20676 0
M  V30 3515 N 350.482 0.492291 5.78409 0
M  V30 3516 H 353.247 2.16429 2.07313 0
M  V30 3517 H 350.808 1.26509 1.0103 0
M  V30 3518 H 352.8 0.536291 4.01131 0
M  V30 3519 H 351.37 -0.0503058 3.1256 0
M  V30 3520 H 350.59 2.43526 3.09982 0
M  V30 3521 H 351.878 2.76236 4.27283 0
M  V30 3522 H 351.276 -0.102349 5.65607 0
M  V30 3523 H 349.833 0.266555 6.51255 0
M  V30 3524 N 353.266 -1.05314 1.17247 0
M  V30 3525 C 354.494 -1.81971 0.984593 0
M  V30 3526 C 354.909 -1.82929 -0.467166 0
M  V30 3527 O 354.266 -1.25564 -1.32438 0
M  V30 3528 C 354.317 -3.28143 1.51672 0
M  V30 3529 O 354.038 -3.27347 2.91163 0
M  V30 3530 C 355.539 -4.21493 1.37326 0
M  V30 3531 H 352.759 -0.573455 0.348411 0
M  V30 3532 H 355.303 -1.32808 1.55506 0
M  V30 3533 H 353.458 -3.74582 0.988302 0
M  V30 3534 H 353.872 -4.18824 3.15732 0
M  V30 3535 H 355.346 -5.22043 1.79375 0
M  V30 3536 H 355.823 -4.38031 0.320169 0
M  V30 3537 H 356.429 -3.80909 1.89178 0
M  V30 3538 N 354.744 -0.972509 -1.24016 0
M  V30 3539 C 355.974 -0.653853 -1.9598 0
M  V30 3540 C 356.382 0.781801 -1.72292 0
M  V30 3541 O 355.725 1.53677 -1.00644 0
M  V30 3542 C 355.787 -0.854608 -3.49194 0
M  V30 3543 C 355.451 -2.27082 -3.96589 0
M  V30 3544 C 356.448 -3.24892 -4.05883 0
M  V30 3545 C 354.133 -2.5998 -4.29786 0
M  V30 3546 C 356.127 -4.53684 -4.47716 0
M  V30 3547 C 353.814 -3.88997 -4.71301 0
M  V30 3548 C 354.812 -4.85661 -4.80232 0
M  V30 3549 O 354.5 -6.12376 -5.20818 0
M  V30 3550 H 354.232 -0.242572 -0.630979 0
M  V30 3551 H 356.786 -1.30431 -1.58673 0
M  V30 3552 H 355.016 -0.146985 -3.86421 0
M  V30 3553 H 356.705 -0.534311 -4.02368 0
M  V30 3554 H 357.471 -3.00805 -3.80449 0
M  V30 3555 H 353.35 -1.85457 -4.22051 0
M  V30 3556 H 356.894 -5.29135 -4.54601 0
M  V30 3557 H 352.791 -4.12882 -4.96184 0
M  V30 3558 H 353.559 -6.16013 -5.38953 0
M  V30 3559 N 356.222 1.38976 -0.743202 0
M  V30 3560 C 357.45 2.04636 -0.30525 0
M  V30 3561 C 357.865 1.56044 1.06281 0
M  V30 3562 O 357.222 0.728921 1.67311 0
M  V30 3563 C 357.273 3.60193 -0.307177 0
M  V30 3564 O 356.994 4.06998 -1.62124 0
M  V30 3565 C 358.495 4.4306 0.145928 0
M  V30 3566 H 355.715 0.65788 -0.132041 0
M  V30 3567 H 358.259 1.77866 -1.00915 0
M  V30 3568 H 356.414 3.85835 0.347898 0
M  V30 3569 H 356.828 5.01371 -1.54036 0
M  V30 3570 H 358.302 5.51921 0.0934183 0
M  V30 3571 H 358.779 4.22706 1.19231 0
M  V30 3572 H 359.385 4.22584 -0.479886 0
M  V30 3573 N 357.7 0.491464 1.49741 0
M  V30 3574 C 358.63 -0.28154 2.31796 0
M  V30 3575 C 359.611 -0.971473 1.3963 0
M  V30 3576 O 360.796 -0.964719 1.68543 0
M  V30 3577 C 357.926 -1.35203 3.19902 0
M  V30 3578 C 356.88 -0.782529 4.20786 0
M  V30 3579 C 356.206 -1.95283 4.97764 0
M  V30 3580 C 357.506 0.21999 5.21837 0
M  V30 3581 H 359.2 0.403355 2.96671 0
M  V30 3582 H 356.746 0.195425 1.42668 0
M  V30 3583 H 358.699 -1.90045 3.76113 0
M  V30 3584 H 357.423 -2.06598 2.52953 0
M  V30 3585 H 356.082 -0.255928 3.65706 0
M  V30 3586 H 355.73 -2.65423 4.2727 0
M  V30 3587 H 355.43 -1.57789 5.66018 0
M  V30 3588 H 356.954 -2.50577 5.56816 0
M  V30 3589 H 358.368 -0.23996 5.72798 0
M  V30 3590 H 356.765 0.51026 5.97927 0
M  V30 3591 H 357.835 1.13911 4.7133 0
M  V30 3592 N 359.178 -1.55987 0.224894 0
M  V30 3593 C 360.455 -1.90232 -0.455083 0
M  V30 3594 C 360.835 -1.14269 -1.77499 0
M  V30 3595 O 360.183 -0.253079 -2.27094 0
M  V30 3596 C 360.393 -3.42993 -0.644758 0
M  V30 3597 C 361.741 -4.13821 -0.950669 0
M  V30 3598 O 362.765 -3.4861 -0.731423 0
M  V30 3599 O 361.624 -5.29128 -1.36695 0
M  V30 3600 H 358.718 -0.79108 -0.241084 0
M  V30 3601 H 361.264 -1.67581 0.267327 0
M  V30 3602 H 360.036 -3.90252 0.28613 0
M  V30 3603 H 359.659 -3.71434 -1.41853 0
M  V30 3604 N 360.656 0.0484629 -1.57525 0
M  V30 3605 C 361.902 0.744226 -1.88651 0
M  V30 3606 C 362.235 1.76029 -0.820212 0
M  V30 3607 O 361.51 1.93782 0.166985 0
M  V30 3608 C 361.793 1.43128 -3.30434 0
M  V30 3609 C 361.646 0.43005 -4.47739 0
M  V30 3610 C 362.965 2.37031 -3.70816 0
M  V30 3611 H 360.084 0.269089 -0.68612 0
M  V30 3612 H 362.726 0.00713532 -1.89999 0
M  V30 3613 H 360.876 2.05956 -3.29415 0
M  V30 3614 H 362.548 -0.194816 -4.60888 0
M  V30 3615 H 360.791 -0.252522 -4.33064 0
M  V30 3616 H 361.462 0.948874 -5.43783 0
M  V30 3617 H 363.938 1.84263 -3.73077 0
M  V30 3618 H 362.814 2.82094 -4.70865 0
M  V30 3619 H 363.075 3.22864 -3.02012 0
M  V30 3620 N 362.134 1.5431 0.320358 0
M  V30 3621 C 363.064 1.86912 1.3995 0
M  V30 3622 C 364.045 0.726211 1.53819 0
M  V30 3623 O 365.23 0.980233 1.67646 0
M  V30 3624 C 362.36 2.09932 2.7667 0
M  V30 3625 C 361.314 3.25776 2.77586 0
M  V30 3626 C 360.64 3.34173 4.17412 0
M  V30 3627 C 361.94 4.6335 2.41048 0
M  V30 3628 H 363.634 2.77292 1.12914 0
M  V30 3629 H 361.18 1.33421 0.541738 0
M  V30 3630 H 363.133 2.31324 3.52232 0
M  V30 3631 H 361.857 1.16304 3.0519 0
M  V30 3632 H 360.516 3.04276 2.04479 0
M  V30 3633 H 360.164 2.38098 4.43078 0
M  V30 3634 H 359.864 4.12033 4.18931 0
M  V30 3635 H 361.388 3.57803 4.94782 0
M  V30 3636 H 362.802 4.84602 3.06324 0
M  V30 3637 H 361.199 5.43782 2.53813 0
M  V30 3638 H 362.269 4.65381 1.36193 0
M  V30 3639 N 363.613 -0.582584 1.46437 0
M  V30 3640 C 364.523 -1.71949 1.59595 0
M  V30 3641 C 365.539 -1.67264 0.479443 0
M  V30 3642 O 366.715 -1.87171 0.743579 0
M  V30 3643 C 363.78 -3.08452 1.58298 0
M  V30 3644 C 362.841 -3.244 2.81182 0
M  V30 3645 C 362.074 -4.54391 2.79937 0
M  V30 3646 O 362.297 -5.38287 1.8869 0
M  V30 3647 O 361.231 -4.73588 3.71481 0
M  V30 3648 H 365.057 -1.63795 2.55744 0
M  V30 3649 H 362.642 -0.749643 1.29231 0
M  V30 3650 H 364.524 -3.89732 1.60271 0
M  V30 3651 H 363.199 -3.17043 0.653094 0
M  V30 3652 H 362.106 -2.42613 2.84763 0
M  V30 3653 H 363.439 -3.20699 3.7338 0
M  V30 3654 N 365.091 -1.34144 -0.827227 0
M  V30 3655 C 366.507 -1.13732 -1.11969 0
M  V30 3656 C 366.707 0.0640463 -2.01398 0
M  V30 3657 O 365.763 0.740856 -2.41387 0
M  V30 3658 C 367.076 -2.43047 -1.77055 0
M  V30 3659 C 368.624 -2.49063 -1.89569 0
M  V30 3660 C 369.099 -3.78369 -2.58072 0
M  V30 3661 N 370.59 -3.79505 -2.65575 0
M  V30 3662 C 371.325 -4.76274 -3.19297 0
M  V30 3663 N 370.821 -5.83424 -3.73616 0
M  V30 3664 N 372.614 -4.63735 -3.17658 0
M  V30 3665 H 364.765 -2.11126 -0.232296 0
M  V30 3666 H 367.028 -0.933424 -0.165602 0
M  V30 3667 H 366.734 -3.31025 -1.18807 0
M  V30 3668 H 366.608 -2.56066 -2.76966 0
M  V30 3669 H 368.995 -1.61527 -2.46968 0
M  V30 3670 H 369.076 -2.39975 -0.885745 0
M  V30 3671 H 368.72 -4.66293 -2.01329 0
M  V30 3672 H 368.65 -3.84737 -3.59562 0
M  V30 3673 H 371.141 -3.02074 -2.27068 0
M  V30 3674 H 371.454 -6.53282 -4.12846 0
M  V30 3675 H 369.799 -5.87143 -3.71871 0
M  V30 3676 H 372.99 -3.79177 -2.74486 0
M  V30 3677 H 373.163 -5.39318 -3.59221 0
M  V30 3678 N 366.569 1.04691 -1.17803 0
M  V30 3679 C 367.794 1.81984 -0.994813 0
M  V30 3680 C 368.219 1.82586 0.452112 0
M  V30 3681 O 367.577 1.23854 1.324 0
M  V30 3682 C 367.625 3.2575 -1.54659 0
M  V30 3683 O 366.729 4.05267 -0.763728 0
M  V30 3684 H 366.07 0.562483 -0.352857 0
M  V30 3685 H 368.6 1.3189 -1.56417 0
M  V30 3686 H 368.61 3.76541 -1.57102 0
M  V30 3687 H 367.285 3.24627 -2.59981 0
M  V30 3688 H 365.862 3.63972 -0.811108 0
M  V30 3689 N 368.047 0.979072 1.23499 0
M  V30 3690 C 369.458 0.684391 1.73704 0
M  V30 3691 C 369.809 -0.799448 1.79174 0
M  V30 3692 O 368.934 -1.62531 1.42873 0
M  V30 3693 C 369.529 1.23564 3.15464 0
M  V30 3694 C 368.088 0.99063 3.6313 0
M  V30 3695 C 367.235 1.36416 2.41425 0
M  V30 3696 H 370.186 1.15307 1.09041 0
M  V30 3697 H 370.207 0.607417 3.7562 0
M  V30 3698 H 369.719 2.31561 3.1145 0
M  V30 3699 H 367.82 -0.0733136 3.72528 0
M  V30 3700 H 367.933 1.64427 4.5 0
M  V30 3701 H 366.297 0.782616 2.42378 0
M  V30 3702 H 367.08 2.45387 2.40083 0
M  V30 3703 N 369.525 -1.3858 0.750561 0
M  V30 3704 C 370.475 -2.27795 0.0965949 0
M  V30 3705 C 371.459 -1.45048 -0.696411 0
M  V30 3706 O 372.651 -1.67812 -0.562863 0
M  V30 3707 C 369.78 -3.33894 -0.798085 0
M  V30 3708 C 368.866 -4.241 0.0016067 0
M  V30 3709 N 369.257 -4.95067 1.03647 0
M  V30 3710 C 367.555 -4.45429 -0.225674 0
M  V30 3711 C 368.256 -5.61489 1.52004 0
M  V30 3712 N 367.232 -5.37135 0.835874 0
M  V30 3713 H 371.034 -2.80125 0.889228 0
M  V30 3714 H 368.548 -1.51446 0.586323 0
M  V30 3715 H 370.545 -3.96693 -1.28219 0
M  V30 3716 H 369.205 -2.83123 -1.5897 0
M  V30 3717 H 370.216 -4.98104 1.41819 0
M  V30 3718 H 366.893 -4.05571 -0.990872 0
M  V30 3719 H 368.283 -6.28264 2.38188 0
M  V30 3720 N 371.003 -0.499398 -1.49478 0
M  V30 3721 C 372.419 -0.155261 -1.58843 0
M  V30 3722 C 372.619 1.34008 -1.50479 0
M  V30 3723 O 371.675 2.11589 -1.37791 0
M  V30 3724 C 372.988 -0.730636 -2.91689 0
M  V30 3725 C 374.536 -0.696599 -3.0515 0
M  V30 3726 C 375.011 -1.25001 -4.40612 0
M  V30 3727 N 376.502 -1.21064 -4.47099 0
M  V30 3728 C 377.237 -1.60905 -5.50361 0
M  V30 3729 N 376.733 -2.08331 -6.60735 0
M  V30 3730 N 378.526 -1.52331 -5.41065 0
M  V30 3731 H 370.677 -1.47162 -1.53158 0
M  V30 3732 H 372.94 -0.610309 -0.725415 0
M  V30 3733 H 372.646 -1.77928 -3.03372 0
M  V30 3734 H 372.52 -0.190161 -3.7672 0
M  V30 3735 H 374.907 0.343204 -2.93097 0
M  V30 3736 H 374.988 -1.2742 -2.21806 0
M  V30 3737 H 374.632 -2.28859 -4.53416 0
M  V30 3738 H 374.562 -0.64836 -5.22593 0
M  V30 3739 H 377.053 -0.863128 -3.67911 0
M  V30 3740 H 377.366 -2.36805 -7.35624 0
M  V30 3741 H 375.711 -2.12304 -6.6178 0
M  V30 3742 H 378.902 -1.151 -4.53729 0
M  V30 3743 H 379.075 -1.83704 -6.21415 0
M  V30 3744 N 372.481 1.55866 -0.233164 0
M  V30 3745 C 373.892 1.847 0.272554 0
M  V30 3746 C 374.243 1.15477 1.58617 0
M  V30 3747 O 373.368 0.42841 2.12117 0
M  V30 3748 C 373.963 3.35071 0.501299 0
M  V30 3749 C 372.522 3.6418 0.951304 0
M  V30 3750 C 371.669 2.77292 0.0208209 0
M  V30 3751 H 374.62 1.52005 -0.456074 0
M  V30 3752 H 374.641 3.55906 1.34577 0
M  V30 3753 H 374.153 3.85424 -0.454936 0
M  V30 3754 H 372.254 3.19293 1.92049 0
M  V30 3755 H 372.367 4.72071 0.817675 0
M  V30 3756 H 370.731 2.49131 0.529723 0
M  V30 3757 H 371.514 3.30448 -0.93054 0
M  V30 3758 N 373.959 -0.0401083 1.57549 0
M  V30 3759 C 375.208 -0.732108 1.87944 0
M  V30 3760 C 375.521 -1.77107 0.830206 0
M  V30 3761 O 376.727 -2.51488 1.02302 0
M  V30 3762 C 375.183 -1.35315 3.33494 0
M  V30 3763 C 374.791 -0.351105 4.46622 0
M  V30 3764 C 376.535 -2.02566 3.73051 0
M  V30 3765 C 374.442 -0.979859 5.83226 0
M  V30 3766 H 373.372 -0.277188 0.701201 0
M  V30 3767 H 376.023 0.0138501 1.83495 0
M  V30 3768 H 374.405 -2.14844 3.32653 0
M  V30 3769 H 375.579 0.416674 4.58912 0
M  V30 3770 H 373.894 0.218708 4.15825 0
M  V30 3771 H 376.491 -2.50441 4.72423 0
M  V30 3772 H 376.834 -2.83904 3.04474 0
M  V30 3773 H 377.367 -1.29827 3.76018 0
M  V30 3774 H 374.106 -0.206135 6.55176 0
M  V30 3775 H 373.626 -1.71774 5.74677 0
M  V30 3776 H 375.305 -1.49046 6.29599 0
M  V30 3777 N 375.437 -1.54477 -0.31217 0
M  V30 3778 C 376.367 -1.87652 -1.38957 0
M  V30 3779 C 377.348 -0.734358 -1.53431 0
M  V30 3780 O 378.533 -0.98911 -1.67123 0
M  V30 3781 C 375.663 -2.11396 -2.75552 0
M  V30 3782 C 374.617 -3.27243 -2.75855 0
M  V30 3783 C 373.943 -3.36382 -4.15633 0
M  V30 3784 C 375.243 -4.64622 -2.38587 0
M  V30 3785 H 376.937 -2.77887 -1.11442 0
M  V30 3786 H 374.483 -1.33707 -0.534655 0
M  V30 3787 H 376.436 -2.33189 -3.51 0
M  V30 3788 H 375.16 -1.17921 -3.04569 0
M  V30 3789 H 373.819 -3.05356 -2.02863 0
M  V30 3790 H 373.467 -2.40445 -4.41809 0
M  V30 3791 H 373.167 -4.14249 -4.1674 0
M  V30 3792 H 374.691 -3.60422 -4.92877 0
M  V30 3793 H 376.105 -4.86219 -3.03749 0
M  V30 3794 H 374.502 -5.45121 -2.50925 0
M  V30 3795 H 375.572 -4.66097 -1.33723 0
M  V30 3796 N 376.915 0.57481 -1.46744 0
M  V30 3797 C 377.847 1.69804 -1.53946 0
M  V30 3798 C 378.86 1.57098 -0.427106 0
M  V30 3799 O 380.049 1.64378 -0.695863 0
M  V30 3800 C 377.149 3.08125 -1.4111 0
M  V30 3801 C 376.322 3.46757 -2.66605 0
M  V30 3802 C 375.381 4.6417 -2.47855 0
M  V30 3803 O 374.407 4.69634 -3.21609 0
M  V30 3804 N 375.609 5.59553 -1.54534 0
M  V30 3805 H 378.374 1.64077 -2.50796 0
M  V30 3806 H 375.935 0.761 -1.429 0
M  V30 3807 H 377.927 3.84478 -1.26328 0
M  V30 3808 H 376.497 3.08175 -0.524109 0
M  V30 3809 H 375.717 2.6003 -2.96274 0
M  V30 3810 H 377.005 3.69337 -3.49954 0
M  V30 3811 H 376.403 5.57881 -0.937304 0
M  V30 3812 H 374.96 6.35304 -1.45711 0
M  V30 3813 N 378.394 1.34581 0.820102 0
M  V30 3814 C 379.357 1.2628 1.91275 0
M  V30 3815 C 380.357 0.177344 1.59819 0
M  V30 3816 O 381.547 0.430156 1.68806 0
M  V30 3817 C 378.679 0.950327 3.27386 0
M  V30 3818 H 379.872 2.23421 2.00057 0
M  V30 3819 H 377.425 1.1891 1.0144 0
M  V30 3820 H 378.16 -0.0177938 3.24295 0
M  V30 3821 H 377.945 1.73549 3.51601 0
M  V30 3822 H 379.435 0.917492 4.07396 0
M  V30 3823 N 379.872 -1.04064 1.18357 0
M  V30 3824 C 381.12 -1.76915 0.977013 0
M  V30 3825 C 381.441 -1.88624 -0.494577 0
M  V30 3826 O 380.711 -1.41125 -1.3587 0
M  V30 3827 H 379.291 -0.65535 0.358504 0
M  V30 3828 H 381.953 -1.25592 1.49039 0
M  V30 3829 H 381.049 -2.78178 1.41504 0
M  V30 3830 N 381.35 -0.985608 -1.22978 0
M  V30 3831 C 382.28 -0.549649 -2.26939 0
M  V30 3832 C 383.261 0.419803 -1.64838 0
M  V30 3833 O 384.446 0.31203 -1.91677 0
M  V30 3834 C 381.576 0.143652 -3.47003 0
M  V30 3835 C 380.53 -0.743606 -4.21491 0
M  V30 3836 C 379.856 0.0822027 -5.34637 0
M  V30 3837 C 381.156 -2.03694 -4.80943 0
M  V30 3838 H 382.85 -1.41862 -2.63658 0
M  V30 3839 H 380.396 -0.683571 -1.26741 0
M  V30 3840 H 382.349 0.459985 -4.18882 0
M  V30 3841 H 381.073 1.04711 -3.09359 0
M  V30 3842 H 379.732 -1.04347 -3.51436 0
M  V30 3843 H 379.38 0.986359 -4.93234 0
M  V30 3844 H 379.08 -0.508377 -5.85397 0
M  V30 3845 H 380.604 0.392797 -6.09335 0
M  V30 3846 H 382.018 -1.78504 -5.44802 0
M  V30 3847 H 380.415 -2.57573 -5.42011 0
M  V30 3848 H 381.485 -2.72042 -4.01399 0
M  V30 3849 N 382.828 1.3818 -0.7579 0
M  V30 3850 C 384.239 1.82726 -0.383134 0
M  V30 3851 C 384.59 1.63214 1.08884 0
M  V30 3852 O 383.715 1.13566 1.84205 0
M  V30 3853 C 384.31 3.31728 -0.688631 0
M  V30 3854 C 382.869 3.74606 -0.367091 0
M  V30 3855 C 382.016 2.60896 -0.939599 0
M  V30 3856 H 384.967 1.26847 -0.953699 0
M  V30 3857 H 384.988 3.80487 0.0316492 0
M  V30 3858 H 384.5 3.45898 -1.76001 0
M  V30 3859 H 382.601 3.66013 0.697532 0
M  V30 3860 H 382.714 4.71215 -0.865658 0
M  V30 3861 H 381.078 2.52075 -0.3647 0
M  V30 3862 H 381.861 2.77864 -2.0161 0
M  V30 3863 N 384.306 0.507319 1.49211 0
M  V30 3864 C 385.269 -0.256763 2.27757 0
M  V30 3865 C 386.269 -0.888287 1.34038 0
M  V30 3866 O 387.459 -0.751841 1.5714 0
M  V30 3867 C 384.591 -1.36905 3.12202 0
M  V30 3868 H 385.784 0.432557 2.96764 0
M  V30 3869 H 383.337 0.262488 1.5408 0
M  V30 3870 H 384.072 -2.09233 2.47775 0
M  V30 3871 H 383.857 -0.921599 3.81115 0
M  V30 3872 H 385.347 -1.9071 3.7151 0
M  V30 3873 N 385.784 -1.5574 0.241426 0
M  V30 3874 C 386.732 -2.22538 -0.676718 0
M  V30 3875 C 387.726 -1.21117 -1.18436 0
M  V30 3876 O 388.932 -1.39144 -1.14188 0
M  V30 3877 H 385.307 -0.713776 -0.236701 0
M  V30 3878 H 387.278 -2.98264 -0.0901187 0
M  V30 3879 C 386.027 -2.93439 -1.86518 0
M  V30 3880 H 385.35 -3.7125 -1.4837 0
M  V30 3881 H 386.79 -3.43549 -2.48495 0
M  V30 3882 C 385.249 -1.97008 -2.73294 0
M  V30 3883 O 385.779 -1.49965 -3.72657 0
M  V30 3884 N 383.985 -1.64227 -2.39745 0
M  V30 3885 H 383.532 -2.02677 -1.58996 0
M  V30 3886 H 383.49 -0.999708 -2.98083 0
M  V30 3887 N 387.262 0.0317525 -1.57568 0
M  V30 3888 C 388.194 1.06073 -2.03178 0
M  V30 3889 C 389.207 1.32627 -0.944132 0
M  V30 3890 O 390.396 1.30162 -1.22148 0
M  V30 3891 C 387.496 2.40297 -2.38978 0
M  V30 3892 C 386.669 2.33137 -3.70089 0
M  V30 3893 C 385.728 3.49787 -3.9311 0
M  V30 3894 O 384.754 3.29403 -4.64201 0
M  V30 3895 N 385.956 4.71562 -3.38541 0
M  V30 3896 H 388.721 0.672006 -2.92069 0
M  V30 3897 H 386.282 0.219745 -1.60402 0
M  V30 3898 H 388.274 3.1705 -2.51518 0
M  V30 3899 H 386.844 2.71024 -1.55771 0
M  V30 3900 H 386.064 1.415 -3.67928 0
M  V30 3901 H 387.352 2.25493 -4.56104 0
M  V30 3902 H 386.75 4.91024 -2.80912 0
M  V30 3903 H 385.307 5.45689 -3.56464 0
M  V30 3904 N 388.74 1.54641 0.303973 0
M  V30 3905 C 389.968 1.77768 1.05858 0
M  V30 3906 C 390.383 0.535722 1.8104 0
M  V30 3907 O 389.74 -0.494337 1.75677 0
M  V30 3908 C 389.791 2.9834 2.04146 0
M  V30 3909 O 389.512 4.17736 1.32015 0
M  V30 3910 C 391.013 3.33832 2.91669 0
M  V30 3911 H 388.233 0.592961 0.314067 0
M  V30 3912 H 390.777 2.01583 0.344149 0
M  V30 3913 H 388.932 2.76742 2.71096 0
M  V30 3914 H 389.346 4.85693 1.97998 0
M  V30 3915 H 390.82 4.21448 3.56491 0
M  V30 3916 H 391.297 2.51857 3.59812 0
M  V30 3917 H 391.903 3.57579 2.30254 0
M  V30 3918 N 390.218 -0.567019 1.47046 0
M  V30 3919 C 391.181 -1.65696 1.58359 0
M  V30 3920 C 392.181 -1.54097 0.459441 0
M  V30 3921 O 393.371 -1.58432 0.724225 0
M  V30 3922 C 390.503 -3.05197 1.51879 0
M  V30 3923 H 391.696 -1.57019 2.5551 0
M  V30 3924 H 389.249 -0.786148 1.3509 0
M  V30 3925 H 389.984 -3.19417 0.560673 0
M  V30 3926 H 389.769 -3.15025 2.33455 0
M  V30 3927 H 391.259 -3.84511 1.62913 0
M  V30 3928 N 391.696 -1.35014 -0.812953 0
M  V30 3929 C 392.942 -1.2812 -1.57204 0
M  V30 3930 C 393.275 0.145869 -1.93651 0
M  V30 3931 O 392.55 1.0937 -1.60836 0
M  V30 3932 C 392.833 -2.18162 -2.86492 0
M  V30 3933 C 392.686 -3.69454 -2.56561 0
M  V30 3934 C 394.005 -2.07439 -3.88145 0
M  V30 3935 H 391.124 -0.466746 -0.570366 0
M  V30 3936 H 393.766 -1.65357 -0.935783 0
M  V30 3937 H 391.916 -1.86535 -3.40789 0
M  V30 3938 H 393.588 -4.11493 -2.08497 0
M  V30 3939 H 391.831 -3.9005 -1.89851 0
M  V30 3940 H 392.502 -4.27835 -3.48799 0
M  V30 3941 H 394.978 -2.35228 -3.4323 0
M  V30 3942 H 393.854 -2.7265 -4.76396 0
M  V30 3943 H 394.115 -1.05439 -4.29343 0
M  V30 3944 N 393.175 1.03435 -1.18907 0
M  V30 3945 C 394.105 2.13503 -0.945448 0
M  V30 3946 C 395.086 1.69682 0.119189 0
M  V30 3947 O 396.271 1.94169 -0.034707 0
M  V30 3948 C 393.401 3.44004 -0.477316 0
M  V30 3949 C 392.355 4.0148 -1.48316 0
M  V30 3950 C 391.681 5.27537 -0.872311 0
M  V30 3951 C 392.981 4.36921 -2.86177 0
M  V30 3952 H 394.675 2.34141 -1.86597 0
M  V30 3953 H 392.221 1.12523 -0.898584 0
M  V30 3954 H 394.174 4.20372 -0.294204 0
M  V30 3955 H 392.898 3.23072 0.478786 0
M  V30 3956 H 391.557 3.27201 -1.65332 0
M  V30 3957 H 391.205 5.02917 0.0911752 0
M  V30 3958 H 390.905 5.66954 -1.54393 0
M  V30 3959 H 392.429 6.06576 -0.699871 0
M  V30 3960 H 393.843 5.04248 -2.72776 0
M  V30 3961 H 392.24 4.87405 -3.50081 0
M  V30 3962 H 393.31 3.46466 -3.39248 0
M  V30 3963 N 394.653 0.992116 1.22453 0
M  V30 3964 C 395.901 0.666215 1.90804 0
M  V30 3965 C 396.222 -0.804152 1.77647 0
M  V30 3966 O 395.492 -1.57629 1.16318 0
M  V30 3967 H 394.072 0.243423 0.706225 0
M  V30 3968 H 396.734 1.25845 1.48825 0
M  V30 3969 H 395.83 0.928069 2.97982 0
M  V30 3970 N 396.131 -1.37776 0.765217 0
M  V30 3971 C 397.356 -2.04651 0.336537 0
M  V30 3972 C 397.781 -1.57337 -1.03086 0
M  V30 3973 O 397.139 -0.730621 -1.65927 0
M  V30 3974 C 397.187 -3.58577 0.381468 0
M  V30 3975 O 396.291 -4.07706 -0.62042 0
M  V30 3976 H 395.632 -0.64756 0.146838 0
M  V30 3977 H 398.162 -1.76221 1.03959 0
M  V30 3978 H 398.172 -4.07314 0.236448 0
M  V30 3979 H 396.847 -3.9237 1.37907 0
M  V30 3980 H 395.424 -3.70306 -0.439056 0
M  V30 3981 N 397.609 -0.515225 -1.4894 0
M  V30 3982 C 398.886 0.0879088 -1.95402 0
M  V30 3983 C 399.266 1.52745 -1.45712 0
M  V30 3984 O 398.614 2.18238 -0.677093 0
M  V30 3985 C 398.824 -0.0141055 -3.48997 0
M  V30 3986 C 400.172 0.152646 -4.24326 0
M  V30 3987 O 401.196 0.0604025 -3.56149 0
M  V30 3988 O 400.055 0.34384 -5.45417 0
M  V30 3989 H 397.149 0.0874636 -0.822362 0
M  V30 3990 H 399.695 -0.578775 -1.59525 0
M  V30 3991 H 398.467 -1.01745 -3.77841 0
M  V30 3992 H 398.09 0.692091 -3.9153 0
M  V30 3993 N 399.087 1.5561 -0.249682 0
M  V30 3994 C 400.333 1.99306 0.374841 0
M  V30 3995 C 400.666 1.13767 1.57387 0
M  V30 3996 O 399.941 0.201711 1.93451 0
M  V30 3997 C 400.224 3.51507 0.781986 0
M  V30 3998 C 400.077 4.4781 -0.422629 0
M  V30 3999 C 401.396 4.08884 1.62793 0
M  V30 4000 H 398.515 0.724572 0.134773 0
M  V30 4001 H 401.157 1.86719 -0.351549 0
M  V30 4002 H 399.307 3.62363 1.4009 0
M  V30 4003 H 400.979 4.48931 -1.06108 0
M  V30 4004 H 399.222 4.20518 -1.06524 0
M  V30 4005 H 399.893 5.51919 -0.0943766 0
M  V30 4006 H 402.369 4.01147 1.10547 0
M  V30 4007 H 401.245 5.1564 1.88166 0
M  V30 4008 H 401.506 3.57515 2.60068 0
M  V30 4009 N 400.565 -0.0233959 1.57583 0
M  V30 4010 C 401.475 -1.03907 2.10334 0
M  V30 4011 C 402.491 -1.39257 1.04323 0
M  V30 4012 O 403.667 -1.48462 1.36091 0
M  V30 4013 C 400.732 -2.31938 2.57693 0
M  V30 4014 C 399.793 -2.03117 3.78209 0
M  V30 4015 C 399.026 -3.25043 4.233 0
M  V30 4016 O 399.249 -4.35916 3.67876 0
M  V30 4017 O 398.183 -3.10411 5.15683 0
M  V30 4018 H 402.009 -0.620748 2.97288 0
M  V30 4019 H 399.594 -0.240743 1.47448 0
M  V30 4020 H 401.476 -3.07196 2.88458 0
M  V30 4021 H 400.151 -2.73055 1.73847 0
M  V30 4022 H 399.058 -1.25408 3.52454 0
M  V30 4023 H 400.391 -1.66852 4.63056 0
M  V30 4024 N 402.043 -1.548 -0.295768 0
M  V30 4025 C 403.29 -1.74329 -1.03032 0
M  V30 4026 C 403.618 -0.531915 -1.87085 0
M  V30 4027 O 402.873 0.486052 -1.89568 0
M  V30 4028 C 403.172 -2.98797 -1.961 0
M  V30 4029 C 402.838 -4.32356 -1.2798 0
M  V30 4030 C 401.5 -4.68661 -1.09135 0
M  V30 4031 C 403.852 -5.15128 -0.793243 0
M  V30 4032 C 401.18 -5.85312 -0.403269 0
M  V30 4033 C 403.532 -6.32488 -0.118854 0
M  V30 4034 C 402.196 -6.6745 0.0815043 0
M  V30 4035 H 401.466 -0.637916 -0.37702 0
M  V30 4036 H 404.113 -1.8906 -0.304696 0
M  V30 4037 H 402.418 -2.78869 -2.75207 0
M  V30 4038 H 404.115 -3.11102 -2.53015 0
M  V30 4039 H 400.705 -4.03808 -1.43655 0
M  V30 4040 H 404.889 -4.87575 -0.92653 0
M  V30 4041 H 400.145 -6.1094 -0.237098 0
M  V30 4042 H 404.319 -6.95892 0.266035 0
M  V30 4043 H 401.946 -7.57695 0.616685 0
M  V30 4044 N 403.521 0.559213 -1.47345 0
M  V30 4045 C 404.471 1.66192 -1.5609 0
M  V30 4046 C 405.455 1.55323 -0.419957 0
M  V30 4047 O 406.647 1.63839 -0.669762 0
M  V30 4048 C 403.776 3.0497 -1.57634 0
M  V30 4049 C 402.862 3.2105 -2.77106 0
M  V30 4050 N 403.253 3.07203 -4.01821 0
M  V30 4051 C 401.551 3.52046 -2.73825 0
M  V30 4052 C 402.252 3.25919 -4.81821 0
M  V30 4053 N 401.228 3.52161 -4.14106 0
M  V30 4054 H 405.03 1.54052 -2.5029 0
M  V30 4055 H 402.544 0.763914 -1.43311 0
M  V30 4056 H 404.541 3.84142 -1.61989 0
M  V30 4057 H 403.201 3.18224 -0.645281 0
M  V30 4058 H 404.212 2.84572 -4.32711 0
M  V30 4059 H 400.889 3.71839 -1.89848 0
M  V30 4060 H 402.279 3.20198 -5.90697 0
M  V30 4061 N 404.999 1.35443 0.805782 0
M  V30 4062 C 406.239 1.30127 1.57627 0
M  V30 4063 C 406.603 -0.122567 1.91608 0
M  V30 4064 O 407.804 -0.300107 2.67119 0
M  V30 4065 C 406.075 2.18314 2.82973 0
M  V30 4066 S 407.634 2.30521 3.7337 0
M  V30 4067 H 404.452 0.462439 0.540066 0
M  V30 4068 H 407.054 1.70843 0.95042 0
M  V30 4069 H 405.758 3.20741 2.56034 0
M  V30 4070 H 405.289 1.78558 3.50543 0
M  V30 4071 H 407.304 1.49062 4.73281 0
M  V30 4072 N 406.477 -1.02803 1.19454 0
M  V30 4073 C 407.424 -2.11099 0.933046 0
M  V30 4074 C 408.394 -1.65571 -0.132447 0
M  V30 4075 O 409.579 -1.90797 0.00987576 0
M  V30 4076 C 406.719 -3.41763 0.478747 0
M  V30 4077 C 405.832 -4.00833 1.6111 0
M  V30 4078 C 404.967 -5.19511 1.10825 0
M  V30 4079 C 404.006 -5.70639 2.21445 0
M  V30 4080 N 403.143 -6.80589 1.72461 0
M  V30 4081 H 407.983 -2.32804 1.86028 0
M  V30 4082 H 405.52 -1.14179 0.927441 0
M  V30 4083 H 407.478 -4.16736 0.196745 0
M  V30 4084 H 406.108 -3.20166 -0.411493 0
M  V30 4085 H 405.16 -3.23066 2.00829 0
M  V30 4086 H 406.472 -4.34794 2.4445 0
M  V30 4087 H 405.626 -6.01645 0.781533 0
M  V30 4088 H 404.365 -4.87086 0.244606 0
M  V30 4089 H 403.37 -4.87116 2.54947 0
M  V30 4090 H 404.595 -6.05102 3.08267 0
M  V30 4091 H 402.541 -6.50016 0.884056 0
M  V30 4092 H 402.458 -7.13681 2.49389 0
M  V30 4093 H 403.726 -7.66317 1.42755 0
M  V30 4094 N 407.956 -0.998596 -1.21925 0
M  V30 4095 C 409.202 -0.678667 -1.91107 0
M  V30 4096 C 409.535 0.78791 -1.77498 0
M  V30 4097 O 408.81 1.57043 -1.1475 0
M  V30 4098 C 409.093 -1.09245 -3.43129 0
M  V30 4099 C 408.946 -2.61801 -3.6576 0
M  V30 4100 C 410.265 -0.649984 -4.35274 0
M  V30 4101 H 407.384 -0.248025 -0.694012 0
M  V30 4102 H 410.026 -1.24314 -1.43688 0
M  V30 4103 H 408.176 -0.612171 -3.83647 0
M  V30 4104 H 409.848 -3.17543 -3.34611 0
M  V30 4105 H 408.091 -3.03609 -3.09845 0
M  V30 4106 H 408.762 -2.85804 -4.7225 0
M  V30 4107 H 411.238 -1.0626 -4.02303 0
M  V30 4108 H 410.114 -0.967743 -5.40302 0
M  V30 4109 H 410.375 0.449139 -4.39813 0
M  V30 4110 N 409.434 1.37368 -0.772513 0
M  V30 4111 C 410.664 2.03647 -0.348082 0
M  V30 4112 C 411.072 1.58392 1.03482 0
M  V30 4113 O 410.415 0.760921 1.672 0
M  V30 4114 C 410.477 3.58131 -0.313404 0
M  V30 4115 C 410.141 4.2652 -1.64102 0
M  V30 4116 C 411.138 4.50587 -2.5936 0
M  V30 4117 C 408.823 4.64335 -1.91567 0
M  V30 4118 C 410.817 5.11526 -3.80289 0
M  V30 4119 C 408.504 5.24996 -3.12766 0
M  V30 4120 C 409.502 5.48529 -4.06946 0
M  V30 4121 O 409.19 6.07921 -5.26011 0
M  V30 4122 H 408.922 0.660538 -0.143753 0
M  V30 4123 H 411.476 1.76669 -1.04772 0
M  V30 4124 H 409.706 3.84159 0.442617 0
M  V30 4125 H 411.395 4.05813 0.0840613 0
M  V30 4126 H 412.161 4.21784 -2.39423 0
M  V30 4127 H 408.04 4.45353 -1.19088 0
M  V30 4128 H 411.584 5.29811 -4.53813 0
M  V30 4129 H 407.481 5.53223 -3.32588 0
M  V30 4130 H 408.249 6.26398 -5.26847 0
M  V30 4131 N 410.912 0.523116 1.48665 0
M  V30 4132 C 412.137 -0.0117284 2.07397 0
M  V30 4133 C 412.562 -1.28031 1.37803 0
M  V30 4134 O 411.92 -1.75836 0.441762 0
M  V30 4135 C 411.968 -0.225786 3.59892 0
M  V30 4136 O 411.072 -1.29592 3.91509 0
M  V30 4137 H 410.413 0.0360673 0.66302 0
M  V30 4138 H 412.943 0.729066 1.9117 0
M  V30 4139 H 412.953 -0.450552 4.05505 0
M  V30 4140 H 411.628 0.700944 4.09951 0
M  V30 4141 H 410.205 -1.05436 3.57684 0
M  V30 4142 N 412.39 -1.55475 0.257931 0
M  V30 4143 C 413.667 -1.91155 -0.414629 0
M  V30 4144 C 414.047 -1.18008 -1.75035 0
M  V30 4145 O 413.395 -0.301193 -2.26506 0
M  V30 4146 C 413.605 -3.44283 -0.571859 0
M  V30 4147 C 414.953 -4.15744 -0.862678 0
M  V30 4148 O 415.977 -3.50083 -0.657314 0
M  V30 4149 O 414.836 -5.31909 -1.2544 0
M  V30 4150 H 411.93 -0.796016 -0.22425 0
M  V30 4151 H 414.476 -1.66976 0.302814 0
M  V30 4152 H 413.248 -3.89558 0.368844 0
M  V30 4153 H 412.871 -3.7436 -1.33943 0
M  V30 4154 N 413.868 0.0150385 -1.57593 0
M  V30 4155 C 414.831 0.995996 -2.06428 0
M  V30 4156 C 415.831 1.2818 -0.970903 0
M  V30 4157 O 417.021 1.22949 -1.23406 0
M  V30 4158 C 414.153 2.32506 -2.49307 0
M  V30 4159 H 415.346 0.573873 -2.94358 0
M  V30 4160 H 412.899 0.262186 -1.54085 0
M  V30 4161 H 413.634 2.79438 -1.64575 0
M  V30 4162 H 413.419 2.13087 -3.29145 0
M  V30 4163 H 414.909 3.02906 -2.87468 0
M  V30 4164 N 415.346 1.54954 0.287554 0
M  V30 4165 C 416.278 1.83224 1.37701 0
M  V30 4166 C 417.291 0.715898 1.46215 0
M  V30 4167 O 418.48 0.993565 1.48292 0
M  V30 4168 C 415.58 1.96723 2.75959 0
M  V30 4169 C 414.753 3.27253 2.90215 0
M  V30 4170 C 413.812 3.30998 4.09056 0
M  V30 4171 O 412.838 4.04457 4.00503 0
M  V30 4172 N 414.04 2.57353 5.20336 0
M  V30 4173 H 416.805 2.77254 1.138 0
M  V30 4174 H 414.366 1.54694 0.477652 0
M  V30 4175 H 416.358 1.96615 3.5373 0
M  V30 4176 H 414.928 1.09626 2.92747 0
M  V30 4177 H 414.148 3.40022 1.99447 0
M  V30 4178 H 415.436 4.13365 2.96659 0
M  V30 4179 H 414.834 1.97327 5.30169 0
M  V30 4180 H 413.391 2.62984 5.96391 0
M  V30 4181 N 416.824 -0.551391 1.4764 0
M  V30 4182 C 418.235 -1.13349 1.48354 0
M  V30 4183 C 418.586 -1.94709 0.241432 0
M  V30 4184 O 417.711 -2.06306 -0.653205 0
M  V30 4185 C 418.306 -2.0623 2.68802 0
M  V30 4186 C 416.865 -2.597 2.72457 0
M  V30 4187 C 416.012 -1.36201 2.41546 0
M  V30 4188 H 418.963 -0.337698 1.55065 0
M  V30 4189 H 418.984 -2.90196 2.46103 0
M  V30 4190 H 418.496 -1.46987 3.59188 0
M  V30 4191 H 416.597 -3.22724 1.86225 0
M  V30 4192 H 416.71 -3.00296 3.73308 0
M  V30 4193 H 415.074 -1.67068 1.9225 0
M  V30 4194 H 415.857 -0.787425 3.34147 0
M  V30 4195 N 418.302 -1.35869 -0.798587 0
M  V30 4196 C 419.252 -1.25982 -1.90033 0
M  V30 4197 C 420.236 -0.153303 -1.60168 0
M  V30 4198 O 421.428 -0.38527 -1.72756 0
M  V30 4199 C 418.557 -1.04211 -3.27101 0
M  V30 4200 C 417.643 -2.19289 -3.63006 0
M  V30 4201 N 418.034 -3.44559 -3.70287 0
M  V30 4202 C 416.332 -2.10852 -3.93011 0
M  V30 4203 C 417.033 -4.20283 -4.02166 0
M  V30 4204 N 416.009 -3.49124 -4.16669 0
M  V30 4205 H 419.811 -2.20883 -1.93876 0
M  V30 4206 H 417.325 -1.28457 -0.993614 0
M  V30 4207 H 419.322 -0.952155 -4.05881 0
M  V30 4208 H 417.982 -0.102013 -3.2454 0
M  V30 4209 H 418.993 -3.7881 -3.53162 0
M  V30 4210 H 415.67 -1.24744 -3.98428 0
M  V30 4211 H 417.06 -5.28575 -4.14799 0
M  V30 4212 N 419.78 1.02168 -1.19998 0
M  V30 4213 C 421.029 1.75091 -1.0013 0
M  V30 4214 C 421.342 1.89923 0.467835 0
M  V30 4215 O 422.548 2.59888 0.785515 0
M  V30 4216 C 421.004 3.14892 -1.74273 0
M  V30 4217 C 420.612 3.0809 -3.25245 0
M  V30 4218 C 422.356 3.9206 -1.62755 0
M  V30 4219 C 420.263 4.42867 -3.91948 0
M  V30 4220 H 419.193 0.656394 -0.37103 0
M  V30 4221 H 421.844 1.14284 -1.43567 0
M  V30 4222 H 420.226 3.7621 -1.2362 0
M  V30 4223 H 421.4 2.5611 -3.83072 0
M  V30 4224 H 419.715 2.44416 -3.3712 0
M  V30 4225 H 422.312 4.91764 -2.09934 0
M  V30 4226 H 422.655 4.12199 -0.582894 0
M  V30 4227 H 423.188 3.37359 -2.10793 0
M  V30 4228 H 419.927 4.27931 -4.96543 0
M  V30 4229 H 419.447 4.94874 -3.3891 0
M  V30 4230 H 421.126 5.11728 -3.95909 0
M  V30 4231 N 421.258 1.00505 1.21394 0
M  V30 4232 C 422.19 0.52372 2.23136 0
M  V30 4233 C 423.203 -0.387714 1.58116 0
M  V30 4234 O 424.392 -0.187905 1.77508 0
M  V30 4235 C 421.492 -0.258885 3.3791 0
M  V30 4236 C 420.665 0.651634 4.32519 0
M  V30 4237 C 419.724 -0.0813705 5.26137 0
M  V30 4238 O 418.75 0.537295 5.66658 0
M  V30 4239 N 419.952 -1.35992 5.64346 0
M  V30 4240 H 422.717 1.39865 2.65062 0
M  V30 4241 H 420.278 0.881196 1.35818 0
M  V30 4242 H 422.27 -0.758208 3.97534 0
M  V30 4243 H 420.84 -1.035 2.94968 0
M  V30 4244 H 420.06 1.33145 3.71034 0
M  V30 4245 H 421.348 1.27129 4.92662 0
M  V30 4246 H 420.746 -1.88368 5.33417 0
M  V30 4247 H 419.303 -1.8042 6.26332 0
M  V30 4248 N 422.737 -1.36956 0.779787 0
M  V30 4249 C 423.983 -2.00237 0.357324 0
M  V30 4250 C 424.338 -1.60787 -1.05666 0
M  V30 4251 O 423.631 -0.847836 -1.71821 0
M  V30 4252 C 423.825 -3.54585 0.447686 0
M  V30 4253 C 423.654 -4.09025 1.86891 0
M  V30 4254 C 422.424 -4.39612 2.49138 0
M  V30 4255 C 424.622 -4.29461 2.82963 0
M  V30 4256 N 422.604 -4.79816 3.82949 0
M  V30 4257 C 423.975 -4.72363 4.01588 0
M  V30 4258 C 426.03 -4.1161 2.80145 0
M  V30 4259 C 424.733 -4.99284 5.17791 0
M  V30 4260 C 426.759 -4.39672 3.95528 0
M  V30 4261 C 426.121 -4.82822 5.12896 0
M  V30 4262 H 422.22 -0.76148 0.177968 0
M  V30 4263 H 424.804 -1.6613 1.01533 0
M  V30 4264 H 422.975 -3.87982 -0.180184 0
M  V30 4265 H 424.707 -4.047 0.0023955 0
M  V30 4266 H 421.462 -4.28975 2.00693 0
M  V30 4267 H 421.886 -5.04216 4.51769 0
M  V30 4268 H 426.528 -3.77415 1.90572 0
M  V30 4269 H 424.246 -5.32365 6.07958 0
M  V30 4270 H 427.832 -4.27441 3.94697 0
M  V30 4271 H 426.712 -5.04118 6.00695 0
M  V30 4272 N 424.215 -0.530993 -1.48385 0
M  V30 4273 C 425.145 0.219985 -2.32461 0
M  V30 4274 C 426.126 0.934111 -1.42156 0
M  V30 4275 O 427.311 0.919694 -1.71042 0
M  V30 4276 C 424.441 1.26674 -3.23375 0
M  V30 4277 C 423.395 0.67069 -4.22712 0
M  V30 4278 C 422.721 1.82017 -5.02766 0
M  V30 4279 C 424.021 -0.358268 -5.2107 0
M  V30 4280 H 425.715 -0.48187 -2.95497 0
M  V30 4281 H 423.261 -0.233182 -1.42099 0
M  V30 4282 H 425.214 1.80006 -3.81019 0
M  V30 4283 H 423.938 1.99818 -2.58341 0
M  V30 4284 H 422.597 0.158878 -3.66256 0
M  V30 4285 H 422.245 2.54002 -4.34157 0
M  V30 4286 H 421.945 1.42727 -5.70003 0
M  V30 4287 H 423.469 2.35725 -5.63264 0
M  V30 4288 H 424.883 0.0880081 -5.73232 0
M  V30 4289 H 423.28 -0.66861 -5.96364 0
M  V30 4290 H 424.35 -1.26367 -4.68145 0
M  V30 4291 N 425.693 1.55336 -0.266172 0
M  V30 4292 C 426.64 2.22172 0.625165 0
M  V30 4293 C 427.61 1.19211 1.15663 0
M  V30 4294 O 428.795 1.47723 1.20758 0
M  V30 4295 C 425.935 2.93972 1.8076 0
M  V30 4296 C 425.048 4.11632 1.31084 0
M  V30 4297 C 424.183 4.71099 2.45436 0
M  V30 4298 C 423.222 5.8097 1.92718 0
M  V30 4299 N 422.359 6.34538 3.00509 0
M  V30 4300 H 427.199 2.9796 0.0485582 0
M  V30 4301 H 424.736 1.47095 0.0122024 0
M  V30 4302 H 426.694 3.33811 2.50251 0
M  V30 4303 H 425.324 2.20623 2.35638 0
M  V30 4304 H 424.376 3.76975 0.509326 0
M  V30 4305 H 425.688 4.90893 0.884633 0
M  V30 4306 H 424.842 5.13612 3.22936 0
M  V30 4307 H 423.581 3.91096 2.91368 0
M  V30 4308 H 422.586 5.37916 1.13695 0
M  V30 4309 H 423.811 6.62836 1.47733 0
M  V30 4310 H 421.757 5.57433 3.45839 0
M  V30 4311 H 421.674 7.09046 2.62279 0
M  V30 4312 H 422.942 6.81709 3.78011 0
M  V30 4313 N 427.171 -0.0066808 1.57599 0
M  V30 4314 C 428.121 -1.0086 2.04478 0
M  V30 4315 C 429.105 -1.30714 0.938231 0
M  V30 4316 O 430.297 -1.29924 1.20203 0
M  V30 4317 C 427.426 -2.30273 2.54615 0
M  V30 4318 C 426.512 -2.03413 3.72134 0
M  V30 4319 N 426.903 -1.46688 4.84062 0
M  V30 4320 C 425.201 -2.33589 3.79937 0
M  V30 4321 C 425.902 -1.36146 5.65543 0
M  V30 4322 N 424.878 -1.84477 5.1134 0
M  V30 4323 H 428.68 -0.564402 2.8843 0
M  V30 4324 H 426.194 -0.212521 1.61003 0
M  V30 4325 H 428.191 -3.02885 2.86472 0
M  V30 4326 H 426.851 -2.75352 1.72079 0
M  V30 4327 H 427.862 -1.14658 5.05049 0
M  V30 4328 H 424.539 -2.81589 3.08243 0
M  V30 4329 H 425.929 -0.925873 6.6549 0
M  V30 4330 N 428.649 -1.55105 -0.279332 0
M  V30 4331 C 429.895 -1.75672 -1.01327 0
M  V30 4332 C 430.228 -0.552739 -1.86168 0
M  V30 4333 O 429.503 0.449827 -1.89227 0
M  V30 4334 C 429.786 -3.05825 -1.90114 0
M  V30 4335 C 429.639 -4.36565 -1.08309 0
M  V30 4336 C 430.958 -3.31975 -2.8893 0
M  V30 4337 H 428.077 -0.639149 -0.366957 0
M  V30 4338 H 430.719 -1.87833 -0.286154 0
M  V30 4339 H 428.869 -2.95588 -2.52111 0
M  V30 4340 H 430.541 -4.58751 -0.484314 0
M  V30 4341 H 428.784 -4.32076 -0.386362 0
M  V30 4342 H 429.455 -5.23946 -1.73737 0
M  V30 4343 H 431.931 -3.41963 -2.37067 0
M  V30 4344 H 430.807 -4.2432 -3.48201 0
M  V30 4345 H 431.068 -2.51309 -3.63725 0
M  V30 4346 N 430.127 0.543554 -1.4793 0
M  V30 4347 C 431.037 1.67657 -1.64098 0
M  V30 4348 C 432.053 1.65934 -0.523622 0
M  V30 4349 O 433.229 1.85133 -0.792943 0
M  V30 4350 C 430.294 3.04146 -1.66421 0
M  V30 4351 C 429.355 3.16831 -2.89684 0
M  V30 4352 C 428.588 4.46809 -2.91886 0
M  V30 4353 O 428.811 5.33095 -2.02895 0
M  V30 4354 O 427.745 4.63573 -3.83906 0
M  V30 4355 H 431.571 1.56957 -2.59997 0
M  V30 4356 H 429.156 0.715116 -1.31173 0
M  V30 4357 H 431.038 3.85346 -1.70548 0
M  V30 4358 H 429.713 3.152 -0.736923 0
M  V30 4359 H 428.62 2.34977 -2.91095 0
M  V30 4360 H 429.953 3.10687 -3.81752 0
M  V30 4361 N 431.605 1.3629 0.791371 0
M  V30 4362 C 432.851 1.30605 1.55146 0
M  V30 4363 C 433.184 -0.115042 1.93859 0
M  V30 4364 O 432.459 -1.06798 1.62556 0
M  V30 4365 C 432.742 2.22692 2.82985 0
M  V30 4366 C 432.595 3.73489 2.50651 0
M  V30 4367 C 433.914 2.13588 3.84796 0
M  V30 4368 H 431.033 0.475761 0.562868 0
M  V30 4369 H 433.675 1.66825 0.909358 0
M  V30 4370 H 431.825 1.91933 3.37778 0
M  V30 4371 H 433.497 4.14758 2.01924 0
M  V30 4372 H 431.74 3.93021 1.83622 0
M  V30 4373 H 432.411 4.3333 3.41949 0
M  V30 4374 H 434.887 2.40659 3.39445 0
M  V30 4375 H 433.763 2.80195 4.71998 0
M  V30 4376 H 434.024 1.12256 4.27611 0
M  V30 4377 N 433.083 -1.0153 1.20538 0
M  V30 4378 C 434.031 -2.12215 0.952235 0
M  V30 4379 C 435.025 -1.69123 -0.0968735 0
M  V30 4380 O 436.231 -1.7992 0.0536006 0
M  V30 4381 H 432.606 -0.693576 0.290613 0
M  V30 4382 H 434.577 -2.3075 1.89201 0
M  V30 4383 C 433.326 -3.43755 0.522287 0
M  V30 4384 H 432.649 -3.7734 1.32115 0
M  V30 4385 H 434.089 -4.22254 0.384389 0
M  V30 4386 C 432.548 -3.28088 -0.765489 0
M  V30 4387 O 433.078 -3.57921 -1.8236 0
M  V30 4388 N 431.284 -2.81333 -0.728011 0
M  V30 4389 H 430.831 -2.57255 0.133332 0
M  V30 4390 H 430.789 -2.71232 -1.58999 0
M  V30 4391 N 434.561 -1.01147 -1.20859 0
M  V30 4392 C 435.809 -0.696486 -1.89719 0
M  V30 4393 C 436.13 0.775788 -1.78904 0
M  V30 4394 O 435.4 1.55759 -1.18811 0
M  V30 4395 H 433.98 -0.254628 -0.702263 0
M  V30 4396 H 436.642 -1.28197 -1.46804 0
M  V30 4397 H 435.738 -0.975357 -2.96468 0
M  V30 4398 N 436.039 1.36541 -0.78704 0
M  V30 4399 C 437.264 2.0409 -0.369053 0
M  V30 4400 C 437.689 1.58957 1.00569 0
M  V30 4401 O 437.047 0.756926 1.64743 0
M  V30 4402 C 437.095 3.57924 -0.438466 0
M  V30 4403 O 436.199 4.08642 0.555479 0
M  V30 4404 H 435.54 0.645142 -0.157122 0
M  V30 4405 H 438.07 1.74545 -1.06749 0
M  V30 4406 H 438.08 4.06887 -0.301218 0
M  V30 4407 H 436.755 3.90127 -1.44132 0
M  V30 4408 H 435.332 3.70958 0.380088 0
M  V30 4409 N 437.518 0.538854 1.48102 0
M  V30 4410 C 438.465 -0.219042 2.29758 0
M  V30 4411 C 439.435 -0.925562 1.37922 0
M  V30 4412 O 440.62 -0.924855 1.66886 0
M  V30 4413 C 437.76 -1.25452 3.2149 0
M  V30 4414 C 436.873 -0.555943 4.28408 0
M  V30 4415 C 436.008 -1.57512 5.0731 0
M  V30 4416 C 435.047 -0.860498 6.06021 0
M  V30 4417 N 434.184 -1.82564 6.77949 0
M  V30 4418 H 439.024 0.483449 2.94052 0
M  V30 4419 H 436.561 0.250247 1.44956 0
M  V30 4420 H 438.519 -1.86727 3.7308 0
M  V30 4421 H 437.149 -1.92528 2.591 0
M  V30 4422 H 436.201 0.170938 3.80016 0
M  V30 4423 H 437.513 0.00474616 4.988 0
M  V30 4424 H 436.667 -2.26191 5.62959 0
M  V30 4425 H 435.406 -2.16972 4.36778 0
M  V30 4426 H 434.411 -0.159686 5.49568 0
M  V30 4427 H 435.636 -0.271897 6.78555 0
M  V30 4428 H 433.582 -2.40915 6.10161 0
M  V30 4429 H 433.499 -1.31662 7.44447 0
M  V30 4430 H 434.767 -2.50414 7.38182 0
M  V30 4431 N 438.996 -1.55193 0.274407 0
M  V30 4432 C 440.242 -1.99877 -0.343086 0
M  V30 4433 C 440.575 -1.16256 -1.55558 0
M  V30 4434 O 439.85 -0.232462 -1.93106 0
M  V30 4435 C 440.133 -3.52706 -0.725965 0
M  V30 4436 C 439.986 -4.47081 0.493818 0
M  V30 4437 C 441.305 -4.11422 -1.56268 0
M  V30 4438 H 438.424 -0.726625 -0.123229 0
M  V30 4439 H 441.066 -1.86136 0.38121 0
M  V30 4440 H 439.216 -3.64546 -1.34307 0
M  V30 4441 H 440.888 -4.47186 1.13237 0
M  V30 4442 H 439.131 -4.1877 1.13201 0
M  V30 4443 H 439.802 -5.51699 0.18217 0
M  V30 4444 H 442.278 -4.02855 -1.04151 0
M  V30 4445 H 441.154 -5.18568 -1.79939 0
M  V30 4446 H 441.415 -3.61607 -2.54348 0
M  V30 4447 N 440.474 -0.00167713 -1.576 0
M  V30 4448 C 441.722 0.681471 -1.90264 0
M  V30 4449 C 442.043 1.7422 -0.875924 0
M  V30 4450 O 441.313 1.95709 0.0864412 0
M  V30 4451 H 439.893 0.254696 -0.702239 0
M  V30 4452 H 442.555 -0.0429996 -1.94853 0
M  V30 4453 H 441.651 1.15166 -2.90075 0
M  V30 4454 N 441.952 1.55251 0.271103 0
M  V30 4455 C 443.363 1.66635 0.842007 0
M  V30 4456 C 443.714 0.594631 1.86972 0
M  V30 4457 O 442.839 -0.263532 2.14789 0
M  V30 4458 C 443.434 3.02082 1.53401 0
M  V30 4459 C 441.993 3.15487 2.05293 0
M  V30 4460 C 441.14 2.62438 0.895631 0
M  V30 4461 H 444.091 1.58629 0.0474117 0
M  V30 4462 H 444.112 2.95176 2.40107 0
M  V30 4463 H 443.624 3.80062 0.785786 0
M  V30 4464 H 441.725 2.42284 2.83071 0
M  V30 4465 H 441.838 4.22075 2.26693 0
M  V30 4466 H 440.202 2.19644 1.28953 0
M  V30 4467 H 440.985 3.42923 0.160878 0
M  V30 4468 N 443.43 -0.535701 1.48216 0
M  V30 4469 C 444.707 -1.29683 1.46429 0
M  V30 4470 C 445.087 -2.10391 0.172852 0
M  V30 4471 O 444.435 -2.12282 -0.845488 0
M  V30 4472 C 444.645 -2.18313 2.72287 0
M  V30 4473 C 445.993 -2.78639 3.20383 0
M  V30 4474 O 447.017 -2.28604 2.73164 0
M  V30 4475 O 445.876 -3.69636 4.02531 0
M  V30 4476 H 442.97 -0.585026 0.584529 0
M  V30 4477 H 445.516 -0.552827 1.60443 0
M  V30 4478 H 444.288 -1.58421 3.57797 0
M  V30 4479 H 443.911 -2.99971 2.60966 0
M  V30 4480 N 444.908 -1.36708 -0.784132 0
M  V30 4481 C 446.156 -1.30972 -1.53918 0
M  V30 4482 C 446.477 0.109086 -1.94695 0
M  V30 4483 O 445.747 1.05048 -1.65353 0
M  V30 4484 H 444.327 -0.481819 -0.570841 0
M  V30 4485 H 446.989 -1.71063 -0.934002 0
M  V30 4486 H 446.085 -1.94061 -2.44431 0
M  V30 4487 N 446.386 1.0089 -1.21074 0
M  V30 4488 C 447.614 1.78191 -1.05145 0
M  V30 4489 C 448.029 1.84537 0.398952 0
M  V30 4490 O 447.386 1.30393 1.27687 0
M  V30 4491 C 447.437 3.22288 -1.63746 0
M  V30 4492 O 447.158 3.16315 -3.03111 0
M  V30 4493 C 448.659 4.16106 -1.52875 0
M  V30 4494 H 445.879 0.560129 -0.369454 0
M  V30 4495 H 448.423 1.26945 -1.60328 0
M  V30 4496 H 446.578 3.70655 -1.12664 0
M  V30 4497 H 446.992 4.06817 -3.31059 0
M  V30 4498 H 448.466 5.15026 -1.98626 0
M  V30 4499 H 448.943 4.36541 -0.482521 0
M  V30 4500 H 449.549 3.73625 -2.03185 0
M  V30 4501 N 447.864 1.01787 1.20321 0
M  V30 4502 C 449.275 0.739307 1.71438 0
M  V30 4503 C 449.626 -0.742041 1.81627 0
M  V30 4504 O 448.751 -1.57903 1.47971 0
M  V30 4505 C 449.346 1.33538 3.11373 0
M  V30 4506 C 447.905 1.10566 3.59795 0
M  V30 4507 C 447.052 1.44028 2.36962 0
M  V30 4508 H 450.003 1.18718 1.05317 0
M  V30 4509 H 450.024 0.726611 3.73498 0
M  V30 4510 H 449.536 2.41352 3.03926 0
M  V30 4511 H 447.637 0.0452405 3.72573 0
M  V30 4512 H 447.75 1.78661 4.44542 0
M  V30 4513 H 446.114 0.85933 2.39766 0
M  V30 4514 H 446.897 2.52901 2.32155 0
M  V30 4515 N 449.342 -1.36122 0.79427 0
M  V30 4516 C 450.572 -2.03067 0.380437 0
M  V30 4517 C 450.98 -1.60018 -1.00949 0
M  V30 4518 O 450.323 -0.787425 -1.65968 0
M  V30 4519 C 450.385 -3.57587 0.37034 0
M  V30 4520 C 450.049 -4.23855 1.70867 0
M  V30 4521 C 451.046 -4.46404 2.66496 0
M  V30 4522 C 448.731 -4.61229 1.9893 0
M  V30 4523 C 450.725 -5.05412 3.88378 0
M  V30 4524 C 448.412 -5.19953 3.21079 0
M  V30 4525 C 449.41 -5.41985 4.15621 0
M  V30 4526 O 449.098 -5.99475 5.35616 0
M  V30 4527 H 448.83 -0.658168 0.154243 0
M  V30 4528 H 451.384 -1.7498 1.0757 0
M  V30 4529 H 449.614 -3.84814 -0.381444 0
M  V30 4530 H 451.303 -4.05895 -0.0194894 0
M  V30 4531 H 452.069 -4.17921 2.46103 0
M  V30 4532 H 447.948 -4.43402 1.26158 0
M  V30 4533 H 451.492 -5.22524 4.62185 0
M  V30 4534 H 447.389 -5.47862 3.41347 0
M  V30 4535 H 448.157 -6.17937 5.36745 0
M  V30 4536 N 450.82 -0.546701 -1.47814 0
M  V30 4537 C 452.066 -0.0187684 -2.02791 0
M  V30 4538 C 452.399 1.32338 -1.42128 0
M  V30 4539 O 451.674 1.85867 -0.573023 0
M  V30 4540 C 451.957 0.0854985 -3.59998 0
M  V30 4541 C 451.81 -1.283 -4.31114 0
M  V30 4542 C 453.129 0.80412 -4.32691 0
M  V30 4543 H 450.248 -0.0082946 -0.736953 0
M  V30 4544 H 452.89 -0.706962 -1.76358 0
M  V30 4545 H 451.04 0.671609 -3.82651 0
M  V30 4546 H 452.712 -1.91151 -4.19832 0
M  V30 4547 H 450.955 -1.86049 -3.91878 0
M  V30 4548 H 451.626 -1.16287 -5.39612 0
M  V30 4549 H 454.102 0.306576 -4.14969 0
M  V30 4550 H 452.978 0.846011 -5.42341 0
M  V30 4551 H 453.239 1.85802 -4.01161 0
M  V30 4552 N 452.299 1.55045 -0.282633 0
M  V30 4553 C 453.527 2.04168 0.33512 0
M  V30 4554 C 453.942 1.16071 1.48906 0
M  V30 4555 O 453.299 0.182391 1.81586 0
M  V30 4556 C 453.35 3.52332 0.808957 0
M  V30 4557 O 453.071 4.37078 -0.299038 0
M  V30 4558 C 454.572 4.17375 1.49375 0
M  V30 4559 H 451.792 0.666744 0.0754543 0
M  V30 4560 H 454.336 2.00205 -0.416918 0
M  V30 4561 H 452.491 3.56715 1.51106 0
M  V30 4562 H 452.905 5.24458 0.0665514 0
M  V30 4563 H 454.379 5.22627 1.77664 0
M  V30 4564 H 454.856 3.65999 2.42778 0
M  V30 4565 H 455.462 4.17016 0.835305 0
M  V30 4566 N 453.777 0.010035 1.57597 0
M  V30 4567 C 455.023 -0.673697 1.91283 0
M  V30 4568 C 455.356 -1.72863 0.884979 0
M  V30 4569 O 454.631 -1.94268 -0.0949487 0
M  V30 4570 C 454.914 -1.30766 3.35518 0
M  V30 4571 C 454.767 -0.263578 4.49027 0
M  V30 4572 C 456.086 -2.23105 3.79358 0
M  V30 4573 H 453.205 -0.243439 0.695634 0
M  V30 4574 H 455.847 0.0633864 1.89894 0
M  V30 4575 H 453.997 -1.93588 3.36832 0
M  V30 4576 H 455.669 0.365738 4.59848 0
M  V30 4577 H 453.912 0.413077 4.31829 0
M  V30 4578 H 454.583 -0.746398 5.4693 0
M  V30 4579 H 457.059 -1.70289 3.79659 0
M  V30 4580 H 455.935 -2.64424 4.81011 0
M  V30 4581 H 456.196 -3.11433 3.13787 0
M  V30 4582 N 455.255 -1.55392 -0.262866 0
M  V30 4583 C 456.185 -1.91978 -1.32917 0
M  V30 4584 C 457.166 -0.7828 -1.51017 0
M  V30 4585 O 458.351 -1.04178 -1.63892 0
M  V30 4586 C 455.481 -2.20055 -2.68687 0
M  V30 4587 C 454.435 -3.35854 -2.65304 0
M  V30 4588 C 453.761 -3.49435 -4.04721 0
M  V30 4589 C 455.061 -4.71977 -2.23685 0
M  V30 4590 H 456.755 -2.81292 -1.02544 0
M  V30 4591 H 454.301 -1.3534 -0.491846 0
M  V30 4592 H 456.254 -2.44237 -3.43404 0
M  V30 4593 H 454.978 -1.27551 -3.00663 0
M  V30 4594 H 453.637 -3.11655 -1.93045 0
M  V30 4595 H 453.285 -2.54379 -4.33936 0
M  V30 4596 H 452.985 -4.27297 -4.0335 0
M  V30 4597 H 454.509 -3.7592 -4.81161 0
M  V30 4598 H 455.923 -4.95637 -2.88127 0
M  V30 4599 H 454.32 -5.52828 -2.33456 0
M  V30 4600 H 455.39 -4.70115 -1.18827 0
M  V30 4601 N 456.733 0.527833 -1.48498 0
M  V30 4602 C 457.68 1.6322 -1.6318 0
M  V30 4603 C 458.65 1.59199 -0.473815 0
M  V30 4604 O 459.835 1.77591 -0.697563 0
M  V30 4605 C 456.975 3.01474 -1.67951 0
M  V30 4606 C 456.088 3.15713 -2.94871 0
M  V30 4607 C 455.223 4.44539 -2.90789 0
M  V30 4608 C 454.262 4.52315 -4.12404 0
M  V30 4609 N 453.399 5.72533 -4.06387 0
M  V30 4610 H 458.239 1.50011 -2.57489 0
M  V30 4611 H 455.776 0.730298 -1.27691 0
M  V30 4612 H 457.734 3.81572 -1.68698 0
M  V30 4613 H 456.364 3.1345 -0.771306 0
M  V30 4614 H 455.416 2.28854 -3.03859 0
M  V30 4615 H 456.728 3.1732 -3.8485 0
M  V30 4616 H 455.882 5.3293 -2.89949 0
M  V30 4617 H 454.621 4.45457 -1.98542 0
M  V30 4618 H 453.626 3.62331 -4.13517 0
M  V30 4619 H 454.851 4.53134 -5.05812 0
M  V30 4620 H 452.797 5.74344 -3.16962 0
M  V30 4621 H 452.714 5.75643 -4.90073 0
M  V30 4622 H 453.982 6.63204 -4.0961 0
M  V30 4623 N 458.211 1.37122 0.776871 0
M  V30 4624 C 459.439 1.3523 1.5659 0
M  V30 4625 C 459.854 -0.0635518 1.88693 0
M  V30 4626 O 459.211 -1.02394 1.51069 0
M  V30 4627 C 459.262 2.18583 2.8793 0
M  V30 4628 O 458.983 3.5465 2.57206 0
M  V30 4629 C 460.484 2.24612 3.82183 0
M  V30 4630 H 457.704 0.4634 0.485285 0
M  V30 4631 H 460.248 1.80392 0.963266 0
M  V30 4632 H 458.403 1.76943 3.4463 0
M  V30 4633 H 458.817 3.98286 3.41275 0
M  V30 4634 H 460.291 2.87267 4.71361 0
M  V30 4635 H 460.768 1.25309 4.20944 0
M  V30 4636 H 461.374 2.66543 3.31414 0
M  V30 4637 N 459.689 -1.00246 1.21608 0
M  V30 4638 C 460.652 -2.07233 0.979133 0
M  V30 4639 C 461.652 -1.6072 -0.0508219 0
M  V30 4640 O 462.842 -1.73196 0.186712 0
M  V30 4641 C 459.974 -3.37546 0.477016 0
M  V30 4642 H 461.167 -2.29687 1.92831 0
M  V30 4643 H 458.72 -1.17261 1.03342 0
M  V30 4644 H 459.455 -3.20773 -0.476966 0
M  V30 4645 H 459.24 -3.72638 1.21997 0
M  V30 4646 H 460.73 -4.16285 0.331181 0
M  V30 4647 N 461.167 -1.02423 -1.1978 0
M  V30 4648 C 462.415 -0.716569 -1.8897 0
M  V30 4649 C 462.736 0.756769 -1.79716 0
M  V30 4650 O 462.006 1.5449 -1.20456 0
M  V30 4651 H 460.586 -0.262062 -0.699523 0
M  V30 4652 H 463.248 -1.29747 -1.45436 0
M  V30 4653 H 462.344 -1.00675 -2.95417 0
M  V30 4654 N 462.645 1.35699 -0.801477 0
M  V30 4655 C 463.608 2.28199 -0.213994 0
M  V30 4656 C 464.608 1.49359 0.595691 0
M  V30 4657 O 465.798 1.69186 0.414921 0
M  V30 4658 C 462.93 3.33587 0.702297 0
M  V30 4659 H 464.123 2.81666 -1.02976 0
M  V30 4660 H 461.676 1.45467 -0.571759 0
M  V30 4661 H 462.411 2.85297 1.54195 0
M  V30 4662 H 462.196 3.91906 0.123484 0
M  V30 4663 H 463.686 4.02638 1.10783 0
M  V30 4664 N 464.123 0.554532 1.47522 0
M  V30 4665 C 465.071 -0.207765 2.3167 0
M  V30 4666 C 466.065 -0.911914 1.4276 0
M  V30 4667 O 467.271 -0.833504 1.59539 0
M  V30 4668 H 463.646 -0.0858726 0.747081 0
M  V30 4669 H 465.617 0.521178 2.93813 0
M  V30 4670 C 464.366 -1.2263 3.25357 0
M  V30 4671 H 463.689 -0.693887 3.93732 0
M  V30 4672 H 465.129 -1.73062 3.87073 0
M  V30 4673 C 463.588 -2.27278 2.4869 0
M  V30 4674 O 464.118 -3.34156 2.22941 0
M  V30 4675 N 462.324 -2.01134 2.09746 0
M  V30 4676 H 461.871 -1.14232 2.30887 0
M  V30 4677 H 461.829 -2.71369 1.58765 0
M  V30 4678 N 465.601 -1.54893 0.290851 0
M  V30 4679 C 466.829 -2.04343 -0.324288 0
M  V30 4680 C 467.244 -1.16859 -1.48289 0
M  V30 4681 O 466.601 -0.192018 -1.81487 0
M  V30 4682 C 466.652 -3.52756 -0.79026 0
M  V30 4683 O 466.373 -4.36913 0.322213 0
M  V30 4684 C 467.874 -4.18161 -1.4716 0
M  V30 4685 H 465.094 -0.667135 -0.0719173 0
M  V30 4686 H 467.638 -1.99981 0.427529 0
M  V30 4687 H 465.793 -3.57511 -1.49213 0
M  V30 4688 H 466.207 -5.24486 -0.0387372 0
M  V30 4689 H 467.681 -5.23562 -1.7489 0
M  V30 4690 H 468.158 -3.67282 -2.40834 0
M  V30 4691 H 468.764 -4.17454 -0.813178 0
M  V30 4692 N 467.08 -0.0183926 -1.57589 0
M  V30 4693 C 468.308 0.673046 -1.95647 0
M  V30 4694 C 468.723 1.66275 -0.894312 0
M  V30 4695 O 468.08 1.82072 0.124975 0
M  V30 4696 C 468.131 1.38884 -3.33756 0
M  V30 4697 O 467.852 0.438806 -4.35897 0
M  V30 4698 C 469.353 2.1731 -3.86383 0
M  V30 4699 H 466.573 0.186292 -0.644621 0
M  V30 4700 H 469.117 -0.0749748 -2.04363 0
M  V30 4701 H 467.272 2.08835 -3.26293 0
M  V30 4702 H 467.686 0.945869 -5.15901 0
M  V30 4703 H 469.16 2.62863 -4.85394 0
M  V30 4704 H 469.637 3.00764 -3.20059 0
M  V30 4705 H 470.243 1.52339 -3.97081 0
M  V30 4706 N 468.558 1.5553 0.254621 0
M  V30 4707 C 469.835 1.6774 1.00611 0
M  V30 4708 C 470.215 0.555993 2.03647 0
M  V30 4709 O 469.563 -0.441583 2.24193 0
M  V30 4710 C 469.773 3.07725 1.6464 0
M  V30 4711 C 471.121 3.66074 2.15116 0
M  V30 4712 O 472.145 3.10476 1.74595 0
M  V30 4713 O 471.004 4.63526 2.89493 0
M  V30 4714 H 468.098 0.681958 0.467828 0
M  V30 4715 H 470.644 1.67863 0.24902 0
M  V30 4716 H 469.416 3.80792 0.900734 0
M  V30 4717 H 469.039 3.1158 2.46989 0
M  V30 4718 N 470.036 -0.519951 1.48776 0
M  V30 4719 C 470.983 -1.62352 1.64044 0
M  V30 4720 C 471.953 -1.58945 0.482251 0
M  V30 4721 O 473.138 -1.77219 0.706971 0
M  V30 4722 C 470.278 -3.00579 1.69547 0
M  V30 4723 C 469.391 -3.14145 2.96541 0
M  V30 4724 C 468.526 -4.42991 2.93142 0
M  V30 4725 C 467.565 -4.50122 4.14797 0
M  V30 4726 N 466.702 -5.7037 4.09418 0
M  V30 4727 H 471.542 -1.48643 2.58281 0
M  V30 4728 H 469.079 -0.723516 1.28077 0
M  V30 4729 H 471.037 -3.80671 1.70719 0
M  V30 4730 H 469.667 -3.13036 0.787918 0
M  V30 4731 H 468.719 -2.27239 3.05068 0
M  V30 4732 H 470.031 -3.15275 3.86527 0
M  V30 4733 H 469.185 -5.31385 2.92772 0
M  V30 4734 H 467.924 -4.44398 2.00902 0
M  V30 4735 H 466.929 -3.60133 4.15433 0
M  V30 4736 H 468.154 -4.50445 5.08208 0
M  V30 4737 H 466.1 -5.72655 3.20004 0
M  V30 4738 H 466.017 -5.73036 4.93119 0
M  V30 4739 H 467.285 -6.61023 4.13121 0
M  V30 4740 N 471.514 -1.37532 -0.769588 0
M  V30 4741 C 472.424 -1.35668 -1.91393 0
M  V30 4742 C 473.44 -0.255954 -1.72107 0
M  V30 4743 O 474.616 -0.491704 -1.95305 0
M  V30 4744 C 471.681 -1.16481 -3.26547 0
M  V30 4745 C 470.742 -2.36212 -3.58472 0
M  V30 4746 C 469.975 -2.17932 -4.87177 0
M  V30 4747 O 470.198 -1.1647 -5.58382 0
M  V30 4748 O 469.132 -3.06167 -5.18214 0
M  V30 4749 H 472.958 -2.32055 -1.95918 0
M  V30 4750 H 470.543 -1.18284 -0.912641 0
M  V30 4751 H 472.425 -1.07778 -4.07384 0
M  V30 4752 H 471.1 -0.231687 -3.2287 0
M  V30 4753 H 470.007 -2.50488 -2.77861 0
M  V30 4754 H 471.34 -3.281 -3.66894 0
M  V30 4755 N 472.992 0.995999 -1.22138 0
M  V30 4756 C 473.922 2.10387 -1.01289 0
M  V30 4757 C 474.903 1.69975 0.0651454 0
M  V30 4758 O 476.088 1.9396 -0.0964628 0
M  V30 4759 C 473.218 3.42312 -0.586517 0
M  V30 4760 C 472.172 3.96558 -1.61014 0
M  V30 4761 C 471.498 5.24494 -1.0397 0
M  V30 4762 C 472.798 4.27595 -2.99933 0
M  V30 4763 H 474.492 2.28086 -1.93951 0
M  V30 4764 H 472.038 1.09607 -0.933928 0
M  V30 4765 H 473.991 4.19223 -0.427793 0
M  V30 4766 H 472.715 3.24431 0.375761 0
M  V30 4767 H 471.374 3.21776 -1.75658 0
M  V30 4768 H 471.022 5.02953 -0.0688703 0
M  V30 4769 H 470.722 5.61755 -1.72352 0
M  V30 4770 H 472.246 6.04042 -0.892494 0
M  V30 4771 H 473.66 4.95315 -2.8868 0
M  V30 4772 H 472.057 4.76021 -3.6541 0
M  V30 4773 H 473.127 3.35498 -3.50099 0
M  V30 4774 N 474.47 1.03057 1.19235 0
M  V30 4775 C 475.38 0.622922 2.26179 0
M  V30 4776 C 476.396 -0.346113 1.70523 0
M  V30 4777 O 477.572 -0.203572 2.00369 0
M  V30 4778 C 474.637 -0.0182063 3.46695 0
M  V30 4779 C 473.698 0.998546 4.17526 0
M  V30 4780 C 472.931 0.387917 5.32288 0
M  V30 4781 O 473.154 -0.808668 5.64639 0
M  V30 4782 O 472.088 1.1116 5.91546 0
M  V30 4783 H 475.914 1.51363 2.63292 0
M  V30 4784 H 473.499 0.800856 1.26122 0
M  V30 4785 H 475.381 -0.375606 4.19723 0
M  V30 4786 H 474.056 -0.882895 3.11427 0
M  V30 4787 H 472.963 1.40756 3.4661 0
M  V30 4788 H 474.296 1.83366 4.56769 0
M  V30 4789 N 475.948 -1.35272 0.808662 0
M  V30 4790 C 477.194 -1.99003 0.390581 0
M  V30 4791 C 477.527 -1.63999 -1.0401 0
M  V30 4792 O 476.802 -0.904368 -1.72196 0
M  V30 4793 C 477.085 -3.55454 0.576566 0
M  V30 4794 C 476.938 -4.00249 2.05233 0
M  V30 4795 C 478.257 -4.401 0.00354277 0
M  V30 4796 H 475.376 -0.722917 0.143388 0
M  V30 4797 H 478.018 -1.6039 1.01858 0
M  V30 4798 H 476.168 -3.88477 0.0419766 0
M  V30 4799 H 477.84 -3.77626 2.64946 0
M  V30 4800 H 476.083 -3.51082 2.54801 0
M  V30 4801 H 476.754 -5.0911 2.13333 0
M  V30 4802 H 479.23 -4.13548 0.460117 0
M  V30 4803 H 478.106 -5.48656 0.163575 0
M  V30 4804 H 478.367 -4.28444 -1.09032 0
M  V30 4805 N 477.426 -0.562348 -1.47226 0
M  V30 4806 C 478.356 0.170627 -2.32876 0
M  V30 4807 C 479.337 0.903748 -1.44106 0
M  V30 4808 O 480.522 0.883206 -1.72954 0
M  V30 4809 C 477.652 1.19786 -3.25989 0
M  V30 4810 C 476.606 0.580875 -4.2404 0
M  V30 4811 C 475.932 1.71311 -5.06514 0
M  V30 4812 C 477.232 -0.468714 -5.20193 0
M  V30 4813 H 478.926 -0.544441 -2.94408 0
M  V30 4814 H 476.472 -0.263271 -1.41573 0
M  V30 4815 H 478.425 1.71884 -3.84752 0
M  V30 4816 H 477.149 1.94294 -2.62521 0
M  V30 4817 H 475.808 0.0811538 -3.6651 0
M  V30 4818 H 475.456 2.44736 -4.39447 0
M  V30 4819 H 475.156 1.30604 -5.72902 0
M  V30 4820 H 476.68 2.23725 -5.68137 0
M  V30 4821 H 478.094 -0.0336028 -5.7329 0
M  V30 4822 H 476.491 -0.794957 -5.94811 0
M  V30 4823 H 477.561 -1.36269 -4.65359 0
M  V30 4824 N 478.904 1.54736 -0.299062 0
M  V30 4825 C 480.129 2.04975 0.316254 0
M  V30 4826 C 480.554 1.17501 1.46885 0
M  V30 4827 O 479.912 0.178678 1.80417 0
M  V30 4828 C 479.96 3.52672 0.751997 0
M  V30 4829 O 479.064 3.68226 1.85697 0
M  V30 4830 H 478.405 0.661126 0.0617175 0
M  V30 4831 H 480.935 1.99805 -0.440341 0
M  V30 4832 H 480.945 3.94488 1.04133 0
M  V30 4833 H 479.62 4.158 -0.0911482 0
M  V30 4834 H 478.197 3.38316 1.56834 0
M  V30 4835 N 480.382 0.0267497 1.57577 0
M  V30 4836 C 481.312 -0.954308 2.13108 0
M  V30 4837 C 482.293 -1.34088 1.04663 0
M  V30 4838 O 483.478 -1.41992 1.32484 0
M  V30 4839 C 480.608 -2.23744 2.65624 0
M  V30 4840 C 479.562 -1.99168 3.78835 0
M  V30 4841 C 478.888 -3.33726 4.17769 0
M  V30 4842 C 480.188 -1.33277 5.0501 0
M  V30 4843 H 481.882 -0.491848 2.95332 0
M  V30 4844 H 479.428 -0.23514 1.42067 0
M  V30 4845 H 481.381 -2.92754 3.03106 0
M  V30 4846 H 480.105 -2.72151 1.80558 0
M  V30 4847 H 478.764 -1.32577 3.41788 0
M  V30 4848 H 478.412 -3.79888 3.29688 0
M  V30 4849 H 478.112 -3.18089 4.94058 0
M  V30 4850 H 479.636 -4.04008 4.57832 0
M  V30 4851 H 481.05 -1.92283 5.40093 0
M  V30 4852 H 479.447 -1.28045 5.8628 0
M  V30 4853 H 480.517 -0.305411 4.83937 0
M  V30 4854 N 481.861 -1.55662 -0.24637 0
M  V30 4855 C 482.811 -1.86753 -1.30795 0
M  V30 4856 C 483.795 -0.728445 -1.43466 0
M  V30 4857 O 484.987 -0.99038 -1.46699 0
M  V30 4858 C 482.116 -2.16618 -2.66329 0
M  V30 4859 C 481.202 -3.36855 -2.57661 0
M  V30 4860 N 481.593 -4.56111 -2.18624 0
M  V30 4861 C 479.891 -3.39976 -2.88673 0
M  V30 4862 C 480.592 -5.38247 -2.20601 0
M  V30 4863 N 479.568 -4.77322 -2.60124 0
M  V30 4864 H 483.37 -2.76486 -0.996642 0
M  V30 4865 H 480.884 -1.55896 -0.454994 0
M  V30 4866 H 482.881 -2.37057 -3.42942 0
M  V30 4867 H 481.541 -1.28185 -2.98327 0
M  V30 4868 H 482.552 -4.81726 -1.9016 0
M  V30 4869 H 479.229 -2.61815 -3.25206 0
M  V30 4870 H 480.619 -6.43657 -1.92756 0
M  V30 4871 N 483.339 0.512053 -1.4905 0
M  V30 4872 C 484.287 1.63568 -1.65373 0
M  V30 4873 C 485.281 1.61228 -0.519806 0
M  V30 4874 O 486.487 1.65869 -0.699101 0
M  V30 4875 H 482.862 0.542019 -0.521267 0
M  V30 4876 H 484.833 1.4695 -2.59708 0
M  V30 4877 C 483.582 3.01761 -1.7273 0
M  V30 4878 H 482.905 3.04263 -2.59353 0
M  V30 4879 H 484.345 3.79948 -1.8819 0
M  V30 4880 C 482.804 3.33609 -0.46973 0
M  V30 4881 O 483.334 3.99607 0.409492 0
M  V30 4882 N 481.54 2.88651 -0.336003 0
M  V30 4883 H 481.087 2.35119 -1.05247 0
M  V30 4884 H 481.045 3.10328 0.504363 0
M  V30 4885 N 484.817 1.37938 0.762283 0
M  V30 4886 C 486.063 1.33866 1.52341 0
M  V30 4887 C 486.396 -0.0738961 1.94059 0
M  V30 4888 O 485.671 -1.03326 1.64785 0
M  V30 4889 C 485.954 2.28644 2.78197 0
M  V30 4890 C 485.807 3.78722 2.42672 0
M  V30 4891 C 487.126 2.21702 3.80179 0
M  V30 4892 H 484.245 0.487593 0.55265 0
M  V30 4893 H 486.887 1.68717 0.873767 0
M  V30 4894 H 485.037 1.99055 3.33631 0
M  V30 4895 H 486.709 4.18948 1.93081 0
M  V30 4896 H 484.952 3.96827 1.75244 0
M  V30 4897 H 485.623 4.40486 3.3268 0
M  V30 4898 H 488.099 2.47805 3.34263 0
M  V30 4899 H 486.975 2.90143 4.65949 0
M  V30 4900 H 487.236 1.21301 4.25133 0
M  V30 4901 N 486.295 -0.989507 1.22664 0
M  V30 4902 C 487.523 -1.76496 1.07967 0
M  V30 4903 C 487.938 -1.85148 -0.369543 0
M  V30 4904 O 487.295 -1.32408 -1.25596 0
M  V30 4905 C 487.346 -3.19642 1.68853 0
M  V30 4906 O 487.067 -3.11453 3.08105 0
M  V30 4907 C 488.568 -4.13621 1.59475 0
M  V30 4908 H 485.788 -0.55418 0.378319 0
M  V30 4909 H 488.332 -1.24378 1.62328 0
M  V30 4910 H 486.487 -3.68816 1.18547 0
M  V30 4911 H 486.901 -4.01499 3.37489 0
M  V30 4912 H 488.375 -5.11801 2.06795 0
M  V30 4913 H 488.852 -4.35718 0.55191 0
M  V30 4914 H 489.458 -3.70346 2.09103 0
M  V30 4915 N 487.773 -1.03688 -1.18687 0
M  V30 4916 C 489.02 -0.73803 -1.88572 0
M  V30 4917 C 489.348 0.733973 -1.8012 0
M  V30 4918 O 488.603 1.55098 -1.19344 0
M  V30 4919 C 488.902 -1.14477 -3.3857 0
M  V30 4920 C 488.568 -2.61641 -3.67226 0
M  V30 4921 C 487.23 -3.01846 -3.74757 0
M  V30 4922 C 489.582 -3.56812 -3.79914 0
M  V30 4923 C 486.91 -4.36118 -3.92451 0
M  V30 4924 C 489.262 -4.90799 -3.99123 0
M  V30 4925 C 487.926 -5.3068 -4.04888 0
M  V30 4926 H 487.196 -0.270064 -0.690034 0
M  V30 4927 H 489.843 -1.3012 -1.40503 0
M  V30 4928 H 488.148 -0.500337 -3.88592 0
M  V30 4929 H 489.845 -0.89095 -3.90977 0
M  V30 4930 H 486.435 -2.29498 -3.61979 0
M  V30 4931 H 490.619 -3.26899 -3.73431 0
M  V30 4932 H 485.875 -4.66542 -3.95157 0
M  V30 4933 H 490.049 -5.64451 -4.07882 0
M  V30 4934 H 487.676 -6.34733 -4.18351 0
M  V30 4935 N 489.251 1.34841 -0.815825 0
M  V30 4936 C 490.161 2.33425 -0.234462 0
M  V30 4937 C 491.177 1.62295 0.627413 0
M  V30 4938 O 492.353 1.94109 0.536987 0
M  V30 4939 C 489.418 3.41471 0.599849 0
M  V30 4940 C 488.479 4.28362 -0.283596 0
M  V30 4941 C 487.712 5.31248 0.51099 0
M  V30 4942 O 487.935 5.43056 1.7449 0
M  V30 4943 O 486.869 6.01812 -0.10297 0
M  V30 4944 H 490.695 2.84962 -1.05024 0
M  V30 4945 H 488.28 1.37774 -0.577809 0
M  V30 4946 H 490.162 4.07464 1.07475 0
M  V30 4947 H 488.837 2.9219 1.39308 0
M  V30 4948 H 487.744 3.65318 -0.805836 0
M  V30 4949 H 489.077 4.81066 -1.041 0
M  V30 4950 N 490.729 0.570148 1.46925 0
M  V30 4951 C 492.006 -0.0153259 1.95594 0
M  V30 4952 C 492.386 -1.47232 1.51281 0
M  V30 4953 O 491.734 -2.15574 0.757624 0
M  V30 4954 C 491.944 0.143624 3.48704 0
M  V30 4955 C 493.292 0.00494484 4.246 0
M  V30 4956 O 494.316 0.0718214 3.56128 0
M  V30 4957 O 493.175 -0.141175 5.46318 0
M  V30 4958 H 490.269 -0.0568819 0.825041 0
M  V30 4959 H 492.815 0.637583 1.57267 0
M  V30 4960 H 491.587 1.15699 3.73804 0
M  V30 4961 H 491.21 -0.5463 3.93829 0
M  V30 4962 N 492.207 -1.54576 0.307264 0
M  V30 4963 C 493.17 -2.22423 -0.553224 0
M  V30 4964 C 494.17 -1.21231 -1.05639 0
M  V30 4965 O 495.36 -1.45923 -0.951419 0
M  V30 4966 C 492.492 -2.91552 -1.76664 0
M  V30 4967 H 493.685 -2.99874 0.0396484 0
M  V30 4968 H 491.238 -1.56192 0.0581629 0
M  V30 4969 H 491.973 -2.18196 -2.39918 0
M  V30 4970 H 491.758 -3.65738 -1.41343 0
M  V30 4971 H 493.248 -3.43292 -2.37783 0
M  V30 4972 N 493.685 -0.035106 -1.57561 0
M  V30 4973 C 494.933 0.64096 -1.91667 0
M  V30 4974 C 495.254 1.72323 -0.912681 0
M  V30 4975 O 494.524 1.95849 0.0449089 0
M  V30 4976 H 493.104 0.239743 -0.707483 0
M  V30 4977 H 495.766 -0.084321 -1.94718 0
M  V30 4978 H 494.862 1.08987 -2.92452 0
M  V30 4979 N 495.163 1.55791 0.238111 0
M  V30 4980 C 496.073 1.94196 1.31625 0
M  V30 4981 C 497.089 0.843545 1.52185 0
M  V30 4982 O 498.265 1.1457 1.65637 0
M  V30 4983 C 495.33 2.2365 2.64918 0
M  V30 4984 C 494.391 3.46971 2.52804 0
M  V30 4985 C 493.624 3.7501 3.79741 0
M  V30 4986 O 493.847 3.04982 4.82019 0
M  V30 4987 O 492.781 4.68525 3.77846 0
M  V30 4988 H 496.607 2.86044 1.02043 0
M  V30 4989 H 494.192 1.42786 0.439603 0
M  V30 4990 H 496.074 2.43863 3.4367 0
M  V30 4991 H 494.749 1.34979 2.94215 0
M  V30 4992 H 493.656 3.32055 1.72309 0
M  V30 4993 H 494.989 4.35971 2.28451 0
M  V30 4994 N 496.642 -0.504142 1.49319 0
M  V30 4995 C 497.872 -1.28071 1.62116 0
M  V30 4996 C 498.28 -1.86955 0.290566 0
M  V30 4997 O 497.623 -1.68415 -0.733616 0
M  V30 4998 C 497.685 -2.4521 2.62893 0
M  V30 4999 C 497.349 -2.07218 4.0732 0
M  V30 5000 C 498.346 -1.61375 4.94221 0
M  V30 5001 C 496.031 -2.16949 4.53033 0
M  V30 5002 C 498.025 -1.25763 6.2487 0
M  V30 5003 C 495.712 -1.80949 5.83696 0
M  V30 5004 C 496.71 -1.3543 6.69438 0
M  V30 5005 O 496.398 -0.99915 7.97667 0
M  V30 5006 H 496.13 -0.394763 0.54876 0
M  V30 5007 H 498.684 -0.612118 1.96067 0
M  V30 5008 H 496.914 -3.15134 2.24115 0
M  V30 5009 H 498.603 -3.0724 2.65252 0
M  V30 5010 H 499.369 -1.53306 4.60133 0
M  V30 5011 H 495.248 -2.5133 3.86463 0
M  V30 5012 H 498.792 -0.901631 6.91749 0
M  V30 5013 H 494.689 -1.88667 6.17313 0
M  V30 5014 H 495.457 -1.13089 8.1065 0
M  V30 5015 N 498.12 -1.38341 -0.754957 0
M  V30 5016 C 499.348 -1.37704 -1.54419 0
M  V30 5017 C 499.763 0.0335243 -1.8877 0
M  V30 5018 O 499.12 0.999773 -1.52679 0
M  V30 5019 C 499.171 -2.23136 -2.84416 0
M  V30 5020 O 498.892 -3.58697 -2.51531 0
M  V30 5021 C 500.393 -2.30664 -3.78562 0
M  V30 5022 H 497.613 -0.471061 -0.477852 0
M  V30 5023 H 500.157 -1.81902 -0.934446 0
M  V30 5024 H 498.312 -1.82403 -3.41772 0
M  V30 5025 H 498.726 -4.03665 -3.34896 0
M  V30 5026 H 500.2 -2.9473 -4.66732 0
M  V30 5027 H 500.677 -1.3199 -4.18898 0
M  V30 5028 H 501.283 -2.71781 -3.27131 0
M  V30 5029 N 499.598 0.982988 -1.23187 0
M  V30 5030 C 500.838 1.73903 -1.07412 0
M  V30 5031 C 501.202 1.88146 0.382764 0
M  V30 5032 O 502.403 2.6053 0.661638 0
M  V30 5033 C 500.674 3.10105 -1.77678 0
M  V30 5034 S 502.233 4.01323 -1.77441 0
M  V30 5035 H 499.051 0.598093 -0.384456 0
M  V30 5036 H 501.653 1.17456 -1.56283 0
M  V30 5037 H 500.357 2.97388 -2.82822 0
M  V30 5038 H 499.888 3.71622 -1.29077 0
M  V30 5039 H 501.903 4.89189 -0.831162 0
M  V30 5040 N 501.076 1.04316 1.18135 0
M  V30 5041 C 502.006 0.657299 2.24058 0
M  V30 5042 C 502.987 -0.340678 1.66654 0
M  V30 5043 O 504.172 -0.220223 1.92947 0
M  V30 5044 C 501.302 0.0220715 3.47293 0
M  V30 5045 C 500.256 0.943857 4.17463 0
M  V30 5046 C 499.582 0.172973 5.3442 0
M  V30 5047 C 500.882 2.26409 4.70677 0
M  V30 5048 H 502.576 1.5428 2.56589 0
M  V30 5049 H 500.122 0.743263 1.23335 0
M  V30 5050 H 502.075 -0.259607 4.206 0
M  V30 5051 H 500.799 -0.898323 3.14003 0
M  V30 5052 H 499.458 1.20996 3.46057 0
M  V30 5053 H 499.106 -0.749907 4.97379 0
M  V30 5054 H 498.806 0.787098 5.82304 0
M  V30 5055 H 500.33 -0.101628 6.10515 0
M  V30 5056 H 501.744 2.04294 5.35665 0
M  V30 5057 H 500.141 2.8314 5.29105 0
M  V30 5058 H 501.211 2.90883 3.87962 0
M  V30 5059 N 502.554 -1.34406 0.822964 0
M  V30 5060 C 503.517 -2.2783 0.250271 0
M  V30 5061 C 504.517 -1.50288 -0.571854 0
M  V30 5062 O 505.707 -1.69825 -0.387952 0
M  V30 5063 C 502.839 -3.34663 -0.649137 0
M  V30 5064 H 504.032 -2.79992 1.07444 0
M  V30 5065 H 501.585 -1.44539 0.594829 0
M  V30 5066 H 502.32 -2.87714 -1.49637 0
M  V30 5067 H 502.105 -3.92052 -0.0611199 0
M  V30 5068 H 503.595 -4.04349 -1.04363 0
M  V30 5069 N 504.032 -0.577932 -1.46621 0
M  V30 5070 C 505.28 -0.061566 -2.02006 0
M  V30 5071 C 505.601 1.30117 -1.4524 0
M  V30 5072 O 504.871 1.85313 -0.63529 0
M  V30 5073 H 503.451 -0.0197692 -0.746738 0
M  V30 5074 H 506.113 -0.752631 -1.79782 0
M  V30 5075 H 505.209 0.0110238 -3.12098 0
M  V30 5076 N 505.51 1.54411 -0.315457 0
M  V30 5077 C 506.458 2.25514 0.569771 0
M  V30 5078 C 507.452 1.2663 1.12522 0
M  V30 5079 O 508.658 1.44434 1.07419 0
M  V30 5080 H 505.033 0.724257 0.202376 0
M  V30 5081 H 507.004 2.98354 -0.0522895 0
M  V30 5082 C 505.753 3.02004 1.72305 0
M  V30 5083 H 505.076 3.77906 1.30488 0
M  V30 5084 H 506.516 3.55014 2.31821 0
M  V30 5085 C 504.975 2.09822 2.63583 0
M  V30 5086 O 505.505 1.67574 3.65078 0
M  V30 5087 N 503.711 1.75478 2.31637 0
M  V30 5088 H 503.258 2.10032 1.49145 0
M  V30 5089 H 503.216 1.14079 2.92973 0
M  V30 5090 N 506.988 0.0434614 1.5754 0
M  V30 5091 C 508.213 -0.645358 1.97104 0
M  V30 5092 C 508.638 -1.64037 0.920521 0
M  V30 5093 O 507.996 -1.80922 -0.11708 0
M  V30 5094 C 508.044 -1.31547 3.35749 0
M  V30 5095 O 507.148 -2.43103 3.33129 0
M  V30 5096 H 506.489 -0.168403 0.64229 0
M  V30 5097 H 509.019 0.109573 2.04306 0
M  V30 5098 H 509.029 -1.66895 3.72304 0
M  V30 5099 H 507.704 -0.586205 4.11748 0
M  V30 5100 H 506.281 -2.0976 3.0831 0
M  V30 5101 N 508.466 -1.55915 -0.229846 0
M  V30 5102 C 509.715 -1.77742 -0.953455 0
M  V30 5103 C 510.028 -0.610524 -1.85828 0
M  V30 5104 O 511.234 -0.712219 -2.61992 0
M  V30 5105 C 509.69 -3.14738 -1.74551 0
M  V30 5106 C 509.298 -4.39126 -0.887242 0
M  V30 5107 C 511.042 -3.45895 -2.46084 0
M  V30 5108 C 508.949 -5.67149 -1.67617 0
M  V30 5109 H 507.879 -0.662648 -0.359741 0
M  V30 5110 H 510.53 -1.82322 -0.207576 0
M  V30 5111 H 508.912 -3.04311 -2.53399 0
M  V30 5112 H 510.086 -4.60588 -0.139892 0
M  V30 5113 H 508.401 -4.15427 -0.284443 0
M  V30 5114 H 510.998 -4.38767 -3.05594 0
M  V30 5115 H 511.341 -2.68007 -3.18556 0
M  V30 5116 H 511.874 -3.57614 -1.74233 0
M  V30 5117 H 508.613 -6.47906 -0.994881 0
M  V30 5118 H 508.133 -5.49763 -2.39836 0
M  V30 5119 H 509.812 -6.07025 -2.23898 0
M  V30 5120 N 509.944 0.496216 -1.49584 0
M  V30 5121 C 511.192 1.24756 -1.58998 0
M  V30 5122 C 511.513 1.92968 -0.280775 0
M  V30 5123 O 510.783 1.82959 0.700198 0
M  V30 5124 H 509.363 0.463471 -0.585836 0
M  V30 5125 H 512.025 0.574678 -1.86235 0
M  V30 5126 H 511.121 2.00895 -2.38847 0
M  V30 5127 N 511.423 1.38739 0.74761 0
M  V30 5128 C 512.67 1.35274 1.50689 0
M  V30 5129 C 512.998 -0.0553359 1.94421 0
M  V30 5130 O 512.253 -1.03365 1.66175 0
M  V30 5131 C 512.552 2.25992 2.7688 0
M  V30 5132 C 512.218 3.73854 2.5208 0
M  V30 5133 C 510.88 4.14145 2.45025 0
M  V30 5134 C 513.232 4.67427 2.30568 0
M  V30 5135 C 510.56 5.4609 2.14483 0
M  V30 5136 C 512.912 5.99635 2.01545 0
M  V30 5137 C 511.576 6.39004 1.92951 0
M  V30 5138 H 510.846 0.495003 0.55141 0
M  V30 5139 H 513.493 1.71145 0.859158 0
M  V30 5140 H 511.798 1.83196 3.46333 0
M  V30 5141 H 513.495 2.20611 3.34861 0
M  V30 5142 H 510.085 3.41913 2.58444 0
M  V30 5143 H 514.269 4.3714 2.34994 0
M  V30 5144 H 509.525 5.75528 2.06342 0
M  V30 5145 H 513.699 6.71678 1.83906 0
M  V30 5146 H 511.326 7.41165 1.6905 0
M  V30 5147 N 512.901 -0.976442 1.23707 0
M  V30 5148 C 514.126 -1.75875 1.09922 0
M  V30 5149 C 514.551 -1.84911 -0.34489 0
M  V30 5150 O 513.909 -1.31363 -1.24954 0
M  V30 5151 C 513.957 -3.16179 1.73388 0
M  V30 5152 O 513.061 -4.00124 0.99871 0
M  V30 5153 H 512.402 -0.540954 0.385052 0
M  V30 5154 H 514.932 -1.22546 1.6384 0
M  V30 5155 H 514.942 -3.66741 1.78788 0
M  V30 5156 H 513.617 -3.08917 2.78466 0
M  V30 5157 H 512.194 -3.58624 1.02193 0
M  V30 5158 N 514.379 -1.04941 -1.1758 0
M  V30 5159 C 515.329 -0.618378 -2.19454 0
M  V30 5160 C 516.313 0.343813 -1.57184 0
M  V30 5161 O 517.505 0.16145 -1.76262 0
M  V30 5162 C 514.634 0.00803847 -3.43299 0
M  V30 5163 C 513.72 -0.977827 -4.12673 0
M  V30 5164 N 514.111 -2.14826 -4.57912 0
M  V30 5165 C 512.409 -0.805748 -4.38661 0
M  V30 5166 C 513.11 -2.77174 -5.11419 0
M  V30 5167 N 512.086 -2.04989 -5.03468 0
M  V30 5168 H 515.888 -1.51018 -2.52132 0
M  V30 5169 H 513.402 -0.919201 -1.33882 0
M  V30 5170 H 515.399 0.334584 -4.15555 0
M  V30 5171 H 514.059 0.895272 -3.12114 0
M  V30 5172 H 515.07 -2.52673 -4.52081 0
M  V30 5173 H 511.747 0.0306506 -4.17489 0
M  V30 5174 H 513.137 -3.76416 -5.56562 0
M  V30 5175 N 515.857 1.33968 -0.830081 0
M  V30 5176 C 516.807 2.26845 -0.229242 0
M  V30 5177 C 517.791 1.48862 0.610659 0
M  V30 5178 O 518.983 1.70808 0.464067 0
M  V30 5179 C 516.112 3.3798 0.602057 0
M  V30 5180 C 515.198 4.23369 -0.248866 0
M  V30 5181 N 515.589 4.88182 -1.32334 0
M  V30 5182 C 513.887 4.45987 -0.0344077 0
M  V30 5183 C 514.588 5.51671 -1.84482 0
M  V30 5184 N 513.564 5.31348 -1.14762 0
M  V30 5185 H 517.366 2.74464 -1.05104 0
M  V30 5186 H 514.88 1.4777 -0.673623 0
M  V30 5187 H 516.877 4.03494 1.04873 0
M  V30 5188 H 515.537 2.9191 1.42193 0
M  V30 5189 H 516.548 4.88988 -1.70619 0
M  V30 5190 H 513.225 4.10658 0.752727 0
M  V30 5191 H 514.615 6.13308 -2.74413 0
M  V30 5192 N 517.335 0.585699 1.46312 0
M  V30 5193 C 518.56 0.0762461 2.0726 0
M  V30 5194 C 518.985 -1.22071 1.43109 0
M  V30 5195 O 518.343 -1.73804 0.515942 0
M  V30 5196 C 518.391 -0.0729404 3.60526 0
M  V30 5197 O 517.495 -1.1287 3.96654 0
M  V30 5198 H 516.836 0.0641558 0.660893 0
M  V30 5199 H 519.366 0.809492 1.87905 0
M  V30 5200 H 519.376 -0.278158 4.07051 0
M  V30 5201 H 518.051 0.874188 4.06609 0
M  V30 5202 H 516.628 -0.901703 3.61834 0
M  V30 5203 N 518.813 -1.54241 0.323641 0
M  V30 5204 C 519.776 -2.22997 -0.529602 0
M  V30 5205 C 520.776 -1.22345 -1.04347 0
M  V30 5206 O 521.966 -1.46924 -0.935889 0
M  V30 5207 C 519.098 -2.93409 -1.73562 0
M  V30 5208 H 520.291 -2.99815 0.0714518 0
M  V30 5209 H 517.844 -1.56121 0.0747258 0
M  V30 5210 H 518.579 -2.20729 -2.37591 0
M  V30 5211 H 518.364 -3.67217 -1.37456 0
M  V30 5212 H 519.854 -3.45794 -2.34128 0
M  V30 5213 N 520.291 -0.0518155 -1.57515 0
M  V30 5214 C 521.537 0.616839 -1.93821 0
M  V30 5215 C 521.892 1.68413 -0.930307 0
M  V30 5216 O 521.185 1.91534 0.0504231 0
M  V30 5217 C 521.379 1.25607 -3.34601 0
M  V30 5218 C 521.208 0.252222 -4.48992 0
M  V30 5219 C 519.978 -0.156031 -5.05059 0
M  V30 5220 C 522.176 -0.502613 -5.11838 0
M  V30 5221 N 520.158 -1.15267 -6.02981 0
M  V30 5222 C 521.529 -1.35232 -6.05072 0
M  V30 5223 C 523.584 -0.560855 -4.94731 0
M  V30 5224 C 522.287 -2.25505 -6.83037 0
M  V30 5225 C 524.313 -1.45102 -5.73323 0
M  V30 5226 C 523.675 -2.28845 -6.6619 0
M  V30 5227 H 519.774 0.197344 -0.75669 0
M  V30 5228 H 522.358 -0.124297 -1.94303 0
M  V30 5229 H 520.529 1.96723 -3.34895 0
M  V30 5230 H 522.261 1.88358 -3.58195 0
M  V30 5231 H 519.016 0.22306 -4.73074 0
M  V30 5232 H 519.44 -1.64791 -6.56638 0
M  V30 5233 H 524.082 0.0723639 -4.22738 0
M  V30 5234 H 521.8 -2.89872 -7.54321 0
M  V30 5235 H 525.386 -1.50066 -5.62113 0
M  V30 5236 H 524.266 -2.96608 -7.25943 0
M  V30 5237 N 521.769 1.56035 0.221574 0
M  V30 5238 C 522.699 1.95434 1.2778 0
M  V30 5239 C 523.68 0.822564 1.48889 0
M  V30 5240 O 524.865 1.08486 1.61072 0
M  V30 5241 C 521.995 2.27102 2.62759 0
M  V30 5242 C 520.949 3.4277 2.56306 0
M  V30 5243 C 520.275 3.60043 3.95314 0
M  V30 5244 C 521.575 4.77742 2.11093 0
M  V30 5245 H 523.269 2.83912 0.950504 0
M  V30 5246 H 520.815 1.36596 0.455791 0
M  V30 5247 H 522.768 2.53256 3.36807 0
M  V30 5248 H 521.492 1.35478 2.97176 0
M  V30 5249 H 520.151 3.16664 1.84715 0
M  V30 5250 H 519.799 2.65794 4.27039 0
M  V30 5251 H 519.499 4.37841 3.91879 0
M  V30 5252 H 521.023 3.88545 4.71025 0
M  V30 5253 H 522.437 5.03102 2.74885 0
M  V30 5254 H 520.834 5.58823 2.18716 0
M  V30 5255 H 521.904 4.731 1.06321 0
M  V30 5256 N 523.247 -0.488276 1.49845 0
M  V30 5257 C 524.493 -1.24341 1.6021 0
M  V30 5258 C 524.826 -1.91967 0.293651 0
M  V30 5259 O 524.101 -1.81323 -0.703718 0
M  V30 5260 C 524.384 -2.3005 2.77036 0
M  V30 5261 C 524.237 -1.66842 4.17713 0
M  V30 5262 C 525.556 -3.31509 2.89464 0
M  V30 5263 H 522.675 -0.450704 0.583125 0
M  V30 5264 H 525.317 -0.539673 1.82174 0
M  V30 5265 H 523.467 -2.90071 2.58439 0
M  V30 5266 H 525.139 -1.1055 4.47858 0
M  V30 5267 H 523.382 -0.972079 4.22768 0
M  V30 5268 H 524.053 -2.43576 4.95353 0
M  V30 5269 H 526.529 -2.81493 3.06433 0
M  V30 5270 H 525.405 -4.02822 3.72861 0
M  V30 5271 H 525.666 -3.94603 1.99351 0
M  V30 5272 N 524.725 -1.39134 -0.740242 0
M  V30 5273 C 525.971 -1.36273 -1.50192 0
M  V30 5274 C 526.304 0.0430136 -1.94152 0
M  V30 5275 O 525.579 1.00691 -1.66408 0
M  V30 5276 C 525.862 -2.33041 -2.74525 0
M  V30 5277 C 525.715 -3.82535 -2.36617 0
M  V30 5278 C 527.034 -2.27723 -3.76604 0
M  V30 5279 H 524.153 -0.496323 -0.544823 0
M  V30 5280 H 526.795 -1.70085 -0.846815 0
M  V30 5281 H 524.945 -2.04337 -3.30422 0
M  V30 5282 H 526.617 -4.21967 -1.86391 0
M  V30 5283 H 524.86 -3.99565 -1.68909 0
M  V30 5284 H 525.531 -4.45723 -3.2563 0
M  V30 5285 H 528.007 -2.53091 -3.30279 0
M  V30 5286 H 526.883 -2.97519 -4.61274 0
M  V30 5287 H 527.144 -1.28049 -4.2315 0
M  V30 5288 N 526.204 0.969867 -1.24223 0
M  V30 5289 C 527.134 2.08191 -1.05729 0
M  V30 5290 C 528.115 1.70075 0.0290765 0
M  V30 5291 O 529.3 1.93712 -0.137583 0
M  V30 5292 C 526.43 3.40991 -0.658995 0
M  V30 5293 C 525.384 3.93054 -1.69389 0
M  V30 5294 C 524.71 5.22171 -1.15072 0
M  V30 5295 C 526.01 4.21137 -3.08935 0
M  V30 5296 H 527.704 2.23921 -1.98746 0
M  V30 5297 H 525.25 1.07602 -0.956967 0
M  V30 5298 H 527.203 4.18221 -0.51662 0
M  V30 5299 H 525.927 3.25155 0.30686 0
M  V30 5300 H 524.586 3.17977 -1.82444 0
M  V30 5301 H 524.234 5.02694 -0.175539 0
M  V30 5302 H 523.934 5.57973 -1.84229 0
M  V30 5303 H 525.458 6.02013 -1.02042 0
M  V30 5304 H 526.872 4.8908 -2.99121 0
M  V30 5305 H 525.269 4.68163 -3.75425 0
M  V30 5306 H 526.339 3.27996 -3.57137 0
M  V30 5307 N 527.682 1.05563 1.17022 0
M  V30 5308 C 529.093 0.793475 1.69 0
M  V30 5309 C 529.444 -0.683882 1.83895 0
M  V30 5310 O 528.569 -1.53116 1.5292 0
M  V30 5311 C 529.164 1.43376 3.06967 0
M  V30 5312 C 527.723 1.21956 3.56095 0
M  V30 5313 C 526.87 1.51494 2.3226 0
M  V30 5314 H 529.821 1.22008 1.01487 0
M  V30 5315 H 529.842 0.845068 3.70997 0
M  V30 5316 H 529.354 2.50899 2.96093 0
M  V30 5317 H 527.455 0.163749 3.7224 0
M  V30 5318 H 527.568 1.92713 4.38633 0
M  V30 5319 H 525.932 0.935175 2.3691 0
M  V30 5320 H 526.715 2.60159 2.23992 0
M  V30 5321 N 529.16 -1.33526 0.837174 0
M  V30 5322 C 530.123 -2.27551 0.274421 0
M  V30 5323 C 531.123 -1.50886 -0.555881 0
M  V30 5324 O 532.313 -1.70227 -0.369918 0
M  V30 5325 C 529.445 -3.35332 -0.613605 0
M  V30 5326 H 530.638 -2.78837 1.10408 0
M  V30 5327 H 528.191 -1.439 0.610126 0
M  V30 5328 H 528.926 -2.89285 -1.46577 0
M  V30 5329 H 528.711 -3.92095 -0.0195341 0
M  V30 5330 H 530.201 -4.05433 -1.00068 0
M  V30 5331 N 530.638 -0.59345 -1.46 0
M  V30 5332 C 531.548 0.135817 -2.34207 0
M  V30 5333 C 532.564 0.875008 -1.50398 0
M  V30 5334 O 533.74 0.835778 -1.83239 0
M  V30 5335 C 530.805 1.12977 -3.27776 0
M  V30 5336 C 529.866 0.394081 -4.27487 0
M  V30 5337 C 529.099 1.34068 -5.16586 0
M  V30 5338 O 529.322 2.5778 -5.08828 0
M  V30 5339 O 528.256 0.845426 -5.95933 0
M  V30 5340 H 532.082 -0.588691 -2.9794 0
M  V30 5341 H 529.667 -0.353784 -1.45151 0
M  V30 5342 H 531.549 1.70261 -3.85473 0
M  V30 5343 H 530.224 1.83556 -2.66625 0
M  V30 5344 H 529.131 -0.220869 -3.73447 0
M  V30 5345 H 530.464 -0.270939 -4.91454 0
M  V30 5346 N 532.116 1.54067 -0.331816 0
M  V30 5347 C 533.026 2.28322 0.539104 0
M  V30 5348 C 534.042 1.32985 1.1221 0
M  V30 5349 O 535.218 1.6601 1.1403 0
M  V30 5350 C 532.283 3.03277 1.68 0
M  V30 5351 C 531.344 4.14216 1.12798 0
M  V30 5352 C 530.577 4.85588 2.2145 0
M  V30 5353 O 530.8 4.56536 3.41952 0
M  V30 5354 O 529.734 5.72309 1.86404 0
M  V30 5355 H 533.56 3.03632 -0.0641692 0
M  V30 5356 H 531.145 1.49083 -0.0972365 0
M  V30 5357 H 533.027 3.50189 2.34405 0
M  V30 5358 H 531.702 2.30834 2.2693 0
M  V30 5359 H 530.609 3.71635 0.428782 0
M  V30 5360 H 531.942 4.88727 0.583698 0
M  V30 5361 N 533.594 0.0601682 1.57485 0
M  V30 5362 C 534.504 -0.926121 2.15546 0
M  V30 5363 C 535.52 -1.33532 1.11558 0
M  V30 5364 O 536.696 -1.4104 1.4377 0
M  V30 5365 C 533.761 -2.17952 2.69625 0
M  V30 5366 C 532.822 -1.82783 3.88444 0
M  V30 5367 C 532.055 -3.02148 4.39935 0
M  V30 5368 O 532.278 -4.15803 3.90466 0
M  V30 5369 O 531.212 -2.82639 5.31412 0
M  V30 5370 H 535.038 -0.462289 3.00161 0
M  V30 5371 H 532.623 -0.162246 1.48516 0
M  V30 5372 H 534.505 -2.91474 3.04337 0
M  V30 5373 H 533.18 -2.63456 1.88077 0
M  V30 5374 H 532.087 -1.06549 3.58606 0
M  V30 5375 H 533.42 -1.42072 4.7125 0
M  V30 5376 N 535.072 -1.5615 -0.213296 0
M  V30 5377 C 536.002 -1.96109 -1.26742 0
M  V30 5378 C 536.983 -0.830448 -1.48451 0
M  V30 5379 O 538.168 -1.09339 -1.60495 0
M  V30 5380 C 535.298 -2.28492 -2.61551 0
M  V30 5381 C 534.252 -3.44124 -2.54485 0
M  V30 5382 C 533.578 -3.62134 -3.93399 0
M  V30 5383 C 534.878 -4.78855 -2.08556 0
M  V30 5384 H 536.572 -2.84412 -0.935434 0
M  V30 5385 H 534.118 -1.36836 -0.44854 0
M  V30 5386 H 536.071 -2.55039 -3.3546 0
M  V30 5387 H 534.795 -1.37052 -2.96453 0
M  V30 5388 H 533.454 -3.17639 -1.83033 0
M  V30 5389 H 533.102 -2.68055 -4.25623 0
M  V30 5390 H 532.802 -4.39913 -3.89551 0
M  V30 5391 H 534.326 -3.91038 -4.68958 0
M  V30 5392 H 535.74 -5.04552 -2.72213 0
M  V30 5393 H 534.137 -5.59975 -2.1575 0
M  V30 5394 H 535.207 -4.73657 -1.03811 0
M  V30 5395 N 536.55 0.480323 -1.50102 0
M  V30 5396 C 537.796 1.23489 -1.60867 0
M  V30 5397 C 538.129 1.91809 -0.303827 0
M  V30 5398 O 537.404 1.81694 0.694092 0
M  V30 5399 C 537.687 2.28578 -2.78252 0
M  V30 5400 C 537.54 1.64624 -4.18592 0
M  V30 5401 C 538.859 3.2997 -2.91218 0
M  V30 5402 H 535.978 0.447605 -0.585507 0
M  V30 5403 H 538.62 0.530005 -1.82458 0
M  V30 5404 H 536.77 2.88697 -2.59974 0
M  V30 5405 H 538.442 1.08173 -4.48438 0
M  V30 5406 H 536.685 0.949645 -4.23278 0
M  V30 5407 H 537.356 2.40946 -4.96638 0
M  V30 5408 H 539.832 2.79864 -3.07921 0
M  V30 5409 H 538.708 4.00839 -3.74993 0
M  V30 5410 H 538.969 3.93541 -2.0144 0
M  V30 5411 N 538.028 1.39524 0.732853 0
M  V30 5412 C 538.938 1.40695 1.87729 0
M  V30 5413 C 539.954 0.301496 1.71368 0
M  V30 5414 O 541.13 0.543313 1.93933 0
M  V30 5415 C 538.195 1.25098 3.23344 0
M  V30 5416 C 537.256 2.45634 3.52083 0
M  V30 5417 C 536.489 2.30772 4.81228 0
M  V30 5418 O 536.712 1.31233 5.55098 0
M  V30 5419 O 535.646 3.19799 5.09914 0
M  V30 5420 H 539.472 2.37168 1.89697 0
M  V30 5421 H 537.057 1.20663 0.880959 0
M  V30 5422 H 538.939 1.18541 4.04383 0
M  V30 5423 H 537.614 0.317209 3.22142 0
M  V30 5424 H 536.521 2.57767 2.71122 0
M  V30 5425 H 537.854 3.37712 3.58066 0
M  V30 5426 N 539.506 -0.963266 1.24736 0
M  V30 5427 C 540.469 -2.04013 1.04457 0
M  V30 5428 C 541.469 -1.608 0.000335555 0
M  V30 5429 O 542.659 -1.72515 0.241719 0
M  V30 5430 C 539.791 -3.35858 0.584162 0
M  V30 5431 H 540.984 -2.23436 2.00041 0
M  V30 5432 H 538.537 -1.13914 1.07021 0
M  V30 5433 H 539.272 -3.22128 -0.374673 0
M  V30 5434 H 539.057 -3.68568 1.3379 0
M  V30 5435 H 540.547 -4.1502 0.463451 0
M  V30 5436 N 540.985 -1.06182 -1.16461 0
M  V30 5437 C 542.262 -0.691364 -1.82974 0
M  V30 5438 C 542.642 0.827377 -1.9421 0
M  V30 5439 O 541.99 1.73723 -1.48434 0
M  V30 5440 C 542.2 -1.39199 -3.20038 0
M  V30 5441 C 543.548 -1.53647 -3.95825 0
M  V30 5442 O 544.572 -1.35181 -3.29552 0
M  V30 5443 O 543.431 -1.83932 -5.14618 0
M  V30 5444 H 540.525 -0.244605 -0.789998 0
M  V30 5445 H 543.071 -1.16203 -1.23673 0
M  V30 5446 H 541.843 -2.42766 -3.06888 0
M  V30 5447 H 541.466 -0.911335 -3.87015 0
M  V30 5448 N 542.463 1.3308 -0.844243 0
M  V30 5449 C 543.373 2.32876 -0.283922 0
M  V30 5450 C 544.389 1.63589 0.592846 0
M  V30 5451 O 545.565 1.95205 0.495693 0
M  V30 5452 C 542.63 3.42667 0.527283 0
M  V30 5453 C 541.691 4.27664 -0.374394 0
M  V30 5454 C 540.924 5.32212 0.39819 0
M  V30 5455 O 541.147 5.46635 1.62932 0
M  V30 5456 O 540.081 6.01458 -0.2306 0
M  V30 5457 H 543.907 2.82671 -1.11045 0
M  V30 5458 H 541.492 1.36518 -0.606903 0
M  V30 5459 H 543.374 4.09652 0.988078 0
M  V30 5460 H 542.049 2.95079 1.33078 0
M  V30 5461 H 540.956 3.63526 -0.883144 0
M  V30 5462 H 542.289 4.78749 -1.1428 0
M  V30 5463 N 543.941 0.601185 1.45683 0
M  V30 5464 C 544.904 -0.111398 2.28929 0
M  V30 5465 C 545.904 -0.801246 1.39416 0
M  V30 5466 O 547.094 -0.650383 1.61603 0
M  V30 5467 C 544.226 -1.16773 3.20276 0
M  V30 5468 H 545.419 0.620412 2.93413 0
M  V30 5469 H 542.972 0.359946 1.52099 0
M  V30 5470 H 543.707 -1.93051 2.60579 0
M  V30 5471 H 543.492 -0.677358 3.86205 0
M  V30 5472 H 544.982 -1.66698 3.82886 0
M  V30 5473 N 545.419 -1.53889 0.339982 0
M  V30 5474 C 546.667 -2.00458 -0.257112 0
M  V30 5475 C 546.988 -1.22953 -1.51353 0
M  V30 5476 O 546.258 -0.335734 -1.93002 0
M  V30 5477 H 544.838 -0.740544 -0.0979965 0
M  V30 5478 H 547.5 -1.89386 0.460317 0
M  V30 5479 H 546.596 -3.08035 -0.502057 0
M  V30 5480 N 546.897 -0.0685191 -1.57451 0
M  V30 5481 C 548.122 0.613919 -1.98106 0
M  V30 5482 C 548.547 1.62551 -0.946501 0
M  V30 5483 O 547.905 1.81085 0.0882824 0
M  V30 5484 C 547.953 1.26189 -3.378 0
M  V30 5485 O 547.057 2.37773 -3.36954 0
M  V30 5486 H 546.398 0.158163 -0.644888 0
M  V30 5487 H 548.928 -0.142063 -2.04106 0
M  V30 5488 H 548.938 1.60951 -3.74912 0
M  V30 5489 H 547.613 0.520625 -4.12629 0
M  V30 5490 H 546.19 2.04829 -3.11608 0
M  V30 5491 N 548.375 1.56261 0.205012 0
M  V30 5492 C 549.621 1.80306 0.9283 0
M  V30 5493 C 549.954 0.640932 1.83319 0
M  V30 5494 O 549.229 -0.359032 1.91158 0
M  V30 5495 C 549.512 3.14547 1.75306 0
M  V30 5496 C 549.365 4.41236 0.873562 0
M  V30 5497 C 550.684 3.45382 2.72762 0
M  V30 5498 H 547.803 0.655929 0.336044 0
M  V30 5499 H 550.445 1.88984 0.196211 0
M  V30 5500 H 548.595 3.0728 2.37721 0
M  V30 5501 H 550.267 4.60539 0.264887 0
M  V30 5502 H 548.51 4.33427 0.179773 0
M  V30 5503 H 549.181 5.31639 1.48541 0
M  V30 5504 H 551.657 3.52884 2.20481 0
M  V30 5505 H 550.533 4.40449 3.2756 0
M  V30 5506 H 550.794 2.68377 3.51321 0
M  V30 5507 N 549.853 -0.472356 1.50355 0
M  V30 5508 C 551.083 -1.24603 1.64796 0
M  V30 5509 C 551.491 -1.86297 0.330156 0
M  V30 5510 O 550.834 -1.69934 -0.697728 0
M  V30 5511 C 550.896 -2.39578 2.68035 0
M  V30 5512 C 550.56 -1.98531 4.11624 0
M  V30 5513 C 551.557 -1.50856 4.97532 0
M  V30 5514 C 549.242 -2.0729 4.57532 0
M  V30 5515 C 551.236 -1.12481 6.27397 0
M  V30 5516 C 548.923 -1.68527 5.87403 0
M  V30 5517 C 549.921 -1.212 6.7216 0
M  V30 5518 O 549.609 -0.829728 7.99607 0
M  V30 5519 H 549.341 -0.383035 0.55701 0
M  V30 5520 H 551.895 -0.570392 1.97321 0
M  V30 5521 H 550.125 -3.10309 2.30749 0
M  V30 5522 H 551.814 -3.01544 2.71709 0
M  V30 5523 H 552.58 -1.43511 4.63281 0
M  V30 5524 H 548.459 -2.43076 3.91708 0
M  V30 5525 H 552.003 -0.754698 6.93506 0
M  V30 5526 H 547.9 -1.7553 6.21176 0
M  V30 5527 H 548.668 -0.958689 8.12866 0
M  V30 5528 N 551.331 -1.39911 -0.725443 0
M  V30 5529 C 552.294 -1.39156 -1.82121 0
M  V30 5530 C 553.294 -0.287018 -1.58218 0
M  V30 5531 O 554.484 -0.545421 -1.65441 0
M  V30 5532 C 551.616 -1.1736 -3.20062 0
M  V30 5533 H 552.809 -2.36672 -1.84191 0
M  V30 5534 H 550.362 -1.25615 -0.930079 0
M  V30 5535 H 551.097 -0.205648 -3.23647 0
M  V30 5536 H 550.882 -1.97358 -3.3881 0
M  V30 5537 H 552.372 -1.19596 -4.00108 0
M  V30 5538 N 552.809 0.956637 -1.25245 0
M  V30 5539 C 554.057 1.69764 -1.09657 0
M  V30 5540 C 554.378 1.91583 0.363464 0
M  V30 5541 O 553.648 1.50149 1.25825 0
M  V30 5542 H 552.228 0.629097 -0.402798 0
M  V30 5543 H 554.89 1.15026 -1.57337 0
M  V30 5544 H 553.986 2.67769 -1.60331 0
M  V30 5545 N 554.287 1.06798 1.15896 0
M  V30 5546 C 555.536 0.782796 1.8589 0
M  V30 5547 C 555.849 -0.693498 1.82893 0
M  V30 5548 O 557.055 -1.09325 2.48516 0
M  V30 5549 C 555.511 1.3502 3.33613 0
M  V30 5550 C 555.119 2.8571 3.45071 0
M  V30 5551 C 556.863 1.14278 4.08829 0
M  V30 5552 C 554.77 3.35669 4.86909 0
M  V30 5553 H 553.7 0.289149 0.696354 0
M  V30 5554 H 556.351 1.28734 1.30766 0
M  V30 5555 H 554.733 0.773407 3.88374 0
M  V30 5556 H 555.907 3.49385 3.00445 0
M  V30 5557 H 554.222 3.05178 2.83294 0
M  V30 5558 H 556.819 1.49087 5.13495 0
M  V30 5559 H 557.162 0.0814575 4.1622 0
M  V30 5560 H 557.695 1.68563 3.60321 0
M  V30 5561 H 554.434 4.41302 4.84698 0
M  V30 5562 H 553.954 2.76745 5.32139 0
M  V30 5563 H 555.633 3.31296 5.55745 0
M  V30 5564 N 555.766 -1.3263 0.851289 0
M  V30 5565 C 556.696 -2.31449 0.308771 0
M  V30 5566 C 557.677 -1.59531 -0.590255 0
M  V30 5567 O 558.862 -1.87351 -0.511205 0
M  V30 5568 C 555.992 -3.43586 -0.506548 0
M  V30 5569 C 554.946 -4.26963 0.297753 0
M  V30 5570 C 554.272 -5.30831 -0.642094 0
M  V30 5571 C 555.572 -4.99643 1.52166 0
M  V30 5572 H 557.266 -2.77074 1.13447 0
M  V30 5573 H 554.812 -1.33207 0.546971 0
M  V30 5574 H 556.765 -4.11754 -0.896474 0
M  V30 5575 H 555.489 -2.96681 -1.36558 0
M  V30 5576 H 554.148 -3.60437 0.669391 0
M  V30 5577 H 553.796 -4.8018 -1.49788 0
M  V30 5578 H 553.496 -5.87501 -0.107968 0
M  V30 5579 H 555.02 -6.01862 -1.02927 0
M  V30 5580 H 556.434 -5.6051 1.20421 0
M  V30 5581 H 554.831 -5.66022 1.99347 0
M  V30 5582 H 555.901 -4.27701 2.28474 0
M  V30 5583 N 557.244 -0.608902 -1.45362 0
M  V30 5584 C 558.469 -0.10921 -2.07112 0
M  V30 5585 C 558.894 1.19779 -1.45033 0
M  V30 5586 O 558.252 1.72961 -0.543527 0
M  V30 5587 C 558.3 0.0155745 -3.60597 0
M  V30 5588 O 557.404 1.06546 -3.98399 0
M  V30 5589 H 556.745 -0.0746619 -0.659789 0
M  V30 5590 H 559.275 -0.839283 -1.86594 0
M  V30 5591 H 559.285 0.213364 -4.07442 0
M  V30 5592 H 557.96 -0.938765 -4.05167 0
M  V30 5593 H 556.537 0.844024 -3.63223 0
M  V30 5594 N 558.722 1.53707 -0.348139 0
M  V30 5595 C 559.952 2.05108 0.247864 0
M  V30 5596 C 560.36 1.22252 1.44399 0
M  V30 5597 O 559.703 0.251853 1.81965 0
M  V30 5598 C 559.765 3.52171 0.722187 0
M  V30 5599 C 559.429 4.5562 -0.354902 0
M  V30 5600 C 560.426 5.05883 -1.19911 0
M  V30 5601 C 558.111 4.99703 -0.510145 0
M  V30 5602 C 560.105 5.98814 -2.18406 0
M  V30 5603 C 557.792 5.92443 -1.49848 0
M  V30 5604 C 558.79 6.41887 -2.33389 0
M  V30 5605 O 558.478 7.32802 -3.3054 0
M  V30 5606 H 558.21 0.674086 0.0508296 0
M  V30 5607 H 560.764 1.99229 -0.49968 0
M  V30 5608 H 558.994 3.55529 1.52105 0
M  V30 5609 H 560.683 3.8652 1.23925 0
M  V30 5610 H 561.449 4.72586 -1.09028 0
M  V30 5611 H 557.328 4.60816 0.130274 0
M  V30 5612 H 560.872 6.3733 -2.83649 0
M  V30 5613 H 556.769 6.25155 -1.60786 0
M  V30 5614 H 557.537 7.50749 -3.26064 0
M  V30 5615 N 560.2 0.0768682 1.57412 0
M  V30 5616 C 561.448 -0.589918 1.93299 0
M  V30 5617 C 561.769 -1.69842 0.958049 0
M  V30 5618 O 561.039 -1.95899 0.00703261 0
M  V30 5619 H 559.619 -0.220901 0.713591 0
M  V30 5620 H 562.281 0.135917 1.94425 0
M  V30 5621 H 561.377 -1.01195 2.95239 0
M  V30 5622 N 561.678 -1.56367 -0.196722 0
M  V30 5623 C 562.924 -1.80796 -0.918725 0
M  V30 5624 C 563.257 -0.650645 -1.82976 0
M  V30 5625 O 562.532 0.348889 -1.91345 0
M  V30 5626 C 562.815 -3.15472 -1.73636 0
M  V30 5627 C 562.668 -4.41693 -0.85015 0
M  V30 5628 C 563.987 -3.46824 -2.70927 0
M  V30 5629 H 561.106 -0.657702 -0.332561 0
M  V30 5630 H 563.748 -1.89086 -0.186186 0
M  V30 5631 H 561.898 -3.08536 -2.36088 0
M  V30 5632 H 563.57 -4.60673 -0.240459 0
M  V30 5633 H 561.813 -4.33517 -0.156785 0
M  V30 5634 H 562.484 -5.32419 -1.45719 0
M  V30 5635 H 564.96 -3.54049 -2.18607 0
M  V30 5636 H 563.836 -4.4218 -3.25219 0
M  V30 5637 H 564.097 -2.70236 -3.49893 0
M  V30 5638 N 563.156 0.464375 -1.50603 0
M  V30 5639 C 564.404 1.21356 -1.61608 0
M  V30 5640 C 564.725 1.92329 -0.321643 0
M  V30 5641 O 563.995 1.84403 0.661232 0
M  V30 5642 H 562.575 0.45094 -0.595535 0
M  V30 5643 H 565.237 0.535046 -1.87412 0
M  V30 5644 H 564.333 1.95783 -2.43054 0
M  V30 5645 N 564.634 1.40294 0.718013 0
M  V30 5646 C 565.881 1.3844 1.47786 0
M  V30 5647 C 566.209 -0.0140838 1.94495 0
M  V30 5648 O 565.464 -0.998165 1.68331 0
M  V30 5649 C 565.763 2.31814 2.72024 0
M  V30 5650 C 565.429 3.79117 2.44093 0
M  V30 5651 C 564.091 4.19249 2.36185 0
M  V30 5652 C 566.443 4.72212 2.20602 0
M  V30 5653 C 563.771 5.50516 2.02851 0
M  V30 5654 C 566.123 6.03775 1.88781 0
M  V30 5655 C 564.787 6.42953 1.79354 0
M  V30 5656 H 564.057 0.506588 0.540786 0
M  V30 5657 H 566.704 1.72929 0.822663 0
M  V30 5658 H 565.009 1.90501 3.42369 0
M  V30 5659 H 566.706 2.27664 3.30106 0
M  V30 5660 H 563.296 3.47318 2.51133 0
M  V30 5661 H 567.48 4.42026 2.25669 0
M  V30 5662 H 562.736 5.79776 1.94088 0
M  V30 5663 H 566.91 6.75428 1.69617 0
M  V30 5664 H 564.537 7.44584 1.53291 0
M  V30 5665 N 566.112 -0.949982 1.2575 0
M  V30 5666 C 567.359 -1.69515 1.10774 0
M  V30 5667 C 567.687 -1.91316 -0.350479 0
M  V30 5668 O 566.942 -1.48515 -1.27443 0
M  V30 5669 C 567.241 -3.08039 1.81237 0
M  V30 5670 C 566.907 -3.06023 3.31151 0
M  V30 5671 C 565.569 -3.0518 3.72047 0
M  V30 5672 C 567.921 -2.98998 4.26907 0
M  V30 5673 C 565.249 -2.95067 5.07102 0
M  V30 5674 C 567.601 -2.90426 5.61992 0
M  V30 5675 C 566.265 -2.87922 6.0221 0
M  V30 5676 H 565.535 -0.6203 0.405351 0
M  V30 5677 H 568.182 -1.10953 1.56082 0
M  V30 5678 H 566.487 -3.70172 1.28373 0
M  V30 5679 H 568.184 -3.64526 1.67098 0
M  V30 5680 H 564.774 -3.07453 2.98614 0
M  V30 5681 H 568.958 -2.98764 3.963 0
M  V30 5682 H 564.214 -2.915 5.37436 0
M  V30 5683 H 568.388 -2.83952 6.35881 0
M  V30 5684 H 566.015 -2.79841 7.06819 0
M  V30 5685 N 567.59 -1.07411 -1.15328 0
M  V30 5686 C 568.52 -0.716472 -2.22236 0
M  V30 5687 C 569.501 0.296373 -1.67498 0
M  V30 5688 O 570.686 0.168989 -1.93463 0
M  V30 5689 C 567.816 -0.114142 -3.47112 0
M  V30 5690 C 566.77 -1.05421 -4.14814 0
M  V30 5691 C 566.096 -0.314604 -5.33774 0
M  V30 5692 C 567.396 -2.38808 -4.64508 0
M  V30 5693 H 569.09 -1.61029 -2.52408 0
M  V30 5694 H 566.636 -0.775702 -1.21321 0
M  V30 5695 H 568.589 0.148001 -4.2114 0
M  V30 5696 H 567.313 0.814755 -3.16274 0
M  V30 5697 H 565.972 -1.30128 -3.42728 0
M  V30 5698 H 565.62 0.617772 -4.99192 0
M  V30 5699 H 565.32 -0.941209 -5.80013 0
M  V30 5700 H 566.844 -0.0602747 -6.1057 0
M  V30 5701 H 568.258 -2.18424 -5.3006 0
M  V30 5702 H 566.655 -2.97069 -5.21412 0
M  V30 5703 H 567.725 -3.01067 -3.80114 0
M  V30 5704 N 569.068 1.32177 -0.85831 0
M  V30 5705 C 570.315 1.97125 -0.463484 0
M  V30 5706 C 570.643 1.67907 0.981705 0
M  V30 5707 O 569.898 0.961717 1.70439 0
M  V30 5708 C 570.197 3.51372 -0.653658 0
M  V30 5709 C 569.863 4.00584 -2.06987 0
M  V30 5710 C 568.525 4.13733 -2.4572 0
M  V30 5711 C 570.877 4.26624 -2.99402 0
M  V30 5712 C 568.205 4.50268 -3.76132 0
M  V30 5713 C 570.557 4.64618 -4.29316 0
M  V30 5714 C 569.221 4.75975 -4.67979 0
M  V30 5715 H 568.491 0.72133 -0.169601 0
M  V30 5716 H 571.138 1.57517 -1.08907 0
M  V30 5717 H 569.443 3.91761 0.0551328 0
M  V30 5718 H 571.14 3.99655 -0.328163 0
M  V30 5719 H 567.73 3.90837 -1.75911 0
M  V30 5720 H 571.914 4.1597 -2.70708 0
M  V30 5721 H 567.17 4.57256 -4.05865 0
M  V30 5722 H 571.344 4.83722 -5.00985 0
M  V30 5723 H 568.971 5.04041 -5.69076 0
M  V30 5724 N 570.547 0.616602 1.45037 0
M  V30 5725 C 571.796 0.112861 2.01384 0
M  V30 5726 C 572.109 -1.26758 1.48969 0
M  V30 5727 O 573.315 -1.86454 1.9735 0
M  V30 5728 C 571.771 0.151057 3.59583 0
M  V30 5729 C 571.379 1.53191 4.20995 0
M  V30 5730 C 573.123 -0.296974 4.2346 0
M  V30 5731 C 571.03 1.526 5.71373 0
M  V30 5732 H 569.96 0.0384254 0.75302 0
M  V30 5733 H 572.611 0.773262 1.66412 0
M  V30 5734 H 570.993 -0.57617 3.91786 0
M  V30 5735 H 572.167 2.28156 4.00352 0
M  V30 5736 H 570.482 1.92279 3.69348 0
M  V30 5737 H 573.079 -0.320712 5.33737 0
M  V30 5738 H 573.422 -1.32145 3.9477 0
M  V30 5739 H 573.955 0.377279 3.96007 0
M  V30 5740 H 570.694 2.52837 6.04776 0
M  V30 5741 H 570.214 0.819064 5.94181 0
M  V30 5742 H 571.893 1.25357 6.3474 0
M  V30 5743 N 572.025 -1.5352 0.356285 0
M  V30 5744 C 572.955 -2.28372 -0.486661 0
M  V30 5745 C 573.936 -1.30432 -1.09185 0
M  V30 5746 O 575.121 -1.59291 -1.11085 0
M  V30 5747 C 572.251 -3.06604 -1.63129 0
M  V30 5748 C 571.205 -4.12154 -1.15381 0
M  V30 5749 C 570.531 -4.78415 -2.38796 0
M  V30 5750 C 571.831 -5.21724 -0.245179 0
M  V30 5751 H 573.525 -2.99083 0.137797 0
M  V30 5752 H 571.071 -1.43841 0.0677134 0
M  V30 5753 H 573.024 -3.57712 -2.22755 0
M  V30 5754 H 571.748 -2.33568 -2.28284 0
M  V30 5755 H 570.407 -3.61978 -0.580294 0
M  V30 5756 H 570.055 -4.01959 -3.02387 0
M  V30 5757 H 569.755 -5.49734 -2.07524 0
M  V30 5758 H 571.279 -5.32313 -2.99125 0
M  V30 5759 H 572.693 -5.68391 -0.748646 0
M  V30 5760 H 571.09 -6.00095 -0.0237608 0
M  V30 5761 H 572.16 -4.79596 0.715229 0
M  V30 5762 N 573.503 -0.0852151 -1.57369 0
M  V30 5763 C 574.749 0.581666 -1.94279 0
M  V30 5764 C 575.082 1.68444 -0.966446 0
M  V30 5765 O 574.357 1.945 0.00215277 0
M  V30 5766 C 574.64 1.14609 -3.41375 0
M  V30 5767 C 574.493 0.0490414 -4.49773 0
M  V30 5768 C 575.812 2.04751 -3.8957 0
M  V30 5769 H 572.931 0.209972 -0.706456 0
M  V30 5770 H 575.573 -0.153915 -1.89376 0
M  V30 5771 H 573.723 1.77297 -3.45685 0
M  V30 5772 H 575.395 -0.584721 -4.57579 0
M  V30 5773 H 573.638 -0.618638 -4.29366 0
M  V30 5774 H 574.309 0.484601 -5.49869 0
M  V30 5775 H 576.785 1.51981 -3.87351 0
M  V30 5776 H 575.661 2.41173 -4.93079 0
M  V30 5777 H 575.922 2.96107 -3.28288 0
M  V30 5778 N 574.981 1.5647 0.188427 0
M  V30 5779 C 576.227 1.81281 0.909124 0
M  V30 5780 C 576.56 0.66034 1.82628 0
M  V30 5781 O 575.835 -0.338737 1.91528 0
M  V30 5782 C 576.118 3.16388 1.7196 0
M  V30 5783 C 575.971 4.42137 0.826714 0
M  V30 5784 C 577.29 3.48256 2.69083 0
M  V30 5785 H 574.409 0.659457 0.329068 0
M  V30 5786 H 577.051 1.89182 0.176156 0
M  V30 5787 H 575.201 3.09784 2.34448 0
M  V30 5788 H 576.873 4.60794 0.216025 0
M  V30 5789 H 575.116 4.33594 0.133792 0
M  V30 5790 H 575.787 5.33184 1.42893 0
M  V30 5791 H 578.263 3.55203 2.16726 0
M  V30 5792 H 577.139 4.43899 3.2287 0
M  V30 5793 H 577.4 2.72088 3.48455 0
M  V30 5794 N 576.459 -0.456382 1.50847 0
M  V30 5795 C 577.422 -1.53493 1.70213 0
M  V30 5796 C 578.422 -1.50264 0.572481 0
M  V30 5797 O 579.612 -1.52623 0.839751 0
M  V30 5798 C 576.744 -2.93091 1.741 0
M  V30 5799 H 577.937 -1.37633 2.66453 0
M  V30 5800 H 575.49 -0.683776 1.4055 0
M  V30 5801 H 576.225 -3.14378 0.796063 0
M  V30 5802 H 576.01 -2.9684 2.5618 0
M  V30 5803 H 577.5 -3.71368 1.90987 0
M  V30 5804 N 577.937 -1.40673 -0.710563 0
M  V30 5805 C 578.9 -1.4108 -1.80635 0
M  V30 5806 C 579.9 -0.303783 -1.57904 0
M  V30 5807 O 581.09 -0.562937 -1.64853 0
M  V30 5808 C 578.222 -1.20748 -3.18799 0
M  V30 5809 H 579.415 -2.38612 -1.81671 0
M  V30 5810 H 576.968 -1.26595 -0.916704 0
M  V30 5811 H 577.703 -0.239964 -3.23411 0
M  V30 5812 H 577.488 -2.00941 -3.36698 0
M  V30 5813 H 578.978 -1.23833 -3.98817 0
M  V30 5814 N 579.415 0.9433 -1.26252 0
M  V30 5815 C 580.661 1.69175 -1.11837 0
M  V30 5816 C 580.994 1.91238 0.337891 0
M  V30 5817 O 580.269 1.49152 1.24836 0
M  V30 5818 C 580.552 3.06783 -1.88563 0
M  V30 5819 C 580.405 2.9206 -3.42083 0
M  V30 5820 C 581.724 4.06865 -1.67776 0
M  V30 5821 H 578.843 0.61399 -0.407658 0
M  V30 5822 H 581.485 1.09572 -1.55222 0
M  V30 5823 H 579.635 3.57663 -1.51689 0
M  V30 5824 H 581.307 2.48419 -3.88698 0
M  V30 5825 H 579.55 2.27731 -3.69217 0
M  V30 5826 H 580.221 3.89651 -3.90994 0
M  V30 5827 H 582.697 3.64939 -1.99897 0
M  V30 5828 H 581.573 5.01168 -2.23879 0
M  V30 5829 H 581.834 4.37705 -0.621816 0
M  V30 5830 N 580.893 1.08022 1.14757 0
M  V30 5831 C 582.121 0.828847 1.89572 0
M  V30 5832 C 582.536 -0.618621 1.78377 0
M  V30 5833 O 581.893 -1.42482 1.1404 0
M  V30 5834 C 581.944 1.23677 3.39685 0
M  V30 5835 O 581.665 2.62746 3.50566 0
M  V30 5836 C 583.166 1.01569 4.31507 0
M  V30 5837 H 580.386 0.299196 0.600602 0
M  V30 5838 H 582.93 1.43846 1.45357 0
M  V30 5839 H 581.085 0.671347 3.81539 0
M  V30 5840 H 581.499 2.79573 4.43778 0
M  V30 5841 H 582.973 1.35055 5.35223 0
M  V30 5842 H 583.45 -0.0475433 4.39174 0
M  V30 5843 H 584.056 1.56636 3.95405 0
M  V30 5844 N 582.371 -1.3172 0.865308 0
M  V30 5845 C 583.301 -2.31109 0.333302 0
M  V30 5846 C 584.282 -1.60148 -0.573301 0
M  V30 5847 O 585.467 -1.87882 -0.491305 0
M  V30 5848 C 582.597 -3.44104 -0.470078 0
M  V30 5849 C 581.551 -4.26623 0.343021 0
M  V30 5850 C 580.877 -5.31482 -0.585756 0
M  V30 5851 C 582.177 -4.98001 1.57456 0
M  V30 5852 H 583.871 -2.75855 1.1638 0
M  V30 5853 H 581.417 -1.3262 0.561069 0
M  V30 5854 H 583.37 -4.12682 -0.852752 0
M  V30 5855 H 582.094 -2.98112 -1.33404 0
M  V30 5856 H 580.753 -3.59707 0.707583 0
M  V30 5857 H 580.401 -4.81741 -1.44686 0
M  V30 5858 H 580.101 -5.87582 -0.0456494 0
M  V30 5859 H 581.625 -6.0292 -0.965375 0
M  V30 5860 H 583.039 -5.59201 1.26359 0
M  V30 5861 H 581.436 -5.63876 2.05339 0
M  V30 5862 H 582.506 -4.25253 2.32997 0
M  V30 5863 N 583.85 -0.624285 -1.44708 0
M  V30 5864 C 585.09 -0.129273 -2.03991 0
M  V30 5865 C 585.454 1.22321 -1.47992 0
M  V30 5866 O 586.654 1.80993 -1.98734 0
M  V30 5867 C 584.926 -0.108231 -3.57236 0
M  V30 5868 S 586.485 0.323158 -4.37608 0
M  V30 5869 H 583.303 -0.0577318 -0.708652 0
M  V30 5870 H 585.904 -0.826139 -1.77187 0
M  V30 5871 H 584.609 -1.0958 -3.955 0
M  V30 5872 H 584.139 0.610101 -3.8864 0
M  V30 5873 H 586.154 1.56894 -4.70743 0
M  V30 5874 N 585.328 1.53329 -0.364422 0
M  V30 5875 C 586.744 1.59594 -0.0133165 0
M  V30 5876 C 586.944 1.37959 1.46865 0
M  V30 5877 O 586 1.18418 2.2301 0
M  V30 5878 C 587.313 2.97032 -0.468213 0
M  V30 5879 C 588.861 3.10138 -0.422334 0
M  V30 5880 C 589.336 4.49986 -0.853024 0
M  V30 5881 N 590.827 4.56098 -0.808037 0
M  V30 5882 C 591.562 5.62495 -1.11299 0
M  V30 5883 N 591.058 6.7665 -1.48717 0
M  V30 5884 N 592.851 5.52473 -1.03586 0
M  V30 5885 H 585.002 1.65644 -1.32951 0
M  V30 5886 H 587.265 0.77684 -0.543345 0
M  V30 5887 H 586.971 3.18 -1.5023 0
M  V30 5888 H 586.845 3.76918 0.145775 0
M  V30 5889 H 589.232 2.88881 0.602622 0
M  V30 5890 H 589.313 2.32263 -1.0718 0
M  V30 5891 H 588.957 4.7198 -1.87609 0
M  V30 5892 H 588.887 5.26289 -0.180819 0
M  V30 5893 H 591.378 3.74131 -0.532361 0
M  V30 5894 H 591.691 7.53776 -1.70415 0
M  V30 5895 H 590.036 6.78044 -1.52581 0
M  V30 5896 H 593.227 4.6217 -0.742736 0
M  V30 5897 H 593.4 6.35295 -1.27686 0
M  V30 5898 N 586.806 0.0935595 1.57322 0
M  V30 5899 C 587.736 -0.863062 2.16964 0
M  V30 5900 C 588.717 -1.29528 1.10256 0
M  V30 5901 O 589.902 -1.36245 1.38387 0
M  V30 5902 C 587.032 -2.12276 2.74875 0
M  V30 5903 C 585.986 -1.82921 3.86942 0
M  V30 5904 C 585.312 -3.15707 4.31548 0
M  V30 5905 C 586.612 -1.11737 5.10208 0
M  V30 5906 H 588.306 -0.366145 2.97153 0
M  V30 5907 H 585.852 -0.174673 1.42937 0
M  V30 5908 H 587.805 -2.79634 3.1525 0
M  V30 5909 H 586.529 -2.64248 1.91938 0
M  V30 5910 H 585.188 -1.17961 3.47103 0
M  V30 5911 H 584.836 -3.65563 3.45504 0
M  V30 5912 H 584.536 -2.96849 5.07104 0
M  V30 5913 H 586.06 -3.84226 4.74555 0
M  V30 5914 H 587.474 -1.69203 5.47762 0
M  V30 5915 H 585.871 -1.03064 5.91183 0
M  V30 5916 H 586.941 -0.0998818 4.84797 0
M  V30 5917 N 588.284 -1.56567 -0.180126 0
M  V30 5918 C 589.7 -1.50488 -0.531559 0
M  V30 5919 C 589.9 -0.796267 -1.851 0
M  V30 5920 O 588.956 -0.352978 -2.50021 0
M  V30 5921 C 590.269 -2.95201 -0.572456 0
M  V30 5922 C 591.817 -3.05957 -0.660264 0
M  V30 5923 C 592.292 -4.5211 -0.732135 0
M  V30 5924 N 593.783 -4.56322 -0.795262 0
M  V30 5925 C 594.518 -5.66742 -0.871296 0
M  V30 5926 N 594.014 -6.86815 -0.908708 0
M  V30 5927 N 595.807 -5.54691 -0.909639 0
M  V30 5928 H 587.958 -2.01045 0.685165 0
M  V30 5929 H 590.221 -0.915536 0.245962 0
M  V30 5930 H 589.927 -3.50165 0.328208 0
M  V30 5931 H 589.801 -3.49369 -1.422 0
M  V30 5932 H 592.188 -2.51032 -1.55136 0
M  V30 5933 H 592.269 -2.54888 0.215783 0
M  V30 5934 H 591.913 -5.07664 0.154664 0
M  V30 5935 H 591.843 -5.00926 -1.6242 0
M  V30 5936 H 594.334 -3.69868 -0.77499 0
M  V30 5937 H 594.647 -7.66718 -0.967654 0
M  V30 5938 H 592.992 -6.89443 -0.877132 0
M  V30 5939 H 596.183 -4.59804 -0.877353 0
M  V30 5940 H 596.356 -6.40768 -0.965434 0
M  V30 5941 N 589.762 0.448376 -1.51087 0
M  V30 5942 C 590.987 1.22605 -1.6728 0
M  V30 5943 C 591.412 1.84524 -0.365045 0
M  V30 5944 O 590.77 1.6832 0.673642 0
M  V30 5945 C 590.818 2.29393 -2.78229 0
M  V30 5946 O 589.922 3.34608 -2.41063 0
M  V30 5947 H 589.263 0.359705 -0.558129 0
M  V30 5948 H 591.793 0.530903 -1.97592 0
M  V30 5949 H 591.803 2.74352 -3.01986 0
M  V30 5950 H 590.478 1.83701 -3.73131 0
M  V30 5951 H 589.055 2.95202 -2.27838 0
M  V30 5952 N 591.24 1.41047 0.703093 0
M  V30 5953 C 592.651 1.35657 1.28274 0
M  V30 5954 C 593.002 0.0360309 1.96167 0
M  V30 5955 O 592.127 -0.865833 1.98324 0
M  V30 5956 C 592.722 2.45707 2.33267 0
M  V30 5957 C 591.281 2.43738 2.86825 0
M  V30 5958 C 590.428 2.25941 1.60767 0
M  V30 5959 H 593.379 1.50672 0.49836 0
M  V30 5960 H 593.4 2.14333 3.14391 0
M  V30 5961 H 592.912 3.41805 1.83824 0
M  V30 5962 H 591.013 1.51375 3.40465 0
M  V30 5963 H 591.126 3.39779 3.37768 0
M  V30 5964 H 589.49 1.73681 1.86298 0
M  V30 5965 H 590.273 3.24054 1.1333 0
M  V30 5966 N 592.718 -0.936591 1.26751 0
M  V30 5967 C 594.129 -1.49816 1.1141 0
M  V30 5968 C 594.48 -1.9383 -0.304015 0
M  V30 5969 O 593.605 -1.80346 -1.196 0
M  V30 5970 C 594.2 -2.72271 2.01629 0
M  V30 5971 C 592.759 -3.2468 1.9042 0
M  V30 5972 C 591.906 -1.97444 1.94708 0
M  V30 5973 H 594.857 -0.751604 1.39773 0
M  V30 5974 H 594.878 -3.46741 1.56688 0
M  V30 5975 H 594.39 -2.40205 3.04833 0
M  V30 5976 H 592.491 -3.61525 0.901674 0
M  V30 5977 H 592.604 -3.91476 2.76195 0
M  V30 5978 H 590.968 -2.13545 1.38818 0
M  V30 5979 H 591.751 -1.67703 2.9955 0
M  V30 5980 N 594.196 -1.08629 -1.14182 0
M  V30 5981 C 595.143 -0.718299 -2.19338 0
M  V30 5982 C 596.113 0.296587 -1.63431 0
M  V30 5983 O 597.298 0.180079 -1.89948 0
M  V30 5984 C 594.438 -0.136203 -3.44831 0
M  V30 5985 C 593.551 -1.20414 -4.14879 0
M  V30 5986 C 592.686 -0.585666 -5.27962 0
M  V30 5987 C 591.725 -1.63548 -5.89846 0
M  V30 5988 N 590.862 -1.03864 -6.94375 0
M  V30 5989 H 595.702 -1.61932 -2.50164 0
M  V30 5990 H 593.239 -0.80919 -1.22844 0
M  V30 5991 H 595.197 0.219021 -4.16625 0
M  V30 5992 H 593.827 0.728121 -3.14481 0
M  V30 5993 H 592.879 -1.67676 -3.41451 0
M  V30 5994 H 594.191 -1.99959 -4.56966 0
M  V30 5995 H 593.345 -0.178818 -6.06436 0
M  V30 5996 H 592.084 0.24142 -4.87102 0
M  V30 5997 H 591.089 -2.05197 -5.10073 0
M  V30 5998 H 592.314 -2.46509 -6.3278 0
M  V30 5999 H 590.26 -0.232687 -6.55587 0
M  V30 6000 H 590.177 -1.77116 -7.3496 0
M  V30 6001 H 591.445 -0.657724 -7.7672 0
M  V30 6002 N 595.674 1.31259 -0.872281 0
M  V30 6003 C 596.621 2.28459 -0.327857 0
M  V30 6004 C 597.591 1.55831 0.574957 0
M  V30 6005 O 598.776 1.83965 0.506101 0
M  V30 6006 C 595.916 3.41985 0.462644 0
M  V30 6007 C 595.029 4.29458 -0.467949 0
M  V30 6008 C 594.164 5.30131 0.336903 0
M  V30 6009 C 593.203 6.0925 -0.58997 0
M  V30 6010 N 592.34 7.01872 0.178775 0
M  V30 6011 H 597.18 2.74414 -1.16193 0
M  V30 6012 H 594.717 1.34994 -0.584376 0
M  V30 6013 H 596.675 4.06547 0.936759 0
M  V30 6014 H 595.305 2.97134 1.2614 0
M  V30 6015 H 594.357 3.65318 -1.06052 0
M  V30 6016 H 595.669 4.84677 -1.17856 0
M  V30 6017 H 594.823 6.0038 0.873427 0
M  V30 6018 H 593.562 4.75573 1.08079 0
M  V30 6019 H 592.567 5.37889 -1.13823 0
M  V30 6020 H 593.792 6.65894 -1.33275 0
M  V30 6021 H 591.738 6.49721 0.905435 0
M  V30 6022 H 591.655 7.54522 -0.472452 0
M  V30 6023 H 592.923 7.76382 0.696454 0
M  V30 6024 N 597.152 0.631951 1.44375 0
M  V30 6025 C 598.4 0.136497 2.01639 0
M  V30 6026 C 598.721 -1.24637 1.49969 0
M  V30 6027 O 597.991 -1.82827 0.70363 0
M  V30 6028 H 596.571 0.0474703 0.74549 0
M  V30 6029 H 599.233 0.818837 1.76865 0
M  V30 6030 H 598.329 0.104817 3.11924 0
M  V30 6031 N 598.631 -1.53133 0.372548 0
M  V30 6032 C 599.561 -2.28876 -0.462412 0
M  V30 6033 C 600.542 -1.31583 -1.07796 0
M  V30 6034 O 601.727 -1.60461 -1.09389 0
M  V30 6035 C 598.857 -3.08317 -1.59868 0
M  V30 6036 C 597.811 -4.13355 -1.11003 0
M  V30 6037 C 597.137 -4.8092 -2.33708 0
M  V30 6038 C 598.437 -5.21955 -0.18983 0
M  V30 6039 H 600.131 -2.9892 0.169511 0
M  V30 6040 H 597.677 -1.43761 0.0829658 0
M  V30 6041 H 599.63 -3.60055 -2.18949 0
M  V30 6042 H 598.354 -2.35976 -2.25794 0
M  V30 6043 H 597.013 -3.62573 -0.541869 0
M  V30 6044 H 596.661 -4.05144 -2.98106 0
M  V30 6045 H 596.361 -5.51904 -2.01682 0
M  V30 6046 H 597.885 -5.35455 -2.93462 0
M  V30 6047 H 599.299 -5.69153 -0.688319 0
M  V30 6048 H 597.696 -6.00087 0.0398887 0
M  V30 6049 H 598.766 -4.78811 0.766057 0
M  V30 6050 N 600.109 -0.101901 -1.5727 0
M  V30 6051 C 601.357 0.559091 -1.94213 0
M  V30 6052 C 601.678 1.68297 -0.984948 0
M  V30 6053 O 600.948 1.95863 -0.0381975 0
M  V30 6054 H 599.528 0.20952 -0.717015 0
M  V30 6055 H 602.19 -0.166831 -1.94185 0
M  V30 6056 H 601.286 0.96485 -2.96811 0
M  V30 6057 N 601.587 1.56661 0.17182 0
M  V30 6058 C 602.812 1.86459 0.908165 0
M  V30 6059 C 603.237 0.688181 1.75059 0
M  V30 6060 O 602.595 -0.362753 1.77634 0
M  V30 6061 C 602.643 3.14669 1.76112 0
M  V30 6062 O 601.747 2.96858 2.86268 0
M  V30 6063 H 601.088 0.613318 0.254434 0
M  V30 6064 H 603.618 2.03892 0.170113 0
M  V30 6065 H 603.628 3.46061 2.16115 0
M  V30 6066 H 602.303 3.99905 1.14233 0
M  V30 6067 H 600.88 2.76819 2.49852 0
M  V30 6068 N 603.065 -0.440357 1.51323 0
M  V30 6069 C 604.476 -1.02032 1.56353 0
M  V30 6070 C 604.827 -1.92382 0.385197 0
M  V30 6071 O 603.952 -2.10583 -0.498373 0
M  V30 6072 C 604.547 -1.85723 2.83359 0
M  V30 6073 C 603.106 -2.38774 2.90971 0
M  V30 6074 C 602.253 -1.17908 2.50984 0
M  V30 6075 H 605.204 -0.221744 1.57143 0
M  V30 6076 H 605.225 -2.71141 2.66951 0
M  V30 6077 H 604.737 -1.19939 3.69102 0
M  V30 6078 H 602.838 -3.08021 2.09651 0
M  V30 6079 H 602.951 -2.71778 3.94555 0
M  V30 6080 H 601.315 -1.52347 2.04114 0
M  V30 6081 H 602.098 -0.537393 3.39068 0
M  V30 6082 N 604.543 -1.41418 -0.695603 0
M  V30 6083 C 605.771 -1.4413 -1.48439 0
M  V30 6084 C 606.186 -0.0465698 -1.88743 0
M  V30 6085 O 605.543 0.934117 -1.56782 0
M  V30 6086 C 605.594 -2.34998 -2.74696 0
M  V30 6087 O 605.315 -3.69043 -2.36091 0
M  V30 6088 C 606.816 -2.46513 -3.68438 0
M  V30 6089 H 604.036 -0.490905 -0.457442 0
M  V30 6090 H 606.58 -1.85702 -0.856454 0
M  V30 6091 H 604.735 -1.96735 -3.33728 0
M  V30 6092 H 605.149 -4.17505 -3.17474 0
M  V30 6093 H 606.623 -3.1426 -4.53811 0
M  V30 6094 H 607.1 -1.49638 -4.12922 0
M  V30 6095 H 607.706 -2.85412 -3.1531 0
M  V30 6096 N 606.021 0.929856 -1.27246 0
M  V30 6097 C 607.267 1.6798 -1.13625 0
M  V30 6098 C 607.6 1.91586 0.317589 0
M  V30 6099 O 606.875 1.50467 1.23247 0
M  V30 6100 C 607.158 3.04766 -1.91806 0
M  V30 6101 C 607.011 2.88415 -3.45162 0
M  V30 6102 C 608.33 4.05063 -1.72082 0
M  V30 6103 H 605.449 0.609632 -0.414147 0
M  V30 6104 H 608.091 1.0792 -1.56376 0
M  V30 6105 H 606.241 3.56034 -1.55474 0
M  V30 6106 H 607.913 2.44282 -3.91311 0
M  V30 6107 H 606.156 2.23802 -3.71611 0
M  V30 6108 H 606.827 3.85482 -3.95105 0
M  V30 6109 H 609.303 3.62798 -2.03757 0
M  V30 6110 H 608.179 4.98765 -2.29182 0
M  V30 6111 H 608.44 4.37021 -0.668206 0
M  V30 6112 N 607.499 1.09233 1.13605 0
M  V30 6113 C 608.449 0.6994 2.17008 0
M  V30 6114 C 609.433 -0.285238 1.58352 0
M  V30 6115 O 610.625 -0.09592 1.7674 0
M  V30 6116 C 607.754 0.11938 3.43092 0
M  V30 6117 C 606.84 1.13031 4.0876 0
M  V30 6118 N 607.231 2.31673 4.49623 0
M  V30 6119 C 605.529 0.967999 4.35369 0
M  V30 6120 C 606.23 2.95964 5.00779 0
M  V30 6121 N 605.206 2.23534 4.95513 0
M  V30 6122 H 609.008 1.60272 2.46354 0
M  V30 6123 H 606.522 0.968257 1.30378 0
M  V30 6124 H 608.519 -0.180122 4.16511 0
M  V30 6125 H 607.179 -0.778816 3.15221 0
M  V30 6126 H 608.19 2.69277 4.42391 0
M  V30 6127 H 604.867 0.124319 4.17315 0
M  V30 6128 H 606.257 3.96813 5.42208 0
M  V30 6129 N 608.977 -1.30795 0.87923 0
M  V30 6130 C 609.924 -2.28282 0.339968 0
M  V30 6131 C 610.894 -1.56134 -0.566685 0
M  V30 6132 O 612.079 -1.84231 -0.496338 0
M  V30 6133 C 609.219 -3.42225 -0.444501 0
M  V30 6134 C 608.332 -4.29204 0.490717 0
M  V30 6135 C 607.467 -5.30302 -0.308784 0
M  V30 6136 C 606.506 -6.08929 0.622272 0
M  V30 6137 N 605.643 -7.01957 -0.14155 0
M  V30 6138 H 610.483 -2.73794 1.17647 0
M  V30 6139 H 608.02 -1.34682 0.591527 0
M  V30 6140 H 609.978 -4.07038 -0.915186 0
M  V30 6141 H 608.608 -2.97799 -1.24562 0
M  V30 6142 H 607.66 -3.6475 1.07988 0
M  V30 6143 H 608.972 -4.84045 1.20425 0
M  V30 6144 H 608.126 -6.00835 -0.841575 0
M  V30 6145 H 606.865 -4.7614 -1.05556 0
M  V30 6146 H 605.87 -5.37278 1.16674 0
M  V30 6147 H 607.095 -6.65178 1.36804 0
M  V30 6148 H 605.041 -6.50192 -0.870966 0
M  V30 6149 H 604.958 -7.54261 0.51246 0
M  V30 6150 H 606.226 -7.76741 -0.655271 0
M  V30 6151 N 610.455 -0.639598 -1.44038 0
M  V30 6152 C 611.704 -0.144885 -2.01179 0
M  V30 6153 C 612.017 1.24372 -1.50967 0
M  V30 6154 O 613.223 1.83291 -2.00292 0
M  V30 6155 C 611.679 -0.208244 -3.59297 0
M  V30 6156 C 611.287 -1.59869 -4.18504 0
M  V30 6157 C 613.031 0.229568 -4.23879 0
M  V30 6158 C 610.938 -1.61671 -5.68873 0
M  V30 6159 H 609.868 -0.0504005 -0.752314 0
M  V30 6160 H 612.519 -0.799639 -1.65161 0
M  V30 6161 H 610.901 0.513767 -3.92653 0
M  V30 6162 H 612.075 -2.34496 -3.96671 0
M  V30 6163 H 610.39 -1.98131 -3.66242 0
M  V30 6164 H 612.987 0.235758 -5.3418 0
M  V30 6165 H 613.33 1.25848 -3.96822 0
M  V30 6166 H 613.863 -0.440233 -3.95357 0
M  V30 6167 H 610.602 -2.62427 -6.00677 0
M  V30 6168 H 610.122 -0.913489 -5.92803 0
M  V30 6169 H 611.801 -1.35439 -6.32665 0
M  V30 6170 N 611.933 1.52934 -0.380664 0
M  V30 6171 C 613.158 2.06363 0.207157 0
M  V30 6172 C 613.583 1.25122 1.4045 0
M  V30 6173 O 612.941 0.274062 1.79217 0
M  V30 6174 C 612.989 3.56162 0.563996 0
M  V30 6175 O 612.093 3.77552 1.65917 0
M  V30 6176 H 611.434 0.663468 0.0265859 0
M  V30 6177 H 613.964 1.9719 -0.545635 0
M  V30 6178 H 613.974 3.99453 0.830752 0
M  V30 6179 H 612.649 4.14732 -0.311427 0
M  V30 6180 H 611.226 3.46154 1.3868 0
M  V30 6181 N 613.412 0.11024 1.57214 0
M  V30 6182 C 614.828 -0.24638 1.57687 0
M  V30 6183 C 615.028 -1.67344 1.12241 0
M  V30 6184 O 614.084 -2.39298 0.805783 0
M  V30 6185 C 615.397 -0.0210288 3.00693 0
M  V30 6186 C 616.945 -0.0876077 3.12877 0
M  V30 6187 C 617.42 0.10994 4.57868 0
M  V30 6188 N 618.911 0.0556135 4.63167 0
M  V30 6189 C 619.646 0.183495 5.73106 0
M  V30 6190 N 619.142 0.367058 6.91827 0
M  V30 6191 N 620.935 0.123689 5.61964 0
M  V30 6192 H 613.086 1.04246 1.85058 0
M  V30 6193 H 615.349 0.40979 0.854854 0
M  V30 6194 H 615.055 0.965203 3.38196 0
M  V30 6195 H 614.929 -0.756748 3.69531 0
M  V30 6196 H 617.316 -1.06436 2.75237 0
M  V30 6197 H 617.397 0.67985 2.466 0
M  V30 6198 H 617.041 1.08362 4.96206 0
M  V30 6199 H 616.971 -0.677397 5.22225 0
M  V30 6200 H 619.462 -0.0831062 3.77809 0
M  V30 6201 H 619.775 0.455739 7.71455 0
M  V30 6202 H 618.12 0.40292 6.93831 0
M  V30 6203 H 621.311 -0.0186928 4.68096 0
M  V30 6204 H 621.484 0.226797 6.47603 0
M  V30 6205 N 614.89 -1.56749 -0.16351 0
M  V30 6206 C 616.137 -1.82434 -0.878866 0
M  V30 6207 C 616.465 -0.688557 -1.81904 0
M  V30 6208 O 615.72 0.323644 -1.93005 0
M  V30 6209 C 616.019 -3.14342 -1.70071 0
M  V30 6210 C 615.685 -4.41647 -0.908775 0
M  V30 6211 C 614.347 -4.76224 -0.690236 0
M  V30 6212 C 616.699 -5.19998 -0.353815 0
M  V30 6213 C 614.027 -5.86624 0.0942374 0
M  V30 6214 C 616.379 -6.3122 0.41761 0
M  V30 6215 C 615.043 -6.64358 0.646879 0
M  V30 6216 H 614.313 -0.667574 -0.3216 0
M  V30 6217 H 616.96 -1.90963 -0.14337 0
M  V30 6218 H 615.265 -3.0119 -2.50583 0
M  V30 6219 H 616.962 -3.31426 -2.25738 0
M  V30 6220 H 613.552 -4.1453 -1.08916 0
M  V30 6221 H 617.736 -4.93673 -0.509975 0
M  V30 6222 H 612.992 -6.10751 0.281529 0
M  V30 6223 H 617.166 -6.91133 0.854849 0
M  V30 6224 H 614.793 -7.49742 1.25662 0
M  V30 6225 N 616.368 0.432326 -1.51554 0
M  V30 6226 C 617.779 1.01202 -1.56892 0
M  V30 6227 C 618.13 1.92175 -0.395394 0
M  V30 6228 O 617.255 2.10844 0.487198 0
M  V30 6229 C 617.85 1.84217 -2.8434 0
M  V30 6230 C 616.409 2.37228 -2.92233 0
M  V30 6231 C 615.556 1.16576 -2.51606 0
M  V30 6232 H 618.507 0.213407 -1.57259 0
M  V30 6233 H 618.528 2.69721 -2.68385 0
M  V30 6234 H 618.04 1.17979 -3.69733 0
M  V30 6235 H 616.141 3.06905 -2.11282 0
M  V30 6236 H 616.254 2.69682 -3.95991 0
M  V30 6237 H 614.618 1.51263 -2.04919 0
M  V30 6238 H 615.401 0.519404 -3.39348 0
M  V30 6239 N 617.846 1.41785 0.688094 0
M  V30 6240 C 618.776 1.47 1.8142 0
M  V30 6241 C 619.757 0.327881 1.6691 0
M  V30 6242 O 620.942 0.540362 1.86531 0
M  V30 6243 C 618.072 1.35876 3.19617 0
M  V30 6244 C 617.026 2.47976 3.48844 0
M  V30 6245 C 616.352 2.21915 4.86475 0
M  V30 6246 C 617.652 3.90309 3.47068 0
M  V30 6247 H 619.346 2.41247 1.77314 0
M  V30 6248 H 616.892 1.16116 0.851651 0
M  V30 6249 H 618.845 1.38134 3.98117 0
M  V30 6250 H 617.569 0.38116 3.24368 0
M  V30 6251 H 616.228 2.45013 2.72698 0
M  V30 6252 H 615.876 1.2248 4.8786 0
M  V30 6253 H 615.576 2.97037 5.06994 0
M  V30 6254 H 617.1 2.25901 5.67275 0
M  V30 6255 H 618.514 3.94947 4.1556 0
M  V30 6256 H 616.911 4.65175 3.7912 0
M  V30 6257 H 617.981 4.17927 2.45896 0
M  V30 6258 N 619.324 -0.923095 1.27737 0
M  V30 6259 C 620.271 -2.02432 1.1086 0
M  V30 6260 C 621.241 -1.66098 0.00835195 0
M  V30 6261 O 622.426 -1.90027 0.171542 0
M  V30 6262 C 619.566 -3.36476 0.766671 0
M  V30 6263 C 618.679 -3.85737 1.94501 0
M  V30 6264 C 617.814 -5.08249 1.54455 0
M  V30 6265 C 616.853 -5.49818 2.6901 0
M  V30 6266 N 615.99 -6.63524 2.29521 0
M  V30 6267 H 620.83 -2.16201 2.05089 0
M  V30 6268 H 618.367 -1.05909 1.02087 0
M  V30 6269 H 620.325 -4.13569 0.549223 0
M  V30 6270 H 618.955 -3.22502 -0.13867 0
M  V30 6271 H 618.007 -3.04883 2.27487 0
M  V30 6272 H 619.319 -4.12513 2.80419 0
M  V30 6273 H 618.473 -5.92857 1.28862 0
M  V30 6274 H 617.212 -4.83261 0.656534 0
M  V30 6275 H 616.217 -4.63757 2.95313 0
M  V30 6276 H 617.442 -5.76799 3.5844 0
M  V30 6277 H 615.388 -6.40185 1.43177 0
M  V30 6278 H 615.305 -6.89978 3.08977 0
M  V30 6279 H 616.573 -7.51461 2.07187 0
M  V30 6280 N 620.802 -1.09834 -1.13024 0
M  V30 6281 C 622.218 -0.828875 -1.36388 0
M  V30 6282 C 622.418 0.554756 -1.93713 0
M  V30 6283 O 621.474 1.30882 -2.15931 0
M  V30 6284 C 622.787 -1.92352 -2.3113 0
M  V30 6285 C 624.335 -1.95124 -2.44735 0
M  V30 6286 C 624.81 -3.03745 -3.42787 0
M  V30 6287 N 626.301 -3.03012 -3.5034 0
M  V30 6288 C 627.036 -3.83699 -4.26101 0
M  V30 6289 N 626.532 -4.74306 -5.04981 0
M  V30 6290 N 628.325 -3.71942 -4.21445 0
M  V30 6291 H 620.476 -1.99029 -0.74169 0
M  V30 6292 H 622.739 -0.864557 -0.388903 0
M  V30 6293 H 622.445 -2.91906 -1.96172 0
M  V30 6294 H 622.319 -1.80536 -3.3119 0
M  V30 6295 H 624.706 -0.962069 -2.78977 0
M  V30 6296 H 624.787 -2.11018 -1.44586 0
M  V30 6297 H 624.431 -4.02878 -3.09276 0
M  V30 6298 H 624.361 -2.85094 -4.42752 0
M  V30 6299 H 626.852 -2.37352 -2.94062 0
M  V30 6300 H 627.165 -5.32446 -5.60108 0
M  V30 6301 H 625.51 -4.78339 -5.04199 0
M  V30 6302 H 628.701 -3.00513 -3.589 0
M  V30 6303 H 628.874 -4.35062 -4.80235 0
M  V30 6304 N 622.28 1.30327 -0.886154 0
M  V30 6305 C 623.212 2.27079 -0.311072 0
M  V30 6306 C 624.225 1.53758 0.53502 0
M  V30 6307 O 625.414 1.74947 0.354378 0
M  V30 6308 C 622.514 3.33965 0.576228 0
M  V30 6309 C 621.687 4.36735 -0.241064 0
M  V30 6310 C 620.746 5.23028 0.576916 0
M  V30 6311 O 619.772 5.692 -0.000802231 0
M  V30 6312 N 620.974 5.49016 1.88579 0
M  V30 6313 H 623.739 2.77065 -1.14259 0
M  V30 6314 H 621.3 1.43519 -0.749258 0
M  V30 6315 H 623.292 3.88618 1.12953 0
M  V30 6316 H 621.862 2.839 1.30842 0
M  V30 6317 H 621.082 3.81932 -0.975805 0
M  V30 6318 H 622.37 5.02451 -0.801272 0
M  V30 6319 H 621.768 5.13288 2.37806 0
M  V30 6320 H 620.325 6.06539 2.38651 0
M  V30 6321 N 623.758 0.647228 1.43697 0
M  V30 6322 C 625.004 0.158422 2.0218 0
M  V30 6323 C 625.337 -1.22233 1.50907 0
M  V30 6324 O 624.612 -1.81478 0.699702 0
M  V30 6325 C 624.895 0.1627 3.59732 0
M  V30 6326 C 624.748 1.57694 4.21251 0
M  V30 6327 C 626.067 -0.504138 4.37203 0
M  V30 6328 H 623.186 0.059042 0.734631 0
M  V30 6329 H 625.828 0.826772 1.71069 0
M  V30 6330 H 623.978 -0.406414 3.86368 0
M  V30 6331 H 625.65 2.19618 4.05667 0
M  V30 6332 H 623.893 2.12603 3.7813 0
M  V30 6333 H 624.564 1.53183 5.3032 0
M  V30 6334 H 627.04 -0.0199841 4.16095 0
M  V30 6335 H 625.916 -0.470394 5.46881 0
M  V30 6336 H 626.177 -1.57726 4.13007 0
M  V30 6337 N 625.236 -1.5273 0.388769 0
M  V30 6338 C 626.461 -2.0647 -0.19621 0
M  V30 6339 C 626.886 -1.25865 -1.39784 0
M  V30 6340 O 626.244 -0.283562 -1.79069 0
M  V30 6341 C 626.292 -3.56456 -0.5451 0
M  V30 6342 O 625.396 -3.78426 -1.63912 0
M  V30 6343 H 624.737 -0.663599 -0.023067 0
M  V30 6344 H 627.267 -1.96898 0.556084 0
M  V30 6345 H 627.277 -3.99888 -0.809557 0
M  V30 6346 H 625.952 -4.14561 0.333417 0
M  V30 6347 H 624.529 -3.46884 -1.36842 0
M  V30 6348 N 626.714 -0.118576 -1.57153 0
M  V30 6349 C 627.644 0.828436 -2.1831 0
M  V30 6350 C 628.625 1.27758 -1.12303 0
M  V30 6351 O 629.81 1.34026 -1.40537 0
M  V30 6352 C 626.94 2.07876 -2.78217 0
M  V30 6353 C 625.894 1.76742 -3.89803 0
M  V30 6354 C 625.22 3.08801 -4.36516 0
M  V30 6355 C 626.52 1.03606 -5.11921 0
M  V30 6356 H 628.214 0.318824 -2.97698 0
M  V30 6357 H 625.76 0.151911 -1.43196 0
M  V30 6358 H 627.713 2.74584 -3.19659 0
M  V30 6359 H 626.437 2.61161 -1.96118 0
M  V30 6360 H 625.096 1.12424 -3.48936 0
M  V30 6361 H 624.744 3.6002 -3.51276 0
M  V30 6362 H 624.444 2.88743 -5.11763 0
M  V30 6363 H 625.968 3.76627 -4.80608 0
M  V30 6364 H 627.382 1.60467 -5.50385 0
M  V30 6365 H 625.779 0.936454 -5.92748 0
M  V30 6366 H 626.849 0.0227421 -4.84895 0
M  V30 6367 N 628.193 1.56834 0.155195 0
M  V30 6368 C 629.103 2.009 1.21146 0
M  V30 6369 C 630.119 0.923029 1.475 0
M  V30 6370 O 631.295 1.23189 1.59331 0
M  V30 6371 C 628.36 2.37378 2.52691 0
M  V30 6372 C 627.421 3.59883 2.34057 0
M  V30 6373 C 626.654 3.94612 3.59329 0
M  V30 6374 O 626.877 3.30104 4.65175 0
M  V30 6375 O 625.811 4.87895 3.52479 0
M  V30 6376 H 629.637 2.9105 0.867371 0
M  V30 6377 H 627.222 1.44916 0.363298 0
M  V30 6378 H 629.104 2.61737 3.3026 0
M  V30 6379 H 627.779 1.50385 2.86646 0
M  V30 6380 H 626.686 3.40722 1.54465 0
M  V30 6381 H 628.019 4.47468 2.0502 0
M  V30 6382 N 629.671 -0.424282 1.51781 0
M  V30 6383 C 630.896 -1.19928 1.6921 0
M  V30 6384 C 631.321 -1.8392 0.394355 0
M  V30 6385 O 630.679 -1.69371 -0.646778 0
M  V30 6386 C 630.727 -2.24937 2.81843 0
M  V30 6387 O 629.831 -3.3073 2.46356 0
M  V30 6388 H 629.172 -0.35078 0.563781 0
M  V30 6389 H 631.702 -0.499401 1.98412 0
M  V30 6390 H 631.712 -2.69512 3.06312 0
M  V30 6391 H 630.387 -1.77742 3.76006 0
M  V30 6392 H 628.964 -2.9154 2.32505 0
M  V30 6393 N 631.149 -1.42148 -0.680565 0
M  V30 6394 C 632.097 -1.45401 -1.81552 0
M  V30 6395 C 633.091 -0.33036 -1.66147 0
M  V30 6396 O 634.297 -0.503103 -1.72826 0
M  V30 6397 H 630.672 -0.455265 -0.59853 0
M  V30 6398 H 632.643 -2.41024 -1.75926 0
M  V30 6399 C 631.392 -1.36769 -3.19671 0
M  V30 6400 H 630.715 -2.22525 -3.32149 0
M  V30 6401 H 632.155 -1.43106 -3.9912 0
M  V30 6402 C 630.614 -0.0817752 -3.36801 0
M  V30 6403 O 631.144 0.867707 -3.92216 0
M  V30 6404 N 629.35 -0.000799811 -2.906 0
M  V30 6405 H 628.897 -0.774231 -2.4569 0
M  V30 6406 H 628.855 0.858961 -3.02439 0
M  V30 6407 N 632.627 0.916307 -1.28225 0
M  V30 6408 C 633.59 1.99996 -1.11957 0
M  V30 6409 C 634.59 1.60688 -0.0600152 0
M  V30 6410 O 635.78 1.71499 -0.30558 0
M  V30 6411 C 632.912 3.33458 -0.708411 0
M  V30 6412 H 634.105 2.15858 -2.08196 0
M  V30 6413 H 631.658 1.09863 -1.11175 0
M  V30 6414 H 632.393 3.23297 0.254859 0
M  V30 6415 H 632.178 3.63349 -1.47377 0
M  V30 6416 H 633.668 4.13014 -0.617164 0
M  V30 6417 N 634.105 1.10431 1.1244 0
M  V30 6418 C 635.33 0.869089 1.88313 0
M  V30 6419 C 635.755 -0.574912 1.79099 0
M  V30 6420 O 635.113 -1.40496 1.14589 0
M  V30 6421 C 635.161 1.32208 3.3549 0
M  V30 6422 O 634.265 0.487092 4.09513 0
M  V30 6423 H 633.606 0.313894 0.585121 0
M  V30 6424 H 636.136 1.47111 1.42195 0
M  V30 6425 H 636.146 1.31201 3.86329 0
M  V30 6426 H 634.821 2.37364 3.41513 0
M  V30 6427 H 633.398 0.562372 3.68635 0
M  V30 6428 N 635.583 -1.29855 0.893053 0
M  V30 6429 C 636.516 -2.26079 0.3104 0
M  V30 6430 C 637.494 -1.52145 -0.573644 0
M  V30 6431 O 638.678 -1.8113 -0.521937 0
M  V30 6432 C 635.805 -3.34069 -0.558179 0
M  V30 6433 C 634.851 -4.25721 0.257638 0
M  V30 6434 S 635.684 -5.09409 1.65114 0
M  V30 6435 C 636.84 -6.20903 0.789307 0
M  V30 6436 H 637.073 -2.75151 1.12602 0
M  V30 6437 H 634.606 -1.37975 0.692978 0
M  V30 6438 H 636.564 -3.9675 -1.05355 0
M  V30 6439 H 635.225 -2.83705 -1.34797 0
M  V30 6440 H 634.418 -5.02366 -0.405562 0
M  V30 6441 H 634.02 -3.67656 0.685917 0
M  V30 6442 H 636.312 -6.77499 0.00978451 0
M  V30 6443 H 637.255 -6.91426 1.52762 0
M  V30 6444 H 637.663 -5.63435 0.346634 0
M  V30 6445 N 637.061 -0.65484 -1.43351 0
M  V30 6446 C 638.286 -0.175046 -2.0666 0
M  V30 6447 C 638.711 1.15104 -1.4877 0
M  V30 6448 O 638.069 1.71144 -0.598279 0
M  V30 6449 C 638.117 -0.0991544 -3.60464 0
M  V30 6450 O 637.221 0.938169 -4.01587 0
M  V30 6451 H 636.562 -0.0956148 -0.65708 0
M  V30 6452 H 639.092 -0.898222 -1.83829 0
M  V30 6453 H 639.102 0.083632 -4.07914 0
M  V30 6454 H 637.777 -1.06719 -4.01975 0
M  V30 6455 H 636.354 0.72804 -3.65724 0
M  V30 6456 N 638.539 1.52521 -0.396863 0
M  V30 6457 C 639.764 2.06571 0.185258 0
M  V30 6458 C 640.189 1.26605 1.39115 0
M  V30 6459 O 639.547 0.293055 1.78916 0
M  V30 6460 C 639.595 3.5674 0.526189 0
M  V30 6461 O 638.699 3.7929 1.61903 0
M  V30 6462 H 638.04 0.663712 0.0195474 0
M  V30 6463 H 640.57 1.966 -0.566519 0
M  V30 6464 H 640.58 4.00311 0.788338 0
M  V30 6465 H 639.255 4.14379 -0.355397 0
M  V30 6466 H 637.832 3.47605 1.35 0
M  V30 6467 N 640.017 0.126909 1.57088 0
M  V30 6468 C 640.965 -0.837618 2.16995 0
M  V30 6469 C 641.959 -1.26974 1.12133 0
M  V30 6470 O 643.165 -1.24056 1.30423 0
M  V30 6471 H 639.54 -0.288256 0.694559 0
M  V30 6472 H 641.511 -0.307957 2.96807 0
M  V30 6473 C 640.26 -2.07474 2.79016 0
M  V30 6474 H 639.583 -1.75117 3.59408 0
M  V30 6475 H 641.023 -2.72949 3.24461 0
M  V30 6476 C 639.482 -2.86967 1.76498 0
M  V30 6477 O 640.012 -3.82625 1.22316 0
M  V30 6478 N 638.218 -2.51111 1.46258 0
M  V30 6479 H 637.765 -1.73389 1.90509 0
M  V30 6480 H 637.723 -3.04594 0.779085 0
M  V30 6481 N 641.495 -1.56914 -0.146875 0
M  V30 6482 C 642.723 -1.87515 -0.874394 0
M  V30 6483 C 643.138 -0.715116 -1.74733 0
M  V30 6484 O 642.495 0.315113 -1.79759 0
M  V30 6485 C 642.546 -3.17362 -1.731 0
M  V30 6486 O 642.267 -4.28897 -0.893245 0
M  V30 6487 C 643.768 -3.61479 -2.56609 0
M  V30 6488 H 640.988 -0.621546 -0.252827 0
M  V30 6489 H 643.532 -2.04023 -0.139627 0
M  V30 6490 H 641.687 -3.02608 -2.41883 0
M  V30 6491 H 642.101 -5.03146 -1.48137 0
M  V30 6492 H 643.575 -4.5517 -3.12289 0
M  V30 6493 H 644.052 -2.86773 -3.32653 0
M  V30 6494 H 644.658 -3.78927 -1.93117 0
M  V30 6495 N 642.974 0.416227 -1.52004 0
M  V30 6496 C 644.385 0.995319 -1.57957 0
M  V30 6497 C 644.736 1.91744 -0.415754 0
M  V30 6498 O 643.861 2.11349 0.464808 0
M  V30 6499 C 644.456 1.81191 -2.86278 0
M  V30 6500 C 643.015 2.34115 -2.94732 0
M  V30 6501 C 642.162 1.139 -2.52828 0
M  V30 6502 H 645.113 0.196716 -1.57476 0
M  V30 6503 H 645.134 2.66859 -2.71231 0
M  V30 6504 H 644.646 1.14051 -3.70963 0
M  V30 6505 H 642.747 3.04647 -2.14525 0
M  V30 6506 H 642.86 2.65466 -3.98829 0
M  V30 6507 H 641.224 1.49081 -2.06511 0
M  V30 6508 H 642.007 0.483383 -3.3988 0
M  V30 6509 N 644.452 1.42507 0.673017 0
M  V30 6510 C 645.382 1.48916 1.79851 0
M  V30 6511 C 646.363 0.345566 1.66553 0
M  V30 6512 O 647.548 0.560116 1.85947 0
M  V30 6513 C 644.678 1.39258 3.18158 0
M  V30 6514 C 643.632 2.51662 3.46194 0
M  V30 6515 C 642.958 2.27062 4.84094 0
M  V30 6516 C 644.258 3.93968 3.42909 0
M  V30 6517 H 645.952 2.43114 1.74745 0
M  V30 6518 H 643.498 1.17013 0.839288 0
M  V30 6519 H 645.451 1.42349 3.96629 0
M  V30 6520 H 644.175 0.415542 3.23946 0
M  V30 6521 H 642.834 2.47891 2.70084 0
M  V30 6522 H 642.482 1.27648 4.86534 0
M  V30 6523 H 642.182 3.02398 5.03815 0
M  V30 6524 H 643.706 2.31905 5.64847 0
M  V30 6525 H 645.12 3.99332 4.11347 0
M  V30 6526 H 643.517 4.6917 3.74165 0
M  V30 6527 H 644.587 4.20512 2.41449 0
M  V30 6528 N 645.93 -0.909495 1.28709 0
M  V30 6529 C 647.176 -1.66151 1.16283 0
M  V30 6530 C 647.509 -1.92067 -0.287069 0
M  V30 6531 O 646.784 -1.52409 -1.20837 0
M  V30 6532 C 647.067 -3.01676 1.9663 0
M  V30 6533 C 646.92 -2.82888 3.49707 0
M  V30 6534 C 648.239 -4.02274 1.78504 0
M  V30 6535 H 645.358 -0.602966 0.423793 0
M  V30 6536 H 648 -1.05418 1.58073 0
M  V30 6537 H 646.15 -3.53515 1.61119 0
M  V30 6538 H 647.822 -2.38026 3.95147 0
M  V30 6539 H 646.065 -2.17862 3.75125 0
M  V30 6540 H 646.736 -3.79147 4.01187 0
M  V30 6541 H 649.212 -3.59511 2.09503 0
M  V30 6542 H 648.088 -4.95056 2.37088 0
M  V30 6543 H 648.349 -4.35903 0.737647 0
M  V30 6544 N 647.408 -1.11026 -1.11852 0
M  V30 6545 C 648.824 -0.843294 -1.35502 0
M  V30 6546 C 649.024 0.534179 -1.9429 0
M  V30 6547 O 648.08 1.28585 -2.17307 0
M  V30 6548 C 649.393 -1.94793 -2.29077 0
M  V30 6549 C 650.941 -1.97709 -2.42652 0
M  V30 6550 C 651.416 -3.07364 -3.39546 0
M  V30 6551 N 652.907 -3.0671 -3.47107 0
M  V30 6552 C 653.642 -3.88197 -4.22008 0
M  V30 6553 N 653.138 -4.79635 -4.99922 0
M  V30 6554 N 654.931 -3.76391 -4.17476 0
M  V30 6555 H 647.082 -1.99805 -0.720538 0
M  V30 6556 H 649.345 -0.868633 -0.379711 0
M  V30 6557 H 649.051 -2.93971 -1.93065 0
M  V30 6558 H 648.925 -1.84039 -3.29256 0
M  V30 6559 H 651.312 -0.991604 -2.77941 0
M  V30 6560 H 651.393 -2.1254 -1.4234 0
M  V30 6561 H 651.037 -4.06136 -3.04985 0
M  V30 6562 H 650.967 -2.89774 -4.39703 0
M  V30 6563 H 653.458 -2.40457 -2.91528 0
M  V30 6564 H 653.771 -5.38357 -5.54429 0
M  V30 6565 H 652.116 -4.8366 -4.99097 0
M  V30 6566 H 655.307 -3.04303 -3.55693 0
M  V30 6567 H 655.48 -4.40131 -4.75593 0
M  V30 6568 N 648.886 1.2938 -0.899927 0
M  V30 6569 C 650.135 1.9483 -0.521937 0
M  V30 6570 C 650.448 1.71725 0.936473 0
M  V30 6571 O 651.654 2.31282 1.42199 0
M  V30 6572 C 650.11 3.48911 -0.88255 0
M  V30 6573 C 649.718 3.80815 -2.35974 0
M  V30 6574 C 651.462 4.20595 -0.57448 0
M  V30 6575 C 649.369 5.28142 -2.66121 0
M  V30 6576 H 648.299 0.729285 -0.191468 0
M  V30 6577 H 650.95 1.47103 -1.09695 0
M  V30 6578 H 649.332 3.95293 -0.236459 0
M  V30 6579 H 650.506 3.45291 -3.05141 0
M  V30 6580 H 648.821 3.22271 -2.63686 0
M  V30 6581 H 651.418 5.29031 -0.776556 0
M  V30 6582 H 651.761 4.13442 0.487005 0
M  V30 6583 H 652.294 3.79945 -1.17842 0
M  V30 6584 H 649.033 5.4036 -3.71068 0
M  V30 6585 H 648.553 5.64913 -2.01578 0
M  V30 6586 H 650.232 5.95738 -2.52399 0
M  V30 6587 N 650.364 0.662433 1.43002 0
M  V30 6588 C 651.327 -0.0142016 2.29196 0
M  V30 6589 C 652.327 -0.741394 1.42688 0
M  V30 6590 O 653.517 -0.581257 1.64216 0
M  V30 6591 C 650.649 -1.03084 3.24941 0
M  V30 6592 H 651.842 0.7443 2.90517 0
M  V30 6593 H 649.395 0.424133 1.50435 0
M  V30 6594 H 650.13 -1.81826 2.68533 0
M  V30 6595 H 649.915 -0.512946 3.8873 0
M  V30 6596 H 651.405 -1.50308 3.89612 0
M  V30 6597 N 651.842 -1.52309 0.404946 0
M  V30 6598 C 653.258 -1.59503 0.0556255 0
M  V30 6599 C 653.458 -1.41805 -1.43156 0
M  V30 6600 O 652.514 -1.2429 -2.19792 0
M  V30 6601 C 653.827 -2.95687 0.546801 0
M  V30 6602 C 655.375 -3.08909 0.504413 0
M  V30 6603 C 655.85 -4.47566 0.97203 0
M  V30 6604 N 657.341 -4.53795 0.928679 0
M  V30 6605 C 658.076 -5.59346 1.26174 0
M  V30 6606 N 657.572 -6.72469 1.66604 0
M  V30 6607 N 659.365 -5.49532 1.18198 0
M  V30 6608 H 651.516 -1.6206 1.37296 0
M  V30 6609 H 653.779 -0.762161 0.563751 0
M  V30 6610 H 653.485 -3.13905 1.58609 0
M  V30 6611 H 653.359 -3.77172 -0.0457905 0
M  V30 6612 H 655.746 -2.90378 -0.525819 0
M  V30 6613 H 655.827 -2.2934 1.13301 0
M  V30 6614 H 655.471 -4.6684 2.00057 0
M  V30 6615 H 655.401 -5.25625 0.320292 0
M  V30 6616 H 657.892 -3.72588 0.631369 0
M  V30 6617 H 658.205 -7.48993 1.9034 0
M  V30 6618 H 656.55 -6.73761 1.70504 0
M  V30 6619 H 659.741 -4.60038 0.865011 0
M  V30 6620 H 659.914 -6.31687 1.44485 0
M  V30 6621 N 653.32 -0.135238 -1.57019 0
M  V30 6622 C 654.25 0.805235 -2.19176 0
M  V30 6623 C 655.231 1.2656 -1.13651 0
M  V30 6624 O 656.416 1.32528 -1.4195 0
M  V30 6625 C 653.546 2.04914 -2.80406 0
M  V30 6626 C 652.5 1.72598 -3.91655 0
M  V30 6627 C 651.826 3.04154 -4.39766 0
M  V30 6628 C 653.126 0.981709 -5.12991 0
M  V30 6629 H 654.82 0.287232 -2.98019 0
M  V30 6630 H 652.366 0.136714 -1.4335 0
M  V30 6631 H 654.319 2.71178 -3.22553 0
M  V30 6632 H 653.043 2.59067 -1.98877 0
M  V30 6633 H 651.702 1.08717 -3.50109 0
M  V30 6634 H 651.35 3.56274 -3.55075 0
M  V30 6635 H 651.05 2.83299 -5.14796 0
M  V30 6636 H 652.574 3.71509 -4.84576 0
M  V30 6637 H 653.988 1.5462 -5.52056 0
M  V30 6638 H 652.385 0.873533 -5.93708 0
M  V30 6639 H 653.455 -0.0286887 -4.84892 0
M  V30 6640 N 654.798 1.5699 0.138552 0
M  V30 6641 C 656.023 1.88344 0.86841 0
M  V30 6642 C 656.448 0.725159 1.7356 0
M  V30 6643 O 655.806 -0.324992 1.78363 0
M  V30 6644 C 655.854 3.18334 1.69398 0
M  V30 6645 O 654.958 3.02863 2.79907 0
M  V30 6646 H 654.299 0.618577 0.241367 0
M  V30 6647 H 656.829 2.04207 0.126826 0
M  V30 6648 H 656.839 3.50567 2.08726 0
M  V30 6649 H 655.514 4.02238 1.05725 0
M  V30 6650 H 654.091 2.82056 2.43924 0
M  V30 6651 N 656.276 -0.40816 1.52223 0
M  V30 6652 C 657.501 -1.18127 1.70472 0
M  V30 6653 C 657.926 -1.83491 0.41384 0
M  V30 6654 O 657.284 -1.70047 -0.628778 0
M  V30 6655 C 657.332 -2.21935 2.84213 0
M  V30 6656 O 656.436 -3.28099 2.4985 0
M  V30 6657 H 655.777 -0.344781 0.56747 0
M  V30 6658 H 658.307 -0.478328 1.9893 0
M  V30 6659 H 658.317 -2.66248 3.09153 0
M  V30 6660 H 656.992 -1.73744 3.7787 0
M  V30 6661 H 655.569 -2.89058 2.35584 0
M  V30 6662 N 657.755 -1.42862 -0.66545 0
M  V30 6663 C 659.003 -1.43546 -1.42264 0
M  V30 6664 C 659.324 -0.0563116 -1.94919 0
M  V30 6665 O 658.594 0.906568 -1.73661 0
M  V30 6666 H 657.174 -0.528464 -0.527953 0
M  V30 6667 H 659.836 -1.78363 -0.785665 0
M  V30 6668 H 658.932 -2.14079 -2.27105 0
M  V30 6669 N 659.233 0.902656 -1.29189 0
M  V30 6670 C 660.143 2.03946 -1.15944 0
M  V30 6671 C 661.159 1.738 -0.0833803 0
M  V30 6672 O 662.335 1.9923 -0.29487 0
M  V30 6673 C 659.4 3.36519 -0.834006 0
M  V30 6674 C 658.461 3.80203 -1.9936 0
M  V30 6675 C 657.694 5.06449 -1.68359 0
M  V30 6676 O 657.917 5.67202 -0.603141 0
M  V30 6677 O 656.851 5.46114 -2.53067 0
M  V30 6678 H 660.677 2.18043 -2.11403 0
M  V30 6679 H 658.262 1.02584 -1.08613 0
M  V30 6680 H 660.144 4.16089 -0.666949 0
M  V30 6681 H 658.819 3.23573 0.0908245 0
M  V30 6682 H 657.726 3.01413 -2.21588 0
M  V30 6683 H 659.059 3.97729 -2.89952 0
M  V30 6684 N 660.711 1.11618 1.11262 0
M  V30 6685 C 661.959 0.864469 1.82678 0
M  V30 6686 C 662.28 -0.611564 1.85162 0
M  V30 6687 O 661.55 -1.44429 1.32352 0
M  V30 6688 H 660.13 0.316821 0.676486 0
M  V30 6689 H 662.792 1.40894 1.34666 0
M  V30 6690 H 661.888 1.23832 2.86482 0
M  V30 6691 N 662.189 -1.289 0.906776 0
M  V30 6692 C 663.6 -1.77336 0.58384 0
M  V30 6693 C 663.951 -1.74304 -0.900697 0
M  V30 6694 O 663.076 -1.33335 -1.70443 0
M  V30 6695 C 663.671 -3.22019 1.05304 0
M  V30 6696 C 662.23 -3.68205 0.781148 0
M  V30 6697 C 661.377 -2.48837 1.22373 0
M  V30 6698 H 664.328 -1.15462 1.08877 0
M  V30 6699 H 664.349 -3.78481 0.391414 0
M  V30 6700 H 663.861 -3.24194 2.13353 0
M  V30 6701 H 661.962 -3.71497 -0.28643 0
M  V30 6702 H 662.075 -4.58675 1.384 0
M  V30 6703 H 660.439 -2.46461 0.642594 0
M  V30 6704 H 661.222 -2.53736 2.31242 0
M  V30 6705 N 663.667 -0.670007 -1.42649 0
M  V30 6706 C 664.895 -0.19854 -2.05945 0
M  V30 6707 C 665.31 1.14243 -1.50313 0
M  V30 6708 O 664.667 1.70872 -0.641027 0
M  V30 6709 C 664.718 -0.11966 -3.61302 0
M  V30 6710 O 664.439 -1.40764 -4.1487 0
M  V30 6711 C 665.94 0.375878 -4.41704 0
M  V30 6712 H 663.16 -0.0976894 -0.663851 0
M  V30 6713 H 665.704 -0.915392 -1.82868 0
M  V30 6714 H 663.859 0.547851 -3.83507 0
M  V30 6715 H 664.273 -1.27784 -5.08696 0
M  V30 6716 H 665.747 0.379988 -5.50691 0
M  V30 6717 H 666.224 1.41028 -4.15942 0
M  V30 6718 H 666.83 -0.259727 -4.24506 0
M  V30 6719 N 665.145 1.52092 -0.413018 0
M  V30 6720 C 666.075 2.30021 0.401567 0
M  V30 6721 C 667.056 1.34395 1.04269 0
M  V30 6722 O 668.241 1.63304 1.05097 0
M  V30 6723 C 665.371 3.12447 1.51638 0
M  V30 6724 C 664.325 4.16153 1.00005 0
M  V30 6725 C 663.651 4.86948 2.20875 0
M  V30 6726 C 664.951 5.22275 0.0513757 0
M  V30 6727 H 666.645 2.98365 -0.248704 0
M  V30 6728 H 664.191 1.4349 -0.121052 0
M  V30 6729 H 666.144 3.65733 2.09326 0
M  V30 6730 H 664.868 2.41879 2.19458 0
M  V30 6731 H 663.527 3.63882 0.445549 0
M  V30 6732 H 663.175 4.12905 2.8726 0
M  V30 6733 H 662.875 5.57057 1.86978 0
M  V30 6734 H 664.399 5.43048 2.79162 0
M  V30 6735 H 665.813 5.70778 0.537176 0
M  V30 6736 H 664.21 5.9977 -0.198977 0
M  V30 6737 H 665.28 4.76611 -0.892736 0
M  V30 6738 N 666.623 0.143563 1.56945 0
M  V30 6739 C 667.586 -0.783295 2.154 0
M  V30 6740 C 668.586 -1.17763 1.09492 0
M  V30 6741 O 669.776 -1.09912 1.35148 0
M  V30 6742 C 666.908 -2.06248 2.7143 0
M  V30 6743 H 668.101 -0.274863 2.98638 0
M  V30 6744 H 665.654 -0.105859 1.55941 0
M  V30 6745 H 666.389 -2.61466 1.91849 0
M  V30 6746 H 666.174 -1.78897 3.4891 0
M  V30 6747 H 667.664 -2.72453 3.16479 0
M  V30 6748 N 668.101 -1.57061 -0.130224 0
M  V30 6749 C 669.049 -2.00486 -1.17933 0
M  V30 6750 C 670.043 -0.899933 -1.43519 0
M  V30 6751 O 671.249 -1.08514 -1.43613 0
M  V30 6752 H 667.624 -0.638441 -0.397363 0
M  V30 6753 H 669.595 -2.87848 -0.786501 0
M  V30 6754 C 668.344 -2.41565 -2.50084 0
M  V30 6755 H 667.667 -3.26148 -2.31231 0
M  V30 6756 H 669.107 -2.75757 -3.22078 0
M  V30 6757 C 667.566 -1.27485 -3.11848 0
M  V30 6758 O 668.096 -0.584688 -3.97422 0
M  V30 6759 N 666.302 -1.03478 -2.71552 0
M  V30 6760 H 665.849 -1.59779 -2.02061 0
M  V30 6761 H 665.807 -0.27341 -3.13209 0
M  V30 6762 N 669.579 0.400081 -1.52437 0
M  V30 6763 C 670.825 1.14788 -1.67187 0
M  V30 6764 C 671.158 1.89928 -0.405074 0
M  V30 6765 O 670.433 1.85118 0.596804 0
M  V30 6766 C 670.716 2.13507 -2.89977 0
M  V30 6767 C 670.569 1.42204 -4.2673 0
M  V30 6768 C 671.888 3.14069 -3.083 0
M  V30 6769 H 669.007 0.415939 -0.608411 0
M  V30 6770 H 671.649 0.432542 -1.85011 0
M  V30 6771 H 669.799 2.7451 -2.74912 0
M  V30 6772 H 671.471 0.842503 -4.53541 0
M  V30 6773 H 669.714 0.723939 -4.27717 0
M  V30 6774 H 670.385 2.14281 -5.08712 0
M  V30 6775 H 672.861 2.63148 -3.22323 0
M  V30 6776 H 671.737 3.80398 -3.95713 0
M  V30 6777 H 671.998 3.82309 -2.22018 0
M  V30 6778 N 671.057 1.43213 0.657864 0
M  V30 6779 C 672.282 1.48227 1.45064 0
M  V30 6780 C 672.707 0.0999939 1.87834 0
M  V30 6781 O 672.065 -0.905269 1.57081 0
M  V30 6782 C 672.113 2.42931 2.6649 0
M  V30 6783 O 671.217 1.91237 3.6538 0
M  V30 6784 H 670.558 0.501551 0.435135 0
M  V30 6785 H 673.088 1.8808 0.805431 0
M  V30 6786 H 673.098 2.6008 3.1436 0
M  V30 6787 H 671.773 3.43348 2.34701 0
M  V30 6788 H 670.35 1.83726 3.24498 0
M  V30 6789 N 672.536 -0.895792 1.29666 0
M  V30 6790 C 673.446 -2.03329 1.17024 0
M  V30 6791 C 674.462 -1.73753 0.0925962 0
M  V30 6792 O 675.638 -1.99071 0.305431 0
M  V30 6793 C 672.703 -3.36072 0.851841 0
M  V30 6794 C 671.764 -3.7914 2.01373 0
M  V30 6795 C 670.997 -5.05549 1.71043 0
M  V30 6796 O 671.22 -5.66874 0.633213 0
M  V30 6797 O 670.154 -5.44764 2.5596 0
M  V30 6798 H 673.98 -2.16918 2.12556 0
M  V30 6799 H 671.565 -1.02007 1.09156 0
M  V30 6800 H 673.447 -4.15729 0.689006 0
M  V30 6801 H 672.122 -3.23616 -0.0736634 0
M  V30 6802 H 671.029 -3.00233 2.23183 0
M  V30 6803 H 672.362 -3.96186 2.92058 0
M  V30 6804 N 674.014 -1.12206 -1.10668 0
M  V30 6805 C 674.944 -0.810086 -2.18997 0
M  V30 6806 C 675.925 0.225065 -1.68604 0
M  V30 6807 O 677.11 0.086783 -1.94006 0
M  V30 6808 C 674.24 -0.261262 -3.46316 0
M  V30 6809 C 673.194 -1.2292 -4.09969 0
M  V30 6810 C 672.52 -0.540713 -5.31959 0
M  V30 6811 C 673.82 -2.58295 -4.53962 0
M  V30 6812 H 675.514 -1.7159 -2.45352 0
M  V30 6813 H 673.06 -0.82646 -1.17922 0
M  V30 6814 H 675.013 -0.0307522 -4.21389 0
M  V30 6815 H 673.737 0.679879 -3.19445 0
M  V30 6816 H 672.396 -1.44548 -3.369 0
M  V30 6817 H 672.044 0.405492 -5.01363 0
M  V30 6818 H 671.744 -1.18637 -5.75499 0
M  V30 6819 H 673.268 -0.319184 -6.09765 0
M  V30 6820 H 674.682 -2.40709 -5.20319 0
M  V30 6821 H 673.079 -3.18916 -5.08343 0
M  V30 6822 H 674.149 -3.16918 -3.67002 0
M  V30 6823 N 675.492 1.28418 -0.913599 0
M  V30 6824 C 676.402 2.31043 -0.406965 0
M  V30 6825 C 677.418 1.66501 0.505298 0
M  V30 6826 O 678.594 1.97558 0.391522 0
M  V30 6827 C 675.659 3.4498 0.344901 0
M  V30 6828 C 674.72 4.25078 -0.600563 0
M  V30 6829 C 673.953 5.33575 0.115516 0
M  V30 6830 O 674.176 5.54503 1.33727 0
M  V30 6831 O 673.11 5.9939 -0.549095 0
M  V30 6832 H 676.936 2.76387 -1.25873 0
M  V30 6833 H 674.521 1.33109 -0.678415 0
M  V30 6834 H 676.403 4.14314 0.769542 0
M  V30 6835 H 675.078 3.01719 1.1725 0
M  V30 6836 H 673.985 3.58334 -1.0746 0
M  V30 6837 H 675.318 4.72018 -1.39497 0
M  V30 6838 N 676.97 0.677563 1.42291 0
M  V30 6839 C 677.9 0.014968 2.33495 0
M  V30 6840 C 678.881 -0.786376 1.50831 0
M  V30 6841 O 680.066 -0.742975 1.79426 0
M  V30 6842 C 677.196 -0.935023 3.34477 0
M  V30 6843 C 676.15 -0.242074 4.27315 0
M  V30 6844 C 675.476 -1.30519 5.18526 0
M  V30 6845 C 676.776 0.880604 5.14823 0
M  V30 6846 H 678.47 0.776671 2.89151 0
M  V30 6847 H 676.016 0.37494 1.39033 0
M  V30 6848 H 677.969 -1.40766 3.97194 0
M  V30 6849 H 676.693 -1.72818 2.77131 0
M  V30 6850 H 675.352 0.210351 3.65996 0
M  V30 6851 H 675 -2.09041 4.57505 0
M  V30 6852 H 674.7 -0.846652 5.81468 0
M  V30 6853 H 676.224 -1.7787 5.84119 0
M  V30 6854 H 677.638 0.489062 5.7121 0
M  V30 6855 H 676.035 1.26511 5.86613 0
M  V30 6856 H 677.105 1.72818 4.53059 0
M  V30 6857 N 678.448 -1.51871 0.421078 0
M  V30 6858 C 679.859 -1.86644 -0.0457991 0
M  V30 6859 C 680.21 -1.33919 -1.43388 0
M  V30 6860 O 679.335 -0.683316 -2.05328 0
M  V30 6861 C 679.93 -3.38681 -0.0898844 0
M  V30 6862 C 678.489 -3.73049 -0.501127 0
M  V30 6863 C 677.636 -2.75485 0.316723 0
M  V30 6864 H 680.587 -1.45327 0.637635 0
M  V30 6865 H 680.608 -3.69636 -0.902734 0
M  V30 6866 H 680.12 -3.77025 0.920513 0
M  V30 6867 H 678.221 -3.40288 -1.51773 0
M  V30 6868 H 678.334 -4.78512 -0.237217 0
M  V30 6869 H 676.698 -2.53725 -0.222663 0
M  V30 6870 H 677.481 -3.16671 1.32569 0
M  V30 6871 N 679.926 -0.151884 -1.56866 0
M  V30 6872 C 680.889 0.771861 -2.15812 0
M  V30 6873 C 681.889 1.17181 -1.10115 0
M  V30 6874 O 683.079 1.09194 -1.35729 0
M  V30 6875 C 680.211 2.04806 -2.7252 0
M  V30 6876 H 681.404 0.259021 -2.98779 0
M  V30 6877 H 678.957 0.097588 -1.55995 0
M  V30 6878 H 679.692 2.60445 -1.93233 0
M  V30 6879 H 679.477 1.77044 -3.49854 0
M  V30 6880 H 680.967 2.70771 -3.1792 0
M  V30 6881 N 681.404 1.57128 0.121893 0
M  V30 6882 C 682.681 1.75664 0.860327 0
M  V30 6883 C 683.061 0.726585 1.98202 0
M  V30 6884 O 682.409 -0.24999 2.27128 0
M  V30 6885 C 682.619 3.20571 1.37968 0
M  V30 6886 C 683.967 3.82988 1.83317 0
M  V30 6887 O 684.991 3.24156 1.47654 0
M  V30 6888 O 683.85 4.86393 2.49168 0
M  V30 6889 H 680.944 0.719153 0.408348 0
M  V30 6890 H 683.49 1.6937 0.105859 0
M  V30 6891 H 682.262 3.87056 0.57477 0
M  V30 6892 H 681.885 3.31392 2.19694 0
M  V30 6893 N 682.882 -0.391992 1.52647 0
M  V30 6894 C 684.293 -0.970064 1.5952 0
M  V30 6895 C 684.644 -1.91059 0.446207 0
M  V30 6896 O 683.769 -2.12062 -0.431125 0
M  V30 6897 C 684.364 -1.76614 2.89125 0
M  V30 6898 C 682.923 -2.29396 2.9842 0
M  V30 6899 C 682.07 -1.09864 2.54608 0
M  V30 6900 H 685.021 -0.171638 1.57769 0
M  V30 6901 H 685.042 -2.62511 2.75442 0
M  V30 6902 H 684.554 -1.08135 3.72731 0
M  V30 6903 H 682.655 -3.01196 2.19344 0
M  V30 6904 H 682.768 -2.59088 4.03002 0
M  V30 6905 H 681.132 -1.45777 2.08857 0
M  V30 6906 H 681.915 -0.429249 3.40606 0
M  V30 6907 N 684.36 -1.4356 -0.65026 0
M  V30 6908 C 685.307 -1.48948 -1.76304 0
M  V30 6909 C 686.277 -0.338919 -1.62605 0
M  V30 6910 O 687.462 -0.54649 -1.82806 0
M  V30 6911 C 684.602 -1.42131 -3.14472 0
M  V30 6912 C 683.715 -2.67415 -3.39284 0
M  V30 6913 C 682.85 -2.52565 -4.67316 0
M  V30 6914 C 681.889 -3.73103 -4.85243 0
M  V30 6915 N 681.026 -3.57046 -6.04535 0
M  V30 6916 H 685.866 -2.44032 -1.71034 0
M  V30 6917 H 683.403 -1.21131 -0.834601 0
M  V30 6918 H 685.361 -1.36172 -3.94351 0
M  V30 6919 H 683.991 -0.506273 -3.18805 0
M  V30 6920 H 683.043 -2.8364 -2.53481 0
M  V30 6921 H 684.355 -3.56943 -3.48415 0
M  V30 6922 H 683.509 -2.44331 -5.55326 0
M  V30 6923 H 682.248 -1.60566 -4.60511 0
M  V30 6924 H 681.253 -3.81743 -3.95667 0
M  V30 6925 H 682.478 -4.66115 -4.93876 0
M  V30 6926 H 680.424 -2.67783 -5.98856 0
M  V30 6927 H 680.341 -4.40178 -6.14638 0
M  V30 6928 H 681.609 -3.52669 -6.95158 0
M  V30 6929 N 685.838 0.888903 -1.30139 0
M  V30 6930 C 687.084 1.64288 -1.19922 0
M  V30 6931 C 687.439 1.90839 0.244561 0
M  V30 6932 O 686.732 1.51544 1.17239 0
M  V30 6933 C 686.926 2.99041 -1.95728 0
M  V30 6934 C 686.755 2.85644 -3.47329 0
M  V30 6935 C 685.525 2.85836 -4.16685 0
M  V30 6936 C 687.723 2.6188 -4.42632 0
M  V30 6937 N 685.705 2.63289 -5.54574 0
M  V30 6938 C 687.076 2.48418 -5.68057 0
M  V30 6939 C 689.131 2.47073 -4.32272 0
M  V30 6940 C 687.834 2.21655 -6.84296 0
M  V30 6941 C 689.86 2.21695 -5.48275 0
M  V30 6942 C 689.222 2.09007 -6.72678 0
M  V30 6943 H 685.321 0.606315 -0.493868 0
M  V30 6944 H 687.905 1.0478 -1.64102 0
M  V30 6945 H 686.076 3.56589 -1.53945 0
M  V30 6946 H 687.808 3.63607 -1.77685 0
M  V30 6947 H 684.563 2.97521 -3.68481 0
M  V30 6948 H 684.987 2.55039 -6.27124 0
M  V30 6949 H 689.629 2.55621 -3.36776 0
M  V30 6950 H 687.347 2.11845 -7.79838 0
M  V30 6951 H 690.933 2.11067 -5.42164 0
M  V30 6952 H 689.813 1.89643 -7.60924 0
M  V30 6953 N 687.317 1.12792 1.10072 0
M  V30 6954 C 688.227 0.812369 2.20086 0
M  V30 6955 C 689.243 -0.200349 1.72843 0
M  V30 6956 O 690.419 -0.0330262 2.01373 0
M  V30 6957 C 687.484 0.275685 3.45602 0
M  V30 6958 C 686.545 1.34881 4.07561 0
M  V30 6959 C 685.778 0.837639 5.27086 0
M  V30 6960 O 686.001 -0.327224 5.69461 0
M  V30 6961 O 684.935 1.60894 5.79997 0
M  V30 6962 H 688.761 1.73133 2.49517 0
M  V30 6963 H 686.346 0.904863 1.18881 0
M  V30 6964 H 688.228 -0.0185375 4.21396 0
M  V30 6965 H 686.903 -0.615783 3.17789 0
M  V30 6966 H 685.81 1.69625 3.33434 0
M  V30 6967 H 687.143 2.21418 4.39585 0
M  V30 6968 N 688.795 -1.27931 0.920396 0
M  V30 6969 C 689.725 -2.29487 0.431024 0
M  V30 6970 C 690.706 -1.62435 -0.504861 0
M  V30 6971 O 691.891 -1.89797 -0.411176 0
M  V30 6972 C 689.021 -3.45788 -0.323709 0
M  V30 6973 C 687.975 -4.24784 0.523658 0
M  V30 6974 C 687.301 -5.33488 -0.359809 0
M  V30 6975 C 688.601 -4.90874 1.78437 0
M  V30 6976 H 690.295 -2.70671 1.27975 0
M  V30 6977 H 687.841 -1.30121 0.616813 0
M  V30 6978 H 689.794 -4.15927 -0.676952 0
M  V30 6979 H 688.518 -3.03502 -1.2064 0
M  V30 6980 H 687.177 -3.56382 0.85951 0
M  V30 6981 H 686.825 -4.87445 -1.24124 0
M  V30 6982 H 686.525 -5.87247 0.203605 0
M  V30 6983 H 688.049 -6.06472 -0.708787 0
M  V30 6984 H 689.463 -5.53339 1.49963 0
M  V30 6985 H 687.86 -5.54659 2.29071 0
M  V30 6986 H 688.93 -4.14988 2.50824 0
M  V30 6987 N 690.273 -0.685099 -1.4193 0
M  V30 6988 C 691.498 -0.218842 -2.06242 0
M  V30 6989 C 691.923 1.11923 -1.51178 0
M  V30 6990 O 691.281 1.69837 -0.634446 0
M  V30 6991 C 691.329 -0.175592 -3.60172 0
M  V30 6992 O 690.433 0.852776 -4.03487 0
M  V30 6993 H 689.774 -0.109531 -0.654904 0
M  V30 6994 H 692.304 -0.937013 -1.81882 0
M  V30 6995 H 692.314 -0.00291151 -4.08 0
M  V30 6996 H 690.989 -1.15222 -3.99621 0
M  V30 6997 H 689.566 0.650301 -3.67186 0
M  V30 6998 N 691.751 1.51645 -0.429126 0
M  V30 6999 C 693.167 1.59394 -0.080994 0
M  V30 7000 C 693.367 1.44064 1.40882 0
M  V30 7001 O 692.423 1.27771 2.17786 0
M  V30 7002 C 693.736 2.94779 -0.593773 0
M  V30 7003 C 695.284 3.08067 -0.553494 0
M  V30 7004 C 695.759 4.45963 -1.04311 0
M  V30 7005 N 697.25 4.5226 -1.00076 0
M  V30 7006 C 697.985 5.57268 -1.35056 0
M  V30 7007 N 697.481 6.69734 -1.77282 0
M  V30 7008 N 699.274 5.47582 -1.26925 0
M  V30 7009 H 691.425 1.59856 -1.39857 0
M  V30 7010 H 693.688 0.753095 -0.575805 0
M  V30 7011 H 693.394 3.11342 -1.63583 0
M  V30 7012 H 693.268 3.77197 -0.0142202 0
M  V30 7013 H 695.655 2.91177 0.479556 0
M  V30 7014 H 695.736 2.27508 -1.16935 0
M  V30 7015 H 695.38 4.63598 -2.07459 0
M  V30 7016 H 695.31 5.25049 -0.403873 0
M  V30 7017 H 697.801 3.71537 -0.690564 0
M  V30 7018 H 698.114 7.4587 -2.02232 0
M  V30 7019 H 696.459 6.70963 -1.81202 0
M  V30 7020 H 699.65 4.58604 -0.93809 0
M  V30 7021 H 699.823 6.29308 -1.54516 0
M  V30 7022 N 693.229 0.160201 1.56784 0
M  V30 7023 C 694.192 -0.760405 2.16219 0
M  V30 7024 C 695.192 -1.16595 1.10735 0
M  V30 7025 O 696.382 -1.08472 1.36306 0
M  V30 7026 C 693.514 -2.03358 2.73603 0
M  V30 7027 H 694.707 -0.243173 2.98912 0
M  V30 7028 H 692.26 -0.0893139 1.56045 0
M  V30 7029 H 692.995 -2.59416 1.94612 0
M  V30 7030 H 692.78 -1.75186 3.50788 0
M  V30 7031 H 694.27 -2.69081 3.19351 0
M  V30 7032 N 694.707 -1.5719 -0.113559 0
M  V30 7033 C 696.123 -1.52607 -0.467253 0
M  V30 7034 C 696.323 -0.874058 -1.81556 0
M  V30 7035 O 695.379 -0.458703 -2.48299 0
M  V30 7036 C 696.692 -2.97363 -0.446736 0
M  V30 7037 C 698.24 -3.08482 -0.529903 0
M  V30 7038 C 698.715 -4.54809 -0.539721 0
M  V30 7039 N 700.206 -4.59284 -0.601005 0
M  V30 7040 C 700.941 -5.69927 -0.630138 0
M  V30 7041 N 700.437 -6.90051 -0.616589 0
M  V30 7042 N 702.23 -5.5805 -0.673558 0
M  V30 7043 H 694.381 -1.97958 0.769819 0
M  V30 7044 H 696.644 -0.90428 0.284572 0
M  V30 7045 H 696.35 -3.48458 0.47643 0
M  V30 7046 H 696.224 -3.55086 -1.27254 0
M  V30 7047 H 698.611 -2.57386 -1.44349 0
M  V30 7048 H 698.692 -2.53744 0.323695 0
M  V30 7049 H 698.336 -5.06552 0.369843 0
M  V30 7050 H 698.266 -5.07364 -1.41028 0
M  V30 7051 H 700.757 -3.72822 -0.617419 0
M  V30 7052 H 701.07 -7.70132 -0.641592 0
M  V30 7053 H 699.415 -6.92543 -0.583927 0
M  V30 7054 H 702.606 -4.63112 -0.681544 0
M  V30 7055 H 702.779 -6.44286 -0.692794 0
M  V30 7056 N 696.185 0.383891 -1.52853 0
M  V30 7057 C 697.115 1.47559 -1.80965 0
M  V30 7058 C 698.096 1.5669 -0.661986 0
M  V30 7059 O 699.281 1.71556 -0.910072 0
M  V30 7060 C 696.411 2.85114 -1.98312 0
M  V30 7061 C 695.365 2.9082 -3.14019 0
M  V30 7062 C 694.691 4.30873 -3.16627 0
M  V30 7063 C 695.991 2.60001 -4.52986 0
M  V30 7064 H 697.685 1.24283 -2.72386 0
M  V30 7065 H 695.231 0.596445 -1.31067 0
M  V30 7066 H 697.184 3.61496 -2.16561 0
M  V30 7067 H 695.908 3.09738 -1.03585 0
M  V30 7068 H 694.567 2.16886 -2.9556 0
M  V30 7069 H 694.215 4.52545 -2.19573 0
M  V30 7070 H 693.915 4.3561 -3.94357 0
M  V30 7071 H 695.439 5.09154 -3.37038 0
M  V30 7072 H 696.853 3.261 -4.71521 0
M  V30 7073 H 695.25 2.76081 -5.32822 0
M  V30 7074 H 696.32 1.5532 -4.59351 0
M  V30 7075 N 697.663 1.43903 0.642637 0
M  V30 7076 C 698.891 1.4954 1.42988 0
M  V30 7077 C 699.306 0.116588 1.8844 0
M  V30 7078 O 698.663 -0.875285 1.60141 0
M  V30 7079 C 698.714 2.45031 2.65785 0
M  V30 7080 O 698.435 3.77551 2.22232 0
M  V30 7081 C 699.936 2.60017 3.59035 0
M  V30 7082 H 697.156 0.507544 0.438907 0
M  V30 7083 H 699.7 1.88752 0.786942 0
M  V30 7084 H 697.855 2.08985 3.26196 0
M  V30 7085 H 698.269 4.29001 3.01759 0
M  V30 7086 H 699.743 3.30887 4.41835 0
M  V30 7087 H 700.22 1.64861 4.07084 0
M  V30 7088 H 700.826 2.96918 3.045 0
M  V30 7089 N 699.141 -0.881989 1.30609 0
M  V30 7090 C 700.071 -2.00413 1.1982 0
M  V30 7091 C 701.052 -1.69871 0.0881538 0
M  V30 7092 O 702.237 -1.92304 0.2707 0
M  V30 7093 C 699.367 -3.35641 0.89233 0
M  V30 7094 C 698.321 -3.80451 1.96064 0
M  V30 7095 C 697.647 -5.13003 1.5077 0
M  V30 7096 C 698.947 -3.98855 3.37213 0
M  V30 7097 H 700.641 -2.09698 2.13699 0
M  V30 7098 H 698.187 -1.00754 1.02882 0
M  V30 7099 H 700.14 -4.13669 0.803497 0
M  V30 7100 H 698.864 -3.26497 -0.0821381 0
M  V30 7101 H 697.523 -3.04654 2.03916 0
M  V30 7102 H 697.171 -5.0029 0.521417 0
M  V30 7103 H 696.871 -5.43956 2.22229 0
M  V30 7104 H 698.395 -5.93554 1.43271 0
M  V30 7105 H 699.809 -4.67312 3.32103 0
M  V30 7106 H 698.206 -4.41188 4.06784 0
M  V30 7107 H 699.276 -3.02614 3.78883 0
M  V30 7108 N 700.619 -1.13374 -1.09472 0
M  V30 7109 C 701.867 -0.893422 -1.8128 0
M  V30 7110 C 702.188 0.582029 -1.86111 0
M  V30 7111 O 701.458 1.42305 -1.34633 0
M  V30 7112 H 700.038 -0.327543 -0.67136 0
M  V30 7113 H 702.7 -1.43018 -1.32408 0
M  V30 7114 H 701.796 -1.28374 -2.84476 0
M  V30 7115 N 702.098 1.27442 -0.927168 0
M  V30 7116 C 703.045 2.26863 -0.424459 0
M  V30 7117 C 704.015 1.5813 0.508346 0
M  V30 7118 O 705.2 1.85946 0.42762 0
M  V30 7119 C 702.34 3.43639 0.31718 0
M  V30 7120 C 701.453 4.27087 -0.649675 0
M  V30 7121 C 700.588 5.31082 0.111753 0
M  V30 7122 C 699.627 6.062 -0.847843 0
M  V30 7123 N 698.764 7.01999 -0.119074 0
M  V30 7124 H 703.604 2.69239 -1.27728 0
M  V30 7125 H 701.141 1.32394 -0.641106 0
M  V30 7126 H 703.099 4.10155 0.763486 0
M  V30 7127 H 701.729 3.02217 1.13424 0
M  V30 7128 H 700.781 3.60491 -1.21451 0
M  V30 7129 H 702.093 4.79242 -1.38307 0
M  V30 7130 H 701.247 6.03544 0.618 0
M  V30 7131 H 699.986 4.7973 0.878114 0
M  V30 7132 H 698.991 5.32577 -1.36534 0
M  V30 7133 H 700.216 6.59642 -1.61398 0
M  V30 7134 H 698.162 6.52977 0.629051 0
M  V30 7135 H 698.079 7.5184 -0.792046 0
M  V30 7136 H 699.347 7.78638 0.366537 0
M  V30 7137 N 703.576 0.692616 1.41565 0
M  V30 7138 C 704.987 0.297478 1.84315 0
M  V30 7139 C 705.338 -1.16379 1.57957 0
M  V30 7140 O 704.463 -1.89303 1.0485 0
M  V30 7141 C 705.058 0.533136 3.34579 0
M  V30 7142 C 703.617 0.191944 3.7591 0
M  V30 7143 C 702.764 0.816873 2.64995 0
M  V30 7144 H 705.715 0.893488 1.31158 0
M  V30 7145 H 705.736 -0.209105 3.79925 0
M  V30 7146 H 705.248 1.59674 3.53731 0
M  V30 7147 H 703.349 -0.867512 3.6236 0
M  V30 7148 H 703.462 0.644902 4.7474 0
M  V30 7149 H 701.826 0.246715 2.53502 0
M  V30 7150 H 702.609 1.88429 2.86966 0
M  V30 7151 N 705.054 -1.51416 0.437162 0
M  V30 7152 C 705.984 -2.30631 -0.364922 0
M  V30 7153 C 706.965 -1.36037 -1.02118 0
M  V30 7154 O 708.15 -1.64956 -1.02485 0
M  V30 7155 C 705.28 -3.1482 -1.46648 0
M  V30 7156 C 704.234 -4.17691 -0.933717 0
M  V30 7157 C 703.56 -4.904 -2.13101 0
M  V30 7158 C 704.86 -5.2229 0.0317201 0
M  V30 7159 H 706.554 -2.97932 0.29614 0
M  V30 7160 H 704.1 -1.4328 0.143865 0
M  V30 7161 H 706.053 -3.69017 -2.03481 0
M  V30 7162 H 704.777 -2.4534 -2.15583 0
M  V30 7163 H 703.436 -3.64545 -0.387602 0
M  V30 7164 H 703.084 -4.17423 -2.80654 0
M  V30 7165 H 702.784 -5.59962 -1.78092 0
M  V30 7166 H 704.308 -5.4742 -2.70487 0
M  V30 7167 H 705.722 -5.7156 -0.446302 0
M  V30 7168 H 704.119 -5.99378 0.29437 0
M  V30 7169 H 705.189 -4.75131 0.968447 0
M  V30 7170 N 706.532 -0.168513 -1.56696 0
M  V30 7171 C 707.78 0.476216 -1.96409 0
M  V30 7172 C 708.101 1.63968 -1.05544 0
M  V30 7173 O 707.371 1.95525 -0.121235 0
M  V30 7174 H 705.951 0.178921 -0.725256 0
M  V30 7175 H 708.613 -0.249042 -1.93302 0
M  V30 7176 H 707.709 0.838094 -3.00637 0
M  V30 7177 N 708.01 1.57248 0.105221 0
M  V30 7178 C 708.92 2.04653 1.14693 0
M  V30 7179 C 709.936 0.969488 1.44489 0
M  V30 7180 O 711.112 1.28196 1.55331 0
M  V30 7181 C 708.177 2.45297 2.45011 0
M  V30 7182 C 707.238 3.67148 2.22489 0
M  V30 7183 C 706.471 4.05844 3.46592 0
M  V30 7184 O 706.694 3.44736 4.54437 0
M  V30 7185 O 705.628 4.98862 3.36779 0
M  V30 7186 H 709.454 2.93663 0.774336 0
M  V30 7187 H 707.039 1.45998 0.31701 0
M  V30 7188 H 708.921 2.72112 3.21766 0
M  V30 7189 H 707.596 1.59429 2.81717 0
M  V30 7190 H 706.503 3.45463 1.43547 0
M  V30 7191 H 707.836 4.53764 1.9068 0
M  V30 7192 N 709.488 -0.375779 1.53054 0
M  V30 7193 C 710.736 -1.11727 1.68409 0
M  V30 7194 C 711.057 -1.90127 0.43323 0
M  V30 7195 O 710.327 -1.87945 -0.552595 0
M  V30 7196 H 708.907 -0.415451 0.620813 0
M  V30 7197 H 711.569 -0.424869 1.90213 0
M  V30 7198 H 710.665 -1.8128 2.54055 0
M  V30 7199 N 710.966 -1.44241 -0.634997 0
M  V30 7200 C 712.206 -1.48339 -1.40623 0
M  V30 7201 C 712.57 -0.111479 -1.91676 0
M  V30 7202 O 713.771 -0.0271345 -2.68786 0
M  V30 7203 C 712.042 -2.51122 -2.54308 0
M  V30 7204 S 713.601 -2.74237 -3.42548 0
M  V30 7205 H 710.419 -0.524715 -0.479787 0
M  V30 7206 H 713.021 -1.81138 -0.735489 0
M  V30 7207 H 711.725 -3.49511 -2.15106 0
M  V30 7208 H 711.256 -2.19883 -3.26213 0
M  V30 7209 H 713.271 -2.0554 -4.51628 0
M  V30 7210 N 712.444 0.87505 -1.31075 0
M  V30 7211 C 713.691 1.62768 -1.20469 0
M  V30 7212 C 714.019 1.93034 0.23834 0
M  V30 7213 O 713.274 1.55693 1.18567 0
M  V30 7214 C 713.573 2.96948 -1.98888 0
M  V30 7215 C 713.239 2.86195 -3.4843 0
M  V30 7216 C 711.901 2.82969 -3.89207 0
M  V30 7217 C 714.253 2.73599 -4.43614 0
M  V30 7218 C 711.581 2.64999 -5.23443 0
M  V30 7219 C 713.933 2.57166 -5.77969 0
M  V30 7220 C 712.597 2.52321 -6.17973 0
M  V30 7221 H 711.867 0.595611 -0.440827 0
M  V30 7222 H 714.514 1.01665 -1.62285 0
M  V30 7223 H 712.819 3.62058 -1.49737 0
M  V30 7224 H 714.516 3.54164 -1.88067 0
M  V30 7225 H 711.106 2.8952 -3.16032 0
M  V30 7226 H 715.29 2.7515 -4.13045 0
M  V30 7227 H 710.546 2.5967 -5.53517 0
M  V30 7228 H 714.72 2.46396 -6.51354 0
M  V30 7229 H 712.347 2.38156 -7.21932 0
M  V30 7230 N 713.922 1.13953 1.08869 0
M  V30 7231 C 715.17 0.903023 1.80803 0
M  V30 7232 C 715.491 -0.572151 1.86417 0
M  V30 7233 O 714.761 -1.41589 1.35386 0
M  V30 7234 H 713.341 0.331099 0.669614 0
M  V30 7235 H 716.003 1.43719 1.31647 0
M  V30 7236 H 715.099 1.29881 2.83791 0
M  V30 7237 N 715.4 -1.26948 0.933913 0
M  V30 7238 C 716.332 -2.25768 0.395137 0
M  V30 7239 C 717.345 -1.55637 -0.477585 0
M  V30 7240 O 718.534 -1.76142 -0.289204 0
M  V30 7241 C 715.634 -3.35874 -0.451882 0
M  V30 7242 C 714.807 -4.3554 0.40299 0
M  V30 7243 C 713.866 -5.24809 -0.3824 0
M  V30 7244 O 712.892 -5.68805 0.212057 0
M  V30 7245 N 714.094 -5.55636 -1.68072 0
M  V30 7246 H 716.859 -2.72634 1.24463 0
M  V30 7247 H 714.42 -1.40639 0.802008 0
M  V30 7248 H 716.412 -3.92542 -0.984516 0
M  V30 7249 H 714.982 -2.8856 -1.20215 0
M  V30 7250 H 714.202 -3.78047 1.11688 0
M  V30 7251 H 715.49 -4.99131 0.987201 0
M  V30 7252 H 714.888 -5.2176 -2.18592 0
M  V30 7253 H 713.445 -6.14978 -2.15975 0
M  V30 7254 N 716.879 -0.700114 -1.41195 0
M  V30 7255 C 718.125 -0.233351 -2.01453 0
M  V30 7256 C 718.458 1.16548 -1.55339 0
M  V30 7257 O 717.733 1.78756 -0.766575 0
M  V30 7258 C 718.016 -0.2961 -3.58881 0
M  V30 7259 C 717.869 -1.7322 -4.15108 0
M  V30 7260 C 719.188 0.341525 -4.38773 0
M  V30 7261 H 716.307 -0.0862667 -0.731934 0
M  V30 7262 H 718.949 -0.889693 -1.67882 0
M  V30 7263 H 717.099 0.262736 -3.87611 0
M  V30 7264 H 718.771 -2.34523 -3.97236 0
M  V30 7265 H 717.014 -2.2649 -3.69979 0
M  V30 7266 H 717.685 -1.7276 -5.24269 0
M  V30 7267 H 720.161 -0.134461 -4.15883 0
M  V30 7268 H 719.037 0.267098 -5.4825 0
M  V30 7269 H 719.298 1.42289 -4.18577 0
M  V30 7270 N 718.357 1.51182 -0.445186 0
M  V30 7271 C 719.603 2.02452 0.11882 0
M  V30 7272 C 719.936 1.32824 1.41673 0
M  V30 7273 O 719.211 0.445637 1.89326 0
M  V30 7274 C 719.494 3.5859 0.329475 0
M  V30 7275 C 719.347 4.38823 -0.987638 0
M  V30 7276 C 720.666 4.26241 1.09575 0
M  V30 7277 H 717.785 0.735819 0.0417092 0
M  V30 7278 H 720.427 1.80747 -0.585718 0
M  V30 7279 H 718.577 3.77214 0.9296 0
M  V30 7280 H 720.249 4.3183 -1.62235 0
M  V30 7281 H 718.492 4.03594 -1.59041 0
M  V30 7282 H 719.163 5.46257 -0.794192 0
M  V30 7283 H 721.639 4.11934 0.587328 0
M  V30 7284 H 720.515 5.35354 1.21191 0
M  V30 7285 H 720.776 3.87635 2.12584 0
M  V30 7286 N 719.835 0.176821 1.56605 0
M  V30 7287 C 720.768 -0.790135 2.14084 0
M  V30 7288 C 721.746 -1.22219 1.07244 0
M  V30 7289 O 722.93 -1.31298 1.35252 0
M  V30 7290 C 720.057 -2.06475 2.68488 0
M  V30 7291 C 719.103 -1.77628 3.87751 0
M  V30 7292 S 719.936 -0.940612 5.27174 0
M  V30 7293 C 721.092 -2.22577 5.84988 0
M  V30 7294 H 721.325 -0.30144 2.95768 0
M  V30 7295 H 718.858 -0.0379279 1.54353 0
M  V30 7296 H 720.816 -2.79683 3.00479 0
M  V30 7297 H 719.477 -2.52457 1.8688 0
M  V30 7298 H 718.67 -2.72215 4.24164 0
M  V30 7299 H 718.272 -1.12512 3.56675 0
M  V30 7300 H 720.564 -3.17992 5.98237 0
M  V30 7301 H 721.507 -1.90624 6.81959 0
M  V30 7302 H 721.915 -2.34588 5.13448 0
M  V30 7303 N 721.313 -1.57302 -0.09688 0
M  V30 7304 C 722.276 -2.00976 -1.10188 0
M  V30 7305 C 723.276 -0.903009 -1.3305 0
M  V30 7306 O 724.466 -1.16853 -1.29194 0
M  V30 7307 C 721.598 -2.36893 -2.45142 0
M  V30 7308 H 722.791 -2.9098 -0.726003 0
M  V30 7309 H 720.344 -1.52515 -0.341872 0
M  V30 7310 H 721.079 -1.49837 -2.8761 0
M  V30 7311 H 720.864 -3.17632 -2.29897 0
M  V30 7312 H 722.354 -2.71345 -3.1743 0
M  V30 7313 N 722.791 0.367657 -1.53252 0
M  V30 7314 C 723.701 1.47415 -1.82499 0
M  V30 7315 C 724.717 1.58711 -0.713222 0
M  V30 7316 O 725.893 1.74644 -1.00306 0
M  V30 7317 C 722.958 2.82706 -2.00694 0
M  V30 7318 C 722.019 2.80955 -3.24596 0
M  V30 7319 C 721.252 4.09793 -3.41914 0
M  V30 7320 O 721.475 5.05852 -2.63572 0
M  V30 7321 O 720.409 4.15731 -4.3526 0
M  V30 7322 H 724.235 1.25624 -2.765 0
M  V30 7323 H 721.82 0.557559 -1.38606 0
M  V30 7324 H 723.702 3.62873 -2.14246 0
M  V30 7325 H 722.377 3.04479 -1.09883 0
M  V30 7326 H 721.284 1.99494 -3.16469 0
M  V30 7327 H 722.617 2.64136 -4.15323 0
M  V30 7328 N 724.269 1.44576 0.627338 0
M  V30 7329 C 725.232 1.51372 1.72102 0
M  V30 7330 C 726.232 0.395329 1.55865 0
M  V30 7331 O 727.422 0.658094 1.61291 0
M  V30 7332 C 724.554 1.39129 3.11217 0
M  V30 7333 H 725.747 2.48798 1.6745 0
M  V30 7334 H 723.3 1.31724 0.841336 0
M  V30 7335 H 724.035 0.428114 3.21462 0
M  V30 7336 H 723.82 2.20229 3.24409 0
M  V30 7337 H 725.31 1.46874 3.90919 0
M  V30 7338 N 725.747 -0.868086 1.31537 0
M  V30 7339 C 726.996 -1.61607 1.20689 0
M  V30 7340 C 727.309 -1.94204 -0.233275 0
M  V30 7341 O 728.515 -2.67515 -0.463465 0
M  V30 7342 C 726.971 -2.91348 2.11292 0
M  V30 7343 C 726.579 -2.66227 3.60315 0
M  V30 7344 C 728.323 -3.69344 2.09249 0
M  V30 7345 C 726.23 -3.91887 4.42921 0
M  V30 7346 H 725.16 -0.606373 0.448138 0
M  V30 7347 H 727.811 -0.959666 1.56405 0
M  V30 7348 H 726.193 -3.58374 1.68477 0
M  V30 7349 H 727.367 -2.07597 4.11388 0
M  V30 7350 H 725.682 -2.01582 3.64354 0
M  V30 7351 H 728.279 -4.62567 2.68209 0
M  V30 7352 H 728.622 -4.02044 1.0801 0
M  V30 7353 H 729.155 -3.09205 2.50274 0
M  V30 7354 H 725.894 -3.64336 5.44922 0
M  V30 7355 H 725.414 -4.49961 3.96605 0
M  V30 7356 H 727.093 -4.59754 4.55231 0
M  V30 7357 N 727.225 -1.14528 -1.08264 0
M  V30 7358 C 728.473 -0.912599 -1.80322 0
M  V30 7359 C 728.794 0.562256 -1.86718 0
M  V30 7360 O 728.064 1.40869 -1.36135 0
M  V30 7361 H 726.644 -0.334645 -0.667849 0
M  V30 7362 H 729.306 -1.44415 -1.30883 0
M  V30 7363 H 728.402 -1.31384 -2.83098 0
M  V30 7364 N 728.703 1.26451 -0.940633 0
M  V30 7365 C 729.952 1.93071 -0.583656 0
M  V30 7366 C 730.265 1.74618 0.881366 0
M  V30 7367 O 731.471 2.35689 1.34769 0
M  V30 7368 C 729.927 3.45927 -0.993106 0
M  V30 7369 C 729.535 3.73115 -2.4797 0
M  V30 7370 C 731.279 4.18554 -0.707998 0
M  V30 7371 C 729.186 5.19408 -2.82788 0
M  V30 7372 H 728.116 0.722824 -0.214572 0
M  V30 7373 H 730.767 1.43538 -1.1432 0
M  V30 7374 H 729.149 3.94341 -0.362099 0
M  V30 7375 H 730.323 3.35408 -3.15971 0
M  V30 7376 H 728.638 3.13719 -2.73805 0
M  V30 7377 H 731.235 5.26293 -0.94447 0
M  V30 7378 H 731.578 4.14782 0.355225 0
M  V30 7379 H 732.111 3.76003 -1.2987 0
M  V30 7380 H 728.85 5.28281 -3.88071 0
M  V30 7381 H 728.37 5.58214 -2.19449 0
M  V30 7382 H 730.049 5.87407 -2.71224 0
M  V30 7383 N 730.181 0.707592 1.40822 0
M  V30 7384 C 731.458 0.171172 1.9485 0
M  V30 7385 C 731.838 -1.32143 1.64625 0
M  V30 7386 O 731.186 -2.07372 0.959647 0
M  V30 7387 C 731.396 0.475334 3.45748 0
M  V30 7388 C 732.744 0.409625 4.22619 0
M  V30 7389 O 733.768 0.410934 3.53822 0
M  V30 7390 O 732.627 0.380185 5.45176 0
M  V30 7391 H 729.721 0.022015 0.826707 0
M  V30 7392 H 732.267 0.784577 1.50474 0
M  V30 7393 H 731.039 1.50801 3.61075 0
M  V30 7394 H 730.662 -0.168439 3.97243 0
M  V30 7395 N 731.66 -1.50943 0.453197 0
M  V30 7396 C 732.607 -2.28128 -0.350197 0
M  V30 7397 C 733.577 -1.32398 -1.00299 0
M  V30 7398 O 734.762 -1.61319 -1.01887 0
M  V30 7399 C 731.902 -3.13782 -1.43649 0
M  V30 7400 C 731.015 -4.24523 -0.800255 0
M  V30 7401 C 730.15 -4.97462 -1.86293 0
M  V30 7402 C 729.189 -6.00102 -1.20598 0
M  V30 7403 N 728.326 -6.66387 -2.21071 0
M  V30 7404 H 733.166 -2.96337 0.31434 0
M  V30 7405 H 730.703 -1.46151 0.166863 0
M  V30 7406 H 732.661 -3.6178 -2.07776 0
M  V30 7407 H 731.291 -2.47655 -2.07044 0
M  V30 7408 H 730.343 -3.80371 -0.0468651 0
M  V30 7409 H 731.655 -4.98009 -0.280777 0
M  V30 7410 H 730.809 -5.49088 -2.58044 0
M  V30 7411 H 729.548 -4.23642 -2.41617 0
M  V30 7412 H 728.553 -5.47753 -0.474 0
M  V30 7413 H 729.778 -6.75887 -0.659859 0
M  V30 7414 H 727.724 -5.9537 -2.75446 0
M  V30 7415 H 727.641 -7.3569 -1.74058 0
M  V30 7416 H 728.909 -7.22638 -2.92257 0
M  V30 7417 N 733.138 -0.185124 -1.56509 0
M  V30 7418 C 734.415 0.503348 -1.89013 0
M  V30 7419 C 734.795 1.80349 -1.09715 0
M  V30 7420 O 734.143 2.27665 -0.195203 0
M  V30 7421 C 734.353 0.731839 -3.41241 0
M  V30 7422 C 735.701 1.05568 -4.11267 0
M  V30 7423 O 736.725 0.819906 -3.46635 0
M  V30 7424 O 735.584 1.50116 -5.25478 0
M  V30 7425 H 732.678 0.261139 -0.784688 0
M  V30 7426 H 735.224 -0.224592 -1.68207 0
M  V30 7427 H 733.996 -0.18672 -3.90854 0
M  V30 7428 H 733.619 1.5126 -3.67704 0
M  V30 7429 N 734.616 1.57351 0.0885366 0
M  V30 7430 C 736.032 1.53331 0.442916 0
M  V30 7431 C 736.232 0.902831 1.80142 0
M  V30 7432 O 735.288 0.498147 2.47537 0
M  V30 7433 C 736.601 2.98036 0.399372 0
M  V30 7434 C 738.149 3.09286 0.480759 0
M  V30 7435 C 738.624 4.5561 0.467296 0
M  V30 7436 N 740.115 4.60182 0.52786 0
M  V30 7437 C 740.85 5.70857 0.539388 0
M  V30 7438 N 740.346 6.90944 0.506729 0
M  V30 7439 N 742.139 5.59051 0.584691 0
M  V30 7440 H 734.29 1.96709 -0.801215 0
M  V30 7441 H 736.553 0.899639 -0.298922 0
M  V30 7442 H 736.259 3.47656 -0.531806 0
M  V30 7443 H 736.133 3.57066 1.21589 0
M  V30 7444 H 738.52 2.5965 1.40236 0
M  V30 7445 H 738.601 2.53197 -0.364023 0
M  V30 7446 H 738.245 5.05899 -0.450384 0
M  V30 7447 H 738.175 5.09544 1.32938 0
M  V30 7448 H 740.666 3.73757 0.558028 0
M  V30 7449 H 740.979 7.71055 0.518989 0
M  V30 7450 H 739.324 6.93384 0.473675 0
M  V30 7451 H 742.515 4.64138 0.607781 0
M  V30 7452 H 742.688 6.45307 0.590206 0
M  V30 7453 N 736.094 -0.359525 1.53444 0
M  V30 7454 C 737.057 -1.42357 1.7963 0
M  V30 7455 C 738.057 -1.46319 0.666884 0
M  V30 7456 O 739.247 -1.46974 0.935113 0
M  V30 7457 C 736.379 -2.81425 1.92387 0
M  V30 7458 H 737.572 -1.20409 2.74666 0
M  V30 7459 H 735.125 -0.593007 1.44614 0
M  V30 7460 H 735.86 -3.08679 0.994384 0
M  V30 7461 H 735.645 -2.79947 2.74539 0
M  V30 7462 H 737.135 -3.5847 2.14218 0
M  V30 7463 N 737.572 -1.44907 -0.619662 0
M  V30 7464 C 738.535 -1.52282 -1.71297 0
M  V30 7465 C 739.535 -0.40359 -1.55653 0
M  V30 7466 O 740.725 -0.666638 -1.6094 0
M  V30 7467 C 737.857 -1.40778 -3.10474 0
M  V30 7468 H 739.05 -2.49683 -1.66128 0
M  V30 7469 H 736.603 -1.32168 -0.834339 0
M  V30 7470 H 737.338 -0.445156 -3.2123 0
M  V30 7471 H 737.123 -2.21947 -3.23237 0
M  V30 7472 H 738.613 -1.48946 -3.90135 0
M  V30 7473 N 739.05 0.861098 -1.31996 0
M  V30 7474 C 739.997 1.96912 -1.20392 0
M  V30 7475 C 740.967 1.65869 -0.0875899 0
M  V30 7476 O 742.152 1.88992 -0.262011 0
M  V30 7477 C 739.292 3.32435 -0.926335 0
M  V30 7478 C 738.405 3.76018 -2.12684 0
M  V30 7479 C 737.54 5.00301 -1.78529 0
M  V30 7480 C 736.579 5.36357 -2.94937 0
M  V30 7481 N 735.716 6.51818 -2.60917 0
M  V30 7482 H 740.556 2.06169 -2.1517 0
M  V30 7483 H 738.093 1.00917 -1.07024 0
M  V30 7484 H 740.051 4.10478 -0.745917 0
M  V30 7485 H 738.681 3.22796 -0.0153578 0
M  V30 7486 H 737.733 2.93683 -2.41774 0
M  V30 7487 H 739.045 3.98664 -2.99781 0
M  V30 7488 H 738.199 5.86034 -1.57001 0
M  V30 7489 H 736.938 4.79578 -0.886356 0
M  V30 7490 H 735.943 4.49139 -3.17103 0
M  V30 7491 H 737.168 5.59041 -3.85552 0
M  V30 7492 H 735.114 6.32624 -1.73558 0
M  V30 7493 H 735.031 6.7445 -3.41544 0
M  V30 7494 H 736.299 7.4072 -2.42804 0
M  V30 7495 N 740.528 1.15101 1.07655 0
M  V30 7496 C 741.939 0.933848 1.61667 0
M  V30 7497 C 742.29 -0.525569 1.8903 0
M  V30 7498 O 741.415 -1.39605 1.65346 0
M  V30 7499 C 742.01 1.68876 2.93711 0
M  V30 7500 C 740.569 1.51697 3.44478 0
M  V30 7501 C 739.716 1.70633 2.18586 0
M  V30 7502 H 742.667 1.30171 0.907816 0
M  V30 7503 H 742.688 1.15645 3.625 0
M  V30 7504 H 742.2 2.7509 2.73764 0
M  V30 7505 H 740.301 0.478635 3.69513 0
M  V30 7506 H 740.414 2.29194 4.20722 0
M  V30 7507 H 738.778 1.13259 2.28132 0
M  V30 7508 H 739.561 2.78206 2.01137 0
M  V30 7509 N 742.006 -1.2595 0.947325 0
M  V30 7510 C 743.252 -1.9375 0.599064 0
M  V30 7511 C 743.585 -1.74088 -0.860632 0
M  V30 7512 O 742.86 -1.08158 -1.61654 0
M  V30 7513 C 743.143 -3.47353 0.949634 0
M  V30 7514 C 742.996 -3.76273 2.46452 0
M  V30 7515 C 744.315 -4.37589 0.469442 0
M  V30 7516 H 741.434 -0.703674 0.219115 0
M  V30 7517 H 744.076 -1.48705 1.18266 0
M  V30 7518 H 742.226 -3.8585 0.453008 0
M  V30 7519 H 743.898 -3.47455 3.03435 0
M  V30 7520 H 742.141 -3.22135 2.90537 0
M  V30 7521 H 742.812 -4.83664 2.66032 0
M  V30 7522 H 745.288 -4.06353 0.89534 0
M  V30 7523 H 744.164 -5.43841 0.7435 0
M  V30 7524 H 744.425 -4.37579 -0.630618 0
M  V30 7525 N 743.484 -0.715051 -1.40445 0
M  V30 7526 C 744.712 -0.263959 -2.05209 0
M  V30 7527 C 745.127 1.09403 -1.53871 0
M  V30 7528 O 744.484 1.68746 -0.695064 0
M  V30 7529 C 744.535 -0.234545 -3.60738 0
M  V30 7530 O 744.256 -1.53891 -4.10182 0
M  V30 7531 C 745.757 0.235164 -4.42676 0
M  V30 7532 H 742.977 -0.11876 -0.660407 0
M  V30 7533 H 745.521 -0.973107 -1.79864 0
M  V30 7534 H 743.676 0.425563 -3.85055 0
M  V30 7535 H 744.09 -1.43903 -5.04373 0
M  V30 7536 H 745.564 0.204598 -5.51621 0
M  V30 7537 H 746.041 1.27724 -4.20218 0
M  V30 7538 H 746.647 -0.394649 -4.23465 0
M  V30 7539 N 744.962 1.50701 -0.461195 0
M  V30 7540 C 746.208 2.02566 0.0973411 0
M  V30 7541 C 746.541 1.3432 1.40257 0
M  V30 7542 O 745.816 0.465692 1.88843 0
M  V30 7543 C 746.099 3.58919 0.291423 0
M  V30 7544 C 745.952 4.37751 -1.03413 0
M  V30 7545 C 747.271 4.27379 1.05048 0
M  V30 7546 H 744.39 0.73622 0.0339026 0
M  V30 7547 H 747.032 1.80115 -0.604855 0
M  V30 7548 H 745.182 3.78179 0.889539 0
M  V30 7549 H 746.854 4.30085 -1.66806 0
M  V30 7550 H 745.097 4.01885 -1.63313 0
M  V30 7551 H 745.768 5.45384 -0.852085 0
M  V30 7552 H 748.244 4.12534 0.543603 0
M  V30 7553 H 747.12 5.36609 1.15506 0
M  V30 7554 H 747.381 3.89868 2.0846 0
M  V30 7555 N 746.441 0.193421 1.56409 0
M  V30 7556 C 747.404 -0.714371 2.17783 0
M  V30 7557 C 748.404 -1.1422 1.13183 0
M  V30 7558 O 749.594 -1.05557 1.38576 0
M  V30 7559 C 746.726 -1.97509 2.77855 0
M  V30 7560 H 747.919 -0.179714 2.99361 0
M  V30 7561 H 745.472 -0.0561944 1.56199 0
M  V30 7562 H 746.207 -2.5523 2.0007 0
M  V30 7563 H 745.992 -1.67706 3.54425 0
M  V30 7564 H 747.482 -2.62246 3.24987 0
M  V30 7565 N 747.919 -1.57396 -0.0801906 0
M  V30 7566 C 749.165 -1.87113 -0.782083 0
M  V30 7567 C 749.498 -0.78458 -1.77646 0
M  V30 7568 O 748.773 0.205993 -1.93406 0
M  V30 7569 C 749.056 -3.27483 -1.49756 0
M  V30 7570 C 748.909 -4.46782 -0.520171 0
M  V30 7571 C 750.228 -3.65965 -2.44454 0
M  V30 7572 H 747.347 -0.680559 -0.282858 0
M  V30 7573 H 749.989 -1.89946 -0.0454139 0
M  V30 7574 H 748.139 -3.25199 -2.12551 0
M  V30 7575 H 749.811 -4.61187 0.101919 0
M  V30 7576 H 748.054 -4.33485 0.165219 0
M  V30 7577 H 748.725 -5.41761 -1.05824 0
M  V30 7578 H 751.201 -3.69289 -1.91742 0
M  V30 7579 H 750.077 -4.65086 -2.91524 0
M  V30 7580 H 750.338 -2.95446 -3.28883 0
M  V30 7581 N 749.397 0.351382 -1.53633 0
M  V30 7582 C 750.344 1.43115 -1.81071 0
M  V30 7583 C 751.314 1.52601 -0.655913 0
M  V30 7584 O 752.499 1.68264 -0.89955 0
M  V30 7585 C 749.639 2.79874 -2.01903 0
M  V30 7586 C 748.752 2.79242 -3.29618 0
M  V30 7587 C 747.887 4.07667 -3.40559 0
M  V30 7588 C 746.926 4.01233 -4.62254 0
M  V30 7589 N 746.063 5.21334 -4.70271 0
M  V30 7590 H 750.903 1.19017 -2.73201 0
M  V30 7591 H 748.44 0.576691 -1.35324 0
M  V30 7592 H 750.398 3.5934 -2.11969 0
M  V30 7593 H 749.028 3.0234 -1.13094 0
M  V30 7594 H 748.08 1.91927 -3.28433 0
M  V30 7595 H 749.392 2.70363 -4.19172 0
M  V30 7596 H 748.546 4.95555 -3.50015 0
M  V30 7597 H 747.285 4.19317 -2.49047 0
M  V30 7598 H 746.29 3.11732 -4.52884 0
M  V30 7599 H 747.515 3.91173 -5.55122 0
M  V30 7600 H 745.461 5.33543 -3.81665 0
M  V30 7601 H 745.378 5.14681 -5.5375 0
M  V30 7602 H 746.646 6.11014 -4.84027 0
M  V30 7603 N 750.875 1.45233 0.611969 0
M  V30 7604 C 751.808 1.48056 1.73651 0
M  V30 7605 C 752.786 0.337373 1.59061 0
M  V30 7606 O 753.97 0.537222 1.80683 0
M  V30 7607 C 751.097 1.33144 3.11433 0
M  V30 7608 C 750.143 2.51272 3.44623 0
M  V30 7609 S 750.976 4.13754 3.39953 0
M  V30 7610 C 752.132 4.013 4.80322 0
M  V30 7611 H 752.365 2.43205 1.70993 0
M  V30 7612 H 749.898 1.32763 0.788246 0
M  V30 7613 H 751.856 1.25228 3.90932 0
M  V30 7614 H 750.517 0.394734 3.1161 0
M  V30 7615 H 749.71 2.36753 4.44932 0
M  V30 7616 H 749.312 2.56027 2.72629 0
M  V30 7617 H 751.604 3.66174 5.7002 0
M  V30 7618 H 752.547 5.01506 4.99897 0
M  V30 7619 H 752.955 3.3303 4.55797 0
M  V30 7620 N 752.353 -0.854086 1.3245 0
M  V30 7621 C 753.283 -1.97827 1.24044 0
M  V30 7622 C 754.264 -1.69646 0.124166 0
M  V30 7623 O 755.449 -1.91687 0.31143 0
M  V30 7624 C 752.579 -3.33673 0.963324 0
M  V30 7625 C 751.533 -3.76207 2.04089 0
M  V30 7626 C 750.859 -5.0969 1.61618 0
M  V30 7627 C 752.159 -3.91612 3.45597 0
M  V30 7628 H 753.853 -2.05118 2.18099 0
M  V30 7629 H 751.399 -0.985489 1.04996 0
M  V30 7630 H 753.352 -4.11871 0.891061 0
M  V30 7631 H 752.076 -3.26597 -0.0128649 0
M  V30 7632 H 750.735 -3.0026 2.10332 0
M  V30 7633 H 750.383 -4.99072 0.627418 0
M  V30 7634 H 750.083 -5.3912 2.33717 0
M  V30 7635 H 751.607 -5.90381 1.55829 0
M  V30 7636 H 753.021 -4.60163 3.4194 0
M  V30 7637 H 751.418 -4.3246 4.16051 0
M  V30 7638 H 752.488 -2.9451 3.85217 0
M  V30 7639 N 753.831 -1.1567 -1.07043 0
M  V30 7640 C 754.778 -0.856336 -2.14326 0
M  V30 7641 C 755.748 0.192051 -1.64986 0
M  V30 7642 O 756.933 0.0589148 -1.90709 0
M  V30 7643 C 754.073 -0.355227 -3.43267 0
M  V30 7644 C 753.186 -1.46555 -4.06381 0
M  V30 7645 C 752.321 -0.920245 -5.23168 0
M  V30 7646 C 751.36 -2.00729 -5.78251 0
M  V30 7647 N 750.497 -1.47813 -6.86364 0
M  V30 7648 H 755.337 -1.77514 -2.39359 0
M  V30 7649 H 752.874 -0.885676 -1.17449 0
M  V30 7650 H 754.832 -0.0463804 -4.17174 0
M  V30 7651 H 753.462 0.526649 -3.18475 0
M  V30 7652 H 752.514 -1.89052 -3.30096 0
M  V30 7653 H 753.826 -2.28616 -4.43324 0
M  V30 7654 H 752.98 -0.564127 -6.04072 0
M  V30 7655 H 751.719 -0.0688477 -4.87651 0
M  V30 7656 H 750.724 -2.3722 -4.95991 0
M  V30 7657 H 751.949 -2.86252 -6.15822 0
M  V30 7658 H 749.895 -0.649145 -6.5278 0
M  V30 7659 H 749.812 -2.23498 -7.22208 0
M  V30 7660 H 751.08 -1.15036 -7.70965 0
M  V30 7661 N 755.309 1.25446 -0.953992 0
M  V30 7662 C 756.586 1.884 -0.525823 0
M  V30 7663 C 756.966 1.86079 0.996891 0
M  V30 7664 O 756.314 1.32389 1.8624 0
M  V30 7665 C 756.524 3.31154 -1.10172 0
M  V30 7666 C 757.872 4.07926 -1.17819 0
M  V30 7667 O 758.896 3.40273 -1.05323 0
M  V30 7668 O 757.755 5.28942 -1.37415 0
M  V30 7669 H 754.849 0.808629 -0.173345 0
M  V30 7670 H 757.395 1.33522 -1.04738 0
M  V30 7671 H 756.167 3.27271 -2.14499 0
M  V30 7672 H 755.79 3.93588 -0.56338 0
M  V30 7673 N 756.787 0.722489 1.40064 0
M  V30 7674 C 758.064 0.191829 1.94657 0
M  V30 7675 C 758.444 -1.30389 1.66018 0
M  V30 7676 O 757.792 -2.06342 0.981588 0
M  V30 7677 C 758.002 0.511978 3.45224 0
M  V30 7678 C 759.35 0.454426 4.22161 0
M  V30 7679 O 760.374 0.448438 3.53366 0
M  V30 7680 O 759.233 0.437986 5.44742 0
M  V30 7681 H 756.327 0.0307821 0.826427 0
M  V30 7682 H 758.873 0.800493 1.49634 0
M  V30 7683 H 757.645 1.54622 3.59455 0
M  V30 7684 H 757.268 -0.126296 3.97399 0
M  V30 7685 N 758.265 -1.50454 0.469181 0
M  V30 7686 C 759.228 -2.2703 -0.314643 0
M  V30 7687 C 760.228 -1.31734 -0.922111 0
M  V30 7688 O 761.418 -1.55176 -0.791588 0
M  V30 7689 C 758.55 -3.08616 -1.44806 0
M  V30 7690 H 759.743 -2.97769 0.356892 0
M  V30 7691 H 757.296 -1.54698 0.223191 0
M  V30 7692 H 758.031 -2.42369 -2.1547 0
M  V30 7693 H 757.816 -3.78647 -1.01829 0
M  V30 7694 H 759.306 -3.66536 -2.00103 0
M  V30 7695 N 759.743 -0.201713 -1.56304 0
M  V30 7696 C 760.971 0.440723 -2.02152 0
M  V30 7697 C 761.386 1.54735 -1.08179 0
M  V30 7698 O 760.743 1.82289 -0.0878196 0
M  V30 7699 C 760.794 0.990884 -3.47655 0
M  V30 7700 O 760.515 -0.0715937 -4.38041 0
M  V30 7701 C 762.016 1.70854 -4.09052 0
M  V30 7702 H 759.236 0.109987 -0.661924 0
M  V30 7703 H 761.78 -0.312358 -2.021 0
M  V30 7704 H 759.935 1.69432 -3.48384 0
M  V30 7705 H 760.349 0.338892 -5.23404 0
M  V30 7706 H 761.823 2.04572 -5.12693 0
M  V30 7707 H 762.3 2.61462 -3.52894 0
M  V30 7708 H 762.906 1.0508 -4.12114 0
M  V30 7709 N 761.222 1.57436 0.0718424 0
M  V30 7710 C 762.499 1.78312 0.804006 0
M  V30 7711 C 762.879 0.789273 1.9579 0
M  V30 7712 O 762.227 -0.177605 2.27809 0
M  V30 7713 C 762.437 3.24798 1.277 0
M  V30 7714 C 763.785 3.88627 1.71039 0
M  V30 7715 O 764.809 3.28689 1.37266 0
M  V30 7716 O 763.668 4.94073 2.33567 0
M  V30 7717 H 760.762 0.73178 0.385262 0
M  V30 7718 H 763.308 1.69621 0.0519219 0
M  V30 7719 H 762.08 3.88688 0.45134 0
M  V30 7720 H 761.703 3.38213 2.0904 0
M  V30 7721 N 762.7 -0.34323 1.53817 0
M  V30 7722 C 763.647 -1.42153 1.81827 0
M  V30 7723 C 764.617 -1.52251 0.663996 0
M  V30 7724 O 765.802 -1.67784 0.908461 0
M  V30 7725 C 762.942 -2.78799 2.03384 0
M  V30 7726 C 762.055 -2.7749 3.31094 0
M  V30 7727 C 761.19 -4.05856 3.42717 0
M  V30 7728 C 760.229 -3.98776 4.64375 0
M  V30 7729 N 759.366 -5.18833 4.73029 0
M  V30 7730 H 764.206 -1.17567 2.73829 0
M  V30 7731 H 761.743 -0.569506 1.35628 0
M  V30 7732 H 763.701 -3.58211 2.13872 0
M  V30 7733 H 762.331 -3.01736 1.14696 0
M  V30 7734 H 761.383 -1.90182 3.29446 0
M  V30 7735 H 762.695 -2.68137 4.206 0
M  V30 7736 H 761.849 -4.93691 3.52638 0
M  V30 7737 H 760.588 -4.1799 2.51267 0
M  V30 7738 H 759.593 -3.09325 4.5453 0
M  V30 7739 H 760.818 -3.88224 5.57189 0
M  V30 7740 H 758.764 -5.31511 3.84489 0
M  V30 7741 H 758.681 -5.11737 5.56472 0
M  V30 7742 H 759.949 -6.08439 4.87261 0
M  V30 7743 N 764.178 -1.45556 -0.604258 0
M  V30 7744 C 765.455 -1.40221 -1.36373 0
M  V30 7745 C 765.835 -0.0745195 -2.10968 0
M  V30 7746 O 765.183 0.943594 -2.08107 0
M  V30 7747 C 765.393 -2.61807 -2.30777 0
M  V30 7748 C 766.741 -3.07037 -2.93281 0
M  V30 7749 O 767.765 -2.62203 -2.41097 0
M  V30 7750 O 766.624 -3.8485 -3.88011 0
M  V30 7751 H 763.718 -0.556602 -0.611656 0
M  V30 7752 H 766.264 -1.57689 -0.627069 0
M  V30 7753 H 765.036 -3.50017 -1.74939 0
M  V30 7754 H 764.659 -2.46688 -3.11818 0
M  V30 7755 N 765.656 0.84705 -1.32902 0
M  V30 7756 C 766.586 1.97166 -1.25091 0
M  V30 7757 C 767.567 1.69578 -0.133161 0
M  V30 7758 O 768.752 1.91519 -0.321591 0
M  V30 7759 C 765.882 3.33157 -0.981006 0
M  V30 7760 C 764.836 3.75119 -2.06082 0
M  V30 7761 C 764.162 5.08826 -1.64318 0
M  V30 7762 C 765.462 3.89774 -3.47669 0
M  V30 7763 H 767.156 2.03958 -2.19184 0
M  V30 7764 H 764.702 0.979907 -1.05517 0
M  V30 7765 H 766.655 4.11393 -0.912891 0
M  V30 7766 H 765.379 3.266 -0.00445559 0
M  V30 7767 H 764.038 2.9914 -2.11921 0
M  V30 7768 H 763.686 4.98732 -0.653876 0
M  V30 7769 H 763.386 5.37873 -2.36572 0
M  V30 7770 H 764.91 5.89546 -1.58958 0
M  V30 7771 H 766.324 4.58343 -3.44376 0
M  V30 7772 H 764.721 4.30248 -4.18338 0
M  V30 7773 H 765.791 2.92463 -3.86773 0
M  V30 7774 N 767.134 1.16236 1.06428 0
M  V30 7775 C 768.359 0.967688 1.83441 0
M  V30 7776 C 768.784 -0.479167 1.81894 0
M  V30 7777 O 768.142 -1.34224 1.21875 0
M  V30 7778 C 768.19 1.49806 3.2801 0
M  V30 7779 O 767.294 0.703481 4.06356 0
M  V30 7780 H 766.635 0.344468 0.56766 0
M  V30 7781 H 769.165 1.54442 1.34197 0
M  V30 7782 H 769.175 1.51495 3.78831 0
M  V30 7783 H 767.85 2.55133 3.2845 0
M  V30 7784 H 766.427 0.756986 3.65136 0
M  V30 7785 N 768.612 -1.24939 0.960631 0
M  V30 7786 C 769.889 -1.88118 0.535807 0
M  V30 7787 C 770.269 -1.86605 -0.987009 0
M  V30 7788 O 769.617 -1.33375 -1.85536 0
M  V30 7789 C 769.827 -3.30565 1.11927 0
M  V30 7790 C 771.175 -4.07296 1.19981 0
M  V30 7791 O 772.199 -3.39709 1.07126 0
M  V30 7792 O 771.058 -5.28206 1.40218 0
M  V30 7793 H 768.152 -0.807698 0.177631 0
M  V30 7794 H 770.698 -1.32964 1.05445 0
M  V30 7795 H 769.47 -3.26128 2.16231 0
M  V30 7796 H 769.093 -3.93284 0.584245 0
M  V30 7797 N 770.09 -0.729906 -1.39679 0
M  V30 7798 C 771.02 -0.101618 -2.33279 0
M  V30 7799 C 772.001 0.729854 -1.53646 0
M  V30 7800 O 773.186 0.67587 -1.82059 0
M  V30 7801 C 770.316 0.81024 -3.37716 0
M  V30 7802 C 769.27 0.0833126 -4.27919 0
M  V30 7803 C 768.596 1.11185 -5.23012 0
M  V30 7804 C 769.896 -1.07107 -5.112 0
M  V30 7805 H 771.59 -0.883452 -2.86069 0
M  V30 7806 H 769.136 -0.426283 -1.37546 0
M  V30 7807 H 771.089 1.25927 -4.02145 0
M  V30 7808 H 769.813 1.62413 -2.83354 0
M  V30 7809 H 768.472 -0.346043 -3.64963 0
M  V30 7810 H 768.12 1.91917 -4.64948 0
M  V30 7811 H 767.82 0.63026 -5.8421 0
M  V30 7812 H 769.344 1.56068 -5.90318 0
M  V30 7813 H 770.758 -0.700726 -5.69002 0
M  V30 7814 H 769.155 -1.48196 -5.81514 0
M  V30 7815 H 770.225 -1.89513 -4.46332 0
M  V30 7816 N 771.568 1.50203 -0.477153 0
M  V30 7817 C 772.814 2.02658 0.0758507 0
M  V30 7818 C 773.147 1.358 1.38824 0
M  V30 7819 O 772.422 0.485696 1.88338 0
M  V30 7820 C 772.705 3.59208 0.253339 0
M  V30 7821 C 772.558 4.36629 -1.0805 0
M  V30 7822 C 773.877 4.28469 1.00509 0
M  V30 7823 H 770.996 0.736538 0.0260921 0
M  V30 7824 H 773.638 1.79464 -0.623925 0
M  V30 7825 H 771.788 3.79101 0.849378 0
M  V30 7826 H 773.46 4.28292 -1.71358 0
M  V30 7827 H 771.703 4.0013 -1.67566 0
M  V30 7828 H 772.374 5.44449 -0.909883 0
M  V30 7829 H 774.85 4.13087 0.499818 0
M  V30 7830 H 773.726 5.37804 1.09808 0
M  V30 7831 H 773.987 3.92057 2.04314 0
M  V30 7832 N 773.046 0.209999 1.56195 0
M  V30 7833 C 774.271 -0.433064 2.02828 0
M  V30 7834 C 774.696 -1.5337 1.08901 0
M  V30 7835 O 774.054 -1.81144 0.0751132 0
M  V30 7836 C 774.102 -0.952635 3.47789 0
M  V30 7837 O 773.206 -2.0647 3.56993 0
M  V30 7838 H 772.547 -0.0994594 0.656509 0
M  V30 7839 H 775.077 0.32525 2.01998 0
M  V30 7840 H 775.087 -1.26542 3.8788 0
M  V30 7841 H 773.762 -0.147007 4.1564 0
M  V30 7842 H 772.339 -1.75942 3.28784 0
M  V30 7843 N 774.524 -1.57472 -0.0634922 0
M  V30 7844 C 775.434 -2.07621 -1.09227 0
M  V30 7845 C 776.45 -1.00746 -1.41867 0
M  V30 7846 O 777.626 -1.32269 -1.51878 0
M  V30 7847 C 774.691 -2.51707 -2.38421 0
M  V30 7848 C 773.752 -3.72917 -2.12676 0
M  V30 7849 C 772.985 -4.14891 -3.3571 0
M  V30 7850 O 773.208 -3.56663 -4.45137 0
M  V30 7851 O 772.142 -5.07616 -3.23434 0
M  V30 7852 H 775.968 -2.95612 -0.696205 0
M  V30 7853 H 773.553 -1.46787 -0.27819 0
M  V30 7854 H 775.435 -2.80547 -3.14438 0
M  V30 7855 H 774.11 -1.66842 -2.77391 0
M  V30 7856 H 773.017 -3.49148 -1.34337 0
M  V30 7857 H 774.35 -4.5866 -1.78583 0
M  V30 7858 N 776.003 0.335068 -1.53997 0
M  V30 7859 C 776.936 1.43533 -1.77407 0
M  V30 7860 C 777.914 1.5017 -0.623529 0
M  V30 7861 O 779.098 1.67756 -0.85966 0
M  V30 7862 C 776.225 2.81712 -1.88033 0
M  V30 7863 C 775.271 2.92661 -3.10245 0
M  V30 7864 S 776.104 2.58254 -4.69111 0
M  V30 7865 C 777.26 3.98525 -4.82627 0
M  V30 7866 H 777.493 1.2346 -2.70453 0
M  V30 7867 H 775.026 0.531234 -1.44973 0
M  V30 7868 H 776.984 3.61314 -1.9484 0
M  V30 7869 H 775.645 2.99075 -0.959849 0
M  V30 7870 H 774.838 3.93931 -3.14379 0
M  V30 7871 H 774.44 2.21017 -3.01708 0
M  V30 7872 H 776.732 4.93146 -4.64557 0
M  V30 7873 H 777.675 3.9938 -5.84723 0
M  V30 7874 H 778.083 3.86945 -4.11016 0
M  V30 7875 N 777.481 1.45874 0.596531 0
M  V30 7876 C 778.391 1.57947 1.73464 0
M  V30 7877 C 779.407 0.463461 1.67714 0
M  V30 7878 O 780.583 0.725685 1.87872 0
M  V30 7879 C 777.648 1.55348 3.09948 0
M  V30 7880 C 776.709 2.78074 3.27068 0
M  V30 7881 C 775.942 2.75589 4.57041 0
M  V30 7882 O 776.165 1.83545 5.40063 0
M  V30 7883 O 775.099 3.66945 4.77111 0
M  V30 7884 H 778.925 2.54169 1.66228 0
M  V30 7885 H 776.51 1.2851 0.76194 0
M  V30 7886 H 778.392 1.56545 3.91244 0
M  V30 7887 H 777.067 0.622811 3.17652 0
M  V30 7888 H 775.974 2.82435 2.45319 0
M  V30 7889 H 777.307 3.70303 3.24248 0
M  V30 7890 N 778.959 -0.83999 1.33349 0
M  V30 7891 C 779.892 -1.95415 1.17848 0
M  V30 7892 C 780.87 -1.6243 0.0742296 0
M  V30 7893 O 782.054 -1.87014 0.23626 0
M  V30 7894 C 779.181 -3.28938 0.807295 0
M  V30 7895 C 778.227 -3.80895 1.91888 0
M  V30 7896 S 779.06 -4.02709 3.52967 0
M  V30 7897 C 780.216 -5.39185 3.17853 0
M  V30 7898 H 780.449 -2.08265 2.12162 0
M  V30 7899 H 777.982 -0.993643 1.18178 0
M  V30 7900 H 779.94 -4.06093 0.599914 0
M  V30 7901 H 778.601 -3.13881 -0.117234 0
M  V30 7902 H 777.794 -4.77508 1.6125 0
M  V30 7903 H 777.396 -3.10633 2.08286 0
M  V30 7904 H 779.688 -6.21978 2.68608 0
M  V30 7905 H 780.631 -5.74795 4.13542 0
M  V30 7906 H 781.039 -5.03885 2.5448 0
M  V30 7907 N 780.437 -1.16799 -1.0581 0
M  V30 7908 C 781.37 -0.822491 -2.12862 0
M  V30 7909 C 782.348 0.208006 -1.61264 0
M  V30 7910 O 783.532 0.0909652 -1.8828 0
M  V30 7911 C 780.659 -0.225826 -3.37946 0
M  V30 7912 C 779.705 -1.23071 -4.08357 0
M  V30 7913 S 780.538 -2.77944 -4.5772 0
M  V30 7914 C 781.694 -2.19741 -5.86059 0
M  V30 7915 H 781.927 -1.72917 -2.41841 0
M  V30 7916 H 779.46 -0.991982 -1.18318 0
M  V30 7917 H 781.418 0.111955 -4.10347 0
M  V30 7918 H 780.079 0.658692 -3.07116 0
M  V30 7919 H 779.272 -0.761758 -4.9821 0
M  V30 7920 H 778.874 -1.51383 -3.41993 0
M  V30 7921 H 781.166 -1.5691 -6.59079 0
M  V30 7922 H 782.109 -3.07823 -6.37692 0
M  V30 7923 H 782.517 -1.63433 -5.40324 0
M  V30 7924 N 781.915 1.24427 -0.967243 0
M  V30 7925 C 782.862 2.25398 -0.496419 0
M  V30 7926 C 783.832 1.59667 0.457781 0
M  V30 7927 O 785.017 1.87213 0.368246 0
M  V30 7928 C 782.157 3.44474 0.207693 0
M  V30 7929 C 781.27 4.24804 -0.785221 0
M  V30 7930 C 780.405 5.31169 -0.0572631 0
M  V30 7931 C 779.444 6.03195 -1.04027 0
M  V30 7932 N 778.581 7.01265 -0.34235 0
M  V30 7933 H 783.421 2.65039 -1.36229 0
M  V30 7934 H 780.958 1.30288 -0.682902 0
M  V30 7935 H 782.916 4.12376 0.632612 0
M  V30 7936 H 781.546 3.05672 1.03752 0
M  V30 7937 H 780.598 3.56445 -1.32858 0
M  V30 7938 H 781.91 4.74599 -1.53483 0
M  V30 7939 H 781.064 6.05205 0.425674 0
M  V30 7940 H 779.803 4.8228 0.725047 0
M  V30 7941 H 778.808 5.27964 -1.53409 0
M  V30 7942 H 780.033 6.54173 -1.82302 0
M  V30 7943 H 777.979 6.54648 0.420993 0
M  V30 7944 H 777.896 7.48939 -1.03084 0
M  V30 7945 H 779.164 7.7941 0.118634 0
M  V30 7946 N 783.393 0.737304 1.3929 0
M  V30 7947 C 784.326 0.0475454 2.2815 0
M  V30 7948 C 785.304 -0.745314 1.44512 0
M  V30 7949 O 786.488 -0.727387 1.739 0
M  V30 7950 C 783.615 -0.939803 3.254 0
M  V30 7951 C 782.661 -0.235153 4.25851 0
M  V30 7952 S 783.494 1.05252 5.25055 0
M  V30 7953 C 784.65 0.0678242 6.25863 0
M  V30 7954 H 784.883 0.801117 2.86303 0
M  V30 7955 H 782.416 0.529197 1.45048 0
M  V30 7956 H 784.374 -1.50417 3.81949 0
M  V30 7957 H 783.035 -1.66623 2.66262 0
M  V30 7958 H 782.228 -0.982336 4.94334 0
M  V30 7959 H 781.83 0.257245 3.73114 0
M  V30 7960 H 784.122 -0.771779 6.7309 0
M  V30 7961 H 785.065 0.719858 7.04431 0
M  V30 7962 H 785.473 -0.305604 5.63672 0
M  V30 7963 N 784.871 -1.49948 0.485112 0
M  V30 7964 C 786.12 -2.01589 -0.066765 0
M  V30 7965 C 786.433 -1.371 -1.39509 0
M  V30 7966 O 787.639 -1.79978 -2.03274 0
M  V30 7967 C 786.095 -3.59501 -0.169476 0
M  V30 7968 C 785.703 -4.32955 1.15126 0
M  V30 7969 C 787.447 -4.19138 -0.672564 0
M  V30 7970 C 785.354 -5.82684 1.01158 0
M  V30 7971 H 784.284 -0.753453 -0.0287259 0
M  V30 7972 H 786.935 -1.72632 0.622132 0
M  V30 7973 H 785.317 -3.85106 -0.922471 0
M  V30 7974 H 786.491 -4.19064 1.9163 0
M  V30 7975 H 784.806 -3.84991 1.58654 0
M  V30 7976 H 787.403 -5.28767 -0.794325 0
M  V30 7977 H 787.746 -3.81447 -1.66745 0
M  V30 7978 H 788.279 -3.97793 0.0234415 0
M  V30 7979 H 785.018 -6.24873 1.98025 0
M  V30 7980 H 784.538 -5.99112 0.287151 0
M  V30 7981 H 786.217 -6.43376 0.683847 0
M  V30 7982 N 786.349 -0.21828 -1.56081 0
M  V30 7983 C 787.597 0.413488 -1.97825 0
M  V30 7984 C 787.918 1.60527 -1.10707 0
M  V30 7985 O 787.188 1.9504 -0.183378 0
M  V30 7986 H 785.768 0.155757 -0.730581 0
M  V30 7987 H 788.43 -0.310413 -1.92412 0
M  V30 7988 H 787.526 0.742024 -3.03151 0
M  V30 7989 N 787.827 1.57504 0.0551401 0
M  V30 7990 C 788.774 2.04825 1.06373 0
M  V30 7991 C 789.744 0.932108 1.37481 0
M  V30 7992 O 790.929 1.20093 1.48265 0
M  V30 7993 C 788.069 2.51091 2.36743 0
M  V30 7994 C 787.182 3.76392 2.12021 0
M  V30 7995 C 786.317 4.11373 3.36074 0
M  V30 7996 C 785.356 5.29666 3.0679 0
M  V30 7997 N 784.493 5.60205 4.2322 0
M  V30 7998 H 789.333 2.90753 0.653216 0
M  V30 7999 H 786.87 1.43776 0.310951 0
M  V30 8000 H 788.828 2.75973 3.12881 0
M  V30 8001 H 787.458 1.68118 2.75565 0
M  V30 8002 H 786.51 3.58751 1.26498 0
M  V30 8003 H 787.822 4.62662 1.86401 0
M  V30 8004 H 786.976 4.37245 4.20597 0
M  V30 8005 H 785.715 3.23704 3.64784 0
M  V30 8006 H 784.72 5.03574 2.20664 0
M  V30 8007 H 785.945 6.18968 2.79385 0
M  V30 8008 H 783.891 4.75495 4.5193 0
M  V30 8009 H 783.808 6.40928 4.00933 0
M  V30 8010 H 785.076 5.90637 5.08692 0
M  V30 8011 N 789.305 -0.326896 1.54172 0
M  V30 8012 C 790.255 -1.40319 1.79707 0
M  V30 8013 C 791.239 -1.47056 0.652938 0
M  V30 8014 O 792.431 -1.51645 0.91284 0
M  V30 8015 C 789.56 -2.77222 2.02491 0
M  V30 8016 C 788.646 -2.74811 3.23016 0
M  V30 8017 N 789.037 -2.42022 4.44138 0
M  V30 8018 C 787.335 -3.05943 3.24522 0
M  V30 8019 C 788.036 -2.48263 5.26061 0
M  V30 8020 N 787.012 -2.84567 4.63166 0
M  V30 8021 H 790.814 -1.13892 2.70935 0
M  V30 8022 H 788.328 -0.53536 1.53322 0
M  V30 8023 H 790.325 -3.54793 2.18923 0
M  V30 8024 H 788.985 -3.04582 1.12515 0
M  V30 8025 H 789.996 -2.14926 4.71197 0
M  V30 8026 H 786.673 -3.38367 2.44569 0
M  V30 8027 H 788.063 -2.2593 6.32776 0
M  V30 8028 N 790.784 -1.46188 -0.588786 0
M  V30 8029 C 791.731 -1.56292 -1.69828 0
M  V30 8030 C 792.701 -0.407581 -1.61022 0
M  V30 8031 O 793.886 -0.623532 -1.80324 0
M  V30 8032 C 791.026 -1.55341 -3.08161 0
M  V30 8033 C 790.139 -2.81564 -3.27636 0
M  V30 8034 C 789.274 -2.72158 -4.56183 0
M  V30 8035 C 788.313 -3.93348 -4.68981 0
M  V30 8036 N 787.45 -3.82365 -5.88848 0
M  V30 8037 H 792.29 -2.51066 -1.6053 0
M  V30 8038 H 789.827 -1.24562 -0.782474 0
M  V30 8039 H 791.785 -1.52776 -3.88221 0
M  V30 8040 H 790.415 -0.641034 -3.16371 0
M  V30 8041 H 789.467 -2.94136 -2.41223 0
M  V30 8042 H 790.779 -3.714 -3.32962 0
M  V30 8043 H 789.933 -2.67665 -5.44464 0
M  V30 8044 H 788.672 -1.79953 -4.53286 0
M  V30 8045 H 787.677 -3.98181 -3.7912 0
M  V30 8046 H 788.902 -4.86643 -4.73662 0
M  V30 8047 H 786.848 -2.92942 -5.86959 0
M  V30 8048 H 786.765 -4.65851 -5.95415 0
M  V30 8049 H 788.033 -3.81836 -6.79575 0
M  V30 8050 N 792.262 0.832906 -1.33792 0
M  V30 8051 C 793.21 1.96455 -1.24532 0
M  V30 8052 C 794.204 1.68774 -0.145455 0
M  V30 8053 O 795.41 1.77314 -0.309797 0
M  V30 8054 H 791.785 0.645008 -0.386611 0
M  V30 8055 H 793.756 2.01389 -2.20193 0
M  V30 8056 C 792.505 3.32784 -1.00748 0
M  V30 8057 H 791.828 3.54626 -1.84609 0
M  V30 8058 H 793.268 4.12447 -0.98301 0
M  V30 8059 C 791.727 3.35654 0.289475 0
M  V30 8060 O 792.257 3.80281 1.29419 0
M  V30 8061 N 790.463 2.88843 0.3191 0
M  V30 8062 H 790.01 2.52719 -0.499069 0
M  V30 8063 H 789.968 2.91145 1.18667 0
M  V30 8064 N 793.74 1.17359 1.05189 0
M  V30 8065 C 794.989 0.956412 1.77583 0
M  V30 8066 C 795.302 -0.516018 1.88671 0
M  V30 8067 O 796.508 -0.851401 2.57805 0
M  V30 8068 C 794.964 1.66203 3.19225 0
M  V30 8069 C 794.572 3.17299 3.16267 0
M  V30 8070 C 796.316 1.52725 3.96075 0
M  V30 8071 C 794.223 3.8055 4.52698 0
M  V30 8072 H 793.153 0.354204 0.665624 0
M  V30 8073 H 795.804 1.40612 1.17901 0
M  V30 8074 H 794.186 1.14006 3.79234 0
M  V30 8075 H 795.36 3.76431 2.65776 0
M  V30 8076 H 793.675 3.3079 2.52917 0
M  V30 8077 H 796.272 1.97351 4.96947 0
M  V30 8078 H 796.615 0.477803 4.13549 0
M  V30 8079 H 797.148 2.02139 3.42614 0
M  V30 8080 H 793.887 4.85492 4.4043 0
M  V30 8081 H 793.407 3.26206 5.03339 0
M  V30 8082 H 795.086 3.82757 5.21638 0
M  V30 8083 N 795.218 -1.23913 0.973828 0
M  V30 8084 C 796.467 -1.91455 0.63464 0
M  V30 8085 C 796.78 -1.76893 -0.834759 0
M  V30 8086 O 797.986 -2.3918 -1.28473 0
M  V30 8087 C 796.442 -3.43172 1.08447 0
M  V30 8088 C 796.05 -3.66409 2.57776 0
M  V30 8089 C 797.794 -4.1653 0.818721 0
M  V30 8090 C 795.701 -5.11728 2.9646 0
M  V30 8091 H 794.631 -0.716881 0.233661 0
M  V30 8092 H 797.282 -1.40457 1.18085 0
M  V30 8093 H 795.664 -3.93242 0.466524 0
M  V30 8094 H 796.838 -3.26913 3.24753 0
M  V30 8095 H 795.153 -3.06349 2.82027 0
M  V30 8096 H 797.75 -5.23603 1.08367 0
M  V30 8097 H 798.093 -4.15578 -0.245128 0
M  V30 8098 H 798.626 -3.72428 1.39793 0
M  V30 8099 H 795.365 -5.17806 4.01941 0
M  V30 8100 H 794.885 -5.52199 2.34172 0
M  V30 8101 H 796.564 -5.80009 2.86703 0
M  V30 8102 N 796.696 -0.74468 -1.38897 0
M  V30 8103 C 797.644 -0.100312 -2.32384 0
M  V30 8104 C 798.638 0.715191 -1.53562 0
M  V30 8105 O 799.844 0.615288 -1.69157 0
M  V30 8106 H 796.219 -0.0136403 -0.751876 0
M  V30 8107 H 798.19 -0.905007 -2.84345 0
M  V30 8108 C 796.939 0.785432 -3.38713 0
M  V30 8109 H 796.262 0.167308 -3.9945 0
M  V30 8110 H 797.702 1.20374 -4.06554 0
M  V30 8111 C 796.161 1.92408 -2.76552 0
M  V30 8112 O 796.691 3.01752 -2.65157 0
M  V30 8113 N 794.897 1.71642 -2.34494 0
M  V30 8114 H 794.444 0.827079 -2.43961 0
M  V30 8115 H 794.402 2.48 -1.93244 0
M  V30 8116 N 798.174 1.49689 -0.493057 0
M  V30 8117 C 799.104 2.31826 0.279073 0
M  V30 8118 C 800.085 1.39733 0.969987 0
M  V30 8119 O 801.27 1.68646 0.962925 0
M  V30 8120 C 798.4 3.20046 1.34862 0
M  V30 8121 C 797.354 4.20869 0.77805 0
M  V30 8122 C 796.68 4.97971 1.94753 0
M  V30 8123 C 797.98 5.21813 -0.225543 0
M  V30 8124 H 799.674 2.96627 -0.406512 0
M  V30 8125 H 797.22 1.42647 -0.196943 0
M  V30 8126 H 799.173 3.76315 1.89645 0
M  V30 8127 H 797.897 2.53172 2.06328 0
M  V30 8128 H 796.556 3.65733 0.252036 0
M  V30 8129 H 796.204 4.27552 2.64969 0
M  V30 8130 H 795.904 5.66186 1.57187 0
M  V30 8131 H 797.428 5.57082 2.49984 0
M  V30 8132 H 798.842 5.72823 0.233864 0
M  V30 8133 H 797.239 5.97872 -0.516622 0
M  V30 8134 H 798.309 4.71209 -1.14412 0
M  V30 8135 N 799.652 0.226554 1.55963 0
M  V30 8136 C 800.582 -0.676079 2.23498 0
M  V30 8137 C 801.563 -1.19718 1.20837 0
M  V30 8138 O 802.748 -1.24027 1.49436 0
M  V30 8139 C 799.878 -1.88217 2.91876 0
M  V30 8140 C 798.832 -1.4947 4.01052 0
M  V30 8141 C 798.158 -2.77997 4.56751 0
M  V30 8142 C 799.458 -0.680951 5.17842 0
M  V30 8143 H 801.152 -0.112989 2.99187 0
M  V30 8144 H 798.698 -0.0529046 1.43903 0
M  V30 8145 H 800.651 -2.51911 3.37815 0
M  V30 8146 H 799.375 -2.47031 2.13643 0
M  V30 8147 H 798.034 -0.881199 3.55852 0
M  V30 8148 H 797.682 -3.34966 3.75243 0
M  V30 8149 H 797.382 -2.52803 5.30438 0
M  V30 8150 H 798.906 -3.42625 5.05411 0
M  V30 8151 H 800.32 -1.22171 5.60131 0
M  V30 8152 H 798.717 -0.525898 5.97791 0
M  V30 8153 H 799.787 0.311346 4.83899 0
M  V30 8154 N 801.13 -1.57531 -0.0467866 0
M  V30 8155 C 802.378 -1.88078 -0.739656 0
M  V30 8156 C 802.699 -0.821936 -1.76831 0
M  V30 8157 O 801.969 0.146582 -1.95351 0
M  V30 8158 H 800.549 -0.694075 -0.276169 0
M  V30 8159 H 803.211 -1.94893 -0.0169391 0
M  V30 8160 H 802.307 -2.86396 -1.24031 0
M  V30 8161 N 802.608 0.318715 -1.54344 0
M  V30 8162 C 803.571 1.37545 -1.83342 0
M  V30 8163 C 804.571 1.445 -0.705444 0
M  V30 8164 O 805.761 1.44443 -0.973752 0
M  V30 8165 C 802.893 2.76225 -1.99781 0
M  V30 8166 H 804.086 1.13084 -2.77762 0
M  V30 8167 H 801.639 0.554457 -1.46135 0
M  V30 8168 H 802.374 3.05934 -1.07588 0
M  V30 8169 H 802.159 2.7257 -2.81865 0
M  V30 8170 H 803.649 3.52664 -2.23647 0
M  V30 8171 N 804.086 1.46499 0.581025 0
M  V30 8172 C 805.326 1.53456 1.35021 0
M  V30 8173 C 805.69 0.182542 1.9113 0
M  V30 8174 O 806.891 0.126874 2.685 0
M  V30 8175 C 805.162 2.60387 2.44812 0
M  V30 8176 S 806.721 2.86762 3.32134 0
M  V30 8177 H 803.539 0.54216 0.459982 0
M  V30 8178 H 806.141 1.83742 0.667754 0
M  V30 8179 H 804.845 3.57253 2.01986 0
M  V30 8180 H 804.376 2.31839 3.17828 0
M  V30 8181 H 806.391 2.2216 4.43688 0
M  V30 8182 N 805.565 -0.825799 1.34232 0
M  V30 8183 C 806.793 -1.61363 1.29497 0
M  V30 8184 C 807.208 -1.88341 -0.131536 0
M  V30 8185 O 806.565 -1.47279 -1.07773 0
M  V30 8186 C 806.616 -2.95623 2.08061 0
M  V30 8187 O 806.337 -2.69824 3.45147 0
M  V30 8188 C 807.838 -3.90032 2.10688 0
M  V30 8189 H 805.058 -0.501676 0.445603 0
M  V30 8190 H 807.602 -1.02767 1.76803 0
M  V30 8191 H 805.757 -3.50785 1.64404 0
M  V30 8192 H 806.171 -3.55412 3.85723 0
M  V30 8193 H 807.645 -4.81411 2.70087 0
M  V30 8194 H 808.122 -4.25188 1.10052 0
M  V30 8195 H 808.728 -3.40807 2.54422 0
M  V30 8196 N 807.043 -1.17915 -1.04565 0
M  V30 8197 C 807.975 -0.859359 -2.1248 0
M  V30 8198 C 808.988 0.140922 -1.62189 0
M  V30 8199 O 810.177 -0.0862361 -1.78292 0
M  V30 8200 C 807.277 -0.261811 -3.37887 0
M  V30 8201 C 806.45 -1.30651 -4.17431 0
M  V30 8202 C 805.509 -0.725575 -5.21174 0
M  V30 8203 O 804.535 -1.39901 -5.51739 0
M  V30 8204 N 805.737 0.479351 -5.78517 0
M  V30 8205 H 808.502 -1.78818 -2.40508 0
M  V30 8206 H 806.063 -1.07885 -1.20716 0
M  V30 8207 H 808.055 0.14028 -4.04457 0
M  V30 8208 H 806.625 0.570929 -3.07342 0
M  V30 8209 H 805.845 -1.88412 -3.46258 0
M  V30 8210 H 807.133 -2.01099 -4.67372 0
M  V30 8211 H 806.531 1.04431 -5.55977 0
M  V30 8212 H 805.088 0.823427 -6.46578 0
M  V30 8213 N 808.521 1.23394 -0.980386 0
M  V30 8214 C 809.769 1.91431 -0.647978 0
M  V30 8215 C 810.09 1.76871 0.821066 0
M  V30 8216 O 809.36 1.14808 1.58732 0
M  V30 8217 H 807.94 0.708516 -0.236673 0
M  V30 8218 H 810.602 1.50019 -1.2442 0
M  V30 8219 H 809.698 2.98854 -0.899592 0
M  V30 8220 N 809.999 0.752036 1.385 0
M  V30 8221 C 811.247 0.306895 1.99756 0
M  V30 8222 C 811.568 -1.11478 1.59992 0
M  V30 8223 O 810.838 -1.76206 0.856045 0
M  V30 8224 H 809.418 0.11048 0.738785 0
M  V30 8225 H 812.08 0.965785 1.69289 0
M  V30 8226 H 811.176 0.368797 3.09913 0
M  V30 8227 N 811.477 -1.49425 0.500989 0
M  V30 8228 C 812.888 -1.86624 0.0532011 0
M  V30 8229 C 813.239 -1.41331 -1.36088 0
M  V30 8230 O 812.364 -0.791195 -2.01418 0
M  V30 8231 C 812.959 -3.38681 0.0897693 0
M  V30 8232 C 811.518 -3.75181 -0.302677 0
M  V30 8233 C 810.665 -2.73419 0.462307 0
M  V30 8234 H 813.616 -1.41743 0.713773 0
M  V30 8235 H 813.637 -3.73902 -0.705528 0
M  V30 8236 H 813.149 -3.71616 1.11907 0
M  V30 8237 H 811.25 -3.47855 -1.33521 0
M  V30 8238 H 811.363 -4.79097 0.0167653 0
M  V30 8239 H 809.727 -2.54548 -0.0878557 0
M  V30 8240 H 810.51 -3.09198 1.49169 0
M  V30 8241 N 812.955 -0.234822 -1.55841 0
M  V30 8242 C 813.885 0.664217 -2.23854 0
M  V30 8243 C 814.866 1.19076 -1.2147 0
M  V30 8244 O 816.051 1.23232 -1.50091 0
M  V30 8245 C 813.181 1.86666 -2.9287 0
M  V30 8246 C 812.135 1.47341 -4.01839 0
M  V30 8247 C 811.461 2.75571 -4.58219 0
M  V30 8248 C 812.761 0.653479 -5.18196 0
M  V30 8249 H 814.455 0.0971213 -2.99242 0
M  V30 8250 H 812.001 0.0452724 -1.43929 0
M  V30 8251 H 813.954 2.50116 -3.39146 0
M  V30 8252 H 812.678 2.45894 -2.1495 0
M  V30 8253 H 811.337 0.862314 -3.56314 0
M  V30 8254 H 810.985 3.32971 -3.77014 0
M  V30 8255 H 810.685 2.49987 -5.31771 0
M  V30 8256 H 812.209 3.39939 -5.07221 0
M  V30 8257 H 813.623 1.19198 -5.60771 0
M  V30 8258 H 812.02 0.494188 -5.98062 0
M  V30 8259 H 813.09 -0.337004 -4.83728 0
M  V30 8260 N 814.433 1.57553 0.0384317 0
M  V30 8261 C 815.663 1.92813 0.742064 0
M  V30 8262 C 816.071 0.832157 1.69917 0
M  V30 8263 O 815.414 -0.200917 1.82598 0
M  V30 8264 C 815.476 3.23806 1.56172 0
M  V30 8265 C 815.14 4.50459 0.770407 0
M  V30 8266 C 816.137 5.19846 0.0748006 0
M  V30 8267 C 813.822 4.97001 0.727714 0
M  V30 8268 C 815.816 6.34047 -0.652902 0
M  V30 8269 C 813.503 6.111 -0.00373992 0
M  V30 8270 C 814.501 6.79477 -0.692816 0
M  V30 8271 O 814.189 7.91395 -1.41241 0
M  V30 8272 H 813.921 0.641174 0.214179 0
M  V30 8273 H 816.475 2.054 0.00285095 0
M  V30 8274 H 814.705 3.0752 2.34453 0
M  V30 8275 H 816.394 3.44463 2.14709 0
M  V30 8276 H 817.16 4.84899 0.098875 0
M  V30 8277 H 813.039 4.43629 1.25355 0
M  V30 8278 H 816.583 6.87353 -1.1913 0
M  V30 8279 H 812.48 6.45493 -0.0297703 0
M  V30 8280 H 813.248 8.07702 -1.32512 0
M  V30 8281 N 815.911 -0.310526 1.54511 0
M  V30 8282 C 817.157 -1.04846 1.73595 0
M  V30 8283 C 817.49 -1.87244 0.515118 0
M  V30 8284 O 816.765 -1.88282 -0.48786 0
M  V30 8285 C 817.048 -1.96237 3.01932 0
M  V30 8286 C 816.901 -1.17082 4.34295 0
M  V30 8287 C 818.22 -2.9556 3.26086 0
M  V30 8288 H 815.339 -0.37976 0.631626 0
M  V30 8289 H 817.981 -0.32394 1.87218 0
M  V30 8290 H 816.131 -2.58015 2.90449 0
M  V30 8291 H 817.803 -0.576643 4.57682 0
M  V30 8292 H 816.046 -0.473336 4.3121 0
M  V30 8293 H 816.717 -1.84257 5.20339 0
M  V30 8294 H 819.193 -2.43908 3.37117 0
M  V30 8295 H 818.069 -3.5668 4.17218 0
M  V30 8296 H 818.33 -3.68715 2.4393 0
M  V30 8297 N 817.389 -1.46805 -0.573248 0
M  V30 8298 C 818.319 -1.60951 -1.69165 0
M  V30 8299 C 819.3 -0.45948 -1.63777 0
M  V30 8300 O 820.485 -0.68688 -1.81647 0
M  V30 8301 C 817.615 -1.60844 -3.07809 0
M  V30 8302 C 816.569 -2.74913 -3.28035 0
M  V30 8303 C 815.895 -2.59871 -4.67302 0
M  V30 8304 C 817.195 -4.16654 -3.14955 0
M  V30 8305 H 818.889 -2.54574 -1.57582 0
M  V30 8306 H 816.435 -1.22516 -0.756686 0
M  V30 8307 H 818.388 -1.69334 -3.85881 0
M  V30 8308 H 817.112 -0.637714 -3.20314 0
M  V30 8309 H 815.771 -2.65908 -2.52366 0
M  V30 8310 H 815.419 -1.60861 -4.76585 0
M  V30 8311 H 815.119 -3.36386 -4.81786 0
M  V30 8312 H 816.643 -2.70265 -5.4753 0
M  V30 8313 H 818.057 -4.26721 -3.82861 0
M  V30 8314 H 816.454 -4.93831 -3.40956 0
M  V30 8315 H 817.524 -4.36146 -2.11908 0
M  V30 8316 N 818.867 0.818669 -1.34668 0
M  V30 8317 C 820.113 1.57746 -1.27453 0
M  V30 8318 C 820.446 1.93588 0.154077 0
M  V30 8319 O 819.721 1.60371 1.10051 0
M  V30 8320 C 820.004 2.87414 -2.16945 0
M  V30 8321 C 819.857 2.58125 -3.68363 0
M  V30 8322 C 821.176 3.89021 -2.05792 0
M  V30 8323 H 818.295 0.572339 -0.464324 0
M  V30 8324 H 820.937 0.942784 -1.64959 0
M  V30 8325 H 819.087 3.41576 -1.85089 0
M  V30 8326 H 820.759 2.10239 -4.10606 0
M  V30 8327 H 819.002 1.91503 -3.89242 0
M  V30 8328 H 819.673 3.5061 -4.26353 0
M  V30 8329 H 822.149 3.44224 -2.33771 0
M  V30 8330 H 821.025 4.77548 -2.70628 0
M  V30 8331 H 821.286 4.29786 -1.03618 0
M  V30 8332 N 820.346 1.18468 1.03938 0
M  V30 8333 C 821.256 0.927889 2.1547 0
M  V30 8334 C 822.272 -0.108447 1.73662 0
M  V30 8335 O 823.448 0.0737636 2.01265 0
M  V30 8336 C 820.513 0.458494 3.43655 0
M  V30 8337 C 819.574 1.56295 3.99838 0
M  V30 8338 C 818.807 1.11586 5.21904 0
M  V30 8339 O 819.03 -0.0249057 5.70395 0
M  V30 8340 O 817.964 1.91412 5.70653 0
M  V30 8341 H 821.79 1.86116 2.39989 0
M  V30 8342 H 819.375 0.966607 1.13917 0
M  V30 8343 H 821.257 0.204861 4.20902 0
M  V30 8344 H 819.932 -0.446464 3.20606 0
M  V30 8345 H 818.839 1.87061 3.23974 0
M  V30 8346 H 820.172 2.44408 4.2723 0
M  V30 8347 N 821.824 -1.22873 0.986916 0
M  V30 8348 C 823.054 -1.95204 0.67668 0
M  V30 8349 C 823.462 -1.73193 -0.761641 0
M  V30 8350 O 822.805 -1.0243 -1.52492 0
M  V30 8351 C 822.867 -3.48173 0.895302 0
M  V30 8352 C 822.531 -3.93912 2.31695 0
M  V30 8353 C 823.528 -4.02064 3.29607 0
M  V30 8354 C 821.213 -4.26722 2.64978 0
M  V30 8355 C 823.207 -4.42391 4.58878 0
M  V30 8356 C 820.894 -4.66729 3.94471 0
M  V30 8357 C 821.892 -4.74531 4.91232 0
M  V30 8358 O 821.58 -5.13636 6.18412 0
M  V30 8359 H 821.312 -0.628105 0.24992 0
M  V30 8360 H 823.866 -1.5714 1.32274 0
M  V30 8361 H 822.096 -3.86223 0.192072 0
M  V30 8362 H 823.785 -4.01717 0.581233 0
M  V30 8363 H 824.551 -3.76912 3.05225 0
M  V30 8364 H 820.43 -4.19858 1.9037 0
M  V30 8365 H 823.974 -4.48395 5.34404 0
M  V30 8366 H 819.871 -4.91332 4.18645 0
M  V30 8367 H 820.639 -5.31728 6.2226 0
M  V30 8368 N 823.302 -0.75937 -1.38099 0
M  V30 8369 C 824.265 -0.14372 -2.28749 0
M  V30 8370 C 825.265 0.641338 -1.47457 0
M  V30 8371 O 826.455 0.466751 -1.67831 0
M  V30 8372 C 823.587 0.804545 -3.3127 0
M  V30 8373 H 824.78 -0.942663 -2.847 0
M  V30 8374 H 822.333 -0.526757 -1.47156 0
M  V30 8375 H 823.068 1.62895 -2.80421 0
M  V30 8376 H 822.853 0.243939 -3.9134 0
M  V30 8377 H 824.343 1.23111 -3.99041 0
M  V30 8378 N 824.78 1.49157 -0.508906 0
M  V30 8379 C 825.743 2.27784 0.25434 0
M  V30 8380 C 826.743 1.34132 0.88686 0
M  V30 8381 O 827.933 1.5722 0.750168 0
M  V30 8382 C 825.065 3.12347 1.36573 0
M  V30 8383 H 826.258 2.96718 -0.435714 0
M  V30 8384 H 823.811 1.54052 -0.264128 0
M  V30 8385 H 824.546 2.47997 2.08969 0
M  V30 8386 H 824.331 3.81213 0.917543 0
M  V30 8387 H 825.821 3.71712 1.90315 0
M  V30 8388 N 826.258 0.243083 1.55714 0
M  V30 8389 C 827.205 -0.658078 2.21219 0
M  V30 8390 C 828.175 -1.1742 1.17481 0
M  V30 8391 O 829.36 -1.22937 1.45915 0
M  V30 8392 C 826.5 -1.85104 2.91257 0
M  V30 8393 C 825.613 -1.3718 4.09641 0
M  V30 8394 C 824.748 -2.52403 4.67404 0
M  V30 8395 C 823.787 -2.01321 5.78045 0
M  V30 8396 N 822.924 -3.09896 6.30007 0
M  V30 8397 H 827.764 -0.0927854 2.97856 0
M  V30 8398 H 825.301 -0.0340375 1.47061 0
M  V30 8399 H 827.259 -2.55179 3.3006 0
M  V30 8400 H 825.889 -2.38887 2.17101 0
M  V30 8401 H 824.941 -0.565232 3.76177 0
M  V30 8402 H 826.253 -0.957409 4.89525 0
M  V30 8403 H 825.407 -3.30525 5.08761 0
M  V30 8404 H 824.146 -2.97142 3.86728 0
M  V30 8405 H 823.151 -1.21667 5.36169 0
M  V30 8406 H 824.376 -1.57556 6.6057 0
M  V30 8407 H 822.322 -3.54077 5.52237 0
M  V30 8408 H 822.239 -2.72776 7.05074 0
M  V30 8409 H 823.507 -3.8809 6.76023 0
M  V30 8410 N 827.736 -1.57571 -0.0300757 0
M  V30 8411 C 828.984 -1.88852 -0.719666 0
M  V30 8412 C 829.305 -0.840645 -1.75949 0
M  V30 8413 O 828.575 0.125854 -1.95495 0
M  V30 8414 H 827.155 -0.696965 -0.268792 0
M  V30 8415 H 829.817 -1.949 0.00373285 0
M  V30 8416 H 828.913 -2.87695 -1.20987 0
M  V30 8417 N 829.214 0.302327 -1.54673 0
M  V30 8418 C 830.162 1.39286 -1.86285 0
M  V30 8419 C 831.156 1.52553 -0.736478 0
M  V30 8420 O 832.362 1.54686 -0.92045 0
M  V30 8421 H 828.737 0.465228 -0.590819 0
M  V30 8422 H 830.708 1.09859 -2.77441 0
M  V30 8423 C 829.457 2.75155 -2.12567 0
M  V30 8424 H 828.78 2.65728 -2.98712 0
M  V30 8425 H 830.22 3.50476 -2.38627 0
M  V30 8426 C 828.679 3.23987 -0.923813 0
M  V30 8427 O 829.209 4.01443 -0.143649 0
M  V30 8428 N 827.415 2.81293 -0.72956 0
M  V30 8429 H 826.962 2.18421 -1.36565 0
M  V30 8430 H 826.92 3.14315 0.0730351 0
M  V30 8431 N 830.692 1.47107 0.565454 0
M  V30 8432 C 831.622 1.61846 1.68309 0
M  V30 8433 C 832.603 0.468159 1.63531 0
M  V30 8434 O 833.788 0.696504 1.8128 0
M  V30 8435 C 830.918 1.62474 3.06952 0
M  V30 8436 C 829.872 2.76649 3.26572 0
M  V30 8437 C 829.198 2.62345 4.65917 0
M  V30 8438 C 830.498 4.18319 3.12741 0
M  V30 8439 H 832.192 2.55407 1.5623 0
M  V30 8440 H 829.738 1.22916 0.750179 0
M  V30 8441 H 831.691 1.71378 3.84977 0
M  V30 8442 H 830.415 0.654692 3.19971 0
M  V30 8443 H 829.074 2.67242 2.50952 0
M  V30 8444 H 828.722 1.63386 4.75725 0
M  V30 8445 H 828.422 3.38936 4.79996 0
M  V30 8446 H 829.946 2.73165 5.46089 0
M  V30 8447 H 831.36 4.28745 3.80593 0
M  V30 8448 H 829.757 4.95632 3.38333 0
M  V30 8449 H 830.827 4.37263 2.09592 0
M  V30 8450 N 832.17 -0.811516 1.35101 0
M  V30 8451 C 833.586 -1.10634 1.15031 0
M  V30 8452 C 833.786 -2.01459 -0.0405379 0
M  V30 8453 O 832.842 -2.42235 -0.712635 0
M  V30 8454 C 834.155 -1.74207 2.45097 0
M  V30 8455 C 835.703 -1.8665 2.51258 0
M  V30 8456 C 836.178 -2.53638 3.81355 0
M  V30 8457 N 837.669 -2.61128 3.82579 0
M  V30 8458 C 838.404 -3.13717 4.79968 0
M  V30 8459 N 837.9 -3.66782 5.87744 0
M  V30 8460 N 839.693 -3.12224 4.67411 0
M  V30 8461 H 831.844 -0.207641 2.11383 0
M  V30 8462 H 834.107 -0.154697 0.935293 0
M  V30 8463 H 833.813 -1.14936 3.32389 0
M  V30 8464 H 833.687 -2.73958 2.59281 0
M  V30 8465 H 836.074 -2.45066 1.64398 0
M  V30 8466 H 836.155 -0.857678 2.40993 0
M  V30 8467 H 835.799 -1.95873 4.68611 0
M  V30 8468 H 835.729 -3.55047 3.88907 0
M  V30 8469 H 838.22 -2.23527 3.04703 0
M  V30 8470 H 838.533 -4.05194 6.58056 0
M  V30 8471 H 836.878 -3.64994 5.91443 0
M  V30 8472 H 840.069 -2.70042 3.82354 0
M  V30 8473 H 840.242 -3.52903 5.43474 0
M  V30 8474 N 833.648 -1.19017 -1.03309 0
M  V30 8475 C 834.558 -0.939303 -2.14975 0
M  V30 8476 C 835.574 0.0992359 -1.73717 0
M  V30 8477 O 836.75 -0.0844362 -2.01223 0
M  V30 8478 C 833.815 -0.476712 -3.43407 0
M  V30 8479 C 832.876 -1.58413 -3.99003 0
M  V30 8480 C 832.109 -1.14352 -5.21305 0
M  V30 8481 O 832.332 -0.00534408 -5.704 0
M  V30 8482 O 831.266 -1.94436 -5.6963 0
M  V30 8483 H 835.092 -1.87386 -2.38998 0
M  V30 8484 H 832.677 -0.972635 -1.13403 0
M  V30 8485 H 834.559 -0.22718 -4.20787 0
M  V30 8486 H 833.234 0.429455 -3.20839 0
M  V30 8487 H 832.141 -1.88777 -3.22977 0
M  V30 8488 H 833.474 -2.4667 -4.25928 0
M  V30 8489 N 835.127 1.22348 -0.993418 0
M  V30 8490 C 836.374 1.9111 -0.669568 0
M  V30 8491 C 836.702 1.77357 0.79843 0
M  V30 8492 O 835.957 1.13675 1.593 0
M  V30 8493 C 836.256 3.42477 -1.02197 0
M  V30 8494 C 835.922 3.7642 -2.48232 0
M  V30 8495 C 834.584 3.85395 -2.88139 0
M  V30 8496 C 836.936 3.9253 -3.42884 0
M  V30 8497 C 834.264 4.07918 -4.21687 0
M  V30 8498 C 836.616 4.16557 -4.76091 0
M  V30 8499 C 835.28 4.23757 -5.15739 0
M  V30 8500 H 834.55 0.699321 -0.245012 0
M  V30 8501 H 837.197 1.45102 -1.2497 0
M  V30 8502 H 835.502 3.90143 -0.359921 0
M  V30 8503 H 837.199 3.93935 -0.74942 0
M  V30 8504 H 833.789 3.70017 -2.16299 0
M  V30 8505 H 837.973 3.84974 -3.13224 0
M  V30 8506 H 833.229 4.11719 -4.51993 0
M  V30 8507 H 837.403 4.27966 -5.4938 0
M  V30 8508 H 835.03 4.40962 -6.19239 0
M  V30 8509 N 836.605 0.766683 1.37694 0
M  V30 8510 C 837.535 0.163432 2.32927 0
M  V30 8511 C 838.516 -0.688861 1.55527 0
M  V30 8512 O 839.701 -0.627363 1.83787 0
M  V30 8513 C 836.831 -0.720416 3.39746 0
M  V30 8514 C 835.785 0.0301718 4.27989 0
M  V30 8515 C 835.111 -0.972788 5.25776 0
M  V30 8516 C 836.411 1.20623 5.0818 0
M  V30 8517 H 838.105 0.958988 2.83626 0
M  V30 8518 H 835.651 0.462601 1.36367 0
M  V30 8519 H 837.604 -1.15221 4.05342 0
M  V30 8520 H 836.328 -1.54844 2.8756 0
M  V30 8521 H 834.987 0.442685 3.63917 0
M  V30 8522 H 834.635 -1.79522 4.69873 0
M  V30 8523 H 834.335 -0.475145 5.85676 0
M  V30 8524 H 835.859 -1.40362 5.94248 0
M  V30 8525 H 837.273 0.851341 5.66944 0
M  V30 8526 H 835.67 1.63561 5.7738 0
M  V30 8527 H 836.74 2.01281 4.41151 0
M  V30 8528 N 838.083 -1.48885 0.516809 0
M  V30 8529 C 839.499 -1.58651 0.173788 0
M  V30 8530 C 839.699 -1.52033 -1.32243 0
M  V30 8531 O 838.755 -1.40251 -2.09967 0
M  V30 8532 C 840.068 -2.90816 0.764628 0
M  V30 8533 C 841.616 -3.04316 0.732164 0
M  V30 8534 C 842.091 -4.39123 1.30135 0
M  V30 8535 N 843.582 -4.45656 1.26273 0
M  V30 8536 C 844.317 -5.48446 1.67317 0
M  V30 8537 N 843.813 -6.58258 2.16028 0
M  V30 8538 N 845.606 -5.39251 1.58635 0
M  V30 8539 H 837.757 -1.5143 1.48939 0
M  V30 8540 H 840.02 -0.718243 0.618733 0
M  V30 8541 H 839.726 -3.01275 1.81456 0
M  V30 8542 H 839.6 -3.76473 0.234113 0
M  V30 8543 H 841.987 -2.93478 -0.308975 0
M  V30 8544 H 842.068 -2.20303 1.3 0
M  V30 8545 H 841.712 -4.50714 2.34135 0
M  V30 8546 H 841.642 -5.21801 0.709305 0
M  V30 8547 H 844.133 -3.66879 0.906006 0
M  V30 8548 H 844.446 -7.32811 2.45374 0
M  V30 8549 H 842.791 -6.59257 2.20013 0
M  V30 8550 H 845.982 -4.52354 1.20387 0
M  V30 8551 H 846.155 -6.19229 1.90944 0
M  V30 8552 N 839.561 -0.251338 -1.55583 0
M  V30 8553 C 840.524 0.63305 -2.20284 0
M  V30 8554 C 841.524 1.09941 -1.17344 0
M  V30 8555 O 842.714 1.00341 -1.42399 0
M  V30 8556 C 839.846 1.8706 -2.84993 0
M  V30 8557 H 841.039 0.0684846 -2.99822 0
M  V30 8558 H 838.592 -0.00181653 -1.563 0
M  V30 8559 H 839.327 2.47629 -2.09405 0
M  V30 8560 H 839.112 1.54436 -3.60405 0
M  V30 8561 H 840.602 2.50004 -3.34496 0
M  V30 8562 N 841.039 1.57585 0.0217189 0
M  V30 8563 C 842.455 1.55072 0.377484 0
M  V30 8564 C 842.655 0.978423 1.76151 0
M  V30 8565 O 841.711 0.602688 2.45202 0
M  V30 8566 C 843.024 2.99462 0.272605 0
M  V30 8567 C 844.572 3.11047 0.349148 0
M  V30 8568 C 845.047 4.57182 0.273636 0
M  V30 8569 N 846.538 4.62007 0.332206 0
M  V30 8570 C 847.273 5.72631 0.296782 0
M  V30 8571 N 846.769 6.92472 0.21322 0
M  V30 8572 N 848.562 5.61028 0.347053 0
M  V30 8573 H 840.713 1.93133 -0.883925 0
M  V30 8574 H 842.976 0.886151 -0.33681 0
M  V30 8575 H 842.682 3.45088 -0.67878 0
M  V30 8576 H 842.556 3.61901 1.06335 0
M  V30 8577 H 844.943 2.65364 1.29097 0
M  V30 8578 H 845.024 2.51425 -0.471085 0
M  V30 8579 H 844.668 5.03534 -0.664548 0
M  V30 8580 H 844.598 5.14724 1.11207 0
M  V30 8581 H 847.089 3.75788 0.399003 0
M  V30 8582 H 847.402 7.72563 0.191492 0
M  V30 8583 H 845.747 6.94769 0.179161 0
M  V30 8584 H 848.938 4.66298 0.410378 0
M  V30 8585 H 849.111 6.47229 0.315979 0
M  V30 8586 N 842.517 -0.29412 1.54831 0
M  V30 8587 C 843.933 -0.640167 1.46199 0
M  V30 8588 C 844.133 -1.90426 0.658798 0
M  V30 8589 O 843.189 -2.51932 0.169228 0
M  V30 8590 C 844.502 -0.786763 2.90225 0
M  V30 8591 C 846.05 -0.882201 3.0031 0
M  V30 8592 C 846.525 -1.06074 4.45547 0
M  V30 8593 N 848.016 -1.12678 4.49286 0
M  V30 8594 C 848.751 -1.28334 5.58854 0
M  V30 8595 N 848.247 -1.40845 6.78332 0
M  V30 8596 N 850.04 -1.31277 5.46555 0
M  V30 8597 H 842.191 0.536334 2.05517 0
M  V30 8598 H 844.454 0.178363 0.93107 0
M  V30 8599 H 844.16 0.0713018 3.51628 0
M  V30 8600 H 844.034 -1.67364 3.38037 0
M  V30 8601 H 846.421 -1.73075 2.39017 0
M  V30 8602 H 846.502 0.0288405 2.55784 0
M  V30 8603 H 846.146 -0.216935 5.07437 0
M  V30 8604 H 846.076 -1.98611 4.8771 0
M  V30 8605 H 848.567 -1.04335 3.63212 0
M  V30 8606 H 848.88 -1.52566 7.57591 0
M  V30 8607 H 847.225 -1.37888 6.81184 0
M  V30 8608 H 850.416 -1.2112 4.52159 0
M  V30 8609 H 850.589 -1.43136 6.31994 0
M  V30 8610 N 843.995 -1.47404 -0.557645 0
M  V30 8611 C 845.406 -1.47872 -1.13977 0
M  V30 8612 C 845.757 -0.233176 -1.94809 0
M  V30 8613 O 844.882 0.661945 -2.06027 0
M  V30 8614 C 845.477 -2.67926 -2.07368 0
M  V30 8615 C 844.036 -2.71354 -2.60852 0
M  V30 8616 C 843.183 -2.40967 -1.37223 0
M  V30 8617 H 846.134 -1.54921 -0.344268 0
M  V30 8618 H 846.155 -2.44871 -2.91236 0
M  V30 8619 H 845.667 -3.58562 -1.48509 0
M  V30 8620 H 843.768 -1.84855 -3.23511 0
M  V30 8621 H 843.881 -3.72032 -3.01876 0
M  V30 8622 H 842.245 -1.91541 -1.67882 0
M  V30 8623 H 843.028 -3.33811 -0.801583 0
M  V30 8624 N 845.473 0.80434 -1.35529 0
M  V30 8625 C 846.884 1.37849 -1.25915 0
M  V30 8626 C 847.235 1.95905 0.107495 0
M  V30 8627 O 846.36 1.91462 1.00852 0
M  V30 8628 C 846.955 2.50608 -2.27994 0
M  V30 8629 C 845.514 3.03879 -2.22114 0
M  V30 8630 C 844.661 1.76856 -2.13582 0
M  V30 8631 H 847.612 0.607192 -1.46625 0
M  V30 8632 H 847.633 3.29221 -1.90772 0
M  V30 8633 H 847.145 2.08323 -3.27449 0
M  V30 8634 H 845.246 3.50622 -1.26077 0
M  V30 8635 H 845.359 3.61707 -3.14173 0
M  V30 8636 H 843.723 1.98498 -1.59595 0
M  V30 8637 H 844.506 1.36721 -3.14901 0
M  V30 8638 N 846.951 1.19563 1.02676 0
M  V30 8639 C 848.199 0.997593 1.75763 0
M  V30 8640 C 848.52 -0.47253 1.89188 0
M  V30 8641 O 847.79 -1.34214 1.42701 0
M  V30 8642 H 846.37 0.366128 0.651122 0
M  V30 8643 H 849.032 1.50495 1.23844 0
M  V30 8644 H 848.128 1.44741 2.76508 0
M  V30 8645 N 848.429 -1.21819 0.999893 0
M  V30 8646 C 849.359 -2.26282 0.576096 0
M  V30 8647 C 850.34 -1.65317 -0.400537 0
M  V30 8648 O 851.525 -1.92028 -0.28964 0
M  V30 8649 C 848.655 -3.47147 -0.103145 0
M  V30 8650 C 847.609 -4.20594 0.792745 0
M  V30 8651 C 846.935 -5.34696 -0.0198026 0
M  V30 8652 C 848.235 -4.78533 2.09293 0
M  V30 8653 H 849.929 -2.61984 1.4493 0
M  V30 8654 H 847.475 -1.25935 0.698316 0
M  V30 8655 H 849.428 -4.1939 -0.411068 0
M  V30 8656 H 848.152 -3.1056 -1.01094 0
M  V30 8657 H 846.811 -3.50194 1.08442 0
M  V30 8658 H 846.459 -4.94352 -0.928729 0
M  V30 8659 H 846.159 -5.84764 0.576661 0
M  V30 8660 H 847.683 -6.09752 -0.321659 0
M  V30 8661 H 849.097 -5.42682 1.8485 0
M  V30 8662 H 847.494 -5.38968 2.63881 0
M  V30 8663 H 848.564 -3.98197 2.76708 0
M  V30 8664 N 849.908 -0.773975 -1.37286 0
M  V30 8665 C 851.185 -0.263942 -1.93811 0
M  V30 8666 C 851.565 1.24138 -1.70743 0
M  V30 8667 O 850.913 2.02557 -1.05749 0
M  V30 8668 C 851.123 -0.639753 -3.43086 0
M  V30 8669 C 852.471 -0.610796 -4.20184 0
M  V30 8670 O 853.495 -0.579278 -3.51458 0
M  V30 8671 O 852.354 -0.639862 -5.42741 0
M  V30 8672 H 849.448 -0.0614331 -0.824715 0
M  V30 8673 H 851.994 -0.855477 -1.46559 0
M  V30 8674 H 850.766 -1.67856 -3.53469 0
M  V30 8675 H 850.389 -0.0212827 -3.97594 0
M  V30 8676 N 851.386 1.48609 -0.524698 0
M  V30 8677 C 852.616 2.06599 0.00741868 0
M  V30 8678 C 853.024 1.3823 1.29186 0
M  V30 8679 O 852.367 0.461962 1.77797 0
M  V30 8680 C 852.429 3.58184 0.307324 0
M  V30 8681 C 852.093 4.48391 -0.882864 0
M  V30 8682 C 853.09 4.88485 -1.77984 0
M  V30 8683 C 850.775 4.90367 -1.08837 0
M  V30 8684 C 852.769 5.69319 -2.86627 0
M  V30 8685 C 850.456 5.70972 -2.17794 0
M  V30 8686 C 851.454 6.10355 -3.06523 0
M  V30 8687 O 851.142 6.89343 -4.13596 0
M  V30 8688 H 850.874 0.675421 -0.0279846 0
M  V30 8689 H 853.428 1.92058 -0.7282 0
M  V30 8690 H 851.658 3.70818 1.09685 0
M  V30 8691 H 853.347 3.98318 0.780886 0
M  V30 8692 H 854.113 4.56682 -1.63299 0
M  V30 8693 H 849.992 4.592 -0.407035 0
M  V30 8694 H 853.536 5.99978 -3.55911 0
M  V30 8695 H 849.433 6.02188 -2.32465 0
M  V30 8696 H 850.201 7.07689 -4.1124 0
M  V30 8697 N 852.864 0.259585 1.55447 0
M  V30 8698 C 854.089 -0.368317 2.04103 0
M  V30 8699 C 854.514 -1.49827 1.13725 0
M  V30 8700 O 853.872 -1.80814 0.132705 0
M  V30 8701 C 853.92 -0.841506 3.50644 0
M  V30 8702 O 853.024 -1.95008 3.63381 0
M  V30 8703 H 852.365 -0.0785227 0.659341 0
M  V30 8704 H 854.895 0.389349 2.00861 0
M  V30 8705 H 854.905 -1.14138 3.9171 0
M  V30 8706 H 853.58 -0.0147001 4.15897 0
M  V30 8707 H 852.157 -1.65393 3.34215 0
M  V30 8708 N 854.342 -1.57594 -0.0133615 0
M  V30 8709 C 855.589 -1.8998 -0.70098 0
M  V30 8710 C 855.917 -0.858802 -1.74513 0
M  V30 8711 O 855.172 0.138209 -1.95211 0
M  V30 8712 C 855.471 -3.29121 -1.39336 0
M  V30 8713 C 855.137 -4.48298 -0.483687 0
M  V30 8714 C 853.799 -4.80635 -0.233186 0
M  V30 8715 C 856.151 -5.21003 0.143426 0
M  V30 8716 C 853.479 -5.83055 0.652943 0
M  V30 8717 C 855.831 -6.24366 1.01735 0
M  V30 8718 C 854.495 -6.55168 1.27716 0
M  V30 8719 H 853.765 -0.695187 -0.256507 0
M  V30 8720 H 856.412 -1.9146 0.0392965 0
M  V30 8721 H 854.717 -3.23703 -2.20735 0
M  V30 8722 H 856.414 -3.51433 -1.93121 0
M  V30 8723 H 853.004 -4.23024 -0.689092 0
M  V30 8724 H 857.188 -4.96286 -0.0371139 0
M  V30 8725 H 852.444 -6.05288 0.862379 0
M  V30 8726 H 856.618 -6.79839 1.5097 0
M  V30 8727 H 854.245 -7.34351 1.9655 0
M  V30 8728 N 855.82 0.285905 -1.54985 0
M  V30 8729 C 857.097 1.0397 -1.65679 0
M  V30 8730 C 857.477 2.04725 -0.514851 0
M  V30 8731 O 856.825 2.23257 0.486663 0
M  V30 8732 C 857.035 1.70807 -3.04345 0
M  V30 8733 C 858.383 2.22447 -3.61666 0
M  V30 8734 O 859.407 1.80815 -3.06895 0
M  V30 8735 O 858.266 2.98773 -4.57599 0
M  V30 8736 H 855.36 0.481473 -0.672394 0
M  V30 8737 H 857.906 0.282789 -1.67327 0
M  V30 8738 H 856.678 0.977271 -3.789 0
M  V30 8739 H 856.301 2.53217 -3.06541 0
M  V30 8740 N 857.298 1.47698 0.54982 0
M  V30 8741 C 858.526 1.5833 1.33188 0
M  V30 8742 C 858.941 0.236193 1.87317 0
M  V30 8743 O 858.298 -0.77167 1.65383 0
M  V30 8744 C 858.349 2.61438 2.49664 0
M  V30 8745 O 858.07 3.9092 1.97771 0
M  V30 8746 C 859.571 2.82324 3.41772 0
M  V30 8747 H 856.791 0.53443 0.405741 0
M  V30 8748 H 859.335 1.93375 0.665309 0
M  V30 8749 H 857.49 2.29307 3.12245 0
M  V30 8750 H 857.904 4.47323 2.73866 0
M  V30 8751 H 859.378 3.58316 4.19897 0
M  V30 8752 H 859.855 1.90416 3.95776 0
M  V30 8753 H 860.461 3.15682 2.85 0
M  V30 8754 N 858.776 -0.797141 1.35954 0
M  V30 8755 C 860.016 -1.56795 1.31128 0
M  V30 8756 C 860.38 -1.91683 -0.110364 0
M  V30 8757 O 861.581 -2.67305 -0.283093 0
M  V30 8758 C 859.852 -2.81577 2.20111 0
M  V30 8759 S 861.411 -3.71895 2.32894 0
M  V30 8760 H 858.229 -0.53711 0.465869 0
M  V30 8761 H 860.831 -0.939522 1.71445 0
M  V30 8762 H 859.535 -2.53986 3.22365 0
M  V30 8763 H 859.066 -3.49399 1.80786 0
M  V30 8764 H 861.081 -4.72322 1.52073 0
M  V30 8765 N 860.254 -1.20106 -1.0204 0
M  V30 8766 C 861.201 -0.946468 -2.10501 0
M  V30 8767 C 862.171 0.121902 -1.65652 0
M  V30 8768 O 863.356 -0.0220244 -1.90787 0
M  V30 8769 C 860.496 -0.500499 -3.41451 0
M  V30 8770 C 859.609 -1.63659 -3.998 0
M  V30 8771 C 858.744 -1.14131 -5.18794 0
M  V30 8772 C 857.783 -2.25074 -5.69217 0
M  V30 8773 N 856.92 -1.76791 -6.79477 0
M  V30 8774 H 861.76 -1.87506 -2.31615 0
M  V30 8775 H 859.297 -0.934693 -1.13587 0
M  V30 8776 H 861.255 -0.223276 -4.16602 0
M  V30 8777 H 859.885 0.391099 -3.20422 0
M  V30 8778 H 858.937 -2.02882 -3.21781 0
M  V30 8779 H 860.249 -2.47213 -4.33229 0
M  V30 8780 H 859.403 -0.819826 -6.01135 0
M  V30 8781 H 858.142 -0.275615 -4.86921 0
M  V30 8782 H 857.147 -2.58043 -4.85483 0
M  V30 8783 H 858.372 -3.12114 -6.03127 0
M  V30 8784 H 856.318 -0.925428 -6.4944 0
M  V30 8785 H 856.235 -2.53928 -7.12079 0
M  V30 8786 H 857.503 -1.47631 -7.65392 0
M  V30 8787 N 861.732 1.21287 -1.00634 0
M  V30 8788 C 863.143 1.72136 -0.722914 0
M  V30 8789 C 863.494 1.8091 0.759338 0
M  V30 8790 O 862.619 1.46458 1.59308 0
M  V30 8791 C 863.214 3.12633 -1.30561 0
M  V30 8792 C 861.773 3.60833 -1.07127 0
M  V30 8793 C 860.92 2.38326 -1.4176 0
M  V30 8794 H 863.871 1.06445 -1.17708 0
M  V30 8795 H 863.892 3.74174 -0.690937 0
M  V30 8796 H 863.404 3.06215 -2.38441 0
M  V30 8797 H 861.505 3.72599 -0.00968671 0
M  V30 8798 H 861.618 4.46226 -1.74411 0
M  V30 8799 H 859.982 2.40575 -0.836412 0
M  V30 8800 H 860.765 2.34558 -2.50674 0
M  V30 8801 N 863.21 0.781244 1.36873 0
M  V30 8802 C 864.621 0.414093 1.8205 0
M  V30 8803 C 864.972 -1.06098 1.65039 0
M  V30 8804 O 864.097 -1.82251 1.16677 0
M  V30 8805 C 864.692 0.744837 3.30511 0
M  V30 8806 C 863.251 0.430621 3.73929 0
M  V30 8807 C 862.398 0.983746 2.59264 0
M  V30 8808 H 865.349 0.975091 1.2521 0
M  V30 8809 H 865.37 0.032936 3.80486 0
M  V30 8810 H 864.882 1.81847 3.42861 0
M  V30 8811 H 862.983 -0.635308 3.67144 0
M  V30 8812 H 863.096 0.945514 4.69677 0
M  V30 8813 H 861.46 0.407433 2.5142 0
M  V30 8814 H 862.243 2.06297 2.74402 0
M  V30 8815 N 864.689 -1.48329 0.532571 0
M  V30 8816 C 865.599 -2.33445 -0.232546 0
M  V30 8817 C 866.615 -1.46651 -0.93645 0
M  V30 8818 O 867.791 -1.79627 -0.910834 0
M  V30 8819 C 864.856 -3.22824 -1.26434 0
M  V30 8820 C 863.917 -4.25492 -0.570511 0
M  V30 8821 C 863.15 -5.10601 -1.55315 0
M  V30 8822 O 863.373 -4.97733 -2.78599 0
M  V30 8823 O 862.307 -5.91927 -1.09112 0
M  V30 8824 H 866.133 -3.00119 0.464988 0
M  V30 8825 H 863.718 -1.46489 0.293462 0
M  V30 8826 H 865.6 -3.78103 -1.86055 0
M  V30 8827 H 864.275 -2.58807 -1.94424 0
M  V30 8828 H 863.182 -3.74041 0.0662587 0
M  V30 8829 H 864.515 -4.92154 0.0674904 0
M  V30 8830 N 866.167 -0.267825 -1.55308 0
M  V30 8831 C 867.077 0.633055 -2.25897 0
M  V30 8832 C 868.093 1.17613 -1.28231 0
M  V30 8833 O 869.269 1.20797 -1.61153 0
M  V30 8834 C 866.334 1.80397 -2.96071 0
M  V30 8835 C 865.395 1.29829 -4.09198 0
M  V30 8836 C 864.628 2.4134 -4.76016 0
M  V30 8837 O 864.851 3.60537 -4.42006 0
M  V30 8838 O 863.785 2.09909 -5.64111 0
M  V30 8839 H 867.611 0.0614381 -3.03638 0
M  V30 8840 H 865.196 -0.0355072 -1.49358 0
M  V30 8841 H 867.078 2.48685 -3.40197 0
M  V30 8842 H 865.753 2.36281 -2.21253 0
M  V30 8843 H 864.66 0.582086 -3.69544 0
M  V30 8844 H 865.993 0.785288 -4.85895 0
M  V30 8845 N 867.645 1.57599 0.00500368 0
M  V30 8846 C 868.577 2.04949 1.02609 0
M  V30 8847 C 869.59 0.966507 1.31006 0
M  V30 8848 O 870.779 1.2434 1.2807 0
M  V30 8849 C 867.879 2.43023 2.36206 0
M  V30 8850 C 867.052 3.73993 2.26821 0
M  V30 8851 C 866.111 3.9899 3.43065 0
M  V30 8852 O 865.137 4.69725 3.21477 0
M  V30 8853 N 866.339 3.46496 4.65748 0
M  V30 8854 H 869.104 2.93167 0.622336 0
M  V30 8855 H 866.665 1.60752 0.192488 0
M  V30 8856 H 868.657 2.56863 3.12735 0
M  V30 8857 H 867.227 1.60349 2.68341 0
M  V30 8858 H 866.447 3.70277 1.35235 0
M  V30 8859 H 867.735 4.59865 2.17719 0
M  V30 8860 H 867.133 2.89206 4.86186 0
M  V30 8861 H 865.69 3.65675 5.3956 0
M  V30 8862 N 869.123 -0.277682 1.55134 0
M  V30 8863 C 870.053 -1.34742 1.90701 0
M  V30 8864 C 871.034 -1.51757 0.768354 0
M  V30 8865 O 872.219 -1.64879 1.02609 0
M  V30 8866 C 869.349 -2.70775 2.17481 0
M  V30 8867 C 868.303 -2.68497 3.33307 0
M  V30 8868 C 867.629 -4.08037 3.45557 0
M  V30 8869 C 868.929 -2.28178 4.69821 0
M  V30 8870 H 870.623 -1.05224 2.803 0
M  V30 8871 H 868.169 -0.504738 1.34864 0
M  V30 8872 H 870.122 -3.45719 2.40949 0
M  V30 8873 H 868.846 -3.01867 1.24676 0
M  V30 8874 H 867.505 -1.9601 3.09799 0
M  V30 8875 H 867.153 -4.36344 2.50226 0
M  V30 8876 H 866.853 -4.07409 4.23429 0
M  V30 8877 H 868.377 -4.84726 3.71312 0
M  V30 8878 H 869.791 -2.92843 4.92865 0
M  V30 8879 H 868.188 -2.3872 5.50575 0
M  V30 8880 H 869.258 -1.23308 4.6896 0
M  V30 8881 N 870.601 -1.47988 -0.541979 0
M  V30 8882 C 871.829 -1.59034 -1.32347 0
M  V30 8883 C 872.244 -0.246123 -1.87189 0
M  V30 8884 O 871.601 0.762889 -1.6579 0
M  V30 8885 C 871.652 -2.62759 -2.48274 0
M  V30 8886 O 871.373 -3.91963 -1.95695 0
M  V30 8887 C 872.874 -2.84133 -3.4027 0
M  V30 8888 H 870.094 -0.536574 -0.402901 0
M  V30 8889 H 872.638 -1.93725 -0.655045 0
M  V30 8890 H 870.793 -2.3096 -3.11025 0
M  V30 8891 H 871.207 -4.48769 -2.7149 0
M  V30 8892 H 872.681 -3.60538 -4.17991 0
M  V30 8893 H 873.158 -1.92512 -3.9476 0
M  V30 8894 H 873.764 -3.17188 -2.83322 0
M  V30 8895 N 872.079 0.78992 -1.36375 0
M  V30 8896 C 873.326 1.54777 -1.30576 0
M  V30 8897 C 873.654 1.94159 0.115095 0
M  V30 8898 O 872.909 1.62918 1.08426 0
M  V30 8899 C 873.208 2.83698 -2.17371 0
M  V30 8900 C 872.874 2.63457 -3.65925 0
M  V30 8901 C 871.536 2.57645 -4.06415 0
M  V30 8902 C 873.888 2.44833 -4.60115 0
M  V30 8903 C 871.216 2.31174 -5.39236 0
M  V30 8904 C 873.568 2.19889 -5.93154 0
M  V30 8905 C 872.232 2.1251 -6.32768 0
M  V30 8906 H 871.502 0.566371 -0.477813 0
M  V30 8907 H 874.149 0.91138 -1.68422 0
M  V30 8908 H 872.454 3.51802 -1.72459 0
M  V30 8909 H 874.151 3.41487 -2.10209 0
M  V30 8910 H 870.741 2.68836 -3.33804 0
M  V30 8911 H 874.925 2.48325 -4.29707 0
M  V30 8912 H 870.181 2.23942 -5.68911 0
M  V30 8913 H 874.355 2.04473 -6.65705 0
M  V30 8914 H 871.982 1.91761 -7.35616 0
M  V30 8915 N 873.557 1.20646 1.01402 0
M  V30 8916 C 874.504 0.957618 2.09996 0
M  V30 8917 C 875.474 -0.113115 1.65714 0
M  V30 8918 O 876.659 0.032142 1.90773 0
M  V30 8919 C 873.799 0.5186 3.41181 0
M  V30 8920 C 872.912 1.65777 3.98926 0
M  V30 8921 C 872.047 1.16881 5.18182 0
M  V30 8922 C 871.086 2.2809 5.68015 0
M  V30 8923 N 870.223 1.80392 6.7853 0
M  V30 8924 H 875.063 1.88732 2.30617 0
M  V30 8925 H 872.6 0.940703 1.13089 0
M  V30 8926 H 874.558 0.245367 4.16478 0
M  V30 8927 H 873.188 -0.3741 3.20625 0
M  V30 8928 H 872.24 2.04586 3.207 0
M  V30 8929 H 873.552 2.49507 4.31912 0
M  V30 8930 H 872.706 0.851694 6.00692 0
M  V30 8931 H 871.445 0.301434 4.86768 0
M  V30 8932 H 870.45 2.60614 4.84108 0
M  V30 8933 H 871.675 3.15308 6.01463 0
M  V30 8934 H 869.621 0.959856 6.4894 0
M  V30 8935 H 869.538 2.57701 7.10722 0
M  V30 8936 H 870.806 1.51688 7.64598 0
M  V30 8937 N 875.035 -1.20752 1.01276 0
M  V30 8938 C 876.312 -1.85676 0.615112 0
M  V30 8939 C 876.692 -1.90623 -0.906976 0
M  V30 8940 O 876.04 -1.41124 -1.79712 0
M  V30 8941 C 876.25 -3.2552 1.25847 0
M  V30 8942 C 877.598 -4.0184 1.37148 0
M  V30 8943 O 878.622 -3.3486 1.21438 0
M  V30 8944 O 877.481 -5.21783 1.62495 0
M  V30 8945 H 874.575 -0.799437 0.211729 0
M  V30 8946 H 877.121 -1.28372 1.10989 0
M  V30 8947 H 875.893 -3.16664 2.29869 0
M  V30 8948 H 875.516 -3.90452 0.750524 0
M  V30 8949 N 876.513 -0.788492 -1.36457 0
M  V30 8950 C 877.443 -0.200468 -2.32638 0
M  V30 8951 C 878.424 0.664031 -1.56603 0
M  V30 8952 O 879.609 0.598045 -1.84762 0
M  V30 8953 C 876.739 0.666274 -3.40849 0
M  V30 8954 C 875.693 -0.0982574 -4.27887 0
M  V30 8955 C 875.019 0.889018 -5.27258 0
M  V30 8956 C 876.319 -1.28692 -5.06197 0
M  V30 8957 H 878.013 -1.00399 -2.82065 0
M  V30 8958 H 875.559 -0.484237 -1.35614 0
M  V30 8959 H 877.512 1.08757 -4.07124 0
M  V30 8960 H 876.236 1.50249 -2.89987 0
M  V30 8961 H 874.895 -0.500525 -3.63167 0
M  V30 8962 H 874.543 1.72024 -4.7267 0
M  V30 8963 H 874.243 0.381909 -5.86358 0
M  V30 8964 H 875.767 1.30891 -5.96406 0
M  V30 8965 H 877.181 -0.941429 -5.65517 0
M  V30 8966 H 875.578 -1.72726 -5.74705 0
M  V30 8967 H 876.648 -2.08273 -4.37893 0
M  V30 8968 N 877.991 1.48044 -0.54043 0
M  V30 8969 C 879.237 2.02797 -0.0101718 0
M  V30 8970 C 879.57 1.41565 1.32939 0
M  V30 8971 O 878.845 0.565139 1.86109 0
M  V30 8972 C 879.128 3.59959 0.100758 0
M  V30 8973 C 878.981 4.31654 -1.26471 0
M  V30 8974 C 880.3 4.32347 0.822455 0
M  V30 8975 H 877.419 0.736982 -0.00517052 0
M  V30 8976 H 880.061 1.76656 -0.69948 0
M  V30 8977 H 878.211 3.82363 0.687824 0
M  V30 8978 H 879.883 4.20639 -1.89369 0
M  V30 8979 H 878.126 3.92663 -1.84386 0
M  V30 8980 H 878.797 5.401 -1.13998 0
M  V30 8981 H 881.273 4.14835 0.324164 0
M  V30 8982 H 880.149 5.41978 0.868993 0
M  V30 8983 H 880.41 4.00369 1.87501 0
M  V30 8984 N 879.47 0.276058 1.55163 0
M  V30 8985 C 880.695 -0.346648 2.04483 0
M  V30 8986 C 881.12 -1.48613 1.15308 0
M  V30 8987 O 880.478 -1.80663 0.151875 0
M  V30 8988 C 880.526 -0.804268 3.51517 0
M  V30 8989 O 879.63 -1.91143 3.65429 0
M  V30 8990 H 878.971 -0.0715251 0.660136 0
M  V30 8991 H 881.501 0.410631 2.00437 0
M  V30 8992 H 881.511 -1.09977 3.92898 0
M  V30 8993 H 880.186 0.0294123 4.1589 0
M  V30 8994 H 878.763 -1.61839 3.3595 0
M  V30 8995 N 880.948 -1.576 0.00335426 0
M  V30 8996 C 882.188 -1.92571 -0.685253 0
M  V30 8997 C 882.552 -0.877961 -1.70751 0
M  V30 8998 O 883.753 -1.11303 -2.44673 0
M  V30 8999 C 882.024 -3.3258 -1.30863 0
M  V30 9000 S 883.583 -3.89442 -2.02189 0
M  V30 9001 H 880.401 -0.674035 -0.226268 0
M  V30 9002 H 883.003 -1.95405 0.0608461 0
M  V30 9003 H 881.707 -4.06673 -0.551837 0
M  V30 9004 H 881.238 -3.33128 -2.09259 0
M  V30 9005 H 883.253 -3.70789 -3.29742 0
M  V30 9006 N 882.426 0.269451 -1.5528 0
M  V30 9007 C 883.389 1.31642 -1.87625 0
M  V30 9008 C 884.389 1.42182 -0.751058 0
M  V30 9009 O 885.579 1.41272 -1.01921 0
M  V30 9010 C 882.711 2.6973 -2.08467 0
M  V30 9011 H 883.904 1.0419 -2.81219 0
M  V30 9012 H 881.457 0.507685 -1.47825 0
M  V30 9013 H 882.192 3.02356 -1.17266 0
M  V30 9014 H 881.977 2.63465 -2.90394 0
M  V30 9015 H 883.467 3.4537 -2.34753 0
M  V30 9016 N 883.904 1.48273 0.534124 0
M  V30 9017 C 885.134 1.59503 1.31311 0
M  V30 9018 C 885.542 0.25284 1.87503 0
M  V30 9019 O 884.885 -0.767399 1.66903 0
M  V30 9020 C 884.947 2.57899 2.50456 0
M  V30 9021 C 884.611 4.03063 2.15382 0
M  V30 9022 C 885.608 4.90869 1.713 0
M  V30 9023 C 883.293 4.4857 2.26032 0
M  V30 9024 C 885.287 6.22209 1.38328 0
M  V30 9025 C 882.974 5.79932 1.92672 0
M  V30 9026 C 883.972 6.66574 1.4889 0
M  V30 9027 O 883.66 7.95492 1.15966 0
M  V30 9028 H 883.392 0.540695 0.405739 0
M  V30 9029 H 885.946 1.94794 0.651497 0
M  V30 9030 H 884.176 2.1772 3.19585 0
M  V30 9031 H 885.865 2.59008 3.12522 0
M  V30 9032 H 886.631 4.56951 1.62545 0
M  V30 9033 H 882.51 3.81321 2.59066 0
M  V30 9034 H 886.054 6.89792 1.04082 0
M  V30 9035 H 881.951 6.13386 2.01066 0
M  V30 9036 H 882.719 8.08207 1.29399 0
M  V30 9037 N 885.382 -0.782676 1.36792 0
M  V30 9038 C 886.314 -1.9044 1.27536 0
M  V30 9039 C 887.327 -1.61647 0.193426 0
M  V30 9040 O 888.516 -1.72769 0.448692 0
M  V30 9041 C 885.616 -3.2541 0.946641 0
M  V30 9042 C 884.789 -3.81932 2.13183 0
M  V30 9043 C 883.848 -4.95355 1.7751 0
M  V30 9044 O 882.874 -5.11517 2.49678 0
M  V30 9045 N 884.076 -5.76108 0.712755 0
M  V30 9046 H 886.841 -1.98899 2.24186 0
M  V30 9047 H 884.402 -0.96127 1.30274 0
M  V30 9048 H 886.394 -3.98791 0.689043 0
M  V30 9049 H 884.964 -3.12524 0.0690591 0
M  V30 9050 H 884.184 -3.00459 2.55183 0
M  V30 9051 H 885.472 -4.16426 2.92347 0
M  V30 9052 H 884.87 -5.65586 0.113662 0
M  V30 9053 H 883.427 -6.49762 0.514995 0
M  V30 9054 N 886.86 -1.21182 -1.00761 0
M  V30 9055 C 888.106 -1.02898 -1.74756 0
M  V30 9056 C 888.439 0.436774 -1.89225 0
M  V30 9057 O 887.714 1.32415 -1.42466 0
M  V30 9058 C 887.997 -1.72372 -3.16164 0
M  V30 9059 C 887.85 -3.2645 -3.09435 0
M  V30 9060 C 889.169 -1.46415 -4.15031 0
M  V30 9061 H 886.288 -0.375214 -0.634337 0
M  V30 9062 H 888.93 -1.49321 -1.17487 0
M  V30 9063 H 887.08 -1.32906 -3.65059 0
M  V30 9064 H 888.752 -3.75269 -2.68274 0
M  V30 9065 H 886.995 -3.56889 -2.46603 0
M  V30 9066 H 887.666 -3.70226 -4.09435 0
M  V30 9067 H 890.142 -1.80671 -3.7483 0
M  V30 9068 H 889.018 -1.97544 -5.12121 0
M  V30 9069 H 889.279 -0.39361 -4.40344 0
M  V30 9070 N 888.338 1.20213 -1.01915 0
M  V30 9071 C 889.301 2.21307 -0.596327 0
M  V30 9072 C 890.301 1.57274 0.334879 0
M  V30 9073 O 891.491 1.73764 0.12322 0
M  V30 9074 C 888.623 3.40657 0.128808 0
M  V30 9075 H 889.816 2.60228 -1.49068 0
M  V30 9076 H 887.369 1.33721 -0.809226 0
M  V30 9077 H 888.104 3.07241 1.03796 0
M  V30 9078 H 887.889 3.88361 -0.540183 0
M  V30 9079 H 889.379 4.15564 0.411892 0
M  V30 9080 N 889.816 0.795718 1.36037 0
M  V30 9081 C 891.232 0.478145 1.52269 0
M  V30 9082 C 891.432 -1.0025 1.74792 0
M  V30 9083 O 890.488 -1.78783 1.78305 0
M  V30 9084 C 891.801 1.31406 2.70468 0
M  V30 9085 C 893.349 1.3084 2.84341 0
M  V30 9086 C 893.824 2.12819 4.05551 0
M  V30 9087 N 895.315 2.10298 4.12709 0
M  V30 9088 C 896.05 2.70495 5.05589 0
M  V30 9089 N 895.546 3.39576 6.03871 0
M  V30 9090 N 897.339 2.60195 4.98252 0
M  V30 9091 H 889.49 1.75477 1.19673 0
M  V30 9092 H 891.753 0.74627 0.584624 0
M  V30 9093 H 891.459 2.36435 2.60368 0
M  V30 9094 H 891.333 0.959726 3.64786 0
M  V30 9095 H 893.72 0.266003 2.93899 0
M  V30 9096 H 893.801 1.70254 1.90912 0
M  V30 9097 H 893.445 3.17093 3.96755 0
M  V30 9098 H 893.375 1.70772 4.98141 0
M  V30 9099 H 895.866 1.60026 3.42345 0
M  V30 9100 H 896.179 3.82823 6.71317 0
M  V30 9101 H 894.524 3.43679 6.04077 0
M  V30 9102 H 897.715 2.05823 4.20422 0
M  V30 9103 H 897.888 3.074 5.70447 0
M  V30 9104 N 891.294 -1.47756 0.548274 0
M  V30 9105 C 892.542 -2.02089 0.0208542 0
M  V30 9106 C 892.863 -1.42589 -1.33017 0
M  V30 9107 O 892.133 -0.597825 -1.86555 0
M  V30 9108 H 890.713 -0.746985 0.00472023 0
M  V30 9109 H 893.375 -1.81262 0.716257 0
M  V30 9110 H 892.471 -3.12012 -0.0739016 0
M  V30 9111 N 892.772 -0.284283 -1.55015 0
M  V30 9112 C 893.705 0.640779 -2.19019 0
M  V30 9113 C 894.683 1.14541 -1.15409 0
M  V30 9114 O 895.867 1.21669 -1.43975 0
M  V30 9115 C 892.994 1.87488 -2.82074 0
M  V30 9116 C 892.04 1.50494 -3.99066 0
M  V30 9117 S 892.873 0.575218 -5.32402 0
M  V30 9118 C 894.029 1.81749 -5.98931 0
M  V30 9119 H 894.262 0.0969761 -2.97142 0
M  V30 9120 H 891.795 -0.0684929 -1.54248 0
M  V30 9121 H 893.753 2.58319 -3.19032 0
M  V30 9122 H 892.414 2.38984 -2.03828 0
M  V30 9123 H 891.607 2.42349 -4.41908 0
M  V30 9124 H 891.209 0.876741 -3.63578 0
M  V30 9125 H 893.501 2.76026 -6.18721 0
M  V30 9126 H 894.444 1.43192 -6.93471 0
M  V30 9127 H 894.852 1.98661 -5.28388 0
M  V30 9128 N 894.251 1.57596 -0.0117121 0
M  V30 9129 C 895.161 2.12596 0.991964 0
M  V30 9130 C 896.177 1.07399 1.36899 0
M  V30 9131 O 897.353 1.39365 1.45394 0
M  V30 9132 C 894.418 2.62796 2.2614 0
M  V30 9133 C 893.479 3.8264 1.94642 0
M  V30 9134 C 892.712 4.30435 3.15533 0
M  V30 9135 O 892.935 3.77495 4.27614 0
M  V30 9136 O 891.869 5.22469 2.98847 0
M  V30 9137 H 895.695 2.98597 0.554371 0
M  V30 9138 H 893.28 1.47947 0.207839 0
M  V30 9139 H 895.162 2.9523 3.00695 0
M  V30 9140 H 893.837 1.79886 2.69114 0
M  V30 9141 H 892.744 3.5516 1.17526 0
M  V30 9142 H 894.077 4.66658 1.56496 0
M  V30 9143 N 895.729 -0.261212 1.5542 0
M  V30 9144 C 896.959 -1.00769 1.80358 0
M  V30 9145 C 897.367 -1.79991 0.583085 0
M  V30 9146 O 896.71 -1.77911 -0.457534 0
M  V30 9147 C 896.772 -2.00463 2.9842 0
M  V30 9148 C 896.436 -1.4007 4.35005 0
M  V30 9149 C 897.433 -0.810388 5.13545 0
M  V30 9150 C 895.118 -1.42436 4.81682 0
M  V30 9151 C 897.112 -0.251784 6.36903 0
M  V30 9152 C 894.799 -0.861897 6.04991 0
M  V30 9153 C 895.797 -0.276622 6.8244 0
M  V30 9154 O 895.485 0.277194 8.03422 0
M  V30 9155 H 895.217 -0.302839 0.604371 0
M  V30 9156 H 897.771 -0.293763 2.03288 0
M  V30 9157 H 896.001 -2.75648 2.71211 0
M  V30 9158 H 897.69 -2.61336 3.10577 0
M  V30 9159 H 898.456 -0.784719 4.7861 0
M  V30 9160 H 894.335 -1.8693 4.214 0
M  V30 9161 H 897.879 0.205678 6.97297 0
M  V30 9162 H 893.776 -0.884846 6.39407 0
M  V30 9163 H 894.544 0.167682 8.18328 0
M  V30 9164 N 897.207 -1.48554 -0.526253 0
M  V30 9165 C 898.137 -1.66252 -1.63959 0
M  V30 9166 C 899.118 -0.511351 -1.62232 0
M  V30 9167 O 900.303 -0.744322 -1.7937 0
M  V30 9168 C 897.433 -1.70556 -3.02536 0
M  V30 9169 C 896.387 -2.8521 -3.19123 0
M  V30 9170 C 895.713 -2.74606 -4.58798 0
M  V30 9171 C 897.013 -4.26463 -3.0154 0
M  V30 9172 H 898.707 -2.59459 -1.49404 0
M  V30 9173 H 896.253 -1.24862 -0.717326 0
M  V30 9174 H 898.206 -1.81524 -3.80298 0
M  V30 9175 H 896.93 -0.739297 -3.18123 0
M  V30 9176 H 895.589 -2.73802 -2.43779 0
M  V30 9177 H 895.237 -1.75941 -4.71226 0
M  V30 9178 H 894.937 -3.51544 -4.70841 0
M  V30 9179 H 896.461 -2.87548 -5.38655 0
M  V30 9180 H 897.875 -4.38685 -3.69091 0
M  V30 9181 H 896.272 -5.04428 -3.25073 0
M  V30 9182 H 897.342 -4.42667 -1.97925 0
M  V30 9183 N 898.685 0.775411 -1.37205 0
M  V30 9184 C 899.648 1.8702 -1.325 0
M  V30 9185 C 900.648 1.5915 -0.229793 0
M  V30 9186 O 901.838 1.673 -0.485423 0
M  V30 9187 C 898.97 3.24085 -1.05745 0
M  V30 9188 H 900.163 1.92604 -2.29878 0
M  V30 9189 H 897.716 0.97476 -1.22181 0
M  V30 9190 H 898.451 3.24178 -0.0888371 0
M  V30 9191 H 898.236 3.45705 -1.85016 0
M  V30 9192 H 899.726 4.0416 -1.05094 0
M  V30 9193 N 900.163 1.21714 1.00117 0
M  V30 9194 C 901.388 1.06357 1.78054 0
M  V30 9195 C 901.813 -0.382075 1.84179 0
M  V30 9196 O 901.171 -1.27575 1.28819 0
M  V30 9197 C 901.219 1.66982 3.19608 0
M  V30 9198 O 900.323 0.917892 4.02055 0
M  V30 9199 H 899.664 0.374074 0.548602 0
M  V30 9200 H 902.194 1.61338 1.25822 0
M  V30 9201 H 902.204 1.71363 3.70268 0
M  V30 9202 H 900.879 2.72185 3.14465 0
M  V30 9203 H 899.456 0.949473 3.6061 0
M  V30 9204 N 901.641 -1.19671 1.02551 0
M  V30 9205 C 902.573 -2.22215 0.561517 0
M  V30 9206 C 903.586 -1.58751 -0.360821 0
M  V30 9207 O 904.775 -1.77802 -0.157749 0
M  V30 9208 C 901.875 -3.383 -0.201494 0
M  V30 9209 C 901.048 -4.3135 0.724952 0
M  V30 9210 C 900.107 -5.26199 0.00794334 0
M  V30 9211 O 899.133 -5.65665 0.633398 0
M  V30 9212 N 900.335 -5.66573 -1.26394 0
M  V30 9213 H 903.1 -2.6265 1.44343 0
M  V30 9214 H 900.661 -1.34303 0.904122 0
M  V30 9215 H 902.653 -3.98764 -0.690625 0
M  V30 9216 H 901.223 -2.96683 -0.98479 0
M  V30 9217 H 900.443 -3.6872 1.39423 0
M  V30 9218 H 901.731 -4.90433 1.35472 0
M  V30 9219 H 901.129 -5.36538 -1.79287 0
M  V30 9220 H 899.686 -6.29304 -1.69763 0
M  V30 9221 N 903.119 -0.802921 -1.35613 0
M  V30 9222 C 904.066 -0.20874 -2.29854 0
M  V30 9223 C 905.036 0.655128 -1.52634 0
M  V30 9224 O 906.221 0.600979 -1.81088 0
M  V30 9225 C 903.361 0.639663 -3.3912 0
M  V30 9226 C 902.474 -0.244234 -4.31309 0
M  V30 9227 C 901.609 0.611825 -5.27665 0
M  V30 9228 C 900.648 -0.272698 -6.11492 0
M  V30 9229 N 899.785 0.543122 -6.99996 0
M  V30 9230 H 904.625 -1.01782 -2.80079 0
M  V30 9231 H 902.162 -0.513465 -1.37848 0
M  V30 9232 H 904.12 1.14668 -4.01132 0
M  V30 9233 H 902.75 1.41404 -2.9018 0
M  V30 9234 H 901.802 -0.869322 -3.70334 0
M  V30 9235 H 903.114 -0.925202 -4.90144 0
M  V30 9236 H 902.268 1.18412 -5.95032 0
M  V30 9237 H 901.007 1.32637 -4.69317 0
M  V30 9238 H 900.012 -0.857287 -5.43075 0
M  V30 9239 H 901.237 -0.985051 -6.71918 0
M  V30 9240 H 899.183 1.24171 -6.44141 0
M  V30 9241 H 899.1 -0.0798767 -7.55958 0
M  V30 9242 H 900.368 1.09881 -7.71717 0
M  V30 9243 N 904.597 1.47463 -0.556102 0
M  V30 9244 C 905.837 2.04372 -0.0339743 0
M  V30 9245 C 906.201 1.42125 1.29091 0
M  V30 9246 O 907.402 1.90074 1.90066 0
M  V30 9247 C 905.673 3.57352 0.0585316 0
M  V30 9248 S 907.232 4.35625 0.526943 0
M  V30 9249 H 904.05 0.710574 -0.0246115 0
M  V30 9250 H 906.652 1.80848 -0.742585 0
M  V30 9251 H 905.356 4.00181 -0.910116 0
M  V30 9252 H 904.887 3.85371 0.790731 0
M  V30 9253 H 906.902 4.62911 1.78683 0
M  V30 9254 N 906.075 0.2925 1.54862 0
M  V30 9255 C 907.324 -0.319994 1.99146 0
M  V30 9256 C 907.637 -1.55658 1.18448 0
M  V30 9257 O 908.843 -2.24312 1.52959 0
M  V30 9258 C 907.299 -0.620665 3.54508 0
M  V30 9259 C 906.907 0.597098 4.44003 0
M  V30 9260 C 908.651 -1.19482 4.07338 0
M  V30 9261 C 906.558 0.270049 5.90783 0
M  V30 9262 H 905.488 -0.123342 0.743843 0
M  V30 9263 H 908.139 0.399876 1.7909 0
M  V30 9264 H 906.521 -1.3999 3.7043 0
M  V30 9265 H 907.695 1.37354 4.39853 0
M  V30 9266 H 906.01 1.0893 4.019 0
M  V30 9267 H 908.607 -1.45362 5.14562 0
M  V30 9268 H 908.95 -2.13435 3.57423 0
M  V30 9269 H 909.483 -0.477485 3.94924 0
M  V30 9270 H 906.222 1.17791 6.4483 0
M  V30 9271 H 905.742 -0.469292 5.97961 0
M  V30 9272 H 907.421 -0.131471 6.46866 0
M  V30 9273 N 907.553 -1.57587 0.0200696 0
M  V30 9274 C 908.503 -2.0616 -0.973751 0
M  V30 9275 C 909.487 -0.960282 -1.29102 0
M  V30 9276 O 910.679 -1.22391 -1.27865 0
M  V30 9277 C 907.808 -2.58487 -2.25919 0
M  V30 9278 C 906.894 -3.75533 -1.97068 0
M  V30 9279 N 907.285 -4.86482 -1.38451 0
M  V30 9280 C 905.583 -3.83847 -2.27107 0
M  V30 9281 C 906.284 -5.67773 -1.26527 0
M  V30 9282 N 905.26 -5.14398 -1.75772 0
M  V30 9283 H 909.062 -2.89346 -0.515365 0
M  V30 9284 H 906.576 -1.61341 -0.185163 0
M  V30 9285 H 908.573 -2.91572 -2.97979 0
M  V30 9286 H 907.233 -1.76728 -2.72392 0
M  V30 9287 H 908.244 -5.06922 -1.06069 0
M  V30 9288 H 904.921 -3.12978 -2.76316 0
M  V30 9289 H 906.311 -6.66966 -0.812785 0
M  V30 9290 N 909.032 0.252966 -1.55557 0
M  V30 9291 C 910.448 0.60118 -1.47844 0
M  V30 9292 C 910.648 1.88612 -0.709055 0
M  V30 9293 O 909.704 2.51395 -0.235964 0
M  V30 9294 C 911.017 0.709539 -2.92209 0
M  V30 9295 C 912.565 0.802269 -3.02544 0
M  V30 9296 C 913.04 0.94224 -4.48203 0
M  V30 9297 N 914.531 1.00726 -4.52116 0
M  V30 9298 C 915.266 1.13472 -5.6206 0
M  V30 9299 N 914.762 1.22811 -6.81828 0
M  V30 9300 N 916.555 1.1674 -5.49844 0
M  V30 9301 H 908.706 -0.590635 -2.04023 0
M  V30 9302 H 910.969 -0.202986 -0.926013 0
M  V30 9303 H 910.675 -0.164505 -3.51315 0
M  V30 9304 H 910.549 1.58343 -3.42356 0
M  V30 9305 H 912.936 1.66677 -2.43522 0
M  V30 9306 H 913.017 -0.0966469 -2.55617 0
M  V30 9307 H 912.661 0.0823209 -5.07833 0
M  V30 9308 H 912.591 1.85611 -4.92805 0
M  V30 9309 H 915.082 0.946684 -3.6585 0
M  V30 9310 H 915.395 1.32426 -7.61369 0
M  V30 9311 H 913.74 1.19779 -6.84601 0
M  V30 9312 H 916.931 1.09089 -4.55211 0
M  V30 9313 H 917.104 1.26329 -6.35567 0
M  V30 9314 N 910.51 1.48831 0.518367 0
M  V30 9315 C 911.787 1.47933 1.27966 0
M  V30 9316 C 912.167 0.197393 2.10175 0
M  V30 9317 O 911.515 -0.820656 2.13255 0
M  V30 9318 C 911.725 2.74816 2.15121 0
M  V30 9319 C 913.073 3.23613 2.74881 0
M  V30 9320 O 914.097 2.75814 2.254 0
M  V30 9321 O 912.956 4.06818 3.64913 0
M  V30 9322 H 910.05 0.591316 0.578164 0
M  V30 9323 H 912.596 1.61077 0.534065 0
M  V30 9324 H 911.368 3.59621 1.54234 0
M  V30 9325 H 910.991 2.64449 2.96905 0
M  V30 9326 N 911.988 -0.768124 1.37614 0
M  V30 9327 C 912.918 -1.89537 1.36374 0
M  V30 9328 C 913.899 -1.68513 0.231803 0
M  V30 9329 O 915.084 -1.89318 0.432705 0
M  V30 9330 C 912.214 -3.26871 1.17358 0
M  V30 9331 C 911.168 -3.62466 2.27602 0
M  V30 9332 C 910.494 -4.9838 1.93705 0
M  V30 9333 C 911.794 -3.68841 3.69802 0
M  V30 9334 H 913.488 -1.90832 2.30702 0
M  V30 9335 H 911.034 -0.91672 1.11051 0
M  V30 9336 H 912.987 -4.05371 1.15119 0
M  V30 9337 H 911.711 -3.26018 0.194865 0
M  V30 9338 H 910.37 -2.86276 2.29002 0
M  V30 9339 H 910.018 -4.94071 0.943539 0
M  V30 9340 H 909.718 -5.23165 2.6753 0
M  V30 9341 H 911.242 -5.79276 1.93059 0
M  V30 9342 H 912.656 -4.37485 3.70513 0
M  V30 9343 H 911.053 -4.05126 4.42711 0
M  V30 9344 H 912.123 -2.69415 4.03167 0
M  V30 9345 N 913.466 -1.22244 -0.994698 0
M  V30 9346 C 914.429 -0.992308 -2.06606 0
M  V30 9347 C 915.429 0.0405872 -1.60749 0
M  V30 9348 O 916.619 -0.197737 -1.73074 0
M  V30 9349 C 913.751 -0.498499 -3.37236 0
M  V30 9350 H 914.944 -1.9429 -2.28455 0
M  V30 9351 H 912.497 -1.04087 -1.166 0
M  V30 9352 H 913.232 0.456531 -3.21071 0
M  V30 9353 H 913.017 -1.24367 -3.71854 0
M  V30 9354 H 914.507 -0.35768 -4.16065 0
M  V30 9355 N 914.944 1.19125 -1.03184 0
M  V30 9356 C 915.907 2.20662 -0.619766 0
M  V30 9357 C 916.907 1.57621 0.318179 0
M  V30 9358 O 918.097 1.73885 0.104783 0
M  V30 9359 C 915.229 3.40774 0.0926696 0
M  V30 9360 H 916.422 2.58633 -1.5182 0
M  V30 9361 H 913.975 1.32855 -0.823364 0
M  V30 9362 H 914.71 3.08324 1.00531 0
M  V30 9363 H 914.495 3.87766 -0.581344 0
M  V30 9364 H 915.985 4.15977 0.367792 0
M  V30 9365 N 916.422 0.810101 1.35185 0
M  V30 9366 C 917.838 0.494269 1.51754 0
M  V30 9367 C 918.038 -0.983907 1.75845 0
M  V30 9368 O 917.094 -1.76882 1.80191 0
M  V30 9369 C 918.407 1.34268 2.69059 0
M  V30 9370 C 919.955 1.33848 2.82938 0
M  V30 9371 C 920.43 2.17109 4.03271 0
M  V30 9372 N 921.921 2.14664 4.10456 0
M  V30 9373 C 922.656 2.75843 5.02691 0
M  V30 9374 N 922.152 3.45962 6.00235 0
M  V30 9375 N 923.945 2.65465 4.95464 0
M  V30 9376 H 916.096 1.76736 1.17805 0
M  V30 9377 H 918.359 0.752429 0.576676 0
M  V30 9378 H 918.065 2.39183 2.57845 0
M  V30 9379 H 917.939 0.998362 3.63748 0
M  V30 9380 H 920.326 0.29716 2.936 0
M  V30 9381 H 920.407 1.72269 1.89095 0
M  V30 9382 H 920.051 3.21283 3.93369 0
M  V30 9383 H 919.981 1.76046 4.96302 0
M  V30 9384 H 922.472 1.63648 3.40628 0
M  V30 9385 H 922.785 3.89922 6.67219 0
M  V30 9386 H 921.13 3.50067 6.00398 0
M  V30 9387 H 924.321 2.1027 4.18215 0
M  V30 9388 H 924.494 3.13433 5.67154 0
M  V30 9389 N 917.9 -1.47166 0.563914 0
M  V30 9390 C 918.848 -2.31798 -0.193009 0
M  V30 9391 C 919.842 -1.43338 -0.902805 0
M  V30 9392 O 921.048 -1.60067 -0.823328 0
M  V30 9393 H 917.423 -0.747613 -0.0811139 0
M  V30 9394 H 919.394 -2.93476 0.539876 0
M  V30 9395 C 918.143 -3.26131 -1.20555 0
M  V30 9396 H 917.466 -3.94166 -0.668803 0
M  V30 9397 H 918.906 -3.88167 -1.70593 0
M  V30 9398 C 917.365 -2.50132 -2.25689 0
M  V30 9399 O 917.895 -2.25064 -3.3273 0
M  V30 9400 N 916.101 -2.11022 -1.99795 0
M  V30 9401 H 915.648 -2.3161 -1.1276 0
M  V30 9402 H 915.606 -1.60489 -2.70353 0
M  V30 9403 N 919.378 -0.300708 -1.54705 0
M  V30 9404 C 920.624 0.309111 -2.0043 0
M  V30 9405 C 920.957 1.53562 -1.1888 0
M  V30 9406 O 920.232 1.92683 -0.265205 0
M  V30 9407 C 920.515 0.665995 -3.53888 0
M  V30 9408 C 920.368 -0.56963 -4.46178 0
M  V30 9409 C 921.687 1.49262 -4.14016 0
M  V30 9410 H 918.806 0.110878 -0.728612 0
M  V30 9411 H 921.448 -0.412748 -1.85463 0
M  V30 9412 H 919.598 1.281 -3.66773 0
M  V30 9413 H 921.27 -1.20811 -4.45199 0
M  V30 9414 H 919.513 -1.20292 -4.16788 0
M  V30 9415 H 920.184 -0.275785 -5.51311 0
M  V30 9416 H 922.66 0.972979 -4.04564 0
M  V30 9417 H 921.536 1.71111 -5.21548 0
M  V30 9418 H 921.797 2.48174 -3.65872 0
M  V30 9419 N 920.856 1.57574 -0.0284266 0
M  V30 9420 C 921.786 2.1321 0.952039 0
M  V30 9421 C 922.767 1.04806 1.33977 0
M  V30 9422 O 923.952 1.32635 1.41851 0
M  V30 9423 C 921.082 2.65862 2.23461 0
M  V30 9424 C 920.036 3.79047 1.98765 0
M  V30 9425 C 919.362 4.18124 3.33281 0
M  V30 9426 C 920.662 5.05151 1.32739 0
M  V30 9427 H 922.356 2.95385 0.488705 0
M  V30 9428 H 919.902 1.42092 0.233628 0
M  V30 9429 H 921.855 3.03417 2.92431 0
M  V30 9430 H 920.579 1.80848 2.71959 0
M  V30 9431 H 919.238 3.41929 1.32213 0
M  V30 9432 H 918.886 3.30092 3.79537 0
M  V30 9433 H 918.586 4.94396 3.17563 0
M  V30 9434 H 920.11 4.58262 4.0352 0
M  V30 9435 H 921.524 5.40297 1.91708 0
M  V30 9436 H 919.921 5.86416 1.27421 0
M  V30 9437 H 920.991 4.83969 0.300261 0
M  V30 9438 N 922.334 -0.244713 1.55689 0
M  V30 9439 C 923.58 -0.973886 1.77886 0
M  V30 9440 C 923.913 -1.8489 0.594071 0
M  V30 9441 O 923.188 -1.90182 -0.407564 0
M  V30 9442 C 923.471 -1.83255 3.09983 0
M  V30 9443 C 923.324 -0.985571 4.3887 0
M  V30 9444 C 924.643 -2.81464 3.38329 0
M  V30 9445 H 921.762 -0.352629 0.647165 0
M  V30 9446 H 924.404 -0.244243 1.88424 0
M  V30 9447 H 922.554 -2.45464 3.01131 0
M  V30 9448 H 924.226 -0.382005 4.59716 0
M  V30 9449 H 922.469 -0.29002 4.32829 0
M  V30 9450 H 923.14 -1.62022 5.27686 0
M  V30 9451 H 925.616 -2.2939 3.47159 0
M  V30 9452 H 924.492 -3.38663 4.31971 0
M  V30 9453 H 924.753 -3.58037 2.59349 0
M  V30 9454 N 923.813 -1.49104 -0.510467 0
M  V30 9455 C 925.041 -1.61806 -1.28944 0
M  V30 9456 C 925.456 -0.285774 -1.86625 0
M  V30 9457 O 924.813 0.727551 -1.67371 0
M  V30 9458 C 924.864 -2.67966 -2.42645 0
M  V30 9459 O 924.585 -3.96026 -1.87337 0
M  V30 9460 C 926.086 -2.91286 -3.34166 0
M  V30 9461 H 923.306 -0.544999 -0.391429 0
M  V30 9462 H 925.85 -1.95071 -0.613805 0
M  V30 9463 H 924.005 -2.37505 -3.06056 0
M  V30 9464 H 924.419 -4.54427 -2.61909 0
M  V30 9465 H 925.893 -3.69323 -4.1025 0
M  V30 9466 H 926.37 -2.00842 -3.90588 0
M  V30 9467 H 926.976 -3.23127 -2.76531 0
M  V30 9468 N 925.291 0.760815 -1.38019 0
M  V30 9469 C 926.201 1.90526 -1.36884 0
M  V30 9470 C 927.217 1.71941 -0.266908 0
M  V30 9471 O 928.393 1.94988 -0.50413 0
M  V30 9472 C 925.458 3.25799 -1.18558 0
M  V30 9473 C 924.519 3.56961 -2.3849 0
M  V30 9474 C 923.752 4.8578 -2.21029 0
M  V30 9475 O 923.975 5.57629 -1.20023 0
M  V30 9476 O 922.909 5.16254 -3.0946 0
M  V30 9477 H 926.735 1.94437 -2.33298 0
M  V30 9478 H 924.32 0.905091 -1.18863 0
M  V30 9479 H 926.202 4.0669 -1.1037 0
M  V30 9480 H 924.877 3.22716 -0.252241 0
M  V30 9481 H 923.784 2.7626 -2.52252 0
M  V30 9482 H 925.117 3.64798 -3.30429 0
M  V30 9483 N 926.769 1.22769 0.988202 0
M  V30 9484 C 928.046 0.9635 1.70223 0
M  V30 9485 C 928.426 -0.520102 2.04593 0
M  V30 9486 O 927.774 -1.48934 1.73295 0
M  V30 9487 C 927.984 1.86583 2.94937 0
M  V30 9488 C 929.332 2.12469 3.67616 0
M  V30 9489 O 930.356 1.84069 3.04954 0
M  V30 9490 O 929.215 2.60595 4.80367 0
M  V30 9491 H 926.309 0.362737 0.743203 0
M  V30 9492 H 928.855 1.33776 1.04412 0
M  V30 9493 H 927.627 2.86913 2.66077 0
M  V30 9494 H 927.25 1.49344 3.68486 0
M  V30 9495 N 928.247 -1.18576 1.03814 0
M  V30 9496 C 929.195 -2.24166 0.620678 0
M  V30 9497 C 930.189 -1.65718 -0.351282 0
M  V30 9498 O 931.395 -1.78665 -0.218848 0
M  V30 9499 H 927.77 -0.729522 0.182487 0
M  V30 9500 H 929.741 -2.56686 1.52166 0
M  V30 9501 C 928.49 -3.477 -0.00307331 0
M  V30 9502 H 927.813 -3.92969 0.735874 0
M  V30 9503 H 929.253 -4.23214 -0.257988 0
M  V30 9504 C 927.712 -3.12757 -1.2524 0
M  V30 9505 O 928.242 -3.26261 -2.34344 0
M  V30 9506 N 926.448 -2.67104 -1.14471 0
M  V30 9507 H 925.995 -2.56316 -0.256873 0
M  V30 9508 H 925.953 -2.44096 -1.98153 0
M  V30 9509 N 929.725 -0.817259 -1.34754 0
M  V30 9510 C 930.971 -0.403244 -1.98751 0
M  V30 9511 C 931.304 1.02963 -1.64658 0
M  V30 9512 O 930.579 1.71617 -0.915314 0
M  V30 9513 C 930.862 -0.599188 -3.5508 0
M  V30 9514 C 930.715 -2.07777 -3.98934 0
M  V30 9515 C 932.034 -0.0315656 -4.40089 0
M  V30 9516 H 929.153 -0.147988 -0.721989 0
M  V30 9517 H 931.795 -1.02877 -1.59738 0
M  V30 9518 H 929.945 -0.0667116 -3.88443 0
M  V30 9519 H 931.617 -2.67345 -3.75931 0
M  V30 9520 H 929.86 -2.57031 -3.49453 0
M  V30 9521 H 930.531 -2.16571 -5.07741 0
M  V30 9522 H 933.007 -0.48644 -4.13247 0
M  V30 9523 H 931.883 -0.198507 -5.48541 0
M  V30 9524 H 932.144 1.06302 -4.2913 0
M  V30 9525 N 931.203 1.46865 -0.571711 0
M  V30 9526 C 932.136 2.27176 0.215944 0
M  V30 9527 C 933.114 1.34951 0.907035 0
M  V30 9528 O 934.298 1.64349 0.923127 0
M  V30 9529 C 931.425 3.12388 1.30888 0
M  V30 9530 C 930.471 4.20296 0.724804 0
M  V30 9531 S 931.304 5.33691 -0.439839 0
M  V30 9532 C 932.46 6.22468 0.654564 0
M  V30 9533 H 932.693 2.93633 -0.465518 0
M  V30 9534 H 930.226 1.50184 -0.358351 0
M  V30 9535 H 932.184 3.62049 1.93471 0
M  V30 9536 H 930.845 2.45265 1.96224 0
M  V30 9537 H 930.038 4.79703 1.54599 0
M  V30 9538 H 929.64 3.73591 0.174861 0
M  V30 9539 H 931.932 6.59694 1.54304 0
M  V30 9540 H 932.875 7.08033 0.0975111 0
M  V30 9541 H 933.283 5.56384 0.953762 0
M  V30 9542 N 932.681 0.308908 1.54543 0
M  V30 9543 C 933.628 -0.563659 2.23811 0
M  V30 9544 C 934.598 -1.12332 1.22355 0
M  V30 9545 O 935.783 -1.16638 1.50997 0
M  V30 9546 C 932.923 -1.72585 2.98845 0
M  V30 9547 C 932.036 -1.19682 4.1509 0
M  V30 9548 C 931.171 -2.32351 4.77688 0
M  V30 9549 C 930.21 -1.76623 5.86064 0
M  V30 9550 N 929.347 -2.82896 6.42584 0
M  V30 9551 H 934.187 0.0336288 2.97981 0
M  V30 9552 H 931.724 0.0283666 1.47073 0
M  V30 9553 H 933.682 -2.40951 3.40586 0
M  V30 9554 H 932.312 -2.29464 2.27037 0
M  V30 9555 H 931.364 -0.405173 3.78236 0
M  V30 9556 H 932.676 -0.748923 4.93146 0
M  V30 9557 H 931.83 -3.0865 5.22322 0
M  V30 9558 H 930.569 -2.80472 3.98982 0
M  V30 9559 H 929.574 -0.988171 5.40847 0
M  V30 9560 H 930.799 -1.29398 6.66658 0
M  V30 9561 H 928.745 -3.30336 5.66758 0
M  V30 9562 H 928.662 -2.42626 7.16009 0
M  V30 9563 H 929.93 -3.59068 6.91875 0
M  V30 9564 N 934.159 -1.57557 0.0367827 0
M  V30 9565 C 935.408 -1.91291 -0.639569 0
M  V30 9566 C 935.721 -0.915601 -1.72847 0
M  V30 9567 O 936.927 -1.14447 -2.46199 0
M  V30 9568 C 935.383 -3.39697 -1.18888 0
M  V30 9569 C 934.991 -4.47803 -0.132851 0
M  V30 9570 C 936.735 -3.82487 -1.8413 0
M  V30 9571 C 934.642 -5.87311 -0.694229 0
M  V30 9572 H 933.572 -0.713886 -0.242658 0
M  V30 9573 H 936.223 -1.83209 0.103332 0
M  V30 9574 H 934.605 -3.42736 -1.98363 0
M  V30 9575 H 935.779 -4.56334 0.640009 0
M  V30 9576 H 934.094 -4.14264 0.421264 0
M  V30 9577 H 936.691 -4.84076 -2.27101 0
M  V30 9578 H 937.034 -3.17959 -2.68716 0
M  V30 9579 H 937.567 -3.81903 -1.11332 0
M  V30 9580 H 934.306 -6.55401 0.113667 0
M  V30 9581 H 933.826 -5.82371 -1.4354 0
M  V30 9582 H 935.505 -6.36119 -1.1816 0
M  V30 9583 N 935.637 0.236453 -1.55816 0
M  V30 9584 C 936.6 1.27633 -1.90375 0
M  V30 9585 C 937.6 1.40557 -0.781048 0
M  V30 9586 O 938.79 1.39078 -1.04895 0
M  V30 9587 C 935.922 2.65247 -2.14142 0
M  V30 9588 H 937.115 0.982019 -2.83366 0
M  V30 9589 H 934.668 0.476215 -1.48869 0
M  V30 9590 H 935.403 2.99801 -1.23653 0
M  V30 9591 H 935.188 2.57246 -2.95917 0
M  V30 9592 H 936.678 3.40313 -2.42026 0
M  V30 9593 N 937.115 1.49373 0.502552 0
M  V30 9594 C 938.392 1.49282 1.26389 0
M  V30 9595 C 938.772 0.219674 2.09954 0
M  V30 9596 O 938.12 -0.797991 2.14113 0
M  V30 9597 C 938.33 2.77083 2.12194 0
M  V30 9598 C 939.678 3.26511 2.71433 0
M  V30 9599 O 940.702 2.78189 2.22462 0
M  V30 9600 O 939.561 4.10665 3.60578 0
M  V30 9601 H 936.655 0.597415 0.57186 0
M  V30 9602 H 939.201 1.61634 0.516951 0
M  V30 9603 H 937.973 3.61237 1.50411 0
M  V30 9604 H 937.596 2.67583 2.94084 0
M  V30 9605 N 938.594 -0.753485 1.38421 0
M  V30 9606 C 939.841 -1.51261 1.34634 0
M  V30 9607 C 940.169 -1.94396 -0.0635771 0
M  V30 9608 O 939.424 -1.65736 -1.04068 0
M  V30 9609 C 939.723 -2.77836 2.24816 0
M  V30 9610 C 939.389 -2.53662 3.72782 0
M  V30 9611 C 938.051 -2.46779 4.13103 0
M  V30 9612 C 940.403 -2.32548 4.66445 0
M  V30 9613 C 937.731 -2.16796 5.45176 0
M  V30 9614 C 940.083 -2.04085 5.98775 0
M  V30 9615 C 938.747 -1.95658 6.3818 0
M  V30 9616 H 938.017 -0.553503 0.492661 0
M  V30 9617 H 940.664 -0.866406 1.7078 0
M  V30 9618 H 938.969 -3.47106 1.81726 0
M  V30 9619 H 940.666 -3.35793 2.19189 0
M  V30 9620 H 937.256 -2.59891 3.40815 0
M  V30 9621 H 941.44 -2.36845 4.3614 0
M  V30 9622 H 936.696 -2.0878 5.74648 0
M  V30 9623 H 940.87 -1.86751 6.70893 0
M  V30 9624 H 938.497 -1.7219 7.40442 0
M  V30 9625 N 940.072 -1.23292 -0.981677 0
M  V30 9626 C 941.32 -1.06214 -1.71939 0
M  V30 9627 C 941.641 0.401989 -1.90812 0
M  V30 9628 O 940.911 1.28825 -1.47584 0
M  V30 9629 H 939.491 -0.390042 -0.637084 0
M  V30 9630 H 942.153 -1.54988 -1.18173 0
M  V30 9631 H 941.249 -1.54904 -2.70945 0
M  V30 9632 N 941.55 1.18024 -1.04442 0
M  V30 9633 C 942.48 2.23988 -0.659683 0
M  V30 9634 C 943.461 1.6669 0.338904 0
M  V30 9635 O 944.646 1.92971 0.21817 0
M  V30 9636 C 941.776 3.4729 -0.0257672 0
M  V30 9637 C 940.73 4.17362 -0.948299 0
M  V30 9638 C 940.056 5.34401 -0.17866 0
M  V30 9639 C 941.356 4.70435 -2.26909 0
M  V30 9640 H 943.05 2.56425 -1.54553 0
M  V30 9641 H 940.596 1.23256 -0.744575 0
M  V30 9642 H 942.549 4.20627 0.255131 0
M  V30 9643 H 941.273 3.14098 0.894981 0
M  V30 9644 H 939.932 3.45928 -1.21364 0
M  V30 9645 H 939.58 4.97458 0.744614 0
M  V30 9646 H 939.28 5.8222 -0.793294 0
M  V30 9647 H 940.804 6.10526 0.0951315 0
M  V30 9648 H 942.218 5.35447 -2.04864 0
M  V30 9649 H 940.615 5.28803 -2.83703 0
M  V30 9650 H 941.685 3.87653 -2.91296 0
M  V30 9651 N 943.028 0.824394 1.34319 0
M  V30 9652 C 943.991 0.252696 2.27803 0
M  V30 9653 C 944.991 -0.570254 1.50349 0
M  V30 9654 O 946.181 -0.386145 1.69866 0
M  V30 9655 C 943.313 -0.645575 3.34731 0
M  V30 9656 H 944.506 1.07742 2.79878 0
M  V30 9657 H 942.059 0.596367 1.44475 0
M  V30 9658 H 942.794 -1.4933 2.87873 0
M  V30 9659 H 942.579 -0.0569478 3.92059 0
M  V30 9660 H 944.069 -1.03933 4.0446 0
M  V30 9661 N 944.506 -1.46559 0.579492 0
M  V30 9662 C 945.922 -1.57771 0.240921 0
M  V30 9663 C 946.122 -1.57505 -1.25676 0
M  V30 9664 O 945.178 -1.4903 -2.03829 0
M  V30 9665 C 946.491 -2.87311 0.887285 0
M  V30 9666 C 948.039 -3.00937 0.860576 0
M  V30 9667 C 948.514 -4.33208 1.48642 0
M  V30 9668 N 950.005 -4.39899 1.45062 0
M  V30 9669 C 950.74 -5.40856 1.90428 0
M  V30 9670 N 950.236 -6.48503 2.43752 0
M  V30 9671 N 952.029 -5.32037 1.81364 0
M  V30 9672 H 944.18 -1.44976 1.55228 0
M  V30 9673 H 946.443 -0.691354 0.648639 0
M  V30 9674 H 946.149 -2.93307 1.94071 0
M  V30 9675 H 946.023 -3.75141 0.393577 0
M  V30 9676 H 948.41 -2.94524 -0.184223 0
M  V30 9677 H 948.491 -2.14591 1.39227 0
M  V30 9678 H 948.135 -4.40378 2.5304 0
M  V30 9679 H 948.065 -5.18323 0.92998 0
M  V30 9680 H 950.556 -3.62706 1.0608 0
M  V30 9681 H 950.869 -7.21744 2.76234 0
M  V30 9682 H 949.214 -6.49332 2.47776 0
M  V30 9683 H 952.405 -4.46841 1.39465 0
M  V30 9684 H 952.578 -6.10573 2.17035 0
M  V30 9685 N 945.984 -0.3171 -1.54377 0
M  V30 9686 C 947.261 0.341348 -1.92598 0
M  V30 9687 C 947.641 1.70402 -1.24605 0
M  V30 9688 O 946.989 2.25191 -0.387448 0
M  V30 9689 C 947.199 0.440003 -3.46215 0
M  V30 9690 C 948.547 0.703327 -4.18734 0
M  V30 9691 O 949.571 0.523181 -3.52337 0
M  V30 9692 O 948.43 1.05042 -5.3631 0
M  V30 9693 H 945.524 0.193696 -0.803997 0
M  V30 9694 H 948.07 -0.366341 -1.65699 0
M  V30 9695 H 946.842 -0.517299 -3.87866 0
M  V30 9696 H 946.465 1.19553 -3.792 0
M  V30 9697 N 947.462 1.57535 -0.0451378 0
M  V30 9698 C 948.708 1.92736 0.630921 0
M  V30 9699 C 949.041 0.923265 1.70849 0
M  V30 9700 O 948.316 -0.0516512 1.94431 0
M  V30 9701 C 948.599 3.38348 1.23259 0
M  V30 9702 C 948.452 4.49503 0.16349 0
M  V30 9703 C 949.771 3.84233 2.14599 0
M  V30 9704 H 946.89 0.700884 0.227883 0
M  V30 9705 H 949.532 1.89706 -0.10567 0
M  V30 9706 H 947.682 3.41061 1.86037 0
M  V30 9707 H 949.354 4.58919 -0.46808 0
M  V30 9708 H 947.597 4.30802 -0.509166 0
M  V30 9709 H 948.268 5.48457 0.624382 0
M  V30 9710 H 950.744 3.83358 1.6179 0
M  V30 9711 H 949.62 4.86781 2.53644 0
M  V30 9712 H 949.881 3.20646 3.04366 0
M  V30 9713 N 948.94 -0.228186 1.55939 0
M  V30 9714 C 949.89 -1.28607 1.88267 0
M  V30 9715 C 950.874 -1.42606 0.745139 0
M  V30 9716 O 952.066 -1.45533 1.00743 0
M  V30 9717 C 949.195 -2.63783 2.19712 0
M  V30 9718 C 948.281 -2.53712 3.3984 0
M  V30 9719 N 948.672 -2.13287 4.58631 0
M  V30 9720 C 946.97 -2.84686 3.43322 0
M  V30 9721 C 947.671 -2.14305 5.40785 0
M  V30 9722 N 946.647 -2.54536 4.80325 0
M  V30 9723 H 950.449 -0.964307 2.7763 0
M  V30 9724 H 947.963 -0.436769 1.56416 0
M  V30 9725 H 949.96 -3.40152 2.41044 0
M  V30 9726 H 948.62 -2.9681 1.31657 0
M  V30 9727 H 949.631 -1.84525 4.83912 0
M  V30 9728 H 946.308 -3.22129 2.65592 0
M  V30 9729 H 947.698 -1.85231 6.45863 0
M  V30 9730 N 950.418 -1.49637 -0.494624 0
M  V30 9731 C 951.366 -1.6727 -1.61627 0
M  V30 9732 C 952.36 -0.538587 -1.6061 0
M  V30 9733 O 953.566 -0.718411 -1.65042 0
M  V30 9734 H 949.941 -0.527557 -0.535899 0
M  V30 9735 H 951.912 -2.61405 -1.43909 0
M  V30 9736 C 950.661 -1.7624 -2.99725 0
M  V30 9737 H 949.984 -2.62886 -3.01216 0
M  V30 9738 H 951.424 -1.92611 -3.77726 0
M  V30 9739 C 949.883 -0.508632 -3.33038 0
M  V30 9740 O 950.413 0.362828 -4.00058 0
M  V30 9741 N 948.619 -0.369667 -2.88239 0
M  V30 9742 H 948.166 -1.07984 -2.33875 0
M  V30 9743 H 948.124 0.468112 -3.10896 0
M  V30 9744 N 951.896 0.746133 -1.38819 0
M  V30 9745 C 952.826 1.87344 -1.39372 0
M  V30 9746 C 953.807 1.68123 -0.258583 0
M  V30 9747 O 954.992 1.88606 -0.462769 0
M  V30 9748 C 952.122 3.24962 -1.22543 0
M  V30 9749 C 951.076 3.58799 -2.33339 0
M  V30 9750 C 950.402 4.95235 -2.01609 0
M  V30 9751 C 951.702 3.62911 -3.75624 0
M  V30 9752 H 953.396 1.87138 -2.33709 0
M  V30 9753 H 950.942 0.898937 -1.12495 0
M  V30 9754 H 952.895 4.03488 -1.21554 0
M  V30 9755 H 951.619 3.25667 -0.246707 0
M  V30 9756 H 950.278 2.82596 -2.33527 0
M  V30 9757 H 949.926 4.92508 -1.02202 0
M  V30 9758 H 949.626 5.18843 -2.75819 0
M  V30 9759 H 951.15 5.76131 -2.02251 0
M  V30 9760 H 952.564 4.31535 -3.77426 0
M  V30 9761 H 950.961 3.98031 -4.491 0
M  V30 9762 H 952.031 2.62967 -4.07402 0
M  V30 9763 N 953.375 1.23811 0.975125 0
M  V30 9764 C 954.652 0.9815 1.69192 0
M  V30 9765 C 955.032 -0.498373 2.05133 0
M  V30 9766 O 954.38 -1.47087 1.74864 0
M  V30 9767 C 954.59 1.89701 2.92941 0
M  V30 9768 C 955.938 2.16357 3.65342 0
M  V30 9769 O 956.962 1.87293 3.02985 0
M  V30 9770 O 955.821 2.65675 4.77576 0
M  V30 9771 H 952.915 0.370599 0.739314 0
M  V30 9772 H 955.461 1.34876 1.02988 0
M  V30 9773 H 954.233 2.89719 2.63018 0
M  V30 9774 H 953.856 1.53244 3.66881 0
M  V30 9775 N 954.853 -1.17469 1.05066 0
M  V30 9776 C 956.083 -1.91343 0.779202 0
M  V30 9777 C 956.491 -1.76986 -0.668764 0
M  V30 9778 O 955.834 -1.1037 -1.46848 0
M  V30 9779 C 955.896 -3.42938 1.0786 0
M  V30 9780 C 955.56 -3.81076 2.52249 0
M  V30 9781 C 956.557 -3.84027 3.50456 0
M  V30 9782 C 954.242 -4.12076 2.87225 0
M  V30 9783 C 956.236 -4.17445 4.81683 0
M  V30 9784 C 953.923 -4.45163 4.18656 0
M  V30 9785 C 954.921 -4.47825 5.15696 0
M  V30 9786 O 954.609 -4.80133 6.44769 0
M  V30 9787 H 954.341 -0.613974 0.282863 0
M  V30 9788 H 956.895 -1.49907 1.40417 0
M  V30 9789 H 955.125 -3.84662 0.39653 0
M  V30 9790 H 956.814 -3.98071 0.793357 0
M  V30 9791 H 957.58 -3.60203 3.24775 0
M  V30 9792 H 953.459 -4.09176 2.12358 0
M  V30 9793 H 957.003 -4.19437 5.57421 0
M  V30 9794 H 952.9 -4.68449 4.44101 0
M  V30 9795 H 953.668 -4.97995 6.49571 0
M  V30 9796 N 956.331 -0.831506 -1.3388 0
M  V30 9797 C 957.561 -0.436292 -2.01941 0
M  V30 9798 C 957.969 0.964979 -1.62741 0
M  V30 9799 O 957.312 1.63733 -0.832894 0
M  V30 9800 C 957.374 -0.468811 -3.5643 0
M  V30 9801 C 957.038 -1.82491 -4.18982 0
M  V30 9802 C 958.035 -2.78705 -4.38885 0
M  V30 9803 C 955.72 -2.11574 -4.55568 0
M  V30 9804 C 957.714 -4.02168 -4.94509 0
M  V30 9805 C 955.401 -3.35296 -5.10901 0
M  V30 9806 C 956.399 -4.3041 -5.30317 0
M  V30 9807 O 956.087 -5.51944 -5.84477 0
M  V30 9808 H 955.819 -0.172335 -0.653664 0
M  V30 9809 H 958.373 -1.12354 -1.71947 0
M  V30 9810 H 956.603 0.275179 -3.8572 0
M  V30 9811 H 958.292 -0.0924518 -4.05795 0
M  V30 9812 H 959.058 -2.57534 -4.10976 0
M  V30 9813 H 954.937 -1.38338 -4.39754 0
M  V30 9814 H 958.481 -4.76418 -5.09579 0
M  V30 9815 H 954.378 -3.56326 -5.3824 0
M  V30 9816 H 955.146 -5.53582 -6.029 0
M  V30 9817 N 957.809 1.4625 -0.587256 0
M  V30 9818 C 958.756 2.30354 0.143384 0
M  V30 9819 C 959.726 1.40891 0.879716 0
M  V30 9820 O 960.911 1.69837 0.869486 0
M  V30 9821 C 958.051 3.25441 1.14815 0
M  V30 9822 C 957.164 4.30004 0.414792 0
M  V30 9823 C 956.299 5.12214 1.40748 0
M  V30 9824 C 955.338 6.08523 0.660786 0
M  V30 9825 N 954.475 6.83585 1.60176 0
M  V30 9826 H 959.315 2.92304 -0.579866 0
M  V30 9827 H 956.852 1.44055 -0.29777 0
M  V30 9828 H 958.81 3.79018 1.7436 0
M  V30 9829 H 957.44 2.6529 1.83906 0
M  V30 9830 H 956.492 3.79248 -0.295787 0
M  V30 9831 H 957.804 4.98515 -0.168738 0
M  V30 9832 H 956.958 5.70091 2.0756 0
M  V30 9833 H 955.697 4.43675 2.02494 0
M  V30 9834 H 954.702 5.49796 -0.0210864 0
M  V30 9835 H 955.927 6.79083 0.0486551 0
M  V30 9836 H 953.873 6.17752 2.20724 0
M  V30 9837 H 953.79 7.48373 1.07115 0
M  V30 9838 H 955.058 7.46016 2.26009 0
M  V30 9839 N 959.287 0.325282 1.54207 0
M  V30 9840 C 960.234 -0.539889 2.24397 0
M  V30 9841 C 961.204 -1.11028 1.2354 0
M  V30 9842 O 962.389 -1.1503 1.52226 0
M  V30 9843 C 959.529 -1.69405 3.00659 0
M  V30 9844 C 958.642 -1.15273 4.16337 0
M  V30 9845 C 957.777 -2.27272 4.80126 0
M  V30 9846 C 956.816 -1.70397 5.87904 0
M  V30 9847 N 955.953 -2.76065 6.45548 0
M  V30 9848 H 960.793 0.0652318 2.97929 0
M  V30 9849 H 958.33 0.043964 1.47034 0
M  V30 9850 H 960.288 -2.37325 3.43122 0
M  V30 9851 H 958.918 -2.27043 2.29458 0
M  V30 9852 H 957.97 -0.365034 3.78645 0
M  V30 9853 H 959.282 -0.696576 4.93912 0
M  V30 9854 H 958.436 -3.03092 5.25566 0
M  V30 9855 H 957.175 -2.76224 4.01935 0
M  V30 9856 H 956.18 -0.930752 5.41864 0
M  V30 9857 H 957.405 -1.22319 6.67993 0
M  V30 9858 H 955.351 -3.24306 5.7023 0
M  V30 9859 H 955.268 -2.35018 7.18542 0
M  V30 9860 H 956.536 -3.5171 6.95644 0
M  V30 9861 N 960.765 -1.57509 0.0534917 0
M  V30 9862 C 961.993 -1.97098 -0.629298 0
M  V30 9863 C 962.408 -0.931128 -1.64242 0
M  V30 9864 O 961.765 0.0843866 -1.82305 0
M  V30 9865 C 961.816 -3.36767 -1.31415 0
M  V30 9866 O 961.537 -4.36766 -0.341599 0
M  V30 9867 C 963.038 -3.91127 -2.08649 0
M  V30 9868 H 960.258 -0.648611 -0.171886 0
M  V30 9869 H 962.802 -2.04145 0.120479 0
M  V30 9870 H 960.957 -3.30863 -2.01515 0
M  V30 9871 H 961.371 -5.1788 -0.830715 0
M  V30 9872 H 962.845 -4.91129 -2.51985 0
M  V30 9873 H 963.322 -3.26679 -2.9356 0
M  V30 9874 H 963.928 -4.00376 -1.43456 0
M  V30 9875 N 962.243 0.219913 -1.56058 0
M  V30 9876 C 963.471 0.960915 -1.83232 0
M  V30 9877 C 963.886 1.77878 -0.632828 0
M  V30 9878 O 963.243 1.78093 0.398624 0
M  V30 9879 C 963.294 1.87716 -3.08942 0
M  V30 9880 O 963.015 1.09235 -4.24263 0
M  V30 9881 C 964.516 2.73192 -3.49115 0
M  V30 9882 H 961.736 0.281546 -0.609075 0
M  V30 9883 H 964.28 0.234648 -2.03149 0
M  V30 9884 H 962.435 2.55736 -2.90995 0
M  V30 9885 H 962.849 1.71446 -4.95688 0
M  V30 9886 H 964.323 3.33181 -4.40107 0
M  V30 9887 H 964.8 3.45668 -2.70943 0
M  V30 9888 H 965.406 2.10583 -3.69506 0
M  V30 9889 N 963.721 1.49897 0.486681 0
M  V30 9890 C 964.669 1.68125 1.60738 0
M  V30 9891 C 965.663 0.547097 1.60322 0
M  V30 9892 O 966.869 0.727153 1.64659 0
M  V30 9893 H 963.244 0.530391 0.533094 0
M  V30 9894 H 965.215 2.62165 1.42521 0
M  V30 9895 C 963.964 1.77827 2.98786 0
M  V30 9896 H 963.287 2.6448 2.99818 0
M  V30 9897 H 964.727 1.94611 3.76699 0
M  V30 9898 C 963.186 0.526287 3.32764 0
M  V30 9899 O 963.716 -0.341607 4.00245 0
M  V30 9900 N 961.922 0.384947 2.88039 0
M  V30 9901 H 961.469 1.09222 2.33299 0
M  V30 9902 H 961.427 -0.451618 3.11139 0
M  V30 9903 N 965.199 -0.738761 1.39212 0
M  V30 9904 C 966.447 -1.49529 1.35962 0
M  V30 9905 C 966.768 -1.94948 -0.0450152 0
M  V30 9906 O 966.038 -1.68717 -0.995552 0
M  V30 9907 H 964.618 -0.554692 0.500326 0
M  V30 9908 H 967.28 -0.877255 1.74041 0
M  V30 9909 H 966.376 -2.37919 2.01993 0
M  V30 9910 N 966.677 -1.24326 -0.968545 0
M  V30 9911 C 968.093 -1.00847 -1.23701 0
M  V30 9912 C 968.293 0.283235 -1.99499 0
M  V30 9913 O 967.349 0.999607 -2.31871 0
M  V30 9914 C 968.662 -2.22295 -2.02498 0
M  V30 9915 C 970.21 -2.26911 -2.15593 0
M  V30 9916 C 970.685 -3.47978 -2.97784 0
M  V30 9917 N 972.176 -3.48289 -3.05367 0
M  V30 9918 C 972.911 -4.38625 -3.69318 0
M  V30 9919 N 972.407 -5.39213 -4.34995 0
M  V30 9920 N 974.2 -4.26339 -3.66322 0
M  V30 9921 H 966.351 -2.07335 -0.461087 0
M  V30 9922 H 968.614 -0.909805 -0.26638 0
M  V30 9923 H 968.32 -3.161 -1.54188 0
M  V30 9924 H 968.194 -2.24344 -3.03232 0
M  V30 9925 H 970.581 -1.33639 -2.63106 0
M  V30 9926 H 970.662 -2.28888 -1.14209 0
M  V30 9927 H 970.306 -4.41564 -2.50965 0
M  V30 9928 H 970.236 -3.43244 -3.99364 0
M  V30 9929 H 972.727 -2.75517 -2.58648 0
M  V30 9930 H 973.04 -6.04378 -4.81608 0
M  V30 9931 H 971.385 -5.43101 -4.33667 0
M  V30 9932 H 974.576 -3.46991 -3.14189 0
M  V30 9933 H 974.749 -4.9694 -4.15878 0
M  V30 9934 N 968.156 1.1691 -1.05688 0
M  V30 9935 C 969.086 2.23275 -0.683402 0
M  V30 9936 C 970.067 1.6704 0.321206 0
M  V30 9937 O 971.252 1.93191 0.197691 0
M  V30 9938 C 968.382 3.47244 -0.0626006 0
M  V30 9939 C 967.336 4.16333 -0.992513 0
M  V30 9940 C 966.662 5.34182 -0.23533 0
M  V30 9941 C 967.962 4.68002 -2.31886 0
M  V30 9942 H 969.656 2.54771 -1.57264 0
M  V30 9943 H 967.202 1.2246 -0.757606 0
M  V30 9944 H 969.155 4.20874 0.210503 0
M  V30 9945 H 967.879 3.1503 0.861616 0
M  V30 9946 H 966.538 3.44622 -1.25026 0
M  V30 9947 H 966.186 4.9822 0.69181 0
M  V30 9948 H 965.886 5.81346 -0.855002 0
M  V30 9949 H 967.41 6.10592 0.0303717 0
M  V30 9950 H 968.824 5.33244 -2.10531 0
M  V30 9951 H 967.221 5.25764 -2.89296 0
M  V30 9952 H 968.291 3.84541 -2.95391 0
M  V30 9953 N 969.634 0.838594 1.33437 0
M  V30 9954 C 971.045 0.490934 1.8013 0
M  V30 9955 C 971.396 -0.990024 1.6939 0
M  V30 9956 O 970.521 -1.77139 1.24302 0
M  V30 9957 C 971.116 0.884347 3.27055 0
M  V30 9958 C 969.675 0.588829 3.71766 0
M  V30 9959 C 968.822 1.09282 2.54858 0
M  V30 9960 H 971.773 1.02732 1.20962 0
M  V30 9961 H 971.794 0.194283 3.80004 0
M  V30 9962 H 971.306 1.96225 3.34839 0
M  V30 9963 H 969.407 -0.479018 3.69508 0
M  V30 9964 H 969.52 1.14387 4.65245 0
M  V30 9965 H 967.884 0.513702 2.49466 0
M  V30 9966 H 968.667 2.1775 2.65405 0
M  V30 9967 N 971.112 -1.45937 0.595003 0
M  V30 9968 C 972.358 -2.0262 0.0854317 0
M  V30 9969 C 972.691 -1.46402 -1.27594 0
M  V30 9970 O 971.966 -0.633823 -1.83883 0
M  V30 9971 C 972.249 -3.60085 0.0329075 0
M  V30 9972 C 972.102 -4.26663 1.42405 0
M  V30 9973 C 973.421 -4.35101 -0.661426 0
M  V30 9974 H 970.54 -0.736282 0.0325196 0
M  V30 9975 H 973.182 -1.73938 0.764563 0
M  V30 9976 H 971.332 -3.84652 -0.545439 0
M  V30 9977 H 973.004 -4.13321 2.04851 0
M  V30 9978 H 971.247 -3.85549 1.98833 0
M  V30 9979 H 971.918 -5.35497 1.33965 0
M  V30 9980 H 974.394 -4.15753 -0.169977 0
M  V30 9981 H 973.27 -5.44829 -0.667243 0
M  V30 9982 H 973.531 -4.07053 -1.72513 0
M  V30 9983 N 972.59 -0.333456 -1.54032 0
M  V30 9984 C 973.537 0.527981 -2.2468 0
M  V30 9985 C 974.507 1.10371 -1.24127 0
M  V30 9986 O 975.692 1.14221 -1.52834 0
M  V30 9987 C 972.832 1.67808 -3.01553 0
M  V30 9988 C 971.945 1.13064 -4.16942 0
M  V30 9989 C 971.08 2.24722 -4.81325 0
M  V30 9990 C 970.119 1.67277 -5.88799 0
M  V30 9991 N 969.256 2.72638 -6.47003 0
M  V30 9992 H 974.096 -0.0810308 -2.9789 0
M  V30 9993 H 971.633 -0.051761 -1.47009 0
M  V30 9994 H 973.591 2.35502 -3.44376 0
M  V30 9995 H 972.221 2.25823 -2.30659 0
M  V30 9996 H 971.273 0.344948 -3.78833 0
M  V30 9997 H 972.585 0.670373 -4.94275 0
M  V30 9998 H 971.739 3.00301 -5.27166 0
M  V30 9999 H 970.478 2.74089 -4.03394 0
M  V30 10000 H 969.483 0.902002 -5.4235 0
M  V30 10001 H 970.708 1.18775 -6.68632 0
M  V30 10002 H 968.654 3.21277 -5.71941 0
M  V30 10003 H 968.571 2.31204 -7.19778 0
M  V30 10004 H 969.839 3.48015 -6.97499 0
M  V30 10005 N 974.068 1.57479 -0.061844 0
M  V30 10006 C 975.314 1.9421 0.604485 0
M  V30 10007 C 975.669 0.941011 1.67818 0
M  V30 10008 O 974.962 -0.0382264 1.91562 0
M  V30 10009 C 975.156 3.35394 1.23474 0
M  V30 10010 C 974.985 4.49144 0.223628 0
M  V30 10011 C 973.755 5.04949 -0.188187 0
M  V30 10012 C 975.953 5.11508 -0.535193 0
M  V30 10013 N 973.935 6.02235 -1.19105 0
M  V30 10014 C 975.306 6.04199 -1.39082 0
M  V30 10015 C 977.361 4.94364 -0.592346 0
M  V30 10016 C 976.064 6.81587 -2.2985 0
M  V30 10017 C 978.09 5.72388 -1.48749 0
M  V30 10018 C 977.452 6.6472 -2.33082 0
M  V30 10019 H 973.551 0.757931 0.192522 0
M  V30 10020 H 976.135 1.9422 -0.136667 0
M  V30 10021 H 974.306 3.36141 1.94587 0
M  V30 10022 H 976.038 3.59387 1.86073 0
M  V30 10023 H 972.793 4.73207 0.192933 0
M  V30 10024 H 973.217 6.55575 -1.68969 0
M  V30 10025 H 977.859 4.22776 0.045445 0
M  V30 10026 H 975.577 7.5246 -2.94669 0
M  V30 10027 H 979.163 5.61146 -1.53642 0
M  V30 10028 H 978.043 7.2404 -3.01225 0
M  V30 10029 N 975.546 -0.211634 1.56173 0
M  V30 10030 C 976.479 -1.28982 1.88252 0
M  V30 10031 C 977.457 -1.4474 0.740889 0
M  V30 10032 O 978.641 -1.60394 0.990249 0
M  V30 10033 C 975.768 -2.65879 2.09824 0
M  V30 10034 C 974.814 -2.67082 3.3252 0
M  V30 10035 S 975.647 -2.2016 4.8815 0
M  V30 10036 C 976.803 -3.58913 5.12769 0
M  V30 10037 H 977.036 -1.01578 2.79409 0
M  V30 10038 H 974.569 -0.414351 1.48736 0
M  V30 10039 H 976.527 -3.44688 2.22935 0
M  V30 10040 H 975.188 -2.90502 1.19447 0
M  V30 10041 H 974.381 -3.67703 3.44689 0
M  V30 10042 H 973.983 -1.96343 3.18317 0
M  V30 10043 H 976.275 -4.54671 5.02276 0
M  V30 10044 H 977.218 -3.51652 6.14611 0
M  V30 10045 H 977.626 -3.5306 4.40465 0
M  V30 10046 N 977.024 -1.50153 -0.478725 0
M  V30 10047 C 977.987 -1.67916 -1.56003 0
M  V30 10048 C 978.987 -0.550111 -1.51097 0
M  V30 10049 O 980.177 -0.817001 -1.53853 0
M  V30 10050 C 977.309 -1.6973 -2.95643 0
M  V30 10051 H 978.502 -2.6438 -1.41573 0
M  V30 10052 H 976.055 -1.39519 -0.704565 0
M  V30 10053 H 976.79 -0.749306 -3.15525 0
M  V30 10054 H 976.575 -2.51745 -3.00611 0
M  V30 10055 H 978.065 -1.85453 -3.74162 0
M  V30 10056 N 978.502 0.731368 -1.39602 0
M  V30 10057 C 979.913 1.30981 -1.33045 0
M  V30 10058 C 980.264 1.962 0.00349918 0
M  V30 10059 O 979.389 1.96539 0.905615 0
M  V30 10060 C 979.984 2.3817 -2.40958 0
M  V30 10061 C 978.543 2.91678 -2.3791 0
M  V30 10062 C 977.69 1.65286 -2.22656 0
M  V30 10063 H 980.641 0.528615 -1.49637 0
M  V30 10064 H 980.662 3.18645 -2.07955 0
M  V30 10065 H 980.174 1.90673 -3.38032 0
M  V30 10066 H 978.275 3.43446 -1.44485 0
M  V30 10067 H 978.388 3.44545 -3.32904 0
M  V30 10068 H 976.752 1.89759 -1.69893 0
M  V30 10069 H 977.535 1.19836 -3.21705 0
M  V30 10070 N 979.98 1.24838 0.961938 0
M  V30 10071 C 980.89 1.06304 2.09133 0
M  V30 10072 C 981.906 0.00221475 1.74 0
M  V30 10073 O 983.082 0.201611 2.00388 0
M  V30 10074 C 980.147 0.676117 3.40043 0
M  V30 10075 C 979.208 1.81407 3.89089 0
M  V30 10076 C 978.441 1.44551 5.13752 0
M  V30 10077 O 978.664 0.337894 5.69398 0
M  V30 10078 O 977.598 2.27316 5.57325 0
M  V30 10079 H 981.424 2.01001 2.27667 0
M  V30 10080 H 979.009 1.0371 1.07539 0
M  V30 10081 H 980.891 0.472124 4.18747 0
M  V30 10082 H 979.566 -0.241667 3.22797 0
M  V30 10083 H 978.473 2.07286 3.11421 0
M  V30 10084 H 979.806 2.71083 4.10822 0
M  V30 10085 N 981.458 -1.16348 1.06306 0
M  V30 10086 C 982.421 -2.18941 0.678053 0
M  V30 10087 C 983.421 -1.58409 -0.276277 0
M  V30 10088 O 984.611 -1.74101 -0.0586435 0
M  V30 10089 C 981.743 -3.409 -0.00228684 0
M  V30 10090 H 982.936 -2.54516 1.58624 0
M  V30 10091 H 980.489 -1.30625 0.858298 0
M  V30 10092 H 981.224 -3.10881 -0.923212 0
M  V30 10093 H 981.009 -3.86089 0.683949 0
M  V30 10094 H 982.499 -4.16806 -0.257374 0
M  V30 10095 N 982.937 -0.845659 -1.3299 0
M  V30 10096 C 983.867 -0.298957 -2.31578 0
M  V30 10097 C 984.848 0.597012 -1.59279 0
M  V30 10098 O 986.033 0.519142 -1.87132 0
M  V30 10099 C 983.163 0.521109 -3.43368 0
M  V30 10100 C 982.117 -0.279651 -4.27085 0
M  V30 10101 C 981.443 0.664591 -5.30554 0
M  V30 10102 C 982.743 -1.50046 -5.00283 0
M  V30 10103 H 984.437 -1.12272 -2.77552 0
M  V30 10104 H 981.983 -0.54132 -1.33438 0
M  V30 10105 H 983.936 0.913921 -4.1137 0
M  V30 10106 H 982.66 1.37815 -2.96099 0
M  V30 10107 H 981.319 -0.654106 -3.60717 0
M  V30 10108 H 980.967 1.51822 -4.79541 0
M  V30 10109 H 980.667 0.132871 -5.8745 0
M  V30 10110 H 982.191 1.05477 -6.01421 0
M  V30 10111 H 983.605 -1.18044 -5.61016 0
M  V30 10112 H 982.002 -1.96946 -5.66862 0
M  V30 10113 H 983.072 -2.26659 -4.28665 0
M  V30 10114 N 984.415 1.45619 -0.602734 0
M  V30 10115 C 985.662 2.02272 -0.0960337 0
M  V30 10116 C 985.99 1.47177 1.27159 0
M  V30 10117 O 985.245 0.634593 1.85125 0
M  V30 10118 C 985.544 3.574 -0.00157909 0
M  V30 10119 C 985.21 4.31626 -1.30422 0
M  V30 10120 C 983.872 4.51622 -1.66106 0
M  V30 10121 C 986.224 4.74091 -2.16535 0
M  V30 10122 C 983.552 5.11338 -2.87663 0
M  V30 10123 C 985.904 5.35151 -3.37336 0
M  V30 10124 C 984.568 5.53371 -3.73278 0
M  V30 10125 H 983.838 0.740166 -0.0351412 0
M  V30 10126 H 986.485 1.74744 -0.783382 0
M  V30 10127 H 984.79 3.84179 0.769008 0
M  V30 10128 H 986.487 3.98934 0.406549 0
M  V30 10129 H 983.077 4.16372 -1.01647 0
M  V30 10130 H 987.261 4.5838 -1.90266 0
M  V30 10131 H 982.517 5.23634 -3.15622 0
M  V30 10132 H 986.691 5.67011 -4.04316 0
M  V30 10133 H 984.318 5.99412 -4.67556 0
M  V30 10134 N 985.893 0.34162 1.53853 0
M  V30 10135 C 987.17 -0.310664 1.93117 0
M  V30 10136 C 987.55 -1.68398 1.273 0
M  V30 10137 O 986.898 -2.24546 0.423225 0
M  V30 10138 C 987.108 -0.384867 3.46871 0
M  V30 10139 C 988.456 -0.636621 4.198 0
M  V30 10140 O 989.48 -0.467061 3.53125 0
M  V30 10141 O 988.339 -0.964962 5.37913 0
M  V30 10142 H 985.433 -0.180881 0.806977 0
M  V30 10143 H 987.979 0.392656 1.65095 0
M  V30 10144 H 986.751 0.57894 3.86994 0
M  V30 10145 H 986.374 -1.13505 3.81054 0
M  V30 10146 N 987.371 -1.57444 0.0701946 0
M  V30 10147 C 988.787 -1.57009 -0.286431 0
M  V30 10148 C 988.987 -1.07946 -1.70147 0
M  V30 10149 O 988.043 -0.744622 -2.41271 0
M  V30 10150 C 989.356 -3.00542 -0.0975466 0
M  V30 10151 C 990.904 -3.12553 -0.167205 0
M  V30 10152 C 991.379 -4.58 -0.00662047 0
M  V30 10153 N 992.87 -4.63158 -0.0622778 0
M  V30 10154 C 993.605 -5.73388 0.0375831 0
M  V30 10155 N 993.101 -6.92537 0.190873 0
M  V30 10156 N 994.894 -5.62097 -0.0193672 0
M  V30 10157 H 987.045 -1.87651 0.995023 0
M  V30 10158 H 989.308 -0.865006 0.387902 0
M  V30 10159 H 989.014 -3.40543 0.878822 0
M  V30 10160 H 988.888 -3.67485 -0.850547 0
M  V30 10161 H 991.275 -2.72439 -1.13406 0
M  V30 10162 H 991.356 -2.48251 0.616871 0
M  V30 10163 H 991 -4.98803 0.956992 0
M  V30 10164 H 990.93 -5.20332 -0.810081 0
M  V30 10165 H 993.421 -3.77475 -0.179229 0
M  V30 10166 H 993.734 -7.72365 0.25926 0
M  V30 10167 H 992.079 -6.94632 0.226214 0
M  V30 10168 H 995.27 -4.67897 -0.137815 0
M  V30 10169 H 995.443 -6.4797 0.0619121 0
M  V30 10170 N 988.849 0.203349 -1.56283 0
M  V30 10171 C 990.095 0.926381 -1.80405 0
M  V30 10172 C 990.428 1.8325 -0.642883 0
M  V30 10173 O 989.703 1.91196 0.356998 0
M  V30 10174 C 989.986 1.74972 -3.14733 0
M  V30 10175 C 989.839 0.868866 -4.41328 0
M  V30 10176 C 991.158 2.72394 -3.45672 0
M  V30 10177 H 988.277 0.335346 -0.656286 0
M  V30 10178 H 990.919 0.1942 -1.89005 0
M  V30 10179 H 989.069 2.37394 -3.07533 0
M  V30 10180 H 990.741 0.259986 -4.60567 0
M  V30 10181 H 988.984 0.175161 -4.33446 0
M  V30 10182 H 989.655 1.47975 -5.31796 0
M  V30 10183 H 992.131 2.20105 -3.53119 0
M  V30 10184 H 991.007 3.27091 -4.40798 0
M  V30 10185 H 991.268 3.51035 -2.6875 0
M  V30 10186 N 990.327 1.50405 0.470755 0
M  V30 10187 C 991.557 1.64928 1.24428 0
M  V30 10188 C 991.965 0.332139 1.86262 0
M  V30 10189 O 991.308 -0.695919 1.70008 0
M  V30 10190 C 991.37 2.6829 2.39293 0
M  V30 10191 C 991.034 4.11835 1.98093 0
M  V30 10192 C 992.031 4.97693 1.50326 0
M  V30 10193 C 989.716 4.57753 2.06803 0
M  V30 10194 C 991.71 6.27516 1.11813 0
M  V30 10195 C 989.397 5.87582 1.67902 0
M  V30 10196 C 990.395 6.72289 1.20485 0
M  V30 10197 O 990.083 7.99694 0.821219 0
M  V30 10198 H 989.815 0.557418 0.382442 0
M  V30 10199 H 992.369 1.97382 0.568292 0
M  V30 10200 H 990.599 2.31079 3.10063 0
M  V30 10201 H 992.288 2.7203 3.01255 0
M  V30 10202 H 993.054 4.63434 1.43018 0
M  V30 10203 H 988.933 3.91966 2.42659 0
M  V30 10204 H 992.477 6.93586 0.747317 0
M  V30 10205 H 988.374 6.21362 1.74869 0
M  V30 10206 H 989.142 8.12968 0.950038 0
M  V30 10207 N 991.805 -0.723954 1.39988 0
M  V30 10208 C 993.033 -1.51313 1.4111 0
M  V30 10209 C 993.448 -1.88798 0.00853333 0
M  V30 10210 O 992.805 -1.54868 -0.965516 0
M  V30 10211 C 992.856 -2.79375 2.29416 0
M  V30 10212 O 992.577 -2.43478 3.64211 0
M  V30 10213 C 994.078 -3.7333 2.3904 0
M  V30 10214 H 991.298 -0.46724 0.481589 0
M  V30 10215 H 993.842 -0.893694 1.83938 0
M  V30 10216 H 991.997 -3.37624 1.89971 0
M  V30 10217 H 992.411 -3.25821 4.11024 0
M  V30 10218 H 993.885 -4.60051 3.05053 0
M  V30 10219 H 994.362 -4.15854 1.41289 0
M  V30 10220 H 994.968 -3.20996 2.79001 0
M  V30 10221 N 993.283 -1.25346 -0.955304 0
M  V30 10222 C 994.233 -1.02358 -2.03732 0
M  V30 10223 C 995.217 0.0392941 -1.60852 0
M  V30 10224 O 996.409 -0.175959 -1.76123 0
M  V30 10225 C 993.538 -0.643552 -3.37214 0
M  V30 10226 C 992.624 -1.74315 -3.8662 0
M  V30 10227 N 993.015 -2.97816 -4.08827 0
M  V30 10228 C 991.313 -1.62351 -4.15401 0
M  V30 10229 C 992.014 -3.69185 -4.4953 0
M  V30 10230 N 990.99 -2.96803 -4.55422 0
M  V30 10231 H 994.792 -1.96119 -2.18894 0
M  V30 10232 H 992.306 -1.15655 -1.14007 0
M  V30 10233 H 994.303 -0.460053 -4.14354 0
M  V30 10234 H 992.963 0.286738 -3.23431 0
M  V30 10235 H 993.974 -3.33868 -3.95919 0
M  V30 10236 H 990.651 -0.762133 -4.10485 0
M  V30 10237 H 992.041 -4.7519 -4.7502 0
M  V30 10238 N 994.761 1.15782 -1.06922 0
M  V30 10239 C 995.693 2.19978 -0.643604 0
M  V30 10240 C 996.706 1.59981 0.301653 0
M  V30 10241 O 997.895 1.78265 0.0916508 0
M  V30 10242 C 994.995 3.38815 0.0757973 0
M  V30 10243 C 994.168 4.28363 -0.884545 0
M  V30 10244 C 993.227 5.25807 -0.203233 0
M  V30 10245 O 992.253 5.62924 -0.842904 0
M  V30 10246 N 993.455 5.70874 1.05279 0
M  V30 10247 H 996.22 2.57112 -1.53992 0
M  V30 10248 H 993.781 1.30855 -0.953344 0
M  V30 10249 H 995.773 4.01052 0.542151 0
M  V30 10250 H 994.343 3.00133 0.874 0
M  V30 10251 H 993.563 3.63292 -1.53012 0
M  V30 10252 H 994.851 4.85067 -1.53581 0
M  V30 10253 H 994.249 5.42822 1.5925 0
M  V30 10254 H 992.806 6.35171 1.46289 0
M  V30 10255 N 996.239 0.8527 1.3254 0
M  V30 10256 C 997.464 0.468157 2.02047 0
M  V30 10257 C 997.889 -0.926967 1.63673 0
M  V30 10258 O 997.247 -1.60855 0.836378 0
M  V30 10259 C 997.295 0.612519 3.5536 0
M  V30 10260 O 996.399 -0.355506 4.10865 0
M  V30 10261 H 995.74 0.188401 0.636711 0
M  V30 10262 H 998.27 1.15135 1.6913 0
M  V30 10263 H 998.28 0.499315 4.04933 0
M  V30 10264 H 996.955 1.62988 3.82632 0
M  V30 10265 H 995.532 -0.198703 3.7237 0
M  V30 10266 N 997.718 -1.45297 0.610449 0
M  V30 10267 C 998.995 -1.95562 0.0386189 0
M  V30 10268 C 999.375 -1.55284 -1.43004 0
M  V30 10269 O 998.723 -0.816785 -2.13403 0
M  V30 10270 C 998.933 -3.48176 0.239731 0
M  V30 10271 C 1000.28 -4.24425 0.122035 0
M  V30 10272 O 1001.3 -3.55794 0.170003 0
M  V30 10273 O 1000.16 -5.46499 0.00953695 0
M  V30 10274 H 997.258 -0.826296 -0.0341081 0
M  V30 10275 H 999.804 -1.55449 0.68071 0
M  V30 10276 H 998.576 -3.70471 1.25963 0
M  V30 10277 H 998.199 -3.95186 -0.437486 0
M  V30 10278 N 999.196 -0.349774 -1.5367 0
M  V30 10279 C 1000.44 0.245189 -2.01312 0
M  V30 10280 C 1000.77 1.49702 -1.23705 0
M  V30 10281 O 1000.05 1.91742 -0.326371 0
M  V30 10282 C 1000.33 0.553071 -3.55827 0
M  V30 10283 C 1000.19 -0.71129 -4.4414 0
M  V30 10284 C 1001.5 1.36015 -4.18555 0
M  V30 10285 H 998.624 0.0876415 -0.73177 0
M  V30 10286 H 1001.27 -0.471543 -1.84056 0
M  V30 10287 H 999.416 1.16367 -3.70663 0
M  V30 10288 H 1001.09 -1.34913 -4.41131 0
M  V30 10289 H 999.331 -1.33491 -4.1275 0
M  V30 10290 H 1000 -0.45104 -5.50154 0
M  V30 10291 H 1002.48 0.843778 -4.07455 0
M  V30 10292 H 1001.35 1.54432 -5.26728 0
M  V30 10293 H 1001.61 2.36408 -3.73582 0
M  V30 10294 N 1000.67 1.57404 -0.0785433 0
M  V30 10295 C 1001.92 1.9484 0.583853 0
M  V30 10296 C 1002.27 0.958758 1.6681 0
M  V30 10297 O 1001.57 -0.0179065 1.91592 0
M  V30 10298 C 1001.76 3.36684 1.1991 0
M  V30 10299 C 1001.59 4.49356 0.175978 0
M  V30 10300 C 1000.36 5.04721 -0.241733 0
M  V30 10301 C 1002.56 5.10911 -0.589415 0
M  V30 10302 N 1000.54 6.00938 -1.25485 0
M  V30 10303 C 1001.91 6.0269 -1.45483 0
M  V30 10304 C 1003.97 4.93708 -0.644746 0
M  V30 10305 C 1002.67 6.79111 -2.37066 0
M  V30 10306 C 1004.7 5.70778 -1.54812 0
M  V30 10307 C 1004.06 6.6221 -2.40119 0
M  V30 10308 H 1000.16 0.75993 0.184472 0
M  V30 10309 H 1002.74 1.94064 -0.157259 0
M  V30 10310 H 1000.91 3.38186 1.91011 0
M  V30 10311 H 1002.64 3.6134 1.82251 0
M  V30 10312 H 999.399 4.73385 0.142732 0
M  V30 10313 H 999.823 6.53746 -1.75912 0
M  V30 10314 H 1004.46 4.228 0.000601434 0
M  V30 10315 H 1002.18 7.49292 -3.02634 0
M  V30 10316 H 1005.77 5.59485 -1.59586 0
M  V30 10317 H 1004.65 7.20804 -3.08887 0
M  V30 10318 N 1002.15 -0.195058 1.56388 0
M  V30 10319 C 1003.38 -0.935745 1.85091 0
M  V30 10320 C 1003.8 -1.76061 0.662118 0
M  V30 10321 O 1003.16 -1.77076 -0.389083 0
M  V30 10322 C 1003.21 -1.80764 3.1202 0
M  V30 10323 O 1002.31 -2.90643 2.92575 0
M  V30 10324 H 1001.65 -0.26351 0.609474 0
M  V30 10325 H 1004.18 -0.200362 2.03617 0
M  V30 10326 H 1004.19 -2.21229 3.42815 0
M  V30 10327 H 1002.87 -1.20157 3.98165 0
M  V30 10328 H 1001.44 -2.53934 2.73079 0
M  V30 10329 N 1003.63 -1.50653 -0.462772 0
M  V30 10330 C 1004.88 -1.62057 -1.21424 0
M  V30 10331 C 1005.2 -0.324778 -1.91769 0
M  V30 10332 O 1004.46 0.689828 -1.83139 0
M  V30 10333 C 1004.76 -2.75637 -2.27507 0
M  V30 10334 C 1004.42 -4.15826 -1.74354 0
M  V30 10335 C 1003.09 -4.53969 -1.5958 0
M  V30 10336 C 1005.44 -5.03409 -1.35012 0
M  V30 10337 C 1002.77 -5.77427 -1.03899 0
M  V30 10338 C 1005.12 -6.27422 -0.807704 0
M  V30 10339 C 1003.78 -6.6436 -0.646657 0
M  V30 10340 H 1003.05 -0.59301 -0.44432 0
M  V30 10341 H 1005.7 -1.84612 -0.508999 0
M  V30 10342 H 1004 -2.47203 -3.0397 0
M  V30 10343 H 1005.7 -2.81663 -2.85424 0
M  V30 10344 H 1002.29 -3.85739 -1.86823 0
M  V30 10345 H 1006.48 -4.74567 -1.45258 0
M  V30 10346 H 1001.73 -6.04713 -0.901751 0
M  V30 10347 H 1005.91 -6.94644 -0.494234 0
M  V30 10348 H 1003.53 -7.59901 -0.213053 0
M  V30 10349 N 1005.11 0.71652 -1.4037 0
M  V30 10350 C 1006.36 1.47347 -1.38324 0
M  V30 10351 C 1006.68 1.94995 0.0139949 0
M  V30 10352 O 1005.95 1.7028 0.968585 0
M  V30 10353 H 1004.53 0.546662 -0.509087 0
M  V30 10354 H 1007.19 0.849455 -1.75415 0
M  V30 10355 H 1006.29 2.34675 -2.05752 0
M  V30 10356 N 1006.59 1.25851 0.948643 0
M  V30 10357 C 1007.83 1.11119 1.69648 0
M  V30 10358 C 1008.17 -0.345995 1.91093 0
M  V30 10359 O 1007.44 -1.25467 1.48621 0
M  V30 10360 C 1007.72 1.87261 3.0758 0
M  V30 10361 C 1007.58 3.40842 2.93507 0
M  V30 10362 C 1008.9 1.6605 4.07573 0
M  V30 10363 H 1006.01 0.405052 0.615713 0
M  V30 10364 H 1008.66 1.54756 1.10229 0
M  V30 10365 H 1006.81 1.50172 3.58303 0
M  V30 10366 H 1008.48 3.87641 2.50064 0
M  V30 10367 H 1006.72 3.68248 2.29294 0
M  V30 10368 H 1007.39 3.89339 3.91305 0
M  V30 10369 H 1009.87 1.98348 3.65783 0
M  V30 10370 H 1008.74 2.21753 5.02113 0
M  V30 10371 H 1009.01 0.603256 4.37965 0
M  V30 10372 N 1008.06 -1.15214 1.07534 0
M  V30 10373 C 1008.99 -2.2216 0.718837 0
M  V30 10374 C 1009.98 -1.6753 -0.29459 0
M  V30 10375 O 1011.16 -1.93481 -0.166931 0
M  V30 10376 C 1008.29 -3.471 0.117836 0
M  V30 10377 C 1007.24 -4.14701 1.05862 0
M  V30 10378 C 1006.57 -5.3374 0.320284 0
M  V30 10379 C 1007.87 -4.64254 2.39302 0
M  V30 10380 H 1009.56 -2.52237 1.61297 0
M  V30 10381 H 1007.11 -1.21239 0.776992 0
M  V30 10382 H 1009.06 -4.21156 -0.143519 0
M  V30 10383 H 1007.79 -3.16361 -0.811389 0
M  V30 10384 H 1006.45 -3.42589 1.30493 0
M  V30 10385 H 1006.09 -4.99257 -0.61246 0
M  V30 10386 H 1005.79 -5.79912 0.947381 0
M  V30 10387 H 1007.32 -6.10563 0.0667721 0
M  V30 10388 H 1008.73 -5.29827 2.18988 0
M  V30 10389 H 1007.13 -5.21095 2.97623 0
M  V30 10390 H 1008.2 -3.79793 3.01472 0
M  V30 10391 N 1009.54 -0.859717 -1.32086 0
M  V30 10392 C 1010.47 -0.323502 -2.31248 0
M  V30 10393 C 1011.45 0.580085 -1.59903 0
M  V30 10394 O 1012.64 0.499265 -1.87673 0
M  V30 10395 C 1009.77 0.484661 -3.43902 0
M  V30 10396 C 1008.72 -0.324933 -4.26765 0
M  V30 10397 C 1008.05 0.608281 -5.31229 0
M  V30 10398 C 1009.35 -1.55344 -4.98664 0
M  V30 10399 H 1011.04 -1.15209 -2.76346 0
M  V30 10400 H 1008.59 -0.555442 -1.32856 0
M  V30 10401 H 1010.54 0.870238 -4.12316 0
M  V30 10402 H 1009.27 1.34666 -2.97544 0
M  V30 10403 H 1007.92 -0.692328 -3.60003 0
M  V30 10404 H 1007.57 1.46727 -4.81124 0
M  V30 10405 H 1007.27 0.0705571 -5.87558 0
M  V30 10406 H 1008.8 0.990925 -6.02506 0
M  V30 10407 H 1010.21 -1.23987 -5.59732 0
M  V30 10408 H 1008.61 -2.02947 -5.64741 0
M  V30 10409 H 1009.68 -2.31192 -4.26237 0
M  V30 10410 N 1011.02 1.44971 -0.618145 0
M  V30 10411 C 1012.27 2.03009 -0.126125 0
M  V30 10412 C 1012.62 1.47656 1.23351 0
M  V30 10413 O 1011.91 0.645901 1.80385 0
M  V30 10414 C 1012.11 3.57378 -0.0394861 0
M  V30 10415 C 1011.94 4.27706 -1.38918 0
M  V30 10416 C 1010.71 4.65206 -1.97261 0
M  V30 10417 C 1012.91 4.58987 -2.32024 0
M  V30 10418 N 1010.89 5.2044 -3.256 0
M  V30 10419 C 1012.26 5.15167 -3.44969 0
M  V30 10420 C 1014.31 4.40932 -2.31265 0
M  V30 10421 C 1013.02 5.55193 -4.57333 0
M  V30 10422 C 1015.04 4.81997 -3.42684 0
M  V30 10423 C 1014.4 5.38279 -4.54352 0
M  V30 10424 H 1010.5 0.77683 -0.0897695 0
M  V30 10425 H 1013.09 1.76646 -0.818805 0
M  V30 10426 H 1011.26 3.8338 0.622441 0
M  V30 10427 H 1012.99 4.02075 0.460165 0
M  V30 10428 H 1009.75 4.49102 -1.50348 0
M  V30 10429 H 1010.17 5.52546 -3.9118 0
M  V30 10430 H 1014.81 3.96723 -1.46187 0
M  V30 10431 H 1012.53 5.98362 -5.43128 0
M  V30 10432 H 1016.12 4.69751 -3.43257 0
M  V30 10433 H 1015 5.6947 -5.39142 0
M  V30 10434 N 1012.5 0.357919 1.53482 0
M  V30 10435 C 1013.41 -0.500273 2.29204 0
M  V30 10436 C 1014.42 -1.09936 1.3487 0
M  V30 10437 O 1015.6 -1.11195 1.67921 0
M  V30 10438 C 1012.67 -1.62828 3.06085 0
M  V30 10439 C 1011.73 -1.05751 4.16071 0
M  V30 10440 C 1010.96 -2.13176 4.89277 0
M  V30 10441 O 1011.18 -3.34153 4.62274 0
M  V30 10442 O 1010.12 -1.76663 5.7539 0
M  V30 10443 H 1013.94 0.115696 3.0348 0
M  V30 10444 H 1011.53 0.122527 1.48897 0
M  V30 10445 H 1013.41 -2.28427 3.54117 0
M  V30 10446 H 1012.08 -2.22979 2.34653 0
M  V30 10447 H 1010.99 -0.365642 3.72309 0
M  V30 10448 H 1012.32 -0.500661 4.89647 0
M  V30 10449 N 1013.98 -1.5736 0.0868897 0
M  V30 10450 C 1015.23 -1.93229 -0.578387 0
M  V30 10451 C 1015.54 -0.970127 -1.69847 0
M  V30 10452 O 1016.74 -1.22222 -2.42434 0
M  V30 10453 C 1015.2 -3.43307 -1.0802 0
M  V30 10454 C 1014.81 -4.47999 0.00968135 0
M  V30 10455 C 1016.55 -3.88151 -1.71868 0
M  V30 10456 C 1014.46 -5.89223 -0.507029 0
M  V30 10457 H 1013.39 -0.721245 -0.219823 0
M  V30 10458 H 1016.04 -1.82787 0.161566 0
M  V30 10459 H 1014.42 -3.48873 -1.87359 0
M  V30 10460 H 1015.6 -4.54067 0.784865 0
M  V30 10461 H 1013.91 -4.12714 0.552845 0
M  V30 10462 H 1016.51 -4.91056 -2.11585 0
M  V30 10463 H 1016.85 -3.26347 -2.58464 0
M  V30 10464 H 1017.38 -3.85252 -0.991259 0
M  V30 10465 H 1014.12 -6.54708 0.322121 0
M  V30 10466 H 1013.64 -5.86643 -1.2494 0
M  V30 10467 H 1015.32 -6.39556 -0.978628 0
M  V30 10468 N 1015.45 0.186762 -1.56489 0
M  V30 10469 C 1016.7 0.905852 -1.81109 0
M  V30 10470 C 1017.03 1.82906 -0.661477 0
M  V30 10471 O 1016.28 1.92504 0.35226 0
M  V30 10472 C 1016.58 1.74719 -3.11782 0
M  V30 10473 C 1016.25 0.974238 -4.40249 0
M  V30 10474 C 1014.91 0.760856 -4.75147 0
M  V30 10475 C 1017.26 0.430971 -5.19415 0
M  V30 10476 C 1014.59 -0.00714216 -5.867 0
M  V30 10477 C 1016.94 -0.323859 -6.3177 0
M  V30 10478 C 1015.61 -0.548183 -6.65245 0
M  V30 10479 H 1014.88 0.331475 -0.662726 0
M  V30 10480 H 1017.52 0.171703 -1.90729 0
M  V30 10481 H 1015.83 2.55027 -2.97437 0
M  V30 10482 H 1017.53 2.30634 -3.28038 0
M  V30 10483 H 1014.12 1.15057 -4.12868 0
M  V30 10484 H 1018.3 0.583205 -4.92861 0
M  V30 10485 H 1013.56 -0.190832 -6.11102 0
M  V30 10486 H 1017.73 -0.752155 -6.92326 0
M  V30 10487 H 1015.36 -1.14518 -7.51525 0
M  V30 10488 N 1016.93 1.50896 0.454776 0
M  V30 10489 C 1018.16 1.6648 1.22849 0
M  V30 10490 C 1018.58 0.354841 1.85435 0
M  V30 10491 O 1017.93 -0.664931 1.69956 0
M  V30 10492 C 1017.98 2.76787 2.32532 0
M  V30 10493 O 1017.7 4.02706 1.72509 0
M  V30 10494 C 1019.21 3.03488 3.23125 0
M  V30 10495 H 1016.43 0.559152 0.370932 0
M  V30 10496 H 1018.97 1.97215 0.540983 0
M  V30 10497 H 1017.12 2.48701 2.9703 0
M  V30 10498 H 1017.54 4.63834 2.44863 0
M  V30 10499 H 1019.01 3.84294 3.9626 0
M  V30 10500 H 1019.49 2.152 3.82865 0
M  V30 10501 H 1020.1 3.33167 2.64347 0
M  V30 10502 N 1018.41 -0.709066 1.40748 0
M  V30 10503 C 1019.34 -1.83583 1.4429 0
M  V30 10504 C 1020.32 -1.67378 0.303067 0
M  V30 10505 O 1021.51 -1.87312 0.512612 0
M  V30 10506 C 1018.64 -3.21599 1.31116 0
M  V30 10507 C 1017.59 -3.52486 2.4277 0
M  V30 10508 C 1016.92 -4.89716 2.14668 0
M  V30 10509 C 1018.22 -3.52824 3.85113 0
M  V30 10510 H 1019.91 -1.80876 2.38588 0
M  V30 10511 H 1017.46 -0.868795 1.14839 0
M  V30 10512 H 1019.41 -4.00123 1.32209 0
M  V30 10513 H 1018.13 -3.24898 0.332965 0
M  V30 10514 H 1016.79 -2.76305 2.40937 0
M  V30 10515 H 1016.44 -4.89625 1.15224 0
M  V30 10516 H 1016.14 -5.11347 2.89478 0
M  V30 10517 H 1017.66 -5.70566 2.17455 0
M  V30 10518 H 1019.08 -4.21377 3.88734 0
M  V30 10519 H 1017.48 -3.85984 4.59496 0
M  V30 10520 H 1018.55 -2.52073 4.14231 0
M  V30 10521 N 1019.89 -1.26353 -0.941956 0
M  V30 10522 C 1021.14 -1.1163 -1.68473 0
M  V30 10523 C 1021.46 0.34108 -1.91994 0
M  V30 10524 O 1020.73 1.24065 -1.51607 0
M  V30 10525 H 1019.31 -0.410113 -0.624353 0
M  V30 10526 H 1021.97 -1.58669 -1.13182 0
M  V30 10527 H 1021.07 -1.63445 -2.6588 0
M  V30 10528 N 1021.37 1.14642 -1.08144 0
M  V30 10529 C 1022.62 1.8525 -0.807885 0
M  V30 10530 C 1022.94 1.83194 0.668213 0
M  V30 10531 O 1022.21 1.27848 1.48431 0
M  V30 10532 H 1020.79 0.685909 -0.295868 0
M  V30 10533 H 1023.45 1.38935 -1.36686 0
M  V30 10534 H 1022.54 2.90155 -1.14964 0
M  V30 10535 N 1022.85 0.866709 1.31628 0
M  V30 10536 C 1024.07 0.48956 2.01539 0
M  V30 10537 C 1024.5 -0.909556 1.64647 0
M  V30 10538 O 1023.85 -1.59959 0.853391 0
M  V30 10539 C 1023.9 0.650176 3.5469 0
M  V30 10540 O 1023.01 -0.311908 4.11219 0
M  V30 10541 H 1022.35 0.195144 0.634677 0
M  V30 10542 H 1024.88 1.16923 1.679 0
M  V30 10543 H 1024.89 0.542236 4.04381 0
M  V30 10544 H 1023.56 1.67038 3.80882 0
M  V30 10545 H 1022.14 -0.159197 3.7256 0
M  V30 10546 N 1024.32 -1.44642 0.625825 0
M  V30 10547 C 1025.73 -1.85502 0.211175 0
M  V30 10548 C 1026.09 -1.52356 -1.2362 0
M  V30 10549 O 1025.21 -0.959051 -1.93988 0
M  V30 10550 C 1025.81 -3.36702 0.37648 0
M  V30 10551 C 1024.36 -3.76396 0.0163795 0
M  V30 10552 C 1023.51 -2.68517 0.692368 0
M  V30 10553 H 1026.46 -1.35183 0.831333 0
M  V30 10554 H 1026.48 -3.78536 -0.386106 0
M  V30 10555 H 1026 -3.60795 1.42999 0
M  V30 10556 H 1024.1 -3.57919 -1.0356 0
M  V30 10557 H 1024.21 -4.77231 0.422742 0
M  V30 10558 H 1022.57 -2.54377 0.128191 0
M  V30 10559 H 1023.36 -2.95444 1.74837 0
M  V30 10560 N 1025.8 -0.366053 -1.5329 0
M  V30 10561 C 1027.03 0.22391 -2.05383 0
M  V30 10562 C 1027.44 1.42962 -1.23929 0
M  V30 10563 O 1026.78 1.81659 -0.273072 0
M  V30 10564 C 1026.84 0.681038 -3.5299 0
M  V30 10565 C 1026.51 -0.40805 -4.55175 0
M  V30 10566 C 1027.51 -1.25806 -5.04449 0
M  V30 10567 C 1025.19 -0.568428 -4.99073 0
M  V30 10568 C 1027.18 -2.25379 -5.96224 0
M  V30 10569 C 1024.87 -1.56752 -5.90654 0
M  V30 10570 C 1025.87 -2.40864 -6.39119 0
M  V30 10571 O 1025.56 -3.39069 -7.28895 0
M  V30 10572 H 1025.29 0.0429593 -0.674634 0
M  V30 10573 H 1027.84 -0.522897 -1.98633 0
M  V30 10574 H 1026.07 1.47945 -3.5728 0
M  V30 10575 H 1027.76 1.19406 -3.8794 0
M  V30 10576 H 1028.53 -1.14536 -4.71282 0
M  V30 10577 H 1024.41 0.0764858 -4.60937 0
M  V30 10578 H 1027.95 -2.91068 -6.33976 0
M  V30 10579 H 1023.85 -1.6807 -6.23236 0
M  V30 10580 H 1024.62 -3.34804 -7.46893 0
M  V30 10581 N 1027.28 1.57312 -0.0952337 0
M  V30 10582 C 1028.69 1.81589 0.433875 0
M  V30 10583 C 1029.04 1.01086 1.68155 0
M  V30 10584 O 1028.17 0.240272 2.15062 0
M  V30 10585 C 1028.76 3.29366 0.793931 0
M  V30 10586 C 1027.32 3.54407 1.26778 0
M  V30 10587 C 1026.47 2.76035 0.264518 0
M  V30 10588 H 1029.42 1.55426 -0.320675 0
M  V30 10589 H 1029.44 3.42697 1.65345 0
M  V30 10590 H 1028.95 3.87932 -0.114334 0
M  V30 10591 H 1027.05 3.01173 2.19376 0
M  V30 10592 H 1027.17 4.63055 1.22952 0
M  V30 10593 H 1025.53 2.43509 0.746691 0
M  V30 10594 H 1026.31 3.37349 -0.636429 0
M  V30 10595 N 1028.76 -0.17846 1.56586 0
M  V30 10596 C 1030.01 -0.894464 1.81228 0
M  V30 10597 C 1030.33 -1.83089 0.671062 0
M  V30 10598 O 1029.6 -1.93439 -0.309557 0
M  V30 10599 H 1028.18 -0.333288 0.668527 0
M  V30 10600 H 1030.84 -0.179986 1.94067 0
M  V30 10601 H 1029.93 -1.47565 2.75011 0
M  V30 10602 N 1030.24 -1.51135 -0.446768 0
M  V30 10603 C 1031.48 -1.62571 -1.19388 0
M  V30 10604 C 1031.8 -0.3432 -1.92566 0
M  V30 10605 O 1033 -0.336804 -2.69403 0
M  V30 10606 C 1031.46 -2.87071 -2.17068 0
M  V30 10607 C 1031.07 -4.22291 -1.49581 0
M  V30 10608 C 1032.81 -3.07862 -2.9227 0
M  V30 10609 C 1030.72 -5.3795 -2.45689 0
M  V30 10610 H 1029.65 -0.60549 -0.449331 0
M  V30 10611 H 1032.3 -1.77593 -0.461846 0
M  V30 10612 H 1030.68 -2.65662 -2.93666 0
M  V30 10613 H 1031.86 -4.54046 -0.786054 0
M  V30 10614 H 1030.17 -4.07302 -0.865677 0
M  V30 10615 H 1032.77 -3.91444 -3.64246 0
M  V30 10616 H 1033.11 -2.20559 -3.53072 0
M  V30 10617 H 1033.64 -3.29566 -2.2278 0
M  V30 10618 H 1030.38 -6.27484 -1.89591 0
M  V30 10619 H 1029.9 -5.10583 -3.14746 0
M  V30 10620 H 1031.58 -5.69517 -3.07017 0
M  V30 10621 N 1031.71 0.701592 -1.41122 0
M  V30 10622 C 1033.12 1.28129 -1.35793 0
M  V30 10623 C 1033.48 1.96163 -0.0381185 0
M  V30 10624 O 1032.6 1.98416 0.863723 0
M  V30 10625 C 1033.2 2.33005 -2.45955 0
M  V30 10626 C 1031.75 2.86566 -2.44043 0
M  V30 10627 C 1030.9 1.60526 -2.26112 0
M  V30 10628 H 1033.85 0.496756 -1.50725 0
M  V30 10629 H 1033.87 3.14163 -2.14667 0
M  V30 10630 H 1033.39 1.8346 -3.42 0
M  V30 10631 H 1031.49 3.40304 -1.51737 0
M  V30 10632 H 1031.6 3.37406 -3.40138 0
M  V30 10633 H 1029.96 1.86113 -1.7388 0
M  V30 10634 H 1030.75 1.12985 -3.24175 0
M  V30 10635 N 1033.19 1.2685 0.935242 0
M  V30 10636 C 1034.44 1.12912 1.6846 0
M  V30 10637 C 1034.77 -0.325708 1.91449 0
M  V30 10638 O 1034.05 -1.23884 1.49944 0
M  V30 10639 C 1034.33 1.90513 3.05576 0
M  V30 10640 C 1034.18 3.43936 2.89876 0
M  V30 10641 C 1035.5 1.70363 4.05789 0
M  V30 10642 H 1032.62 0.411559 0.611382 0
M  V30 10643 H 1035.26 1.55917 1.08582 0
M  V30 10644 H 1033.41 1.53963 3.5669 0
M  V30 10645 H 1035.08 3.90272 2.45939 0
M  V30 10646 H 1033.33 3.70659 2.25376 0
M  V30 10647 H 1034 3.93467 3.87153 0
M  V30 10648 H 1036.47 2.02217 3.63659 0
M  V30 10649 H 1035.35 2.27066 4.99732 0
M  V30 10650 H 1035.61 0.649674 4.373 0
M  V30 10651 N 1034.67 -1.14067 1.0875 0
M  V30 10652 C 1035.58 -2.22871 0.732498 0
M  V30 10653 C 1036.6 -1.72008 -0.26253 0
M  V30 10654 O 1037.77 -2.01123 -0.105601 0
M  V30 10655 C 1034.84 -3.46371 0.150913 0
M  V30 10656 C 1033.9 -4.12158 1.201 0
M  V30 10657 C 1033.13 -5.29763 0.647075 0
M  V30 10658 O 1033.35 -5.67911 -0.532307 0
M  V30 10659 O 1032.29 -5.8542 1.3988 0
M  V30 10660 H 1036.11 -2.55596 1.64025 0
M  V30 10661 H 1033.7 -1.22065 0.861417 0
M  V30 10662 H 1035.58 -4.21055 -0.170442 0
M  V30 10663 H 1034.26 -3.15362 -0.729948 0
M  V30 10664 H 1033.16 -3.39332 1.57494 0
M  V30 10665 H 1034.5 -4.47282 2.05426 0
M  V30 10666 N 1036.15 -0.873678 -1.31166 0
M  V30 10667 C 1037.06 -0.335726 -2.32185 0
M  V30 10668 C 1038.07 0.556259 -1.64869 0
M  V30 10669 O 1039.25 0.452087 -1.9626 0
M  V30 10670 C 1036.32 0.450822 -3.43756 0
M  V30 10671 C 1035.38 -0.469565 -4.26724 0
M  V30 10672 C 1034.61 0.279538 -5.32967 0
M  V30 10673 O 1034.83 1.50715 -5.50128 0
M  V30 10674 O 1033.77 -0.36452 -6.00795 0
M  V30 10675 H 1037.59 -1.17314 -2.80127 0
M  V30 10676 H 1035.18 -0.637163 -1.35132 0
M  V30 10677 H 1037.06 0.896582 -4.11752 0
M  V30 10678 H 1035.73 1.26472 -2.9797 0
M  V30 10679 H 1034.64 -0.963902 -3.61469 0
M  V30 10680 H 1035.97 -1.24916 -4.76085 0
M  V30 10681 N 1037.63 1.44308 -0.633487 0
M  V30 10682 C 1038.56 2.33431 0.0568402 0
M  V30 10683 C 1039.54 1.48342 0.832386 0
M  V30 10684 O 1040.72 1.77056 0.797798 0
M  V30 10685 C 1037.85 3.31443 1.03743 0
M  V30 10686 C 1036.81 4.26368 0.373362 0
M  V30 10687 C 1036.13 5.14267 1.46403 0
M  V30 10688 C 1037.43 5.17287 -0.721876 0
M  V30 10689 H 1039.13 2.91402 -0.687388 0
M  V30 10690 H 1036.67 1.4012 -0.332009 0
M  V30 10691 H 1038.63 3.92677 1.52913 0
M  V30 10692 H 1037.35 2.71686 1.81258 0
M  V30 10693 H 1036.01 3.6647 -0.0977053 0
M  V30 10694 H 1035.66 4.50861 2.23011 0
M  V30 10695 H 1035.36 5.7859 1.02506 0
M  V30 10696 H 1036.88 5.78373 1.95748 0
M  V30 10697 H 1038.29 5.72444 -0.313181 0
M  V30 10698 H 1036.69 5.90226 -1.08413 0
M  V30 10699 H 1037.76 4.58159 -1.58804 0
M  V30 10700 N 1039.1 0.374177 1.53094 0
M  V30 10701 C 1040.35 -0.212816 2.01379 0
M  V30 10702 C 1040.68 -1.48069 1.26118 0
M  V30 10703 O 1039.93 -1.92625 0.345561 0
M  V30 10704 C 1040.23 -0.542179 3.53264 0
M  V30 10705 C 1039.9 0.632375 4.46444 0
M  V30 10706 C 1038.56 0.954635 4.71636 0
M  V30 10707 C 1040.91 1.41887 5.01515 0
M  V30 10708 C 1038.24 2.06521 5.4915 0
M  V30 10709 C 1040.59 2.51993 5.80243 0
M  V30 10710 C 1039.26 2.84744 6.03719 0
M  V30 10711 H 1038.53 -0.0778749 0.736897 0
M  V30 10712 H 1041.17 0.508412 1.84628 0
M  V30 10713 H 1039.48 -1.34454 3.68007 0
M  V30 10714 H 1041.18 -1.00874 3.88105 0
M  V30 10715 H 1037.77 0.371179 4.2699 0
M  V30 10716 H 1041.95 1.18315 4.81991 0
M  V30 10717 H 1037.21 2.32284 5.65557 0
M  V30 10718 H 1041.38 3.13346 6.21922 0
M  V30 10719 H 1039.01 3.70921 6.63568 0
M  V30 10720 N 1040.58 -1.57259 0.103575 0
M  V30 10721 C 1041.53 -2.14487 -0.852295 0
M  V30 10722 C 1042.5 -1.06567 -1.27407 0
M  V30 10723 O 1043.68 -1.34398 -1.35432 0
M  V30 10724 C 1040.82 -2.73632 -2.10284 0
M  V30 10725 C 1039.94 -3.95811 -1.73083 0
M  V30 10726 C 1039.07 -4.43093 -2.92988 0
M  V30 10727 C 1038.11 -5.5784 -2.51953 0
M  V30 10728 N 1037.25 -5.99936 -3.64721 0
M  V30 10729 H 1042.09 -2.95849 -0.35743 0
M  V30 10730 H 1039.63 -1.46175 -0.164748 0
M  V30 10731 H 1041.58 -3.06046 -2.83534 0
M  V30 10732 H 1040.21 -1.94985 -2.57256 0
M  V30 10733 H 1039.27 -3.69656 -0.897688 0
M  V30 10734 H 1040.58 -4.79066 -1.38916 0
M  V30 10735 H 1039.73 -4.77335 -3.74481 0
M  V30 10736 H 1038.47 -3.58756 -3.30372 0
M  V30 10737 H 1037.48 -5.23217 -1.6889 0
M  V30 10738 H 1038.7 -6.43932 -2.15705 0
M  V30 10739 H 1036.65 -5.18543 -4.01807 0
M  V30 10740 H 1036.56 -6.78008 -3.34427 0
M  V30 10741 H 1037.83 -6.38812 -4.46699 0
M  V30 10742 N 1042.06 0.170153 -1.56679 0
M  V30 10743 C 1042.99 1.21285 -1.9953 0
M  V30 10744 C 1043.97 1.46104 -0.871071 0
M  V30 10745 O 1045.16 1.57419 -1.13724 0
M  V30 10746 C 1042.29 2.5515 -2.35618 0
M  V30 10747 C 1041.24 2.44898 -3.51011 0
M  V30 10748 C 1040.57 3.83263 -3.72845 0
M  V30 10749 C 1041.87 1.95271 -4.84424 0
M  V30 10750 H 1043.56 0.856646 -2.86883 0
M  V30 10751 H 1041.11 0.410634 -1.38021 0
M  V30 10752 H 1043.06 3.28299 -2.64193 0
M  V30 10753 H 1041.78 2.92561 -1.45175 0
M  V30 10754 H 1040.44 1.74203 -3.22566 0
M  V30 10755 H 1040.09 4.18069 -2.79691 0
M  V30 10756 H 1039.79 3.77272 -4.50488 0
M  V30 10757 H 1041.31 4.57996 -4.03822 0
M  V30 10758 H 1042.73 2.58195 -5.11867 0
M  V30 10759 H 1041.13 2.00225 -5.65712 0
M  V30 10760 H 1042.2 0.90709 -4.7634 0
M  V30 10761 N 1043.54 1.5137 0.438746 0
M  V30 10762 C 1044.47 1.75528 1.53987 0
M  V30 10763 C 1045.45 0.605067 1.58975 0
M  V30 10764 O 1046.63 0.847634 1.74725 0
M  V30 10765 C 1043.76 1.87904 2.92078 0
M  V30 10766 C 1042.72 3.0333 3.01951 0
M  V30 10767 C 1042.04 3.00888 4.42007 0
M  V30 10768 C 1043.34 4.43319 2.76163 0
M  V30 10769 H 1045.04 2.67728 1.34022 0
M  V30 10770 H 1042.58 1.28831 0.643308 0
M  V30 10771 H 1044.54 2.03388 3.69068 0
M  V30 10772 H 1043.26 0.923514 3.13271 0
M  V30 10773 H 1041.92 2.87549 2.274 0
M  V30 10774 H 1041.57 2.03116 4.60166 0
M  V30 10775 H 1041.27 3.78397 4.49544 0
M  V30 10776 H 1042.79 3.18464 5.20973 0
M  V30 10777 H 1044.21 4.59458 3.42887 0
M  V30 10778 H 1042.6 5.22523 2.9511 0
M  V30 10779 H 1043.67 4.53453 1.71779 0
M  V30 10780 N 1045.02 -0.694098 1.41492 0
M  V30 10781 C 1045.96 -1.80801 1.43456 0
M  V30 10782 C 1046.93 -1.63571 0.288757 0
M  V30 10783 O 1048.12 -1.844 0.490017 0
M  V30 10784 C 1045.26 -3.18694 1.32394 0
M  V30 10785 C 1044.37 -3.47346 2.56855 0
M  V30 10786 C 1043.51 -4.74862 2.38075 0
M  V30 10787 C 1042.55 -4.96486 3.58005 0
M  V30 10788 N 1041.68 -6.15229 3.38287 0
M  V30 10789 H 1046.52 -1.78457 2.38657 0
M  V30 10790 H 1044.06 -0.871455 1.18508 0
M  V30 10791 H 1046.02 -3.98352 1.23982 0
M  V30 10792 H 1044.65 -3.20211 0.407999 0
M  V30 10793 H 1043.7 -2.62083 2.75711 0
M  V30 10794 H 1045.01 -3.59226 3.4606 0
M  V30 10795 H 1044.17 -5.62577 2.27139 0
M  V30 10796 H 1042.9 -4.6523 1.46329 0
M  V30 10797 H 1041.91 -4.07219 3.69395 0
M  V30 10798 H 1043.13 -5.07976 4.50708 0
M  V30 10799 H 1041.08 -6.06807 2.49242 0
M  V30 10800 H 1041 -6.27883 4.21069 0
M  V30 10801 H 1042.27 -7.05674 3.31126 0
M  V30 10802 N 1046.49 -1.27344 -0.928501 0
M  V30 10803 C 1047.4 -1.11812 -2.06241 0
M  V30 10804 C 1048.42 -0.048347 -1.73933 0
M  V30 10805 O 1049.6 -0.25467 -1.99783 0
M  V30 10806 C 1046.66 -0.766036 -3.38131 0
M  V30 10807 C 1045.72 -1.91659 -3.84142 0
M  V30 10808 C 1044.96 -1.58121 -5.09738 0
M  V30 10809 O 1045.18 -0.488742 -5.68302 0
M  V30 10810 O 1044.11 -2.42013 -5.51102 0
M  V30 10811 H 1047.94 -2.06967 -2.22258 0
M  V30 10812 H 1045.52 -1.06524 -1.04752 0
M  V30 10813 H 1047.41 -0.582982 -4.17348 0
M  V30 10814 H 1046.08 0.155998 -3.23324 0
M  V30 10815 H 1044.99 -2.1547 -3.05816 0
M  V30 10816 H 1046.32 -2.8188 -4.0349 0
M  V30 10817 N 1047.97 1.13488 -1.09353 0
M  V30 10818 C 1049.22 1.84383 -0.827488 0
M  V30 10819 C 1049.54 1.83892 0.648745 0
M  V30 10820 O 1048.81 1.29415 1.47066 0
M  V30 10821 H 1047.39 0.682732 -0.303127 0
M  V30 10822 H 1050.05 1.37477 -1.38152 0
M  V30 10823 H 1049.15 2.88919 -1.18035 0
M  V30 10824 N 1049.45 0.880621 1.30701 0
M  V30 10825 C 1050.4 0.315679 2.25804 0
M  V30 10826 C 1051.39 -0.553382 1.51084 0
M  V30 10827 O 1052.58 -0.398518 1.72455 0
M  V30 10828 C 1049.71 -0.472586 3.40032 0
M  V30 10829 C 1048.79 0.410318 4.2211 0
M  V30 10830 N 1049.18 1.50876 4.82773 0
M  V30 10831 C 1047.48 0.20465 4.4553 0
M  V30 10832 C 1048.18 2.05409 5.44226 0
M  V30 10833 N 1047.16 1.34964 5.26579 0
M  V30 10834 H 1050.96 1.15505 2.70251 0
M  V30 10835 H 1048.47 0.729547 1.45091 0
M  V30 10836 H 1050.47 -0.893918 4.07204 0
M  V30 10837 H 1049.13 -1.30945 2.97125 0
M  V30 10838 H 1050.14 1.89163 4.82118 0
M  V30 10839 H 1046.82 -0.595398 4.13233 0
M  V30 10840 H 1048.21 2.97627 6.02385 0
M  V30 10841 N 1050.93 -1.4397 0.641131 0
M  V30 10842 C 1052.35 -1.56607 0.30762 0
M  V30 10843 C 1052.55 -1.62694 -1.18882 0
M  V30 10844 O 1051.6 -1.57541 -1.97325 0
M  V30 10845 C 1052.91 -2.83289 1.00834 0
M  V30 10846 C 1054.46 -2.97016 0.98744 0
M  V30 10847 C 1054.94 -4.26514 1.66882 0
M  V30 10848 N 1056.43 -4.33351 1.63589 0
M  V30 10849 C 1057.16 -5.32292 2.13196 0
M  V30 10850 N 1056.66 -6.37582 2.71038 0
M  V30 10851 N 1058.45 -5.23866 2.03766 0
M  V30 10852 H 1050.6 -1.38262 1.61237 0
M  V30 10853 H 1052.87 -0.663221 0.677378 0
M  V30 10854 H 1052.57 -2.84812 2.06337 0
M  V30 10855 H 1052.45 -3.73134 0.552333 0
M  V30 10856 H 1054.83 -2.95041 -0.0591395 0
M  V30 10857 H 1054.91 -2.08493 1.48203 0
M  V30 10858 H 1054.56 -4.2925 2.71491 0
M  V30 10859 H 1054.49 -5.13912 1.14898 0
M  V30 10860 H 1056.98 -3.5788 1.21368 0
M  V30 10861 H 1057.29 -7.09378 3.06597 0
M  V30 10862 H 1055.64 -6.38239 2.75093 0
M  V30 10863 H 1058.83 -4.40524 1.58291 0
M  V30 10864 H 1059 -6.00819 2.42737 0
M  V30 10865 N 1052.41 -0.382291 -1.52893 0
M  V30 10866 C 1053.34 0.500194 -2.22651 0
M  V30 10867 C 1054.32 1.06969 -1.22459 0
M  V30 10868 O 1055.5 1.12267 -1.51422 0
M  V30 10869 C 1052.63 1.6917 -2.93427 0
M  V30 10870 C 1051.68 1.24811 -4.07829 0
M  V30 10871 S 1052.51 0.235466 -5.34982 0
M  V30 10872 C 1053.66 1.43292 -6.09277 0
M  V30 10873 H 1053.9 -0.0921913 -2.97157 0
M  V30 10874 H 1051.43 -0.16645 -1.535 0
M  V30 10875 H 1053.39 2.37507 -3.34815 0
M  V30 10876 H 1052.05 2.25537 -2.18613 0
M  V30 10877 H 1051.24 2.13754 -4.56426 0
M  V30 10878 H 1050.84 0.643744 -3.68418 0
M  V30 10879 H 1053.14 2.36118 -6.35023 0
M  V30 10880 H 1054.08 0.988003 -7.01173 0
M  V30 10881 H 1054.49 1.64655 -5.39953 0
M  V30 10882 N 1053.89 1.57202 -0.111913 0
M  V30 10883 C 1055.16 1.86459 0.590972 0
M  V30 10884 C 1055.54 1.01182 1.85271 0
M  V30 10885 O 1054.89 0.0887891 2.28327 0
M  V30 10886 C 1055.1 3.37455 0.890225 0
M  V30 10887 C 1056.45 4.05895 1.24638 0
M  V30 10888 O 1057.47 3.42433 0.980713 0
M  V30 10889 O 1056.33 5.17903 1.74466 0
M  V30 10890 H 1053.43 0.771652 0.297459 0
M  V30 10891 H 1055.97 1.69072 -0.145882 0
M  V30 10892 H 1054.74 3.913 -0.00419012 0
M  V30 10893 H 1054.37 3.60248 1.68248 0
M  V30 10894 N 1055.36 -0.161842 1.56767 0
M  V30 10895 C 1056.31 -1.2002 1.97139 0
M  V30 10896 C 1057.28 -1.43486 0.836713 0
M  V30 10897 O 1058.47 -1.56069 1.0976 0
M  V30 10898 C 1055.61 -2.53228 2.34456 0
M  V30 10899 C 1054.72 -2.37062 3.61145 0
M  V30 10900 C 1053.85 -3.63202 3.87631 0
M  V30 10901 C 1052.89 -3.42008 5.07638 0
M  V30 10902 N 1052.03 -4.60242 5.30209 0
M  V30 10903 H 1056.87 -0.848918 2.85653 0
M  V30 10904 H 1054.41 -0.407753 1.41336 0
M  V30 10905 H 1056.36 -3.30879 2.54116 0
M  V30 10906 H 1054.99 -2.86333 1.4904 0
M  V30 10907 H 1054.05 -1.50539 3.49345 0
M  V30 10908 H 1055.36 -2.17353 4.48953 0
M  V30 10909 H 1054.51 -4.49285 4.0771 0
M  V30 10910 H 1053.25 -3.85899 2.98216 0
M  V30 10911 H 1052.26 -2.54312 4.87448 0
M  V30 10912 H 1053.48 -3.20724 5.98593 0
M  V30 10913 H 1051.43 -4.8314 4.43747 0
M  V30 10914 H 1051.34 -4.43481 6.12259 0
M  V30 10915 H 1052.61 -5.47581 5.54775 0
M  V30 10916 N 1056.84 -1.516 -0.430713 0
M  V30 10917 C 1058.25 -1.57 -1.01035 0
M  V30 10918 C 1058.6 -0.397439 -1.92132 0
M  V30 10919 O 1057.73 0.484954 -2.10896 0
M  V30 10920 C 1058.32 -2.84536 -1.83915 0
M  V30 10921 C 1056.88 -2.92485 -2.36917 0
M  V30 10922 C 1056.03 -2.5173 -1.16308 0
M  V30 10923 H 1058.98 -1.57281 -0.211734 0
M  V30 10924 H 1059 -2.68672 -2.69435 0
M  V30 10925 H 1058.51 -3.69858 -1.17586 0
M  V30 10926 H 1056.61 -2.11608 -3.0668 0
M  V30 10927 H 1056.73 -3.96277 -2.6926 0
M  V30 10928 H 1055.09 -2.05079 -1.51045 0
M  V30 10929 H 1055.87 -3.39403 -0.515793 0
M  V30 10930 N 1058.32 0.686584 -1.41858 0
M  V30 10931 C 1059.28 1.78214 -1.44126 0
M  V30 10932 C 1060.28 1.57366 -0.330541 0
M  V30 10933 O 1061.47 1.63874 -0.590837 0
M  V30 10934 C 1058.6 3.16704 -1.26142 0
M  V30 10935 H 1059.8 1.77594 -2.41661 0
M  V30 10936 H 1057.35 0.895085 -1.28132 0
M  V30 10937 H 1058.09 3.22957 -0.294823 0
M  V30 10938 H 1057.87 3.33238 -2.06627 0
M  V30 10939 H 1059.36 3.96658 -1.30584 0
M  V30 10940 N 1059.8 1.27835 0.921735 0
M  V30 10941 C 1060.75 1.1092 2.04449 0
M  V30 10942 C 1061.74 0.0306469 1.69372 0
M  V30 10943 O 1062.95 0.188818 1.79007 0
M  V30 10944 H 1059.32 0.341973 0.669745 0
M  V30 10945 H 1061.29 2.06026 2.1586 0
M  V30 10946 C 1060.04 0.779443 3.38851 0
M  V30 10947 H 1059.36 1.60131 3.66331 0
M  V30 10948 H 1060.8 0.700999 4.18165 0
M  V30 10949 C 1059.26 -0.51647 3.32918 0
M  V30 10950 O 1059.79 -1.54914 3.70627 0
M  V30 10951 N 1058 -0.514276 2.86013 0
M  V30 10952 H 1057.55 0.32651 2.55522 0
M  V30 10953 H 1057.5 -1.38141 2.82426 0
M  V30 10954 N 1061.28 -1.12907 1.09954 0
M  V30 10955 C 1062.52 -1.8595 0.848643 0
M  V30 10956 C 1062.88 -1.81897 -0.614621 0
M  V30 10957 O 1064.08 -2.50233 -0.981667 0
M  V30 10958 C 1062.35 -3.29859 1.3758 0
M  V30 10959 S 1063.91 -4.20333 1.25959 0
M  V30 10960 H 1060.73 -0.641404 0.306793 0
M  V30 10961 H 1063.33 -1.36045 1.40399 0
M  V30 10962 H 1062.03 -3.30365 2.43489 0
M  V30 10963 H 1061.57 -3.84827 0.816806 0
M  V30 10964 H 1063.58 -4.95738 0.214038 0
M  V30 10965 N 1062.75 -0.88754 -1.30232 0
M  V30 10966 C 1063.98 -0.522306 -2.00199 0
M  V30 10967 C 1064.4 0.889866 -1.66514 0
M  V30 10968 O 1063.75 1.58558 -0.903639 0
M  V30 10969 C 1063.8 -0.690551 -3.54843 0
M  V30 10970 O 1063.53 -2.04713 -3.8733 0
M  V30 10971 C 1065.03 -0.328649 -4.4208 0
M  V30 10972 H 1062.25 -0.201628 -0.63999 0
M  V30 10973 H 1064.79 -1.19355 -1.66056 0
M  V30 10974 H 1062.95 -0.0666493 -3.87343 0
M  V30 10975 H 1063.36 -2.06762 -4.82027 0
M  V30 10976 H 1064.83 -0.497257 -5.49756 0
M  V30 10977 H 1065.31 0.733502 -4.33032 0
M  V30 10978 H 1065.92 -0.928982 -4.1503 0
M  V30 10979 N 1064.23 1.43628 -0.648757 0
M  V30 10980 C 1065.18 2.27899 0.0677939 0
M  V30 10981 C 1066.17 1.39653 0.799115 0
M  V30 10982 O 1067.36 1.6332 0.682317 0
M  V30 10983 C 1064.49 3.27276 1.0366 0
M  V30 10984 C 1063.57 4.23009 0.303982 0
M  V30 10985 N 1063.96 5.01248 -0.677056 0
M  V30 10986 C 1062.26 4.42645 0.546041 0
M  V30 10987 C 1062.96 5.70982 -1.11151 0
M  V30 10988 N 1061.94 5.41762 -0.446669 0
M  V30 10989 H 1065.74 2.85804 -0.685073 0
M  V30 10990 H 1063.26 1.55277 -0.475674 0
M  V30 10991 H 1065.25 3.86423 1.5647 0
M  V30 10992 H 1063.91 2.70932 1.78958 0
M  V30 10993 H 1064.92 5.07028 -1.0556 0
M  V30 10994 H 1061.6 3.97377 1.28053 0
M  V30 10995 H 1062.99 6.43794 -1.923 0
M  V30 10996 N 1065.71 0.390394 1.52688 0
M  V30 10997 C 1066.99 -0.249068 1.94008 0
M  V30 10998 C 1067.37 -1.64263 1.32593 0
M  V30 10999 O 1066.72 -2.23086 0.494448 0
M  V30 11000 C 1066.93 -0.274318 3.4792 0
M  V30 11001 C 1068.27 -0.502743 4.21613 0
M  V30 11002 O 1069.3 -0.35448 3.54432 0
M  V30 11003 O 1068.16 -0.79334 5.40711 0
M  V30 11004 H 1065.25 -0.155116 0.812323 0
M  V30 11005 H 1067.8 0.44498 1.63762 0
M  V30 11006 H 1066.57 0.701766 3.84956 0
M  V30 11007 H 1066.19 -1.01324 3.84473 0
M  V30 11008 N 1067.19 -1.57141 0.120249 0
M  V30 11009 C 1068.12 -2.18398 -0.826112 0
M  V30 11010 C 1069.1 -1.12439 -1.27638 0
M  V30 11011 O 1070.28 -1.40679 -1.33877 0
M  V30 11012 C 1067.41 -2.78438 -2.0758 0
M  V30 11013 C 1066.37 -3.89991 -1.76327 0
M  V30 11014 C 1065.69 -4.36844 -3.08336 0
M  V30 11015 C 1066.99 -5.12031 -1.03062 0
M  V30 11016 H 1068.69 -2.97731 -0.315656 0
M  V30 11017 H 1066.23 -1.43213 -0.150387 0
M  V30 11018 H 1068.19 -3.19951 -2.74243 0
M  V30 11019 H 1066.91 -1.96396 -2.60953 0
M  V30 11020 H 1065.57 -3.49055 -1.12053 0
M  V30 11021 H 1065.22 -3.51659 -3.59646 0
M  V30 11022 H 1064.92 -5.1207 -2.88199 0
M  V30 11023 H 1066.44 -4.81009 -3.76116 0
M  V30 11024 H 1067.86 -5.50555 -1.59881 0
M  V30 11025 H 1066.25 -5.92848 -0.930146 0
M  V30 11026 H 1067.32 -4.84897 -0.017582 0
M  V30 11027 N 1068.67 0.153526 -1.5685 0
M  V30 11028 C 1069.9 0.881055 -1.86872 0
M  V30 11029 C 1070.3 1.75547 -0.705692 0
M  V30 11030 O 1069.65 1.8064 0.333888 0
M  V30 11031 C 1069.71 1.79429 -3.11521 0
M  V30 11032 C 1069.37 1.0977 -4.43621 0
M  V30 11033 C 1070.37 0.454693 -5.17908 0
M  V30 11034 C 1068.06 1.08915 -4.9035 0
M  V30 11035 C 1070.05 -0.187562 -6.37124 0
M  V30 11036 C 1067.74 0.443084 -6.09492 0
M  V30 11037 C 1068.73 -0.194154 -6.82724 0
M  V30 11038 O 1068.42 -0.829995 -7.99604 0
M  V30 11039 H 1068.15 0.260486 -0.623797 0
M  V30 11040 H 1070.71 0.153024 -2.04829 0
M  V30 11041 H 1068.94 2.5631 -2.89555 0
M  V30 11042 H 1070.63 2.39321 -3.27842 0
M  V30 11043 H 1071.39 0.453151 -4.82878 0
M  V30 11044 H 1067.27 1.57456 -4.33276 0
M  V30 11045 H 1070.82 -0.685542 -6.94223 0
M  V30 11046 H 1066.71 0.44227 -6.43983 0
M  V30 11047 H 1067.48 -0.731013 -8.15229 0
M  V30 11048 N 1070.14 1.51827 0.422667 0
M  V30 11049 C 1071.08 1.68901 1.53453 0
M  V30 11050 C 1072.06 0.536549 1.53492 0
M  V30 11051 O 1073.24 0.762226 1.72402 0
M  V30 11052 C 1070.37 1.71599 2.92013 0
M  V30 11053 C 1069.41 2.92984 3.0994 0
M  V30 11054 S 1070.25 4.53559 2.84683 0
M  V30 11055 C 1071.4 4.59024 4.25498 0
M  V30 11056 H 1071.63 2.62943 1.38739 0
M  V30 11057 H 1069.17 1.41695 0.613347 0
M  V30 11058 H 1071.13 1.73838 3.71874 0
M  V30 11059 H 1069.79 0.787083 3.04079 0
M  V30 11060 H 1068.98 2.91315 4.1128 0
M  V30 11061 H 1068.58 2.88562 2.37924 0
M  V30 11062 H 1070.87 4.35567 5.18929 0
M  V30 11063 H 1071.82 5.60904 4.32195 0
M  V30 11064 H 1072.22 3.88193 4.09837 0
M  V30 11065 N 1071.62 -0.679052 1.4222 0
M  V30 11066 C 1072.87 -1.43485 1.41757 0
M  V30 11067 C 1073.18 -1.95567 0.0358698 0
M  V30 11068 O 1074.39 -2.71346 -0.0913713 0
M  V30 11069 C 1072.85 -2.59541 2.49332 0
M  V30 11070 C 1072.45 -2.14176 3.93488 0
M  V30 11071 C 1074.2 -3.37078 2.58029 0
M  V30 11072 C 1072.11 -3.27289 4.92581 0
M  V30 11073 H 1071.04 -0.539022 0.52723 0
M  V30 11074 H 1073.69 -0.735581 1.68111 0
M  V30 11075 H 1072.07 -3.31815 2.16135 0
M  V30 11076 H 1073.24 -1.49082 4.36017 0
M  V30 11077 H 1071.56 -1.49589 3.88603 0
M  V30 11078 H 1074.15 -4.21312 3.29242 0
M  V30 11079 H 1074.5 -3.83383 1.62245 0
M  V30 11080 H 1075.03 -2.7187 2.90399 0
M  V30 11081 H 1071.77 -2.8598 5.89827 0
M  V30 11082 H 1071.29 -3.91178 4.54687 0
M  V30 11083 H 1072.97 -3.9282 5.14103 0
M  V30 11084 N 1073.1 -1.28322 -0.914942 0
M  V30 11085 C 1074.03 -1.06469 -2.01841 0
M  V30 11086 C 1075.01 0.0188681 -1.62589 0
M  V30 11087 O 1076.2 -0.128825 -1.88059 0
M  V30 11088 C 1073.32 -0.617685 -3.3302 0
M  V30 11089 C 1072.37 -1.6977 -3.91255 0
M  V30 11090 S 1073.2 -3.29337 -4.22253 0
M  V30 11091 C 1074.36 -2.86468 -5.56495 0
M  V30 11092 H 1074.59 -1.99893 -2.20068 0
M  V30 11093 H 1072.12 -1.12297 -1.05966 0
M  V30 11094 H 1074.08 -0.366481 -4.08861 0
M  V30 11095 H 1072.74 0.296709 -3.12695 0
M  V30 11096 H 1071.94 -1.33653 -4.85956 0
M  V30 11097 H 1071.54 -1.90164 -3.22046 0
M  V30 11098 H 1073.83 -2.32565 -6.36333 0
M  V30 11099 H 1074.77 -3.79962 -5.97523 0
M  V30 11100 H 1075.18 -2.2522 -5.17626 0
M  V30 11101 N 1074.58 1.12322 -1.10551 0
M  V30 11102 C 1075.99 1.35858 -0.837543 0
M  V30 11103 C 1076.19 1.94062 0.54241 0
M  V30 11104 O 1075.25 2.1676 1.29505 0
M  V30 11105 C 1076.56 2.299 -1.9382 0
M  V30 11106 C 1078.11 2.43488 -1.96679 0
M  V30 11107 C 1078.59 3.40846 -3.05922 0
M  V30 11108 N 1080.08 3.48404 -3.05236 0
M  V30 11109 C 1080.81 4.2365 -3.86405 0
M  V30 11110 N 1080.31 5.01951 -4.77512 0
M  V30 11111 N 1082.1 4.19068 -3.74618 0
M  V30 11112 H 1074.25 0.729002 -1.99498 0
M  V30 11113 H 1076.52 0.38339 -0.867016 0
M  V30 11114 H 1076.22 1.94309 -2.9315 0
M  V30 11115 H 1076.1 3.30033 -1.82641 0
M  V30 11116 H 1078.48 2.78359 -0.979813 0
M  V30 11117 H 1078.56 1.43239 -2.11934 0
M  V30 11118 H 1078.21 3.06704 -4.04839 0
M  V30 11119 H 1078.14 4.40927 -2.87907 0
M  V30 11120 H 1080.63 2.92545 -2.39219 0
M  V30 11121 H 1080.94 5.56707 -5.36002 0
M  V30 11122 H 1079.29 5.01143 -4.8154 0
M  V30 11123 H 1082.48 3.5698 -3.02792 0
M  V30 11124 H 1082.65 4.77455 -4.38111 0
M  V30 11125 N 1076.06 0.894434 1.2976 0
M  V30 11126 C 1076.97 0.372622 2.31622 0
M  V30 11127 C 1077.98 -0.52996 1.65733 0
M  V30 11128 O 1079.16 -0.420807 1.96955 0
M  V30 11129 C 1076.22 -0.396076 3.4443 0
M  V30 11130 C 1075.28 0.537394 4.25923 0
M  V30 11131 C 1074.52 -0.194713 5.33345 0
M  V30 11132 O 1074.74 -1.41943 5.52457 0
M  V30 11133 O 1073.67 0.460055 6.00139 0
M  V30 11134 H 1077.5 1.21756 2.78225 0
M  V30 11135 H 1075.09 0.65858 1.34101 0
M  V30 11136 H 1076.97 -0.830962 4.13126 0
M  V30 11137 H 1075.64 -1.21716 2.99945 0
M  V30 11138 H 1074.55 1.02129 3.5989 0
M  V30 11139 H 1075.88 1.32475 4.74037 0
M  V30 11140 N 1077.53 -1.43282 0.656365 0
M  V30 11141 C 1078.77 -2.03652 0.174681 0
M  V30 11142 C 1079.14 -1.5068 -1.18994 0
M  V30 11143 O 1080.34 -2.02716 -1.76521 0
M  V30 11144 C 1078.61 -3.56906 0.18778 0
M  V30 11145 S 1080.17 -4.3822 -0.225599 0
M  V30 11146 H 1076.99 -0.70719 0.0735029 0
M  V30 11147 H 1079.59 -1.75303 0.865403 0
M  V30 11148 H 1078.29 -3.92961 1.18363 0
M  V30 11149 H 1077.82 -3.89903 -0.523378 0
M  V30 11150 H 1079.84 -4.74121 -1.46369 0
M  V30 11151 N 1079.01 -0.398486 -1.52479 0
M  V30 11152 C 1080.26 0.17345 -2.02659 0
M  V30 11153 C 1080.61 1.43702 -1.27935 0
M  V30 11154 O 1079.91 1.87916 -0.37392 0
M  V30 11155 C 1080.1 0.485909 -3.54081 0
M  V30 11156 C 1079.93 -0.745833 -4.43472 0
M  V30 11157 C 1078.7 -1.26785 -4.89136 0
M  V30 11158 C 1080.9 -1.62085 -4.88091 0
M  V30 11159 N 1078.88 -2.45619 -5.62623 0
M  V30 11160 C 1080.25 -2.65552 -5.60252 0
M  V30 11161 C 1082.31 -1.63986 -4.7012 0
M  V30 11162 C 1081.01 -3.70818 -6.1635 0
M  V30 11163 C 1083.04 -2.68164 -5.27107 0
M  V30 11164 C 1082.4 -3.70353 -5.99181 0
M  V30 11165 H 1078.5 0.0253159 -0.78159 0
M  V30 11166 H 1081.08 -0.550442 -1.86757 0
M  V30 11167 H 1079.25 1.17885 -3.70078 0
M  V30 11168 H 1080.98 1.0458 -3.90954 0
M  V30 11169 H 1077.74 -0.827472 -4.66315 0
M  V30 11170 H 1078.16 -3.05771 -6.04014 0
M  V30 11171 H 1082.8 -0.863253 -4.13893 0
M  V30 11172 H 1080.52 -4.49341 -6.71653 0
M  V30 11173 H 1084.11 -2.7053 -5.15077 0
M  V30 11174 H 1082.99 -4.49642 -6.42489 0
M  V30 11175 N 1080.49 1.57075 -0.12858 0
M  V30 11176 C 1081.44 2.12379 0.829418 0
M  V30 11177 C 1082.43 1.04694 1.2218 0
M  V30 11178 O 1083.62 1.30909 1.1913 0
M  V30 11179 C 1080.75 2.73436 2.07575 0
M  V30 11180 C 1079.83 3.88217 1.7073 0
M  V30 11181 N 1080.22 4.94864 1.04609 0
M  V30 11182 C 1078.52 3.9858 2.00125 0
M  V30 11183 C 1079.22 5.7514 0.871137 0
M  V30 11184 N 1078.2 5.25284 1.39918 0
M  V30 11185 H 1082 2.92209 0.314816 0
M  V30 11186 H 1079.51 1.62233 0.0735788 0
M  V30 11187 H 1081.51 3.11406 2.77185 0
M  V30 11188 H 1080.17 1.95073 2.5957 0
M  V30 11189 H 1081.18 5.13025 0.708961 0
M  V30 11190 H 1077.86 3.3127 2.541 0
M  V30 11191 H 1079.25 6.7098 0.351395 0
M  V30 11192 N 1081.97 -0.145205 1.5693 0
M  V30 11193 C 1082.93 -1.16316 1.97492 0
M  V30 11194 C 1083.93 -1.35764 0.861668 0
M  V30 11195 O 1085.12 -1.32726 1.12825 0
M  V30 11196 C 1082.25 -2.52311 2.29242 0
M  V30 11197 H 1083.45 -0.815138 2.8861 0
M  V30 11198 H 1081 -0.38861 1.51392 0
M  V30 11199 H 1081.74 -2.92081 1.40922 0
M  V30 11200 H 1081.52 -2.39555 3.10412 0
M  V30 11201 H 1083.01 -3.25624 2.61456 0
M  V30 11202 N 1083.45 -1.52049 -0.414609 0
M  V30 11203 C 1084.41 -1.74382 -1.4874 0
M  V30 11204 C 1085.41 -0.613701 -1.48628 0
M  V30 11205 O 1086.6 -0.88152 -1.50249 0
M  V30 11206 C 1083.73 -1.82116 -2.88178 0
M  V30 11207 H 1084.93 -2.70147 -1.30233 0
M  V30 11208 H 1082.48 -1.42382 -0.644756 0
M  V30 11209 H 1083.21 -0.882457 -3.12063 0
M  V30 11210 H 1083 -2.64268 -2.89663 0
M  V30 11211 H 1084.49 -2.01155 -3.65959 0
M  V30 11212 N 1084.93 0.6715 -1.42579 0
M  V30 11213 C 1086.34 1.2522 -1.38481 0
M  V30 11214 C 1086.69 1.96038 -0.079719 0
M  V30 11215 O 1085.81 2.00203 0.821441 0
M  V30 11216 C 1086.41 2.27736 -2.50842 0
M  V30 11217 C 1084.97 2.81325 -2.50067 0
M  V30 11218 C 1084.11 1.55694 -2.29466 0
M  V30 11219 H 1087.06 0.464673 -1.51745 0
M  V30 11220 H 1087.09 3.09539 -2.21283 0
M  V30 11221 H 1086.6 1.76164 -3.45815 0
M  V30 11222 H 1084.7 3.37008 -1.58922 0
M  V30 11223 H 1084.81 3.30116 -3.47218 0
M  V30 11224 H 1083.18 1.82383 -1.77788 0
M  V30 11225 H 1083.96 1.06084 -3.26498 0
M  V30 11226 N 1086.4 1.28806 0.908124 0
M  V30 11227 C 1087.63 1.19271 1.69674 0
M  V30 11228 C 1088.05 -0.244403 1.86505 0
M  V30 11229 O 1087.41 -1.17668 1.37927 0
M  V30 11230 C 1087.46 1.9023 3.06341 0
M  V30 11231 O 1086.56 1.2136 3.94139 0
M  V30 11232 H 1085.9 0.413738 0.519343 0
M  V30 11233 H 1088.43 1.70227 1.13508 0
M  V30 11234 H 1088.44 1.98356 3.56537 0
M  V30 11235 H 1087.12 2.94762 2.93408 0
M  V30 11236 H 1085.7 1.21435 3.52573 0
M  V30 11237 N 1087.88 -1.11734 1.11145 0
M  V30 11238 C 1088.81 -2.17438 0.724804 0
M  V30 11239 C 1089.83 -1.6099 -0.242069 0
M  V30 11240 O 1091.02 -1.78482 -0.0254259 0
M  V30 11241 C 1088.12 -3.38863 0.050004 0
M  V30 11242 C 1087.29 -4.24785 1.04292 0
M  V30 11243 C 1086.35 -5.24691 0.398243 0
M  V30 11244 O 1085.37 -5.59408 1.05125 0
M  V30 11245 N 1086.58 -5.74388 -0.840184 0
M  V30 11246 H 1089.34 -2.51219 1.63429 0
M  V30 11247 H 1086.9 -1.27226 1.00125 0
M  V30 11248 H 1088.89 -4.02788 -0.392929 0
M  V30 11249 H 1087.46 -3.0317 -0.762005 0
M  V30 11250 H 1086.68 -3.57363 1.6639 0
M  V30 11251 H 1087.97 -4.79033 1.71478 0
M  V30 11252 H 1087.37 -5.48359 -1.38994 0
M  V30 11253 H 1085.93 -6.40163 -1.22615 0
M  V30 11254 N 1089.36 -0.901303 -1.29284 0
M  V30 11255 C 1090.78 -0.597634 -1.47988 0
M  V30 11256 C 1090.98 0.860434 -1.82205 0
M  V30 11257 O 1090.03 1.64049 -1.91948 0
M  V30 11258 C 1091.34 -1.52484 -2.5917 0
M  V30 11259 C 1092.89 -1.53021 -2.73045 0
M  V30 11260 C 1093.37 -2.44373 -3.87357 0
M  V30 11261 N 1094.86 -2.42429 -3.94693 0
M  V30 11262 C 1095.59 -3.09817 -4.82495 0
M  V30 11263 N 1095.09 -3.86489 -5.74976 0
M  V30 11264 N 1096.88 -2.98966 -4.76 0
M  V30 11265 H 1089.03 -1.84432 -1.0535 0
M  V30 11266 H 1091.3 -0.790367 -0.523473 0
M  V30 11267 H 1091 -2.56378 -2.40756 0
M  V30 11268 H 1090.88 -1.24657 -3.56006 0
M  V30 11269 H 1093.26 -0.498709 -2.90855 0
M  V30 11270 H 1093.34 -1.84886 -1.76779 0
M  V30 11271 H 1092.99 -3.47618 -3.70302 0
M  V30 11272 H 1092.92 -2.09817 -4.82995 0
M  V30 11273 H 1095.41 -1.86724 -3.28546 0
M  V30 11274 H 1095.72 -4.34959 -6.38773 0
M  V30 11275 H 1094.07 -3.90596 -5.74857 0
M  V30 11276 H 1097.26 -2.38581 -4.02737 0
M  V30 11277 H 1097.43 -3.51758 -5.44215 0
M  V30 11278 N 1090.84 1.42931 -0.663954 0
M  V30 11279 C 1092.25 1.84877 -0.260283 0
M  V30 11280 C 1092.6 1.5558 1.19538 0
M  V30 11281 O 1091.72 1.01015 1.91377 0
M  V30 11282 C 1092.32 3.35585 -0.465618 0
M  V30 11283 C 1090.88 3.76221 -0.116169 0
M  V30 11284 C 1090.03 2.66587 -0.763317 0
M  V30 11285 H 1092.98 1.32932 -0.866882 0
M  V30 11286 H 1093 3.79427 0.285608 0
M  V30 11287 H 1092.51 3.56877 -1.52515 0
M  V30 11288 H 1090.61 3.60539 0.940342 0
M  V30 11289 H 1090.72 4.75943 -0.549123 0
M  V30 11290 H 1089.09 2.53948 -0.19559 0
M  V30 11291 H 1089.87 2.90704 -1.82609 0
M  V30 11292 N 1092.32 0.406567 1.52266 0
M  V30 11293 C 1093.54 -0.169624 2.06204 0
M  V30 11294 C 1093.96 -1.39076 1.27684 0
M  V30 11295 O 1093.32 -1.79528 0.328023 0
M  V30 11296 C 1093.37 -0.522611 3.57702 0
M  V30 11297 O 1093.09 0.650028 4.33251 0
M  V30 11298 C 1094.59 -1.15281 4.28048 0
M  V30 11299 H 1091.81 -0.0215191 0.670655 0
M  V30 11300 H 1094.35 0.576781 1.96198 0
M  V30 11301 H 1092.51 -1.21891 3.67725 0
M  V30 11302 H 1092.92 0.355989 5.23291 0
M  V30 11303 H 1094.4 -1.35002 5.35237 0
M  V30 11304 H 1094.87 -2.12517 3.84361 0
M  V30 11305 H 1095.48 -0.496786 4.22389 0
M  V30 11306 N 1093.79 -1.57004 0.136909 0
M  V30 11307 C 1095.04 -1.95797 -0.516711 0
M  V30 11308 C 1095.37 -1.02123 -1.65533 0
M  V30 11309 O 1094.62 -0.0484835 -1.9564 0
M  V30 11310 C 1094.92 -3.40903 -1.07331 0
M  V30 11311 C 1094.59 -4.50867 -0.0541941 0
M  V30 11312 C 1093.25 -4.80669 0.225988 0
M  V30 11313 C 1095.6 -5.17264 0.639361 0
M  V30 11314 C 1092.93 -5.74177 1.2057 0
M  V30 11315 C 1095.28 -6.11827 1.60783 0
M  V30 11316 C 1093.95 -6.40012 1.89581 0
M  V30 11317 H 1093.22 -0.716471 -0.189078 0
M  V30 11318 H 1095.86 -1.90213 0.221605 0
M  V30 11319 H 1094.17 -3.43268 -1.88876 0
M  V30 11320 H 1095.87 -3.6824 -1.58745 0
M  V30 11321 H 1092.46 -4.27666 -0.282754 0
M  V30 11322 H 1096.64 -4.9438 0.436085 0
M  V30 11323 H 1091.9 -5.94312 1.43538 0
M  V30 11324 H 1096.07 -6.62354 2.15081 0
M  V30 11325 H 1093.7 -7.12274 2.65649 0
M  V30 11326 N 1095.27 0.136881 -1.57004 0
M  V30 11327 C 1096.22 1.16869 -1.99023 0
M  V30 11328 C 1097.19 1.42137 -0.859435 0
M  V30 11329 O 1098.37 1.54303 -1.12229 0
M  V30 11330 C 1095.51 2.49466 -2.38455 0
M  V30 11331 C 1094.63 2.31286 -3.64871 0
M  V30 11332 C 1093.76 3.56989 -3.9336 0
M  V30 11333 C 1092.8 3.33889 -5.13015 0
M  V30 11334 N 1091.94 4.51748 -5.37464 0
M  V30 11335 H 1096.78 0.803366 -2.86967 0
M  V30 11336 H 1094.32 0.385216 -1.41967 0
M  V30 11337 H 1096.27 3.26794 -2.59348 0
M  V30 11338 H 1094.9 2.83926 -1.53577 0
M  V30 11339 H 1093.96 1.44962 -3.51696 0
M  V30 11340 H 1095.27 2.10183 -4.52355 0
M  V30 11341 H 1094.42 4.42742 -4.14806 0
M  V30 11342 H 1093.16 3.81106 -3.04318 0
M  V30 11343 H 1092.17 2.46525 -4.91432 0
M  V30 11344 H 1093.39 3.1116 -6.03619 0
M  V30 11345 H 1091.34 4.76019 -4.51377 0
M  V30 11346 H 1091.25 4.33684 -6.19237 0
M  V30 11347 H 1092.52 5.38686 -5.63416 0
M  V30 11348 N 1096.75 1.52266 0.40654 0
M  V30 11349 C 1097.68 1.72025 1.51459 0
M  V30 11350 C 1098.7 0.600667 1.51314 0
M  V30 11351 O 1099.88 0.875894 1.55532 0
M  V30 11352 C 1096.98 1.7479 2.90348 0
M  V30 11353 C 1096.16 3.03826 3.14656 0
M  V30 11354 C 1095.22 2.98369 4.33431 0
M  V30 11355 O 1094.24 3.7227 4.30586 0
M  V30 11356 N 1095.44 2.16338 5.38682 0
M  V30 11357 H 1098.21 2.67622 1.34903 0
M  V30 11358 H 1095.77 1.50536 0.595867 0
M  V30 11359 H 1097.76 1.68667 3.67877 0
M  V30 11360 H 1096.33 0.86656 3.00349 0
M  V30 11361 H 1095.55 3.23577 2.25148 0
M  V30 11362 H 1096.84 3.89182 3.27742 0
M  V30 11363 H 1096.24 1.55731 5.43842 0
M  V30 11364 H 1094.8 2.1607 6.14945 0
M  V30 11365 N 1098.23 -0.663929 1.42933 0
M  V30 11366 C 1099.16 -1.78899 1.50058 0
M  V30 11367 C 1100.14 -1.66329 0.356164 0
M  V30 11368 O 1101.32 -1.85587 0.571944 0
M  V30 11369 C 1098.45 -3.17265 1.41281 0
M  V30 11370 C 1097.41 -3.44584 2.53861 0
M  V30 11371 C 1096.73 -4.82638 2.3014 0
M  V30 11372 C 1098.03 -3.40394 3.96143 0
M  V30 11373 H 1099.73 -1.73194 2.44222 0
M  V30 11374 H 1097.27 -0.83182 1.17545 0
M  V30 11375 H 1099.23 -3.95715 1.44872 0
M  V30 11376 H 1097.95 -3.23675 0.43616 0
M  V30 11377 H 1096.61 -2.685 2.49606 0
M  V30 11378 H 1096.26 -4.85711 1.30743 0
M  V30 11379 H 1095.96 -5.01879 3.056 0
M  V30 11380 H 1097.48 -5.63359 2.35497 0
M  V30 11381 H 1098.9 -4.08796 4.01943 0
M  V30 11382 H 1097.29 -3.7117 4.71543 0
M  V30 11383 H 1098.36 -2.38767 4.22041 0
M  V30 11384 N 1099.71 -1.29285 -0.901281 0
M  V30 11385 C 1100.95 -1.17339 -1.65407 0
M  V30 11386 C 1101.29 0.274834 -1.92245 0
M  V30 11387 O 1100.56 1.19865 -1.53176 0
M  V30 11388 C 1100.84 -1.98547 -3.00418 0
M  V30 11389 C 1100.7 -3.51501 -2.80655 0
M  V30 11390 C 1102.02 -1.81062 -4.01129 0
M  V30 11391 H 1099.13 -0.427624 -0.600255 0
M  V30 11392 H 1101.78 -1.58741 -1.0441 0
M  V30 11393 H 1099.93 -1.63366 -3.52482 0
M  V30 11394 H 1101.6 -3.96655 -2.35505 0
M  V30 11395 H 1099.84 -3.76504 -2.15469 0
M  V30 11396 H 1100.51 -4.03593 -3.76585 0
M  V30 11397 H 1102.99 -2.11788 -3.58169 0
M  V30 11398 H 1101.86 -2.40235 -4.93536 0
M  V30 11399 H 1102.13 -0.765388 -4.35424 0
M  V30 11400 N 1101.18 1.11143 -1.11736 0
M  V30 11401 C 1102.09 2.20851 -0.791331 0
M  V30 11402 C 1103.11 1.72644 0.216833 0
M  V30 11403 O 1104.29 2.01332 0.0522401 0
M  V30 11404 C 1101.35 3.4585 -0.242694 0
M  V30 11405 C 1100.41 4.08829 -1.30986 0
M  V30 11406 C 1099.65 5.27861 -0.787305 0
M  V30 11407 O 1099.87 5.69122 0.381549 0
M  V30 11408 O 1098.8 5.81506 -1.55352 0
M  V30 11409 H 1102.63 2.51158 -1.70744 0
M  V30 11410 H 1100.21 1.19739 -0.893478 0
M  V30 11411 H 1102.1 4.21359 0.0587472 0
M  V30 11412 H 1100.77 3.17187 0.646079 0
M  V30 11413 H 1099.68 3.35037 -1.66436 0
M  V30 11414 H 1101.01 4.41678 -2.17213 0
M  V30 11415 N 1102.66 0.908147 1.28804 0
M  V30 11416 C 1103.94 0.457561 1.90173 0
M  V30 11417 C 1104.32 -1.06333 1.82364 0
M  V30 11418 O 1103.67 -1.90892 1.25589 0
M  V30 11419 C 1103.88 0.981624 3.34911 0
M  V30 11420 C 1105.23 1.03037 4.11908 0
M  V30 11421 O 1106.25 0.929878 3.43848 0
M  V30 11422 O 1105.11 1.18257 5.33552 0
M  V30 11423 H 1102.2 0.144081 0.814352 0
M  V30 11424 H 1104.75 0.998565 1.37211 0
M  V30 11425 H 1103.52 2.02561 3.34791 0
M  V30 11426 H 1103.14 0.421122 3.95364 0
M  V30 11427 N 1104.14 -1.42577 0.671525 0
M  V30 11428 C 1105.07 -2.33499 0.00506984 0
M  V30 11429 C 1106.05 -1.50497 -0.792763 0
M  V30 11430 O 1107.24 -1.79109 -0.750574 0
M  V30 11431 C 1104.37 -3.34077 -0.949194 0
M  V30 11432 C 1103.32 -4.27208 -0.260187 0
M  V30 11433 C 1102.65 -5.17968 -1.32716 0
M  V30 11434 C 1103.95 -5.15192 0.858772 0
M  V30 11435 H 1105.64 -2.89477 0.764407 0
M  V30 11436 H 1103.19 -1.39191 0.369043 0
M  V30 11437 H 1105.14 -3.96594 -1.42448 0
M  V30 11438 H 1103.86 -2.76396 -1.73991 0
M  V30 11439 H 1102.52 -3.66082 0.194834 0
M  V30 11440 H 1102.17 -4.56615 -2.10979 0
M  V30 11441 H 1101.87 -5.81104 -0.871293 0
M  V30 11442 H 1103.39 -5.83359 -1.80345 0
M  V30 11443 H 1104.81 -5.71412 0.464844 0
M  V30 11444 H 1103.21 -5.87144 1.24023 0
M  V30 11445 H 1104.28 -4.53787 1.70895 0
M  V30 11446 N 1105.62 -0.414636 -1.52048 0
M  V30 11447 C 1106.9 0.218172 -1.94379 0
M  V30 11448 C 1107.28 1.62133 -1.35189 0
M  V30 11449 O 1106.62 2.22271 -0.529877 0
M  V30 11450 C 1106.83 0.218932 -3.48313 0
M  V30 11451 C 1108.18 0.435604 -4.2236 0
M  V30 11452 O 1109.21 0.298049 -3.54951 0
M  V30 11453 O 1108.06 0.707217 -5.41905 0
M  V30 11454 H 1105.16 0.142173 -0.814688 0
M  V30 11455 H 1107.7 -0.470977 -1.63033 0
M  V30 11456 H 1106.48 -0.76292 -3.83791 0
M  V30 11457 H 1106.1 0.951949 -3.86036 0
M  V30 11458 N 1107.1 1.56929 -0.145233 0
M  V30 11459 C 1108.51 1.58196 0.211194 0
M  V30 11460 C 1108.71 1.15941 1.64803 0
M  V30 11461 O 1107.77 0.858888 2.37443 0
M  V30 11462 C 1109.08 3.00665 -0.0459569 0
M  V30 11463 C 1110.63 3.12995 0.0178913 0
M  V30 11464 C 1111.1 4.5751 -0.211905 0
M  V30 11465 N 1112.6 4.62928 -0.158772 0
M  V30 11466 C 1113.33 5.72555 -0.311111 0
M  V30 11467 N 1112.83 6.90838 -0.521074 0
M  V30 11468 N 1114.62 5.61549 -0.248838 0
M  V30 11469 H 1106.77 1.8269 -1.08342 0
M  V30 11470 H 1109.03 0.845514 -0.428731 0
M  V30 11471 H 1108.74 3.35962 -1.0403 0
M  V30 11472 H 1108.61 3.71125 0.674246 0
M  V30 11473 H 1111 2.7754 1.00278 0
M  V30 11474 H 1111.08 2.45025 -0.734612 0
M  V30 11475 H 1110.73 4.93669 -1.19389 0
M  V30 11476 H 1110.66 5.23604 0.560901 0
M  V30 11477 H 1113.15 3.779 -0.00107283 0
M  V30 11478 H 1113.46 7.70248 -0.62747 0
M  V30 11479 H 1111.8 6.92761 -0.557374 0
M  V30 11480 H 1115 4.68022 -0.0855821 0
M  V30 11481 H 1115.17 6.46937 -0.370997 0
M  V30 11482 N 1108.58 -0.128553 1.57075 0
M  V30 11483 C 1109.82 -0.839252 1.8462 0
M  V30 11484 C 1110.15 -1.79974 0.729582 0
M  V30 11485 O 1109.43 -1.92681 -0.265369 0
M  V30 11486 C 1109.71 -1.59756 3.22723 0
M  V30 11487 C 1109.57 -0.657313 4.44971 0
M  V30 11488 C 1110.88 -2.55592 3.58275 0
M  V30 11489 H 1108 -0.303652 0.671539 0
M  V30 11490 H 1110.65 -0.103802 1.89716 0
M  V30 11491 H 1108.8 -2.22451 3.18509 0
M  V30 11492 H 1110.47 -0.0399471 4.61283 0
M  V30 11493 H 1108.71 0.0318416 4.33788 0
M  V30 11494 H 1109.38 -1.22433 5.38251 0
M  V30 11495 H 1111.86 -2.03007 3.63218 0
M  V30 11496 H 1110.73 -3.05687 4.55902 0
M  V30 11497 H 1110.99 -3.37813 2.85193 0
M  V30 11498 N 1110.05 -1.5248 -0.398459 0
M  V30 11499 C 1110.98 -1.79549 -1.49279 0
M  V30 11500 C 1111.96 -0.647004 -1.57315 0
M  V30 11501 O 1113.15 -0.893661 -1.72416 0
M  V30 11502 C 1110.28 -1.95582 -2.86993 0
M  V30 11503 C 1109.23 -3.1123 -2.93803 0
M  V30 11504 C 1108.56 -3.12501 -4.33874 0
M  V30 11505 C 1109.86 -4.50485 -2.64312 0
M  V30 11506 H 1111.55 -2.71187 -1.26877 0
M  V30 11507 H 1109.1 -1.30492 -0.608924 0
M  V30 11508 H 1111.05 -2.13102 -3.63546 0
M  V30 11509 H 1109.78 -1.00625 -3.10712 0
M  V30 11510 H 1108.44 -2.93477 -2.19697 0
M  V30 11511 H 1108.08 -2.15245 -4.54619 0
M  V30 11512 H 1107.78 -3.90183 -4.39353 0
M  V30 11513 H 1109.31 -3.32164 -5.12347 0
M  V30 11514 H 1110.72 -4.68387 -3.30585 0
M  V30 11515 H 1109.12 -5.30163 -2.81153 0
M  V30 11516 H 1110.19 -4.57848 -1.59696 0
M  V30 11517 N 1111.53 0.65634 -1.43283 0
M  V30 11518 C 1112.76 1.44408 -1.48168 0
M  V30 11519 C 1113.17 1.88542 -0.0986016 0
M  V30 11520 O 1112.53 1.59298 0.890527 0
M  V30 11521 C 1112.58 2.68111 -2.42484 0
M  V30 11522 O 1112.3 2.25824 -3.75413 0
M  V30 11523 C 1113.8 3.61499 -2.56579 0
M  V30 11524 H 1111.02 0.443731 -0.503333 0
M  V30 11525 H 1113.57 0.804917 -1.87993 0
M  V30 11526 H 1111.72 3.28175 -2.05863 0
M  V30 11527 H 1112.14 3.05839 -4.26102 0
M  V30 11528 H 1113.61 4.44972 -3.26655 0
M  V30 11529 H 1114.09 4.08639 -1.60969 0
M  V30 11530 H 1114.69 3.07319 -2.93998 0
M  V30 11531 N 1113.01 1.29761 0.894412 0
M  V30 11532 C 1114.26 1.18214 1.64782 0
M  V30 11533 C 1114.59 -0.264635 1.92388 0
M  V30 11534 O 1113.86 -1.19051 1.53809 0
M  V30 11535 C 1114.15 2.00138 2.99361 0
M  V30 11536 C 1114 3.52984 2.78787 0
M  V30 11537 C 1115.32 1.83187 4.00163 0
M  V30 11538 H 1112.44 0.430802 0.597979 0
M  V30 11539 H 1115.08 1.59292 1.03566 0
M  V30 11540 H 1113.23 1.65233 3.51611 0
M  V30 11541 H 1114.9 3.97898 2.33398 0
M  V30 11542 H 1113.14 3.77642 2.13469 0
M  V30 11543 H 1113.82 4.05585 3.7444 0
M  V30 11544 H 1116.29 2.13684 3.57041 0
M  V30 11545 H 1115.17 2.42849 4.92255 0
M  V30 11546 H 1115.43 0.788469 4.35012 0
M  V30 11547 N 1114.49 -1.10549 1.12324 0
M  V30 11548 C 1115.72 -1.8627 0.900618 0
M  V30 11549 C 1116.13 -1.80609 -0.550069 0
M  V30 11550 O 1115.49 -1.19396 -1.38025 0
M  V30 11551 C 1115.54 -3.34716 1.36556 0
M  V30 11552 O 1115.26 -3.40279 2.75938 0
M  V30 11553 C 1116.76 -4.27315 1.17969 0
M  V30 11554 H 1113.98 -0.588741 0.321908 0
M  V30 11555 H 1116.52 -1.39759 1.49291 0
M  V30 11556 H 1114.68 -3.78697 0.81652 0
M  V30 11557 H 1115.09 -4.32781 2.96312 0
M  V30 11558 H 1116.57 -5.29677 1.55391 0
M  V30 11559 H 1117.04 -4.39036 0.120158 0
M  V30 11560 H 1117.65 -3.89137 1.71617 0
M  V30 11561 N 1115.97 -0.914965 -1.28321 0
M  V30 11562 C 1117.19 -0.564023 -1.99583 0
M  V30 11563 C 1117.62 0.847821 -1.6791 0
M  V30 11564 O 1116.97 1.56682 -0.912171 0
M  V30 11565 C 1117.02 -0.781368 -3.52033 0
M  V30 11566 O 1116.13 0.159072 -4.12093 0
M  V30 11567 H 1115.47 -0.218565 -0.626997 0
M  V30 11568 H 1118 -1.23074 -1.63444 0
M  V30 11569 H 1118.01 -0.691946 -4.0209 0
M  V30 11570 H 1116.68 -1.81059 -3.7442 0
M  V30 11571 H 1115.26 0.0208145 -3.72894 0
M  V30 11572 N 1117.44 1.42219 -0.679077 0
M  V30 11573 C 1118.67 2.05815 -0.211649 0
M  V30 11574 C 1119.09 1.51037 1.13284 0
M  V30 11575 O 1118.44 0.651894 1.7046 0
M  V30 11576 C 1118.49 3.61218 -0.142663 0
M  V30 11577 O 1118.22 4.13965 -1.43402 0
M  V30 11578 C 1119.72 4.41934 0.347746 0
M  V30 11579 H 1116.94 0.663215 -0.101914 0
M  V30 11580 H 1119.48 1.82282 -0.927017 0
M  V30 11581 H 1117.64 3.83848 0.52342 0
M  V30 11582 H 1118.05 5.07872 -1.31021 0
M  V30 11583 H 1119.52 5.50921 0.344916 0
M  V30 11584 H 1120 4.16832 1.38377 0
M  V30 11585 H 1120.61 4.24332 -0.286751 0
M  V30 11586 N 1118.92 0.422693 1.51826 0
M  V30 11587 C 1120.2 -0.20786 1.94492 0
M  V30 11588 C 1120.58 -1.61414 1.36047 0
M  V30 11589 O 1119.93 -2.21987 0.541657 0
M  V30 11590 C 1120.14 -0.200457 3.48424 0
M  V30 11591 C 1121.48 -0.413199 4.22585 0
M  V30 11592 O 1122.51 -0.27922 3.55104 0
M  V30 11593 O 1121.37 -0.678469 5.42272 0
M  V30 11594 H 1118.46 -0.137851 0.81543 0
M  V30 11595 H 1121.01 0.479617 1.62781 0
M  V30 11596 H 1119.78 0.783263 3.83381 0
M  V30 11597 H 1119.4 -0.931464 3.86535 0
M  V30 11598 N 1120.4 -1.5685 0.153553 0
M  V30 11599 C 1121.31 -2.20664 -0.796528 0
M  V30 11600 C 1122.33 -1.19289 -1.26674 0
M  V30 11601 O 1123.5 -1.51889 -1.32256 0
M  V30 11602 C 1120.57 -2.82088 -2.01561 0
M  V30 11603 C 1119.63 -3.9861 -1.59401 0
M  V30 11604 C 1118.86 -4.57096 -2.75498 0
M  V30 11605 O 1119.08 -4.14462 -3.9189 0
M  V30 11606 O 1118.02 -5.47254 -2.50593 0
M  V30 11607 H 1121.84 -3.02376 -0.283282 0
M  V30 11608 H 1119.43 -1.49218 -0.0737927 0
M  V30 11609 H 1121.31 -3.21103 -2.72893 0
M  V30 11610 H 1119.99 -2.03385 -2.51826 0
M  V30 11611 H 1118.89 -3.64299 -0.850725 0
M  V30 11612 H 1120.23 -4.78853 -1.13845 0
M  V30 11613 N 1121.88 0.120221 -1.57141 0
M  V30 11614 C 1123.11 0.841219 -1.88698 0
M  V30 11615 C 1123.52 1.7401 -0.74277 0
M  V30 11616 O 1122.86 1.81308 0.295497 0
M  V30 11617 C 1122.92 1.72781 -3.15257 0
M  V30 11618 C 1122.58 1.00336 -4.45849 0
M  V30 11619 C 1123.58 0.344734 -5.18756 0
M  V30 11620 C 1121.27 0.984899 -4.9255 0
M  V30 11621 C 1123.26 -0.322664 -6.36583 0
M  V30 11622 C 1120.95 0.313702 -6.10294 0
M  V30 11623 C 1121.95 -0.338926 -6.82159 0
M  V30 11624 O 1121.63 -0.999416 -7.97663 0
M  V30 11625 H 1121.37 0.247195 -0.629182 0
M  V30 11626 H 1123.92 0.109542 -2.05108 0
M  V30 11627 H 1122.15 2.5011 -2.94927 0
M  V30 11628 H 1123.84 2.32313 -3.32845 0
M  V30 11629 H 1124.6 0.350623 -4.83731 0
M  V30 11630 H 1120.48 1.4823 -4.36519 0
M  V30 11631 H 1124.03 -0.832643 -6.92613 0
M  V30 11632 H 1119.92 0.305572 -6.44776 0
M  V30 11633 H 1120.69 -0.90377 -8.13495 0
M  V30 11634 N 1123.36 1.52689 0.390367 0
M  V30 11635 C 1124.29 1.80338 1.48325 0
M  V30 11636 C 1125.27 0.655338 1.56969 0
M  V30 11637 O 1126.45 0.902792 1.7194 0
M  V30 11638 C 1123.58 1.97101 2.85952 0
M  V30 11639 C 1122.54 3.12783 2.92148 0
M  V30 11640 C 1121.86 3.14798 4.32211 0
M  V30 11641 C 1123.16 4.5188 2.61919 0
M  V30 11642 H 1124.86 2.71857 1.25437 0
M  V30 11643 H 1122.4 1.30813 0.601995 0
M  V30 11644 H 1124.36 2.15027 3.62411 0
M  V30 11645 H 1123.08 1.02271 3.10174 0
M  V30 11646 H 1121.74 2.94638 2.18137 0
M  V30 11647 H 1121.39 2.17653 4.53471 0
M  V30 11648 H 1121.09 3.92507 4.37278 0
M  V30 11649 H 1122.61 3.34877 5.10578 0
M  V30 11650 H 1124.02 4.70134 3.28096 0
M  V30 11651 H 1122.42 5.31647 2.78337 0
M  V30 11652 H 1123.49 4.58689 1.57266 0
M  V30 11653 N 1124.83 -0.648732 1.43629 0
M  V30 11654 C 1126.11 -1.4062 1.35961 0
M  V30 11655 C 1126.49 -2.11098 0.00961023 0
M  V30 11656 O 1125.84 -2.05107 -1.00714 0
M  V30 11657 C 1126.05 -2.38719 2.54586 0
M  V30 11658 C 1127.4 -3.02584 2.97873 0
M  V30 11659 O 1128.42 -2.49046 2.54665 0
M  V30 11660 O 1127.28 -3.99662 3.72736 0
M  V30 11661 H 1124.37 -0.628483 0.53753 0
M  V30 11662 H 1126.92 -0.675263 1.55687 0
M  V30 11663 H 1125.69 -1.85619 3.44472 0
M  V30 11664 H 1125.32 -3.19257 2.36983 0
M  V30 11665 N 1126.31 -1.30234 -0.887518 0
M  V30 11666 C 1127.24 -1.18969 -2.00919 0
M  V30 11667 C 1128.22 -0.080952 -1.69907 0
M  V30 11668 O 1129.41 -0.262546 -1.92417 0
M  V30 11669 C 1126.54 -0.878094 -3.36016 0
M  V30 11670 C 1125.49 -1.94449 -3.81279 0
M  V30 11671 C 1124.82 -1.48594 -5.13638 0
M  V30 11672 C 1126.12 -3.35519 -4.00281 0
M  V30 11673 H 1127.81 -2.12808 -2.10602 0
M  V30 11674 H 1125.36 -1.02454 -1.01189 0
M  V30 11675 H 1127.31 -0.785954 -4.14006 0
M  V30 11676 H 1126.04 0.0959779 -3.26459 0
M  V30 11677 H 1124.69 -2.02622 -3.05516 0
M  V30 11678 H 1124.34 -0.500204 -5.00507 0
M  V30 11679 H 1124.04 -2.19921 -5.44893 0
M  V30 11680 H 1125.57 -1.40754 -5.94156 0
M  V30 11681 H 1126.98 -3.30119 -4.68716 0
M  V30 11682 H 1125.38 -4.0491 -4.42909 0
M  V30 11683 H 1126.45 -3.77597 -3.04218 0
M  V30 11684 N 1127.79 1.09952 -1.12909 0
M  V30 11685 C 1129.02 1.8633 -0.910821 0
M  V30 11686 C 1129.44 1.80335 0.534874 0
M  V30 11687 O 1128.8 1.1769 1.37908 0
M  V30 11688 C 1128.85 3.32462 -1.39648 0
M  V30 11689 O 1127.95 4.08327 -0.578192 0
M  V30 11690 H 1127.29 0.577984 -0.32685 0
M  V30 11691 H 1129.82 1.38883 -1.50242 0
M  V30 11692 H 1129.83 3.83311 -1.39774 0
M  V30 11693 H 1128.51 3.36141 -2.44913 0
M  V30 11694 H 1127.08 3.67291 -0.644347 0
M  V30 11695 N 1129.27 0.921757 1.27833 0
M  V30 11696 C 1130.23 0.420978 2.25301 0
M  V30 11697 C 1131.23 -0.457158 1.54165 0
M  V30 11698 O 1132.42 -0.259079 1.72263 0
M  V30 11699 C 1129.55 -0.395501 3.38598 0
M  V30 11700 H 1130.75 1.28206 2.71115 0
M  V30 11701 H 1128.3 0.701893 1.39654 0
M  V30 11702 H 1129.03 -1.27565 2.98157 0
M  V30 11703 H 1128.82 0.234029 3.91401 0
M  V30 11704 H 1130.31 -0.736444 4.11055 0
M  V30 11705 N 1130.75 -1.41857 0.686609 0
M  V30 11706 C 1132.16 -1.84439 0.289662 0
M  V30 11707 C 1132.51 -1.57462 -1.17047 0
M  V30 11708 O 1131.63 -1.04046 -1.89745 0
M  V30 11709 C 1132.23 -3.34802 0.518948 0
M  V30 11710 C 1130.79 -3.75988 0.176007 0
M  V30 11711 C 1129.93 -2.65339 0.805632 0
M  V30 11712 H 1132.89 -1.31536 0.88792 0
M  V30 11713 H 1132.91 -3.79833 -0.225209 0
M  V30 11714 H 1132.42 -3.54405 1.58173 0
M  V30 11715 H 1130.52 -3.61989 -0.882865 0
M  V30 11716 H 1130.63 -4.75009 0.624772 0
M  V30 11717 H 1129 -2.53605 0.235966 0
M  V30 11718 H 1129.78 -2.87762 1.8721 0
M  V30 11719 N 1132.22 -0.430739 -1.51599 0
M  V30 11720 C 1133.47 0.137929 -2.0203 0
M  V30 11721 C 1133.8 1.43287 -1.31526 0
M  V30 11722 O 1133.05 1.9121 -0.416814 0
M  V30 11723 C 1133.35 0.410694 -3.55032 0
M  V30 11724 C 1133.02 -0.797634 -4.43789 0
M  V30 11725 C 1131.68 -1.12902 -4.67768 0
M  V30 11726 C 1134.03 -1.60403 -4.95904 0
M  V30 11727 C 1131.36 -2.2676 -5.41107 0
M  V30 11728 C 1133.71 -2.73354 -5.70491 0
M  V30 11729 C 1132.38 -3.06955 -5.92735 0
M  V30 11730 H 1131.65 0.0504718 -0.739279 0
M  V30 11731 H 1134.29 -0.576585 -1.82614 0
M  V30 11732 H 1132.6 1.20703 -3.72744 0
M  V30 11733 H 1134.3 0.864006 -3.91581 0
M  V30 11734 H 1130.89 -0.529397 -4.25318 0
M  V30 11735 H 1135.07 -1.36122 -4.77268 0
M  V30 11736 H 1130.33 -2.53114 -5.56546 0
M  V30 11737 H 1134.5 -3.36213 -6.09864 0
M  V30 11738 H 1132.13 -3.95293 -6.49344 0
M  V30 11739 N 1133.7 1.56767 -0.161869 0
M  V30 11740 C 1134.61 2.21083 0.784814 0
M  V30 11741 C 1135.63 1.19959 1.26039 0
M  V30 11742 O 1136.8 1.52588 1.31449 0
M  V30 11743 C 1133.87 2.83153 2.00063 0
M  V30 11744 C 1132.93 3.9945 1.57285 0
M  V30 11745 C 1132.16 4.5855 2.7307 0
M  V30 11746 O 1132.39 4.16534 3.89686 0
M  V30 11747 O 1131.32 5.48575 2.47688 0
M  V30 11748 H 1135.15 3.02522 0.267243 0
M  V30 11749 H 1132.73 1.49255 0.0658783 0
M  V30 11750 H 1134.61 3.22546 2.71186 0
M  V30 11751 H 1133.29 2.04718 2.50744 0
M  V30 11752 H 1132.2 3.64745 0.831393 0
M  V30 11753 H 1133.53 4.7945 1.11304 0
M  V30 11754 N 1135.18 -0.111886 1.57202 0
M  V30 11755 C 1136.11 -1.16274 1.97517 0
M  V30 11756 C 1137.13 -1.37259 0.875425 0
M  V30 11757 O 1138.31 -1.36208 1.15367 0
M  V30 11758 C 1135.41 -2.52145 2.26442 0
M  V30 11759 C 1134.59 -2.51666 3.57747 0
M  V30 11760 C 1133.65 -3.69337 3.74802 0
M  V30 11761 O 1132.67 -3.52596 4.46839 0
M  V30 11762 N 1133.87 -4.88177 3.14108 0
M  V30 11763 H 1136.64 -0.819747 2.88271 0
M  V30 11764 H 1134.2 -0.301076 1.59076 0
M  V30 11765 H 1136.19 -3.29437 2.3506 0
M  V30 11766 H 1134.76 -2.78599 1.41779 0
M  V30 11767 H 1133.98 -1.60038 3.60252 0
M  V30 11768 H 1135.27 -2.48408 4.44039 0
M  V30 11769 H 1134.67 -5.04682 2.55564 0
M  V30 11770 H 1133.23 -5.6312 3.28237 0
M  V30 11771 N 1136.66 -1.52894 -0.382264 0
M  V30 11772 C 1137.89 -1.71902 -1.146 0
M  V30 11773 C 1138.3 -0.44017 -1.84009 0
M  V30 11774 O 1137.64 0.595616 -1.73776 0
M  V30 11775 C 1137.7 -2.81785 -2.23244 0
M  V30 11776 C 1137.37 -4.22684 -1.73745 0
M  V30 11777 C 1138.36 -5.05611 -1.21054 0
M  V30 11778 C 1136.05 -4.69031 -1.79763 0
M  V30 11779 C 1138.04 -6.32968 -0.750368 0
M  V30 11780 C 1135.73 -5.96371 -1.33358 0
M  V30 11781 C 1136.73 -6.7817 -0.810832 0
M  V30 11782 O 1136.41 -8.03122 -0.353577 0
M  V30 11783 H 1136.15 -0.578767 -0.349292 0
M  V30 11784 H 1138.7 -2.00359 -0.452246 0
M  V30 11785 H 1136.93 -2.48764 -2.96063 0
M  V30 11786 H 1138.62 -2.89131 -2.84883 0
M  V30 11787 H 1139.39 -4.70984 -1.15755 0
M  V30 11788 H 1135.26 -4.05447 -2.19394 0
M  V30 11789 H 1138.81 -6.96763 -0.341666 0
M  V30 11790 H 1134.71 -6.30501 -1.38344 0
M  V30 11791 H 1135.47 -8.17124 -0.474439 0
M  V30 11792 N 1138.14 0.641106 -1.43971 0
M  V30 11793 C 1139.36 1.43324 -1.4991 0
M  V30 11794 C 1139.79 1.87705 -0.121908 0
M  V30 11795 O 1139.15 1.58127 0.886875 0
M  V30 11796 C 1139.19 2.63637 -2.46025 0
M  V30 11797 O 1138.3 3.63123 -1.95488 0
M  V30 11798 H 1137.64 0.429252 -0.506595 0
M  V30 11799 H 1140.17 0.783427 -1.89007 0
M  V30 11800 H 1140.18 3.11304 -2.63731 0
M  V30 11801 H 1138.85 2.30678 -3.46064 0
M  V30 11802 H 1137.43 3.22332 -1.87501 0
M  V30 11803 N 1139.62 1.30703 0.880598 0
M  V30 11804 C 1141.03 1.17818 1.4483 0
M  V30 11805 C 1141.38 -0.219456 1.94969 0
M  V30 11806 O 1140.5 -1.11646 1.85375 0
M  V30 11807 C 1141.1 2.13275 2.63247 0
M  V30 11808 C 1139.66 2.04356 3.16094 0
M  V30 11809 C 1138.8 2.03108 1.88792 0
M  V30 11810 H 1141.75 1.42909 0.690125 0
M  V30 11811 H 1141.78 1.71615 3.39601 0
M  V30 11812 H 1141.29 3.14988 2.26725 0
M  V30 11813 H 1139.39 1.058 3.57263 0
M  V30 11814 H 1139.5 2.92953 3.79098 0
M  V30 11815 H 1137.87 1.47971 2.07308 0
M  V30 11816 H 1138.65 3.06558 1.54521 0
M  V30 11817 N 1141.09 -1.09351 1.1349 0
M  V30 11818 C 1142.34 -1.81185 0.89535 0
M  V30 11819 C 1142.66 -1.86173 -0.580048 0
M  V30 11820 O 1141.93 -1.34784 -1.42162 0
M  V30 11821 H 1140.51 -0.671011 0.328257 0
M  V30 11822 H 1143.17 -1.32255 1.43159 0
M  V30 11823 H 1142.27 -2.84339 1.28676 0
M  V30 11824 N 1142.57 -0.928524 -1.27343 0
M  V30 11825 C 1143.82 -0.568267 -1.93946 0
M  V30 11826 C 1144.14 0.893501 -1.73325 0
M  V30 11827 O 1143.41 1.63344 -1.08147 0
M  V30 11828 H 1141.99 -0.207173 -0.717696 0
M  V30 11829 H 1144.65 -1.1811 -1.55036 0
M  V30 11830 H 1143.75 -0.775246 -3.02318 0
M  V30 11831 N 1144.05 1.41491 -0.694123 0
M  V30 11832 C 1144.98 2.29197 0.0112742 0
M  V30 11833 C 1145.99 1.44708 0.745877 0
M  V30 11834 O 1147.18 1.68227 0.596821 0
M  V30 11835 C 1144.28 3.22547 1.04004 0
M  V30 11836 C 1143.46 4.35787 0.375347 0
M  V30 11837 C 1142.52 5.09722 1.30652 0
M  V30 11838 O 1141.54 5.63558 0.799459 0
M  V30 11839 N 1142.74 5.1705 2.63893 0
M  V30 11840 H 1145.51 2.90377 -0.741705 0
M  V30 11841 H 1143.07 1.52628 -0.540039 0
M  V30 11842 H 1145.06 3.68878 1.66468 0
M  V30 11843 H 1143.63 2.62685 1.69456 0
M  V30 11844 H 1142.85 3.91857 -0.429145 0
M  V30 11845 H 1144.14 5.08726 -0.0869041 0
M  V30 11846 H 1143.54 4.74756 3.07609 0
M  V30 11847 H 1142.09 5.66962 3.21555 0
M  V30 11848 N 1145.53 0.438773 1.51369 0
M  V30 11849 C 1146.8 -0.18722 1.94702 0
M  V30 11850 C 1147.18 -1.59962 1.37752 0
M  V30 11851 O 1146.53 -2.214 0.565171 0
M  V30 11852 C 1146.74 -0.163491 3.48617 0
M  V30 11853 C 1148.09 -0.368355 4.22999 0
M  V30 11854 O 1149.11 -0.241541 3.5538 0
M  V30 11855 O 1147.97 -0.620916 5.42961 0
M  V30 11856 H 1145.07 -0.129194 0.816846 0
M  V30 11857 H 1147.61 0.496855 1.62263 0
M  V30 11858 H 1146.39 0.823882 3.82528 0
M  V30 11859 H 1146.01 -0.890414 3.87501 0
M  V30 11860 N 1147.01 -1.56678 0.170181 0
M  V30 11861 C 1148.23 -2.01223 -0.481362 0
M  V30 11862 C 1148.65 -1.05039 -1.56883 0
M  V30 11863 O 1148.01 -0.0510751 -1.82429 0
M  V30 11864 C 1148.06 -3.45588 -1.06073 0
M  V30 11865 O 1147.78 -4.38097 -0.0166754 0
M  V30 11866 C 1149.28 -4.05527 -1.79061 0
M  V30 11867 H 1146.5 -0.659574 -0.1233 0
M  V30 11868 H 1149.04 -2.02689 0.271576 0
M  V30 11869 H 1147.2 -3.449 -1.76417 0
M  V30 11870 H 1147.61 -5.22615 -0.444276 0
M  V30 11871 H 1149.09 -5.08467 -2.1486 0
M  V30 11872 H 1149.56 -3.47554 -2.68519 0
M  V30 11873 H 1150.17 -4.09914 -1.13361 0
M  V30 11874 N 1148.48 0.103547 -1.57259 0
M  V30 11875 C 1149.89 0.659006 -1.74683 0
M  V30 11876 C 1150.25 1.79542 -0.791142 0
M  V30 11877 O 1149.37 2.16376 0.0323585 0
M  V30 11878 C 1149.97 1.20222 -3.16752 0
M  V30 11879 C 1148.52 1.70382 -3.35629 0
M  V30 11880 C 1147.67 0.609886 -2.7051 0
M  V30 11881 H 1150.62 -0.122474 -1.58227 0
M  V30 11882 H 1150.64 2.07169 -3.19157 0
M  V30 11883 H 1150.16 0.374901 -3.86285 0
M  V30 11884 H 1148.26 2.55542 -2.71162 0
M  V30 11885 H 1148.37 1.80263 -4.43894 0
M  V30 11886 H 1146.73 1.04728 -2.32173 0
M  V30 11887 H 1147.52 -0.206713 -3.42677 0
M  V30 11888 N 1149.96 1.53094 0.37415 0
M  V30 11889 C 1151.19 1.73061 1.143 0
M  V30 11890 C 1151.61 0.454611 1.82524 0
M  V30 11891 O 1150.97 -0.590743 1.71406 0
M  V30 11892 C 1151.02 2.89086 2.15549 0
M  V30 11893 O 1150.12 2.57096 3.22452 0
M  V30 11894 H 1149.46 0.575009 0.332055 0
M  V30 11895 H 1151.99 1.99946 0.433897 0
M  V30 11896 H 1152 3.15007 2.59296 0
M  V30 11897 H 1150.68 3.81647 1.65283 0
M  V30 11898 H 1149.25 2.41965 2.83738 0
M  V30 11899 N 1151.44 -0.633461 1.44309 0
M  V30 11900 C 1152.66 -1.42527 1.50668 0
M  V30 11901 C 1153.09 -1.87637 0.131861 0
M  V30 11902 O 1152.45 -1.58595 -0.878477 0
M  V30 11903 C 1152.5 -2.62328 2.47419 0
M  V30 11904 O 1151.6 -3.62081 1.97411 0
M  V30 11905 H 1150.94 -0.426559 0.508864 0
M  V30 11906 H 1153.47 -0.773392 1.8942 0
M  V30 11907 H 1153.48 -3.09901 2.65378 0
M  V30 11908 H 1152.16 -2.2884 3.47283 0
M  V30 11909 H 1150.73 -3.21333 1.89208 0
M  V30 11910 N 1152.92 -1.31168 -0.873655 0
M  V30 11911 C 1154.14 -1.23728 -1.66452 0
M  V30 11912 C 1154.57 0.194869 -1.87088 0
M  V30 11913 O 1153.93 1.1397 -1.40998 0
M  V30 11914 C 1153.97 -1.98285 -3.0119 0
M  V30 11915 O 1153.08 -1.31767 -3.90783 0
M  V30 11916 H 1152.42 -0.427362 -0.508191 0
M  V30 11917 H 1154.95 -1.73176 -1.08955 0
M  V30 11918 H 1154.96 -2.0774 -3.51153 0
M  V30 11919 H 1153.63 -3.02437 -2.8549 0
M  V30 11920 H 1152.21 -1.3074 -3.4923 0
M  V30 11921 N 1154.4 1.08748 -1.14068 0
M  V30 11922 C 1155.62 1.85353 -0.930532 0
M  V30 11923 C 1156.05 1.80892 0.515717 0
M  V30 11924 O 1155.4 1.19146 1.36652 0
M  V30 11925 C 1155.45 3.30962 -1.43167 0
M  V30 11926 O 1154.56 4.0769 -0.621468 0
M  V30 11927 H 1153.9 0.574485 -0.332962 0
M  V30 11928 H 1156.43 1.37282 -1.51707 0
M  V30 11929 H 1156.44 3.81807 -1.43832 0
M  V30 11930 H 1155.11 3.33524 -2.48464 0
M  V30 11931 H 1153.69 3.66587 -0.683267 0
M  V30 11932 N 1155.87 0.935264 1.26849 0
M  V30 11933 C 1157.1 0.595704 1.98661 0
M  V30 11934 C 1157.52 -0.821001 1.69237 0
M  V30 11935 O 1156.88 -1.55211 0.936982 0
M  V30 11936 C 1156.93 0.837275 3.50745 0
M  V30 11937 O 1156.03 -0.0934914 4.12294 0
M  V30 11938 H 1155.38 0.228512 0.623441 0
M  V30 11939 H 1157.91 1.25658 1.61466 0
M  V30 11940 H 1157.92 0.755827 4.00938 0
M  V30 11941 H 1156.59 1.86993 3.71492 0
M  V30 11942 H 1155.17 0.0385124 3.7288 0
M  V30 11943 N 1157.35 -1.41121 0.701616 0
M  V30 11944 C 1158.6 -2.00733 0.234682 0
M  V30 11945 C 1158.92 -1.55869 -1.17174 0
M  V30 11946 O 1158.19 -0.791965 -1.79178 0
M  V30 11947 H 1156.77 -0.742288 0.0837745 0
M  V30 11948 H 1159.43 -1.7266 0.904127 0
M  V30 11949 H 1158.53 -3.11041 0.256831 0
M  V30 11950 N 1158.83 -0.446794 -1.51134 0
M  V30 11951 C 1160.11 0.176892 -1.94798 0
M  V30 11952 C 1160.49 1.59229 -1.38598 0
M  V30 11953 O 1159.84 2.21097 -0.576905 0
M  V30 11954 C 1160.05 0.145 -3.48699 0
M  V30 11955 C 1161.39 0.345917 -4.23189 0
M  V30 11956 O 1162.42 0.222691 -3.55503 0
M  V30 11957 O 1161.28 0.592112 -5.43283 0
M  V30 11958 H 1158.37 0.12486 -0.81752 0
M  V30 11959 H 1160.92 -0.505453 -1.61998 0
M  V30 11960 H 1159.69 -0.844156 -3.82086 0
M  V30 11961 H 1159.31 0.869851 -3.87968 0
M  V30 11962 N 1160.31 1.56586 -0.178487 0
M  V30 11963 C 1161.59 1.88798 0.511356 0
M  V30 11964 C 1161.97 1.08949 1.80813 0
M  V30 11965 O 1161.31 0.185551 2.27745 0
M  V30 11966 C 1161.52 3.40927 0.746298 0
M  V30 11967 C 1162.87 4.10816 1.0731 0
M  V30 11968 O 1163.9 3.46285 0.834592 0
M  V30 11969 O 1162.75 5.24837 1.52343 0
M  V30 11970 H 1159.85 0.783574 0.264463 0
M  V30 11971 H 1162.39 1.68301 -0.21746 0
M  V30 11972 H 1161.17 3.9093 -0.17015 0
M  V30 11973 H 1160.79 3.67059 1.52817 0
M  V30 11974 N 1161.79 -0.095206 1.57312 0
M  V30 11975 C 1163.01 -0.81614 1.90667 0
M  V30 11976 C 1163.44 -1.71494 0.772746 0
M  V30 11977 O 1162.79 -1.79192 -0.275682 0
M  V30 11978 C 1162.84 -1.60555 3.22885 0
M  V30 11979 O 1161.95 -2.71448 3.10467 0
M  V30 11980 H 1161.29 -0.224217 0.624998 0
M  V30 11981 H 1163.82 -0.070464 2.04479 0
M  V30 11982 H 1163.83 -1.98979 3.5619 0
M  V30 11983 H 1162.5 -0.945918 4.05 0
M  V30 11984 H 1161.08 -2.36053 2.88675 0
M  V30 11985 N 1163.26 -1.53291 -0.366026 0
M  V30 11986 C 1164.51 -1.69702 -1.11036 0
M  V30 11987 C 1164.84 -0.44728 -1.88979 0
M  V30 11988 O 1164.12 0.55542 -1.86401 0
M  V30 11989 C 1164.4 -2.94661 -2.06995 0
M  V30 11990 C 1164.25 -4.29791 -1.32663 0
M  V30 11991 C 1165.57 -3.15219 -3.07123 0
M  V30 11992 H 1162.69 -0.617525 -0.402284 0
M  V30 11993 H 1165.33 -1.85929 -0.391223 0
M  V30 11994 H 1163.48 -2.80958 -2.68318 0
M  V30 11995 H 1165.16 -4.55305 -0.741266 0
M  V30 11996 H 1163.4 -4.29223 -0.628484 0
M  V30 11997 H 1164.07 -5.13359 -2.02896 0
M  V30 11998 H 1166.55 -3.28105 -2.55903 0
M  V30 11999 H 1165.42 -4.04088 -3.71489 0
M  V30 12000 H 1165.68 -2.30479 -3.77269 0
M  V30 12001 N 1164.74 0.6258 -1.44643 0
M  V30 12002 C 1165.99 1.38525 -1.47706 0
M  V30 12003 C 1166.32 1.94179 -0.111703 0
M  V30 12004 O 1165.57 1.74432 0.887237 0
M  V30 12005 C 1165.87 2.56466 -2.48917 0
M  V30 12006 C 1165.54 2.19069 -3.94106 0
M  V30 12007 C 1164.2 2.08583 -4.33643 0
M  V30 12008 C 1166.55 1.89608 -4.85488 0
M  V30 12009 C 1163.88 1.66831 -5.6248 0
M  V30 12010 C 1166.23 1.49347 -6.14718 0
M  V30 12011 C 1164.9 1.37406 -6.53204 0
M  V30 12012 H 1164.17 0.506899 -0.540494 0
M  V30 12013 H 1166.81 0.709128 -1.77887 0
M  V30 12014 H 1165.12 3.29335 -2.12239 0
M  V30 12015 H 1166.81 3.14695 -2.48532 0
M  V30 12016 H 1163.4 2.28151 -3.62829 0
M  V30 12017 H 1167.59 1.96616 -4.55693 0
M  V30 12018 H 1162.84 1.56195 -5.91112 0
M  V30 12019 H 1167.02 1.2559 -6.84982 0
M  V30 12020 H 1164.65 1.04826 -7.52938 0
M  V30 12021 N 1166.22 1.31629 0.866686 0
M  V30 12022 C 1167.18 1.1951 1.95576 0
M  V30 12023 C 1168.18 0.121319 1.60342 0
M  V30 12024 O 1169.37 0.370832 1.70207 0
M  V30 12025 C 1166.51 0.835201 3.30511 0
M  V30 12026 H 1167.7 2.16285 2.07752 0
M  V30 12027 H 1165.25 1.15288 1.05539 0
M  V30 12028 H 1165.99 -0.131245 3.24034 0
M  V30 12029 H 1165.77 1.61142 3.57457 0
M  V30 12030 H 1167.26 0.774393 4.10357 0
M  V30 12031 N 1167.7 -1.08142 1.14644 0
M  V30 12032 C 1168.65 -2.13338 0.804412 0
M  V30 12033 C 1169.63 -1.59554 -0.207664 0
M  V30 12034 O 1170.83 -1.76997 -0.00960233 0
M  V30 12035 C 1167.95 -3.42102 0.286579 0
M  V30 12036 C 1167.04 -4.0276 1.32834 0
M  V30 12037 N 1167.43 -4.37789 2.53327 0
M  V30 12038 C 1165.73 -4.30129 1.17919 0
M  V30 12039 C 1166.43 -4.85748 3.20037 0
M  V30 12040 N 1165.41 -4.84021 2.47436 0
M  V30 12041 H 1169.21 -2.38243 1.72097 0
M  V30 12042 H 1166.72 -1.25501 1.0307 0
M  V30 12043 H 1168.72 -4.16894 0.0232417 0
M  V30 12044 H 1167.38 -3.18645 -0.624142 0
M  V30 12045 H 1168.39 -4.28731 2.90534 0
M  V30 12046 H 1165.07 -4.16212 0.327713 0
M  V30 12047 H 1166.46 -5.22208 4.22786 0
M  V30 12048 N 1169.18 -0.941978 -1.26351 0
M  V30 12049 C 1170.45 -0.507822 -1.88893 0
M  V30 12050 C 1170.83 1.0146 -1.85119 0
M  V30 12051 O 1170.18 1.87495 -1.30606 0
M  V30 12052 C 1170.39 -1.07007 -3.3219 0
M  V30 12053 C 1171.74 -1.13922 -4.09032 0
M  V30 12054 O 1172.76 -1.02072 -3.41262 0
M  V30 12055 O 1171.62 -1.32362 -5.30229 0
M  V30 12056 H 1168.72 -0.165621 -0.810246 0
M  V30 12057 H 1171.26 -1.03459 -1.34515 0
M  V30 12058 H 1170.04 -2.11366 -3.29302 0
M  V30 12059 H 1169.66 -0.525797 -3.94108 0
M  V30 12060 N 1170.66 1.40747 -0.709091 0
M  V30 12061 C 1171.59 2.33404 -0.0669763 0
M  V30 12062 C 1172.57 1.52546 0.752582 0
M  V30 12063 O 1173.75 1.81036 0.702823 0
M  V30 12064 C 1170.88 3.36476 0.860285 0
M  V30 12065 C 1169.84 4.27748 0.146828 0
M  V30 12066 C 1169.16 5.21304 1.18937 0
M  V30 12067 C 1170.46 5.12734 -0.995064 0
M  V30 12068 H 1172.16 2.87349 -0.840888 0
M  V30 12069 H 1169.7 1.38163 -0.405817 0
M  V30 12070 H 1171.65 4.00231 1.31883 0
M  V30 12071 H 1170.38 2.80912 1.66602 0
M  V30 12072 H 1169.04 3.65437 -0.291826 0
M  V30 12073 H 1168.69 4.62048 1.98798 0
M  V30 12074 H 1168.39 5.8321 0.716917 0
M  V30 12075 H 1169.91 5.87936 1.64815 0
M  V30 12076 H 1171.32 5.69979 -0.61618 0
M  V30 12077 H 1169.72 5.83649 -1.39547 0
M  V30 12078 H 1170.79 4.49097 -1.82867 0
M  V30 12079 N 1172.13 0.454803 1.50895 0
M  V30 12080 C 1173.06 -0.337982 2.31041 0
M  V30 12081 C 1174.04 -1.00523 1.37219 0
M  V30 12082 O 1175.23 -1.00553 1.66141 0
M  V30 12083 C 1172.36 -1.42964 3.1651 0
M  V30 12084 C 1171.31 -0.884907 4.18752 0
M  V30 12085 C 1170.64 -2.07363 4.92854 0
M  V30 12086 C 1171.94 0.0926716 5.22218 0
M  V30 12087 H 1173.63 0.33089 2.97566 0
M  V30 12088 H 1171.18 0.160577 1.43102 0
M  V30 12089 H 1173.13 -1.9916 3.71367 0
M  V30 12090 H 1171.86 -2.12705 2.47839 0
M  V30 12091 H 1170.52 -0.345031 3.64973 0
M  V30 12092 H 1170.16 -2.75764 4.2067 0
M  V30 12093 H 1169.86 -1.71545 5.62002 0
M  V30 12094 H 1171.39 -2.6408 5.5054 0
M  V30 12095 H 1172.8 -0.379568 5.72042 0
M  V30 12096 H 1171.2 0.3643 5.98993 0
M  V30 12097 H 1172.27 1.02383 4.73968 0
M  V30 12098 N 1173.61 -1.56489 0.186789 0
M  V30 12099 C 1175.02 -1.83809 -0.327265 0
M  V30 12100 C 1175.37 -1.10718 -1.61976 0
M  V30 12101 O 1174.5 -0.36525 -2.13295 0
M  V30 12102 C 1175.09 -3.33435 -0.600551 0
M  V30 12103 C 1173.65 -3.61195 -1.059 0
M  V30 12104 C 1172.8 -2.77108 -0.103131 0
M  V30 12105 H 1175.75 -1.53292 0.410747 0
M  V30 12106 H 1175.77 -3.51754 -1.45084 0
M  V30 12107 H 1175.28 -3.86605 0.340315 0
M  V30 12108 H 1173.38 -3.13451 -2.01443 0
M  V30 12109 H 1173.5 -4.69435 -0.957458 0
M  V30 12110 H 1171.86 -2.47448 -0.603449 0
M  V30 12111 H 1172.64 -3.33065 0.832031 0
M  V30 12112 N 1175.09 0.086862 -1.5736 0
M  V30 12113 C 1176.5 0.640442 -1.75372 0
M  V30 12114 C 1176.85 1.78693 -0.81014 0
M  V30 12115 O 1175.98 2.16398 0.00940712 0
M  V30 12116 C 1176.57 1.16856 -3.1801 0
M  V30 12117 C 1175.13 1.66813 -3.37417 0
M  V30 12118 C 1174.28 0.58116 -2.71142 0
M  V30 12119 H 1177.23 -0.139249 -1.58088 0
M  V30 12120 H 1177.25 2.03772 -3.21337 0
M  V30 12121 H 1176.76 0.333909 -3.86661 0
M  V30 12122 H 1174.86 2.52652 -2.73858 0
M  V30 12123 H 1174.98 1.75545 -4.45781 0
M  V30 12124 H 1173.34 1.0226 -2.3327 0
M  V30 12125 H 1174.12 -0.243047 -3.42439 0
M  V30 12126 N 1176.57 1.53483 0.357892 0
M  V30 12127 C 1177.53 1.79782 1.42166 0
M  V30 12128 C 1178.53 0.668441 1.46248 0
M  V30 12129 O 1179.72 0.936677 1.46874 0
M  V30 12130 C 1176.85 1.92686 2.8122 0
M  V30 12131 H 1178.05 2.74794 1.20117 0
M  V30 12132 H 1175.6 1.44677 0.591468 0
M  V30 12133 H 1176.33 0.997669 3.08573 0
M  V30 12134 H 1176.12 2.74837 2.79655 0
M  V30 12135 H 1177.61 2.14599 3.58242 0
M  V30 12136 N 1178.05 -0.61812 1.44973 0
M  V30 12137 C 1179.46 -1.19994 1.43033 0
M  V30 12138 C 1179.81 -1.95607 0.152422 0
M  V30 12139 O 1178.93 -2.03114 -0.746571 0
M  V30 12140 C 1179.53 -2.18269 2.59122 0
M  V30 12141 C 1178.09 -2.7185 2.60336 0
M  V30 12142 C 1177.23 -1.4707 2.35086 0
M  V30 12143 H 1180.18 -0.408034 1.53365 0
M  V30 12144 H 1180.21 -3.01113 2.32619 0
M  V30 12145 H 1179.72 -1.63208 3.52115 0
M  V30 12146 H 1177.82 -3.30878 1.7132 0
M  V30 12147 H 1177.93 -3.17001 3.59231 0
M  V30 12148 H 1176.3 -1.75658 1.84435 0
M  V30 12149 H 1177.08 -0.938928 3.30211 0
M  V30 12150 N 1179.52 -1.32087 -0.859693 0
M  V30 12151 C 1180.93 -1.20107 -1.42938 0
M  V30 12152 C 1181.29 0.188411 -1.95293 0
M  V30 12153 O 1180.41 1.08683 -1.87128 0
M  V30 12154 C 1181.01 -2.17436 -2.59821 0
M  V30 12155 C 1179.56 -2.09359 -3.12803 0
M  V30 12156 C 1178.71 -2.06086 -1.85537 0
M  V30 12157 H 1181.66 -1.43989 -0.667302 0
M  V30 12158 H 1181.68 -1.76996 -3.36828 0
M  V30 12159 H 1181.2 -3.18555 -2.21685 0
M  V30 12160 H 1179.3 -1.1147 -3.55535 0
M  V30 12161 H 1179.41 -2.98947 -3.74389 0
M  V30 12162 H 1177.77 -1.51251 -2.04928 0
M  V30 12163 H 1178.56 -3.08978 -1.49625 0
M  V30 12164 N 1181 1.07532 -1.15215 0
M  V30 12165 C 1182.23 1.84356 -0.950139 0
M  V30 12166 C 1182.65 1.81429 0.496502 0
M  V30 12167 O 1182.01 1.20589 1.35381 0
M  V30 12168 C 1182.06 3.29425 -1.46669 0
M  V30 12169 O 1181.16 4.07008 -0.664674 0
M  V30 12170 H 1180.5 0.570921 -0.339036 0
M  V30 12171 H 1183.03 1.35665 -1.53154 0
M  V30 12172 H 1183.04 3.8026 -1.47873 0
M  V30 12173 H 1181.72 3.3087 -2.51988 0
M  V30 12174 H 1180.29 3.65841 -0.72211 0
M  V30 12175 N 1182.48 0.948665 1.2585 0
M  V30 12176 C 1183.71 0.616741 1.98018 0
M  V30 12177 C 1184.13 -0.803005 1.70098 0
M  V30 12178 O 1183.49 -1.54208 0.953392 0
M  V30 12179 C 1183.54 0.874429 3.49837 0
M  V30 12180 O 1182.64 -0.0497568 4.1237 0
M  V30 12181 H 1181.98 0.235112 0.620982 0
M  V30 12182 H 1184.51 1.27364 1.60124 0
M  V30 12183 H 1184.52 0.798309 4.00114 0
M  V30 12184 H 1183.2 1.90922 3.69488 0
M  V30 12185 H 1181.77 0.0780591 3.72818 0
M  V30 12186 N 1183.96 -1.40369 0.716545 0
M  V30 12187 C 1185.21 -2.00473 0.255959 0
M  V30 12188 C 1185.53 -1.57104 -1.15514 0
M  V30 12189 O 1184.8 -0.810925 -1.78328 0
M  V30 12190 H 1183.38 -0.741357 0.0916427 0
M  V30 12191 H 1186.04 -1.71692 0.922389 0
M  V30 12192 H 1185.14 -3.10752 0.289806 0
M  V30 12193 N 1185.44 -0.462799 -1.50652 0
M  V30 12194 C 1186.68 0.0948568 -2.01877 0
M  V30 12195 C 1187.01 1.4096 -1.34741 0
M  V30 12196 O 1186.28 1.89671 -0.49006 0
M  V30 12197 H 1184.86 0.0380453 -0.746031 0
M  V30 12198 H 1187.52 -0.611327 -1.85064 0
M  V30 12199 H 1186.61 0.252378 -3.11078 0
M  V30 12200 N 1186.91 1.56388 -0.195085 0
M  V30 12201 C 1188.14 2.02406 0.452399 0
M  V30 12202 C 1188.56 1.07432 1.54402 0
M  V30 12203 O 1187.92 0.0578246 1.81208 0
M  V30 12204 C 1187.97 3.46864 0.985778 0
M  V30 12205 O 1187.07 3.55007 2.09867 0
M  V30 12206 H 1186.42 0.65553 0.105719 0
M  V30 12207 H 1188.95 2.02299 -0.30596 0
M  V30 12208 H 1188.96 3.86655 1.30238 0
M  V30 12209 H 1187.63 4.15481 0.186662 0
M  V30 12210 H 1186.21 3.2709 1.79071 0
M  V30 12211 N 1188.39 -0.0785156 1.57404 0
M  V30 12212 C 1189.81 -0.433143 1.5361 0
M  V30 12213 C 1190.01 -1.79564 0.914283 0
M  V30 12214 O 1189.06 -2.47215 0.513899 0
M  V30 12215 C 1190.38 -0.380387 2.98284 0
M  V30 12216 C 1191.93 -0.461056 3.09586 0
M  V30 12217 C 1192.4 -0.438276 4.55898 0
M  V30 12218 N 1193.89 -0.498548 4.60509 0
M  V30 12219 C 1194.63 -0.503028 5.71189 0
M  V30 12220 N 1194.12 -0.462724 6.91253 0
M  V30 12221 N 1195.92 -0.549083 5.59412 0
M  V30 12222 H 1188.07 0.813724 1.96195 0
M  V30 12223 H 1190.33 0.304644 0.897717 0
M  V30 12224 H 1190.04 0.553932 3.4731 0
M  V30 12225 H 1189.91 -1.19313 3.57833 0
M  V30 12226 H 1192.3 -1.3858 2.60537 0
M  V30 12227 H 1192.38 0.380138 2.5296 0
M  V30 12228 H 1192.02 0.482588 5.05602 0
M  V30 12229 H 1191.95 -1.29691 5.1038 0
M  V30 12230 H 1194.44 -0.534219 3.74105 0
M  V30 12231 H 1194.76 -0.469883 7.7137 0
M  V30 12232 H 1193.1 -0.429515 6.93672 0
M  V30 12233 H 1196.29 -0.578215 4.64515 0
M  V30 12234 H 1196.46 -0.549105 6.45669 0
M  V30 12235 N 1189.87 -1.5367 -0.349747 0
M  V30 12236 C 1191.1 -1.74547 -1.11089 0
M  V30 12237 C 1191.51 -0.481741 -1.82551 0
M  V30 12238 O 1190.87 0.546272 -1.74132 0
M  V30 12239 C 1190.92 -2.92148 -2.12913 0
M  V30 12240 O 1190.64 -4.13633 -1.44358 0
M  V30 12241 C 1192.14 -3.25027 -3.01451 0
M  V30 12242 H 1189.36 -0.583376 -0.331532 0
M  V30 12243 H 1191.91 -2.00473 -0.403841 0
M  V30 12244 H 1190.06 -2.68572 -2.79192 0
M  V30 12245 H 1190.48 -4.79601 -2.12329 0
M  V30 12246 H 1191.95 -4.10679 -3.68845 0
M  V30 12247 H 1192.43 -2.41064 -3.67131 0
M  V30 12248 H 1193.03 -3.50586 -2.40768 0
M  V30 12249 O 1191.39 0.495726 -1.53704 0
M  V30 12250 H 1192.08 1.15052 -1.55829 0
M  V30 END ATOM
M  V30 BEGIN BOND
M  V30 END BOND
M  V30 END CTAB
M  END
$$$$
