drugbank_target|P51003 Poly(A) polymerase alpha (DB01860; DB02153; DB03896)
 OpenBabel12092120543D

  0  0  0     0  0            999 V3000
M  V30 BEGIN CTAB
M  V30 COUNTS 11733 11855 0 0 0
M  V30 BEGIN ATOM
M  V30 1 H -0.908 1.98254 -0.117106 0
M  V30 2 N 0 1.576 0 0
M  V30 3 C 0.933 2.03868 1.02534 0
M  V30 4 C 1.911 0.928543 1.3348 0
M  V30 5 O 3.095 1.19667 1.45644 0
M  V30 6 C 0.222 2.43627 2.35294 0
M  V30 7 C -0.732 3.65373 2.2001 0
M  V30 8 S 0.101 5.13292 1.52614 0
M  V30 9 C 1.257 5.56322 2.86805 0
M  V30 10 H 1.49 2.90518 0.631377 0
M  V30 11 H -0.977 1.52953 0.210867 0
M  V30 12 H 0.981 2.67203 3.11629 0
M  V30 13 H -0.358 1.57376 2.7183 0
M  V30 14 H -1.165 3.90944 3.18086 0
M  V30 15 H -1.563 3.418 1.51819 0
M  V30 16 H 0.729 5.58782 3.83104 0
M  V30 17 H 1.672 6.56266 2.65933 0
M  V30 18 H 2.08 4.83886 2.90714 0
M  V30 19 N 1.4781 -0.272755 1.55222 0
M  V30 20 C 2.8891 -0.84378 1.66545 0
M  V30 21 C 3.2401 -1.87035 0.592641 0
M  V30 22 O 2.3651 -2.14761 -0.265818 0
M  V30 23 C 2.9601 -1.53723 3.01918 0
M  V30 24 C 1.5191 -2.05628 3.15268 0
M  V30 25 C 0.6661 -0.898424 2.62343 0
M  V30 26 H 3.6171 -0.0490998 1.58624 0
M  V30 27 H 3.6381 -2.40421 2.94921 0
M  V30 28 H 3.1501 -0.78983 3.79978 0
M  V30 29 H 1.2511 -2.83329 2.41983 0
M  V30 30 H 1.3641 -2.27142 4.21833 0
M  V30 31 H -0.2719 -1.29186 2.19506 0
M  V30 32 H 0.5111 -0.164528 3.42906 0
M  V30 33 N 2.9562 -1.48159 -0.537278 0
M  V30 34 C 4.2032 -1.55804 -1.29349 0
M  V30 35 C 4.5312 -0.228802 -1.9315 0
M  V30 36 O 3.7862 0.780242 -1.79473 0
M  V30 37 C 4.0852 -2.63956 -2.40961 0
M  V30 38 C 3.7512 -4.0662 -1.94861 0
M  V30 39 C 2.4132 -4.45452 -1.82006 0
M  V30 40 C 4.7652 -4.96055 -1.59933 0
M  V30 41 C 2.0932 -5.71531 -1.32547 0
M  V30 42 C 4.4452 -6.22617 -1.11939 0
M  V30 43 C 3.1092 -6.60312 -0.976951 0
M  V30 44 H 2.3792 -0.570129 -0.473322 0
M  V30 45 H 5.0262 -1.81845 -0.600372 0
M  V30 46 H 3.3312 -2.31747 -3.15912 0
M  V30 47 H 5.0282 -2.67089 -2.99107 0
M  V30 48 H 1.6182 -3.75949 -2.05815 0
M  V30 49 H 5.8022 -4.66738 -1.68728 0
M  V30 50 H 1.0582 -5.99468 -1.202 0
M  V30 51 H 5.2322 -6.91318 -0.839811 0
M  V30 52 H 2.8592 -7.57895 -0.591501 0
M  V30 53 N 4.4343 0.785586 -1.36625 0
M  V30 54 C 5.8453 1.36101 -1.27803 0
M  V30 55 C 6.1963 1.96035 0.0804875 0
M  V30 56 O 5.3213 1.92834 0.982042 0
M  V30 57 C 5.9163 2.47442 -2.31426 0
M  V30 58 C 4.4753 3.00789 -2.26281 0
M  V30 59 C 3.6223 1.73896 -2.15999 0
M  V30 60 H 6.5733 0.586928 -1.47448 0
M  V30 61 H 6.5943 3.2656 -1.95291 0
M  V30 62 H 6.1063 2.03791 -3.30289 0
M  V30 63 H 4.2073 3.48851 -1.30896 0
M  V30 64 H 4.3203 3.57343 -3.19128 0
M  V30 65 H 2.6843 1.9628 -1.62316 0
M  V30 66 H 3.4673 1.32368 -3.16755 0
M  V30 67 N 5.9124 1.20967 1.01018 0
M  V30 68 C 7.1584 1.02526 1.74975 0
M  V30 69 C 7.4914 -0.4408 1.89131 0
M  V30 70 O 6.7664 -1.32718 1.42184 0
M  V30 71 C 7.0494 1.71699 3.1653 0
M  V30 72 C 6.9024 3.25791 3.10129 0
M  V30 73 C 8.2214 1.45531 4.15342 0
M  V30 74 H 5.3404 0.373863 0.635134 0
M  V30 75 H 7.9824 1.49071 1.17805 0
M  V30 76 H 6.1324 1.32128 3.65341 0
M  V30 77 H 7.8044 3.74697 2.69072 0
M  V30 78 H 6.0474 3.56363 2.47362 0
M  V30 79 H 6.7184 3.69353 4.10222 0
M  V30 80 H 9.1944 1.79872 3.75213 0
M  V30 81 H 8.0704 1.96453 5.1254 0
M  V30 82 H 8.3314 0.384237 4.40427 0
M  V30 83 N 7.3905 -1.2043 1.01659 0
M  V30 84 C 8.6185 -1.93777 0.725132 0
M  V30 85 C 9.0335 -1.74772 -0.714166 0
M  V30 86 O 8.3905 -1.06169 -1.4844 0
M  V30 87 C 8.4415 -3.45876 1.05129 0
M  V30 88 O 8.1625 -3.6426 2.43406 0
M  V30 89 C 9.6635 -4.36368 0.780891 0
M  V30 90 H 6.8835 -0.615901 0.266284 0
M  V30 91 H 9.4275 -1.52922 1.35776 0
M  V30 92 H 7.5825 -3.8461 0.464065 0
M  V30 93 H 7.9965 -4.58246 2.55169 0
M  V30 94 H 9.4705 -5.41743 1.05918 0
M  V30 95 H 9.9475 -4.38275 -0.284937 0
M  V30 96 H 10.5535 -4.03296 1.35027 0
M  V30 97 N 8.8686 -0.792821 -1.36206 0
M  V30 98 C 10.0966 -0.378825 -2.03402 0
M  V30 99 C 10.5116 1.00586 -1.59774 0
M  V30 100 O 9.8686 1.64574 -0.788764 0
M  V30 101 C 9.9196 -0.43683 -3.58851 0
M  V30 102 O 9.6406 -1.76691 -4.00889 0
M  V30 103 C 11.1416 -0.0138943 -4.43298 0
M  V30 104 H 8.3616 -0.155673 -0.652692 0
M  V30 105 H 10.9056 -1.07261 -1.74113 0
M  V30 106 H 9.0606 0.208575 -3.86838 0
M  V30 107 H 9.4746 -1.72011 -4.95492 0
M  V30 108 H 10.9486 -0.105615 -5.51899 0
M  V30 109 H 11.4256 1.03915 -4.2673 0
M  V30 110 H 12.0316 -0.63192 -4.20579 0
M  V30 111 N 10.3467 1.47872 -0.545128 0
M  V30 112 C 11.2787 2.27869 0.246621 0
M  V30 113 C 12.2917 1.36282 0.890561 0
M  V30 114 O 13.4807 1.61207 0.766449 0
M  V30 115 C 10.5807 3.10159 1.36582 0
M  V30 116 C 9.7537 4.29627 0.820954 0
M  V30 117 C 8.8127 4.93607 1.82314 0
M  V30 118 O 7.8387 5.52366 1.37406 0
M  V30 119 N 9.0407 4.87211 3.15603 0
M  V30 120 H 11.8057 2.96459 -0.439539 0
M  V30 121 H 9.3667 1.57367 -0.380421 0
M  V30 122 H 11.3587 3.49829 2.03474 0
M  V30 123 H 9.9287 2.43891 1.9554 0
M  V30 124 H 9.1487 3.94192 -0.0244032 0
M  V30 125 H 10.4367 5.06928 0.436063 0
M  V30 126 H 9.8347 4.40651 3.54744 0
M  V30 127 H 8.3917 5.30937 3.78087 0
M  V30 128 N 11.8248 0.280983 1.55075 0
M  V30 129 C 13.0728 -0.333455 1.9933 0
M  V30 130 C 13.3938 -1.55937 1.17085 0
M  V30 131 O 12.6638 -1.94143 0.261805 0
M  V30 132 H 11.2438 -0.126197 0.736263 0
M  V30 133 H 13.9058 0.387678 1.91005 0
M  V30 134 H 13.0018 -0.619292 3.05894 0
M  V30 135 N 13.3029 -1.57598 0.00835791 0
M  V30 136 C 14.5279 -1.95617 -0.689103 0
M  V30 137 C 14.9529 -0.883753 -1.66046 0
M  V30 138 O 14.3109 0.157352 -1.80616 0
M  V30 139 C 14.3589 -3.32736 -1.38994 0
M  V30 140 O 13.4629 -3.27631 -2.50463 0
M  V30 141 H 12.8039 -0.638379 -0.182668 0
M  V30 142 H 15.3339 -2.045 0.064036 0
M  V30 143 H 15.3439 -3.68494 -1.75147 0
M  V30 144 H 14.0189 -4.1034 -0.677778 0
M  V30 145 H 12.5959 -3.03561 -2.16576 0
M  V30 146 N 14.781 0.264519 -1.55364 0
M  V30 147 C 15.713 1.34965 -1.85248 0
M  V30 148 C 16.726 1.45136 -0.737525 0
M  V30 149 O 17.915 1.46801 -1.01547 0
M  V30 150 C 15.015 2.73008 -2.00797 0
M  V30 151 C 14.188 2.85324 -3.31525 0
M  V30 152 C 13.247 4.04097 -3.37034 0
M  V30 153 O 12.273 3.94455 -4.10358 0
M  V30 154 N 13.475 5.16458 -2.65049 0
M  V30 155 H 16.24 1.09672 -2.78913 0
M  V30 156 H 13.801 0.454635 -1.55386 0
M  V30 157 H 15.793 3.50772 -2.01844 0
M  V30 158 H 14.363 2.91087 -1.1396 0
M  V30 159 H 13.583 1.94377 -3.42945 0
M  V30 160 H 14.871 2.9049 -4.17724 0
M  V30 161 H 14.269 5.27181 -2.05175 0
M  V30 162 H 12.826 5.92422 -2.71809 0
M  V30 163 N 16.2591 1.48442 0.529413 0
M  V30 164 C 17.1911 1.59095 1.64989 0
M  V30 165 C 18.2041 0.475212 1.5571 0
M  V30 166 O 19.3931 0.746081 1.6216 0
M  V30 167 C 16.4931 1.50518 3.0364 0
M  V30 168 C 15.6661 2.77142 3.38395 0
M  V30 169 C 14.7251 2.62012 4.56329 0
M  V30 170 O 13.7511 3.35898 4.59522 0
M  V30 171 N 14.9531 1.71667 5.54536 0
M  V30 172 H 17.7181 2.55723 1.56287 0
M  V30 173 H 15.2791 1.45173 0.716697 0
M  V30 174 H 17.2711 1.38091 3.80412 0
M  V30 175 H 15.8411 0.618627 3.06418 0
M  V30 176 H 15.0611 3.0413 2.50796 0
M  V30 177 H 16.3491 3.61146 3.58401 0
M  V30 178 H 15.7471 1.10841 5.54735 0
M  V30 179 H 14.3041 1.65178 6.30523 0
M  V30 180 N 17.7372 -0.778329 1.37039 0
M  V30 181 C 18.9652 -1.56734 1.35063 0
M  V30 182 C 19.3802 -1.88686 -0.0655597 0
M  V30 183 O 18.7372 -1.5096 -1.02554 0
M  V30 184 C 18.7882 -2.88163 2.18276 0
M  V30 185 O 18.5092 -2.57583 3.54376 0
M  V30 186 C 20.0102 -3.82422 2.24206 0
M  V30 187 H 17.2302 -0.485778 0.462883 0
M  V30 188 H 19.7742 -0.965185 1.8029 0
M  V30 189 H 17.9292 -3.44818 1.76576 0
M  V30 190 H 18.3432 -3.41699 3.97922 0
M  V30 191 H 19.8172 -4.71667 2.86765 0
M  V30 192 H 20.2942 -4.21078 1.24861 0
M  V30 193 H 20.9002 -3.31697 2.6619 0
M  V30 194 N 19.2153 -1.21501 -1.00376 0
M  V30 195 C 20.1473 -0.933174 -2.09343 0
M  V30 196 C 21.1603 0.0840896 -1.62583 0
M  V30 197 O 22.3493 -0.148563 -1.77881 0
M  V30 198 C 19.4493 -0.379869 -3.36764 0
M  V30 199 C 18.6223 -1.45176 -4.12605 0
M  V30 200 C 17.6813 -0.907476 -5.18316 0
M  V30 201 O 16.7073 -1.5912 -5.46507 0
M  V30 202 N 17.9093 0.276649 -5.7984 0
M  V30 203 H 20.6743 -1.87124 -2.34104 0
M  V30 204 H 18.2353 -1.12043 -1.16867 0
M  V30 205 H 20.2273 -0.00131488 -4.047 0
M  V30 206 H 18.7973 0.463048 -3.09151 0
M  V30 207 H 18.0173 -2.00411 -3.39454 0
M  V30 208 H 19.3053 -2.17328 -4.6005 0
M  V30 209 H 18.7033 0.849147 -5.59291 0
M  V30 210 H 17.2603 0.596702 -6.49063 0
M  V30 211 N 20.6934 1.19889 -1.02296 0
M  V30 212 C 22.1044 1.71124 -0.746568 0
M  V30 213 C 22.4554 1.81939 0.734335 0
M  V30 214 O 21.5804 1.48639 1.57275 0
M  V30 215 C 22.1754 3.10804 -1.34857 0
M  V30 216 C 20.7344 3.59323 -1.1209 0
M  V30 217 C 19.8814 2.3635 -1.45031 0
M  V30 218 H 22.8324 1.04813 -1.19163 0
M  V30 219 H 22.8534 3.73186 -0.742437 0
M  V30 220 H 22.3654 3.029 -2.42638 0
M  V30 221 H 20.4664 3.7255 -0.0610337 0
M  V30 222 H 20.5794 4.4378 -1.80544 0
M  V30 223 H 18.9434 2.39399 -0.869487 0
M  V30 224 H 19.7264 2.31081 -2.53883 0
M  V30 225 N 22.1715 0.800033 1.35784 0
M  V30 226 C 23.5825 0.439142 1.81462 0
M  V30 227 C 23.9335 -1.03813 1.66485 0
M  V30 228 O 23.0585 -1.80626 1.19177 0
M  V30 229 C 23.6535 0.790314 3.29453 0
M  V30 230 C 22.2125 0.482111 3.733 0
M  V30 231 C 21.3595 1.01938 2.57883 0
M  V30 232 H 24.3105 0.992254 1.23855 0
M  V30 233 H 24.3315 0.0853677 3.80404 0
M  V30 234 H 23.8435 1.86554 3.40322 0
M  V30 235 H 21.9445 -0.584652 3.67984 0
M  V30 236 H 22.0575 1.01015 4.6833 0
M  V30 237 H 20.4215 0.442043 2.50835 0
M  V30 238 H 21.2045 2.10059 2.71533 0
M  V30 239 N 23.6496 -1.47581 0.552962 0
M  V30 240 C 24.5816 -2.27997 -0.234533 0
M  V30 241 C 25.5946 -1.36753 -0.883321 0
M  V30 242 O 26.7836 -1.61612 -0.757889 0
M  V30 243 C 23.8836 -3.10879 -1.34935 0
M  V30 244 C 23.0566 -4.30056 -0.798158 0
M  V30 245 C 22.1156 -4.94567 -1.79694 0
M  V30 246 O 21.1416 -5.53087 -1.34474 0
M  V30 247 N 22.3436 -4.88878 -3.13015 0
M  V30 248 H 25.1086 -2.96222 0.455255 0
M  V30 249 H 22.6696 -1.57163 0.388761 0
M  V30 250 H 24.6616 -3.50903 -2.01616 0
M  V30 251 H 23.2316 -2.44924 -1.94244 0
M  V30 252 H 22.4516 -3.94174 0.0453079 0
M  V30 253 H 23.7396 -5.07152 -0.409173 0
M  V30 254 H 23.1376 -4.42526 -3.52402 0
M  V30 255 H 21.6946 -5.32934 -3.75266 0
M  V30 256 N 25.1277 -0.289203 -1.54924 0
M  V30 257 C 26.0747 0.592115 -2.23075 0
M  V30 258 C 27.0447 1.13881 -1.20915 0
M  V30 259 O 28.2297 1.18551 -1.495 0
M  V30 260 C 25.3697 1.76376 -2.96623 0
M  V30 261 C 24.4827 1.24959 -4.13533 0
M  V30 262 C 23.6177 2.38416 -4.74691 0
M  V30 263 C 22.6567 1.84072 -5.83767 0
M  V30 264 N 21.7937 2.91057 -6.38929 0
M  V30 265 H 26.6337 0.00432038 -2.98 0
M  V30 266 H 24.1707 -0.00963529 -1.47097 0
M  V30 267 H 26.1287 2.45268 -3.3749 0
M  V30 268 H 24.7587 2.32337 -2.24097 0
M  V30 269 H 23.8107 0.453307 -3.77689 0
M  V30 270 H 25.1227 0.811662 -4.92152 0
M  V30 271 H 24.2767 3.15276 -5.18349 0
M  V30 272 H 23.0157 2.8553 -3.95378 0
M  V30 273 H 22.0207 1.05697 -5.39545 0
M  V30 274 H 23.2457 1.37877 -6.64956 0
M  V30 275 H 21.1917 3.37526 -5.62505 0
M  V30 276 H 21.1087 2.51724 -7.12861 0
M  V30 277 H 22.3767 3.6785 -6.87246 0
M  V30 278 N 26.6058 1.57591 -0.0167156 0
M  V30 279 C 27.5558 2.05953 0.978137 0
M  V30 280 C 28.5398 0.957532 1.29306 0
M  V30 281 O 29.7318 1.22119 1.28125 0
M  V30 282 C 26.8608 2.58006 2.26468 0
M  V30 283 C 25.9468 3.75113 1.97867 0
M  V30 284 N 26.3378 4.86187 1.39486 0
M  V30 285 C 24.6358 3.83363 2.27924 0
M  V30 286 C 25.3368 5.67502 1.27735 0
M  V30 287 N 24.3128 5.14023 1.76866 0
M  V30 288 H 28.1148 2.89236 0.521522 0
M  V30 289 H 25.6288 1.61301 0.188596 0
M  V30 290 H 27.6258 2.90937 2.98599 0
M  V30 291 H 26.2858 1.76148 2.72767 0
M  V30 292 H 27.2968 5.06695 1.07147 0
M  V30 293 H 23.9738 3.1239 2.76982 0
M  V30 294 H 25.3638 6.66791 0.826978 0
M  V30 295 N 28.0839 -0.256276 1.55502 0
M  V30 296 C 29.3139 -1.00196 1.80677 0
M  V30 297 C 29.7219 -1.79805 0.588797 0
M  V30 298 O 29.0649 -1.78055 -0.451883 0
M  V30 299 C 29.1269 -1.99515 2.99055 0
M  V30 300 C 28.7909 -1.38688 4.35448 0
M  V30 301 C 29.7879 -0.794079 5.138 0
M  V30 302 C 27.4729 -1.40906 4.82132 0
M  V30 303 C 29.4669 -0.231562 6.36979 0
M  V30 304 C 27.1539 -0.842684 6.05262 0
M  V30 305 C 28.1519 -0.254953 6.82524 0
M  V30 306 O 27.8399 0.3027 8.0333 0
M  V30 307 H 27.5719 -0.300919 0.60533 0
M  V30 308 H 30.1259 -0.287307 2.03381 0
M  V30 309 H 28.3559 -2.74785 2.72084 0
M  V30 310 H 30.0449 -2.60349 3.11405 0
M  V30 311 H 30.8109 -0.769519 4.78856 0
M  V30 312 H 26.6899 -1.85591 4.21992 0
M  V30 313 H 30.2339 0.227816 6.97228 0
M  V30 314 H 26.1309 -0.86454 6.39684 0
M  V30 315 H 26.8989 0.193662 8.18271 0
M  V30 316 N 29.562 -1.4872 -0.521534 0
M  V30 317 C 30.81 -1.56857 -1.27437 0
M  V30 318 C 31.131 -0.247982 -1.93417 0
M  V30 319 O 30.401 0.731151 -1.81744 0
M  V30 320 H 28.981 -0.577885 -0.473347 0
M  V30 321 H 31.643 -1.85233 -0.606205 0
M  V30 322 H 30.739 -2.35402 -2.0492 0
M  V30 323 N 31.0401 0.771051 -1.3745 0
M  V30 324 C 32.2891 1.52491 -1.3202 0
M  V30 325 C 32.6021 1.9538 0.0927347 0
M  V30 326 O 33.8081 2.70159 0.269503 0
M  V30 327 C 32.2641 2.75366 -2.31736 0
M  V30 328 C 31.8721 2.39573 -3.78562 0
M  V30 329 C 33.6161 3.53307 -2.35318 0
M  V30 330 C 31.5231 3.58954 -4.70007 0
M  V30 331 H 30.4531 0.572506 -0.490666 0
M  V30 332 H 33.1041 0.844474 -1.62914 0
M  V30 333 H 31.4861 3.45303 -1.93861 0
M  V30 334 H 32.6601 1.77415 -4.25277 0
M  V30 335 H 30.9751 1.74805 -3.77932 0
M  V30 336 H 33.5721 4.42039 -3.00842 0
M  V30 337 H 33.9151 3.93217 -1.36698 0
M  V30 338 H 34.4481 2.90367 -2.71904 0
M  V30 339 H 31.1871 3.24125 -5.69757 0
M  V30 340 H 30.7071 4.20214 -4.27996 0
M  V30 341 H 32.3861 4.25758 -4.87175 0
M  V30 342 N 32.5182 1.22032 0.997298 0
M  V30 343 C 33.7462 1.06841 1.7718 0
M  V30 344 C 34.1612 -0.381325 1.84909 0
M  V30 345 O 33.5182 -1.26437 1.31605 0
M  V30 346 C 33.5692 1.66814 3.20711 0
M  V30 347 O 33.2902 3.06116 3.13408 0
M  V30 348 C 34.7912 1.56838 4.14628 0
M  V30 349 H 32.0112 0.374782 0.556578 0
M  V30 350 H 34.5552 1.61532 1.2541 0
M  V30 351 H 32.7102 1.16196 3.69564 0
M  V30 352 H 33.1242 3.34926 4.0364 0
M  V30 353 H 34.5982 2.03532 5.13107 0
M  V30 354 H 35.0752 0.524155 4.36061 0
M  V30 355 H 35.6812 2.06741 3.7167 0
M  V30 356 N 33.9963 -1.19345 1.0293 0
M  V30 357 C 35.2213 -1.93538 0.745511 0
M  V30 358 C 35.6463 -1.75007 -0.689511 0
M  V30 359 O 35.0043 -1.05265 -1.47611 0
M  V30 360 C 35.0523 -3.43336 1.10239 0
M  V30 361 O 34.1563 -4.11806 0.221289 0
M  V30 362 H 33.4973 -0.604193 0.275404 0
M  V30 363 H 36.0273 -1.5141 1.37609 0
M  V30 364 H 36.0373 -3.94004 1.05947 0
M  V30 365 H 34.7123 -3.56146 2.14786 0
M  V30 366 H 33.2893 -3.715 0.322842 0
M  V30 367 N 35.4744 -0.807222 -1.35358 0
M  V30 368 C 36.8854 -0.44876 -1.81226 0
M  V30 369 C 37.2364 1.02929 -1.67033 0
M  V30 370 O 36.3614 1.79991 -1.20133 0
M  V30 371 C 36.9564 -0.807774 -3.2903 0
M  V30 372 C 35.5154 -0.501901 -3.73039 0
M  V30 373 C 34.6624 -1.03304 -2.57339 0
M  V30 374 H 37.6134 -0.998808 -1.23327 0
M  V30 375 H 37.6344 -0.10554 -3.80354 0
M  V30 376 H 37.1464 -1.88357 -3.39328 0
M  V30 377 H 35.2474 0.565128 -3.68289 0
M  V30 378 H 35.3604 -1.03497 -4.67787 0
M  V30 379 H 33.7244 -0.455339 -2.50597 0
M  V30 380 H 34.5074 -2.11496 -2.70415 0
M  V30 381 N 36.9525 1.47285 -0.560781 0
M  V30 382 C 38.2015 2.01668 -0.035895 0
M  V30 383 C 38.5145 1.44021 1.32353 0
M  V30 384 O 39.7205 1.90088 1.93853 0
M  V30 385 C 38.1765 3.59897 -0.0136659 0
M  V30 386 C 37.7845 4.26536 -1.37006 0
M  V30 387 C 39.5285 4.22017 0.458425 0
M  V30 388 C 37.4355 5.76782 -1.30675 0
M  V30 389 H 36.3655 0.753938 -0.00964879 0
M  V30 390 H 39.0165 1.69243 -0.709166 0
M  V30 391 H 37.3985 3.89301 0.725325 0
M  V30 392 H 38.5725 4.0877 -2.12705 0
M  V30 393 H 36.8875 3.76419 -1.78038 0
M  V30 394 H 39.4845 5.32124 0.524247 0
M  V30 395 H 39.8275 3.89437 1.4712 0
M  V30 396 H 40.3605 3.97159 -0.225818 0
M  V30 397 H 37.0995 6.13988 -2.29564 0
M  V30 398 H 36.6195 5.96875 -0.591622 0
M  V30 399 H 38.2985 6.39063 -1.01033 0
M  V30 400 N 38.4306 0.297415 1.54768 0
M  V30 401 C 39.6556 -0.318435 2.04941 0
M  V30 402 C 40.0806 -1.4701 1.17345 0
M  V30 403 O 39.4386 -1.80436 0.176758 0
M  V30 404 C 39.4866 -0.755749 3.52592 0
M  V30 405 O 38.5906 -1.86088 3.68028 0
M  V30 406 H 37.9316 -0.062421 0.661059 0
M  V30 407 H 40.4616 0.438215 1.99852 0
M  V30 408 H 40.4716 -1.04552 3.94376 0
M  V30 409 H 39.1466 0.0867233 4.1581 0
M  V30 410 H 37.7236 -1.57193 3.38149 0
M  V30 411 N 39.9087 -1.5758 0.0250728 0
M  V30 412 C 40.8387 -2.13007 -0.956575 0
M  V30 413 C 41.8197 -1.0452 -1.342 0
M  V30 414 O 43.0047 -1.32332 -1.42133 0
M  V30 415 C 40.1347 -2.65386 -2.24026 0
M  V30 416 C 39.0887 -3.78623 -1.99571 0
M  V30 417 C 38.4147 -4.17414 -3.3417 0
M  V30 418 C 39.7147 -5.04867 -1.33814 0
M  V30 419 H 41.4087 -2.9528 -0.494991 0
M  V30 420 H 38.9547 -1.42042 -0.236651 0
M  V30 421 H 40.9077 -3.02794 -2.93076 0
M  V30 422 H 39.6317 -1.80268 -2.72343 0
M  V30 423 H 38.2907 -3.41646 -1.32941 0
M  V30 424 H 37.9387 -3.29284 -3.80238 0
M  V30 425 H 37.6387 -4.93719 -3.18615 0
M  V30 426 H 39.1627 -4.57402 -4.04495 0
M  V30 427 H 40.5767 -5.39888 -1.92857 0
M  V30 428 H 38.9737 -5.86144 -1.28669 0
M  V30 429 H 40.0437 -4.83904 -0.310561 0
M  V30 430 N 41.3868 0.248026 -1.55636 0
M  V30 431 C 42.3498 1.29044 -1.89421 0
M  V30 432 C 43.3498 1.41134 -0.770581 0
M  V30 433 O 44.5398 1.39854 -1.03858 0
M  V30 434 C 41.6718 2.66831 -2.12165 0
M  V30 435 H 42.8648 1.00305 -2.82629 0
M  V30 436 H 40.4178 0.487265 -1.48511 0
M  V30 437 H 41.1528 3.00711 -1.21422 0
M  V30 438 H 40.9378 2.59438 -2.93997 0
M  V30 439 H 42.4278 3.42103 -2.3949 0
M  V30 440 N 42.8649 1.48995 0.513639 0
M  V30 441 C 43.8279 1.64229 1.59879 0
M  V30 442 C 44.8279 0.514696 1.5234 0
M  V30 443 O 46.0179 0.78087 1.55718 0
M  V30 444 C 43.1499 1.62783 2.99524 0
M  V30 445 H 44.3429 2.61004 1.47705 0
M  V30 446 H 41.8959 1.37837 0.736936 0
M  V30 447 H 42.6309 0.675461 3.17188 0
M  V30 448 H 42.4159 2.4466 3.06404 0
M  V30 449 H 43.9059 1.76669 3.78388 0
M  V30 450 N 44.343 -0.763751 1.37857 0
M  V30 451 C 45.754 -1.3405 1.29952 0
M  V30 452 C 46.105 -1.96138 -0.0492898 0
M  V30 453 O 45.23 -1.94372 -0.951239 0
M  V30 454 C 45.825 -2.43729 2.35333 0
M  V30 455 C 44.384 -2.97151 2.31037 0
M  V30 456 C 43.531 -1.70438 2.18738 0
M  V30 457 H 46.482 -0.563396 1.48363 0
M  V30 458 H 46.503 -3.23412 2.00462 0
M  V30 459 H 46.015 -1.9851 3.33489 0
M  V30 460 H 44.116 -3.46724 1.3643 0
M  V30 461 H 44.229 -3.52221 3.24772 0
M  V30 462 H 42.593 -1.93673 1.65418 0
M  V30 463 H 43.376 -1.27312 3.18821 0
M  V30 464 N 45.8211 -1.22559 -0.990812 0
M  V30 465 C 46.7681 -0.997519 -2.0813 0
M  V30 466 C 47.7381 0.0814702 -1.659 0
M  V30 467 O 48.9231 -0.0685424 -1.90677 0
M  V30 468 C 46.0631 -0.583615 -3.40129 0
M  V30 469 C 45.1761 -1.7336 -3.9569 0
M  V30 470 C 44.3111 -1.26748 -5.15857 0
M  V30 471 C 43.3501 -2.38888 -5.63559 0
M  V30 472 N 42.4871 -1.93308 -6.74964 0
M  V30 473 H 47.3271 -1.93099 -2.26973 0
M  V30 474 H 44.8641 -0.962114 -1.11273 0
M  V30 475 H 46.8221 -0.324801 -4.15934 0
M  V30 476 H 45.4521 0.312845 -3.2128 0
M  V30 477 H 44.5041 -2.10669 -3.16738 0
M  V30 478 H 45.8161 -2.57704 -4.27071 0
M  V30 479 H 44.9701 -0.966173 -5.98957 0
M  V30 480 H 43.7091 -0.394272 -4.86104 0
M  V30 481 H 42.7141 -2.69805 -4.79046 0
M  V30 482 H 43.9391 -3.26728 -5.95336 0
M  V30 483 H 41.8851 -1.08352 -6.4699 0
M  V30 484 H 41.8021 -2.71217 -7.05675 0
M  V30 485 H 43.0701 -1.66252 -7.61564 0
M  V30 486 N 47.2992 1.18797 -1.03562 0
M  V30 487 C 48.2092 2.25913 -0.632505 0
M  V30 488 C 49.2252 1.70668 0.338882 0
M  V30 489 O 50.4012 2.00453 0.195076 0
M  V30 490 C 47.4662 3.467 0.00350942 0
M  V30 491 C 46.5272 4.17098 -1.01624 0
M  V30 492 C 45.7602 5.32119 -0.410478 0
M  V30 493 O 45.9832 5.64976 0.784725 0
M  V30 494 O 44.9172 5.9107 -1.13667 0
M  V30 495 H 48.7432 2.62648 -1.52478 0
M  V30 496 H 46.3282 1.25781 -0.806195 0
M  V30 497 H 48.2102 4.19878 0.35781 0
M  V30 498 H 46.8852 3.11798 0.869686 0
M  V30 499 H 45.7922 3.4601 -1.42224 0
M  V30 500 H 47.1252 4.55987 -1.85301 0
M  V30 501 N 48.7773 0.814389 1.34928 0
M  V30 502 C 50.0053 0.411136 2.02774 0
M  V30 503 C 50.4203 -0.980316 1.61354 0
M  V30 504 O 49.7773 -1.63299 0.814847 0
M  V30 505 C 49.8283 0.493865 3.58111 0
M  V30 506 O 49.5493 1.83047 3.98027 0
M  V30 507 C 51.0503 0.0844174 4.4322 0
M  V30 508 H 48.2703 0.166037 0.650133 0
M  V30 509 H 50.8143 1.10018 1.72384 0
M  V30 510 H 48.9693 -0.147006 3.87121 0
M  V30 511 H 49.3833 1.79872 4.92693 0
M  V30 512 H 50.8573 0.193404 5.51661 0
M  V30 513 H 51.3343 -0.97113 4.28329 0
M  V30 514 H 51.9403 0.69875 4.19521 0
M  V30 515 N 50.2554 -1.46986 0.568584 0
M  V30 516 C 51.5324 -1.95592 -0.0174074 0
M  V30 517 C 51.9124 -1.51124 -1.47393 0
M  V30 518 O 51.2604 -0.755329 -2.15655 0
M  V30 519 C 51.4704 -3.48719 0.139913 0
M  V30 520 C 52.8184 -4.246 0.000426376 0
M  V30 521 O 53.8424 -3.56135 0.0680316 0
M  V30 522 O 52.7014 -5.46302 -0.146988 0
M  V30 523 H 49.7954 -0.82498 -0.0577599 0
M  V30 524 H 52.3414 -1.57335 0.635909 0
M  V30 525 H 51.1134 -3.73927 1.15301 0
M  V30 526 H 50.7364 -3.93771 -0.550491 0
M  V30 527 N 51.7335 -0.305618 -1.54608 0
M  V30 528 C 52.9735 0.303114 -2.0214 0
M  V30 529 C 53.3375 1.50737 -1.18921 0
M  V30 530 O 54.5385 2.18778 -1.56172 0
M  V30 531 C 52.8095 0.646332 -3.51507 0
M  V30 532 S 54.3685 1.23727 -4.20995 0
M  V30 533 H 51.1865 0.0927643 -0.704923 0
M  V30 534 H 53.7885 -0.434566 -1.90609 0
M  V30 535 H 52.4925 -0.238541 -4.09706 0
M  V30 536 H 52.0235 1.41468 -3.67084 0
M  V30 537 H 54.0385 2.52489 -4.27158 0
M  V30 538 N 53.2116 1.57565 -0.0334293 0
M  V30 539 C 54.4576 1.92262 0.645226 0
M  V30 540 C 54.7906 0.910543 1.71531 0
M  V30 541 O 54.0656 -0.066099 1.94388 0
M  V30 542 C 54.3486 3.37422 1.2577 0
M  V30 543 C 54.2016 4.49369 0.196891 0
M  V30 544 C 55.5206 3.82628 2.17449 0
M  V30 545 H 52.6396 0.699171 0.233085 0
M  V30 546 H 55.2816 1.89779 -0.0915694 0
M  V30 547 H 53.4316 3.39669 1.88566 0
M  V30 548 H 55.1036 4.59254 -0.433962 0
M  V30 549 H 53.3466 4.31168 -0.477137 0
M  V30 550 H 54.0176 5.47978 0.665124 0
M  V30 551 H 56.4936 3.82145 1.64634 0
M  V30 552 H 55.3696 4.84883 2.57254 0
M  V30 553 H 55.6306 3.18376 3.0674 0
M  V30 554 N 54.6897 -0.239769 1.55765 0
M  V30 555 C 55.6197 -1.30052 1.9393 0
M  V30 556 C 56.6007 -1.49839 0.805132 0
M  V30 557 O 57.7857 -1.62328 1.06599 0
M  V30 558 C 54.9157 -2.65391 2.2402 0
M  V30 559 C 53.8697 -2.60289 3.39755 0
M  V30 560 C 53.1957 -3.99489 3.55405 0
M  V30 561 C 54.4957 -2.16654 4.75246 0
M  V30 562 H 56.1897 -0.983573 2.82783 0
M  V30 563 H 53.7357 -0.471701 1.36055 0
M  V30 564 H 55.6887 -3.3974 2.49308 0
M  V30 565 H 54.4127 -2.98736 1.32 0
M  V30 566 H 53.0717 -1.88398 3.14487 0
M  V30 567 H 52.7197 -4.30112 2.60793 0
M  V30 568 H 52.4197 -3.96962 4.33238 0
M  V30 569 H 53.9437 -4.75528 3.83022 0
M  V30 570 H 55.3577 -2.80737 4.99859 0
M  V30 571 H 53.7547 -2.25223 5.56232 0
M  V30 572 H 54.8247 -1.11835 4.71827 0
M  V30 573 N 56.1678 -1.49265 -0.50573 0
M  V30 574 C 57.3958 -1.62215 -1.28429 0
M  V30 575 C 57.8108 -0.291697 -1.86533 0
M  V30 576 O 57.1678 0.722233 -1.67601 0
M  V30 577 C 57.2188 -2.68735 -2.41793 0
M  V30 578 O 56.9398 -3.96619 -1.86078 0
M  V30 579 C 58.4408 -2.92346 -3.3324 0
M  V30 580 H 55.6608 -0.546239 -0.389697 0
M  V30 581 H 58.2048 -1.95265 -0.607609 0
M  V30 582 H 56.3598 -2.38476 -3.053 0
M  V30 583 H 56.7738 -4.55256 -2.60465 0
M  V30 584 H 58.2478 -3.70623 -4.09075 0
M  V30 585 H 58.7248 -2.02081 -3.89948 0
M  V30 586 H 59.3308 -3.24003 -2.75503 0
M  V30 587 N 57.6459 0.756429 -1.3826 0
M  V30 588 C 58.5779 1.87971 -1.31147 0
M  V30 589 C 59.5909 1.61248 -0.224239 0
M  V30 590 O 60.7799 1.71881 -0.481581 0
M  V30 591 C 57.8799 3.23545 -1.00857 0
M  V30 592 C 57.0529 3.77794 -2.20432 0
M  V30 593 C 56.1119 4.91877 -1.86931 0
M  V30 594 O 55.1379 5.06659 -2.59395 0
M  V30 595 N 56.3399 5.74643 -0.822568 0
M  V30 596 H 59.1049 1.94585 -2.2794 0
M  V30 597 H 56.6659 0.936234 -1.32084 0
M  V30 598 H 58.6579 3.97403 -0.765021 0
M  V30 599 H 57.2279 3.12335 -0.128687 0
M  V30 600 H 56.4479 2.95534 -2.6087 0
M  V30 601 H 57.7359 4.10771 -3.00241 0
M  V30 602 H 57.1339 5.65266 -0.221575 0
M  V30 603 H 55.6909 6.48661 -0.638899 0
M  V30 604 N 59.124 1.23083 0.984299 0
M  V30 605 C 60.071 1.00854 2.07598 0
M  V30 606 C 61.041 -0.0726709 1.65941 0
M  V30 607 O 62.226 0.0786535 1.90638 0
M  V30 608 C 59.366 0.601645 3.39815 0
M  V30 609 C 58.479 1.75456 3.94765 0
M  V30 610 C 57.614 1.29482 5.15177 0
M  V30 611 C 56.653 2.41873 5.62284 0
M  V30 612 N 55.79 1.96885 6.73929 0
M  V30 613 H 60.63 1.943 2.25946 0
M  V30 614 H 58.167 0.968001 1.10762 0
M  V30 615 H 60.125 0.346854 4.15756 0
M  V30 616 H 58.755 -0.295803 3.21442 0
M  V30 617 H 57.807 2.12346 3.15616 0
M  V30 618 H 59.119 2.59965 4.25699 0
M  V30 619 H 58.273 0.997923 5.98437 0
M  V30 620 H 57.012 0.420046 4.85888 0
M  V30 621 H 56.017 2.72342 4.77608 0
M  V30 622 H 57.242 3.29881 5.93595 0
M  V30 623 H 55.188 1.11782 6.46406 0
M  V30 624 H 55.105 2.74956 7.04227 0
M  V30 625 H 56.373 1.70289 7.60672 0
M  V30 626 N 60.6021 -1.18246 1.0419 0
M  V30 627 C 61.5321 -2.24127 0.654914 0
M  V30 628 C 62.5131 -1.66617 -0.342451 0
M  V30 629 O 63.6981 -1.92924 -0.222277 0
M  V30 630 C 60.8281 -3.47295 0.0183757 0
M  V30 631 C 59.7821 -4.17563 0.939414 0
M  V30 632 C 59.1081 -5.34438 0.167286 0
M  V30 633 C 60.4081 -4.70917 2.25908 0
M  V30 634 H 62.1021 -2.56753 1.54007 0
M  V30 635 H 59.6481 -1.23414 0.74195 0
M  V30 636 H 61.6011 -4.20572 -0.264082 0
M  V30 637 H 60.3251 -3.13907 -0.901664 0
M  V30 638 H 58.9841 -3.46186 1.20628 0
M  V30 639 H 58.6321 -4.97298 -0.7552 0
M  V30 640 H 58.3321 -5.82388 0.780901 0
M  V30 641 H 59.8561 -6.10504 -0.108125 0
M  V30 642 H 61.2701 -5.35882 2.03724 0
M  V30 643 H 59.6671 -5.29406 2.82577 0
M  V30 644 H 60.7371 -3.88272 2.9047 0
M  V30 645 N 62.0802 -0.821533 -1.34494 0
M  V30 646 C 63.3292 -0.405355 -1.97585 0
M  V30 647 C 63.6422 1.03677 -1.65863 0
M  V30 648 O 64.8482 1.55679 -2.22433 0
M  V30 649 C 63.3042 -0.673861 -3.53535 0
M  V30 650 C 62.9122 -2.12951 -3.94152 0
M  V30 651 C 64.6562 -0.32378 -4.23263 0
M  V30 652 C 62.5632 -2.34298 -5.43009 0
M  V30 653 H 61.4932 -0.147836 -0.739365 0
M  V30 654 H 64.1442 -1.00769 -1.53355 0
M  V30 655 H 62.5262 -0.00137554 -3.96 0
M  V30 656 H 63.7002 -2.84104 -3.62797 0
M  V30 657 H 62.0152 -2.44089 -3.37356 0
M  V30 658 H 64.6122 -0.461126 -5.32708 0
M  V30 659 H 64.9552 0.731586 -4.09821 0
M  V30 660 H 65.4882 -0.950786 -3.8627 0
M  V30 661 H 62.2272 -3.38335 -5.61435 0
M  V30 662 H 61.7472 -1.67687 -5.75883 0
M  V30 663 H 63.4262 -2.16588 -6.09671 0
M  V30 664 N 63.5583 1.46682 -0.576371 0
M  V30 665 C 64.4683 2.34032 0.163141 0
M  V30 666 C 65.4843 1.49367 0.892501 0
M  V30 667 O 66.6603 1.82252 0.857106 0
M  V30 668 C 63.7253 3.26435 1.16795 0
M  V30 669 C 62.7863 4.26998 0.443944 0
M  V30 670 C 62.0193 5.14986 1.40088 0
M  V30 671 O 62.2423 5.05785 2.637 0
M  V30 672 O 61.1763 5.94906 0.914917 0
M  V30 673 H 65.0023 2.98607 -0.55388 0
M  V30 674 H 62.5873 1.45554 -0.336821 0
M  V30 675 H 64.4693 3.83459 1.74748 0
M  V30 676 H 63.1443 2.64465 1.86655 0
M  V30 677 H 62.0513 3.7368 -0.177271 0
M  V30 678 H 63.3843 4.91736 -0.213566 0
M  V30 679 N 65.0364 0.313813 1.54444 0
M  V30 680 C 66.2644 -0.293918 2.04802 0
M  V30 681 C 66.6794 -1.46537 1.19047 0
M  V30 682 O 66.0364 -1.81182 0.218939 0
M  V30 683 C 66.0874 -0.737806 3.53891 0
M  V30 684 O 65.8084 0.387038 4.36387 0
M  V30 685 C 67.3094 -1.40936 4.203 0
M  V30 686 H 64.5294 -0.0620057 0.668129 0
M  V30 687 H 67.0734 0.457169 1.99324 0
M  V30 688 H 65.2284 -1.43889 3.59687 0
M  V30 689 H 65.6424 0.0391274 5.24485 0
M  V30 690 H 67.1164 -1.67099 5.26101 0
M  V30 691 H 67.5934 -2.35355 3.70816 0
M  V30 692 H 68.1994 -0.751117 4.18615 0
M  V30 693 N 66.5145 -1.57545 0.0417849 0
M  V30 694 C 67.4445 -2.14009 -0.933929 0
M  V30 695 C 68.4255 -1.05938 -1.33083 0
M  V30 696 O 69.6105 -1.33833 -1.40721 0
M  V30 697 C 66.7405 -2.67747 -2.21199 0
M  V30 698 C 65.6945 -3.80718 -1.95544 0
M  V30 699 C 65.0205 -4.20935 -3.29724 0
M  V30 700 C 66.3205 -5.06258 -1.28452 0
M  V30 701 H 68.0145 -2.95788 -0.463645 0
M  V30 702 H 65.5605 -1.42285 -0.221573 0
M  V30 703 H 67.5135 -3.05886 -2.89848 0
M  V30 704 H 66.2375 -1.83147 -2.70416 0
M  V30 705 H 64.8965 -3.43037 -1.2931 0
M  V30 706 H 64.5445 -3.33298 -3.76724 0
M  V30 707 H 64.2445 -4.9707 -3.13361 0
M  V30 708 H 65.7685 -4.61666 -3.9962 0
M  V30 709 H 67.1825 -5.41903 -1.8712 0
M  V30 710 H 65.5795 -5.87475 -1.22445 0
M  V30 711 H 66.6495 -4.84207 -0.259219 0
M  V30 712 N 67.9926 0.231505 -1.5589 0
M  V30 713 C 68.9396 1.28682 -1.91598 0
M  V30 714 C 69.9096 1.47071 -0.771974 0
M  V30 715 O 71.0946 1.60802 -1.027 0
M  V30 716 C 68.2346 2.6342 -2.22944 0
M  V30 717 C 67.3476 2.52912 -3.50228 0
M  V30 718 C 66.4826 3.80106 -3.7107 0
M  V30 719 C 65.5216 3.64279 -4.91902 0
M  V30 720 N 64.6586 4.834 -5.09184 0
M  V30 721 H 69.4986 0.975305 -2.81588 0
M  V30 722 H 67.0356 0.470299 -1.39379 0
M  V30 723 H 68.9936 3.41869 -2.39126 0
M  V30 724 H 67.6236 2.92687 -1.36139 0
M  V30 725 H 66.6756 1.6595 -3.42294 0
M  V30 726 H 67.9876 2.37133 -4.38827 0
M  V30 727 H 67.1416 4.66999 -3.87295 0
M  V30 728 H 65.8806 3.98799 -2.80733 0
M  V30 729 H 64.8856 2.7577 -4.75637 0
M  V30 730 H 66.1106 3.47067 -5.83714 0
M  V30 731 H 64.0566 5.02425 -4.21788 0
M  V30 732 H 63.9736 4.70311 -5.91898 0
M  V30 733 H 65.2416 5.71747 -5.29835 0
M  V30 734 N 69.4707 1.49531 0.497807 0
M  V30 735 C 70.8817 1.52344 1.07927 0
M  V30 736 C 71.2327 0.311469 1.93712 0
M  V30 737 O 70.3577 -0.578405 2.08527 0
M  V30 738 C 70.9527 2.76062 1.96405 0
M  V30 739 C 69.5117 2.81643 2.49709 0
M  V30 740 C 68.6587 2.46299 1.27404 0
M  V30 741 H 71.6097 1.56182 0.281576 0
M  V30 742 H 71.6307 2.56405 2.81135 0
M  V30 743 H 71.1427 3.64254 1.33943 0
M  V30 744 H 69.2437 1.97739 3.15801 0
M  V30 745 H 69.3567 3.83891 2.86643 0
M  V30 746 H 67.7207 1.98148 1.60029 0
M  V30 747 H 68.5037 3.36769 0.66645 0
M  V30 748 N 70.9488 -0.749086 1.3866 0
M  V30 749 C 72.1958 -1.50833 1.35114 0
M  V30 750 C 72.5238 -1.94415 -0.0574049 0
M  V30 751 O 71.7788 -1.66065 -1.03541 0
M  V30 752 C 72.0778 -2.7712 2.25697 0
M  V30 753 C 71.7438 -2.52477 3.73585 0
M  V30 754 C 70.4058 -2.45466 4.13884 0
M  V30 755 C 72.7578 -2.31066 4.67181 0
M  V30 756 C 70.0858 -2.15064 5.45861 0
M  V30 757 C 72.4378 -2.02183 5.9942 0
M  V30 758 C 71.1018 -1.93631 6.38798 0
M  V30 759 H 70.3718 -0.551936 0.494416 0
M  V30 760 H 73.0188 -0.860979 1.71054 0
M  V30 761 H 71.3238 -3.46528 1.82827 0
M  V30 762 H 73.0208 -3.35096 2.20254 0
M  V30 763 H 69.6108 -2.58807 3.41638 0
M  V30 764 H 73.7948 -2.35459 4.3689 0
M  V30 765 H 69.0508 -2.06954 5.75308 0
M  V30 766 H 73.2248 -1.8462 6.71482 0
M  V30 767 H 70.8518 -1.69839 7.40985 0
M  V30 768 N 72.4269 -1.23603 -0.977757 0
M  V30 769 C 73.6749 -1.06759 -1.71601 0
M  V30 770 C 73.9959 0.395929 -1.90938 0
M  V30 771 O 73.2659 1.28356 -1.47992 0
M  V30 772 H 71.8459 -0.392062 -0.635843 0
M  V30 773 H 74.5079 -1.55362 -1.1768 0
M  V30 774 H 73.6039 -1.55763 -2.70452 0
M  V30 775 N 73.905 1.17692 -1.04816 0
M  V30 776 C 75.151 1.88137 -0.75711 0
M  V30 777 C 75.484 1.80604 0.713841 0
M  V30 778 O 74.759 1.21146 1.52164 0
M  V30 779 C 75.042 3.38318 -1.2334 0
M  V30 780 C 74.895 3.54622 -2.76701 0
M  V30 781 C 76.214 4.32214 -0.829415 0
M  V30 782 H 73.333 0.683163 -0.27651 0
M  V30 783 H 75.975 1.38424 -1.30149 0
M  V30 784 H 74.125 3.80787 -0.770286 0
M  V30 785 H 75.797 3.21194 -3.31107 0
M  V30 786 H 74.04 2.97026 -3.16161 0
M  V30 787 H 74.711 4.60028 -3.05088 0
M  V30 788 H 77.187 3.97565 -1.22805 0
M  V30 789 H 76.063 5.35838 -1.19033 0
M  V30 790 H 76.324 4.41294 0.266891 0
M  V30 791 N 75.3831 0.828654 1.34056 0
M  V30 792 C 76.6301 0.419458 1.98108 0
M  V30 793 C 76.9581 -1.01886 1.65679 0
M  V30 794 O 76.2131 -1.72539 0.923512 0
M  V30 795 C 76.5121 0.575226 3.52741 0
M  V30 796 C 76.1781 1.98012 4.05095 0
M  V30 797 C 74.8401 2.36442 4.19104 0
M  V30 798 C 77.1921 2.89824 4.33188 0
M  V30 799 C 74.5201 3.66009 4.58535 0
M  V30 800 C 76.8721 4.1886 4.74066 0
M  V30 801 C 75.5361 4.5726 4.86281 0
M  V30 802 H 74.8061 0.153491 0.724929 0
M  V30 803 H 77.4531 1.05371 1.59904 0
M  V30 804 H 75.7581 -0.142385 3.91541 0
M  V30 805 H 77.4551 0.239057 4.00287 0
M  V30 806 H 74.0451 1.67162 3.94658 0
M  V30 807 H 78.2291 2.61375 4.21897 0
M  V30 808 H 73.4851 3.95579 4.66184 0
M  V30 809 H 77.6591 4.90086 4.94761 0
M  V30 810 H 75.2861 5.57707 5.16592 0
M  V30 811 N 76.8612 -1.46375 0.584142 0
M  V30 812 C 77.7712 -2.34115 -0.150728 0
M  V30 813 C 78.7872 -1.49838 -0.884567 0
M  V30 814 O 79.9632 -1.82704 -0.847429 0
M  V30 815 C 77.0282 -3.2705 -1.15062 0
M  V30 816 C 76.0892 -4.27228 -0.421293 0
M  V30 817 C 75.3222 -5.15722 -1.37355 0
M  V30 818 O 75.5452 -5.07176 -2.61014 0
M  V30 819 O 74.4792 -5.95383 -0.883355 0
M  V30 820 H 78.3052 -2.98309 0.569708 0
M  V30 821 H 75.8902 -1.45373 0.344535 0
M  V30 822 H 77.7722 -3.84381 -1.72712 0
M  V30 823 H 76.4472 -2.65451 -1.8525 0
M  V30 824 H 75.3542 -3.7358 0.197085 0
M  V30 825 H 76.6872 -4.91616 0.239641 0
M  V30 826 N 78.3393 -0.321999 -1.54275 0
M  V30 827 C 79.2493 0.553631 -2.27974 0
M  V30 828 C 80.2653 1.13054 -1.32268 0
M  V30 829 O 81.4413 1.15084 -1.6528 0
M  V30 830 C 78.5063 1.69927 -3.02201 0
M  V30 831 C 77.5673 1.15433 -4.1349 0
M  V30 832 C 76.8003 2.24537 -4.84168 0
M  V30 833 O 77.0233 3.44852 -4.5435 0
M  V30 834 O 75.9573 1.90044 -5.7111 0
M  V30 835 H 79.7833 -0.0448345 -3.03667 0
M  V30 836 H 77.3683 -0.0877418 -1.49142 0
M  V30 837 H 79.2503 2.3663 -3.48689 0
M  V30 838 H 77.9253 2.28395 -2.29385 0
M  V30 839 H 76.8323 0.452436 -3.71354 0
M  V30 840 H 78.1653 0.614805 -4.88345 0
M  V30 841 N 79.8174 1.5752 -0.0501392 0
M  V30 842 C 80.7274 2.14952 0.939827 0
M  V30 843 C 81.7434 1.10706 1.34239 0
M  V30 844 O 82.9194 1.42869 1.41952 0
M  V30 845 C 79.9844 2.68232 2.19665 0
M  V30 846 C 79.0454 3.87272 1.85253 0
M  V30 847 C 78.2784 4.38002 3.04943 0
M  V30 848 O 78.5014 3.87811 4.18281 0
M  V30 849 O 77.4354 5.29602 2.86017 0
M  V30 850 H 81.2614 2.9986 0.481392 0
M  V30 851 H 78.8464 1.4841 0.171699 0
M  V30 852 H 80.7284 3.02475 2.93406 0
M  V30 853 H 79.4034 1.86395 2.64648 0
M  V30 854 H 78.3104 3.5792 1.0883 0
M  V30 855 H 79.6434 4.70336 1.4507 0
M  V30 856 N 81.2955 -0.223234 1.56011 0
M  V30 857 C 82.2055 -1.29766 1.95443 0
M  V30 858 C 83.2215 -1.51373 0.858028 0
M  V30 859 O 84.3975 -1.64536 1.16146 0
M  V30 860 C 81.4625 -2.62772 2.26167 0
M  V30 861 C 80.5235 -2.49482 3.49367 0
M  V30 862 C 79.7565 -3.76145 3.78616 0
M  V30 863 O 79.9795 -4.79087 3.09568 0
M  V30 864 O 78.9135 -3.73358 4.72109 0
M  V30 865 H 82.7395 -0.99309 2.87004 0
M  V30 866 H 80.3245 -0.425958 1.43199 0
M  V30 867 H 82.2065 -3.41327 2.47131 0
M  V30 868 H 80.8815 -2.92913 1.37781 0
M  V30 869 H 79.7885 -1.69133 3.33684 0
M  V30 870 H 81.1215 -2.2428 4.38131 0
M  V30 871 N 82.7736 -1.49793 -0.48987 0
M  V30 872 C 83.6836 -1.70036 -1.61632 0
M  V30 873 C 84.6996 -0.583102 -1.63939 0
M  V30 874 O 85.8756 -0.859169 -1.82154 0
M  V30 875 C 82.9406 -1.77277 -2.97949 0
M  V30 876 C 82.0016 -3.00918 -3.06181 0
M  V30 877 C 81.2346 -3.07804 -4.35996 0
M  V30 878 O 81.4576 -2.21982 -5.25433 0
M  V30 879 O 80.3916 -4.00369 -4.49431 0
M  V30 880 H 84.2176 -2.65486 -1.47482 0
M  V30 881 H 81.8026 -1.33666 -0.667362 0
M  V30 882 H 83.6846 -1.84329 -3.78947 0
M  V30 883 H 82.3596 -0.850076 -3.12339 0
M  V30 884 H 81.2666 -2.99377 -2.2433 0
M  V30 885 H 82.5996 -3.92704 -2.96723 0
M  V30 886 N 84.2517 0.741722 -1.39055 0
M  V30 887 C 85.1817 1.869 -1.39966 0
M  V30 888 C 86.1627 1.6804 -0.26392 0
M  V30 889 O 87.3477 1.88458 -0.468755 0
M  V30 890 C 84.4777 3.24572 -1.23574 0
M  V30 891 C 83.4317 3.58056 -2.34477 0
M  V30 892 C 82.7577 4.94593 -2.0318 0
M  V30 893 C 84.0577 3.61716 -3.76774 0
M  V30 894 H 85.7517 1.86395 -2.34302 0
M  V30 895 H 83.2977 0.895361 -1.1278 0
M  V30 896 H 85.2507 4.031 -1.22834 0
M  V30 897 H 83.9747 3.25587 -0.257045 0
M  V30 898 H 82.6337 2.81854 -2.34423 0
M  V30 899 H 82.2817 4.92181 -1.03765 0
M  V30 900 H 81.9817 5.17964 -2.77465 0
M  V30 901 H 83.5057 5.75486 -2.04079 0
M  V30 902 H 84.9197 4.30335 -3.78794 0
M  V30 903 H 83.3167 3.96603 -4.50362 0
M  V30 904 H 84.3867 2.61672 -4.08235 0
M  V30 905 N 85.7298 1.2412 0.971189 0
M  V30 906 C 86.6618 0.988349 2.06795 0
M  V30 907 C 87.6748 -0.0409541 1.62748 0
M  V30 908 O 88.8638 0.195673 1.77424 0
M  V30 909 C 85.9638 0.469023 3.35639 0
M  V30 910 C 85.1368 1.56065 4.08611 0
M  V30 911 C 84.1958 1.04458 5.15728 0
M  V30 912 O 83.2218 1.73553 5.42096 0
M  V30 913 N 84.4238 -0.122817 5.8037 0
M  V30 914 H 87.1888 1.93265 2.29061 0
M  V30 915 H 84.7498 1.15102 1.13856 0
M  V30 916 H 86.7418 0.108613 4.04554 0
M  V30 917 H 85.3118 -0.380919 3.1027 0
M  V30 918 H 84.5318 2.09341 3.34021 0
M  V30 919 H 85.8198 2.29449 4.54126 0
M  V30 920 H 85.2178 -0.700563 5.61345 0
M  V30 921 H 83.7748 -0.424404 6.50417 0
M  V30 922 N 87.2079 -1.17134 1.05439 0
M  V30 923 C 88.6239 -1.39454 0.776201 0
M  V30 924 C 88.8239 -1.91454 -0.628307 0
M  V30 925 O 87.8799 -2.10777 -1.39031 0
M  V30 926 C 89.1929 -2.38305 1.83388 0
M  V30 927 C 90.7409 -2.52006 1.85639 0
M  V30 928 C 91.2159 -3.54133 2.90437 0
M  V30 929 N 92.7069 -3.61653 2.89415 0
M  V30 930 C 93.4419 -4.4044 3.67152 0
M  V30 931 N 92.9379 -5.22721 4.54681 0
M  V30 932 N 94.7309 -4.35337 3.55581 0
M  V30 933 H 86.8819 -0.817134 1.96053 0
M  V30 934 H 89.1449 -0.421626 0.849079 0
M  V30 935 H 88.8509 -2.07173 2.84204 0
M  V30 936 H 88.7249 -3.37841 1.67761 0
M  V30 937 H 91.1119 -2.82447 0.85486 0
M  V30 938 H 91.1929 -1.52537 2.05344 0
M  V30 939 H 90.8369 -3.24431 3.90777 0
M  V30 940 H 90.7669 -4.53313 2.67983 0
M  V30 941 H 93.2579 -3.02909 2.25952 0
M  V30 942 H 93.5709 -5.80027 5.10674 0
M  V30 943 H 91.9159 -5.22093 4.58741 0
M  V30 944 H 95.1069 -3.70112 2.86592 0
M  V30 945 H 95.2799 -4.96494 4.1641 0
M  V30 946 N 88.686 -0.835752 -1.33615 0
M  V30 947 C 90.102 -0.523139 -1.50783 0
M  V30 948 C 90.302 0.950171 -1.77691 0
M  V30 949 O 89.358 1.73411 -1.83534 0
M  V30 950 C 90.671 -1.39378 -2.66448 0
M  V30 951 C 92.219 -1.39223 -2.80332 0
M  V30 952 C 92.694 -2.24765 -3.99055 0
M  V30 953 N 94.185 -2.22458 -4.06284 0
M  V30 954 C 94.92 -2.85386 -4.97336 0
M  V30 955 N 94.416 -3.57354 -5.93523 0
M  V30 956 N 96.209 -2.74872 -4.90308 0
M  V30 957 H 88.36 -1.78952 -1.14411 0
M  V30 958 H 90.623 -0.763297 -0.562212 0
M  V30 959 H 90.329 -2.44061 -2.53234 0
M  V30 960 H 90.203 -1.0676 -3.61776 0
M  V30 961 H 92.59 -0.353136 -2.92979 0
M  V30 962 H 92.671 -1.75846 -1.85773 0
M  V30 963 H 92.315 -3.28732 -3.87167 0
M  V30 964 H 92.245 -1.85485 -4.92852 0
M  V30 965 H 94.736 -1.70119 -3.37443 0
M  V30 966 H 95.049 -4.02584 -6.59656 0
M  V30 967 H 93.394 -3.61461 -5.93608 0
M  V30 968 H 96.585 -2.18213 -4.14126 0
M  V30 969 H 96.758 -3.24199 -5.61069 0
M  V30 970 N 90.1641 1.46063 -0.591896 0
M  V30 971 C 91.4131 2.01547 -0.0786637 0
M  V30 972 C 91.7261 1.46796 1.29268 0
M  V30 973 O 92.9321 1.94157 1.89777 0
M  V30 974 C 91.3881 3.59787 -0.0900024 0
M  V30 975 C 90.9961 4.23534 -1.46023 0
M  V30 976 C 92.7401 4.22895 0.368806 0
M  V30 977 C 90.6471 5.73881 -1.4288 0
M  V30 978 H 89.5771 0.753564 -0.0256388 0
M  V30 979 H 92.2281 1.677 -0.744905 0
M  V30 980 H 90.6101 3.90752 0.642586 0
M  V30 981 H 91.7841 4.04167 -2.21328 0
M  V30 982 H 90.0991 3.72558 -1.85982 0
M  V30 983 H 92.6961 5.33116 0.411258 0
M  V30 984 H 93.0391 3.9247 1.38827 0
M  V30 985 H 93.5721 3.9659 -0.31001 0
M  V30 986 H 90.3111 6.0898 -2.42536 0
M  V30 987 H 89.8311 5.95486 -0.718095 0
M  V30 988 H 91.5101 6.36776 -1.14565 0
M  V30 989 N 91.6422 0.330177 1.54103 0
M  V30 990 C 92.5722 -0.525353 2.27513 0
M  V30 991 C 93.5532 -1.11383 1.2856 0
M  V30 992 O 94.7382 -1.13773 1.57383 0
M  V30 993 C 91.8682 -1.6831 3.03791 0
M  V30 994 C 90.8222 -1.2236 4.10137 0
M  V30 995 C 90.1482 -2.46882 4.74293 0
M  V30 996 C 91.4482 -0.333697 5.21233 0
M  V30 997 H 93.1422 0.087013 2.99274 0
M  V30 998 H 90.6882 0.0432893 1.43935 0
M  V30 999 H 92.6412 -2.28795 3.5388 0
M  V30 1000 H 91.3652 -2.32216 2.29659 0
M  V30 1001 H 90.0242 -0.64165 3.60941 0
M  V30 1002 H 89.6722 -3.09165 3.96769 0
M  V30 1003 H 89.3722 -2.16825 5.46133 0
M  V30 1004 H 90.8962 -3.08117 5.27159 0
M  V30 1005 H 92.3102 -0.845013 5.67038 0
M  V30 1006 H 90.7072 -0.125612 5.99969 0
M  V30 1007 H 91.7772 0.633724 4.80741 0
M  V30 1008 N 93.1203 -1.57491 0.0584922 0
M  V30 1009 C 94.3693 -1.92155 -0.613146 0
M  V30 1010 C 94.6823 -0.939334 -1.71569 0
M  V30 1011 O 95.8883 -1.17829 -2.44599 0
M  V30 1012 C 94.3443 -3.41303 -1.14195 0
M  V30 1013 C 93.9523 -4.47944 -0.0711265 0
M  V30 1014 C 95.6963 -3.84988 -1.78841 0
M  V30 1015 C 93.6033 -5.88212 -0.613225 0
M  V30 1016 H 92.5333 -0.717162 -0.232796 0
M  V30 1017 H 95.1843 -1.83049 0.12857 0
M  V30 1018 H 93.5663 -3.45437 -1.93621 0
M  V30 1019 H 94.7403 -4.55408 0.702836 0
M  V30 1020 H 93.0553 -4.13644 0.478313 0
M  V30 1021 H 95.6523 -4.87159 -2.20408 0
M  V30 1022 H 95.9953 -3.21632 -2.64308 0
M  V30 1023 H 96.5283 -3.83401 -1.06059 0
M  V30 1024 H 93.2673 -6.55183 0.203978 0
M  V30 1025 H 92.7873 -5.84294 -1.35501 0
M  V30 1026 H 94.4663 -6.37687 -1.09383 0
M  V30 1027 N 94.5984 0.214957 -1.56127 0
M  V30 1028 C 95.5284 1.2695 -1.95974 0
M  V30 1029 C 96.5094 1.48539 -0.828868 0
M  V30 1030 O 97.6944 1.60611 -1.09168 0
M  V30 1031 C 94.8244 2.61794 -2.28214 0
M  V30 1032 C 93.7784 2.54851 -3.43853 0
M  V30 1033 C 93.1044 3.93785 -3.61715 0
M  V30 1034 C 94.4044 2.09065 -4.78632 0
M  V30 1035 H 96.0984 0.93846 -2.84312 0
M  V30 1036 H 93.6444 0.449996 -1.36788 0
M  V30 1037 H 95.5974 3.35731 -2.54682 0
M  V30 1038 H 94.3214 2.96599 -1.36736 0
M  V30 1039 H 92.9804 1.8337 -3.17444 0
M  V30 1040 H 92.6284 4.25908 -2.67602 0
M  V30 1041 H 92.3284 3.90019 -4.39498 0
M  V30 1042 H 93.8524 4.69374 -3.90539 0
M  V30 1043 H 95.2664 2.7275 -5.04262 0
M  V30 1044 H 93.6634 2.16346 -5.59745 0
M  V30 1045 H 94.7334 1.04315 -4.73547 0
M  V30 1046 N 96.0765 1.50051 0.48192 0
M  V30 1047 C 97.3245 1.60181 1.23234 0
M  V30 1048 C 97.6455 0.299176 1.92691 0
M  V30 1049 O 96.9155 -0.682708 1.83619 0
M  V30 1050 H 95.4955 0.590232 0.457859 0
M  V30 1051 H 98.1575 1.86775 0.556881 0
M  V30 1052 H 97.2535 2.40753 1.98607 0
M  V30 1053 N 97.5546 -0.734337 1.39446 0
M  V30 1054 C 98.5016 -1.84835 1.38219 0
M  V30 1055 C 99.4716 -1.64331 0.24179 0
M  V30 1056 O 100.657 -1.85728 0.437002 0
M  V30 1057 C 97.7966 -3.22355 1.23212 0
M  V30 1058 C 96.9096 -3.5456 2.46801 0
M  V30 1059 C 96.0446 -4.81485 2.24377 0
M  V30 1060 C 95.0836 -5.06536 3.43639 0
M  V30 1061 N 94.2206 -6.24665 3.20528 0
M  V30 1062 H 99.0606 -1.85219 2.33448 0
M  V30 1063 H 96.5976 -0.905039 1.15963 0
M  V30 1064 H 98.5556 -4.0174 1.12522 0
M  V30 1065 H 97.1856 -3.21248 0.316121 0
M  V30 1066 H 96.2376 -2.69872 2.68092 0
M  V30 1067 H 97.5496 -3.6899 3.3563 0
M  V30 1068 H 96.7036 -5.68852 2.10933 0
M  V30 1069 H 95.4426 -4.6923 1.32944 0
M  V30 1070 H 94.4476 -4.17632 3.5758 0
M  V30 1071 H 95.6726 -5.20676 4.35974 0
M  V30 1072 H 93.6186 -6.13696 2.3176 0
M  V30 1073 H 93.5356 -6.39685 4.02913 0
M  V30 1074 H 94.8036 -7.14868 3.10779 0
M  V30 1075 N 99.0327 -1.24633 -0.964593 0
M  V30 1076 C 99.9627 -1.06611 -2.07741 0
M  V30 1077 C 100.944 0.0218666 -1.70086 0
M  V30 1078 O 102.129 -0.145793 -1.93652 0
M  V30 1079 C 99.2587 -0.673444 -3.40708 0
M  V30 1080 C 98.2127 -1.71054 -3.92332 0
M  V30 1081 C 97.5387 -1.17285 -5.21678 0
M  V30 1082 C 98.8387 -3.10718 -4.19824 0
M  V30 1083 H 100.533 -1.99693 -2.23076 0
M  V30 1084 H 98.0787 -0.96152 -1.07195 0
M  V30 1085 H 100.032 -0.534345 -4.17998 0
M  V30 1086 H 98.7557 0.293073 -3.25282 0
M  V30 1087 H 97.4147 -1.83791 -3.17201 0
M  V30 1088 H 97.0627 -0.196847 -5.02615 0
M  V30 1089 H 96.7627 -1.86592 -5.57187 0
M  V30 1090 H 98.2867 -1.04593 -6.01575 0
M  V30 1091 H 99.7007 -3.01192 -4.87808 0
M  V30 1092 H 98.0977 -3.77406 -4.66567 0
M  V30 1093 H 99.1677 -3.58524 -3.26479 0
M  V30 1094 N 100.511 1.16574 -1.06058 0
M  V30 1095 C 101.459 2.22941 -0.663343 0
M  V30 1096 C 102.453 1.66358 0.319593 0
M  V30 1097 O 103.659 1.7905 0.184713 0
M  V30 1098 H 100.034 0.725907 -0.196376 0
M  V30 1099 H 102.005 2.53736 -1.57037 0
M  V30 1100 C 100.754 3.47642 -0.0632808 0
M  V30 1101 H 100.077 3.91493 -0.810733 0
M  V30 1102 H 101.517 4.2363 0.177177 0
M  V30 1103 C 99.9758 3.1509 1.19248 0
M  V30 1104 O 100.506 3.30673 2.28075 0
M  V30 1105 N 98.7118 2.6924 1.09353 0
M  V30 1106 H 98.2588 2.5676 0.207912 0
M  V30 1107 H 98.2168 2.47833 1.93458 0
M  V30 1108 N 101.989 0.842826 1.3317 0
M  V30 1109 C 102.937 0.267495 2.31057 0
M  V30 1110 C 103.931 -0.602682 1.58316 0
M  V30 1111 O 105.137 -0.491803 1.73151 0
M  V30 1112 H 101.512 0.0677813 0.748939 0
M  V30 1113 H 103.483 1.10754 2.77085 0
M  V30 1114 C 102.232 -0.539331 3.43492 0
M  V30 1115 H 101.555 0.12095 3.99617 0
M  V30 1116 H 102.995 -0.90767 4.14171 0
M  V30 1117 C 101.454 -1.71981 2.89697 0
M  V30 1118 O 101.984 -2.81862 2.86211 0
M  V30 1119 N 100.19 -1.54299 2.46252 0
M  V30 1120 H 99.7369 -0.649143 2.49287 0
M  V30 1121 H 99.6949 -2.33431 2.10612 0
M  V30 1122 N 103.467 -1.45747 0.599634 0
M  V30 1123 C 104.397 -2.33235 -0.111306 0
M  V30 1124 C 105.378 -1.46359 -0.866781 0
M  V30 1125 O 106.563 -1.75146 -0.838904 0
M  V30 1126 C 103.693 -3.28932 -1.11451 0
M  V30 1127 C 102.647 -4.25381 -0.472772 0
M  V30 1128 C 101.973 -5.1071 -1.58365 0
M  V30 1129 C 103.273 -5.18831 0.600948 0
M  V30 1130 H 104.967 -2.92927 0.61919 0
M  V30 1131 H 102.513 -1.40857 0.299215 0
M  V30 1132 H 104.466 -3.89002 -1.62036 0
M  V30 1133 H 103.19 -2.67381 -1.8755 0
M  V30 1134 H 101.849 -3.66598 0.0121472 0
M  V30 1135 H 101.497 -4.45533 -2.33473 0
M  V30 1136 H 101.197 -5.7604 -1.15982 0
M  V30 1137 H 102.721 -5.73647 -2.09194 0
M  V30 1138 H 104.135 -5.73019 0.179491 0
M  V30 1139 H 102.532 -5.92595 0.946076 0
M  V30 1140 H 103.602 -4.6174 1.48068 0
M  V30 1141 N 104.945 -0.338344 -1.53925 0
M  V30 1142 C 106.191 0.260143 -2.01125 0
M  V30 1143 C 106.524 1.50617 -1.22589 0
M  V30 1144 O 105.799 1.91979 -0.312113 0
M  V30 1145 C 106.082 0.579499 -3.55407 0
M  V30 1146 C 105.935 -0.678264 -4.44657 0
M  V30 1147 C 107.254 1.39122 -4.17532 0
M  V30 1148 H 104.373 0.0930772 -0.731099 0
M  V30 1149 H 107.015 -0.457852 -1.84401 0
M  V30 1150 H 105.165 1.19118 -3.69788 0
M  V30 1151 H 106.837 -1.31631 -4.42121 0
M  V30 1152 H 105.08 -1.3042 -4.13731 0
M  V30 1153 H 105.751 -0.410143 -5.50474 0
M  V30 1154 H 108.227 0.874035 -4.06817 0
M  V30 1155 H 107.103 1.58342 -5.25565 0
M  V30 1156 H 107.364 2.39178 -3.71815 0
M  V30 1157 N 106.423 1.57458 -0.0668435 0
M  V30 1158 C 107.37 2.12439 0.902122 0
M  V30 1159 C 108.34 1.03565 1.2986 0
M  V30 1160 O 109.525 1.312 1.38532 0
M  V30 1161 C 106.665 2.6865 2.16614 0
M  V30 1162 C 105.778 3.91663 1.82274 0
M  V30 1163 C 104.913 4.36134 3.0325 0
M  V30 1164 C 103.952 5.51808 2.64904 0
M  V30 1165 N 103.089 5.9126 3.78624 0
M  V30 1166 H 107.929 2.94934 0.426382 0
M  V30 1167 H 105.466 1.4575 0.198819 0
M  V30 1168 H 107.424 2.99346 2.90599 0
M  V30 1169 H 106.054 1.88928 2.61737 0
M  V30 1170 H 105.106 3.6746 0.983719 0
M  V30 1171 H 106.418 4.75693 1.50059 0
M  V30 1172 H 105.572 4.68465 3.85519 0
M  V30 1173 H 104.311 3.50948 3.38655 0
M  V30 1174 H 103.316 5.19133 1.81055 0
M  V30 1175 H 104.541 6.38722 2.30675 0
M  V30 1176 H 102.487 5.09024 4.138 0
M  V30 1177 H 102.404 6.70018 3.5016 0
M  V30 1178 H 103.672 6.28212 4.61486 0
M  V30 1179 N 107.901 -0.206675 1.56239 0
M  V30 1180 C 108.811 -1.27686 1.96808 0
M  V30 1181 C 109.827 -1.50455 0.874035 0
M  V30 1182 O 111.003 -1.63295 1.17884 0
M  V30 1183 C 108.068 -2.60358 2.28942 0
M  V30 1184 C 107.129 -2.45762 3.51994 0
M  V30 1185 C 106.362 -3.72108 3.82585 0
M  V30 1186 O 106.585 -4.75776 3.14631 0
M  V30 1187 O 105.519 -3.6833 4.76043 0
M  V30 1188 H 109.345 -0.962593 2.88041 0
M  V30 1189 H 106.93 -0.410746 1.43643 0
M  V30 1190 H 108.812 -3.38687 2.50737 0
M  V30 1191 H 107.487 -2.91435 1.4088 0
M  V30 1192 H 106.394 -1.65584 3.35459 0
M  V30 1193 H 107.727 -2.19621 4.40486 0
M  V30 1194 N 109.379 -1.50304 -0.473955 0
M  V30 1195 C 110.625 -1.62358 -1.22521 0
M  V30 1196 C 110.98 -0.318555 -1.89745 0
M  V30 1197 O 110.273 0.683315 -1.79001 0
M  V30 1198 C 110.467 -2.73938 -2.29549 0
M  V30 1199 C 110.296 -4.15165 -1.72825 0
M  V30 1200 C 109.066 -4.81604 -1.52924 0
M  V30 1201 C 111.264 -4.99503 -1.22481 0
M  V30 1202 N 109.246 -6.07056 -0.91413 0
M  V30 1203 C 110.617 -6.15655 -0.732743 0
M  V30 1204 C 112.672 -4.85299 -1.11308 0
M  V30 1205 C 111.375 -7.19164 -0.139976 0
M  V30 1206 C 113.401 -5.88982 -0.534258 0
M  V30 1207 C 112.763 -7.0438 -0.0525562 0
M  V30 1208 H 108.862 -0.648286 -0.437321 0
M  V30 1209 H 111.446 -1.87413 -0.527692 0
M  V30 1210 H 109.617 -2.50611 -2.9673 0
M  V30 1211 H 111.349 -2.75366 -2.96573 0
M  V30 1212 H 108.104 -4.3885 -1.78067 0
M  V30 1213 H 108.528 -6.74108 -0.625071 0
M  V30 1214 H 113.17 -3.96369 -1.47144 0
M  V30 1215 H 110.888 -8.07771 0.230591 0
M  V30 1216 H 114.474 -5.80055 -0.450219 0
M  V30 1217 H 113.354 -7.83238 0.388324 0
M  V30 1218 N 110.857 0.726932 -1.39834 0
M  V30 1219 C 112.106 1.48214 -1.36805 0
M  V30 1220 C 112.419 1.95576 0.0305291 0
M  V30 1221 O 113.625 2.7088 0.183417 0
M  V30 1222 C 112.081 2.67854 -2.40379 0
M  V30 1223 C 111.689 2.27408 -3.85992 0
M  V30 1224 C 113.433 3.45641 -2.46439 0
M  V30 1225 C 111.34 3.43819 -4.81189 0
M  V30 1226 H 110.27 0.556606 -0.508631 0
M  V30 1227 H 112.921 0.792216 -1.65518 0
M  V30 1228 H 111.303 3.3896 -2.04749 0
M  V30 1229 H 112.477 1.63795 -4.30706 0
M  V30 1230 H 110.792 1.62692 -3.83302 0
M  V30 1231 H 113.389 4.32244 -3.14753 0
M  V30 1232 H 113.732 3.88669 -1.49139 0
M  V30 1233 H 114.265 2.8157 -2.81004 0
M  V30 1234 H 111.004 3.05834 -5.79781 0
M  V30 1235 H 110.524 4.06385 -4.41148 0
M  V30 1236 H 112.203 4.10043 -5.00474 0
M  V30 1237 N 112.336 1.25143 0.95797 0
M  V30 1238 C 113.752 1.01892 1.22842 0
M  V30 1239 C 113.952 -0.266311 1.99732 0
M  V30 1240 O 113.008 -0.979913 2.3271 0
M  V30 1241 C 114.321 2.24004 2.00606 0
M  V30 1242 C 115.869 2.28731 2.13662 0
M  V30 1243 C 116.344 3.5049 2.94823 0
M  V30 1244 N 117.835 3.50866 3.02403 0
M  V30 1245 C 118.57 4.4174 3.65586 0
M  V30 1246 N 118.066 5.42882 4.30408 0
M  V30 1247 N 119.859 4.29429 3.62694 0
M  V30 1248 H 112.01 2.07718 0.443493 0
M  V30 1249 H 114.273 0.912031 0.258657 0
M  V30 1250 H 113.979 3.17395 1.51503 0
M  V30 1251 H 113.853 2.26907 3.01319 0
M  V30 1252 H 116.24 1.35865 2.61963 0
M  V30 1253 H 116.321 2.29848 1.12265 0
M  V30 1254 H 115.965 4.43676 2.47213 0
M  V30 1255 H 115.895 3.46617 3.96439 0
M  V30 1256 H 118.386 2.777 2.56302 0
M  V30 1257 H 118.699 6.0844 4.76467 0
M  V30 1258 H 117.044 5.46758 4.29047 0
M  V30 1259 H 120.235 3.49643 3.11236 0
M  V30 1260 H 120.408 5.00448 4.1165 0
M  V30 1261 N 113.814 -1.1601 1.06675 0
M  V30 1262 C 114.724 -2.24156 0.692179 0
M  V30 1263 C 115.74 -1.71507 -0.293513 0
M  V30 1264 O 116.916 -2.009 -0.141861 0
M  V30 1265 C 113.981 -3.46587 0.0884131 0
M  V30 1266 C 113.042 -4.14257 1.12646 0
M  V30 1267 C 112.275 -5.30844 0.551416 0
M  V30 1268 O 112.498 -5.66858 -0.634656 0
M  V30 1269 O 111.432 -5.87848 1.29298 0
M  V30 1270 H 115.258 -2.58513 1.59388 0
M  V30 1271 H 112.843 -1.23599 0.83926 0
M  V30 1272 H 114.725 -4.20679 -0.246361 0
M  V30 1273 H 113.4 -3.13994 -0.786712 0
M  V30 1274 H 112.307 -3.42118 1.51348 0
M  V30 1275 H 113.64 -4.50914 1.97325 0
M  V30 1276 N 115.292 -0.849877 -1.32721 0
M  V30 1277 C 116.541 -0.447175 -1.96681 0
M  V30 1278 C 116.854 1.00135 -1.68025 0
M  V30 1279 O 118.06 1.50926 -2.25685 0
M  V30 1280 C 116.516 -0.7487 -3.52026 0
M  V30 1281 C 116.124 -2.21264 -3.89546 0
M  V30 1282 C 117.868 -0.413487 -4.22481 0
M  V30 1283 C 115.775 -2.45763 -5.37917 0
M  V30 1284 H 114.705 -0.163486 -0.736063 0
M  V30 1285 H 117.356 -1.03999 -1.51183 0
M  V30 1286 H 115.738 -0.0853727 -3.95908 0
M  V30 1287 H 116.912 -2.91736 -3.56689 0
M  V30 1288 H 115.227 -2.5119 -3.32103 0
M  V30 1289 H 117.824 -0.574017 -5.3161 0
M  V30 1290 H 118.167 0.644492 -4.11281 0
M  V30 1291 H 118.7 -1.03251 -3.84167 0
M  V30 1292 H 115.439 -3.50168 -5.54132 0
M  V30 1293 H 114.959 -1.79864 -5.72197 0
M  V30 1294 H 116.638 -2.29471 -6.0494 0
M  V30 1295 N 116.77 1.45427 -0.607355 0
M  V30 1296 C 117.995 2.07124 -0.107006 0
M  V30 1297 C 118.42 1.44906 1.19933 0
M  V30 1298 O 117.778 0.541687 1.73019 0
M  V30 1299 C 117.826 3.60595 0.0194119 0
M  V30 1300 O 116.93 3.98285 1.0697 0
M  V30 1301 H 116.271 0.659868 -0.0739597 0
M  V30 1302 H 118.801 1.86683 -0.837297 0
M  V30 1303 H 118.811 4.07419 0.2177 0
M  V30 1304 H 117.486 4.05266 -0.934453 0
M  V30 1305 H 116.063 3.63133 0.847889 0
M  V30 1306 N 118.248 0.346503 1.53744 0
M  V30 1307 C 119.158 -0.517293 2.28826 0
M  V30 1308 C 120.174 -1.10935 1.3405 0
M  V30 1309 O 121.35 -1.1244 1.6709 0
M  V30 1310 C 118.415 -1.65098 3.04866 0
M  V30 1311 C 117.476 -1.0884 4.15274 0
M  V30 1312 C 116.709 -2.16806 4.87679 0
M  V30 1313 O 116.932 -3.3758 4.59778 0
M  V30 1314 O 115.866 -1.80934 5.74061 0
M  V30 1315 H 119.692 0.0931396 3.03557 0
M  V30 1316 H 117.277 0.111458 1.48984 0
M  V30 1317 H 119.159 -2.31053 3.5241 0
M  V30 1318 H 117.834 -2.24717 2.32989 0
M  V30 1319 H 116.741 -0.3933 3.72027 0
M  V30 1320 H 118.074 -0.537036 4.89261 0
M  V30 1321 N 119.726 -1.57421 0.075193 0
M  V30 1322 C 120.951 -1.98364 -0.605515 0
M  V30 1323 C 121.376 -0.953383 -1.62149 0
M  V30 1324 O 120.734 0.0806053 -1.81121 0
M  V30 1325 C 120.782 -3.38332 -1.24756 0
M  V30 1326 O 119.886 -3.37959 -2.36342 0
M  V30 1327 H 119.227 -0.645553 -0.155428 0
M  V30 1328 H 121.757 -2.04044 0.150714 0
M  V30 1329 H 121.767 -3.75591 -1.5936 0
M  V30 1330 H 120.442 -4.12846 -0.503129 0
M  V30 1331 H 119.019 -3.12474 -2.03506 0
M  V30 1332 N 121.204 0.198386 -1.56346 0
M  V30 1333 C 122.151 1.24589 -1.94284 0
M  V30 1334 C 123.121 1.454 -0.802997 0
M  V30 1335 O 124.306 1.58588 -1.06087 0
M  V30 1336 C 121.446 2.58631 -2.28482 0
M  V30 1337 C 120.559 2.45426 -3.55514 0
M  V30 1338 C 119.694 3.7215 -3.79049 0
M  V30 1339 C 118.733 3.53763 -4.99518 0
M  V30 1340 N 117.87 4.72491 -5.19323 0
M  V30 1341 H 122.71 0.915356 -2.83593 0
M  V30 1342 H 120.247 0.440629 -1.40346 0
M  V30 1343 H 122.205 3.3672 -2.46324 0
M  V30 1344 H 120.835 2.89734 -1.42317 0
M  V30 1345 H 119.887 1.58652 -3.45737 0
M  V30 1346 H 121.199 2.27772 -4.43758 0
M  V30 1347 H 120.353 4.58679 -3.97113 0
M  V30 1348 H 119.092 3.92754 -2.89129 0
M  V30 1349 H 118.097 2.65619 -4.8138 0
M  V30 1350 H 119.322 3.34607 -5.90944 0
M  V30 1351 H 117.268 4.93365 -4.3235 0
M  V30 1352 H 117.185 4.5765 -6.01741 0
M  V30 1353 H 118.453 5.6038 -5.41843 0
M  V30 1354 N 122.682 1.50554 0.465978 0
M  V30 1355 C 123.63 1.70324 1.58406 0
M  V30 1356 C 124.624 0.569139 1.59553 0
M  V30 1357 O 125.83 0.749776 1.63641 0
M  V30 1358 H 122.205 0.537688 0.525734 0
M  V30 1359 H 124.176 2.64104 1.38894 0
M  V30 1360 C 122.925 1.81928 2.96307 0
M  V30 1361 H 122.248 2.68586 2.96144 0
M  V30 1362 H 123.688 1.99784 3.73982 0
M  V30 1363 C 122.147 0.572095 3.32007 0
M  V30 1364 O 122.677 -0.286416 4.00678 0
M  V30 1365 N 120.883 0.424606 2.87481 0
M  V30 1366 H 120.43 1.12427 2.31771 0
M  V30 1367 H 120.388 -0.408697 3.11732 0
M  V30 1368 N 124.16 -0.719506 1.40217 0
M  V30 1369 C 125.09 -1.8465 1.42922 0
M  V30 1370 C 126.071 -1.67599 0.29062 0
M  V30 1371 O 127.256 -1.87688 0.498677 0
M  V30 1372 C 124.386 -3.22565 1.28722 0
M  V30 1373 C 123.34 -3.54281 2.40144 0
M  V30 1374 C 122.666 -4.91298 2.11023 0
M  V30 1375 C 123.966 -3.55676 3.82481 0
M  V30 1376 H 125.66 -1.82644 2.37237 0
M  V30 1377 H 123.206 -0.877305 1.1419 0
M  V30 1378 H 125.159 -4.01095 1.29232 0
M  V30 1379 H 123.883 -3.25137 0.308811 0
M  V30 1380 H 122.542 -2.78088 2.38877 0
M  V30 1381 H 122.19 -4.90468 1.11582 0
M  V30 1382 H 121.89 -5.13485 2.8567 0
M  V30 1383 H 123.414 -5.72166 2.13209 0
M  V30 1384 H 124.828 -4.24254 3.85592 0
M  V30 1385 H 123.225 -3.89388 4.56614 0
M  V30 1386 H 124.295 -2.55144 4.12346 0
M  V30 1387 N 125.638 -1.25649 -0.95132 0
M  V30 1388 C 127.049 -1.09654 -1.51106 0
M  V30 1389 C 127.4 0.326615 -1.93462 0
M  V30 1390 O 126.525 1.21697 -1.78938 0
M  V30 1391 C 127.12 -1.98437 -2.74605 0
M  V30 1392 C 125.679 -1.86618 -3.2688 0
M  V30 1393 C 124.826 -1.9239 -1.99703 0
M  V30 1394 H 127.777 -1.38887 -0.767865 0
M  V30 1395 H 127.798 -1.5263 -3.48546 0
M  V30 1396 H 127.31 -3.02009 -2.43746 0
M  V30 1397 H 125.411 -0.859421 -3.62553 0
M  V30 1398 H 125.524 -2.71607 -3.94673 0
M  V30 1399 H 123.888 -1.36317 -2.15151 0
M  V30 1400 H 124.671 -2.97573 -1.71188 0
M  V30 1401 N 127.117 1.15442 -1.07289 0
M  V30 1402 C 128.049 2.19773 -0.650585 0
M  V30 1403 C 129.062 1.60076 0.296572 0
M  V30 1404 O 130.251 1.78293 0.0859905 0
M  V30 1405 C 127.351 3.38838 0.0650398 0
M  V30 1406 C 126.524 4.2808 -0.898141 0
M  V30 1407 C 125.583 5.2574 -0.219926 0
M  V30 1408 O 124.609 5.62654 -0.860773 0
M  V30 1409 N 125.811 5.71205 1.03466 0
M  V30 1410 H 128.576 2.56622 -1.54808 0
M  V30 1411 H 126.137 1.30551 -0.957494 0
M  V30 1412 H 128.129 4.01222 0.529415 0
M  V30 1413 H 126.699 3.00409 0.864466 0
M  V30 1414 H 125.919 3.62804 -1.54165 0
M  V30 1415 H 127.207 4.84577 -1.5512 0
M  V30 1416 H 126.605 5.43325 1.57526 0
M  V30 1417 H 125.162 6.35633 1.44272 0
M  V30 1418 N 128.595 0.856903 1.32268 0
M  V30 1419 C 129.82 0.474569 2.01897 0
M  V30 1420 C 130.245 -0.921766 1.63967 0
M  V30 1421 O 129.603 -1.60589 0.84148 0
M  V30 1422 C 129.651 0.623799 3.55164 0
M  V30 1423 O 128.755 -0.342459 4.10976 0
M  V30 1424 H 128.096 0.190422 0.63611 0
M  V30 1425 H 130.626 1.15672 1.68764 0
M  V30 1426 H 130.636 0.512169 4.04773 0
M  V30 1427 H 129.311 1.64202 3.82113 0
M  V30 1428 H 127.888 -0.18688 3.72431 0
M  V30 1429 N 130.073 -1.45103 0.615059 0
M  V30 1430 C 131.319 -2.02483 0.113347 0
M  V30 1431 C 131.652 -1.48146 -1.25564 0
M  V30 1432 O 130.927 -0.659104 -1.82992 0
M  V30 1433 C 131.21 -3.60005 0.0825278 0
M  V30 1434 C 131.063 -4.2466 1.48271 0
M  V30 1435 C 132.382 -4.35972 -0.601401 0
M  V30 1436 H 129.501 -0.735764 0.0426632 0
M  V30 1437 H 132.143 -1.72868 0.788461 0
M  V30 1438 H 130.293 -3.85367 -0.492378 0
M  V30 1439 H 131.965 -4.10458 2.10527 0
M  V30 1440 H 130.208 -3.82772 2.04127 0
M  V30 1441 H 130.879 -5.336 1.41332 0
M  V30 1442 H 133.355 -4.15947 -0.112666 0
M  V30 1443 H 132.231 -5.45697 -0.592097 0
M  V30 1444 H 132.492 -4.09391 -1.66887 0
M  V30 1445 N 131.551 -0.354651 -1.53558 0
M  V30 1446 C 132.8 0.239504 -2.00273 0
M  V30 1447 C 133.113 1.50759 -1.24623 0
M  V30 1448 O 134.319 2.17968 -1.61871 0
M  V30 1449 C 132.775 0.477341 -3.5672 0
M  V30 1450 C 132.383 -0.775488 -4.41237 0
M  V30 1451 C 134.127 1.02975 -4.11821 0
M  V30 1452 C 132.034 -0.507838 -5.89216 0
M  V30 1453 H 130.964 0.0932743 -0.748208 0
M  V30 1454 H 133.615 -0.471701 -1.77334 0
M  V30 1455 H 131.997 1.24953 -3.7577 0
M  V30 1456 H 133.171 -1.54963 -4.33962 0
M  V30 1457 H 131.486 -1.25033 -3.97185 0
M  V30 1458 H 134.083 1.24513 -5.2 0
M  V30 1459 H 134.426 1.98862 -3.65731 0
M  V30 1460 H 134.959 0.317994 -3.96527 0
M  V30 1461 H 131.698 -1.43674 -6.39561 0
M  V30 1462 H 131.218 0.228011 -5.99366 0
M  V30 1463 H 132.897 -0.129238 -6.46871 0
M  V30 1464 N 133.029 1.57378 -0.0835403 0
M  V30 1465 C 133.939 2.16897 0.894021 0
M  V30 1466 C 134.955 1.13528 1.31861 0
M  V30 1467 O 136.131 1.45848 1.3889 0
M  V30 1468 C 133.196 2.72831 2.13925 0
M  V30 1469 C 132.257 3.91115 1.76997 0
M  V30 1470 C 131.49 4.44371 2.95584 0
M  V30 1471 O 131.713 3.96596 4.09961 0
M  V30 1472 O 130.647 5.35549 2.74719 0
M  V30 1473 H 134.473 3.00814 0.417679 0
M  V30 1474 H 132.058 1.48741 0.140181 0
M  V30 1475 H 133.94 3.0863 2.86924 0
M  V30 1476 H 132.615 1.91967 2.60635 0
M  V30 1477 H 131.522 3.60148 1.01214 0
M  V30 1478 H 132.855 4.73307 1.3506 0
M  V30 1479 N 134.507 -0.190092 1.56449 0
M  V30 1480 C 135.455 -1.25501 1.95837 0
M  V30 1481 C 136.449 -1.4685 0.844485 0
M  V30 1482 O 137.655 -1.47651 1.02952 0
M  V30 1483 H 134.03 -0.421447 0.622805 0
M  V30 1484 H 136.001 -0.895821 2.84636 0
M  V30 1485 C 134.75 -2.59124 2.31841 0
M  V30 1486 H 134.073 -2.43514 3.17082 0
M  V30 1487 H 135.513 -3.32371 2.6326 0
M  V30 1488 C 133.972 -3.16488 1.15486 0
M  V30 1489 O 134.502 -3.99365 0.432535 0
M  V30 1490 N 132.708 -2.75305 0.930349 0
M  V30 1491 H 132.255 -2.08013 1.51948 0
M  V30 1492 H 132.213 -3.14024 0.153634 0
M  V30 1493 N 135.985 -1.50799 -0.457987 0
M  V30 1494 C 137.231 -1.62683 -1.21088 0
M  V30 1495 C 137.564 -0.332268 -1.91336 0
M  V30 1496 O 136.839 0.667043 -1.82704 0
M  V30 1497 C 137.122 -2.81615 -2.24422 0
M  V30 1498 C 136.975 -4.20989 -1.58392 0
M  V30 1499 C 138.294 -2.96085 -3.2561 0
M  V30 1500 H 135.413 -0.592087 -0.438864 0
M  V30 1501 H 138.055 -1.83225 -0.50286 0
M  V30 1502 H 136.205 -2.64231 -2.84806 0
M  V30 1503 H 137.877 -4.49994 -1.01504 0
M  V30 1504 H 136.12 -4.24641 -0.886704 0
M  V30 1505 H 136.791 -5.0016 -2.33547 0
M  V30 1506 H 139.267 -3.12042 -2.75262 0
M  V30 1507 H 138.143 -3.80902 -3.95228 0
M  V30 1508 H 138.404 -2.0726 -3.90507 0
M  V30 1509 N 137.463 0.71206 -1.40597 0
M  V30 1510 C 138.711 1.46907 -1.38791 0
M  V30 1511 C 139.032 1.94998 0.00780391 0
M  V30 1512 O 138.302 1.70587 0.963174 0
M  V30 1513 H 136.882 0.545043 -0.51082 0
M  V30 1514 H 139.544 0.843882 -1.75683 0
M  V30 1515 H 138.64 2.34021 -2.06496 0
M  V30 1516 N 138.941 1.26152 0.944643 0
M  V30 1517 C 140.189 1.11271 1.6871 0
M  V30 1518 C 140.51 -0.345166 1.91921 0
M  V30 1519 O 139.78 -1.24387 1.51343 0
M  V30 1520 H 138.36 0.408783 0.625224 0
M  V30 1521 H 141.022 1.58427 1.1352 0
M  V30 1522 H 140.118 1.62879 2.66227 0
M  V30 1523 N 140.419 -1.14872 1.07899 0
M  V30 1524 C 141.366 -2.19791 0.704319 0
M  V30 1525 C 142.336 -1.63238 -0.306987 0
M  V30 1526 O 143.521 -1.8983 -0.192171 0
M  V30 1527 C 140.661 -3.44911 0.114244 0
M  V30 1528 C 139.774 -4.15637 1.1777 0
M  V30 1529 C 138.909 -5.28324 0.552037 0
M  V30 1530 C 137.948 -5.90875 1.59789 0
M  V30 1531 N 137.085 -6.95022 0.994404 0
M  V30 1532 H 141.925 -2.5119 1.60336 0
M  V30 1533 H 139.462 -1.23356 0.801352 0
M  V30 1534 H 141.42 -4.16477 -0.245544 0
M  V30 1535 H 140.05 -3.14011 -0.74813 0
M  V30 1536 H 139.102 -3.42512 1.65499 0
M  V30 1537 H 140.414 -4.5823 1.97046 0
M  V30 1538 H 139.568 -6.06538 0.1402 0
M  V30 1539 H 138.307 -4.86939 -0.272431 0
M  V30 1540 H 137.312 -5.11369 2.01945 0
M  V30 1541 H 138.537 -6.34337 2.42474 0
M  V30 1542 H 136.483 -6.55722 0.190939 0
M  V30 1543 H 136.4 -7.36073 1.72432 0
M  V30 1544 H 137.668 -7.77123 0.608253 0
M  V30 1545 N 141.898 -0.863906 -1.31812 0
M  V30 1546 C 143.147 -0.46801 -1.96195 0
M  V30 1547 C 143.46 0.983474 -1.69077 0
M  V30 1548 O 144.666 1.48523 -2.27273 0
M  V30 1549 C 143.122 -0.785995 -3.51212 0
M  V30 1550 C 142.73 -2.25383 -3.87178 0
M  V30 1551 C 144.474 -0.458274 -4.22019 0
M  V30 1552 C 142.381 -2.51455 -5.3528 0
M  V30 1553 H 141.311 -0.171283 -0.734287 0
M  V30 1554 H 143.962 -1.05597 -1.50072 0
M  V30 1555 H 142.344 -0.127359 -3.95795 0
M  V30 1556 H 143.518 -2.95502 -3.53575 0
M  V30 1557 H 141.833 -2.54698 -3.2942 0
M  V30 1558 H 144.43 -0.630369 -5.30971 0
M  V30 1559 H 144.773 0.600834 -4.11941 0
M  V30 1560 H 145.306 -1.07319 -3.8305 0
M  V30 1561 H 142.045 -3.56025 -5.50387 0
M  V30 1562 H 141.565 -1.85923 -5.70257 0
M  V30 1563 H 143.244 -2.35874 -6.02472 0
M  V30 1564 N 143.376 1.44774 -0.622745 0
M  V30 1565 C 144.623 2.02121 -0.1239 0
M  V30 1566 C 144.951 1.48915 1.25118 0
M  V30 1567 O 144.206 0.660045 1.84233 0
M  V30 1568 C 144.505 3.57364 -0.0508323 0
M  V30 1569 C 144.171 4.29787 -1.36358 0
M  V30 1570 C 142.833 4.4929 -1.72314 0
M  V30 1571 C 145.185 4.71062 -2.23048 0
M  V30 1572 C 142.513 5.07325 -2.94682 0
M  V30 1573 C 144.865 5.30452 -3.44679 0
M  V30 1574 C 143.529 5.48175 -3.80868 0
M  V30 1575 H 142.799 0.739612 -0.0453381 0
M  V30 1576 H 145.446 1.73648 -0.807389 0
M  V30 1577 H 143.751 3.85202 0.715991 0
M  V30 1578 H 145.448 3.99456 0.351533 0
M  V30 1579 H 142.038 4.14932 -1.07375 0
M  V30 1580 H 146.222 4.55715 -1.96565 0
M  V30 1581 H 141.478 5.19235 -3.22809 0
M  V30 1582 H 145.652 5.61385 -4.12092 0
M  V30 1583 H 143.279 5.92912 -4.75773 0
M  V30 1584 N 144.854 0.36279 1.53368 0
M  V30 1585 C 146.082 -0.228613 2.05633 0
M  V30 1586 C 146.497 -1.42676 1.23649 0
M  V30 1587 O 145.854 -1.80394 0.27647 0
M  V30 1588 C 145.905 -0.624845 3.56059 0
M  V30 1589 O 145.626 0.525675 4.34935 0
M  V30 1590 C 147.127 -1.27493 4.24571 0
M  V30 1591 H 144.347 -0.0407183 0.669763 0
M  V30 1592 H 146.891 0.520352 1.97769 0
M  V30 1593 H 145.046 -1.32373 3.64083 0
M  V30 1594 H 145.46 0.205969 5.24095 0
M  V30 1595 H 146.934 -1.50277 5.31151 0
M  V30 1596 H 147.411 -2.23439 3.78116 0
M  V30 1597 H 148.017 -0.617558 4.20792 0
M  V30 1598 N 146.332 -1.57332 0.0918853 0
M  V30 1599 C 147.579 -1.94236 -0.572577 0
M  V30 1600 C 147.907 -0.973398 -1.6839 0
M  V30 1601 O 147.162 0.00756912 -1.95699 0
M  V30 1602 C 147.461 -3.37689 -1.17051 0
M  V30 1603 C 147.127 -4.50527 -0.183304 0
M  V30 1604 C 145.789 -4.81119 0.0882276 0
M  V30 1605 C 148.141 -5.18883 0.49095 0
M  V30 1606 C 145.469 -5.77395 1.04076 0
M  V30 1607 C 147.821 -6.1618 1.43193 0
M  V30 1608 C 146.485 -6.45179 1.71173 0
M  V30 1609 H 145.755 -0.710762 -0.209521 0
M  V30 1610 H 148.402 -1.9077 0.167036 0
M  V30 1611 H 146.707 -3.37718 -1.9863 0
M  V30 1612 H 148.404 -3.63543 -1.69227 0
M  V30 1613 H 144.994 -4.26681 -0.405124 0
M  V30 1614 H 149.178 -4.95427 0.294312 0
M  V30 1615 H 144.434 -5.98179 1.26457 0
M  V30 1616 H 148.608 -6.68243 1.96023 0
M  V30 1617 H 146.235 -7.1959 2.4514 0
M  V30 1618 N 147.81 0.181792 -1.56548 0
M  V30 1619 C 149.058 0.89832 -1.81038 0
M  V30 1620 C 149.379 1.83232 -0.667164 0
M  V30 1621 O 148.649 1.93372 0.313673 0
M  V30 1622 H 147.229 0.33471 -0.667816 0
M  V30 1623 H 149.891 0.184116 -1.94028 0
M  V30 1624 H 148.987 1.4815 -2.74696 0
M  V30 1625 N 149.288 1.51039 0.449983 0
M  V30 1626 C 150.513 1.6715 1.22783 0
M  V30 1627 C 150.938 0.363081 1.84563 0
M  V30 1628 O 150.296 -0.675433 1.68249 0
M  V30 1629 C 150.344 2.77985 2.29689 0
M  V30 1630 O 149.448 2.40707 3.34864 0
M  V30 1631 H 148.789 0.557746 0.360299 0
M  V30 1632 H 151.319 1.97535 0.533005 0
M  V30 1633 H 151.329 3.01693 2.74673 0
M  V30 1634 H 150.004 3.72935 1.84098 0
M  V30 1635 H 148.581 2.27523 2.95445 0
M  V30 1636 N 150.766 -0.704594 1.40972 0
M  V30 1637 C 151.996 -1.49138 1.42974 0
M  V30 1638 C 152.404 -1.89175 0.0308406 0
M  V30 1639 O 151.747 -1.56734 -0.958138 0
M  V30 1640 C 151.809 -2.79016 2.26694 0
M  V30 1641 C 151.473 -2.61236 3.74973 0
M  V30 1642 C 152.47 -2.27773 4.67349 0
M  V30 1643 C 150.155 -2.77158 4.18914 0
M  V30 1644 C 152.149 -2.10457 6.01653 0
M  V30 1645 C 149.836 -2.59459 5.53285 0
M  V30 1646 C 150.834 -2.26158 6.4447 0
M  V30 1647 O 150.522 -2.08605 7.76363 0
M  V30 1648 H 150.254 -0.466443 0.489292 0
M  V30 1649 H 152.808 -0.8758 1.85793 0
M  V30 1650 H 151.038 -3.42947 1.78673 0
M  V30 1651 H 152.727 -3.40782 2.20504 0
M  V30 1652 H 153.493 -2.15095 4.34694 0
M  V30 1653 H 149.372 -3.02064 3.48251 0
M  V30 1654 H 152.916 -1.84387 6.72791 0
M  V30 1655 H 148.813 -2.71725 5.85522 0
M  V30 1656 H 149.581 -2.23439 7.87412 0
M  V30 1657 N 152.244 -1.26651 -0.937939 0
M  V30 1658 C 153.66 -1.03834 -1.21205 0
M  V30 1659 C 153.86 0.234502 -2.00131 0
M  V30 1660 O 152.916 0.942767 -2.3424 0
M  V30 1661 C 154.229 -2.27167 -1.97017 0
M  V30 1662 C 155.777 -2.32101 -2.09996 0
M  V30 1663 C 156.252 -3.55136 -2.8921 0
M  V30 1664 N 157.743 -3.55632 -2.96783 0
M  V30 1665 C 158.478 -4.475 -3.58512 0
M  V30 1666 N 157.974 -5.4966 -4.21717 0
M  V30 1667 N 159.767 -4.35145 -3.55816 0
M  V30 1668 H 151.918 -2.08398 -0.410391 0
M  V30 1669 H 154.181 -0.916031 -0.244114 0
M  V30 1670 H 153.887 -3.19765 -1.46434 0
M  V30 1671 H 153.761 -2.31672 -2.97671 0
M  V30 1672 H 156.148 -1.40015 -2.59769 0
M  V30 1673 H 156.229 -2.31605 -1.08594 0
M  V30 1674 H 155.873 -4.47553 -2.40123 0
M  V30 1675 H 155.803 -3.5288 -3.90875 0
M  V30 1676 H 158.294 -2.81743 -2.51852 0
M  V30 1677 H 158.607 -6.15943 -4.66727 0
M  V30 1678 H 156.952 -5.53514 -4.20294 0
M  V30 1679 H 160.143 -3.5455 -3.05634 0
M  V30 1680 H 160.316 -5.06934 -4.03636 0
M  V30 1681 N 153.722 1.14298 -1.08507 0
M  V30 1682 C 154.652 2.21542 -0.737646 0
M  V30 1683 C 155.633 1.67773 0.280377 0
M  V30 1684 O 156.818 1.93616 0.150521 0
M  V30 1685 C 153.948 3.46988 -0.147259 0
M  V30 1686 C 152.902 4.13789 -1.09374 0
M  V30 1687 C 152.228 5.33449 -0.365524 0
M  V30 1688 C 153.528 4.62208 -2.4323 0
M  V30 1689 H 155.222 2.5086 -1.6343 0
M  V30 1690 H 152.768 1.20576 -0.787243 0
M  V30 1691 H 154.721 4.21262 0.107808 0
M  V30 1692 H 153.445 3.17037 0.784538 0
M  V30 1693 H 152.104 3.4147 -1.33393 0
M  V30 1694 H 151.752 4.99759 0.57011 0
M  V30 1695 H 151.452 5.79088 -0.996512 0
M  V30 1696 H 152.976 6.10485 -0.118534 0
M  V30 1697 H 154.39 5.27952 -2.23472 0
M  V30 1698 H 152.787 5.18553 -3.02031 0
M  V30 1699 H 153.857 3.77224 -3.04681 0
M  V30 1700 N 155.201 0.870884 1.31352 0
M  V30 1701 C 156.449 0.48132 1.96285 0
M  V30 1702 C 156.77 -0.969813 1.69173 0
M  V30 1703 O 156.04 -1.67998 1.00764 0
M  V30 1704 H 154.62 0.175002 0.726212 0
M  V30 1705 H 157.282 1.11087 1.60143 0
M  V30 1706 H 156.378 0.639825 3.05471 0
M  V30 1707 N 156.679 -1.44442 0.630414 0
M  V30 1708 C 157.925 -2.02351 0.134816 0
M  V30 1709 C 158.258 -1.4947 -1.23986 0
M  V30 1710 O 157.533 -0.678475 -1.82283 0
M  V30 1711 C 157.816 -3.59898 0.120707 0
M  V30 1712 C 157.669 -4.23063 1.52767 0
M  V30 1713 C 158.988 -4.36585 -0.555127 0
M  V30 1714 H 156.107 -0.73527 0.0504646 0
M  V30 1715 H 158.749 -1.72022 0.806751 0
M  V30 1716 H 156.899 -3.85868 -0.451477 0
M  V30 1717 H 158.571 -4.08202 2.14869 0
M  V30 1718 H 156.814 -3.80586 2.08175 0
M  V30 1719 H 157.485 -5.32071 1.46984 0
M  V30 1720 H 159.961 -4.16044 -0.0685429 0
M  V30 1721 H 158.837 -5.46294 -0.534185 0
M  V30 1722 H 159.098 -4.11138 -1.62535 0
M  V30 1723 N 158.157 -0.370918 -1.53173 0
M  V30 1724 C 159.107 0.489588 -2.22681 0
M  V30 1725 C 160.091 1.04442 -1.22395 0
M  V30 1726 O 161.283 0.973578 -1.47819 0
M  V30 1727 C 158.412 1.626 -3.02351 0
M  V30 1728 C 157.498 1.08379 -4.10018 0
M  V30 1729 N 157.889 0.265004 -5.05105 0
M  V30 1730 C 156.187 1.35809 -4.2482 0
M  V30 1731 C 156.888 -0.0324755 -5.81691 0
M  V30 1732 N 155.864 0.566581 -5.40639 0
M  V30 1733 H 159.666 -0.142729 -2.93553 0
M  V30 1734 H 157.18 -0.179221 -1.61408 0
M  V30 1735 H 159.177 2.2547 -3.50669 0
M  V30 1736 H 157.837 2.26132 -2.33011 0
M  V30 1737 H 158.848 -0.0962352 -5.17811 0
M  V30 1738 H 155.525 1.9958 -3.66707 0
M  V30 1739 H 156.915 -0.69473 -6.68299 0
M  V30 1740 N 159.635 1.57281 -0.100228 0
M  V30 1741 C 160.863 1.98879 0.570509 0
M  V30 1742 C 161.278 0.979476 1.61405 0
M  V30 1743 O 160.635 -0.0302288 1.82475 0
M  V30 1744 C 160.686 3.4052 1.2136 0
M  V30 1745 O 160.407 4.37588 0.211786 0
M  V30 1746 C 161.908 3.97149 1.96945 0
M  V30 1747 H 159.128 0.653428 0.152555 0
M  V30 1748 H 161.672 2.03697 -0.18103 0
M  V30 1749 H 159.827 3.367 1.91603 0
M  V30 1750 H 160.241 5.20118 0.676607 0
M  V30 1751 H 161.715 4.98393 2.37294 0
M  V30 1752 H 162.192 3.3525 2.83733 0
M  V30 1753 H 162.798 4.04458 1.31506 0
M  V30 1754 N 161.113 -0.173488 1.56642 0
M  V30 1755 C 162.06 -1.21482 1.96242 0
M  V30 1756 C 163.03 -1.44104 0.826027 0
M  V30 1757 O 164.215 -1.5688 1.08597 0
M  V30 1758 C 161.355 -2.54964 2.32567 0
M  V30 1759 C 160.468 -2.39739 3.59373 0
M  V30 1760 C 159.603 -3.66072 3.84921 0
M  V30 1761 C 158.642 -3.45771 5.05083 0
M  V30 1762 N 157.779 -4.64169 5.26775 0
M  V30 1763 H 162.619 -0.870123 2.85014 0
M  V30 1764 H 160.156 -0.418245 1.41029 0
M  V30 1765 H 162.114 -3.32758 2.5165 0
M  V30 1766 H 160.744 -2.87433 1.46908 0
M  V30 1767 H 159.796 -1.53131 3.48217 0
M  V30 1768 H 161.108 -2.20683 4.47326 0
M  V30 1769 H 160.262 -4.52303 4.0436 0
M  V30 1770 H 159.001 -3.88105 2.9534 0
M  V30 1771 H 158.006 -2.57927 4.85545 0
M  V30 1772 H 159.231 -3.25163 5.96193 0
M  V30 1773 H 157.177 -4.86425 4.40144 0
M  V30 1774 H 157.094 -4.48019 6.08946 0
M  V30 1775 H 158.362 -5.51689 5.5069 0
M  V30 1776 N 162.591 -1.51276 -0.441967 0
M  V30 1777 C 163.839 -1.63392 -1.18943 0
M  V30 1778 C 164.16 -0.350159 -1.9183 0
M  V30 1779 O 163.43 0.633784 -1.85364 0
M  V30 1780 H 162.01 -0.602164 -0.442049 0
M  V30 1781 H 164.672 -1.88186 -0.507165 0
M  V30 1782 H 163.768 -2.45934 -1.92154 0
M  V30 1783 N 164.069 0.697108 -1.41344 0
M  V30 1784 C 165.032 1.79281 -1.42797 0
M  V30 1785 C 166.032 1.57607 -0.318837 0
M  V30 1786 O 167.222 1.64309 -0.578642 0
M  V30 1787 C 164.354 3.17632 -1.23785 0
M  V30 1788 H 165.547 1.79385 -2.40335 0
M  V30 1789 H 163.1 0.904582 -1.27464 0
M  V30 1790 H 163.835 3.23167 -0.270814 0
M  V30 1791 H 163.62 3.34765 -2.04144 0
M  V30 1792 H 165.11 3.97617 -1.27633 0
M  V30 1793 N 165.547 1.27147 0.931209 0
M  V30 1794 C 166.824 1.0401 1.65654 0
M  V30 1795 C 167.204 -0.426297 2.06751 0
M  V30 1796 O 166.552 -1.40879 1.79904 0
M  V30 1797 C 166.762 1.99834 2.86125 0
M  V30 1798 C 168.11 2.29007 3.57549 0
M  V30 1799 O 169.134 1.97779 2.96246 0
M  V30 1800 O 167.993 2.82222 4.67989 0
M  V30 1801 H 165.087 0.396239 0.725895 0
M  V30 1802 H 167.633 1.38397 0.982056 0
M  V30 1803 H 166.405 2.98744 2.52721 0
M  V30 1804 H 166.028 1.65987 3.61295 0
M  V30 1805 N 167.025 -1.13721 1.09112 0
M  V30 1806 C 168.274 -1.84275 0.82009 0
M  V30 1807 C 168.587 -1.84253 -0.656509 0
M  V30 1808 O 169.793 -2.50668 -1.04296 0
M  V30 1809 C 168.249 -3.30825 1.41714 0
M  V30 1810 C 167.857 -3.39244 2.92605 0
M  V30 1811 C 169.601 -4.06443 1.22492 0
M  V30 1812 C 167.508 -4.80047 3.45411 0
M  V30 1813 H 166.438 -0.690387 0.30312 0
M  V30 1814 H 169.089 -1.28146 1.31343 0
M  V30 1815 H 167.471 -3.86737 0.851498 0
M  V30 1816 H 168.645 -2.93344 3.55367 0
M  V30 1817 H 166.96 -2.77088 3.10823 0
M  V30 1818 H 169.557 -5.10387 1.59402 0
M  V30 1819 H 169.9 -4.15972 0.165299 0
M  V30 1820 H 170.433 -3.56852 1.75788 0
M  V30 1821 H 167.172 -4.75709 4.50978 0
M  V30 1822 H 166.692 -5.26455 2.87411 0
M  V30 1823 H 168.371 -5.48957 3.42425 0
M  V30 1824 N 168.503 -0.877838 -1.30888 0
M  V30 1825 C 169.78 -0.413052 -1.91189 0
M  V30 1826 C 170.16 1.1056 -1.79832 0
M  V30 1827 O 169.508 1.93771 -1.21099 0
M  V30 1828 C 169.718 -0.903191 -3.3711 0
M  V30 1829 C 171.066 -0.93395 -4.14201 0
M  V30 1830 O 172.09 -0.849373 -3.45925 0
M  V30 1831 O 170.949 -1.05772 -5.36167 0
M  V30 1832 H 168.043 -0.125035 -0.817493 0
M  V30 1833 H 170.589 -0.966269 -1.39504 0
M  V30 1834 H 169.361 -1.94692 -3.39427 0
M  V30 1835 H 168.984 -0.328732 -3.96239 0
M  V30 1836 N 169.982 1.44106 -0.638065 0
M  V30 1837 C 170.945 2.29138 0.0531013 0
M  V30 1838 C 171.945 1.41409 0.765506 0
M  V30 1839 O 173.135 1.63206 0.609046 0
M  V30 1840 C 170.267 3.23144 1.08584 0
M  V30 1841 H 171.46 2.91739 -0.694883 0
M  V30 1842 H 169.013 1.51134 -0.398538 0
M  V30 1843 H 169.748 2.65408 1.86357 0
M  V30 1844 H 169.533 3.87804 0.578852 0
M  V30 1845 H 171.023 3.87004 1.56899 0
M  V30 1846 N 171.46 0.379036 1.52974 0
M  V30 1847 C 172.39 -0.452706 2.29069 0
M  V30 1848 C 173.371 -1.07237 1.32039 0
M  V30 1849 O 174.556 -1.08708 1.60923 0
M  V30 1850 C 171.686 -1.5856 3.08992 0
M  V30 1851 C 170.64 -1.0925 4.13822 0
M  V30 1852 C 169.966 -2.31668 4.81907 0
M  V30 1853 C 171.266 -0.167702 5.22031 0
M  V30 1854 H 172.96 0.182181 2.98845 0
M  V30 1855 H 170.506 0.0890592 1.43724 0
M  V30 1856 H 172.459 -2.1742 3.6098 0
M  V30 1857 H 171.183 -2.24792 2.36931 0
M  V30 1858 H 169.842 -0.526494 3.628 0
M  V30 1859 H 169.49 -2.96386 4.06404 0
M  V30 1860 H 169.19 -1.9934 5.52754 0
M  V30 1861 H 170.714 -2.91189 5.36695 0
M  V30 1862 H 172.128 -0.664186 5.6944 0
M  V30 1863 H 170.525 0.0653265 6.00064 0
M  V30 1864 H 171.595 0.786347 4.78482 0
M  V30 1865 N 172.938 -1.57226 0.108567 0
M  V30 1866 C 174.178 -1.96717 -0.555155 0
M  V30 1867 C 174.542 -0.990003 -1.64508 0
M  V30 1868 O 175.743 -1.2739 -2.36696 0
M  V30 1869 C 174.014 -3.40575 -1.08367 0
M  V30 1870 S 175.573 -4.02072 -1.75737 0
M  V30 1871 H 172.391 -0.687638 -0.180762 0
M  V30 1872 H 174.993 -1.94563 0.191172 0
M  V30 1873 H 173.697 -4.0945 -0.279092 0
M  V30 1874 H 173.228 -3.46356 -1.86551 0
M  V30 1875 H 175.243 -3.91977 -3.04251 0
M  V30 1876 N 174.416 0.165178 -1.56732 0
M  V30 1877 C 175.662 0.882112 -1.82611 0
M  V30 1878 C 175.995 1.81628 -0.687378 0
M  V30 1879 O 175.27 1.92009 0.310267 0
M  V30 1880 C 175.553 1.67245 -3.18906 0
M  V30 1881 C 175.406 0.760987 -4.43316 0
M  V30 1882 C 176.725 2.63884 -3.52212 0
M  V30 1883 H 173.844 0.319242 -0.664269 0
M  V30 1884 H 176.486 0.148052 -1.89422 0
M  V30 1885 H 174.636 2.29824 -3.1323 0
M  V30 1886 H 176.308 0.147596 -4.61064 0
M  V30 1887 H 174.551 0.0694102 -4.33744 0
M  V30 1888 H 175.222 1.34962 -5.35247 0
M  V30 1889 H 177.698 2.11429 -3.58381 0
M  V30 1890 H 176.574 3.16245 -4.48643 0
M  V30 1891 H 176.835 3.44377 -2.77231 0
M  V30 1892 N 175.894 1.51508 0.433938 0
M  V30 1893 C 176.857 1.72473 1.50949 0
M  V30 1894 C 177.857 0.594725 1.49398 0
M  V30 1895 O 179.047 0.862315 1.5136 0
M  V30 1896 C 176.179 1.78431 2.90474 0
M  V30 1897 H 177.372 2.68467 1.33662 0
M  V30 1898 H 174.925 1.41549 0.662836 0
M  V30 1899 H 175.66 0.842645 3.13161 0
M  V30 1900 H 175.445 2.60558 2.93005 0
M  V30 1901 H 176.935 1.96479 3.68491 0
M  V30 1902 N 177.372 -0.689602 1.41712 0
M  V30 1903 C 178.783 -1.26973 1.36875 0
M  V30 1904 C 179.134 -1.96124 0.054748 0
M  V30 1905 O 178.259 -1.99141 -0.84687 0
M  V30 1906 C 178.854 -2.30912 2.47922 0
M  V30 1907 C 177.413 -2.84486 2.46464 0
M  V30 1908 C 176.56 -1.58603 2.27465 0
M  V30 1909 H 179.511 -0.48396 1.51141 0
M  V30 1910 H 179.532 -3.12331 2.17323 0
M  V30 1911 H 179.044 -1.80554 3.43543 0
M  V30 1912 H 177.145 -3.39005 1.54617 0
M  V30 1913 H 177.258 -3.34511 3.42986 0
M  V30 1914 H 175.622 -1.84632 1.75451 0
M  V30 1915 H 176.405 -1.10233 3.25121 0
M  V30 1916 N 178.85 -1.27639 -0.924453 0
M  V30 1917 C 180.266 -1.05113 -1.20097 0
M  V30 1918 C 180.466 0.213262 -2.00368 0
M  V30 1919 O 179.522 0.91787 -2.35226 0
M  V30 1920 C 180.835 -2.29244 -1.94596 0
M  V30 1921 C 182.383 -2.34315 -2.07522 0
M  V30 1922 C 182.858 -3.58183 -2.85427 0
M  V30 1923 N 184.349 -3.5876 -2.92994 0
M  V30 1924 C 185.084 -4.51277 -3.53746 0
M  V30 1925 N 184.58 -5.54102 -4.15863 0
M  V30 1926 N 186.373 -4.38894 -3.51181 0
M  V30 1927 H 178.524 -2.08821 -0.388264 0
M  V30 1928 H 180.787 -0.918568 -0.234385 0
M  V30 1929 H 180.493 -3.21301 -1.43034 0
M  V30 1930 H 180.367 -2.34816 -2.95197 0
M  V30 1931 H 182.754 -1.42762 -2.58269 0
M  V30 1932 H 182.835 -2.32744 -1.06131 0
M  V30 1933 H 182.479 -4.50074 -2.35363 0
M  V30 1934 H 182.409 -3.57006 -3.8711 0
M  V30 1935 H 184.9 -2.84398 -2.4885 0
M  V30 1936 H 185.213 -6.20859 -4.60168 0
M  V30 1937 H 183.558 -5.57941 -4.144 0
M  V30 1938 H 186.749 -3.57772 -3.01856 0
M  V30 1939 H 186.922 -5.11186 -3.98237 0
M  V30 1940 N 180.328 1.1314 -1.09713 0
M  V30 1941 C 181.278 2.16709 -0.708593 0
M  V30 1942 C 182.262 1.58471 0.278523 0
M  V30 1943 O 183.454 1.76779 0.088427 0
M  V30 1944 C 180.583 3.43039 -0.133923 0
M  V30 1945 C 179.669 4.08277 -1.14763 0
M  V30 1946 N 180.06 4.48637 -2.33577 0
M  V30 1947 C 178.358 4.34954 -0.986446 0
M  V30 1948 C 179.059 4.9952 -2.98085 0
M  V30 1949 N 178.035 4.94561 -2.25632 0
M  V30 1950 H 181.837 2.45672 -1.61315 0
M  V30 1951 H 179.351 1.29967 -0.973775 0
M  V30 1952 H 181.348 4.16583 0.162465 0
M  V30 1953 H 180.008 3.15549 0.765447 0
M  V30 1954 H 181.019 4.41246 -2.7115 0
M  V30 1955 H 177.696 4.17258 -0.142008 0
M  V30 1956 H 179.086 5.40521 -3.99108 0
M  V30 1957 N 181.806 0.884767 1.30421 0
M  V30 1958 C 183.052 0.503851 1.96441 0
M  V30 1959 C 183.385 -0.944518 1.69684 0
M  V30 1960 O 182.66 -1.66737 1.00145 0
M  V30 1961 C 182.943 0.779085 3.51571 0
M  V30 1962 C 182.796 2.27807 3.87846 0
M  V30 1963 C 184.115 0.255452 4.39358 0
M  V30 1964 H 181.234 0.184533 0.713524 0
M  V30 1965 H 183.876 1.10872 1.54297 0
M  V30 1966 H 182.026 0.264274 3.876 0
M  V30 1967 H 183.698 2.86127 3.61841 0
M  V30 1968 H 181.941 2.74479 3.35922 0
M  V30 1969 H 182.612 2.42125 4.96064 0
M  V30 1970 H 185.088 0.696079 4.10236 0
M  V30 1971 H 183.964 0.477361 5.4682 0
M  V30 1972 H 184.225 -0.843293 4.33983 0
M  V30 1973 N 183.284 -1.43765 0.645699 0
M  V30 1974 C 184.561 -1.9541 0.0862963 0
M  V30 1975 C 184.941 -1.58725 -1.39175 0
M  V30 1976 O 184.289 -0.868581 -2.11348 0
M  V30 1977 C 184.499 -3.47488 0.324565 0
M  V30 1978 C 185.847 -4.24001 0.225497 0
M  V30 1979 O 186.871 -3.55274 0.256715 0
M  V30 1980 O 185.73 -5.46313 0.142801 0
M  V30 1981 H 182.824 -0.826882 -0.0139483 0
M  V30 1982 H 185.37 -1.53743 0.718415 0
M  V30 1983 H 184.142 -3.67289 1.3496 0
M  V30 1984 H 183.765 -3.96135 -0.340987 0
M  V30 1985 N 184.763 -0.387143 -1.52771 0
M  V30 1986 C 186.179 -0.037007 -1.59557 0
M  V30 1987 C 186.379 1.44801 -1.40124 0
M  V30 1988 O 185.435 2.21227 -1.21716 0
M  V30 1989 C 186.748 -0.512256 -2.96305 0
M  V30 1990 C 188.296 -0.468328 -3.09476 0
M  V30 1991 C 188.771 -0.919731 -4.4867 0
M  V30 1992 N 190.262 -0.875656 -4.54848 0
M  V30 1993 C 190.997 -1.19637 -5.6078 0
M  V30 1994 N 190.493 -1.58745 -6.74368 0
M  V30 1995 N 192.286 -1.11776 -5.50874 0
M  V30 1996 H 184.437 -1.35395 -1.63652 0
M  V30 1997 H 186.7 -0.554818 -0.768688 0
M  V30 1998 H 186.406 -1.54935 -3.15734 0
M  V30 1999 H 186.28 0.089805 -3.77093 0
M  V30 2000 H 188.667 0.559671 -2.89744 0
M  V30 2001 H 188.748 -1.10616 -2.30646 0
M  V30 2002 H 188.392 -1.94595 -4.69143 0
M  V30 2003 H 188.322 -0.258927 -5.25963 0
M  V30 2004 H 190.813 -0.587843 -3.733 0
M  V30 2005 H 191.126 -1.81586 -7.51163 0
M  V30 2006 H 189.471 -1.6263 -6.75705 0
M  V30 2007 H 192.662 -0.811264 -4.61016 0
M  V30 2008 H 192.835 -1.37103 -6.3333 0
M  V30 2009 N 186.241 1.57166 -0.116904 0
M  V30 2010 C 187.466 1.999 0.55271 0
M  V30 2011 C 187.891 0.996039 1.59564 0
M  V30 2012 O 187.249 -0.032556 1.81271 0
M  V30 2013 C 187.297 3.4152 1.15742 0
M  V30 2014 O 186.401 3.44106 2.27299 0
M  V30 2015 H 185.742 0.649447 0.138258 0
M  V30 2016 H 188.272 2.03573 -0.204759 0
M  V30 2017 H 188.282 3.79684 1.49346 0
M  V30 2018 H 186.957 4.14034 0.393493 0
M  V30 2019 H 185.534 3.17759 1.9515 0
M  V30 2020 N 187.719 -0.156864 1.56817 0
M  V30 2021 C 188.996 -0.899244 1.73704 0
M  V30 2022 C 189.376 -1.99771 0.682254 0
M  V30 2023 O 188.724 -2.26515 -0.300522 0
M  V30 2024 C 188.934 -1.45075 3.17418 0
M  V30 2025 C 190.282 -1.91802 3.7881 0
M  V30 2026 O 191.306 -1.54838 3.20786 0
M  V30 2027 O 190.165 -2.5994 4.80722 0
M  V30 2028 H 187.259 -0.424267 0.709878 0
M  V30 2029 H 189.805 -0.143561 1.69092 0
M  V30 2030 H 188.577 -0.660846 3.85679 0
M  V30 2031 H 188.2 -2.27021 3.26416 0
M  V30 2032 N 189.197 -1.51736 -0.425897 0
M  V30 2033 C 190.444 -1.6497 -1.17436 0
M  V30 2034 C 190.772 -0.371445 -1.9092 0
M  V30 2035 O 190.027 0.644963 -1.84767 0
M  V30 2036 C 190.326 -2.81103 -2.20717 0
M  V30 2037 C 189.992 -4.19954 -1.64162 0
M  V30 2038 C 188.654 -4.57725 -1.48462 0
M  V30 2039 C 191.006 -5.06552 -1.22696 0
M  V30 2040 C 188.334 -5.79789 -0.897873 0
M  V30 2041 C 190.686 -6.29205 -0.654464 0
M  V30 2042 C 189.35 -6.6574 -0.484456 0
M  V30 2043 H 188.62 -0.603668 -0.429727 0
M  V30 2044 H 191.267 -1.85798 -0.463829 0
M  V30 2045 H 189.572 -2.54542 -2.97852 0
M  V30 2046 H 191.269 -2.8854 -2.78471 0
M  V30 2047 H 187.859 -3.90181 -1.77361 0
M  V30 2048 H 192.043 -4.77968 -1.33642 0
M  V30 2049 H 187.299 -6.06733 -0.75402 0
M  V30 2050 H 191.473 -6.95643 -0.324694 0
M  V30 2051 H 189.1 -7.60195 -0.0276833 0
M  V30 2052 N 190.675 0.682077 -1.42076 0
M  V30 2053 C 191.922 1.44215 -1.42156 0
M  V30 2054 C 192.25 1.94468 -0.0354186 0
M  V30 2055 O 191.505 1.70816 0.955002 0
M  V30 2056 C 191.804 2.66036 -2.38662 0
M  V30 2057 C 191.47 2.34366 -3.85206 0
M  V30 2058 C 190.132 2.25439 -4.25124 0
M  V30 2059 C 192.484 2.08513 -4.77673 0
M  V30 2060 C 189.812 1.88775 -5.55501 0
M  V30 2061 C 192.164 1.73354 -6.08384 0
M  V30 2062 C 190.828 1.62933 -6.47309 0
M  V30 2063 H 190.098 0.527718 -0.520187 0
M  V30 2064 H 192.745 0.778387 -1.74967 0
M  V30 2065 H 191.05 3.3741 -1.99152 0
M  V30 2066 H 192.747 3.24205 -2.35991 0
M  V30 2067 H 189.337 2.42213 -3.53597 0
M  V30 2068 H 193.521 2.14346 -4.47626 0
M  V30 2069 H 188.777 1.7927 -5.84527 0
M  V30 2070 H 192.951 1.52373 -6.79526 0
M  V30 2071 H 190.578 1.34292 -7.48244 0
M  V30 2072 N 192.153 1.28127 0.917671 0
M  V30 2073 C 193.381 1.17892 1.70026 0
M  V30 2074 C 193.796 -0.262958 1.8696 0
M  V30 2075 O 193.153 -1.17811 1.3938 0
M  V30 2076 C 193.204 1.86872 3.09453 0
M  V30 2077 O 192.925 3.25428 2.93306 0
M  V30 2078 C 194.426 1.8289 4.03815 0
M  V30 2079 H 191.646 0.40942 0.531617 0
M  V30 2080 H 194.19 1.69181 1.14883 0
M  V30 2081 H 192.345 1.39464 3.61426 0
M  V30 2082 H 192.759 3.59918 3.81523 0
M  V30 2083 H 194.233 2.35751 4.99125 0
M  V30 2084 H 194.71 0.800412 4.31845 0
M  V30 2085 H 195.316 2.29959 3.57769 0
M  V30 2086 N 193.631 -1.12557 1.10312 0
M  V30 2087 C 194.856 -1.88405 0.867085 0
M  V30 2088 C 195.281 -1.79038 -0.576817 0
M  V30 2089 O 194.639 -1.14439 -1.40618 0
M  V30 2090 C 194.687 -3.3563 1.31851 0
M  V30 2091 O 193.791 -4.09565 0.482734 0
M  V30 2092 H 193.132 -0.585455 0.313271 0
M  V30 2093 H 195.662 -1.42352 1.4696 0
M  V30 2094 H 195.672 -3.86469 1.3079 0
M  V30 2095 H 194.347 -3.41765 2.37001 0
M  V30 2096 H 192.924 -3.68695 0.558448 0
M  V30 2097 N 195.109 -0.891671 -1.2995 0
M  V30 2098 C 196.356 -0.513501 -1.95881 0
M  V30 2099 C 196.684 0.938655 -1.70351 0
M  V30 2100 O 195.939 1.67936 -1.00478 0
M  V30 2101 C 196.238 -0.742868 -3.49594 0
M  V30 2102 C 195.904 -2.17114 -3.95186 0
M  V30 2103 C 194.566 -2.56169 -4.07346 0
M  V30 2104 C 196.918 -3.10162 -4.18866 0
M  V30 2105 C 194.246 -3.87469 -4.4055 0
M  V30 2106 C 196.598 -4.41001 -4.53542 0
M  V30 2107 C 195.262 -4.79941 -4.63911 0
M  V30 2108 H 194.532 -0.187903 -0.71678 0
M  V30 2109 H 197.179 -1.1288 -1.54694 0
M  V30 2110 H 195.484 -0.044586 -3.91775 0
M  V30 2111 H 197.181 -0.429767 -3.9869 0
M  V30 2112 H 193.771 -1.85801 -3.86233 0
M  V30 2113 H 197.955 -2.81206 -4.08946 0
M  V30 2114 H 193.211 -4.17371 -4.46779 0
M  V30 2115 H 197.385 -5.13133 -4.70815 0
M  V30 2116 H 195.012 -5.81719 -4.89395 0
M  V30 2117 N 196.587 1.43421 -0.653314 0
M  V30 2118 C 197.817 2.05864 -0.174238 0
M  V30 2119 C 198.225 1.49052 1.16534 0
M  V30 2120 O 197.568 0.616481 1.73047 0
M  V30 2121 C 197.63 3.59499 -0.00875873 0
M  V30 2122 C 197.294 4.38893 -1.27364 0
M  V30 2123 C 198.291 4.70947 -2.20239 0
M  V30 2124 C 195.976 4.789 -1.51525 0
M  V30 2125 C 197.97 5.41916 -3.35568 0
M  V30 2126 C 195.657 5.49614 -2.67147 0
M  V30 2127 C 196.655 5.81044 -3.58994 0
M  V30 2128 O 196.343 6.50313 -4.72597 0
M  V30 2129 H 196.075 0.670345 -0.0872549 0
M  V30 2130 H 198.629 1.84913 -0.894226 0
M  V30 2131 H 196.859 3.79025 0.7666 0
M  V30 2132 H 198.548 4.0364 0.427687 0
M  V30 2133 H 199.314 4.40558 -2.02815 0
M  V30 2134 H 195.193 4.53843 -0.809158 0
M  V30 2135 H 198.737 5.66365 -4.07279 0
M  V30 2136 H 194.634 5.79419 -2.84505 0
M  V30 2137 H 195.402 6.68795 -4.71864 0
M  V30 2138 N 198.065 0.39524 1.52563 0
M  V30 2139 C 199.342 -0.242908 1.94086 0
M  V30 2140 C 199.722 -1.63841 1.33114 0
M  V30 2141 O 199.07 -2.22928 0.501529 0
M  V30 2142 C 199.28 -0.26327 3.48006 0
M  V30 2143 C 200.628 -0.489354 4.21771 0
M  V30 2144 O 201.652 -0.343226 3.54543 0
M  V30 2145 O 200.511 -0.776169 5.4096 0
M  V30 2146 H 197.605 -0.152536 0.812811 0
M  V30 2147 H 200.151 0.450178 1.6362 0
M  V30 2148 H 198.923 0.713985 3.84731 0
M  V30 2149 H 198.546 -1.00103 3.84792 0
M  V30 2150 N 199.544 -1.57102 0.125237 0
M  V30 2151 C 200.491 -2.15641 -0.822655 0
M  V30 2152 C 201.461 -1.08313 -1.25927 0
M  V30 2153 O 202.646 -1.36251 -1.33567 0
M  V30 2154 C 199.786 -2.76504 -2.06494 0
M  V30 2155 C 198.899 -3.98158 -1.67612 0
M  V30 2156 C 198.034 -4.47088 -2.86854 0
M  V30 2157 C 197.073 -5.6126 -2.44242 0
M  V30 2158 N 196.21 -6.04905 -3.56419 0
M  V30 2159 H 201.05 -2.96313 -0.316625 0
M  V30 2160 H 198.587 -1.46388 -0.144588 0
M  V30 2161 H 200.545 -3.09925 -2.79289 0
M  V30 2162 H 199.175 -1.98512 -2.54545 0
M  V30 2163 H 198.227 -3.70858 -0.846661 0
M  V30 2164 H 199.539 -4.80934 -1.32301 0
M  V30 2165 H 198.693 -4.82451 -3.67867 0
M  V30 2166 H 197.432 -3.63275 -3.25396 0
M  V30 2167 H 196.437 -5.25495 -1.61663 0
M  V30 2168 H 197.662 -6.46843 -2.0681 0
M  V30 2169 H 195.608 -5.24032 -3.94623 0
M  V30 2170 H 195.525 -6.82552 -3.25051 0
M  V30 2171 H 196.793 -6.44907 -4.37853 0
M  V30 2172 N 201.022 0.148545 -1.56898 0
M  V30 2173 C 201.952 1.18524 -2.01182 0
M  V30 2174 C 202.933 1.4489 -0.891123 0
M  V30 2175 O 204.118 1.55836 -1.15882 0
M  V30 2176 C 201.248 2.51879 -2.39112 0
M  V30 2177 C 200.202 2.40038 -3.54353 0
M  V30 2178 C 199.528 3.78089 -3.78091 0
M  V30 2179 C 200.828 1.88577 -4.87069 0
M  V30 2180 H 202.522 0.817029 -2.88036 0
M  V30 2181 H 200.068 0.391575 -1.38574 0
M  V30 2182 H 202.021 3.24627 -2.68692 0
M  V30 2183 H 200.745 2.90532 -1.49193 0
M  V30 2184 H 199.404 1.69742 -3.24936 0
M  V30 2185 H 199.052 4.14175 -2.85426 0
M  V30 2186 H 198.752 3.71028 -4.55645 0
M  V30 2187 H 200.276 4.52387 -4.10095 0
M  V30 2188 H 201.69 2.51117 -5.15377 0
M  V30 2189 H 200.087 1.9241 -5.68417 0
M  V30 2190 H 201.157 0.84136 -4.77545 0
M  V30 2191 N 202.5 1.5196 0.417844 0
M  V30 2192 C 203.447 1.74678 1.50852 0
M  V30 2193 C 204.417 0.588947 1.55308 0
M  V30 2194 O 205.602 0.825544 1.72016 0
M  V30 2195 C 202.742 1.89544 2.88387 0
M  V30 2196 C 201.855 3.17166 2.93309 0
M  V30 2197 C 200.99 3.22513 4.22088 0
M  V30 2198 C 200.029 4.44372 4.20951 0
M  V30 2199 N 199.166 4.47161 5.41287 0
M  V30 2200 H 204.006 2.67768 1.30783 0
M  V30 2201 H 201.543 1.32689 0.63498 0
M  V30 2202 H 203.501 1.96146 3.68216 0
M  V30 2203 H 202.131 0.998424 3.06971 0
M  V30 2204 H 201.183 3.19778 2.06024 0
M  V30 2205 H 202.495 4.07021 2.88332 0
M  V30 2206 H 201.649 3.28139 5.10303 0
M  V30 2207 H 200.388 2.30581 4.29748 0
M  V30 2208 H 199.393 4.38902 3.31127 0
M  V30 2209 H 200.618 5.3759 4.14938 0
M  V30 2210 H 198.564 3.58108 5.49632 0
M  V30 2211 H 198.481 5.3085 5.3827 0
M  V30 2212 H 199.749 4.57005 6.3148 0
M  V30 2213 N 203.978 -0.674533 1.42435 0
M  V30 2214 C 204.908 -1.80009 1.48724 0
M  V30 2215 C 205.889 -1.6659 0.343793 0
M  V30 2216 O 207.074 -1.86007 0.558137 0
M  V30 2217 C 204.204 -3.18306 1.38919 0
M  V30 2218 C 203.158 -3.46461 2.51294 0
M  V30 2219 C 202.484 -4.84335 2.26547 0
M  V30 2220 C 203.784 -3.43328 3.93603 0
M  V30 2221 H 205.478 -1.75004 2.42928 0
M  V30 2222 H 203.024 -0.840533 1.16923 0
M  V30 2223 H 204.977 -3.9678 1.41927 0
M  V30 2224 H 203.701 -3.2399 0.412094 0
M  V30 2225 H 202.36 -2.70348 2.47604 0
M  V30 2226 H 202.008 -4.86669 1.2713 0
M  V30 2227 H 201.708 -5.04136 3.01861 0
M  V30 2228 H 203.232 -5.65094 2.31304 0
M  V30 2229 H 204.646 -4.11772 3.98894 0
M  V30 2230 H 203.043 -3.74664 4.68771 0
M  V30 2231 H 204.113 -2.41897 4.20255 0
M  V30 2232 N 205.456 -1.28612 -0.910864 0
M  V30 2233 C 206.388 -1.08589 -2.01844 0
M  V30 2234 C 207.401 -0.0367419 -1.62759 0
M  V30 2235 O 208.59 -0.280101 -1.76289 0
M  V30 2236 C 205.69 -0.628626 -3.33019 0
M  V30 2237 C 204.863 -1.75382 -4.00699 0
M  V30 2238 C 203.922 -1.28945 -5.10156 0
M  V30 2239 O 202.948 -1.9922 -5.33198 0
M  V30 2240 N 204.15 -0.154224 -5.80295 0
M  V30 2241 H 206.915 -2.03973 -2.19579 0
M  V30 2242 H 204.476 -1.20403 -1.08234 0
M  V30 2243 H 206.468 -0.301508 -4.03575 0
M  V30 2244 H 205.038 0.232451 -3.11735 0
M  V30 2245 H 204.258 -2.25039 -3.23653 0
M  V30 2246 H 205.546 -2.50854 -4.42662 0
M  V30 2247 H 204.944 0.43194 -5.64049 0
M  V30 2248 H 203.501 0.113599 -6.51701 0
M  V30 2249 N 206.934 1.1197 -1.10907 0
M  V30 2250 C 207.844 2.21433 -0.774896 0
M  V30 2251 C 208.86 1.72478 0.229657 0
M  V30 2252 O 210.036 2.01288 0.0672008 0
M  V30 2253 C 207.101 3.4602 -0.216986 0
M  V30 2254 C 206.162 4.09791 -1.27944 0
M  V30 2255 C 205.395 5.28431 -0.748055 0
M  V30 2256 O 205.618 5.68823 0.423833 0
M  V30 2257 O 204.552 5.82644 -1.51027 0
M  V30 2258 H 208.378 2.5242 -1.68873 0
M  V30 2259 H 205.963 1.20399 -0.884555 0
M  V30 2260 H 207.845 4.21304 0.090059 0
M  V30 2261 H 206.52 3.16698 0.669633 0
M  V30 2262 H 205.427 3.36265 -1.63941 0
M  V30 2263 H 206.76 4.4328 -2.13925 0
M  V30 2264 N 208.412 0.89855 1.29475 0
M  V30 2265 C 209.322 0.379974 2.31502 0
M  V30 2266 C 210.338 -0.524695 1.659 0
M  V30 2267 O 211.514 -0.414551 1.97087 0
M  V30 2268 C 208.579 -0.385138 3.44554 0
M  V30 2269 C 207.64 0.550914 4.2575 0
M  V30 2270 C 206.873 -0.177778 5.33404 0
M  V30 2271 O 207.096 -1.40189 5.52904 0
M  V30 2272 O 206.03 0.479106 5.9999 0
M  V30 2273 H 209.856 1.22639 2.77837 0
M  V30 2274 H 207.441 0.662834 1.33891 0
M  V30 2275 H 209.323 -0.817841 4.13388 0
M  V30 2276 H 207.998 -1.20763 3.0033 0
M  V30 2277 H 206.905 1.03271 3.59564 0
M  V30 2278 H 208.238 1.33979 4.73614 0
M  V30 2279 N 209.89 -1.43072 0.660911 0
M  V30 2280 C 211.136 -2.0202 0.177708 0
M  V30 2281 C 211.469 -1.52066 -1.20787 0
M  V30 2282 O 210.744 -0.716987 -1.80802 0
M  V30 2283 C 211.027 -3.59561 0.197019 0
M  V30 2284 C 210.88 -4.19727 1.61706 0
M  V30 2285 C 212.199 -4.37664 -0.462396 0
M  V30 2286 H 209.318 -0.734034 0.0660494 0
M  V30 2287 H 211.96 -1.70272 0.843058 0
M  V30 2288 H 210.11 -3.86739 -0.369527 0
M  V30 2289 H 211.782 -4.03553 2.23479 0
M  V30 2290 H 210.025 -3.76084 2.16201 0
M  V30 2291 H 210.696 -5.28834 1.58237 0
M  V30 2292 H 213.172 -4.16095 0.0197215 0
M  V30 2293 H 212.048 -5.47305 -0.418188 0
M  V30 2294 H 212.309 -4.14493 -1.53778 0
M  V30 2295 N 211.368 -0.403325 -1.52352 0
M  V30 2296 C 212.315 0.425011 -2.26853 0
M  V30 2297 C 213.285 1.04598 -1.29029 0
M  V30 2298 O 214.47 1.07135 -1.57882 0
M  V30 2299 C 211.61 1.53888 -3.08889 0
M  V30 2300 C 210.723 0.939396 -4.21663 0
M  V30 2301 C 209.858 2.02547 -4.91068 0
M  V30 2302 C 208.897 1.40263 -5.95813 0
M  V30 2303 N 208.034 2.4286 -6.58759 0
M  V30 2304 H 212.874 -0.21674 -2.97211 0
M  V30 2305 H 210.411 -0.118722 -1.4662 0
M  V30 2306 H 212.369 2.19558 -3.54753 0
M  V30 2307 H 210.999 2.15074 -2.40714 0
M  V30 2308 H 210.051 0.171898 -3.80011 0
M  V30 2309 H 211.363 0.44436 -4.96817 0
M  V30 2310 H 210.517 2.75958 -5.40308 0
M  V30 2311 H 209.256 2.55415 -4.15469 0
M  V30 2312 H 208.261 0.653833 -5.45898 0
M  V30 2313 H 209.486 0.881719 -6.73352 0
M  V30 2314 H 207.432 2.94871 -5.85992 0
M  V30 2315 H 207.349 1.98152 -7.2957 0
M  V30 2316 H 208.617 3.15858 -7.12639 0
M  V30 2317 N 212.846 1.57033 -0.133567 0
M  V30 2318 C 214.123 1.87256 0.56522 0
M  V30 2319 C 214.503 1.03726 1.83859 0
M  V30 2320 O 213.851 0.120247 2.28183 0
M  V30 2321 C 214.061 3.3865 0.843636 0
M  V30 2322 C 215.409 4.07574 1.19032 0
M  V30 2323 O 216.433 3.43752 0.933429 0
M  V30 2324 O 215.292 5.20259 1.67312 0
M  V30 2325 H 212.386 0.775678 0.286796 0
M  V30 2326 H 214.932 1.68855 -0.169168 0
M  V30 2327 H 213.704 3.91257 -0.0581149 0
M  V30 2328 H 213.327 3.62532 1.63268 0
M  V30 2329 N 214.325 -0.140222 1.56975 0
M  V30 2330 C 215.255 -1.17456 2.01808 0
M  V30 2331 C 216.236 -1.44415 0.898794 0
M  V30 2332 O 217.421 -1.5522 1.16707 0
M  V30 2333 C 214.551 -2.50607 2.40444 0
M  V30 2334 C 213.505 -2.38155 3.55621 0
M  V30 2335 C 212.831 -3.76078 3.80091 0
M  V30 2336 C 214.131 -1.85991 4.88062 0
M  V30 2337 H 215.825 -0.801743 2.88466 0
M  V30 2338 H 213.371 -0.38422 1.38779 0
M  V30 2339 H 215.324 -3.23197 2.7041 0
M  V30 2340 H 214.048 -2.89737 1.50732 0
M  V30 2341 H 212.707 -1.68016 3.25832 0
M  V30 2342 H 212.355 -4.12656 2.87618 0
M  V30 2343 H 212.055 -3.68606 4.57606 0
M  V30 2344 H 213.579 -4.50206 4.12488 0
M  V30 2345 H 214.993 -2.4838 5.16701 0
M  V30 2346 H 213.39 -1.89393 5.6943 0
M  V30 2347 H 214.46 -0.816023 4.77984 0
M  V30 2348 N 215.803 -1.52179 -0.40978 0
M  V30 2349 C 217.219 -1.40968 -0.74835 0
M  V30 2350 C 217.419 -0.513657 -1.94843 0
M  V30 2351 O 216.475 0.0208026 -2.52491 0
M  V30 2352 C 217.788 -2.83483 -1.0029 0
M  V30 2353 C 219.336 -2.92821 -1.10565 0
M  V30 2354 C 219.811 -4.36303 -1.39296 0
M  V30 2355 N 221.302 -4.39535 -1.46162 0
M  V30 2356 C 222.037 -5.47614 -1.70018 0
M  V30 2357 N 221.533 -6.65812 -1.91483 0
M  V30 2358 N 223.326 -5.35129 -1.72027 0
M  V30 2359 H 215.477 -2.0897 0.380186 0
M  V30 2360 H 217.74 -0.94185 0.107805 0
M  V30 2361 H 217.446 -3.51168 -0.193461 0
M  V30 2362 H 217.32 -3.24487 -1.92323 0
M  V30 2363 H 219.707 -2.25318 -1.90568 0
M  V30 2364 H 219.788 -2.55276 -0.16369 0
M  V30 2365 H 219.432 -5.04366 -0.598109 0
M  V30 2366 H 219.362 -4.71385 -2.34743 0
M  V30 2367 H 221.853 -3.54332 -1.31367 0
M  V30 2368 H 222.166 -7.43964 -2.09134 0
M  V30 2369 H 220.511 -6.68879 -1.88749 0
M  V30 2370 H 223.702 -4.41764 -1.54796 0
M  V30 2371 H 223.875 -6.19433 -1.9028 0
M  V30 2372 N 217.281 0.66697 -1.42791 0
M  V30 2373 C 218.244 1.76211 -1.46568 0
M  V30 2374 C 219.244 1.56896 -0.352196 0
M  V30 2375 O 220.434 1.63044 -0.613364 0
M  V30 2376 C 217.566 3.14935 -1.30494 0
M  V30 2377 H 218.759 1.74247 -2.44086 0
M  V30 2378 H 216.312 0.877342 -1.29354 0
M  V30 2379 H 217.047 3.2252 -0.339301 0
M  V30 2380 H 216.832 3.30359 -2.11199 0
M  V30 2381 H 218.322 3.94821 -1.36038 0
M  V30 2382 N 218.759 1.29093 0.90403 0
M  V30 2383 C 220.005 1.16986 1.65656 0
M  V30 2384 C 220.338 -0.278925 1.92186 0
M  V30 2385 O 219.613 -1.2019 1.5292 0
M  V30 2386 C 219.896 1.97908 3.0084 0
M  V30 2387 C 219.749 3.50903 2.81403 0
M  V30 2388 C 221.068 1.80208 4.01513 0
M  V30 2389 H 218.187 0.426346 0.601164 0
M  V30 2390 H 220.829 1.58518 1.04747 0
M  V30 2391 H 218.979 1.62616 3.52829 0
M  V30 2392 H 220.651 3.96153 2.36348 0
M  V30 2393 H 218.894 3.76045 2.1627 0
M  V30 2394 H 219.565 4.02791 3.77443 0
M  V30 2395 H 222.041 2.11025 3.58619 0
M  V30 2396 H 220.917 2.39184 4.94047 0
M  V30 2397 H 221.178 0.756119 4.35586 0
M  V30 2398 N 220.237 -1.11381 1.11499 0
M  V30 2399 C 221.147 -2.21019 0.786628 0
M  V30 2400 C 222.163 -1.72597 -0.220507 0
M  V30 2401 O 223.339 -2.01321 -0.0565251 0
M  V30 2402 C 220.404 -3.459 0.235333 0
M  V30 2403 C 219.465 -4.09107 1.30115 0
M  V30 2404 C 218.698 -5.28027 0.776068 0
M  V30 2405 O 218.921 -5.6904 -0.393661 0
M  V30 2406 O 217.855 -5.81835 1.54114 0
M  V30 2407 H 221.681 -2.51521 1.70209 0
M  V30 2408 H 219.266 -1.19928 0.890928 0
M  V30 2409 H 221.148 -4.21346 -0.067715 0
M  V30 2410 H 219.823 -3.17049 -0.652828 0
M  V30 2411 H 218.73 -3.35391 1.65722 0
M  V30 2412 H 220.063 -4.42139 2.16273 0
M  V30 2413 N 221.715 -0.905404 -1.28997 0
M  V30 2414 C 222.625 -0.392246 -2.31298 0
M  V30 2415 C 223.641 0.515889 -1.66176 0
M  V30 2416 O 224.817 0.404093 -1.97304 0
M  V30 2417 C 221.882 0.36686 -3.44754 0
M  V30 2418 C 220.943 -0.573485 -4.25452 0
M  V30 2419 C 220.176 0.149488 -5.33491 0
M  V30 2420 O 220.399 1.37255 -5.5364 0
M  V30 2421 O 219.333 -0.510919 -5.99728 0
M  V30 2422 H 223.159 -1.2411 -2.77183 0
M  V30 2423 H 220.744 -0.669926 -1.33538 0
M  V30 2424 H 222.626 0.795907 -4.13816 0
M  V30 2425 H 221.301 1.19169 -3.00966 0
M  V30 2426 H 220.208 -1.05176 -3.59011 0
M  V30 2427 H 221.541 -1.36489 -4.72897 0
M  V30 2428 N 223.193 1.4272 -0.668489 0
M  V30 2429 C 224.156 2.292 0.00448567 0
M  V30 2430 C 225.156 1.43001 0.735339 0
M  V30 2431 O 226.346 1.64461 0.57429 0
M  V30 2432 C 223.478 3.25375 1.01705 0
M  V30 2433 H 224.671 2.90199 -0.756608 0
M  V30 2434 H 222.224 1.50254 -0.430506 0
M  V30 2435 H 222.959 2.69301 1.80686 0
M  V30 2436 H 222.744 3.88944 0.496463 0
M  V30 2437 H 224.234 3.90245 1.48655 0
M  V30 2438 N 224.671 0.411399 1.52136 0
M  V30 2439 C 225.918 -0.163645 2.01838 0
M  V30 2440 C 226.246 -1.4495 1.29691 0
M  V30 2441 O 225.501 -1.91725 0.392431 0
M  V30 2442 C 225.8 -0.455872 3.54481 0
M  V30 2443 C 225.466 0.741055 4.44769 0
M  V30 2444 C 224.128 1.06936 4.69167 0
M  V30 2445 C 226.48 1.54075 4.97906 0
M  V30 2446 C 223.808 2.19851 5.43951 0
M  V30 2447 C 226.16 2.66067 5.73926 0
M  V30 2448 C 224.824 2.99381 5.96596 0
M  V30 2449 H 224.094 -0.0598821 0.738576 0
M  V30 2450 H 226.741 0.553283 1.83333 0
M  V30 2451 H 225.046 -1.2544 3.71177 0
M  V30 2452 H 226.743 -0.913802 3.90449 0
M  V30 2453 H 223.333 0.475192 4.25958 0
M  V30 2454 H 227.517 1.30033 4.78963 0
M  V30 2455 H 222.773 2.46006 5.59724 0
M  V30 2456 H 226.947 3.28419 6.14096 0
M  V30 2457 H 224.574 3.86992 6.54325 0
M  V30 2458 N 226.149 -1.5696 0.141893 0
M  V30 2459 C 227.395 -1.9625 -0.511248 0
M  V30 2460 C 227.728 -1.02654 -1.64851 0
M  V30 2461 O 227.003 -0.0679676 -1.94381 0
M  V30 2462 C 227.286 -3.45285 -1.02227 0
M  V30 2463 C 227.139 -4.49658 0.113138 0
M  V30 2464 C 228.458 -3.96698 -1.90574 0
M  V30 2465 H 225.577 -0.713567 -0.184367 0
M  V30 2466 H 228.219 -1.88698 0.222087 0
M  V30 2467 H 226.369 -3.51852 -1.64719 0
M  V30 2468 H 228.041 -4.55174 0.749302 0
M  V30 2469 H 226.284 -4.26857 0.773026 0
M  V30 2470 H 226.955 -5.51258 -0.286053 0
M  V30 2471 H 229.431 -3.92578 -1.37918 0
M  V30 2472 H 228.307 -5.01453 -2.2324 0
M  V30 2473 H 228.568 -3.3875 -2.84079 0
M  V30 2474 N 227.627 0.131896 -1.57047 0
M  V30 2475 C 229.038 0.690407 -1.73465 0
M  V30 2476 C 229.389 1.8094 -0.758629 0
M  V30 2477 O 228.514 2.16282 0.0713813 0
M  V30 2478 C 229.109 1.25916 -3.14532 0
M  V30 2479 C 227.668 1.76409 -3.32501 0
M  V30 2480 C 226.815 0.658579 -2.69366 0
M  V30 2481 H 229.766 -0.0939144 -1.58422 0
M  V30 2482 H 229.787 2.12892 -3.15369 0
M  V30 2483 H 229.299 0.444515 -3.85546 0
M  V30 2484 H 227.4 2.60391 -2.66509 0
M  V30 2485 H 227.513 1.88241 -4.4057 0
M  V30 2486 H 225.877 1.08899 -2.30246 0
M  V30 2487 H 226.66 -0.14487 -3.42994 0
M  V30 2488 N 229.106 1.52395 0.401703 0
M  V30 2489 C 230.352 1.67065 1.14966 0
M  V30 2490 C 230.685 0.403052 1.89971 0
M  V30 2491 O 229.96 -0.598774 1.85054 0
M  V30 2492 C 230.243 2.8975 2.13815 0
M  V30 2493 C 230.096 4.26578 1.42658 0
M  V30 2494 C 231.415 3.07965 3.14397 0
M  V30 2495 H 228.534 0.607968 0.416587 0
M  V30 2496 H 231.176 1.84965 0.434511 0
M  V30 2497 H 229.326 2.74619 2.74803 0
M  V30 2498 H 230.998 4.53451 0.847329 0
M  V30 2499 H 229.241 4.27639 0.72849 0
M  V30 2500 H 229.912 5.08483 2.14823 0
M  V30 2501 H 232.388 3.22043 2.63491 0
M  V30 2502 H 231.264 3.95308 3.80819 0
M  V30 2503 H 231.525 2.21611 3.82545 0
M  V30 2504 N 230.584 -0.659388 1.43143 0
M  V30 2505 C 231.833 -1.41518 1.43721 0
M  V30 2506 C 232.146 -1.95499 0.0628176 0
M  V30 2507 O 233.352 -2.71446 -0.0539683 0
M  V30 2508 C 231.808 -2.5608 2.52885 0
M  V30 2509 C 231.416 -2.08733 3.96402 0
M  V30 2510 C 233.16 -3.3349 2.62649 0
M  V30 2511 C 231.067 -3.20469 4.97045 0
M  V30 2512 H 229.997 -0.531705 0.534608 0
M  V30 2513 H 232.648 -0.712343 1.69109 0
M  V30 2514 H 231.03 -3.28805 2.20688 0
M  V30 2515 H 232.204 -1.43059 4.3803 0
M  V30 2516 H 230.519 -1.44219 3.90627 0
M  V30 2517 H 233.116 -4.16734 3.35017 0
M  V30 2518 H 233.459 -3.8111 1.67513 0
M  V30 2519 H 233.992 -2.67842 2.94118 0
M  V30 2520 H 230.731 -2.77824 5.93712 0
M  V30 2521 H 230.251 -3.84874 4.60034 0
M  V30 2522 H 231.93 -3.85698 5.19467 0
M  V30 2523 N 232.062 -1.29571 -0.897171 0
M  V30 2524 C 233.009 -1.14916 -2.00158 0
M  V30 2525 C 233.979 -0.0418149 -1.66047 0
M  V30 2526 O 235.164 -0.209793 -1.89643 0
M  V30 2527 C 232.304 -0.834307 -3.34863 0
M  V30 2528 C 231.417 -2.02234 -3.8174 0
M  V30 2529 C 230.552 -1.64664 -5.05034 0
M  V30 2530 C 229.591 -2.80033 -5.44286 0
M  V30 2531 N 228.728 -2.42843 -6.58765 0
M  V30 2532 H 233.568 -2.09403 -2.12025 0
M  V30 2533 H 231.105 -1.042 -1.0383 0
M  V30 2534 H 233.063 -0.632436 -4.12379 0
M  V30 2535 H 231.693 0.0736656 -3.22716 0
M  V30 2536 H 230.745 -2.33583 -3.00238 0
M  V30 2537 H 232.057 -2.88673 -4.06779 0
M  V30 2538 H 231.211 -1.4078 -5.9014 0
M  V30 2539 H 229.95 -0.753766 -4.8184 0
M  V30 2540 H 228.955 -3.04596 -4.57713 0
M  V30 2541 H 230.18 -3.69989 -5.6946 0
M  V30 2542 H 228.126 -1.56046 -6.3717 0
M  V30 2543 H 228.043 -3.22815 -6.83613 0
M  V30 2544 H 229.311 -2.22285 -7.47134 0
M  V30 2545 N 233.54 1.10788 -1.12088 0
M  V30 2546 C 234.47 2.19083 -0.807755 0
M  V30 2547 C 235.451 1.6858 0.226859 0
M  V30 2548 O 236.636 1.93997 0.0888475 0
M  V30 2549 C 233.766 3.46344 -0.257576 0
M  V30 2550 C 232.72 4.101 -1.22483 0
M  V30 2551 C 232.046 5.32016 -0.535052 0
M  V30 2552 C 233.346 4.54236 -2.57811 0
M  V30 2553 H 235.04 2.45534 -1.71328 0
M  V30 2554 H 232.586 1.1801 -0.825205 0
M  V30 2555 H 234.539 4.21392 -0.0262679 0
M  V30 2556 H 233.263 3.19373 0.683278 0
M  V30 2557 H 231.922 3.37054 -1.44189 0
M  V30 2558 H 231.57 5.01319 0.410827 0
M  V30 2559 H 231.27 5.75625 -1.18024 0
M  V30 2560 H 232.794 6.09799 -0.312695 0
M  V30 2561 H 234.208 5.20575 -2.40155 0
M  V30 2562 H 232.605 5.08682 -3.18375 0
M  V30 2563 H 233.675 3.6734 -3.16528 0
M  V30 2564 N 235.018 0.912232 1.28515 0
M  V30 2565 C 236.258 0.551677 1.96814 0
M  V30 2566 C 236.622 -0.887825 1.7024 0
M  V30 2567 O 237.823 -1.35588 2.32098 0
M  V30 2568 C 236.094 0.850555 3.47132 0
M  V30 2569 S 237.653 0.59619 4.34731 0
M  V30 2570 H 234.471 0.204191 0.681049 0
M  V30 2571 H 237.073 1.17736 1.56072 0
M  V30 2572 H 235.777 1.8962 3.63968 0
M  V30 2573 H 235.308 0.213471 3.9282 0
M  V30 2574 H 237.323 -0.553154 4.93107 0
M  V30 2575 N 236.496 -1.42363 0.676048 0
M  V30 2576 C 237.743 -2.01522 0.19883 0
M  V30 2577 C 238.071 -1.53456 -1.19505 0
M  V30 2578 O 237.326 -0.727967 -1.81657 0
M  V30 2579 C 237.625 -3.56929 0.183431 0
M  V30 2580 C 237.291 -4.24431 1.52215 0
M  V30 2581 C 235.953 -4.42585 1.8887 0
M  V30 2582 C 238.305 -4.62459 2.40377 0
M  V30 2583 C 235.633 -4.96039 3.13309 0
M  V30 2584 C 237.985 -5.17294 3.64129 0
M  V30 2585 C 236.649 -5.33661 4.00951 0
M  V30 2586 H 235.919 -0.737419 0.0727571 0
M  V30 2587 H 238.566 -1.70531 0.871281 0
M  V30 2588 H 236.871 -3.87594 -0.572532 0
M  V30 2589 H 238.568 -4.00486 -0.203035 0
M  V30 2590 H 235.158 -4.10661 1.22701 0
M  V30 2591 H 239.342 -4.48105 2.13343 0
M  V30 2592 H 234.598 -5.06896 3.41857 0
M  V30 2593 H 238.772 -5.45704 4.32644 0
M  V30 2594 H 236.399 -5.74845 4.9745 0
M  V30 2595 N 237.974 -0.419461 -1.51915 0
M  V30 2596 C 239.251 0.211999 -1.94448 0
M  V30 2597 C 239.631 1.61703 -1.35703 0
M  V30 2598 O 238.979 2.22102 -0.536931 0
M  V30 2599 C 239.189 0.207872 -3.4838 0
M  V30 2600 C 240.537 0.422192 -4.22496 0
M  V30 2601 O 241.561 0.286778 -3.55044 0
M  V30 2602 O 240.42 0.690009 -5.42126 0
M  V30 2603 H 237.514 0.139586 -0.815135 0
M  V30 2604 H 240.06 -0.476151 -1.62883 0
M  V30 2605 H 238.832 -0.775102 -3.83546 0
M  V30 2606 H 238.455 0.939688 -3.86336 0
M  V30 2607 N 239.452 1.56882 -0.150215 0
M  V30 2608 C 240.7 1.9584 0.499105 0
M  V30 2609 C 241.021 1.03623 1.65188 0
M  V30 2610 O 240.291 0.0984084 1.95653 0
M  V30 2611 H 238.871 0.723119 0.187373 0
M  V30 2612 H 241.533 1.9358 -0.226466 0
M  V30 2613 H 240.629 2.99638 0.873122 0
M  V30 2614 N 240.93 -0.123565 1.57115 0
M  V30 2615 C 242.179 -0.830704 1.83799 0
M  V30 2616 C 242.492 -1.81259 0.735158 0
M  V30 2617 O 243.698 -2.56558 0.888278 0
M  V30 2618 C 242.154 -1.52802 3.25852 0
M  V30 2619 C 241.762 -0.587356 4.44133 0
M  V30 2620 C 243.506 -2.22056 3.61789 0
M  V30 2621 C 241.413 -1.28764 5.77212 0
M  V30 2622 H 240.343 -0.313967 0.685522 0
M  V30 2623 H 242.994 -0.0834359 1.8331 0
M  V30 2624 H 241.376 -2.32175 3.20797 0
M  V30 2625 H 242.55 0.172829 4.60476 0
M  V30 2626 H 240.865 -0.00201892 4.164 0
M  V30 2627 H 243.462 -2.75131 4.58483 0
M  V30 2628 H 243.805 -2.99644 2.88997 0
M  V30 2629 H 244.338 -1.49576 3.68608 0
M  V30 2630 H 241.077 -0.55314 6.53162 0
M  V30 2631 H 240.597 -2.01995 5.64764 0
M  V30 2632 H 242.276 -1.8221 6.20813 0
M  V30 2633 N 242.408 -1.52605 -0.393616 0
M  V30 2634 C 243.318 -1.79971 -1.50492 0
M  V30 2635 C 244.334 -0.686181 -1.59899 0
M  V30 2636 O 245.51 -0.973274 -1.76322 0
M  V30 2637 C 242.575 -1.95867 -2.86072 0
M  V30 2638 C 241.636 -3.19781 -2.86424 0
M  V30 2639 C 240.869 -3.34909 -4.15538 0
M  V30 2640 O 241.092 -2.54948 -5.10253 0
M  V30 2641 O 240.026 -4.28141 -4.23059 0
M  V30 2642 H 243.852 -2.74328 -1.30299 0
M  V30 2643 H 241.437 -1.3764 -0.581005 0
M  V30 2644 H 243.319 -2.08056 -3.66457 0
M  V30 2645 H 241.994 -1.04699 -3.063 0
M  V30 2646 H 240.901 -3.13038 -2.04837 0
M  V30 2647 H 242.234 -4.1078 -2.71147 0
M  V30 2648 N 243.887 0.651787 -1.4349 0
M  V30 2649 C 245.136 1.40754 -1.44469 0
M  V30 2650 C 245.449 1.95463 -0.0731845 0
M  V30 2651 O 246.655 2.71471 0.0395721 0
M  V30 2652 C 245.111 2.54735 -2.5424 0
M  V30 2653 C 244.719 2.06628 -3.97504 0
M  V30 2654 C 246.463 3.32092 -2.64414 0
M  V30 2655 C 244.37 3.17829 -4.98737 0
M  V30 2656 H 243.3 0.528862 -0.53742 0
M  V30 2657 H 245.951 0.703365 -1.69485 0
M  V30 2658 H 244.333 3.2763 -2.22428 0
M  V30 2659 H 245.507 1.40734 -4.38783 0
M  V30 2660 H 243.822 1.42146 -3.91387 0
M  V30 2661 H 246.419 4.14952 -3.37223 0
M  V30 2662 H 246.762 3.80217 -1.69532 0
M  V30 2663 H 247.295 2.66279 -2.95534 0
M  V30 2664 H 244.034 2.74671 -5.95177 0
M  V30 2665 H 243.554 3.82429 -4.62069 0
M  V30 2666 H 245.233 3.82937 -5.21505 0
M  V30 2667 N 245.365 1.30045 0.890287 0
M  V30 2668 C 246.642 1.09227 1.62262 0
M  V30 2669 C 247.022 -0.360305 2.08002 0
M  V30 2670 O 246.37 -1.35084 1.84295 0
M  V30 2671 C 246.58 2.08835 2.79623 0
M  V30 2672 C 247.928 2.40266 3.50082 0
M  V30 2673 O 248.952 2.07104 2.89804 0
M  V30 2674 O 247.811 2.96967 4.58773 0
M  V30 2675 H 244.905 0.419132 0.712922 0
M  V30 2676 H 247.451 1.41451 0.937529 0
M  V30 2677 H 246.223 3.06633 2.43089 0
M  V30 2678 H 245.846 1.77397 3.55832 0
M  V30 2679 N 246.843 -1.10192 1.12674 0
M  V30 2680 C 248.092 -1.81573 0.8783 0
M  V30 2681 C 248.405 -1.86249 -0.597557 0
M  V30 2682 O 249.611 -2.5386 -0.962681 0
M  V30 2683 C 248.067 -3.26149 1.52167 0
M  V30 2684 C 247.675 -3.29763 3.03249 0
M  V30 2685 C 249.419 -4.0234 1.3536 0
M  V30 2686 C 247.326 -4.68815 3.60508 0
M  V30 2687 H 246.256 -0.680394 0.324931 0
M  V30 2688 H 248.907 -1.23902 1.35353 0
M  V30 2689 H 247.289 -3.83832 0.974104 0
M  V30 2690 H 248.463 -2.8189 3.6452 0
M  V30 2691 H 246.778 -2.67059 3.19481 0
M  V30 2692 H 249.375 -5.05058 1.75559 0
M  V30 2693 H 249.718 -4.15235 0.297554 0
M  V30 2694 H 250.251 -3.51079 1.87052 0
M  V30 2695 H 246.99 -4.61121 4.65884 0
M  V30 2696 H 246.51 -5.17045 3.04014 0
M  V30 2697 H 248.189 -5.37785 3.59717 0
M  V30 2698 N 248.321 -0.919034 -1.28029 0
M  V30 2699 C 249.251 -0.428581 -2.29533 0
M  V30 2700 C 250.232 0.50659 -1.62381 0
M  V30 2701 O 251.417 0.413195 -1.89753 0
M  V30 2702 C 248.547 0.327388 -3.45753 0
M  V30 2703 C 247.501 -0.519137 -4.2484 0
M  V30 2704 C 246.827 0.365486 -5.33449 0
M  V30 2705 C 248.127 -1.77914 -4.91064 0
M  V30 2706 H 249.821 -1.27687 -2.70807 0
M  V30 2707 H 247.367 -0.615428 -1.30186 0
M  V30 2708 H 249.32 0.681378 -4.15855 0
M  V30 2709 H 248.044 1.20963 -3.03374 0
M  V30 2710 H 246.703 -0.855717 -3.56473 0
M  V30 2711 H 246.351 1.24642 -4.87312 0
M  V30 2712 H 246.051 -0.197356 -5.87268 0
M  V30 2713 H 247.575 0.715241 -6.06396 0
M  V30 2714 H 248.989 -1.49374 -5.53498 0
M  V30 2715 H 247.386 -2.2848 -5.54903 0
M  V30 2716 H 248.456 -2.50382 -4.15255 0
M  V30 2717 N 249.799 1.42003 -0.683588 0
M  V30 2718 C 251.046 2.01413 -0.209514 0
M  V30 2719 C 251.374 1.54088 1.1869 0
M  V30 2720 O 250.629 0.737591 1.81268 0
M  V30 2721 C 250.928 3.56827 -0.202357 0
M  V30 2722 C 250.594 4.23617 -1.54464 0
M  V30 2723 C 249.256 4.41577 -1.91215 0
M  V30 2724 C 251.608 4.61178 -2.42826 0
M  V30 2725 C 248.936 4.9437 -3.15935 0
M  V30 2726 C 251.288 5.15355 -3.66867 0
M  V30 2727 C 249.952 5.31528 -4.03776 0
M  V30 2728 H 249.222 0.737023 -0.0766668 0
M  V30 2729 H 251.869 1.70067 -0.880312 0
M  V30 2730 H 250.174 3.87892 0.551969 0
M  V30 2731 H 251.871 4.00588 0.181793 0
M  V30 2732 H 248.461 4.10004 -1.24877 0
M  V30 2733 H 252.645 4.46968 -2.15717 0
M  V30 2734 H 247.901 5.05076 -3.44541 0
M  V30 2735 H 252.075 5.43402 -4.35531 0
M  V30 2736 H 249.702 5.72199 -5.00492 0
M  V30 2737 N 251.277 0.427512 1.51691 0
M  V30 2738 C 252.24 -0.377132 2.26076 0
M  V30 2739 C 253.24 -0.958089 1.29141 0
M  V30 2740 O 254.43 -0.83408 1.52934 0
M  V30 2741 C 251.562 -1.53262 3.04506 0
M  V30 2742 H 252.755 0.27464 2.9864 0
M  V30 2743 H 250.308 0.180445 1.55255 0
M  V30 2744 H 251.043 -2.22072 2.36335 0
M  V30 2745 H 250.828 -1.12232 3.75694 0
M  V30 2746 H 252.318 -2.10135 3.60878 0
M  V30 2747 N 252.755 -1.56801 0.158532 0
M  V30 2748 C 254.171 -1.5837 -0.197774 0
M  V30 2749 C 254.371 -1.17334 -1.63814 0
M  V30 2750 O 253.427 -0.878988 -2.36707 0
M  V30 2751 C 254.74 -3.00615 0.0714459 0
M  V30 2752 C 256.288 -3.12999 0.00864533 0
M  V30 2753 C 256.763 -4.57313 0.250685 0
M  V30 2754 N 258.254 -4.62777 0.198014 0
M  V30 2755 C 258.989 -5.72271 0.359642 0
M  V30 2756 N 258.485 -6.90371 0.579625 0
M  V30 2757 N 260.278 -5.61318 0.296438 0
M  V30 2758 H 252.429 -1.81765 1.09887 0
M  V30 2759 H 254.692 -0.841849 0.435884 0
M  V30 2760 H 254.398 -3.35068 1.06874 0
M  V30 2761 H 254.272 -3.71683 -0.642757 0
M  V30 2762 H 256.659 -2.7838 -0.979217 0
M  V30 2763 H 256.74 -2.44393 0.755359 0
M  V30 2764 H 256.384 -4.92639 1.2357 0
M  V30 2765 H 256.314 -5.24061 -0.516489 0
M  V30 2766 H 258.805 -3.77885 0.0331115 0
M  V30 2767 H 259.118 -7.69689 0.69275 0
M  V30 2768 H 257.463 -6.92264 0.616087 0
M  V30 2769 H 260.654 -4.67932 0.125258 0
M  V30 2770 H 260.827 -6.46599 0.425831 0
M  V30 2771 N 254.233 0.115231 -1.57178 0
M  V30 2772 C 255.163 1.1423 -2.03651 0
M  V30 2773 C 256.144 1.42967 -0.921655 0
M  V30 2774 O 257.329 1.53343 -1.19162 0
M  V30 2775 C 254.459 2.4675 -2.44401 0
M  V30 2776 C 253.413 2.32467 -3.59365 0
M  V30 2777 C 252.739 3.69984 -3.86026 0
M  V30 2778 C 254.039 1.78203 -4.90959 0
M  V30 2779 H 255.733 0.755749 -2.89705 0
M  V30 2780 H 253.279 0.362093 -1.39373 0
M  V30 2781 H 255.232 3.18854 -2.75517 0
M  V30 2782 H 253.956 2.87302 -1.55322 0
M  V30 2783 H 252.615 1.62811 -3.28463 0
M  V30 2784 H 252.263 4.08028 -2.94147 0
M  V30 2785 H 251.963 3.61279 -4.63412 0
M  V30 2786 H 253.487 4.43587 -4.19599 0
M  V30 2787 H 254.901 2.40128 -5.20587 0
M  V30 2788 H 253.298 1.8031 -5.72371 0
M  V30 2789 H 254.368 0.739876 -4.79222 0
M  V30 2790 N 255.711 1.52812 0.385517 0
M  V30 2791 C 256.674 1.77188 1.45386 0
M  V30 2792 C 257.674 0.641953 1.4743 0
M  V30 2793 O 258.864 0.910033 1.4854 0
M  V30 2794 C 255.996 1.87582 2.8465 0
M  V30 2795 H 257.189 2.72583 1.25054 0
M  V30 2796 H 254.742 1.43586 0.617467 0
M  V30 2797 H 255.477 0.941849 3.10322 0
M  V30 2798 H 255.262 2.69748 2.84567 0
M  V30 2799 H 256.752 2.08102 3.62054 0
M  V30 2800 N 257.189 -0.644168 1.43834 0
M  V30 2801 C 258.119 -1.76814 1.52509 0
M  V30 2802 C 259.1 -1.65823 0.379052 0
M  V30 2803 O 260.285 -1.84781 0.597466 0
M  V30 2804 C 257.415 -3.15288 1.4564 0
M  V30 2805 C 256.369 -3.41053 2.58586 0
M  V30 2806 C 255.695 -4.79421 2.36769 0
M  V30 2807 C 256.995 -3.34902 4.00797 0
M  V30 2808 H 258.689 -1.69812 2.46586 0
M  V30 2809 H 256.235 -0.815542 1.1868 0
M  V30 2810 H 258.188 -3.93681 1.50311 0
M  V30 2811 H 256.912 -3.23043 0.480725 0
M  V30 2812 H 255.571 -2.65035 2.53282 0
M  V30 2813 H 255.219 -4.83863 1.37424 0
M  V30 2814 H 254.919 -4.9762 3.12487 0
M  V30 2815 H 256.443 -5.6006 2.43238 0
M  V30 2816 H 257.857 -4.03218 4.07539 0
M  V30 2817 H 256.254 -3.64637 4.76613 0
M  V30 2818 H 257.324 -2.32928 4.25291 0
M  V30 2819 N 258.668 -1.30515 -0.883378 0
M  V30 2820 C 259.6 -1.12846 -1.99496 0
M  V30 2821 C 260.613 -0.0712571 -1.62644 0
M  V30 2822 O 261.802 -0.317432 -1.75655 0
M  V30 2823 C 258.902 -0.699123 -3.3161 0
M  V30 2824 C 258.075 -1.83842 -3.96889 0
M  V30 2825 C 257.134 -1.39737 -5.07307 0
M  V30 2826 O 256.16 -2.10485 -5.28852 0
M  V30 2827 N 257.362 -0.277279 -5.79837 0
M  V30 2828 H 260.127 -2.08585 -2.15203 0
M  V30 2829 H 257.688 -1.22672 -1.05656 0
M  V30 2830 H 259.68 -0.387044 -4.02845 0
M  V30 2831 H 258.25 0.166276 -3.12157 0
M  V30 2832 H 257.47 -2.31853 -3.18807 0
M  V30 2833 H 258.758 -2.60187 -4.37241 0
M  V30 2834 H 258.156 0.3122 -5.64838 0
M  V30 2835 H 256.713 -0.0246623 -6.51795 0
M  V30 2836 N 260.146 1.09593 -1.13257 0
M  V30 2837 C 261.374 1.855 -0.916378 0
M  V30 2838 C 261.789 1.81069 0.534738 0
M  V30 2839 O 261.146 1.20562 1.37007 0
M  V30 2840 C 261.197 3.33546 -1.39388 0
M  V30 2841 O 260.918 3.37927 -2.78813 0
M  V30 2842 C 262.419 4.26299 -1.21588 0
M  V30 2843 H 259.639 0.585991 -0.326887 0
M  V30 2844 H 262.183 1.38488 -1.5047 0
M  V30 2845 H 260.338 3.77992 -0.848597 0
M  V30 2846 H 260.752 4.30254 -2.9997 0
M  V30 2847 H 262.226 5.28341 -1.59876 0
M  V30 2848 H 262.703 4.38918 -0.157376 0
M  V30 2849 H 263.309 3.87668 -1.7491 0
M  V30 2850 N 261.624 0.925811 1.2754 0
M  V30 2851 C 262.873 0.561084 1.93739 0
M  V30 2852 C 263.186 -0.901685 1.73577 0
M  V30 2853 O 264.392 -1.37511 2.34101 0
M  V30 2854 C 262.848 0.952668 3.47062 0
M  V30 2855 C 262.456 2.43599 3.75983 0
M  V30 2856 C 264.2 0.659103 4.19352 0
M  V30 2857 C 262.107 2.76707 5.22673 0
M  V30 2858 H 261.037 0.206122 0.725279 0
M  V30 2859 H 263.688 1.12637 1.44863 0
M  V30 2860 H 262.07 0.316053 3.94737 0
M  V30 2861 H 263.244 3.12035 3.39073 0
M  V30 2862 H 261.559 2.70125 3.16893 0
M  V30 2863 H 264.156 0.882985 5.27359 0
M  V30 2864 H 264.499 -0.403607 4.14339 0
M  V30 2865 H 265.032 1.25473 3.77494 0
M  V30 2866 H 261.771 3.8188 5.32774 0
M  V30 2867 H 261.291 2.12919 5.60737 0
M  V30 2868 H 262.97 2.6435 5.90532 0
M  V30 2869 N 263.102 -1.41638 0.69111 0
M  V30 2870 C 264.513 -1.84346 0.295517 0
M  V30 2871 C 264.864 -1.57833 -1.16547 0
M  V30 2872 O 263.989 -1.04648 -1.89414 0
M  V30 2873 C 264.584 -3.34636 0.529575 0
M  V30 2874 C 263.143 -3.7593 0.187944 0
M  V30 2875 C 262.29 -2.65082 0.814052 0
M  V30 2876 H 265.241 -1.31253 0.892092 0
M  V30 2877 H 265.262 -3.79903 -0.213148 0
M  V30 2878 H 264.774 -3.53901 1.59297 0
M  V30 2879 H 262.875 -3.62268 -0.871367 0
M  V30 2880 H 262.988 -4.74808 0.63985 0
M  V30 2881 H 261.352 -2.53528 0.244017 0
M  V30 2882 H 262.135 -2.87167 1.88123 0
M  V30 2883 N 264.58 -0.43555 -1.51462 0
M  V30 2884 C 265.49 0.383001 -2.31453 0
M  V30 2885 C 266.506 1.02931 -1.4029 0
M  V30 2886 O 267.682 1.02507 -1.73362 0
M  V30 2887 C 264.747 1.47043 -3.13973 0
M  V30 2888 C 263.808 0.844433 -4.20913 0
M  V30 2889 C 263.041 1.88004 -4.9949 0
M  V30 2890 O 263.264 3.10199 -4.78678 0
M  V30 2891 O 262.198 1.47157 -5.83634 0
M  V30 2892 H 266.024 -0.269964 -3.02498 0
M  V30 2893 H 263.609 -0.19813 -1.4808 0
M  V30 2894 H 265.491 2.10113 -3.65281 0
M  V30 2895 H 264.166 2.10751 -2.45695 0
M  V30 2896 H 263.073 0.175729 -3.73687 0
M  V30 2897 H 264.406 0.250869 -4.9156 0
M  V30 2898 N 266.058 1.56714 -0.166846 0
M  V30 2899 C 267.335 1.88412 0.525373 0
M  V30 2900 C 267.715 1.07602 1.81618 0
M  V30 2901 O 267.063 0.168621 2.27877 0
M  V30 2902 C 267.273 3.40363 0.771613 0
M  V30 2903 C 268.621 4.10007 1.1036 0
M  V30 2904 O 269.645 3.45655 0.860304 0
M  V30 2905 O 268.504 5.2369 1.56239 0
M  V30 2906 H 265.598 0.781587 0.270278 0
M  V30 2907 H 268.144 1.68458 -0.204946 0
M  V30 2908 H 266.916 3.91046 -0.141093 0
M  V30 2909 H 266.539 3.65914 1.55541 0
M  V30 2910 N 267.536 -0.106894 1.57237 0
M  V30 2911 C 268.466 -1.13148 2.04254 0
M  V30 2912 C 269.447 -1.42476 0.929224 0
M  V30 2913 O 270.632 -1.52709 1.19973 0
M  V30 2914 C 267.762 -2.4545 2.45706 0
M  V30 2915 C 266.716 -2.30558 3.60592 0
M  V30 2916 C 266.042 -3.67931 3.87983 0
M  V30 2917 C 267.342 -1.75597 4.91897 0
M  V30 2918 H 269.036 -0.740374 2.90101 0
M  V30 2919 H 266.582 -0.354696 1.39563 0
M  V30 2920 H 268.535 -3.17389 2.77205 0
M  V30 2921 H 267.259 -2.86475 1.56843 0
M  V30 2922 H 265.918 -1.61067 3.29322 0
M  V30 2923 H 265.566 -4.06462 2.96306 0
M  V30 2924 H 265.266 -3.58817 4.65322 0
M  V30 2925 H 266.79 -4.41356 4.21945 0
M  V30 2926 H 268.204 -2.37364 5.21854 0
M  V30 2927 H 266.601 -1.77272 5.73319 0
M  V30 2928 H 267.671 -0.714451 4.79608 0
M  V30 2929 N 269.014 -1.53014 -0.377408 0
M  V30 2930 C 270.291 -1.59215 -1.13622 0
M  V30 2931 C 270.671 -0.392407 -2.07421 0
M  V30 2932 O 270.019 0.618342 -2.19975 0
M  V30 2933 C 270.229 -2.93669 -1.88573 0
M  V30 2934 C 271.577 -3.47822 -2.43526 0
M  V30 2935 O 272.601 -2.9562 -1.98715 0
M  V30 2936 O 271.46 -4.39055 -3.25412 0
M  V30 2937 H 268.554 -0.642625 -0.52054 0
M  V30 2938 H 271.1 -1.65353 -0.381625 0
M  V30 2939 H 269.872 -3.7243 -1.20048 0
M  V30 2940 H 269.495 -2.90968 -2.70968 0
M  V30 2941 N 270.492 0.636531 -1.44174 0
M  V30 2942 C 271.422 1.76003 -1.53444 0
M  V30 2943 C 272.403 1.65619 -0.387841 0
M  V30 2944 O 273.588 1.84461 -0.607257 0
M  V30 2945 C 270.718 3.14511 -1.4731 0
M  V30 2946 C 269.672 3.39677 -2.60391 0
M  V30 2947 C 268.998 4.78159 -2.39308 0
M  V30 2948 C 270.298 3.32772 -4.02567 0
M  V30 2949 H 271.992 1.68501 -2.47483 0
M  V30 2950 H 269.538 0.809237 -1.19111 0
M  V30 2951 H 271.491 3.92878 -1.52397 0
M  V30 2952 H 270.215 3.22783 -0.49785 0
M  V30 2953 H 268.874 2.63688 -2.54684 0
M  V30 2954 H 268.522 4.83128 -1.39988 0
M  V30 2955 H 268.222 4.95956 -3.15122 0
M  V30 2956 H 269.746 5.58762 -2.46205 0
M  V30 2957 H 271.16 4.01051 -4.09672 0
M  V30 2958 H 269.557 3.62104 -4.7854 0
M  V30 2959 H 270.627 2.30669 -4.2652 0
M  V30 2960 N 271.97 1.30982 0.876444 0
M  V30 2961 C 273.386 1.09498 1.16113 0
M  V30 2962 C 273.586 -0.13875 2.01022 0
M  V30 2963 O 272.642 -0.829935 2.38471 0
M  V30 2964 C 273.955 2.36308 1.85954 0
M  V30 2965 C 275.503 2.41856 1.98683 0
M  V30 2966 C 275.978 3.6853 2.71937 0
M  V30 2967 N 277.469 3.69387 2.79477 0
M  V30 2968 C 278.204 4.64096 3.36753 0
M  V30 2969 N 277.7 5.69155 3.95012 0
M  V30 2970 N 279.493 4.51626 3.3465 0
M  V30 2971 H 271.644 2.10118 0.310494 0
M  V30 2972 H 273.907 0.926634 0.200131 0
M  V30 2973 H 273.613 3.26388 1.31011 0
M  V30 2974 H 273.487 2.4561 2.86278 0
M  V30 2975 H 275.874 1.52249 2.52793 0
M  V30 2976 H 275.955 2.36523 0.9742 0
M  V30 2977 H 275.599 4.58499 2.18496 0
M  V30 2978 H 275.529 3.71127 3.73593 0
M  V30 2979 H 278.02 2.93438 2.38123 0
M  V30 2980 H 278.333 6.3751 4.36808 0
M  V30 2981 H 276.678 5.72937 3.93406 0
M  V30 2982 H 279.869 3.68728 2.8837 0
M  V30 2983 H 280.042 5.25614 3.7899 0
M  V30 2984 N 273.449 -1.08991 1.13837 0
M  V30 2985 C 274.726 -1.77863 0.813876 0
M  V30 2986 C 275.106 -1.99375 -0.693746 0
M  V30 2987 O 274.454 -1.59875 -1.63255 0
M  V30 2988 C 274.664 -3.0986 1.60586 0
M  V30 2989 C 276.012 -3.84493 1.8014 0
M  V30 2990 O 277.036 -3.19624 1.57222 0
M  V30 2991 O 275.895 -5.00957 2.18413 0
M  V30 2992 H 272.989 -0.771589 0.297624 0
M  V30 2993 H 275.535 -1.15507 1.24323 0
M  V30 2994 H 274.307 -2.89715 2.63022 0
M  V30 2995 H 273.93 -3.79942 1.17173 0
M  V30 2996 N 274.927 -0.932562 -1.27047 0
M  V30 2997 C 276.204 -0.49377 -1.89265 0
M  V30 2998 C 276.584 1.02833 -1.8436 0
M  V30 2999 O 275.932 1.88461 -1.29209 0
M  V30 3000 C 276.142 -1.04536 -3.32976 0
M  V30 3001 C 277.49 -1.10879 -4.09867 0
M  V30 3002 O 278.514 -0.995327 -3.42011 0
M  V30 3003 O 277.373 -1.28417 -5.31198 0
M  V30 3004 H 274.467 -0.159596 -0.811454 0
M  V30 3005 H 277.013 -1.02457 -1.3528 0
M  V30 3006 H 275.785 -2.08913 -3.30864 0
M  V30 3007 H 275.408 -0.496494 -3.94488 0
M  V30 3008 N 276.405 1.4127 -0.698611 0
M  V30 3009 C 277.63 2.06024 -0.238512 0
M  V30 3010 C 278.055 1.5224 1.10475 0
M  V30 3011 O 277.413 0.650623 1.69223 0
M  V30 3012 C 277.461 3.59988 -0.209952 0
M  V30 3013 O 276.565 4.04282 0.814235 0
M  V30 3014 H 275.906 0.653829 -0.115775 0
M  V30 3015 H 278.436 1.8098 -0.954326 0
M  V30 3016 H 278.446 4.07979 -0.0418436 0
M  V30 3017 H 277.121 3.98503 -1.1903 0
M  V30 3018 H 275.698 3.6779 0.615234 0
M  V30 3019 N 277.883 0.443576 1.51229 0
M  V30 3020 C 278.813 -0.355142 2.30783 0
M  V30 3021 C 279.794 -1.0154 1.36468 0
M  V30 3022 O 280.979 -1.01785 1.65389 0
M  V30 3023 C 278.109 -1.45312 3.15439 0
M  V30 3024 C 277.063 -0.916002 4.18083 0
M  V30 3025 C 276.389 -2.1102 4.91299 0
M  V30 3026 C 277.689 0.0538602 5.22272 0
M  V30 3027 H 279.383 0.308767 2.97804 0
M  V30 3028 H 276.929 0.149937 1.43217 0
M  V30 3029 H 278.882 -2.01914 3.69876 0
M  V30 3030 H 277.606 -2.14541 2.46252 0
M  V30 3031 H 276.265 -0.372145 3.64706 0
M  V30 3032 H 275.913 -2.78882 4.18609 0
M  V30 3033 H 275.613 -1.75717 5.60712 0
M  V30 3034 H 277.137 -2.68164 5.48562 0
M  V30 3035 H 278.551 -0.422069 5.71744 0
M  V30 3036 H 276.948 0.319776 5.99247 0
M  V30 3037 H 278.018 0.98858 4.74716 0
M  V30 3038 N 279.361 -1.56624 0.175154 0
M  V30 3039 C 280.291 -2.21155 -0.749195 0
M  V30 3040 C 281.272 -1.16836 -1.23626 0
M  V30 3041 O 282.457 -1.45277 -1.28873 0
M  V30 3042 C 279.587 -2.8553 -1.97711 0
M  V30 3043 C 278.541 -3.95921 -1.62575 0
M  V30 3044 C 277.867 -4.47365 -2.92864 0
M  V30 3045 C 279.167 -5.15323 -0.850838 0
M  V30 3046 H 280.861 -2.98653 -0.211295 0
M  V30 3047 H 278.407 -1.43651 -0.100188 0
M  V30 3048 H 280.36 -3.2935 -2.62881 0
M  V30 3049 H 279.084 -2.05406 -2.53921 0
M  V30 3050 H 277.743 -3.52762 -0.997719 0
M  V30 3051 H 277.391 -3.64027 -3.47122 0
M  V30 3052 H 277.091 -5.21839 -2.70106 0
M  V30 3053 H 278.615 -4.93873 -3.59056 0
M  V30 3054 H 280.029 -5.55812 -1.40521 0
M  V30 3055 H 278.426 -5.95739 -0.722154 0
M  V30 3056 H 279.496 -4.84661 0.152082 0
M  V30 3057 N 280.839 0.0985539 -1.57292 0
M  V30 3058 C 281.786 1.11981 -2.01814 0
M  V30 3059 C 282.756 1.39999 -0.89384 0
M  V30 3060 O 283.941 1.5152 -1.15958 0
M  V30 3061 C 281.081 2.43577 -2.44467 0
M  V30 3062 C 280.194 2.2232 -3.70402 0
M  V30 3063 C 279.329 3.4729 -4.01949 0
M  V30 3064 C 278.368 3.2128 -5.21005 0
M  V30 3065 N 277.505 4.38507 -5.48321 0
M  V30 3066 H 282.345 0.733149 -2.88841 0
M  V30 3067 H 279.882 0.350482 -1.42864 0
M  V30 3068 H 281.84 3.20373 -2.6724 0
M  V30 3069 H 280.47 2.80097 -1.60455 0
M  V30 3070 H 279.522 1.36343 -3.55126 0
M  V30 3071 H 280.834 1.99089 -4.57345 0
M  V30 3072 H 279.988 4.32495 -4.25479 0
M  V30 3073 H 278.727 3.73572 -3.13521 0
M  V30 3074 H 277.732 2.34468 -4.97298 0
M  V30 3075 H 278.957 2.96348 -6.11028 0
M  V30 3076 H 276.903 4.64871 -4.62851 0
M  V30 3077 H 276.82 4.18455 -6.29628 0
M  V30 3078 H 278.088 5.24787 -5.76385 0
M  V30 3079 N 282.317 1.53212 0.369288 0
M  V30 3080 C 283.265 1.80054 1.47253 0
M  V30 3081 C 284.259 0.669456 1.55611 0
M  V30 3082 O 285.465 0.852328 1.58541 0
M  V30 3083 H 281.84 0.570034 0.490475 0
M  V30 3084 H 283.811 2.72403 1.21817 0
M  V30 3085 C 282.56 2.00403 2.84137 0
M  V30 3086 H 281.883 2.86876 2.78464 0
M  V30 3087 H 283.323 2.23164 3.60519 0
M  V30 3088 C 281.782 0.782081 3.27697 0
M  V30 3089 O 282.312 -0.0310205 4.01688 0
M  V30 3090 N 280.518 0.606573 2.84199 0
M  V30 3091 H 280.065 1.26939 2.24152 0
M  V30 3092 H 280.023 -0.20962 3.137 0
M  V30 3093 N 283.795 -0.628877 1.44509 0
M  V30 3094 C 284.725 -1.75187 1.54376 0
M  V30 3095 C 285.706 -1.65411 0.396618 0
M  V30 3096 O 286.891 -1.84137 0.617031 0
M  V30 3097 C 284.021 -3.13725 1.48976 0
M  V30 3098 C 282.975 -3.38291 2.62189 0
M  V30 3099 C 282.301 -4.76883 2.41841 0
M  V30 3100 C 283.601 -3.30632 4.04326 0
M  V30 3101 H 285.295 -1.67187 2.48373 0
M  V30 3102 H 282.841 -0.802909 1.19538 0
M  V30 3103 H 284.794 -3.92064 1.54478 0
M  V30 3104 H 283.518 -3.22515 0.514961 0
M  V30 3105 H 282.177 -2.62334 2.56079 0
M  V30 3106 H 281.825 -4.82378 1.42548 0
M  V30 3107 H 281.525 -4.94278 3.17747 0
M  V30 3108 H 283.049 -5.57449 2.49165 0
M  V30 3109 H 284.463 -3.98873 4.11793 0
M  V30 3110 H 282.86 -3.59561 4.80454 0
M  V30 3111 H 283.93 -2.28404 4.27738 0
M  V30 3112 N 285.273 -1.31445 -0.869486 0
M  V30 3113 C 286.55 -1.11795 -1.60503 0
M  V30 3114 C 286.93 0.327168 -2.08549 0
M  V30 3115 O 286.278 1.32135 -1.8642 0
M  V30 3116 C 286.488 -2.13258 -2.76265 0
M  V30 3117 C 287.836 -2.45805 -3.46215 0
M  V30 3118 O 288.86 -2.11688 -2.86473 0
M  V30 3119 O 287.719 -3.04228 -4.5399 0
M  V30 3120 H 284.813 -0.430421 -0.706163 0
M  V30 3121 H 287.359 -1.42925 -0.914907 0
M  V30 3122 H 286.131 -3.10461 -2.3818 0
M  V30 3123 H 285.754 -1.83035 -3.52964 0
M  V30 3124 N 286.751 1.08385 -1.14413 0
M  V30 3125 C 288 1.80153 -0.907076 0
M  V30 3126 C 288.313 1.87176 0.567851 0
M  V30 3127 O 289.519 2.55359 0.922172 0
M  V30 3128 C 287.975 3.23687 -1.57336 0
M  V30 3129 C 287.583 3.24897 -3.08457 0
M  V30 3130 C 289.327 4.00136 -1.41744 0
M  V30 3131 C 287.234 4.6302 -3.67921 0
M  V30 3132 H 286.164 0.675139 -0.335714 0
M  V30 3133 H 288.815 1.21733 -1.37307 0
M  V30 3134 H 287.197 3.82234 -1.03505 0
M  V30 3135 H 288.371 2.76055 -3.68958 0
M  V30 3136 H 286.686 2.61943 -3.2369 0
M  V30 3137 H 289.283 5.02201 -1.83572 0
M  V30 3138 H 289.626 4.14709 -0.363576 0
M  V30 3139 H 290.159 3.48058 -1.92614 0
M  V30 3140 H 286.898 4.5365 -4.73161 0
M  V30 3141 H 286.418 5.12143 -3.12201 0
M  V30 3142 H 288.097 5.31994 -3.68227 0
M  V30 3143 N 288.23 0.939286 1.26551 0
M  V30 3144 C 289.646 0.641304 1.46149 0
M  V30 3145 C 289.846 -0.805964 1.84679 0
M  V30 3146 O 288.902 -1.58278 1.96734 0
M  V30 3147 C 290.215 1.6011 2.54529 0
M  V30 3148 C 291.763 1.6106 2.68382 0
M  V30 3149 C 292.238 2.55765 3.79932 0
M  V30 3150 N 293.729 2.5404 3.87322 0
M  V30 3151 C 294.464 3.24004 4.73085 0
M  V30 3152 N 293.96 4.03388 5.63249 0
M  V30 3153 N 295.753 3.12965 4.66914 0
M  V30 3154 H 287.904 1.87478 0.998285 0
M  V30 3155 H 290.167 0.805559 0.499779 0
M  V30 3156 H 289.873 2.63412 2.33039 0
M  V30 3157 H 289.747 1.35171 3.52149 0
M  V30 3158 H 292.134 0.584835 2.89247 0
M  V30 3159 H 292.215 1.90053 1.71212 0
M  V30 3160 H 291.859 3.58458 3.5982 0
M  V30 3161 H 291.789 2.24063 4.76554 0
M  V30 3162 H 294.28 1.96396 3.22858 0
M  V30 3163 H 294.593 4.5373 6.25579 0
M  V30 3164 H 292.938 4.07489 5.63008 0
M  V30 3165 H 296.129 2.50432 3.95476 0
M  V30 3166 H 296.302 3.67759 5.33533 0
M  V30 3167 N 289.708 -1.40897 0.706093 0
M  V30 3168 C 290.948 -2.02916 0.245827 0
M  V30 3169 C 291.312 -1.54751 -1.13649 0
M  V30 3170 O 292.513 -2.08768 -1.69321 0
M  V30 3171 C 290.784 -3.56031 0.312537 0
M  V30 3172 S 292.343 -4.38741 -0.0721388 0
M  V30 3173 H 289.161 -0.704186 0.0982007 0
M  V30 3174 H 291.763 -1.72168 0.926207 0
M  V30 3175 H 290.467 -3.88579 1.32039 0
M  V30 3176 H 289.998 -3.91495 -0.386641 0
M  V30 3177 H 292.013 -4.78952 -1.29692 0
M  V30 3178 N 291.186 -0.45159 -1.50991 0
M  V30 3179 C 292.435 0.111653 -2.01391 0
M  V30 3180 C 292.748 1.42529 -1.33959 0
M  V30 3181 O 293.954 2.07232 -1.75405 0
M  V30 3182 C 292.41 0.249514 -3.59034 0
M  V30 3183 C 292.018 -1.05453 -4.35412 0
M  V30 3184 C 293.762 0.765762 -4.17536 0
M  V30 3185 C 291.669 -0.881529 -5.84793 0
M  V30 3186 H 290.599 0.0455022 -0.752626 0
M  V30 3187 H 293.25 -0.583524 -1.73975 0
M  V30 3188 H 291.632 1.00803 -3.82955 0
M  V30 3189 H 292.806 -1.82248 -4.23229 0
M  V30 3190 H 291.121 -1.50039 -3.88429 0
M  V30 3191 H 293.718 0.911913 -5.26866 0
M  V30 3192 H 294.061 1.75201 -3.77638 0
M  V30 3193 H 294.594 0.0651744 -3.97747 0
M  V30 3194 H 291.333 -1.84057 -6.29129 0
M  V30 3195 H 290.853 -0.153625 -5.99603 0
M  V30 3196 H 292.532 -0.540363 -6.4474 0
M  V30 3197 N 292.664 1.56529 -0.183458 0
M  V30 3198 C 294.08 1.58664 0.172554 0
M  V30 3199 C 294.28 1.19925 1.61926 0
M  V30 3200 O 293.336 0.916534 2.35278 0
M  V30 3201 C 294.649 3.00463 -0.119262 0
M  V30 3202 C 296.197 3.12945 -0.0584396 0
M  V30 3203 C 296.672 4.56857 -0.323408 0
M  V30 3204 N 298.163 4.62403 -0.271612 0
M  V30 3205 C 298.898 5.71626 -0.450639 0
M  V30 3206 N 298.394 6.89362 -0.689384 0
M  V30 3207 N 300.187 5.60775 -0.385701 0
M  V30 3208 H 292.338 1.79994 -1.12765 0
M  V30 3209 H 294.601 0.834808 -0.449222 0
M  V30 3210 H 294.307 3.33326 -1.12192 0
M  V30 3211 H 294.181 3.72659 0.583544 0
M  V30 3212 H 296.568 2.79902 0.934805 0
M  V30 3213 H 296.649 2.4316 -0.794144 0
M  V30 3214 H 296.293 4.9061 -1.31392 0
M  V30 3215 H 296.223 5.24816 0.43305 0
M  V30 3216 H 298.714 3.77785 -0.0932256 0
M  V30 3217 H 299.027 7.68489 -0.815113 0
M  V30 3218 H 297.372 6.91196 -0.726142 0
M  V30 3219 H 300.563 4.67674 -0.199687 0
M  V30 3220 H 300.736 6.4584 -0.528646 0
M  V30 3221 N 294.142 -0.090211 1.57342 0
M  V30 3222 C 295.367 -0.810082 1.90925 0
M  V30 3223 C 295.792 -1.71248 0.778187 0
M  V30 3224 O 295.15 -1.79278 -0.269991 0
M  V30 3225 C 295.198 -1.59529 3.23393 0
M  V30 3226 O 294.302 -2.70461 3.11327 0
M  V30 3227 H 293.643 -0.222231 0.625707 0
M  V30 3228 H 296.173 -0.0639716 2.045 0
M  V30 3229 H 296.183 -1.97847 3.5682 0
M  V30 3230 H 294.858 -0.933055 4.05299 0
M  V30 3231 H 293.435 -2.35135 2.89423 0
M  V30 3232 N 295.62 -1.53406 -0.361157 0
M  V30 3233 C 296.55 -1.83136 -1.44857 0
M  V30 3234 C 297.531 -0.685174 -1.5569 0
M  V30 3235 O 298.716 -0.93544 -1.70186 0
M  V30 3236 C 295.846 -2.02522 -2.82138 0
M  V30 3237 C 294.8 -3.18302 -2.86126 0
M  V30 3238 C 294.126 -3.22989 -4.26125 0
M  V30 3239 C 295.426 -4.56796 -2.53248 0
M  V30 3240 H 297.12 -2.74201 -1.20226 0
M  V30 3241 H 294.666 -1.31938 -0.576922 0
M  V30 3242 H 296.619 -2.21904 -3.58241 0
M  V30 3243 H 295.343 -1.08172 -3.08166 0
M  V30 3244 H 294.002 -2.98747 -2.12475 0
M  V30 3245 H 293.65 -2.26267 -4.49235 0
M  V30 3246 H 293.35 -4.00781 -4.29708 0
M  V30 3247 H 294.874 -3.44559 -5.04094 0
M  V30 3248 H 296.288 -4.7631 -3.19064 0
M  V30 3249 H 294.685 -5.36862 -2.68141 0
M  V30 3250 H 295.755 -4.61606 -1.48484 0
M  V30 3251 N 297.098 0.621204 -1.44841 0
M  V30 3252 C 298.046 1.75385 -1.52784 0
M  V30 3253 C 299.04 1.64639 -0.398779 0
M  V30 3254 O 300.246 1.70598 -0.574137 0
M  V30 3255 H 296.621 0.579193 -0.479625 0
M  V30 3256 H 298.592 1.6581 -2.48092 0
M  V30 3257 C 297.341 3.13742 -1.4987 0
M  V30 3258 H 296.664 3.22663 -2.36069 0
M  V30 3259 H 298.104 3.92861 -1.59487 0
M  V30 3260 C 296.563 3.36175 -0.220973 0
M  V30 3261 O 297.093 3.95469 0.704782 0
M  V30 3262 N 295.299 2.90348 -0.120963 0
M  V30 3263 H 294.846 2.42278 -0.875162 0
M  V30 3264 H 294.804 3.05732 0.733168 0
M  V30 3265 N 298.576 1.31904 0.862503 0
M  V30 3266 C 299.824 1.21776 1.61292 0
M  V30 3267 C 300.145 -0.222413 1.93727 0
M  V30 3268 O 299.415 -1.1451 1.58947 0
M  V30 3269 H 297.995 0.447717 0.597962 0
M  V30 3270 H 300.657 1.65326 1.03215 0
M  V30 3271 H 299.753 1.7948 2.5533 0
M  V30 3272 N 300.054 -1.07777 1.14986 0
M  V30 3273 C 301.294 -1.81888 0.932527 0
M  V30 3274 C 301.658 -1.84509 -0.531064 0
M  V30 3275 O 302.859 -2.54448 -0.866577 0
M  V30 3276 C 301.13 -3.23244 1.52473 0
M  V30 3277 S 302.689 -4.14154 1.44989 0
M  V30 3278 H 299.507 -0.626752 0.335712 0
M  V30 3279 H 302.109 -1.29503 1.46455 0
M  V30 3280 H 300.813 -3.18922 2.58296 0
M  V30 3281 H 300.344 -3.80704 0.991381 0
M  V30 3282 H 302.359 -4.94247 0.439799 0
M  V30 3283 N 301.532 -0.945985 -1.26051 0
M  V30 3284 C 302.948 -0.649045 -1.45807 0
M  V30 3285 C 303.148 0.796158 -1.85104 0
M  V30 3286 O 302.204 1.57233 -1.97571 0
M  V30 3287 C 303.517 -1.61458 -2.53677 0
M  V30 3288 C 305.065 -1.62481 -2.67524 0
M  V30 3289 C 305.54 -2.57776 -3.7857 0
M  V30 3290 N 307.031 -2.5609 -3.85969 0
M  V30 3291 C 307.766 -3.26508 -4.7136 0
M  V30 3292 N 307.262 -4.0637 -5.61102 0
M  V30 3293 N 309.055 -3.15437 -4.65248 0
M  V30 3294 H 301.206 -1.88005 -0.988328 0
M  V30 3295 H 303.469 -0.808198 -0.4955 0
M  V30 3296 H 303.175 -2.64644 -2.31638 0
M  V30 3297 H 303.049 -1.37036 -3.51427 0
M  V30 3298 H 305.436 -0.600167 -2.88933 0
M  V30 3299 H 305.517 -1.90958 -1.70202 0
M  V30 3300 H 305.161 -3.60361 -3.57913 0
M  V30 3301 H 305.091 -2.26587 -4.75359 0
M  V30 3302 H 307.582 -1.98105 -3.21812 0
M  V30 3303 H 307.895 -4.57042 -6.23164 0
M  V30 3304 H 306.24 -4.10469 -5.60839 0
M  V30 3305 H 309.431 -2.52525 -3.94143 0
M  V30 3306 H 309.604 -3.70584 -5.31575 0
M  V30 3307 N 303.011 1.40521 -0.713556 0
M  V30 3308 C 304.257 2.01221 -0.252564 0
M  V30 3309 C 304.59 1.56444 1.1506 0
M  V30 3310 O 303.865 0.783597 1.78017 0
M  V30 3311 C 304.148 3.58582 -0.330332 0
M  V30 3312 C 304.001 4.13437 -1.77173 0
M  V30 3313 C 305.32 4.39079 0.299641 0
M  V30 3314 H 302.439 0.731077 -0.0932471 0
M  V30 3315 H 305.081 1.67026 -0.905673 0
M  V30 3316 H 303.231 3.87844 0.225737 0
M  V30 3317 H 304.903 3.9498 -2.38303 0
M  V30 3318 H 303.146 3.67801 -2.3001 0
M  V30 3319 H 303.817 5.22597 -1.77755 0
M  V30 3320 H 306.293 4.15735 -0.174139 0
M  V30 3321 H 305.169 5.4848 0.214771 0
M  V30 3322 H 305.43 4.19915 1.38288 0
M  V30 3323 N 304.489 0.459591 1.5075 0
M  V30 3324 C 305.717 -0.0973749 2.06671 0
M  V30 3325 C 306.132 -1.34524 1.32472 0
M  V30 3326 O 305.489 -1.7827 0.390634 0
M  V30 3327 C 305.54 -0.39714 3.59312 0
M  V30 3328 O 305.261 0.801214 4.30711 0
M  V30 3329 C 306.762 -1.00234 4.31819 0
M  V30 3330 H 303.982 0.00195854 0.670997 0
M  V30 3331 H 306.526 0.645072 1.94059 0
M  V30 3332 H 304.681 -1.08951 3.71764 0
M  V30 3333 H 305.095 0.538857 5.21725 0
M  V30 3334 H 306.569 -1.16193 5.39632 0
M  V30 3335 H 307.046 -1.98939 3.91561 0
M  V30 3336 H 307.652 -0.348699 4.23868 0
M  V30 3337 N 305.967 -1.56429 0.191757 0
M  V30 3338 C 307.244 -1.89224 -0.495332 0
M  V30 3339 C 307.624 -1.10478 -1.79883 0
M  V30 3340 O 306.972 -0.204852 -2.2758 0
M  V30 3341 C 307.182 -3.41548 -0.717367 0
M  V30 3342 C 308.53 -4.11711 -1.03823 0
M  V30 3343 O 309.554 -3.4698 -0.805204 0
M  V30 3344 O 308.413 -5.2611 -1.47887 0
M  V30 3345 H 305.507 -0.785788 -0.25781 0
M  V30 3346 H 308.053 -1.68111 0.231721 0
M  V30 3347 H 306.825 -3.90772 0.203287 0
M  V30 3348 H 306.448 -3.68342 -1.497 0
M  V30 3349 N 307.445 0.0818655 -1.57387 0
M  V30 3350 C 308.355 1.11642 -2.06333 0
M  V30 3351 C 309.371 1.43033 -0.99083 0
M  V30 3352 O 310.547 1.53411 -1.30488 0
M  V30 3353 C 307.612 2.41342 -2.48907 0
M  V30 3354 C 306.673 2.17014 -3.7041 0
M  V30 3355 C 305.906 3.4053 -4.10944 0
M  V30 3356 O 306.129 4.4927 -3.51444 0
M  V30 3357 O 305.063 3.29336 -5.03807 0
M  V30 3358 H 308.889 0.730657 -2.9478 0
M  V30 3359 H 306.474 0.295301 -1.46452 0
M  V30 3360 H 308.356 3.17691 -2.76858 0
M  V30 3361 H 307.031 2.79319 -1.63593 0
M  V30 3362 H 305.938 1.38403 -3.47556 0
M  V30 3363 H 307.271 1.83923 -4.56545 0
M  V30 3364 N 308.923 1.53595 0.353017 0
M  V30 3365 C 310.172 1.69603 1.09168 0
M  V30 3366 C 310.485 0.460925 1.90092 0
M  V30 3367 O 311.691 0.501774 2.66823 0
M  V30 3368 C 310.147 2.99872 1.9901 0
M  V30 3369 C 309.755 4.30687 1.23339 0
M  V30 3370 C 311.499 3.25246 2.72792 0
M  V30 3371 C 309.406 5.52036 2.12156 0
M  V30 3372 H 308.336 0.631966 0.411261 0
M  V30 3373 H 310.987 1.80096 0.351802 0
M  V30 3374 H 309.369 2.83212 2.7678 0
M  V30 3375 H 310.543 4.58019 0.505456 0
M  V30 3376 H 308.858 4.11853 0.613663 0
M  V30 3377 H 311.455 4.13095 3.39495 0
M  V30 3378 H 311.798 2.41846 3.38846 0
M  V30 3379 H 312.331 3.42638 2.021 0
M  V30 3380 H 309.07 6.37951 1.50659 0
M  V30 3381 H 308.59 5.28966 2.82764 0
M  V30 3382 H 310.269 5.87313 2.71427 0
M  V30 3383 N 310.401 -0.613514 1.45168 0
M  V30 3384 C 311.331 -1.7354 1.56225 0
M  V30 3385 C 312.312 -1.64981 0.41414 0
M  V30 3386 O 313.497 -1.83472 0.636526 0
M  V30 3387 C 310.627 -3.12128 1.52295 0
M  V30 3388 C 309.581 -3.35491 2.65762 0
M  V30 3389 C 308.907 -4.74291 2.46885 0
M  V30 3390 C 310.207 -3.26325 4.0781 0
M  V30 3391 H 311.901 -1.64543 2.50132 0
M  V30 3392 H 309.447 -0.790185 1.20383 0
M  V30 3393 H 311.4 -3.90404 1.58628 0
M  V30 3394 H 310.124 -3.2195 0.549139 0
M  V30 3395 H 308.783 -2.59603 2.58847 0
M  V30 3396 H 308.431 -4.80839 1.47657 0
M  V30 3397 H 308.131 -4.9088 3.22972 0
M  V30 3398 H 309.655 -5.54775 2.55063 0
M  V30 3399 H 311.069 -3.94483 4.16 0
M  V30 3400 H 309.466 -3.54445 4.8424 0
M  V30 3401 H 310.536 -2.23855 4.30136 0
M  V30 3402 N 311.879 -1.3236 -0.855495 0
M  V30 3403 C 312.829 -1.17809 -1.95205 0
M  V30 3404 C 313.813 -0.0852319 -1.60674 0
M  V30 3405 O 315.005 -0.311651 -1.74235 0
M  V30 3406 C 312.134 -0.902437 -3.31226 0
M  V30 3407 C 311.22 -2.03695 -3.7198 0
M  V30 3408 N 311.611 -3.28544 -3.84568 0
M  V30 3409 C 309.909 -1.93993 -4.016 0
M  V30 3410 C 310.61 -4.02847 -4.19629 0
M  V30 3411 N 309.586 -3.31138 -4.31102 0
M  V30 3412 H 313.388 -2.12462 -2.0307 0
M  V30 3413 H 310.902 -1.24127 -1.0472 0
M  V30 3414 H 312.899 -0.77915 -4.09554 0
M  V30 3415 H 311.559 0.0357267 -3.2468 0
M  V30 3416 H 312.57 -3.6349 -3.68911 0
M  V30 3417 H 309.247 -1.07733 -4.03361 0
M  V30 3418 H 310.637 -5.10506 -4.36845 0
M  V30 3419 N 313.357 1.07166 -1.15556 0
M  V30 3420 C 314.287 2.16403 -0.877046 0
M  V30 3421 C 315.268 1.69217 0.173111 0
M  V30 3422 O 316.453 1.94181 0.027084 0
M  V30 3423 C 313.583 3.45349 -0.367632 0
M  V30 3424 C 312.537 4.05995 -1.35468 0
M  V30 3425 C 311.863 5.30045 -0.704038 0
M  V30 3426 C 313.163 4.45804 -2.72132 0
M  V30 3427 H 314.857 2.39959 -1.79053 0
M  V30 3428 H 312.403 1.15325 -0.862331 0
M  V30 3429 H 314.356 4.21095 -0.160317 0
M  V30 3430 H 313.08 3.21385 0.581326 0
M  V30 3431 H 311.739 3.32296 -1.54839 0
M  V30 3432 H 311.387 5.02373 0.251128 0
M  V30 3433 H 311.087 5.71579 -1.36277 0
M  V30 3434 H 312.611 6.08495 -0.50654 0
M  V30 3435 H 314.025 5.12671 -2.56595 0
M  V30 3436 H 312.422 4.98296 -3.34397 0
M  V30 3437 H 313.492 3.57083 -3.28054 0
M  V30 3438 N 314.835 0.952656 1.25548 0
M  V30 3439 C 316.081 0.607272 1.93494 0
M  V30 3440 C 316.414 -0.853245 1.74452 0
M  V30 3441 O 315.689 -1.61194 1.08843 0
M  V30 3442 C 315.972 0.96435 3.46947 0
M  V30 3443 C 315.825 2.48045 3.75225 0
M  V30 3444 C 317.144 0.487987 4.37386 0
M  V30 3445 H 314.263 0.222096 0.702739 0
M  V30 3446 H 316.905 1.18895 1.48203 0
M  V30 3447 H 315.055 0.469361 3.85654 0
M  V30 3448 H 316.727 3.04905 3.46166 0
M  V30 3449 H 314.97 2.919 3.209 0
M  V30 3450 H 315.641 2.6808 4.82532 0
M  V30 3451 H 318.117 0.912558 4.0597 0
M  V30 3452 H 316.993 0.766547 5.43521 0
M  V30 3453 H 317.254 -0.612063 4.37843 0
M  V30 3454 N 316.313 -1.40141 0.720998 0
M  V30 3455 C 317.724 -1.83678 0.334553 0
M  V30 3456 C 318.075 -1.6027 -1.13173 0
M  V30 3457 O 317.2 -1.08643 -1.87152 0
M  V30 3458 C 317.795 -3.33437 0.600437 0
M  V30 3459 C 316.354 -3.75447 0.267642 0
M  V30 3460 C 315.501 -2.63296 0.870097 0
M  V30 3461 H 318.452 -1.29331 0.919732 0
M  V30 3462 H 318.473 -3.80269 -0.132517 0
M  V30 3463 H 317.985 -3.50442 1.66768 0
M  V30 3464 H 316.086 -3.64035 -0.794329 0
M  V30 3465 H 316.199 -4.73344 0.74042 0
M  V30 3466 H 314.563 -2.52954 0.297739 0
M  V30 3467 H 315.346 -2.83112 1.94172 0
M  V30 3468 N 317.792 -0.46758 -1.50504 0
M  V30 3469 C 318.74 0.342482 -2.30065 0
M  V30 3470 C 319.734 0.993596 -1.37201 0
M  V30 3471 O 320.94 0.925102 -1.54408 0
M  V30 3472 H 317.315 0.129283 -0.740803 0
M  V30 3473 H 319.286 -0.34899 -2.96352 0
M  V30 3474 C 318.035 1.4139 -3.17654 0
M  V30 3475 H 317.358 0.922264 -3.89017 0
M  V30 3476 H 318.798 1.95335 -3.76325 0
M  V30 3477 C 317.257 2.4139 -2.35016 0
M  V30 3478 O 317.787 3.46586 -2.03079 0
M  V30 3479 N 315.993 2.13021 -1.97662 0
M  V30 3480 H 315.54 1.27499 -2.23834 0
M  V30 3481 H 315.498 2.80164 -1.42673 0
M  V30 3482 N 319.27 1.56325 -0.20005 0
M  V30 3483 C 320.519 1.96895 0.437652 0
M  V30 3484 C 320.832 1.08999 1.62415 0
M  V30 3485 O 322.038 1.39372 2.32997 0
M  V30 3486 C 320.494 3.50198 0.830025 0
M  V30 3487 C 320.102 4.46765 -0.332461 0
M  V30 3488 C 321.846 3.99526 1.43453 0
M  V30 3489 C 319.753 5.91344 0.0811468 0
M  V30 3490 H 318.683 0.735209 0.167282 0
M  V30 3491 H 321.334 1.81148 -0.292853 0
M  V30 3492 H 319.716 3.61467 1.61734 0
M  V30 3493 H 320.89 4.47231 -1.11 0
M  V30 3494 H 319.205 4.07657 -0.848789 0
M  V30 3495 H 321.802 5.05025 1.75652 0
M  V30 3496 H 322.145 3.44122 2.34277 0
M  V30 3497 H 322.678 3.91393 0.71109 0
M  V30 3498 H 319.417 6.50685 -0.793033 0
M  V30 3499 H 318.937 5.94121 0.823445 0
M  V30 3500 H 320.616 6.44945 0.515252 0
M  V30 3501 N 320.748 -0.0735177 1.57428 0
M  V30 3502 C 322.025 -0.805903 1.78226 0
M  V30 3503 C 322.405 -1.95874 0.787189 0
M  V30 3504 O 321.753 -2.2779 -0.180029 0
M  V30 3505 C 321.963 -1.28045 3.24662 0
M  V30 3506 C 323.311 -1.71453 3.88444 0
M  V30 3507 O 324.335 -1.37616 3.28543 0
M  V30 3508 O 323.194 -2.34093 4.93825 0
M  V30 3509 H 320.288 -0.386041 0.73137 0
M  V30 3510 H 322.834 -0.0537269 1.69615 0
M  V30 3511 H 321.606 -0.455476 3.8864 0
M  V30 3512 H 321.229 -2.094 3.37991 0
M  V30 3513 N 322.226 -1.5378 -0.344866 0
M  V30 3514 C 323.174 -1.82373 -1.4437 0
M  V30 3515 C 324.168 -0.694128 -1.54526 0
M  V30 3516 O 325.374 -0.877442 -1.57165 0
M  V30 3517 H 321.749 -0.577765 -0.481344 0
M  V30 3518 H 323.72 -2.74306 -1.17468 0
M  V30 3519 C 322.469 -2.04898 -2.80913 0
M  V30 3520 H 321.792 -2.9127 -2.73865 0
M  V30 3521 H 323.232 -2.28871 -3.56923 0
M  V30 3522 C 321.691 -0.834116 -3.26411 0
M  V30 3523 O 322.221 -0.0328885 -4.01687 0
M  V30 3524 N 320.427 -0.65171 -2.83198 0
M  V30 3525 H 319.974 -1.30489 -2.22104 0
M  V30 3526 H 319.932 0.159686 -3.13994 0
M  V30 3527 N 323.704 0.605807 -1.45491 0
M  V30 3528 C 324.951 1.36476 -1.49601 0
M  V30 3529 C 325.279 1.94007 -0.138452 0
M  V30 3530 O 324.534 1.75638 0.863114 0
M  V30 3531 C 324.833 2.53012 -2.52428 0
M  V30 3532 C 324.499 2.13617 -3.97087 0
M  V30 3533 C 323.161 2.02587 -4.36477 0
M  V30 3534 C 325.513 1.82899 -4.88055 0
M  V30 3535 C 322.841 1.59064 -5.64726 0
M  V30 3536 C 325.193 1.40861 -6.16718 0
M  V30 3537 C 323.857 1.28391 -6.55036 0
M  V30 3538 H 323.127 0.499402 -0.547429 0
M  V30 3539 H 325.774 0.684546 -1.78847 0
M  V30 3540 H 324.079 3.26379 -2.16758 0
M  V30 3541 H 325.776 3.1124 -2.52845 0
M  V30 3542 H 322.366 2.23129 -3.65939 0
M  V30 3543 H 326.55 1.90317 -4.58359 0
M  V30 3544 H 321.806 1.48034 -5.93208 0
M  V30 3545 H 325.98 1.16138 -6.86648 0
M  V30 3546 H 323.607 0.944403 -7.54311 0
M  V30 3547 N 325.182 1.32811 0.848464 0
M  V30 3548 C 326.598 1.11937 1.13764 0
M  V30 3549 C 326.798 -0.0960789 2.01271 0
M  V30 3550 O 325.854 -0.779165 2.40178 0
M  V30 3551 C 327.167 2.402 1.809 0
M  V30 3552 C 328.715 2.46016 1.93508 0
M  V30 3553 C 329.19 3.74215 2.64059 0
M  V30 3554 N 330.681 3.75232 2.71579 0
M  V30 3555 C 331.416 4.71134 3.26833 0
M  V30 3556 N 330.912 5.77406 3.8285 0
M  V30 3557 N 332.705 4.58623 3.24995 0
M  V30 3558 H 324.856 2.1073 0.265855 0
M  V30 3559 H 327.119 0.930671 0.180431 0
M  V30 3560 H 326.825 3.29093 1.24058 0
M  V30 3561 H 326.699 2.51628 2.81004 0
M  V30 3562 H 329.086 1.57577 2.49506 0
M  V30 3563 H 329.167 2.38536 0.923811 0
M  V30 3564 H 328.811 4.63031 2.08722 0
M  V30 3565 H 328.741 3.78968 3.65637 0
M  V30 3566 H 331.232 2.98423 2.31845 0
M  V30 3567 H 331.545 6.46632 4.23187 0
M  V30 3568 H 329.89 5.81152 3.81165 0
M  V30 3569 H 333.081 3.74762 2.80484 0
M  V30 3570 H 333.254 5.33535 3.67756 0
M  V30 3571 N 326.66 -1.06551 1.16123 0
M  V30 3572 C 327.59 -2.15935 0.88851 0
M  V30 3573 C 328.571 -1.69306 -0.164135 0
M  V30 3574 O 329.756 -1.94193 -0.0167857 0
M  V30 3575 C 326.886 -3.45149 0.385942 0
M  V30 3576 C 325.84 -4.05271 1.3762 0
M  V30 3577 C 325.166 -5.29664 0.732137 0
M  V30 3578 C 326.466 -4.44355 2.74493 0
M  V30 3579 H 328.16 -2.39006 1.80323 0
M  V30 3580 H 325.706 -1.14866 0.868435 0
M  V30 3581 H 327.659 -4.21004 0.182647 0
M  V30 3582 H 326.383 -3.21689 -0.564274 0
M  V30 3583 H 325.042 -3.3147 1.56599 0
M  V30 3584 H 324.69 -5.02499 -0.224483 0
M  V30 3585 H 324.39 -5.70848 1.39307 0
M  V30 3586 H 325.914 -6.08218 0.538802 0
M  V30 3587 H 327.328 -5.11303 2.59311 0
M  V30 3588 H 325.725 -4.96515 3.37035 0
M  V30 3589 H 326.795 -3.55339 3.29943 0
M  V30 3590 N 328.138 -0.959301 -1.25041 0
M  V30 3591 C 329.366 -0.633949 -1.96948 0
M  V30 3592 C 329.781 0.794916 -1.7125 0
M  V30 3593 O 329.138 1.53231 -0.991287 0
M  V30 3594 C 329.189 -0.888805 -3.50403 0
M  V30 3595 O 328.91 -2.26149 -3.75218 0
M  V30 3596 C 330.411 -0.576482 -4.39536 0
M  V30 3597 H 327.631 -0.237263 -0.627652 0
M  V30 3598 H 330.175 -1.28495 -1.59089 0
M  V30 3599 H 328.33 -0.284145 -3.86357 0
M  V30 3600 H 328.744 -2.33514 -4.6965 0
M  V30 3601 H 330.218 -0.805314 -5.46094 0
M  V30 3602 H 330.695 0.489075 -4.36468 0
M  V30 3603 H 331.301 -1.16067 -4.09156 0
M  V30 3604 N 329.616 1.39756 -0.72842 0
M  V30 3605 C 330.546 2.33289 -0.0991354 0
M  V30 3606 C 331.527 1.53568 0.731489 0
M  V30 3607 O 332.712 1.81987 0.677807 0
M  V30 3608 C 329.842 3.3763 0.813834 0
M  V30 3609 C 328.796 4.2791 0.0878663 0
M  V30 3610 C 328.122 5.22894 1.11741 0
M  V30 3611 C 329.422 5.11314 -1.06563 0
M  V30 3612 H 331.116 2.86163 -0.880408 0
M  V30 3613 H 328.662 1.37591 -0.424819 0
M  V30 3614 H 330.615 4.0201 1.26355 0
M  V30 3615 H 329.339 2.83181 1.62715 0
M  V30 3616 H 327.998 3.65 -0.342159 0
M  V30 3617 H 327.646 4.64744 1.92412 0
M  V30 3618 H 327.346 5.84143 0.636477 0
M  V30 3619 H 328.87 5.90151 1.56697 0
M  V30 3620 H 330.284 5.69076 -0.694671 0
M  V30 3621 H 328.681 5.81671 -1.47577 0
M  V30 3622 H 329.751 4.46534 -1.89038 0
M  V30 3623 N 331.094 0.475555 1.50254 0
M  V30 3624 C 332.51 0.12997 1.5907 0
M  V30 3625 C 332.71 -1.36385 1.48328 0
M  V30 3626 O 331.766 -2.13754 1.34407 0
M  V30 3627 C 333.079 0.684139 2.92814 0
M  V30 3628 C 334.627 0.647965 3.0622 0
M  V30 3629 C 335.102 1.17975 4.42545 0
M  V30 3630 N 336.593 1.13936 4.48969 0
M  V30 3631 C 337.328 1.52129 5.52851 0
M  V30 3632 N 336.824 1.97793 6.63965 0
M  V30 3633 N 338.617 1.43704 5.4342 0
M  V30 3634 H 330.768 1.44706 1.55479 0
M  V30 3635 H 333.031 0.598691 0.735033 0
M  V30 3636 H 332.737 1.73079 3.06164 0
M  V30 3637 H 332.611 0.130204 3.76975 0
M  V30 3638 H 334.998 -0.38979 2.92514 0
M  V30 3639 H 335.079 1.23876 2.23805 0
M  V30 3640 H 334.723 2.21616 4.57 0
M  V30 3641 H 334.653 0.565138 5.23559 0
M  V30 3642 H 337.144 0.804488 3.69238 0
M  V30 3643 H 337.457 2.25072 7.39299 0
M  V30 3644 H 335.802 2.01749 6.65073 0
M  V30 3645 H 338.993 1.07867 4.55502 0
M  V30 3646 H 339.166 1.73794 6.24259 0
M  V30 3647 N 332.573 -1.56217 0.208337 0
M  V30 3648 C 333.536 -2.18455 -0.693557 0
M  V30 3649 C 334.536 -1.14268 -1.13135 0
M  V30 3650 O 335.726 -1.39577 -1.0423 0
M  V30 3651 C 332.858 -2.79727 -1.94848 0
M  V30 3652 H 334.051 -2.99519 -0.15114 0
M  V30 3653 H 331.604 -1.56245 -0.041287 0
M  V30 3654 H 332.339 -2.02497 -2.53309 0
M  V30 3655 H 332.124 -3.56009 -1.64316 0
M  V30 3656 H 333.614 -3.27475 -2.59133 0
M  V30 3657 N 334.051 0.0651679 -1.57465 0
M  V30 3658 C 335.3 0.761916 -1.86756 0
M  V30 3659 C 335.613 1.78406 -0.801925 0
M  V30 3660 O 336.819 2.53084 -0.982885 0
M  V30 3661 C 335.275 1.40603 -3.31299 0
M  V30 3662 C 334.883 0.422115 -4.46007 0
M  V30 3663 C 336.627 2.08476 -3.69781 0
M  V30 3664 C 334.534 1.07252 -5.81593 0
M  V30 3665 H 333.464 0.288308 -0.696702 0
M  V30 3666 H 336.115 0.015344 -1.83494 0
M  V30 3667 H 334.497 2.20109 -3.29193 0
M  V30 3668 H 335.671 -0.343613 -4.59517 0
M  V30 3669 H 333.986 -0.152527 -4.16121 0
M  V30 3670 H 336.583 2.57925 -4.68379 0
M  V30 3671 H 336.926 2.88712 -2.99919 0
M  V30 3672 H 337.459 1.35792 -3.73905 0
M  V30 3673 H 334.198 0.310342 -6.54765 0
M  V30 3674 H 333.718 1.80895 -5.71872 0
M  V30 3675 H 335.397 1.59043 -6.27148 0
M  V30 3676 N 335.529 1.53961 0.336706 0
M  V30 3677 C 336.476 1.82428 1.41381 0
M  V30 3678 C 337.446 0.670444 1.51968 0
M  V30 3679 O 338.631 0.915565 1.67398 0
M  V30 3680 C 335.771 2.04564 2.77934 0
M  V30 3681 C 334.884 3.32267 2.76084 0
M  V30 3682 C 334.019 3.44434 4.04399 0
M  V30 3683 C 333.058 4.66061 3.96804 0
M  V30 3684 N 332.195 4.75224 5.16823 0
M  V30 3685 H 337.035 2.74324 1.16405 0
M  V30 3686 H 334.572 1.35869 0.563752 0
M  V30 3687 H 336.53 2.15388 3.57301 0
M  V30 3688 H 335.16 1.15974 3.01247 0
M  V30 3689 H 334.212 3.3025 1.88784 0
M  V30 3690 H 335.524 4.21733 2.66351 0
M  V30 3691 H 334.678 3.54728 4.92192 0
M  V30 3692 H 333.417 2.53037 4.16921 0
M  V30 3693 H 332.422 4.55838 3.07396 0
M  V30 3694 H 333.647 5.58829 3.85858 0
M  V30 3695 H 331.593 3.86739 5.29876 0
M  V30 3696 H 331.51 5.58636 5.09374 0
M  V30 3697 H 332.778 4.89835 6.06367 0
M  V30 3698 N 337.007 -0.598083 1.45811 0
M  V30 3699 C 337.937 -1.71873 1.58057 0
M  V30 3700 C 338.918 -1.64533 0.431615 0
M  V30 3701 O 340.103 -1.82787 0.65595 0
M  V30 3702 C 337.233 -3.10495 1.55597 0
M  V30 3703 C 336.187 -3.32654 2.69305 0
M  V30 3704 C 335.513 -4.71646 2.51902 0
M  V30 3705 C 336.813 -3.21981 4.11248 0
M  V30 3706 H 338.507 -1.61881 2.51863 0
M  V30 3707 H 336.053 -0.777372 1.21214 0
M  V30 3708 H 338.006 -3.88699 1.6276 0
M  V30 3709 H 336.73 -3.2135 0.583255 0
M  V30 3710 H 335.389 -2.56843 2.61586 0
M  V30 3711 H 335.037 -4.79246 1.52748 0
M  V30 3712 H 334.737 -4.87426 3.2816 0
M  V30 3713 H 336.261 -5.52038 2.60933 0
M  V30 3714 H 337.675 -3.90049 4.20161 0
M  V30 3715 H 336.072 -3.49289 4.87972 0
M  V30 3716 H 337.142 -2.1928 4.32486 0
M  V30 3717 N 338.485 -1.33259 -0.841409 0
M  V30 3718 C 339.731 -1.25766 -1.59857 0
M  V30 3719 C 340.086 0.175602 -1.91597 0
M  V30 3720 O 339.379 1.117 -1.55672 0
M  V30 3721 C 339.573 -2.06381 -2.9179 0
M  V30 3722 C 339.402 -3.57401 -2.72937 0
M  V30 3723 C 338.172 -4.26718 -2.70628 0
M  V30 3724 C 340.37 -4.51786 -2.45753 0
M  V30 3725 N 338.352 -5.63705 -2.43125 0
M  V30 3726 C 339.723 -5.76643 -2.27777 0
M  V30 3727 C 341.778 -4.40898 -2.31329 0
M  V30 3728 C 340.481 -6.91842 -1.96841 0
M  V30 3729 C 342.507 -5.55911 -2.01786 0
M  V30 3730 C 341.869 -6.79776 -1.8462 0
M  V30 3731 H 337.968 -0.515406 -0.588117 0
M  V30 3732 H 340.552 -1.67772 -0.987955 0
M  V30 3733 H 338.723 -1.667 -3.50807 0
M  V30 3734 H 340.455 -1.90678 -3.56965 0
M  V30 3735 H 337.21 -3.78968 -2.84043 0
M  V30 3736 H 337.634 -6.35911 -2.32265 0
M  V30 3737 H 342.276 -3.45772 -2.43314 0
M  V30 3738 H 339.994 -7.86968 -1.83594 0
M  V30 3739 H 343.58 -5.49421 -1.91384 0
M  V30 3740 H 342.46 -7.67266 -1.62088 0
M  V30 3741 N 339.963 1.05934 -1.16686 0
M  V30 3742 C 340.926 2.11669 -0.879144 0
M  V30 3743 C 341.926 1.60294 0.127445 0
M  V30 3744 O 343.116 1.7389 -0.103865 0
M  V30 3745 C 340.248 3.39438 -0.315425 0
M  V30 3746 H 341.441 2.38626 -1.81653 0
M  V30 3747 H 338.994 1.22058 -0.976299 0
M  V30 3748 H 339.729 3.18132 0.629468 0
M  V30 3749 H 339.514 3.78034 -1.04079 0
M  V30 3750 H 341.004 4.17391 -0.132189 0
M  V30 3751 N 341.441 0.965919 1.2453 0
M  V30 3752 C 342.388 0.49402 2.25451 0
M  V30 3753 C 343.358 -0.45948 1.59618 0
M  V30 3754 O 344.543 -0.370238 1.87173 0
M  V30 3755 C 341.683 -0.211359 3.44452 0
M  V30 3756 C 340.796 0.7807 4.24887 0
M  V30 3757 C 339.931 0.0516105 5.31175 0
M  V30 3758 C 338.97 1.03385 6.03306 0
M  V30 3759 N 338.107 0.334887 7.01301 0
M  V30 3760 H 342.947 1.35946 2.65184 0
M  V30 3761 H 340.484 0.681515 1.3036 0
M  V30 3762 H 342.442 -0.637 4.12308 0
M  V30 3763 H 341.072 -1.04077 3.05562 0
M  V30 3764 H 340.124 1.32479 3.56586 0
M  V30 3765 H 341.436 1.52978 4.74762 0
M  V30 3766 H 340.59 -0.432114 6.05159 0
M  V30 3767 H 339.329 -0.730179 4.82203 0
M  V30 3768 H 338.334 1.52847 5.28127 0
M  V30 3769 H 339.559 1.81606 6.54367 0
M  V30 3770 H 337.505 -0.427959 6.54603 0
M  V30 3771 H 337.422 1.02287 7.49048 0
M  V30 3772 H 338.69 -0.126928 7.79397 0
M  V30 3773 N 342.919 -1.39368 0.735821 0
M  V30 3774 C 344.335 -1.54204 0.411492 0
M  V30 3775 C 344.535 -1.70268 -1.07755 0
M  V30 3776 O 343.591 -1.70364 -1.86366 0
M  V30 3777 C 344.904 -2.75925 1.19523 0
M  V30 3778 C 346.452 -2.89761 1.18354 0
M  V30 3779 C 346.927 -4.14421 1.94986 0
M  V30 3780 N 348.418 -4.21462 1.92156 0
M  V30 3781 C 349.153 -5.16871 2.48258 0
M  V30 3782 N 348.649 -6.18063 3.13001 0
M  V30 3783 N 350.442 -5.09093 2.38287 0
M  V30 3784 H 342.593 -1.27189 1.70108 0
M  V30 3785 H 344.856 -0.616517 0.720147 0
M  V30 3786 H 344.562 -2.70401 2.24892 0
M  V30 3787 H 344.436 -3.68614 0.800222 0
M  V30 3788 H 346.823 -2.94777 0.137975 0
M  V30 3789 H 346.904 -1.98133 1.61793 0
M  V30 3790 H 346.548 -4.10166 2.99543 0
M  V30 3791 H 346.478 -5.05095 1.48953 0
M  V30 3792 H 348.969 -3.48979 1.44991 0
M  V30 3793 H 349.282 -6.87326 3.53275 0
M  V30 3794 H 347.627 -6.18448 3.17091 0
M  V30 3795 H 350.818 -4.28973 1.8735 0
M  V30 3796 H 350.991 -5.83272 2.82308 0
M  V30 3797 N 344.397 -0.483516 -1.5 0
M  V30 3798 C 345.347 0.32306 -2.257 0
M  V30 3799 C 346.331 0.950755 -1.29805 0
M  V30 3800 O 347.523 0.861247 -1.54634 0
M  V30 3801 C 344.652 1.39724 -3.13579 0
M  V30 3802 C 343.738 0.776663 -4.16928 0
M  V30 3803 N 344.129 -0.1104 -5.0568 0
M  V30 3804 C 342.427 1.03922 -4.33724 0
M  V30 3805 C 343.128 -0.46387 -5.79848 0
M  V30 3806 N 342.104 0.163987 -5.43353 0
M  V30 3807 H 345.906 -0.360086 -2.91686 0
M  V30 3808 H 343.42 -0.298456 -1.59634 0
M  V30 3809 H 345.417 1.98837 -3.66428 0
M  V30 3810 H 344.077 2.08225 -2.49143 0
M  V30 3811 H 345.088 -0.480069 -5.1567 0
M  V30 3812 H 341.765 1.71829 -3.80501 0
M  V30 3813 H 343.155 -1.18854 -6.61304 0
M  V30 3814 N 345.875 1.56104 -0.216619 0
M  V30 3815 C 346.823 2.21434 0.712036 0
M  V30 3816 C 347.817 1.19218 1.20348 0
M  V30 3817 O 349.023 1.3731 1.16387 0
M  V30 3818 H 345.398 0.70992 0.248026 0
M  V30 3819 H 347.369 2.98083 0.137558 0
M  V30 3820 C 346.118 2.90434 1.91163 0
M  V30 3821 H 345.441 3.68842 1.54258 0
M  V30 3822 H 346.881 3.39552 2.5393 0
M  V30 3823 C 345.34 1.92635 2.76394 0
M  V30 3824 O 345.87 1.44017 3.74996 0
M  V30 3825 N 344.076 1.60392 2.42328 0
M  V30 3826 H 343.623 2.00122 1.622 0
M  V30 3827 H 343.581 0.952159 2.99635 0
M  V30 3828 N 347.353 -0.0568162 1.57498 0
M  V30 3829 C 348.602 -0.752001 1.87157 0
M  V30 3830 C 348.915 -1.77978 0.811375 0
M  V30 3831 O 350.121 -2.52559 0.996293 0
M  V30 3832 C 348.577 -1.38844 3.3204 0
M  V30 3833 C 348.185 -0.398456 4.46225 0
M  V30 3834 C 349.929 -2.06512 3.70882 0
M  V30 3835 C 347.836 -1.04166 5.82154 0
M  V30 3836 H 346.766 -0.28461 0.698222 0
M  V30 3837 H 349.417 -0.00561272 1.83499 0
M  V30 3838 H 347.799 -2.1836 3.30356 0
M  V30 3839 H 348.973 0.367977 4.59328 0
M  V30 3840 H 347.288 0.174592 4.16034 0
M  V30 3841 H 349.885 -2.55437 4.6974 0
M  V30 3842 H 350.228 -2.87117 3.01445 0
M  V30 3843 H 350.761 -1.33808 3.7462 0
M  V30 3844 H 347.5 -0.275614 6.5492 0
M  V30 3845 H 347.02 -1.7786 5.72823 0
M  V30 3846 H 348.699 -1.55715 6.27982 0
M  V30 3847 N 348.832 -1.54138 -0.328536 0
M  V30 3848 C 350.062 -1.75807 -1.08516 0
M  V30 3849 C 350.47 -0.50428 -1.82356 0
M  V30 3850 O 349.813 0.534451 -1.75754 0
M  V30 3851 C 349.875 -2.89423 -2.13248 0
M  V30 3852 C 349.539 -4.28504 -1.5885 0
M  V30 3853 C 350.536 -5.09536 -1.03289 0
M  V30 3854 C 348.221 -4.75034 -1.63243 0
M  V30 3855 C 350.215 -6.35206 -0.52845 0
M  V30 3856 C 347.902 -6.00672 -1.12411 0
M  V30 3857 C 348.9 -6.80592 -0.573062 0
M  V30 3858 O 348.588 -8.03867 -0.0723692 0
M  V30 3859 H 348.32 -0.590633 -0.328829 0
M  V30 3860 H 350.874 -2.01819 -0.381868 0
M  V30 3861 H 349.104 -2.5897 -2.87178 0
M  V30 3862 H 350.793 -2.98921 -2.74592 0
M  V30 3863 H 351.559 -4.74745 -0.99206 0
M  V30 3864 H 347.438 -4.12875 -2.05074 0
M  V30 3865 H 350.982 -6.97532 -0.0976774 0
M  V30 3866 H 346.879 -6.34955 -1.162 0
M  V30 3867 H 347.647 -8.18283 -0.188258 0
M  V30 3868 N 350.31 0.590341 -1.46126 0
M  V30 3869 C 351.535 1.37991 -1.54833 0
M  V30 3870 C 351.96 1.87163 -0.187506 0
M  V30 3871 O 351.318 1.61133 0.831008 0
M  V30 3872 C 351.366 2.54867 -2.55098 0
M  V30 3873 O 350.47 3.56061 -2.08073 0
M  V30 3874 H 349.811 0.411265 -0.521303 0
M  V30 3875 H 352.341 0.716819 -1.91632 0
M  V30 3876 H 352.351 3.01886 -2.74461 0
M  V30 3877 H 351.026 2.18429 -3.53923 0
M  V30 3878 H 349.603 3.15574 -1.98664 0
M  V30 3879 N 351.788 1.33704 0.83433 0
M  V30 3880 C 352.736 1.24323 1.96587 0
M  V30 3881 C 353.73 0.143659 1.6879 0
M  V30 3882 O 354.936 0.30791 1.77347 0
M  V30 3883 H 351.311 0.385925 0.645419 0
M  V30 3884 H 353.282 2.19978 2.01624 0
M  V30 3885 C 352.031 1.00394 3.32891 0
M  V30 3886 H 351.354 1.84231 3.54822 0
M  V30 3887 H 352.794 0.97862 4.12552 0
M  V30 3888 C 351.253 -0.293047 3.35623 0
M  V30 3889 O 351.783 -1.29823 3.80143 0
M  V30 3890 N 349.989 -0.322174 2.88809 0
M  V30 3891 H 349.536 0.496379 2.52772 0
M  V30 3892 H 349.494 -1.18977 2.91019 0
M  V30 3893 N 353.266 -1.05314 1.17247 0
M  V30 3894 C 354.515 -1.77685 0.954521 0
M  V30 3895 C 354.828 -1.88616 -0.518025 0
M  V30 3896 O 356.034 -2.57714 -0.854144 0
M  V30 3897 C 354.49 -3.19402 1.65863 0
M  V30 3898 C 354.098 -3.16605 3.16963 0
M  V30 3899 C 355.842 -3.96237 1.52303 0
M  V30 3900 C 353.749 -4.53103 3.80068 0
M  V30 3901 H 352.679 -0.666 0.353496 0
M  V30 3902 H 355.33 -1.1805 1.40486 0
M  V30 3903 H 353.712 -3.79355 1.13602 0
M  V30 3904 H 354.886 -2.66176 3.76148 0
M  V30 3905 H 353.201 -2.53268 3.30521 0
M  V30 3906 H 355.798 -4.97157 1.96822 0
M  V30 3907 H 356.141 -4.136 0.473401 0
M  V30 3908 H 356.674 -3.42829 2.01775 0
M  V30 3909 H 353.413 -4.40946 4.85023 0
M  V30 3910 H 352.933 -5.03686 3.2567 0
M  V30 3911 H 354.612 -5.22045 3.82202 0
M  V30 3912 N 354.744 -0.972509 -1.24016 0
M  V30 3913 C 355.674 -0.525548 -2.27509 0
M  V30 3914 C 356.655 0.437262 -1.64384 0
M  V30 3915 O 357.84 0.332343 -1.91335 0
M  V30 3916 C 354.97 0.180448 -3.46831 0
M  V30 3917 C 353.924 -0.698859 -4.22256 0
M  V30 3918 C 353.25 0.138903 -5.3452 0
M  V30 3919 C 354.55 -1.98582 -4.83076 0
M  V30 3920 H 356.244 -1.39058 -2.65148 0
M  V30 3921 H 353.79 -0.67009 -1.27459 0
M  V30 3922 H 355.743 0.504387 -4.18371 0
M  V30 3923 H 354.467 1.07987 -3.08231 0
M  V30 3924 H 353.126 -1.00614 -3.52523 0
M  V30 3925 H 352.774 1.03862 -4.9216 0
M  V30 3926 H 352.474 -0.446259 -5.85903 0
M  V30 3927 H 353.998 0.457404 -6.08884 0
M  V30 3928 H 355.412 -1.72715 -5.46665 0
M  V30 3929 H 353.809 -2.5181 -5.44713 0
M  V30 3930 H 354.879 -2.67769 -4.04262 0
M  V30 3931 N 356.222 1.38976 -0.743202 0
M  V30 3932 C 357.47 1.99948 -0.29417 0
M  V30 3933 C 357.791 1.59279 1.12495 0
M  V30 3934 O 357.061 0.844808 1.76748 0
M  V30 3935 H 355.641 0.739473 -0.105774 0
M  V30 3936 H 358.303 1.699 -0.954986 0
M  V30 3937 H 357.399 3.10142 -0.349056 0
M  V30 3938 N 357.7 0.491464 1.49741 0
M  V30 3939 C 358.947 -0.0564256 2.02421 0
M  V30 3940 C 359.275 -1.37872 1.37192 0
M  V30 3941 O 358.53 -1.89375 0.493508 0
M  V30 3942 C 358.829 -0.267329 3.56399 0
M  V30 3943 C 358.495 0.975775 4.40215 0
M  V30 3944 C 357.157 1.31655 4.62839 0
M  V30 3945 C 359.509 1.80251 4.89039 0
M  V30 3946 C 356.837 2.48375 5.31532 0
M  V30 3947 C 359.189 2.96116 5.59015 0
M  V30 3948 C 357.853 3.30585 5.79888 0
M  V30 3949 H 357.123 -0.0206476 0.740712 0
M  V30 3950 H 359.77 0.649686 1.80143 0
M  V30 3951 H 358.075 -1.05588 3.77304 0
M  V30 3952 H 359.772 -0.705549 3.94744 0
M  V30 3953 H 356.362 0.700315 4.2284 0
M  V30 3954 H 360.546 1.55239 4.71396 0
M  V30 3955 H 355.802 2.7533 5.45897 0
M  V30 3956 H 359.976 3.60509 5.95824 0
M  V30 3957 H 357.603 4.21132 6.32892 0
M  V30 3958 N 359.178 -1.55987 0.224894 0
M  V30 3959 C 360.108 -2.23426 -0.678457 0
M  V30 3960 C 361.089 -1.20709 -1.19847 0
M  V30 3961 O 362.274 -1.49304 -1.24186 0
M  V30 3962 C 359.404 -2.91676 -1.88527 0
M  V30 3963 C 358.358 -4.00893 -1.49896 0
M  V30 3964 C 357.684 -4.56455 -2.78483 0
M  V30 3965 C 358.984 -5.17769 -0.686461 0
M  V30 3966 H 360.678 -2.99175 -0.116173 0
M  V30 3967 H 358.224 -1.43897 -0.054436 0
M  V30 3968 H 360.177 -3.37547 -2.5227 0
M  V30 3969 H 358.901 -2.1338 -2.47258 0
M  V30 3970 H 357.56 -3.55758 -0.884985 0
M  V30 3971 H 357.208 -3.74886 -3.35365 0
M  V30 3972 H 356.908 -5.30169 -2.53368 0
M  V30 3973 H 358.432 -5.05047 -3.43162 0
M  V30 3974 H 359.846 -5.60001 -1.22767 0
M  V30 3975 H 358.243 -5.97735 -0.532259 0
M  V30 3976 H 359.313 -4.83932 0.306196 0
M  V30 3977 N 360.656 0.0484629 -1.57525 0
M  V30 3978 C 361.904 0.741657 -1.88 0
M  V30 3979 C 362.225 1.76918 -0.820054 0
M  V30 3980 O 361.495 1.95335 0.148661 0
M  V30 3981 H 360.075 0.276908 -0.69378 0
M  V30 3982 H 362.737 0.019013 -1.94891 0
M  V30 3983 H 361.833 1.24336 -2.86264 0
M  V30 3984 N 362.134 1.5431 0.320358 0
M  V30 3985 C 363.382 1.72327 1.05583 0
M  V30 3986 C 363.703 0.50149 1.88441 0
M  V30 3987 O 362.973 -0.48448 1.89815 0
M  V30 3988 H 361.553 0.635387 0.3928 0
M  V30 3989 H 364.215 1.91621 0.356019 0
M  V30 3990 H 363.311 2.60426 1.72003 0
M  V30 3991 N 363.613 -0.582584 1.46437 0
M  V30 3992 C 364.859 -1.34278 1.51978 0
M  V30 3993 C 365.192 -1.93446 0.170973 0
M  V30 3994 O 364.467 -1.76481 -0.817608 0
M  V30 3995 C 364.75 -2.47203 2.61845 0
M  V30 3996 C 364.603 -1.93069 4.06257 0
M  V30 3997 C 365.922 -3.49247 2.67795 0
M  V30 3998 H 363.041 -0.486876 0.553282 0
M  V30 3999 H 365.683 -0.654437 1.78374 0
M  V30 4000 H 363.833 -3.0592 2.39469 0
M  V30 4001 H 365.505 -1.38808 4.3992 0
M  V30 4002 H 363.748 -1.23898 4.1573 0
M  V30 4003 H 364.419 -2.74586 4.7886 0
M  V30 4004 H 366.895 -3.00411 2.8791 0
M  V30 4005 H 365.771 -4.25719 3.46489 0
M  V30 4006 H 366.032 -4.06482 1.73852 0
M  V30 4007 N 365.091 -1.34144 -0.827227 0
M  V30 4008 C 366.316 -1.29476 -1.62021 0
M  V30 4009 C 366.741 0.129292 -1.87655 0
M  V30 4010 O 366.099 1.08967 -1.449 0
M  V30 4011 C 366.147 -2.08702 -2.94068 0
M  V30 4012 O 365.251 -1.45359 -3.85933 0
M  V30 4013 H 364.592 -0.444881 -0.492927 0
M  V30 4014 H 367.122 -1.76882 -1.02829 0
M  V30 4015 H 367.132 -2.19898 -3.43669 0
M  V30 4016 H 365.807 -3.12241 -2.74734 0
M  V30 4017 H 364.384 -1.42879 -3.44442 0
M  V30 4018 N 366.569 1.04691 -1.17803 0
M  V30 4019 C 367.815 1.78181 -0.980977 0
M  V30 4020 C 368.17 1.86191 0.484825 0
M  V30 4021 O 367.463 1.35436 1.35527 0
M  V30 4022 C 367.657 3.21467 -1.56186 0
M  V30 4023 C 367.486 3.27422 -3.08261 0
M  V30 4024 C 366.256 3.36415 -3.77032 0
M  V30 4025 C 368.454 3.15947 -4.0581 0
M  V30 4026 N 366.436 3.31554 -5.16667 0
M  V30 4027 C 367.807 3.18514 -5.31929 0
M  V30 4028 C 369.862 2.99945 -3.97413 0
M  V30 4029 C 368.565 3.06723 -6.50625 0
M  V30 4030 C 370.591 2.89497 -5.15699 0
M  V30 4031 C 369.953 2.92702 -6.40706 0
M  V30 4032 H 366.052 0.6641 -0.412911 0
M  V30 4033 H 368.636 1.24762 -1.49474 0
M  V30 4034 H 366.807 3.73245 -1.07436 0
M  V30 4035 H 368.539 3.8322 -1.30093 0
M  V30 4036 H 365.294 3.41887 -3.27735 0
M  V30 4037 H 365.718 3.3258 -5.89678 0
M  V30 4038 H 370.36 2.96302 -3.01604 0
M  V30 4039 H 368.078 3.0912 -7.46639 0
M  V30 4040 H 371.664 2.78179 -5.10987 0
M  V30 4041 H 370.544 2.84697 -7.30696 0
M  V30 4042 N 368.047 0.979072 1.23499 0
M  V30 4043 C 369.01 0.523244 2.23147 0
M  V30 4044 C 370.01 -0.386406 1.56088 0
M  V30 4045 O 371.2 -0.180283 1.73265 0
M  V30 4046 C 368.332 -0.240739 3.40049 0
M  V30 4047 H 369.525 1.40432 2.64989 0
M  V30 4048 H 367.078 0.764824 1.36309 0
M  V30 4049 H 367.813 -1.13841 3.03662 0
M  V30 4050 H 367.598 0.412207 3.89927 0
M  V30 4051 H 369.088 -0.548297 4.13985 0
M  V30 4052 N 369.525 -1.3858 0.750561 0
M  V30 4053 C 370.458 -2.28095 0.0693139 0
M  V30 4054 C 371.436 -1.45217 -0.731491 0
M  V30 4055 O 372.62 -1.74587 -0.71076 0
M  V30 4056 C 369.747 -3.26282 -0.90871 0
M  V30 4057 C 368.793 -4.26056 -0.194507 0
M  V30 4058 S 369.626 -5.24026 1.10257 0
M  V30 4059 C 370.782 -6.2577 0.127542 0
M  V30 4060 H 371.015 -2.85526 0.8284 0
M  V30 4061 H 368.548 -1.44536 0.543014 0
M  V30 4062 H 370.506 -3.83367 -1.46766 0
M  V30 4063 H 369.167 -2.6784 -1.64075 0
M  V30 4064 H 368.36 -4.95249 -0.93512 0
M  V30 4065 H 367.962 -3.72852 0.292837 0
M  V30 4066 H 370.254 -6.73796 -0.707516 0
M  V30 4067 H 371.197 -7.03712 0.787044 0
M  V30 4068 H 371.605 -5.63938 -0.251803 0
M  V30 4069 N 371.003 -0.499398 -1.49478 0
M  V30 4070 C 371.933 0.269244 -2.31943 0
M  V30 4071 C 372.914 0.964054 -1.40143 0
M  V30 4072 O 374.099 0.955767 -1.69052 0
M  V30 4073 C 371.229 1.33504 -3.20615 0
M  V30 4074 C 370.183 0.760202 -4.21195 0
M  V30 4075 C 369.509 1.9264 -4.98792 0
M  V30 4076 C 370.809 -0.247661 -5.21712 0
M  V30 4077 H 372.503 -0.419082 -2.96452 0
M  V30 4078 H 370.049 -0.202988 -1.42562 0
M  V30 4079 H 372.002 1.88048 -3.77115 0
M  V30 4080 H 370.726 2.05253 -2.54045 0
M  V30 4081 H 369.385 0.23653 -3.65836 0
M  V30 4082 H 369.033 2.63154 -4.28671 0
M  V30 4083 H 368.733 1.54785 -5.66847 0
M  V30 4084 H 370.257 2.4762 -5.58137 0
M  V30 4085 H 371.671 0.209579 -5.72917 0
M  V30 4086 H 370.068 -0.541962 -5.97648 0
M  V30 4087 H 371.138 -1.16409 -4.7072 0
M  V30 4088 N 372.481 1.55866 -0.233164 0
M  V30 4089 C 373.727 1.98897 0.395959 0
M  V30 4090 C 374.06 1.12091 1.58585 0
M  V30 4091 O 373.335 0.181182 1.93654 0
M  V30 4092 C 373.618 3.50658 0.819224 0
M  V30 4093 C 373.471 4.48233 -0.375109 0
M  V30 4094 C 374.79 4.07135 1.67121 0
M  V30 4095 H 371.909 0.723102 0.142451 0
M  V30 4096 H 374.551 1.87082 -0.331725 0
M  V30 4097 H 372.701 3.60857 1.43925 0
M  V30 4098 H 374.373 4.50031 -1.01341 0
M  V30 4099 H 372.616 4.21624 -1.02058 0
M  V30 4100 H 373.287 5.51988 -0.0358328 0
M  V30 4101 H 375.763 3.99952 1.14795 0
M  V30 4102 H 374.639 5.13615 1.93625 0
M  V30 4103 H 374.9 3.54736 2.63846 0
M  V30 4104 N 373.959 -0.0401083 1.57549 0
M  V30 4105 C 374.922 -1.02871 2.04817 0
M  V30 4106 C 375.922 -1.29708 0.950388 0
M  V30 4107 O 377.112 -1.24897 1.21435 0
M  V30 4108 C 374.244 -2.36443 2.45576 0
M  V30 4109 H 375.437 -0.620631 2.93408 0
M  V30 4110 H 372.99 -0.286667 1.53649 0
M  V30 4111 H 373.725 -2.82021 1.60108 0
M  V30 4112 H 373.51 -2.18296 3.25713 0
M  V30 4113 H 375 -3.07441 2.82612 0
M  V30 4114 N 375.437 -1.54477 -0.31217 0
M  V30 4115 C 376.853 -1.45442 -0.657185 0
M  V30 4116 C 377.053 -0.63653 -1.91182 0
M  V30 4117 O 376.109 -0.139815 -2.52113 0
M  V30 4118 C 377.422 -2.89287 -0.82058 0
M  V30 4119 C 378.97 -2.9926 -0.917188 0
M  V30 4120 C 379.445 -4.44279 -1.11267 0
M  V30 4121 N 380.936 -4.4794 -1.17914 0
M  V30 4122 C 381.671 -5.57318 -1.34848 0
M  V30 4123 N 381.167 -6.76642 -1.48752 0
M  V30 4124 N 382.96 -5.44986 -1.37647 0
M  V30 4125 H 375.111 -2.06129 0.512313 0
M  V30 4126 H 377.374 -0.933088 0.167485 0
M  V30 4127 H 377.08 -3.51687 0.0302604 0
M  V30 4128 H 376.954 -3.36061 -1.71298 0
M  V30 4129 H 379.341 -2.36981 -1.75852 0
M  V30 4130 H 379.422 -2.558 -0.00101257 0
M  V30 4131 H 379.066 -5.07149 -0.27614 0
M  V30 4132 H 378.996 -4.85359 -2.04289 0
M  V30 4133 H 381.487 -3.61969 -1.08567 0
M  V30 4134 H 381.8 -7.55758 -1.61397 0
M  V30 4135 H 380.145 -6.79529 -1.45828 0
M  V30 4136 H 383.336 -4.50715 -1.26388 0
M  V30 4137 H 383.509 -6.3028 -1.50501 0
M  V30 4138 N 376.915 0.57481 -1.46744 0
M  V30 4139 C 378.143 1.35856 -1.56047 0
M  V30 4140 C 378.558 1.87691 -0.204365 0
M  V30 4141 O 377.915 1.64049 0.79963 0
M  V30 4142 C 377.966 2.54066 -2.57163 0
M  V30 4143 O 377.687 2.04377 -3.87507 0
M  V30 4144 C 379.188 3.46514 -2.76483 0
M  V30 4145 H 376.408 0.414754 -0.527466 0
M  V30 4146 H 378.952 0.698035 -1.92218 0
M  V30 4147 H 377.107 3.16092 -2.23974 0
M  V30 4148 H 377.521 2.81419 -4.4261 0
M  V30 4149 H 378.995 4.25919 -3.51137 0
M  V30 4150 H 379.472 3.98951 -1.83671 0
M  V30 4151 H 380.078 2.90318 -3.10799 0
M  V30 4152 N 378.394 1.34581 0.820102 0
M  V30 4153 C 379.634 1.28448 1.58998 0
M  V30 4154 C 379.998 -0.142883 1.91468 0
M  V30 4155 O 381.199 -0.328422 2.66786 0
M  V30 4156 C 379.47 2.153 2.85273 0
M  V30 4157 S 381.029 2.26548 3.75794 0
M  V30 4158 H 377.847 0.456685 0.54494 0
M  V30 4159 H 380.449 1.69825 0.968487 0
M  V30 4160 H 379.153 3.18008 2.59421 0
M  V30 4161 H 378.684 1.7483 3.52417 0
M  V30 4162 H 380.699 1.44034 4.74835 0
M  V30 4163 N 379.872 -1.04064 1.18357 0
M  V30 4164 C 380.804 -2.12114 0.868358 0
M  V30 4165 C 381.817 -1.62247 -0.134045 0
M  V30 4166 O 383.006 -1.78253 0.0937933 0
M  V30 4167 C 380.106 -3.37773 0.276132 0
M  V30 4168 C 379.279 -4.16874 1.3242 0
M  V30 4169 C 378.338 -5.20861 0.747662 0
M  V30 4170 O 377.364 -5.51141 1.42239 0
M  V30 4171 N 378.566 -5.78715 -0.454823 0
M  V30 4172 H 381.331 -2.39748 1.79836 0
M  V30 4173 H 378.892 -1.20258 1.08396 0
M  V30 4174 H 380.884 -4.04513 -0.123133 0
M  V30 4175 H 379.454 -3.07581 -0.557895 0
M  V30 4176 H 378.674 -3.45456 1.89878 0
M  V30 4177 H 379.962 -4.66516 2.03078 0
M  V30 4178 H 379.36 -5.56415 -1.02073 0
M  V30 4179 H 377.917 -6.46921 -0.79601 0
M  V30 4180 N 381.35 -0.985608 -1.22978 0
M  V30 4181 C 382.28 -0.549649 -2.26939 0
M  V30 4182 C 383.261 0.419803 -1.64838 0
M  V30 4183 O 384.446 0.31203 -1.91677 0
M  V30 4184 C 381.576 0.143652 -3.47003 0
M  V30 4185 C 380.53 -0.743606 -4.21491 0
M  V30 4186 C 379.856 0.0822027 -5.34637 0
M  V30 4187 C 381.156 -2.03694 -4.80943 0
M  V30 4188 H 382.85 -1.41862 -2.63658 0
M  V30 4189 H 380.396 -0.683571 -1.26741 0
M  V30 4190 H 382.349 0.459985 -4.18882 0
M  V30 4191 H 381.073 1.04711 -3.09359 0
M  V30 4192 H 379.732 -1.04347 -3.51436 0
M  V30 4193 H 379.38 0.986359 -4.93234 0
M  V30 4194 H 379.08 -0.508377 -5.85397 0
M  V30 4195 H 380.604 0.392797 -6.09335 0
M  V30 4196 H 382.018 -1.78504 -5.44802 0
M  V30 4197 H 380.415 -2.57573 -5.42011 0
M  V30 4198 H 381.485 -2.72042 -4.01399 0
M  V30 4199 N 382.828 1.3818 -0.7579 0
M  V30 4200 C 384.058 2.04004 -0.326463 0
M  V30 4201 C 384.466 1.57286 1.05156 0
M  V30 4202 O 383.809 0.743144 1.67997 0
M  V30 4203 C 383.871 3.58444 -0.275402 0
M  V30 4204 C 383.535 4.28237 -1.59569 0
M  V30 4205 C 384.532 4.53312 -2.54566 0
M  V30 4206 C 382.217 4.66341 -1.86631 0
M  V30 4207 C 384.211 5.15531 -3.74842 0
M  V30 4208 C 381.898 5.28283 -3.0718 0
M  V30 4209 C 382.896 5.52814 -4.01106 0
M  V30 4210 O 382.584 6.13465 -5.19534 0
M  V30 4211 H 382.316 0.662026 -0.136739 0
M  V30 4212 H 384.87 1.7777 -1.02893 0
M  V30 4213 H 383.1 3.83667 0.483337 0
M  V30 4214 H 384.789 4.05701 0.127099 0
M  V30 4215 H 385.555 4.24299 -2.34936 0
M  V30 4216 H 381.434 4.46591 -1.14358 0
M  V30 4217 H 384.978 5.34594 -4.48168 0
M  V30 4218 H 380.875 5.56719 -3.26702 0
M  V30 4219 H 381.643 6.31951 -5.20173 0
M  V30 4220 N 384.306 0.507319 1.49211 0
M  V30 4221 C 385.717 0.0611118 1.866 0
M  V30 4222 C 386.068 -1.35488 1.41907 0
M  V30 4223 O 385.193 -2.0108 0.799726 0
M  V30 4224 C 385.788 0.104125 3.3864 0
M  V30 4225 C 384.347 -0.28677 3.75306 0
M  V30 4226 C 383.494 0.473893 2.73221 0
M  V30 4227 H 386.445 0.719775 1.41439 0
M  V30 4228 H 386.466 -0.689672 3.74198 0
M  V30 4229 H 385.978 1.13482 3.71138 0
M  V30 4230 H 384.079 -1.32046 3.48417 0
M  V30 4231 H 384.192 0.0370745 4.79086 0
M  V30 4232 H 382.556 -0.0770644 2.54583 0
M  V30 4233 H 383.339 1.50478 3.08563 0
M  V30 4234 N 385.784 -1.5574 0.241426 0
M  V30 4235 C 386.732 -2.22538 -0.676718 0
M  V30 4236 C 387.726 -1.21117 -1.18436 0
M  V30 4237 O 388.932 -1.39144 -1.14188 0
M  V30 4238 H 385.307 -0.713776 -0.236701 0
M  V30 4239 H 387.278 -2.98264 -0.0901187 0
M  V30 4240 C 386.027 -2.93439 -1.86518 0
M  V30 4241 H 385.35 -3.7125 -1.4837 0
M  V30 4242 H 386.79 -3.43549 -2.48495 0
M  V30 4243 C 385.249 -1.97008 -2.73294 0
M  V30 4244 O 385.779 -1.49965 -3.72657 0
M  V30 4245 N 383.985 -1.64227 -2.39745 0
M  V30 4246 H 383.532 -2.02677 -1.58996 0
M  V30 4247 H 383.49 -0.999708 -2.98083 0
M  V30 4248 N 387.262 0.0317525 -1.57568 0
M  V30 4249 C 388.225 1.01783 -2.0536 0
M  V30 4250 C 389.225 1.29203 -0.957253 0
M  V30 4251 O 390.415 1.24251 -1.22095 0
M  V30 4252 C 387.547 2.35137 -2.46827 0
M  V30 4253 H 388.74 0.605062 -2.93733 0
M  V30 4254 H 386.293 0.278514 -1.53799 0
M  V30 4255 H 387.028 2.81168 -1.61602 0
M  V30 4256 H 386.813 2.16566 -3.26866 0
M  V30 4257 H 388.303 3.05938 -2.84239 0
M  V30 4258 N 388.74 1.54641 0.303973 0
M  V30 4259 C 389.989 1.7299 1.03717 0
M  V30 4260 C 390.302 0.521168 1.88529 0
M  V30 4261 O 391.508 0.586408 2.65092 0
M  V30 4262 C 389.964 3.06051 1.89369 0
M  V30 4263 C 389.572 4.34393 1.09574 0
M  V30 4264 C 391.316 3.3376 2.62306 0
M  V30 4265 C 389.223 5.58506 1.94486 0
M  V30 4266 H 388.153 0.64473 0.390947 0
M  V30 4267 H 390.804 1.81124 0.294328 0
M  V30 4268 H 389.186 2.91874 2.67629 0
M  V30 4269 H 390.36 4.59396 0.359485 0
M  V30 4270 H 388.675 4.13597 0.482324 0
M  V30 4271 H 391.272 4.23687 3.26181 0
M  V30 4272 H 391.615 2.52503 3.3098 0
M  V30 4273 H 392.148 3.48894 1.91097 0
M  V30 4274 H 388.887 6.42422 1.30287 0
M  V30 4275 H 388.407 5.37694 2.65792 0
M  V30 4276 H 390.086 5.95651 2.52605 0
M  V30 4277 N 390.218 -0.567019 1.47046 0
M  V30 4278 C 391.181 -1.65696 1.58359 0
M  V30 4279 C 392.181 -1.54097 0.459441 0
M  V30 4280 O 393.371 -1.58432 0.724225 0
M  V30 4281 C 390.503 -3.05197 1.51879 0
M  V30 4282 H 391.696 -1.57019 2.5551 0
M  V30 4283 H 389.249 -0.786148 1.3509 0
M  V30 4284 H 389.984 -3.19417 0.560673 0
M  V30 4285 H 389.769 -3.15025 2.33455 0
M  V30 4286 H 391.259 -3.84511 1.62913 0
M  V30 4287 N 391.696 -1.35014 -0.812953 0
M  V30 4288 C 392.921 -1.31187 -1.60639 0
M  V30 4289 C 393.346 0.109382 -1.87782 0
M  V30 4290 O 392.704 1.07424 -1.46047 0
M  V30 4291 C 392.752 -2.11809 -2.91838 0
M  V30 4292 O 391.856 -1.49444 -3.8437 0
M  V30 4293 H 391.197 -0.450084 -0.488181 0
M  V30 4294 H 393.727 -1.77963 -1.00947 0
M  V30 4295 H 393.737 -2.23531 -3.41318 0
M  V30 4296 H 392.412 -3.15137 -2.71407 0
M  V30 4297 H 390.989 -1.46524 -3.42907 0
M  V30 4298 N 393.175 1.03435 -1.18907 0
M  V30 4299 C 394.403 1.80381 -1.01342 0
M  V30 4300 C 394.818 1.83649 0.438005 0
M  V30 4301 O 394.175 1.27655 1.30424 0
M  V30 4302 C 394.226 3.25689 -1.56873 0
M  V30 4303 O 393.947 3.22673 -2.96334 0
M  V30 4304 C 395.448 4.19255 -1.44014 0
M  V30 4305 H 392.668 0.56784 -0.35749 0
M  V30 4306 H 395.212 1.30317 -1.576 0
M  V30 4307 H 393.367 3.72962 -1.04777 0
M  V30 4308 H 393.781 4.13748 -3.22355 0
M  V30 4309 H 395.255 5.19123 -1.87657 0
M  V30 4310 H 395.732 4.37467 -0.389815 0
M  V30 4311 H 396.338 3.77851 -1.95214 0
M  V30 4312 N 394.653 0.992116 1.22453 0
M  V30 4313 C 395.583 0.561677 2.26644 0
M  V30 4314 C 396.564 -0.411055 1.65059 0
M  V30 4315 O 397.749 -0.301861 1.9184 0
M  V30 4316 C 394.879 -0.125247 3.47074 0
M  V30 4317 C 393.833 0.765948 4.21091 0
M  V30 4318 C 393.159 -0.0538484 5.34673 0
M  V30 4319 C 394.459 2.06242 4.79856 0
M  V30 4320 H 396.153 1.43259 2.62902 0
M  V30 4321 H 393.699 0.690283 1.26377 0
M  V30 4322 H 395.652 -0.437764 4.1912 0
M  V30 4323 H 394.376 -1.03069 3.0991 0
M  V30 4324 H 393.035 1.0621 3.50878 0
M  V30 4325 H 392.683 -0.960188 4.9375 0
M  V30 4326 H 392.383 0.539415 5.85119 0
M  V30 4327 H 393.907 -0.360477 6.09535 0
M  V30 4328 H 395.321 1.8139 5.43848 0
M  V30 4329 H 393.718 2.60444 5.40638 0
M  V30 4330 H 394.788 2.74167 3.99951 0
M  V30 4331 N 396.131 -1.37776 0.765217 0
M  V30 4332 C 397.377 -2.00145 0.327072 0
M  V30 4333 C 397.71 -1.60607 -1.09175 0
M  V30 4334 O 396.985 -0.849127 -1.74986 0
M  V30 4335 C 397.268 -3.57109 0.46319 0
M  V30 4336 C 397.121 -4.06576 1.92395 0
M  V30 4337 C 398.44 -4.39888 -0.136473 0
M  V30 4338 H 395.559 -0.727113 0.120316 0
M  V30 4339 H 398.201 -1.63549 0.967039 0
M  V30 4340 H 396.351 -3.88414 -0.0816358 0
M  V30 4341 H 398.023 -3.85864 2.52798 0
M  V30 4342 H 396.266 -3.59011 2.43503 0
M  V30 4343 H 396.937 -5.15639 1.97028 0
M  V30 4344 H 399.413 -4.14803 0.328317 0
M  V30 4345 H 398.289 -5.48899 -0.0110582 0
M  V30 4346 H 398.55 -4.24758 -1.22608 0
M  V30 4347 N 397.609 -0.515225 -1.4894 0
M  V30 4348 C 398.559 0.275113 -2.26334 0
M  V30 4349 C 399.543 0.923007 -1.31793 0
M  V30 4350 O 400.735 0.828254 -1.56426 0
M  V30 4351 C 397.864 1.33041 -3.16473 0
M  V30 4352 C 396.95 0.688051 -4.18481 0
M  V30 4353 N 397.341 -0.217638 -5.05332 0
M  V30 4354 C 395.639 0.94699 -4.3583 0
M  V30 4355 C 396.34 -0.58676 -5.78733 0
M  V30 4356 N 395.316 0.0486966 -5.43578 0
M  V30 4357 H 399.118 -0.421876 -2.90856 0
M  V30 4358 H 396.632 -0.332249 -1.58965 0
M  V30 4359 H 398.629 1.9102 -3.70563 0
M  V30 4360 H 397.289 2.02894 -2.53504 0
M  V30 4361 H 398.3 -0.589343 -5.14536 0
M  V30 4362 H 394.977 1.63719 -3.8406 0
M  V30 4363 H 396.367 -1.32855 -6.58634 0
M  V30 4364 N 399.087 1.5561 -0.249682 0
M  V30 4365 C 400.034 2.21496 0.648694 0
M  V30 4366 C 401.004 1.17977 1.16921 0
M  V30 4367 O 402.189 1.46434 1.22318 0
M  V30 4368 C 399.329 2.92039 1.83868 0
M  V30 4369 C 398.442 4.10219 1.35442 0
M  V30 4370 C 397.577 4.6847 2.50419 0
M  V30 4371 C 396.616 5.78893 1.98869 0
M  V30 4372 N 395.753 6.31315 3.07223 0
M  V30 4373 H 400.593 2.97892 0.0801582 0
M  V30 4374 H 398.13 1.47074 0.0278031 0
M  V30 4375 H 400.088 3.31138 2.53778 0
M  V30 4376 H 398.718 2.18111 2.37965 0
M  V30 4377 H 397.77 3.76413 0.54928 0
M  V30 4378 H 399.082 4.89927 0.936649 0
M  V30 4379 H 398.236 5.10158 3.28366 0
M  V30 4380 H 396.975 3.87984 2.95499 0
M  V30 4381 H 395.98 5.3668 1.19393 0
M  V30 4382 H 397.205 6.61232 1.54755 0
M  V30 4383 H 395.151 5.53733 3.51732 0
M  V30 4384 H 395.068 7.06224 2.69784 0
M  V30 4385 H 396.336 6.77662 3.8522 0
M  V30 4386 N 400.565 -0.0233959 1.57583 0
M  V30 4387 C 401.812 -0.713063 1.8953 0
M  V30 4388 C 402.14 -1.75056 0.847673 0
M  V30 4389 O 401.395 -1.95119 -0.150636 0
M  V30 4390 C 401.694 -1.41428 3.28227 0
M  V30 4391 C 401.36 -0.512222 4.47981 0
M  V30 4392 C 400.022 -0.263785 4.80476 0
M  V30 4393 C 402.374 0.110248 5.21083 0
M  V30 4394 C 399.702 0.615804 5.83459 0
M  V30 4395 C 402.054 0.977573 6.25001 0
M  V30 4396 C 400.718 1.23542 6.55968 0
M  V30 4397 H 399.988 -0.260928 0.69354 0
M  V30 4398 H 402.635 0.0271047 1.91481 0
M  V30 4399 H 400.94 -2.22791 3.22291 0
M  V30 4400 H 402.637 -1.95355 3.50196 0
M  V30 4401 H 399.227 -0.716013 4.22577 0
M  V30 4402 H 403.411 -0.0687137 4.96252 0
M  V30 4403 H 398.667 0.82382 6.05824 0
M  V30 4404 H 402.841 1.46638 6.80786 0
M  V30 4405 H 400.468 1.91871 7.35588 0
M  V30 4406 N 402.043 -1.548 -0.295768 0
M  V30 4407 C 403.29 -1.74329 -1.03032 0
M  V30 4408 C 403.618 -0.531915 -1.87085 0
M  V30 4409 O 402.873 0.486052 -1.89568 0
M  V30 4410 C 403.172 -2.98797 -1.961 0
M  V30 4411 C 402.838 -4.32356 -1.2798 0
M  V30 4412 C 401.5 -4.68661 -1.09135 0
M  V30 4413 C 403.852 -5.15128 -0.793243 0
M  V30 4414 C 401.18 -5.85312 -0.403269 0
M  V30 4415 C 403.532 -6.32488 -0.118854 0
M  V30 4416 C 402.196 -6.6745 0.0815043 0
M  V30 4417 H 401.466 -0.637916 -0.37702 0
M  V30 4418 H 404.113 -1.8906 -0.304696 0
M  V30 4419 H 402.418 -2.78869 -2.75207 0
M  V30 4420 H 404.115 -3.11102 -2.53015 0
M  V30 4421 H 400.705 -4.03808 -1.43655 0
M  V30 4422 H 404.889 -4.87575 -0.92653 0
M  V30 4423 H 400.145 -6.1094 -0.237098 0
M  V30 4424 H 404.319 -6.95892 0.266035 0
M  V30 4425 H 401.946 -7.57695 0.616685 0
M  V30 4426 N 403.521 0.559213 -1.47345 0
M  V30 4427 C 404.451 1.67622 -1.62558 0
M  V30 4428 C 405.432 1.63331 -0.475087 0
M  V30 4429 O 406.617 1.80983 -0.704182 0
M  V30 4430 C 403.747 3.0626 -1.63774 0
M  V30 4431 C 402.701 3.25397 -2.7803 0
M  V30 4432 C 402.027 4.64801 -2.64318 0
M  V30 4433 C 403.327 3.10965 -4.19641 0
M  V30 4434 H 405.021 1.55146 -2.56067 0
M  V30 4435 H 402.567 0.744961 -1.23233 0
M  V30 4436 H 404.52 3.84247 -1.73008 0
M  V30 4437 H 403.244 3.1969 -0.66825 0
M  V30 4438 H 401.903 2.49817 -2.68304 0
M  V30 4439 H 401.551 4.75028 -1.65401 0
M  V30 4440 H 401.251 4.78555 -3.40968 0
M  V30 4441 H 402.775 5.44926 -2.75478 0
M  V30 4442 H 404.189 3.78772 -4.30354 0
M  V30 4443 H 402.586 3.36229 -4.97062 0
M  V30 4444 H 403.656 2.07736 -4.38148 0
M  V30 4445 N 404.999 1.35443 0.805782 0
M  V30 4446 C 406.245 1.28952 1.56522 0
M  V30 4447 C 406.578 -0.135597 1.93726 0
M  V30 4448 O 405.853 -1.08516 1.61414 0
M  V30 4449 C 406.136 2.19678 2.85331 0
M  V30 4450 C 405.989 3.7081 2.54598 0
M  V30 4451 C 407.308 2.09495 3.8704 0
M  V30 4452 H 404.427 0.469764 0.567883 0
M  V30 4453 H 407.069 1.65851 0.927001 0
M  V30 4454 H 405.219 1.8834 3.39795 0
M  V30 4455 H 406.891 4.12593 2.06312 0
M  V30 4456 H 405.134 3.91051 1.8778 0
M  V30 4457 H 405.805 4.29679 3.46525 0
M  V30 4458 H 408.281 2.37045 3.41978 0
M  V30 4459 H 407.157 2.75173 4.74943 0
M  V30 4460 H 407.418 1.07714 4.28777 0
M  V30 4461 N 406.477 -1.02803 1.19454 0
M  V30 4462 C 407.724 -1.76217 0.997693 0
M  V30 4463 C 408.052 -1.887 -0.47144 0
M  V30 4464 O 407.307 -1.4011 -1.3663 0
M  V30 4465 C 407.606 -3.18941 1.6128 0
M  V30 4466 C 407.272 -3.26463 3.11019 0
M  V30 4467 C 405.934 -3.28223 3.51885 0
M  V30 4468 C 408.286 -3.25542 4.07028 0
M  V30 4469 C 405.614 -3.26719 4.8731 0
M  V30 4470 C 407.966 -3.25579 5.42385 0
M  V30 4471 C 406.63 -3.25637 5.82681 0
M  V30 4472 H 405.9 -0.644823 0.365082 0
M  V30 4473 H 408.547 -1.20655 1.4871 0
M  V30 4474 H 406.852 -3.77587 1.04572 0
M  V30 4475 H 408.549 -3.74415 1.43577 0
M  V30 4476 H 405.139 -3.25822 2.78457 0
M  V30 4477 H 409.323 -3.23362 3.76498 0
M  V30 4478 H 404.579 -3.25089 5.1781 0
M  V30 4479 H 408.753 -3.23817 6.16535 0
M  V30 4480 H 406.38 -3.24226 6.87591 0
M  V30 4481 N 407.956 -0.998596 -1.21925 0
M  V30 4482 C 409.181 -0.696015 -1.95372 0
M  V30 4483 C 409.606 0.733826 -1.73195 0
M  V30 4484 O 408.964 1.50242 -1.01474 0
M  V30 4485 C 409.012 -1.01466 -3.4603 0
M  V30 4486 O 408.116 -0.116415 -4.12236 0
M  V30 4487 H 407.457 -0.259938 -0.611006 0
M  V30 4488 H 409.987 -1.33711 -1.54863 0
M  V30 4489 H 409.997 -0.958855 -3.96573 0
M  V30 4490 H 408.672 -2.05653 -3.61497 0
M  V30 4491 H 407.249 -0.228193 -3.72201 0
M  V30 4492 N 409.434 1.37368 -0.772513 0
M  V30 4493 C 410.381 2.30262 -0.157488 0
M  V30 4494 C 411.351 1.51137 0.688965 0
M  V30 4495 O 412.536 1.79704 0.641168 0
M  V30 4496 C 409.676 3.37611 0.715045 0
M  V30 4497 C 408.789 4.31746 -0.148098 0
M  V30 4498 C 407.924 5.26171 0.729213 0
M  V30 4499 C 406.963 6.11948 -0.136418 0
M  V30 4500 N 406.1 6.98613 0.698914 0
M  V30 4501 H 410.94 2.82277 -0.955179 0
M  V30 4502 H 408.477 1.38957 -0.482631 0
M  V30 4503 H 410.435 3.98479 1.23575 0
M  V30 4504 H 409.065 2.86959 1.47833 0
M  V30 4505 H 408.117 3.72178 -0.786613 0
M  V30 4506 H 409.429 4.92084 -0.81579 0
M  V30 4507 H 408.583 5.92247 1.31637 0
M  V30 4508 H 407.322 4.66246 1.43059 0
M  V30 4509 H 406.327 5.4485 -0.736102 0
M  V30 4510 H 407.552 6.73945 -0.835134 0
M  V30 4511 H 405.498 6.41215 1.38489 0
M  V30 4512 H 405.415 7.55948 0.0885358 0
M  V30 4513 H 406.683 7.69077 1.27044 0
M  V30 4514 N 410.912 0.523116 1.48665 0
M  V30 4515 C 412.158 -0.00540031 2.03399 0
M  V30 4516 C 412.513 -1.3264 1.39372 0
M  V30 4517 O 411.806 -1.84184 0.527916 0
M  V30 4518 C 412 -0.191671 3.56886 0
M  V30 4519 C 411.829 1.10972 4.35793 0
M  V30 4520 C 410.599 1.66769 4.76987 0
M  V30 4521 C 412.797 2.01861 4.73029 0
M  V30 4522 N 410.779 2.91268 5.40404 0
M  V30 4523 C 412.15 3.10937 5.36394 0
M  V30 4524 C 414.205 2.02271 4.54962 0
M  V30 4525 C 412.908 4.20478 5.83601 0
M  V30 4526 C 414.934 3.10802 5.03146 0
M  V30 4527 C 414.296 4.18597 5.6653 0
M  V30 4528 H 410.395 0.0393531 0.781009 0
M  V30 4529 H 412.979 0.702876 1.8157 0
M  V30 4530 H 411.15 -0.869025 3.78553 0
M  V30 4531 H 412.882 -0.719177 3.98259 0
M  V30 4532 H 409.637 1.20996 4.57883 0
M  V30 4533 H 410.061 3.54635 5.76683 0
M  V30 4534 H 414.703 1.2023 4.05345 0
M  V30 4535 H 412.421 5.03303 6.32228 0
M  V30 4536 H 416.007 3.12166 4.90962 0
M  V30 4537 H 414.887 5.01193 6.03138 0
M  V30 4538 N 412.39 -1.55475 0.257931 0
M  V30 4539 C 413.3 -2.2549 -0.647425 0
M  V30 4540 C 414.316 -1.2748 -1.18427 0
M  V30 4541 O 415.492 -1.6038 -1.2182 0
M  V30 4542 C 412.557 -2.94916 -1.82278 0
M  V30 4543 C 411.618 -4.08363 -1.32432 0
M  V30 4544 C 410.851 -4.74469 -2.44366 0
M  V30 4545 O 411.074 -4.39701 -3.63344 0
M  V30 4546 O 410.008 -5.62763 -2.13497 0
M  V30 4547 H 413.834 -3.03593 -0.0807707 0
M  V30 4548 H 411.419 -1.49377 0.0259962 0
M  V30 4549 H 413.301 -3.38606 -2.50846 0
M  V30 4550 H 411.976 -2.19744 -2.37685 0
M  V30 4551 H 410.883 -3.69166 -0.605605 0
M  V30 4552 H 412.216 -4.85385 -0.816211 0
M  V30 4553 N 413.868 0.0150385 -1.57593 0
M  V30 4554 C 415.114 0.69849 -1.91031 0
M  V30 4555 C 415.469 1.72208 -0.85804 0
M  V30 4556 O 414.762 1.91147 0.131614 0
M  V30 4557 C 414.956 1.39686 -3.28972 0
M  V30 4558 C 414.785 0.442428 -4.47518 0
M  V30 4559 C 413.555 0.0583223 -5.05266 0
M  V30 4560 C 415.753 -0.285072 -5.13509 0
M  V30 4561 N 413.735 -0.895893 -6.07328 0
M  V30 4562 C 415.106 -1.09447 -6.10263 0
M  V30 4563 C 417.161 -0.350518 -4.96665 0
M  V30 4564 C 415.864 -1.96333 -6.91987 0
M  V30 4565 C 417.89 -1.20655 -5.78962 0
M  V30 4566 C 417.252 -2.00383 -6.75297 0
M  V30 4567 H 413.351 0.22926 -0.747639 0
M  V30 4568 H 415.935 -0.0417748 -1.94655 0
M  V30 4569 H 414.106 2.1075 -3.2625 0
M  V30 4570 H 415.838 2.03381 -3.49883 0
M  V30 4571 H 412.593 0.423506 -4.71703 0
M  V30 4572 H 413.017 -1.36792 -6.63036 0
M  V30 4573 H 417.659 0.251596 -4.22051 0
M  V30 4574 H 415.377 -2.57618 -7.65936 0
M  V30 4575 H 418.963 -1.2609 -5.67972 0
M  V30 4576 H 417.843 -2.65552 -7.3787 0
M  V30 4577 N 415.346 1.54954 0.287554 0
M  V30 4578 C 416.757 1.65732 0.859634 0
M  V30 4579 C 417.108 0.574767 1.87592 0
M  V30 4580 O 416.233 -0.286299 2.14498 0
M  V30 4581 C 416.828 3.00438 1.56597 0
M  V30 4582 C 415.387 3.13292 2.08627 0
M  V30 4583 C 414.534 2.61473 0.923416 0
M  V30 4584 H 417.485 1.5857 0.0642338 0
M  V30 4585 H 417.506 2.92613 2.43224 0
M  V30 4586 H 417.018 3.79207 0.826053 0
M  V30 4587 H 415.119 2.39268 2.85625 0
M  V30 4588 H 415.232 4.19647 2.31157 0
M  V30 4589 H 413.596 2.18264 1.31275 0
M  V30 4590 H 414.379 3.42733 0.197241 0
M  V30 4591 N 416.824 -0.551391 1.4764 0
M  V30 4592 C 417.772 -1.67896 1.60978 0
M  V30 4593 C 418.766 -1.62549 0.476877 0
M  V30 4594 O 419.972 -1.67664 0.654878 0
M  V30 4595 H 416.347 -0.555649 0.506713 0
M  V30 4596 H 418.318 -1.53784 2.55721 0
M  V30 4597 C 417.067 -3.06234 1.64669 0
M  V30 4598 H 416.39 -3.11033 2.51194 0
M  V30 4599 H 417.83 -3.84804 1.7805 0
M  V30 4600 C 416.289 -3.34737 0.381115 0
M  V30 4601 O 416.819 -3.98381 -0.515297 0
M  V30 4602 N 415.025 -2.8944 0.259354 0
M  V30 4603 H 414.572 -2.37827 0.98976 0
M  V30 4604 H 414.53 -3.08882 -0.586464 0
M  V30 4605 N 418.302 -1.35869 -0.798587 0
M  V30 4606 C 419.713 -1.26498 -1.37314 0
M  V30 4607 C 420.064 0.0991899 -1.95949 0
M  V30 4608 O 419.189 1.0004 -1.91888 0
M  V30 4609 C 419.784 -2.29054 -2.49639 0
M  V30 4610 C 418.343 -2.234 -3.02935 0
M  V30 4611 C 417.49 -2.14329 -1.75949 0
M  V30 4612 H 420.441 -1.46881 -0.600971 0
M  V30 4613 H 420.462 -1.92166 -3.28409 0
M  V30 4614 H 419.974 -3.2833 -2.06933 0
M  V30 4615 H 418.075 -1.27562 -3.50084 0
M  V30 4616 H 418.188 -3.15703 -3.60372 0
M  V30 4617 H 416.552 -1.60435 -1.9782 0
M  V30 4618 H 417.335 -3.15477 -1.35384 0
M  V30 4619 N 419.78 1.02168 -1.19998 0
M  V30 4620 C 421.026 1.75945 -1.00852 0
M  V30 4621 C 421.359 1.88702 0.458828 0
M  V30 4622 O 420.634 1.40911 1.34069 0
M  V30 4623 C 420.917 3.18154 -1.68671 0
M  V30 4624 C 420.77 3.13224 -3.22817 0
M  V30 4625 C 422.089 4.16711 -1.41561 0
M  V30 4626 H 419.208 0.638673 -0.367785 0
M  V30 4627 H 421.85 1.19222 -1.4794 0
M  V30 4628 H 420 3.66586 -1.28636 0
M  V30 4629 H 421.672 2.72635 -3.72112 0
M  V30 4630 H 419.915 2.50751 -3.53986 0
M  V30 4631 H 420.586 4.13728 -3.65422 0
M  V30 4632 H 423.062 3.76913 -1.76284 0
M  V30 4633 H 421.938 5.14391 -1.91553 0
M  V30 4634 H 422.199 4.40774 -0.342193 0
M  V30 4635 N 421.258 1.00505 1.21394 0
M  V30 4636 C 422.188 0.585684 2.26035 0
M  V30 4637 C 423.169 -0.393525 1.65485 0
M  V30 4638 O 424.354 -0.281497 1.92149 0
M  V30 4639 C 421.484 -0.0884283 3.47187 0
M  V30 4640 C 420.438 0.810567 4.20254 0
M  V30 4641 C 419.764 0.00286382 5.347 0
M  V30 4642 C 421.064 2.1132 4.77641 0
M  V30 4643 H 422.758 1.46039 2.61368 0
M  V30 4644 H 420.304 0.703648 1.25638 0
M  V30 4645 H 422.257 -0.393286 4.19561 0
M  V30 4646 H 420.981 -0.997766 3.10986 0
M  V30 4647 H 419.64 1.09925 3.49731 0
M  V30 4648 H 419.288 -0.907765 4.94741 0
M  V30 4649 H 418.988 0.601444 5.84514 0
M  V30 4650 H 420.512 -0.295808 6.09883 0
M  V30 4651 H 421.926 1.87148 5.41893 0
M  V30 4652 H 420.323 2.66164 5.37845 0
M  V30 4653 H 421.393 2.78393 3.9702 0
M  V30 4654 N 422.737 -1.36956 0.779787 0
M  V30 4655 C 423.667 -2.32761 0.185651 0
M  V30 4656 C 424.648 -1.56177 -0.673989 0
M  V30 4657 O 425.833 -1.84378 -0.609797 0
M  V30 4658 C 422.963 -3.40418 -0.687964 0
M  V30 4659 C 421.917 -4.27941 0.0710102 0
M  V30 4660 C 421.243 -5.26681 -0.922573 0
M  V30 4661 C 422.543 -5.07006 1.25467 0
M  V30 4662 H 424.237 -2.82698 0.986008 0
M  V30 4663 H 421.783 -1.3592 0.475592 0
M  V30 4664 H 423.736 -4.06423 -1.11348 0
M  V30 4665 H 422.46 -2.89025 -1.52093 0
M  V30 4666 H 421.119 -3.63478 0.47739 0
M  V30 4667 H 420.767 -4.71565 -1.7503 0
M  V30 4668 H 420.467 -5.86103 -0.419237 0
M  V30 4669 H 421.991 -5.9556 -1.34686 0
M  V30 4670 H 423.405 -5.66105 0.905401 0
M  V30 4671 H 421.802 -5.75793 1.69063 0
M  V30 4672 H 422.872 -4.3921 2.05481 0
M  V30 4673 N 424.215 -0.530993 -1.48385 0
M  V30 4674 C 425.162 0.231223 -2.29639 0
M  V30 4675 C 426.132 0.932864 -1.37429 0
M  V30 4676 O 427.317 0.933692 -1.66394 0
M  V30 4677 C 424.457 1.27155 -3.2082 0
M  V30 4678 C 423.57 0.578655 -4.28107 0
M  V30 4679 C 422.705 1.602 -5.06467 0
M  V30 4680 C 421.744 0.892625 -6.05556 0
M  V30 4681 N 420.881 1.86157 -6.76971 0
M  V30 4682 H 425.721 -0.467848 -2.94305 0
M  V30 4683 H 423.258 -0.242556 -1.45086 0
M  V30 4684 H 425.216 1.88703 -3.72085 0
M  V30 4685 H 423.846 1.939 -2.58075 0
M  V30 4686 H 422.898 -0.150782 -3.80101 0
M  V30 4687 H 424.21 0.0217065 -4.98795 0
M  V30 4688 H 423.364 2.29173 -5.61751 0
M  V30 4689 H 422.103 2.19285 -4.35621 0
M  V30 4690 H 421.108 0.188829 -5.49476 0
M  V30 4691 H 422.333 0.307878 -6.78402 0
M  V30 4692 H 420.279 2.44147 -6.08875 0
M  V30 4693 H 420.196 1.35608 -7.43738 0
M  V30 4694 H 421.464 2.54325 -7.36844 0
M  V30 4695 N 425.693 1.55336 -0.266172 0
M  V30 4696 C 426.625 2.19544 0.658247 0
M  V30 4697 C 427.638 1.17746 1.12427 0
M  V30 4698 O 428.827 1.44517 1.04772 0
M  V30 4699 C 425.927 2.80032 1.9088 0
M  V30 4700 C 425.1 4.07436 1.59106 0
M  V30 4701 C 424.159 4.52056 2.69317 0
M  V30 4702 O 423.185 5.18023 2.35883 0
M  V30 4703 N 424.387 4.21448 3.99201 0
M  V30 4704 H 427.152 2.99503 0.108754 0
M  V30 4705 H 424.713 1.61667 -0.0869059 0
M  V30 4706 H 426.705 3.06831 2.63888 0
M  V30 4707 H 425.275 2.04119 2.36758 0
M  V30 4708 H 424.495 3.88021 0.695243 0
M  V30 4709 H 425.783 4.90462 1.35367 0
M  V30 4710 H 425.181 3.68528 4.29189 0
M  V30 4711 H 423.738 4.53039 4.68614 0
M  V30 4712 N 427.171 -0.0066808 1.57599 0
M  V30 4713 C 428.582 -0.550379 1.78403 0
M  V30 4714 C 428.933 -1.74339 0.900014 0
M  V30 4715 O 428.058 -2.16166 0.100713 0
M  V30 4716 C 428.653 -1.00523 3.23544 0
M  V30 4717 C 427.212 -1.49428 3.45468 0
M  V30 4718 C 426.359 -0.442444 2.73748 0
M  V30 4719 H 429.31 0.219508 1.57175 0
M  V30 4720 H 429.331 -1.87157 3.31289 0
M  V30 4721 H 428.843 -0.136735 3.87859 0
M  V30 4722 H 426.944 -2.3839 2.86358 0
M  V30 4723 H 427.057 -1.52635 4.54136 0
M  V30 4724 H 425.421 -0.902578 2.38171 0
M  V30 4725 H 426.204 0.416973 3.40758 0
M  V30 4726 N 428.649 -1.55105 -0.279332 0
M  V30 4727 C 429.559 -1.90638 -1.36727 0
M  V30 4728 C 430.575 -0.802899 -1.54368 0
M  V30 4729 O 431.751 -1.10138 -1.68616 0
M  V30 4730 C 428.816 -2.16547 -2.70755 0
M  V30 4731 C 427.877 -3.40146 -2.61915 0
M  V30 4732 C 427.11 -3.6481 -3.8955 0
M  V30 4733 O 427.333 -2.92095 -4.89935 0
M  V30 4734 O 426.267 -4.58343 -3.90135 0
M  V30 4735 H 430.093 -2.83237 -1.09591 0
M  V30 4736 H 427.678 -1.4157 -0.477306 0
M  V30 4737 H 429.56 -2.34665 -3.50014 0
M  V30 4738 H 428.235 -1.27131 -2.9769 0
M  V30 4739 H 427.142 -3.2737 -1.81052 0
M  V30 4740 H 428.475 -4.29761 -2.3993 0
M  V30 4741 N 430.127 0.543554 -1.4793 0
M  V30 4742 C 431.037 1.67657 -1.64098 0
M  V30 4743 C 432.053 1.65934 -0.523622 0
M  V30 4744 O 433.229 1.85133 -0.792943 0
M  V30 4745 C 430.294 3.04146 -1.66421 0
M  V30 4746 C 429.355 3.16831 -2.89684 0
M  V30 4747 C 428.588 4.46809 -2.91886 0
M  V30 4748 O 428.811 5.33095 -2.02895 0
M  V30 4749 O 427.745 4.63573 -3.83906 0
M  V30 4750 H 431.571 1.56957 -2.59997 0
M  V30 4751 H 429.156 0.715116 -1.31173 0
M  V30 4752 H 431.038 3.85346 -1.70548 0
M  V30 4753 H 429.713 3.152 -0.736923 0
M  V30 4754 H 428.62 2.34977 -2.91095 0
M  V30 4755 H 429.953 3.10687 -3.81752 0
M  V30 4756 N 431.605 1.3629 0.791371 0
M  V30 4757 C 432.845 1.31792 1.56238 0
M  V30 4758 C 433.209 -0.102237 1.91728 0
M  V30 4759 O 434.41 -0.271759 2.67423 0
M  V30 4760 C 432.681 2.21303 2.80642 0
M  V30 4761 S 434.24 2.34468 3.70904 0
M  V30 4762 H 431.058 0.468141 0.535131 0
M  V30 4763 H 433.66 1.71841 0.932246 0
M  V30 4764 H 432.364 3.23439 2.52617 0
M  V30 4765 H 431.895 1.82266 3.4863 0
M  V30 4766 H 433.91 1.54074 4.71673 0
M  V30 4767 N 433.083 -1.0153 1.20538 0
M  V30 4768 C 434.031 -2.12215 0.952235 0
M  V30 4769 C 435.025 -1.69123 -0.0968735 0
M  V30 4770 O 436.231 -1.7992 0.0536006 0
M  V30 4771 H 432.606 -0.693576 0.290613 0
M  V30 4772 H 434.577 -2.3075 1.89201 0
M  V30 4773 C 433.326 -3.43755 0.522287 0
M  V30 4774 H 432.649 -3.7734 1.32115 0
M  V30 4775 H 434.089 -4.22254 0.384389 0
M  V30 4776 C 432.548 -3.28088 -0.765489 0
M  V30 4777 O 433.078 -3.57921 -1.8236 0
M  V30 4778 N 431.284 -2.81333 -0.728011 0
M  V30 4779 H 430.831 -2.57255 0.133332 0
M  V30 4780 H 430.789 -2.71232 -1.58999 0
M  V30 4781 N 434.561 -1.01147 -1.20859 0
M  V30 4782 C 435.491 -0.597663 -2.25722 0
M  V30 4783 C 436.472 0.384744 -1.65692 0
M  V30 4784 O 437.657 0.271303 -1.92296 0
M  V30 4785 C 434.787 0.0700149 -3.47229 0
M  V30 4786 C 433.741 -0.832843 -4.19819 0
M  V30 4787 C 433.067 -0.0312202 -5.34691 0
M  V30 4788 C 434.367 -2.1385 -4.76514 0
M  V30 4789 H 436.061 -1.47423 -2.60589 0
M  V30 4790 H 433.607 -0.710301 -1.25263 0
M  V30 4791 H 435.56 0.37103 -4.19763 0
M  V30 4792 H 434.284 0.981259 -3.11511 0
M  V30 4793 H 432.943 -1.11778 -3.49144 0
M  V30 4794 H 432.591 0.881515 -4.95215 0
M  V30 4795 H 432.291 -0.632434 -5.84187 0
M  V30 4796 H 433.815 0.26346 -6.10031 0
M  V30 4797 H 435.229 -1.9002 -5.40893 0
M  V30 4798 H 433.626 -2.69012 -5.36426 0
M  V30 4799 H 434.696 -2.80495 -3.95538 0
M  V30 4800 N 436.039 1.36541 -0.78704 0
M  V30 4801 C 436.987 2.31965 -0.171724 0
M  V30 4802 C 437.981 1.55689 0.667631 0
M  V30 4803 O 439.187 1.70969 0.562981 0
M  V30 4804 H 435.562 0.751101 -0.0367545 0
M  V30 4805 H 437.533 2.81428 -0.992017 0
M  V30 4806 C 436.282 3.40968 0.680904 0
M  V30 4807 H 435.605 3.99775 0.0443961 0
M  V30 4808 H 437.045 4.10063 1.07815 0
M  V30 4809 C 435.504 2.82338 1.83813 0
M  V30 4810 O 436.034 2.74311 2.93456 0
M  V30 4811 N 434.24 2.39661 1.6435 0
M  V30 4812 H 433.787 2.46389 0.751668 0
M  V30 4813 H 433.745 2.00779 2.4194 0
M  V30 4814 N 437.518 0.538854 1.48102 0
M  V30 4815 C 438.448 -0.207654 2.32575 0
M  V30 4816 C 439.429 -0.926559 1.4265 0
M  V30 4817 O 440.614 -0.91061 1.71527 0
M  V30 4818 C 437.744 -1.24957 3.24042 0
M  V30 4819 C 436.698 -0.648263 4.23062 0
M  V30 4820 C 436.024 -1.79348 5.03725 0
M  V30 4821 C 437.324 0.385897 5.20872 0
M  V30 4822 H 439.018 0.497534 2.95237 0
M  V30 4823 H 436.564 0.240715 1.41974 0
M  V30 4824 H 438.517 -1.77983 3.81969 0
M  V30 4825 H 437.241 -1.98446 2.59397 0
M  V30 4826 H 435.9 -0.139452 3.66335 0
M  V30 4827 H 435.548 -2.51696 4.35498 0
M  V30 4828 H 435.248 -1.39702 5.70751 0
M  V30 4829 H 436.772 -2.32735 5.64506 0
M  V30 4830 H 438.186 -0.057607 5.73271 0
M  V30 4831 H 436.583 0.700227 5.96001 0
M  V30 4832 H 437.653 1.28848 4.67468 0
M  V30 4833 N 438.996 -1.55193 0.274407 0
M  V30 4834 C 440.407 -1.85358 -0.223488 0
M  V30 4835 C 440.758 -1.19642 -1.555 0
M  V30 4836 O 439.883 -0.484498 -2.10907 0
M  V30 4837 C 440.478 -3.36282 -0.412285 0
M  V30 4838 C 439.037 -3.66574 -0.854413 0
M  V30 4839 C 438.184 -2.7725 0.0527056 0
M  V30 4840 H 441.135 -1.50743 0.496215 0
M  V30 4841 H 441.156 -3.59349 -1.25094 0
M  V30 4842 H 440.668 -3.84083 0.556965 0
M  V30 4843 H 438.769 -3.24273 -1.83516 0
M  V30 4844 H 438.882 -4.74073 -0.692226 0
M  V30 4845 H 437.246 -2.50447 -0.463484 0
M  V30 4846 H 438.029 -3.27865 1.01783 0
M  V30 4847 N 440.474 -0.00167713 -1.576 0
M  V30 4848 C 441.72 0.683832 -1.90923 0
M  V30 4849 C 442.053 1.7333 -0.875799 0
M  V30 4850 O 441.328 1.94215 0.10525 0
M  V30 4851 C 441.611 1.32543 -3.3482 0
M  V30 4852 C 441.464 0.287387 -4.48881 0
M  V30 4853 C 442.783 2.25114 -3.78169 0
M  V30 4854 H 439.902 0.247125 -0.694333 0
M  V30 4855 H 442.544 -0.0533149 -1.89925 0
M  V30 4856 H 440.694 1.95372 -3.35801 0
M  V30 4857 H 442.366 -0.341346 -4.60035 0
M  V30 4858 H 440.609 -0.39017 -4.32042 0
M  V30 4859 H 441.28 0.775393 -5.46527 0
M  V30 4860 H 443.756 1.723 -3.7875 0
M  V30 4861 H 442.632 2.66971 -4.79602 0
M  V30 4862 H 442.893 3.13092 -3.12131 0
M  V30 4863 N 441.952 1.55251 0.271103 0
M  V30 4864 C 443.198 1.7713 0.999832 0
M  V30 4865 C 443.553 0.56659 1.83868 0
M  V30 4866 O 442.846 -0.44069 1.86463 0
M  V30 4867 C 443.04 3.01879 1.91321 0
M  V30 4868 C 442.869 4.34368 1.16426 0
M  V30 4869 C 441.639 4.97593 0.879169 0
M  V30 4870 C 443.837 5.1131 0.553749 0
M  V30 4871 N 441.819 6.13813 0.103618 0
M  V30 4872 C 443.19 6.19938 -0.0875442 0
M  V30 4873 C 445.245 4.95754 0.461782 0
M  V30 4874 C 443.948 7.14703 -0.811942 0
M  V30 4875 C 445.974 5.90875 -0.249027 0
M  V30 4876 C 445.336 6.98893 -0.879051 0
M  V30 4877 H 441.435 0.700407 0.347784 0
M  V30 4878 H 444.019 1.92744 0.275314 0
M  V30 4879 H 442.19 2.87637 2.60997 0
M  V30 4880 H 443.922 3.12154 2.57569 0
M  V30 4881 H 440.677 4.58538 1.18491 0
M  V30 4882 H 441.101 6.76455 -0.271543 0
M  V30 4883 H 445.743 4.12342 0.934552 0
M  V30 4884 H 443.461 7.97634 -1.29639 0
M  V30 4885 H 447.047 5.80916 -0.320529 0
M  V30 4886 H 445.927 7.71231 -1.42031 0
M  V30 4887 N 443.43 -0.535701 1.48216 0
M  V30 4888 C 444.707 -1.29683 1.46429 0
M  V30 4889 C 445.087 -2.10391 0.172852 0
M  V30 4890 O 444.435 -2.12282 -0.845488 0
M  V30 4891 C 444.645 -2.18313 2.72287 0
M  V30 4892 C 445.993 -2.78639 3.20383 0
M  V30 4893 O 447.017 -2.28604 2.73164 0
M  V30 4894 O 445.876 -3.69636 4.02531 0
M  V30 4895 H 442.97 -0.585026 0.584529 0
M  V30 4896 H 445.516 -0.552827 1.60443 0
M  V30 4897 H 444.288 -1.58421 3.57797 0
M  V30 4898 H 443.911 -2.99971 2.60966 0
M  V30 4899 N 444.908 -1.36708 -0.784132 0
M  V30 4900 C 446.319 -1.27947 -1.35965 0
M  V30 4901 C 446.67 0.0784013 -1.96043 0
M  V30 4902 O 445.795 0.979989 -1.92938 0
M  V30 4903 C 446.39 -2.31689 -2.47195 0
M  V30 4904 C 444.949 -2.26601 -3.00548 0
M  V30 4905 C 444.096 -2.16184 -1.73666 0
M  V30 4906 H 447.047 -1.4751 -0.585358 0
M  V30 4907 H 447.068 -1.95638 -3.26352 0
M  V30 4908 H 446.58 -3.30506 -2.03439 0
M  V30 4909 H 444.681 -1.31268 -3.48711 0
M  V30 4910 H 444.794 -3.19508 -3.57004 0
M  V30 4911 H 443.158 -1.62524 -1.96107 0
M  V30 4912 H 443.941 -3.16896 -1.32031 0
M  V30 4913 N 446.386 1.0089 -1.21074 0
M  V30 4914 C 447.802 1.2695 -0.967257 0
M  V30 4915 C 448.002 1.9846 0.348673 0
M  V30 4916 O 447.058 2.28459 1.0753 0
M  V30 4917 C 448.371 2.09697 -2.15517 0
M  V30 4918 C 449.919 2.22937 -2.197 0
M  V30 4919 C 450.394 3.09064 -3.37999 0
M  V30 4920 N 451.885 3.16653 -3.38061 0
M  V30 4921 C 452.62 3.8354 -4.26245 0
M  V30 4922 N 452.116 4.52488 -5.2462 0
M  V30 4923 N 453.909 3.80141 -4.14064 0
M  V30 4924 H 446.06 0.529005 -2.05707 0
M  V30 4925 H 448.323 0.296148 -0.900556 0
M  V30 4926 H 448.029 1.64497 -3.10859 0
M  V30 4927 H 447.903 3.10444 -2.14253 0
M  V30 4928 H 450.29 2.67357 -1.24916 0
M  V30 4929 H 450.371 1.21673 -2.2501 0
M  V30 4930 H 450.015 2.65347 -4.33074 0
M  V30 4931 H 449.945 4.10433 -3.29928 0
M  V30 4932 H 452.436 2.67566 -2.66865 0
M  V30 4933 H 452.749 5.01219 -5.88217 0
M  V30 4934 H 451.094 4.51288 -5.28549 0
M  V30 4935 H 454.285 3.25427 -3.36474 0
M  V30 4936 H 454.458 4.31992 -4.82998 0
M  V30 4937 N 447.864 1.01787 1.20321 0
M  V30 4938 C 449.11 0.708985 1.90003 0
M  V30 4939 C 449.443 -0.759572 1.78729 0
M  V30 4940 O 448.718 -1.55198 1.17234 0
M  V30 4941 C 449.001 1.1469 3.41348 0
M  V30 4942 C 448.854 2.67586 3.61549 0
M  V30 4943 C 450.173 0.71915 4.34185 0
M  V30 4944 H 447.292 0.259034 0.689978 0
M  V30 4945 H 449.934 1.26584 1.41692 0
M  V30 4946 H 448.084 0.673128 3.82624 0
M  V30 4947 H 449.756 3.22826 3.29517 0
M  V30 4948 H 447.999 3.085 3.04976 0
M  V30 4949 H 448.67 2.93281 4.67643 0
M  V30 4950 H 451.146 1.12647 4.00562 0
M  V30 4951 H 450.022 1.05358 5.38694 0
M  V30 4952 H 450.283 -0.379111 4.40472 0
M  V30 4953 N 449.342 -1.36122 0.79427 0
M  V30 4954 C 450.29 -2.31871 0.184023 0
M  V30 4955 C 451.284 -1.56041 -0.659365 0
M  V30 4956 O 452.49 -1.71266 -0.553906 0
M  V30 4957 H 448.865 -0.750896 0.0407373 0
M  V30 4958 H 450.836 -2.80898 1.00693 0
M  V30 4959 C 449.585 -3.41324 -0.662813 0
M  V30 4960 H 448.908 -3.99793 -0.0231944 0
M  V30 4961 H 450.348 -4.10629 -1.05639 0
M  V30 4962 C 448.807 -2.83308 -1.82313 0
M  V30 4963 O 449.337 -2.75863 -2.91997 0
M  V30 4964 N 447.543 -2.40529 -1.63077 0
M  V30 4965 H 447.09 -2.46785 -0.738591 0
M  V30 4966 H 447.048 -2.02059 -2.40872 0
M  V30 4967 N 450.82 -0.546701 -1.47814 0
M  V30 4968 C 452.231 -0.110564 -1.86372 0
M  V30 4969 C 452.582 1.31678 -1.45449 0
M  V30 4970 O 451.707 1.98889 -0.852758 0
M  V30 4971 C 452.302 -0.193873 -3.38245 0
M  V30 4972 C 450.861 0.187164 -3.75934 0
M  V30 4973 C 450.008 -0.546166 -2.71868 0
M  V30 4974 H 452.959 -0.757022 -1.39481 0
M  V30 4975 H 452.98 0.590218 -3.75895 0
M  V30 4976 H 452.492 -1.23282 -3.67999 0
M  V30 4977 H 450.593 1.22762 -3.51796 0
M  V30 4978 H 450.706 -0.164083 -4.78819 0
M  V30 4979 H 449.07 0.00953904 -2.54698 0
M  V30 4980 H 449.853 -1.58606 -3.04465 0
M  V30 4981 N 452.299 1.55045 -0.282633 0
M  V30 4982 C 453.524 2.04628 0.337977 0
M  V30 4983 C 453.949 1.15937 1.48123 0
M  V30 4984 O 453.307 0.159532 1.80597 0
M  V30 4985 C 453.355 3.51854 0.78936 0
M  V30 4986 O 452.459 3.66236 1.89592 0
M  V30 4987 H 451.8 0.660434 0.0687261 0
M  V30 4988 H 454.33 2.00261 -0.419124 0
M  V30 4989 H 454.34 3.93361 1.08311 0
M  V30 4990 H 453.015 4.15873 -0.0470419 0
M  V30 4991 H 451.592 3.36633 1.60413 0
M  V30 4992 N 453.777 0.010035 1.57597 0
M  V30 4993 C 455.054 -0.710296 1.82248 0
M  V30 4994 C 455.434 -1.91426 0.889911 0
M  V30 4995 O 454.782 -2.28424 -0.0590292 0
M  V30 4996 C 454.992 -1.10655 3.30993 0
M  V30 4997 C 456.34 -1.50621 3.96987 0
M  V30 4998 O 457.364 -1.20007 3.35375 0
M  V30 4999 O 456.223 -2.07587 5.05539 0
M  V30 5000 H 453.317 -0.34673 0.750804 0
M  V30 5001 H 455.863 0.0362578 1.69661 0
M  V30 5002 H 454.635 -0.248826 3.90508 0
M  V30 5003 H 454.258 -1.91189 3.48615 0
M  V30 5004 N 455.255 -1.55392 -0.262866 0
M  V30 5005 C 456.671 -1.47459 -0.610582 0
M  V30 5006 C 456.871 -0.697031 -1.8906 0
M  V30 5007 O 455.927 -0.219952 -2.5154 0
M  V30 5008 C 457.24 -2.91751 -0.728131 0
M  V30 5009 C 458.788 -3.02027 -0.821517 0
M  V30 5010 C 459.263 -4.47594 -0.97076 0
M  V30 5011 N 460.754 -4.51465 -1.03603 0
M  V30 5012 C 461.489 -5.61326 -1.17049 0
M  V30 5013 N 460.985 -6.81032 -1.2715 0
M  V30 5014 N 462.778 -5.49089 -1.20239 0
M  V30 5015 H 454.929 -2.04395 0.577632 0
M  V30 5016 H 457.192 -0.927287 0.197086 0
M  V30 5017 H 456.898 -3.51413 0.142132 0
M  V30 5018 H 456.772 -3.4134 -1.6052 0
M  V30 5019 H 459.159 -2.42456 -1.68224 0
M  V30 5020 H 459.24 -2.55674 0.0803688 0
M  V30 5021 H 458.884 -5.07771 -0.114655 0
M  V30 5022 H 458.814 -4.91613 -1.88745 0
M  V30 5023 H 461.305 -3.6524 -0.96996 0
M  V30 5024 H 461.618 -7.60511 -1.37271 0
M  V30 5025 H 459.963 -6.83824 -1.24136 0
M  V30 5026 H 463.154 -4.54507 -1.11985 0
M  V30 5027 H 463.327 -6.34749 -1.30373 0
M  V30 5028 N 456.733 0.527833 -1.48498 0
M  V30 5029 C 457.963 1.30633 -1.60058 0
M  V30 5030 C 458.371 1.87394 -0.260786 0
M  V30 5031 O 457.714 1.67227 0.760317 0
M  V30 5032 C 457.776 2.49361 -2.58958 0
M  V30 5033 C 457.44 2.13671 -4.03972 0
M  V30 5034 C 458.437 1.69217 -4.91591 0
M  V30 5035 C 456.122 2.24129 -4.49524 0
M  V30 5036 C 458.116 1.35689 -6.2279 0
M  V30 5037 C 455.803 1.90212 -5.80743 0
M  V30 5038 C 456.801 1.46063 -6.67199 0
M  V30 5039 O 456.489 1.12593 -7.95976 0
M  V30 5040 H 456.221 0.403444 -0.54241 0
M  V30 5041 H 458.775 0.643233 -1.95068 0
M  V30 5042 H 457.005 3.18659 -2.19073 0
M  V30 5043 H 458.694 3.11421 -2.6033 0
M  V30 5044 H 459.46 1.60607 -4.57636 0
M  V30 5045 H 455.339 2.57447 -3.82416 0
M  V30 5046 H 458.883 1.01157 -6.90227 0
M  V30 5047 H 454.78 1.98464 -6.14233 0
M  V30 5048 H 455.548 1.25972 -8.08748 0
M  V30 5049 N 458.211 1.37122 0.776871 0
M  V30 5050 C 459.161 1.28989 1.88005 0
M  V30 5051 C 460.145 0.178765 1.59904 0
M  V30 5052 O 461.337 0.412705 1.72121 0
M  V30 5053 C 458.466 1.09402 3.25402 0
M  V30 5054 C 457.552 2.25036 3.59471 0
M  V30 5055 N 457.943 3.50407 3.64759 0
M  V30 5056 C 456.241 2.17078 3.89607 0
M  V30 5057 C 456.942 4.26628 3.95428 0
M  V30 5058 N 455.918 3.55709 4.11062 0
M  V30 5059 H 459.72 2.2394 1.90337 0
M  V30 5060 H 457.234 1.30021 0.973052 0
M  V30 5061 H 459.231 1.01661 4.04315 0
M  V30 5062 H 457.891 0.153632 3.24336 0
M  V30 5063 H 458.902 3.8438 3.47091 0
M  V30 5064 H 455.579 1.31067 3.96393 0
M  V30 5065 H 456.969 5.35107 4.06338 0
M  V30 5066 N 459.689 -1.00246 1.21608 0
M  V30 5067 C 460.619 -2.10921 1.00172 0
M  V30 5068 C 461.6 -1.69938 -0.0741587 0
M  V30 5069 O 462.785 -1.94009 0.0861753 0
M  V30 5070 C 459.915 -3.42618 0.568355 0
M  V30 5071 C 458.869 -3.97407 1.58909 0
M  V30 5072 C 458.195 -5.25038 1.01187 0
M  V30 5073 C 459.495 -4.2918 2.97661 0
M  V30 5074 H 461.189 -2.29112 1.92739 0
M  V30 5075 H 458.735 -1.10101 0.928102 0
M  V30 5076 H 460.688 -4.19444 0.405555 0
M  V30 5077 H 459.412 -3.24227 -0.392961 0
M  V30 5078 H 458.071 -3.22703 1.73949 0
M  V30 5079 H 457.719 -5.02982 0.0421965 0
M  V30 5080 H 457.419 -5.62661 1.6937 0
M  V30 5081 H 458.943 -6.04507 0.860448 0
M  V30 5082 H 460.357 -4.96839 2.86049 0
M  V30 5083 H 458.754 -4.77952 3.6288 0
M  V30 5084 H 459.824 -3.3735 3.48315 0
M  V30 5085 N 461.167 -1.02423 -1.1978 0
M  V30 5086 C 462.1 -0.545641 -2.21581 0
M  V30 5087 C 463.078 0.411024 -1.57319 0
M  V30 5088 O 464.262 0.329223 -1.85603 0
M  V30 5089 C 461.389 0.204973 -3.38079 0
M  V30 5090 C 460.435 -0.70241 -4.20676 0
M  V30 5091 S 461.268 -2.17595 -4.89298 0
M  V30 5092 C 462.424 -1.43572 -6.09211 0
M  V30 5093 H 462.657 -1.4082 -2.61834 0
M  V30 5094 H 460.19 -0.833771 -1.29952 0
M  V30 5095 H 462.148 0.631924 -4.05607 0
M  V30 5096 H 460.809 1.0432 -2.9627 0
M  V30 5097 H 460.002 -0.123193 -5.03849 0
M  V30 5098 H 459.604 -1.06747 -3.58442 0
M  V30 5099 H 461.896 -0.719806 -6.73665 0
M  V30 5100 H 462.839 -2.24388 -6.71607 0
M  V30 5101 H 463.247 -0.935252 -5.56699 0
M  V30 5102 N 462.645 1.35699 -0.801477 0
M  V30 5103 C 464.056 1.81415 -0.441073 0
M  V30 5104 C 464.407 1.66595 1.03636 0
M  V30 5105 O 463.532 1.19369 1.80499 0
M  V30 5106 C 464.127 3.29369 -0.793819 0
M  V30 5107 C 462.686 3.73248 -0.486083 0
M  V30 5108 C 461.833 2.57775 -1.02213 0
M  V30 5109 H 464.784 1.23749 -0.993572 0
M  V30 5110 H 464.805 3.80395 -0.0894158 0
M  V30 5111 H 464.317 3.40123 -1.86917 0
M  V30 5112 H 462.418 3.68046 0.580735 0
M  V30 5113 H 462.531 4.68222 -1.01513 0
M  V30 5114 H 460.895 2.50788 -0.444712 0
M  V30 5115 H 461.678 2.71309 -2.10348 0
M  V30 5116 N 464.123 0.554532 1.47522 0
M  V30 5117 C 465.372 0.0273458 2.01681 0
M  V30 5118 C 465.685 -1.32962 1.43459 0
M  V30 5119 O 466.891 -1.94657 1.89265 0
M  V30 5120 C 465.347 -0.00159057 3.599 0
M  V30 5121 C 464.955 1.35197 4.27113 0
M  V30 5122 C 466.699 -0.476311 4.21819 0
M  V30 5123 C 464.606 1.28229 5.77331 0
M  V30 5124 H 463.536 0.00645269 0.753972 0
M  V30 5125 H 466.187 0.701985 1.69542 0
M  V30 5126 H 464.569 -0.741821 3.8899 0
M  V30 5127 H 465.743 2.1097 4.09668 0
M  V30 5128 H 464.058 1.76441 3.77171 0
M  V30 5129 H 466.655 -0.5468 5.31897 0
M  V30 5130 H 466.998 -1.4877 3.8881 0
M  V30 5131 H 467.531 0.20898 3.97251 0
M  V30 5132 H 464.27 2.26959 6.14955 0
M  V30 5133 H 463.79 0.566314 5.97121 0
M  V30 5134 H 465.469 0.983226 6.39485 0
M  V30 5135 N 465.601 -1.54893 0.290851 0
M  V30 5136 C 466.85 -1.99111 -0.322113 0
M  V30 5137 C 467.163 -1.18283 -1.55784 0
M  V30 5138 O 468.369 -1.5272 -2.24475 0
M  V30 5139 C 466.825 -3.54442 -0.624438 0
M  V30 5140 C 466.433 -4.44066 0.592373 0
M  V30 5141 C 468.177 -4.07211 -1.19916 0
M  V30 5142 C 466.084 -5.90812 0.263762 0
M  V30 5143 H 465.014 -0.743712 -0.124133 0
M  V30 5144 H 467.665 -1.79132 0.39797 0
M  V30 5145 H 466.047 -3.70281 -1.40384 0
M  V30 5146 H 467.221 -4.39999 1.36886 0
M  V30 5147 H 465.536 -4.02015 1.08502 0
M  V30 5148 H 468.133 -5.14407 -1.45909 0
M  V30 5149 H 468.476 -3.57196 -2.13815 0
M  V30 5150 H 469.009 -3.94873 -0.481687 0
M  V30 5151 H 465.748 -6.44955 1.17105 0
M  V30 5152 H 465.268 -5.97911 -0.475655 0
M  V30 5153 H 466.947 -6.46852 -0.138354 0
M  V30 5154 N 467.08 -0.0183926 -1.57589 0
M  V30 5155 C 468.308 0.673046 -1.95647 0
M  V30 5156 C 468.723 1.66275 -0.894312 0
M  V30 5157 O 468.08 1.82072 0.124975 0
M  V30 5158 C 468.131 1.38884 -3.33756 0
M  V30 5159 O 467.852 0.438806 -4.35897 0
M  V30 5160 C 469.353 2.1731 -3.86383 0
M  V30 5161 H 466.573 0.186292 -0.644621 0
M  V30 5162 H 469.117 -0.0749748 -2.04363 0
M  V30 5163 H 467.272 2.08835 -3.26293 0
M  V30 5164 H 467.686 0.945869 -5.15901 0
M  V30 5165 H 469.16 2.62863 -4.85394 0
M  V30 5166 H 469.637 3.00764 -3.20059 0
M  V30 5167 H 470.243 1.52339 -3.97081 0
M  V30 5168 N 468.558 1.5553 0.254621 0
M  V30 5169 C 469.969 1.67518 0.824286 0
M  V30 5170 C 470.32 0.614429 1.86331 0
M  V30 5171 O 469.445 -0.240736 2.15057 0
M  V30 5172 C 470.04 3.03692 1.50189 0
M  V30 5173 C 468.599 3.17646 2.01935 0
M  V30 5174 C 467.746 2.63373 0.867746 0
M  V30 5175 H 470.697 1.58671 0.0305843 0
M  V30 5176 H 470.718 2.97706 2.36962 0
M  V30 5177 H 470.23 3.80874 0.745431 0
M  V30 5178 H 468.331 2.45273 2.80485 0
M  V30 5179 H 468.444 4.24455 2.22204 0
M  V30 5180 H 466.808 2.20999 1.26616 0
M  V30 5181 H 467.591 3.43074 0.124498 0
M  V30 5182 N 470.036 -0.519951 1.48776 0
M  V30 5183 C 470.999 -1.60574 1.6355 0
M  V30 5184 C 471.999 -1.52557 0.508234 0
M  V30 5185 O 473.189 -1.56047 0.774262 0
M  V30 5186 C 470.321 -3.00211 1.61512 0
M  V30 5187 H 471.514 -1.4881 2.60376 0
M  V30 5188 H 469.067 -0.742772 1.37523 0
M  V30 5189 H 469.802 -3.17471 0.662009 0
M  V30 5190 H 469.587 -3.07439 2.43359 0
M  V30 5191 H 471.077 -3.79134 1.75064 0
M  V30 5192 N 471.514 -1.37532 -0.769588 0
M  V30 5193 C 472.744 -1.35861 -1.55645 0
M  V30 5194 C 473.152 0.0574398 -1.89113 0
M  V30 5195 O 472.495 1.03021 -1.52093 0
M  V30 5196 C 472.557 -2.13431 -2.89288 0
M  V30 5197 C 472.221 -3.62378 -2.78444 0
M  V30 5198 C 473.218 -4.56215 -2.49326 0
M  V30 5199 C 470.903 -4.05529 -2.96398 0
M  V30 5200 C 472.897 -5.91181 -2.38294 0
M  V30 5201 C 470.584 -5.40579 -2.84987 0
M  V30 5202 C 471.582 -6.33218 -2.55975 0
M  V30 5203 O 471.27 -7.65787 -2.44594 0
M  V30 5204 H 471.002 -0.467001 -0.48876 0
M  V30 5205 H 473.556 -1.81505 -0.961515 0
M  V30 5206 H 471.786 -1.62481 -3.50909 0
M  V30 5207 H 473.475 -2.04368 -3.50697 0
M  V30 5208 H 474.241 -4.24187 -2.35139 0
M  V30 5209 H 470.12 -3.33781 -3.1798 0
M  V30 5210 H 473.664 -6.63457 -2.15571 0
M  V30 5211 H 469.561 -5.72209 -2.98743 0
M  V30 5212 H 470.329 -7.76132 -2.59927 0
M  V30 5213 N 472.992 0.995999 -1.22138 0
M  V30 5214 C 474.403 1.54961 -1.04135 0
M  V30 5215 C 474.754 1.92159 0.396147 0
M  V30 5216 O 473.879 1.74435 1.28069 0
M  V30 5217 C 474.474 2.81581 -1.88408 0
M  V30 5218 C 473.033 3.33396 -1.74712 0
M  V30 5219 C 472.18 2.06509 -1.85066 0
M  V30 5220 H 475.131 0.817436 -1.36028 0
M  V30 5221 H 475.152 3.53822 -1.39966 0
M  V30 5222 H 474.664 2.54476 -2.93025 0
M  V30 5223 H 472.765 3.65416 -0.728159 0
M  V30 5224 H 472.878 4.04208 -2.57202 0
M  V30 5225 H 471.242 2.19925 -1.28472 0
M  V30 5226 H 472.025 1.81804 -2.91208 0
M  V30 5227 N 474.47 1.03057 1.19235 0
M  V30 5228 C 475.402 0.570932 2.21975 0
M  V30 5229 C 476.415 -0.354088 1.58903 0
M  V30 5230 O 477.604 -0.150211 1.77867 0
M  V30 5231 C 474.704 -0.187152 3.38383 0
M  V30 5232 C 473.877 0.743231 4.31039 0
M  V30 5233 C 472.936 0.0302493 5.26191 0
M  V30 5234 O 471.962 0.657371 5.65391 0
M  V30 5235 N 473.164 -1.23991 5.67104 0
M  V30 5236 H 475.929 1.45456 2.62036 0
M  V30 5237 H 473.49 0.909807 1.33918 0
M  V30 5238 H 475.482 -0.673715 3.99053 0
M  V30 5239 H 474.052 -0.972205 2.97098 0
M  V30 5240 H 473.272 1.40985 3.68126 0
M  V30 5241 H 474.56 1.3755 4.89854 0
M  V30 5242 H 473.958 -1.77011 5.37293 0
M  V30 5243 H 472.515 -1.67093 6.30018 0
M  V30 5244 N 475.948 -1.35272 0.808662 0
M  V30 5245 C 476.88 -2.28507 0.178149 0
M  V30 5246 C 477.893 -1.50377 -0.623754 0
M  V30 5247 O 479.082 -1.72583 -0.455774 0
M  V30 5248 C 476.182 -3.30038 -0.769959 0
M  V30 5249 C 475.355 -4.37398 -0.0139749 0
M  V30 5250 C 474.414 -5.18775 -0.880875 0
M  V30 5251 O 473.44 -5.68236 -0.331059 0
M  V30 5252 N 474.642 -5.37087 -2.20267 0
M  V30 5253 H 477.407 -2.83255 0.979106 0
M  V30 5254 H 474.968 -1.47643 0.664308 0
M  V30 5255 H 476.96 -3.81371 -1.35418 0
M  V30 5256 H 475.53 -2.75789 -1.47171 0
M  V30 5257 H 474.75 -3.86971 0.751468 0
M  V30 5258 H 476.038 -5.06268 0.506965 0
M  V30 5259 H 475.436 -4.9855 -2.67328 0
M  V30 5260 H 473.993 -5.91593 -2.73608 0
M  V30 5261 N 477.426 -0.562348 -1.47226 0
M  V30 5262 C 478.374 0.195476 -2.31777 0
M  V30 5263 C 479.368 0.90433 -1.43242 0
M  V30 5264 O 480.574 0.825031 -1.59979 0
M  V30 5265 H 476.949 0.0819095 -0.747526 0
M  V30 5266 H 478.92 -0.536753 -2.93533 0
M  V30 5267 C 477.669 1.20902 -3.26003 0
M  V30 5268 H 476.992 0.672997 -3.94095 0
M  V30 5269 H 478.432 1.71006 -3.87986 0
M  V30 5270 C 476.891 2.25955 -2.49891 0
M  V30 5271 O 477.421 3.32969 -2.2471 0
M  V30 5272 N 475.627 2.00019 -2.1081 0
M  V30 5273 H 475.174 1.13006 -2.31489 0
M  V30 5274 H 475.132 2.70523 -1.60201 0
M  V30 5275 N 478.904 1.54736 -0.299062 0
M  V30 5276 C 480.129 2.04975 0.316254 0
M  V30 5277 C 480.554 1.17501 1.46885 0
M  V30 5278 O 479.912 0.178678 1.80417 0
M  V30 5279 C 479.96 3.52672 0.751997 0
M  V30 5280 O 479.064 3.68226 1.85697 0
M  V30 5281 H 478.405 0.661126 0.0617175 0
M  V30 5282 H 480.935 1.99805 -0.440341 0
M  V30 5283 H 480.945 3.94488 1.04133 0
M  V30 5284 H 479.62 4.158 -0.0911482 0
M  V30 5285 H 478.197 3.38316 1.56834 0
M  V30 5286 N 480.382 0.0267497 1.57577 0
M  V30 5287 C 481.61 -0.662661 1.96001 0
M  V30 5288 C 482.025 -1.65799 0.903117 0
M  V30 5289 O 481.382 -1.82135 -0.115317 0
M  V30 5290 C 481.433 -1.37112 3.34488 0
M  V30 5291 O 481.154 -0.415683 4.36123 0
M  V30 5292 C 482.655 -2.15257 3.8753 0
M  V30 5293 H 479.875 -0.18287 0.6456 0
M  V30 5294 H 482.419 0.0858116 2.0432 0
M  V30 5295 H 480.574 -2.07101 3.27395 0
M  V30 5296 H 480.988 -0.918496 5.16395 0
M  V30 5297 H 482.462 -2.60285 4.86781 0
M  V30 5298 H 482.939 -2.99063 3.21649 0
M  V30 5299 H 483.545 -1.50231 3.97883 0
M  V30 5300 N 481.861 -1.55662 -0.24637 0
M  V30 5301 C 483.091 -1.81312 -0.990438 0
M  V30 5302 C 483.499 -0.600234 -1.79426 0
M  V30 5303 O 482.842 0.440537 -1.78339 0
M  V30 5304 C 482.904 -3.0032 -1.97607 0
M  V30 5305 C 482.568 -4.36322 -1.35912 0
M  V30 5306 C 483.565 -5.14295 -0.761348 0
M  V30 5307 C 481.25 -4.83019 -1.37833 0
M  V30 5308 C 483.244 -6.37114 -0.190998 0
M  V30 5309 C 480.931 -6.05786 -0.804128 0
M  V30 5310 C 481.929 -6.82672 -0.211489 0
M  V30 5311 O 481.617 -8.03121 0.353845 0
M  V30 5312 H 481.349 -0.607233 -0.297058 0
M  V30 5313 H 483.903 -2.0356 -0.274351 0
M  V30 5314 H 482.133 -2.73829 -2.73047 0
M  V30 5315 H 483.822 -3.13057 -2.58361 0
M  V30 5316 H 484.588 -4.79337 -0.739013 0
M  V30 5317 H 480.467 -4.23165 -1.829 0
M  V30 5318 H 484.011 -6.97069 0.272206 0
M  V30 5319 H 479.908 -6.40222 -0.823792 0
M  V30 5320 H 480.676 -8.18131 0.245761 0
M  V30 5321 N 483.339 0.512053 -1.4905 0
M  V30 5322 C 484.287 1.63568 -1.65373 0
M  V30 5323 C 485.281 1.61228 -0.519806 0
M  V30 5324 O 486.487 1.65869 -0.699101 0
M  V30 5325 H 482.862 0.542019 -0.521267 0
M  V30 5326 H 484.833 1.4695 -2.59708 0
M  V30 5327 C 483.582 3.01761 -1.7273 0
M  V30 5328 H 482.905 3.04263 -2.59353 0
M  V30 5329 H 484.345 3.79948 -1.8819 0
M  V30 5330 C 482.804 3.33609 -0.46973 0
M  V30 5331 O 483.334 3.99607 0.409492 0
M  V30 5332 N 481.54 2.88651 -0.336003 0
M  V30 5333 H 481.087 2.35119 -1.05247 0
M  V30 5334 H 481.045 3.10328 0.504363 0
M  V30 5335 N 484.817 1.37938 0.762283 0
M  V30 5336 C 486.063 1.33866 1.52341 0
M  V30 5337 C 486.396 -0.0738961 1.94059 0
M  V30 5338 O 485.671 -1.03326 1.64785 0
M  V30 5339 C 485.954 2.28644 2.78197 0
M  V30 5340 C 485.807 3.78722 2.42672 0
M  V30 5341 C 487.126 2.21702 3.80179 0
M  V30 5342 H 484.245 0.487593 0.55265 0
M  V30 5343 H 486.887 1.68717 0.873767 0
M  V30 5344 H 485.037 1.99055 3.33631 0
M  V30 5345 H 486.709 4.18948 1.93081 0
M  V30 5346 H 484.952 3.96827 1.75244 0
M  V30 5347 H 485.623 4.40486 3.3268 0
M  V30 5348 H 488.099 2.47805 3.34263 0
M  V30 5349 H 486.975 2.90143 4.65949 0
M  V30 5350 H 487.236 1.21301 4.25133 0
M  V30 5351 N 486.295 -0.989507 1.22664 0
M  V30 5352 C 487.52 -1.77031 1.08051 0
M  V30 5353 C 487.945 -1.84535 -0.364483 0
M  V30 5354 O 487.303 -1.3003 -1.2634 0
M  V30 5355 C 487.351 -3.18 1.70024 0
M  V30 5356 O 486.455 -4.01161 0.956216 0
M  V30 5357 H 485.796 -0.545008 0.379292 0
M  V30 5358 H 488.326 -1.24277 1.62531 0
M  V30 5359 H 488.336 -3.68616 1.74888 0
M  V30 5360 H 487.011 -3.11853 2.75174 0
M  V30 5361 H 485.588 -3.59687 0.98384 0
M  V30 5362 N 487.773 -1.03688 -1.18687 0
M  V30 5363 C 489.019 -0.739123 -1.88851 0
M  V30 5364 C 489.352 0.731042 -1.79915 0
M  V30 5365 O 488.627 1.53313 -1.19688 0
M  V30 5366 C 488.91 -1.20106 -3.3948 0
M  V30 5367 C 488.763 -2.73304 -3.57246 0
M  V30 5368 C 490.082 -0.788134 -4.32986 0
M  V30 5369 H 487.201 -0.269978 -0.68577 0
M  V30 5370 H 489.843 -1.28822 -1.3966 0
M  V30 5371 H 487.993 -0.733915 -3.81505 0
M  V30 5372 H 489.665 -3.28027 -3.24339 0
M  V30 5373 H 487.908 -3.13313 -3.00029 0
M  V30 5374 H 488.579 -3.00684 -4.62918 0
M  V30 5375 H 491.055 -1.19005 -3.98719 0
M  V30 5376 H 489.931 -1.13915 -5.36949 0
M  V30 5377 H 490.192 0.308988 -4.41019 0
M  V30 5378 N 489.251 1.34841 -0.815825 0
M  V30 5379 C 490.476 2.03261 -0.41226 0
M  V30 5380 C 490.901 1.61055 0.971751 0
M  V30 5381 O 490.259 0.7917 1.63101 0
M  V30 5382 C 490.307 3.56914 -0.514289 0
M  V30 5383 O 489.411 4.09728 0.468675 0
M  V30 5384 H 488.752 0.641664 -0.170771 0
M  V30 5385 H 491.282 1.72241 -1.10427 0
M  V30 5386 H 491.292 4.06156 -0.387457 0
M  V30 5387 H 489.967 3.86982 -1.52375 0
M  V30 5388 H 488.544 3.71681 0.301316 0
M  V30 5389 N 490.729 0.570148 1.46925 0
M  V30 5390 C 491.957 0.0561966 2.06824 0
M  V30 5391 C 492.372 -1.24326 1.42086 0
M  V30 5392 O 491.729 -1.74882 0.521794 0
M  V30 5393 C 491.78 -0.129517 3.61268 0
M  V30 5394 O 491.501 1.1185 4.23581 0
M  V30 5395 C 493.002 -0.679266 4.38065 0
M  V30 5396 H 490.222 0.0517261 0.669003 0
M  V30 5397 H 492.766 0.787243 1.8874 0
M  V30 5398 H 490.921 -0.810739 3.78822 0
M  V30 5399 H 491.335 0.924375 5.1629 0
M  V30 5400 H 492.809 -0.758445 5.46765 0
M  V30 5401 H 493.286 -1.69346 4.05239 0
M  V30 5402 H 493.892 -0.0333237 4.25287 0
M  V30 5403 N 492.207 -1.54576 0.307264 0
M  V30 5404 C 493.623 -1.59534 -0.0459251 0
M  V30 5405 C 493.823 -1.32414 -1.51884 0
M  V30 5406 O 492.879 -1.1006 -2.27251 0
M  V30 5407 C 494.192 -2.98566 0.357649 0
M  V30 5408 C 495.74 -3.11491 0.306937 0
M  V30 5409 C 496.215 -4.52842 0.685427 0
M  V30 5410 N 497.706 -4.58782 0.638203 0
M  V30 5411 C 498.441 -5.66238 0.903458 0
M  V30 5412 N 497.937 -6.81703 1.23501 0
M  V30 5413 N 499.73 -5.55937 0.830102 0
M  V30 5414 H 491.881 -1.70464 1.26712 0
M  V30 5415 H 494.144 -0.79647 0.514139 0
M  V30 5416 H 493.85 -3.23356 1.38325 0
M  V30 5417 H 493.724 -3.76117 -0.285565 0
M  V30 5418 H 496.111 -2.86446 -0.709424 0
M  V30 5419 H 496.192 -2.36081 0.984861 0
M  V30 5420 H 495.836 -4.78618 1.69963 0
M  V30 5421 H 495.766 -5.26598 -0.0146346 0
M  V30 5422 H 498.257 -3.75849 0.393138 0
M  V30 5423 H 498.57 -7.59582 1.42322 0
M  V30 5424 H 496.915 -6.8324 1.27311 0
M  V30 5425 H 500.106 -4.64608 0.570693 0
M  V30 5426 H 500.279 -6.39597 1.04019 0
M  V30 5427 N 493.685 -0.035106 -1.57561 0
M  V30 5428 C 494.618 0.979673 -2.06101 0
M  V30 5429 C 495.596 1.31378 -0.958046 0
M  V30 5430 O 496.78 1.42942 -1.22881 0
M  V30 5431 C 493.907 2.29809 -2.48808 0
M  V30 5432 C 492.953 2.11817 -3.70184 0
M  V30 5433 S 493.786 1.41143 -5.16565 0
M  V30 5434 C 494.942 2.74341 -5.62572 0
M  V30 5435 H 495.175 0.566506 -2.91853 0
M  V30 5436 H 492.708 0.176744 -1.53385 0
M  V30 5437 H 494.666 3.056 -2.74078 0
M  V30 5438 H 493.327 2.68257 -1.63392 0
M  V30 5439 H 492.52 3.09299 -3.97933 0
M  V30 5440 H 492.122 1.44168 -3.45097 0
M  V30 5441 H 494.414 3.70562 -5.67177 0
M  V30 5442 H 495.357 2.51249 -6.62027 0
M  V30 5443 H 495.765 2.79863 -4.90242 0
M  V30 5444 N 495.163 1.55791 0.238111 0
M  V30 5445 C 496.409 1.78297 0.966337 0
M  V30 5446 C 496.742 0.601903 1.84637 0
M  V30 5447 O 496.017 -0.399499 1.90353 0
M  V30 5448 C 496.3 3.10758 1.81939 0
M  V30 5449 C 496.153 4.39283 0.966958 0
M  V30 5450 C 497.472 3.39519 2.80027 0
M  V30 5451 H 494.591 0.648654 0.349882 0
M  V30 5452 H 497.233 1.88525 0.236253 0
M  V30 5453 H 495.383 3.02168 2.44185 0
M  V30 5454 H 497.055 4.59873 0.362514 0
M  V30 5455 H 495.298 4.32948 0.271669 0
M  V30 5456 H 495.969 5.28368 1.59784 0
M  V30 5457 H 498.445 3.48128 2.27917 0
M  V30 5458 H 497.321 4.33402 3.36829 0
M  V30 5459 H 497.582 2.60864 3.56934 0
M  V30 5460 N 496.642 -0.504142 1.49319 0
M  V30 5461 C 497.575 -1.62361 1.60356 0
M  V30 5462 C 498.553 -1.56169 0.45277 0
M  V30 5463 O 499.737 -1.76271 0.667892 0
M  V30 5464 C 496.864 -3.00864 1.55559 0
M  V30 5465 C 495.91 -3.25328 2.75797 0
M  V30 5466 S 496.743 -3.08791 4.37503 0
M  V30 5467 C 497.899 -4.49695 4.35345 0
M  V30 5468 H 498.132 -1.52753 2.55056 0
M  V30 5469 H 495.665 -0.689065 1.38171 0
M  V30 5470 H 497.623 -3.8073 1.53477 0
M  V30 5471 H 496.284 -3.0789 0.621515 0
M  V30 5472 H 495.477 -4.2643 2.68651 0
M  V30 5473 H 495.079 -2.53179 2.75275 0
M  V30 5474 H 497.371 -5.41721 4.06871 0
M  V30 5475 H 498.314 -4.61891 5.36714 0
M  V30 5476 H 498.722 -4.30227 3.65465 0
M  V30 5477 N 498.12 -1.38341 -0.754957 0
M  V30 5478 C 499.366 -1.34672 -1.51628 0
M  V30 5479 C 499.699 0.0636036 -1.94096 0
M  V30 5480 O 498.974 1.0245 -1.6533 0
M  V30 5481 C 499.257 -2.30116 -2.76981 0
M  V30 5482 C 499.11 -3.80003 -2.4066 0
M  V30 5483 C 500.429 -2.23715 -3.78998 0
M  V30 5484 H 497.548 -0.490517 -0.550056 0
M  V30 5485 H 500.19 -1.69178 -0.864807 0
M  V30 5486 H 498.34 -2.00821 -3.3257 0
M  V30 5487 H 500.012 -4.19966 -1.90856 0
M  V30 5488 H 498.255 -3.97751 -1.73137 0
M  V30 5489 H 498.926 -4.42244 -3.30339 0
M  V30 5490 H 501.402 -2.49574 -3.32945 0
M  V30 5491 H 500.278 -2.9261 -4.64403 0
M  V30 5492 H 500.539 -1.23554 -4.24484 0
M  V30 5493 N 499.598 0.982988 -1.23187 0
M  V30 5494 C 500.508 2.10907 -1.02739 0
M  V30 5495 C 501.524 1.73979 0.0273188 0
M  V30 5496 O 502.7 2.00702 -0.16757 0
M  V30 5497 C 499.765 3.41142 -0.618304 0
M  V30 5498 C 498.826 3.92112 -1.74777 0
M  V30 5499 C 498.059 5.16131 -1.3581 0
M  V30 5500 O 498.282 5.6989 -0.241201 0
M  V30 5501 O 497.216 5.61103 -2.17824 0
M  V30 5502 H 501.042 2.31046 -1.97108 0
M  V30 5503 H 498.627 1.09284 -1.01869 0
M  V30 5504 H 500.509 4.19488 -0.400982 0
M  V30 5505 H 499.184 3.2234 0.296421 0
M  V30 5506 H 498.091 3.14895 -2.0197 0
M  V30 5507 H 499.424 4.15364 -2.64071 0
M  V30 5508 N 501.076 1.04316 1.18135 0
M  V30 5509 C 501.986 0.646876 2.25505 0
M  V30 5510 C 503.002 -0.328008 1.7088 0
M  V30 5511 O 504.178 -0.182309 2.00573 0
M  V30 5512 C 501.243 0.0185664 3.46695 0
M  V30 5513 C 500.304 1.04277 4.16443 0
M  V30 5514 C 499.537 0.444352 5.31847 0
M  V30 5515 O 499.76 -0.748735 5.65465 0
M  V30 5516 O 498.694 1.17428 5.90334 0
M  V30 5517 H 502.52 1.54147 2.61672 0
M  V30 5518 H 500.105 0.814188 1.25265 0
M  V30 5519 H 501.987 -0.331068 4.20097 0
M  V30 5520 H 500.662 -0.849814 3.12346 0
M  V30 5521 H 499.569 1.44425 3.45098 0
M  V30 5522 H 500.902 1.882 4.54798 0
M  V30 5523 N 502.554 -1.34406 0.822964 0
M  V30 5524 C 503.801 -1.98284 0.411057 0
M  V30 5525 C 504.129 -1.65245 -1.02588 0
M  V30 5526 O 503.384 -0.91619 -1.72929 0
M  V30 5527 C 503.683 -3.52981 0.560268 0
M  V30 5528 C 503.349 -4.05931 1.96293 0
M  V30 5529 C 502.011 -4.20103 2.34664 0
M  V30 5530 C 504.363 -4.34412 2.87985 0
M  V30 5531 C 501.691 -4.60082 3.64062 0
M  V30 5532 C 504.043 -4.75838 4.16847 0
M  V30 5533 C 502.707 -4.88215 4.55195 0
M  V30 5534 H 501.977 -0.725573 0.150416 0
M  V30 5535 H 504.624 -1.60349 1.04692 0
M  V30 5536 H 502.929 -3.91477 -0.158982 0
M  V30 5537 H 504.626 -4.00385 0.222087 0
M  V30 5538 H 501.216 -3.95363 1.65487 0
M  V30 5539 H 505.4 -4.23001 2.59584 0
M  V30 5540 H 500.656 -4.67856 3.93599 0
M  V30 5541 H 504.83 -4.96834 4.87984 0
M  V30 5542 H 502.457 -5.18952 5.55512 0
M  V30 5543 N 504.032 -0.577932 -1.46621 0
M  V30 5544 C 504.979 0.158048 -2.30258 0
M  V30 5545 C 505.949 0.888669 -1.40328 0
M  V30 5546 O 507.134 0.880283 -1.6928 0
M  V30 5547 C 504.274 1.16884 -3.24703 0
M  V30 5548 C 503.387 0.442163 -4.29731 0
M  V30 5549 C 502.522 1.44007 -5.11308 0
M  V30 5550 C 501.561 0.69952 -6.0809 0
M  V30 5551 N 500.698 1.64525 -6.82551 0
M  V30 5552 H 505.538 -0.561242 -2.92667 0
M  V30 5553 H 503.075 -0.288591 -1.44241 0
M  V30 5554 H 505.033 1.7677 -3.779 0
M  V30 5555 H 503.663 1.85591 -2.64113 0
M  V30 5556 H 502.715 -0.271632 -3.79429 0
M  V30 5557 H 504.027 -0.136992 -4.98612 0
M  V30 5558 H 503.181 2.11186 -5.68758 0
M  V30 5559 H 501.92 2.05315 -4.42377 0
M  V30 5560 H 500.925 0.0139217 -5.49798 0
M  V30 5561 H 502.15 0.091894 -6.79038 0
M  V30 5562 H 500.096 2.24653 -6.16334 0
M  V30 5563 H 500.013 1.11878 -7.47676 0
M  V30 5564 H 501.281 2.30754 -7.44562 0
M  V30 5565 N 505.51 1.54411 -0.315457 0
M  V30 5566 C 506.442 2.21527 0.588067 0
M  V30 5567 C 507.455 1.21263 1.08624 0
M  V30 5568 O 508.644 1.47777 1.00121 0
M  V30 5569 C 505.744 2.85963 1.81875 0
M  V30 5570 C 504.917 4.12291 1.46063 0
M  V30 5571 C 503.976 4.60396 2.54799 0
M  V30 5572 O 503.002 5.25265 2.19283 0
M  V30 5573 N 504.204 4.33935 3.85591 0
M  V30 5574 H 506.969 2.99697 0.013414 0
M  V30 5575 H 504.53 1.61308 -0.138295 0
M  V30 5576 H 506.522 3.15071 2.53993 0
M  V30 5577 H 505.092 2.11548 2.30144 0
M  V30 5578 H 504.312 3.90036 0.571445 0
M  V30 5579 H 505.6 4.9452 1.19695 0
M  V30 5580 H 504.998 3.81996 4.17248 0
M  V30 5581 H 503.555 4.67718 4.53964 0
M  V30 5582 N 506.988 0.0434614 1.5754 0
M  V30 5583 C 508.236 -0.630786 1.92004 0
M  V30 5584 C 508.557 -1.71836 0.921807 0
M  V30 5585 O 507.827 -1.9587 -0.034522 0
M  V30 5586 H 506.407 -0.235988 0.708745 0
M  V30 5587 H 509.069 0.0946462 1.9467 0
M  V30 5588 H 508.165 -1.07434 2.93026 0
M  V30 5589 N 508.466 -1.55915 -0.229846 0
M  V30 5590 C 509.396 -1.94754 -1.28815 0
M  V30 5591 C 510.377 -0.814657 -1.49323 0
M  V30 5592 O 511.562 -1.07631 -1.61645 0
M  V30 5593 C 508.692 -2.25705 -2.63959 0
M  V30 5594 C 507.646 -3.41406 -2.5812 0
M  V30 5595 C 506.972 -3.57941 -3.97218 0
M  V30 5596 C 508.272 -4.76616 -2.13623 0
M  V30 5597 H 509.966 -2.83404 -0.965547 0
M  V30 5598 H 507.512 -1.36353 -0.463028 0
M  V30 5599 H 509.465 -2.51467 -3.38146 0
M  V30 5600 H 508.189 -1.339 -2.9789 0
M  V30 5601 H 506.848 -3.1568 -1.86391 0
M  V30 5602 H 506.496 -2.63526 -4.28443 0
M  V30 5603 H 506.196 -4.35757 -3.94195 0
M  V30 5604 H 507.72 -3.86042 -4.73079 0
M  V30 5605 H 509.134 -5.01637 -2.77549 0
M  V30 5606 H 507.531 -5.57655 -2.21677 0
M  V30 5607 H 508.601 -4.7253 -1.08829 0
M  V30 5608 N 509.944 0.496216 -1.49584 0
M  V30 5609 C 510.907 1.57952 -1.66084 0
M  V30 5610 C 511.907 1.51729 -0.53244 0
M  V30 5611 O 513.097 1.54796 -0.79899 0
M  V30 5612 C 510.229 2.97604 -1.66268 0
M  V30 5613 H 511.422 1.44649 -2.6271 0
M  V30 5614 H 508.975 0.7208 -1.38687 0
M  V30 5615 H 509.71 3.16378 -0.712432 0
M  V30 5616 H 509.495 3.03528 -2.4822 0
M  V30 5617 H 510.985 3.76301 -1.81073 0
M  V30 5618 N 511.423 1.38739 0.74761 0
M  V30 5619 C 512.672 1.3459 1.50228 0
M  V30 5620 C 512.985 -0.0595592 1.95509 0
M  V30 5621 O 514.191 -0.22361 2.70578 0
M  V30 5622 C 512.647 2.36377 2.71393 0
M  V30 5623 C 512.255 3.82573 2.33113 0
M  V30 5624 C 513.999 2.41281 3.49262 0
M  V30 5625 C 511.906 4.76032 3.50924 0
M  V30 5626 H 510.836 0.500312 0.564096 0
M  V30 5627 H 513.487 1.64324 0.8167 0
M  V30 5628 H 511.869 1.99694 3.41962 0
M  V30 5629 H 513.043 4.28227 1.70171 0
M  V30 5630 H 511.358 3.80844 1.68365 0
M  V30 5631 H 513.955 3.08301 4.36869 0
M  V30 5632 H 514.298 1.43353 3.9084 0
M  V30 5633 H 514.831 2.76793 2.85711 0
M  V30 5634 H 511.57 5.75177 3.14408 0
M  V30 5635 H 511.09 4.35066 4.12889 0
M  V30 5636 H 512.769 4.94331 4.17427 0
M  V30 5637 N 512.901 -0.976442 1.23707 0
M  V30 5638 C 514.129 -1.75341 1.09833 0
M  V30 5639 C 514.544 -1.8553 -0.349885 0
M  V30 5640 O 513.901 -1.33732 -1.24185 0
M  V30 5641 C 513.952 -3.17833 1.72233 0
M  V30 5642 O 513.673 -3.08167 3.11391 0
M  V30 5643 C 515.174 -4.11906 1.63853 0
M  V30 5644 H 512.394 -0.550137 0.384175 0
M  V30 5645 H 514.938 -1.2265 1.63638 0
M  V30 5646 H 513.093 -3.67538 1.22452 0
M  V30 5647 H 513.507 -3.97897 3.41729 0
M  V30 5648 H 514.981 -5.09579 2.12211 0
M  V30 5649 H 515.458 -4.35109 0.598092 0
M  V30 5650 H 516.064 -3.68107 2.13019 0
M  V30 5651 N 514.379 -1.04941 -1.1758 0
M  V30 5652 C 515.656 -0.671918 -1.83697 0
M  V30 5653 C 516.036 0.847929 -1.93322 0
M  V30 5654 O 515.384 1.75287 -1.46583 0
M  V30 5655 C 515.594 -1.35797 -3.21497 0
M  V30 5656 C 516.942 -1.4944 -3.97433 0
M  V30 5657 O 517.966 -1.31678 -3.30967 0
M  V30 5658 O 516.825 -1.78463 -5.1654 0
M  V30 5659 H 513.919 -0.236212 -0.792548 0
M  V30 5660 H 516.465 -1.14884 -1.24899 0
M  V30 5661 H 515.237 -2.39498 -3.09446 0
M  V30 5662 H 514.86 -0.870236 -3.8796 0
M  V30 5663 N 515.857 1.33968 -0.830081 0
M  V30 5664 C 516.767 2.33164 -0.259207 0
M  V30 5665 C 517.783 1.62951 0.610164 0
M  V30 5666 O 518.959 1.94668 0.516369 0
M  V30 5667 C 516.024 3.42088 0.563598 0
M  V30 5668 C 515.085 4.28037 -0.329014 0
M  V30 5669 C 514.318 5.3176 0.454616 0
M  V30 5670 O 514.541 5.44876 1.6872 0
M  V30 5671 O 513.475 6.01669 -0.166794 0
M  V30 5672 H 517.301 2.83832 -1.08041 0
M  V30 5673 H 514.886 1.37154 -0.59239 0
M  V30 5674 H 516.768 4.08581 1.03147 0
M  V30 5675 H 515.443 2.93651 1.36201 0
M  V30 5676 H 514.35 3.64443 -0.844538 0
M  V30 5677 H 515.683 4.79934 -1.09196 0
M  V30 5678 N 517.335 0.585699 1.46312 0
M  V30 5679 C 518.584 0.0701192 2.01578 0
M  V30 5680 C 518.897 -1.29889 1.46247 0
M  V30 5681 O 520.103 -1.90598 1.93351 0
M  V30 5682 C 518.559 0.0747499 3.59822 0
M  V30 5683 C 518.167 1.44226 4.24149 0
M  V30 5684 C 519.911 -0.38673 4.22735 0
M  V30 5685 C 517.818 1.40446 5.74481 0
M  V30 5686 H 516.748 0.0224441 0.753666 0
M  V30 5687 H 519.399 0.737789 1.68015 0
M  V30 5688 H 517.781 -0.659144 3.90476 0
M  V30 5689 H 518.955 2.19612 4.05101 0
M  V30 5690 H 517.27 1.84401 3.73343 0
M  V30 5691 H 519.867 -0.433853 5.32937 0
M  V30 5692 H 520.21 -1.40489 3.91878 0
M  V30 5693 H 520.743 0.293195 3.96718 0
M  V30 5694 H 517.482 2.39952 6.10003 0
M  V30 5695 H 517.002 0.692845 5.95785 0
M  V30 5696 H 518.681 1.11865 6.37256 0
M  V30 5697 N 518.813 -1.54241 0.323641 0
M  V30 5698 C 519.743 -2.27289 -0.534993 0
M  V30 5699 C 520.724 -1.28087 -1.11927 0
M  V30 5700 O 521.909 -1.56899 -1.14439 0
M  V30 5701 C 519.039 -3.03075 -1.69596 0
M  V30 5702 C 517.993 -4.09614 -1.24098 0
M  V30 5703 C 517.319 -4.73242 -2.4889 0
M  V30 5704 C 518.619 -5.21087 -0.355789 0
M  V30 5705 H 520.313 -2.99308 0.0743257 0
M  V30 5706 H 517.859 -1.43952 0.0371874 0
M  V30 5707 H 519.812 -3.52907 -2.30293 0
M  V30 5708 H 518.536 -2.28673 -2.33187 0
M  V30 5709 H 517.195 -3.60666 -0.656945 0
M  V30 5710 H 516.843 -3.95455 -3.10845 0
M  V30 5711 H 516.543 -5.45209 -2.19138 0
M  V30 5712 H 518.067 -5.25848 -3.10348 0
M  V30 5713 H 519.481 -5.66675 -0.869042 0
M  V30 5714 H 517.878 -5.9991 -0.151045 0
M  V30 5715 H 518.948 -4.81005 0.613339 0
M  V30 5716 N 520.291 -0.0518155 -1.57515 0
M  V30 5717 C 521.221 0.920283 -2.146 0
M  V30 5718 C 522.202 1.32406 -1.06783 0
M  V30 5719 O 523.387 1.39866 -1.34726 0
M  V30 5720 C 520.517 2.1949 -2.6915 0
M  V30 5721 C 519.471 1.93116 -3.81956 0
M  V30 5722 C 518.797 3.27037 -4.23026 0
M  V30 5723 C 520.097 1.25225 -5.07066 0
M  V30 5724 H 521.791 0.444801 -2.96077 0
M  V30 5725 H 519.337 0.212508 -1.42423 0
M  V30 5726 H 521.29 2.87894 -3.07725 0
M  V30 5727 H 520.014 2.69244 -1.84865 0
M  V30 5728 H 518.673 1.27123 -3.43854 0
M  V30 5729 H 518.321 3.74595 -3.3569 0
M  V30 5730 H 518.021 3.10189 -4.99056 0
M  V30 5731 H 519.545 3.96673 -4.64202 0
M  V30 5732 H 520.959 1.83666 -5.43083 0
M  V30 5733 H 519.356 1.18702 -5.88243 0
M  V30 5734 H 520.426 0.228382 -4.84362 0
M  V30 5735 N 521.769 1.56035 0.221574 0
M  V30 5736 C 522.994 1.83476 0.967026 0
M  V30 5737 C 523.419 0.632139 1.7716 0
M  V30 5738 O 522.777 -0.419082 1.7639 0
M  V30 5739 C 522.825 3.08907 1.86034 0
M  V30 5740 O 521.929 2.876 2.95567 0
M  V30 5741 H 521.27 0.604913 0.273817 0
M  V30 5742 H 523.8 2.03247 0.234893 0
M  V30 5743 H 523.81 3.3901 2.27016 0
M  V30 5744 H 522.485 3.96068 1.26898 0
M  V30 5745 H 521.062 2.6873 2.58532 0
M  V30 5746 N 523.247 -0.488276 1.49845 0
M  V30 5747 C 524.194 -1.58836 1.67451 0
M  V30 5748 C 525.164 -1.57886 0.515857 0
M  V30 5749 O 526.349 -1.75679 0.744403 0
M  V30 5750 C 523.489 -2.96915 1.75885 0
M  V30 5751 C 522.602 -3.07784 3.03138 0
M  V30 5752 C 521.737 -4.36673 3.02473 0
M  V30 5753 C 520.776 -4.41222 4.24252 0
M  V30 5754 N 519.913 -5.61557 4.21424 0
M  V30 5755 H 524.753 -1.43131 2.61376 0
M  V30 5756 H 522.29 -0.696186 1.29583 0
M  V30 5757 H 524.248 -3.76965 1.78755 0
M  V30 5758 H 522.878 -3.11295 0.85414 0
M  V30 5759 H 521.93 -2.20717 3.09819 0
M  V30 5760 H 523.242 -3.07005 3.93128 0
M  V30 5761 H 522.396 -5.25055 3.03977 0
M  V30 5762 H 521.135 -4.40037 2.10283 0
M  V30 5763 H 520.14 -3.5124 4.22978 0
M  V30 5764 H 521.365 -4.39564 5.17649 0
M  V30 5765 H 519.311 -5.65738 3.32078 0
M  V30 5766 H 519.228 -5.62447 5.05163 0
M  V30 5767 H 520.496 -6.52111 4.2705 0
M  V30 5768 N 524.725 -1.39134 -0.740242 0
M  V30 5769 C 525.688 -1.37217 -1.83587 0
M  V30 5770 C 526.688 -0.270221 -1.58513 0
M  V30 5771 O 527.878 -0.527843 -1.6601 0
M  V30 5772 C 525.01 -1.13959 -3.21288 0
M  V30 5773 H 526.203 -2.34705 -1.86691 0
M  V30 5774 H 523.756 -1.24622 -0.94335 0
M  V30 5775 H 524.491 -0.17131 -3.23847 0
M  V30 5776 H 524.276 -1.93754 -3.40884 0
M  V30 5777 H 525.766 -1.15346 -4.01354 0
M  V30 5778 N 526.204 0.969867 -1.24223 0
M  V30 5779 C 527.114 2.09806 -1.0497 0
M  V30 5780 C 528.13 1.73998 0.00886455 0
M  V30 5781 O 529.306 2.00513 -0.188848 0
M  V30 5782 C 526.371 3.40467 -0.654452 0
M  V30 5783 C 525.432 3.90236 -1.78926 0
M  V30 5784 C 524.665 5.14662 -1.41277 0
M  V30 5785 O 524.888 5.69602 -0.301632 0
M  V30 5786 O 523.822 5.58761 -2.23763 0
M  V30 5787 H 527.648 2.28942 -1.99548 0
M  V30 5788 H 525.233 1.08197 -1.03023 0
M  V30 5789 H 527.115 4.19039 -0.445452 0
M  V30 5790 H 525.79 3.22636 0.262216 0
M  V30 5791 H 524.697 3.12735 -2.05299 0
M  V30 5792 H 526.03 4.1254 -2.68462 0
M  V30 5793 N 527.682 1.05563 1.17022 0
M  V30 5794 C 528.928 0.778872 1.87897 0
M  V30 5795 C 529.283 -0.686839 1.79723 0
M  V30 5796 O 528.576 -1.49612 1.19694 0
M  V30 5797 C 528.77 1.19849 3.36706 0
M  V30 5798 C 528.599 2.70345 3.59366 0
M  V30 5799 C 527.369 3.37707 3.75875 0
M  V30 5800 C 529.567 3.68564 3.58699 0
M  V30 5801 N 527.549 4.7703 3.86414 0
M  V30 5802 C 528.92 4.93634 3.75134 0
M  V30 5803 C 530.975 3.6198 3.4187 0
M  V30 5804 C 529.678 6.12907 3.76481 0
M  V30 5805 C 531.704 4.80697 3.44507 0
M  V30 5806 C 531.066 6.04592 3.61453 0
M  V30 5807 H 527.165 0.337297 0.705517 0
M  V30 5808 H 529.749 1.34832 1.40458 0
M  V30 5809 H 527.92 0.656958 3.82804 0
M  V30 5810 H 529.652 0.871172 3.95212 0
M  V30 5811 H 526.407 2.88108 3.75887 0
M  V30 5812 H 526.831 5.49483 3.95471 0
M  V30 5813 H 531.473 2.67154 3.27702 0
M  V30 5814 H 529.191 7.08073 3.89432 0
M  V30 5815 H 532.777 4.77259 3.32738 0
M  V30 5816 H 531.657 6.94916 3.63403 0
M  V30 5817 N 529.16 -1.33526 0.837174 0
M  V30 5818 C 530.385 -2.0258 0.444545 0
M  V30 5819 C 530.81 -1.6258 -0.946006 0
M  V30 5820 O 530.168 -0.817548 -1.6182 0
M  V30 5821 C 530.216 -3.5605 0.571006 0
M  V30 5822 O 529.32 -4.10422 -0.403431 0
M  V30 5823 H 528.661 -0.638866 0.180958 0
M  V30 5824 H 531.191 -1.70462 1.13154 0
M  V30 5825 H 531.201 -4.05488 0.452024 0
M  V30 5826 H 529.876 -3.84509 1.58512 0
M  V30 5827 H 528.453 -3.72113 -0.242147 0
M  V30 5828 N 530.638 -0.59345 -1.46 0
M  V30 5829 C 531.585 0.133618 -2.30413 0
M  V30 5830 C 532.555 0.873736 -1.41262 0
M  V30 5831 O 533.74 0.862279 -1.70204 0
M  V30 5832 C 530.88 1.13434 -3.25924 0
M  V30 5833 C 529.993 0.39656 -4.30176 0
M  V30 5834 C 529.128 1.38575 -5.12806 0
M  V30 5835 C 528.167 0.634984 -6.08797 0
M  V30 5836 N 527.304 1.57276 -6.84258 0
M  V30 5837 H 532.144 -0.592252 -2.92055 0
M  V30 5838 H 529.681 -0.303874 -1.43927 0
M  V30 5839 H 531.639 1.72752 -3.79753 0
M  V30 5840 H 530.269 1.82779 -2.66067 0
M  V30 5841 H 529.321 -0.311861 -3.79119 0
M  V30 5842 H 530.633 -0.189869 -4.98438 0
M  V30 5843 H 529.787 2.05141 -5.70966 0
M  V30 5844 H 528.526 2.00611 -4.44529 0
M  V30 5845 H 527.531 -0.0443925 -5.49782 0
M  V30 5846 H 528.756 0.0198678 -6.79097 0
M  V30 5847 H 526.702 2.18103 -6.18682 0
M  V30 5848 H 526.619 1.03941 -7.48821 0
M  V30 5849 H 527.887 2.22844 -7.46968 0
M  V30 5850 N 532.116 1.54067 -0.331816 0
M  V30 5851 C 533.046 2.27569 0.522932 0
M  V30 5852 C 534.027 1.28679 1.11247 0
M  V30 5853 O 535.212 1.57504 1.13605 0
M  V30 5854 C 532.342 3.0397 1.67987 0
M  V30 5855 C 531.296 4.10267 1.21924 0
M  V30 5856 C 530.622 4.74555 2.46377 0
M  V30 5857 C 531.922 5.21268 0.32815 0
M  V30 5858 H 533.616 2.99264 -0.0901977 0
M  V30 5859 H 531.162 1.4393 -0.044821 0
M  V30 5860 H 533.115 3.54123 2.28418 0
M  V30 5861 H 531.839 2.29906 2.31971 0
M  V30 5862 H 530.498 3.61009 0.637809 0
M  V30 5863 H 530.146 3.97098 3.08743 0
M  V30 5864 H 529.846 5.46363 2.16243 0
M  V30 5865 H 531.37 5.27487 3.07555 0
M  V30 5866 H 532.784 5.67128 0.838978 0
M  V30 5867 H 531.181 5.99982 0.119228 0
M  V30 5868 H 532.251 4.80673 -0.638839 0
M  V30 5869 N 533.594 0.0601682 1.57485 0
M  V30 5870 C 534.841 -0.611594 1.93043 0
M  V30 5871 C 535.169 -1.70317 0.939274 0
M  V30 5872 O 534.424 -1.95644 -0.046996 0
M  V30 5873 C 534.723 -1.23831 3.35262 0
M  V30 5874 C 534.389 -0.274037 4.50066 0
M  V30 5875 C 533.051 -0.00872394 4.81199 0
M  V30 5876 C 535.403 0.386308 5.19766 0
M  V30 5877 C 532.731 0.924218 5.79375 0
M  V30 5878 C 535.083 1.3075 6.1894 0
M  V30 5879 C 533.747 1.58139 6.48497 0
M  V30 5880 H 533.017 -0.223798 0.706396 0
M  V30 5881 H 535.664 0.128566 1.91068 0
M  V30 5882 H 533.969 -2.05394 3.33647 0
M  V30 5883 H 535.666 -1.76517 3.60059 0
M  V30 5884 H 532.256 -0.491008 4.25778 0
M  V30 5885 H 536.44 0.194436 4.95919 0
M  V30 5886 H 531.696 1.1438 6.00606 0
M  V30 5887 H 535.87 1.82519 6.72056 0
M  V30 5888 H 533.497 2.30593 7.24383 0
M  V30 5889 N 535.072 -1.5615 -0.213296 0
M  V30 5890 C 535.982 -1.96265 -1.28519 0
M  V30 5891 C 536.998 -0.86765 -1.50824 0
M  V30 5892 O 538.174 -1.17191 -1.63793 0
M  V30 5893 C 535.239 -2.27836 -2.61327 0
M  V30 5894 C 534.3 -3.50949 -2.47252 0
M  V30 5895 C 533.533 -3.81004 -3.73727 0
M  V30 5896 O 533.756 -3.12612 -4.77106 0
M  V30 5897 O 532.69 -4.74477 -3.70344 0
M  V30 5898 H 536.516 -2.87631 -0.974795 0
M  V30 5899 H 534.101 -1.43467 -0.416832 0
M  V30 5900 H 535.983 -2.49299 -3.39747 0
M  V30 5901 H 534.658 -1.39643 -2.9203 0
M  V30 5902 H 533.565 -3.34754 -1.67004 0
M  V30 5903 H 534.898 -4.39551 -2.21486 0
M  V30 5904 N 536.55 0.480323 -1.50102 0
M  V30 5905 C 537.513 1.56181 -1.6775 0
M  V30 5906 C 538.513 1.51156 -0.548503 0
M  V30 5907 O 539.703 1.5394 -0.815363 0
M  V30 5908 C 536.835 2.95823 -1.69415 0
M  V30 5909 H 538.028 1.41855 -2.6423 0
M  V30 5910 H 535.581 0.70605 -1.39444 0
M  V30 5911 H 536.316 3.15604 -0.745948 0
M  V30 5912 H 536.101 3.00878 -2.51425 0
M  V30 5913 H 537.591 3.74359 -1.85054 0
M  V30 5914 N 538.028 1.39524 0.732853 0
M  V30 5915 C 539.439 1.32905 1.31122 0
M  V30 5916 C 539.79 -0.00558708 1.96199 0
M  V30 5917 O 538.915 -0.907706 1.96443 0
M  V30 5918 C 539.51 2.40704 2.38426 0
M  V30 5919 C 538.069 2.37599 2.91931 0
M  V30 5920 C 537.216 2.2248 1.65523 0
M  V30 5921 H 540.167 1.49581 0.530207 0
M  V30 5922 H 540.188 2.07616 3.18867 0
M  V30 5923 H 539.7 3.37829 1.91033 0
M  V30 5924 H 537.801 1.44119 3.43599 0
M  V30 5925 H 537.914 3.32538 3.44899 0
M  V30 5926 H 536.278 1.69691 1.8994 0
M  V30 5927 H 537.061 3.21577 1.20178 0
M  V30 5928 N 539.506 -0.963266 1.24736 0
M  V30 5929 C 540.454 -2.07985 1.04139 0
M  V30 5930 C 541.448 -1.69381 -0.0250556 0
M  V30 5931 O 542.654 -1.79531 0.129863 0
M  V30 5932 H 539.029 -0.680627 0.319768 0
M  V30 5933 H 541 -2.22517 1.98818 0
M  V30 5934 C 539.749 -3.4123 0.667615 0
M  V30 5935 H 539.072 -3.71397 1.48 0
M  V30 5936 H 540.512 -4.20244 0.563136 0
M  V30 5937 C 538.971 -3.3104 -0.625647 0
M  V30 5938 O 539.501 -3.65334 -1.67016 0
M  V30 5939 N 537.707 -2.84168 -0.608033 0
M  V30 5940 H 537.254 -2.56458 0.242323 0
M  V30 5941 H 537.212 -2.77732 -1.47352 0
M  V30 5942 N 540.985 -1.06182 -1.16461 0
M  V30 5943 C 542.232 -0.777863 -1.86964 0
M  V30 5944 C 542.56 0.695602 -1.81636 0
M  V30 5945 O 541.815 1.52532 -1.22607 0
M  V30 5946 C 542.114 -1.21633 -3.36066 0
M  V30 5947 C 541.78 -2.69371 -3.61594 0
M  V30 5948 C 540.442 -3.09727 -3.6827 0
M  V30 5949 C 542.794 -3.64791 -3.7226 0
M  V30 5950 C 540.122 -4.44345 -3.83112 0
M  V30 5951 C 542.474 -4.99155 -3.88623 0
M  V30 5952 C 541.138 -5.39149 -3.93541 0
M  V30 5953 H 540.408 -0.28464 -0.68415 0
M  V30 5954 H 543.055 -1.33071 -1.37711 0
M  V30 5955 H 541.36 -0.582651 -3.87443 0
M  V30 5956 H 543.057 -0.973682 -3.88999 0
M  V30 5957 H 539.647 -2.37124 -3.57029 0
M  V30 5958 H 543.831 -3.34746 -3.66413 0
M  V30 5959 H 539.087 -4.74819 -3.85172 0
M  V30 5960 H 543.261 -5.72976 -3.95817 0
M  V30 5961 H 540.888 -6.43464 -4.04794 0
M  V30 5962 N 542.463 1.3308 -0.844243 0
M  V30 5963 C 543.71 1.97605 -0.44255 0
M  V30 5964 C 544.038 1.66856 0.999458 0
M  V30 5965 O 543.293 0.943586 1.7145 0
M  V30 5966 C 543.592 3.52045 -0.616354 0
M  V30 5967 C 543.258 4.02757 -2.02726 0
M  V30 5968 C 541.92 4.16316 -2.41317 0
M  V30 5969 C 544.272 4.29776 -2.9486 0
M  V30 5970 C 541.6 4.54232 -3.71335 0
M  V30 5971 C 543.952 4.69146 -4.24364 0
M  V30 5972 C 542.616 4.80911 -4.62904 0
M  V30 5973 H 541.886 0.723088 -0.161941 0
M  V30 5974 H 544.533 1.58663 -1.0723 0
M  V30 5975 H 542.838 3.91681 0.0966812 0
M  V30 5976 H 544.535 3.99981 -0.285756 0
M  V30 5977 H 541.125 3.9268 -1.71756 0
M  V30 5978 H 545.309 4.18818 -2.6628 0
M  V30 5979 H 540.565 4.61535 -4.00993 0
M  V30 5980 H 544.739 4.89008 -4.95827 0
M  V30 5981 H 542.366 5.10048 -5.63698 0
M  V30 5982 N 543.941 0.601185 1.45683 0
M  V30 5983 C 544.873 -0.159446 2.28645 0
M  V30 5984 C 545.886 -0.837882 1.39583 0
M  V30 5985 O 547.075 -0.704344 1.64016 0
M  V30 5986 C 544.175 -1.24641 3.15147 0
M  V30 5987 C 543.348 -0.656334 4.32448 0
M  V30 5988 C 542.407 -1.63337 5.00208 0
M  V30 5989 O 541.433 -1.16217 5.57209 0
M  V30 5990 N 542.635 -2.96773 4.98905 0
M  V30 5991 H 545.4 0.5524 2.94565 0
M  V30 5992 H 542.961 0.440223 1.558 0
M  V30 5993 H 544.953 -1.8997 3.57342 0
M  V30 5994 H 543.523 -1.86087 2.51178 0
M  V30 5995 H 542.743 0.174879 3.93812 0
M  V30 5996 H 544.031 -0.242211 5.08223 0
M  V30 5997 H 543.429 -3.37662 4.53873 0
M  V30 5998 H 541.986 -3.57541 5.44984 0
M  V30 5999 N 545.419 -1.53889 0.339982 0
M  V30 6000 C 546.366 -2.24902 -0.518452 0
M  V30 6001 C 547.336 -1.24593 -1.09844 0
M  V30 6002 O 548.521 -1.53317 -1.13572 0
M  V30 6003 C 545.661 -3.02262 -1.66529 0
M  V30 6004 C 544.774 -4.17418 -1.11295 0
M  V30 6005 C 543.909 -4.82273 -2.2268 0
M  V30 6006 C 542.948 -5.89503 -1.6478 0
M  V30 6007 N 542.085 -6.48153 -2.69893 0
M  V30 6008 H 546.925 -2.97853 0.0936579 0
M  V30 6009 H 544.462 -1.46986 0.0579924 0
M  V30 6010 H 546.42 -3.45371 -2.3404 0
M  V30 6011 H 545.05 -2.31614 -2.24844 0
M  V30 6012 H 544.102 -3.78976 -0.328886 0
M  V30 6013 H 545.414 -4.94554 -0.649414 0
M  V30 6014 H 544.568 -5.28435 -2.98063 0
M  V30 6015 H 543.307 -4.04552 -2.72376 0
M  V30 6016 H 542.312 -5.42728 -0.879004 0
M  V30 6017 H 543.537 -6.6913 -1.1594 0
M  V30 6018 H 541.483 -5.73298 -3.1885 0
M  V30 6019 H 541.4 -7.20752 -2.28151 0
M  V30 6020 H 542.668 -6.98968 -3.45056 0
M  V30 6021 N 546.897 -0.0685191 -1.57451 0
M  V30 6022 C 548.127 0.609577 -1.97402 0
M  V30 6023 C 548.535 1.63882 -0.945489 0
M  V30 6024 O 547.878 1.8354 0.0766052 0
M  V30 6025 C 547.94 1.3385 -3.33653 0
M  V30 6026 C 547.604 0.463103 -4.54648 0
M  V30 6027 C 548.601 -0.277964 -5.19156 0
M  V30 6028 C 546.286 0.388941 -5.00792 0
M  V30 6029 C 548.28 -1.08145 -6.28159 0
M  V30 6030 C 545.967 -0.418217 -6.09667 0
M  V30 6031 C 546.965 -1.15208 -6.73213 0
M  V30 6032 O 546.653 -1.94594 -7.79993 0
M  V30 6033 H 546.385 0.170197 -0.654224 0
M  V30 6034 H 548.939 -0.13647 -2.04946 0
M  V30 6035 H 547.169 2.13055 -3.22714 0
M  V30 6036 H 548.858 1.90851 -3.58233 0
M  V30 6037 H 549.624 -0.230241 -4.84453 0
M  V30 6038 H 545.503 0.949769 -4.5111 0
M  V30 6039 H 549.047 -1.65476 -6.7769 0
M  V30 6040 H 544.944 -0.467515 -6.43805 0
M  V30 6041 H 545.712 -1.8699 -7.96854 0
M  V30 6042 N 548.375 1.56261 0.205012 0
M  V30 6043 C 549.322 1.93754 1.25411 0
M  V30 6044 C 550.292 0.796826 1.45739 0
M  V30 6045 O 551.477 1.05414 1.59036 0
M  V30 6046 C 548.617 2.27383 2.59598 0
M  V30 6047 C 547.73 3.5447 2.46931 0
M  V30 6048 C 546.865 3.77468 3.73753 0
M  V30 6049 C 545.904 4.98014 3.55877 0
M  V30 6050 N 545.041 5.17316 4.74688 0
M  V30 6051 H 549.881 2.83203 0.92737 0
M  V30 6052 H 547.418 1.40158 0.446574 0
M  V30 6053 H 549.376 2.44895 3.37761 0
M  V30 6054 H 548.006 1.41088 2.90335 0
M  V30 6055 H 547.058 3.45061 1.60116 0
M  V30 6056 H 548.37 4.42789 2.29651 0
M  V30 6057 H 547.524 3.95165 4.60358 0
M  V30 6058 H 546.263 2.87461 3.93976 0
M  V30 6059 H 545.268 4.80249 2.67657 0
M  V30 6060 H 546.493 5.8952 3.37109 0
M  V30 6061 H 544.439 4.30255 4.95194 0
M  V30 6062 H 544.356 5.99796 4.60197 0
M  V30 6063 H 545.624 5.39463 5.62672 0
M  V30 6064 N 549.853 -0.472356 1.50355 0
M  V30 6065 C 550.803 -1.56809 1.65514 0
M  V30 6066 C 551.787 -1.5261 0.509801 0
M  V30 6067 O 552.979 -1.59655 0.764145 0
M  V30 6068 C 550.108 -2.9526 1.75146 0
M  V30 6069 C 549.194 -3.04348 2.95353 0
M  V30 6070 N 549.585 -2.83253 4.19048 0
M  V30 6071 C 547.883 -3.35482 2.93884 0
M  V30 6072 C 548.584 -2.97273 5.00003 0
M  V30 6073 N 547.56 -3.27418 4.33934 0
M  V30 6074 H 551.362 -1.39197 2.58846 0
M  V30 6075 H 548.876 -0.67906 1.47521 0
M  V30 6076 H 550.873 -3.74044 1.8411 0
M  V30 6077 H 549.533 -3.1392 0.829717 0
M  V30 6078 H 550.544 -2.5886 4.48567 0
M  V30 6079 H 547.221 -3.60138 2.11204 0
M  V30 6080 H 548.611 -2.85214 6.08361 0
M  V30 6081 N 551.331 -1.39911 -0.725443 0
M  V30 6082 C 552.561 -1.40744 -1.51244 0
M  V30 6083 C 552.969 -0.00275403 -1.892 0
M  V30 6084 O 552.312 0.981299 -1.55294 0
M  V30 6085 C 552.374 -2.22527 -2.82351 0
M  V30 6086 C 552.038 -3.71053 -2.66774 0
M  V30 6087 C 553.035 -4.63916 -2.34686 0
M  V30 6088 C 550.72 -4.14753 -2.83347 0
M  V30 6089 C 552.714 -5.98463 -2.19366 0
M  V30 6090 C 550.401 -5.49372 -2.67644 0
M  V30 6091 C 551.399 -6.41042 -2.357 0
M  V30 6092 O 551.087 -7.73181 -2.20107 0
M  V30 6093 H 550.819 -0.482314 -0.473655 0
M  V30 6094 H 553.373 -1.84472 -0.903284 0
M  V30 6095 H 551.603 -1.73563 -3.45562 0
M  V30 6096 H 553.292 -2.15421 -3.44018 0
M  V30 6097 H 554.058 -4.31453 -2.21525 0
M  V30 6098 H 549.937 -3.43728 -3.072 0
M  V30 6099 H 553.481 -6.69979 -1.94354 0
M  V30 6100 H 549.378 -5.81424 -2.80387 0
M  V30 6101 H 550.146 -7.84008 -2.35103 0
M  V30 6102 N 552.809 0.956637 -1.25245 0
M  V30 6103 C 554.058 1.69537 -1.0927 0
M  V30 6104 C 554.371 1.92136 0.366503 0
M  V30 6105 O 555.577 2.63687 0.64665 0
M  V30 6106 C 554.033 3.05211 -1.9072 0
M  V30 6107 C 553.641 2.90416 -3.41119 0
M  V30 6108 C 555.385 3.82882 -1.83308 0
M  V30 6109 C 553.292 4.21468 -4.14872 0
M  V30 6110 H 552.222 0.635804 -0.405302 0
M  V30 6111 H 554.873 1.06513 -1.49423 0
M  V30 6112 H 553.255 3.69128 -1.43389 0
M  V30 6113 H 554.429 2.35444 -3.9611 0
M  V30 6114 H 552.744 2.26203 -3.49602 0
M  V30 6115 H 555.341 4.79944 -2.35706 0
M  V30 6116 H 555.684 4.0853 -0.800572 0
M  V30 6117 H 556.217 3.25711 -2.28379 0
M  V30 6118 H 552.956 4.01009 -5.18529 0
M  V30 6119 H 552.476 4.76213 -3.64665 0
M  V30 6120 H 554.155 4.90022 -4.22478 0
M  V30 6121 N 554.287 1.06798 1.15896 0
M  V30 6122 C 555.533 0.788934 1.86825 0
M  V30 6123 C 555.866 -0.683084 1.8179 0
M  V30 6124 O 555.141 -1.50086 1.23711 0
M  V30 6125 C 555.424 1.29065 3.36176 0
M  V30 6126 C 555.277 2.8268 3.49874 0
M  V30 6127 C 556.596 0.902655 4.30744 0
M  V30 6128 H 553.715 0.288066 0.678371 0
M  V30 6129 H 556.357 1.32479 1.36195 0
M  V30 6130 H 554.507 0.834806 3.79425 0
M  V30 6131 H 556.179 3.36511 3.15528 0
M  V30 6132 H 554.422 3.21157 2.91617 0
M  V30 6133 H 555.093 3.12852 4.54783 0
M  V30 6134 H 557.569 1.29535 3.95424 0
M  V30 6135 H 556.445 1.28111 5.3374 0
M  V30 6136 H 556.706 -0.191951 4.41683 0
M  V30 6137 N 555.766 -1.3263 0.851289 0
M  V30 6138 C 556.696 -2.31449 0.308771 0
M  V30 6139 C 557.677 -1.59531 -0.590255 0
M  V30 6140 O 558.862 -1.87351 -0.511205 0
M  V30 6141 C 555.992 -3.43586 -0.506548 0
M  V30 6142 C 554.946 -4.26963 0.297753 0
M  V30 6143 C 554.272 -5.30831 -0.642094 0
M  V30 6144 C 555.572 -4.99643 1.52166 0
M  V30 6145 H 557.266 -2.77074 1.13447 0
M  V30 6146 H 554.812 -1.33207 0.546971 0
M  V30 6147 H 556.765 -4.11754 -0.896474 0
M  V30 6148 H 555.489 -2.96681 -1.36558 0
M  V30 6149 H 554.148 -3.60437 0.669391 0
M  V30 6150 H 553.796 -4.8018 -1.49788 0
M  V30 6151 H 553.496 -5.87501 -0.107968 0
M  V30 6152 H 555.02 -6.01862 -1.02927 0
M  V30 6153 H 556.434 -5.6051 1.20421 0
M  V30 6154 H 554.831 -5.66022 1.99347 0
M  V30 6155 H 555.901 -4.27701 2.28474 0
M  V30 6156 N 557.244 -0.608902 -1.45362 0
M  V30 6157 C 558.174 0.0964526 -2.33301 0
M  V30 6158 C 559.155 0.857444 -1.46908 0
M  V30 6159 O 560.34 0.827735 -1.75676 0
M  V30 6160 C 557.47 1.09354 -3.29635 0
M  V30 6161 C 556.424 0.445676 -4.25673 0
M  V30 6162 C 555.75 1.5511 -5.11708 0
M  V30 6163 C 557.05 -0.633972 -5.18438 0
M  V30 6164 H 558.744 -0.637829 -2.92527 0
M  V30 6165 H 556.29 -0.308178 -1.40664 0
M  V30 6166 H 558.243 1.59556 -3.90025 0
M  V30 6167 H 556.967 1.85843 -2.6857 0
M  V30 6168 H 555.626 -0.0354897 -3.66583 0
M  V30 6169 H 555.274 2.30631 -4.4701 0
M  V30 6170 H 554.974 1.12311 -5.76767 0
M  V30 6171 H 556.498 2.05537 -5.74967 0
M  V30 6172 H 557.912 -0.215974 -5.72893 0
M  V30 6173 H 556.309 -0.983789 -5.91981 0
M  V30 6174 H 557.379 -1.51005 -4.60788 0
M  V30 6175 N 558.722 1.53707 -0.348139 0
M  V30 6176 C 559.685 2.23812 0.494058 0
M  V30 6177 C 560.685 1.23989 1.02388 0
M  V30 6178 O 561.875 1.48395 0.912396 0
M  V30 6179 C 559.007 2.96133 1.68872 0
M  V30 6180 H 560.2 2.99663 -0.119141 0
M  V30 6181 H 557.753 1.55983 -0.0995539 0
M  V30 6182 H 558.488 2.24481 2.34049 0
M  V30 6183 H 558.273 3.69357 1.31596 0
M  V30 6184 H 559.763 3.49475 2.28597 0
M  V30 6185 N 560.2 0.0768682 1.57412 0
M  V30 6186 C 561.425 -0.603404 1.98428 0
M  V30 6187 C 561.85 -1.62047 0.955108 0
M  V30 6188 O 561.208 -1.81129 -0.0786778 0
M  V30 6189 C 561.256 -1.24396 3.38464 0
M  V30 6190 O 560.36 -2.35982 3.3821 0
M  V30 6191 H 559.701 -0.154741 0.645718 0
M  V30 6192 H 562.231 0.152885 2.04028 0
M  V30 6193 H 562.241 -1.5896 3.7576 0
M  V30 6194 H 560.916 -0.498735 4.12899 0
M  V30 6195 H 559.493 -2.03173 3.1269 0
M  V30 6196 N 561.678 -1.56367 -0.196722 0
M  V30 6197 C 562.641 -1.93561 -1.22746 0
M  V30 6198 C 563.641 -0.816566 -1.38524 0
M  V30 6199 O 564.831 -1.084 -1.36363 0
M  V30 6200 C 561.963 -2.20823 -2.59712 0
M  V30 6201 H 563.156 -2.85774 -0.909586 0
M  V30 6202 H 560.709 -1.50032 -0.438174 0
M  V30 6203 H 561.444 -1.31243 -2.96557 0
M  V30 6204 H 561.229 -3.02368 -2.49632 0
M  V30 6205 H 562.719 -2.50608 -3.34044 0
M  V30 6206 N 563.156 0.464375 -1.50603 0
M  V30 6207 C 564.567 1.04507 -1.5471 0
M  V30 6208 C 564.918 1.9297 -0.354542 0
M  V30 6209 O 564.043 2.09763 0.531812 0
M  V30 6210 C 564.638 1.90207 -2.80369 0
M  V30 6211 C 563.197 2.43373 -2.87135 0
M  V30 6212 C 562.344 1.21886 -2.49076 0
M  V30 6213 H 565.295 0.246716 -1.56771 0
M  V30 6214 H 565.316 2.75353 -2.62604 0
M  V30 6215 H 564.828 1.25796 -3.67147 0
M  V30 6216 H 562.929 3.11318 -2.04724 0
M  V30 6217 H 563.042 2.7802 -3.90181 0
M  V30 6218 H 561.406 1.55575 -2.01664 0
M  V30 6219 H 562.189 0.591268 -3.3817 0
M  V30 6220 N 564.634 1.40294 0.718013 0
M  V30 6221 C 565.862 1.4175 1.50714 0
M  V30 6222 C 566.277 0.0165366 1.88793 0
M  V30 6223 O 565.634 -0.958942 1.55276 0
M  V30 6224 C 565.685 2.30598 2.784 0
M  V30 6225 O 565.406 3.6524 2.41932 0
M  V30 6226 C 566.907 2.4062 3.72313 0
M  V30 6227 H 564.127 0.483565 0.465194 0
M  V30 6228 H 566.671 1.84316 0.885889 0
M  V30 6229 H 564.826 1.91401 3.36815 0
M  V30 6230 H 565.24 4.12402 3.24076 0
M  V30 6231 H 566.714 3.07001 4.58753 0
M  V30 6232 H 567.191 1.4305 4.15251 0
M  V30 6233 H 567.797 2.80359 3.19811 0
M  V30 6234 N 566.112 -0.949982 1.2575 0
M  V30 6235 C 567.022 -2.08109 1.08295 0
M  V30 6236 C 568.038 -1.7399 0.0188181 0
M  V30 6237 O 569.214 -2.00187 0.220724 0
M  V30 6238 C 566.279 -3.39383 0.708534 0
M  V30 6239 C 565.34 -3.8734 1.85111 0
M  V30 6240 C 564.573 -5.12349 1.49447 0
M  V30 6241 O 564.796 -5.6905 0.392212 0
M  V30 6242 O 563.73 -5.5513 2.32624 0
M  V30 6243 H 567.556 -2.25738 2.03165 0
M  V30 6244 H 565.141 -1.06545 1.04731 0
M  V30 6245 H 567.023 -4.18277 0.512061 0
M  V30 6246 H 565.698 -3.23013 -0.210854 0
M  V30 6247 H 564.605 -3.09429 2.10248 0
M  V30 6248 H 565.938 -4.08216 2.74991 0
M  V30 6249 N 567.59 -1.07411 -1.15328 0
M  V30 6250 C 568.537 -0.694995 -2.20087 0
M  V30 6251 C 569.507 0.313904 -1.63107 0
M  V30 6252 O 570.692 0.200216 -1.89747 0
M  V30 6253 C 567.832 -0.0996218 -3.44956 0
M  V30 6254 C 566.945 -1.16007 -4.16133 0
M  V30 6255 C 566.08 -0.529636 -5.28553 0
M  V30 6256 C 565.119 -1.57283 -5.91548 0
M  V30 6257 N 564.256 -0.964932 -6.95438 0
M  V30 6258 H 569.096 -1.5927 -2.51867 0
M  V30 6259 H 566.633 -0.796115 -1.23695 0
M  V30 6260 H 568.591 0.263197 -4.16369 0
M  V30 6261 H 567.221 0.761435 -3.13691 0
M  V30 6262 H 566.273 -1.64045 -3.4321 0
M  V30 6263 H 567.585 -1.95101 -4.59061 0
M  V30 6264 H 566.739 -0.114487 -6.06592 0
M  V30 6265 H 565.478 0.29307 -4.86819 0
M  V30 6266 H 564.483 -1.99775 -5.12221 0
M  V30 6267 H 565.708 -2.39783 -6.35359 0
M  V30 6268 H 563.654 -0.16314 -6.55797 0
M  V30 6269 H 563.571 -1.69311 -7.36797 0
M  V30 6270 H 564.839 -0.575305 -7.77374 0
M  V30 6271 N 569.068 1.32177 -0.85831 0
M  V30 6272 C 570 2.27688 -0.262835 0
M  V30 6273 C 571.013 1.52588 0.567513 0
M  V30 6274 O 572.202 1.74156 0.391407 0
M  V30 6275 C 569.302 3.32668 0.646937 0
M  V30 6276 C 568.475 4.37148 -0.148372 0
M  V30 6277 C 567.534 5.21686 0.687728 0
M  V30 6278 O 566.56 5.69074 0.119934 0
M  V30 6279 N 567.762 5.44892 2.00182 0
M  V30 6280 H 570.527 2.79426 -1.08356 0
M  V30 6281 H 568.088 1.45076 -0.718647 0
M  V30 6282 H 570.08 3.86134 1.2117 0
M  V30 6283 H 568.65 2.81061 1.36834 0
M  V30 6284 H 567.87 3.83915 -0.894572 0
M  V30 6285 H 569.158 5.04038 -0.694514 0
M  V30 6286 H 568.556 5.08128 2.4864 0
M  V30 6287 H 567.113 6.0134 2.51463 0
M  V30 6288 N 570.547 0.616602 1.45037 0
M  V30 6289 C 571.963 0.280994 1.57107 0
M  V30 6290 C 572.163 -1.21627 1.60653 0
M  V30 6291 O 571.219 -1.9997 1.54169 0
M  V30 6292 C 572.532 0.960116 2.8496 0
M  V30 6293 C 574.08 0.936884 2.98649 0
M  V30 6294 C 574.555 1.59619 4.29285 0
M  V30 6295 N 576.046 1.5621 4.36065 0
M  V30 6296 C 576.781 2.04131 5.35834 0
M  V30 6297 N 576.277 2.60177 6.4209 0
M  V30 6298 N 578.07 1.94845 5.27249 0
M  V30 6299 H 570.221 1.58867 1.40979 0
M  V30 6300 H 572.484 0.666024 0.674623 0
M  V30 6301 H 572.19 2.01473 2.88273 0
M  V30 6302 H 572.064 0.488921 3.74018 0
M  V30 6303 H 574.451 -0.109209 2.94898 0
M  V30 6304 H 574.532 1.44643 2.10979 0
M  V30 6305 H 574.176 2.64166 4.33796 0
M  V30 6306 H 574.106 1.06159 5.15789 0
M  V30 6307 H 576.597 1.15276 3.59889 0
M  V30 6308 H 576.91 2.94513 7.1448 0
M  V30 6309 H 575.255 2.64221 6.42816 0
M  V30 6310 H 578.446 1.50792 4.43147 0
M  V30 6311 H 578.619 2.32504 6.04852 0
M  V30 6312 N 572.025 -1.5352 0.356285 0
M  V30 6313 C 572.955 -2.28372 -0.486661 0
M  V30 6314 C 573.936 -1.30432 -1.09185 0
M  V30 6315 O 575.121 -1.59291 -1.11085 0
M  V30 6316 C 572.251 -3.06604 -1.63129 0
M  V30 6317 C 571.205 -4.12154 -1.15381 0
M  V30 6318 C 570.531 -4.78415 -2.38796 0
M  V30 6319 C 571.831 -5.21724 -0.245179 0
M  V30 6320 H 573.525 -2.99083 0.137797 0
M  V30 6321 H 571.071 -1.43841 0.0677134 0
M  V30 6322 H 573.024 -3.57712 -2.22755 0
M  V30 6323 H 571.748 -2.33568 -2.28284 0
M  V30 6324 H 570.407 -3.61978 -0.580294 0
M  V30 6325 H 570.055 -4.01959 -3.02387 0
M  V30 6326 H 569.755 -5.49734 -2.07524 0
M  V30 6327 H 571.279 -5.32313 -2.99125 0
M  V30 6328 H 572.693 -5.68391 -0.748646 0
M  V30 6329 H 571.09 -6.00095 -0.0237608 0
M  V30 6330 H 572.16 -4.79596 0.715229 0
M  V30 6331 N 573.503 -0.0852151 -1.57369 0
M  V30 6332 C 574.413 0.891712 -2.16992 0
M  V30 6333 C 575.429 1.3174 -1.13669 0
M  V30 6334 O 576.605 1.38735 -1.45995 0
M  V30 6335 C 573.67 2.13635 -2.73059 0
M  V30 6336 C 572.731 1.7658 -3.91303 0
M  V30 6337 C 571.964 2.95111 -4.44686 0
M  V30 6338 O 572.187 4.09539 -3.97032 0
M  V30 6339 O 571.121 2.74149 -5.35841 0
M  V30 6340 H 574.947 0.414477 -3.00858 0
M  V30 6341 H 572.532 0.138598 -1.48756 0
M  V30 6342 H 574.414 2.86595 -3.08935 0
M  V30 6343 H 573.089 2.6043 -1.92244 0
M  V30 6344 H 571.996 1.00831 -3.60255 0
M  V30 6345 H 573.329 1.34557 -4.7345 0
M  V30 6346 N 574.981 1.5647 0.188427 0
M  V30 6347 C 576.227 1.82181 0.904534 0
M  V30 6348 C 576.582 0.663258 1.80606 0
M  V30 6349 O 575.875 -0.341231 1.88537 0
M  V30 6350 C 576.069 3.11596 1.7505 0
M  V30 6351 C 575.898 4.39928 0.932372 0
M  V30 6352 C 574.668 5.01554 0.61417 0
M  V30 6353 C 576.866 5.13527 0.281936 0
M  V30 6354 N 574.848 6.13499 -0.221896 0
M  V30 6355 C 576.219 6.18603 -0.416037 0
M  V30 6356 C 578.274 4.97505 0.198345 0
M  V30 6357 C 576.977 7.09394 -1.18965 0
M  V30 6358 C 579.003 5.88725 -0.561887 0
M  V30 6359 C 578.365 6.93251 -1.24828 0
M  V30 6360 H 574.464 0.717858 0.310168 0
M  V30 6361 H 577.048 1.93932 0.172757 0
M  V30 6362 H 575.219 3.01068 2.45383 0
M  V30 6363 H 576.951 3.25369 2.4066 0
M  V30 6364 H 573.706 4.64174 0.940187 0
M  V30 6365 H 574.13 6.74065 -0.629735 0
M  V30 6366 H 578.772 4.16716 0.714665 0
M  V30 6367 H 576.49 7.8964 -1.71737 0
M  V30 6368 H 580.076 5.78401 -0.628009 0
M  V30 6369 H 578.956 7.62618 -1.82712 0
M  V30 6370 N 576.459 -0.456382 1.50847 0
M  V30 6371 C 577.705 -1.20914 1.62811 0
M  V30 6372 C 578.038 -1.91301 0.334304 0
M  V30 6373 O 577.313 -1.82775 -0.665098 0
M  V30 6374 C 577.596 -2.24122 2.81853 0
M  V30 6375 C 577.449 -1.57944 4.21158 0
M  V30 6376 C 578.768 -3.25295 2.96431 0
M  V30 6377 H 575.887 -0.438233 0.592554 0
M  V30 6378 H 578.529 -0.50091 1.83278 0
M  V30 6379 H 576.679 -2.84524 2.64534 0
M  V30 6380 H 578.351 -1.01025 4.50102 0
M  V30 6381 H 576.594 -0.882185 4.24735 0
M  V30 6382 H 577.265 -2.33014 5.00408 0
M  V30 6383 H 579.741 -2.7493 3.12335 0
M  V30 6384 H 578.617 -3.94822 3.81322 0
M  V30 6385 H 578.878 -3.90286 2.07676 0
M  V30 6386 N 577.937 -1.40673 -0.710563 0
M  V30 6387 C 579.185 -1.38947 -1.46759 0
M  V30 6388 C 579.506 0.00572879 -1.94999 0
M  V30 6389 O 578.776 0.961358 -1.70689 0
M  V30 6390 H 577.356 -0.5114 -0.544499 0
M  V30 6391 H 580.018 -1.75773 -0.842012 0
M  V30 6392 H 579.114 -2.06745 -2.33801 0
M  V30 6393 N 579.415 0.9433 -1.26252 0
M  V30 6394 C 580.345 2.05902 -1.10122 0
M  V30 6395 C 581.326 1.70099 -0.00700552 0
M  V30 6396 O 582.511 1.93377 -0.178641 0
M  V30 6397 C 579.641 3.39516 -0.731175 0
M  V30 6398 C 578.595 3.89372 -1.77688 0
M  V30 6399 C 577.921 5.19613 -1.26122 0
M  V30 6400 C 579.221 4.14489 -3.17799 0
M  V30 6401 H 580.915 2.19655 -2.03451 0
M  V30 6402 H 578.461 1.05548 -0.979576 0
M  V30 6403 H 580.414 4.17031 -0.605215 0
M  V30 6404 H 579.138 3.25733 0.23782 0
M  V30 6405 H 577.797 3.14036 -1.89148 0
M  V30 6406 H 577.445 5.02208 -0.282128 0
M  V30 6407 H 577.145 5.53939 -1.96023 0
M  V30 6408 H 578.669 5.99713 -1.14789 0
M  V30 6409 H 580.083 4.82625 -3.09428 0
M  V30 6410 H 578.48 4.60094 -3.85271 0
M  V30 6411 H 579.55 3.20347 -3.64014 0
M  V30 6412 N 580.893 1.08022 1.14757 0
M  V30 6413 C 582.139 0.808705 1.85978 0
M  V30 6414 C 582.472 -0.663764 1.82504 0
M  V30 6415 O 581.747 -1.48765 1.25296 0
M  V30 6416 C 582.03 1.32623 3.34788 0
M  V30 6417 C 581.883 2.86375 3.46856 0
M  V30 6418 C 583.202 0.948291 4.29762 0
M  V30 6419 H 580.321 0.295244 0.675278 0
M  V30 6420 H 582.963 1.33917 1.34783 0
M  V30 6421 H 581.113 0.875002 3.78518 0
M  V30 6422 H 582.785 3.39839 3.11941 0
M  V30 6423 H 581.028 3.24232 2.88194 0
M  V30 6424 H 581.699 3.17658 4.51439 0
M  V30 6425 H 584.175 1.33722 3.94028 0
M  V30 6426 H 583.051 1.33765 5.32352 0
M  V30 6427 H 583.312 -0.145094 4.41862 0
M  V30 6428 N 582.371 -1.3172 0.865308 0
M  V30 6429 C 583.281 -2.32394 0.320935 0
M  V30 6430 C 584.297 -1.64511 -0.566746 0
M  V30 6431 O 585.473 -1.95969 -0.464575 0
M  V30 6432 C 582.538 -3.43462 -0.472701 0
M  V30 6433 C 581.599 -4.27015 0.442385 0
M  V30 6434 C 580.832 -5.32779 -0.313469 0
M  V30 6435 O 581.055 -5.49158 -1.54214 0
M  V30 6436 O 579.989 -6.01015 0.326257 0
M  V30 6437 H 583.815 -2.80868 1.15528 0
M  V30 6438 H 581.4 -1.35535 0.628545 0
M  V30 6439 H 583.282 -4.11172 -0.922781 0
M  V30 6440 H 581.957 -2.97159 -1.28367 0
M  V30 6441 H 580.864 -3.62075 0.940866 0
M  V30 6442 H 582.197 -4.76871 1.21882 0
M  V30 6443 N 583.85 -0.624285 -1.44708 0
M  V30 6444 C 585.075 -0.131171 -2.06985 0
M  V30 6445 C 585.5 1.18234 -1.46295 0
M  V30 6446 O 584.858 1.72375 -0.561842 0
M  V30 6447 C 584.906 -0.0226724 -3.60593 0
M  V30 6448 O 584.01 1.02314 -3.99507 0
M  V30 6449 H 583.351 -0.0816556 -0.65896 0
M  V30 6450 H 585.88 -0.859027 -1.85693 0
M  V30 6451 H 585.891 0.170138 -4.07645 0
M  V30 6452 H 584.566 -0.981685 -4.04148 0
M  V30 6453 H 583.143 0.805452 -3.64097 0
M  V30 6454 N 585.328 1.53329 -0.364422 0
M  V30 6455 C 586.275 2.25698 0.482607 0
M  V30 6456 C 587.245 1.26325 1.07848 0
M  V30 6457 O 588.43 1.55104 1.11119 0
M  V30 6458 C 585.57 3.04873 1.61699 0
M  V30 6459 C 584.683 4.19135 1.0464 0
M  V30 6460 C 583.818 4.85754 2.14979 0
M  V30 6461 C 582.857 5.9205 1.5538 0
M  V30 6462 N 581.994 6.52365 2.59547 0
M  V30 6463 H 586.834 2.97666 -0.141032 0
M  V30 6464 H 584.371 1.46875 -0.0813692 0
M  V30 6465 H 586.329 3.49051 2.28516 0
M  V30 6466 H 584.959 2.35162 2.2113 0
M  V30 6467 H 584.011 3.79451 0.268553 0
M  V30 6468 H 585.323 4.95525 0.570653 0
M  V30 6469 H 584.477 5.3311 2.89619 0
M  V30 6470 H 583.216 4.08834 2.65906 0
M  V30 6471 H 582.221 5.44058 0.792549 0
M  V30 6472 H 583.446 6.7089 1.0528 0
M  V30 6473 H 581.392 5.78298 3.09689 0
M  V30 6474 H 581.309 7.2429 2.16655 0
M  V30 6475 H 582.577 7.0437 3.33892 0
M  V30 6476 N 586.806 0.0935595 1.57322 0
M  V30 6477 C 588.055 -0.570191 1.93473 0
M  V30 6478 C 588.368 -1.69434 0.977318 0
M  V30 6479 O 589.574 -2.41914 1.23248 0
M  V30 6480 C 588.03 -1.06564 3.43762 0
M  V30 6481 C 587.638 0.0286723 4.47991 0
M  V30 6482 C 589.382 -1.70221 3.88877 0
M  V30 6483 C 587.289 -0.482046 5.89432 0
M  V30 6484 H 586.219 -0.216764 0.72217 0
M  V30 6485 H 588.87 0.169313 1.82717 0
M  V30 6486 H 587.252 -1.85878 3.49664 0
M  V30 6487 H 588.426 0.804106 4.5373 0
M  V30 6488 H 586.741 0.570336 4.12476 0
M  V30 6489 H 589.338 -2.09502 4.91948 0
M  V30 6490 H 589.681 -2.57078 3.27439 0
M  V30 6491 H 590.214 -0.974919 3.85668 0
M  V30 6492 H 586.953 0.349871 6.54566 0
M  V30 6493 H 586.473 -1.22452 5.87167 0
M  V30 6494 H 588.152 -0.951508 6.39965 0
M  V30 6495 N 588.284 -1.56567 -0.180126 0
M  V30 6496 C 589.7 -1.50488 -0.531559 0
M  V30 6497 C 589.9 -0.796267 -1.851 0
M  V30 6498 O 588.956 -0.352978 -2.50021 0
M  V30 6499 C 590.269 -2.95201 -0.572456 0
M  V30 6500 C 591.817 -3.05957 -0.660264 0
M  V30 6501 C 592.292 -4.5211 -0.732135 0
M  V30 6502 N 593.783 -4.56322 -0.795262 0
M  V30 6503 C 594.518 -5.66742 -0.871296 0
M  V30 6504 N 594.014 -6.86815 -0.908708 0
M  V30 6505 N 595.807 -5.54691 -0.909639 0
M  V30 6506 H 587.958 -2.01045 0.685165 0
M  V30 6507 H 590.221 -0.915536 0.245962 0
M  V30 6508 H 589.927 -3.50165 0.328208 0
M  V30 6509 H 589.801 -3.49369 -1.422 0
M  V30 6510 H 592.188 -2.51032 -1.55136 0
M  V30 6511 H 592.269 -2.54888 0.215783 0
M  V30 6512 H 591.913 -5.07664 0.154664 0
M  V30 6513 H 591.843 -5.00926 -1.6242 0
M  V30 6514 H 594.334 -3.69868 -0.77499 0
M  V30 6515 H 594.647 -7.66718 -0.967654 0
M  V30 6516 H 592.992 -6.89443 -0.877132 0
M  V30 6517 H 596.183 -4.59804 -0.877353 0
M  V30 6518 H 596.356 -6.40768 -0.965434 0
M  V30 6519 N 589.762 0.448376 -1.51087 0
M  V30 6520 C 591.011 1.19561 -1.62444 0
M  V30 6521 C 591.324 1.92602 -0.341151 0
M  V30 6522 O 592.53 2.69439 -0.333936 0
M  V30 6523 C 590.986 2.17373 -2.8684 0
M  V30 6524 C 590.594 1.5003 -4.22131 0
M  V30 6525 C 592.338 2.92597 -3.0755 0
M  V30 6526 C 590.245 2.46262 -5.37689 0
M  V30 6527 H 589.175 0.449975 -0.605011 0
M  V30 6528 H 591.826 0.463735 -1.77544 0
M  V30 6529 H 590.208 2.93948 -2.65349 0
M  V30 6530 H 591.382 0.790886 -4.53962 0
M  V30 6531 H 589.697 0.870011 -4.0721 0
M  V30 6532 H 592.294 3.64663 -3.91056 0
M  V30 6533 H 592.637 3.53306 -2.20183 0
M  V30 6534 H 593.17 2.23131 -3.29329 0
M  V30 6535 H 589.909 1.90258 -6.27281 0
M  V30 6536 H 589.429 3.15289 -5.10248 0
M  V30 6537 H 591.108 3.07623 -5.6919 0
M  V30 6538 N 591.24 1.41047 0.703093 0
M  V30 6539 C 592.17 1.45067 1.82969 0
M  V30 6540 C 593.151 0.31016 1.67248 0
M  V30 6541 O 594.336 0.520548 1.87093 0
M  V30 6542 C 591.466 1.32478 3.2104 0
M  V30 6543 C 590.42 2.44262 3.51454 0
M  V30 6544 C 589.746 2.16742 4.88801 0
M  V30 6545 C 591.046 3.86606 3.51189 0
M  V30 6546 H 592.74 2.39353 1.79863 0
M  V30 6547 H 590.286 1.15206 0.863919 0
M  V30 6548 H 592.239 1.33904 3.99559 0
M  V30 6549 H 590.963 0.346735 3.24754 0
M  V30 6550 H 589.622 2.42107 2.75282 0
M  V30 6551 H 589.27 1.17299 4.89132 0
M  V30 6552 H 588.97 2.91643 5.10116 0
M  V30 6553 H 590.494 2.19872 5.69639 0
M  V30 6554 H 591.908 3.90517 4.19725 0
M  V30 6555 H 590.305 4.61128 3.84033 0
M  V30 6556 H 591.375 4.15296 2.50315 0
M  V30 6557 N 592.718 -0.936591 1.26751 0
M  V30 6558 C 593.964 -1.6858 1.12733 0
M  V30 6559 C 594.297 -1.91414 -0.327745 0
M  V30 6560 O 593.572 -1.49812 -1.24043 0
M  V30 6561 C 593.855 -3.05779 1.90187 0
M  V30 6562 C 593.708 -2.90242 3.43627 0
M  V30 6563 C 595.027 -4.0597 1.69931 0
M  V30 6564 H 592.146 -0.61182 0.410908 0
M  V30 6565 H 594.788 -1.08747 1.55801 0
M  V30 6566 H 592.938 -3.56853 1.53584 0
M  V30 6567 H 594.61 -2.46354 3.9001 0
M  V30 6568 H 592.853 -2.2577 3.70419 0
M  V30 6569 H 593.524 -3.87572 3.93055 0
M  V30 6570 H 596 -3.63874 2.0183 0
M  V30 6571 H 594.876 -4.99974 2.26534 0
M  V30 6572 H 595.137 -4.37369 0.64502 0
M  V30 6573 N 594.196 -1.08629 -1.14182 0
M  V30 6574 C 595.444 -0.815731 -1.84906 0
M  V30 6575 C 595.765 0.660441 -1.83475 0
M  V30 6576 O 595.035 1.47888 -1.28476 0
M  V30 6577 H 593.615 -0.298773 -0.684648 0
M  V30 6578 H 596.277 -1.37274 -1.38354 0
M  V30 6579 H 595.373 -1.16193 -2.89665 0
M  V30 6580 N 595.674 1.31259 -0.872281 0
M  V30 6581 C 596.899 2.0133 -0.498099 0
M  V30 6582 C 597.324 1.65031 0.902568 0
M  V30 6583 O 596.682 0.860164 1.59596 0
M  V30 6584 C 596.73 3.54411 -0.665205 0
M  V30 6585 O 595.834 4.11347 0.294473 0
M  V30 6586 H 595.175 0.633844 -0.197832 0
M  V30 6587 H 597.705 1.67402 -1.17633 0
M  V30 6588 H 597.715 4.04147 -0.559373 0
M  V30 6589 H 596.39 3.80171 -1.68651 0
M  V30 6590 H 594.967 3.72624 0.143403 0
M  V30 6591 N 597.152 0.631951 1.44375 0
M  V30 6592 C 598.082 -0.0593243 2.33425 0
M  V30 6593 C 599.063 -0.833964 1.48253 0
M  V30 6594 O 600.248 -0.799682 1.76971 0
M  V30 6595 C 597.378 -1.04096 3.31333 0
M  V30 6596 C 596.332 -0.377899 4.26328 0
M  V30 6597 C 595.658 -1.4695 5.14111 0
M  V30 6598 C 596.958 0.716371 5.17364 0
M  V30 6599 H 598.652 0.684287 2.91475 0
M  V30 6600 H 596.198 0.330518 1.40156 0
M  V30 6601 H 598.151 -1.53331 3.92514 0
M  V30 6602 H 596.875 -1.81547 2.71493 0
M  V30 6603 H 595.534 0.0938054 3.6648 0
M  V30 6604 H 595.182 -2.2349 4.50623 0
M  V30 6605 H 594.882 -1.03121 5.78481 0
M  V30 6606 H 596.406 -1.96363 5.78164 0
M  V30 6607 H 597.82 0.307089 5.72477 0
M  V30 6608 H 596.217 1.07784 5.90341 0
M  V30 6609 H 597.287 1.58316 4.58327 0
M  V30 6610 N 598.631 -1.53133 0.372548 0
M  V30 6611 C 599.541 -2.29671 -0.478379 0
M  V30 6612 C 600.557 -1.35913 -1.08644 0
M  V30 6613 O 601.733 -1.68975 -1.09588 0
M  V30 6614 C 598.798 -3.07625 -1.599 0
M  V30 6615 C 597.859 -4.17061 -1.01776 0
M  V30 6616 C 597.092 -4.91289 -2.08497 0
M  V30 6617 O 597.315 -4.65442 -3.29727 0
M  V30 6618 O 596.249 -5.7705 -1.71164 0
M  V30 6619 H 600.075 -3.03355 0.144649 0
M  V30 6620 H 597.66 -1.48773 0.136729 0
M  V30 6621 H 599.542 -3.56281 -2.25038 0
M  V30 6622 H 598.217 -2.3677 -2.2073 0
M  V30 6623 H 597.124 -3.72641 -0.330098 0
M  V30 6624 H 598.457 -4.90102 -0.453915 0
M  V30 6625 N 600.109 -0.101901 -1.5727 0
M  V30 6626 C 601.056 0.854577 -2.14396 0
M  V30 6627 C 602.026 1.27521 -1.06432 0
M  V30 6628 O 603.211 1.35575 -1.34253 0
M  V30 6629 C 600.351 2.10576 -2.73408 0
M  V30 6630 C 599.464 1.73504 -3.95626 0
M  V30 6631 C 598.599 2.9346 -4.42781 0
M  V30 6632 C 597.638 2.52547 -5.57572 0
M  V30 6633 N 596.775 3.65359 -5.99547 0
M  V30 6634 H 601.615 0.360578 -2.9581 0
M  V30 6635 H 599.152 0.166303 -1.46157 0
M  V30 6636 H 601.11 2.83859 -3.05745 0
M  V30 6637 H 599.74 2.57463 -1.94711 0
M  V30 6638 H 598.792 0.901622 -3.6956 0
M  V30 6639 H 600.104 1.39426 -4.78917 0
M  V30 6640 H 599.258 3.74988 -4.76937 0
M  V30 6641 H 597.997 3.30753 -3.58404 0
M  V30 6642 H 597.002 1.69446 -5.23037 0
M  V30 6643 H 598.227 2.1639 -6.43702 0
M  V30 6644 H 596.173 4.02358 -5.18116 0
M  V30 6645 H 596.09 3.35148 -6.77652 0
M  V30 6646 H 597.358 4.47378 -6.38336 0
M  V30 6647 N 601.587 1.56661 0.17182 0
M  V30 6648 C 602.535 1.97289 1.23207 0
M  V30 6649 C 603.529 0.861566 1.45854 0
M  V30 6650 O 604.735 1.04668 1.4644 0
M  V30 6651 H 601.11 0.627681 0.41415 0
M  V30 6652 H 603.081 2.85662 0.862542 0
M  V30 6653 C 601.83 2.34849 2.564 0
M  V30 6654 H 601.153 3.19903 2.39797 0
M  V30 6655 H 602.593 2.67121 3.29276 0
M  V30 6656 C 601.052 1.19172 3.15119 0
M  V30 6657 O 601.582 0.479113 3.98833 0
M  V30 6658 N 599.788 0.962415 2.74201 0
M  V30 6659 H 599.335 1.54365 2.06226 0
M  V30 6660 H 599.293 0.190272 3.13824 0
M  V30 6661 N 603.065 -0.440357 1.51323 0
M  V30 6662 C 603.975 -1.55955 1.75258 0
M  V30 6663 C 604.991 -1.61933 0.636687 0
M  V30 6664 O 606.167 -1.79231 0.918593 0
M  V30 6665 C 603.232 -2.9196 1.86977 0
M  V30 6666 C 602.293 -2.96122 3.10822 0
M  V30 6667 C 601.526 -4.2564 3.21973 0
M  V30 6668 O 601.749 -5.17851 2.39137 0
M  V30 6669 O 600.683 -4.36025 4.14929 0
M  V30 6670 H 604.509 -1.38673 2.70191 0
M  V30 6671 H 602.094 -0.623055 1.35788 0
M  V30 6672 H 603.976 -3.72682 1.96688 0
M  V30 6673 H 602.651 -3.09375 0.952307 0
M  V30 6674 H 601.558 -2.14366 3.06591 0
M  V30 6675 H 602.891 -2.83651 4.02247 0
M  V30 6676 N 604.543 -1.41418 -0.695603 0
M  V30 6677 C 605.79 -1.40774 -1.45564 0
M  V30 6678 C 606.118 -0.0168604 -1.94493 0
M  V30 6679 O 605.373 0.971259 -1.69897 0
M  V30 6680 C 605.672 -2.36112 -2.68302 0
M  V30 6681 C 605.338 -3.82952 -2.38031 0
M  V30 6682 C 604 -4.22954 -2.29486 0
M  V30 6683 C 606.352 -4.75662 -2.13061 0
M  V30 6684 C 603.68 -5.53674 -1.94067 0
M  V30 6685 C 606.032 -6.06702 -1.79151 0
M  V30 6686 C 604.696 -6.45725 -1.69102 0
M  V30 6687 H 603.966 -0.515128 -0.532658 0
M  V30 6688 H 606.613 -1.74216 -0.795047 0
M  V30 6689 H 604.918 -1.95924 -3.39295 0
M  V30 6690 H 606.615 -2.32887 -3.26442 0
M  V30 6691 H 603.205 -3.5127 -2.45576 0
M  V30 6692 H 607.389 -4.45561 -2.18608 0
M  V30 6693 H 602.645 -5.8279 -1.8484 0
M  V30 6694 H 606.819 -6.78041 -1.5885 0
M  V30 6695 H 604.446 -7.46929 -1.41426 0
M  V30 6696 N 606.021 0.929856 -1.27246 0
M  V30 6697 C 607.27 1.67182 -1.12842 0
M  V30 6698 C 607.583 1.9287 0.325666 0
M  V30 6699 O 608.789 2.64999 0.590572 0
M  V30 6700 C 607.245 3.01097 -1.97151 0
M  V30 6701 C 606.853 2.83115 -3.47203 0
M  V30 6702 C 608.597 3.78907 -1.91389 0
M  V30 6703 C 606.504 4.12573 -4.23719 0
M  V30 6704 H 605.434 0.627064 -0.418697 0
M  V30 6705 H 608.085 1.0332 -1.51649 0
M  V30 6706 H 606.467 3.66004 -1.51186 0
M  V30 6707 H 607.641 2.26989 -4.01015 0
M  V30 6708 H 605.956 2.18736 -3.54321 0
M  V30 6709 H 608.553 4.74837 -2.45834 0
M  V30 6710 H 608.896 4.0674 -0.887047 0
M  V30 6711 H 609.429 3.20794 -2.35237 0
M  V30 6712 H 606.168 3.8992 -5.26918 0
M  V30 6713 H 605.688 4.68371 -3.74685 0
M  V30 6714 H 607.367 4.8095 -4.32777 0
M  V30 6715 N 607.499 1.09233 1.13605 0
M  V30 6716 C 608.727 0.848908 1.88683 0
M  V30 6717 C 609.142 -0.599667 1.79024 0
M  V30 6718 O 608.499 -1.41265 1.15544 0
M  V30 6719 C 608.55 1.27273 3.38355 0
M  V30 6720 O 608.271 2.66449 3.47759 0
M  V30 6721 C 609.772 1.0614 4.30406 0
M  V30 6722 H 606.992 0.305549 0.597395 0
M  V30 6723 H 609.536 1.4538 1.43823 0
M  V30 6724 H 607.691 0.711776 3.80805 0
M  V30 6725 H 608.105 2.84264 4.40788 0
M  V30 6726 H 609.579 1.40725 5.33761 0
M  V30 6727 H 610.056 -0.000960332 4.392 0
M  V30 6728 H 610.662 1.60821 3.93722 0
M  V30 6729 N 608.977 -1.30795 0.87923 0
M  V30 6730 C 609.907 -2.30742 0.357796 0
M  V30 6731 C 610.888 -1.60747 -0.556283 0
M  V30 6732 O 612.073 -1.88393 -0.47135 0
M  V30 6733 C 609.203 -3.44583 -0.433555 0
M  V30 6734 C 608.157 -4.26235 0.388251 0
M  V30 6735 C 607.483 -5.32073 -0.529352 0
M  V30 6736 C 608.783 -4.96303 1.62729 0
M  V30 6737 H 610.477 -2.74605 1.19299 0
M  V30 6738 H 608.023 -1.32017 0.575104 0
M  V30 6739 H 609.976 -4.13563 -0.808934 0
M  V30 6740 H 608.7 -2.99511 -1.30234 0
M  V30 6741 H 607.359 -3.58936 0.745695 0
M  V30 6742 H 607.007 -4.83249 -1.39569 0
M  V30 6743 H 606.707 -5.87598 0.0166741 0
M  V30 6744 H 608.231 -6.0391 -0.901373 0
M  V30 6745 H 609.645 -5.5783 1.32283 0
M  V30 6746 H 608.042 -5.61666 2.11309 0
M  V30 6747 H 609.112 -4.22758 2.37494 0
M  V30 6748 N 610.455 -0.639598 -1.44038 0
M  V30 6749 C 611.418 0.0506628 -2.29144 0
M  V30 6750 C 612.418 0.764001 -1.41491 0
M  V30 6751 O 613.608 0.607309 -1.63271 0
M  V30 6752 C 610.74 1.0824 -3.2326 0
M  V30 6753 H 611.933 -0.697987 -2.91664 0
M  V30 6754 H 609.486 -0.400146 -1.51091 0
M  V30 6755 H 610.221 1.86075 -2.65606 0
M  V30 6756 H 610.006 0.574725 -3.87865 0
M  V30 6757 H 611.496 1.56487 -3.87171 0
M  V30 6758 N 611.933 1.52934 -0.380664 0
M  V30 6759 C 612.883 2.22989 0.475399 0
M  V30 6760 C 613.867 1.23058 1.03661 0
M  V30 6761 O 615.059 1.48436 0.964146 0
M  V30 6762 C 612.188 3.0338 1.60671 0
M  V30 6763 C 611.274 4.107 1.05766 0
M  V30 6764 N 611.665 5.05264 0.232837 0
M  V30 6765 C 609.963 4.25676 1.33101 0
M  V30 6766 C 610.664 5.81658 -0.0695134 0
M  V30 6767 N 609.64 5.40989 0.532144 0
M  V30 6768 H 613.442 2.93456 -0.161418 0
M  V30 6769 H 610.956 1.61291 -0.189495 0
M  V30 6770 H 612.953 3.52098 2.23232 0
M  V30 6771 H 611.613 2.34446 2.24644 0
M  V30 6772 H 612.624 5.17739 -0.129204 0
M  V30 6773 H 609.301 3.6797 1.97241 0
M  V30 6774 H 610.691 6.67843 -0.737269 0
M  V30 6775 N 613.412 0.11024 1.57214 0
M  V30 6776 C 614.658 -0.550684 1.9518 0
M  V30 6777 C 614.991 -1.66885 0.993122 0
M  V30 6778 O 614.266 -1.94479 0.0287907 0
M  V30 6779 C 614.549 -1.09163 3.43155 0
M  V30 6780 C 614.402 0.0225198 4.49794 0
M  V30 6781 C 615.721 -1.98527 3.92778 0
M  V30 6782 H 612.84 -0.198706 0.709708 0
M  V30 6783 H 615.482 0.184024 1.89107 0
M  V30 6784 H 613.632 -1.71775 3.48462 0
M  V30 6785 H 615.304 0.657443 4.56591 0
M  V30 6786 H 613.547 0.686868 4.28328 0
M  V30 6787 H 614.218 -0.39706 5.5057 0
M  V30 6788 H 616.694 -1.458 3.8972 0
M  V30 6789 H 615.57 -2.33298 4.96853 0
M  V30 6790 H 615.831 -2.90846 3.32958 0
M  V30 6791 N 614.89 -1.56749 -0.16351 0
M  V30 6792 C 615.838 -1.97939 -1.22159 0
M  V30 6793 C 616.832 -0.869288 -1.45395 0
M  V30 6794 O 618.038 -1.05443 -1.45883 0
M  V30 6795 H 614.413 -0.629869 -0.410815 0
M  V30 6796 H 616.384 -2.86115 -0.847381 0
M  V30 6797 C 615.133 -2.36206 -2.55151 0
M  V30 6798 H 614.456 -3.2117 -2.38097 0
M  V30 6799 H 615.896 -2.68863 -3.27854 0
M  V30 6800 C 614.355 -1.20841 -3.14482 0
M  V30 6801 O 614.885 -0.500258 -3.98573 0
M  V30 6802 N 613.091 -0.976943 -2.73686 0
M  V30 6803 H 612.638 -1.55457 -2.05404 0
M  V30 6804 H 612.596 -0.206912 -3.13718 0
M  V30 6805 N 616.368 0.432326 -1.51554 0
M  V30 6806 C 617.779 1.01202 -1.56892 0
M  V30 6807 C 618.13 1.92175 -0.395394 0
M  V30 6808 O 617.255 2.10844 0.487198 0
M  V30 6809 C 617.85 1.84217 -2.8434 0
M  V30 6810 C 616.409 2.37228 -2.92233 0
M  V30 6811 C 615.556 1.16576 -2.51606 0
M  V30 6812 H 618.507 0.213407 -1.57259 0
M  V30 6813 H 618.528 2.69721 -2.68385 0
M  V30 6814 H 618.04 1.17979 -3.69733 0
M  V30 6815 H 616.141 3.06905 -2.11282 0
M  V30 6816 H 616.254 2.69682 -3.95991 0
M  V30 6817 H 614.618 1.51263 -2.04919 0
M  V30 6818 H 615.401 0.519404 -3.39348 0
M  V30 6819 N 617.846 1.41785 0.688094 0
M  V30 6820 C 618.778 1.40159 1.81351 0
M  V30 6821 C 619.791 0.30262 1.59963 0
M  V30 6822 O 620.98 0.564841 1.69327 0
M  V30 6823 C 618.08 1.16517 3.1824 0
M  V30 6824 C 617.253 2.38597 3.66593 0
M  V30 6825 C 616.312 2.10699 4.82174 0
M  V30 6826 O 615.338 2.83798 4.93404 0
M  V30 6827 N 616.54 1.10187 5.69947 0
M  V30 6828 H 619.305 2.3716 1.83236 0
M  V30 6829 H 616.866 1.36494 0.870697 0
M  V30 6830 H 618.858 0.957941 3.93199 0
M  V30 6831 H 617.428 0.280873 3.11336 0
M  V30 6832 H 616.648 2.74974 2.82459 0
M  V30 6833 H 617.936 3.19919 3.95638 0
M  V30 6834 H 617.334 0.497016 5.63512 0
M  V30 6835 H 615.891 0.954518 6.44773 0
M  V30 6836 N 619.324 -0.923095 1.27737 0
M  V30 6837 C 620.549 -1.71054 1.17283 0
M  V30 6838 C 620.974 -1.86208 -0.266153 0
M  V30 6839 O 620.332 -1.36545 -1.1927 0
M  V30 6840 C 620.38 -3.0854 1.86642 0
M  V30 6841 O 619.484 -3.95528 1.16752 0
M  V30 6842 H 618.825 -0.524136 0.407649 0
M  V30 6843 H 621.355 -1.15487 1.6889 0
M  V30 6844 H 621.365 -3.58828 1.94182 0
M  V30 6845 H 620.04 -2.96828 2.91317 0
M  V30 6846 H 618.617 -3.53967 1.17312 0
M  V30 6847 N 620.802 -1.09834 -1.13024 0
M  V30 6848 C 622.049 -0.83695 -1.84395 0
M  V30 6849 C 622.377 0.637463 -1.83757 0
M  V30 6850 O 621.632 1.48554 -1.27398 0
M  V30 6851 C 621.931 -1.32263 -3.32026 0
M  V30 6852 C 621.597 -2.80739 -3.52841 0
M  V30 6853 C 620.259 -3.21286 -3.5823 0
M  V30 6854 C 622.611 -3.76449 -3.60466 0
M  V30 6855 C 619.939 -4.56308 -3.68781 0
M  V30 6856 C 622.291 -5.11266 -3.72546 0
M  V30 6857 C 620.955 -5.51397 -3.76189 0
M  V30 6858 H 620.225 -0.306262 -0.674748 0
M  V30 6859 H 622.872 -1.37385 -1.33408 0
M  V30 6860 H 621.177 -0.705618 -3.85394 0
M  V30 6861 H 622.874 -1.09695 -3.85705 0
M  V30 6862 H 619.464 -2.48363 -3.49305 0
M  V30 6863 H 623.648 -3.46234 -3.55578 0
M  V30 6864 H 618.904 -4.86832 -3.69871 0
M  V30 6865 H 623.078 -5.85279 -3.77388 0
M  V30 6866 H 620.705 -6.56017 -3.84117 0
M  V30 6867 N 622.28 1.30327 -0.886154 0
M  V30 6868 C 623.691 1.78243 -0.555554 0
M  V30 6869 C 624.042 1.72849 0.928314 0
M  V30 6870 O 623.167 1.30607 1.72542 0
M  V30 6871 C 623.762 3.23654 -1.00168 0
M  V30 6872 C 622.321 3.69401 -0.722471 0
M  V30 6873 C 621.468 2.50753 -1.18399 0
M  V30 6874 H 624.419 1.1718 -1.07026 0
M  V30 6875 H 624.44 3.79056 -0.331152 0
M  V30 6876 H 623.952 3.27548 -2.08169 0
M  V30 6877 H 622.053 3.70995 0.345496 0
M  V30 6878 H 622.166 4.60818 -1.31085 0
M  V30 6879 H 620.53 2.47452 -0.603303 0
M  V30 6880 H 621.313 2.57383 -2.27176 0
M  V30 6881 N 623.758 0.647228 1.43697 0
M  V30 6882 C 624.721 -0.0385101 2.29168 0
M  V30 6883 C 625.721 -0.756487 1.41894 0
M  V30 6884 O 626.911 -0.598641 1.63591 0
M  V30 6885 C 624.043 -1.06524 3.23829 0
M  V30 6886 H 625.236 0.713445 2.9129 0
M  V30 6887 H 622.789 0.408153 1.50877 0
M  V30 6888 H 623.524 -1.84664 2.66589 0
M  V30 6889 H 623.309 -0.554147 3.88164 0
M  V30 6890 H 624.799 -1.54432 3.87996 0
M  V30 6891 N 625.236 -1.5273 0.388769 0
M  V30 6892 C 626.647 -1.86505 -0.0853788 0
M  V30 6893 C 626.998 -1.30847 -1.46197 0
M  V30 6894 O 626.123 -0.639609 -2.06732 0
M  V30 6895 C 626.718 -3.38414 -0.161703 0
M  V30 6896 C 625.277 -3.71902 -0.580144 0
M  V30 6897 C 624.424 -2.76095 0.258218 0
M  V30 6898 H 627.375 -1.46647 0.606665 0
M  V30 6899 H 627.396 -3.67638 -0.980936 0
M  V30 6900 H 626.908 -3.78893 0.840333 0
M  V30 6901 H 625.009 -3.36992 -1.58957 0
M  V30 6902 H 625.122 -4.77902 -0.338663 0
M  V30 6903 H 623.486 -2.53195 -0.276432 0
M  V30 6904 H 624.269 -3.19411 1.25822 0
M  V30 6905 N 626.714 -0.118576 -1.57153 0
M  V30 6906 C 627.661 0.831789 -2.1529 0
M  V30 6907 C 628.631 1.26385 -1.07778 0
M  V30 6908 O 629.816 1.34144 -1.35684 0
M  V30 6909 C 626.956 2.07664 -2.75626 0
M  V30 6910 C 626.069 1.69298 -3.97444 0
M  V30 6911 C 625.204 2.88747 -4.45868 0
M  V30 6912 C 624.243 2.46619 -5.60219 0
M  V30 6913 N 623.38 3.5898 -6.03389 0
M  V30 6914 H 628.22 0.329183 -2.96176 0
M  V30 6915 H 625.757 0.150792 -1.46325 0
M  V30 6916 H 627.715 2.80601 -3.08738 0
M  V30 6917 H 626.345 2.55384 -1.97431 0
M  V30 6918 H 625.397 0.862374 -3.70496 0
M  V30 6919 H 626.709 1.34338 -4.80369 0
M  V30 6920 H 625.863 3.69909 -4.80887 0
M  V30 6921 H 624.602 3.26933 -3.61892 0
M  V30 6922 H 623.607 1.63889 -5.24805 0
M  V30 6923 H 624.832 2.0955 -6.45961 0
M  V30 6924 H 622.778 3.9684 -5.22354 0
M  V30 6925 H 622.695 3.27942 -6.81168 0
M  V30 6926 H 623.963 4.40583 -6.43045 0
M  V30 6927 N 628.193 1.56834 0.155195 0
M  V30 6928 C 629.103 2.009 1.21146 0
M  V30 6929 C 630.119 0.923029 1.475 0
M  V30 6930 O 631.295 1.23189 1.59331 0
M  V30 6931 C 628.36 2.37378 2.52691 0
M  V30 6932 C 627.421 3.59883 2.34057 0
M  V30 6933 C 626.654 3.94612 3.59329 0
M  V30 6934 O 626.877 3.30104 4.65175 0
M  V30 6935 O 625.811 4.87895 3.52479 0
M  V30 6936 H 629.637 2.9105 0.867371 0
M  V30 6937 H 627.222 1.44916 0.363298 0
M  V30 6938 H 629.104 2.61737 3.3026 0
M  V30 6939 H 627.779 1.50385 2.86646 0
M  V30 6940 H 626.686 3.40722 1.54465 0
M  V30 6941 H 628.019 4.47468 2.0502 0
M  V30 6942 N 629.671 -0.424282 1.51781 0
M  V30 6943 C 630.619 -1.53649 1.74628 0
M  V30 6944 C 631.613 -1.57923 0.612922 0
M  V30 6945 O 632.819 -1.61511 0.794618 0
M  V30 6946 H 629.194 -0.510706 0.551981 0
M  V30 6947 H 631.165 -1.31558 2.67834 0
M  V30 6948 C 629.914 -2.91177 1.9003 0
M  V30 6949 H 629.237 -2.88625 2.76651 0
M  V30 6950 H 630.677 -3.6833 2.10021 0
M  V30 6951 C 629.136 -3.30303 0.663435 0
M  V30 6952 O 629.666 -4.01315 -0.175812 0
M  V30 6953 N 627.872 -2.86201 0.503723 0
M  V30 6954 H 627.419 -2.28583 1.18776 0
M  V30 6955 H 627.377 -3.12741 -0.322575 0
M  V30 6956 N 631.149 -1.42148 -0.680565 0
M  V30 6957 C 632.56 -1.3768 -1.26099 0
M  V30 6958 C 632.911 -0.0672348 -1.96085 0
M  V30 6959 O 632.036 0.834172 -1.99676 0
M  V30 6960 C 632.631 -2.49387 -2.29328 0
M  V30 6961 C 631.19 -2.4827 -2.82911 0
M  V30 6962 C 630.337 -2.2847 -1.57152 0
M  V30 6963 H 633.288 -1.51446 -0.474326 0
M  V30 6964 H 633.309 -2.19307 -3.10941 0
M  V30 6965 H 632.821 -3.44686 -1.78363 0
M  V30 6966 H 630.922 -1.56773 -3.38013 0
M  V30 6967 H 631.035 -3.45109 -3.3232 0
M  V30 6968 H 629.399 -1.76623 -1.83511 0
M  V30 6969 H 630.182 -3.25816 -1.0816 0
M  V30 6970 N 632.627 0.916307 -1.28225 0
M  V30 6971 C 633.904 1.64429 -1.05936 0
M  V30 6972 C 634.284 2.07234 0.402139 0
M  V30 6973 O 633.632 1.81535 1.3877 0
M  V30 6974 C 633.842 2.83773 -2.03159 0
M  V30 6975 C 635.19 3.54852 -2.33164 0
M  V30 6976 O 636.214 2.93918 -2.01223 0
M  V30 6977 O 635.073 4.64663 -2.87664 0
M  V30 6978 H 632.167 0.721221 -0.404683 0
M  V30 6979 H 634.713 0.965838 -1.39534 0
M  V30 6980 H 633.485 2.49217 -3.01673 0
M  V30 6981 H 633.108 3.59333 -1.70192 0
M  V30 6982 N 634.105 1.10431 1.1244 0
M  V30 6983 C 635.052 0.753103 2.18167 0
M  V30 6984 C 636.022 -0.270549 1.63882 0
M  V30 6985 O 637.207 -0.149837 1.90211 0
M  V30 6986 C 634.347 0.191046 3.44571 0
M  V30 6987 C 633.46 1.26999 4.12911 0
M  V30 6988 C 632.595 0.669586 5.26963 0
M  V30 6989 C 631.634 1.72912 5.87169 0
M  V30 6990 N 630.771 1.14898 6.92635 0
M  V30 6991 H 635.611 1.65892 2.47556 0
M  V30 6992 H 633.148 0.828631 1.21541 0
M  V30 6993 H 635.106 -0.152712 4.1692 0
M  V30 6994 H 633.736 -0.677997 3.15599 0
M  V30 6995 H 632.788 1.73087 3.3874 0
M  V30 6996 H 634.1 2.07204 4.53727 0
M  V30 6997 H 633.254 0.275274 6.06075 0
M  V30 6998 H 631.993 -0.163895 4.87425 0
M  V30 6999 H 630.998 2.13286 5.06744 0
M  V30 7000 H 632.223 2.56544 6.28778 0
M  V30 7001 H 630.169 0.336956 6.55134 0
M  V30 7002 H 630.086 1.88786 7.32049 0
M  V30 7003 H 631.354 0.78121 7.75576 0
M  V30 7004 N 635.583 -1.29855 0.893053 0
M  V30 7005 C 636.493 -2.31661 0.370157 0
M  V30 7006 C 637.509 -1.65677 -0.531723 0
M  V30 7007 O 638.685 -1.9691 -0.422902 0
M  V30 7008 C 635.75 -3.44388 -0.399741 0
M  V30 7009 C 634.811 -4.2598 0.532861 0
M  V30 7010 C 634.044 -5.33324 -0.200388 0
M  V30 7011 O 634.267 -5.52305 -1.42531 0
M  V30 7012 O 633.201 -6.00188 0.453668 0
M  V30 7013 H 637.027 -2.78354 1.2146 0
M  V30 7014 H 634.612 -1.34171 0.657153 0
M  V30 7015 H 636.494 -4.13037 -0.835358 0
M  V30 7016 H 635.169 -2.99815 -1.22035 0
M  V30 7017 H 634.076 -3.59998 1.01746 0
M  V30 7018 H 635.409 -4.74178 1.3197 0
M  V30 7019 N 637.061 -0.65484 -1.43351 0
M  V30 7020 C 637.971 0.0363603 -2.34572 0
M  V30 7021 C 638.987 0.810432 -1.53974 0
M  V30 7022 O 640.163 0.757308 -1.86619 0
M  V30 7023 C 637.228 0.989733 -3.32273 0
M  V30 7024 C 636.289 0.212414 -4.28774 0
M  V30 7025 C 635.522 1.12038 -5.21808 0
M  V30 7026 O 635.745 2.35967 -5.19303 0
M  V30 7027 O 634.679 0.59191 -5.98982 0
M  V30 7028 H 638.505 -0.714527 -2.95175 0
M  V30 7029 H 636.09 -0.415029 -1.4352 0
M  V30 7030 H 637.972 1.53759 -3.92347 0
M  V30 7031 H 636.647 1.72082 -2.74171 0
M  V30 7032 H 635.554 -0.379062 -3.72175 0
M  V30 7033 H 636.887 -0.479138 -4.89862 0
M  V30 7034 N 638.539 1.52521 -0.396863 0
M  V30 7035 C 639.786 2.01672 0.182898 0
M  V30 7036 C 640.114 1.28302 1.46181 0
M  V30 7037 O 639.369 0.374118 1.92091 0
M  V30 7038 C 639.668 3.5403 0.489677 0
M  V30 7039 C 639.334 4.45456 -0.698581 0
M  V30 7040 C 637.996 4.70166 -1.02454 0
M  V30 7041 C 640.348 4.99354 -1.49316 0
M  V30 7042 C 637.676 5.46024 -2.1465 0
M  V30 7043 C 640.028 5.76439 -2.60579 0
M  V30 7044 C 638.692 5.99426 -2.93675 0
M  V30 7045 H 637.962 0.737971 0.066927 0
M  V30 7046 H 640.609 1.83853 -0.535764 0
M  V30 7047 H 638.914 3.69963 1.28976 0
M  V30 7048 H 640.611 3.8956 0.951018 0
M  V30 7049 H 637.201 4.26392 -0.434525 0
M  V30 7050 H 641.385 4.80182 -1.25457 0
M  V30 7051 H 636.641 5.62046 -2.40654 0
M  V30 7052 H 640.815 6.17202 -3.22544 0
M  V30 7053 H 638.442 6.57988 -3.80731 0
M  V30 7054 N 640.017 0.126909 1.57088 0
M  V30 7055 C 641.433 -0.229641 1.57939 0
M  V30 7056 C 641.633 -1.66145 1.1401 0
M  V30 7057 O 640.689 -2.3843 0.831119 0
M  V30 7058 C 642.002 0.0108648 3.00698 0
M  V30 7059 C 643.55 -0.054418 3.12953 0
M  V30 7060 C 644.025 0.158497 4.57726 0
M  V30 7061 N 645.516 0.104735 4.63082 0
M  V30 7062 C 646.251 0.24427 5.72879 0
M  V30 7063 N 645.747 0.440415 6.91399 0
M  V30 7064 N 647.54 0.183286 5.61801 0
M  V30 7065 H 639.691 1.06203 1.83942 0
M  V30 7066 H 641.954 0.418834 0.85046 0
M  V30 7067 H 641.66 1.00102 3.37154 0
M  V30 7068 H 641.534 -0.717512 3.70313 0
M  V30 7069 H 643.921 -1.0351 2.7635 0
M  V30 7070 H 644.002 0.705967 2.45865 0
M  V30 7071 H 643.646 1.13619 4.95028 0
M  V30 7072 H 643.576 -0.62197 5.22914 0
M  V30 7073 H 646.067 -0.0430298 3.77876 0
M  V30 7074 H 646.38 0.537536 7.70928 0
M  V30 7075 H 644.725 0.476488 6.93365 0
M  V30 7076 H 647.916 0.0309561 4.6809 0
M  V30 7077 H 648.089 0.295471 6.47326 0
M  V30 7078 N 641.495 -1.56914 -0.146875 0
M  V30 7079 C 642.723 -1.87515 -0.874394 0
M  V30 7080 C 643.138 -0.715116 -1.74733 0
M  V30 7081 O 642.495 0.315113 -1.79759 0
M  V30 7082 C 642.546 -3.17362 -1.731 0
M  V30 7083 O 642.267 -4.28897 -0.893245 0
M  V30 7084 C 643.768 -3.61479 -2.56609 0
M  V30 7085 H 640.988 -0.621546 -0.252827 0
M  V30 7086 H 643.532 -2.04023 -0.139627 0
M  V30 7087 H 641.687 -3.02608 -2.41883 0
M  V30 7088 H 642.101 -5.03146 -1.48137 0
M  V30 7089 H 643.575 -4.5517 -3.12289 0
M  V30 7090 H 644.052 -2.86773 -3.32653 0
M  V30 7091 H 644.658 -3.78927 -1.93117 0
M  V30 7092 N 642.974 0.416227 -1.52004 0
M  V30 7093 C 643.907 1.52736 -1.6955 0
M  V30 7094 C 644.885 1.53264 -0.54305 0
M  V30 7095 O 646.069 1.72077 -0.769527 0
M  V30 7096 C 643.196 2.91283 -1.72835 0
M  V30 7097 C 642.242 3.08695 -2.94295 0
M  V30 7098 S 643.075 2.82758 -4.54762 0
M  V30 7099 C 644.231 4.23548 -4.60823 0
M  V30 7100 H 644.464 1.37623 -2.63528 0
M  V30 7101 H 641.997 0.607335 -1.41954 0
M  V30 7102 H 643.955 3.71134 -1.75413 0
M  V30 7103 H 642.616 3.03742 -0.799966 0
M  V30 7104 H 641.809 4.10042 -2.93056 0
M  V30 7105 H 641.411 2.36699 -2.89568 0
M  V30 7106 H 643.703 5.17078 -4.37763 0
M  V30 7107 H 644.646 4.29813 -5.62731 0
M  V30 7108 H 645.054 4.08188 -3.89927 0
M  V30 7109 N 644.452 1.42507 0.673017 0
M  V30 7110 C 645.698 1.44282 1.43367 0
M  V30 7111 C 646.053 0.0588239 1.9231 0
M  V30 7112 O 645.346 -0.919288 1.68106 0
M  V30 7113 C 645.54 2.40351 2.64511 0
M  V30 7114 C 645.369 3.87955 2.27423 0
M  V30 7115 C 644.139 4.56476 2.16697 0
M  V30 7116 C 646.337 4.7833 1.88957 0
M  V30 7117 N 644.319 5.89099 1.72731 0
M  V30 7118 C 645.69 6.00073 1.55923 0
M  V30 7119 C 647.745 4.65769 1.75965 0
M  V30 7120 C 646.448 7.10652 1.112 0
M  V30 7121 C 648.474 5.76332 1.32647 0
M  V30 7122 C 647.836 6.97188 1.00538 0
M  V30 7123 H 643.935 0.583134 0.521036 0
M  V30 7124 H 646.519 1.78547 0.776481 0
M  V30 7125 H 644.69 2.08145 3.27918 0
M  V30 7126 H 646.422 2.32694 3.31113 0
M  V30 7127 H 643.177 4.10712 2.35823 0
M  V30 7128 H 643.601 6.59446 1.53166 0
M  V30 7129 H 648.243 3.72808 1.99435 0
M  V30 7130 H 645.961 8.0346 0.864768 0
M  V30 7131 H 649.547 5.68625 1.23112 0
M  V30 7132 H 648.427 7.81287 0.675283 0
M  V30 7133 N 645.93 -0.909495 1.28709 0
M  V30 7134 C 647.176 -1.66151 1.16283 0
M  V30 7135 C 647.509 -1.92067 -0.287069 0
M  V30 7136 O 646.784 -1.52409 -1.20837 0
M  V30 7137 C 647.067 -3.01676 1.9663 0
M  V30 7138 C 646.92 -2.82888 3.49707 0
M  V30 7139 C 648.239 -4.02274 1.78504 0
M  V30 7140 H 645.358 -0.602966 0.423793 0
M  V30 7141 H 648 -1.05418 1.58073 0
M  V30 7142 H 646.15 -3.53515 1.61119 0
M  V30 7143 H 647.822 -2.38026 3.95147 0
M  V30 7144 H 646.065 -2.17862 3.75125 0
M  V30 7145 H 646.736 -3.79147 4.01187 0
M  V30 7146 H 649.212 -3.59511 2.09503 0
M  V30 7147 H 648.088 -4.95056 2.37088 0
M  V30 7148 H 648.349 -4.35903 0.737647 0
M  V30 7149 N 647.408 -1.11026 -1.11852 0
M  V30 7150 C 648.657 -0.851249 -1.82857 0
M  V30 7151 C 648.97 0.62514 -1.85341 0
M  V30 7152 O 650.176 1.00026 -2.52403 0
M  V30 7153 C 648.632 -1.47309 -3.28372 0
M  V30 7154 C 648.24 -2.9832 -3.34229 0
M  V30 7155 C 649.984 -1.29373 -4.04306 0
M  V30 7156 C 647.891 -3.53509 -4.74115 0
M  V30 7157 H 646.821 -0.314794 -0.685143 0
M  V30 7158 H 649.472 -1.33499 -1.25898 0
M  V30 7159 H 647.854 -0.917017 -3.85236 0
M  V30 7160 H 649.028 -3.60295 -2.87271 0
M  V30 7161 H 647.343 -3.15482 -2.71772 0
M  V30 7162 H 649.94 -1.68042 -5.07608 0
M  V30 7163 H 650.283 -0.235879 -4.15631 0
M  V30 7164 H 650.816 -1.8182 -3.53817 0
M  V30 7165 H 647.555 -4.58987 -4.67986 0
M  V30 7166 H 647.075 -2.96305 -5.21501 0
M  V30 7167 H 648.754 -3.51693 -5.43066 0
M  V30 7168 N 648.886 1.2938 -0.899927 0
M  V30 7169 C 650.134 1.95164 -0.524924 0
M  V30 7170 C 650.455 1.71292 0.931888 0
M  V30 7171 O 649.725 1.04481 1.65712 0
M  V30 7172 H 648.305 0.722133 -0.191135 0
M  V30 7173 H 650.967 1.57628 -1.14627 0
M  V30 7174 H 650.063 3.0397 -0.707711 0
M  V30 7175 N 650.364 0.662433 1.43002 0
M  V30 7176 C 651.294 -0.00979809 2.33498 0
M  V30 7177 C 652.275 -0.802329 1.49989 0
M  V30 7178 O 653.46 -0.761964 1.78627 0
M  V30 7179 C 650.59 -0.970446 3.33466 0
M  V30 7180 C 649.544 -0.287383 4.27034 0
M  V30 7181 C 648.87 -1.36012 5.17112 0
M  V30 7182 C 650.17 0.82595 5.15728 0
M  V30 7183 H 651.864 0.745959 2.89958 0
M  V30 7184 H 649.41 0.360172 1.39423 0
M  V30 7185 H 651.363 -1.44971 3.95679 0
M  V30 7186 H 650.087 -1.75748 2.75282 0
M  V30 7187 H 648.746 0.17152 3.66199 0
M  V30 7188 H 648.394 -2.13882 4.55262 0
M  V30 7189 H 648.094 -0.908276 5.80538 0
M  V30 7190 H 649.618 -1.84056 5.82199 0
M  V30 7191 H 651.032 0.42845 5.71697 0
M  V30 7192 H 649.429 1.20282 5.87922 0
M  V30 7193 H 650.499 1.68003 4.54866 0
M  V30 7194 N 651.842 -1.52309 0.404946 0
M  V30 7195 C 653.088 -2.02065 -0.172455 0
M  V30 7196 C 653.421 -1.29022 -1.45145 0
M  V30 7197 O 652.696 -0.395284 -1.90441 0
M  V30 7198 C 652.979 -3.5759 -0.424433 0
M  V30 7199 C 652.832 -4.41287 0.870945 0
M  V30 7200 C 654.151 -4.23186 -1.20837 0
M  V30 7201 H 651.27 -0.734454 -0.0612035 0
M  V30 7202 H 653.912 -1.82236 0.53759 0
M  V30 7203 H 652.062 -3.74617 -1.02929 0
M  V30 7204 H 653.734 -4.3598 1.50729 0
M  V30 7205 H 651.977 -4.07669 1.48284 0
M  V30 7206 H 652.648 -5.48171 0.649083 0
M  V30 7207 H 655.124 -4.10232 -0.696338 0
M  V30 7208 H 654 -5.31953 -1.35343 0
M  V30 7209 H 654.261 -3.81862 -2.22786 0
M  V30 7210 N 653.32 -0.135238 -1.57019 0
M  V30 7211 C 654.567 0.518794 -1.95742 0
M  V30 7212 C 654.895 1.65642 -1.01947 0
M  V30 7213 O 654.15 1.95645 -0.0464016 0
M  V30 7214 C 654.449 1.07694 -3.40788 0
M  V30 7215 C 654.115 0.058992 -4.50861 0
M  V30 7216 C 652.777 -0.220872 -4.80693 0
M  V30 7217 C 655.129 -0.633856 -5.17331 0
M  V30 7218 C 652.457 -1.19959 -5.74305 0
M  V30 7219 C 654.809 -1.60131 -6.11997 0
M  V30 7220 C 653.473 -1.889 -6.40213 0
M  V30 7221 H 652.743 0.18984 -0.716269 0
M  V30 7222 H 655.39 -0.219581 -1.90237 0
M  V30 7223 H 653.695 1.89241 -3.43067 0
M  V30 7224 H 655.392 1.59137 -3.68071 0
M  V30 7225 H 651.982 0.287304 -4.27636 0
M  V30 7226 H 656.166 -0.430823 -4.94427 0
M  V30 7227 H 651.422 -1.42905 -5.94465 0
M  V30 7228 H 655.596 -2.14376 -6.62583 0
M  V30 7229 H 653.223 -2.64891 -7.12556 0
M  V30 7230 N 654.798 1.5699 0.138552 0
M  V30 7231 C 655.745 1.98899 1.17081 0
M  V30 7232 C 656.715 0.857922 1.42228 0
M  V30 7233 O 657.9 1.12065 1.54422 0
M  V30 7234 C 655.04 2.38189 2.4972 0
M  V30 7235 C 654.153 3.64624 2.31674 0
M  V30 7236 C 653.288 3.9298 3.57407 0
M  V30 7237 C 652.327 5.1266 3.34435 0
M  V30 7238 N 651.464 5.36983 4.5232 0
M  V30 7239 H 656.304 2.86881 0.80642 0
M  V30 7240 H 653.841 1.41925 0.386727 0
M  V30 7241 H 655.799 2.59 3.2707 0
M  V30 7242 H 654.429 1.53275 2.84089 0
M  V30 7243 H 653.481 3.51542 1.45337 0
M  V30 7244 H 654.793 4.52131 2.10664 0
M  V30 7245 H 653.947 4.14335 4.43183 0
M  V30 7246 H 652.686 3.03912 3.8143 0
M  V30 7247 H 651.691 4.9117 2.47048 0
M  V30 7248 H 652.916 6.03288 3.11802 0
M  V30 7249 H 650.862 4.50871 4.76499 0
M  V30 7250 H 650.779 6.18775 4.34343 0
M  V30 7251 H 652.047 5.62842 5.39285 0
M  V30 7252 N 656.276 -0.40816 1.52223 0
M  V30 7253 C 657.223 -1.49737 1.75635 0
M  V30 7254 C 658.193 -1.5493 0.598824 0
M  V30 7255 O 659.378 -1.71487 0.83648 0
M  V30 7256 C 656.518 -2.87174 1.91376 0
M  V30 7257 C 655.631 -2.91283 3.19027 0
M  V30 7258 C 654.766 -4.20026 3.25195 0
M  V30 7259 C 653.805 -4.18113 4.47044 0
M  V30 7260 N 652.942 -5.38429 4.50598 0
M  V30 7261 H 657.782 -1.29075 2.68596 0
M  V30 7262 H 655.319 -0.626518 1.33091 0
M  V30 7263 H 657.277 -3.66959 1.98486 0
M  V30 7264 H 655.907 -3.06329 1.01795 0
M  V30 7265 H 654.959 -2.03984 3.21084 0
M  V30 7266 H 656.271 -2.85734 4.08849 0
M  V30 7267 H 655.425 -5.08204 3.31382 0
M  V30 7268 H 654.164 -4.28271 2.33313 0
M  V30 7269 H 653.169 -3.28325 4.41002 0
M  V30 7270 H 654.394 -4.11507 5.40221 0
M  V30 7271 H 652.34 -5.4734 3.616 0
M  V30 7272 H 652.257 -5.34879 5.34266 0
M  V30 7273 H 653.525 -6.28557 4.61016 0
M  V30 7274 N 657.755 -1.42862 -0.66545 0
M  V30 7275 C 658.983 -1.47246 -1.45349 0
M  V30 7276 C 659.398 -0.0865944 -1.88601 0
M  V30 7277 O 658.755 0.900652 -1.58728 0
M  V30 7278 C 658.806 -2.40772 -2.6965 0
M  V30 7279 O 658.527 -3.73968 -2.2821 0
M  V30 7280 C 660.028 -2.54272 -3.63126 0
M  V30 7281 H 657.248 -0.500497 -0.446927 0
M  V30 7282 H 659.792 -1.87477 -0.816871 0
M  V30 7283 H 657.947 -2.0377 -3.29479 0
M  V30 7284 H 658.361 -4.24146 -3.08546 0
M  V30 7285 H 659.835 -3.23815 -4.47043 0
M  V30 7286 H 660.312 -1.58364 -4.09656 0
M  V30 7287 H 660.918 -2.92036 -3.09185 0
M  V30 7288 N 659.233 0.902656 -1.29189 0
M  V30 7289 C 660.143 2.03946 -1.15944 0
M  V30 7290 C 661.159 1.738 -0.0833803 0
M  V30 7291 O 662.335 1.9923 -0.29487 0
M  V30 7292 C 659.4 3.36519 -0.834006 0
M  V30 7293 C 658.461 3.80203 -1.9936 0
M  V30 7294 C 657.694 5.06449 -1.68359 0
M  V30 7295 O 657.917 5.67202 -0.603141 0
M  V30 7296 O 656.851 5.46114 -2.53067 0
M  V30 7297 H 660.677 2.18043 -2.11403 0
M  V30 7298 H 658.262 1.02584 -1.08613 0
M  V30 7299 H 660.144 4.16089 -0.666949 0
M  V30 7300 H 658.819 3.23573 0.0908245 0
M  V30 7301 H 657.726 3.01413 -2.21588 0
M  V30 7302 H 659.059 3.97729 -2.89952 0
M  V30 7303 N 660.711 1.11618 1.11262 0
M  V30 7304 C 661.659 0.771291 2.1944 0
M  V30 7305 C 662.653 -0.238073 1.67719 0
M  V30 7306 O 663.859 -0.0971628 1.79738 0
M  V30 7307 H 660.234 0.231548 0.715465 0
M  V30 7308 H 662.205 1.69226 2.45775 0
M  V30 7309 C 660.954 0.232765 3.4692 0
M  V30 7310 H 660.277 1.00072 3.87073 0
M  V30 7311 H 661.717 0.0296561 4.2399 0
M  V30 7312 C 660.176 -1.03738 3.20531 0
M  V30 7313 O 660.706 -2.11675 3.41404 0
M  V30 7314 N 658.912 -0.960906 2.74253 0
M  V30 7315 H 658.459 -0.0824323 2.57468 0
M  V30 7316 H 658.417 -1.8114 2.56974 0
M  V30 7317 N 662.189 -1.289 0.906776 0
M  V30 7318 C 663.414 -1.99939 0.551303 0
M  V30 7319 C 663.839 -1.67366 -0.858496 0
M  V30 7320 O 663.197 -0.902176 -1.57259 0
M  V30 7321 C 663.245 -3.52523 0.758937 0
M  V30 7322 O 662.349 -4.11983 -0.185308 0
M  V30 7323 H 661.69 -0.628376 0.214568 0
M  V30 7324 H 664.22 -1.64225 1.2203 0
M  V30 7325 H 664.23 -4.02522 0.666329 0
M  V30 7326 H 662.905 -3.75566 1.78671 0
M  V30 7327 H 661.482 -3.72873 -0.0445577 0
M  V30 7328 N 663.667 -0.670007 -1.42649 0
M  V30 7329 C 664.577 0.0114788 -2.34597 0
M  V30 7330 C 665.593 0.794055 -1.54825 0
M  V30 7331 O 666.769 0.737472 -1.87412 0
M  V30 7332 C 663.834 0.954436 -3.33304 0
M  V30 7333 C 662.895 0.166925 -4.28975 0
M  V30 7334 C 662.128 1.06497 -5.22967 0
M  V30 7335 O 662.351 2.30446 -5.21777 0
M  V30 7336 O 661.285 0.528347 -5.99577 0
M  V30 7337 H 665.111 -0.745794 -2.944 0
M  V30 7338 H 662.696 -0.430228 -1.43071 0
M  V30 7339 H 664.578 1.49589 -3.93956 0
M  V30 7340 H 663.253 1.69164 -2.7598 0
M  V30 7341 H 662.16 -0.418515 -3.71752 0
M  V30 7342 H 663.493 -0.531067 -4.89327 0
M  V30 7343 N 665.145 1.52092 -0.413018 0
M  V30 7344 C 666.093 2.28681 0.425199 0
M  V30 7345 C 667.087 1.3353 1.04241 0
M  V30 7346 O 668.293 1.50973 0.980166 0
M  V30 7347 H 664.668 0.735661 0.155906 0
M  V30 7348 H 666.639 2.97418 -0.241926 0
M  V30 7349 C 665.388 3.1235 1.5275 0
M  V30 7350 H 664.711 3.85439 1.06191 0
M  V30 7351 H 666.151 3.69038 2.08774 0
M  V30 7352 C 664.61 2.26161 2.49706 0
M  V30 7353 O 665.14 1.90452 3.53682 0
M  V30 7354 N 663.346 1.89854 2.20008 0
M  V30 7355 H 662.893 2.19092 1.35486 0
M  V30 7356 H 662.851 1.3248 2.85125 0
M  V30 7357 N 666.623 0.143563 1.56945 0
M  V30 7358 C 667.553 -0.7936 2.196 0
M  V30 7359 C 668.534 -1.25955 1.14321 0
M  V30 7360 O 669.719 -1.31773 1.42651 0
M  V30 7361 C 666.849 -2.03424 2.81489 0
M  V30 7362 C 665.803 -1.70519 3.92565 0
M  V30 7363 C 665.129 -3.01817 4.41373 0
M  V30 7364 C 666.429 -0.95449 5.13504 0
M  V30 7365 H 668.123 -0.271423 2.98167 0
M  V30 7366 H 665.669 -0.12911 1.4342 0
M  V30 7367 H 667.622 -2.69463 3.23987 0
M  V30 7368 H 666.346 -2.58008 2.00248 0
M  V30 7369 H 665.005 -1.06859 3.5068 0
M  V30 7370 H 664.653 -3.54386 3.56959 0
M  V30 7371 H 664.353 -2.80565 5.16292 0
M  V30 7372 H 665.877 -3.68934 4.86539 0
M  V30 7373 H 667.291 -1.5169 5.52868 0
M  V30 7374 H 665.688 -0.842035 5.94163 0
M  V30 7375 H 666.758 0.0544033 4.84869 0
M  V30 7376 N 668.101 -1.57061 -0.130224 0
M  V30 7377 C 669.326 -1.88802 -0.858409 0
M  V30 7378 C 669.751 -0.734353 -1.73173 0
M  V30 7379 O 669.109 0.315529 -1.78533 0
M  V30 7380 C 669.157 -3.19228 -1.67708 0
M  V30 7381 O 668.261 -3.04343 -2.78297 0
M  V30 7382 H 667.602 -0.619849 -0.238083 0
M  V30 7383 H 670.132 -2.04271 -0.115995 0
M  V30 7384 H 670.142 -3.51669 -2.06864 0
M  V30 7385 H 668.817 -4.02793 -1.0359 0
M  V30 7386 H 667.394 -2.83346 -2.42425 0
M  V30 7387 N 669.579 0.400081 -1.52437 0
M  V30 7388 C 670.825 1.14788 -1.67187 0
M  V30 7389 C 671.158 1.89928 -0.405074 0
M  V30 7390 O 670.433 1.85118 0.596804 0
M  V30 7391 C 670.716 2.13507 -2.89977 0
M  V30 7392 C 670.569 1.42204 -4.2673 0
M  V30 7393 C 671.888 3.14069 -3.083 0
M  V30 7394 H 669.007 0.415939 -0.608411 0
M  V30 7395 H 671.649 0.432542 -1.85011 0
M  V30 7396 H 669.799 2.7451 -2.74912 0
M  V30 7397 H 671.471 0.842503 -4.53541 0
M  V30 7398 H 669.714 0.723939 -4.27717 0
M  V30 7399 H 670.385 2.14281 -5.08712 0
M  V30 7400 H 672.861 2.63148 -3.22323 0
M  V30 7401 H 671.737 3.80398 -3.95713 0
M  V30 7402 H 671.998 3.82309 -2.22018 0
M  V30 7403 N 671.057 1.43213 0.657864 0
M  V30 7404 C 672.334 1.35063 1.41483 0
M  V30 7405 C 672.714 -0.0038314 2.111 0
M  V30 7406 O 672.062 -1.02018 2.04462 0
M  V30 7407 C 672.272 2.53061 2.40335 0
M  V30 7408 C 673.62 2.9594 3.04474 0
M  V30 7409 O 674.644 2.53074 2.50663 0
M  V30 7410 O 673.503 3.70184 4.02027 0
M  V30 7411 H 670.597 0.533517 0.631893 0
M  V30 7412 H 673.143 1.55253 0.685162 0
M  V30 7413 H 671.915 3.43283 1.87809 0
M  V30 7414 H 671.538 2.34945 3.20759 0
M  V30 7415 N 672.536 -0.895792 1.29666 0
M  V30 7416 C 673.466 -2.01673 1.17688 0
M  V30 7417 C 674.447 -1.69955 0.0701317 0
M  V30 7418 O 675.632 -1.9258 0.250289 0
M  V30 7419 C 672.762 -3.36568 0.856681 0
M  V30 7420 C 671.716 -3.82509 1.92017 0
M  V30 7421 C 671.042 -5.14574 1.4532 0
M  V30 7422 C 672.342 -4.02409 3.32963 0
M  V30 7423 H 674.036 -2.11953 2.11463 0
M  V30 7424 H 671.582 -1.01839 1.01807 0
M  V30 7425 H 673.535 -4.14498 0.759577 0
M  V30 7426 H 672.259 -3.26391 -0.116763 0
M  V30 7427 H 670.918 -3.068 2.00673 0
M  V30 7428 H 670.566 -5.00815 0.468325 0
M  V30 7429 H 670.266 -5.46283 2.16447 0
M  V30 7430 H 671.79 -5.9504 1.36968 0
M  V30 7431 H 673.204 -4.70808 3.27127 0
M  V30 7432 H 671.601 -4.45478 4.02082 0
M  V30 7433 H 672.671 -3.06616 3.75652 0
M  V30 7434 N 674.014 -1.12206 -1.10668 0
M  V30 7435 C 675.242 -0.898635 -1.86366 0
M  V30 7436 C 675.657 0.551991 -1.80551 0
M  V30 7437 O 675.014 1.38152 -1.19249 0
M  V30 7438 C 675.065 -1.36199 -3.34861 0
M  V30 7439 O 674.786 -2.75576 -3.40573 0
M  V30 7440 C 676.287 -1.17515 -4.2744 0
M  V30 7441 H 673.507 -0.321281 -0.589084 0
M  V30 7442 H 676.051 -1.49142 -1.39918 0
M  V30 7443 H 674.206 -0.81249 -3.78784 0
M  V30 7444 H 674.62 -2.95851 -4.33096 0
M  V30 7445 H 676.094 -1.54827 -5.29842 0
M  V30 7446 H 676.571 -0.115486 -4.39048 0
M  V30 7447 H 677.177 -1.71203 -3.89319 0
M  V30 7448 N 675.492 1.28418 -0.913599 0
M  V30 7449 C 676.722 1.98817 -0.56172 0
M  V30 7450 C 677.13 1.68457 0.861321 0
M  V30 7451 O 676.473 0.933653 1.58204 0
M  V30 7452 C 676.535 3.52801 -0.690785 0
M  V30 7453 C 676.199 4.0675 -2.08334 0
M  V30 7454 C 677.196 4.20597 -3.05604 0
M  V30 7455 C 674.881 4.41445 -2.39648 0
M  V30 7456 C 676.875 4.68392 -4.32305 0
M  V30 7457 C 674.562 4.88934 -3.66588 0
M  V30 7458 C 675.56 5.02364 -4.6273 0
M  V30 7459 O 675.248 5.48817 -5.87414 0
M  V30 7460 H 674.98 0.641608 -0.212874 0
M  V30 7461 H 677.534 1.64584 -1.22887 0
M  V30 7462 H 675.764 3.86686 0.0334336 0
M  V30 7463 H 677.453 4.04422 -0.346031 0
M  V30 7464 H 678.219 3.94067 -2.8273 0
M  V30 7465 H 674.098 4.30242 -1.65567 0
M  V30 7466 H 677.642 4.7879 -5.07352 0
M  V30 7467 H 673.539 5.14904 -3.89287 0
M  V30 7468 H 674.307 5.67103 -5.90201 0
M  V30 7469 N 676.97 0.677563 1.42291 0
M  V30 7470 C 678.247 0.129803 1.95169 0
M  V30 7471 C 678.627 -1.35605 1.61786 0
M  V30 7472 O 677.975 -2.09361 0.915444 0
M  V30 7473 C 678.185 0.401889 3.46678 0
M  V30 7474 C 679.533 0.319889 4.23393 0
M  V30 7475 O 680.557 0.33579 3.54614 0
M  V30 7476 O 679.416 0.264459 5.4586 0
M  V30 7477 H 676.51 0.00447433 0.826988 0
M  V30 7478 H 679.056 0.752483 1.52105 0
M  V30 7479 H 677.828 1.43108 3.64192 0
M  V30 7480 H 677.451 -0.252662 3.96796 0
M  V30 7481 N 678.448 -1.51871 0.421078 0
M  V30 7482 C 679.697 -2.01125 -0.152206 0
M  V30 7483 C 680.01 -1.3106 -1.45199 0
M  V30 7484 O 681.216 -1.71195 -2.10724 0
M  V30 7485 C 679.672 -3.58458 -0.3218 0
M  V30 7486 C 679.28 -4.37448 0.96659 0
M  V30 7487 C 681.024 -4.15908 -0.84973 0
M  V30 7488 C 678.931 -5.86451 0.763529 0
M  V30 7489 H 677.861 -0.751556 -0.0606565 0
M  V30 7490 H 680.512 -1.75115 0.548354 0
M  V30 7491 H 678.894 -3.80847 -1.08498 0
M  V30 7492 H 680.068 -4.26814 1.73684 0
M  V30 7493 H 678.383 -3.91373 1.42183 0
M  V30 7494 H 680.98 -5.24922 -1.01788 0
M  V30 7495 H 681.323 -3.74031 -1.82774 0
M  V30 7496 H 681.856 -3.97535 -0.145297 0
M  V30 7497 H 678.595 -6.3271 1.71344 0
M  V30 7498 H 678.115 -5.99791 0.0327889 0
M  V30 7499 H 679.794 -6.45697 0.410354 0
M  V30 7500 N 679.926 -0.151884 -1.56866 0
M  V30 7501 C 680.858 0.817008 -2.14144 0
M  V30 7502 C 681.871 1.20735 -1.0921 0
M  V30 7503 O 683.06 1.15058 -1.36469 0
M  V30 7504 C 680.16 2.10844 -2.65326 0
M  V30 7505 C 679.333 1.88471 -3.94712 0
M  V30 7506 C 678.392 3.01649 -4.31155 0
M  V30 7507 O 677.418 2.73127 -4.9939 0
M  V30 7508 N 678.62 4.28947 -3.91132 0
M  V30 7509 H 681.385 0.327448 -2.97906 0
M  V30 7510 H 678.946 0.0315313 -1.61869 0
M  V30 7511 H 680.938 2.85616 -2.86715 0
M  V30 7512 H 679.508 2.51049 -1.86262 0
M  V30 7513 H 678.728 0.977088 -3.81899 0
M  V30 7514 H 680.016 1.70866 -4.79252 0
M  V30 7515 H 679.414 4.54986 -3.36161 0
M  V30 7516 H 677.971 5.00484 -4.17563 0
M  V30 7517 N 681.404 1.57128 0.121893 0
M  V30 7518 C 682.629 1.89254 0.848385 0
M  V30 7519 C 683.054 0.743527 1.72781 0
M  V30 7520 O 682.412 -0.306056 1.78698 0
M  V30 7521 C 682.46 3.20113 1.66012 0
M  V30 7522 O 681.564 3.05815 2.76679 0
M  V30 7523 H 680.905 0.621103 0.234793 0
M  V30 7524 H 683.435 2.0433 0.10516 0
M  V30 7525 H 683.445 3.52761 2.04996 0
M  V30 7526 H 682.12 4.03336 1.01452 0
M  V30 7527 H 680.697 2.84627 2.40918 0
M  V30 7528 N 682.882 -0.391992 1.52647 0
M  V30 7529 C 684.129 -1.13732 1.67545 0
M  V30 7530 C 684.457 -1.90045 0.413881 0
M  V30 7531 O 683.712 -1.86157 -0.603646 0
M  V30 7532 C 684.011 -2.14401 2.85949 0
M  V30 7533 C 683.677 -1.54767 4.23507 0
M  V30 7534 C 682.339 -1.38229 4.60919 0
M  V30 7535 C 684.691 -1.11382 5.0916 0
M  V30 7536 C 682.019 -0.7685 5.81645 0
M  V30 7537 C 684.371 -0.514143 6.30507 0
M  V30 7538 C 683.035 -0.33604 6.66654 0
M  V30 7539 H 682.305 -0.416174 0.613091 0
M  V30 7540 H 684.952 -0.422327 1.86785 0
M  V30 7541 H 683.257 -2.92108 2.61114 0
M  V30 7542 H 684.954 -2.71974 2.94671 0
M  V30 7543 H 681.544 -1.68626 3.94035 0
M  V30 7544 H 685.728 -1.22962 4.80826 0
M  V30 7545 H 680.984 -0.618681 6.08262 0
M  V30 7546 H 685.158 -0.169657 6.96193 0
M  V30 7547 H 682.785 0.14166 7.60068 0
M  V30 7548 N 684.36 -1.4356 -0.65026 0
M  V30 7549 C 685.588 -1.48779 -1.43779 0
M  V30 7550 C 686.003 -0.106593 -1.88499 0
M  V30 7551 O 685.36 0.883766 -1.59674 0
M  V30 7552 C 685.411 -2.43618 -2.67081 0
M  V30 7553 O 685.132 -3.76367 -2.24231 0
M  V30 7554 C 686.633 -2.5811 -3.60409 0
M  V30 7555 H 683.853 -0.50521 -0.441593 0
M  V30 7556 H 686.397 -1.88332 -0.796941 0
M  V30 7557 H 684.552 -2.07253 -3.273 0
M  V30 7558 H 684.966 -4.27394 -3.0403 0
M  V30 7559 H 686.44 -3.28539 -4.43583 0
M  V30 7560 H 686.917 -1.627 -4.07953 0
M  V30 7561 H 687.523 -2.95298 -3.0607 0
M  V30 7562 N 685.838 0.888903 -1.30139 0
M  V30 7563 C 687.115 1.62145 -1.094 0
M  V30 7564 C 687.495 2.08041 0.358091 0
M  V30 7565 O 686.843 1.84438 1.34888 0
M  V30 7566 C 687.053 2.794 -2.09133 0
M  V30 7567 C 688.401 3.49826 -2.40638 0
M  V30 7568 O 689.425 2.89583 -2.07412 0
M  V30 7569 O 688.284 4.58457 -2.97455 0
M  V30 7570 H 685.378 0.712475 -0.41989 0
M  V30 7571 H 687.924 0.936023 -1.41551 0
M  V30 7572 H 686.696 2.42762 -3.06891 0
M  V30 7573 H 686.319 3.55643 -1.77776 0
M  V30 7574 N 687.317 1.12792 1.10072 0
M  V30 7575 C 688.545 0.908506 1.85886 0
M  V30 7576 C 688.96 -0.542408 1.80841 0
M  V30 7577 O 688.317 -1.37517 1.1998 0
M  V30 7578 C 688.368 1.37973 3.34134 0
M  V30 7579 O 688.089 2.77378 3.39106 0
M  V30 7580 C 689.59 1.1978 4.26811 0
M  V30 7581 H 686.81 0.3244 0.587372 0
M  V30 7582 H 689.354 1.49882 1.39125 0
M  V30 7583 H 687.509 0.832566 3.78348 0
M  V30 7584 H 687.923 2.98144 4.31521 0
M  V30 7585 H 689.397 1.57635 5.29014 0
M  V30 7586 H 689.874 0.138768 4.38981 0
M  V30 7587 H 690.48 1.73266 3.88406 0
M  V30 7588 N 688.795 -1.27931 0.920396 0
M  V30 7589 C 690.041 -1.94977 0.557832 0
M  V30 7590 C 690.374 -1.72224 -0.897365 0
M  V30 7591 O 689.649 -1.04705 -1.63912 0
M  V30 7592 C 689.932 -3.49289 0.875741 0
M  V30 7593 C 689.785 -3.81416 2.38416 0
M  V30 7594 C 691.104 -4.38486 0.376517 0
M  V30 7595 H 688.223 -0.708164 0.20414 0
M  V30 7596 H 690.865 -1.5118 1.15085 0
M  V30 7597 H 689.015 -3.86724 0.371062 0
M  V30 7598 H 690.687 -3.53813 2.95997 0
M  V30 7599 H 688.93 -3.28225 2.83639 0
M  V30 7600 H 689.601 -4.89198 2.55713 0
M  V30 7601 H 692.077 -4.08161 0.808945 0
M  V30 7602 H 690.953 -5.45296 0.627976 0
M  V30 7603 H 691.214 -4.36143 -0.723293 0
M  V30 7604 N 690.273 -0.685099 -1.4193 0
M  V30 7605 C 691.503 -0.220052 -2.05425 0
M  V30 7606 C 691.911 1.13185 -1.51611 0
M  V30 7607 O 691.254 1.71631 -0.654875 0
M  V30 7608 C 691.316 -0.0888364 -3.5939 0
M  V30 7609 C 690.98 -1.37109 -4.35947 0
M  V30 7610 C 691.977 -2.30675 -4.65924 0
M  V30 7611 C 689.662 -1.62155 -4.75406 0
M  V30 7612 C 691.656 -3.47556 -5.34306 0
M  V30 7613 C 689.343 -2.79324 -5.43527 0
M  V30 7614 C 690.341 -3.71848 -5.72903 0
M  V30 7615 O 690.029 -4.86966 -6.39624 0
M  V30 7616 H 689.761 -0.102165 -0.668235 0
M  V30 7617 H 692.315 -0.935194 -1.82875 0
M  V30 7618 H 690.545 0.681981 -3.80639 0
M  V30 7619 H 692.234 0.337669 -4.04493 0
M  V30 7620 H 693 -2.12579 -4.3593 0
M  V30 7621 H 688.879 -0.910053 -4.51928 0
M  V30 7622 H 692.423 -4.19794 -5.57153 0
M  V30 7623 H 688.32 -2.97342 -5.72938 0
M  V30 7624 H 689.088 -4.86644 -6.58118 0
M  V30 7625 N 691.751 1.51645 -0.429126 0
M  V30 7626 C 693.167 1.59394 -0.080994 0
M  V30 7627 C 693.367 1.44064 1.40882 0
M  V30 7628 O 692.423 1.27771 2.17786 0
M  V30 7629 C 693.736 2.94779 -0.593773 0
M  V30 7630 C 695.284 3.08067 -0.553494 0
M  V30 7631 C 695.759 4.45963 -1.04311 0
M  V30 7632 N 697.25 4.5226 -1.00076 0
M  V30 7633 C 697.985 5.57268 -1.35056 0
M  V30 7634 N 697.481 6.69734 -1.77282 0
M  V30 7635 N 699.274 5.47582 -1.26925 0
M  V30 7636 H 691.425 1.59856 -1.39857 0
M  V30 7637 H 693.688 0.753095 -0.575805 0
M  V30 7638 H 693.394 3.11342 -1.63583 0
M  V30 7639 H 693.268 3.77197 -0.0142202 0
M  V30 7640 H 695.655 2.91177 0.479556 0
M  V30 7641 H 695.736 2.27508 -1.16935 0
M  V30 7642 H 695.38 4.63598 -2.07459 0
M  V30 7643 H 695.31 5.25049 -0.403873 0
M  V30 7644 H 697.801 3.71537 -0.690564 0
M  V30 7645 H 698.114 7.4587 -2.02232 0
M  V30 7646 H 696.459 6.70963 -1.81202 0
M  V30 7647 H 699.65 4.58604 -0.93809 0
M  V30 7648 H 699.823 6.29308 -1.54516 0
M  V30 7649 N 693.229 0.160201 1.56784 0
M  V30 7650 C 694.161 -0.80564 2.14574 0
M  V30 7651 C 695.174 -1.20154 1.09849 0
M  V30 7652 O 696.363 -1.14333 1.37078 0
M  V30 7653 C 693.463 -2.09434 2.6644 0
M  V30 7654 C 692.636 -1.86375 3.95706 0
M  V30 7655 C 691.695 -2.99358 4.32749 0
M  V30 7656 O 690.721 -2.70475 5.00831 0
M  V30 7657 N 691.923 -4.26867 3.93402 0
M  V30 7658 H 694.688 -0.311644 2.98075 0
M  V30 7659 H 692.249 -0.0229465 1.61884 0
M  V30 7660 H 694.241 -2.84091 2.88226 0
M  V30 7661 H 692.811 -2.50057 1.8759 0
M  V30 7662 H 692.031 -0.956821 3.82412 0
M  V30 7663 H 693.319 -1.68322 4.80151 0
M  V30 7664 H 692.717 -4.53197 3.38569 0
M  V30 7665 H 691.274 -4.98263 4.20211 0
M  V30 7666 N 694.707 -1.5719 -0.113559 0
M  V30 7667 C 695.67 -1.99796 -1.12314 0
M  V30 7668 C 696.67 -0.888847 -1.34001 0
M  V30 7669 O 697.86 -1.15476 -1.30426 0
M  V30 7670 C 694.992 -2.34279 -2.47641 0
M  V30 7671 H 696.185 -2.90193 -0.756825 0
M  V30 7672 H 693.738 -1.52144 -0.358029 0
M  V30 7673 H 694.473 -1.46778 -2.89183 0
M  V30 7674 H 694.258 -3.15175 -2.33253 0
M  V30 7675 H 695.748 -2.67963 -3.2029 0
M  V30 7676 N 696.185 0.383891 -1.52853 0
M  V30 7677 C 697.434 1.12563 -1.67369 0
M  V30 7678 C 697.747 1.90982 -0.422533 0
M  V30 7679 O 698.953 2.6778 -0.447914 0
M  V30 7680 C 697.409 2.05011 -2.95801 0
M  V30 7681 C 697.017 1.31991 -4.28115 0
M  V30 7682 C 698.761 2.79289 -3.19684 0
M  V30 7683 C 696.668 2.23235 -5.4765 0
M  V30 7684 H 695.598 0.42391 -0.623552 0
M  V30 7685 H 698.249 0.388016 -1.79351 0
M  V30 7686 H 696.631 2.82429 -2.77578 0
M  V30 7687 H 697.805 0.597633 -4.56908 0
M  V30 7688 H 696.12 0.696517 -4.10533 0
M  V30 7689 H 698.717 3.47749 -4.06171 0
M  V30 7690 H 699.06 3.43649 -2.3497 0
M  V30 7691 H 699.593 2.08962 -3.38496 0
M  V30 7692 H 696.332 1.63482 -6.34786 0
M  V30 7693 H 695.852 2.93364 -5.23161 0
M  V30 7694 H 697.531 2.83205 -5.81725 0
M  V30 7695 N 697.663 1.43903 0.642637 0
M  V30 7696 C 698.611 1.50164 1.77634 0
M  V30 7697 C 699.605 0.374294 1.65213 0
M  V30 7698 O 700.811 0.548748 1.71431 0
M  V30 7699 H 697.186 0.470974 0.586249 0
M  V30 7700 H 699.157 2.45603 1.69474 0
M  V30 7701 C 697.906 1.45196 3.15933 0
M  V30 7702 H 697.229 2.31253 3.26132 0
M  V30 7703 H 698.669 1.53638 3.95185 0
M  V30 7704 C 697.128 0.171043 3.36466 0
M  V30 7705 O 697.658 -0.763413 3.94379 0
M  V30 7706 N 695.864 0.077847 2.90496 0
M  V30 7707 H 695.411 0.8391 2.43551 0
M  V30 7708 H 695.369 -0.778473 3.0461 0
M  V30 7709 N 699.141 -0.881989 1.30609 0
M  V30 7710 C 700.366 -1.67236 1.22665 0
M  V30 7711 C 700.791 -1.8696 -0.206777 0
M  V30 7712 O 700.149 -1.4027 -1.14865 0
M  V30 7713 C 700.197 -3.02446 1.96363 0
M  V30 7714 O 699.301 -3.91614 1.29276 0
M  V30 7715 H 698.642 -0.510902 0.424117 0
M  V30 7716 H 701.172 -1.10055 1.72479 0
M  V30 7717 H 701.182 -3.52468 2.055 0
M  V30 7718 H 699.857 -2.8741 3.00613 0
M  V30 7719 H 698.434 -3.50055 1.28514 0
M  V30 7720 N 700.619 -1.13374 -1.09472 0
M  V30 7721 C 701.566 -0.810682 -2.16094 0
M  V30 7722 C 702.536 0.227003 -1.64541 0
M  V30 7723 O 703.721 0.0993538 -1.90541 0
M  V30 7724 C 700.861 -0.282336 -3.43943 0
M  V30 7725 C 699.974 -1.37902 -4.09398 0
M  V30 7726 C 699.109 -0.809066 -5.25002 0
M  V30 7727 C 698.148 -1.88419 -5.82379 0
M  V30 7728 N 697.285 -1.33221 -6.89345 0
M  V30 7729 H 702.125 -1.72397 -2.43071 0
M  V30 7730 H 699.662 -0.860564 -1.19301 0
M  V30 7731 H 701.62 0.0421189 -4.17179 0
M  V30 7732 H 700.25 0.594083 -3.17286 0
M  V30 7733 H 699.302 -1.82008 -3.34032 0
M  V30 7734 H 700.614 -2.19161 -4.48074 0
M  V30 7735 H 699.768 -0.435867 -6.05132 0
M  V30 7736 H 698.507 0.0346058 -4.87688 0
M  V30 7737 H 697.512 -2.26646 -5.00911 0
M  V30 7738 H 698.737 -2.73125 -6.21755 0
M  V30 7739 H 696.683 -0.510535 -6.5401 0
M  V30 7740 H 696.6 -2.08129 -7.26786 0
M  V30 7741 H 697.868 -0.986565 -7.73232 0
M  V30 7742 N 702.098 1.27442 -0.927168 0
M  V30 7743 C 703.031 2.25177 -0.370232 0
M  V30 7744 C 704.009 1.53612 0.533103 0
M  V30 7745 O 705.193 1.8245 0.47373 0
M  V30 7746 C 702.32 3.35431 0.469411 0
M  V30 7747 C 701.366 4.24888 -0.370419 0
M  V30 7748 S 702.199 5.04852 -1.78562 0
M  V30 7749 C 703.355 6.18592 -0.953651 0
M  V30 7750 H 703.588 2.72069 -1.19858 0
M  V30 7751 H 701.121 1.36089 -0.729316 0
M  V30 7752 H 703.079 3.99404 0.947992 0
M  V30 7753 H 701.74 2.87179 1.27228 0
M  V30 7754 H 700.933 5.03264 0.272226 0
M  V30 7755 H 700.535 3.65709 -0.783153 0
M  V30 7756 H 702.827 6.77235 -0.189408 0
M  V30 7757 H 703.77 6.87132 -1.7104 0
M  V30 7758 H 704.178 5.62318 -0.495897 0
M  V30 7759 N 703.576 0.692616 1.41565 0
M  V30 7760 C 704.823 0.222335 2.01276 0
M  V30 7761 C 705.151 -1.17706 1.5484 0
M  V30 7762 O 704.406 -1.80795 0.749118 0
M  V30 7763 C 704.705 0.225073 3.56691 0
M  V30 7764 C 704.371 1.57158 4.22625 0
M  V30 7765 C 703.033 1.94022 4.40351 0
M  V30 7766 C 705.385 2.45758 4.59622 0
M  V30 7767 C 702.713 3.19076 4.92349 0
M  V30 7768 C 705.065 3.70141 5.13009 0
M  V30 7769 C 703.729 4.07152 5.28946 0
M  V30 7770 H 702.999 0.0813581 0.73652 0
M  V30 7771 H 705.646 0.891123 1.69503 0
M  V30 7772 H 703.951 -0.527259 3.88236 0
M  V30 7773 H 705.648 -0.156283 4.00695 0
M  V30 7774 H 702.238 1.27486 4.09201 0
M  V30 7775 H 706.422 2.18558 4.45585 0
M  V30 7776 H 701.678 3.4775 5.02872 0
M  V30 7777 H 705.852 4.38983 5.40617 0
M  V30 7778 H 703.479 5.04125 5.69001 0
M  V30 7779 N 705.054 -1.51416 0.437162 0
M  V30 7780 C 705.964 -2.31493 -0.380537 0
M  V30 7781 C 706.98 -1.40399 -1.02782 0
M  V30 7782 O 708.156 -1.73471 -1.02323 0
M  V30 7783 C 705.221 -3.1413 -1.46709 0
M  V30 7784 C 704.282 -4.21003 -0.839953 0
M  V30 7785 C 703.515 -4.9969 -1.87473 0
M  V30 7786 O 703.738 -4.79008 -3.09689 0
M  V30 7787 O 702.672 -5.8379 -1.46536 0
M  V30 7788 H 706.498 -3.02469 0.273183 0
M  V30 7789 H 704.083 -1.48059 0.199706 0
M  V30 7790 H 705.965 -3.65505 -2.09724 0
M  V30 7791 H 704.64 -2.45919 -2.10489 0
M  V30 7792 H 703.547 -3.73706 -0.171752 0
M  V30 7793 H 704.88 -4.91587 -0.245638 0
M  V30 7794 N 706.532 -0.168513 -1.56696 0
M  V30 7795 C 707.778 0.477865 -1.9709 0
M  V30 7796 C 708.111 1.63084 -1.05438 0
M  V30 7797 O 707.386 1.94238 -0.10095 0
M  V30 7798 C 707.669 0.963521 -3.4697 0
M  V30 7799 C 707.522 -0.189443 -4.49401 0
M  V30 7800 C 708.841 1.83813 -3.99876 0
M  V30 7801 H 705.96 0.172229 -0.716593 0
M  V30 7802 H 708.602 -0.254083 -1.88293 0
M  V30 7803 H 706.752 1.58724 -3.54597 0
M  V30 7804 H 708.424 -0.826451 -4.53836 0
M  V30 7805 H 706.667 -0.845366 -4.25483 0
M  V30 7806 H 707.338 0.192446 -5.51664 0
M  V30 7807 H 709.814 1.31235 -3.94863 0
M  V30 7808 H 708.69 2.14697 -5.0517 0
M  V30 7809 H 708.951 2.78289 -3.43523 0
M  V30 7810 N 708.01 1.57248 0.105221 0
M  V30 7811 C 709.287 1.76566 0.841647 0
M  V30 7812 C 709.667 0.747566 1.9742 0
M  V30 7813 O 709.015 -0.225886 2.27381 0
M  V30 7814 C 709.225 3.22016 1.3456 0
M  V30 7815 C 710.573 3.84911 1.79244 0
M  V30 7816 O 711.597 3.25703 1.44207 0
M  V30 7817 O 710.456 4.89008 2.43995 0
M  V30 7818 H 707.55 0.723443 0.400698 0
M  V30 7819 H 710.096 1.69472 0.0878893 0
M  V30 7820 H 708.868 3.87644 0.533685 0
M  V30 7821 H 708.491 3.33703 2.16167 0
M  V30 7822 N 709.488 -0.375779 1.53054 0
M  V30 7823 C 710.421 -1.48187 1.7354 0
M  V30 7824 C 711.399 -1.5177 0.583495 0
M  V30 7825 O 712.583 -1.69976 0.81488 0
M  V30 7826 C 709.71 -2.86598 1.80497 0
M  V30 7827 C 708.756 -3.00784 3.02376 0
M  V30 7828 S 709.589 -2.70601 4.62099 0
M  V30 7829 C 710.745 -4.11181 4.71891 0
M  V30 7830 H 710.978 -1.30587 2.67085 0
M  V30 7831 H 708.511 -0.569485 1.43514 0
M  V30 7832 H 710.469 -3.66353 1.85192 0
M  V30 7833 H 709.13 -3.01514 0.880217 0
M  V30 7834 H 708.323 -4.02128 3.03824 0
M  V30 7835 H 707.925 -2.28939 2.95742 0
M  V30 7836 H 710.217 -5.0529 4.51319 0
M  V30 7837 H 711.16 -4.14742 5.73929 0
M  V30 7838 H 711.568 -3.97706 4.00612 0
M  V30 7839 N 710.966 -1.44241 -0.634997 0
M  V30 7840 C 711.913 -1.5081 -1.74714 0
M  V30 7841 C 712.883 -0.356147 -1.62237 0
M  V30 7842 O 714.068 -0.565848 -1.82216 0
M  V30 7843 C 711.208 -1.45458 -3.12947 0
M  V30 7844 C 710.321 -2.70998 -3.36428 0
M  V30 7845 C 709.456 -2.57507 -4.64611 0
M  V30 7846 C 708.495 -3.78229 -4.81258 0
M  V30 7847 N 707.632 -3.63438 -6.00714 0
M  V30 7848 H 712.472 -2.45832 -1.68436 0
M  V30 7849 H 710.009 -1.2201 -0.821706 0
M  V30 7850 H 711.967 -1.40347 -3.92885 0
M  V30 7851 H 710.597 -0.540058 -3.1825 0
M  V30 7852 H 709.649 -2.86312 -2.50458 0
M  V30 7853 H 710.961 -3.60619 -3.44609 0
M  V30 7854 H 710.115 -2.50207 -5.52703 0
M  V30 7855 H 708.854 -1.65441 -4.58782 0
M  V30 7856 H 707.859 -3.85918 -3.91596 0
M  V30 7857 H 709.084 -4.71327 -4.88904 0
M  V30 7858 H 707.03 -2.7412 -5.95982 0
M  V30 7859 H 706.947 -4.46672 -6.09934 0
M  V30 7860 H 708.215 -3.60022 -6.91378 0
M  V30 7861 N 712.444 0.87505 -1.31075 0
M  V30 7862 C 713.693 1.62245 -1.19831 0
M  V30 7863 C 714.006 1.94078 0.24357 0
M  V30 7864 O 715.212 2.67265 0.477646 0
M  V30 7865 C 713.668 2.92464 -2.09744 0
M  V30 7866 C 713.276 2.68134 -3.58898 0
M  V30 7867 C 715.02 3.70449 -2.07287 0
M  V30 7868 C 712.927 3.9423 -4.40836 0
M  V30 7869 H 711.857 0.608741 -0.444916 0
M  V30 7870 H 714.508 0.967947 -1.55894 0
M  V30 7871 H 712.89 3.59262 -1.66574 0
M  V30 7872 H 714.064 2.09776 -4.10281 0
M  V30 7873 H 712.379 2.03511 -3.6328 0
M  V30 7874 H 714.976 4.63983 -2.65752 0
M  V30 7875 H 715.319 4.02611 -1.05876 0
M  V30 7876 H 715.852 3.10528 -2.48631 0
M  V30 7877 H 712.591 3.67221 -5.42982 0
M  V30 7878 H 712.111 4.52058 -3.94213 0
M  V30 7879 H 713.79 4.62162 -4.52786 0
M  V30 7880 N 713.922 1.13953 1.08869 0
M  V30 7881 C 714.885 0.824991 2.13838 0
M  V30 7882 C 715.885 -0.168198 1.59918 0
M  V30 7883 O 717.075 0.0595778 1.74098 0
M  V30 7884 C 714.207 0.228938 3.4013 0
M  V30 7885 H 715.4 1.75521 2.43171 0
M  V30 7886 H 712.953 0.94492 1.24503 0
M  V30 7887 H 713.688 -0.710227 3.16427 0
M  V30 7888 H 713.473 0.944243 3.80561 0
M  V30 7889 H 714.963 0.0259223 4.17592 0
M  V30 7890 N 715.4 -1.26948 0.933913 0
M  V30 7891 C 716.363 -2.24889 0.442457 0
M  V30 7892 C 717.363 -1.54594 -0.442426 0
M  V30 7893 O 718.553 -1.72502 -0.242629 0
M  V30 7894 C 715.685 -3.3896 -0.363173 0
M  V30 7895 H 716.878 -2.69879 1.30787 0
M  V30 7896 H 714.431 -1.38978 0.715187 0
M  V30 7897 H 715.166 -2.99361 -1.24714 0
M  V30 7898 H 714.951 -3.9116 0.271366 0
M  V30 7899 H 716.441 -4.11739 -0.697186 0
M  V30 7900 N 716.879 -0.700114 -1.41195 0
M  V30 7901 C 717.812 0.0129614 -2.28196 0
M  V30 7902 C 718.79 0.783367 -1.42486 0
M  V30 7903 O 719.974 0.773238 -1.71911 0
M  V30 7904 C 717.101 1.02575 -3.22794 0
M  V30 7905 C 716.147 0.347977 -4.25078 0
M  V30 7906 S 716.98 -0.912938 -5.27661 0
M  V30 7907 C 718.136 0.0981362 -6.25823 0
M  V30 7908 H 718.369 -0.724927 -2.88326 0
M  V30 7909 H 715.902 -0.490554 -1.464 0
M  V30 7910 H 717.86 1.60491 -3.77826 0
M  V30 7911 H 716.521 1.73624 -2.61751 0
M  V30 7912 H 715.714 1.11305 -4.91556 0
M  V30 7913 H 715.316 -0.15823 -3.73665 0
M  V30 7914 H 717.608 0.949965 -6.70807 0
M  V30 7915 H 718.551 -0.532838 -7.06092 0
M  V30 7916 H 718.959 0.454944 -5.62664 0
M  V30 7917 N 718.357 1.51182 -0.445186 0
M  V30 7918 C 719.307 2.24804 0.380394 0
M  V30 7919 C 720.291 1.27344 0.983482 0
M  V30 7920 O 721.483 1.52392 0.900322 0
M  V30 7921 C 718.612 3.09922 1.4766 0
M  V30 7922 C 717.698 4.14816 0.882517 0
M  V30 7923 N 718.089 5.05797 0.0183278 0
M  V30 7924 C 716.387 4.30938 1.14927 0
M  V30 7925 C 717.088 5.8084 -0.316152 0
M  V30 7926 N 716.064 5.42759 0.302214 0
M  V30 7927 H 719.866 2.92508 -0.285737 0
M  V30 7928 H 717.38 1.60342 -0.257733 0
M  V30 7929 H 719.377 3.61249 2.08098 0
M  V30 7930 H 718.037 2.43763 2.14498 0
M  V30 7931 H 719.048 5.16725 -0.348679 0
M  V30 7932 H 715.725 3.76005 1.81457 0
M  V30 7933 H 717.115 6.64115 -1.01986 0
M  V30 7934 N 719.835 0.176821 1.56605 0
M  V30 7935 C 721.081 -0.467406 1.9734 0
M  V30 7936 C 721.414 -1.62523 1.06301 0
M  V30 7937 O 720.689 -1.94182 0.11125 0
M  V30 7938 C 720.972 -0.945106 3.47476 0
M  V30 7939 C 720.825 0.213273 4.49294 0
M  V30 7940 C 722.144 -1.8169 4.00845 0
M  V30 7941 H 719.263 -0.168426 0.717497 0
M  V30 7942 H 721.905 0.264065 1.88156 0
M  V30 7943 H 720.055 -1.56841 3.55434 0
M  V30 7944 H 721.727 0.850508 4.53392 0
M  V30 7945 H 719.97 0.867918 4.25029 0
M  V30 7946 H 720.641 -0.163187 5.51759 0
M  V30 7947 H 723.117 -1.29139 3.95553 0
M  V30 7948 H 721.993 -2.12015 5.06301 0
M  V30 7949 H 722.254 -2.76463 3.44994 0
M  V30 7950 N 721.313 -1.57302 -0.09688 0
M  V30 7951 C 722.26 -2.01933 -1.11766 0
M  V30 7952 C 723.23 -0.895329 -1.39904 0
M  V30 7953 O 724.415 -1.16119 -1.51397 0
M  V30 7954 C 721.555 -2.44726 -2.43317 0
M  V30 7955 C 720.668 -3.70639 -2.21925 0
M  V30 7956 C 719.803 -4.02318 -3.46862 0
M  V30 7957 C 718.842 -5.21346 -3.20725 0
M  V30 7958 N 717.979 -5.48787 -4.37924 0
M  V30 7959 H 722.819 -2.88919 -0.730075 0
M  V30 7960 H 720.356 -1.42901 -0.348962 0
M  V30 7961 H 722.314 -2.6758 -3.20088 0
M  V30 7962 H 720.944 -1.60753 -2.79926 0
M  V30 7963 H 719.996 -3.55271 -1.35965 0
M  V30 7964 H 721.308 -4.57557 -1.98603 0
M  V30 7965 H 720.462 -4.25939 -4.32042 0
M  V30 7966 H 719.201 -3.13918 -3.73238 0
M  V30 7967 H 718.206 -4.97547 -2.33938 0
M  V30 7968 H 719.431 -6.11343 -2.95697 0
M  V30 7969 H 717.377 -4.63346 -4.64378 0
M  V30 7970 H 717.294 -6.30073 -4.17785 0
M  V30 7971 H 718.562 -5.76943 -5.24173 0
M  V30 7972 N 722.791 0.367657 -1.53252 0
M  V30 7973 C 724.207 0.709191 -1.42978 0
M  V30 7974 C 724.407 1.93352 -0.567193 0
M  V30 7975 O 723.463 2.52453 -0.0488349 0
M  V30 7976 C 724.776 0.924338 -2.86141 0
M  V30 7977 C 726.324 1.02448 -2.95759 0
M  V30 7978 C 726.799 1.27211 -4.39979 0
M  V30 7979 N 728.29 1.33986 -4.43398 0
M  V30 7980 C 729.025 1.54852 -5.52095 0
M  V30 7981 N 728.521 1.73049 -6.7084 0
M  V30 7982 N 730.314 1.57205 -5.39669 0
M  V30 7983 H 722.465 -0.437669 -2.07842 0
M  V30 7984 H 724.728 -0.133737 -0.938519 0
M  V30 7985 H 724.434 0.0965455 -3.51567 0
M  V30 7986 H 724.308 1.83302 -3.29667 0
M  V30 7987 H 726.695 1.84282 -2.30487 0
M  V30 7988 H 726.776 0.0932301 -2.5563 0
M  V30 7989 H 726.42 0.458792 -5.05824 0
M  V30 7990 H 726.35 2.21654 -4.77679 0
M  V30 7991 H 728.841 1.21545 -3.5782 0
M  V30 7992 H 729.154 1.88538 -7.49449 0
M  V30 7993 H 727.499 1.70231 -6.7383 0
M  V30 7994 H 730.69 1.42555 -4.45865 0
M  V30 7995 H 730.863 1.73126 -6.24445 0
M  V30 7996 N 724.269 1.44576 0.627338 0
M  V30 7997 C 725.216 1.51734 1.73912 0
M  V30 7998 C 726.186 0.364745 1.62046 0
M  V30 7999 O 727.371 0.575503 1.81914 0
M  V30 8000 C 724.511 1.47116 3.12171 0
M  V30 8001 C 723.624 2.72778 3.34986 0
M  V30 8002 C 722.759 2.59968 4.63239 0
M  V30 8003 C 721.798 3.80776 4.79245 0
M  V30 8004 N 720.935 3.66618 5.98778 0
M  V30 8005 H 725.775 2.46722 1.6713 0
M  V30 8006 H 723.312 1.22444 0.815224 0
M  V30 8007 H 725.27 1.42429 3.92135 0
M  V30 8008 H 723.9 0.556928 3.17959 0
M  V30 8009 H 722.952 2.87637 2.48936 0
M  V30 8010 H 724.264 3.62441 3.42692 0
M  V30 8011 H 723.418 2.53135 5.51369 0
M  V30 8012 H 722.157 1.67872 4.57898 0
M  V30 8013 H 721.162 3.87989 3.89544 0
M  V30 8014 H 722.387 4.73913 4.86398 0
M  V30 8015 H 720.333 2.77277 5.9452 0
M  V30 8016 H 720.25 4.499 6.07557 0
M  V30 8017 H 721.518 3.63684 6.89459 0
M  V30 8018 N 725.747 -0.868086 1.31537 0
M  V30 8019 C 726.679 -1.98165 1.15166 0
M  V30 8020 C 727.692 -1.6255 0.0902335 0
M  V30 8021 O 728.881 -1.75272 0.33791 0
M  V30 8022 C 725.981 -3.30772 0.737776 0
M  V30 8023 C 725.154 -3.94716 1.88462 0
M  V30 8024 C 724.213 -5.05641 1.45648 0
M  V30 8025 O 723.239 -5.2636 2.16642 0
M  V30 8026 N 724.441 -5.79474 0.34493 0
M  V30 8027 H 727.206 -2.12754 2.11083 0
M  V30 8028 H 724.767 -1.04217 1.23897 0
M  V30 8029 H 726.759 -4.02366 0.434032 0
M  V30 8030 H 725.329 -3.1233 -0.129834 0
M  V30 8031 H 724.549 -3.16079 2.35558 0
M  V30 8032 H 725.837 -4.34175 2.65273 0
M  V30 8033 H 725.235 -5.65164 -0.246259 0
M  V30 8034 H 723.792 -6.51722 0.100728 0
M  V30 8035 N 727.225 -1.14528 -1.08264 0
M  V30 8036 C 728.155 -0.856356 -2.1723 0
M  V30 8037 C 729.136 0.189251 -1.69044 0
M  V30 8038 O 730.321 0.0456119 -1.94146 0
M  V30 8039 C 727.451 -0.334662 -3.45684 0
M  V30 8040 C 726.405 -1.31588 -4.0727 0
M  V30 8041 C 725.731 -0.653428 -5.30692 0
M  V30 8042 C 727.031 -2.67866 -4.48381 0
M  V30 8043 H 728.725 -1.76755 -2.41657 0
M  V30 8044 H 726.271 -0.851287 -1.16143 0
M  V30 8045 H 728.224 -0.120128 -4.21229 0
M  V30 8046 H 726.948 0.611967 -3.20815 0
M  V30 8047 H 725.607 -1.51661 -3.33758 0
M  V30 8048 H 725.255 0.299054 -5.0211 0
M  V30 8049 H 724.955 -1.30817 -5.72853 0
M  V30 8050 H 726.479 -0.448453 -6.08951 0
M  V30 8051 H 727.893 -2.51692 -5.15096 0
M  V30 8052 H 726.29 -3.29627 -5.01464 0
M  V30 8053 H 727.36 -3.24632 -3.60198 0
M  V30 8054 N 728.703 1.26451 -0.940633 0
M  V30 8055 C 729.653 2.24086 -0.420669 0
M  V30 8056 C 730.637 1.53501 0.482301 0
M  V30 8057 O 731.829 1.74127 0.317636 0
M  V30 8058 C 728.958 3.41866 0.313452 0
M  V30 8059 C 728.044 4.19737 -0.606779 0
M  V30 8060 N 728.435 4.7521 -1.73232 0
M  V30 8061 C 726.733 4.44091 -0.41226 0
M  V30 8062 C 727.434 5.34052 -2.30572 0
M  V30 8063 N 726.41 5.1971 -1.59381 0
M  V30 8064 H 730.212 2.64569 -1.27986 0
M  V30 8065 H 727.726 1.4153 -0.796436 0
M  V30 8066 H 729.723 4.1093 0.702991 0
M  V30 8067 H 728.383 3.0291 1.16942 0
M  V30 8068 H 729.394 4.72769 -2.11447 0
M  V30 8069 H 726.071 4.1556 0.401984 0
M  V30 8070 H 727.461 5.87845 -3.25404 0
M  V30 8071 N 730.181 0.707592 1.40822 0
M  V30 8072 C 731.113 0.0105968 2.29198 0
M  V30 8073 C 732.126 -0.732035 1.45414 0
M  V30 8074 O 733.315 -0.580741 1.68789 0
M  V30 8075 C 730.415 -1.00921 3.23525 0
M  V30 8076 C 729.588 -0.333747 4.36125 0
M  V30 8077 C 728.647 -1.25783 5.10945 0
M  V30 8078 O 727.673 -0.745646 5.64295 0
M  V30 8079 N 728.875 -2.58947 5.19545 0
M  V30 8080 H 731.64 0.76938 2.89656 0
M  V30 8081 H 729.201 0.554579 1.52105 0
M  V30 8082 H 731.193 -1.6294 3.70449 0
M  V30 8083 H 729.763 -1.66942 2.6429 0
M  V30 8084 H 728.983 0.466518 3.9143 0
M  V30 8085 H 730.271 0.135444 5.0862 0
M  V30 8086 H 729.669 -3.03065 4.7767 0
M  V30 8087 H 728.226 -3.16131 5.70004 0
M  V30 8088 N 731.66 -1.50943 0.453197 0
M  V30 8089 C 732.59 -2.31005 -0.34044 0
M  V30 8090 C 733.571 -1.37112 -1.00669 0
M  V30 8091 O 734.756 -1.66033 -1.0073 0
M  V30 8092 C 731.886 -3.16358 -1.433 0
M  V30 8093 C 730.84 -4.18658 -0.889363 0
M  V30 8094 C 730.166 -4.92633 -2.07887 0
M  V30 8095 C 731.466 -5.22227 0.0871142 0
M  V30 8096 H 733.16 -2.97601 0.327723 0
M  V30 8097 H 730.706 -1.43119 0.159054 0
M  V30 8098 H 732.659 -3.71155 -1.99555 0
M  V30 8099 H 731.383 -2.47613 -2.12968 0
M  V30 8100 H 730.042 -3.64936 -0.348915 0
M  V30 8101 H 729.69 -4.20376 -2.76211 0
M  V30 8102 H 729.39 -5.61819 -1.72143 0
M  V30 8103 H 730.914 -5.50258 -2.64666 0
M  V30 8104 H 732.328 -5.72001 -0.385656 0
M  V30 8105 H 730.725 -5.99032 0.357926 0
M  V30 8106 H 731.795 -4.74077 1.01879 0
M  V30 8107 N 733.138 -0.185124 -1.56509 0
M  V30 8108 C 734.068 0.735098 -2.21627 0
M  V30 8109 C 735.049 1.2288 -1.1762 0
M  V30 8110 O 736.234 1.27945 -1.46095 0
M  V30 8111 C 733.364 1.95889 -2.86783 0
M  V30 8112 C 732.318 1.6005 -3.96948 0
M  V30 8113 C 731.644 2.90009 -4.4922 0
M  V30 8114 C 732.944 0.818008 -5.15855 0
M  V30 8115 H 734.638 0.192274 -2.98782 0
M  V30 8116 H 732.184 0.0910393 -1.43712 0
M  V30 8117 H 734.137 2.60779 -3.31017 0
M  V30 8118 H 732.861 2.52608 -2.07018 0
M  V30 8119 H 731.52 0.975237 -3.5339 0
M  V30 8120 H 731.168 3.44797 -3.6623 0
M  V30 8121 H 730.868 2.66778 -5.23549 0
M  V30 8122 H 732.392 3.55904 -4.9615 0
M  V30 8123 H 733.806 1.36979 -5.56695 0
M  V30 8124 H 732.203 0.684207 -5.96187 0
M  V30 8125 H 733.273 -0.182939 -4.84555 0
M  V30 8126 N 734.616 1.57351 0.0885366 0
M  V30 8127 C 736.027 1.75303 0.642308 0
M  V30 8128 C 736.378 0.808238 1.78779 0
M  V30 8129 O 735.503 -0.01171 2.16397 0
M  V30 8130 C 736.098 3.17885 1.17194 0
M  V30 8131 C 734.657 3.37239 1.67172 0
M  V30 8132 C 733.804 2.7108 0.584045 0
M  V30 8133 H 736.755 1.58103 -0.137567 0
M  V30 8134 H 736.776 3.2112 2.04114 0
M  V30 8135 H 736.288 3.86625 0.338024 0
M  V30 8136 H 734.389 2.73588 2.52943 0
M  V30 8137 H 734.502 4.45594 1.76019 0
M  V30 8138 H 732.866 2.33161 1.02508 0
M  V30 8139 H 733.649 3.42464 -0.239403 0
M  V30 8140 N 736.094 -0.359525 1.53444 0
M  V30 8141 C 737.042 -1.46104 1.80987 0
M  V30 8142 C 738.036 -1.55181 0.679351 0
M  V30 8143 O 739.242 -1.57995 0.862405 0
M  V30 8144 H 735.617 -0.486835 0.573145 0
M  V30 8145 H 737.588 -1.2008 2.73173 0
M  V30 8146 C 736.337 -2.82855 2.02208 0
M  V30 8147 H 735.66 -2.76631 2.88644 0
M  V30 8148 H 737.1 -3.59091 2.25455 0
M  V30 8149 C 735.559 -3.27192 0.802931 0
M  V30 8150 O 736.089 -4.017 -0.00544286 0
M  V30 8151 N 734.295 -2.83807 0.624657 0
M  V30 8152 H 733.842 -2.23339 1.28364 0
M  V30 8153 H 733.8 -3.13828 -0.189641 0
M  V30 8154 N 737.572 -1.44907 -0.619662 0
M  V30 8155 C 738.522 -1.49085 -1.72504 0
M  V30 8156 C 739.506 -0.355372 -1.56926 0
M  V30 8157 O 740.698 -0.601441 -1.66468 0
M  V30 8158 C 737.827 -1.44889 -3.11227 0
M  V30 8159 C 736.913 -2.63593 -3.32234 0
M  V30 8160 N 737.304 -3.88775 -3.23555 0
M  V30 8161 C 735.602 -2.59033 -3.63067 0
M  V30 8162 C 736.303 -4.67932 -3.45564 0
M  V30 8163 N 735.279 -3.9919 -3.68983 0
M  V30 8164 H 739.081 -2.43706 -1.6427 0
M  V30 8165 H 736.595 -1.4003 -0.82252 0
M  V30 8166 H 738.592 -1.45966 -3.90512 0
M  V30 8167 H 737.252 -0.513143 -3.2062 0
M  V30 8168 H 738.263 -4.20574 -3.02221 0
M  V30 8169 H 734.94 -1.7431 -3.79371 0
M  V30 8170 H 736.33 -5.76952 -3.44349 0
M  V30 8171 N 739.05 0.861098 -1.31996 0
M  V30 8172 C 740.296 1.61721 -1.22369 0
M  V30 8173 C 740.629 1.93 0.215587 0
M  V30 8174 O 739.904 1.56789 1.15098 0
M  V30 8175 C 740.187 2.9417 -2.07691 0
M  V30 8176 C 740.04 2.69714 -3.59965 0
M  V30 8177 C 741.359 3.95372 -1.93312 0
M  V30 8178 H 738.478 0.586822 -0.44588 0
M  V30 8179 H 741.12 0.994788 -1.61876 0
M  V30 8180 H 739.27 3.47292 -1.74128 0
M  V30 8181 H 740.942 2.23196 -4.03709 0
M  V30 8182 H 739.185 2.03789 -3.82952 0
M  V30 8183 H 739.856 3.63996 -4.14983 0
M  V30 8184 H 742.332 3.51487 -2.22701 0
M  V30 8185 H 741.208 4.85916 -2.55298 0
M  V30 8186 H 741.469 4.32865 -0.898922 0
M  V30 8187 N 740.528 1.15101 1.07655 0
M  V30 8188 C 741.458 0.867864 2.16773 0
M  V30 8189 C 742.439 -0.180283 1.69142 0
M  V30 8190 O 743.624 -0.0353152 1.94168 0
M  V30 8191 C 740.754 0.35299 3.45501 0
M  V30 8192 C 739.708 1.33746 4.06566 0
M  V30 8193 C 739.034 0.681562 5.30338 0
M  V30 8194 C 740.334 2.7024 4.46954 0
M  V30 8195 H 742.028 1.78034 2.40716 0
M  V30 8196 H 739.574 0.857435 1.15689 0
M  V30 8197 H 741.527 0.142465 4.21159 0
M  V30 8198 H 740.251 -0.594945 3.21135 0
M  V30 8199 H 738.91 1.53429 3.32949 0
M  V30 8200 H 738.558 -0.272422 5.02262 0
M  V30 8201 H 738.258 1.33853 5.72151 0
M  V30 8202 H 739.782 0.48074 6.08705 0
M  V30 8203 H 741.196 2.5442 5.13754 0
M  V30 8204 H 739.593 3.32282 4.99709 0
M  V30 8205 H 740.663 3.26537 3.58471 0
M  V30 8206 N 742.006 -1.2595 0.947325 0
M  V30 8207 C 742.938 -2.25336 0.41906 0
M  V30 8208 C 743.951 -1.56135 -0.461051 0
M  V30 8209 O 745.14 -1.76438 -0.270505 0
M  V30 8210 C 742.24 -3.36334 -0.416233 0
M  V30 8211 C 741.413 -4.35088 0.449162 0
M  V30 8212 C 740.472 -5.25185 -0.326716 0
M  V30 8213 O 739.498 -5.68548 0.272374 0
M  V30 8214 N 740.7 -5.57388 -1.6217 0
M  V30 8215 H 743.465 -2.71298 1.27348 0
M  V30 8216 H 741.026 -1.39781 0.81688 0
M  V30 8217 H 743.018 -3.93564 -0.942826 0
M  V30 8218 H 741.588 -2.89819 -1.17148 0
M  V30 8219 H 740.808 -3.76841 1.15692 0
M  V30 8220 H 742.096 -4.98056 1.04008 0
M  V30 8221 H 741.494 -5.2405 -2.13046 0
M  V30 8222 H 740.051 -6.17234 -2.0944 0
M  V30 8223 N 743.484 -0.715051 -1.40445 0
M  V30 8224 C 744.431 -0.0621393 -2.30716 0
M  V30 8225 C 745.401 0.750871 -1.48159 0
M  V30 8226 O 746.586 0.714928 -1.76899 0
M  V30 8227 C 743.726 0.854036 -3.34365 0
M  V30 8228 C 742.839 0.0305565 -4.31989 0
M  V30 8229 C 741.974 0.946162 -5.22706 0
M  V30 8230 C 741.013 0.116741 -6.11989 0
M  V30 8231 N 740.15 0.987194 -6.95125 0
M  V30 8232 H 744.99 -0.83764 -2.85985 0
M  V30 8233 H 742.527 -0.424759 -1.40834 0
M  V30 8234 H 744.485 1.39946 -3.93028 0
M  V30 8235 H 743.115 1.59572 -2.806 0
M  V30 8236 H 742.167 -0.632044 -3.75112 0
M  V30 8237 H 743.479 -0.611615 -4.95036 0
M  V30 8238 H 742.633 1.56014 -5.86297 0
M  V30 8239 H 741.372 1.62216 -4.59932 0
M  V30 8240 H 740.377 -0.510176 -5.47428 0
M  V30 8241 H 741.602 -0.555742 -6.76822 0
M  V30 8242 H 739.548 1.64885 -6.3494 0
M  V30 8243 H 739.465 0.401046 -7.54936 0
M  V30 8244 H 740.733 1.58737 -7.63166 0
M  V30 8245 N 744.962 1.50701 -0.461195 0
M  V30 8246 C 745.909 2.2831 0.338094 0
M  V30 8247 C 746.879 1.32928 0.995957 0
M  V30 8248 O 748.064 1.61857 1.0103 0
M  V30 8249 C 745.204 3.14539 1.41983 0
M  V30 8250 C 744.317 4.24942 0.77773 0
M  V30 8251 C 743.452 4.98443 1.83652 0
M  V30 8252 C 742.491 6.00733 1.17413 0
M  V30 8253 N 741.628 6.6755 2.17533 0
M  V30 8254 H 746.468 2.96167 -0.330051 0
M  V30 8255 H 744.005 1.4606 -0.174611 0
M  V30 8256 H 745.963 3.62877 2.05855 0
M  V30 8257 H 744.593 2.48749 2.05727 0
M  V30 8258 H 743.645 3.80391 0.0266924 0
M  V30 8259 H 744.957 4.98151 0.254362 0
M  V30 8260 H 744.111 5.50449 2.55129 0
M  V30 8261 H 742.85 4.24917 2.39367 0
M  V30 8262 H 741.855 5.47997 0.444944 0
M  V30 8263 H 743.08 6.76227 0.624006 0
M  V30 8264 H 741.026 5.96823 2.72284 0
M  V30 8265 H 740.943 7.36603 1.70154 0
M  V30 8266 H 742.211 7.24178 2.88421 0
M  V30 8267 N 746.441 0.193421 1.56409 0
M  V30 8268 C 747.388 -0.728124 2.19014 0
M  V30 8269 C 748.358 -1.21098 1.13686 0
M  V30 8270 O 749.543 -1.27517 1.4193 0
M  V30 8271 C 746.683 -1.94277 2.8522 0
M  V30 8272 C 745.796 -1.50143 4.05069 0
M  V30 8273 C 744.931 -2.67145 4.59137 0
M  V30 8274 C 743.97 -2.19609 5.71348 0
M  V30 8275 N 743.107 -3.29782 6.19829 0
M  V30 8276 H 747.947 -0.187499 2.9741 0
M  V30 8277 H 745.484 -0.0808064 1.46878 0
M  V30 8278 H 747.442 -2.65551 3.21774 0
M  V30 8279 H 746.072 -2.45673 2.09391 0
M  V30 8280 H 745.124 -0.684624 3.74189 0
M  V30 8281 H 746.436 -1.11266 4.86232 0
M  V30 8282 H 745.59 -3.46544 4.97988 0
M  V30 8283 H 744.329 -3.09295 3.77078 0
M  V30 8284 H 743.334 -1.38664 5.32027 0
M  V30 8285 H 744.559 -1.78492 6.55223 0
M  V30 8286 H 742.505 -3.71466 5.40693 0
M  V30 8287 H 742.422 -2.95069 6.96039 0
M  V30 8288 H 743.69 -4.094 6.63334 0
M  V30 8289 N 747.919 -1.57396 -0.0801906 0
M  V30 8290 C 748.866 -2.03107 -1.09618 0
M  V30 8291 C 749.836 -0.910118 -1.38946 0
M  V30 8292 O 751.021 -1.17719 -1.50156 0
M  V30 8293 C 748.161 -2.47293 -2.40708 0
M  V30 8294 C 747.274 -3.72972 -2.17982 0
M  V30 8295 C 746.409 -4.05975 -3.42576 0
M  V30 8296 C 745.448 -5.24719 -3.15177 0
M  V30 8297 N 744.585 -5.53401 -4.32078 0
M  V30 8298 H 749.425 -2.89677 -0.69939 0
M  V30 8299 H 746.962 -1.43263 -0.333785 0
M  V30 8300 H 748.92 -2.7096 -3.17232 0
M  V30 8301 H 747.55 -1.63713 -2.78205 0
M  V30 8302 H 746.602 -3.56693 -1.32189 0
M  V30 8303 H 747.914 -4.59638 -1.93738 0
M  V30 8304 H 747.068 -4.30498 -4.275 0
M  V30 8305 H 745.807 -3.17859 -3.69887 0
M  V30 8306 H 744.812 -5 -2.28648 0
M  V30 8307 H 746.037 -6.14445 -2.89197 0
M  V30 8308 H 743.983 -4.68245 -4.59437 0
M  V30 8309 H 743.9 -6.34469 -4.11078 0
M  V30 8310 H 745.168 -5.8247 -5.18024 0
M  V30 8311 N 749.397 0.351382 -1.53633 0
M  V30 8312 C 750.347 1.4316 -1.77452 0
M  V30 8313 C 751.331 1.48076 -0.62946 0
M  V30 8314 O 752.523 1.53078 -0.888599 0
M  V30 8315 C 749.652 2.80409 -1.98055 0
M  V30 8316 C 748.738 2.79915 -3.18604 0
M  V30 8317 N 749.129 2.49057 -4.40232 0
M  V30 8318 C 747.427 3.11067 -3.19614 0
M  V30 8319 C 748.128 2.566 -5.22045 0
M  V30 8320 N 747.104 2.919 -4.5858 0
M  V30 8321 H 750.906 1.18188 -2.69089 0
M  V30 8322 H 748.42 0.559684 -1.52451 0
M  V30 8323 H 750.417 3.58231 -2.13251 0
M  V30 8324 H 749.077 3.06334 -1.07655 0
M  V30 8325 H 750.088 2.22395 -4.67719 0
M  V30 8326 H 746.765 3.42215 -2.39154 0
M  V30 8327 H 748.155 2.35968 -6.29101 0
M  V30 8328 N 750.875 1.45233 0.611969 0
M  V30 8329 C 752.1 1.52767 1.40274 0
M  V30 8330 C 752.525 0.159701 1.87421 0
M  V30 8331 O 751.883 -0.854837 1.59882 0
M  V30 8332 C 751.931 2.51286 2.58626 0
M  V30 8333 O 751.035 2.02764 3.59111 0
M  V30 8334 H 750.376 0.515141 0.418958 0
M  V30 8335 H 752.906 1.90547 0.745188 0
M  V30 8336 H 752.916 2.69949 3.05927 0
M  V30 8337 H 751.591 3.50641 2.23659 0
M  V30 8338 H 750.168 1.93957 3.18489 0
M  V30 8339 N 752.353 -0.854086 1.3245 0
M  V30 8340 C 753.581 -1.64074 1.26045 0
M  V30 8341 C 753.996 -1.8802 -0.171456 0
M  V30 8342 O 753.353 -1.4496 -1.10873 0
M  V30 8343 C 753.404 -2.9997 2.01743 0
M  V30 8344 O 753.125 -2.77084 3.39346 0
M  V30 8345 C 754.626 -3.94414 2.02368 0
M  V30 8346 H 751.846 -0.511015 0.434862 0
M  V30 8347 H 754.39 -1.06494 1.74583 0
M  V30 8348 H 752.545 -3.54193 1.56926 0
M  V30 8349 H 752.959 -3.63514 3.78098 0
M  V30 8350 H 754.433 -4.87032 2.59815 0
M  V30 8351 H 754.91 -4.27427 1.01009 0
M  V30 8352 H 755.516 -3.46127 2.47135 0
M  V30 8353 N 753.831 -1.1567 -1.07043 0
M  V30 8354 C 754.741 -0.870435 -2.17855 0
M  V30 8355 C 755.757 0.154452 -1.73313 0
M  V30 8356 O 756.933 -0.0203759 -2.0139 0
M  V30 8357 C 753.998 -0.367219 -3.4475 0
M  V30 8358 C 753.059 -1.45639 -4.03841 0
M  V30 8359 C 752.292 -0.977092 -5.2468 0
M  V30 8360 O 752.515 0.176127 -5.70128 0
M  V30 8361 O 751.449 -1.76215 -5.75527 0
M  V30 8362 H 755.275 -1.79687 -2.44839 0
M  V30 8363 H 752.86 -0.936064 -1.1644 0
M  V30 8364 H 754.742 -0.0931947 -4.21297 0
M  V30 8365 H 753.417 0.53131 -3.1931 0
M  V30 8366 H 752.324 -1.78406 -3.28819 0
M  V30 8367 H 753.657 -2.32995 -4.3356 0
M  V30 8368 N 755.309 1.25446 -0.953992 0
M  V30 8369 C 756.557 1.92762 -0.607227 0
M  V30 8370 C 756.878 1.7509 0.858399 0
M  V30 8371 O 756.148 1.11416 1.61132 0
M  V30 8372 H 754.728 0.713377 -0.221591 0
M  V30 8373 H 757.39 1.52625 -1.21209 0
M  V30 8374 H 756.486 3.00695 -0.835998 0
M  V30 8375 N 756.787 0.722489 1.40064 0
M  V30 8376 C 758.033 0.265371 2.01056 0
M  V30 8377 C 758.366 -1.14062 1.57174 0
M  V30 8378 O 757.641 -1.77514 0.794916 0
M  V30 8379 C 757.924 0.353157 3.58364 0
M  V30 8380 C 757.777 1.79802 4.123 0
M  V30 8381 C 759.096 -0.271677 4.39261 0
M  V30 8382 H 756.215 0.0979002 0.730469 0
M  V30 8383 H 758.857 0.916289 1.66446 0
M  V30 8384 H 757.007 -0.201037 3.87979 0
M  V30 8385 H 758.679 2.40813 3.93455 0
M  V30 8386 H 756.922 2.32348 3.66329 0
M  V30 8387 H 757.593 1.81079 5.21454 0
M  V30 8388 H 760.069 0.200607 4.15616 0
M  V30 8389 H 758.945 -0.179843 5.48605 0
M  V30 8390 H 759.206 -1.35611 4.20787 0
M  V30 8391 N 758.265 -1.50454 0.469181 0
M  V30 8392 C 759.212 -2.28486 -0.325982 0
M  V30 8393 C 760.182 -1.33455 -0.988893 0
M  V30 8394 O 761.367 -1.6239 -1.0017 0
M  V30 8395 C 758.507 -3.15288 -1.40313 0
M  V30 8396 C 757.62 -4.25348 -0.755183 0
M  V30 8397 C 756.755 -4.9941 -1.81006 0
M  V30 8398 C 755.794 -6.01348 -1.14226 0
M  V30 8399 N 754.931 -6.68695 -2.1399 0
M  V30 8400 H 759.771 -2.95987 0.345753 0
M  V30 8401 H 757.308 -1.45965 0.182355 0
M  V30 8402 H 759.266 -3.63964 -2.03927 0
M  V30 8403 H 757.896 -2.49837 -2.04405 0
M  V30 8404 H 756.948 -3.80399 -0.00651901 0
M  V30 8405 H 758.26 -4.98279 -0.227941 0
M  V30 8406 H 757.414 -5.51794 -2.52206 0
M  V30 8407 H 756.153 -4.26181 -2.3711 0
M  V30 8408 H 755.158 -5.48225 -0.415876 0
M  V30 8409 H 756.383 -6.76548 -0.588135 0
M  V30 8410 H 754.329 -5.98258 -2.69115 0
M  V30 8411 H 754.246 -7.37495 -1.66246 0
M  V30 8412 H 755.514 -7.25697 -2.84576 0
M  V30 8413 N 759.743 -0.201713 -1.56304 0
M  V30 8414 C 760.673 0.71155 -2.22394 0
M  V30 8415 C 761.654 1.21625 -1.18917 0
M  V30 8416 O 762.839 1.26388 -1.47444 0
M  V30 8417 C 759.969 1.92837 -2.88845 0
M  V30 8418 C 758.923 1.55831 -3.98623 0
M  V30 8419 C 758.249 2.85228 -4.52271 0
M  V30 8420 C 759.549 0.763249 -5.16693 0
M  V30 8421 H 761.243 0.160573 -2.98969 0
M  V30 8422 H 758.789 0.0757916 -1.438 0
M  V30 8423 H 760.742 2.57253 -3.33764 0
M  V30 8424 H 759.466 2.50398 -2.09686 0
M  V30 8425 H 758.125 0.9377 -3.54405 0
M  V30 8426 H 757.773 3.40893 -3.69866 0
M  V30 8427 H 757.473 2.6121 -5.26349 0
M  V30 8428 H 758.997 3.50622 -4.99897 0
M  V30 8429 H 760.411 1.31066 -5.58117 0
M  V30 8430 H 758.808 0.620935 -5.96879 0
M  V30 8431 H 759.878 -0.234322 -4.84334 0
M  V30 8432 N 761.222 1.57436 0.0718424 0
M  V30 8433 C 762.45 1.91474 0.783932 0
M  V30 8434 C 762.865 0.797669 1.71122 0
M  V30 8435 O 762.222 -0.228989 1.81058 0
M  V30 8436 C 762.273 3.25259 1.57761 0
M  V30 8437 O 761.994 4.3267 0.687596 0
M  V30 8438 C 763.495 3.7331 2.3907 0
M  V30 8439 H 760.715 0.632901 0.222885 0
M  V30 8440 H 763.259 2.04457 0.0421262 0
M  V30 8441 H 761.414 3.13804 2.27169 0
M  V30 8442 H 761.828 5.09641 1.23962 0
M  V30 8443 H 763.302 4.69551 2.90216 0
M  V30 8444 H 763.779 3.02318 3.18591 0
M  V30 8445 H 764.385 3.8771 1.74818 0
M  V30 8446 N 762.7 -0.34323 1.53817 0
M  V30 8447 C 763.663 -1.40444 1.8113 0
M  V30 8448 C 764.663 -1.45604 0.682366 0
M  V30 8449 O 765.853 -1.45974 0.950649 0
M  V30 8450 C 762.985 -2.79369 1.95361 0
M  V30 8451 H 764.178 -1.17489 2.75928 0
M  V30 8452 H 761.731 -0.577636 1.45234 0
M  V30 8453 H 762.466 -3.07607 1.02707 0
M  V30 8454 H 762.251 -2.7702 2.77493 0
M  V30 8455 H 763.741 -3.56178 2.18008 0
M  V30 8456 N 764.178 -1.45556 -0.604258 0
M  V30 8457 C 765.108 -1.57327 -1.72541 0
M  V30 8458 C 766.089 -0.424637 -1.64714 0
M  V30 8459 O 767.274 -0.648196 -1.83063 0
M  V30 8460 C 764.404 -1.54279 -3.11152 0
M  V30 8461 C 763.358 -2.67893 -3.33792 0
M  V30 8462 C 762.684 -2.499 -4.72709 0
M  V30 8463 C 763.984 -4.0988 -3.23722 0
M  V30 8464 H 765.678 -2.51175 -1.62947 0
M  V30 8465 H 763.224 -1.20884 -0.782504 0
M  V30 8466 H 765.177 -1.6111 -3.89386 0
M  V30 8467 H 763.901 -0.569627 -3.21594 0
M  V30 8468 H 762.56 -2.60495 -2.57949 0
M  V30 8469 H 762.208 -1.50715 -4.79889 0
M  V30 8470 H 761.908 -3.26091 -4.88813 0
M  V30 8471 H 763.432 -2.5859 -5.5314 0
M  V30 8472 H 764.846 -4.18503 -3.91826 0
M  V30 8473 H 763.243 -4.86487 -3.51355 0
M  V30 8474 H 764.313 -4.31553 -2.21111 0
M  V30 8475 N 765.656 0.84705 -1.32902 0
M  V30 8476 C 766.604 1.97765 -1.22441 0
M  V30 8477 C 767.598 1.68919 -0.127546 0
M  V30 8478 O 768.804 1.77633 -0.290973 0
M  V30 8479 H 765.179 0.649072 -0.379748 0
M  V30 8480 H 767.15 2.03713 -2.18044 0
M  V30 8481 C 765.899 3.33834 -0.972125 0
M  V30 8482 H 765.222 3.56564 -1.80837 0
M  V30 8483 H 766.662 4.13467 -0.939209 0
M  V30 8484 C 765.121 3.35328 0.325059 0
M  V30 8485 O 765.651 3.78887 1.33445 0
M  V30 8486 N 763.857 2.88488 0.349718 0
M  V30 8487 H 763.404 2.53234 -0.472236 0
M  V30 8488 H 763.362 2.8987 1.21748 0
M  V30 8489 N 767.134 1.16236 1.06428 0
M  V30 8490 C 768.411 0.853294 1.76006 0
M  V30 8491 C 768.791 -0.649162 2.00871 0
M  V30 8492 O 768.139 -1.59653 1.63472 0
M  V30 8493 C 768.349 1.67448 3.06206 0
M  V30 8494 C 769.697 1.8866 3.80385 0
M  V30 8495 O 770.721 1.64303 3.16043 0
M  V30 8496 O 769.58 2.29518 4.95968 0
M  V30 8497 H 766.674 0.314737 0.764767 0
M  V30 8498 H 769.22 1.26865 1.12709 0
M  V30 8499 H 767.992 2.69411 2.83784 0
M  V30 8500 H 767.615 1.25608 3.77238 0
M  V30 8501 N 768.612 -1.24939 0.960631 0
M  V30 8502 C 769.837 -1.9742 0.635608 0
M  V30 8503 C 770.262 -1.70857 -0.786737 0
M  V30 8504 O 769.62 -0.968063 -1.53291 0
M  V30 8505 C 769.668 -3.48987 0.907771 0
M  V30 8506 O 768.772 -4.12399 -0.0104053 0
M  V30 8507 H 768.113 -0.61871 0.241027 0
M  V30 8508 H 770.643 -1.58901 1.28886 0
M  V30 8509 H 770.653 -3.99334 0.836453 0
M  V30 8510 H 769.328 -3.6765 1.94439 0
M  V30 8511 H 767.905 -3.72727 0.113631 0
M  V30 8512 N 770.09 -0.729906 -1.39679 0
M  V30 8513 C 771.315 -0.284345 -2.05442 0
M  V30 8514 C 771.74 1.07056 -1.54663 0
M  V30 8515 O 771.098 1.67732 -0.688157 0
M  V30 8516 C 771.146 -0.290089 -3.59431 0
M  V30 8517 O 770.25 0.723978 -4.05995 0
M  V30 8518 H 769.591 -0.130311 -0.651088 0
M  V30 8519 H 772.121 -0.994403 -1.78809 0
M  V30 8520 H 772.131 -0.132712 -4.07784 0
M  V30 8521 H 770.806 -1.27877 -3.95753 0
M  V30 8522 H 769.383 0.533154 -3.69069 0
M  V30 8523 N 771.568 1.50203 -0.477153 0
M  V30 8524 C 772.498 2.31517 0.303646 0
M  V30 8525 C 773.479 1.38696 0.984753 0
M  V30 8526 O 774.664 1.67615 0.980758 0
M  V30 8527 C 771.794 3.18598 1.38249 0
M  V30 8528 C 770.748 4.2002 0.822645 0
M  V30 8529 C 770.074 4.95878 2.00024 0
M  V30 8530 C 771.374 5.22023 -0.170185 0
M  V30 8531 H 773.068 2.97042 -0.375027 0
M  V30 8532 H 770.614 1.42848 -0.181802 0
M  V30 8533 H 772.567 3.74282 1.93625 0
M  V30 8534 H 771.291 2.5097 2.09002 0
M  V30 8535 H 769.95 3.65445 0.290813 0
M  V30 8536 H 769.598 4.24717 2.69489 0
M  V30 8537 H 769.298 5.64487 1.63183 0
M  V30 8538 H 770.822 5.54399 2.55878 0
M  V30 8539 H 772.236 5.72543 0.294606 0
M  V30 8540 H 770.633 5.98386 -0.453181 0
M  V30 8541 H 771.703 4.72396 -1.09408 0
M  V30 8542 N 773.046 0.209999 1.56195 0
M  V30 8543 C 774.323 -0.473214 1.89789 0
M  V30 8544 C 774.703 -1.78581 1.1257 0
M  V30 8545 O 774.051 -2.27325 0.231398 0
M  V30 8546 C 774.261 -0.677458 3.42362 0
M  V30 8547 C 775.609 -0.990114 4.12895 0
M  V30 8548 O 776.633 -0.764655 3.47896 0
M  V30 8549 O 775.492 -1.41737 5.278 0
M  V30 8550 H 772.586 -0.248622 0.788743 0
M  V30 8551 H 775.132 0.251324 1.67829 0
M  V30 8552 H 773.904 0.248878 3.90508 0
M  V30 8553 H 773.527 -1.45391 3.70064 0
M  V30 8554 N 774.524 -1.57472 -0.0634922 0
M  V30 8555 C 775.454 -2.07297 -1.07473 0
M  V30 8556 C 776.435 -0.968162 -1.39859 0
M  V30 8557 O 777.62 -1.24139 -1.49343 0
M  V30 8558 C 774.75 -2.52381 -2.38581 0
M  V30 8559 C 773.704 -3.66813 -2.20526 0
M  V30 8560 C 773.03 -3.97982 -3.57092 0
M  V30 8561 C 774.33 -4.96553 -1.61965 0
M  V30 8562 H 776.024 -2.92033 -0.660092 0
M  V30 8563 H 773.57 -1.40488 -0.316074 0
M  V30 8564 H 775.523 -2.85852 -3.09624 0
M  V30 8565 H 774.247 -1.64684 -2.8204 0
M  V30 8566 H 772.906 -3.33639 -1.51924 0
M  V30 8567 H 772.554 -3.07403 -3.98136 0
M  V30 8568 H 772.254 -4.7504 -3.45848 0
M  V30 8569 H 773.778 -4.33956 -4.29552 0
M  V30 8570 H 775.192 -5.28201 -2.22883 0
M  V30 8571 H 773.589 -5.7799 -1.61394 0
M  V30 8572 H 774.659 -4.81396 -0.581918 0
M  V30 8573 N 776.003 0.335068 -1.53997 0
M  V30 8574 C 777.228 1.09859 -1.75914 0
M  V30 8575 C 777.653 1.81308 -0.500915 0
M  V30 8576 O 777.011 1.72854 0.54693 0
M  V30 8577 C 777.059 2.08122 -2.94478 0
M  V30 8578 O 776.163 3.15805 -2.65219 0
M  V30 8579 H 775.504 0.317313 -0.583274 0
M  V30 8580 H 778.034 0.382872 -2.00986 0
M  V30 8581 H 778.044 2.51195 -3.21504 0
M  V30 8582 H 776.719 1.55517 -3.8573 0
M  V30 8583 H 775.296 2.77489 -2.49107 0
M  V30 8584 N 777.481 1.45874 0.596531 0
M  V30 8585 C 778.414 1.49889 1.72071 0
M  V30 8586 C 779.392 0.354224 1.58695 0
M  V30 8587 O 780.576 0.556355 1.80103 0
M  V30 8588 C 777.703 1.3644 3.10003 0
M  V30 8589 C 776.749 2.54913 3.41938 0
M  V30 8590 S 777.582 4.17336 3.35545 0
M  V30 8591 C 778.738 4.06372 4.76039 0
M  V30 8592 H 778.971 2.45005 1.68404 0
M  V30 8593 H 776.504 1.33592 0.77412 0
M  V30 8594 H 778.462 1.29368 3.89582 0
M  V30 8595 H 777.123 0.427762 3.11174 0
M  V30 8596 H 776.316 2.41458 4.42396 0
M  V30 8597 H 775.918 2.58904 2.69898 0
M  V30 8598 H 778.21 3.72199 5.66105 0
M  V30 8599 H 779.153 5.0678 4.9455 0
M  V30 8600 H 779.561 3.37846 4.52239 0
M  V30 8601 N 778.959 -0.83999 1.33349 0
M  V30 8602 C 780.236 -1.57973 1.15342 0
M  V30 8603 C 780.616 -2.09226 -0.280632 0
M  V30 8604 O 779.964 -1.89317 -1.2795 0
M  V30 8605 C 780.174 -2.71446 2.19359 0
M  V30 8606 C 781.522 -3.40654 2.53456 0
M  V30 8607 O 782.546 -2.81686 2.18017 0
M  V30 8608 O 781.405 -4.47101 3.14266 0
M  V30 8609 H 778.499 -0.6964 0.446044 0
M  V30 8610 H 781.045 -0.882843 1.44927 0
M  V30 8611 H 779.817 -2.31205 3.1569 0
M  V30 8612 H 779.44 -3.488 1.90852 0
M  V30 8613 N 780.437 -1.16799 -1.0581 0
M  V30 8614 C 781.662 -0.977402 -1.82925 0
M  V30 8615 C 782.087 0.469514 -1.82146 0
M  V30 8616 O 781.445 1.33576 -1.22585 0
M  V30 8617 C 781.493 -1.51543 -3.27211 0
M  V30 8618 O 780.597 -0.725021 -4.05977 0
M  V30 8619 H 779.938 -0.347474 -0.565825 0
M  V30 8620 H 782.468 -1.55151 -1.33376 0
M  V30 8621 H 782.478 -1.53502 -3.78023 0
M  V30 8622 H 781.153 -2.56872 -3.27093 0
M  V30 8623 H 779.73 -0.77634 -3.64729 0
M  V30 8624 N 781.915 1.24427 -0.967243 0
M  V30 8625 C 783.192 1.87831 -0.545776 0
M  V30 8626 C 783.572 1.87126 0.977099 0
M  V30 8627 O 782.92 1.34357 1.84826 0
M  V30 8628 C 783.13 3.29967 -1.13679 0
M  V30 8629 C 784.478 4.06654 -1.22139 0
M  V30 8630 O 785.502 3.39136 -1.08926 0
M  V30 8631 O 784.361 5.27455 -1.43017 0
M  V30 8632 H 781.455 0.806745 -0.181912 0
M  V30 8633 H 784.001 1.32403 -1.06148 0
M  V30 8634 H 782.773 3.24977 -2.17958 0
M  V30 8635 H 782.396 3.92969 -0.605093 0
M  V30 8636 N 783.393 0.737304 1.3929 0
M  V30 8637 C 784.341 0.0879867 2.32434 0
M  V30 8638 C 785.335 -0.723324 1.53181 0
M  V30 8639 O 786.541 -0.624251 1.68829 0
M  V30 8640 H 782.916 0.00965277 0.751938 0
M  V30 8641 H 784.887 0.889915 2.84821 0
M  V30 8642 C 783.636 -0.803384 3.38291 0
M  V30 8643 H 782.959 -0.18849 3.99355 0
M  V30 8644 H 784.399 -1.22528 4.0591 0
M  V30 8645 C 782.858 -1.93872 2.75527 0
M  V30 8646 O 783.388 -3.03154 2.63553 0
M  V30 8647 N 781.594 -1.72883 2.3358 0
M  V30 8648 H 781.141 -0.840005 2.43519 0
M  V30 8649 H 781.099 -2.49021 1.91927 0
M  V30 8650 N 784.871 -1.49948 0.485112 0
M  V30 8651 C 786.096 -2.073 -0.0645059 0
M  V30 8652 C 786.521 -1.345 -1.31497 0
M  V30 8653 O 785.879 -0.39687 -1.76903 0
M  V30 8654 C 785.927 -3.59201 -0.317304 0
M  V30 8655 O 785.031 -3.88085 -1.39514 0
M  V30 8656 H 784.372 -0.663723 0.0191822 0
M  V30 8657 H 786.902 -1.92963 0.680179 0
M  V30 8658 H 786.912 -4.04227 -0.553604 0
M  V30 8659 H 785.587 -4.11602 0.596387 0
M  V30 8660 H 784.164 -3.54885 -1.14504 0
M  V30 8661 N 786.349 -0.21828 -1.56081 0
M  V30 8662 C 787.282 0.733096 -2.16104 0
M  V30 8663 C 788.26 1.19333 -1.10447 0
M  V30 8664 O 789.444 1.27666 -1.38685 0
M  V30 8665 C 786.571 1.99283 -2.73868 0
M  V30 8666 C 785.617 1.67285 -3.92324 0
M  V30 8667 S 786.45 0.800511 -5.29483 0
M  V30 8668 C 787.606 2.06988 -5.90683 0
M  V30 8669 H 787.839 0.222917 -2.96463 0
M  V30 8670 H 785.372 -0.00300946 -1.544 0
M  V30 8671 H 787.33 2.71618 -3.07789 0
M  V30 8672 H 785.991 2.47414 -1.93508 0
M  V30 8673 H 785.184 2.60874 -4.31232 0
M  V30 8674 H 784.786 1.03016 -3.59533 0
M  V30 8675 H 787.078 3.02019 -6.06457 0
M  V30 8676 H 788.021 1.72476 -6.86773 0
M  V30 8677 H 788.429 2.20893 -5.19487 0
M  V30 8678 N 787.827 1.57504 0.0551401 0
M  V30 8679 C 789.052 1.92682 0.767352 0
M  V30 8680 C 789.477 0.81614 1.69472 0
M  V30 8681 O 788.835 -0.229989 1.79835 0
M  V30 8682 C 788.883 3.26866 1.52286 0
M  V30 8683 O 787.987 3.17274 2.63459 0
M  V30 8684 H 787.328 0.630502 0.208238 0
M  V30 8685 H 789.858 2.04592 0.0184026 0
M  V30 8686 H 789.868 3.61138 1.8985 0
M  V30 8687 H 788.543 4.07276 0.842541 0
M  V30 8688 H 787.12 2.94589 2.2863 0
M  V30 8689 N 789.305 -0.326896 1.54172 0
M  V30 8690 C 790.551 -1.06681 1.72473 0
M  V30 8691 C 790.884 -1.87779 0.49523 0
M  V30 8692 O 790.159 -1.87754 -0.507803 0
M  V30 8693 C 790.442 -1.99429 2.99834 0
M  V30 8694 C 790.295 -1.21682 4.33028 0
M  V30 8695 C 791.614 -2.99002 3.22933 0
M  V30 8696 H 788.733 -0.386438 0.627563 0
M  V30 8697 H 791.375 -0.343779 1.86864 0
M  V30 8698 H 789.525 -2.61081 2.87696 0
M  V30 8699 H 791.197 -0.625153 4.57044 0
M  V30 8700 H 789.44 -0.519045 4.30684 0
M  V30 8701 H 790.111 -1.89766 5.18356 0
M  V30 8702 H 792.587 -2.4747 3.34511 0
M  V30 8703 H 791.463 -3.61085 4.13412 0
M  V30 8704 H 791.724 -3.71281 2.40006 0
M  V30 8705 N 790.784 -1.46188 -0.588786 0
M  V30 8706 C 792.195 -1.45421 -1.17088 0
M  V30 8707 C 792.546 -0.191801 -1.9526 0
M  V30 8708 O 791.671 0.705497 -2.04577 0
M  V30 8709 C 792.266 -2.63467 -2.13004 0
M  V30 8710 C 790.825 -2.6576 -2.6655 0
M  V30 8711 C 789.972 -2.38002 -1.42304 0
M  V30 8712 H 792.923 -1.54156 -0.377052 0
M  V30 8713 H 792.944 -2.38638 -2.96365 0
M  V30 8714 H 792.456 -3.55331 -1.56081 0
M  V30 8715 H 790.557 -1.77952 -3.27359 0
M  V30 8716 H 790.67 -3.65545 -3.09699 0
M  V30 8717 H 789.034 -1.87936 -1.71907 0
M  V30 8718 H 789.817 -3.32035 -0.872209 0
M  V30 8719 N 792.262 0.832906 -1.33792 0
M  V30 8720 C 793.487 1.62568 -1.28788 0
M  V30 8721 C 793.912 1.87599 0.137246 0
M  V30 8722 O 793.27 1.44436 1.0958 0
M  V30 8723 C 793.318 2.9495 -2.07453 0
M  V30 8724 O 792.422 3.86546 -1.43722 0
M  V30 8725 H 791.763 0.494809 -0.442787 0
M  V30 8726 H 794.293 1.03578 -1.76445 0
M  V30 8727 H 794.303 3.44599 -2.1844 0
M  V30 8728 H 792.978 2.76055 -3.11073 0
M  V30 8729 H 791.555 3.45044 -1.41417 0
M  V30 8730 N 793.74 1.17359 1.05189 0
M  V30 8731 C 795.151 0.96793 1.5965 0
M  V30 8732 C 795.502 -0.485355 1.90102 0
M  V30 8733 O 794.627 -1.36066 1.6827 0
M  V30 8734 C 795.222 1.75068 2.90063 0
M  V30 8735 C 793.781 1.58969 3.41183 0
M  V30 8736 C 792.928 1.75231 2.14917 0
M  V30 8737 H 795.879 1.32067 0.880001 0
M  V30 8738 H 795.9 1.23308 3.59966 0
M  V30 8739 H 795.412 2.80835 2.67868 0
M  V30 8740 H 793.513 0.556906 3.68415 0
M  V30 8741 H 793.626 2.38067 4.15766 0
M  V30 8742 H 791.99 1.18073 2.25679 0
M  V30 8743 H 792.773 2.8241 1.95191 0
M  V30 8744 N 795.218 -1.23913 0.973828 0
M  V30 8745 C 796.446 -1.96195 0.656891 0
M  V30 8746 C 796.861 -1.72166 -0.774876 0
M  V30 8747 O 796.218 -1.0091 -1.52064 0
M  V30 8748 C 796.269 -3.49342 0.929638 0
M  V30 8749 O 795.99 -3.72553 2.30512 0
M  V30 8750 C 797.491 -4.38833 0.627739 0
M  V30 8751 H 794.711 -0.624841 0.244572 0
M  V30 8752 H 797.255 -1.57579 1.30343 0
M  V30 8753 H 795.41 -3.85999 0.329216 0
M  V30 8754 H 795.824 -4.66893 2.3898 0
M  V30 8755 H 797.298 -5.45117 0.868991 0
M  V30 8756 H 797.775 -4.37009 -0.438104 0
M  V30 8757 H 798.381 -4.07773 1.20834 0
M  V30 8758 N 796.696 -0.74468 -1.38897 0
M  V30 8759 C 797.921 -0.306119 -2.05128 0
M  V30 8760 C 798.346 1.0541 -1.55789 0
M  V30 8761 O 797.704 1.66993 -0.705909 0
M  V30 8762 C 797.752 -0.328195 -3.59103 0
M  V30 8763 O 796.856 0.680876 -4.06741 0
M  V30 8764 H 796.197 -0.137209 -0.649669 0
M  V30 8765 H 798.727 -1.01331 -1.77745 0
M  V30 8766 H 798.737 -0.175956 -4.0762 0
M  V30 8767 H 797.412 -1.32067 -3.94374 0
M  V30 8768 H 795.989 0.49398 -3.69614 0
M  V30 8769 N 798.174 1.49689 -0.493057 0
M  V30 8770 C 799.137 2.27502 0.278485 0
M  V30 8771 C 800.137 1.33184 0.901037 0
M  V30 8772 O 801.327 1.56415 0.766801 0
M  V30 8773 C 798.459 3.10881 1.39878 0
M  V30 8774 H 799.652 2.97163 -0.404219 0
M  V30 8775 H 797.205 1.54324 -0.247774 0
M  V30 8776 H 797.94 2.45767 2.11587 0
M  V30 8777 H 797.725 3.80219 0.957924 0
M  V30 8778 H 799.215 3.69673 1.94247 0
M  V30 8779 N 799.652 0.226554 1.55963 0
M  V30 8780 C 800.88 -0.408507 2.02827 0
M  V30 8781 C 801.295 -1.52994 1.10627 0
M  V30 8782 O 800.652 -1.82126 0.116809 0
M  V30 8783 C 800.703 -0.93545 3.49187 0
M  V30 8784 O 800.424 0.141273 4.37872 0
M  V30 8785 C 801.925 -1.64325 4.11719 0
M  V30 8786 H 799.145 -0.099442 0.66359 0
M  V30 8787 H 801.689 0.344471 2.01578 0
M  V30 8788 H 799.844 -1.63868 3.51036 0
M  V30 8789 H 800.258 -0.25558 5.23877 0
M  V30 8790 H 801.732 -1.9639 5.15883 0
M  V30 8791 H 802.209 -2.55815 3.57009 0
M  V30 8792 H 802.815 -0.9851 4.13734 0
M  V30 8793 N 801.13 -1.57531 -0.0467866 0
M  V30 8794 C 802.077 -2.05387 -1.05285 0
M  V30 8795 C 803.047 -0.939385 -1.36985 0
M  V30 8796 O 804.232 -1.20877 -1.47626 0
M  V30 8797 C 801.372 -2.52343 -2.35408 0
M  V30 8798 C 800.485 -3.77512 -2.10022 0
M  V30 8799 C 799.62 -4.1315 -3.33887 0
M  V30 8800 C 798.659 -5.31286 -3.03976 0
M  V30 8801 N 797.796 -5.62441 -4.20243 0
M  V30 8802 H 802.636 -2.91095 -0.637788 0
M  V30 8803 H 800.173 -1.43939 -0.303322 0
M  V30 8804 H 802.131 -2.77628 -3.11413 0
M  V30 8805 H 800.761 -1.69577 -2.7467 0
M  V30 8806 H 799.813 -3.59417 -1.24594 0
M  V30 8807 H 801.125 -4.63644 -1.83945 0
M  V30 8808 H 800.279 -4.39469 -4.18273 0
M  V30 8809 H 799.018 -3.25634 -3.63062 0
M  V30 8810 H 798.023 -5.04738 -2.17991 0
M  V30 8811 H 799.248 -6.20441 -2.76098 0
M  V30 8812 H 797.194 -4.77885 -4.49402 0
M  V30 8813 H 797.111 -6.43046 -3.97528 0
M  V30 8814 H 798.379 -5.93327 -5.05553 0
M  V30 8815 N 802.608 0.318715 -1.54344 0
M  V30 8816 C 803.836 1.0755 -1.7675 0
M  V30 8817 C 804.251 1.81543 -0.518422 0
M  V30 8818 O 803.608 1.75198 0.511078 0
M  V30 8819 C 803.659 2.06983 -2.96378 0
M  V30 8820 O 803.38 1.35995 -4.16458 0
M  V30 8821 C 804.881 2.94841 -3.31034 0
M  V30 8822 H 802.101 0.319711 -0.589937 0
M  V30 8823 H 804.645 0.363369 -2.01246 0
M  V30 8824 H 802.8 2.73724 -2.74142 0
M  V30 8825 H 803.214 2.02623 -4.83781 0
M  V30 8826 H 804.688 3.60496 -4.18027 0
M  V30 8827 H 805.165 3.62199 -2.48412 0
M  V30 8828 H 805.771 2.33656 -3.55366 0
M  V30 8829 N 804.086 1.46499 0.581025 0
M  V30 8830 C 805.311 1.55708 1.37002 0
M  V30 8831 C 805.736 0.19942 1.8704 0
M  V30 8832 O 805.094 -0.820731 1.61659 0
M  V30 8833 C 805.142 2.56716 2.53238 0
M  V30 8834 O 804.246 2.10336 3.54729 0
M  V30 8835 H 803.587 0.523912 0.407937 0
M  V30 8836 H 806.117 1.92085 0.704602 0
M  V30 8837 H 806.127 2.76378 3.00132 0
M  V30 8838 H 804.802 3.55307 2.16171 0
M  V30 8839 H 803.379 2.00669 3.14303 0
M  V30 8840 N 805.565 -0.825799 1.34232 0
M  V30 8841 C 806.976 -1.39835 1.23706 0
M  V30 8842 C 807.327 -1.95709 -0.138649 0
M  V30 8843 O 806.452 -1.89833 -1.03886 0
M  V30 8844 C 807.047 -2.54203 2.23978 0
M  V30 8845 C 805.606 -3.07374 2.17251 0
M  V30 8846 C 804.753 -1.80232 2.10741 0
M  V30 8847 H 807.704 -0.630442 1.4564 0
M  V30 8848 H 807.725 -3.32214 1.8551 0
M  V30 8849 H 807.237 -2.13506 3.24094 0
M  V30 8850 H 805.338 -3.52583 1.20483 0
M  V30 8851 H 805.451 -3.6666 3.08379 0
M  V30 8852 H 803.815 -2.01012 1.56417 0
M  V30 8853 H 804.598 -1.41713 3.12686 0
M  V30 8854 N 807.043 -1.17915 -1.04565 0
M  V30 8855 C 807.973 -0.925033 -2.14395 0
M  V30 8856 C 808.954 0.135375 -1.6956 0
M  V30 8857 O 810.139 -0.0161774 -1.94193 0
M  V30 8858 C 807.269 -0.444469 -3.44444 0
M  V30 8859 C 806.223 -1.44478 -4.02877 0
M  V30 8860 C 805.549 -0.821933 -5.28345 0
M  V30 8861 C 806.849 -2.81995 -4.39632 0
M  V30 8862 H 808.543 -1.84354 -2.35911 0
M  V30 8863 H 806.089 -0.887806 -1.13375 0
M  V30 8864 H 808.042 -0.254078 -4.20633 0
M  V30 8865 H 806.766 0.509592 -3.226 0
M  V30 8866 H 805.425 -1.62203 -3.28764 0
M  V30 8867 H 805.073 0.139161 -5.02807 0
M  V30 8868 H 804.773 -1.48976 -5.68401 0
M  V30 8869 H 806.297 -0.641959 -6.07216 0
M  V30 8870 H 807.711 -2.67952 -5.06828 0
M  V30 8871 H 806.108 -3.45414 -4.90723 0
M  V30 8872 H 807.178 -3.35927 -3.49687 0
M  V30 8873 N 808.521 1.23394 -0.980386 0
M  V30 8874 C 809.469 2.26872 -0.513018 0
M  V30 8875 C 810.463 1.63853 0.429948 0
M  V30 8876 O 811.669 1.77417 0.303842 0
M  V30 8877 H 808.044 0.737398 -0.147473 0
M  V30 8878 H 810.015 2.63654 -1.39746 0
M  V30 8879 C 808.764 3.47289 0.168962 0
M  V30 8880 H 808.087 3.96033 -0.547546 0
M  V30 8881 H 809.527 4.21502 0.459616 0
M  V30 8882 C 807.986 3.06425 1.40019 0
M  V30 8883 O 808.516 3.14708 2.49643 0
M  V30 8884 N 806.722 2.61339 1.27084 0
M  V30 8885 H 806.269 2.54799 0.378872 0
M  V30 8886 H 806.227 2.34364 2.09573 0
M  V30 8887 N 809.999 0.752036 1.385 0
M  V30 8888 C 811.224 0.316993 2.04963 0
M  V30 8889 C 811.649 -1.04582 1.56346 0
M  V30 8890 O 811.007 -1.66616 0.714755 0
M  V30 8891 C 811.055 0.347235 3.58924 0
M  V30 8892 O 810.159 -0.659296 4.07096 0
M  V30 8893 H 809.5 0.140652 0.648932 0
M  V30 8894 H 812.03 1.02272 1.77205 0
M  V30 8895 H 812.04 0.19757 4.07521 0
M  V30 8896 H 810.715 1.34157 3.93668 0
M  V30 8897 H 809.292 -0.474371 3.6987 0
M  V30 8898 N 811.477 -1.49425 0.500989 0
M  V30 8899 C 812.702 -2.07356 -0.0425154 0
M  V30 8900 C 813.127 -1.35887 -1.30063 0
M  V30 8901 O 812.485 -0.41561 -1.76472 0
M  V30 8902 C 812.533 -3.59518 -0.279188 0
M  V30 8903 O 811.637 -3.89542 -1.3539 0
M  V30 8904 H 810.978 -0.663482 0.0262207 0
M  V30 8905 H 813.508 -1.92231 0.700607 0
M  V30 8906 H 813.518 -4.04791 -0.5107 0
M  V30 8907 H 812.193 -4.10946 0.640009 0
M  V30 8908 H 810.77 -3.56079 -1.10734 0
M  V30 8909 N 812.955 -0.234822 -1.55841 0
M  V30 8910 C 814.203 0.392483 -1.98252 0
M  V30 8911 C 814.524 1.59344 -1.12404 0
M  V30 8912 O 813.794 1.94834 -0.204055 0
M  V30 8913 H 812.374 0.147999 -0.732192 0
M  V30 8914 H 815.036 -0.330804 -1.92072 0
M  V30 8915 H 814.132 0.709829 -3.03921 0
M  V30 8916 N 814.433 1.57553 0.0384317 0
M  V30 8917 C 815.658 1.93485 0.746872 0
M  V30 8918 C 816.083 0.834069 1.68597 0
M  V30 8919 O 815.441 -0.210902 1.80069 0
M  V30 8920 C 815.489 3.28463 1.4881 0
M  V30 8921 O 814.593 3.20051 2.60079 0
M  V30 8922 H 813.934 0.632675 0.201539 0
M  V30 8923 H 816.464 2.046 -0.00329815 0
M  V30 8924 H 816.474 3.63132 1.86009 0
M  V30 8925 H 815.149 4.08147 0.799297 0
M  V30 8926 H 813.726 2.96998 2.25492 0
M  V30 8927 N 815.911 -0.310526 1.54511 0
M  V30 8928 C 817.136 -1.07046 1.7764 0
M  V30 8929 C 817.561 -1.80488 0.529696 0
M  V30 8930 O 816.919 -1.73702 -0.519361 0
M  V30 8931 C 816.967 -2.03411 2.97752 0
M  V30 8932 O 816.071 -3.11545 2.7021 0
M  V30 8933 H 815.412 -0.307994 0.588248 0
M  V30 8934 H 817.942 -0.350848 2.01569 0
M  V30 8935 H 817.952 -2.46048 3.2546 0
M  V30 8936 H 816.627 -1.49361 3.88155 0
M  V30 8937 H 815.204 -2.7349 2.53491 0
M  V30 8938 N 817.389 -1.46805 -0.573248 0
M  V30 8939 C 818.321 -1.54127 -1.6964 0
M  V30 8940 C 819.334 -0.428778 -1.57052 0
M  V30 8941 O 820.523 -0.697612 -1.64303 0
M  V30 8942 C 817.623 -1.41438 -3.07975 0
M  V30 8943 C 816.796 -2.66974 -3.46474 0
M  V30 8944 C 815.855 -2.48349 -4.63906 0
M  V30 8945 O 814.881 -3.22109 -4.69292 0
M  V30 8946 N 816.083 -1.55129 -5.59388 0
M  V30 8947 H 818.848 -2.50971 -1.6381 0
M  V30 8948 H 816.409 -1.42981 -0.759479 0
M  V30 8949 H 818.401 -1.26737 -3.84343 0
M  V30 8950 H 816.971 -0.527388 -3.08119 0
M  V30 8951 H 816.191 -2.9655 -2.59715 0
M  V30 8952 H 817.479 -3.50347 -3.68964 0
M  V30 8953 H 816.877 -0.94324 -5.57781 0
M  V30 8954 H 815.434 -1.46387 -6.35149 0
M  V30 8955 N 818.867 0.818669 -1.34668 0
M  V30 8956 C 820.115 1.57201 -1.27013 0
M  V30 8957 C 820.436 1.94354 0.158599 0
M  V30 8958 O 819.706 1.62626 1.09223 0
M  V30 8959 H 818.286 0.582919 -0.467135 0
M  V30 8960 H 820.948 0.977234 -1.6863 0
M  V30 8961 H 820.044 2.49291 -1.87778 0
M  V30 8962 N 820.346 1.18468 1.03938 0
M  V30 8963 C 821.762 0.934635 1.29371 0
M  V30 8964 C 821.962 -0.399067 1.97509 0
M  V30 8965 O 821.018 -1.13309 2.25648 0
M  V30 8966 C 822.331 2.10111 2.15114 0
M  V30 8967 C 823.879 2.13955 2.28456 0
M  V30 8968 C 824.354 3.30024 3.17566 0
M  V30 8969 N 825.845 3.29893 3.25153 0
M  V30 8970 C 826.58 4.16346 3.94263 0
M  V30 8971 N 826.076 5.12934 4.65693 0
M  V30 8972 N 827.869 4.04256 3.90556 0
M  V30 8973 H 820.02 2.04294 0.581185 0
M  V30 8974 H 822.283 0.892727 0.318971 0
M  V30 8975 H 821.989 3.06572 1.72355 0
M  V30 8976 H 821.863 2.06283 3.15796 0
M  V30 8977 H 824.25 1.18072 2.7045 0
M  V30 8978 H 824.331 2.2184 1.2736 0
M  V30 8979 H 823.975 4.26181 2.76283 0
M  V30 8980 H 823.905 3.19376 4.18697 0
M  V30 8981 H 826.396 2.59969 2.74271 0
M  V30 8982 H 826.709 5.75271 5.16026 0
M  V30 8983 H 825.054 5.16893 4.64593 0
M  V30 8984 H 828.245 3.28083 3.33885 0
M  V30 8985 H 828.418 4.71848 4.44144 0
M  V30 8986 N 821.824 -1.22873 0.986916 0
M  V30 8987 C 822.772 -2.26597 0.525043 0
M  V30 8988 C 823.766 -1.64079 -0.421252 0
M  V30 8989 O 824.972 -1.77576 -0.294429 0
M  V30 8990 H 821.347 -0.736606 0.151381 0
M  V30 8991 H 823.318 -2.62909 1.41142 0
M  V30 8992 C 822.067 -3.47374 -0.150542 0
M  V30 8993 H 821.39 -3.95737 0.568541 0
M  V30 8994 H 822.83 -4.21739 -0.437256 0
M  V30 8995 C 821.289 -3.07163 -1.38392 0
M  V30 8996 O 821.819 -3.16028 -2.47971 0
M  V30 8997 N 820.025 -2.62009 -1.25697 0
M  V30 8998 H 819.572 -2.54996 -0.365355 0
M  V30 8999 H 819.53 -2.35472 -2.08327 0
M  V30 9000 N 823.302 -0.75937 -1.38099 0
M  V30 9001 C 824.527 -0.327859 -2.04792 0
M  V30 9002 C 824.952 1.03752 -1.56899 0
M  V30 9003 O 824.31 1.66235 -0.723581 0
M  V30 9004 C 824.358 -0.366264 -3.58735 0
M  V30 9005 O 823.462 0.637697 -4.0744 0
M  V30 9006 H 822.803 -0.144092 -0.648177 0
M  V30 9007 H 825.333 -1.03211 -1.7666 0
M  V30 9008 H 825.343 -0.219179 -4.07411 0
M  V30 9009 H 824.018 -1.36243 -3.92951 0
M  V30 9010 H 822.595 0.454749 -3.70117 0
M  V30 9011 N 824.78 1.49157 -0.508906 0
M  V30 9012 C 826.191 1.86593 -0.0630975 0
M  V30 9013 C 826.542 1.42051 1.35337 0
M  V30 9014 O 825.667 0.801866 2.00995 0
M  V30 9015 C 826.262 3.38629 -0.107729 0
M  V30 9016 C 824.821 3.75336 0.282776 0
M  V30 9017 C 823.968 2.7317 -0.4768 0
M  V30 9018 H 826.919 1.41362 -0.72128 0
M  V30 9019 H 826.94 3.74271 0.685689 0
M  V30 9020 H 826.452 3.71017 -1.13876 0
M  V30 9021 H 824.553 3.48558 1.31675 0
M  V30 9022 H 824.666 4.79081 -0.0421728 0
M  V30 9023 H 823.03 2.54591 0.0743552 0
M  V30 9024 H 823.813 3.08403 -1.50807 0
M  V30 9025 N 826.258 0.243083 1.55714 0
M  V30 9026 C 827.221 -0.644723 2.19945 0
M  V30 9027 C 828.221 -1.10562 1.16759 0
M  V30 9028 O 829.411 -1.01095 1.41865 0
M  V30 9029 C 826.543 -1.88569 2.83997 0
M  V30 9030 H 827.736 -0.0843839 2.99781 0
M  V30 9031 H 825.289 -0.00647246 1.56299 0
M  V30 9032 H 826.024 -2.48736 2.08089 0
M  V30 9033 H 825.809 -1.56345 3.59581 0
M  V30 9034 H 827.299 -2.51774 3.33166 0
M  V30 9035 N 827.736 -1.57571 -0.0300757 0
M  V30 9036 C 829.147 -1.77567 -0.576802 0
M  V30 9037 C 829.498 -0.874034 -1.75656 0
M  V30 9038 O 828.623 -0.0686124 -2.16291 0
M  V30 9039 C 829.218 -3.22016 -1.05315 0
M  V30 9040 C 827.777 -3.43212 -1.5454 0
M  V30 9041 C 826.924 -2.73061 -0.483033 0
M  V30 9042 H 829.875 -1.57483 0.196151 0
M  V30 9043 H 829.896 -3.28474 -1.92055 0
M  V30 9044 H 829.408 -3.87613 -0.194298 0
M  V30 9045 H 827.509 -2.82788 -2.42615 0
M  V30 9046 H 827.622 -4.5182 -1.5936 0
M  V30 9047 H 825.986 -2.36805 -0.937835 0
M  V30 9048 H 826.769 -3.4134 0.366341 0
M  V30 9049 N 829.214 0.302327 -1.54673 0
M  V30 9050 C 830.177 1.35592 -1.8479 0
M  V30 9051 C 831.177 1.43743 -0.72073 0
M  V30 9052 O 832.367 1.43402 -0.989017 0
M  V30 9053 C 829.499 2.74091 -2.02699 0
M  V30 9054 H 830.692 1.10132 -2.78946 0
M  V30 9055 H 828.245 0.538926 -1.46715 0
M  V30 9056 H 828.98 3.04775 -1.10826 0
M  V30 9057 H 828.765 2.69565 -2.8474 0
M  V30 9058 H 830.255 3.50272 -2.27374 0
M  V30 9059 N 830.692 1.47107 0.565454 0
M  V30 9060 C 831.938 1.53535 1.32495 0
M  V30 9061 C 832.271 0.193537 1.93233 0
M  V30 9062 O 831.546 -0.796956 1.77423 0
M  V30 9063 C 831.829 2.64712 2.4413 0
M  V30 9064 C 831.682 4.08482 1.88314 0
M  V30 9065 C 833.001 2.71853 3.46098 0
M  V30 9066 H 830.12 0.558926 0.480386 0
M  V30 9067 H 832.762 1.79125 0.633575 0
M  V30 9068 H 830.912 2.43023 3.03104 0
M  V30 9069 H 832.584 4.4151 1.33665 0
M  V30 9070 H 830.827 4.17148 1.19037 0
M  V30 9071 H 831.498 4.82032 2.68978 0
M  V30 9072 H 833.974 2.91397 2.97031 0
M  V30 9073 H 832.85 3.51433 4.21646 0
M  V30 9074 H 833.111 1.78584 4.04426 0
M  V30 9075 N 832.17 -0.811516 1.35101 0
M  V30 9076 C 833.398 -1.59981 1.31201 0
M  V30 9077 C 833.813 -1.8847 -0.111552 0
M  V30 9078 O 833.17 -1.48414 -1.06205 0
M  V30 9079 C 833.221 -2.934 2.11184 0
M  V30 9080 O 832.942 -2.66148 3.4799 0
M  V30 9081 C 834.443 -3.87776 2.14813 0
M  V30 9082 H 831.663 -0.496921 0.450899 0
M  V30 9083 H 834.207 -1.00886 1.77883 0
M  V30 9084 H 832.362 -3.49022 1.68115 0
M  V30 9085 H 832.776 -3.51301 3.89471 0
M  V30 9086 H 834.25 -4.7852 2.75178 0
M  V30 9087 H 834.727 -4.23997 1.14556 0
M  V30 9088 H 835.333 -3.3809 2.58022 0
M  V30 9089 N 833.648 -1.19017 -1.03309 0
M  V30 9090 C 834.611 -0.926076 -2.09658 0
M  V30 9091 C 835.611 0.0917077 -1.60538 0
M  V30 9092 O 836.801 -0.142574 -1.73616 0
M  V30 9093 C 833.933 -0.390958 -3.38651 0
M  V30 9094 H 835.126 -1.86923 -2.3452 0
M  V30 9095 H 832.679 -1.00325 -1.19853 0
M  V30 9096 H 833.414 0.558446 -3.19456 0
M  V30 9097 H 833.199 -1.12474 -3.75622 0
M  V30 9098 H 834.689 -0.225131 -4.16993 0
M  V30 9099 N 835.127 1.22348 -0.993418 0
M  V30 9100 C 836.09 2.22522 -0.549251 0
M  V30 9101 C 837.09 1.56529 0.368164 0
M  V30 9102 O 838.28 1.73463 0.16005 0
M  V30 9103 C 835.412 3.40307 0.201037 0
M  V30 9104 H 836.605 2.63332 -1.43515 0
M  V30 9105 H 834.158 1.35407 -0.78068 0
M  V30 9106 H 834.893 3.0497 1.10289 0
M  V30 9107 H 834.678 3.8942 -0.457685 0
M  V30 9108 H 836.168 4.14597 0.499946 0
M  V30 9109 N 836.605 0.766683 1.37694 0
M  V30 9110 C 837.83 0.338715 2.04615 0
M  V30 9111 C 838.255 -1.02918 1.57447 0
M  V30 9112 O 837.613 -1.65849 0.732386 0
M  V30 9113 C 837.661 0.385284 3.58536 0
M  V30 9114 O 836.765 -0.616081 4.07772 0
M  V30 9115 H 836.106 0.147527 0.647404 0
M  V30 9116 H 838.636 1.04146 1.7611 0
M  V30 9117 H 838.646 0.240782 4.07289 0
M  V30 9118 H 837.321 1.38325 3.92223 0
M  V30 9119 H 835.898 -0.435115 3.70353 0
M  V30 9120 N 838.083 -1.48885 0.516809 0
M  V30 9121 C 839.329 -2.02788 -0.0220928 0
M  V30 9122 C 839.662 -1.39433 -1.35175 0
M  V30 9123 O 838.937 -0.535459 -1.86984 0
M  V30 9124 C 839.22 -3.59753 -0.158012 0
M  V30 9125 C 839.073 -4.33611 1.19588 0
M  V30 9126 C 840.392 -4.30984 -0.891133 0
M  V30 9127 H 837.511 -0.736971 -0.00655488 0
M  V30 9128 H 840.153 -1.77746 0.671287 0
M  V30 9129 H 838.303 -3.8122 -0.748568 0
M  V30 9130 H 839.975 -4.23598 1.82653 0
M  V30 9131 H 838.218 -3.95547 1.78116 0
M  V30 9132 H 838.889 -5.41846 1.05391 0
M  V30 9133 H 841.365 -4.14267 -0.39012 0
M  V30 9134 H 840.241 -5.40527 -0.955107 0
M  V30 9135 H 840.502 -3.97336 -1.93847 0
M  V30 9136 N 839.561 -0.251338 -1.55583 0
M  V30 9137 C 840.789 0.376187 -2.03451 0
M  V30 9138 C 841.204 1.51215 -1.13047 0
M  V30 9139 O 840.561 1.81917 -0.145769 0
M  V30 9140 C 840.612 0.879779 -3.50631 0
M  V30 9141 O 840.333 -0.210917 -4.37592 0
M  V30 9142 C 841.834 1.57754 -4.14281 0
M  V30 9143 H 839.054 0.0888722 -0.665089 0
M  V30 9144 H 841.598 -0.376497 -2.01004 0
M  V30 9145 H 839.753 1.58263 -3.53598 0
M  V30 9146 H 840.167 0.172203 -5.24217 0
M  V30 9147 H 841.641 1.88158 -5.18942 0
M  V30 9148 H 842.118 2.50103 -3.61034 0
M  V30 9149 H 842.724 0.919154 -4.15249 0
M  V30 9150 N 841.039 1.57585 0.0217189 0
M  V30 9151 C 841.987 2.08134 1.03842 0
M  V30 9152 C 842.981 0.996662 1.36978 0
M  V30 9153 O 844.187 1.18149 1.35797 0
M  V30 9154 H 840.562 0.664298 0.352438 0
M  V30 9155 H 842.533 2.92583 0.58634 0
M  V30 9156 C 841.282 2.58218 2.32849 0
M  V30 9157 H 840.605 3.41302 2.08214 0
M  V30 9158 H 842.045 2.97289 3.02316 0
M  V30 9159 C 840.504 1.48664 3.02325 0
M  V30 9160 O 841.034 0.857075 3.9245 0
M  V30 9161 N 839.24 1.21938 2.63779 0
M  V30 9162 H 838.787 1.73319 1.90574 0
M  V30 9163 H 838.745 0.488523 3.10581 0
M  V30 9164 N 842.517 -0.29412 1.54831 0
M  V30 9165 C 843.766 -1.02614 1.73647 0
M  V30 9166 C 844.079 -1.88193 0.533162 0
M  V30 9167 O 845.285 -2.64713 0.603275 0
M  V30 9168 C 843.741 -1.87417 3.07251 0
M  V30 9169 C 843.349 -1.06806 4.35082 0
M  V30 9170 C 845.093 -2.60176 3.35423 0
M  V30 9171 C 843 -1.90926 5.59733 0
M  V30 9172 H 841.93 -0.386834 0.647206 0
M  V30 9173 H 844.581 -0.282789 1.81308 0
M  V30 9174 H 842.963 -2.65765 2.93572 0
M  V30 9175 H 844.137 -0.330226 4.59615 0
M  V30 9176 H 842.452 -0.455979 4.13896 0
M  V30 9177 H 845.049 -3.23476 4.25755 0
M  V30 9178 H 845.392 -3.29365 2.54606 0
M  V30 9179 H 845.925 -1.88871 3.50103 0
M  V30 9180 H 842.664 -1.26194 6.43238 0
M  V30 9181 H 842.184 -2.62363 5.39375 0
M  V30 9182 H 843.863 -2.48807 5.97247 0
M  V30 9183 N 843.995 -1.47404 -0.557645 0
M  V30 9184 C 844.927 -1.55917 -1.67995 0
M  V30 9185 C 845.94 -0.445411 -1.56588 0
M  V30 9186 O 847.129 -0.714999 -1.63554 0
M  V30 9187 C 844.229 -1.44697 -3.06457 0
M  V30 9188 C 843.402 -2.70633 -3.43622 0
M  V30 9189 C 842.461 -2.53256 -4.61246 0
M  V30 9190 O 841.487 -3.27068 -4.65849 0
M  V30 9191 N 842.689 -1.61053 -5.57711 0
M  V30 9192 H 845.454 -2.52694 -1.61139 0
M  V30 9193 H 843.015 -1.43778 -0.744271 0
M  V30 9194 H 845.007 -1.30806 -3.82978 0
M  V30 9195 H 843.577 -0.560039 -3.07542 0
M  V30 9196 H 842.797 -2.99288 -2.56555 0
M  V30 9197 H 844.085 -3.5424 -3.65228 0
M  V30 9198 H 843.483 -1.00235 -5.56749 0
M  V30 9199 H 842.04 -1.53115 -6.33561 0
M  V30 9200 N 845.473 0.80434 -1.35529 0
M  V30 9201 C 846.436 1.89788 -1.28503 0
M  V30 9202 C 847.436 1.59601 -0.195983 0
M  V30 9203 O 848.626 1.68292 -0.449827 0
M  V30 9204 C 845.758 3.26255 -0.98847 0
M  V30 9205 H 846.951 1.97436 -2.25741 0
M  V30 9206 H 844.504 1.00046 -1.20086 0
M  V30 9207 H 845.239 3.24294 -0.0200541 0
M  V30 9208 H 845.024 3.49551 -1.77641 0
M  V30 9209 H 846.514 4.06298 -0.964975 0
M  V30 9210 N 846.951 1.19563 1.02676 0
M  V30 9211 C 848.179 1.02488 1.79732 0
M  V30 9212 C 848.594 -0.426302 1.83924 0
M  V30 9213 O 847.951 -1.29609 1.28483 0
M  V30 9214 C 848.002 1.58944 3.24683 0
M  V30 9215 O 847.723 2.98382 3.2078 0
M  V30 9216 C 849.224 1.46681 4.1833 0
M  V30 9217 H 846.444 0.361098 0.565552 0
M  V30 9218 H 848.988 1.58426 1.29311 0
M  V30 9219 H 847.143 1.0715 3.72287 0
M  V30 9220 H 847.557 3.24983 4.11687 0
M  V30 9221 H 849.031 1.90959 5.17918 0
M  V30 9222 H 849.508 0.417663 4.3721 0
M  V30 9223 H 850.114 1.97616 3.76601 0
M  V30 9224 N 848.429 -1.21819 0.999893 0
M  V30 9225 C 849.339 -2.27691 0.565159 0
M  V30 9226 C 850.355 -1.69587 -0.389398 0
M  V30 9227 O 851.531 -1.99786 -0.254499 0
M  V30 9228 C 848.596 -3.46537 -0.106432 0
M  V30 9229 C 847.657 -4.19932 0.891964 0
M  V30 9230 C 846.89 -5.33103 0.252327 0
M  V30 9231 O 847.113 -5.62398 -0.952103 0
M  V30 9232 O 846.047 -5.94184 0.960698 0
M  V30 9233 H 849.873 -2.67059 1.44613 0
M  V30 9234 H 847.458 -1.28119 0.768499 0
M  V30 9235 H 849.34 -4.18631 -0.482301 0
M  V30 9236 H 848.015 -3.09079 -0.961865 0
M  V30 9237 H 846.922 -3.5008 1.3189 0
M  V30 9238 H 848.255 -4.61287 1.71682 0
M  V30 9239 N 849.908 -0.773975 -1.37286 0
M  V30 9240 C 851.154 -0.339809 -1.99933 0
M  V30 9241 C 851.487 1.0815 -1.61299 0
M  V30 9242 O 850.762 1.74442 -0.860252 0
M  V30 9243 C 851.045 -0.485919 -3.56806 0
M  V30 9244 C 850.898 -1.9498 -4.05343 0
M  V30 9245 C 852.217 0.108461 -4.39966 0
M  V30 9246 H 849.336 -0.124944 -0.726332 0
M  V30 9247 H 851.978 -0.977433 -1.6293 0
M  V30 9248 H 850.128 0.0569023 -3.88458 0
M  V30 9249 H 851.8 -2.5525 -3.84246 0
M  V30 9250 H 850.043 -2.45784 -3.57453 0
M  V30 9251 H 850.714 -2.00308 -5.14374 0
M  V30 9252 H 853.19 -0.354722 -4.14585 0
M  V30 9253 H 852.066 -0.0238926 -5.48895 0
M  V30 9254 H 852.327 1.19901 -4.25531 0
M  V30 9255 N 851.386 1.48609 -0.524698 0
M  V30 9256 C 852.611 2.07398 0.00952139 0
M  V30 9257 C 853.036 1.37939 1.27884 0
M  V30 9258 O 852.394 0.443633 1.75788 0
M  V30 9259 C 852.442 3.59916 0.221956 0
M  V30 9260 O 851.546 3.91647 1.29175 0
M  V30 9261 H 850.887 0.662981 -0.0367729 0
M  V30 9262 H 853.417 1.91092 -0.7311 0
M  V30 9263 H 853.427 4.05552 0.446236 0
M  V30 9264 H 852.102 4.09876 -0.705306 0
M  V30 9265 H 850.679 3.57796 1.05055 0
M  V30 9266 N 852.864 0.259585 1.55447 0
M  V30 9267 C 854.11 -0.362143 1.9954 0
M  V30 9268 C 854.443 -1.5666 1.14767 0
M  V30 9269 O 853.718 -1.93319 0.214025 0
M  V30 9270 C 854.001 -0.759588 3.51998 0
M  V30 9271 C 853.854 0.451134 4.47532 0
M  V30 9272 C 855.173 -1.60186 4.09913 0
M  V30 9273 H 852.292 -0.130157 0.725416 0
M  V30 9274 H 854.934 0.363431 1.86492 0
M  V30 9275 H 853.084 -1.3778 3.63248 0
M  V30 9276 H 854.756 1.08965 4.48246 0
M  V30 9277 H 852.999 1.092 4.19831 0
M  V30 9278 H 853.67 0.129518 5.51848 0
M  V30 9279 H 856.146 -1.0799 4.01842 0
M  V30 9280 H 855.022 -1.84879 5.16828 0
M  V30 9281 H 855.283 -2.57787 3.59163 0
M  V30 9282 N 854.342 -1.57594 -0.0133615 0
M  V30 9283 C 855.753 -1.78168 -0.557937 0
M  V30 9284 C 856.104 -0.892616 -1.74719 0
M  V30 9285 O 855.229 -0.0915491 -2.16206 0
M  V30 9286 C 855.824 -3.23115 -1.01894 0
M  V30 9287 C 854.383 -3.44831 -1.50892 0
M  V30 9288 C 853.53 -2.73558 -0.454044 0
M  V30 9289 H 856.481 -1.57266 0.212843 0
M  V30 9290 H 856.502 -3.30493 -1.8856 0
M  V30 9291 H 856.014 -3.87798 -0.153175 0
M  V30 9292 H 854.115 -2.85345 -2.39602 0
M  V30 9293 H 854.228 -4.53485 -1.54559 0
M  V30 9294 H 852.592 -2.37787 -0.912666 0
M  V30 9295 H 853.375 -3.40932 0.402524 0
M  V30 9296 N 855.82 0.285905 -1.54985 0
M  V30 9297 C 856.752 1.37505 -1.83371 0
M  V30 9298 C 857.765 1.46138 -0.717454 0
M  V30 9299 O 858.954 1.48186 -0.995142 0
M  V30 9300 C 856.054 2.7575 -1.97016 0
M  V30 9301 C 855.227 2.89866 -3.27561 0
M  V30 9302 C 854.286 4.08704 -3.31433 0
M  V30 9303 O 853.312 4.00073 -4.04883 0
M  V30 9304 N 854.514 5.20062 -2.57907 0
M  V30 9305 H 857.279 1.13505 -2.77375 0
M  V30 9306 H 854.84 0.476006 -1.54744 0
M  V30 9307 H 856.832 3.5352 -1.96991 0
M  V30 9308 H 855.402 2.9263 -1.09938 0
M  V30 9309 H 854.622 1.99085 -3.40234 0
M  V30 9310 H 855.91 2.96219 -4.13681 0
M  V30 9311 H 855.308 5.29958 -1.97891 0
M  V30 9312 H 853.865 5.96111 -2.63619 0
M  V30 9313 N 857.298 1.47698 0.54982 0
M  V30 9314 C 858.544 1.54931 1.30859 0
M  V30 9315 C 858.877 0.214021 1.93017 0
M  V30 9316 O 858.152 -0.778093 1.78258 0
M  V30 9317 C 858.435 2.67286 2.41309 0
M  V30 9318 C 858.288 4.10457 1.83971 0
M  V30 9319 C 859.607 2.75509 3.43195 0
M  V30 9320 H 856.726 0.56399 0.474431 0
M  V30 9321 H 859.368 1.79787 0.614541 0
M  V30 9322 H 857.518 2.46224 3.0051 0
M  V30 9323 H 859.19 4.42903 1.28974 0
M  V30 9324 H 857.433 4.18387 1.14606 0
M  V30 9325 H 858.104 4.84857 2.63851 0
M  V30 9326 H 860.58 2.94531 2.93923 0
M  V30 9327 H 859.456 3.55886 4.17895 0
M  V30 9328 H 859.717 1.82863 4.02509 0
M  V30 9329 N 858.776 -0.797141 1.35954 0
M  V30 9330 C 859.724 -1.93084 1.29697 0
M  V30 9331 C 860.718 -1.68329 0.190152 0
M  V30 9332 O 861.924 -1.7643 0.3567 0
M  V30 9333 H 858.299 -0.634531 0.403577 0
M  V30 9334 H 860.27 -1.95481 2.25455 0
M  V30 9335 C 859.019 -3.29996 1.09536 0
M  V30 9336 H 858.342 -3.49607 1.93946 0
M  V30 9337 H 859.782 -4.09696 1.09202 0
M  V30 9338 C 858.241 -3.36304 -0.200381 0
M  V30 9339 O 858.771 -3.83579 -1.19291 0
M  V30 9340 N 856.977 -2.89587 -0.242406 0
M  V30 9341 H 856.524 -2.51307 0.565897 0
M  V30 9342 H 856.482 -2.94189 -1.10906 0
M  V30 9343 N 860.254 -1.20106 -1.0204 0
M  V30 9344 C 861.479 -1.0351 -1.79723 0
M  V30 9345 C 861.904 0.411328 -1.83548 0
M  V30 9346 O 861.262 1.29608 -1.26773 0
M  V30 9347 C 861.31 -1.61876 -3.22224 0
M  V30 9348 O 860.414 -0.853813 -4.03465 0
M  V30 9349 H 859.755 -0.365299 -0.554484 0
M  V30 9350 H 862.285 -1.59316 -1.28373 0
M  V30 9351 H 862.295 -1.65451 -3.72948 0
M  V30 9352 H 860.97 -2.67148 -3.18755 0
M  V30 9353 H 859.547 -0.891983 -3.62075 0
M  V30 9354 N 861.732 1.21287 -1.00634 0
M  V30 9355 C 862.957 1.94925 -0.708441 0
M  V30 9356 C 863.382 1.73659 0.722783 0
M  V30 9357 O 862.74 1.02429 1.49593 0
M  V30 9358 C 862.788 3.45377 -1.03667 0
M  V30 9359 O 861.892 4.12153 -0.142661 0
M  V30 9360 H 861.233 0.609338 -0.263824 0
M  V30 9361 H 863.763 1.54008 -1.34695 0
M  V30 9362 H 863.773 3.95954 -0.984086 0
M  V30 9363 H 862.448 3.6018 -2.0795 0
M  V30 9364 H 861.025 3.72048 -0.251888 0
M  V30 9365 N 863.21 0.781244 1.36873 0
M  V30 9366 C 864.12 0.174981 2.33947 0
M  V30 9367 C 865.136 -0.668512 1.60645 0
M  V30 9368 O 866.312 -0.586213 1.9268 0
M  V30 9369 C 863.377 -0.686557 3.39834 0
M  V30 9370 C 862.438 0.174489 4.28945 0
M  V30 9371 C 861.671 -0.646024 5.29776 0
M  V30 9372 O 861.894 -1.88254 5.38439 0
M  V30 9373 O 860.828 -0.0502214 6.01879 0
M  V30 9374 H 864.654 0.977382 2.87543 0
M  V30 9375 H 862.239 0.542559 1.392 0
M  V30 9376 H 864.121 -1.1781 4.04597 0
M  V30 9377 H 862.796 -1.46699 2.8855 0
M  V30 9378 H 861.703 0.712604 3.6725 0
M  V30 9379 H 863.036 0.918232 4.83559 0
M  V30 9380 N 864.689 -1.48329 0.532571 0
M  V30 9381 C 865.914 -2.074 0.00147755 0
M  V30 9382 C 866.339 -1.38615 -1.27151 0
M  V30 9383 O 865.697 -0.452949 -1.75551 0
M  V30 9384 C 865.745 -3.60029 -0.202866 0
M  V30 9385 O 864.849 -3.92327 -1.27097 0
M  V30 9386 H 864.19 -0.662777 0.0402883 0
M  V30 9387 H 866.72 -1.90701 0.741224 0
M  V30 9388 H 866.73 -4.05783 -0.424722 0
M  V30 9389 H 865.405 -4.09496 0.727033 0
M  V30 9390 H 863.982 -3.58348 -1.03156 0
M  V30 9391 N 866.167 -0.267825 -1.55308 0
M  V30 9392 C 867.392 0.357487 -2.04296 0
M  V30 9393 C 867.817 1.49222 -1.14518 0
M  V30 9394 O 867.175 1.80741 -0.142292 0
M  V30 9395 C 867.223 0.822899 -3.51085 0
M  V30 9396 O 866.327 1.93078 -3.6441 0
M  V30 9397 H 865.668 0.075025 -0.659748 0
M  V30 9398 H 868.198 -0.399996 -2.00652 0
M  V30 9399 H 868.208 1.12059 -3.92309 0
M  V30 9400 H 866.883 -0.0073562 -4.15899 0
M  V30 9401 H 865.46 1.63618 -3.35087 0
M  V30 9402 N 867.645 1.57599 0.00500368 0
M  V30 9403 C 868.893 1.89973 0.68953 0
M  V30 9404 C 869.214 0.868531 1.7459 0
M  V30 9405 O 868.484 -0.0947367 1.95671 0
M  V30 9406 H 867.064 0.701153 0.25767 0
M  V30 9407 H 869.726 1.94869 -0.0347392 0
M  V30 9408 H 868.822 2.89584 1.16394 0
M  V30 9409 N 869.123 -0.277682 1.55134 0
M  V30 9410 C 870.371 -1.00791 1.75173 0
M  V30 9411 C 870.692 -1.86987 0.553266 0
M  V30 9412 O 869.962 -1.91079 -0.43195 0
M  V30 9413 H 868.542 -0.375129 0.645978 0
M  V30 9414 H 871.204 -0.303041 1.9253 0
M  V30 9415 H 870.3 -1.64756 2.6507 0
M  V30 9416 N 870.601 -1.47988 -0.541979 0
M  V30 9417 C 871.829 -1.59034 -1.32347 0
M  V30 9418 C 872.244 -0.246123 -1.87189 0
M  V30 9419 O 871.601 0.762889 -1.6579 0
M  V30 9420 C 871.652 -2.62759 -2.48274 0
M  V30 9421 O 871.373 -3.91963 -1.95695 0
M  V30 9422 C 872.874 -2.84133 -3.4027 0
M  V30 9423 H 870.094 -0.536574 -0.402901 0
M  V30 9424 H 872.638 -1.93725 -0.655045 0
M  V30 9425 H 870.793 -2.3096 -3.11025 0
M  V30 9426 H 871.207 -4.48769 -2.7149 0
M  V30 9427 H 872.681 -3.60538 -4.17991 0
M  V30 9428 H 873.158 -1.92512 -3.9476 0
M  V30 9429 H 873.764 -3.17188 -2.83322 0
M  V30 9430 N 872.079 0.78992 -1.36375 0
M  V30 9431 C 873.304 1.58389 -1.33895 0
M  V30 9432 C 873.729 1.8794 0.0774934 0
M  V30 9433 O 873.087 1.4785 1.0493 0
M  V30 9434 C 873.135 2.88201 -2.16732 0
M  V30 9435 O 872.239 3.81778 -1.55946 0
M  V30 9436 H 871.58 0.480471 -0.458305 0
M  V30 9437 H 874.11 0.979119 -1.79651 0
M  V30 9438 H 874.12 3.37475 -2.29292 0
M  V30 9439 H 872.795 2.66019 -3.19698 0
M  V30 9440 H 871.372 3.40371 -1.52323 0
M  V30 9441 N 873.557 1.20646 1.01402 0
M  V30 9442 C 874.782 1.04462 1.79172 0
M  V30 9443 C 875.207 -0.401588 1.83763 0
M  V30 9444 O 874.565 -1.28934 1.27459 0
M  V30 9445 C 874.613 1.63583 3.21361 0
M  V30 9446 O 873.717 0.875198 4.03006 0
M  V30 9447 H 873.058 0.368235 0.552539 0
M  V30 9448 H 875.588 1.59994 1.27526 0
M  V30 9449 H 875.598 1.67426 3.72065 0
M  V30 9450 H 874.273 2.68835 3.17334 0
M  V30 9451 H 872.85 0.911172 3.61597 0
M  V30 9452 N 875.035 -1.20752 1.01276 0
M  V30 9453 C 875.945 -2.27079 0.589277 0
M  V30 9454 C 876.961 -1.6999 -0.371389 0
M  V30 9455 O 878.137 -2.00044 -0.233294 0
M  V30 9456 C 875.202 -3.4663 -0.0696715 0
M  V30 9457 C 874.263 -4.18962 0.936454 0
M  V30 9458 C 873.496 -5.32806 0.308856 0
M  V30 9459 O 873.719 -5.63376 -0.8924 0
M  V30 9460 O 872.653 -5.93131 1.02367 0
M  V30 9461 H 876.479 -2.6551 1.47438 0
M  V30 9462 H 874.064 -1.27297 0.782045 0
M  V30 9463 H 875.946 -4.19119 -0.437873 0
M  V30 9464 H 874.621 -3.10082 -0.929029 0
M  V30 9465 H 873.528 -3.48661 1.35595 0
M  V30 9466 H 874.861 -4.59441 1.76565 0
M  V30 9467 N 876.513 -0.788492 -1.36457 0
M  V30 9468 C 877.738 -0.371224 -2.04051 0
M  V30 9469 C 878.163 1.004 -1.59064 0
M  V30 9470 O 877.521 1.64663 -0.758679 0
M  V30 9471 C 877.569 -0.442275 -3.57877 0
M  V30 9472 O 876.673 0.55113 -4.08701 0
M  V30 9473 H 876.014 -0.157808 -0.644975 0
M  V30 9474 H 878.544 -1.06935 -1.74431 0
M  V30 9475 H 878.554 -0.305548 -4.06854 0
M  V30 9476 H 877.229 -1.44547 -3.89973 0
M  V30 9477 H 875.806 0.37614 -3.70998 0
M  V30 9478 N 877.991 1.48044 -0.54043 0
M  V30 9479 C 879.24 2.01698 -0.00809961 0
M  V30 9480 C 879.553 1.42184 1.34325 0
M  V30 9481 O 880.759 1.87398 1.96454 0
M  V30 9482 C 879.215 3.59882 0.035933 0
M  V30 9483 C 878.823 4.28384 -1.31115 0
M  V30 9484 C 880.567 4.21346 0.51654 0
M  V30 9485 C 878.474 5.78529 -1.22714 0
M  V30 9486 H 877.404 0.754 0.000742174 0
M  V30 9487 H 880.055 1.70204 -0.685775 0
M  V30 9488 H 878.437 3.88264 0.778906 0
M  V30 9489 H 879.611 4.11663 -2.07051 0
M  V30 9490 H 877.926 3.78837 -1.72834 0
M  V30 9491 H 880.523 5.31351 0.597529 0
M  V30 9492 H 880.866 3.87373 1.52473 0
M  V30 9493 H 881.399 3.97432 -0.171064 0
M  V30 9494 H 878.138 6.17093 -2.21081 0
M  V30 9495 H 877.658 5.97634 -0.50931 0
M  V30 9496 H 879.337 6.40395 -0.92216 0
M  V30 9497 N 879.47 0.276058 1.55163 0
M  V30 9498 C 880.881 -0.221516 1.85381 0
M  V30 9499 C 881.232 -1.55372 1.19808 0
M  V30 9500 O 880.357 -2.10855 0.486742 0
M  V30 9501 C 880.952 -0.408706 3.36326 0
M  V30 9502 C 879.511 -0.850512 3.66665 0
M  V30 9503 C 878.658 0.055656 2.77244 0
M  V30 9504 H 881.609 0.497819 1.5069 0
M  V30 9505 H 881.63 -1.24711 3.59482 0
M  V30 9506 H 881.142 0.561052 3.84023 0
M  V30 9507 H 879.243 -1.83171 3.24468 0
M  V30 9508 H 879.356 -0.687181 4.74146 0
M  V30 9509 H 877.72 -0.460819 2.50497 0
M  V30 9510 H 878.503 1.02131 3.27756 0
M  V30 9511 N 880.948 -1.576 0.00335426 0
M  V30 9512 C 881.88 -2.0549 -1.01521 0
M  V30 9513 C 882.893 -0.973441 -1.30491 0
M  V30 9514 O 884.082 -1.25017 -1.27409 0
M  V30 9515 C 881.182 -2.44272 -2.34914 0
M  V30 9516 C 880.355 -3.75191 -2.24835 0
M  V30 9517 C 879.414 -4.00804 -3.40944 0
M  V30 9518 O 878.44 -4.71423 -3.18981 0
M  V30 9519 N 879.642 -3.48961 -4.63904 0
M  V30 9520 H 882.407 -2.93493 -0.60678 0
M  V30 9521 H 879.968 -1.60851 -0.18396 0
M  V30 9522 H 881.96 -2.58518 -3.11369 0
M  V30 9523 H 880.53 -1.6177 -2.67487 0
M  V30 9524 H 879.75 -3.70989 -1.3327 0
M  V30 9525 H 881.038 -4.61013 -2.15277 0
M  V30 9526 H 880.436 -2.9178 -4.84645 0
M  V30 9527 H 878.993 -3.68531 -5.37613 0
M  V30 9528 N 882.426 0.269451 -1.5528 0
M  V30 9529 C 883.654 1.01872 -1.80082 0
M  V30 9530 C 884.069 1.79802 -0.575917 0
M  V30 9531 O 883.426 1.76735 0.455081 0
M  V30 9532 C 883.477 1.9745 -3.02813 0
M  V30 9533 O 883.198 1.22677 -4.20573 0
M  V30 9534 C 884.699 2.8416 -3.40247 0
M  V30 9535 H 881.919 0.300781 -0.59981 0
M  V30 9536 H 884.463 0.29916 -2.023 0
M  V30 9537 H 882.618 2.64864 -2.82712 0
M  V30 9538 H 883.032 1.87129 -4.89982 0
M  V30 9539 H 884.506 3.47014 -4.29284 0
M  V30 9540 H 884.983 3.54113 -2.59809 0
M  V30 9541 H 885.589 2.22232 -3.6262 0
M  V30 9542 N 883.904 1.48273 0.534124 0
M  V30 9543 C 884.867 1.6201 1.62127 0
M  V30 9544 C 885.867 0.493653 1.53035 0
M  V30 9545 O 887.057 0.759337 1.56779 0
M  V30 9546 C 884.189 1.5864 3.01739 0
M  V30 9547 H 885.382 2.58944 1.51288 0
M  V30 9548 H 882.935 1.36808 0.755861 0
M  V30 9549 H 883.67 0.631685 3.18088 0
M  V30 9550 H 883.455 2.40415 3.09747 0
M  V30 9551 H 884.945 1.71438 3.80787 0
M  V30 9552 N 885.382 -0.782676 1.36792 0
M  V30 9553 C 886.61 -1.57162 1.34565 0
M  V30 9554 C 887.025 -1.88664 -0.0715501 0
M  V30 9555 O 886.382 -1.50633 -1.03033 0
M  V30 9556 C 886.433 -2.88854 2.1736 0
M  V30 9557 O 886.154 -2.58707 3.53557 0
M  V30 9558 C 887.655 -3.83132 2.2299 0
M  V30 9559 H 884.875 -0.487245 0.461338 0
M  V30 9560 H 887.419 -0.970905 1.79982 0
M  V30 9561 H 885.574 -3.45377 1.7548 0
M  V30 9562 H 885.988 -3.42961 3.96835 0
M  V30 9563 H 887.462 -4.72575 2.85266 0
M  V30 9564 H 887.939 -4.21472 1.23524 0
M  V30 9565 H 888.545 -3.32541 2.65135 0
M  V30 9566 N 886.86 -1.21182 -1.00761 0
M  V30 9567 C 887.792 -0.926523 -2.09638 0
M  V30 9568 C 888.805 0.0892511 -1.62555 0
M  V30 9569 O 889.994 -0.142915 -1.77927 0
M  V30 9570 C 887.094 -0.369175 -3.36883 0
M  V30 9571 C 886.267 -1.43866 -4.13063 0
M  V30 9572 C 885.326 -0.891015 -5.18601 0
M  V30 9573 O 884.352 -1.57384 -5.47009 0
M  V30 9574 N 885.554 0.295057 -5.7975 0
M  V30 9575 H 888.319 -1.8638 -2.34697 0
M  V30 9576 H 885.88 -1.11671 -1.17223 0
M  V30 9577 H 887.872 0.011534 -4.04698 0
M  V30 9578 H 886.442 0.472861 -3.09003 0
M  V30 9579 H 885.662 -1.99332 -3.40089 0
M  V30 9580 H 886.95 -2.15866 -4.60738 0
M  V30 9581 H 886.348 0.8669 -5.59018 0
M  V30 9582 H 884.905 0.617306 -6.4887 0
M  V30 9583 N 888.338 1.20213 -1.01915 0
M  V30 9584 C 889.749 1.7136 -0.741131 0
M  V30 9585 C 890.1 1.81705 0.740107 0
M  V30 9586 O 889.225 1.48139 1.57746 0
M  V30 9587 C 889.82 3.11231 -1.33869 0
M  V30 9588 C 888.379 3.59677 -1.10948 0
M  V30 9589 C 887.526 2.36809 -1.4428 0
M  V30 9590 H 890.477 1.05191 -1.1883 0
M  V30 9591 H 890.498 3.7342 -0.730585 0
M  V30 9592 H 890.01 3.03669 -2.41675 0
M  V30 9593 H 888.111 3.72568 -0.0492052 0
M  V30 9594 H 888.224 4.44351 -1.79134 0
M  V30 9595 H 886.588 2.39674 -0.861881 0
M  V30 9596 H 887.371 2.31886 -2.53148 0
M  V30 9597 N 889.816 0.795718 1.36037 0
M  V30 9598 C 890.779 0.204318 2.28287 0
M  V30 9599 C 891.779 -0.602017 1.49105 0
M  V30 9600 O 892.969 -0.422089 1.69009 0
M  V30 9601 C 890.101 -0.716431 3.33287 0
M  V30 9602 H 891.294 1.01781 2.821 0
M  V30 9603 H 888.847 0.565588 1.45708 0
M  V30 9604 H 889.582 -1.55403 2.84641 0
M  V30 9605 H 889.367 -0.140096 3.9185 0
M  V30 9606 H 890.857 -1.12488 4.02164 0
M  V30 9607 N 891.294 -1.47756 0.548274 0
M  V30 9608 C 892.543 -2.01691 0.0187961 0
M  V30 9609 C 892.856 -1.42894 -1.33569 0
M  V30 9610 O 894.062 -1.88438 -1.95457 0
M  V30 9611 C 892.518 -3.59896 -0.016847 0
M  V30 9612 C 892.126 -4.27683 1.33385 0
M  V30 9613 C 893.87 -4.21614 -0.494188 0
M  V30 9614 C 891.777 -5.7787 1.2578 0
M  V30 9615 H 890.707 -0.753993 0.00325648 0
M  V30 9616 H 893.358 -1.69838 0.694792 0
M  V30 9617 H 891.74 -3.88672 -0.758304 0
M  V30 9618 H 892.914 -4.10559 2.09232 0
M  V30 9619 H 891.229 -3.77915 1.7484 0
M  V30 9620 H 893.826 -5.3166 -0.569342 0
M  V30 9621 H 894.169 -3.88176 -1.50417 0
M  V30 9622 H 894.702 -3.97336 0.192138 0
M  V30 9623 H 891.441 -6.15912 2.2435 0
M  V30 9624 H 890.961 -5.97355 0.540997 0
M  V30 9625 H 892.64 -6.39897 0.956109 0
M  V30 9626 N 892.772 -0.284283 -1.55015 0
M  V30 9627 C 893.997 0.335799 -2.04664 0
M  V30 9628 C 894.422 1.47999 -1.16094 0
M  V30 9629 O 893.78 1.8058 -0.161454 0
M  V30 9630 C 893.828 0.785615 -3.51938 0
M  V30 9631 O 892.932 1.89202 -3.66437 0
M  V30 9632 H 892.273 0.0680233 -0.660506 0
M  V30 9633 H 894.803 -0.421255 -2.00216 0
M  V30 9634 H 894.813 1.07892 -3.93476 0
M  V30 9635 H 893.488 -0.0514675 -4.15868 0
M  V30 9636 H 892.065 1.60055 -3.36804 0
M  V30 9637 N 894.251 1.57596 -0.0117121 0
M  V30 9638 C 895.662 1.79033 0.529521 0
M  V30 9639 C 896.013 0.920299 1.73277 0
M  V30 9640 O 895.138 0.125934 2.16033 0
M  V30 9641 C 895.733 3.24695 0.967405 0
M  V30 9642 C 894.292 3.47188 1.45387 0
M  V30 9643 C 893.439 2.74245 0.410466 0
M  V30 9644 H 896.39 1.56908 -0.237836 0
M  V30 9645 H 896.411 3.33451 1.83278 0
M  V30 9646 H 895.923 3.87992 0.0914605 0
M  V30 9647 H 894.024 2.89121 2.35032 0
M  V30 9648 H 894.137 4.55886 1.47325 0
M  V30 9649 H 892.501 2.39209 0.874721 0
M  V30 9650 H 893.284 3.40248 -0.456713 0
M  V30 9651 N 895.729 -0.261212 1.5542 0
M  V30 9652 C 897.14 -0.83138 1.67167 0
M  V30 9653 C 897.491 -1.8659 0.606525 0
M  V30 9654 O 896.616 -2.14953 -0.24985 0
M  V30 9655 C 897.211 -1.51475 3.03052 0
M  V30 9656 C 895.77 -2.0328 3.16787 0
M  V30 9657 C 894.917 -0.878903 2.63003 0
M  V30 9658 H 897.868 -0.0373102 1.58656 0
M  V30 9659 H 897.889 -2.38222 2.96699 0
M  V30 9660 H 897.401 -0.76157 3.80554 0
M  V30 9661 H 895.502 -2.81523 2.44082 0
M  V30 9662 H 895.615 -2.24001 4.2351 0
M  V30 9663 H 893.979 -1.27551 2.2046 0
M  V30 9664 H 894.762 -0.13904 3.43018 0
M  V30 9665 N 897.207 -1.48554 -0.526253 0
M  V30 9666 C 898.618 -1.50256 -1.10815 0
M  V30 9667 C 898.969 -0.274445 -1.94271 0
M  V30 9668 O 898.094 0.618094 -2.07385 0
M  V30 9669 C 898.689 -2.72264 -2.01638 0
M  V30 9670 C 897.248 -2.76826 -2.55038 0
M  V30 9671 C 896.395 -2.43823 -1.32081 0
M  V30 9672 H 899.346 -1.55616 -0.31133 0
M  V30 9673 H 899.367 -2.50993 -2.85977 0
M  V30 9674 H 898.879 -3.61632 -1.4087 0
M  V30 9675 H 896.98 -1.91676 -3.19517 0
M  V30 9676 H 897.093 -3.78351 -2.93917 0
M  V30 9677 H 895.457 -1.95058 -1.63781 0
M  V30 9678 H 896.24 -3.35436 -0.730596 0
M  V30 9679 N 898.685 0.775411 -1.37205 0
M  V30 9680 C 899.632 1.88857 -1.32671 0
M  V30 9681 C 900.602 1.64976 -0.192899 0
M  V30 9682 O 901.787 1.86944 -0.381673 0
M  V30 9683 C 898.927 3.25871 -1.13588 0
M  V30 9684 C 898.04 3.61731 -2.36167 0
M  V30 9685 C 897.175 4.87934 -2.09985 0
M  V30 9686 C 896.214 5.16514 -3.2845 0
M  V30 9687 N 895.351 6.33905 -3.01842 0
M  V30 9688 H 900.191 1.92068 -2.27846 0
M  V30 9689 H 897.728 0.939066 -1.13225 0
M  V30 9690 H 899.686 4.04903 -1.00546 0
M  V30 9691 H 898.316 3.22045 -0.220613 0
M  V30 9692 H 897.368 2.77712 -2.59962 0
M  V30 9693 H 898.68 3.78792 -3.24528 0
M  V30 9694 H 897.834 5.74863 -1.93953 0
M  V30 9695 H 896.573 4.7297 -1.18956 0
M  V30 9696 H 895.578 4.28063 -3.45025 0
M  V30 9697 H 896.803 5.33389 -4.20325 0
M  V30 9698 H 894.749 6.20306 -2.13439 0
M  V30 9699 H 894.666 6.51364 -3.83746 0
M  V30 9700 H 895.934 7.23779 -2.8942 0
M  V30 9701 N 900.163 1.21714 1.00117 0
M  V30 9702 C 901.574 1.03477 1.55401 0
M  V30 9703 C 901.925 -0.40429 1.91989 0
M  V30 9704 O 901.05 -1.28807 1.7389 0
M  V30 9705 C 901.645 1.87213 2.82377 0
M  V30 9706 C 900.204 1.73297 3.34133 0
M  V30 9707 C 899.351 1.84189 2.07291 0
M  V30 9708 H 902.302 1.3568 0.823195 0
M  V30 9709 H 902.323 1.38465 3.54412 0
M  V30 9710 H 901.835 2.91944 2.55715 0
M  V30 9711 H 899.936 0.712662 3.65721 0
M  V30 9712 H 900.049 2.55486 4.05294 0
M  V30 9713 H 898.413 1.27538 2.20468 0
M  V30 9714 H 899.196 2.90435 1.83037 0
M  V30 9715 N 901.641 -1.19671 1.02551 0
M  V30 9716 C 902.869 -1.93233 0.739513 0
M  V30 9717 C 903.284 -1.75298 -0.701158 0
M  V30 9718 O 902.641 -1.07269 -1.47647 0
M  V30 9719 C 902.692 -3.45085 1.07697 0
M  V30 9720 O 902.413 -3.62441 2.46106 0
M  V30 9721 C 903.914 -4.35776 0.813298 0
M  V30 9722 H 901.134 -0.613905 0.270853 0
M  V30 9723 H 903.678 -1.51909 1.36909 0
M  V30 9724 H 901.833 -3.84255 0.492635 0
M  V30 9725 H 902.247 -4.56337 2.58567 0
M  V30 9726 H 903.721 -5.40941 1.09941 0
M  V30 9727 H 904.198 -4.38474 -0.252359 0
M  V30 9728 H 904.804 -4.02282 1.38021 0
M  V30 9729 N 903.119 -0.802921 -1.35613 0
M  V30 9730 C 904.365 -0.382141 -1.99167 0
M  V30 9731 C 904.698 1.04704 -1.63556 0
M  V30 9732 O 903.973 1.72578 -0.89706 0
M  V30 9733 C 904.256 -0.561493 -3.55695 0
M  V30 9734 C 904.109 -2.03534 -4.01116 0
M  V30 9735 C 905.428 0.0151135 -4.40097 0
M  V30 9736 H 902.547 -0.140322 -0.723518 0
M  V30 9737 H 905.189 -1.01177 -1.6082 0
M  V30 9738 H 903.339 -0.0255083 -3.88492 0
M  V30 9739 H 905.011 -2.63343 -3.78746 0
M  V30 9740 H 903.254 -2.5331 -3.52159 0
M  V30 9741 H 903.925 -2.11173 -5.1001 0
M  V30 9742 H 906.401 -0.442582 -4.1374 0
M  V30 9743 H 905.277 -0.140316 -5.48721 0
M  V30 9744 H 905.538 1.10848 -4.27978 0
M  V30 9745 N 904.597 1.47463 -0.556102 0
M  V30 9746 C 905.822 2.07371 -0.0344729 0
M  V30 9747 C 906.247 1.40621 1.2493 0
M  V30 9748 O 905.605 0.48082 1.74808 0
M  V30 9749 C 905.653 3.60306 0.145563 0
M  V30 9750 O 904.757 3.94299 1.20839 0
M  V30 9751 H 904.098 0.662052 -0.0508274 0
M  V30 9752 H 906.628 1.89498 -0.771469 0
M  V30 9753 H 906.638 4.06408 0.360112 0
M  V30 9754 H 905.313 4.08288 -0.792089 0
M  V30 9755 H 903.89 3.59944 0.97442 0
M  V30 9756 N 906.075 0.2925 1.54862 0
M  V30 9757 C 907.491 -0.0611461 1.59483 0
M  V30 9758 C 907.691 -1.53141 1.30958 0
M  V30 9759 O 906.747 -2.28291 1.07887 0
M  V30 9760 C 908.06 0.329143 2.98893 0
M  V30 9761 C 909.608 0.2772 3.1177 0
M  V30 9762 C 910.083 0.642185 4.53475 0
M  V30 9763 N 911.574 0.594396 4.5937 0
M  V30 9764 C 912.309 0.849385 5.67074 0
M  V30 9765 N 911.805 1.1699 6.82851 0
M  V30 9766 N 913.598 0.777016 5.56704 0
M  V30 9767 H 905.749 1.25079 1.71665 0
M  V30 9768 H 908.012 0.506516 0.80134 0
M  V30 9769 H 907.718 1.35233 3.24661 0
M  V30 9770 H 907.592 -0.321442 3.75828 0
M  V30 9771 H 909.979 -0.736725 2.85756 0
M  V30 9772 H 910.06 0.962289 2.3701 0
M  V30 9773 H 909.704 1.65388 4.80218 0
M  V30 9774 H 909.634 -0.0648831 5.2656 0
M  V30 9775 H 912.125 0.357256 3.76208 0
M  V30 9776 H 912.438 1.35067 7.60905 0
M  V30 9777 H 910.783 1.20785 6.84424 0
M  V30 9778 H 913.974 0.526333 4.65132 0
M  V30 9779 H 914.147 0.979113 6.4056 0
M  V30 9780 N 907.553 -1.57587 0.0200696 0
M  V30 9781 C 908.799 -1.91708 -0.661503 0
M  V30 9782 C 909.132 -0.895968 -1.72296 0
M  V30 9783 O 908.407 0.082577 -1.94325 0
M  V30 9784 C 908.69 -3.36344 -1.28627 0
M  V30 9785 C 908.543 -4.49186 -0.234982 0
M  V30 9786 C 909.862 -3.80771 -2.20685 0
M  V30 9787 H 906.981 -0.69717 -0.239005 0
M  V30 9788 H 909.623 -1.8985 0.0754764 0
M  V30 9789 H 907.773 -3.38058 -1.91439 0
M  V30 9790 H 909.445 -4.59606 0.395011 0
M  V30 9791 H 907.688 -4.31557 0.440565 0
M  V30 9792 H 908.359 -5.47395 -0.711558 0
M  V30 9793 H 910.835 -3.80735 -1.67868 0
M  V30 9794 H 909.711 -4.82685 -2.61356 0
M  V30 9795 H 909.972 -3.15764 -3.09428 0
M  V30 9796 N 909.032 0.252966 -1.55557 0
M  V30 9797 C 910.278 0.983306 -1.77367 0
M  V30 9798 C 910.611 1.85203 -0.584258 0
M  V30 9799 O 909.886 1.89963 0.417644 0
M  V30 9800 C 910.169 1.84896 -3.09007 0
M  V30 9801 C 910.022 1.00883 -4.38341 0
M  V30 9802 C 911.341 2.83254 -3.36831 0
M  V30 9803 H 908.46 0.356056 -0.645286 0
M  V30 9804 H 911.102 0.254232 -1.88291 0
M  V30 9805 H 909.252 2.47058 -2.99825 0
M  V30 9806 H 910.924 0.40638 -4.59507 0
M  V30 9807 H 909.167 0.31297 -4.3267 0
M  V30 9808 H 909.838 1.64818 -5.2682 0
M  V30 9809 H 912.314 2.31228 -3.45937 0
M  V30 9810 H 911.19 3.40949 -4.30169 0
M  V30 9811 H 911.451 3.59407 -2.57447 0
M  V30 9812 N 910.51 1.48831 0.518367 0
M  V30 9813 C 911.735 1.61379 1.30275 0
M  V30 9814 C 912.16 0.278571 1.86026 0
M  V30 9815 O 911.518 -0.751427 1.64995 0
M  V30 9816 C 911.566 2.67225 2.42122 0
M  V30 9817 O 910.67 2.25192 3.45489 0
M  V30 9818 H 910.011 0.540742 0.385349 0
M  V30 9819 H 912.541 1.949 0.622498 0
M  V30 9820 H 912.551 2.88859 2.8814 0
M  V30 9821 H 911.226 3.64155 2.00907 0
M  V30 9822 H 909.803 2.13819 3.05509 0
M  V30 9823 N 911.988 -0.768124 1.37614 0
M  V30 9824 C 913.213 -1.56239 1.36397 0
M  V30 9825 C 913.638 -1.8804 -0.0475839 0
M  V30 9826 O 912.996 -1.495 -1.02564 0
M  V30 9827 C 913.044 -2.84716 2.21289 0
M  V30 9828 O 912.148 -3.79249 1.62001 0
M  V30 9829 H 911.489 -0.473119 0.465891 0
M  V30 9830 H 914.019 -0.950415 1.81186 0
M  V30 9831 H 914.029 -3.33784 2.34632 0
M  V30 9832 H 912.704 -2.60899 3.2389 0
M  V30 9833 H 911.281 -3.37904 1.57719 0
M  V30 9834 N 913.466 -1.22244 -0.994698 0
M  V30 9835 C 914.694 -1.07218 -1.76952 0
M  V30 9836 C 915.109 0.377388 -1.8499 0
M  V30 9837 O 914.466 1.26157 -1.31874 0
M  V30 9838 C 914.517 -1.67496 -3.20355 0
M  V30 9839 O 914.238 -3.06782 -3.12756 0
M  V30 9840 C 915.739 -1.57721 -4.14294 0
M  V30 9841 H 912.959 -0.375966 -0.555779 0
M  V30 9842 H 915.503 -1.61799 -1.25065 0
M  V30 9843 H 913.658 -1.16982 -3.69315 0
M  V30 9844 H 914.072 -3.35784 -4.02926 0
M  V30 9845 H 915.546 -2.04623 -5.12673 0
M  V30 9846 H 916.023 -0.533434 -4.35949 0
M  V30 9847 H 916.629 -2.07531 -3.71229 0
M  V30 9848 N 914.944 1.19125 -1.03184 0
M  V30 9849 C 916.36 1.40909 -0.749447 0
M  V30 9850 C 916.56 1.9022 0.664729 0
M  V30 9851 O 915.616 2.08085 1.43028 0
M  V30 9852 C 916.929 2.41761 -1.78807 0
M  V30 9853 C 918.477 2.55503 -1.80796 0
M  V30 9854 C 918.952 3.59612 -2.83626 0
M  V30 9855 N 920.443 3.6711 -2.82461 0
M  V30 9856 C 921.178 4.47366 -3.5868 0
M  V30 9857 N 920.674 5.31302 -4.44623 0
M  V30 9858 N 922.467 4.42044 -3.47208 0
M  V30 9859 H 914.618 0.854399 -1.94458 0
M  V30 9860 H 916.881 0.437753 -0.840878 0
M  V30 9861 H 916.587 2.12559 -2.80199 0
M  V30 9862 H 916.461 3.40981 -1.61283 0
M  V30 9863 H 918.848 2.84027 -0.800803 0
M  V30 9864 H 918.929 1.56427 -2.02396 0
M  V30 9865 H 918.573 3.3183 -3.84515 0
M  V30 9866 H 918.503 4.58345 -2.59283 0
M  V30 9867 H 920.994 3.07166 -2.2013 0
M  V30 9868 H 921.307 5.89667 -4.99512 0
M  V30 9869 H 919.652 5.30753 -4.48694 0
M  V30 9870 H 922.843 3.75513 -2.79477 0
M  V30 9871 H 923.016 5.0435 -4.06859 0
M  V30 9872 N 916.422 0.810101 1.35185 0
M  V30 9873 C 917.352 0.237453 2.32289 0
M  V30 9874 C 918.333 -0.639032 1.5764 0
M  V30 9875 O 919.518 -0.568575 1.8569 0
M  V30 9876 C 916.648 -0.611964 3.41866 0
M  V30 9877 C 915.602 0.166318 4.27677 0
M  V30 9878 C 914.928 -0.805024 5.28605 0
M  V30 9879 C 916.228 1.36729 5.04086 0
M  V30 9880 H 917.922 1.04874 2.80432 0
M  V30 9881 H 915.468 0.505751 1.34826 0
M  V30 9882 H 917.421 -1.02267 4.08802 0
M  V30 9883 H 916.145 -1.45617 2.92341 0
M  V30 9884 H 914.804 0.558238 3.62325 0
M  V30 9885 H 914.452 -1.64483 4.75347 0
M  V30 9886 H 914.152 -0.288577 5.86891 0
M  V30 9887 H 915.676 -1.21386 5.98413 0
M  V30 9888 H 917.09 1.03128 5.63948 0
M  V30 9889 H 915.487 1.81848 5.71884 0
M  V30 9890 H 916.557 2.15214 4.34524 0
M  V30 9891 N 917.9 -1.47166 0.563914 0
M  V30 9892 C 919.146 -2.02756 0.0424338 0
M  V30 9893 C 919.479 -1.43662 -1.3067 0
M  V30 9894 O 918.754 -0.594676 -1.85186 0
M  V30 9895 C 919.037 -3.60074 -0.0434793 0
M  V30 9896 C 918.89 -4.29587 1.33323 0
M  V30 9897 C 920.209 -4.336 -0.753568 0
M  V30 9898 H 917.328 -0.736806 0.0168946 0
M  V30 9899 H 919.97 -1.75521 0.727496 0
M  V30 9900 H 918.12 -3.83409 -0.626906 0
M  V30 9901 H 919.792 -4.17573 1.96037 0
M  V30 9902 H 918.035 -3.8968 1.9061 0
M  V30 9903 H 918.706 -5.38218 1.22576 0
M  V30 9904 H 921.182 -4.15299 -0.258126 0
M  V30 9905 H 920.058 -5.43291 -0.782659 0
M  V30 9906 H 920.319 -4.03302 -1.81108 0
M  V30 9907 N 919.378 -0.300708 -1.54705 0
M  V30 9908 C 920.326 0.591264 -2.2496 0
M  V30 9909 C 921.32 1.13725 -1.2555 0
M  V30 9910 O 922.526 1.08793 -1.43402 0
M  V30 9911 H 918.901 0.209278 -0.722293 0
M  V30 9912 H 920.872 -0.0238175 -2.9839 0
M  V30 9913 C 919.621 1.75179 -3.00346 0
M  V30 9914 H 918.944 1.34089 -3.76643 0
M  V30 9915 H 920.384 2.35198 -3.52786 0
M  V30 9916 C 918.843 2.65574 -2.07298 0
M  V30 9917 O 919.373 3.6666 -1.64083 0
M  V30 9918 N 917.579 2.33301 -1.7326 0
M  V30 9919 H 917.126 1.51142 -2.08599 0
M  V30 9920 H 917.084 2.94049 -1.11278 0
M  V30 9921 N 920.856 1.57574 -0.0284266 0
M  V30 9922 C 922.267 1.79585 0.510502 0
M  V30 9923 C 922.618 0.938625 1.72291 0
M  V30 9924 O 921.743 0.14884 2.15888 0
M  V30 9925 C 922.338 3.25703 0.932912 0
M  V30 9926 C 920.897 3.48711 1.41696 0
M  V30 9927 C 920.044 2.74665 0.381356 0
M  V30 9928 H 922.995 1.56647 -0.254464 0
M  V30 9929 H 923.016 3.35376 1.79731 0
M  V30 9930 H 922.528 3.88067 0.0503036 0
M  V30 9931 H 920.629 2.91597 2.31952 0
M  V30 9932 H 920.742 4.57423 1.42481 0
M  V30 9933 H 919.106 2.40123 0.8493 0
M  V30 9934 H 919.889 3.39745 -0.492775 0
M  V30 9935 N 922.334 -0.244713 1.55689 0
M  V30 9936 C 923.745 -0.813603 1.6804 0
M  V30 9937 C 924.096 -1.85936 0.626281 0
M  V30 9938 O 923.221 -2.15206 -0.227038 0
M  V30 9939 C 923.816 -1.48252 3.04642 0
M  V30 9940 C 922.375 -1.99908 3.18926 0
M  V30 9941 C 921.522 -0.850958 2.6392 0
M  V30 9942 H 924.473 -0.0204805 1.58687 0
M  V30 9943 H 924.494 -2.35062 2.99209 0
M  V30 9944 H 924.006 -0.721164 3.81341 0
M  V30 9945 H 922.107 -2.78918 2.47054 0
M  V30 9946 H 922.22 -2.19497 4.25862 0
M  V30 9947 H 920.584 -1.25206 2.21801 0
M  V30 9948 H 921.367 -0.10265 3.43146 0
M  V30 9949 N 923.813 -1.49104 -0.510467 0
M  V30 9950 C 925.224 -1.51423 -1.09215 0
M  V30 9951 C 925.575 -0.295035 -1.93969 0
M  V30 9952 O 924.7 0.596064 -2.08029 0
M  V30 9953 C 925.295 -2.74387 -1.98739 0
M  V30 9954 C 923.854 -2.79515 -2.52088 0
M  V30 9955 C 923.001 -2.4521 -1.29488 0
M  V30 9956 H 925.952 -1.55938 -0.294807 0
M  V30 9957 H 925.973 -2.54012 -2.83298 0
M  V30 9958 H 925.485 -3.63105 -1.37026 0
M  V30 9959 H 923.586 -1.95054 -3.17466 0
M  V30 9960 H 923.699 -3.81447 -2.89887 0
M  V30 9961 H 922.063 -1.96785 -1.61703 0
M  V30 9962 H 922.846 -3.36192 -0.694978 0
M  V30 9963 N 925.291 0.760815 -1.38019 0
M  V30 9964 C 926.707 1.06289 -1.19058 0
M  V30 9965 C 926.907 2.01471 -0.0342603 0
M  V30 9966 O 925.963 2.44713 0.62224 0
M  V30 9967 C 927.276 1.6499 -2.51394 0
M  V30 9968 C 928.824 1.77196 -2.58013 0
M  V30 9969 C 929.299 2.3931 -3.90506 0
M  V30 9970 N 930.79 2.46749 -3.92007 0
M  V30 9971 C 931.525 2.95687 -4.91281 0
M  V30 9972 N 931.021 3.44715 -6.00952 0
M  V30 9973 N 932.814 2.94661 -4.78677 0
M  V30 9974 H 924.965 0.129045 -2.12008 0
M  V30 9975 H 927.228 0.119878 -0.94039 0
M  V30 9976 H 926.934 1.0252 -3.36426 0
M  V30 9977 H 926.808 2.64146 -2.6927 0
M  V30 9978 H 929.195 2.38796 -1.7338 0
M  V30 9979 H 929.276 0.767645 -2.4401 0
M  V30 9980 H 928.92 1.78346 -4.75558 0
M  V30 9981 H 928.85 3.40369 -4.01817 0
M  V30 9982 H 931.341 2.12064 -3.12789 0
M  V30 9983 H 931.654 3.80492 -6.72641 0
M  V30 9984 H 929.999 3.42791 -6.04582 0
M  V30 9985 H 933.19 2.55665 -3.92113 0
M  V30 9986 H 933.363 3.32489 -5.56197 0
M  V30 9987 N 926.769 1.22769 0.988202 0
M  V30 9988 C 927.994 1.08239 1.76915 0
M  V30 9989 C 928.419 -0.362519 1.84574 0
M  V30 9990 O 927.777 -1.26202 1.30165 0
M  V30 9991 C 927.825 1.70363 3.17819 0
M  V30 9992 O 926.929 0.960484 4.01059 0
M  V30 9993 H 926.27 0.379872 0.544604 0
M  V30 9994 H 928.8 1.62663 1.24104 0
M  V30 9995 H 928.81 1.7528 3.6843 0
M  V30 9996 H 927.485 2.75505 3.1156 0
M  V30 9997 H 926.062 0.987667 3.59582 0
M  V30 9998 N 928.247 -1.18576 1.03814 0
M  V30 9999 C 929.472 -1.92978 0.759873 0
M  V30 10000 C 929.897 -1.75514 -0.676486 0
M  V30 10001 O 929.255 -1.06359 -1.46824 0
M  V30 10002 C 929.303 -3.42507 1.12788 0
M  V30 10003 O 928.407 -4.1163 0.251886 0
M  V30 10004 H 927.748 -0.602129 0.279886 0
M  V30 10005 H 930.278 -1.50383 1.3873 0
M  V30 10006 H 930.288 -3.93206 1.08872 0
M  V30 10007 H 928.963 -3.5454 2.17427 0
M  V30 10008 H 927.54 -3.7125 0.350441 0
M  V30 10009 N 929.725 -0.817259 -1.34754 0
M  V30 10010 C 930.973 -0.401852 -1.98065 0
M  V30 10011 C 931.294 1.03718 -1.65129 0
M  V30 10012 O 930.564 1.71921 -0.939141 0
M  V30 10013 H 929.144 -0.145603 -0.732672 0
M  V30 10014 H 931.806 -1.04545 -1.64488 0
M  V30 10015 H 930.902 -0.516241 -3.07801 0
M  V30 10016 N 931.203 1.46865 -0.571711 0
M  V30 10017 C 932.151 2.31897 0.180714 0
M  V30 10018 C 933.145 1.43815 0.895191 0
M  V30 10019 O 934.351 1.60501 0.814828 0
M  V30 10020 H 930.726 0.748032 0.077148 0
M  V30 10021 H 932.697 2.93185 -0.555432 0
M  V30 10022 C 931.446 3.26766 1.18824 0
M  V30 10023 H 930.769 3.94515 0.64789 0
M  V30 10024 H 932.209 3.89067 1.68532 0
M  V30 10025 C 930.668 2.51325 2.2436 0
M  V30 10026 O 931.198 2.26825 3.31532 0
M  V30 10027 N 929.404 2.12079 1.98673 0
M  V30 10028 H 928.951 2.32204 1.1153 0
M  V30 10029 H 928.909 1.61921 2.69498 0
M  V30 10030 N 932.681 0.308908 1.54543 0
M  V30 10031 C 933.644 -0.550857 2.22482 0
M  V30 10032 C 934.644 -1.0551 1.21344 0
M  V30 10033 O 935.834 -0.949866 1.46025 0
M  V30 10034 C 932.966 -1.76354 2.9174 0
M  V30 10035 H 934.159 0.0428395 2.99869 0
M  V30 10036 H 931.712 0.059825 1.56185 0
M  V30 10037 H 932.447 -2.39686 2.18451 0
M  V30 10038 H 932.232 -1.40954 3.65889 0
M  V30 10039 H 933.722 -2.37417 3.43545 0
M  V30 10040 N 934.159 -1.57557 0.0367827 0
M  V30 10041 C 935.122 -2.09591 -0.927589 0
M  V30 10042 C 936.122 -1.01252 -1.24919 0
M  V30 10043 O 937.312 -1.27382 -1.18825 0
M  V30 10044 C 934.444 -2.56816 -2.24184 0
M  V30 10045 H 935.637 -2.96086 -0.476784 0
M  V30 10046 H 933.19 -1.54864 -0.211385 0
M  V30 10047 H 933.925 -1.73673 -2.73876 0
M  V30 10048 H 933.71 -3.35973 -2.0215 0
M  V30 10049 H 935.2 -2.97271 -2.93291 0
M  V30 10050 N 935.637 0.236453 -1.55816 0
M  V30 10051 C 936.865 0.980295 -1.82203 0
M  V30 10052 C 937.28 1.7854 -0.613926 0
M  V30 10053 O 936.637 1.77661 0.417491 0
M  V30 10054 C 936.688 1.90982 -3.06933 0
M  V30 10055 O 936.409 1.13728 -4.23081 0
M  V30 10056 C 937.91 2.76879 -3.46198 0
M  V30 10057 H 935.13 0.28799 -0.606055 0
M  V30 10058 H 937.674 0.256182 -2.02889 0
M  V30 10059 H 935.829 2.58808 -2.88266 0
M  V30 10060 H 936.243 1.76694 -4.93842 0
M  V30 10061 H 937.717 3.37831 -4.36548 0
M  V30 10062 H 938.194 3.48522 -2.67262 0
M  V30 10063 H 938.8 2.1449 -3.67252 0
M  V30 10064 N 937.115 1.49373 0.502552 0
M  V30 10065 C 938.34 1.62752 1.28556 0
M  V30 10066 C 938.765 0.298285 1.8572 0
M  V30 10067 O 938.123 -0.733885 1.65782 0
M  V30 10068 C 938.171 2.69778 2.39274 0
M  V30 10069 O 937.275 2.28843 3.43081 0
M  V30 10070 H 936.616 0.544799 0.379592 0
M  V30 10071 H 939.146 1.9555 0.601792 0
M  V30 10072 H 939.156 2.91899 2.8506 0
M  V30 10073 H 937.831 3.66266 1.97033 0
M  V30 10074 H 936.408 2.17047 3.03224 0
M  V30 10075 N 938.594 -0.753485 1.38421 0
M  V30 10076 C 939.842 -1.50962 1.34368 0
M  V30 10077 C 940.163 -1.94889 -0.0656895 0
M  V30 10078 O 939.433 -1.67652 -1.01339 0
M  V30 10079 H 938.013 -0.559967 0.494415 0
M  V30 10080 H 940.675 -0.895665 1.73101 0
M  V30 10081 H 939.771 -2.40048 1.99458 0
M  V30 10082 N 940.072 -1.23292 -0.981677 0
M  V30 10083 C 941.02 -1.0104 -2.09508 0
M  V30 10084 C 942.014 0.0501977 -1.69326 0
M  V30 10085 O 943.22 -0.103197 -1.79704 0
M  V30 10086 H 939.595 -0.309629 -0.685298 0
M  V30 10087 H 941.566 -1.95493 -2.25444 0
M  V30 10088 C 940.315 -0.616885 -3.42184 0
M  V30 10089 H 939.638 -1.4247 -3.73554 0
M  V30 10090 H 941.078 -0.500688 -4.21033 0
M  V30 10091 C 939.537 0.674721 -3.30074 0
M  V30 10092 O 940.067 1.72421 -3.62814 0
M  V30 10093 N 938.273 0.650151 -2.83234 0
M  V30 10094 H 937.82 -0.204225 -2.56789 0
M  V30 10095 H 937.778 1.51458 -2.75514 0
M  V30 10096 N 941.55 1.18024 -1.04442 0
M  V30 10097 C 942.513 2.19992 -0.643136 0
M  V30 10098 C 943.513 1.57949 0.301444 0
M  V30 10099 O 944.703 1.73986 0.0863341 0
M  V30 10100 C 941.835 3.40853 0.0565208 0
M  V30 10101 H 943.028 2.57008 -1.54554 0
M  V30 10102 H 940.581 1.31974 -0.837408 0
M  V30 10103 H 941.316 3.09373 0.972553 0
M  V30 10104 H 941.101 3.87128 -0.622439 0
M  V30 10105 H 942.591 4.16344 0.323652 0
M  V30 10106 N 943.028 0.824394 1.34319 0
M  V30 10107 C 943.991 0.252696 2.27803 0
M  V30 10108 C 944.991 -0.570254 1.50349 0
M  V30 10109 O 946.181 -0.386145 1.69866 0
M  V30 10110 C 943.313 -0.645575 3.34731 0
M  V30 10111 H 944.506 1.07742 2.79878 0
M  V30 10112 H 942.059 0.596367 1.44475 0
M  V30 10113 H 942.794 -1.4933 2.87873 0
M  V30 10114 H 942.579 -0.0569478 3.92059 0
M  V30 10115 H 944.069 -1.03933 4.0446 0
M  V30 10116 N 944.506 -1.46559 0.579492 0
M  V30 10117 C 945.734 -2.06784 0.0693648 0
M  V30 10118 C 946.149 -1.42875 -1.23419 0
M  V30 10119 O 945.506 -0.532919 -1.74546 0
M  V30 10120 C 945.557 -3.61343 -0.106511 0
M  V30 10121 O 945.278 -4.22861 1.14545 0
M  V30 10122 C 946.779 -4.38489 -0.651359 0
M  V30 10123 H 943.999 -0.66866 0.0559848 0
M  V30 10124 H 946.543 -1.88235 0.799245 0
M  V30 10125 H 944.698 -3.7933 -0.786601 0
M  V30 10126 H 945.112 -5.15691 0.95723 0
M  V30 10127 H 946.586 -5.47237 -0.723615 0
M  V30 10128 H 947.063 -4.06309 -1.66763 0
M  V30 10129 H 947.669 -4.253 -0.0062433 0
M  V30 10130 N 945.984 -0.3171 -1.54377 0
M  V30 10131 C 946.931 0.551782 -2.24107 0
M  V30 10132 C 947.901 1.11681 -1.22949 0
M  V30 10133 O 949.086 1.15836 -1.51614 0
M  V30 10134 C 946.226 1.70997 -2.99756 0
M  V30 10135 C 945.339 1.17479 -4.15719 0
M  V30 10136 C 944.474 2.29815 -4.78914 0
M  V30 10137 C 943.513 1.73513 -5.86992 0
M  V30 10138 N 942.65 2.79485 -6.44075 0
M  V30 10139 H 947.49 -0.049431 -2.97959 0
M  V30 10140 H 945.027 -0.0361658 -1.47056 0
M  V30 10141 H 946.985 2.39141 -3.41859 0
M  V30 10142 H 945.615 2.28257 -2.28251 0
M  V30 10143 H 944.667 0.385109 -3.78446 0
M  V30 10144 H 945.979 0.72276 -4.93536 0
M  V30 10145 H 945.133 3.05875 -5.23952 0
M  V30 10146 H 943.872 2.78352 -4.00464 0
M  V30 10147 H 942.877 0.959475 -5.41363 0
M  V30 10148 H 944.102 1.2586 -6.67335 0
M  V30 10149 H 942.048 3.27325 -5.68502 0
M  V30 10150 H 941.965 2.38825 -7.17286 0
M  V30 10151 H 943.233 3.55394 -6.93769 0
M  V30 10152 N 947.462 1.57535 -0.0451378 0
M  V30 10153 C 948.711 1.91628 0.629415 0
M  V30 10154 C 949.024 0.924754 1.72359 0
M  V30 10155 O 950.23 1.15751 2.45589 0
M  V30 10156 C 948.686 3.40322 1.17084 0
M  V30 10157 C 948.294 4.47867 0.109101 0
M  V30 10158 C 950.038 3.83458 1.82099 0
M  V30 10159 C 947.945 5.87671 0.663072 0
M  V30 10160 H 946.875 0.715163 0.238868 0
M  V30 10161 H 949.526 1.83151 -0.113046 0
M  V30 10162 H 947.908 3.43783 1.96543 0
M  V30 10163 H 949.082 4.55988 -0.664201 0
M  V30 10164 H 947.397 4.14034 -0.443227 0
M  V30 10165 H 949.994 4.85273 2.2453 0
M  V30 10166 H 950.337 3.19379 2.67026 0
M  V30 10167 H 950.87 3.82488 1.09305 0
M  V30 10168 H 947.609 6.55332 -0.148423 0
M  V30 10169 H 947.129 5.83124 1.4045 0
M  V30 10170 H 948.808 6.36737 1.14785 0
M  V30 10171 N 948.94 -0.228186 1.55939 0
M  V30 10172 C 950.351 -0.795734 1.68893 0
M  V30 10173 C 950.702 -1.85261 0.645967 0
M  V30 10174 O 949.827 -2.15434 -0.2042 0
M  V30 10175 C 950.422 -1.45013 3.06197 0
M  V30 10176 C 948.981 -1.96514 3.21028 0
M  V30 10177 C 948.128 -0.822918 2.64808 0
M  V30 10178 H 951.079 -0.0036485 1.587 0
M  V30 10179 H 951.1 -2.31875 3.01685 0
M  V30 10180 H 950.612 -0.680678 3.82084 0
M  V30 10181 H 948.713 -2.76282 2.49998 0
M  V30 10182 H 948.826 -2.14967 4.28166 0
M  V30 10183 H 947.19 -1.22846 2.23116 0
M  V30 10184 H 947.973 -0.0662493 3.43236 0
M  V30 10185 N 950.418 -1.49637 -0.494624 0
M  V30 10186 C 951.646 -1.63164 -1.2722 0
M  V30 10187 C 952.061 -0.305552 -1.86311 0
M  V30 10188 O 951.418 0.709758 -1.68133 0
M  V30 10189 C 951.469 -2.70524 -2.39789 0
M  V30 10190 O 951.19 -3.97991 -1.83126 0
M  V30 10191 C 952.691 -2.94814 -3.31058 0
M  V30 10192 H 949.911 -0.54912 -0.385627 0
M  V30 10193 H 952.455 -1.95711 -0.593081 0
M  V30 10194 H 950.61 -2.40738 -3.03519 0
M  V30 10195 H 951.024 -4.57179 -2.57075 0
M  V30 10196 H 952.498 -3.73653 -4.06309 0
M  V30 10197 H 952.975 -2.04974 -3.88436 0
M  V30 10198 H 953.581 -3.26042 -2.73088 0
M  V30 10199 N 951.896 0.746133 -1.38819 0
M  V30 10200 C 953.307 1.32384 -1.31648 0
M  V30 10201 C 953.658 1.96185 0.0243086 0
M  V30 10202 O 952.783 1.95567 0.92641 0
M  V30 10203 C 953.378 2.40712 -2.38418 0
M  V30 10204 C 951.937 2.94185 -2.34803 0
M  V30 10205 C 951.084 1.67639 -2.20891 0
M  V30 10206 H 954.035 0.544457 -1.49068 0
M  V30 10207 H 954.056 3.20833 -2.04564 0
M  V30 10208 H 953.568 1.94247 -3.3599 0
M  V30 10209 H 951.669 3.44959 -1.40834 0
M  V30 10210 H 951.782 3.48057 -3.29231 0
M  V30 10211 H 950.146 1.9155 -1.67871 0
M  V30 10212 H 950.929 1.23242 -3.20416 0
M  V30 10213 N 953.375 1.23811 0.975125 0
M  V30 10214 C 954.624 1.06741 1.71141 0
M  V30 10215 C 954.937 -0.394986 1.9157 0
M  V30 10216 O 956.143 -0.685723 2.62698 0
M  V30 10217 C 954.599 1.86168 3.08009 0
M  V30 10218 C 954.207 3.36771 2.95448 0
M  V30 10219 C 955.951 1.77604 3.85561 0
M  V30 10220 C 953.858 4.0857 4.2758 0
M  V30 10221 H 952.788 0.395819 0.64175 0
M  V30 10222 H 955.439 1.47825 1.0872 0
M  V30 10223 H 953.821 1.37893 3.71216 0
M  V30 10224 H 954.995 3.92571 2.41298 0
M  V30 10225 H 953.31 3.46205 2.31368 0
M  V30 10226 H 955.907 2.28556 4.83391 0
M  V30 10227 H 956.25 0.739837 4.09673 0
M  V30 10228 H 956.783 2.23519 3.29065 0
M  V30 10229 H 953.522 5.12518 4.08663 0
M  V30 10230 H 953.042 3.57556 4.81574 0
M  V30 10231 H 954.721 4.15157 4.9624 0
M  V30 10232 N 954.853 -1.17469 1.05066 0
M  V30 10233 C 956.099 -1.87976 0.761113 0
M  V30 10234 C 956.432 -1.80756 -0.709995 0
M  V30 10235 O 955.707 -1.21469 -1.51906 0
M  V30 10236 C 955.99 -3.38055 1.2406 0
M  V30 10237 C 955.843 -3.54032 2.77455 0
M  V30 10238 C 957.162 -4.32036 0.838612 0
M  V30 10239 H 954.281 -0.682573 0.277963 0
M  V30 10240 H 956.923 -1.38147 1.30443 0
M  V30 10241 H 955.073 -3.80622 0.778388 0
M  V30 10242 H 956.745 -3.20489 3.3179 0
M  V30 10243 H 954.988 -2.96352 3.16793 0
M  V30 10244 H 955.659 -4.59377 3.06066 0
M  V30 10245 H 958.135 -3.97303 1.23651 0
M  V30 10246 H 957.011 -5.35583 1.20173 0
M  V30 10247 H 957.272 -4.41349 -0.257498 0
M  V30 10248 N 956.331 -0.831506 -1.3388 0
M  V30 10249 C 957.579 -0.422837 -1.97627 0
M  V30 10250 C 957.9 1.01961 -1.6622 0
M  V30 10251 O 957.17 1.70916 -0.957323 0
M  V30 10252 H 955.75 -0.153365 -0.731087 0
M  V30 10253 H 958.412 -1.06284 -1.6337 0
M  V30 10254 H 957.508 -0.548858 -3.07236 0
M  V30 10255 N 957.809 1.4625 -0.587256 0
M  V30 10256 C 959.055 2.02662 -0.0746851 0
M  V30 10257 C 959.388 1.45723 1.28368 0
M  V30 10258 O 958.663 0.624062 1.84216 0
M  V30 10259 C 958.946 3.60097 -0.0138109 0
M  V30 10260 C 958.799 4.27412 -1.4014 0
M  V30 10261 C 960.118 4.34744 0.684491 0
M  V30 10262 H 957.237 0.736444 -0.0286144 0
M  V30 10263 H 959.879 1.74341 -0.755328 0
M  V30 10264 H 958.029 3.84357 0.56583 0
M  V30 10265 H 959.701 4.14401 -2.02656 0
M  V30 10266 H 957.944 3.86598 -1.96785 0
M  V30 10267 H 958.615 5.362 -1.31124 0
M  V30 10268 H 961.091 4.15657 0.192023 0
M  V30 10269 H 959.967 5.44468 0.696127 0
M  V30 10270 H 960.228 4.06132 1.74669 0
M  V30 10271 N 959.287 0.325282 1.54207 0
M  V30 10272 C 960.234 -0.539889 2.24397 0
M  V30 10273 C 961.204 -1.11028 1.2354 0
M  V30 10274 O 962.389 -1.1503 1.52226 0
M  V30 10275 C 959.529 -1.69405 3.00659 0
M  V30 10276 C 958.642 -1.15273 4.16337 0
M  V30 10277 C 957.777 -2.27272 4.80126 0
M  V30 10278 C 956.816 -1.70397 5.87904 0
M  V30 10279 N 955.953 -2.76065 6.45548 0
M  V30 10280 H 960.793 0.0652318 2.97929 0
M  V30 10281 H 958.33 0.043964 1.47034 0
M  V30 10282 H 960.288 -2.37325 3.43122 0
M  V30 10283 H 958.918 -2.27043 2.29458 0
M  V30 10284 H 957.97 -0.365034 3.78645 0
M  V30 10285 H 959.282 -0.696576 4.93912 0
M  V30 10286 H 958.436 -3.03092 5.25566 0
M  V30 10287 H 957.175 -2.76224 4.01935 0
M  V30 10288 H 956.18 -0.930752 5.41864 0
M  V30 10289 H 957.405 -1.22319 6.67993 0
M  V30 10290 H 955.351 -3.24306 5.7023 0
M  V30 10291 H 955.268 -2.35018 7.18542 0
M  V30 10292 H 956.536 -3.5171 6.95644 0
M  V30 10293 N 960.765 -1.57509 0.0534917 0
M  V30 10294 C 962.181 -1.56696 -0.303067 0
M  V30 10295 C 962.381 -1.06135 -1.71282 0
M  V30 10296 O 961.437 -0.71899 -2.42047 0
M  V30 10297 C 962.75 -3.00421 -0.129418 0
M  V30 10298 C 964.298 -3.12358 -0.200346 0
M  V30 10299 C 964.773 -4.57967 -0.0551971 0
M  V30 10300 N 966.264 -4.63066 -0.111398 0
M  V30 10301 C 966.999 -5.73395 -0.0232344 0
M  V30 10302 N 966.495 -6.92701 0.11741 0
M  V30 10303 N 968.288 -5.62045 -0.078984 0
M  V30 10304 H 960.439 -1.88696 0.975064 0
M  V30 10305 H 962.702 -0.869072 0.378706 0
M  V30 10306 H 962.408 -3.41456 0.842653 0
M  V30 10307 H 962.282 -3.66563 -0.889476 0
M  V30 10308 H 964.669 -2.71221 -1.16289 0
M  V30 10309 H 964.75 -2.48891 0.590506 0
M  V30 10310 H 964.394 -4.9979 0.904034 0
M  V30 10311 H 964.324 -5.19443 -0.865223 0
M  V30 10312 H 966.815 -3.77263 -0.219256 0
M  V30 10313 H 967.128 -7.72597 0.177326 0
M  V30 10314 H 965.473 -6.94833 0.152526 0
M  V30 10315 H 968.664 -4.67725 -0.187434 0
M  V30 10316 H 968.837 -6.48 -0.00681731 0
M  V30 10317 N 962.243 0.219913 -1.56058 0
M  V30 10318 C 963.471 0.960915 -1.83232 0
M  V30 10319 C 963.886 1.77878 -0.632828 0
M  V30 10320 O 963.243 1.78093 0.398624 0
M  V30 10321 C 963.294 1.87716 -3.08942 0
M  V30 10322 O 963.015 1.09235 -4.24263 0
M  V30 10323 C 964.516 2.73192 -3.49115 0
M  V30 10324 H 961.736 0.281546 -0.609075 0
M  V30 10325 H 964.28 0.234648 -2.03149 0
M  V30 10326 H 962.435 2.55736 -2.90995 0
M  V30 10327 H 962.849 1.71446 -4.95688 0
M  V30 10328 H 964.323 3.33181 -4.40107 0
M  V30 10329 H 964.8 3.45668 -2.70943 0
M  V30 10330 H 965.406 2.10583 -3.69506 0
M  V30 10331 N 963.721 1.49897 0.486681 0
M  V30 10332 C 964.946 1.64106 1.26823 0
M  V30 10333 C 965.371 0.317967 1.85393 0
M  V30 10334 O 964.729 -0.71626 1.66551 0
M  V30 10335 C 964.777 2.72301 2.36399 0
M  V30 10336 O 963.881 2.32469 3.40634 0
M  V30 10337 H 963.222 0.548794 0.373793 0
M  V30 10338 H 965.752 1.96177 0.581017 0
M  V30 10339 H 965.762 2.94906 2.81948 0
M  V30 10340 H 964.437 3.68335 1.93137 0
M  V30 10341 H 963.014 2.20251 3.00905 0
M  V30 10342 N 965.199 -0.738761 1.39212 0
M  V30 10343 C 966.424 -1.5331 1.39681 0
M  V30 10344 C 966.849 -1.88098 -0.00768715 0
M  V30 10345 O 966.207 -1.51642 -0.993699 0
M  V30 10346 C 966.255 -2.79958 2.27279 0
M  V30 10347 O 965.359 -3.75727 1.70008 0
M  V30 10348 H 964.7 -0.463131 0.475821 0
M  V30 10349 H 967.23 -0.911768 1.83161 0
M  V30 10350 H 967.24 -3.28732 2.41659 0
M  V30 10351 H 965.915 -2.5397 3.29351 0
M  V30 10352 H 964.492 -3.34483 1.64851 0
M  V30 10353 N 966.677 -1.24326 -0.968545 0
M  V30 10354 C 968.088 -1.07561 -1.52603 0
M  V30 10355 C 968.439 0.353245 -1.92994 0
M  V30 10356 O 967.564 1.24151 -1.77244 0
M  V30 10357 C 968.159 -1.94634 -2.77314 0
M  V30 10358 C 966.718 -1.82095 -3.29421 0
M  V30 10359 C 965.865 -1.8962 -2.02335 0
M  V30 10360 H 968.816 -1.37815 -0.786932 0
M  V30 10361 H 968.837 -1.47812 -3.50616 0
M  V30 10362 H 968.349 -2.98621 -2.47885 0
M  V30 10363 H 966.45 -0.809376 -3.63703 0
M  V30 10364 H 966.563 -2.66142 -3.98378 0
M  V30 10365 H 964.927 -1.33339 -2.17009 0
M  V30 10366 H 965.71 -2.95185 -1.75273 0
M  V30 10367 N 968.156 1.1691 -1.05688 0
M  V30 10368 C 969.106 2.19056 -0.632339 0
M  V30 10369 C 970.09 1.574 0.333797 0
M  V30 10370 O 971.282 1.76361 0.150223 0
M  V30 10371 C 968.411 3.43297 -0.0138209 0
M  V30 10372 C 967.497 4.12042 -1.00408 0
M  V30 10373 N 967.888 4.56535 -2.17737 0
M  V30 10374 C 966.186 4.38139 -0.833663 0
M  V30 10375 C 966.887 5.09644 -2.80425 0
M  V30 10376 N 965.863 5.02153 -2.08191 0
M  V30 10377 H 969.665 2.51165 -1.52621 0
M  V30 10378 H 967.179 1.33294 -0.927707 0
M  V30 10379 H 969.176 4.1576 0.308117 0
M  V30 10380 H 967.836 3.12677 0.87538 0
M  V30 10381 H 968.847 4.50463 -2.55546 0
M  V30 10382 H 965.524 4.175 0.00406684 0
M  V30 10383 H 966.914 5.54153 -3.79952 0
M  V30 10384 N 969.634 0.838594 1.33437 0
M  V30 10385 C 970.581 0.269609 2.2922 0
M  V30 10386 C 971.551 -0.614429 1.54318 0
M  V30 10387 O 972.736 -0.552756 1.82618 0
M  V30 10388 C 969.876 -0.549527 3.40697 0
M  V30 10389 C 968.989 0.358502 4.3051 0
M  V30 10390 C 968.124 -0.471709 5.29101 0
M  V30 10391 C 967.163 0.434728 6.10554 0
M  V30 10392 N 966.3 -0.357339 7.0119 0
M  V30 10393 H 971.14 1.09172 2.77282 0
M  V30 10394 H 968.677 0.549832 1.36438 0
M  V30 10395 H 970.635 -1.03992 4.04032 0
M  V30 10396 H 969.265 -1.33661 2.93828 0
M  V30 10397 H 968.317 0.967204 3.67899 0
M  V30 10398 H 969.629 1.05483 4.87519 0
M  V30 10399 H 968.783 -1.02594 5.97963 0
M  V30 10400 H 967.522 -1.20147 4.72669 0
M  V30 10401 H 966.527 1.00097 5.40611 0
M  V30 10402 H 967.752 1.16285 6.6907 0
M  V30 10403 H 965.698 -1.07049 6.47207 0
M  V30 10404 H 965.615 0.280277 7.5548 0
M  V30 10405 H 966.883 -0.893814 7.74359 0
M  V30 10406 N 971.112 -1.45937 0.595003 0
M  V30 10407 C 972.022 -2.34221 -0.133325 0
M  V30 10408 C 973.038 -1.50491 -0.873407 0
M  V30 10409 O 974.214 -1.83328 -0.833828 0
M  V30 10410 C 971.279 -3.27896 -1.12628 0
M  V30 10411 C 970.34 -4.27529 -0.389532 0
M  V30 10412 C 969.573 -5.16729 -1.33519 0
M  V30 10413 O 969.796 -5.09102 -2.57238 0
M  V30 10414 O 968.73 -5.96023 -0.839084 0
M  V30 10415 H 972.556 -2.97877 0.591861 0
M  V30 10416 H 970.141 -1.45113 0.355329 0
M  V30 10417 H 972.023 -3.85654 -1.69851 0
M  V30 10418 H 970.698 -2.6682 -1.83272 0
M  V30 10419 H 969.605 -3.73424 0.224843 0
M  V30 10420 H 970.938 -4.91425 0.276169 0
M  V30 10421 N 972.59 -0.333456 -1.54032 0
M  V30 10422 C 973.5 0.536674 -2.28379 0
M  V30 10423 C 974.516 1.12068 -1.33104 0
M  V30 10424 O 975.692 1.13853 -1.66131 0
M  V30 10425 C 972.757 1.67677 -3.03456 0
M  V30 10426 C 971.818 1.12357 -4.14336 0
M  V30 10427 C 971.051 2.20933 -4.85823 0
M  V30 10428 O 971.274 3.41466 -4.569 0
M  V30 10429 O 970.208 1.85795 -5.72507 0
M  V30 10430 H 974.034 -0.0674003 -3.03625 0
M  V30 10431 H 971.619 -0.098823 -1.49073 0
M  V30 10432 H 973.501 2.34032 -3.50438 0
M  V30 10433 H 972.176 2.26684 -2.31076 0
M  V30 10434 H 971.083 0.424827 -3.7168 0
M  V30 10435 H 972.416 0.578497 -4.88789 0
M  V30 10436 N 974.068 1.57479 -0.061844 0
M  V30 10437 C 975.293 1.97843 0.622311 0
M  V30 10438 C 975.718 0.939602 1.62951 0
M  V30 10439 O 975.076 -0.095958 1.81046 0
M  V30 10440 C 975.124 3.37262 1.2762 0
M  V30 10441 O 974.228 3.35943 2.39199 0
M  V30 10442 H 973.569 0.644212 0.160896 0
M  V30 10443 H 976.099 2.04165 -0.133409 0
M  V30 10444 H 976.109 3.74226 1.62539 0
M  V30 10445 H 974.784 4.12404 0.538112 0
M  V30 10446 H 973.361 3.10737 2.06148 0
M  V30 10447 N 975.546 -0.211634 1.56173 0
M  V30 10448 C 976.957 -0.777776 1.69728 0
M  V30 10449 C 977.308 -1.84566 0.66558 0
M  V30 10450 O 976.433 -2.15639 -0.181338 0
M  V30 10451 C 977.028 -1.41757 3.07718 0
M  V30 10452 C 975.587 -1.93098 3.23094 0
M  V30 10453 C 974.734 -0.794785 2.65666 0
M  V30 10454 H 977.685 0.0131839 1.58695 0
M  V30 10455 H 977.706 -2.28662 3.04128 0
M  V30 10456 H 977.218 -0.640114 3.82785 0
M  V30 10457 H 975.319 -2.73615 2.52914 0
M  V30 10458 H 975.432 -2.10414 4.30422 0
M  V30 10459 H 973.796 -1.20473 2.24407 0
M  V30 10460 H 974.579 -0.0298408 3.43287 0
M  V30 10461 N 977.024 -1.50153 -0.478725 0
M  V30 10462 C 977.971 -1.68458 -1.57767 0
M  V30 10463 C 978.941 -0.5259 -1.57555 0
M  V30 10464 O 980.126 -0.755574 -1.75202 0
M  V30 10465 C 977.266 -1.77772 -2.95789 0
M  V30 10466 C 976.379 -3.05092 -3.05848 0
M  V30 10467 C 975.514 -3.05247 -4.34739 0
M  V30 10468 C 974.553 -4.27053 -4.38512 0
M  V30 10469 N 973.69 -4.24991 -5.58862 0
M  V30 10470 H 978.53 -2.62282 -1.41464 0
M  V30 10471 H 976.067 -1.30023 -0.687921 0
M  V30 10472 H 978.025 -1.81152 -3.75819 0
M  V30 10473 H 976.655 -0.873944 -3.10744 0
M  V30 10474 H 975.707 -3.11219 -2.1874 0
M  V30 10475 H 977.019 -3.95075 -3.04495 0
M  V30 10476 H 976.173 -3.07314 -5.23109 0
M  V30 10477 H 974.912 -2.13081 -4.38689 0
M  V30 10478 H 973.917 -4.25206 -3.4854 0
M  V30 10479 H 975.142 -5.20437 -4.36259 0
M  V30 10480 H 973.088 -3.35674 -5.63612 0
M  V30 10481 H 973.005 -5.08734 -5.59219 0
M  V30 10482 H 974.273 -4.31193 -6.49379 0
M  V30 10483 N 978.502 0.731368 -1.39602 0
M  V30 10484 C 979.449 1.84541 -1.38612 0
M  V30 10485 C 980.419 1.64279 -0.245287 0
M  V30 10486 O 981.604 1.85635 -0.440954 0
M  V30 10487 C 978.744 3.22092 -1.23897 0
M  V30 10488 C 977.857 3.54034 -2.47555 0
M  V30 10489 C 976.992 4.81007 -2.25402 0
M  V30 10490 C 976.031 5.05804 -3.44716 0
M  V30 10491 N 975.168 6.23981 -3.21857 0
M  V30 10492 H 980.008 1.84722 -2.33841 0
M  V30 10493 H 977.545 0.902569 -1.16156 0
M  V30 10494 H 979.503 4.01499 -1.13376 0
M  V30 10495 H 978.133 3.2118 -0.322958 0
M  V30 10496 H 977.185 2.69301 -2.68665 0
M  V30 10497 H 978.497 3.68275 -3.36415 0
M  V30 10498 H 977.651 5.68401 -2.12143 0
M  V30 10499 H 976.39 4.68946 -1.33943 0
M  V30 10500 H 975.395 4.1687 -3.58468 0
M  V30 10501 H 976.62 5.19747 -4.37081 0
M  V30 10502 H 974.566 6.13202 -2.33065 0
M  V30 10503 H 974.483 6.38826 -4.04274 0
M  V30 10504 H 975.751 7.14205 -3.123 0
M  V30 10505 N 979.98 1.24838 0.961938 0
M  V30 10506 C 981.208 1.11871 1.74047 0
M  V30 10507 C 981.623 -0.328209 1.85925 0
M  V30 10508 O 980.98 -1.22616 1.35173 0
M  V30 10509 C 981.031 1.75931 3.15801 0
M  V30 10510 O 980.752 3.14967 3.04512 0
M  V30 10511 C 982.253 1.68649 4.09966 0
M  V30 10512 H 979.473 0.390569 0.545616 0
M  V30 10513 H 982.017 1.65058 1.20732 0
M  V30 10514 H 980.172 1.26733 3.66084 0
M  V30 10515 H 980.586 3.46349 3.93882 0
M  V30 10516 H 982.06 2.18144 5.07067 0
M  V30 10517 H 982.537 0.648831 4.34381 0
M  V30 10518 H 983.143 2.17301 3.65596 0
M  V30 10519 N 981.458 -1.16348 1.06306 0
M  V30 10520 C 982.405 -2.20741 0.673962 0
M  V30 10521 C 983.375 -1.628 -0.329454 0
M  V30 10522 O 984.56 -1.89547 -0.218313 0
M  V30 10523 C 981.7 -3.45036 0.0667008 0
M  V30 10524 C 980.813 -4.17221 1.12031 0
M  V30 10525 C 979.948 -5.29034 0.479176 0
M  V30 10526 C 978.987 -5.93021 1.51631 0
M  V30 10527 N 978.124 -6.96327 0.898528 0
M  V30 10528 H 982.964 -2.53376 1.56859 0
M  V30 10529 H 980.501 -1.24449 0.784276 0
M  V30 10530 H 982.459 -4.16099 -0.302916 0
M  V30 10531 H 981.089 -3.1295 -0.791333 0
M  V30 10532 H 980.141 -3.4476 1.60763 0
M  V30 10533 H 981.453 -4.60902 1.90712 0
M  V30 10534 H 980.607 -6.06674 0.0565993 0
M  V30 10535 H 979.346 -4.86517 -0.33951 0
M  V30 10536 H 978.351 -5.14104 1.94878 0
M  V30 10537 H 979.576 -6.37618 2.3371 0
M  V30 10538 H 977.522 -6.55923 0.100555 0
M  V30 10539 H 977.439 -7.38379 1.62272 0
M  V30 10540 H 978.707 -7.77888 0.5011 0
M  V30 10541 N 982.937 -0.845659 -1.3299 0
M  V30 10542 C 984.165 -0.45835 -2.01759 0
M  V30 10543 C 984.58 0.94239 -1.63598 0
M  V30 10544 O 983.937 1.61353 -0.852738 0
M  V30 10545 C 983.988 -0.577311 -3.5686 0
M  V30 10546 O 983.709 -1.92287 -3.93646 0
M  V30 10547 C 985.21 -0.187839 -4.42902 0
M  V30 10548 H 982.43 -0.181165 -0.646081 0
M  V30 10549 H 984.974 -1.14011 -1.6977 0
M  V30 10550 H 983.129 0.0566146 -3.87359 0
M  V30 10551 H 983.543 -1.91322 -4.88361 0
M  V30 10552 H 985.017 -0.322105 -5.51059 0
M  V30 10553 H 985.494 0.870896 -4.30479 0
M  V30 10554 H 986.1 -0.796473 -4.17776 0
M  V30 10555 N 984.415 1.45619 -0.602734 0
M  V30 10556 C 985.325 2.34288 0.120902 0
M  V30 10557 C 986.341 1.50952 0.865414 0
M  V30 10558 O 987.517 1.83768 0.824094 0
M  V30 10559 C 984.582 3.28489 1.10888 0
M  V30 10560 C 983.643 4.2773 0.366853 0
M  V30 10561 C 982.876 5.17429 1.30776 0
M  V30 10562 O 983.099 5.10459 2.54535 0
M  V30 10563 O 982.033 5.96459 0.807464 0
M  V30 10564 H 985.859 2.97559 -0.60765 0
M  V30 10565 H 983.444 1.44922 -0.363019 0
M  V30 10566 H 985.326 3.86549 1.67803 0
M  V30 10567 H 984.001 2.67789 1.81854 0
M  V30 10568 H 982.908 3.73299 -0.244643 0
M  V30 10569 H 984.241 4.91271 -0.302226 0
M  V30 10570 N 985.893 0.34162 1.53853 0
M  V30 10571 C 986.803 -0.524555 2.2866 0
M  V30 10572 C 987.819 -1.1136 1.33697 0
M  V30 10573 O 988.995 -1.1297 1.66732 0
M  V30 10574 C 986.06 -1.66065 3.04341 0
M  V30 10575 C 985.121 -1.10158 4.14926 0
M  V30 10576 C 984.354 -2.18353 4.86988 0
M  V30 10577 O 984.577 -3.39038 4.58704 0
M  V30 10578 O 983.511 -1.82756 5.73484 0
M  V30 10579 H 987.337 0.0835014 3.03585 0
M  V30 10580 H 984.922 0.106727 1.49018 0
M  V30 10581 H 986.804 -2.3217 3.51674 0
M  V30 10582 H 985.479 -2.25456 2.32275 0
M  V30 10583 H 984.386 -0.405109 3.719 0
M  V30 10584 H 985.719 -0.552567 4.89088 0
M  V30 10585 N 987.371 -1.57444 0.0701946 0
M  V30 10586 C 988.648 -1.84826 -0.6402 0
M  V30 10587 C 989.028 -0.962344 -1.87889 0
M  V30 10588 O 988.376 -0.0282209 -2.28483 0
M  V30 10589 C 988.586 -3.34976 -0.979382 0
M  V30 10590 C 989.934 -4.02448 -1.35355 0
M  V30 10591 O 990.958 -3.39713 -1.07116 0
M  V30 10592 O 989.817 -5.13096 -1.88136 0
M  V30 10593 H 986.911 -0.763494 -0.317813 0
M  V30 10594 H 989.457 -1.69399 0.101004 0
M  V30 10595 H 988.229 -3.91173 -0.0995576 0
M  V30 10596 H 987.852 -3.5566 -1.7774 0
M  V30 10597 N 988.849 0.203349 -1.56283 0
M  V30 10598 C 989.759 1.27266 -1.9708 0
M  V30 10599 C 990.775 1.50268 -0.877236 0
M  V30 10600 O 991.951 1.63044 -1.18231 0
M  V30 10601 C 989.016 2.59871 -2.29495 0
M  V30 10602 C 988.077 2.45012 -3.52516 0
M  V30 10603 C 987.31 3.71293 -3.83376 0
M  V30 10604 O 987.533 4.75106 -3.15643 0
M  V30 10605 O 986.467 3.67316 -4.76826 0
M  V30 10606 H 990.293 0.956461 -2.88246 0
M  V30 10607 H 987.878 0.407688 -1.4373 0
M  V30 10608 H 989.76 3.38152 -2.51458 0
M  V30 10609 H 988.435 2.91135 -1.415 0
M  V30 10610 H 987.342 1.6487 -3.35811 0
M  V30 10611 H 988.675 2.18683 -4.40952 0
M  V30 10612 N 990.327 1.50405 0.470755 0
M  V30 10613 C 991.555 1.65168 1.24608 0
M  V30 10614 C 991.97 0.335153 1.85801 0
M  V30 10615 O 991.327 -0.682919 1.69241 0
M  V30 10616 C 991.378 2.74305 2.35455 0
M  V30 10617 O 991.099 4.00854 1.76771 0
M  V30 10618 C 992.6 3.00044 3.26326 0
M  V30 10619 H 989.82 0.555186 0.376842 0
M  V30 10620 H 992.364 1.9663 0.56187 0
M  V30 10621 H 990.519 2.45536 2.99651 0
M  V30 10622 H 990.933 4.61211 2.49769 0
M  V30 10623 H 992.407 3.8007 4.00313 0
M  V30 10624 H 992.884 2.11128 3.85126 0
M  V30 10625 H 993.49 3.30345 2.67866 0
M  V30 10626 N 991.805 -0.723954 1.39988 0
M  V30 10627 C 993.03 -1.5182 1.41299 0
M  V30 10628 C 993.455 -1.88096 0.0122636 0
M  V30 10629 O 992.813 -1.52687 -0.977559 0
M  V30 10630 C 992.861 -2.77532 2.30235 0
M  V30 10631 O 991.965 -3.73903 1.73984 0
M  V30 10632 H 991.306 -0.458058 0.480707 0
M  V30 10633 H 993.836 -0.892291 1.84118 0
M  V30 10634 H 993.846 -3.2615 2.45132 0
M  V30 10635 H 992.521 -2.50462 3.32026 0
M  V30 10636 H 991.098 -3.32715 1.68389 0
M  V30 10637 N 993.283 -1.25346 -0.955304 0
M  V30 10638 C 994.193 -1.07412 -2.08566 0
M  V30 10639 C 995.209 -0.0114424 -1.73996 0
M  V30 10640 O 996.385 -0.212236 -2.00279 0
M  V30 10641 C 993.45 -0.694141 -3.3968 0
M  V30 10642 C 992.511 -1.83468 -3.88121 0
M  V30 10643 C 991.744 -1.47274 -5.12978 0
M  V30 10644 O 991.967 -0.368086 -5.69211 0
M  V30 10645 O 990.901 -2.30269 -5.56111 0
M  V30 10646 H 994.727 -2.02206 -2.26598 0
M  V30 10647 H 992.312 -1.04279 -1.06988 0
M  V30 10648 H 994.194 -0.494325 -4.18491 0
M  V30 10649 H 992.869 0.224545 -3.2292 0
M  V30 10650 H 991.776 -2.08935 -3.10318 0
M  V30 10651 H 993.109 -2.73258 -4.09379 0
M  V30 10652 N 994.761 1.15782 -1.06922 0
M  V30 10653 C 996.038 1.8253 -0.703 0
M  V30 10654 C 996.418 1.94733 0.814994 0
M  V30 10655 O 995.766 1.49537 1.72774 0
M  V30 10656 C 995.976 3.19145 -1.41234 0
M  V30 10657 C 997.324 3.94839 -1.56164 0
M  V30 10658 O 998.348 3.28685 -1.37277 0
M  V30 10659 O 997.207 5.13436 -1.87205 0
M  V30 10660 H 994.301 0.788425 -0.24963 0
M  V30 10661 H 996.847 1.22931 -1.16988 0
M  V30 10662 H 995.619 3.05336 -2.44715 0
M  V30 10663 H 995.242 3.86427 -0.935959 0
M  V30 10664 N 996.239 0.8527 1.3254 0
M  V30 10665 C 997.202 0.300959 2.27215 0
M  V30 10666 C 998.202 -0.538235 1.51525 0
M  V30 10667 O 999.392 -0.350027 1.70647 0
M  V30 10668 C 996.524 -0.574428 3.36025 0
M  V30 10669 H 997.717 1.13655 2.77529 0
M  V30 10670 H 995.27 0.626878 1.43178 0
M  V30 10671 H 996.005 -1.43191 2.90976 0
M  V30 10672 H 995.79 0.0262265 3.92091 0
M  V30 10673 H 997.28 -0.9533 4.06573 0
M  V30 10674 N 997.718 -1.45297 0.610449 0
M  V30 10675 C 998.666 -2.32295 -0.119167 0
M  V30 10676 C 999.66 -1.46138 -0.856746 0
M  V30 10677 O 1000.87 -1.62605 -0.771988 0
M  V30 10678 H 997.241 -0.749815 -0.0572881 0
M  V30 10679 H 999.212 -2.91609 0.63297 0
M  V30 10680 C 997.961 -3.29802 -1.10119 0
M  V30 10681 H 997.284 -3.96095 -0.543063 0
M  V30 10682 H 998.724 -3.93398 -1.58158 0
M  V30 10683 C 997.183 -2.57185 -2.17617 0
M  V30 10684 O 997.713 -2.35535 -3.25401 0
M  V30 10685 N 995.919 -2.17272 -1.9298 0
M  V30 10686 H 995.466 -2.3508 -1.05334 0
M  V30 10687 H 995.424 -1.69009 -2.6511 0
M  V30 10688 N 999.196 -0.349774 -1.5367 0
M  V30 10689 C 1000.44 0.245095 -2.02925 0
M  V30 10690 C 1000.8 1.4727 -1.23189 0
M  V30 10691 O 1002 2.14215 -1.62374 0
M  V30 10692 C 1000.27 0.545392 -3.53214 0
M  V30 10693 S 1001.83 1.11619 -4.24366 0
M  V30 10694 H 998.649 0.0725368 -0.70729 0
M  V30 10695 H 1001.25 -0.488979 -1.89286 0
M  V30 10696 H 999.955 -0.355786 -4.08855 0
M  V30 10697 H 999.486 1.30897 -3.70985 0
M  V30 10698 H 1001.5 2.40151 -4.34214 0
M  V30 10699 N 1000.67 1.57404 -0.0785433 0
M  V30 10700 C 1001.6 2.16131 0.883726 0
M  V30 10701 C 1002.58 1.09015 1.30575 0
M  V30 10702 O 1003.77 1.3708 1.37559 0
M  V30 10703 C 1000.9 2.72836 2.1489 0
M  V30 10704 C 999.854 3.85178 1.86605 0
M  V30 10705 C 999.18 4.28516 3.1981 0
M  V30 10706 C 1000.48 5.09118 1.16601 0
M  V30 10707 H 1002.17 2.9679 0.394484 0
M  V30 10708 H 999.72 1.42763 0.188304 0
M  V30 10709 H 1001.67 3.12567 2.8263 0
M  V30 10710 H 1000.4 1.89408 2.66068 0
M  V30 10711 H 999.056 3.45962 1.21268 0
M  V30 10712 H 998.704 3.42 3.68843 0
M  V30 10713 H 998.404 5.04249 3.01674 0
M  V30 10714 H 999.928 4.70868 3.88737 0
M  V30 10715 H 1001.34 5.46123 1.74422 0
M  V30 10716 H 999.739 5.90173 1.087 0
M  V30 10717 H 1000.81 4.8468 0.146138 0
M  V30 10718 N 1002.15 -0.195058 1.56388 0
M  V30 10719 C 1003.11 -1.2254 1.93692 0
M  V30 10720 C 1004.11 -1.38437 0.81804 0
M  V30 10721 O 1005.3 -1.36248 1.08545 0
M  V30 10722 C 1002.44 -2.59476 2.21099 0
M  V30 10723 H 1003.63 -0.906544 2.8587 0
M  V30 10724 H 1001.18 -0.436577 1.50079 0
M  V30 10725 H 1001.92 -2.96417 1.31558 0
M  V30 10726 H 1001.7 -2.4931 3.02634 0
M  V30 10727 H 1003.19 -3.33777 2.50964 0
M  V30 10728 N 1003.63 -1.50653 -0.462772 0
M  V30 10729 C 1004.56 -1.73056 -1.5676 0
M  V30 10730 C 1005.54 -0.579699 -1.59917 0
M  V30 10731 O 1006.73 -0.819729 -1.76051 0
M  V30 10732 C 1003.86 -1.83234 -2.9503 0
M  V30 10733 C 1002.81 -2.98488 -3.06739 0
M  V30 10734 C 1002.14 -2.93818 -4.46738 0
M  V30 10735 C 1003.44 -4.38869 -2.83181 0
M  V30 10736 H 1005.13 -2.65562 -1.38265 0
M  V30 10737 H 1002.68 -1.27792 -0.663722 0
M  V30 10738 H 1004.63 -1.97491 -3.72257 0
M  V30 10739 H 1003.35 -0.873558 -3.14701 0
M  V30 10740 H 1002.01 -2.83895 -2.31946 0
M  V30 10741 H 1001.66 -1.95769 -4.63339 0
M  V30 10742 H 1001.36 -3.71197 -4.55507 0
M  V30 10743 H 1002.88 -3.10135 -5.25974 0
M  V30 10744 H 1004.3 -4.53945 -3.50153 0
M  V30 10745 H 1002.69 -5.17762 -3.03386 0
M  V30 10746 H 1003.76 -4.50663 -1.78972 0
M  V30 10747 N 1005.11 0.71652 -1.4037 0
M  V30 10748 C 1006.33 1.51069 -1.42102 0
M  V30 10749 C 1006.76 1.88087 -0.0222387 0
M  V30 10750 O 1006.12 1.53204 0.969448 0
M  V30 10751 C 1006.16 2.76307 -2.31704 0
M  V30 10752 O 1005.27 3.72975 -1.75964 0
M  V30 10753 H 1004.61 0.455502 -0.483129 0
M  V30 10754 H 1007.14 0.882514 -1.84588 0
M  V30 10755 H 1007.15 3.24846 -2.46859 0
M  V30 10756 H 1005.82 2.48698 -3.3335 0
M  V30 10757 H 1004.4 3.31818 -1.70151 0
M  V30 10758 N 1006.59 1.25851 0.948643 0
M  V30 10759 C 1007.83 1.10735 1.69062 0
M  V30 10760 C 1008.16 -0.351257 1.9181 0
M  V30 10761 O 1007.43 -1.24867 1.50947 0
M  V30 10762 H 1006.01 0.406796 0.626519 0
M  V30 10763 H 1008.67 1.58066 1.14022 0
M  V30 10764 H 1007.76 1.62033 2.66743 0
M  V30 10765 N 1008.06 -1.15214 1.07534 0
M  V30 10766 C 1009.01 -2.18022 0.667108 0
M  V30 10767 C 1010 -1.57911 -0.308714 0
M  V30 10768 O 1011.19 -1.76578 -0.122147 0
M  V30 10769 C 1008.32 -3.43232 0.0684348 0
M  V30 10770 C 1007.41 -4.10393 1.06951 0
M  V30 10771 N 1007.8 -4.53013 2.24973 0
M  V30 10772 C 1006.09 -4.36758 0.903262 0
M  V30 10773 C 1006.8 -5.05118 2.88498 0
M  V30 10774 N 1005.77 -4.98777 2.16153 0
M  V30 10775 H 1009.57 -2.48706 1.56597 0
M  V30 10776 H 1007.09 -1.31801 0.948796 0
M  V30 10777 H 1009.08 -4.16197 -0.241934 0
M  V30 10778 H 1007.74 -3.14031 -0.825525 0
M  V30 10779 H 1008.76 -4.4634 2.6268 0
M  V30 10780 H 1005.43 -4.17453 0.0623543 0
M  V30 10781 H 1006.82 -5.48039 3.8872 0
M  V30 10782 N 1009.54 -0.859717 -1.32086 0
M  V30 10783 C 1010.82 -0.386665 -1.9174 0
M  V30 10784 C 1011.2 1.13028 -1.78292 0
M  V30 10785 O 1010.55 1.95422 -1.18417 0
M  V30 10786 C 1010.76 -0.856648 -3.38323 0
M  V30 10787 C 1012.11 -0.87678 -4.15449 0
M  V30 10788 O 1013.13 -0.80162 -3.47063 0
M  V30 10789 O 1011.99 -0.98373 -5.37573 0
M  V30 10790 H 1009.08 -0.113758 -0.819139 0
M  V30 10791 H 1011.63 -0.946952 -1.40822 0
M  V30 10792 H 1010.4 -1.89996 -3.42078 0
M  V30 10793 H 1010.02 -0.274095 -3.96654 0
M  V30 10794 N 1011.02 1.44971 -0.618145 0
M  V30 10795 C 1011.97 2.30606 0.09449 0
M  V30 10796 C 1012.94 1.42725 0.849633 0
M  V30 10797 O 1014.12 1.71643 0.833266 0
M  V30 10798 C 1011.26 3.27803 1.07886 0
M  V30 10799 C 1010.38 4.30787 0.323488 0
M  V30 10800 C 1009.51 5.15085 1.29851 0
M  V30 10801 C 1008.55 6.09788 0.531561 0
M  V30 10802 N 1007.69 6.86829 1.4564 0
M  V30 10803 H 1012.53 2.91008 -0.641738 0
M  V30 10804 H 1010.06 1.43391 -0.328259 0
M  V30 10805 H 1012.02 3.82631 1.66281 0
M  V30 10806 H 1010.65 2.69131 1.78237 0
M  V30 10807 H 1009.7 3.78536 -0.376164 0
M  V30 10808 H 1011.02 4.98044 -0.274443 0
M  V30 10809 H 1010.17 5.74365 1.95421 0
M  V30 10810 H 1008.91 4.4787 1.93037 0
M  V30 10811 H 1007.91 5.49628 -0.137702 0
M  V30 10812 H 1009.14 6.79033 -0.0953993 0
M  V30 10813 H 1007.08 6.22295 2.07571 0
M  V30 10814 H 1007 7.50477 0.912167 0
M  V30 10815 H 1008.27 7.50642 2.10134 0
M  V30 10816 N 1012.5 0.357919 1.53482 0
M  V30 10817 C 1013.73 -0.23514 2.05559 0
M  V30 10818 C 1014.14 -1.43068 1.23195 0
M  V30 10819 O 1013.5 -1.80481 0.270741 0
M  V30 10820 C 1013.55 -0.636147 3.55859 0
M  V30 10821 O 1013.27 0.511864 4.35099 0
M  V30 10822 C 1014.77 -1.28841 4.24164 0
M  V30 10823 H 1011.99 -0.0428446 0.669631 0
M  V30 10824 H 1014.54 0.51407 1.97933 0
M  V30 10825 H 1012.69 -1.33528 3.63661 0
M  V30 10826 H 1013.1 0.189328 5.24158 0
M  V30 10827 H 1014.58 -1.51962 5.30671 0
M  V30 10828 H 1015.06 -2.24638 3.77405 0
M  V30 10829 H 1015.66 -0.630914 4.20594 0
M  V30 10830 N 1013.98 -1.5736 0.0868897 0
M  V30 10831 C 1014.89 -2.17087 -0.889402 0
M  V30 10832 C 1015.9 -1.13809 -1.31619 0
M  V30 10833 O 1017.08 -1.46143 -1.38579 0
M  V30 10834 C 1014.14 -2.73286 -2.13344 0
M  V30 10835 C 1013.2 -3.91491 -1.76164 0
M  V30 10836 C 1012.44 -4.45 -2.94637 0
M  V30 10837 O 1012.66 -3.97467 -4.09116 0
M  V30 10838 O 1011.59 -5.36133 -2.73579 0
M  V30 10839 H 1015.42 -3.00902 -0.411275 0
M  V30 10840 H 1013.01 -1.4877 -0.137015 0
M  V30 10841 H 1014.89 -3.0924 -2.86266 0
M  V30 10842 H 1013.56 -1.92521 -2.60225 0
M  V30 10843 H 1012.47 -3.60363 -1.00447 0
M  V30 10844 H 1013.8 -4.73593 -1.34053 0
M  V30 10845 N 1015.45 0.186762 -1.56489 0
M  V30 10846 C 1016.42 1.21511 -1.94339 0
M  V30 10847 C 1017.42 1.38001 -0.82537 0
M  V30 10848 O 1018.61 1.3567 -1.09266 0
M  V30 10849 C 1015.74 2.583 -2.22472 0
M  V30 10850 H 1016.93 0.891371 -2.86347 0
M  V30 10851 H 1014.49 0.428612 -1.50308 0
M  V30 10852 H 1015.22 2.95715 -1.33129 0
M  V30 10853 H 1015.01 2.47701 -3.03951 0
M  V30 10854 H 1016.5 3.32441 -2.5273 0
M  V30 10855 N 1016.93 1.50896 0.454776 0
M  V30 10856 C 1017.88 1.70947 1.55067 0
M  V30 10857 C 1018.85 0.550899 1.56698 0
M  V30 10858 O 1020.03 0.783352 1.73978 0
M  V30 10859 C 1017.17 1.82455 2.92924 0
M  V30 10860 C 1016.29 3.09919 3.00956 0
M  V30 10861 C 1015.42 3.12125 4.29827 0
M  V30 10862 C 1014.46 4.33975 4.31662 0
M  V30 10863 N 1013.6 4.33828 5.5203 0
M  V30 10864 H 1018.44 2.645 1.37273 0
M  V30 10865 H 1015.98 1.31101 0.667148 0
M  V30 10866 H 1017.93 1.87108 3.72889 0
M  V30 10867 H 1016.56 0.92327 3.09315 0
M  V30 10868 H 1015.62 3.14659 2.13761 0
M  V30 10869 H 1016.93 3.99869 2.98172 0
M  V30 10870 H 1016.08 3.15598 5.18154 0
M  V30 10871 H 1014.82 2.20033 4.35243 0
M  V30 10872 H 1013.83 4.30697 3.41731 0
M  V30 10873 H 1015.05 5.27312 4.27924 0
M  V30 10874 H 1013 3.44598 5.58201 0
M  V30 10875 H 1012.91 5.17566 5.51055 0
M  V30 10876 H 1014.18 4.4147 6.42437 0
M  V30 10877 N 1018.41 -0.709066 1.40748 0
M  V30 10878 C 1019.32 -1.85314 1.43861 0
M  V30 10879 C 1020.34 -1.70832 0.330539 0
M  V30 10880 O 1021.51 -1.92983 0.576152 0
M  V30 10881 C 1018.58 -3.21174 1.30568 0
M  V30 10882 C 1017.64 -3.47863 2.51574 0
M  V30 10883 C 1016.87 -4.77241 2.38906 0
M  V30 10884 O 1017.09 -5.52791 1.40636 0
M  V30 10885 O 1016.03 -5.04413 3.28407 0
M  V30 10886 H 1019.85 -1.85644 2.40354 0
M  V30 10887 H 1017.44 -0.860352 1.2214 0
M  V30 10888 H 1019.32 -4.02313 1.25388 0
M  V30 10889 H 1018 -3.21557 0.371841 0
M  V30 10890 H 1016.9 -2.66708 2.62331 0
M  V30 10891 H 1018.24 -3.52283 3.43741 0
M  V30 10892 N 1019.89 -1.26353 -0.941956 0
M  V30 10893 C 1020.82 -1.03634 -2.04432 0
M  V30 10894 C 1021.83 0.00295864 -1.628 0
M  V30 10895 O 1023.02 -0.237029 -1.76919 0
M  V30 10896 C 1020.12 -0.547231 -3.34453 0
M  V30 10897 C 1019.3 -1.65559 -4.04857 0
M  V30 10898 C 1018.36 -1.16466 -5.13149 0
M  V30 10899 O 1017.38 -1.86158 -5.37898 0
M  V30 10900 N 1018.58 -0.0126703 -5.80499 0
M  V30 10901 H 1021.35 -1.98558 -2.24488 0
M  V30 10902 H 1018.91 -1.17728 -1.11138 0
M  V30 10903 H 1020.9 -0.203004 -4.04191 0
M  V30 10904 H 1019.47 0.308401 -3.11075 0
M  V30 10905 H 1018.69 -2.17079 -3.29044 0
M  V30 10906 H 1019.98 -2.39985 -4.48647 0
M  V30 10907 H 1019.38 0.569358 -5.62828 0
M  V30 10908 H 1017.93 0.272486 -6.5123 0
M  V30 10909 N 1021.37 1.14642 -1.08144 0
M  V30 10910 C 1022.3 2.21775 -0.730609 0
M  V30 10911 C 1023.28 1.67683 0.285702 0
M  V30 10912 O 1024.46 1.93567 0.156667 0
M  V30 10913 C 1021.59 3.47033 -0.136242 0
M  V30 10914 C 1020.55 4.14134 -1.0806 0
M  V30 10915 C 1019.87 5.33563 -0.348585 0
M  V30 10916 C 1021.17 4.62978 -2.41761 0
M  V30 10917 H 1022.87 2.51378 -1.62633 0
M  V30 10918 H 1020.41 1.20825 -0.783411 0
M  V30 10919 H 1022.37 4.21226 0.121182 0
M  V30 10920 H 1021.09 3.16786 0.7946 0
M  V30 10921 H 1019.75 3.41892 -1.32308 0
M  V30 10922 H 1019.4 4.99575 0.585974 0
M  V30 10923 H 1019.1 5.79402 -0.978122 0
M  V30 10924 H 1020.62 6.10519 -0.0991508 0
M  V30 10925 H 1022.04 5.28659 -2.21795 0
M  V30 10926 H 1020.43 5.1951 -3.00383 0
M  V30 10927 H 1021.5 3.78189 -3.03482 0
M  V30 10928 N 1022.85 0.866709 1.31628 0
M  V30 10929 C 1024.12 0.396828 1.91532 0
M  V30 10930 C 1024.5 -1.12081 1.78889 0
M  V30 10931 O 1023.85 -1.94791 1.19452 0
M  V30 10932 C 1024.06 0.874578 3.37864 0
M  V30 10933 C 1025.41 0.8988 4.14978 0
M  V30 10934 O 1026.43 0.820014 3.46633 0
M  V30 10935 O 1025.29 1.01223 5.37044 0
M  V30 10936 H 1022.39 0.1181 0.818524 0
M  V30 10937 H 1024.93 0.954407 1.40318 0
M  V30 10938 H 1023.7 1.91807 3.41066 0
M  V30 10939 H 1023.33 0.295126 3.96503 0
M  V30 10940 N 1024.32 -1.44642 0.625825 0
M  V30 10941 C 1025.55 -2.06458 0.135116 0
M  V30 10942 C 1025.97 -1.46729 -1.18811 0
M  V30 10943 O 1025.32 -0.58818 -1.72762 0
M  V30 10944 C 1025.37 -3.61499 0.00850114 0
M  V30 10945 O 1025.1 -4.19002 1.2794 0
M  V30 10946 C 1026.6 -4.40339 -0.511527 0
M  V30 10947 H 1023.82 -0.666541 0.0772294 0
M  V30 10948 H 1026.36 -1.85597 0.858726 0
M  V30 10949 H 1024.52 -3.81641 -0.665522 0
M  V30 10950 H 1024.93 -5.12385 1.12081 0
M  V30 10951 H 1026.4 -5.49262 -0.549149 0
M  V30 10952 H 1026.88 -4.11409 -1.53752 0
M  V30 10953 H 1027.49 -4.25104 0.129066 0
M  V30 10954 N 1025.8 -0.366053 -1.5329 0
M  V30 10955 C 1026.71 0.488111 -2.29466 0
M  V30 10956 C 1027.73 1.09219 -1.35452 0
M  V30 10957 O 1028.9 1.10303 -1.68509 0
M  V30 10958 C 1025.97 1.61202 -3.06944 0
M  V30 10959 C 1025.03 1.03543 -4.16626 0
M  V30 10960 C 1024.26 2.10578 -4.904 0
M  V30 10961 O 1024.49 3.31697 -4.6404 0
M  V30 10962 O 1023.42 1.73609 -5.76319 0
M  V30 10963 H 1027.25 -0.131789 -3.03414 0
M  V30 10964 H 1024.83 -0.130421 -1.4883 0
M  V30 10965 H 1026.71 2.26546 -3.55324 0
M  V30 10966 H 1025.39 2.21732 -2.35832 0
M  V30 10967 H 1024.29 0.345892 -3.72498 0
M  V30 10968 H 1025.63 0.474687 -4.89906 0
M  V30 10969 N 1027.28 1.57312 -0.0952337 0
M  V30 10970 C 1028.51 1.98697 0.57682 0
M  V30 10971 C 1028.92 0.974347 1.61716 0
M  V30 10972 O 1028.28 -0.036022 1.82464 0
M  V30 10973 C 1028.33 3.40133 1.2244 0
M  V30 10974 O 1028.05 4.37518 0.225678 0
M  V30 10975 C 1029.55 3.96522 1.98205 0
M  V30 10976 H 1026.77 0.65294 0.154629 0
M  V30 10977 H 1029.32 2.03754 -0.174562 0
M  V30 10978 H 1027.47 3.3609 1.92671 0
M  V30 10979 H 1027.89 5.199 0.693116 0
M  V30 10980 H 1029.36 4.97637 2.38875 0
M  V30 10981 H 1029.84 3.34347 2.84796 0
M  V30 10982 H 1030.44 4.04038 1.3279 0
M  V30 10983 N 1028.76 -0.17846 1.56586 0
M  V30 10984 C 1029.98 -0.916061 1.86073 0
M  V30 10985 C 1030.41 -1.75349 0.680754 0
M  V30 10986 O 1029.77 -1.77479 -0.37028 0
M  V30 10987 C 1029.81 -1.77445 3.1392 0
M  V30 10988 O 1028.92 -2.87524 2.95641 0
M  V30 10989 H 1028.26 -0.257031 0.612234 0
M  V30 10990 H 1030.79 -0.178755 2.03818 0
M  V30 10991 H 1030.8 -2.1758 3.45142 0
M  V30 10992 H 1029.47 -1.15927 3.99417 0
M  V30 10993 H 1028.05 -2.51023 2.75757 0
M  V30 10994 N 1030.24 -1.51135 -0.446768 0
M  V30 10995 C 1031.46 -1.67129 -1.21965 0
M  V30 10996 C 1031.88 -0.36467 -1.85245 0
M  V30 10997 O 1031.24 0.655908 -1.70306 0
M  V30 10998 C 1031.29 -2.78016 -2.31061 0
M  V30 10999 O 1031.01 -4.03615 -1.70371 0
M  V30 11000 C 1032.51 -3.05197 -3.21511 0
M  V30 11001 H 1029.73 -0.561111 -0.367961 0
M  V30 11002 H 1032.27 -1.97499 -0.530517 0
M  V30 11003 H 1030.43 -2.50272 -2.95707 0
M  V30 11004 H 1030.84 -4.65126 -2.424 0
M  V30 11005 H 1032.32 -3.8639 -3.94216 0
M  V30 11006 H 1032.79 -2.17228 -3.81718 0
M  V30 11007 H 1033.4 -3.34565 -2.62577 0
M  V30 11008 N 1031.71 0.701592 -1.41122 0
M  V30 11009 C 1032.94 1.49049 -1.43499 0
M  V30 11010 C 1033.36 1.88761 -0.0385684 0
M  V30 11011 O 1032.71 1.56384 0.940755 0
M  V30 11012 C 1032.76 2.7569 -2.33832 0
M  V30 11013 O 1032.49 2.37653 -3.68039 0
M  V30 11014 C 1033.99 3.69479 -2.44949 0
M  V30 11015 H 1031.21 0.459519 -0.488961 0
M  V30 11016 H 1033.75 0.864318 -1.85337 0
M  V30 11017 H 1031.91 3.34559 -1.95318 0
M  V30 11018 H 1032.32 3.19241 -4.16156 0
M  V30 11019 H 1033.79 4.55139 -3.12334 0
M  V30 11020 H 1034.27 4.13553 -1.47887 0
M  V30 11021 H 1034.88 3.16517 -2.84072 0
M  V30 11022 N 1033.19 1.2685 0.935242 0
M  V30 11023 C 1034.12 1.04717 2.0388 0
M  V30 11024 C 1035.14 0.00567507 1.62799 0
M  V30 11025 O 1036.33 0.246408 1.76791 0
M  V30 11026 C 1033.43 0.56496 3.34158 0
M  V30 11027 C 1032.6 1.67704 4.03973 0
M  V30 11028 C 1031.66 1.19186 5.12524 0
M  V30 11029 O 1030.68 1.89008 5.36903 0
M  V30 11030 N 1031.89 0.0434554 5.80484 0
M  V30 11031 H 1034.65 1.99746 2.23431 0
M  V30 11032 H 1032.21 1.18316 1.10512 0
M  V30 11033 H 1034.2 0.224436 4.04077 0
M  V30 11034 H 1032.77 -0.291899 3.11234 0
M  V30 11035 H 1031.99 2.18821 3.27889 0
M  V30 11036 H 1033.28 2.42361 4.47368 0
M  V30 11037 H 1032.68 -0.539502 5.63122 0
M  V30 11038 H 1031.24 -0.237946 6.51366 0
M  V30 11039 N 1034.67 -1.14067 1.0875 0
M  V30 11040 C 1035.9 -1.89582 0.841038 0
M  V30 11041 C 1036.32 -1.78226 -0.601436 0
M  V30 11042 O 1035.68 -1.12491 -1.42181 0
M  V30 11043 C 1035.73 -3.37415 1.27213 0
M  V30 11044 O 1034.83 -4.10191 0.426246 0
M  V30 11045 H 1034.17 -0.589716 0.305173 0
M  V30 11046 H 1036.7 -1.44364 1.44984 0
M  V30 11047 H 1036.71 -3.88234 1.25451 0
M  V30 11048 H 1035.39 -3.44999 2.32268 0
M  V30 11049 H 1033.96 -3.69429 0.507585 0
M  V30 11050 N 1036.15 -0.873678 -1.31166 0
M  V30 11051 C 1037.06 -0.335726 -2.32185 0
M  V30 11052 C 1038.07 0.556259 -1.64869 0
M  V30 11053 O 1039.25 0.452087 -1.9626 0
M  V30 11054 C 1036.32 0.450822 -3.43756 0
M  V30 11055 C 1035.38 -0.469565 -4.26724 0
M  V30 11056 C 1034.61 0.279538 -5.32967 0
M  V30 11057 O 1034.83 1.50715 -5.50128 0
M  V30 11058 O 1033.77 -0.36452 -6.00795 0
M  V30 11059 H 1037.59 -1.17314 -2.80127 0
M  V30 11060 H 1035.18 -0.637163 -1.35132 0
M  V30 11061 H 1037.06 0.896582 -4.11752 0
M  V30 11062 H 1035.73 1.26472 -2.9797 0
M  V30 11063 H 1034.64 -0.963902 -3.61469 0
M  V30 11064 H 1035.97 -1.24916 -4.76085 0
M  V30 11065 N 1037.63 1.44308 -0.633487 0
M  V30 11066 C 1038.85 2.06384 -0.146063 0
M  V30 11067 C 1039.27 1.47357 1.18031 0
M  V30 11068 O 1038.63 0.597334 1.72448 0
M  V30 11069 C 1038.68 3.61489 -0.0276722 0
M  V30 11070 O 1038.4 4.18318 -1.3016 0
M  V30 11071 C 1039.9 4.40604 0.488168 0
M  V30 11072 H 1037.12 0.666122 -0.0807632 0
M  V30 11073 H 1039.66 1.85139 -0.868557 0
M  V30 11074 H 1037.82 3.81988 0.645273 0
M  V30 11075 H 1038.23 5.11783 -1.14797 0
M  V30 11076 H 1039.71 5.49545 0.520013 0
M  V30 11077 H 1040.18 4.12218 1.51568 0
M  V30 11078 H 1040.79 4.2503 -0.151608 0
M  V30 11079 N 1039.1 0.374177 1.53094 0
M  V30 11080 C 1040.35 -0.213981 2.00562 0
M  V30 11081 C 1040.67 -1.4916 1.26533 0
M  V30 11082 O 1041.87 -2.15889 1.64634 0
M  V30 11083 C 1040.33 -0.431876 3.57299 0
M  V30 11084 C 1039.94 0.831615 4.40214 0
M  V30 11085 C 1041.68 -0.977222 4.13099 0
M  V30 11086 C 1039.59 0.582831 5.88521 0
M  V30 11087 H 1038.52 -0.0837386 0.749336 0
M  V30 11088 H 1041.17 0.494245 1.76719 0
M  V30 11089 H 1039.55 -1.20158 3.7733 0
M  V30 11090 H 1040.72 1.60477 4.31953 0
M  V30 11091 H 1039.04 1.30081 3.9556 0
M  V30 11092 H 1041.64 -1.17881 5.21544 0
M  V30 11093 H 1041.98 -1.94189 3.68234 0
M  V30 11094 H 1042.51 -0.267473 3.969 0
M  V30 11095 H 1039.25 1.51807 6.37679 0
M  V30 11096 H 1038.77 -0.151666 5.99608 0
M  V30 11097 H 1040.45 0.211604 6.46654 0
M  V30 11098 N 1040.58 -1.57259 0.103575 0
M  V30 11099 C 1041.51 -2.1153 -0.882472 0
M  V30 11100 C 1042.53 -1.05446 -1.24036 0
M  V30 11101 O 1043.72 -1.32867 -1.192 0
M  V30 11102 C 1040.82 -2.58717 -2.18903 0
M  V30 11103 C 1039.99 -3.8873 -2.00519 0
M  V30 11104 C 1039.05 -4.21675 -3.14764 0
M  V30 11105 O 1038.07 -4.90755 -2.88355 0
M  V30 11106 N 1039.28 -3.77757 -4.40772 0
M  V30 11107 H 1042.04 -2.96758 -0.418901 0
M  V30 11108 H 1039.6 -1.61696 -0.0812921 0
M  V30 11109 H 1041.59 -2.77797 -2.94297 0
M  V30 11110 H 1040.16 -1.78454 -2.56657 0
M  V30 11111 H 1039.38 -3.78714 -1.09406 0
M  V30 11112 H 1040.67 -4.73771 -1.85522 0
M  V30 11113 H 1040.07 -3.22011 -4.65108 0
M  V30 11114 H 1038.63 -4.01975 -5.13088 0
M  V30 11115 N 1042.06 0.170153 -1.56679 0
M  V30 11116 C 1043.29 0.902134 -1.86197 0
M  V30 11117 C 1043.7 1.75775 -0.689098 0
M  V30 11118 O 1043.06 1.79271 0.341763 0
M  V30 11119 C 1043.11 1.77792 -3.14757 0
M  V30 11120 O 1042.83 0.956817 -4.27524 0
M  V30 11121 C 1044.33 2.61947 -3.57629 0
M  V30 11122 H 1041.55 0.262026 -0.617724 0
M  V30 11123 H 1044.1 0.169899 -2.03793 0
M  V30 11124 H 1042.25 2.46348 -2.98984 0
M  V30 11125 H 1042.67 1.5559 -5.00891 0
M  V30 11126 H 1044.14 3.19011 -4.50484 0
M  V30 11127 H 1044.62 3.36873 -2.81803 0
M  V30 11128 H 1045.22 1.98721 -3.76019 0
M  V30 11129 N 1043.54 1.5137 0.438746 0
M  V30 11130 C 1044.5 1.71993 1.51496 0
M  V30 11131 C 1045.5 0.589978 1.49586 0
M  V30 11132 O 1046.69 0.857505 1.51633 0
M  V30 11133 C 1043.82 1.77508 2.91039 0
M  V30 11134 H 1045.02 2.68041 1.34514 0
M  V30 11135 H 1042.57 1.41338 0.667326 0
M  V30 11136 H 1043.3 0.832698 3.13427 0
M  V30 11137 H 1043.09 2.59627 2.9383 0
M  V30 11138 H 1044.58 1.95308 3.69113 0
M  V30 11139 N 1045.02 -0.694098 1.41492 0
M  V30 11140 C 1045.98 -1.78976 1.43179 0
M  V30 11141 C 1046.98 -1.57539 0.322191 0
M  V30 11142 O 1048.17 -1.64185 0.582138 0
M  V30 11143 C 1045.3 -3.17368 1.2446 0
M  V30 11144 H 1046.49 -1.78874 2.40716 0
M  V30 11145 H 1044.05 -0.901867 1.27656 0
M  V30 11146 H 1044.78 -3.23109 0.277691 0
M  V30 11147 H 1044.57 -3.3433 2.04856 0
M  V30 11148 H 1046.06 -3.97345 1.28479 0
M  V30 11149 N 1046.49 -1.27344 -0.928501 0
M  V30 11150 C 1047.72 -1.16557 -1.7155 0
M  V30 11151 C 1048.14 0.274044 -1.86093 0
M  V30 11152 O 1047.5 1.19847 -1.36038 0
M  V30 11153 C 1047.55 -1.85332 -3.09329 0
M  V30 11154 O 1046.65 -1.15074 -3.9602 0
M  V30 11155 H 1046 -0.405423 -0.525859 0
M  V30 11156 H 1048.53 -1.68399 -1.16202 0
M  V30 11157 H 1048.54 -1.92659 -3.59648 0
M  V30 11158 H 1047.21 -2.90056 -2.98061 0
M  V30 11159 H 1045.79 -1.1581 -3.54461 0
M  V30 11160 N 1047.97 1.13488 -1.09353 0
M  V30 11161 C 1048.9 2.20988 -0.75409 0
M  V30 11162 C 1049.88 1.67977 0.267901 0
M  V30 11163 O 1051.07 1.93722 0.136128 0
M  V30 11164 C 1048.2 3.46869 -0.173042 0
M  V30 11165 C 1047.15 4.12965 -1.12446 0
M  V30 11166 C 1046.48 5.33163 -0.405157 0
M  V30 11167 C 1047.78 4.60388 -2.46658 0
M  V30 11168 H 1049.47 2.49639 -1.6529 0
M  V30 11169 H 1047.02 1.19987 -0.796182 0
M  V30 11170 H 1048.97 4.21331 0.0764988 0
M  V30 11171 H 1047.7 3.17611 0.760956 0
M  V30 11172 H 1046.35 3.40469 -1.35927 0
M  V30 11173 H 1046 5.00169 0.532955 0
M  V30 11174 H 1045.7 5.78332 -1.03952 0
M  V30 11175 H 1047.23 6.1038 -0.163899 0
M  V30 11176 H 1048.64 5.26276 -2.27389 0
M  V30 11177 H 1047.04 5.16294 -3.05876 0
M  V30 11178 H 1048.11 3.74949 -3.07476 0
M  V30 11179 N 1049.45 0.880621 1.30701 0
M  V30 11180 C 1050.38 0.360251 2.30704 0
M  V30 11181 C 1051.36 -0.554572 1.60806 0
M  V30 11182 O 1052.55 -0.469345 1.88443 0
M  V30 11183 C 1049.68 -0.429888 3.44629 0
M  V30 11184 C 1048.63 0.392786 4.26194 0
M  V30 11185 C 1047.96 -0.52369 5.32129 0
M  V30 11186 C 1049.26 1.63258 4.96129 0
M  V30 11187 H 1050.95 1.19591 2.74478 0
M  V30 11188 H 1048.5 0.576508 1.31956 0
M  V30 11189 H 1050.45 -0.804532 4.13649 0
M  V30 11190 H 1049.17 -1.29916 2.99649 0
M  V30 11191 H 1047.83 0.749514 3.58856 0
M  V30 11192 H 1047.48 -1.39054 4.83397 0
M  V30 11193 H 1047.18 0.0229272 5.87596 0
M  V30 11194 H 1048.71 -0.894946 6.04006 0
M  V30 11195 H 1050.12 1.32877 5.57689 0
M  V30 11196 H 1048.52 2.11906 5.61441 0
M  V30 11197 H 1049.59 2.37944 4.22505 0
M  V30 11198 N 1050.93 -1.4397 0.641131 0
M  V30 11199 C 1051.89 -2.29149 -0.0482243 0
M  V30 11200 C 1052.89 -1.41572 -0.762495 0
M  V30 11201 O 1054.08 -1.63335 -0.605571 0
M  V30 11202 C 1051.21 -3.23375 -1.07896 0
M  V30 11203 H 1052.41 -2.9159 0.70109 0
M  V30 11204 H 1049.96 -1.51048 0.401754 0
M  V30 11205 H 1050.7 -2.65804 -1.85792 0
M  V30 11206 H 1050.48 -3.87926 -0.570597 0
M  V30 11207 H 1051.97 -3.87337 -1.56075 0
M  V30 11208 N 1052.41 -0.382291 -1.52893 0
M  V30 11209 C 1053.63 0.204961 -2.06385 0
M  V30 11210 C 1054.06 1.40316 -1.25271 0
M  V30 11211 O 1053.42 1.79187 -0.275969 0
M  V30 11212 C 1053.46 0.560205 -3.56222 0
M  V30 11213 O 1052.57 1.65515 -3.77728 0
M  V30 11214 H 1051.91 0.0258798 -0.663495 0
M  V30 11215 H 1054.44 -0.547733 -1.97132 0
M  V30 11216 H 1054.45 0.826501 -3.99541 0
M  V30 11217 H 1053.12 -0.31584 -4.14699 0
M  V30 11218 H 1051.7 1.38311 -3.46301 0
M  V30 11219 N 1053.89 1.57202 -0.111913 0
M  V30 11220 C 1054.82 2.11995 0.871242 0
M  V30 11221 C 1055.83 1.06102 1.23475 0
M  V30 11222 O 1057.02 1.33497 1.18494 0
M  V30 11223 C 1054.12 2.59874 2.17528 0
M  V30 11224 C 1053.29 3.89788 1.98455 0
M  V30 11225 C 1052.35 4.23339 3.12523 0
M  V30 11226 O 1051.38 4.92277 2.85748 0
M  V30 11227 N 1052.58 3.80089 4.38762 0
M  V30 11228 H 1055.34 2.96976 0.403157 0
M  V30 11229 H 1052.91 1.61737 0.0727159 0
M  V30 11230 H 1054.9 2.79354 2.9282 0
M  V30 11231 H 1053.47 1.79812 2.55707 0
M  V30 11232 H 1052.69 3.79288 1.07396 0
M  V30 11233 H 1053.98 4.74748 1.83007 0
M  V30 11234 H 1053.37 3.24473 4.63394 0
M  V30 11235 H 1051.93 4.04691 5.10949 0
M  V30 11236 N 1055.36 -0.161842 1.56767 0
M  V30 11237 C 1056.31 -1.2002 1.97139 0
M  V30 11238 C 1057.28 -1.43486 0.836713 0
M  V30 11239 O 1058.47 -1.56069 1.0976 0
M  V30 11240 C 1055.61 -2.53228 2.34456 0
M  V30 11241 C 1054.72 -2.37062 3.61145 0
M  V30 11242 C 1053.85 -3.63202 3.87631 0
M  V30 11243 C 1052.89 -3.42008 5.07638 0
M  V30 11244 N 1052.03 -4.60242 5.30209 0
M  V30 11245 H 1056.87 -0.848918 2.85653 0
M  V30 11246 H 1054.41 -0.407753 1.41336 0
M  V30 11247 H 1056.36 -3.30879 2.54116 0
M  V30 11248 H 1054.99 -2.86333 1.4904 0
M  V30 11249 H 1054.05 -1.50539 3.49345 0
M  V30 11250 H 1055.36 -2.17353 4.48953 0
M  V30 11251 H 1054.51 -4.49285 4.0771 0
M  V30 11252 H 1053.25 -3.85899 2.98216 0
M  V30 11253 H 1052.26 -2.54312 4.87448 0
M  V30 11254 H 1053.48 -3.20724 5.98593 0
M  V30 11255 H 1051.43 -4.8314 4.43747 0
M  V30 11256 H 1051.34 -4.43481 6.12259 0
M  V30 11257 H 1052.61 -5.47581 5.54775 0
M  V30 11258 N 1056.84 -1.516 -0.430713 0
M  V30 11259 C 1058.07 -1.68414 -1.20185 0
M  V30 11260 C 1058.48 -0.384297 -1.84847 0
M  V30 11261 O 1057.84 0.637808 -1.70992 0
M  V30 11262 C 1057.89 -2.80451 -2.28099 0
M  V30 11263 O 1057.61 -4.05399 -1.66081 0
M  V30 11264 C 1059.11 -3.0859 -3.18256 0
M  V30 11265 H 1056.33 -0.564982 -0.361989 0
M  V30 11266 H 1058.88 -1.9805 -0.50954 0
M  V30 11267 H 1057.03 -2.53395 -2.93036 0
M  V30 11268 H 1057.45 -4.67671 -2.37453 0
M  V30 11269 H 1058.92 -3.9055 -3.90096 0
M  V30 11270 H 1059.4 -2.21264 -3.79393 0
M  V30 11271 H 1060 -3.37331 -2.59014 0
M  V30 11272 N 1058.32 0.686584 -1.41858 0
M  V30 11273 C 1059.54 1.4802 -1.45275 0
M  V30 11274 C 1059.97 1.87997 -0.0621297 0
M  V30 11275 O 1059.33 1.55226 0.936733 0
M  V30 11276 C 1059.38 2.7133 -2.37513 0
M  V30 11277 O 1058.48 3.69159 -1.83836 0
M  V30 11278 H 1057.82 0.445152 -0.492682 0
M  V30 11279 H 1060.35 0.843161 -1.86419 0
M  V30 11280 H 1060.36 3.19537 -2.53693 0
M  V30 11281 H 1059.04 2.41571 -3.3855 0
M  V30 11282 H 1057.61 3.28134 -1.77151 0
M  V30 11283 N 1059.8 1.27835 0.921735 0
M  V30 11284 C 1061.02 1.17465 1.70929 0
M  V30 11285 C 1061.45 -0.264171 1.86236 0
M  V30 11286 O 1060.81 -1.19124 1.36671 0
M  V30 11287 C 1060.85 1.8697 3.08342 0
M  V30 11288 O 1059.96 1.17173 3.95404 0
M  V30 11289 H 1059.3 0.408206 0.523702 0
M  V30 11290 H 1061.83 1.69013 1.15307 0
M  V30 11291 H 1061.84 1.94564 3.58621 0
M  V30 11292 H 1060.51 2.91633 2.96518 0
M  V30 11293 H 1059.09 1.17688 3.53842 0
M  V30 11294 N 1061.28 -1.12907 1.09954 0
M  V30 11295 C 1062.5 -1.88138 0.860905 0
M  V30 11296 C 1062.92 -1.79402 -0.588256 0
M  V30 11297 O 1062.28 -1.16442 -1.40526 0
M  V30 11298 C 1062.33 -3.37537 1.29425 0
M  V30 11299 O 1062.05 -3.46056 2.68658 0
M  V30 11300 C 1063.55 -4.29721 1.08879 0
M  V30 11301 H 1060.77 -0.595437 0.309347 0
M  V30 11302 H 1063.31 -1.42894 1.46292 0
M  V30 11303 H 1061.47 -3.80344 0.736009 0
M  V30 11304 H 1061.88 -4.38969 2.87065 0
M  V30 11305 H 1063.36 -5.32854 1.4412 0
M  V30 11306 H 1063.83 -4.39192 0.0270053 0
M  V30 11307 H 1064.44 -3.9269 1.63325 0
M  V30 11308 N 1062.75 -0.88754 -1.30232 0
M  V30 11309 C 1064.03 -0.427249 -1.90877 0
M  V30 11310 C 1064.41 1.0922 -1.80649 0
M  V30 11311 O 1063.76 1.92866 -1.22536 0
M  V30 11312 C 1063.97 -0.928219 -3.3643 0
M  V30 11313 C 1065.32 -0.964706 -4.13496 0
M  V30 11314 O 1066.34 -0.875057 -3.45284 0
M  V30 11315 O 1065.2 -1.09754 -5.35366 0
M  V30 11316 H 1062.29 -0.131107 -0.816541 0
M  V30 11317 H 1064.84 -0.976609 -1.38782 0
M  V30 11318 H 1063.61 -1.97209 -3.37971 0
M  V30 11319 H 1063.23 -0.358169 -3.95983 0
M  V30 11320 N 1064.23 1.43628 -0.648757 0
M  V30 11321 C 1065.16 2.33478 0.0320785 0
M  V30 11322 C 1066.14 1.49217 0.816605 0
M  V30 11323 O 1067.33 1.77892 0.778974 0
M  V30 11324 C 1064.46 3.32525 1.00222 0
M  V30 11325 C 1063.41 4.2674 0.328119 0
M  V30 11326 C 1062.74 5.15791 1.4094 0
M  V30 11327 C 1064.04 5.16493 -0.776701 0
M  V30 11328 H 1065.73 2.90657 -0.718257 0
M  V30 11329 H 1063.28 1.3976 -0.346852 0
M  V30 11330 H 1065.23 3.94277 1.4874 0
M  V30 11331 H 1063.96 2.73593 1.78366 0
M  V30 11332 H 1062.61 3.66346 -0.136569 0
M  V30 11333 H 1062.26 4.53201 2.18216 0
M  V30 11334 H 1061.96 5.79645 0.963631 0
M  V30 11335 H 1063.49 5.80416 1.89603 0
M  V30 11336 H 1064.9 5.7208 -0.373878 0
M  V30 11337 H 1063.3 5.89043 -1.14667 0
M  V30 11338 H 1064.37 4.56448 -1.63654 0
M  V30 11339 N 1065.71 0.390394 1.52688 0
M  V30 11340 C 1066.94 -0.194013 2.06491 0
M  V30 11341 C 1067.36 -1.3965 1.26014 0
M  V30 11342 O 1066.72 -1.79038 0.285468 0
M  V30 11343 C 1066.77 -0.541306 3.56514 0
M  V30 11344 O 1065.87 -1.63509 3.78601 0
M  V30 11345 H 1065.21 -0.0223608 0.663623 0
M  V30 11346 H 1067.74 0.558179 1.96839 0
M  V30 11347 H 1067.75 -0.805301 3.99974 0
M  V30 11348 H 1066.43 0.337828 4.14526 0
M  V30 11349 H 1065 -1.36473 3.4703 0
M  V30 11350 N 1067.19 -1.57141 0.120249 0
M  V30 11351 C 1068.47 -1.8677 -0.581075 0
M  V30 11352 C 1068.85 -1.02163 -1.84732 0
M  V30 11353 O 1068.19 -0.100897 -2.28277 0
M  V30 11354 C 1068.4 -3.37923 -0.872316 0
M  V30 11355 C 1069.75 -4.0655 -1.22483 0
M  V30 11356 O 1070.78 -3.42948 -0.962539 0
M  V30 11357 O 1069.63 -5.18821 -1.71717 0
M  V30 11358 H 1066.73 -0.773219 -0.293362 0
M  V30 11359 H 1069.27 -1.68992 0.154846 0
M  V30 11360 H 1068.05 -3.91292 0.0249416 0
M  V30 11361 H 1067.67 -3.61135 -1.66335 0
M  V30 11362 N 1068.67 0.153526 -1.5685 0
M  V30 11363 C 1069.92 0.865628 -1.82181 0
M  V30 11364 C 1070.23 1.82629 -0.700434 0
M  V30 11365 O 1071.43 2.58206 -0.839155 0
M  V30 11366 C 1069.89 1.58993 -3.22877 0
M  V30 11367 C 1069.5 0.672006 -4.42931 0
M  V30 11368 C 1071.24 2.2892 -3.57486 0
M  V30 11369 C 1069.15 1.39755 -5.7465 0
M  V30 11370 H 1068.08 0.326993 -0.679406 0
M  V30 11371 H 1070.73 0.118403 -1.83118 0
M  V30 11372 H 1069.11 2.38255 -3.16308 0
M  V30 11373 H 1070.29 -0.0849226 -4.60722 0
M  V30 11374 H 1068.6 0.0814825 -4.1632 0
M  V30 11375 H 1071.2 2.8383 -4.5315 0
M  V30 11376 H 1071.54 3.05105 -2.83226 0
M  V30 11377 H 1072.07 1.56583 -3.65686 0
M  V30 11378 H 1068.81 0.677686 -6.51987 0
M  V30 11379 H 1068.33 2.12736 -5.60806 0
M  V30 11380 H 1070.01 1.94024 -6.17223 0
M  V30 11381 N 1070.14 1.51827 0.422667 0
M  V30 11382 C 1071.56 1.57533 1.00201 0
M  V30 11383 C 1071.91 0.407623 1.91919 0
M  V30 11384 O 1071.03 -0.473763 2.1115 0
M  V30 11385 C 1071.63 2.85508 1.82403 0
M  V30 11386 C 1070.19 2.93737 2.35362 0
M  V30 11387 C 1069.33 2.52343 1.14971 0
M  V30 11388 H 1072.28 1.57391 0.20339 0
M  V30 11389 H 1072.3 2.70097 2.68007 0
M  V30 11390 H 1071.82 3.70477 1.15623 0
M  V30 11391 H 1069.92 2.13231 3.05554 0
M  V30 11392 H 1070.03 3.977 2.67155 0
M  V30 11393 H 1068.39 2.05878 1.49955 0
M  V30 11394 H 1069.18 3.39672 0.497786 0
M  V30 11395 N 1071.62 -0.679052 1.4222 0
M  V30 11396 C 1072.59 -1.77448 1.45069 0
M  V30 11397 C 1073.59 -1.57189 0.338882 0
M  V30 11398 O 1074.78 -1.63559 0.599519 0
M  V30 11399 C 1071.91 -3.1603 1.27819 0
M  V30 11400 H 1073.1 -1.7631 2.426 0
M  V30 11401 H 1070.65 -0.888277 1.28605 0
M  V30 11402 H 1071.39 -3.22796 0.311946 0
M  V30 11403 H 1071.17 -3.32138 2.08391 0
M  V30 11404 H 1072.66 -3.9596 1.32686 0
M  V30 11405 N 1073.1 -1.28322 -0.914942 0
M  V30 11406 C 1074.03 -1.14681 -2.03398 0
M  V30 11407 C 1075.01 -0.0448939 -1.70041 0
M  V30 11408 O 1076.2 -0.221672 -1.92931 0
M  V30 11409 C 1073.33 -0.806623 -3.37803 0
M  V30 11410 C 1072.28 -1.86318 -3.85318 0
M  V30 11411 C 1071.61 -1.37665 -5.16674 0
M  V30 11412 C 1072.91 -3.26953 -4.07307 0
M  V30 11413 H 1074.6 -2.08293 -2.15068 0
M  V30 11414 H 1072.15 -1.00284 -1.03339 0
M  V30 11415 H 1074.1 -0.69796 -4.1558 0
M  V30 11416 H 1072.82 0.165203 -3.26182 0
M  V30 11417 H 1071.48 -1.96096 -3.09745 0
M  V30 11418 H 1071.13 -0.393927 -5.01455 0
M  V30 11419 H 1070.83 -2.08313 -5.49435 0
M  V30 11420 H 1072.35 -1.28119 -5.97007 0
M  V30 11421 H 1073.77 -3.20102 -4.75613 0
M  V30 11422 H 1072.17 -3.95424 -4.51398 0
M  V30 11423 H 1073.24 -3.71059 -3.12159 0
M  V30 11424 N 1074.58 1.12322 -1.10551 0
M  V30 11425 C 1075.99 1.6539 -0.8662 0
M  V30 11426 C 1076.34 1.86695 0.603284 0
M  V30 11427 O 1075.47 1.59432 1.46323 0
M  V30 11428 C 1076.06 3.00443 -1.56587 0
M  V30 11429 C 1074.62 3.50456 -1.37323 0
M  V30 11430 C 1073.77 2.25454 -1.61449 0
M  V30 11431 H 1076.72 0.960866 -1.26305 0
M  V30 11432 H 1076.74 3.66972 -1.00557 0
M  V30 11433 H 1076.25 2.84905 -2.63535 0
M  V30 11434 H 1074.35 3.71176 -0.325431 0
M  V30 11435 H 1074.46 4.29839 -2.11601 0
M  V30 11436 H 1072.83 2.32621 -1.03729 0
M  V30 11437 H 1073.61 2.12469 -2.69651 0
M  V30 11438 N 1076.06 0.894434 1.2976 0
M  V30 11439 C 1077.02 0.373094 2.26143 0
M  V30 11440 C 1078.02 -0.489756 1.5316 0
M  V30 11441 O 1079.21 -0.29556 1.71674 0
M  V30 11442 C 1076.34 -0.467234 3.37683 0
M  V30 11443 H 1077.53 1.22427 2.73773 0
M  V30 11444 H 1075.09 0.672112 1.41111 0
M  V30 11445 H 1075.82 -1.33861 2.95384 0
M  V30 11446 H 1075.61 0.150954 3.91809 0
M  V30 11447 H 1077.1 -0.823469 4.094 0
M  V30 11448 N 1077.53 -1.43282 0.656365 0
M  V30 11449 C 1078.48 -2.32556 -0.0452037 0
M  V30 11450 C 1079.48 -1.48789 -0.80982 0
M  V30 11451 O 1080.68 -1.64979 -0.719865 0
M  V30 11452 H 1077.06 -0.751258 -0.0334043 0
M  V30 11453 H 1079.03 -2.89448 0.725423 0
M  V30 11454 C 1077.78 -3.33138 -0.995706 0
M  V30 11455 H 1077.1 -3.97622 -0.416774 0
M  V30 11456 H 1078.54 -3.98231 -1.45562 0
M  V30 11457 C 1077 -2.63978 -2.09325 0
M  V30 11458 O 1077.53 -2.45769 -3.17743 0
M  V30 11459 N 1075.74 -2.23301 -1.8597 0
M  V30 11460 H 1075.28 -2.38312 -0.97802 0
M  V30 11461 H 1075.24 -1.77358 -2.59599 0
M  V30 11462 N 1079.01 -0.398486 -1.52479 0
M  V30 11463 C 1080.42 0.0735015 -1.86555 0
M  V30 11464 C 1080.78 1.45361 -1.31775 0
M  V30 11465 O 1079.9 2.0632 -0.652759 0
M  V30 11466 C 1080.5 0.140152 -3.3851 0
M  V30 11467 C 1079.05 0.556451 -3.72264 0
M  V30 11468 C 1078.2 -0.275792 -2.75925 0
M  V30 11469 H 1081.15 -0.615991 -1.46257 0
M  V30 11470 H 1081.17 0.957507 -3.68255 0
M  V30 11471 H 1080.69 -0.864442 -3.7835 0
M  V30 11472 H 1078.79 1.56808 -3.37997 0
M  V30 11473 H 1078.9 0.308227 -4.78107 0
M  V30 11474 H 1077.26 0.260304 -2.53366 0
M  V30 11475 H 1078.05 -1.27854 -3.18604 0
M  V30 11476 N 1080.49 1.57075 -0.12858 0
M  V30 11477 C 1081.74 1.94695 0.526952 0
M  V30 11478 C 1082.05 1.01482 1.67215 0
M  V30 11479 O 1083.26 1.28606 2.39108 0
M  V30 11480 C 1081.72 3.4605 0.988801 0
M  V30 11481 C 1081.32 4.47816 -0.128457 0
M  V30 11482 C 1083.07 3.92572 1.61517 0
M  V30 11483 C 1080.97 5.9036 0.350628 0
M  V30 11484 H 1079.9 0.726819 0.200623 0
M  V30 11485 H 1082.56 1.82295 -0.209972 0
M  V30 11486 H 1080.94 3.53718 1.78043 0
M  V30 11487 H 1082.11 4.51826 -0.904976 0
M  V30 11488 H 1080.43 4.11103 -0.662075 0
M  V30 11489 H 1083.02 4.96493 1.98491 0
M  V30 11490 H 1083.37 3.33085 2.49721 0
M  V30 11491 H 1083.9 3.87744 0.888768 0
M  V30 11492 H 1080.64 6.53624 -0.495592 0
M  V30 11493 H 1080.16 5.89749 1.09342 0
M  V30 11494 H 1081.84 6.41926 0.808717 0
M  V30 11495 N 1081.97 -0.145205 1.5693 0
M  V30 11496 C 1083.38 -0.705089 1.72874 0
M  V30 11497 C 1083.73 -1.81577 0.743261 0
M  V30 11498 O 1082.86 -2.16214 -0.0897153 0
M  V30 11499 C 1083.45 -1.28578 3.13454 0
M  V30 11500 C 1082.01 -1.79221 3.30994 0
M  V30 11501 C 1081.16 -0.681392 2.68798 0
M  V30 11502 H 1084.11 0.0804798 1.58496 0
M  V30 11503 H 1084.13 -2.15558 3.13552 0
M  V30 11504 H 1083.64 -0.477186 3.85155 0
M  V30 11505 H 1081.74 -2.62642 2.64292 0
M  V30 11506 H 1081.86 -1.91969 4.38959 0
M  V30 11507 H 1080.22 -1.10847 2.29314 0
M  V30 11508 H 1081 0.115786 3.43105 0
M  V30 11509 N 1083.45 -1.52049 -0.414609 0
M  V30 11510 C 1084.69 -1.66084 -1.16379 0
M  V30 11511 C 1085.03 -0.386932 -1.90306 0
M  V30 11512 O 1084.3 0.614441 -1.8454 0
M  V30 11513 C 1084.58 -2.87927 -2.16264 0
M  V30 11514 C 1084.44 -4.25353 -1.46269 0
M  V30 11515 C 1085.76 -3.05289 -3.16996 0
M  V30 11516 H 1082.88 -0.604414 -0.421726 0
M  V30 11517 H 1085.52 -1.8459 -0.450177 0
M  V30 11518 H 1083.67 -2.7228 -2.77121 0
M  V30 11519 H 1085.34 -4.52717 -0.885743 0
M  V30 11520 H 1083.58 -4.27006 -0.76472 0
M  V30 11521 H 1084.25 -5.06644 -2.19126 0
M  V30 11522 H 1086.73 -3.19798 -2.66212 0
M  V30 11523 H 1085.61 -3.92065 -3.84156 0
M  V30 11524 H 1085.87 -2.1836 -3.84411 0
M  V30 11525 N 1084.93 0.6715 -1.42579 0
M  V30 11526 C 1086.17 1.42731 -1.42516 0
M  V30 11527 C 1086.49 1.95545 -0.0462407 0
M  V30 11528 O 1087.69 2.71391 0.0769798 0
M  V30 11529 C 1086.15 2.58215 -2.50705 0
M  V30 11530 C 1085.76 2.12086 -3.94618 0
M  V30 11531 C 1087.5 3.35705 -2.59813 0
M  V30 11532 C 1085.41 3.24672 -4.9431 0
M  V30 11533 H 1084.34 0.536218 -0.530081 0
M  V30 11534 H 1086.99 0.726655 -1.68499 0
M  V30 11535 H 1085.37 3.30665 -2.17892 0
M  V30 11536 H 1086.55 1.46768 -4.36802 0
M  V30 11537 H 1084.86 1.47526 -3.89391 0
M  V30 11538 H 1087.46 4.1956 -3.31472 0
M  V30 11539 H 1087.8 3.82517 -1.64276 0
M  V30 11540 H 1088.33 2.70326 -2.91836 0
M  V30 11541 H 1085.07 2.82848 -5.91335 0
M  V30 11542 H 1084.59 3.88761 -4.56755 0
M  V30 11543 H 1086.27 3.90088 -5.16179 0
M  V30 11544 N 1086.4 1.28806 0.908124 0
M  V30 11545 C 1087.35 1.13215 2.01125 0
M  V30 11546 C 1088.32 0.0277357 1.66077 0
M  V30 11547 O 1089.51 0.193707 1.89814 0
M  V30 11548 C 1086.65 0.805887 3.35558 0
M  V30 11549 C 1085.76 1.9899 3.83441 0
M  V30 11550 C 1084.89 1.60376 5.06412 0
M  V30 11551 C 1083.93 2.75409 5.46641 0
M  V30 11552 N 1083.07 2.37249 6.60801 0
M  V30 11553 H 1087.91 2.07598 2.13792 0
M  V30 11554 H 1085.45 1.03316 1.0471 0
M  V30 11555 H 1087.4 0.597451 4.129 0
M  V30 11556 H 1086.03 -0.101023 3.22642 0
M  V30 11557 H 1085.09 2.31029 3.02208 0
M  V30 11558 H 1086.4 2.85214 4.09212 0
M  V30 11559 H 1085.55 1.35772 5.91313 0
M  V30 11560 H 1084.29 0.712888 4.82462 0
M  V30 11561 H 1083.3 3.00705 4.60279 0
M  V30 11562 H 1084.52 3.65148 5.72577 0
M  V30 11563 H 1082.47 1.50638 6.3847 0
M  V30 11564 H 1082.38 3.17008 6.86325 0
M  V30 11565 H 1083.65 2.15943 7.48992 0
M  V30 11566 N 1087.88 -1.11734 1.11145 0
M  V30 11567 C 1088.83 -2.19765 0.761982 0
M  V30 11568 C 1089.82 -1.67616 -0.24518 0
M  V30 11569 O 1091.03 -1.79695 -0.104781 0
M  V30 11570 H 1087.4 -0.71644 0.228513 0
M  V30 11571 H 1089.38 -2.4649 1.68183 0
M  V30 11572 C 1088.12 -3.47016 0.218057 0
M  V30 11573 H 1087.45 -3.87494 0.984299 0
M  V30 11574 H 1088.89 -4.23998 0.0116825 0
M  V30 11575 C 1087.35 -3.20088 -1.05096 0
M  V30 11576 O 1087.88 -3.40503 -2.1312 0
M  V30 11577 N 1086.08 -2.73844 -0.972523 0
M  V30 11578 H 1085.63 -2.57431 -0.0933459 0
M  V30 11579 H 1085.59 -2.56204 -1.82228 0
M  V30 11580 N 1089.36 -0.901303 -1.29284 0
M  V30 11581 C 1090.58 -0.542823 -2.0017 0
M  V30 11582 C 1091.01 0.865583 -1.67001 0
M  V30 11583 O 1090.37 1.5764 -0.895502 0
M  V30 11584 C 1090.42 -0.743987 -3.52842 0
M  V30 11585 O 1089.52 0.202771 -4.11901 0
M  V30 11586 H 1088.86 -0.211903 -0.62928 0
M  V30 11587 H 1091.39 -1.21333 -1.64741 0
M  V30 11588 H 1091.4 -0.64926 -4.02801 0
M  V30 11589 H 1090.08 -1.77077 -3.7632 0
M  V30 11590 H 1088.65 0.0603637 -3.72851 0
M  V30 11591 N 1090.84 1.42931 -0.663954 0
M  V30 11592 C 1092.09 2.00904 -0.179011 0
M  V30 11593 C 1092.4 1.53056 1.21791 0
M  V30 11594 O 1093.61 2.03374 1.79865 0
M  V30 11595 C 1092.06 3.58892 -0.269198 0
M  V30 11596 C 1091.67 4.15731 -1.66949 0
M  V30 11597 C 1093.41 4.24207 0.157589 0
M  V30 11598 C 1091.32 5.66047 -1.71303 0
M  V30 11599 H 1090.25 0.75135 -0.0631623 0
M  V30 11600 H 1092.9 1.6378 -0.827556 0
M  V30 11601 H 1091.28 3.93469 0.447048 0
M  V30 11602 H 1092.46 3.92634 -2.41195 0
M  V30 11603 H 1090.77 3.62826 -2.04318 0
M  V30 11604 H 1093.37 5.34503 0.145057 0
M  V30 11605 H 1093.71 3.98901 1.19095 0
M  V30 11606 H 1094.25 3.94552 -0.507274 0
M  V30 11607 H 1090.98 5.96136 -2.72584 0
M  V30 11608 H 1090.5 5.91167 -1.01398 0
M  V30 11609 H 1092.18 6.30275 -1.46158 0
M  V30 11610 N 1092.32 0.406567 1.52266 0
M  V30 11611 C 1093.26 -0.420182 2.26943 0
M  V30 11612 C 1094.23 -1.04323 1.29251 0
M  V30 11613 O 1095.42 -1.06799 1.5811 0
M  V30 11614 C 1092.56 -1.5323 3.09216 0
M  V30 11615 C 1091.67 -0.930419 4.21862 0
M  V30 11616 C 1090.81 -2.01502 4.91498 0
M  V30 11617 C 1089.84 -1.38994 5.9611 0
M  V30 11618 N 1088.98 -2.41458 6.59274 0
M  V30 11619 H 1093.82 0.223066 2.97164 0
M  V30 11620 H 1091.36 0.121842 1.46595 0
M  V30 11621 H 1093.32 -2.18803 3.5522 0
M  V30 11622 H 1091.95 -2.14561 2.41171 0
M  V30 11623 H 1091 -0.163809 3.80047 0
M  V30 11624 H 1092.31 -0.433785 4.9691 0
M  V30 11625 H 1091.46 -2.74807 5.40894 0
M  V30 11626 H 1090.2 -2.5453 4.16012 0
M  V30 11627 H 1089.21 -0.642213 5.46036 0
M  V30 11628 H 1090.43 -0.867386 6.73538 0
M  V30 11629 H 1088.38 -2.93623 5.86619 0
M  V30 11630 H 1088.3 -1.96599 7.2999 0
M  V30 11631 H 1089.56 -3.14341 7.13309 0
M  V30 11632 N 1093.79 -1.57004 0.136909 0
M  V30 11633 C 1094.72 -2.19262 -0.802902 0
M  V30 11634 C 1095.71 -1.13786 -1.26439 0
M  V30 11635 O 1096.89 -1.42091 -1.32377 0
M  V30 11636 C 1094.02 -2.80624 -2.04615 0
M  V30 11637 C 1092.97 -3.91839 -1.72181 0
M  V30 11638 C 1092.3 -4.4009 -3.03686 0
M  V30 11639 C 1093.6 -5.13095 -0.976249 0
M  V30 11640 H 1095.29 -2.98049 -0.28406 0
M  V30 11641 H 1092.84 -1.43364 -0.135189 0
M  V30 11642 H 1094.79 -3.22842 -2.70834 0
M  V30 11643 H 1093.52 -1.99153 -2.58855 0
M  V30 11644 H 1092.18 -3.50224 -1.08344 0
M  V30 11645 H 1091.82 -3.55454 -3.55896 0
M  V30 11646 H 1091.52 -5.15098 -2.82751 0
M  V30 11647 H 1093.05 -4.84971 -3.70993 0
M  V30 11648 H 1094.46 -5.5222 -1.54033 0
M  V30 11649 H 1092.86 -5.93801 -0.867214 0
M  V30 11650 H 1093.93 -4.84888 0.0338488 0
M  V30 11651 N 1095.27 0.136881 -1.57004 0
M  V30 11652 C 1096.69 0.489856 -1.51897 0
M  V30 11653 C 1096.89 1.82833 -0.847009 0
M  V30 11654 O 1095.94 2.48952 -0.421792 0
M  V30 11655 C 1097.26 0.490831 -2.96667 0
M  V30 11656 C 1098.81 0.575639 -3.07661 0
M  V30 11657 C 1099.28 0.607178 -4.53957 0
M  V30 11658 N 1100.77 0.66912 -4.58342 0
M  V30 11659 C 1101.51 0.714675 -5.68929 0
M  V30 11660 N 1101 0.718959 -6.89059 0
M  V30 11661 N 1102.8 0.756326 -5.56988 0
M  V30 11662 H 1094.95 -0.740347 -1.99079 0
M  V30 11663 H 1097.21 -0.271116 -0.908405 0
M  V30 11664 H 1096.92 -0.424648 -3.49127 0
M  V30 11665 H 1096.79 1.32512 -3.53158 0
M  V30 11666 H 1099.18 1.48154 -2.55215 0
M  V30 11667 H 1099.26 -0.285991 -2.54196 0
M  V30 11668 H 1098.9 -0.294604 -5.07045 0
M  V30 11669 H 1098.83 1.48544 -5.05215 0
M  V30 11670 H 1101.32 0.672697 -3.71864 0
M  V30 11671 H 1101.64 0.755848 -7.69095 0
M  V30 11672 H 1099.98 0.686671 -6.91599 0
M  V30 11673 H 1103.17 0.750219 -4.62049 0
M  V30 11674 H 1103.34 0.788363 -6.43186 0
M  V30 11675 N 1096.75 1.52266 0.40654 0
M  V30 11676 C 1097.68 1.78755 1.50229 0
M  V30 11677 C 1098.66 0.638652 1.57655 0
M  V30 11678 O 1099.85 0.884505 1.72888 0
M  V30 11679 C 1096.98 1.94057 2.88026 0
M  V30 11680 C 1095.93 3.09667 2.95449 0
M  V30 11681 C 1095.26 3.10196 4.35526 0
M  V30 11682 C 1096.56 4.49077 2.66697 0
M  V30 11683 H 1098.25 2.70511 1.28313 0
M  V30 11684 H 1095.8 1.30167 0.615836 0
M  V30 11685 H 1097.75 2.11171 3.64671 0
M  V30 11686 H 1096.47 0.989755 3.11242 0
M  V30 11687 H 1095.13 2.92308 2.2125 0
M  V30 11688 H 1094.78 2.12831 4.55754 0
M  V30 11689 H 1094.48 3.87847 4.41416 0
M  V30 11690 H 1096 3.29443 5.14101 0
M  V30 11691 H 1097.42 4.66628 3.33064 0
M  V30 11692 H 1095.82 5.28665 2.8396 0
M  V30 11693 H 1096.89 4.56995 1.62122 0
M  V30 11694 N 1098.23 -0.663929 1.42933 0
M  V30 11695 C 1099.18 -1.79843 1.4751 0
M  V30 11696 C 1100.17 -1.65751 0.349727 0
M  V30 11697 O 1101.38 -1.72227 0.523239 0
M  V30 11698 H 1097.75 -0.593176 0.462219 0
M  V30 11699 H 1099.72 -1.73102 2.4306 0
M  V30 11700 C 1098.47 -3.18053 1.4049 0
M  V30 11701 H 1097.79 -3.29529 2.26386 0
M  V30 11702 H 1099.23 -3.97423 1.47754 0
M  V30 11703 C 1097.69 -3.36682 0.121076 0
M  V30 11704 O 1098.22 -3.93202 -0.821874 0
M  V30 11705 N 1096.43 -2.90579 0.0347141 0
M  V30 11706 H 1095.98 -2.44769 0.802852 0
M  V30 11707 H 1095.93 -3.03421 -0.823607 0
M  V30 11708 N 1099.71 -1.29285 -0.901281 0
M  V30 11709 C 1101.12 -1.07263 -1.18182 0
M  V30 11710 C 1101.32 0.177087 -2.0072 0
M  V30 11711 O 1100.38 0.875292 -2.36844 0
M  V30 11712 C 1101.69 -2.32717 -1.9043 0
M  V30 11713 C 1103.24 -2.3802 -2.03262 0
M  V30 11714 C 1103.71 -3.63273 -2.7892 0
M  V30 11715 N 1105.21 -3.63986 -2.86475 0
M  V30 11716 C 1105.94 -4.57585 -3.45549 0
M  V30 11717 N 1105.44 -5.61513 -4.05801 0
M  V30 11718 N 1107.23 -4.45157 -3.43208 0
M  V30 11719 H 1099.38 -2.09487 -0.350536 0
M  V30 11720 H 1101.64 -0.922647 -0.217778 0
M  V30 11721 H 1101.35 -3.23828 -1.37216 0
M  V30 11722 H 1101.22 -2.40102 -2.90913 0
M  V30 11723 H 1103.61 -1.47398 -2.55652 0
M  V30 11724 H 1103.69 -2.3462 -1.01916 0
M  V30 11725 H 1103.34 -4.54246 -2.27206 0
M  V30 11726 H 1103.27 -3.6393 -3.80608 0
M  V30 11727 H 1105.76 -2.8884 -2.43679 0
M  V30 11728 H 1106.07 -6.29058 -4.48894 0
M  V30 11729 H 1104.41 -5.65325 -4.04268 0
M  V30 11730 H 1107.61 -3.63158 -2.95354 0
M  V30 11731 H 1107.78 -5.18286 -3.88952 0
M  V30 11732 O 1101.22 1.0367 -1.23834 0
M  V30 11733 H 1101.91 1.65154 -1.01211 0
M  V30 END ATOM
M  V30 BEGIN BOND
M  V30 END BOND
M  V30 END CTAB
M  END
$$$$
