drugbank_target|Q9UPY5 Cystine/glutamate transporter (DB00138; DB00142; DB00740; DB00795; DB06151; DB11590)
 OpenBabel12092119223D

  0  0  0     0  0            999 V3000
M  V30 BEGIN CTAB
M  V30 COUNTS 8006 8104 0 0 0
M  V30 BEGIN ATOM
M  V30 1 H -0.908 1.98254 -0.117106 0
M  V30 2 N 0 1.576 0 0
M  V30 3 C 0.933 2.03868 1.02534 0
M  V30 4 C 1.911 0.928543 1.3348 0
M  V30 5 O 3.095 1.19667 1.45644 0
M  V30 6 C 0.222 2.43627 2.35294 0
M  V30 7 C -0.732 3.65373 2.2001 0
M  V30 8 S 0.101 5.13292 1.52614 0
M  V30 9 C 1.257 5.56322 2.86805 0
M  V30 10 H 1.49 2.90518 0.631377 0
M  V30 11 H -0.977 1.52953 0.210867 0
M  V30 12 H 0.981 2.67203 3.11629 0
M  V30 13 H -0.358 1.57376 2.7183 0
M  V30 14 H -1.165 3.90944 3.18086 0
M  V30 15 H -1.563 3.418 1.51819 0
M  V30 16 H 0.729 5.58782 3.83104 0
M  V30 17 H 1.672 6.56266 2.65933 0
M  V30 18 H 2.08 4.83886 2.90714 0
M  V30 19 N 1.4781 -0.272755 1.55222 0
M  V30 20 C 2.7241 -1.00581 1.761 0
M  V30 21 C 3.0571 -1.85932 0.560625 0
M  V30 22 O 2.3321 -1.89416 -0.441801 0
M  V30 23 C 2.6151 -1.88816 3.06628 0
M  V30 24 C 2.4681 -1.06457 4.37021 0
M  V30 25 C 3.7871 -2.8752 3.33197 0
M  V30 26 H 0.9061 -0.364244 0.640699 0
M  V30 27 H 3.5481 -0.278189 1.87952 0
M  V30 28 H 1.6981 -2.50856 2.96654 0
M  V30 29 H 3.3701 -0.464863 4.58952 0
M  V30 30 H 1.6131 -0.368043 4.32236 0
M  V30 31 H 2.2841 -1.71514 5.24678 0
M  V30 32 H 4.7601 -2.35615 3.42965 0
M  V30 33 H 3.6361 -3.46399 4.25792 0
M  V30 34 H 3.8971 -3.62657 2.52849 0
M  V30 35 N 2.9562 -1.48159 -0.537278 0
M  V30 36 C 4.3722 -1.34118 -0.865129 0
M  V30 37 C 4.5722 -0.346678 -1.98495 0
M  V30 38 O 3.6282 0.234715 -2.51407 0
M  V30 39 C 4.9412 -2.73963 -1.23954 0
M  V30 40 C 6.4892 -2.82397 -1.34984 0
M  V30 41 C 6.9642 -4.22928 -1.75772 0
M  V30 42 N 8.4552 -4.25566 -1.82887 0
M  V30 43 C 9.1902 -5.31235 -2.15817 0
M  V30 44 N 8.6862 -6.47189 -2.47222 0
M  V30 45 N 10.4792 -5.18624 -2.16761 0
M  V30 46 H 2.6302 -2.1144 0.201715 0
M  V30 47 H 4.8932 -0.947598 0.0275949 0
M  V30 48 H 4.5992 -3.48264 -0.490381 0
M  V30 49 H 4.4732 -3.0702 -2.19132 0
M  V30 50 H 6.8602 -2.08356 -2.08978 0
M  V30 51 H 6.9412 -2.5297 -0.379448 0
M  V30 52 H 6.5852 -4.97482 -1.02341 0
M  V30 53 H 6.5152 -4.49794 -2.73848 0
M  V30 54 H 9.0062 -3.41924 -1.60924 0
M  V30 55 H 9.3192 -7.23564 -2.71433 0
M  V30 56 H 7.6642 -6.50476 -2.44757 0
M  V30 57 H 10.8552 -4.27056 -1.91679 0
M  V30 58 H 11.0282 -6.01078 -2.42093 0
M  V30 59 N 4.4343 0.785586 -1.36625 0
M  V30 60 C 5.3813 1.89838 -1.31264 0
M  V30 61 C 6.3513 1.65115 -0.180633 0
M  V30 62 O 7.5363 1.87222 -0.36777 0
M  V30 63 C 4.6763 3.26706 -1.11163 0
M  V30 64 C 3.7893 3.63476 -2.33472 0
M  V30 65 C 2.9243 4.89481 -2.06353 0
M  V30 66 C 1.9633 5.18941 -3.24602 0
M  V30 67 N 1.1003 6.36131 -2.97123 0
M  V30 68 H 5.9403 1.93756 -2.26413 0
M  V30 69 H 3.4773 0.947454 -1.12524 0
M  V30 70 H 5.4353 4.05639 -0.975337 0
M  V30 71 H 4.0653 3.222 -0.196674 0
M  V30 72 H 3.1173 2.79636 -2.57891 0
M  V30 73 H 4.4293 3.81193 -3.21704 0
M  V30 74 H 3.5833 5.76288 -1.89675 0
M  V30 75 H 2.3223 4.73841 -1.15437 0
M  V30 76 H 1.3273 4.30615 -3.41834 0
M  V30 77 H 2.5523 5.36498 -4.16349 0
M  V30 78 H 0.4983 6.21875 -2.08823 0
M  V30 79 H 0.4153 6.54198 -3.78894 0
M  V30 80 H 1.6833 7.2591 -2.84033 0
M  V30 81 N 5.9124 1.20967 1.01018 0
M  V30 82 C 7.3234 1.02319 1.56165 0
M  V30 83 C 7.6744 -0.418546 1.91684 0
M  V30 84 O 6.7994 -1.30096 1.72928 0
M  V30 85 C 7.3944 1.85109 2.8376 0
M  V30 86 C 5.9534 1.70809 3.35412 0
M  V30 87 C 5.1004 1.82643 2.08655 0
M  V30 88 H 8.0514 1.35065 0.833255 0
M  V30 89 H 8.0724 1.35827 3.55431 0
M  V30 90 H 7.5844 2.90035 2.57878 0
M  V30 91 H 5.6854 0.685464 3.66241 0
M  V30 92 H 5.7984 2.52467 4.07182 0
M  V30 93 H 4.1624 1.25896 2.21409 0
M  V30 94 H 4.9454 2.89066 1.85191 0
M  V30 95 N 7.3905 -1.2043 1.01659 0
M  V30 96 C 8.6365 -1.90079 0.706963 0
M  V30 97 C 8.9695 -1.78648 -0.761474 0
M  V30 98 O 8.2445 -1.17069 -1.55323 0
M  V30 99 C 8.5275 -3.41469 1.14327 0
M  V30 100 C 8.3805 -3.61833 2.67201 0
M  V30 101 C 9.6995 -4.34261 0.714529 0
M  V30 102 H 6.8185 -0.690254 0.2583 0
M  V30 103 H 9.4605 -1.41826 1.26433 0
M  V30 104 H 7.6105 -3.82696 0.669056 0
M  V30 105 H 9.2825 -3.2986 3.22475 0
M  V30 106 H 7.5255 -3.05304 3.08175 0
M  V30 107 H 8.1965 -4.67955 2.92783 0
M  V30 108 H 10.6725 -4.00682 1.12221 0
M  V30 109 H 9.5485 -5.38806 1.04784 0
M  V30 110 H 9.8095 -4.40431 -0.383799 0
M  V30 111 N 8.8686 -0.792821 -1.36206 0
M  V30 112 C 10.1146 -0.36733 -1.99446 0
M  V30 113 C 10.4476 1.05917 -1.62774 0
M  V30 114 O 9.7226 1.7324 -0.88421 0
M  V30 115 C 10.0056 -0.535044 -3.56103 0
M  V30 116 C 9.8586 -2.00548 -4.02617 0
M  V30 117 C 11.1776 0.0478191 -4.40074 0
M  V30 118 H 8.2966 -0.134941 -0.724541 0
M  V30 119 H 10.9386 -0.999794 -1.61568 0
M  V30 120 H 9.0886 0.00336329 -3.885 0
M  V30 121 H 10.7606 -2.60521 -3.80692 0
M  V30 122 H 9.0036 -2.50686 -3.54032 0
M  V30 123 H 9.6746 -2.07377 -5.11565 0
M  V30 124 H 12.1506 -0.411822 -4.14057 0
M  V30 125 H 11.0266 -0.0995336 -5.4881 0
M  V30 126 H 11.2876 1.14025 -4.27142 0
M  V30 127 N 10.3467 1.47872 -0.545128 0
M  V30 128 C 11.5717 2.07391 -0.0190611 0
M  V30 129 C 11.9967 1.39688 1.25971 0
M  V30 130 O 11.3547 0.467816 1.7516 0
M  V30 131 C 11.4027 3.60188 0.172335 0
M  V30 132 O 10.5067 3.9339 1.23766 0
M  V30 133 H 9.8477 0.662411 -0.0459059 0
M  V30 134 H 12.3777 1.90066 -0.757365 0
M  V30 135 H 12.3877 4.06129 0.390305 0
M  V30 136 H 11.0627 4.08865 -0.761725 0
M  V30 137 H 9.6397 3.5921 1.00114 0
M  V30 138 N 11.8248 0.280983 1.55075 0
M  V30 139 C 13.0528 -0.337293 2.04132 0
M  V30 140 C 13.4678 -1.4903 1.15912 0
M  V30 141 O 12.8248 -1.81606 0.180459 0
M  V30 142 C 12.8758 -0.812706 3.52246 0
M  V30 143 O 12.5968 0.294387 4.3711 0
M  V30 144 C 14.0978 -1.4982 4.17216 0
M  V30 145 H 11.3178 -0.0761638 0.666663 0
M  V30 146 H 13.8618 0.414787 2.00249 0
M  V30 147 H 12.0168 -1.51486 3.56554 0
M  V30 148 H 12.4308 -0.0721325 5.2445 0
M  V30 149 H 13.9048 -1.7822 5.22438 0
M  V30 150 H 14.3818 -2.43168 3.65741 0
M  V30 151 H 14.9878 -0.839742 4.16927 0
M  V30 152 N 13.3029 -1.57598 0.00835791 0
M  V30 153 C 14.5519 -1.90107 -0.673968 0
M  V30 154 C 14.8649 -0.884275 -1.7447 0
M  V30 155 O 16.0709 -1.09987 -2.48224 0
M  V30 156 C 14.5269 -3.37497 -1.24995 0
M  V30 157 C 14.1349 -4.47491 -0.2136 0
M  V30 158 C 15.8789 -3.79104 -1.90999 0
M  V30 159 C 13.7859 -5.85963 -0.80005 0
M  V30 160 H 12.7159 -0.709393 -0.255495 0
M  V30 161 H 15.3669 -1.83365 0.0702693 0
M  V30 162 H 13.7489 -3.39102 -2.04513 0
M  V30 163 H 14.9229 -4.57414 0.557596 0
M  V30 164 H 13.2379 -4.14956 0.346474 0
M  V30 165 H 15.8349 -4.79901 -2.35795 0
M  V30 166 H 16.1779 -3.1306 -2.74407 0
M  V30 167 H 16.7109 -3.79833 -1.18203 0
M  V30 168 H 13.4499 -6.555 -0.00456708 0
M  V30 169 H 12.9699 -5.79687 -1.54021 0
M  V30 170 H 14.6489 -6.33884 -1.29615 0
M  V30 171 N 14.781 0.264519 -1.55364 0
M  V30 172 C 16.006 1.01726 -1.80739 0
M  V30 173 C 16.431 1.78836 -0.583044 0
M  V30 174 O 15.789 1.75167 0.467566 0
M  V30 175 C 15.837 1.94482 -3.03659 0
M  V30 176 O 14.941 3.03386 -2.7934 0
M  V30 177 H 14.282 0.290395 -0.597132 0
M  V30 178 H 16.812 0.290854 -2.02522 0
M  V30 179 H 16.822 2.36278 -3.32621 0
M  V30 180 H 15.497 1.37772 -3.92418 0
M  V30 181 H 14.074 2.65844 -2.61498 0
M  V30 182 N 16.2591 1.48442 0.529413 0
M  V30 183 C 17.2061 1.63007 1.63394 0
M  V30 184 C 18.1761 0.47212 1.59249 0
M  V30 185 O 19.3611 0.695673 1.77666 0
M  V30 186 C 16.5011 1.6763 3.01653 0
M  V30 187 C 15.6141 2.94535 3.16027 0
M  V30 188 C 14.7491 2.90316 4.44849 0
M  V30 189 C 13.7881 4.11923 4.52754 0
M  V30 190 N 12.9251 4.05777 5.72965 0
M  V30 191 H 17.7651 2.5733 1.50285 0
M  V30 192 H 15.3021 1.27613 0.731656 0
M  V30 193 H 17.2601 1.68292 3.81751 0
M  V30 194 H 15.8901 0.76797 3.13532 0
M  V30 195 H 14.9421 3.03615 2.29177 0
M  V30 196 H 16.2541 3.84512 3.17729 0
M  V30 197 H 15.4081 2.89382 5.33238 0
M  V30 198 H 14.1471 1.98068 4.45668 0
M  V30 199 H 13.1521 4.13131 3.62771 0
M  V30 200 H 14.3771 5.0533 4.53672 0
M  V30 201 H 12.3231 3.16351 5.74681 0
M  V30 202 H 12.2401 4.8946 5.76164 0
M  V30 203 H 13.5081 4.08904 6.6364 0
M  V30 204 N 17.7372 -0.778329 1.37039 0
M  V30 205 C 18.9852 -1.53361 1.31623 0
M  V30 206 C 19.3062 -1.94739 -0.100831 0
M  V30 207 O 18.5762 -1.65797 -1.04347 0
M  V30 208 H 17.1562 -0.568794 0.484234 0
M  V30 209 H 19.8182 -0.926742 1.71457 0
M  V30 210 H 18.9142 -2.43606 1.95096 0
M  V30 211 N 19.2153 -1.21501 -1.00376 0
M  V30 212 C 20.4633 -1.03095 -1.73827 0
M  V30 213 C 20.7843 0.436341 -1.90055 0
M  V30 214 O 20.0543 1.31466 -1.45236 0
M  V30 215 H 18.6343 -0.378487 -0.644016 0
M  V30 216 H 21.2963 -1.52831 -1.20949 0
M  V30 217 H 20.3923 -1.49991 -2.73695 0
M  V30 218 N 20.6934 1.19889 -1.02296 0
M  V30 219 C 21.9234 1.93109 -0.734332 0
M  V30 220 C 22.3314 1.75377 0.709889 0
M  V30 221 O 21.6744 1.06912 1.49384 0
M  V30 222 C 21.7364 3.45362 -0.99827 0
M  V30 223 C 21.4004 3.8686 -2.43287 0
M  V30 224 C 22.3974 3.92102 -3.41397 0
M  V30 225 C 20.0824 4.18668 -2.77529 0
M  V30 226 C 22.0764 4.28573 -4.71809 0
M  V30 227 C 19.7634 4.54813 -4.08153 0
M  V30 228 C 20.7614 4.59739 -5.05103 0
M  V30 229 O 20.4494 4.95051 -6.33388 0
M  V30 230 H 20.1814 0.620409 -0.268456 0
M  V30 231 H 22.7354 1.53144 -1.3688 0
M  V30 232 H 20.9654 3.85482 -0.306645 0
M  V30 233 H 22.6544 3.99814 -0.700234 0
M  V30 234 H 23.4204 3.67685 -3.1628 0
M  V30 235 H 19.2994 4.14021 -2.0275 0
M  V30 236 H 22.8434 4.32333 -5.4748 0
M  V30 237 H 18.7404 4.78687 -4.33047 0
M  V30 238 H 19.5084 5.1302 -6.37772 0
M  V30 239 N 22.1715 0.800033 1.35784 0
M  V30 240 C 23.1015 0.220184 2.3246 0
M  V30 241 C 24.0825 -0.65073 1.57161 0
M  V30 242 O 25.2675 -0.582359 1.85263 0
M  V30 243 C 22.3975 -0.637353 3.41402 0
M  V30 244 C 21.3515 0.134531 4.27789 0
M  V30 245 C 20.6775 -0.844285 5.27992 0
M  V30 246 C 21.9775 1.32979 5.05088 0
M  V30 247 H 23.6715 1.02787 2.81203 0
M  V30 248 H 21.2175 0.495717 1.35199 0
M  V30 249 H 23.1705 -1.05302 4.08031 0
M  V30 250 H 21.8945 -1.47785 2.91251 0
M  V30 251 H 20.5535 0.531296 3.6273 0
M  V30 252 H 20.2015 -1.68011 4.74111 0
M  V30 253 H 19.9015 -0.332184 5.8666 0
M  V30 254 H 21.4255 -1.2583 5.97494 0
M  V30 255 H 22.8395 0.98934 5.64699 0
M  V30 256 H 21.2365 1.77593 5.7322 0
M  V30 257 H 22.3065 2.11978 4.36111 0
M  V30 258 N 23.6496 -1.47581 0.552962 0
M  V30 259 C 24.5816 -2.27997 -0.234533 0
M  V30 260 C 25.5946 -1.36753 -0.883321 0
M  V30 261 O 26.7836 -1.61612 -0.757889 0
M  V30 262 C 23.8836 -3.10879 -1.34935 0
M  V30 263 C 23.0566 -4.30056 -0.798158 0
M  V30 264 C 22.1156 -4.94567 -1.79694 0
M  V30 265 O 21.1416 -5.53087 -1.34474 0
M  V30 266 N 22.3436 -4.88878 -3.13015 0
M  V30 267 H 25.1086 -2.96222 0.455255 0
M  V30 268 H 22.6696 -1.57163 0.388761 0
M  V30 269 H 24.6616 -3.50903 -2.01616 0
M  V30 270 H 23.2316 -2.44924 -1.94244 0
M  V30 271 H 22.4516 -3.94174 0.0453079 0
M  V30 272 H 23.7396 -5.07152 -0.409173 0
M  V30 273 H 23.1376 -4.42526 -3.52402 0
M  V30 274 H 21.6946 -5.32934 -3.75266 0
M  V30 275 N 25.1277 -0.289203 -1.54924 0
M  V30 276 C 26.3757 0.322879 -1.99504 0
M  V30 277 C 26.6967 1.55313 -1.1791 0
M  V30 278 O 25.9667 1.94001 -0.272097 0
M  V30 279 H 24.5467 0.122291 -0.736922 0
M  V30 280 H 27.2087 -0.397802 -1.90797 0
M  V30 281 H 26.3047 0.603061 -3.06218 0
M  V30 282 N 26.6058 1.57591 -0.0167156 0
M  V30 283 C 27.5538 2.10604 0.987353 0
M  V30 284 C 28.5478 1.02977 1.34507 0
M  V30 285 O 29.7538 1.21425 1.32875 0
M  V30 286 H 26.1288 0.672695 0.336134 0
M  V30 287 H 28.0998 2.93925 0.514817 0
M  V30 288 C 26.8488 2.6382 2.26483 0
M  V30 289 H 26.1718 3.46278 1.99829 0
M  V30 290 H 27.6118 3.04573 2.94977 0
M  V30 291 C 26.0708 1.55992 2.9861 0
M  V30 292 O 26.6008 0.952521 3.90243 0
M  V30 293 N 24.8068 1.28335 2.60727 0
M  V30 294 H 24.3538 1.77914 1.86291 0
M  V30 295 H 24.3118 0.564115 3.09298 0
M  V30 296 N 28.0839 -0.256276 1.55502 0
M  V30 297 C 29.3299 -0.987079 1.77157 0
M  V30 298 C 29.6629 -1.85327 0.580315 0
M  V30 299 O 28.9379 -1.89874 -0.421686 0
M  V30 300 C 29.2209 -1.85553 3.08613 0
M  V30 301 C 29.0739 -1.01816 4.38125 0
M  V30 302 C 30.3929 -2.8397 3.36228 0
M  V30 303 H 27.5119 -0.357428 0.644526 0
M  V30 304 H 30.1539 -0.258239 1.88237 0
M  V30 305 H 28.3039 -2.47695 2.99298 0
M  V30 306 H 29.9759 -0.416159 4.59419 0
M  V30 307 H 28.2189 -0.322178 4.32602 0
M  V30 308 H 28.8899 -1.65939 5.26468 0
M  V30 309 H 31.3659 -2.31964 3.45445 0
M  V30 310 H 30.2419 -3.41864 4.29442 0
M  V30 311 H 30.5029 -3.59955 2.56681 0
M  V30 312 N 29.562 -1.4872 -0.521534 0
M  V30 313 C 30.51 -1.64328 -1.64618 0
M  V30 314 C 31.504 -0.50953 -1.61555 0
M  V30 315 O 32.71 -0.688525 -1.66311 0
M  V30 316 H 29.085 -0.517805 -0.545328 0
M  V30 317 H 31.056 -2.58767 -1.48601 0
M  V30 318 C 29.805 -1.70805 -3.02855 0
M  V30 319 H 29.128 -2.5741 -3.05909 0
M  V30 320 H 30.568 -1.85766 -3.81139 0
M  V30 321 C 29.027 -0.448479 -3.33902 0
M  V30 322 O 29.557 0.434928 -3.99339 0
M  V30 323 N 27.763 -0.317616 -2.88859 0
M  V30 324 H 27.31 -1.03748 -2.35784 0
M  V30 325 H 27.268 0.524113 -3.10001 0
M  V30 326 N 31.0401 0.771051 -1.3745 0
M  V30 327 C 32.2881 1.52661 -1.32435 0
M  V30 328 C 32.6091 1.9479 0.0905024 0
M  V30 329 O 31.8791 1.66348 1.03466 0
M  V30 330 H 30.4591 0.566218 -0.487244 0
M  V30 331 H 33.1211 0.917636 -1.71946 0
M  V30 332 H 32.2171 2.42568 -1.96385 0
M  V30 333 N 32.5182 1.22032 0.997298 0
M  V30 334 C 33.9342 0.979326 1.26021 0
M  V30 335 C 34.1342 -0.32972 1.98784 0
M  V30 336 O 33.1902 -1.05345 2.29475 0
M  V30 337 C 34.5032 2.17509 2.07631 0
M  V30 338 C 36.0512 2.21817 2.2083 0
M  V30 339 C 36.5262 3.40933 3.05825 0
M  V30 340 N 38.0172 3.41067 3.13412 0
M  V30 341 C 38.7522 4.29885 3.79455 0
M  V30 342 N 38.2482 5.28914 4.47462 0
M  V30 343 N 40.0412 4.17673 3.76173 0
M  V30 344 H 32.1922 2.06202 0.509352 0
M  V30 345 H 34.4552 0.90334 0.287541 0
M  V30 346 H 34.1612 3.12415 1.61524 0
M  V30 347 H 34.0352 2.17206 3.08385 0
M  V30 348 H 36.4222 1.27462 2.66153 0
M  V30 349 H 36.5032 2.2616 1.1952 0
M  V30 350 H 36.1472 4.35586 2.61203 0
M  V30 351 H 36.0772 3.33829 4.07266 0
M  V30 352 H 38.5682 2.69406 2.65007 0
M  V30 353 H 38.8812 5.92973 4.95583 0
M  V30 354 H 37.2262 5.32831 4.46224 0
M  V30 355 H 40.4172 3.39564 3.22202 0
M  V30 356 H 40.5902 4.87098 4.27363 0
M  V30 357 N 33.9963 -1.19345 1.0293 0
M  V30 358 C 34.9263 -2.2481 0.631105 0
M  V30 359 C 35.9073 -1.66245 -0.360104 0
M  V30 360 O 37.0923 -1.92677 -0.242726 0
M  V30 361 C 34.2223 -3.47295 -0.0184607 0
M  V30 362 C 33.1763 -4.18536 0.895073 0
M  V30 363 C 32.5023 -5.34586 0.110592 0
M  V30 364 C 33.8023 -4.73287 2.209 0
M  V30 365 H 35.4963 -2.58372 1.51275 0
M  V30 366 H 33.0423 -1.24194 0.728818 0
M  V30 367 H 34.9953 -4.20268 -0.308675 0
M  V30 368 H 33.7193 -3.12933 -0.934907 0
M  V30 369 H 32.3783 -3.47446 1.16949 0
M  V30 370 H 32.0263 -4.96469 -0.807902 0
M  V30 371 H 31.7263 -5.83183 0.719087 0
M  V30 372 H 33.2503 -6.10355 -0.172871 0
M  V30 373 H 34.6643 -5.38013 1.98028 0
M  V30 374 H 33.0613 -5.32373 2.76946 0
M  V30 375 H 34.1313 -3.91331 2.86336 0
M  V30 376 N 35.4744 -0.807222 -1.35358 0
M  V30 377 C 36.8854 -0.44876 -1.81226 0
M  V30 378 C 37.2364 1.02929 -1.67033 0
M  V30 379 O 36.3614 1.79991 -1.20133 0
M  V30 380 C 36.9564 -0.807774 -3.2903 0
M  V30 381 C 35.5154 -0.501901 -3.73039 0
M  V30 382 C 34.6624 -1.03304 -2.57339 0
M  V30 383 H 37.6134 -0.998808 -1.23327 0
M  V30 384 H 37.6344 -0.10554 -3.80354 0
M  V30 385 H 37.1464 -1.88357 -3.39328 0
M  V30 386 H 35.2474 0.565128 -3.68289 0
M  V30 387 H 35.3604 -1.03497 -4.67787 0
M  V30 388 H 33.7244 -0.455339 -2.50597 0
M  V30 389 H 34.5074 -2.11496 -2.70415 0
M  V30 390 N 36.9525 1.47285 -0.560781 0
M  V30 391 C 38.1775 2.07359 -0.0410566 0
M  V30 392 C 38.6025 1.41017 1.24483 0
M  V30 393 O 37.9605 0.486368 1.74654 0
M  V30 394 C 38.0085 3.6035 0.134123 0
M  V30 395 O 37.1125 3.94681 1.19587 0
M  V30 396 H 36.4535 0.661887 -0.0529291 0
M  V30 397 H 38.9835 1.89252 -0.777482 0
M  V30 398 H 38.9935 4.0652 0.347207 0
M  V30 399 H 37.6685 4.08034 -0.805047 0
M  V30 400 H 36.2455 3.60251 0.962987 0
M  V30 401 N 38.4306 0.297415 1.54768 0
M  V30 402 C 39.3606 -0.573494 2.26348 0
M  V30 403 C 40.3416 -1.14085 1.26169 0
M  V30 404 O 41.5266 -1.17086 1.54934 0
M  V30 405 C 38.6566 -1.74716 3.00153 0
M  V30 406 C 37.6106 -1.31032 4.07449 0
M  V30 407 C 36.9366 -2.56887 4.68949 0
M  V30 408 C 38.2366 -0.444183 5.20408 0
M  V30 409 H 39.9306 0.0235131 2.99391 0
M  V30 410 H 37.4766 0.0127488 1.43994 0
M  V30 411 H 39.4296 -2.3625 3.48947 0
M  V30 412 H 38.1536 -2.37035 2.24682 0
M  V30 413 H 36.8126 -0.718066 3.59499 0
M  V30 414 H 36.4606 -3.17512 3.90122 0
M  V30 415 H 36.1606 -2.2836 5.41411 0
M  V30 416 H 37.6846 -3.19229 5.20505 0
M  V30 417 H 39.0986 -0.9651 5.65118 0
M  V30 418 H 37.4956 -0.252846 5.99567 0
M  V30 419 H 38.5656 0.531609 4.81977 0
M  V30 420 N 39.9087 -1.5758 0.0250728 0
M  V30 421 C 41.1567 -1.91255 -0.653151 0
M  V30 422 C 41.4777 -0.901691 -1.729 0
M  V30 423 O 40.7477 0.0573785 -1.95816 0
M  V30 424 H 39.3277 -0.705942 -0.244243 0
M  V30 425 H 41.9897 -1.94767 0.0719209 0
M  V30 426 H 41.0857 -2.91752 -1.10847 0
M  V30 427 N 41.3868 0.248026 -1.55636 0
M  V30 428 C 42.3348 1.32683 -1.91045 0
M  V30 429 C 43.3288 1.49883 -0.789401 0
M  V30 430 O 44.5348 1.51371 -0.974007 0
M  V30 431 H 40.9098 0.444272 -0.606734 0
M  V30 432 H 42.8808 1.00085 -2.81115 0
M  V30 433 C 41.6298 2.6755 -2.22064 0
M  V30 434 H 40.9528 2.55114 -3.07826 0
M  V30 435 H 42.3928 3.41912 -2.50743 0
M  V30 436 C 40.8518 3.20556 -1.0366 0
M  V30 437 O 41.3818 4.00695 -0.284016 0
M  V30 438 N 39.5878 2.78568 -0.82753 0
M  V30 439 H 39.1348 2.1351 -1.44123 0
M  V30 440 H 39.0928 3.14378 -0.0369803 0
M  V30 441 N 42.8649 1.48995 0.513639 0
M  V30 442 C 43.8119 1.6473 1.61656 0
M  V30 443 C 44.7819 0.488984 1.58739 0
M  V30 444 O 45.9669 0.714478 1.76918 0
M  V30 445 C 43.1069 1.7082 2.99858 0
M  V30 446 C 42.2199 2.9787 3.12885 0
M  V30 447 C 41.3549 2.95017 4.41744 0
M  V30 448 C 40.3939 4.16702 4.48359 0
M  V30 449 N 39.5309 4.11832 5.68629 0
M  V30 450 H 44.3709 2.58909 1.47547 0
M  V30 451 H 41.9079 1.28382 0.71808 0
M  V30 452 H 43.8659 1.72331 3.79944 0
M  V30 453 H 42.4959 0.801181 3.12699 0
M  V30 454 H 41.5479 3.06029 2.25944 0
M  V30 455 H 42.8599 3.8786 3.13633 0
M  V30 456 H 42.0139 2.95021 5.30139 0
M  V30 457 H 40.7529 2.02784 4.43542 0
M  V30 458 H 39.7579 4.16955 3.58369 0
M  V30 459 H 40.9829 5.10113 4.48287 0
M  V30 460 H 38.9289 3.22428 5.71293 0
M  V30 461 H 38.8459 4.95543 5.7094 0
M  V30 462 H 40.1139 4.1592 6.59266 0
M  V30 463 N 44.343 -0.763751 1.37857 0
M  V30 464 C 45.253 -1.90817 1.36478 0
M  V30 465 C 46.269 -1.71997 0.263248 0
M  V30 466 O 47.445 -1.95095 0.499979 0
M  V30 467 C 44.51 -3.2605 1.17864 0
M  V30 468 C 43.571 -3.57467 2.3773 0
M  V30 469 C 42.804 -4.86249 2.19995 0
M  V30 470 O 43.027 -5.57884 1.18836 0
M  V30 471 O 41.961 -5.16911 3.08361 0
M  V30 472 H 45.787 -1.94933 2.32884 0
M  V30 473 H 43.372 -0.907619 1.1867 0
M  V30 474 H 45.254 -4.06924 1.09504 0
M  V30 475 H 43.929 -3.22769 0.245372 0
M  V30 476 H 42.836 -2.76796 2.51664 0
M  V30 477 H 44.169 -3.655 3.29652 0
M  V30 478 N 45.8211 -1.22559 -0.990812 0
M  V30 479 C 47.2321 -1.04791 -1.54518 0
M  V30 480 C 47.5831 0.387998 -1.92325 0
M  V30 481 O 46.7081 1.27328 -1.74976 0
M  V30 482 C 47.3031 -1.896 -2.80779 0
M  V30 483 C 45.8621 -1.76124 -3.32652 0
M  V30 484 C 45.0091 -1.8594 -2.05722 0
M  V30 485 H 47.9601 -1.36374 -0.811662 0
M  V30 486 H 47.9811 -1.41464 -3.53225 0
M  V30 487 H 47.4931 -2.94101 -2.53231 0
M  V30 488 H 45.5941 -0.743643 -3.65104 0
M  V30 489 H 45.7071 -2.58913 -4.03114 0
M  V30 490 H 44.0711 -1.29403 -2.19379 0
M  V30 491 H 44.8541 -2.91976 -1.80568 0
M  V30 492 N 47.2992 1.18797 -1.03562 0
M  V30 493 C 48.7102 1.70322 -0.764676 0
M  V30 494 C 49.0612 1.82708 0.714996 0
M  V30 495 O 48.1862 1.50299 1.55689 0
M  V30 496 C 48.7812 3.09356 -1.38145 0
M  V30 497 C 47.3402 3.58114 -1.15895 0
M  V30 498 C 46.4872 2.34798 -1.4753 0
M  V30 499 H 49.4382 1.03543 -1.20268 0
M  V30 500 H 49.4592 3.72378 -0.781977 0
M  V30 501 H 48.9712 3.00309 -2.45837 0
M  V30 502 H 47.0722 3.72464 -0.100544 0
M  V30 503 H 47.1852 4.4184 -1.8524 0
M  V30 504 H 45.5492 2.38464 -0.894829 0
M  V30 505 H 46.3322 2.28375 -2.56319 0
M  V30 506 N 48.7773 0.814389 1.34928 0
M  V30 507 C 50.0253 0.397636 1.9815 0
M  V30 508 C 50.3463 -1.04069 1.64908 0
M  V30 509 O 49.6163 -1.72121 0.93548 0
M  V30 510 H 48.1963 0.144043 0.732981 0
M  V30 511 H 50.8583 1.04195 1.6471 0
M  V30 512 H 49.9543 0.509688 3.0791 0
M  V30 513 N 50.2554 -1.46986 0.568584 0
M  V30 514 C 51.1874 -2.28233 -0.210337 0
M  V30 515 C 52.2004 -1.37682 -0.868767 0
M  V30 516 O 53.3894 -1.62406 -0.740705 0
M  V30 517 C 50.4894 -3.12293 -1.3163 0
M  V30 518 C 49.6624 -4.30878 -0.7525 0
M  V30 519 C 48.7214 -4.96445 -1.74439 0
M  V30 520 O 47.7474 -5.54482 -1.286 0
M  V30 521 N 48.9494 -4.92171 -3.07812 0
M  V30 522 H 51.7144 -2.95723 0.486648 0
M  V30 523 H 49.2754 -1.56742 0.405409 0
M  V30 524 H 51.2674 -3.53022 -1.97883 0
M  V30 525 H 49.8374 -2.46971 -1.91636 0
M  V30 526 H 49.0574 -3.94104 0.0871128 0
M  V30 527 H 50.3454 -5.07558 -0.35536 0
M  V30 528 H 49.7434 -4.46239 -3.47688 0
M  V30 529 H 48.3004 -5.36884 -3.69592 0
M  V30 530 N 51.7335 -0.305618 -1.54608 0
M  V30 531 C 52.6435 0.57778 -2.27374 0
M  V30 532 C 53.6595 1.14451 -1.31061 0
M  V30 533 O 54.8355 1.16831 -1.6405 0
M  V30 534 C 51.9005 1.73123 -3.00382 0
M  V30 535 C 50.9615 1.19812 -4.12242 0
M  V30 536 C 50.1945 2.2966 -4.81759 0
M  V30 537 O 50.4175 3.49651 -4.50666 0
M  V30 538 O 49.3515 1.96091 -5.69062 0
M  V30 539 H 53.1775 -0.012624 -3.03697 0
M  V30 540 H 50.7625 -0.0719184 -1.49227 0
M  V30 541 H 52.6445 2.40315 -3.4616 0
M  V30 542 H 51.3195 2.30815 -2.26949 0
M  V30 543 H 50.2265 0.491798 -3.70853 0
M  V30 544 H 51.5595 0.666566 -4.87666 0
M  V30 545 N 53.2116 1.57565 -0.0334293 0
M  V30 546 C 54.1586 2.10478 0.946981 0
M  V30 547 C 55.1286 1.00787 1.32027 0
M  V30 548 O 56.3136 1.28232 1.41284 0
M  V30 549 C 53.4536 2.63994 2.22263 0
M  V30 550 C 52.5666 3.87709 1.90541 0
M  V30 551 C 51.7016 4.29604 3.12433 0
M  V30 552 C 50.7406 5.46065 2.76549 0
M  V30 553 N 49.8776 5.83096 3.9108 0
M  V30 554 H 54.7176 2.93963 0.488846 0
M  V30 555 H 52.2546 1.45296 0.22969 0
M  V30 556 H 54.2126 2.93114 2.96884 0
M  V30 557 H 52.8426 1.83333 2.65685 0
M  V30 558 H 51.8946 3.65291 1.06144 0
M  V30 559 H 53.2066 4.72403 1.60116 0
M  V30 560 H 52.3606 4.60182 3.9537 0
M  V30 561 H 51.0996 3.43685 3.46023 0
M  V30 562 H 50.1046 5.15176 1.92026 0
M  V30 563 H 51.3296 6.33685 2.44171 0
M  V30 564 H 49.2756 5.00132 4.24504 0
M  V30 565 H 49.1926 6.6244 3.64293 0
M  V30 566 H 50.4606 6.18282 4.74708 0
M  V30 567 N 54.6897 -0.239769 1.55765 0
M  V30 568 C 55.9357 -0.968234 1.78194 0
M  V30 569 C 56.2687 -1.84701 0.599938 0
M  V30 570 O 55.5437 -1.9031 -0.401524 0
M  V30 571 C 55.8267 -1.8227 3.10564 0
M  V30 572 C 55.6797 -0.971633 4.3918 0
M  V30 573 C 56.9987 -2.80388 3.39221 0
M  V30 574 H 54.1177 -0.350572 0.648281 0
M  V30 575 H 56.7597 -0.238259 1.885 0
M  V30 576 H 54.9097 -2.44507 3.01908 0
M  V30 577 H 56.5817 -0.367408 4.59835 0
M  V30 578 H 54.8247 -0.276276 4.32919 0
M  V30 579 H 55.4957 -1.60346 5.28198 0
M  V30 580 H 57.9717 -2.28287 3.47885 0
M  V30 581 H 56.8477 -3.3729 4.33044 0
M  V30 582 H 57.1087 -3.57212 2.60484 0
M  V30 583 N 56.1678 -1.49265 -0.50573 0
M  V30 584 C 57.0998 -1.617 -1.62437 0
M  V30 585 C 58.1128 -0.499924 -1.54934 0
M  V30 586 O 59.3018 -0.771785 -1.60953 0
M  V30 587 C 56.4018 -1.5533 -3.01207 0
M  V30 588 C 55.5748 -2.8249 -3.33943 0
M  V30 589 C 54.6338 -2.69238 -4.52103 0
M  V30 590 O 53.6598 -3.43167 -4.5412 0
M  V30 591 N 54.8618 -1.80468 -5.51735 0
M  V30 592 H 57.6268 -2.58177 -1.52199 0
M  V30 593 H 55.1878 -1.46294 -0.693511 0
M  V30 594 H 57.1798 -1.44125 -3.78167 0
M  V30 595 H 55.7498 -0.667297 -3.05395 0
M  V30 596 H 54.9698 -3.08081 -2.45926 0
M  V30 597 H 56.2578 -3.66802 -3.5261 0
M  V30 598 H 55.6558 -1.19653 -5.52901 0
M  V30 599 H 54.2128 -1.75188 -6.27816 0
M  V30 600 N 57.6459 0.756429 -1.3826 0
M  V30 601 C 58.5759 1.88374 -1.37976 0
M  V30 602 C 59.5569 1.68311 -0.246082 0
M  V30 603 O 60.7419 1.88944 -0.44874 0
M  V30 604 C 57.8719 3.25864 -1.20125 0
M  V30 605 C 56.8259 3.60523 -2.30666 0
M  V30 606 C 56.1519 4.9672 -1.97923 0
M  V30 607 C 57.4519 3.65692 -3.72916 0
M  V30 608 H 59.1459 1.88869 -2.32312 0
M  V30 609 H 56.6919 0.907272 -1.11824 0
M  V30 610 H 58.6449 4.0438 -1.18552 0
M  V30 611 H 57.3689 3.25841 -0.222498 0
M  V30 612 H 56.0279 2.84324 -2.3142 0
M  V30 613 H 55.6759 4.93253 -0.985393 0
M  V30 614 H 55.3759 5.20878 -2.71955 0
M  V30 615 H 56.8999 5.77618 -1.97964 0
M  V30 616 H 58.3139 4.34328 -3.74208 0
M  V30 617 H 56.7109 4.01358 -4.4613 0
M  V30 618 H 57.7809 2.65987 -4.05436 0
M  V30 619 N 59.124 1.23083 0.984299 0
M  V30 620 C 60.071 1.00854 2.07598 0
M  V30 621 C 61.041 -0.0726709 1.65941 0
M  V30 622 O 62.226 0.0786535 1.90638 0
M  V30 623 C 59.366 0.601645 3.39815 0
M  V30 624 C 58.479 1.75456 3.94765 0
M  V30 625 C 57.614 1.29482 5.15177 0
M  V30 626 C 56.653 2.41873 5.62284 0
M  V30 627 N 55.79 1.96885 6.73929 0
M  V30 628 H 60.63 1.943 2.25946 0
M  V30 629 H 58.167 0.968001 1.10762 0
M  V30 630 H 60.125 0.346854 4.15756 0
M  V30 631 H 58.755 -0.295803 3.21442 0
M  V30 632 H 57.807 2.12346 3.15616 0
M  V30 633 H 59.119 2.59965 4.25699 0
M  V30 634 H 58.273 0.997923 5.98437 0
M  V30 635 H 57.012 0.420046 4.85888 0
M  V30 636 H 56.017 2.72342 4.77608 0
M  V30 637 H 57.242 3.29881 5.93595 0
M  V30 638 H 55.188 1.11782 6.46406 0
M  V30 639 H 55.105 2.74956 7.04227 0
M  V30 640 H 56.373 1.70289 7.60672 0
M  V30 641 N 60.6021 -1.18246 1.0419 0
M  V30 642 C 62.0181 -1.40269 0.761366 0
M  V30 643 C 62.2181 -1.90777 -0.648578 0
M  V30 644 O 61.2741 -2.0929 -1.41258 0
M  V30 645 C 62.5871 -2.40237 1.8085 0
M  V30 646 C 64.1351 -2.53961 1.82955 0
M  V30 647 C 64.6101 -3.57194 2.86664 0
M  V30 648 N 66.1011 -3.64702 2.85563 0
M  V30 649 C 66.8361 -4.44309 3.6246 0
M  V30 650 N 66.3321 -5.27514 4.49111 0
M  V30 651 N 68.1251 -4.39084 3.50944 0
M  V30 652 H 60.2761 -0.837882 1.95175 0
M  V30 653 H 62.5391 -0.430608 0.84456 0
M  V30 654 H 62.2451 -2.10176 2.81991 0
M  V30 655 H 62.1191 -3.39601 1.64168 0
M  V30 656 H 64.5061 -2.83338 0.824855 0
M  V30 657 H 64.5871 -1.54706 2.03715 0
M  V30 658 H 64.2311 -3.28558 3.87314 0
M  V30 659 H 64.1611 -4.5613 2.6316 0
M  V30 660 H 66.6521 -3.05289 2.22727 0
M  V30 661 H 66.9651 -5.85411 5.04493 0
M  V30 662 H 65.3101 -5.2693 4.53178 0
M  V30 663 H 68.5011 -3.7313 2.82651 0
M  V30 664 H 68.6741 -5.00883 4.11121 0
M  V30 665 N 62.0802 -0.821533 -1.34494 0
M  V30 666 C 63.0272 -0.240397 -2.29545 0
M  V30 667 C 63.9972 0.634031 -1.53523 0
M  V30 668 O 65.1822 0.575966 -1.81899 0
M  V30 669 C 62.3222 0.592869 -3.39969 0
M  V30 670 C 61.4352 -0.30365 -4.30932 0
M  V30 671 C 60.5702 0.539049 -5.28458 0
M  V30 672 C 59.6092 -0.356942 -6.11058 0
M  V30 673 N 58.7462 0.446603 -7.00678 0
M  V30 674 H 63.5862 -1.05632 -2.7865 0
M  V30 675 H 61.1232 -0.532413 -1.37127 0
M  V30 676 H 63.0812 1.09129 -4.02675 0
M  V30 677 H 61.7112 1.37392 -2.92102 0
M  V30 678 H 60.7632 -0.920276 -3.691 0
M  V30 679 H 62.0752 -0.992661 -4.88823 0
M  V30 680 H 61.2292 1.102 -5.96608 0
M  V30 681 H 59.9682 1.26157 -4.71101 0
M  V30 682 H 58.9732 -0.932047 -5.41842 0
M  V30 683 H 60.1982 -1.07755 -6.70497 0
M  V30 684 H 58.1442 1.15282 -6.45791 0
M  V30 685 H 58.0612 -0.184048 -7.55776 0
M  V30 686 H 59.3292 0.992352 -7.73158 0
M  V30 687 N 63.5583 1.46682 -0.576371 0
M  V30 688 C 64.8043 2.02712 -0.0596221 0
M  V30 689 C 65.1373 1.44765 1.29448 0
M  V30 690 O 64.4123 0.610355 1.84675 0
M  V30 691 C 64.6953 3.60098 0.0129503 0
M  V30 692 C 64.5483 4.28441 -1.3696 0
M  V30 693 C 65.8673 4.34224 0.71678 0
M  V30 694 H 62.9863 0.736637 -0.0231407 0
M  V30 695 H 65.6283 1.74898 -0.742351 0
M  V30 696 H 63.7783 3.83926 0.594378 0
M  V30 697 H 65.4503 4.15896 -1.9957 0
M  V30 698 H 63.6933 3.8805 -1.93907 0
M  V30 699 H 64.3643 5.3716 -1.27135 0
M  V30 700 H 66.8403 4.15503 0.222908 0
M  V30 701 H 65.7163 5.43936 0.73657 0
M  V30 702 H 65.9773 4.04823 1.77682 0
M  V30 703 N 65.0364 0.313813 1.54444 0
M  V30 704 C 66.2644 -0.293918 2.04802 0
M  V30 705 C 66.6794 -1.46537 1.19047 0
M  V30 706 O 66.0364 -1.81182 0.218939 0
M  V30 707 C 66.0874 -0.737806 3.53891 0
M  V30 708 O 65.8084 0.387038 4.36387 0
M  V30 709 C 67.3094 -1.40936 4.203 0
M  V30 710 H 64.5294 -0.0620057 0.668129 0
M  V30 711 H 67.0734 0.457169 1.99324 0
M  V30 712 H 65.2284 -1.43889 3.59687 0
M  V30 713 H 65.6424 0.0391274 5.24485 0
M  V30 714 H 67.1164 -1.67099 5.26101 0
M  V30 715 H 67.5934 -2.35355 3.70816 0
M  V30 716 H 68.1994 -0.751117 4.18615 0
M  V30 717 N 66.5145 -1.57545 0.0417849 0
M  V30 718 C 67.4445 -2.14009 -0.933929 0
M  V30 719 C 68.4255 -1.05938 -1.33083 0
M  V30 720 O 69.6105 -1.33833 -1.40721 0
M  V30 721 C 66.7405 -2.67747 -2.21199 0
M  V30 722 C 65.6945 -3.80718 -1.95544 0
M  V30 723 C 65.0205 -4.20935 -3.29724 0
M  V30 724 C 66.3205 -5.06258 -1.28452 0
M  V30 725 H 68.0145 -2.95788 -0.463645 0
M  V30 726 H 65.5605 -1.42285 -0.221573 0
M  V30 727 H 67.5135 -3.05886 -2.89848 0
M  V30 728 H 66.2375 -1.83147 -2.70416 0
M  V30 729 H 64.8965 -3.43037 -1.2931 0
M  V30 730 H 64.5445 -3.33298 -3.76724 0
M  V30 731 H 64.2445 -4.9707 -3.13361 0
M  V30 732 H 65.7685 -4.61666 -3.9962 0
M  V30 733 H 67.1825 -5.41903 -1.8712 0
M  V30 734 H 65.5795 -5.87475 -1.22445 0
M  V30 735 H 66.6495 -4.84207 -0.259219 0
M  V30 736 N 67.9926 0.231505 -1.5589 0
M  V30 737 C 68.9226 1.29022 -1.94617 0
M  V30 738 C 69.9036 1.4941 -0.813067 0
M  V30 739 O 71.0886 1.6176 -1.07459 0
M  V30 740 C 68.2186 2.64199 -2.25424 0
M  V30 741 C 67.1726 2.58484 -3.41131 0
M  V30 742 C 66.4986 3.97599 -3.57518 0
M  V30 743 C 67.7986 2.1413 -4.76388 0
M  V30 744 H 69.4926 0.968563 -2.83301 0
M  V30 745 H 67.0386 0.464479 -1.36303 0
M  V30 746 H 68.9916 3.38413 -2.51107 0
M  V30 747 H 67.7156 2.98032 -1.33583 0
M  V30 748 H 66.3746 1.86727 -3.15481 0
M  V30 749 H 66.0226 4.28723 -2.6307 0
M  V30 750 H 65.7226 3.94659 -4.35337 0
M  V30 751 H 67.2466 4.7349 -3.85538 0
M  V30 752 H 68.6606 2.78083 -5.01341 0
M  V30 753 H 67.0576 2.2227 -5.57419 0
M  V30 754 H 68.1276 1.09331 -4.72414 0
M  V30 755 N 69.4707 1.49531 0.497807 0
M  V30 756 C 70.8867 1.36365 0.829266 0
M  V30 757 C 71.0867 0.399184 1.97506 0
M  V30 758 O 70.1427 -0.167977 2.51941 0
M  V30 759 C 71.4557 2.77153 1.16647 0
M  V30 760 C 73.0037 2.85877 1.27449 0
M  V30 761 C 73.4787 4.2744 1.64497 0
M  V30 762 N 74.9697 4.30265 1.7154 0
M  V30 763 C 75.7047 5.3677 2.01656 0
M  V30 764 N 75.2007 6.53516 2.29976 0
M  V30 765 N 76.9937 5.24189 2.02934 0
M  V30 766 H 69.1447 2.10831 -0.257703 0
M  V30 767 H 71.4077 0.946534 -0.0527091 0
M  V30 768 H 71.1137 3.49442 0.397872 0
M  V30 769 H 70.9877 3.12722 2.10915 0
M  V30 770 H 73.3747 2.13824 2.0338 0
M  V30 771 H 73.4557 2.53887 0.312244 0
M  V30 772 H 73.0997 5.00021 0.891151 0
M  V30 773 H 73.0297 4.56896 2.61827 0
M  V30 774 H 75.5207 3.4607 1.51802 0
M  V30 775 H 75.8337 7.30506 2.52153 0
M  V30 776 H 74.1787 6.56737 2.27425 0
M  V30 777 H 77.3697 4.31988 1.80289 0
M  V30 778 H 77.5427 6.07286 2.26071 0
M  V30 779 N 70.9488 -0.749086 1.3866 0
M  V30 780 C 72.1968 -1.50535 1.34847 0
M  V30 781 C 72.5178 -1.94909 -0.0595016 0
M  V30 782 O 71.7878 -1.67973 -1.00806 0
M  V30 783 H 70.3678 -0.558395 0.49619 0
M  V30 784 H 73.0298 -0.890165 1.73384 0
M  V30 785 H 72.1258 -2.39413 2.00219 0
M  V30 786 N 72.4269 -1.23603 -0.977757 0
M  V30 787 C 73.6729 -1.07129 -1.72195 0
M  V30 788 C 74.0059 0.390501 -1.90233 0
M  V30 789 O 73.2809 1.28902 -1.45653 0
M  V30 790 C 73.5639 -1.80031 -3.11867 0
M  V30 791 C 73.4169 -3.33899 -3.01383 0
M  V30 792 C 74.7359 -1.56492 -4.11337 0
M  V30 793 H 71.8549 -0.390571 -0.624999 0
M  V30 794 H 74.4969 -1.52142 -1.13811 0
M  V30 795 H 72.6469 -1.41768 -3.6171 0
M  V30 796 H 74.3189 -3.81699 -2.59043 0
M  V30 797 H 72.5619 -3.62796 -2.37827 0
M  V30 798 H 73.2329 -3.801 -4.00285 0
M  V30 799 H 75.7089 -1.89757 -3.70313 0
M  V30 800 H 74.5849 -2.09973 -5.07151 0
M  V30 801 H 74.8459 -0.500874 -4.39254 0
M  V30 802 N 73.905 1.17692 -1.04816 0
M  V30 803 C 75.13 1.92327 -0.776207 0
M  V30 804 C 75.555 1.76082 0.661581 0
M  V30 805 O 74.913 1.076 1.45917 0
M  V30 806 C 74.961 3.41539 -1.15687 0
M  V30 807 O 74.065 4.11402 -0.286775 0
M  V30 808 H 73.406 0.599735 -0.284981 0
M  V30 809 H 75.936 1.49201 -1.4 0
M  V30 810 H 75.946 3.92269 -1.12202 0
M  V30 811 H 74.621 3.52684 -2.20425 0
M  V30 812 H 73.198 3.70939 -0.381903 0
M  V30 813 N 75.3831 0.828654 1.34056 0
M  V30 814 C 76.6321 0.415828 1.97367 0
M  V30 815 C 76.9451 -1.02796 1.6641 0
M  V30 816 O 78.1511 -1.54497 2.23255 0
M  V30 817 C 76.6071 0.692601 3.53173 0
M  V30 818 C 76.2151 2.15038 3.93017 0
M  V30 819 C 77.9591 0.346222 4.23086 0
M  V30 820 C 75.8661 2.37174 5.41758 0
M  V30 821 H 74.7961 0.151755 0.738571 0
M  V30 822 H 77.4471 1.01581 1.52819 0
M  V30 823 H 75.8291 0.0223764 3.95994 0
M  V30 824 H 77.0031 2.86024 3.61285 0
M  V30 825 H 75.3181 2.45875 3.36057 0
M  V30 826 H 77.9151 0.48937 5.32456 0
M  V30 827 H 78.2581 -0.709842 4.10204 0
M  V30 828 H 78.7911 0.971258 3.85761 0
M  V30 829 H 75.5301 3.41308 5.59633 0
M  V30 830 H 75.0501 1.70738 5.74986 0
M  V30 831 H 76.7291 2.19818 6.08514 0
M  V30 832 N 76.8612 -1.46375 0.584142 0
M  V30 833 C 78.1102 -2.01585 0.0679741 0
M  V30 834 C 78.4232 -1.46109 -1.30045 0
M  V30 835 O 79.6292 -1.93148 -1.90804 0
M  V30 836 C 78.0852 -3.5983 0.0709207 0
M  V30 837 C 77.6932 -4.24303 1.43775 0
M  V30 838 C 79.4372 -4.22693 -0.391228 0
M  V30 839 C 77.3442 -5.74631 1.39834 0
M  V30 840 H 76.2742 -0.753689 0.0216421 0
M  V30 841 H 78.9252 -1.68093 0.736001 0
M  V30 842 H 77.3072 -3.90405 -0.663299 0
M  V30 843 H 78.4812 -4.05335 2.19181 0
M  V30 844 H 76.7962 -3.73539 1.84004 0
M  V30 845 H 79.3932 -5.3289 -0.439524 0
M  V30 846 H 79.7362 -3.91728 -1.40906 0
M  V30 847 H 80.2692 -3.96749 0.288974 0
M  V30 848 H 77.0082 -6.10258 2.39303 0
M  V30 849 H 76.5282 -5.95858 0.686505 0
M  V30 850 H 78.2072 -6.37375 1.11187 0
M  V30 851 N 78.3393 -0.321999 -1.54275 0
M  V30 852 C 79.5883 0.281931 -1.9972 0
M  V30 853 C 79.9013 1.53369 -1.21397 0
M  V30 854 O 81.1073 2.21352 -1.57211 0
M  V30 855 C 79.5633 0.5529 -3.55628 0
M  V30 856 C 79.1713 -0.681721 -4.42783 0
M  V30 857 C 80.9153 1.11687 -4.09544 0
M  V30 858 C 78.8223 -0.382742 -5.9016 0
M  V30 859 H 77.7523 0.109124 -0.746062 0
M  V30 860 H 80.4033 -0.43398 -1.78294 0
M  V30 861 H 78.7853 1.32896 -3.73035 0
M  V30 862 H 79.9593 -1.45723 -4.37151 0
M  V30 863 H 78.2743 -1.1658 -3.99748 0
M  V30 864 H 80.8713 1.35515 -5.17242 0
M  V30 865 H 81.2143 2.06575 -3.61431 0
M  V30 866 H 81.7473 0.402032 -3.95763 0
M  V30 867 H 78.4863 -1.30076 -6.42464 0
M  V30 868 H 78.0063 0.355094 -5.98748 0
M  V30 869 H 79.6853 0.00800157 -6.47 0
M  V30 870 N 79.8174 1.5752 -0.0501392 0
M  V30 871 C 81.0654 1.9227 0.622642 0
M  V30 872 C 81.3864 0.929083 1.71444 0
M  V30 873 O 80.6564 -0.0262186 1.95882 0
M  V30 874 H 79.2364 0.709739 0.232981 0
M  V30 875 H 81.8984 1.94628 -0.102898 0
M  V30 876 H 80.9944 2.93479 1.06191 0
M  V30 877 N 81.2955 -0.223234 1.56011 0
M  V30 878 C 82.5235 -0.964812 1.83027 0
M  V30 879 C 82.9385 -1.78013 0.62904 0
M  V30 880 O 82.2955 -1.78008 -0.402414 0
M  V30 881 C 82.3465 -1.88373 3.08542 0
M  V30 882 O 82.0675 -1.10137 4.2403 0
M  V30 883 C 83.5685 -2.73934 3.48533 0
M  V30 884 H 80.7885 -0.282842 0.608475 0
M  V30 885 H 83.3325 -0.238971 2.03099 0
M  V30 886 H 81.4875 -2.56354 2.9045 0
M  V30 887 H 81.9015 -1.72501 4.95322 0
M  V30 888 H 83.3755 -3.34117 4.39397 0
M  V30 889 H 83.8525 -3.46244 2.70207 0
M  V30 890 H 84.4585 -2.11369 3.69057 0
M  V30 891 N 82.7736 -1.49793 -0.48987 0
M  V30 892 C 84.0226 -1.59085 -1.23995 0
M  V30 893 C 84.3356 -0.287907 -1.9347 0
M  V30 894 O 85.5416 -0.259506 -2.70257 0
M  V30 895 C 83.9976 -2.80736 -2.252 0
M  V30 896 C 83.6056 -4.17833 -1.61614 0
M  V30 897 C 85.3496 -2.99364 -3.00967 0
M  V30 898 C 83.2566 -5.30693 -2.60996 0
M  V30 899 H 82.1866 -0.592372 -0.466488 0
M  V30 900 H 84.8376 -1.76197 -0.51252 0
M  V30 901 H 83.2196 -2.57142 -3.01154 0
M  V30 902 H 84.3936 -4.51608 -0.915774 0
M  V30 903 H 82.7086 -4.04656 -0.981977 0
M  V30 904 H 85.3056 -3.80851 -3.75308 0
M  V30 905 H 85.6486 -2.10356 -3.59244 0
M  V30 906 H 86.1816 -3.2305 -2.32128 0
M  V30 907 H 82.9206 -6.21796 -2.07485 0
M  V30 908 H 82.4406 -5.01359 -3.2924 0
M  V30 909 H 84.1196 -5.6049 -3.23202 0
M  V30 910 N 84.2517 0.741722 -1.39055 0
M  V30 911 C 85.5007 1.49656 -1.35225 0
M  V30 912 C 85.8137 1.95533 0.0512708 0
M  V30 913 O 87.0197 2.7067 0.212138 0
M  V30 914 C 85.4757 2.70389 -2.37525 0
M  V30 915 C 85.0837 2.31489 -3.83558 0
M  V30 916 C 86.8277 3.48236 -2.42759 0
M  V30 917 C 84.7347 3.48903 -4.77515 0
M  V30 918 H 83.6647 0.56197 -0.502699 0
M  V30 919 H 86.3157 0.809727 -1.64668 0
M  V30 920 H 84.6977 3.41113 -2.01142 0
M  V30 921 H 85.8717 1.68354 -4.28945 0
M  V30 922 H 84.1867 1.66749 -3.81554 0
M  V30 923 H 86.7837 4.35558 -3.1015 0
M  V30 924 H 87.1267 3.90229 -1.45008 0
M  V30 925 H 87.6597 2.84535 -2.78002 0
M  V30 926 H 84.3987 3.11966 -5.76504 0
M  V30 927 H 83.9187 4.11041 -4.36813 0
M  V30 928 H 85.5977 4.15328 -4.96096 0
M  V30 929 N 85.7298 1.2412 0.971189 0
M  V30 930 C 86.9778 1.07668 1.71032 0
M  V30 931 C 87.2988 -0.385797 1.91146 0
M  V30 932 O 86.5688 -1.27569 1.4867 0
M  V30 933 H 85.1488 0.395429 0.633755 0
M  V30 934 H 87.8108 1.55984 1.16855 0
M  V30 935 H 86.9068 1.57195 2.69622 0
M  V30 936 N 87.2079 -1.17134 1.05439 0
M  V30 937 C 88.1709 -2.19439 0.661764 0
M  V30 938 C 89.1709 -1.58199 -0.288042 0
M  V30 939 O 90.3609 -1.74053 -0.0715803 0
M  V30 940 C 87.4929 -3.40889 -0.0276209 0
M  V30 941 H 88.6859 -2.55688 1.56728 0
M  V30 942 H 86.2389 -1.31259 0.848567 0
M  V30 943 H 86.9739 -3.10187 -0.94629 0
M  V30 944 H 86.7589 -3.86586 0.655238 0
M  V30 945 H 88.2489 -4.16603 -0.288342 0
M  V30 946 N 88.686 -0.835752 -1.33615 0
M  V30 947 C 89.934 -0.429109 -1.97492 0
M  V30 948 C 90.255 1.01433 -1.66543 0
M  V30 949 O 89.525 1.70611 -0.962744 0
M  V30 950 H 88.105 -0.155686 -0.730596 0
M  V30 951 H 90.767 -1.06802 -1.63031 0
M  V30 952 H 89.863 -0.55861 -3.0706 0
M  V30 953 N 90.1641 1.46063 -0.591896 0
M  V30 954 C 91.4131 2.01547 -0.0786637 0
M  V30 955 C 91.7261 1.46796 1.29268 0
M  V30 956 O 92.9321 1.94157 1.89777 0
M  V30 957 C 91.3881 3.59787 -0.0900024 0
M  V30 958 C 90.9961 4.23534 -1.46023 0
M  V30 959 C 92.7401 4.22895 0.368806 0
M  V30 960 C 90.6471 5.73881 -1.4288 0
M  V30 961 H 89.5771 0.753564 -0.0256388 0
M  V30 962 H 92.2281 1.677 -0.744905 0
M  V30 963 H 90.6101 3.90752 0.642586 0
M  V30 964 H 91.7841 4.04167 -2.21328 0
M  V30 965 H 90.0991 3.72558 -1.85982 0
M  V30 966 H 92.6961 5.33116 0.411258 0
M  V30 967 H 93.0391 3.9247 1.38827 0
M  V30 968 H 93.5721 3.9659 -0.31001 0
M  V30 969 H 90.3111 6.0898 -2.42536 0
M  V30 970 H 89.8311 5.95486 -0.718095 0
M  V30 971 H 91.5101 6.36776 -1.14565 0
M  V30 972 N 91.6422 0.330177 1.54103 0
M  V30 973 C 92.8892 -0.270405 2.00686 0
M  V30 974 C 93.2172 -1.51621 1.21825 0
M  V30 975 O 92.4722 -1.93536 0.29025 0
M  V30 976 C 92.7712 -0.643134 3.51566 0
M  V30 977 C 92.4372 0.504251 4.48072 0
M  V30 978 C 91.0992 0.819163 4.74176 0
M  V30 979 C 93.4512 1.27465 5.05373 0
M  V30 980 C 90.7792 1.90708 5.5484 0
M  V30 981 C 93.1312 2.35271 5.87223 0
M  V30 982 C 91.7952 2.67336 6.11627 0
M  V30 983 H 91.0652 -0.0989482 0.734364 0
M  V30 984 H 93.7122 0.455324 1.86008 0
M  V30 985 H 92.0172 -1.44938 3.64006 0
M  V30 986 H 93.7142 -1.11949 3.85056 0
M  V30 987 H 90.3042 0.248733 4.27878 0
M  V30 988 H 94.4882 1.04462 4.85182 0
M  V30 989 H 89.7442 2.15991 5.71977 0
M  V30 990 H 93.9182 2.95405 6.30641 0
M  V30 991 H 91.5452 3.51763 6.73919 0
M  V30 992 N 93.1203 -1.57491 0.0584922 0
M  V30 993 C 94.3693 -1.92155 -0.613146 0
M  V30 994 C 94.6823 -0.939334 -1.71569 0
M  V30 995 O 95.8883 -1.17829 -2.44599 0
M  V30 996 C 94.3443 -3.41303 -1.14195 0
M  V30 997 C 93.9523 -4.47944 -0.0711265 0
M  V30 998 C 95.6963 -3.84988 -1.78841 0
M  V30 999 C 93.6033 -5.88212 -0.613225 0
M  V30 1000 H 92.5333 -0.717162 -0.232796 0
M  V30 1001 H 95.1843 -1.83049 0.12857 0
M  V30 1002 H 93.5663 -3.45437 -1.93621 0
M  V30 1003 H 94.7403 -4.55408 0.702836 0
M  V30 1004 H 93.0553 -4.13644 0.478313 0
M  V30 1005 H 95.6523 -4.87159 -2.20408 0
M  V30 1006 H 95.9953 -3.21632 -2.64308 0
M  V30 1007 H 96.5283 -3.83401 -1.06059 0
M  V30 1008 H 93.2673 -6.55183 0.203978 0
M  V30 1009 H 92.7873 -5.84294 -1.35501 0
M  V30 1010 H 94.4663 -6.37687 -1.09383 0
M  V30 1011 N 94.5984 0.214957 -1.56127 0
M  V30 1012 C 95.8234 0.95924 -1.83884 0
M  V30 1013 C 96.2484 1.7689 -0.639644 0
M  V30 1014 O 95.6064 1.76566 0.411601 0
M  V30 1015 C 95.6544 1.84723 -3.09693 0
M  V30 1016 O 94.7584 2.94346 -2.8885 0
M  V30 1017 H 94.0994 0.27125 -0.606069 0
M  V30 1018 H 96.6294 0.226276 -2.03345 0
M  V30 1019 H 96.6394 2.25576 -3.39969 0
M  V30 1020 H 95.3144 1.25218 -3.96602 0
M  V30 1021 H 93.8914 2.57391 -2.69823 0
M  V30 1022 N 96.0765 1.50051 0.48192 0
M  V30 1023 C 97.4875 1.5348 1.06305 0
M  V30 1024 C 97.8385 0.331997 1.93371 0
M  V30 1025 O 96.9635 -0.556256 2.09129 0
M  V30 1026 C 97.5585 2.7813 1.93466 0
M  V30 1027 C 96.1175 2.84275 2.46707 0
M  V30 1028 C 95.2645 2.47637 1.24785 0
M  V30 1029 H 98.2155 1.56472 0.264995 0
M  V30 1030 H 98.2365 2.59372 2.78399 0
M  V30 1031 H 97.7485 3.65654 1.30072 0
M  V30 1032 H 95.8495 2.01077 3.13686 0
M  V30 1033 H 95.9625 3.8691 2.82555 0
M  V30 1034 H 94.3265 1.99835 1.57918 0
M  V30 1035 H 95.1095 3.37457 0.630694 0
M  V30 1036 N 97.5546 -0.734337 1.39446 0
M  V30 1037 C 98.5016 -1.84835 1.38219 0
M  V30 1038 C 99.4716 -1.64331 0.24179 0
M  V30 1039 O 100.657 -1.85728 0.437002 0
M  V30 1040 C 97.7966 -3.22355 1.23212 0
M  V30 1041 C 96.9096 -3.5456 2.46801 0
M  V30 1042 C 96.0446 -4.81485 2.24377 0
M  V30 1043 C 95.0836 -5.06536 3.43639 0
M  V30 1044 N 94.2206 -6.24665 3.20528 0
M  V30 1045 H 99.0606 -1.85219 2.33448 0
M  V30 1046 H 96.5976 -0.905039 1.15963 0
M  V30 1047 H 98.5556 -4.0174 1.12522 0
M  V30 1048 H 97.1856 -3.21248 0.316121 0
M  V30 1049 H 96.2376 -2.69872 2.68092 0
M  V30 1050 H 97.5496 -3.6899 3.3563 0
M  V30 1051 H 96.7036 -5.68852 2.10933 0
M  V30 1052 H 95.4426 -4.6923 1.32944 0
M  V30 1053 H 94.4476 -4.17632 3.5758 0
M  V30 1054 H 95.6726 -5.20676 4.35974 0
M  V30 1055 H 93.6186 -6.13696 2.3176 0
M  V30 1056 H 93.5356 -6.39685 4.02913 0
M  V30 1057 H 94.8036 -7.14868 3.10779 0
M  V30 1058 N 99.0327 -1.24633 -0.964593 0
M  V30 1059 C 100.281 -1.08573 -1.70459 0
M  V30 1060 C 100.602 0.375655 -1.91347 0
M  V30 1061 O 99.8717 1.26779 -1.49345 0
M  V30 1062 H 98.4517 -0.398784 -0.631649 0
M  V30 1063 H 101.114 -1.56601 -1.16026 0
M  V30 1064 H 100.21 -1.58623 -2.68785 0
M  V30 1065 N 100.511 1.16574 -1.06058 0
M  V30 1066 C 101.757 1.87324 -0.777022 0
M  V30 1067 C 102.09 1.81351 0.694645 0
M  V30 1068 O 101.365 1.22753 1.50871 0
M  V30 1069 C 101.648 3.36991 -1.26922 0
M  V30 1070 C 101.501 3.51667 -2.80447 0
M  V30 1071 C 102.82 4.3131 -0.87521 0
M  V30 1072 H 99.9388 0.680191 -0.28374 0
M  V30 1073 H 102.581 1.37036 -1.3161 0
M  V30 1074 H 100.731 3.79949 -0.81063 0
M  V30 1075 H 102.403 3.17664 -3.34495 0
M  V30 1076 H 100.646 2.93656 -3.19294 0
M  V30 1077 H 101.317 4.56766 -3.0995 0
M  V30 1078 H 103.793 3.9624 -1.27014 0
M  V30 1079 H 102.669 5.34545 -1.2471 0
M  V30 1080 H 102.93 4.41552 0.220071 0
M  V30 1081 N 101.989 0.842826 1.3317 0
M  V30 1082 C 102.919 0.294028 2.31641 0
M  V30 1083 C 103.9 -0.600401 1.59151 0
M  V30 1084 O 105.085 -0.523124 1.87022 0
M  V30 1085 C 102.215 -0.528416 3.43257 0
M  V30 1086 C 101.169 0.27056 4.27144 0
M  V30 1087 C 100.495 -0.675881 5.30411 0
M  V30 1088 C 101.795 1.48981 5.00602 0
M  V30 1089 H 103.489 1.11681 2.77791 0
M  V30 1090 H 101.035 0.538478 1.33553 0
M  V30 1091 H 102.988 -0.922674 4.11175 0
M  V30 1092 H 101.712 -1.38445 2.95805 0
M  V30 1093 H 100.371 0.646427 3.60856 0
M  V30 1094 H 100.019 -1.52842 4.79216 0
M  V30 1095 H 99.7189 -0.145374 5.8742 0
M  V30 1096 H 101.243 -1.06757 6.01195 0
M  V30 1097 H 102.657 1.16849 5.61266 0
M  V30 1098 H 101.054 1.95739 5.6728 0
M  V30 1099 H 102.124 2.25746 4.29147 0
M  V30 1100 N 103.467 -1.45747 0.599634 0
M  V30 1101 C 104.399 -2.28628 -0.161879 0
M  V30 1102 C 105.412 -1.39494 -0.839367 0
M  V30 1103 O 106.601 -1.63941 -0.706089 0
M  V30 1104 C 103.701 -3.15014 -1.24976 0
M  V30 1105 C 102.874 -4.32378 -0.660935 0
M  V30 1106 C 101.933 -5.00033 -1.63869 0
M  V30 1107 O 100.959 -5.57085 -1.1681 0
M  V30 1108 N 102.161 -4.98589 -2.97303 0
M  V30 1109 H 104.926 -2.94624 0.549265 0
M  V30 1110 H 102.487 -1.55847 0.438565 0
M  V30 1111 H 104.479 -3.5714 -1.9035 0
M  V30 1112 H 103.049 -2.5098 -1.86354 0
M  V30 1113 H 102.269 -3.9383 0.170688 0
M  V30 1114 H 103.557 -5.08197 -0.247619 0
M  V30 1115 H 102.955 -4.53514 -3.38145 0
M  V30 1116 H 101.512 -5.44603 -3.58121 0
M  V30 1117 N 104.945 -0.338344 -1.53925 0
M  V30 1118 C 105.893 0.536231 -2.26335 0
M  V30 1119 C 106.887 1.1063 -1.28286 0
M  V30 1120 O 108.093 1.05264 -1.46012 0
M  V30 1121 H 104.468 0.191602 -0.727181 0
M  V30 1122 H 106.439 -0.0965747 -2.98244 0
M  V30 1123 C 105.188 1.67803 -3.04528 0
M  V30 1124 H 104.511 1.24864 -3.79801 0
M  V30 1125 H 105.951 2.26526 -3.58416 0
M  V30 1126 C 104.41 2.60439 -2.13712 0
M  V30 1127 O 104.94 3.6255 -1.72975 0
M  V30 1128 N 103.146 2.29006 -1.78898 0
M  V30 1129 H 102.693 1.46011 -2.12223 0
M  V30 1130 H 102.651 2.91248 -1.18416 0
M  V30 1131 N 106.423 1.57458 -0.0668435 0
M  V30 1132 C 107.651 1.97624 0.612565 0
M  V30 1133 C 108.066 0.94502 1.63447 0
M  V30 1134 O 107.423 -0.0689276 1.8237 0
M  V30 1135 C 107.474 3.37869 1.28555 0
M  V30 1136 O 107.195 4.3704 0.304557 0
M  V30 1137 C 108.696 3.92882 2.05325 0
M  V30 1138 H 105.916 0.650045 0.166381 0
M  V30 1139 H 108.46 2.04035 -0.137782 0
M  V30 1140 H 106.615 3.3256 1.98702 0
M  V30 1141 H 107.029 5.18565 0.786779 0
M  V30 1142 H 108.503 4.93247 2.47812 0
M  V30 1143 H 108.98 3.29156 2.9078 0
M  V30 1144 H 109.586 4.01577 1.40056 0
M  V30 1145 N 107.901 -0.206675 1.56239 0
M  V30 1146 C 109.149 -0.927007 1.79586 0
M  V30 1147 C 109.47 -1.8427 0.637929 0
M  V30 1148 O 108.74 -1.92849 -0.344398 0
M  V30 1149 H 107.32 -0.345292 0.662407 0
M  V30 1150 H 109.982 -0.21496 1.93711 0
M  V30 1151 H 109.078 -1.52501 2.72305 0
M  V30 1152 N 109.379 -1.50304 -0.473955 0
M  V30 1153 C 110.604 -1.65175 -1.25427 0
M  V30 1154 C 111.029 -0.333673 -1.85117 0
M  V30 1155 O 110.387 0.702114 -1.67153 0
M  V30 1156 C 110.435 -2.74295 -2.34082 0
M  V30 1157 O 109.539 -2.35349 -3.38651 0
M  V30 1158 H 108.88 -0.551944 -0.369126 0
M  V30 1159 H 111.41 -1.96662 -0.564364 0
M  V30 1160 H 111.42 -2.97285 -2.79438 0
M  V30 1161 H 110.095 -3.69959 -1.90008 0
M  V30 1162 H 108.672 -2.22794 -2.99027 0
M  V30 1163 N 110.857 0.726932 -1.39834 0
M  V30 1164 C 112.103 1.48884 -1.377 0
M  V30 1165 C 112.436 1.94185 0.0244852 0
M  V30 1166 O 111.711 1.67361 0.990986 0
M  V30 1167 C 111.994 2.72288 -2.3565 0
M  V30 1168 C 111.847 2.32956 -3.84775 0
M  V30 1169 C 113.166 3.74414 -2.31306 0
M  V30 1170 H 110.285 0.540062 -0.5015 0
M  V30 1171 H 112.927 0.830547 -1.70886 0
M  V30 1172 H 111.077 3.28457 -2.07481 0
M  V30 1173 H 112.749 1.82356 -4.23726 0
M  V30 1174 H 110.992 1.65088 -4.01159 0
M  V30 1175 H 111.663 3.21362 -4.4881 0
M  V30 1176 H 114.139 3.27849 -2.56231 0
M  V30 1177 H 113.015 4.58414 -3.01907 0
M  V30 1178 H 113.276 4.21909 -1.32081 0
M  V30 1179 N 112.336 1.25143 0.95797 0
M  V30 1180 C 113.584 1.09476 1.69881 0
M  V30 1181 C 113.905 -0.365502 1.91544 0
M  V30 1182 O 113.175 -1.25985 1.50015 0
M  V30 1183 H 111.755 0.402128 0.629525 0
M  V30 1184 H 114.417 1.57214 1.15194 0
M  V30 1185 H 113.513 1.60046 2.6794 0
M  V30 1186 N 113.814 -1.1601 1.06675 0
M  V30 1187 C 114.747 -2.1947 0.625168 0
M  V30 1188 C 115.725 -1.58699 -0.354041 0
M  V30 1189 O 116.909 -1.86669 -0.262098 0
M  V30 1190 C 114.036 -3.38598 -0.0829593 0
M  V30 1191 C 113.082 -4.1787 0.853611 0
M  V30 1192 S 113.915 -4.81135 2.35094 0
M  V30 1193 C 115.071 -6.03639 1.65441 0
M  V30 1194 H 115.304 -2.56587 1.50168 0
M  V30 1195 H 112.837 -1.26862 0.880078 0
M  V30 1196 H 114.795 -4.07621 -0.485288 0
M  V30 1197 H 113.456 -2.99839 -0.935716 0
M  V30 1198 H 112.649 -5.03078 0.304755 0
M  V30 1199 H 112.251 -3.54361 1.196 0
M  V30 1200 H 114.543 -6.70632 0.962201 0
M  V30 1201 H 115.486 -6.63081 2.48454 0
M  V30 1202 H 115.894 -5.52965 1.13534 0
M  V30 1203 N 115.292 -0.849877 -1.32721 0
M  V30 1204 C 116.517 -0.463856 -2.02146 0
M  V30 1205 C 116.942 0.930449 -1.63476 0
M  V30 1206 O 116.3 1.61033 -0.832952 0
M  V30 1207 C 116.348 -0.604955 -3.55489 0
M  V30 1208 O 115.452 0.36425 -4.10788 0
M  V30 1209 H 114.793 -0.187046 -0.637111 0
M  V30 1210 H 117.323 -1.14775 -1.69375 0
M  V30 1211 H 117.333 -0.490696 -4.05038 0
M  V30 1212 H 116.008 -1.62174 -3.82978 0
M  V30 1213 H 114.585 0.206628 -3.72327 0
M  V30 1214 N 116.77 1.45427 -0.607355 0
M  V30 1215 C 117.7 2.3329 0.0989352 0
M  V30 1216 C 118.681 1.46816 0.859007 0
M  V30 1217 O 119.866 1.75588 0.829604 0
M  V30 1218 C 116.996 3.29518 1.09705 0
M  V30 1219 C 115.95 4.25626 0.450206 0
M  V30 1220 C 115.276 5.11542 1.55655 0
M  V30 1221 C 116.576 5.18505 -0.628455 0
M  V30 1222 H 118.27 2.92595 -0.634716 0
M  V30 1223 H 115.816 1.40696 -0.306681 0
M  V30 1224 H 117.769 3.89855 1.59971 0
M  V30 1225 H 116.493 2.68372 1.86129 0
M  V30 1226 H 115.152 3.66586 -0.0315886 0
M  V30 1227 H 114.8 4.46765 2.31107 0
M  V30 1228 H 114.5 5.76647 1.12925 0
M  V30 1229 H 116.024 5.74748 2.06148 0
M  V30 1230 H 117.438 5.72916 -0.209877 0
M  V30 1231 H 115.835 5.92085 -0.977489 0
M  V30 1232 H 116.905 4.60948 -1.50514 0
M  V30 1233 N 118.248 0.346503 1.53744 0
M  V30 1234 C 119.476 -0.25041 2.05379 0
M  V30 1235 C 119.891 -1.43979 1.22129 0
M  V30 1236 O 119.248 -1.80677 0.257321 0
M  V30 1237 C 119.299 -0.662575 3.55376 0
M  V30 1238 O 119.02 0.479515 4.35468 0
M  V30 1239 C 120.521 -1.31989 4.23195 0
M  V30 1240 H 117.741 -0.0478198 0.669294 0
M  V30 1241 H 120.285 0.499346 1.9831 0
M  V30 1242 H 118.44 -1.36227 3.62658 0
M  V30 1243 H 118.854 0.15037 5.24284 0
M  V30 1244 H 120.328 -1.55902 5.29527 0
M  V30 1245 H 120.805 -2.27436 3.75725 0
M  V30 1246 H 121.411 -0.662154 4.20114 0
M  V30 1247 N 119.726 -1.57421 0.075193 0
M  V30 1248 C 120.975 -1.92794 -0.592731 0
M  V30 1249 C 121.288 -0.957478 -1.70563 0
M  V30 1250 O 122.494 -1.20417 -2.43335 0
M  V30 1251 C 120.95 -3.42495 -1.10569 0
M  V30 1252 C 120.558 -4.47994 -0.0236121 0
M  V30 1253 C 122.302 -3.86864 -1.74748 0
M  V30 1254 C 120.209 -5.88829 -0.550803 0
M  V30 1255 H 119.139 -0.719591 -0.225177 0
M  V30 1256 H 121.79 -1.82902 0.147978 0
M  V30 1257 H 120.172 -3.47471 -1.89947 0
M  V30 1258 H 121.346 -4.54637 0.751099 0
M  V30 1259 H 119.661 -4.13113 0.522159 0
M  V30 1260 H 122.258 -4.8947 -2.15229 0
M  V30 1261 H 122.601 -3.24417 -2.60882 0
M  V30 1262 H 123.134 -3.84504 -1.01986 0
M  V30 1263 H 119.873 -6.54929 0.273457 0
M  V30 1264 H 119.393 -5.85698 -1.29296 0
M  V30 1265 H 121.072 -6.38811 -1.02613 0
M  V30 1266 N 121.204 0.198386 -1.56346 0
M  V30 1267 C 122.45 0.916115 -1.81601 0
M  V30 1268 C 122.805 1.81025 -0.651744 0
M  V30 1269 O 122.098 1.88316 0.353229 0
M  V30 1270 C 122.292 1.77031 -3.10475 0
M  V30 1271 C 122.121 0.960365 -4.39326 0
M  V30 1272 C 120.891 0.646093 -5.01152 0
M  V30 1273 C 123.089 0.314628 -5.13337 0
M  V30 1274 N 121.071 -0.182828 -6.13628 0
M  V30 1275 C 122.442 -0.37664 -6.18855 0
M  V30 1276 C 124.497 0.230019 -4.97368 0
M  V30 1277 C 123.2 -1.14445 -7.10137 0
M  V30 1278 C 125.226 -0.524389 -5.89071 0
M  V30 1279 C 124.588 -1.20412 -6.94032 0
M  V30 1280 H 120.687 0.314732 -0.715868 0
M  V30 1281 H 123.271 0.185102 -1.93818 0
M  V30 1282 H 121.442 2.47295 -2.99499 0
M  V30 1283 H 123.174 2.42727 -3.2383 0
M  V30 1284 H 119.929 0.969724 -4.63566 0
M  V30 1285 H 120.353 -0.586802 -6.74452 0
M  V30 1286 H 124.995 0.741184 -4.16253 0
M  V30 1287 H 122.713 -1.66706 -7.90718 0
M  V30 1288 H 126.299 -0.591167 -5.78789 0
M  V30 1289 H 125.179 -1.77853 -7.63766 0
M  V30 1290 N 122.682 1.50554 0.465978 0
M  V30 1291 C 123.91 1.65563 1.24083 0
M  V30 1292 C 124.325 0.341051 1.85694 0
M  V30 1293 O 123.682 -0.677543 1.69457 0
M  V30 1294 C 123.733 2.75051 2.34583 0
M  V30 1295 O 123.454 4.01413 1.75497 0
M  V30 1296 C 124.955 3.01078 3.25372 0
M  V30 1297 H 122.175 0.55638 0.375077 0
M  V30 1298 H 124.719 1.96807 0.555624 0
M  V30 1299 H 122.874 2.46486 2.9887 0
M  V30 1300 H 123.288 4.62002 2.48303 0
M  V30 1301 H 124.762 3.81339 3.99105 0
M  V30 1302 H 125.239 2.12349 3.84453 0
M  V30 1303 H 125.845 3.31194 2.66816 0
M  V30 1304 N 124.16 -0.719506 1.40217 0
M  V30 1305 C 125.406 -1.48152 1.38488 0
M  V30 1306 C 125.739 -1.94195 -0.0141867 0
M  V30 1307 O 125.014 -1.67884 -0.982096 0
M  V30 1308 C 125.297 -2.71035 2.37091 0
M  V30 1309 C 125.15 -2.30912 3.86005 0
M  V30 1310 C 126.469 -3.73182 2.33288 0
M  V30 1311 H 123.588 -0.537395 0.504357 0
M  V30 1312 H 126.23 -0.821472 1.71324 0
M  V30 1313 H 124.38 -3.27352 2.0922 0
M  V30 1314 H 126.052 -1.80107 4.24687 0
M  V30 1315 H 124.295 -1.62958 4.02029 0
M  V30 1316 H 124.966 -3.18978 4.50508 0
M  V30 1317 H 127.442 -3.26485 2.57966 0
M  V30 1318 H 126.318 -4.56806 3.04334 0
M  V30 1319 H 126.579 -4.21202 1.34317 0
M  V30 1320 N 125.638 -1.25649 -0.95132 0
M  V30 1321 C 126.878 -1.11802 -1.71113 0
M  V30 1322 C 127.242 0.334758 -1.89059 0
M  V30 1323 O 128.443 0.595121 -2.62129 0
M  V30 1324 C 126.714 -1.85512 -3.05483 0
M  V30 1325 S 128.273 -1.87597 -3.96677 0
M  V30 1326 H 125.091 -0.399552 -0.588115 0
M  V30 1327 H 127.693 -1.59222 -1.1344 0
M  V30 1328 H 126.397 -2.90299 -2.90094 0
M  V30 1329 H 125.928 -1.38493 -3.68216 0
M  V30 1330 H 127.943 -0.955389 -4.86916 0
M  V30 1331 N 127.117 1.15442 -1.07289 0
M  V30 1332 C 128.365 1.85845 -0.794096 0
M  V30 1333 C 128.686 1.82692 0.681809 0
M  V30 1334 O 127.956 1.26741 1.49377 0
M  V30 1335 H 126.536 0.688089 -0.290763 0
M  V30 1336 H 129.198 1.39947 -1.3565 0
M  V30 1337 H 128.294 2.91001 -1.12804 0
M  V30 1338 N 128.595 0.856903 1.32268 0
M  V30 1339 C 129.841 0.462069 1.97466 0
M  V30 1340 C 130.174 -0.980298 1.67642 0
M  V30 1341 O 129.449 -1.68824 0.965858 0
M  V30 1342 C 129.732 0.704336 3.53145 0
M  V30 1343 C 129.585 2.19529 3.9259 0
M  V30 1344 C 130.904 0.1622 4.39801 0
M  V30 1345 H 128.023 0.169357 0.717278 0
M  V30 1346 H 130.665 1.07574 1.56614 0
M  V30 1347 H 128.815 0.181999 3.88073 0
M  V30 1348 H 130.487 2.78387 3.67829 0
M  V30 1349 H 128.73 2.67292 3.41668 0
M  V30 1350 H 129.401 2.31549 5.01088 0
M  V30 1351 H 131.877 0.608905 4.11621 0
M  V30 1352 H 130.753 0.361265 5.4771 0
M  V30 1353 H 131.014 -0.935158 4.32096 0
M  V30 1354 N 130.073 -1.45103 0.615059 0
M  V30 1355 C 131.003 -2.33339 -0.0865619 0
M  V30 1356 C 131.984 -1.4727 -0.851209 0
M  V30 1357 O 133.169 -1.76026 -0.820281 0
M  V30 1358 C 130.299 -3.30095 -1.07956 0
M  V30 1359 C 129.253 -4.25858 -0.427628 0
M  V30 1360 C 128.579 -5.12361 -1.5294 0
M  V30 1361 C 129.879 -5.18165 0.655944 0
M  V30 1362 H 131.573 -2.92254 0.650224 0
M  V30 1363 H 129.119 -1.40532 0.314138 0
M  V30 1364 H 131.072 -3.90698 -1.57901 0
M  V30 1365 H 129.796 -2.69355 -1.84703 0
M  V30 1366 H 128.455 -3.66564 0.0510292 0
M  V30 1367 H 128.103 -4.47984 -2.28734 0
M  V30 1368 H 127.803 -5.77238 -1.09865 0
M  V30 1369 H 129.327 -5.75833 -2.03098 0
M  V30 1370 H 130.741 -5.72796 0.240257 0
M  V30 1371 H 129.138 -5.91559 1.00888 0
M  V30 1372 H 130.208 -4.60144 1.52957 0
M  V30 1373 N 131.551 -0.354651 -1.53558 0
M  V30 1374 C 132.776 0.242153 -2.05981 0
M  V30 1375 C 133.201 1.42553 -1.2272 0
M  V30 1376 O 132.559 1.79656 -0.243604 0
M  V30 1377 C 132.607 0.624367 -3.55154 0
M  V30 1378 O 131.711 1.72301 -3.74681 0
M  V30 1379 H 131.052 0.0378432 -0.662921 0
M  V30 1380 H 133.582 -0.512087 -1.98088 0
M  V30 1381 H 133.592 0.898433 -3.97985 0
M  V30 1382 H 132.267 -0.240989 -4.15201 0
M  V30 1383 H 130.844 1.44535 -3.4375 0
M  V30 1384 N 133.029 1.57378 -0.0835403 0
M  V30 1385 C 133.959 2.1641 0.87686 0
M  V30 1386 C 134.94 1.09429 1.30228 0
M  V30 1387 O 136.125 1.37516 1.37124 0
M  V30 1388 C 133.255 2.73517 2.14022 0
M  V30 1389 C 132.209 3.85769 1.85381 0
M  V30 1390 C 131.535 4.29529 3.18448 0
M  V30 1391 C 132.835 5.09486 1.14984 0
M  V30 1392 H 134.529 2.96914 0.385059 0
M  V30 1393 H 132.075 1.42823 0.18377 0
M  V30 1394 H 134.028 3.13463 2.81636 0
M  V30 1395 H 132.752 1.90252 2.65465 0
M  V30 1396 H 131.411 3.46345 1.20169 0
M  V30 1397 H 131.059 3.43169 3.67755 0
M  V30 1398 H 130.759 5.05204 3.00071 0
M  V30 1399 H 132.283 4.72099 3.8724 0
M  V30 1400 H 133.697 5.46674 1.72687 0
M  V30 1401 H 132.094 5.90515 1.06826 0
M  V30 1402 H 133.164 4.84724 0.130749 0
M  V30 1403 N 134.507 -0.190092 1.56449 0
M  V30 1404 C 135.754 -0.909705 1.80916 0
M  V30 1405 C 136.082 -1.83047 0.657583 0
M  V30 1406 O 135.337 -1.92428 -0.356356 0
M  V30 1407 C 135.636 -1.75382 3.1141 0
M  V30 1408 C 135.302 -0.983606 4.40041 0
M  V30 1409 C 133.964 -0.770967 4.74984 0
M  V30 1410 C 136.316 -0.442024 5.19322 0
M  V30 1411 C 133.644 -0.0053448 5.867 0
M  V30 1412 C 135.996 0.310412 6.31838 0
M  V30 1413 C 134.66 0.534023 6.6536 0
M  V30 1414 H 133.93 -0.332885 0.662019 0
M  V30 1415 H 136.577 -0.175762 1.90692 0
M  V30 1416 H 134.882 -2.55659 2.96893 0
M  V30 1417 H 136.579 -2.31331 3.27547 0
M  V30 1418 H 133.169 -1.15936 4.12622 0
M  V30 1419 H 137.353 -0.593693 4.92736 0
M  V30 1420 H 132.609 0.177825 6.11141 0
M  V30 1421 H 136.783 0.737419 6.92485 0
M  V30 1422 H 134.41 1.12918 7.51767 0
M  V30 1423 N 135.985 -1.50799 -0.457987 0
M  V30 1424 C 137.233 -1.62121 -1.2067 0
M  V30 1425 C 137.554 -0.329793 -1.92191 0
M  V30 1426 O 136.824 0.653409 -1.84682 0
M  V30 1427 H 135.404 -0.597441 -0.448411 0
M  V30 1428 H 138.066 -1.87637 -0.527096 0
M  V30 1429 H 137.162 -2.43882 -1.94751 0
M  V30 1430 N 137.463 0.71206 -1.40597 0
M  V30 1431 C 138.426 1.80785 -1.40888 0
M  V30 1432 C 139.426 1.57937 -0.302103 0
M  V30 1433 O 140.616 1.64913 -0.561182 0
M  V30 1434 C 137.748 3.18927 -1.20409 0
M  V30 1435 H 138.941 1.81924 -2.38419 0
M  V30 1436 H 136.494 0.91805 -1.26497 0
M  V30 1437 H 137.229 3.23436 -0.236522 0
M  V30 1438 H 137.014 3.36911 -2.00582 0
M  V30 1439 H 138.504 3.98949 -1.23408 0
M  V30 1440 N 138.941 1.26152 0.944643 0
M  V30 1441 C 139.871 1.09902 2.06019 0
M  V30 1442 C 140.852 0.00519538 1.70099 0
M  V30 1443 O 142.037 0.176583 1.93396 0
M  V30 1444 C 139.167 0.727562 3.39594 0
M  V30 1445 C 138.121 1.77274 3.89561 0
M  V30 1446 C 137.447 1.25569 5.19747 0
M  V30 1447 C 138.747 3.17357 4.14827 0
M  V30 1448 H 140.441 2.03217 2.19871 0
M  V30 1449 H 137.987 0.978452 1.05652 0
M  V30 1450 H 139.94 0.600777 4.17095 0
M  V30 1451 H 138.664 -0.241287 3.25707 0
M  V30 1452 H 137.323 1.88814 3.14237 0
M  V30 1453 H 136.971 0.276783 5.02238 0
M  V30 1454 H 136.671 1.95433 5.54148 0
M  V30 1455 H 138.195 1.1415 5.99835 0
M  V30 1456 H 139.609 3.08914 4.82954 0
M  V30 1457 H 138.006 3.84781 4.60504 0
M  V30 1458 H 139.076 3.63673 3.20734 0
M  V30 1459 N 140.419 -1.14872 1.07899 0
M  V30 1460 C 141.644 -1.90202 0.826926 0
M  V30 1461 C 142.069 -1.77774 -0.614664 0
M  V30 1462 O 141.427 -1.11431 -1.43013 0
M  V30 1463 C 141.475 -3.38352 1.24702 0
M  V30 1464 O 140.579 -4.10497 0.39575 0
M  V30 1465 H 139.92 -0.591968 0.300782 0
M  V30 1466 H 142.45 -1.45437 1.43907 0
M  V30 1467 H 142.46 -3.89156 1.22563 0
M  V30 1468 H 141.135 -3.46715 2.29698 0
M  V30 1469 H 139.712 -3.69796 0.480117 0
M  V30 1470 N 141.898 -0.863906 -1.31812 0
M  V30 1471 C 143.128 -0.485406 -2.00817 0
M  V30 1472 C 143.536 0.925007 -1.65046 0
M  V30 1473 O 142.879 1.61653 -0.872574 0
M  V30 1474 C 142.941 -0.555589 -3.55181 0
M  V30 1475 C 142.605 -1.92654 -4.14407 0
M  V30 1476 C 143.602 -2.89324 -4.31958 0
M  V30 1477 C 141.287 -2.2262 -4.50273 0
M  V30 1478 C 143.281 -4.14108 -4.84555 0
M  V30 1479 C 140.968 -3.47654 -5.02573 0
M  V30 1480 C 141.966 -4.43214 -5.19664 0
M  V30 1481 O 141.654 -5.66033 -5.70843 0
M  V30 1482 H 141.386 -0.188224 -0.649267 0
M  V30 1483 H 143.94 -1.16514 -1.69156 0
M  V30 1484 H 142.17 0.181037 -3.86276 0
M  V30 1485 H 143.859 -0.19138 -4.05449 0
M  V30 1486 H 144.625 -2.6748 -4.04573 0
M  V30 1487 H 140.504 -1.4902 -4.3625 0
M  V30 1488 H 144.048 -4.88703 -4.9781 0
M  V30 1489 H 139.945 -3.69345 -5.29391 0
M  V30 1490 H 140.713 -5.6812 -5.89222 0
M  V30 1491 N 143.376 1.44774 -0.622745 0
M  V30 1492 C 144.339 2.29069 0.0774015 0
M  V30 1493 C 145.339 1.4059 0.780461 0
M  V30 1494 O 146.529 1.62551 0.626322 0
M  V30 1495 C 143.661 3.21974 1.12006 0
M  V30 1496 H 144.854 2.92459 -0.663901 0
M  V30 1497 H 142.407 1.51548 -0.382486 0
M  V30 1498 H 143.142 2.63417 1.89162 0
M  V30 1499 H 142.927 3.87168 0.619951 0
M  V30 1500 H 144.417 3.85318 1.60995 0
M  V30 1501 N 144.854 0.36279 1.53368 0
M  V30 1502 C 145.764 -0.492994 2.29362 0
M  V30 1503 C 146.78 -1.09507 1.35219 0
M  V30 1504 O 147.956 -1.10662 1.68273 0
M  V30 1505 C 145.021 -1.61855 3.066 0
M  V30 1506 C 144.082 -1.04429 4.16405 0
M  V30 1507 C 143.315 -2.11621 4.89951 0
M  V30 1508 O 143.538 -3.32684 4.63333 0
M  V30 1509 O 142.472 -1.74835 5.75948 0
M  V30 1510 H 146.298 0.125331 3.03441 0
M  V30 1511 H 143.883 0.127253 1.48857 0
M  V30 1512 H 145.765 -2.27302 3.54841 0
M  V30 1513 H 144.44 -2.22233 2.3536 0
M  V30 1514 H 143.347 -0.353819 3.72423 0
M  V30 1515 H 144.68 -0.485113 4.89804 0
M  V30 1516 N 146.332 -1.57332 0.0918853 0
M  V30 1517 C 147.262 -2.16872 -0.865371 0
M  V30 1518 C 148.243 -1.10118 -1.29646 0
M  V30 1519 O 149.428 -1.38242 -1.36392 0
M  V30 1520 C 146.558 -2.74649 -2.12569 0
M  V30 1521 C 145.512 -3.86747 -1.83333 0
M  V30 1522 C 144.838 -4.31212 -3.16166 0
M  V30 1523 C 146.138 -5.10089 -1.1228 0
M  V30 1524 H 147.832 -2.97114 -0.369307 0
M  V30 1525 H 145.378 -1.42918 -0.176194 0
M  V30 1526 H 147.331 -3.14952 -2.7997 0
M  V30 1527 H 146.055 -1.91657 -2.64452 0
M  V30 1528 H 144.714 -3.46978 -1.18331 0
M  V30 1529 H 144.362 -3.45115 -3.6593 0
M  V30 1530 H 144.062 -5.06788 -2.97388 0
M  V30 1531 H 145.586 -4.74146 -3.84731 0
M  V30 1532 H 147 -5.47582 -1.69785 0
M  V30 1533 H 145.397 -5.91073 -1.03693 0
M  V30 1534 H 146.467 -4.84786 -0.105041 0
M  V30 1535 N 147.81 0.181792 -1.56548 0
M  V30 1536 C 149.058 0.89832 -1.81038 0
M  V30 1537 C 149.379 1.83232 -0.667164 0
M  V30 1538 O 148.649 1.93372 0.313673 0
M  V30 1539 H 147.229 0.33471 -0.667816 0
M  V30 1540 H 149.891 0.184116 -1.94028 0
M  V30 1541 H 148.987 1.4815 -2.74696 0
M  V30 1542 N 149.288 1.51039 0.449983 0
M  V30 1543 C 150.516 1.66869 1.2232 0
M  V30 1544 C 150.931 0.360727 1.85322 0
M  V30 1545 O 150.288 -0.659531 1.70166 0
M  V30 1546 C 150.339 2.77524 2.31652 0
M  V30 1547 O 150.06 4.03252 1.7123 0
M  V30 1548 C 151.561 3.04512 3.2216 0
M  V30 1549 H 148.781 0.560326 0.369155 0
M  V30 1550 H 151.325 1.97385 0.534719 0
M  V30 1551 H 149.48 2.49642 2.96239 0
M  V30 1552 H 149.894 4.64609 2.43389 0
M  V30 1553 H 151.368 3.85551 3.95038 0
M  V30 1554 H 151.845 2.16415 3.8218 0
M  V30 1555 H 152.451 3.34005 2.63288 0
M  V30 1556 N 150.766 -0.704594 1.40972 0
M  V30 1557 C 151.994 -1.49354 1.43182 0
M  V30 1558 C 152.409 -1.88768 0.0345508 0
M  V30 1559 O 151.766 -1.56184 -0.944081 0
M  V30 1560 C 151.817 -2.76187 2.33244 0
M  V30 1561 O 151.538 -2.38436 3.67532 0
M  V30 1562 C 153.039 -3.7 2.44162 0
M  V30 1563 H 150.259 -0.460559 0.487982 0
M  V30 1564 H 152.803 -0.868261 1.85153 0
M  V30 1565 H 150.958 -3.34974 1.94606 0
M  V30 1566 H 151.372 -3.20126 4.15475 0
M  V30 1567 H 152.846 -4.55803 3.11364 0
M  V30 1568 H 153.323 -4.13867 1.47006 0
M  V30 1569 H 153.929 -3.17121 2.83398 0
M  V30 1570 N 152.244 -1.26651 -0.937939 0
M  V30 1571 C 153.493 -1.11775 -1.67897 0
M  V30 1572 C 153.806 0.33794 -1.92659 0
M  V30 1573 O 155.012 0.607434 -2.64618 0
M  V30 1574 C 153.468 -1.9523 -3.02346 0
M  V30 1575 C 153.076 -3.45393 -2.8532 0
M  V30 1576 C 154.82 -1.88972 -3.80118 0
M  V30 1577 C 152.727 -4.21083 -4.15263 0
M  V30 1578 H 151.657 -0.414696 -0.629717 0
M  V30 1579 H 154.308 -1.50988 -1.04283 0
M  V30 1580 H 152.69 -1.48853 -3.66959 0
M  V30 1581 H 153.864 -3.99561 -2.29537 0
M  V30 1582 H 152.179 -3.52921 -2.20988 0
M  V30 1583 H 154.776 -2.42805 -4.76392 0
M  V30 1584 H 155.119 -0.86113 -4.07296 0
M  V30 1585 H 155.652 -2.33189 -3.22285 0
M  V30 1586 H 152.391 -5.24425 -3.93267 0
M  V30 1587 H 151.911 -3.71695 -4.70747 0
M  V30 1588 H 153.59 -4.29706 -4.83696 0
M  V30 1589 N 153.722 1.14298 -1.08507 0
M  V30 1590 C 154.669 2.19414 -0.715965 0
M  V30 1591 C 155.639 1.63399 0.298326 0
M  V30 1592 O 156.824 1.89929 0.182101 0
M  V30 1593 C 153.964 3.44845 -0.132534 0
M  V30 1594 C 153.077 4.15007 -1.19973 0
M  V30 1595 C 152.212 5.28024 -0.580048 0
M  V30 1596 C 151.251 5.9002 -1.62921 0
M  V30 1597 N 150.388 6.94485 -1.03125 0
M  V30 1598 H 155.228 2.50336 -1.61666 0
M  V30 1599 H 152.765 1.2293 -0.807882 0
M  V30 1600 H 154.723 4.16601 0.223454 0
M  V30 1601 H 153.353 3.14403 0.731467 0
M  V30 1602 H 152.405 3.41629 -1.67313 0
M  V30 1603 H 153.717 4.57178 -1.99473 0
M  V30 1604 H 152.871 6.06455 -0.172364 0
M  V30 1605 H 151.61 4.87076 0.246603 0
M  V30 1606 H 150.615 5.10291 -2.04654 0
M  V30 1607 H 151.84 6.33042 -2.45835 0
M  V30 1608 H 149.786 6.55612 -0.225711 0
M  V30 1609 H 149.703 7.35148 -1.76334 0
M  V30 1610 H 150.971 7.7679 -0.649458 0
M  V30 1611 N 155.201 0.870884 1.31352 0
M  V30 1612 C 156.148 0.325425 2.28494 0
M  V30 1613 C 157.118 -0.576615 1.5577 0
M  V30 1614 O 158.303 -0.508059 1.83911 0
M  V30 1615 C 155.443 -0.466283 3.41935 0
M  V30 1616 C 154.556 0.463378 4.29508 0
M  V30 1617 C 153.691 -0.342544 5.30094 0
M  V30 1618 C 152.73 0.583486 6.09313 0
M  V30 1619 N 151.867 -0.186244 7.01853 0
M  V30 1620 H 156.707 1.15901 2.74538 0
M  V30 1621 H 154.244 0.58294 1.35056 0
M  V30 1622 H 156.202 -0.941085 4.06447 0
M  V30 1623 H 154.832 -1.26456 2.97 0
M  V30 1624 H 153.884 1.05663 3.65431 0
M  V30 1625 H 155.196 1.1734 4.84802 0
M  V30 1626 H 154.35 -0.879816 6.00287 0
M  V30 1627 H 153.089 -1.08585 4.75458 0
M  V30 1628 H 152.094 1.13251 5.3801 0
M  V30 1629 H 153.319 1.32566 6.66035 0
M  V30 1630 H 151.265 -0.912348 6.49625 0
M  V30 1631 H 151.182 0.464422 7.54572 0
M  V30 1632 H 152.45 -0.704716 7.76308 0
M  V30 1633 N 156.679 -1.44442 0.630414 0
M  V30 1634 C 157.904 -2.06927 0.139944 0
M  V30 1635 C 158.329 -1.46795 -1.17613 0
M  V30 1636 O 157.687 -0.569144 -1.72135 0
M  V30 1637 C 157.735 -3.6058 0.0379581 0
M  V30 1638 O 156.839 -3.99937 -1.0062 0
M  V30 1639 H 156.18 -0.658608 0.0844483 0
M  V30 1640 H 158.71 -1.85327 0.866891 0
M  V30 1641 H 158.72 -4.07714 -0.152856 0
M  V30 1642 H 157.395 -4.03728 0.998809 0
M  V30 1643 H 155.972 -3.64436 -0.79001 0
M  V30 1644 N 158.157 -0.370918 -1.53173 0
M  V30 1645 C 159.405 0.216673 -2.00935 0
M  V30 1646 C 159.726 1.48845 -1.25977 0
M  V30 1647 O 158.996 1.92286 -0.374551 0
M  V30 1648 H 157.576 0.0830565 -0.742368 0
M  V30 1649 H 160.238 -0.49838 -1.8842 0
M  V30 1650 H 159.334 0.439893 -3.08984 0
M  V30 1651 N 159.635 1.57281 -0.100228 0
M  V30 1652 C 160.883 1.94153 0.561157 0
M  V30 1653 C 161.204 0.983157 1.68401 0
M  V30 1654 O 160.474 0.0361132 1.95867 0
M  V30 1655 H 159.054 0.716791 0.210283 0
M  V30 1656 H 161.716 1.94202 -0.164765 0
M  V30 1657 H 160.812 2.96709 0.968008 0
M  V30 1658 N 161.113 -0.173488 1.56642 0
M  V30 1659 C 162.063 -1.21941 1.92651 0
M  V30 1660 C 163.047 -1.39912 0.794577 0
M  V30 1661 O 164.239 -1.41919 1.05773 0
M  V30 1662 C 161.368 -2.55935 2.28806 0
M  V30 1663 C 160.454 -2.41667 3.48508 0
M  V30 1664 N 160.845 -1.9711 4.65813 0
M  V30 1665 C 159.143 -2.72499 3.53072 0
M  V30 1666 C 159.844 -1.95253 5.47952 0
M  V30 1667 N 158.82 -2.37575 4.88937 0
M  V30 1668 H 162.622 -0.866581 2.80834 0
M  V30 1669 H 160.136 -0.381776 1.57849 0
M  V30 1670 H 162.133 -3.31511 2.52797 0
M  V30 1671 H 160.793 -2.92022 1.41961 0
M  V30 1672 H 161.804 -1.67481 4.90072 0
M  V30 1673 H 158.481 -3.12639 2.767 0
M  V30 1674 H 159.871 -1.6252 6.51948 0
M  V30 1675 N 162.591 -1.51276 -0.441967 0
M  V30 1676 C 163.821 -1.67273 -1.21257 0
M  V30 1677 C 164.229 -0.367624 -1.85594 0
M  V30 1678 O 163.572 0.663349 -1.71305 0
M  V30 1679 C 163.634 -2.72807 -2.34129 0
M  V30 1680 C 163.298 -4.1554 -1.90198 0
M  V30 1681 C 164.295 -5.00471 -1.40801 0
M  V30 1682 C 161.98 -4.61616 -1.9803 0
M  V30 1683 C 163.974 -6.29536 -0.998174 0
M  V30 1684 C 161.661 -5.90679 -1.56658 0
M  V30 1685 C 162.659 -6.74466 -1.07633 0
M  V30 1686 O 162.347 -8.01116 -0.668459 0
M  V30 1687 H 162.079 -0.564614 -0.371734 0
M  V30 1688 H 164.633 -1.9843 -0.530521 0
M  V30 1689 H 162.863 -2.36954 -3.05597 0
M  V30 1690 H 164.552 -2.77729 -2.96009 0
M  V30 1691 H 165.318 -4.66079 -1.34148 0
M  V30 1692 H 161.197 -3.96526 -2.35135 0
M  V30 1693 H 164.741 -6.94885 -0.61482 0
M  V30 1694 H 160.638 -6.24586 -1.62979 0
M  V30 1695 H 161.406 -8.14633 -0.794722 0
M  V30 1696 N 164.069 0.697108 -1.41344 0
M  V30 1697 C 165.297 1.48593 -1.43972 0
M  V30 1698 C 165.712 1.88747 -0.0445612 0
M  V30 1699 O 165.069 1.56682 0.935785 0
M  V30 1700 C 165.12 2.74946 -2.34706 0
M  V30 1701 O 164.841 2.36484 -3.68791 0
M  V30 1702 C 166.342 3.687 -2.46121 0
M  V30 1703 H 163.562 0.457964 -0.490418 0
M  V30 1704 H 166.106 0.858429 -1.8561 0
M  V30 1705 H 164.261 3.33937 -1.9638 0
M  V30 1706 H 164.675 3.17918 -4.17167 0
M  V30 1707 H 166.149 4.54145 -3.13777 0
M  V30 1708 H 166.626 4.13081 -1.49199 0
M  V30 1709 H 167.232 3.15613 -2.85076 0
M  V30 1710 N 165.547 1.27147 0.931209 0
M  V30 1711 C 166.777 1.15914 1.71019 0
M  V30 1712 C 167.185 -0.287112 1.87009 0
M  V30 1713 O 166.528 -1.20761 1.38429 0
M  V30 1714 C 166.59 1.76647 3.13107 0
M  V30 1715 C 166.254 3.25807 3.20467 0
M  V30 1716 C 167.251 4.22489 3.02983 0
M  V30 1717 C 164.936 3.66452 3.43538 0
M  V30 1718 C 166.93 5.57794 3.08454 0
M  V30 1719 C 164.617 5.01888 3.48643 0
M  V30 1720 C 165.615 5.97369 3.31119 0
M  V30 1721 O 165.303 7.30337 3.35952 0
M  V30 1722 H 165.035 0.404062 0.54195 0
M  V30 1723 H 167.589 1.68457 1.17521 0
M  V30 1724 H 165.819 1.18578 3.68071 0
M  V30 1725 H 167.508 1.60179 3.72958 0
M  V30 1726 H 168.274 3.92425 2.85004 0
M  V30 1727 H 164.153 2.92611 3.5623 0
M  V30 1728 H 167.697 6.32298 2.94694 0
M  V30 1729 H 163.594 5.31609 3.66145 0
M  V30 1730 H 164.362 7.38739 3.5243 0
M  V30 1731 N 167.025 -1.13721 1.09112 0
M  V30 1732 C 168.274 -1.84275 0.82009 0
M  V30 1733 C 168.587 -1.84253 -0.656509 0
M  V30 1734 O 169.793 -2.50668 -1.04296 0
M  V30 1735 C 168.249 -3.30825 1.41714 0
M  V30 1736 C 167.857 -3.39244 2.92605 0
M  V30 1737 C 169.601 -4.06443 1.22492 0
M  V30 1738 C 167.508 -4.80047 3.45411 0
M  V30 1739 H 166.438 -0.690387 0.30312 0
M  V30 1740 H 169.089 -1.28146 1.31343 0
M  V30 1741 H 167.471 -3.86737 0.851498 0
M  V30 1742 H 168.645 -2.93344 3.55367 0
M  V30 1743 H 166.96 -2.77088 3.10823 0
M  V30 1744 H 169.557 -5.10387 1.59402 0
M  V30 1745 H 169.9 -4.15972 0.165299 0
M  V30 1746 H 170.433 -3.56852 1.75788 0
M  V30 1747 H 167.172 -4.75709 4.50978 0
M  V30 1748 H 166.692 -5.26455 2.87411 0
M  V30 1749 H 168.371 -5.48957 3.42425 0
M  V30 1750 N 168.503 -0.877838 -1.30888 0
M  V30 1751 C 169.433 -0.35534 -2.3078 0
M  V30 1752 C 170.414 0.557994 -1.60687 0
M  V30 1753 O 171.599 0.473355 -1.88343 0
M  V30 1754 C 168.729 0.437221 -3.44537 0
M  V30 1755 C 167.683 -0.383715 -4.26276 0
M  V30 1756 C 167.009 0.535014 -5.32017 0
M  V30 1757 C 168.309 -1.62201 -4.96476 0
M  V30 1758 H 170.003 -1.19007 -2.74732 0
M  V30 1759 H 167.549 -0.573698 -1.32078 0
M  V30 1760 H 169.502 0.813334 -4.13477 0
M  V30 1761 H 168.226 1.30553 -2.99372 0
M  V30 1762 H 166.885 -0.741874 -3.59015 0
M  V30 1763 H 166.533 1.40083 -4.831 0
M  V30 1764 H 166.233 -0.0104211 -5.87599 0
M  V30 1765 H 167.757 0.907799 -6.03814 0
M  V30 1766 H 169.171 -1.31689 -5.5797 0
M  V30 1767 H 167.568 -2.10711 -5.61891 0
M  V30 1768 H 168.638 -2.37044 -4.23011 0
M  V30 1769 N 169.982 1.44106 -0.638065 0
M  V30 1770 C 170.892 2.34513 0.0637334 0
M  V30 1771 C 171.908 1.53018 0.828346 0
M  V30 1772 O 173.084 1.85723 0.779036 0
M  V30 1773 C 170.149 3.31095 1.02844 0
M  V30 1774 C 169.21 4.28497 0.26244 0
M  V30 1775 C 168.443 5.20465 1.1812 0
M  V30 1776 O 168.666 5.16514 2.42011 0
M  V30 1777 O 167.6 5.98251 0.661774 0
M  V30 1778 H 171.426 2.95989 -0.68003 0
M  V30 1779 H 169.011 1.43994 -0.398252 0
M  V30 1780 H 170.893 3.90526 1.58327 0
M  V30 1781 H 169.568 2.72144 1.7527 0
M  V30 1782 H 168.475 3.72592 -0.335602 0
M  V30 1783 H 169.808 4.90388 -0.421936 0
M  V30 1784 N 171.46 0.379036 1.52974 0
M  V30 1785 C 172.706 -0.206727 2.01744 0
M  V30 1786 C 173.039 -1.47314 1.26539 0
M  V30 1787 O 172.314 -1.91084 0.362903 0
M  V30 1788 C 172.597 -0.485066 3.56818 0
M  V30 1789 C 172.45 0.795919 4.42702 0
M  V30 1790 C 173.769 -1.28003 4.21074 0
M  V30 1791 H 170.888 -0.0736607 0.73331 0
M  V30 1792 H 173.53 0.506581 1.83122 0
M  V30 1793 H 171.68 -1.09272 3.72816 0
M  V30 1794 H 173.352 1.43307 4.38476 0
M  V30 1795 H 171.595 1.41344 4.10127 0
M  V30 1796 H 172.266 0.555947 5.49193 0
M  V30 1797 H 174.742 -0.765867 4.08991 0
M  V30 1798 H 173.618 -1.44352 5.29579 0
M  V30 1799 H 173.879 -2.29236 3.78026 0
M  V30 1800 N 172.938 -1.57226 0.108567 0
M  V30 1801 C 174.185 -1.94833 -0.551943 0
M  V30 1802 C 174.513 -0.991204 -1.67348 0
M  V30 1803 O 173.768 -0.0131878 -1.95696 0
M  V30 1804 C 174.067 -3.38911 -1.13463 0
M  V30 1805 C 173.733 -4.50696 -0.135509 0
M  V30 1806 C 172.395 -4.80998 0.139252 0
M  V30 1807 C 174.747 -5.18333 0.545957 0
M  V30 1808 C 172.075 -5.76259 1.10194 0
M  V30 1809 C 174.427 -6.14627 1.49721 0
M  V30 1810 C 173.091 -6.43327 1.78006 0
M  V30 1811 H 172.361 -0.712944 -0.20197 0
M  V30 1812 H 175.008 -1.90582 0.18726 0
M  V30 1813 H 173.313 -3.39805 -1.95037 0
M  V30 1814 H 175.01 -3.65317 -1.65362 0
M  V30 1815 H 171.6 -4.27087 -0.359846 0
M  V30 1816 H 175.784 -4.95087 0.346842 0
M  V30 1817 H 171.04 -5.96804 1.32795 0
M  V30 1818 H 175.214 -6.66126 2.03099 0
M  V30 1819 H 172.841 -7.1695 2.52759 0
M  V30 1820 N 174.416 0.165178 -1.56732 0
M  V30 1821 C 175.664 0.879068 -1.8198 0
M  V30 1822 C 175.985 1.82514 -0.686561 0
M  V30 1823 O 175.255 1.93694 0.293146 0
M  V30 1824 H 173.835 0.327608 -0.671329 0
M  V30 1825 H 176.497 0.163526 -1.94213 0
M  V30 1826 H 175.593 1.45228 -2.76252 0
M  V30 1827 N 175.894 1.51508 0.433938 0
M  V30 1828 C 177.305 1.56784 1.01369 0
M  V30 1829 C 177.656 0.393349 1.92217 0
M  V30 1830 O 176.781 -0.489441 2.10792 0
M  V30 1831 C 177.376 2.84144 1.8452 0
M  V30 1832 C 175.935 2.9198 2.37539 0
M  V30 1833 C 175.082 2.51482 1.16843 0
M  V30 1834 H 178.033 1.57236 0.215081 0
M  V30 1835 H 178.054 2.68098 2.70007 0
M  V30 1836 H 177.566 3.69607 1.18373 0
M  V30 1837 H 175.667 2.10955 3.0713 0
M  V30 1838 H 175.78 3.95704 2.70103 0
M  V30 1839 H 174.144 2.04758 1.51481 0
M  V30 1840 H 174.927 3.39293 0.523015 0
M  V30 1841 N 177.372 -0.689602 1.41712 0
M  V30 1842 C 178.302 -1.81577 1.46806 0
M  V30 1843 C 179.283 -1.66945 0.326105 0
M  V30 1844 O 180.468 -1.86588 0.538377 0
M  V30 1845 C 177.598 -3.19762 1.35535 0
M  V30 1846 C 176.552 -3.49107 2.47605 0
M  V30 1847 C 175.878 -4.86711 2.21397 0
M  V30 1848 C 177.178 -3.47483 3.89939 0
M  V30 1849 H 178.872 -1.7757 2.41058 0
M  V30 1850 H 176.418 -0.852887 1.16025 0
M  V30 1851 H 178.371 -3.98263 1.3771 0
M  V30 1852 H 177.095 -3.24409 0.377708 0
M  V30 1853 H 175.754 -2.72959 2.44722 0
M  V30 1854 H 175.402 -4.8799 1.21961 0
M  V30 1855 H 175.102 -5.0731 2.96497 0
M  V30 1856 H 176.626 -5.67515 2.25297 0
M  V30 1857 H 178.04 -4.1598 3.94505 0
M  V30 1858 H 176.437 -3.79615 4.64771 0
M  V30 1859 H 177.507 -2.46341 4.17665 0
M  V30 1860 N 178.85 -1.27639 -0.924453 0
M  V30 1861 C 180.261 -1.12834 -1.48746 0
M  V30 1862 C 180.612 0.285505 -1.94112 0
M  V30 1863 O 179.737 1.17874 -1.81479 0
M  V30 1864 C 180.332 -2.04217 -2.70334 0
M  V30 1865 C 178.891 -1.93509 -3.22848 0
M  V30 1866 C 178.038 -1.96583 -1.95577 0
M  V30 1867 H 180.989 -1.40484 -0.738233 0
M  V30 1868 H 181.01 -1.59989 -3.4523 0
M  V30 1869 H 180.522 -3.07111 -2.37285 0
M  V30 1870 H 178.623 -0.936131 -3.60649 0
M  V30 1871 H 178.736 -2.79917 -3.88823 0
M  V30 1872 H 177.1 -1.4085 -2.12211 0
M  V30 1873 H 177.883 -3.01137 -1.64837 0
M  V30 1874 N 180.328 1.1314 -1.09713 0
M  V30 1875 C 181.291 2.16831 -0.742751 0
M  V30 1876 C 182.291 1.59159 0.229129 0
M  V30 1877 O 183.481 1.74199 0.00693237 0
M  V30 1878 C 180.613 3.40756 -0.0989168 0
M  V30 1879 H 181.806 2.49695 -1.66109 0
M  V30 1880 H 179.359 1.2802 -0.896699 0
M  V30 1881 H 180.094 3.13485 0.830514 0
M  V30 1882 H 179.879 3.83888 -0.798265 0
M  V30 1883 H 181.369 4.17386 0.133524 0
M  V30 1884 N 181.806 0.884767 1.30421 0
M  V30 1885 C 183.053 0.503105 1.96151 0
M  V30 1886 C 183.381 -0.947676 1.69851 0
M  V30 1887 O 182.636 -1.68467 0.995861 0
M  V30 1888 C 182.935 0.724318 3.49983 0
M  V30 1889 C 182.601 2.15015 3.96332 0
M  V30 1890 C 181.263 2.54005 4.08699 0
M  V30 1891 C 183.615 3.07936 4.20505 0
M  V30 1892 C 180.943 3.85128 4.42599 0
M  V30 1893 C 183.295 4.3859 4.55874 0
M  V30 1894 C 181.959 4.77474 4.66449 0
M  V30 1895 H 181.229 0.184099 0.717766 0
M  V30 1896 H 183.876 1.12058 1.55291 0
M  V30 1897 H 182.181 0.0238086 3.91793 0
M  V30 1898 H 183.878 0.408617 3.98913 0
M  V30 1899 H 180.468 1.8375 3.87213 0
M  V30 1900 H 184.652 2.79033 4.10431 0
M  V30 1901 H 179.908 4.14996 4.48986 0
M  V30 1902 H 184.082 5.10629 4.7353 0
M  V30 1903 H 181.709 5.79115 4.92473 0
M  V30 1904 N 183.284 -1.43765 0.645699 0
M  V30 1905 C 184.53 -2.02197 0.156271 0
M  V30 1906 C 184.863 -1.50776 -1.22393 0
M  V30 1907 O 184.138 -0.697771 -1.81553 0
M  V30 1908 C 184.421 -3.59749 0.158872 0
M  V30 1909 C 184.274 -4.21419 1.57245 0
M  V30 1910 C 185.593 -4.37149 -0.50879 0
M  V30 1911 H 182.712 -0.734694 0.0582602 0
M  V30 1912 H 185.354 -1.71157 0.824951 0
M  V30 1913 H 183.504 -3.86325 -0.410525 0
M  V30 1914 H 185.176 -4.059 2.19186 0
M  V30 1915 H 183.419 -3.78356 2.122 0
M  V30 1916 H 184.09 -5.30482 1.52619 0
M  V30 1917 H 186.566 -4.16093 -0.024412 0
M  V30 1918 H 185.442 -5.4683 -0.476213 0
M  V30 1919 H 185.703 -4.12839 -1.58165 0
M  V30 1920 N 184.763 -0.387143 -1.52771 0
M  V30 1921 C 186.179 -0.037007 -1.59557 0
M  V30 1922 C 186.379 1.44801 -1.40124 0
M  V30 1923 O 185.435 2.21227 -1.21716 0
M  V30 1924 C 186.748 -0.512256 -2.96305 0
M  V30 1925 C 188.296 -0.468328 -3.09476 0
M  V30 1926 C 188.771 -0.919731 -4.4867 0
M  V30 1927 N 190.262 -0.875656 -4.54848 0
M  V30 1928 C 190.997 -1.19637 -5.6078 0
M  V30 1929 N 190.493 -1.58745 -6.74368 0
M  V30 1930 N 192.286 -1.11776 -5.50874 0
M  V30 1931 H 184.437 -1.35395 -1.63652 0
M  V30 1932 H 186.7 -0.554818 -0.768688 0
M  V30 1933 H 186.406 -1.54935 -3.15734 0
M  V30 1934 H 186.28 0.089805 -3.77093 0
M  V30 1935 H 188.667 0.559671 -2.89744 0
M  V30 1936 H 188.748 -1.10616 -2.30646 0
M  V30 1937 H 188.392 -1.94595 -4.69143 0
M  V30 1938 H 188.322 -0.258927 -5.25963 0
M  V30 1939 H 190.813 -0.587843 -3.733 0
M  V30 1940 H 191.126 -1.81586 -7.51163 0
M  V30 1941 H 189.471 -1.6263 -6.75705 0
M  V30 1942 H 192.662 -0.811264 -4.61016 0
M  V30 1943 H 192.835 -1.37103 -6.3333 0
M  V30 1944 N 186.241 1.57166 -0.116904 0
M  V30 1945 C 187.487 1.95412 0.542405 0
M  V30 1946 C 187.82 1.00019 1.66463 0
M  V30 1947 O 187.095 0.0370346 1.94465 0
M  V30 1948 C 187.378 3.43615 1.07708 0
M  V30 1949 C 187.231 4.49781 -0.0415868 0
M  V30 1950 C 188.55 3.93616 1.96861 0
M  V30 1951 H 185.669 0.710543 0.195696 0
M  V30 1952 H 188.311 1.89027 -0.192038 0
M  V30 1953 H 186.461 3.49187 1.70296 0
M  V30 1954 H 188.133 4.56308 -0.676793 0
M  V30 1955 H 186.376 4.28033 -0.705019 0
M  V30 1956 H 187.047 5.50733 0.373717 0
M  V30 1957 H 189.523 3.90335 1.44146 0
M  V30 1958 H 188.399 4.97838 2.3119 0
M  V30 1959 H 188.66 3.34188 2.89432 0
M  V30 1960 N 187.719 -0.156864 1.56817 0
M  V30 1961 C 188.965 -0.867645 1.83966 0
M  V30 1962 C 189.32 -1.79233 0.699511 0
M  V30 1963 O 188.613 -1.89186 -0.303176 0
M  V30 1964 C 188.807 -1.68737 3.1506 0
M  V30 1965 C 188.636 -0.843548 4.41718 0
M  V30 1966 C 187.406 -0.512994 5.02689 0
M  V30 1967 C 189.604 -0.178416 5.1399 0
M  V30 1968 N 187.586 0.345456 6.12927 0
M  V30 1969 C 188.957 0.540586 6.17639 0
M  V30 1970 C 191.012 -0.0980696 4.97803 0
M  V30 1971 C 189.715 1.33233 7.06853 0
M  V30 1972 C 191.741 0.680387 5.87473 0
M  V30 1973 C 191.103 1.3877 6.90596 0
M  V30 1974 H 187.202 -0.295642 0.723961 0
M  V30 1975 H 189.786 -0.13365 1.94241 0
M  V30 1976 H 187.957 -2.39268 3.0595 0
M  V30 1977 H 189.689 -2.34056 3.30151 0
M  V30 1978 H 186.444 -0.846476 4.65974 0
M  V30 1979 H 186.868 0.765415 6.72659 0
M  V30 1980 H 191.51 -0.630562 4.18071 0
M  V30 1981 H 189.228 1.87612 7.8602 0
M  V30 1982 H 192.814 0.744415 5.77018 0
M  V30 1983 H 191.694 1.9804 7.58782 0
M  V30 1984 N 189.197 -1.51736 -0.425897 0
M  V30 1985 C 190.443 -1.65214 -1.1761 0
M  V30 1986 C 190.776 -0.372778 -1.90589 0
M  V30 1987 O 190.051 0.628139 -1.84078 0
M  V30 1988 C 190.334 -2.86312 -2.18398 0
M  V30 1989 C 190.187 -4.24254 -1.49426 0
M  V30 1990 C 191.506 -3.02925 -3.19256 0
M  V30 1991 H 188.625 -0.601263 -0.426206 0
M  V30 1992 H 191.267 -1.8425 -0.463882 0
M  V30 1993 H 189.417 -2.70213 -2.79137 0
M  V30 1994 H 191.089 -4.52046 -0.919362 0
M  V30 1995 H 189.332 -4.26426 -0.796432 0
M  V30 1996 H 190.003 -5.05001 -2.22885 0
M  V30 1997 H 192.479 -3.1781 -2.68581 0
M  V30 1998 H 191.355 -3.89199 -3.8706 0
M  V30 1999 H 191.616 -2.15497 -3.86023 0
M  V30 2000 N 190.675 0.682077 -1.42076 0
M  V30 2001 C 191.585 1.82535 -1.47371 0
M  V30 2002 C 192.601 1.7017 -0.363079 0
M  V30 2003 O 193.777 1.91848 -0.612875 0
M  V30 2004 C 190.842 3.18624 -1.36674 0
M  V30 2005 C 189.903 3.42999 -2.58167 0
M  V30 2006 C 189.136 4.72595 -2.4797 0
M  V30 2007 O 189.359 5.50006 -1.5116 0
M  V30 2008 O 188.293 4.98054 -3.37974 0
M  V30 2009 H 192.119 1.81023 -2.43853 0
M  V30 2010 H 189.704 0.836887 -1.2376 0
M  V30 2011 H 191.586 3.99847 -1.33043 0
M  V30 2012 H 190.261 3.20789 -0.433138 0
M  V30 2013 H 189.168 2.61653 -2.67373 0
M  V30 2014 H 190.501 3.45659 -3.50401 0
M  V30 2015 N 192.153 1.28127 0.917671 0
M  V30 2016 C 193.083 1.14248 2.03641 0
M  V30 2017 C 194.064 0.0412748 1.7005 0
M  V30 2018 O 195.249 0.217566 1.92977 0
M  V30 2019 C 192.379 0.799431 3.37974 0
M  V30 2020 C 191.333 1.85497 3.85713 0
M  V30 2021 C 190.659 1.36565 5.16966 0
M  V30 2022 C 191.959 3.26085 4.08002 0
M  V30 2023 H 193.653 2.07835 2.15511 0
M  V30 2024 H 191.199 1.00064 1.03553 0
M  V30 2025 H 193.152 0.689114 4.15727 0
M  V30 2026 H 191.876 -0.172145 3.26146 0
M  V30 2027 H 190.535 1.95437 3.10161 0
M  V30 2028 H 190.183 0.383253 5.01538 0
M  V30 2029 H 189.883 2.07143 5.49878 0
M  V30 2030 H 191.407 1.26848 5.97279 0
M  V30 2031 H 192.821 3.19089 4.76293 0
M  V30 2032 H 191.218 3.94462 4.52238 0
M  V30 2033 H 192.288 3.70394 3.12948 0
M  V30 2034 N 193.631 -1.12557 1.10312 0
M  V30 2035 C 194.561 -2.20341 0.772798 0
M  V30 2036 C 195.542 -1.68198 -0.25365 0
M  V30 2037 O 196.727 -1.93831 -0.119699 0
M  V30 2038 C 193.857 -3.46709 0.202443 0
M  V30 2039 C 192.811 -4.11996 1.15943 0
M  V30 2040 C 192.137 -5.328 0.450345 0
M  V30 2041 C 193.437 -4.5828 2.50552 0
M  V30 2042 H 195.131 -2.48229 1.674 0
M  V30 2043 H 192.677 -1.19308 0.806326 0
M  V30 2044 H 194.63 -4.2138 -0.0407752 0
M  V30 2045 H 193.354 -3.18245 -0.734001 0
M  V30 2046 H 192.013 -3.39305 1.38808 0
M  V30 2047 H 191.661 -5.00602 -0.490531 0
M  V30 2048 H 191.361 -5.7743 1.08851 0
M  V30 2049 H 192.885 -6.10219 0.215642 0
M  V30 2050 H 194.299 -5.2433 2.31843 0
M  V30 2051 H 192.696 -5.13683 3.10242 0
M  V30 2052 H 193.766 -3.72329 3.10643 0
M  V30 2053 N 195.109 -0.891671 -1.2995 0
M  V30 2054 C 196.358 -0.509521 -1.95158 0
M  V30 2055 C 196.671 0.947388 -1.71125 0
M  V30 2056 O 197.877 1.43669 -2.30372 0
M  V30 2057 C 196.333 -0.860315 -3.49466 0
M  V30 2058 C 195.941 -2.33545 -3.8231 0
M  V30 2059 C 197.685 -0.547687 -4.20952 0
M  V30 2060 C 195.592 -2.62752 -5.29826 0
M  V30 2061 H 194.522 -0.18682 -0.730489 0
M  V30 2062 H 197.173 -1.08756 -1.47798 0
M  V30 2063 H 195.555 -0.211285 -3.95436 0
M  V30 2064 H 196.729 -3.02936 -3.47227 0
M  V30 2065 H 195.044 -2.61629 -3.23944 0
M  V30 2066 H 197.641 -0.742854 -5.29515 0
M  V30 2067 H 197.984 0.51332 -4.13123 0
M  V30 2068 H 198.517 -1.1542 -3.80688 0
M  V30 2069 H 195.256 -3.6762 -5.42712 0
M  V30 2070 H 194.776 -1.97977 -5.66185 0
M  V30 2071 H 196.455 -2.48601 -5.97333 0
M  V30 2072 N 196.587 1.43421 -0.653314 0
M  V30 2073 C 197.836 2.01032 -0.164076 0
M  V30 2074 C 198.149 1.52147 1.22926 0
M  V30 2075 O 199.355 2.02031 1.81371 0
M  V30 2076 C 197.811 3.59082 -0.24252 0
M  V30 2077 C 197.419 4.1696 -1.63855 0
M  V30 2078 C 199.163 4.24079 0.18911 0
M  V30 2079 C 197.07 5.67304 -1.67092 0
M  V30 2080 H 196 0.751798 -0.0575769 0
M  V30 2081 H 198.651 1.6439 -0.815362 0
M  V30 2082 H 197.033 3.93125 0.476276 0
M  V30 2083 H 198.207 3.94416 -2.38271 0
M  V30 2084 H 196.522 3.64335 -2.01616 0
M  V30 2085 H 199.119 5.34381 0.184775 0
M  V30 2086 H 199.462 3.98005 1.22056 0
M  V30 2087 H 199.995 3.94918 -0.477938 0
M  V30 2088 H 196.734 5.98145 -2.68146 0
M  V30 2089 H 196.254 5.91904 -0.970014 0
M  V30 2090 H 197.933 6.31344 -1.4147 0
M  V30 2091 N 198.065 0.39524 1.52563 0
M  V30 2092 C 199.481 0.0454682 1.59535 0
M  V30 2093 C 199.681 -1.44056 1.4089 0
M  V30 2094 O 198.737 -2.20579 1.22888 0
M  V30 2095 C 200.05 0.527963 2.96029 0
M  V30 2096 C 201.598 0.484733 3.09224 0
M  V30 2097 C 202.073 0.943512 4.48176 0
M  V30 2098 N 203.564 0.899765 4.54377 0
M  V30 2099 C 204.299 1.22609 5.60138 0
M  V30 2100 N 203.795 1.62319 6.73516 0
M  V30 2101 N 205.588 1.14696 5.50274 0
M  V30 2102 H 197.739 1.36261 1.62931 0
M  V30 2103 H 200.002 0.558887 0.765735 0
M  V30 2104 H 199.708 1.56607 3.14908 0
M  V30 2105 H 199.582 -0.0698056 3.77135 0
M  V30 2106 H 201.969 -0.544298 2.90037 0
M  V30 2107 H 202.05 1.11838 2.30056 0
M  V30 2108 H 201.694 1.9708 4.68104 0
M  V30 2109 H 201.624 0.286817 5.25818 0
M  V30 2110 H 204.115 0.607632 3.72983 0
M  V30 2111 H 204.428 1.85567 7.5019 0
M  V30 2112 H 202.773 1.66211 6.74833 0
M  V30 2113 H 205.964 0.835701 4.6058 0
M  V30 2114 H 206.137 1.40459 6.32594 0
M  V30 2115 N 199.544 -1.57102 0.125237 0
M  V30 2116 C 200.955 -1.82384 -0.399142 0
M  V30 2117 C 201.306 -1.04276 -1.66195 0
M  V30 2118 O 200.431 -0.281269 -2.14564 0
M  V30 2119 C 201.026 -3.30821 -0.730932 0
M  V30 2120 C 199.585 -3.56762 -1.19992 0
M  V30 2121 C 198.732 -2.7649 -0.211792 0
M  V30 2122 H 201.683 -1.54786 0.350277 0
M  V30 2123 H 201.704 -3.4579 -1.58775 0
M  V30 2124 H 201.216 -3.87643 0.188345 0
M  V30 2125 H 199.317 -3.05305 -2.13588 0
M  V30 2126 H 199.43 -4.65317 -1.14093 0
M  V30 2127 H 197.794 -2.4489 -0.700085 0
M  V30 2128 H 198.577 -3.36073 0.700691 0
M  V30 2129 N 201.022 0.148545 -1.56898 0
M  V30 2130 C 201.985 1.16736 -1.97244 0
M  V30 2131 C 202.985 1.35947 -0.858777 0
M  V30 2132 O 204.175 1.32966 -1.12542 0
M  V30 2133 C 201.307 2.52798 -2.28705 0
M  V30 2134 H 202.5 0.821279 -2.88435 0
M  V30 2135 H 200.053 0.391831 -1.51309 0
M  V30 2136 H 200.788 2.92381 -1.403 0
M  V30 2137 H 200.573 2.40216 -3.09901 0
M  V30 2138 H 202.063 3.26179 -2.60762 0
M  V30 2139 N 202.5 1.5196 0.417844 0
M  V30 2140 C 203.463 1.74065 1.49111 0
M  V30 2141 C 204.463 0.610537 1.48758 0
M  V30 2142 O 205.653 0.87832 1.50437 0
M  V30 2143 C 202.785 1.81502 2.88565 0
M  V30 2144 H 203.978 2.69869 1.30807 0
M  V30 2145 H 201.531 1.42244 0.647785 0
M  V30 2146 H 202.266 0.875813 3.1225 0
M  V30 2147 H 202.051 2.63651 2.90225 0
M  V30 2148 H 203.541 2.00376 3.66387 0
M  V30 2149 N 203.978 -0.674533 1.42435 0
M  V30 2150 C 205.206 -1.46283 1.46317 0
M  V30 2151 C 205.621 -1.88653 0.0745836 0
M  V30 2152 O 204.978 -1.58151 -0.91074 0
M  V30 2153 C 205.029 -2.71178 2.3905 0
M  V30 2154 O 204.75 -2.30586 3.72507 0
M  V30 2155 C 206.251 -3.64738 2.51955 0
M  V30 2156 H 203.471 -0.450104 0.497642 0
M  V30 2157 H 206.015 -0.828792 1.86953 0
M  V30 2158 H 204.17 -3.3077 2.01667 0
M  V30 2159 H 204.584 -3.11241 4.22172 0
M  V30 2160 H 206.058 -4.49096 3.20962 0
M  V30 2161 H 206.535 -4.10656 1.55752 0
M  V30 2162 H 207.141 -3.11038 2.90061 0
M  V30 2163 N 205.456 -1.28612 -0.910864 0
M  V30 2164 C 206.419 -1.12803 -1.9952 0
M  V30 2165 C 207.419 -0.0668264 -1.60661 0
M  V30 2166 O 208.609 -0.312847 -1.71368 0
M  V30 2167 C 205.741 -0.72254 -3.33155 0
M  V30 2168 H 206.934 -2.09109 -2.14973 0
M  V30 2169 H 204.487 -1.11639 -1.09391 0
M  V30 2170 H 205.222 0.241152 -3.23402 0
M  V30 2171 H 205.007 -1.48916 -3.62721 0
M  V30 2172 H 206.497 -0.634666 -4.12749 0
M  V30 2173 N 206.934 1.1197 -1.10907 0
M  V30 2174 C 208.18 1.8386 -0.855773 0
M  V30 2175 C 208.513 1.84134 0.617103 0
M  V30 2176 O 207.788 1.29041 1.45529 0
M  V30 2177 C 208.071 3.31305 -1.411 0
M  V30 2178 C 207.924 3.39456 -2.9511 0
M  V30 2179 C 209.243 4.2721 -1.05736 0
M  V30 2180 H 206.362 0.667545 -0.312334 0
M  V30 2181 H 209.004 1.31331 -1.37303 0
M  V30 2182 H 207.154 3.76169 -0.97105 0
M  V30 2183 H 208.826 3.03191 -3.47668 0
M  V30 2184 H 207.069 2.79849 -3.31462 0
M  V30 2185 H 207.74 4.43209 -3.29044 0
M  V30 2186 H 210.216 3.90497 -1.43706 0
M  V30 2187 H 209.092 5.28775 -1.47269 0
M  V30 2188 H 209.353 4.42088 0.0325958 0
M  V30 2189 N 208.412 0.89855 1.29475 0
M  V30 2190 C 209.661 0.519863 1.94885 0
M  V30 2191 C 209.974 -0.9383 1.71625 0
M  V30 2192 O 211.18 -1.42445 2.31131 0
M  V30 2193 C 209.636 0.878836 3.49005 0
M  V30 2194 C 209.244 2.35569 3.81066 0
M  V30 2195 C 210.988 0.570004 4.20656 0
M  V30 2196 C 208.895 2.65558 5.28425 0
M  V30 2197 H 207.825 0.190692 0.729488 0
M  V30 2198 H 210.476 1.09539 1.47219 0
M  V30 2199 H 208.858 0.232253 3.95318 0
M  V30 2200 H 210.032 3.04773 3.45616 0
M  V30 2201 H 208.347 2.63343 3.22552 0
M  V30 2202 H 210.944 0.770925 5.29113 0
M  V30 2203 H 211.287 -0.491404 4.1339 0
M  V30 2204 H 211.82 1.17438 3.8007 0
M  V30 2205 H 208.559 3.70493 5.40754 0
M  V30 2206 H 208.079 2.00977 5.65127 0
M  V30 2207 H 209.758 2.51765 5.96006 0
M  V30 2208 N 209.89 -1.43072 0.660911 0
M  V30 2209 C 211.115 -2.06584 0.183805 0
M  V30 2210 C 211.54 -1.49257 -1.14472 0
M  V30 2211 O 210.898 -0.605528 -1.70889 0
M  V30 2212 C 210.946 -3.60418 0.114434 0
M  V30 2213 O 210.05 -4.01981 -0.921137 0
M  V30 2214 H 209.391 -0.656669 0.0983994 0
M  V30 2215 H 211.921 -1.83447 0.906006 0
M  V30 2216 H 211.931 -4.07946 -0.0663394 0
M  V30 2217 H 210.606 -4.01519 1.08422 0
M  V30 2218 H 209.183 -3.66029 -0.71253 0
M  V30 2219 N 211.368 -0.403325 -1.52352 0
M  V30 2220 C 212.298 0.416205 -2.29761 0
M  V30 2221 C 213.279 1.05123 -1.33728 0
M  V30 2222 O 214.464 1.06134 -1.62632 0
M  V30 2223 C 211.594 1.53624 -3.11475 0
M  V30 2224 C 210.548 1.02653 -4.15507 0
M  V30 2225 C 209.874 2.23971 -4.85532 0
M  V30 2226 C 211.174 0.08463 -5.22231 0
M  V30 2227 H 212.868 -0.229701 -2.98518 0
M  V30 2228 H 210.414 -0.111913 -1.43564 0
M  V30 2229 H 212.367 2.1165 -3.64393 0
M  V30 2230 H 211.091 2.20994 -2.40477 0
M  V30 2231 H 209.75 0.46871 -3.63591 0
M  V30 2232 H 209.398 2.89883 -4.11068 0
M  V30 2233 H 209.098 1.90521 -5.55856 0
M  V30 2234 H 210.622 2.82614 -5.41259 0
M  V30 2235 H 212.036 0.573509 -5.70424 0
M  V30 2236 H 210.433 -0.160783 -5.99885 0
M  V30 2237 H 211.503 -0.86237 -4.7717 0
M  V30 2238 N 212.846 1.57033 -0.133567 0
M  V30 2239 C 213.809 2.14897 0.796995 0
M  V30 2240 C 214.809 1.0874 1.18458 0
M  V30 2241 O 215.999 1.34446 1.1077 0
M  V30 2242 C 213.131 2.70112 2.07973 0
M  V30 2243 H 214.324 2.98457 0.293873 0
M  V30 2244 H 211.877 1.55871 0.115787 0
M  V30 2245 H 212.612 1.9018 2.62682 0
M  V30 2246 H 212.397 3.47764 1.81115 0
M  V30 2247 H 213.887 3.14738 2.74462 0
M  V30 2248 N 214.325 -0.140222 1.56975 0
M  V30 2249 C 215.572 -0.851687 1.83719 0
M  V30 2250 C 215.9 -1.80862 0.715485 0
M  V30 2251 O 215.155 -1.93464 -0.294956 0
M  V30 2252 C 215.454 -1.65386 3.16832 0
M  V30 2253 C 215.12 -0.843112 4.42947 0
M  V30 2254 C 213.782 -0.619464 4.77196 0
M  V30 2255 C 216.134 -0.276582 5.20466 0
M  V30 2256 C 213.462 0.181312 5.8642 0
M  V30 2257 C 215.814 0.51127 6.30531 0
M  V30 2258 C 214.478 0.745432 6.63325 0
M  V30 2259 H 213.748 -0.311654 0.672274 0
M  V30 2260 H 216.395 -0.115006 1.91154 0
M  V30 2261 H 214.7 -2.46084 3.04877 0
M  V30 2262 H 216.397 -2.20793 3.34741 0
M  V30 2263 H 212.987 -1.0275 4.16101 0
M  V30 2264 H 217.171 -0.436632 4.94376 0
M  V30 2265 H 212.427 0.372165 6.10266 0
M  V30 2266 H 216.601 0.957354 6.89788 0
M  V30 2267 H 214.228 1.36778 7.47794 0
M  V30 2268 N 215.803 -1.52179 -0.40978 0
M  V30 2269 C 217.051 -1.65878 -1.15451 0
M  V30 2270 C 217.372 -0.390771 -1.91044 0
M  V30 2271 O 216.642 0.594323 -1.86667 0
M  V30 2272 H 215.222 -0.611405 -0.429177 0
M  V30 2273 H 217.884 -1.89219 -0.467134 0
M  V30 2274 H 216.98 -2.49954 -1.86894 0
M  V30 2275 N 217.281 0.66697 -1.42791 0
M  V30 2276 C 218.697 0.981027 -1.25889 0
M  V30 2277 C 218.897 2.00793 -0.168695 0
M  V30 2278 O 217.953 2.48321 0.45747 0
M  V30 2279 C 219.266 1.47838 -2.61848 0
M  V30 2280 C 220.814 1.59575 -2.69267 0
M  V30 2281 C 221.289 2.12704 -4.05612 0
M  V30 2282 N 222.78 2.20026 -4.07606 0
M  V30 2283 C 223.515 2.62227 -5.09926 0
M  V30 2284 N 223.011 3.03824 -6.22626 0
M  V30 2285 N 224.804 2.62045 -4.97281 0
M  V30 2286 H 216.955 -0.0127891 -2.12396 0
M  V30 2287 H 219.218 0.0568258 -0.946295 0
M  V30 2288 H 218.924 0.798299 -3.4252 0
M  V30 2289 H 218.798 2.45579 -2.86305 0
M  V30 2290 H 221.185 2.26687 -1.88936 0
M  V30 2291 H 221.266 0.60302 -2.48591 0
M  V30 2292 H 220.91 1.46198 -4.86404 0
M  V30 2293 H 220.84 3.12782 -4.23645 0
M  V30 2294 H 223.331 1.90708 -3.2625 0
M  V30 2295 H 223.644 3.34734 -6.96544 0
M  V30 2296 H 221.989 3.01662 -6.26119 0
M  V30 2297 H 225.18 2.28916 -4.08308 0
M  V30 2298 H 225.353 2.94613 -5.77154 0
M  V30 2299 N 218.759 1.29093 0.90403 0
M  V30 2300 C 219.989 1.19516 1.68522 0
M  V30 2301 C 220.397 -0.24738 1.87576 0
M  V30 2302 O 219.74 -1.17798 1.40959 0
M  V30 2303 C 219.802 1.83249 3.0929 0
M  V30 2304 C 219.466 3.32531 3.13484 0
M  V30 2305 C 220.463 4.28821 2.93953 0
M  V30 2306 C 218.148 3.73656 3.35688 0
M  V30 2307 C 220.142 5.64212 2.96553 0
M  V30 2308 C 217.829 5.0917 3.37919 0
M  V30 2309 C 218.827 6.04258 3.18373 0
M  V30 2310 O 218.515 7.37298 3.20385 0
M  V30 2311 H 218.247 0.415467 0.533257 0
M  V30 2312 H 220.801 1.70912 1.13922 0
M  V30 2313 H 219.031 1.26358 3.65473 0
M  V30 2314 H 220.72 1.68054 3.69476 0
M  V30 2315 H 221.486 3.98382 2.76616 0
M  V30 2316 H 217.365 3.00101 3.49943 0
M  V30 2317 H 220.909 6.38407 2.81216 0
M  V30 2318 H 216.806 5.39256 3.54787 0
M  V30 2319 H 217.574 7.46048 3.36681 0
M  V30 2320 N 220.237 -1.11381 1.11499 0
M  V30 2321 C 221.486 -1.82494 0.858993 0
M  V30 2322 C 221.799 -1.85605 -0.617278 0
M  V30 2323 O 223.005 -2.52824 -0.989552 0
M  V30 2324 C 221.461 -3.27745 1.48699 0
M  V30 2325 C 221.069 -3.32961 2.99735 0
M  V30 2326 C 222.813 -4.03754 1.31085 0
M  V30 2327 C 220.72 -4.72612 3.55516 0
M  V30 2328 H 219.65 -0.683802 0.317696 0
M  V30 2329 H 222.301 -1.25331 1.34031 0
M  V30 2330 H 220.683 -3.84844 0.933339 0
M  V30 2331 H 221.857 -2.85741 3.61509 0
M  V30 2332 H 220.172 -2.70433 3.16631 0
M  V30 2333 H 222.769 -5.06891 1.70192 0
M  V30 2334 H 223.112 -4.15527 0.253496 0
M  V30 2335 H 223.645 -3.53043 1.83318 0
M  V30 2336 H 220.384 -4.66036 4.60967 0
M  V30 2337 H 219.904 -5.2024 2.98513 0
M  V30 2338 H 221.583 -5.4157 3.53992 0
M  V30 2339 N 221.715 -0.905404 -1.28997 0
M  V30 2340 C 222.645 -0.404212 -2.29975 0
M  V30 2341 C 223.626 0.523784 -1.61835 0
M  V30 2342 O 224.811 0.433298 -1.89304 0
M  V30 2343 C 221.941 0.364042 -3.45387 0
M  V30 2344 C 220.895 -0.474048 -4.25367 0
M  V30 2345 C 220.221 0.422045 -5.33032 0
M  V30 2346 C 221.521 -1.72696 -4.92923 0
M  V30 2347 H 223.215 -1.24807 -2.72146 0
M  V30 2348 H 220.761 -0.601585 -1.30832 0
M  V30 2349 H 222.714 0.725447 -4.15109 0
M  V30 2350 H 221.438 1.24174 -3.02074 0
M  V30 2351 H 220.097 -0.81786 -3.57361 0
M  V30 2352 H 219.745 1.29804 -4.85963 0
M  V30 2353 H 219.445 -0.135057 -5.87445 0
M  V30 2354 H 220.969 0.779517 -6.05604 0
M  V30 2355 H 222.383 -1.43495 -5.55051 0
M  V30 2356 H 220.78 -2.22582 -5.57295 0
M  V30 2357 H 221.85 -2.45964 -4.17887 0
M  V30 2358 N 223.193 1.4272 -0.668489 0
M  V30 2359 C 224.103 2.34596 0.0139753 0
M  V30 2360 C 225.119 1.5474 0.795703 0
M  V30 2361 O 226.295 1.87334 0.739466 0
M  V30 2362 C 223.36 3.33202 0.957982 0
M  V30 2363 C 222.421 4.28957 0.17149 0
M  V30 2364 C 221.654 5.22853 1.07053 0
M  V30 2365 O 221.877 5.21531 2.31001 0
M  V30 2366 O 220.811 5.9952 0.534727 0
M  V30 2367 H 224.637 2.9448 -0.742661 0
M  V30 2368 H 222.222 1.43117 -0.428705 0
M  V30 2369 H 224.104 3.93796 1.50008 0
M  V30 2370 H 222.779 2.758 1.69458 0
M  V30 2371 H 221.686 3.71796 -0.414558 0
M  V30 2372 H 223.019 4.89383 -0.52586 0
M  V30 2373 N 224.671 0.411399 1.52136 0
M  V30 2374 C 226.082 -0.0576826 1.86611 0
M  V30 2375 C 226.433 -1.44238 1.33003 0
M  V30 2376 O 225.558 -2.05759 0.670228 0
M  V30 2377 C 226.153 -0.111448 3.38617 0
M  V30 2378 C 224.712 -0.52487 3.72723 0
M  V30 2379 C 223.859 0.299176 2.75681 0
M  V30 2380 H 226.81 0.628368 1.4573 0
M  V30 2381 H 226.831 -0.926252 3.69054 0
M  V30 2382 H 226.343 0.896488 3.77604 0
M  V30 2383 H 224.444 -1.53936 3.39315 0
M  V30 2384 H 224.557 -0.267681 4.78352 0
M  V30 2385 H 222.921 -0.238814 2.53578 0
M  V30 2386 H 223.704 1.3055 3.17508 0
M  V30 2387 N 226.149 -1.5696 0.141893 0
M  V30 2388 C 227.396 -1.9596 -0.510492 0
M  V30 2389 C 227.724 -1.02648 -1.65208 0
M  V30 2390 O 226.979 -0.0546947 -1.95624 0
M  V30 2391 C 227.278 -3.41242 -1.06249 0
M  V30 2392 C 226.944 -4.50882 -0.0398791 0
M  V30 2393 C 225.606 -4.80595 0.241247 0
M  V30 2394 C 227.958 -5.17058 0.65578 0
M  V30 2395 C 225.286 -5.73792 1.22393 0
M  V30 2396 C 227.638 -6.11313 1.62724 0
M  V30 2397 C 226.302 -6.39407 1.91612 0
M  V30 2398 H 225.572 -0.717068 -0.186802 0
M  V30 2399 H 228.219 -1.90142 0.227643 0
M  V30 2400 H 226.524 -3.43866 -1.87785 0
M  V30 2401 H 228.221 -3.68742 -1.57576 0
M  V30 2402 H 224.811 -4.27754 -0.269174 0
M  V30 2403 H 228.995 -4.94239 0.451779 0
M  V30 2404 H 224.251 -5.93853 1.45424 0
M  V30 2405 H 228.425 -6.61668 2.17183 0
M  V30 2406 H 226.052 -7.11427 2.6791 0
M  V30 2407 N 227.627 0.131896 -1.57047 0
M  V30 2408 C 228.874 0.841932 -1.84168 0
M  V30 2409 C 229.202 1.8048 -0.725066 0
M  V30 2410 O 228.457 1.93618 0.284692 0
M  V30 2411 C 228.756 1.63703 -3.17704 0
M  V30 2412 C 228.422 0.81961 -4.43388 0
M  V30 2413 C 227.084 0.594148 -4.77518 0
M  V30 2414 C 229.436 0.248977 -5.20605 0
M  V30 2415 C 226.764 -0.212409 -5.86315 0
M  V30 2416 C 229.116 -0.544701 -6.30251 0
M  V30 2417 C 227.78 -0.780599 -6.6292 0
M  V30 2418 H 227.05 0.308085 -0.673917 0
M  V30 2419 H 229.697 0.104867 -1.91213 0
M  V30 2420 H 228.002 2.44464 -3.06177 0
M  V30 2421 H 229.699 2.19015 -3.35907 0
M  V30 2422 H 226.289 1.00542 -4.16641 0
M  V30 2423 H 230.473 0.410408 -4.946 0
M  V30 2424 H 225.729 -0.404524 -6.1006 0
M  V30 2425 H 229.903 -0.993922 -6.89271 0
M  V30 2426 H 227.53 -1.40742 -7.47058 0
M  V30 2427 N 229.106 1.52395 0.401703 0
M  V30 2428 C 230.355 1.66044 1.14509 0
M  V30 2429 C 230.668 0.400216 1.91462 0
M  V30 2430 O 231.874 0.416632 2.68284 0
M  V30 2431 C 230.33 2.93388 2.0845 0
M  V30 2432 C 229.938 4.26545 1.36978 0
M  V30 2433 C 231.682 3.16402 2.83001 0
M  V30 2434 C 229.589 5.45007 2.29611 0
M  V30 2435 H 228.519 0.618562 0.431158 0
M  V30 2436 H 231.17 1.78886 0.40892 0
M  V30 2437 H 229.552 2.74263 2.8565 0
M  V30 2438 H 230.726 4.56179 0.650916 0
M  V30 2439 H 229.041 4.09692 0.74438 0
M  V30 2440 H 231.638 4.02085 3.52465 0
M  V30 2441 H 231.981 2.30943 3.46368 0
M  V30 2442 H 232.514 3.36034 2.12898 0
M  V30 2443 H 229.253 6.32835 1.70879 0
M  V30 2444 H 228.773 5.19702 2.9945 0
M  V30 2445 H 230.452 5.7838 2.89974 0
M  V30 2446 N 230.584 -0.659388 1.43143 0
M  V30 2447 C 231.516 -1.7849 1.43784 0
M  V30 2448 C 232.529 -1.5932 0.334787 0
M  V30 2449 O 233.718 -1.68155 0.598842 0
M  V30 2450 C 230.818 -3.15828 1.22906 0
M  V30 2451 C 229.991 -3.61711 2.45934 0
M  V30 2452 C 229.05 -4.77831 2.20371 0
M  V30 2453 O 228.076 -4.87586 2.93681 0
M  V30 2454 N 229.278 -5.67611 1.21647 0
M  V30 2455 H 232.043 -1.7842 2.40803 0
M  V30 2456 H 229.604 -0.84302 1.3822 0
M  V30 2457 H 231.596 -3.91189 1.03697 0
M  V30 2458 H 230.166 -3.10707 0.343542 0
M  V30 2459 H 229.386 -2.76861 2.80609 0
M  V30 2460 H 230.674 -3.89112 3.27825 0
M  V30 2461 H 230.072 -5.62397 0.610449 0
M  V30 2462 H 228.629 -6.42719 1.08423 0
M  V30 2463 N 232.062 -1.29571 -0.897171 0
M  V30 2464 C 233.302 -1.18959 -1.66217 0
M  V30 2465 C 233.666 0.254271 -1.90309 0
M  V30 2466 O 234.867 0.483407 -2.64417 0
M  V30 2467 C 233.138 -1.98302 -2.9734 0
M  V30 2468 S 234.697 -2.04253 -3.88364 0
M  V30 2469 H 231.515 -0.424137 -0.570639 0
M  V30 2470 H 234.117 -1.6389 -1.06585 0
M  V30 2471 H 232.821 -3.02342 -2.77521 0
M  V30 2472 H 232.352 -1.53986 -3.62011 0
M  V30 2473 H 234.367 -1.16105 -4.82425 0
M  V30 2474 N 233.54 1.10788 -1.12088 0
M  V30 2475 C 234.45 2.20599 -0.798338 0
M  V30 2476 C 235.466 1.72712 0.21135 0
M  V30 2477 O 236.642 2.01348 0.0458477 0
M  V30 2478 C 233.707 3.45771 -0.253674 0
M  V30 2479 C 232.768 4.08411 -1.32283 0
M  V30 2480 C 232.001 5.27608 -0.80406 0
M  V30 2481 O 232.224 5.69241 0.363478 0
M  V30 2482 O 231.158 5.8101 -1.57198 0
M  V30 2483 H 234.984 2.50614 -1.7154 0
M  V30 2484 H 232.569 1.19454 -0.897275 0
M  V30 2485 H 234.451 4.21376 0.0453691 0
M  V30 2486 H 233.126 3.1739 0.636005 0
M  V30 2487 H 232.033 3.34507 -1.67499 0
M  V30 2488 H 233.366 4.40986 -2.18614 0
M  V30 2489 N 235.018 0.912232 1.28515 0
M  V30 2490 C 236.267 0.540504 1.94323 0
M  V30 2491 C 236.58 -0.920044 1.72611 0
M  V30 2492 O 237.786 -1.39986 2.32629 0
M  V30 2493 C 236.242 0.915803 3.48053 0
M  V30 2494 C 235.85 2.39598 3.78546 0
M  V30 2495 C 237.594 0.614588 4.20027 0
M  V30 2496 C 235.501 2.71148 5.25578 0
M  V30 2497 H 234.431 0.198418 0.727424 0
M  V30 2498 H 237.082 1.11094 1.46049 0
M  V30 2499 H 235.464 0.274168 3.9505 0
M  V30 2500 H 236.638 3.08422 3.42364 0
M  V30 2501 H 234.953 2.66749 3.1974 0
M  V30 2502 H 237.55 0.827002 5.28266 0
M  V30 2503 H 237.893 -0.447531 4.13887 0
M  V30 2504 H 238.426 1.21462 3.78803 0
M  V30 2505 H 235.165 3.76207 5.36794 0
M  V30 2506 H 234.685 2.0696 5.62963 0
M  V30 2507 H 236.364 2.58072 5.93302 0
M  V30 2508 N 236.496 -1.42363 0.676048 0
M  V30 2509 C 237.907 -1.84649 0.275948 0
M  V30 2510 C 238.258 -1.56588 -1.18214 0
M  V30 2511 O 237.383 -1.02634 -1.90513 0
M  V30 2512 C 237.978 -3.35178 0.494053 0
M  V30 2513 C 236.537 -3.76109 0.148061 0
M  V30 2514 C 235.684 -2.65931 0.785891 0
M  V30 2515 H 238.635 -1.32192 0.878121 0
M  V30 2516 H 238.656 -3.79655 -0.25343 0
M  V30 2517 H 238.168 -3.55571 1.55535 0
M  V30 2518 H 236.269 -3.61323 -0.909742 0
M  V30 2519 H 236.382 -4.7546 0.589454 0
M  V30 2520 H 234.746 -2.53773 0.217113 0
M  V30 2521 H 235.529 -2.89146 1.85067 0
M  V30 2522 N 237.974 -0.419461 -1.51915 0
M  V30 2523 C 238.884 0.407528 -2.31033 0
M  V30 2524 C 239.9 1.04413 -1.3919 0
M  V30 2525 O 241.076 1.0434 -1.72265 0
M  V30 2526 C 238.141 1.50365 -3.12396 0
M  V30 2527 C 237.202 0.889029 -4.19994 0
M  V30 2528 C 236.435 1.93291 -4.97468 0
M  V30 2529 O 236.658 3.15259 -4.75361 0
M  V30 2530 O 235.592 1.53339 -5.8204 0
M  V30 2531 H 239.418 -0.237865 -3.02767 0
M  V30 2532 H 237.003 -0.182413 -1.48282 0
M  V30 2533 H 238.885 2.13975 -3.63032 0
M  V30 2534 H 237.56 2.13345 -2.43445 0
M  V30 2535 H 236.467 0.215353 -3.7348 0
M  V30 2536 H 237.8 0.302991 -4.91267 0
M  V30 2537 N 239.452 1.56882 -0.150215 0
M  V30 2538 C 240.382 2.19935 0.784284 0
M  V30 2539 C 241.363 1.14854 1.25469 0
M  V30 2540 O 242.548 1.43209 1.31168 0
M  V30 2541 C 239.678 2.82349 2.02229 0
M  V30 2542 C 238.632 3.93285 1.68853 0
M  V30 2543 C 237.958 4.42649 2.99944 0
M  V30 2544 C 239.258 5.13904 0.932714 0
M  V30 2545 H 240.952 2.9828 0.258781 0
M  V30 2546 H 238.498 1.43473 0.123029 0
M  V30 2547 H 240.451 3.25126 2.68088 0
M  V30 2548 H 239.175 2.0134 2.57157 0
M  V30 2549 H 237.834 3.5113 1.05371 0
M  V30 2550 H 237.482 3.58458 3.52869 0
M  V30 2551 H 237.182 5.17476 2.78374 0
M  V30 2552 H 238.706 4.88099 3.66868 0
M  V30 2553 H 240.12 5.53506 1.49345 0
M  V30 2554 H 238.517 5.94515 0.81684 0
M  V30 2555 H 239.587 4.84842 -0.0749568 0
M  V30 2556 N 240.93 -0.123565 1.57115 0
M  V30 2557 C 241.893 -1.13583 1.99076 0
M  V30 2558 C 242.893 -1.34564 0.880296 0
M  V30 2559 O 244.083 -1.31158 1.14644 0
M  V30 2560 C 241.215 -2.49128 2.32698 0
M  V30 2561 H 242.408 -0.775287 2.89706 0
M  V30 2562 H 239.961 -0.36771 1.51913 0
M  V30 2563 H 240.696 -2.90111 1.44934 0
M  V30 2564 H 240.481 -2.35255 3.13684 0
M  V30 2565 H 241.971 -3.2199 2.65918 0
M  V30 2566 N 242.408 -1.52605 -0.393616 0
M  V30 2567 C 243.657 -1.66649 -1.13627 0
M  V30 2568 C 243.97 -0.410364 -1.91247 0
M  V30 2569 O 245.176 -0.430854 -2.68059 0
M  V30 2570 C 243.632 -2.9449 -2.06891 0
M  V30 2571 C 243.24 -4.27266 -1.34714 0
M  V30 2572 C 244.984 -3.17899 -2.81319 0
M  V30 2573 C 242.891 -5.46217 -2.26717 0
M  V30 2574 H 241.821 -0.62084 -0.427871 0
M  V30 2575 H 244.472 -1.791 -0.399428 0
M  V30 2576 H 242.854 -2.75774 -2.84191 0
M  V30 2577 H 244.028 -4.56518 -0.626714 0
M  V30 2578 H 242.343 -4.10081 -0.722643 0
M  V30 2579 H 244.94 -4.03949 -3.50328 0
M  V30 2580 H 245.283 -2.32777 -3.45139 0
M  V30 2581 H 245.816 -3.37159 -2.11113 0
M  V30 2582 H 242.555 -6.33733 -1.67521 0
M  V30 2583 H 242.075 -5.21283 -2.96689 0
M  V30 2584 H 243.754 -5.7991 -2.86903 0
M  V30 2585 N 243.887 0.651787 -1.4349 0
M  V30 2586 C 244.834 1.76462 -1.4876 0
M  V30 2587 C 245.804 1.62641 -0.337189 0
M  V30 2588 O 246.989 1.82864 -0.544544 0
M  V30 2589 C 244.129 3.14623 -1.41796 0
M  V30 2590 C 243.242 3.39568 -2.67053 0
M  V30 2591 C 242.377 4.67585 -2.52068 0
M  V30 2592 C 241.416 4.85639 -3.72587 0
M  V30 2593 N 240.553 6.04915 -3.56402 0
M  V30 2594 H 245.393 1.71293 -2.43849 0
M  V30 2595 H 242.93 0.835889 -1.21043 0
M  V30 2596 H 244.888 3.94496 -1.35753 0
M  V30 2597 H 243.518 3.18859 -0.50288 0
M  V30 2598 H 242.57 2.53783 -2.8337 0
M  V30 2599 H 243.882 3.48795 -3.56572 0
M  V30 2600 H 243.036 5.55586 -2.4374 0
M  V30 2601 H 241.775 4.60681 -1.60075 0
M  V30 2602 H 240.78 3.96073 -3.81321 0
M  V30 2603 H 242.005 4.94372 -4.65589 0
M  V30 2604 H 239.951 5.9914 -2.67146 0
M  V30 2605 H 239.868 6.15106 -4.39524 0
M  V30 2606 H 241.136 6.95533 -3.51929 0
M  V30 2607 N 245.365 1.30045 0.890287 0
M  V30 2608 C 246.295 1.18541 2.01172 0
M  V30 2609 C 247.276 0.0773356 1.69924 0
M  V30 2610 O 248.461 0.25845 1.92473 0
M  V30 2611 C 245.591 0.870941 3.36202 0
M  V30 2612 C 244.545 1.93637 3.81692 0
M  V30 2613 C 243.871 1.475 5.13953 0
M  V30 2614 C 245.171 3.34666 4.00994 0
M  V30 2615 H 246.865 2.12359 2.11054 0
M  V30 2616 H 244.411 1.02238 1.01407 0
M  V30 2617 H 246.364 0.777141 4.14172 0
M  V30 2618 H 245.088 -0.102926 3.26438 0
M  V30 2619 H 243.747 2.01972 3.05946 0
M  V30 2620 H 243.395 0.489551 5.00612 0
M  V30 2621 H 243.095 2.1876 5.4536 0
M  V30 2622 H 244.619 1.39489 5.94454 0
M  V30 2623 H 246.033 3.2912 4.69417 0
M  V30 2624 H 244.43 4.03966 4.43769 0
M  V30 2625 H 245.5 3.76949 3.05021 0
M  V30 2626 N 246.843 -1.10192 1.12674 0
M  V30 2627 C 248.092 -1.81573 0.8783 0
M  V30 2628 C 248.405 -1.86249 -0.597557 0
M  V30 2629 O 249.611 -2.5386 -0.962681 0
M  V30 2630 C 248.067 -3.26149 1.52167 0
M  V30 2631 C 247.675 -3.29763 3.03249 0
M  V30 2632 C 249.419 -4.0234 1.3536 0
M  V30 2633 C 247.326 -4.68815 3.60508 0
M  V30 2634 H 246.256 -0.680394 0.324931 0
M  V30 2635 H 248.907 -1.23902 1.35353 0
M  V30 2636 H 247.289 -3.83832 0.974104 0
M  V30 2637 H 248.463 -2.8189 3.6452 0
M  V30 2638 H 246.778 -2.67059 3.19481 0
M  V30 2639 H 249.375 -5.05058 1.75559 0
M  V30 2640 H 249.718 -4.15235 0.297554 0
M  V30 2641 H 250.251 -3.51079 1.87052 0
M  V30 2642 H 246.99 -4.61121 4.65884 0
M  V30 2643 H 246.51 -5.17045 3.04014 0
M  V30 2644 H 248.189 -5.37785 3.59717 0
M  V30 2645 N 248.321 -0.919034 -1.28029 0
M  V30 2646 C 249.549 -0.570971 -1.98866 0
M  V30 2647 C 249.964 0.848996 -1.68634 0
M  V30 2648 O 249.321 1.56307 -0.942036 0
M  V30 2649 C 249.372 -0.776876 -3.53054 0
M  V30 2650 O 249.093 -2.14097 -3.82222 0
M  V30 2651 C 250.594 -0.436356 -4.41147 0
M  V30 2652 H 247.814 -0.217175 -0.634883 0
M  V30 2653 H 250.358 -1.23368 -1.63097 0
M  V30 2654 H 248.513 -0.161085 -3.87065 0
M  V30 2655 H 248.927 -2.18455 -4.76841 0
M  V30 2656 H 250.401 -0.63117 -5.4838 0
M  V30 2657 H 250.878 0.627686 -4.34692 0
M  V30 2658 H 251.484 -1.02991 -4.12641 0
M  V30 2659 N 249.799 1.42003 -0.683588 0
M  V30 2660 C 250.762 2.29191 -0.0198243 0
M  V30 2661 C 251.762 1.43773 0.72013 0
M  V30 2662 O 252.952 1.65061 0.556815 0
M  V30 2663 C 250.084 3.26435 0.982487 0
M  V30 2664 H 251.277 2.8938 -0.787345 0
M  V30 2665 H 248.83 1.49789 -0.446418 0
M  V30 2666 H 249.565 2.71203 1.77819 0
M  V30 2667 H 249.35 3.89449 0.455182 0
M  V30 2668 H 250.84 3.918 1.44508 0
M  V30 2669 N 251.277 0.427512 1.51691 0
M  V30 2670 C 252.523 -0.142439 2.02299 0
M  V30 2671 C 252.856 -1.43214 1.31162 0
M  V30 2672 O 252.131 -1.89833 0.423511 0
M  V30 2673 C 252.414 -0.371301 3.58181 0
M  V30 2674 C 252.267 0.936358 4.39946 0
M  V30 2675 C 253.586 -1.14542 4.24933 0
M  V30 2676 H 250.705 -0.0502937 0.735282 0
M  V30 2677 H 253.347 0.564584 1.81418 0
M  V30 2678 H 251.497 -0.973559 3.76104 0
M  V30 2679 H 253.169 1.57184 4.33694 0
M  V30 2680 H 251.412 1.5432 4.05423 0
M  V30 2681 H 252.083 0.730388 5.47147 0
M  V30 2682 H 254.559 -0.635362 4.11221 0
M  V30 2683 H 253.435 -1.27431 5.33903 0
M  V30 2684 H 253.696 -2.17093 3.85127 0
M  V30 2685 N 252.755 -1.56801 0.158532 0
M  V30 2686 C 254.003 -1.96102 -0.488712 0
M  V30 2687 C 254.324 -1.04498 -1.64636 0
M  V30 2688 O 253.594 -0.108783 -1.95598 0
M  V30 2689 H 252.174 -0.724102 -0.183535 0
M  V30 2690 H 254.836 -1.93457 0.236728 0
M  V30 2691 H 253.932 -3.00097 -0.857219 0
M  V30 2692 N 254.233 0.115231 -1.57178 0
M  V30 2693 C 255.482 0.820945 -1.84237 0
M  V30 2694 C 255.795 1.80866 -0.744761 0
M  V30 2695 O 257.001 2.56083 -0.901871 0
M  V30 2696 C 255.457 1.51072 -3.26658 0
M  V30 2697 C 255.065 0.563795 -4.44438 0
M  V30 2698 C 256.809 2.20134 -3.62962 0
M  V30 2699 C 254.716 1.25701 -5.77887 0
M  V30 2700 H 253.646 0.310328 -0.687177 0
M  V30 2701 H 256.297 0.0737134 -1.83352 0
M  V30 2702 H 254.679 2.30471 -3.22024 0
M  V30 2703 H 255.853 -0.197247 -4.60378 0
M  V30 2704 H 254.168 -0.0200638 -4.16395 0
M  V30 2705 H 256.765 2.72696 -4.59936 0
M  V30 2706 H 257.108 2.98107 -2.90582 0
M  V30 2707 H 257.641 1.47619 -3.69396 0
M  V30 2708 H 254.38 0.518493 -6.53446 0
M  V30 2709 H 253.9 1.98997 -5.65827 0
M  V30 2710 H 255.579 1.78915 -6.2177 0
M  V30 2711 N 255.711 1.52812 0.385517 0
M  V30 2712 C 256.939 1.71907 1.15133 0
M  V30 2713 C 257.354 0.439004 1.83625 0
M  V30 2714 O 256.711 -0.586765 1.7281 0
M  V30 2715 C 256.762 2.87099 2.19673 0
M  V30 2716 O 256.483 4.10151 1.53973 0
M  V30 2717 C 257.984 3.17902 3.08955 0
M  V30 2718 H 255.204 0.575479 0.345057 0
M  V30 2719 H 257.748 1.99476 0.45052 0
M  V30 2720 H 255.903 2.61982 2.85384 0
M  V30 2721 H 256.317 4.74514 2.23465 0
M  V30 2722 H 257.791 4.01959 3.7833 0
M  V30 2723 H 258.268 2.3243 3.72657 0
M  V30 2724 H 258.874 3.44871 2.48885 0
M  V30 2725 N 257.189 -0.644168 1.43834 0
M  V30 2726 C 258.435 -1.40603 1.46146 0
M  V30 2727 C 258.768 -1.93997 0.0887717 0
M  V30 2728 O 258.043 -1.72854 -0.891724 0
M  V30 2729 C 258.326 -2.58086 2.51124 0
M  V30 2730 C 258.179 -2.10126 3.97702 0
M  V30 2731 C 259.498 -3.60291 2.52742 0
M  V30 2732 H 256.617 -0.509905 0.532134 0
M  V30 2733 H 259.259 -0.729502 1.75437 0
M  V30 2734 H 257.409 -3.15801 2.26278 0
M  V30 2735 H 259.081 -1.57342 4.33637 0
M  V30 2736 H 257.324 -1.41419 4.10101 0
M  V30 2737 H 257.995 -2.94649 4.66783 0
M  V30 2738 H 260.471 -3.12352 2.7491 0
M  V30 2739 H 259.347 -4.40032 3.28121 0
M  V30 2740 H 259.608 -4.1349 1.56455 0
M  V30 2741 N 258.668 -1.30515 -0.883378 0
M  V30 2742 C 259.914 -1.19607 -1.63774 0
M  V30 2743 C 260.247 0.248314 -1.92606 0
M  V30 2744 O 259.522 1.17742 -1.54813 0
M  V30 2745 C 259.805 -2.02669 -2.97653 0
M  V30 2746 C 259.658 -3.55335 -2.75784 0
M  V30 2747 C 260.977 -1.86573 -3.98596 0
M  V30 2748 H 258.096 -0.435856 -0.594305 0
M  V30 2749 H 260.738 -1.60165 -1.02212 0
M  V30 2750 H 258.888 -1.68208 -3.50197 0
M  V30 2751 H 260.56 -3.99863 -2.30016 0
M  V30 2752 H 258.803 -3.79438 -2.1026 0
M  V30 2753 H 259.474 -4.08745 -3.70988 0
M  V30 2754 H 261.95 -2.16703 -3.55217 0
M  V30 2755 H 260.826 -2.47014 -4.90179 0
M  V30 2756 H 261.087 -0.825321 -4.34328 0
M  V30 2757 N 260.146 1.09593 -1.13257 0
M  V30 2758 C 261.079 2.15451 -0.752061 0
M  V30 2759 C 262.057 1.60493 0.260913 0
M  V30 2760 O 263.241 1.8788 0.152819 0
M  V30 2761 C 260.368 3.38506 -0.114594 0
M  V30 2762 C 259.414 4.12183 -1.09579 0
M  V30 2763 S 260.247 4.6661 -2.62745 0
M  V30 2764 C 261.403 5.92966 -2.00354 0
M  V30 2765 H 261.636 2.47395 -1.64872 0
M  V30 2766 H 259.169 1.21515 -0.952545 0
M  V30 2767 H 261.127 4.09757 0.246808 0
M  V30 2768 H 259.788 3.04784 0.759309 0
M  V30 2769 H 258.981 5.00445 -0.597545 0
M  V30 2770 H 258.583 3.46785 -1.40057 0
M  V30 2771 H 260.875 6.63882 -1.35156 0
M  V30 2772 H 261.818 6.47467 -2.86691 0
M  V30 2773 H 262.226 5.45405 -1.4558 0
M  V30 2774 N 261.624 0.925811 1.2754 0
M  V30 2775 C 262.87 0.566092 1.94739 0
M  V30 2776 C 263.203 -0.890057 1.72603 0
M  V30 2777 O 262.478 -1.63467 1.05399 0
M  V30 2778 C 262.761 0.89054 3.48915 0
M  V30 2779 C 262.614 2.4003 3.80402 0
M  V30 2780 C 263.933 0.395101 4.38323 0
M  V30 2781 H 261.052 0.20714 0.707292 0
M  V30 2782 H 263.694 1.15725 1.50691 0
M  V30 2783 H 261.844 0.387452 3.86563 0
M  V30 2784 H 263.516 2.97494 3.52555 0
M  V30 2785 H 261.759 2.85028 3.2702 0
M  V30 2786 H 262.43 2.57785 4.8811 0
M  V30 2787 H 264.906 0.826241 4.07814 0
M  V30 2788 H 263.782 0.651086 5.45025 0
M  V30 2789 H 264.043 -0.704798 4.36446 0
M  V30 2790 N 263.102 -1.41638 0.69111 0
M  V30 2791 C 264.032 -2.3347 0.037248 0
M  V30 2792 C 265.013 -1.51575 -0.771947 0
M  V30 2793 O 266.198 -1.80126 -0.72582 0
M  V30 2794 C 263.328 -3.35354 -0.903064 0
M  V30 2795 C 262.282 -4.27526 -0.201288 0
M  V30 2796 C 261.608 -5.19747 -1.25565 0
M  V30 2797 C 262.908 -5.13959 0.929689 0
M  V30 2798 H 264.602 -2.88397 0.804227 0
M  V30 2799 H 262.148 -1.38669 0.388189 0
M  V30 2800 H 264.101 -3.98519 -1.36969 0
M  V30 2801 H 262.825 -2.78767 -1.70166 0
M  V30 2802 H 261.484 -3.65779 0.245265 0
M  V30 2803 H 261.132 -4.59479 -2.04666 0
M  V30 2804 H 260.832 -5.8225 -0.791128 0
M  V30 2805 H 262.356 -5.85789 -1.72288 0
M  V30 2806 H 263.77 -5.70718 0.543546 0
M  V30 2807 H 262.167 -5.85379 1.32103 0
M  V30 2808 H 263.237 -4.51389 1.77133 0
M  V30 2809 N 264.58 -0.43555 -1.51462 0
M  V30 2810 C 265.528 0.391205 -2.29287 0
M  V30 2811 C 266.522 1.02247 -1.35062 0
M  V30 2812 O 267.728 0.957646 -1.52411 0
M  V30 2813 H 264.103 0.144968 -0.737895 0
M  V30 2814 H 266.074 -0.286051 -2.97026 0
M  V30 2815 C 264.823 1.48096 -3.14583 0
M  V30 2816 H 264.146 1.00457 -3.86973 0
M  V30 2817 H 265.586 2.03273 -3.72097 0
M  V30 2818 C 264.045 2.46321 -2.29843 0
M  V30 2819 O 264.575 3.50815 -1.95682 0
M  V30 2820 N 262.781 2.17166 -1.931 0
M  V30 2821 H 262.328 1.32218 -2.21079 0
M  V30 2822 H 262.286 2.83127 -1.36698 0
M  V30 2823 N 266.058 1.56714 -0.166846 0
M  V30 2824 C 267.283 2.01557 0.488833 0
M  V30 2825 C 267.708 1.0463 1.56314 0
M  V30 2826 O 267.066 0.0251304 1.81283 0
M  V30 2827 C 267.114 3.4503 1.04818 0
M  V30 2828 O 266.218 3.51163 2.16236 0
M  V30 2829 H 265.559 0.653516 0.117526 0
M  V30 2830 H 268.089 2.02818 -0.269421 0
M  V30 2831 H 268.099 3.84243 1.37191 0
M  V30 2832 H 266.774 4.15077 0.261572 0
M  V30 2833 H 265.351 3.23807 1.84942 0
M  V30 2834 N 267.536 -0.106894 1.57237 0
M  V30 2835 C 268.469 -1.16125 1.96444 0
M  V30 2836 C 269.447 -1.3947 0.835871 0
M  V30 2837 O 270.631 -1.53425 1.09513 0
M  V30 2838 C 267.758 -2.51277 2.27107 0
M  V30 2839 C 266.804 -2.44285 3.4961 0
M  V30 2840 S 267.637 -1.87077 5.01759 0
M  V30 2841 C 268.793 -3.23877 5.35588 0
M  V30 2842 H 269.026 -0.826971 2.85567 0
M  V30 2843 H 266.559 -0.314124 1.51171 0
M  V30 2844 H 268.517 -3.29035 2.45451 0
M  V30 2845 H 267.178 -2.81879 1.38576 0
M  V30 2846 H 266.371 -3.4387 3.68469 0
M  V30 2847 H 265.973 -1.74652 3.30715 0
M  V30 2848 H 268.265 -4.20122 5.31511 0
M  V30 2849 H 269.208 -3.09833 6.36717 0
M  V30 2850 H 269.616 -3.22864 4.63054 0
M  V30 2851 N 269.014 -1.53014 -0.377408 0
M  V30 2852 C 270.239 -1.72818 -1.14668 0
M  V30 2853 C 270.664 -0.450725 -1.8262 0
M  V30 2854 O 270.022 0.59439 -1.7128 0
M  V30 2855 C 270.07 -2.88627 -2.16164 0
M  V30 2856 O 269.174 -2.56409 -3.22998 0
M  V30 2857 H 268.515 -0.574301 -0.333278 0
M  V30 2858 H 271.045 -1.99853 -0.438152 0
M  V30 2859 H 271.055 -3.14455 -2.59966 0
M  V30 2860 H 269.73 -3.81294 -1.66095 0
M  V30 2861 H 268.307 -2.4136 -2.84253 0
M  V30 2862 N 270.492 0.636531 -1.44174 0
M  V30 2863 C 271.738 1.39826 -1.4689 0
M  V30 2864 C 272.071 1.93947 -0.0990585 0
M  V30 2865 O 271.346 1.73325 0.882544 0
M  V30 2866 C 271.629 2.56751 -2.5249 0
M  V30 2867 C 271.482 2.08014 -3.98811 0
M  V30 2868 C 272.801 3.58946 -2.54649 0
M  V30 2869 H 269.92 0.507075 -0.53483 0
M  V30 2870 H 272.562 0.720188 -1.75822 0
M  V30 2871 H 270.712 3.14597 -2.2795 0
M  V30 2872 H 272.384 1.5504 -4.34466 0
M  V30 2873 H 270.627 1.39242 -4.10846 0
M  V30 2874 H 271.298 2.92169 -4.68339 0
M  V30 2875 H 273.774 3.1089 -2.76563 0
M  V30 2876 H 272.65 4.38286 -3.3045 0
M  V30 2877 H 272.911 4.12655 -1.58646 0
M  V30 2878 N 271.97 1.30982 0.876444 0
M  V30 2879 C 273.195 1.23373 1.66715 0
M  V30 2880 C 273.62 -0.19885 1.87046 0
M  V30 2881 O 272.978 -1.1427 1.40756 0
M  V30 2882 C 273.026 1.97644 3.01611 0
M  V30 2883 O 272.13 1.30935 3.91062 0
M  V30 2884 H 271.471 0.426279 0.509099 0
M  V30 2885 H 274.001 1.72944 1.09323 0
M  V30 2886 H 274.011 2.06992 3.51594 0
M  V30 2887 H 272.686 3.01829 2.86133 0
M  V30 2888 H 271.263 1.29996 3.49507 0
M  V30 2889 N 273.449 -1.08991 1.13837 0
M  V30 2890 C 274.695 -1.81699 0.91417 0
M  V30 2891 C 275.05 -1.84264 -0.553594 0
M  V30 2892 O 274.343 -1.30313 -1.4046 0
M  V30 2893 C 274.537 -3.27042 1.44147 0
M  V30 2894 C 274.366 -3.38637 2.95897 0
M  V30 2895 C 273.136 -3.50177 3.64286 0
M  V30 2896 C 275.334 -3.30791 3.93804 0
M  V30 2897 N 273.316 -3.50501 5.04006 0
M  V30 2898 C 274.687 -3.38037 5.19741 0
M  V30 2899 C 276.742 -3.14488 3.86007 0
M  V30 2900 C 275.445 -3.30659 6.38793 0
M  V30 2901 C 277.471 -3.08438 5.04599 0
M  V30 2902 C 276.833 -3.1628 6.29402 0
M  V30 2903 H 272.932 -0.678967 0.387979 0
M  V30 2904 H 275.516 -1.30224 1.4474 0
M  V30 2905 H 273.687 -3.76976 0.935091 0
M  V30 2906 H 275.419 -3.87785 1.1578 0
M  V30 2907 H 272.174 -3.53815 3.1482 0
M  V30 2908 H 272.598 -3.54236 5.76928 0
M  V30 2909 H 277.24 -3.07291 2.90399 0
M  V30 2910 H 274.958 -3.36618 7.34652 0
M  V30 2911 H 278.544 -2.96952 5.0031 0
M  V30 2912 H 277.424 -3.1162 7.19627 0
M  V30 2913 N 274.927 -0.932562 -1.27047 0
M  V30 2914 C 276.152 -0.591474 -1.98787 0
M  V30 2915 C 276.577 0.824601 -1.69062 0
M  V30 2916 O 275.935 1.5541 -0.933677 0
M  V30 2917 C 275.983 -0.829808 -3.50922 0
M  V30 2918 O 275.087 0.102266 -4.12273 0
M  V30 2919 H 274.428 -0.227185 -0.623926 0
M  V30 2920 H 276.958 -1.25314 -1.61733 0
M  V30 2921 H 276.968 -0.747292 -4.01098 0
M  V30 2922 H 275.643 -1.86201 -3.7189 0
M  V30 2923 H 274.22 -0.0305761 -3.72887 0
M  V30 2924 N 276.405 1.4127 -0.698611 0
M  V30 2925 C 277.368 2.29158 -0.044132 0
M  V30 2926 C 278.368 1.44529 0.704841 0
M  V30 2927 O 279.558 1.65643 0.539276 0
M  V30 2928 C 276.69 3.27459 0.947809 0
M  V30 2929 H 277.883 2.88529 -0.817994 0
M  V30 2930 H 275.436 1.49307 -0.46228 0
M  V30 2931 H 276.171 2.73073 1.74933 0
M  V30 2932 H 275.956 3.8991 0.41385 0
M  V30 2933 H 277.446 3.93311 1.40344 0
M  V30 2934 N 277.883 0.443576 1.51229 0
M  V30 2935 C 279.299 0.0962001 1.5931 0
M  V30 2936 C 279.499 -1.39501 1.45402 0
M  V30 2937 O 278.555 -2.16557 1.29843 0
M  V30 2938 C 279.868 0.621875 2.94199 0
M  V30 2939 C 281.416 0.582865 3.07525 0
M  V30 2940 C 281.891 1.08562 4.44948 0
M  V30 2941 N 283.382 1.04387 4.51284 0
M  V30 2942 C 284.117 1.40368 5.55954 0
M  V30 2943 N 283.613 1.83664 6.68011 0
M  V30 2944 N 285.406 1.32145 5.46346 0
M  V30 2945 H 277.557 1.41376 1.58514 0
M  V30 2946 H 279.82 0.582965 0.747567 0
M  V30 2947 H 279.526 1.66546 3.09767 0
M  V30 2948 H 279.4 0.0502125 3.77167 0
M  V30 2949 H 281.787 -0.451749 2.91622 0
M  V30 2950 H 281.868 1.191 2.26382 0
M  V30 2951 H 281.512 2.11873 4.61598 0
M  V30 2952 H 281.442 0.453956 5.2464 0
M  V30 2953 H 283.933 0.725986 3.70861 0
M  V30 2954 H 284.246 2.0934 7.43906 0
M  V30 2955 H 282.591 1.87596 6.69203 0
M  V30 2956 H 285.782 0.981808 4.57688 0
M  V30 2957 H 285.955 1.60514 6.27805 0
M  V30 2958 N 279.361 -1.56624 0.175154 0
M  V30 2959 C 280.61 -1.96173 -0.468921 0
M  V30 2960 C 280.923 -1.06401 -1.64128 0
M  V30 2961 O 282.129 -1.35648 -2.35185 0
M  V30 2962 C 280.585 -3.48833 -0.885633 0
M  V30 2963 C 280.193 -4.47237 0.261343 0
M  V30 2964 C 281.937 -3.97194 -1.49791 0
M  V30 2965 C 279.844 -5.9114 -0.175214 0
M  V30 2966 H 278.774 -0.732455 -0.178958 0
M  V30 2967 H 281.425 -1.81591 0.263997 0
M  V30 2968 H 279.807 -3.58848 -1.67464 0
M  V30 2969 H 280.981 -4.4894 1.03871 0
M  V30 2970 H 279.296 -4.08956 0.783827 0
M  V30 2971 H 281.893 -5.02167 -1.83665 0
M  V30 2972 H 282.236 -3.40351 -2.39722 0
M  V30 2973 H 282.769 -3.90212 -0.773267 0
M  V30 2974 H 279.508 -6.51865 0.689414 0
M  V30 2975 H 279.028 -5.92735 -0.91786 0
M  V30 2976 H 280.707 -6.44044 -0.617792 0
M  V30 2977 N 280.839 0.0985539 -1.57292 0
M  V30 2978 C 281.771 1.14595 -1.98496 0
M  V30 2979 C 282.784 1.36512 -0.887031 0
M  V30 2980 O 283.973 1.35225 -1.16518 0
M  V30 2981 C 281.073 2.50216 -2.28572 0
M  V30 2982 C 280.246 2.48624 -3.59868 0
M  V30 2983 C 279.305 3.66146 -3.7792 0
M  V30 2984 O 278.331 3.48795 -4.49812 0
M  V30 2985 N 279.533 4.85496 -3.18235 0
M  V30 2986 H 282.298 0.795277 -2.88956 0
M  V30 2987 H 279.859 0.287579 -1.59325 0
M  V30 2988 H 281.851 3.27432 -2.37845 0
M  V30 2989 H 280.421 2.77387 -1.44136 0
M  V30 2990 H 279.641 1.56978 -3.61596 0
M  V30 2991 H 280.929 2.44635 -4.46129 0
M  V30 2992 H 280.327 5.02497 -2.59833 0
M  V30 2993 H 278.884 5.60317 -3.32999 0
M  V30 2994 N 282.317 1.53212 0.369288 0
M  V30 2995 C 283.566 1.68436 1.10961 0
M  V30 2996 C 283.879 0.440738 1.9057 0
M  V30 2997 O 285.085 0.473446 2.6734 0
M  V30 2998 C 283.541 2.97744 2.0218 0
M  V30 2999 C 283.149 4.29355 1.279 0
M  V30 3000 C 284.893 3.22334 2.76226 0
M  V30 3001 C 282.8 5.49755 2.17999 0
M  V30 3002 H 281.73 0.627568 0.41794 0
M  V30 3003 H 284.381 1.79713 0.370884 0
M  V30 3004 H 282.763 2.8026 2.79768 0
M  V30 3005 H 283.937 4.57458 0.554007 0
M  V30 3006 H 282.252 4.11179 0.657311 0
M  V30 3007 H 284.849 4.09471 3.43857 0
M  V30 3008 H 285.192 2.38238 3.41392 0
M  V30 3009 H 285.725 3.40475 2.05723 0
M  V30 3010 H 282.464 6.36318 1.57417 0
M  V30 3011 H 281.984 5.25937 2.88359 0
M  V30 3012 H 283.663 5.84401 2.77641 0
M  V30 3013 N 283.795 -0.628877 1.44509 0
M  V30 3014 C 285.042 -1.38839 1.47411 0
M  V30 3015 C 285.37 -1.94202 0.10757 0
M  V30 3016 O 284.625 -1.74243 -0.890947 0
M  V30 3017 C 284.924 -2.56995 2.48371 0
M  V30 3018 C 284.59 -2.19908 3.93639 0
M  V30 3019 C 283.252 -2.09506 4.33198 0
M  V30 3020 C 285.604 -1.9064 4.85083 0
M  V30 3021 C 282.932 -1.68028 5.62124 0
M  V30 3022 C 285.284 -1.50655 6.14399 0
M  V30 3023 C 283.948 -1.38796 6.5291 0
M  V30 3024 H 283.218 -0.508048 0.539414 0
M  V30 3025 H 285.865 -0.712913 1.77735 0
M  V30 3026 H 284.17 -3.29786 2.11538 0
M  V30 3027 H 285.867 -3.15223 2.47861 0
M  V30 3028 H 282.457 -2.28922 3.62343 0
M  V30 3029 H 286.641 -1.97585 4.55273 0
M  V30 3030 H 281.897 -1.57452 5.90778 0
M  V30 3031 H 286.071 -1.27048 6.84713 0
M  V30 3032 H 283.698 -1.06429 7.52713 0
M  V30 3033 N 285.273 -1.31445 -0.869486 0
M  V30 3034 C 286.203 -1.21727 -1.99261 0
M  V30 3035 C 287.184 -0.104359 -1.6978 0
M  V30 3036 O 288.369 -0.289038 -1.92037 0
M  V30 3037 C 285.499 -0.924317 -3.34774 0
M  V30 3038 C 284.453 -1.99685 -3.78563 0
M  V30 3039 C 283.779 -1.55658 -5.11541 0
M  V30 3040 C 285.079 -3.41003 -3.95619 0
M  V30 3041 H 286.773 -2.1569 -2.07649 0
M  V30 3042 H 284.319 -1.03839 -0.997675 0
M  V30 3043 H 286.272 -0.842934 -4.12883 0
M  V30 3044 H 284.996 0.0509793 -3.2656 0
M  V30 3045 H 283.655 -2.06813 -3.02694 0
M  V30 3046 H 283.303 -0.569132 -4.9977 0
M  V30 3047 H 283.003 -2.27409 -5.41811 0
M  V30 3048 H 284.527 -1.48928 -5.92159 0
M  V30 3049 H 285.941 -3.36547 -4.64122 0
M  V30 3050 H 284.338 -4.10975 -4.37286 0
M  V30 3051 H 285.408 -3.81754 -2.98985 0
M  V30 3052 N 286.751 1.08385 -1.14413 0
M  V30 3053 C 287.979 1.84517 -0.936001 0
M  V30 3054 C 288.394 1.81626 0.515503 0
M  V30 3055 O 287.751 1.22008 1.35721 0
M  V30 3056 C 287.802 3.32049 -1.42918 0
M  V30 3057 O 287.523 3.34951 -2.82381 0
M  V30 3058 C 289.024 4.24986 -1.26103 0
M  V30 3059 H 286.244 0.582491 -0.333084 0
M  V30 3060 H 288.788 1.36885 -1.5193 0
M  V30 3061 H 286.943 3.7707 -0.888641 0
M  V30 3062 H 287.357 4.27048 -3.04517 0
M  V30 3063 H 288.831 5.26615 -1.6547 0
M  V30 3064 H 289.308 4.38726 -0.20392 0
M  V30 3065 H 289.914 3.85791 -1.79012 0
M  V30 3066 N 288.23 0.939286 1.26551 0
M  V30 3067 C 289.477 0.585847 1.9384 0
M  V30 3068 C 289.805 -0.874784 1.73718 0
M  V30 3069 O 289.06 -1.64092 1.06642 0
M  V30 3070 C 289.359 0.872106 3.46596 0
M  V30 3071 C 289.025 2.31632 3.86856 0
M  V30 3072 C 287.687 2.71111 3.97558 0
M  V30 3073 C 290.039 3.25494 4.07066 0
M  V30 3074 C 287.367 4.03553 4.25866 0
M  V30 3075 C 289.719 4.57531 4.36862 0
M  V30 3076 C 288.383 4.96828 4.45778 0
M  V30 3077 H 287.653 0.214377 0.709312 0
M  V30 3078 H 290.3 1.18544 1.50398 0
M  V30 3079 H 288.605 0.18996 3.91339 0
M  V30 3080 H 290.302 0.577442 3.96821 0
M  V30 3081 H 286.892 2.00008 3.79071 0
M  V30 3082 H 291.076 2.9619 3.98227 0
M  V30 3083 H 286.332 4.33665 4.30981 0
M  V30 3084 H 290.506 5.30254 4.51446 0
M  V30 3085 H 288.133 5.99482 4.67468 0
M  V30 3086 N 289.708 -1.40897 0.706093 0
M  V30 3087 C 290.948 -2.02916 0.245827 0
M  V30 3088 C 291.312 -1.54751 -1.13649 0
M  V30 3089 O 292.513 -2.08768 -1.69321 0
M  V30 3090 C 290.784 -3.56031 0.312537 0
M  V30 3091 S 292.343 -4.38741 -0.0721388 0
M  V30 3092 H 289.161 -0.704186 0.0982007 0
M  V30 3093 H 291.763 -1.72168 0.926207 0
M  V30 3094 H 290.467 -3.88579 1.32039 0
M  V30 3095 H 289.998 -3.91495 -0.386641 0
M  V30 3096 H 292.013 -4.78952 -1.29692 0
M  V30 3097 N 291.186 -0.45159 -1.50991 0
M  V30 3098 C 292.133 0.352625 -2.2809 0
M  V30 3099 C 293.103 1.0044 -1.32291 0
M  V30 3100 O 294.288 1.02058 -1.6121 0
M  V30 3101 C 291.428 1.43983 -3.13629 0
M  V30 3102 C 290.541 0.804772 -4.24438 0
M  V30 3103 C 289.676 1.86822 -4.97263 0
M  V30 3104 C 288.715 1.21236 -5.99973 0
M  V30 3105 N 287.852 2.2178 -6.66152 0
M  V30 3106 H 292.692 -0.311186 -2.96371 0
M  V30 3107 H 290.229 -0.165308 -1.46168 0
M  V30 3108 H 292.187 2.08161 -3.61559 0
M  V30 3109 H 290.817 2.07307 -2.47434 0
M  V30 3110 H 289.869 0.0509129 -3.80366 0
M  V30 3111 H 291.181 0.286076 -4.97979 0
M  V30 3112 H 290.335 2.58628 -5.48813 0
M  V30 3113 H 289.074 2.42068 -4.23385 0
M  V30 3114 H 288.079 0.479828 -5.47702 0
M  V30 3115 H 289.304 0.667051 -6.75816 0
M  V30 3116 H 287.25 2.76079 -5.95077 0
M  V30 3117 H 287.167 1.74841 -7.35504 0
M  V30 3118 H 288.435 2.93026 -7.22327 0
M  V30 3119 N 292.664 1.56529 -0.183458 0
M  V30 3120 C 293.594 2.21549 0.737456 0
M  V30 3121 C 294.575 1.17489 1.23005 0
M  V30 3122 O 295.76 1.45959 1.281 0
M  V30 3123 C 292.89 2.86575 1.96194 0
M  V30 3124 C 291.844 3.96778 1.60473 0
M  V30 3125 C 291.17 4.48911 2.90487 0
M  V30 3126 C 292.47 5.15767 0.823497 0
M  V30 3127 H 294.164 2.98761 0.195453 0
M  V30 3128 H 291.71 1.43702 0.0925686 0
M  V30 3129 H 293.663 3.30739 2.61131 0
M  V30 3130 H 292.387 2.06749 2.52828 0
M  V30 3131 H 291.046 3.53286 0.978997 0
M  V30 3132 H 290.694 3.65862 3.45186 0
M  V30 3133 H 290.394 5.23265 2.67335 0
M  V30 3134 H 291.918 4.95771 3.56432 0
M  V30 3135 H 293.332 5.56549 1.37571 0
M  V30 3136 H 291.729 5.96114 0.690551 0
M  V30 3137 H 292.799 4.84574 -0.177782 0
M  V30 3138 N 294.142 -0.090211 1.57342 0
M  V30 3139 C 295.37 -0.806224 1.90546 0
M  V30 3140 C 295.785 -1.72041 0.777644 0
M  V30 3141 O 295.142 -1.80778 -0.250103 0
M  V30 3142 C 295.193 -1.61546 3.23396 0
M  V30 3143 O 294.914 -0.738043 4.31839 0
M  V30 3144 C 296.415 -2.4341 3.70495 0
M  V30 3145 H 293.635 -0.230256 0.630257 0
M  V30 3146 H 296.179 -0.0659843 2.04394 0
M  V30 3147 H 294.334 -2.30816 3.11131 0
M  V30 3148 H 294.748 -1.29901 5.08159 0
M  V30 3149 H 296.222 -2.95676 4.66133 0
M  V30 3150 H 296.699 -3.22098 2.98579 0
M  V30 3151 H 297.305 -1.79331 3.85643 0
M  V30 3152 N 295.62 -1.53406 -0.361157 0
M  V30 3153 C 296.583 -1.79479 -1.42548 0
M  V30 3154 C 297.583 -0.665327 -1.4639 0
M  V30 3155 O 298.773 -0.933549 -1.47073 0
M  V30 3156 C 295.905 -1.92087 -2.8163 0
M  V30 3157 H 297.098 -2.74538 -1.20701 0
M  V30 3158 H 294.651 -1.4455 -0.594546 0
M  V30 3159 H 295.386 -0.991099 -3.08784 0
M  V30 3160 H 295.171 -2.74241 -2.80239 0
M  V30 3161 H 296.661 -2.13836 -3.58697 0
M  V30 3162 N 297.098 0.621204 -1.44841 0
M  V30 3163 C 298.347 1.37658 -1.47422 0
M  V30 3164 C 298.66 1.95264 -0.114629 0
M  V30 3165 O 299.866 2.71494 -0.0180199 0
M  V30 3166 C 298.322 2.49285 -2.59586 0
M  V30 3167 C 297.93 1.98149 -4.01797 0
M  V30 3168 C 299.674 3.26409 -2.71399 0
M  V30 3169 C 297.581 3.07178 -5.05367 0
M  V30 3170 H 296.511 0.517344 -0.548517 0
M  V30 3171 H 299.162 0.667257 -1.70938 0
M  V30 3172 H 297.544 3.22839 -2.29328 0
M  V30 3173 H 298.718 1.31395 -4.41669 0
M  V30 3174 H 297.033 1.33812 -3.94314 0
M  V30 3175 H 299.63 4.07706 -3.45948 0
M  V30 3176 H 299.973 3.76535 -1.77559 0
M  V30 3177 H 300.506 2.5995 -3.01116 0
M  V30 3178 H 297.245 2.61985 -6.00869 0
M  V30 3179 H 296.765 3.72542 -4.70077 0
M  V30 3180 H 298.444 3.71789 -5.29511 0
M  V30 3181 N 298.576 1.31904 0.862503 0
M  V30 3182 C 299.506 1.22782 1.98612 0
M  V30 3183 C 300.487 0.113362 1.69722 0
M  V30 3184 O 301.672 0.299218 1.91881 0
M  V30 3185 C 298.802 0.942058 3.34279 0
M  V30 3186 C 297.756 2.0169 3.77499 0
M  V30 3187 C 297.082 1.58369 5.10709 0
M  V30 3188 C 298.382 3.43096 3.93805 0
M  V30 3189 H 300.076 2.16788 2.06502 0
M  V30 3190 H 297.622 1.04366 0.992154 0
M  V30 3191 H 299.575 0.864818 4.1243 0
M  V30 3192 H 298.299 -0.0336603 3.26583 0
M  V30 3193 H 296.958 2.08416 3.01593 0
M  V30 3194 H 296.606 0.595628 4.99461 0
M  V30 3195 H 296.306 2.30279 5.40597 0
M  V30 3196 H 297.83 1.52067 5.91361 0
M  V30 3197 H 299.244 3.39003 4.62331 0
M  V30 3198 H 297.641 4.13288 4.35101 0
M  V30 3199 H 298.711 3.83334 2.96957 0
M  V30 3200 N 300.054 -1.07777 1.14986 0
M  V30 3201 C 301.303 -1.79669 0.916617 0
M  V30 3202 C 301.616 -1.87474 -0.557917 0
M  V30 3203 O 302.822 -2.55845 -0.908617 0
M  V30 3204 C 301.278 -3.22848 1.59051 0
M  V30 3205 C 300.886 -3.23257 3.10176 0
M  V30 3206 C 302.63 -3.99379 1.43864 0
M  V30 3207 C 300.537 -4.61063 3.70372 0
M  V30 3208 H 299.467 -0.673349 0.33929 0
M  V30 3209 H 302.118 -1.21003 1.37951 0
M  V30 3210 H 300.5 -3.8168 1.0553 0
M  V30 3211 H 301.674 -2.74095 3.70417 0
M  V30 3212 H 299.989 -2.60222 3.25074 0
M  V30 3213 H 302.586 -5.0122 1.86232 0
M  V30 3214 H 302.929 -4.14511 0.385564 0
M  V30 3215 H 303.462 -3.47032 1.94457 0
M  V30 3216 H 300.201 -4.51135 4.7556 0
M  V30 3217 H 299.721 -5.1048 3.14913 0
M  V30 3218 H 301.4 -5.30034 3.71043 0
M  V30 3219 N 301.532 -0.945985 -1.26051 0
M  V30 3220 C 302.781 -0.591836 -1.92822 0
M  V30 3221 C 303.094 0.873956 -1.7499 0
M  V30 3222 O 304.3 1.33769 -2.36259 0
M  V30 3223 C 302.756 -1.00776 -3.45503 0
M  V30 3224 C 302.364 -2.4955 -3.7206 0
M  V30 3225 C 304.108 -0.725735 -4.1825 0
M  V30 3226 C 302.015 -2.84988 -5.18205 0
M  V30 3227 H 300.945 -0.217635 -0.721908 0
M  V30 3228 H 303.596 -1.14927 -1.43052 0
M  V30 3229 H 301.978 -0.378812 -3.94184 0
M  V30 3230 H 303.152 -3.1739 -3.34066 0
M  V30 3231 H 301.467 -2.75133 -3.12555 0
M  V30 3232 H 304.064 -0.966771 -5.25887 0
M  V30 3233 H 304.407 0.337639 -4.14929 0
M  V30 3234 H 304.94 -1.31463 -3.7545 0
M  V30 3235 H 301.679 -3.90307 -5.26631 0
M  V30 3236 H 301.199 -2.21813 -5.57278 0
M  V30 3237 H 302.878 -2.73712 -5.86252 0
M  V30 3238 N 303.011 1.40521 -0.713556 0
M  V30 3239 C 304.26 2.00155 -0.249192 0
M  V30 3240 C 304.573 1.57224 1.16362 0
M  V30 3241 O 305.779 2.09542 1.72639 0
M  V30 3242 C 304.235 3.5773 -0.3946 0
M  V30 3243 C 303.843 4.09635 -1.81392 0
M  V30 3244 C 305.587 4.24499 0.00907364 0
M  V30 3245 C 303.494 5.59707 -1.91003 0
M  V30 3246 H 302.424 0.74868 -0.0894114 0
M  V30 3247 H 305.075 1.60784 -0.884352 0
M  V30 3248 H 303.457 3.94792 0.30911 0
M  V30 3249 H 304.631 3.83955 -2.54785 0
M  V30 3250 H 302.946 3.55456 -2.16888 0
M  V30 3251 H 305.543 5.34683 -0.0420404 0
M  V30 3252 H 305.886 4.02824 1.05065 0
M  V30 3253 H 306.419 3.92536 -0.645007 0
M  V30 3254 H 303.158 5.86234 -2.93275 0
M  V30 3255 H 302.678 5.87258 -1.22019 0
M  V30 3256 H 304.357 6.24776 -1.6812 0
M  V30 3257 N 304.489 0.459591 1.5075 0
M  V30 3258 C 305.735 -0.0994966 2.02556 0
M  V30 3259 C 306.068 -1.40399 1.3417 0
M  V30 3260 O 305.343 -1.88892 0.463683 0
M  V30 3261 C 305.626 -0.295242 3.58888 0
M  V30 3262 C 305.479 1.02947 4.37861 0
M  V30 3263 C 306.798 -1.05502 4.27267 0
M  V30 3264 H 303.917 -0.034686 0.736183 0
M  V30 3265 H 306.559 0.602938 1.8018 0
M  V30 3266 H 304.709 -0.893563 3.78084 0
M  V30 3267 H 306.381 1.66348 4.30263 0
M  V30 3268 H 304.624 1.62885 4.02058 0
M  V30 3269 H 305.295 0.846281 5.45474 0
M  V30 3270 H 307.771 -0.547993 4.12476 0
M  V30 3271 H 306.647 -1.16077 5.36486 0
M  V30 3272 H 306.908 -2.08875 3.89645 0
M  V30 3273 N 305.967 -1.56429 0.191757 0
M  V30 3274 C 307.378 -1.83912 -0.321428 0
M  V30 3275 C 307.729 -1.11231 -1.61623 0
M  V30 3276 O 306.854 -0.37202 -2.13178 0
M  V30 3277 C 307.449 -3.33624 -0.589961 0
M  V30 3278 C 306.008 -3.6153 -1.04753 0
M  V30 3279 C 305.155 -2.7714 -0.0943327 0
M  V30 3280 H 308.106 -1.53161 0.415612 0
M  V30 3281 H 308.127 -3.52213 -1.43966 0
M  V30 3282 H 307.639 -3.86495 0.352588 0
M  V30 3283 H 305.74 -3.14089 -2.00447 0
M  V30 3284 H 305.853 -4.69737 -0.942549 0
M  V30 3285 H 304.217 -2.47638 -0.595589 0
M  V30 3286 H 305 -3.32799 0.842601 0
M  V30 3287 N 307.445 0.0818655 -1.57387 0
M  V30 3288 C 308.693 0.781368 -1.86384 0
M  V30 3289 C 309.014 1.78618 -0.782342 0
M  V30 3290 O 308.284 1.94976 0.190061 0
M  V30 3291 H 306.864 0.291562 -0.687751 0
M  V30 3292 H 309.526 0.060348 -1.94807 0
M  V30 3293 H 308.622 1.3038 -2.83562 0
M  V30 3294 N 308.923 1.53595 0.353017 0
M  V30 3295 C 310.169 1.70638 1.09593 0
M  V30 3296 C 310.502 0.463286 1.88593 0
M  V30 3297 O 309.777 -0.539597 1.86865 0
M  V30 3298 C 310.06 2.96406 2.04489 0
M  V30 3299 C 309.913 4.30901 1.29014 0
M  V30 3300 C 311.232 3.17812 3.0444 0
M  V30 3301 H 308.351 0.620913 0.397034 0
M  V30 3302 H 310.993 1.86254 0.375446 0
M  V30 3303 H 309.143 2.83223 2.65927 0
M  V30 3304 H 310.815 4.55917 0.702638 0
M  V30 3305 H 309.058 4.29741 0.592071 0
M  V30 3306 H 309.729 5.1506 1.98537 0
M  V30 3307 H 312.205 3.30263 2.53112 0
M  V30 3308 H 311.081 4.07223 3.6805 0
M  V30 3309 H 311.342 2.33669 3.75301 0
M  V30 3310 N 310.401 -0.613514 1.45168 0
M  V30 3311 C 311.334 -1.73809 1.47871 0
M  V30 3312 C 312.312 -1.59097 0.33568 0
M  V30 3313 O 313.496 -1.8074 0.535299 0
M  V30 3314 C 310.623 -3.11574 1.32813 0
M  V30 3315 C 309.669 -3.4489 2.50905 0
M  V30 3316 S 310.502 -3.40393 4.13392 0
M  V30 3317 C 311.658 -4.80749 4.00789 0
M  V30 3318 H 311.891 -1.71252 2.43023 0
M  V30 3319 H 309.424 -0.789658 1.32679 0
M  V30 3320 H 311.382 -3.91065 1.24812 0
M  V30 3321 H 310.043 -3.11652 0.391418 0
M  V30 3322 H 309.236 -4.45183 2.36279 0
M  V30 3323 H 308.838 -2.72901 2.55736 0
M  V30 3324 H 311.13 -5.7041 3.65567 0
M  V30 3325 H 312.073 -5.00431 5.00974 0
M  V30 3326 H 312.481 -4.56151 3.32545 0
M  V30 3327 N 311.879 -1.3236 -0.855495 0
M  V30 3328 C 312.811 -1.17052 -1.97057 0
M  V30 3329 C 313.824 -0.10574 -1.62456 0
M  V30 3330 O 315.013 -0.354619 -1.74942 0
M  V30 3331 C 312.113 -0.769305 -3.30053 0
M  V30 3332 C 311.286 -1.9222 -3.929 0
M  V30 3333 C 310.345 -1.50466 -5.04228 0
M  V30 3334 O 309.371 -2.21655 -5.24269 0
M  V30 3335 N 310.573 -0.400209 -5.79119 0
M  V30 3336 H 313.338 -2.13103 -2.1073 0
M  V30 3337 H 310.899 -1.24885 -1.0303 0
M  V30 3338 H 312.891 -0.472407 -4.01933 0
M  V30 3339 H 311.461 0.100025 -3.1244 0
M  V30 3340 H 310.681 -2.38563 -3.13817 0
M  V30 3341 H 311.969 -2.69403 -4.31624 0
M  V30 3342 H 311.367 0.192319 -5.65373 0
M  V30 3343 H 309.924 -0.162912 -6.51596 0
M  V30 3344 N 313.357 1.07166 -1.15556 0
M  V30 3345 C 314.287 2.16403 -0.877046 0
M  V30 3346 C 315.268 1.69217 0.173111 0
M  V30 3347 O 316.453 1.94181 0.027084 0
M  V30 3348 C 313.583 3.45349 -0.367632 0
M  V30 3349 C 312.537 4.05995 -1.35468 0
M  V30 3350 C 311.863 5.30045 -0.704038 0
M  V30 3351 C 313.163 4.45804 -2.72132 0
M  V30 3352 H 314.857 2.39959 -1.79053 0
M  V30 3353 H 312.403 1.15325 -0.862331 0
M  V30 3354 H 314.356 4.21095 -0.160317 0
M  V30 3355 H 313.08 3.21385 0.581326 0
M  V30 3356 H 311.739 3.32296 -1.54839 0
M  V30 3357 H 311.387 5.02373 0.251128 0
M  V30 3358 H 311.087 5.71579 -1.36277 0
M  V30 3359 H 312.611 6.08495 -0.50654 0
M  V30 3360 H 314.025 5.12671 -2.56595 0
M  V30 3361 H 312.422 4.98296 -3.34397 0
M  V30 3362 H 313.492 3.57083 -3.28054 0
M  V30 3363 N 314.835 0.952656 1.25548 0
M  V30 3364 C 316.084 0.602053 1.92505 0
M  V30 3365 C 316.397 -0.864663 1.75451 0
M  V30 3366 O 317.603 -1.32514 2.36965 0
M  V30 3367 C 316.059 1.02607 3.44963 0
M  V30 3368 C 315.667 2.51519 3.70732 0
M  V30 3369 C 317.411 0.747905 4.1786 0
M  V30 3370 C 315.318 2.87732 5.16686 0
M  V30 3371 H 314.248 0.22146 0.720744 0
M  V30 3372 H 316.899 1.15684 1.42441 0
M  V30 3373 H 315.281 0.399712 3.93978 0
M  V30 3374 H 316.455 3.19157 3.32378 0
M  V30 3375 H 314.77 2.76786 3.11092 0
M  V30 3376 H 317.367 0.994647 5.25367 0
M  V30 3377 H 317.71 -0.315629 4.15102 0
M  V30 3378 H 318.243 1.33452 3.74747 0
M  V30 3379 H 314.982 3.93095 5.24554 0
M  V30 3380 H 314.502 2.24765 5.56094 0
M  V30 3381 H 316.181 2.76817 5.84792 0
M  V30 3382 N 316.313 -1.40141 0.720998 0
M  V30 3383 C 317.26 -2.30688 0.071919 0
M  V30 3384 C 318.23 -1.48476 -0.744584 0
M  V30 3385 O 319.415 -1.77201 -0.707423 0
M  V30 3386 C 316.555 -3.34724 -0.839855 0
M  V30 3387 C 315.668 -4.31998 -0.0122438 0
M  V30 3388 C 314.803 -5.23102 -0.923995 0
M  V30 3389 C 313.842 -6.12033 -0.0907969 0
M  V30 3390 N 312.979 -6.95537 -0.957718 0
M  V30 3391 H 317.819 -2.85628 0.849755 0
M  V30 3392 H 315.356 -1.40653 0.430726 0
M  V30 3393 H 317.314 -3.93618 -1.38279 0
M  V30 3394 H 315.944 -2.81274 -1.58381 0
M  V30 3395 H 314.996 -3.74841 0.64794 0
M  V30 3396 H 316.308 -4.94772 0.632595 0
M  V30 3397 H 315.462 -5.86953 -1.53527 0
M  V30 3398 H 314.201 -4.60615 -1.60264 0
M  V30 3399 H 313.206 -5.47207 0.533377 0
M  V30 3400 H 314.431 -6.76581 0.584428 0
M  V30 3401 H 312.377 -6.35633 -1.62192 0
M  V30 3402 H 312.294 -7.55099 -0.36904 0
M  V30 3403 H 313.562 -7.63832 -1.555 0
M  V30 3404 N 317.792 -0.46758 -1.50504 0
M  V30 3405 C 319.04 0.0884469 -2.01906 0
M  V30 3406 C 319.361 1.40532 -1.35188 0
M  V30 3407 O 318.631 1.89515 -0.496079 0
M  V30 3408 H 317.211 0.0356765 -0.746148 0
M  V30 3409 H 319.873 -0.6172 -1.84869 0
M  V30 3410 H 318.969 0.2425 -3.11156 0
M  V30 3411 N 319.27 1.56325 -0.20005 0
M  V30 3412 C 320.202 2.16555 0.750771 0
M  V30 3413 C 321.215 1.12871 1.1732 0
M  V30 3414 O 322.404 1.39943 1.10807 0
M  V30 3415 C 319.504 2.71684 2.02586 0
M  V30 3416 C 318.677 4.00321 1.76244 0
M  V30 3417 C 317.736 4.40227 2.88248 0
M  V30 3418 O 316.762 5.07552 2.57642 0
M  V30 3419 N 317.964 4.04138 4.16717 0
M  V30 3420 H 320.729 2.98772 0.235685 0
M  V30 3421 H 318.29 1.6189 -0.0182594 0
M  V30 3422 H 320.282 2.95363 2.76664 0
M  V30 3423 H 318.852 1.93893 2.45202 0
M  V30 3424 H 318.072 3.84723 0.85919 0
M  V30 3425 H 319.36 4.84279 1.56048 0
M  V30 3426 H 318.758 3.49993 4.44434 0
M  V30 3427 H 317.315 4.32756 4.87407 0
M  V30 3428 N 320.748 -0.0735177 1.57428 0
M  V30 3429 C 321.976 -0.785969 1.9139 0
M  V30 3430 C 322.391 -1.71207 0.795847 0
M  V30 3431 O 321.748 -1.81033 -0.230915 0
M  V30 3432 C 321.799 -1.58107 3.25091 0
M  V30 3433 O 321.52 -0.6922 4.32597 0
M  V30 3434 C 323.021 -2.39467 3.73055 0
M  V30 3435 H 320.241 -0.223558 0.632663 0
M  V30 3436 H 322.785 -0.044302 2.04452 0
M  V30 3437 H 320.94 -2.27503 3.13562 0
M  V30 3438 H 321.354 -1.24504 5.09508 0
M  V30 3439 H 322.828 -2.90716 4.69242 0
M  V30 3440 H 323.305 -3.18913 3.01979 0
M  V30 3441 H 323.911 -1.7523 3.87523 0
M  V30 3442 N 322.226 -1.5378 -0.344866 0
M  V30 3443 C 323.158 -1.77988 -1.44406 0
M  V30 3444 C 324.171 -0.661138 -1.48771 0
M  V30 3445 O 325.36 -0.937842 -1.51877 0
M  V30 3446 C 322.46 -1.86345 -2.8307 0
M  V30 3447 C 321.633 -3.16256 -3.0216 0
M  V30 3448 C 320.692 -3.15588 -4.21059 0
M  V30 3449 O 319.718 -3.89314 -4.15239 0
M  V30 3450 N 320.92 -2.37864 -5.29529 0
M  V30 3451 H 323.685 -2.72839 -1.24012 0
M  V30 3452 H 321.246 -1.52814 -0.534737 0
M  V30 3453 H 323.238 -1.83351 -3.60783 0
M  V30 3454 H 321.808 -0.986858 -2.96614 0
M  V30 3455 H 321.028 -3.32385 -2.11929 0
M  V30 3456 H 322.316 -4.0207 -3.11797 0
M  V30 3457 H 321.714 -1.77514 -5.37127 0
M  V30 3458 H 320.271 -2.40668 -6.05741 0
M  V30 3459 N 323.704 0.605807 -1.45491 0
M  V30 3460 C 324.652 1.73754 -1.54636 0
M  V30 3461 C 325.646 1.64207 -0.416219 0
M  V30 3462 O 326.852 1.69979 -0.592199 0
M  V30 3463 H 323.227 0.574073 -0.485741 0
M  V30 3464 H 325.198 1.63169 -2.49837 0
M  V30 3465 C 323.947 3.12135 -1.53189 0
M  V30 3466 H 323.27 3.20141 -2.39478 0
M  V30 3467 H 324.71 3.91147 -1.63645 0
M  V30 3468 C 323.169 3.35921 -0.256616 0
M  V30 3469 O 323.699 3.96194 0.662798 0
M  V30 3470 N 321.905 2.90204 -0.151751 0
M  V30 3471 H 321.452 2.41336 -0.90081 0
M  V30 3472 H 321.41 3.06492 0.700699 0
M  V30 3473 N 325.182 1.32811 0.848464 0
M  V30 3474 C 326.429 1.23724 1.60308 0
M  V30 3475 C 326.757 -0.1994 1.93475 0
M  V30 3476 O 326.012 -1.15406 1.5805 0
M  V30 3477 C 326.311 2.04831 2.92881 0
M  V30 3478 C 325.977 3.54125 2.79117 0
M  V30 3479 C 324.639 3.94829 2.7507 0
M  V30 3480 C 326.991 4.49036 2.64606 0
M  V30 3481 C 324.319 5.28675 2.544 0
M  V30 3482 C 326.671 5.83033 2.4547 0
M  V30 3483 C 325.335 6.22931 2.39819 0
M  V30 3484 H 324.605 0.452737 0.586609 0
M  V30 3485 H 327.252 1.64301 0.983743 0
M  V30 3486 H 325.557 1.57001 3.58968 0
M  V30 3487 H 327.254 1.95164 3.50303 0
M  V30 3488 H 323.844 3.21801 2.83094 0
M  V30 3489 H 328.028 4.18505 2.66772 0
M  V30 3490 H 323.284 5.58637 2.48465 0
M  V30 3491 H 327.458 6.56186 2.33222 0
M  V30 3492 H 325.085 7.26584 2.23562 0
M  V30 3493 N 326.66 -1.06551 1.16123 0
M  V30 3494 C 327.607 -2.13961 0.865414 0
M  V30 3495 C 328.577 -1.65066 -0.185055 0
M  V30 3496 O 329.762 -1.90732 -0.05083 0
M  V30 3497 C 326.902 -3.43113 0.369776 0
M  V30 3498 C 326.015 -4.05756 1.48276 0
M  V30 3499 C 325.15 -5.22773 0.942414 0
M  V30 3500 C 324.189 -5.77395 2.03179 0
M  V30 3501 N 323.326 -6.85731 1.50721 0
M  V30 3502 H 328.166 -2.38605 1.78527 0
M  V30 3503 H 325.703 -1.17072 0.890646 0
M  V30 3504 H 327.661 -4.17151 0.0640643 0
M  V30 3505 H 326.291 -3.18695 -0.513143 0
M  V30 3506 H 325.343 -3.29292 1.9045 0
M  V30 3507 H 326.655 -4.42351 2.30493 0
M  V30 3508 H 325.809 -6.03827 0.589729 0
M  V30 3509 H 324.548 -4.87618 0.0895191 0
M  V30 3510 H 323.553 -4.94981 2.3932 0
M  V30 3511 H 324.778 -6.14603 2.8886 0
M  V30 3512 H 322.724 -6.52499 0.676811 0
M  V30 3513 H 322.641 -7.21254 2.26557 0
M  V30 3514 H 323.909 -7.7047 1.18303 0
M  V30 3515 N 328.138 -0.959301 -1.25041 0
M  V30 3516 C 329.415 -0.533805 -1.88175 0
M  V30 3517 C 329.795 0.988994 -1.865 0
M  V30 3518 O 329.143 1.85677 -1.33177 0
M  V30 3519 C 329.353 -1.11575 -3.30684 0
M  V30 3520 C 330.701 -1.19548 -4.07423 0
M  V30 3521 O 331.725 -1.06765 -3.39823 0
M  V30 3522 O 330.584 -1.39656 -5.28354 0
M  V30 3523 H 327.678 -0.176772 -0.807887 0
M  V30 3524 H 330.224 -1.05303 -1.33076 0
M  V30 3525 H 328.996 -2.15884 -3.26358 0
M  V30 3526 H 328.619 -0.580059 -3.93346 0
M  V30 3527 N 329.616 1.39756 -0.72842 0
M  V30 3528 C 330.579 2.29012 -0.0927297 0
M  V30 3529 C 331.579 1.45992 0.674025 0
M  V30 3530 O 332.769 1.66749 0.50402 0
M  V30 3531 C 329.901 3.29396 0.878137 0
M  V30 3532 H 331.094 2.86729 -0.879011 0
M  V30 3533 H 328.647 1.48293 -0.493847 0
M  V30 3534 H 329.382 2.76722 1.69101 0
M  V30 3535 H 329.167 3.907 0.331051 0
M  V30 3536 H 330.657 3.96199 1.3197 0
M  V30 3537 N 331.094 0.475555 1.50254 0
M  V30 3538 C 332.341 -0.0778919 2.0235 0
M  V30 3539 C 332.669 -1.39319 1.35722 0
M  V30 3540 O 331.924 -1.89888 0.473395 0
M  V30 3541 C 332.223 -0.305114 3.56095 0
M  V30 3542 C 331.889 0.92903 4.41225 0
M  V30 3543 C 330.551 1.26739 4.6421 0
M  V30 3544 C 332.903 1.75054 4.90923 0
M  V30 3545 C 330.231 2.42724 5.34137 0
M  V30 3546 C 332.583 2.9017 5.62125 0
M  V30 3547 C 331.247 3.24416 5.83362 0
M  V30 3548 H 330.517 -0.0285027 0.740452 0
M  V30 3549 H 333.164 0.630543 1.80821 0
M  V30 3550 H 331.469 -1.09584 3.76163 0
M  V30 3551 H 333.166 -0.747377 3.93974 0
M  V30 3552 H 329.756 0.655428 4.23559 0
M  V30 3553 H 333.94 1.50231 4.73016 0
M  V30 3554 H 329.196 2.69525 5.48786 0
M  V30 3555 H 333.37 3.54169 5.99614 0
M  V30 3556 H 330.997 4.14396 6.37323 0
M  V30 3557 N 332.573 -1.56217 0.208337 0
M  V30 3558 C 333.798 -2.02782 -0.435222 0
M  V30 3559 C 334.223 -1.08738 -1.53485 0
M  V30 3560 O 333.581 -0.0731855 -1.81152 0
M  V30 3561 C 333.629 -3.47687 -0.956335 0
M  V30 3562 O 332.733 -3.56773 -2.06849 0
M  V30 3563 H 332.074 -0.656403 -0.100158 0
M  V30 3564 H 334.604 -2.02033 0.3231 0
M  V30 3565 H 334.614 -3.87745 -1.26955 0
M  V30 3566 H 333.289 -4.15624 -0.15143 0
M  V30 3567 H 331.866 -3.28597 -1.76292 0
M  V30 3568 N 334.051 0.0651679 -1.57465 0
M  V30 3569 C 335.299 0.761555 -1.87202 0
M  V30 3570 C 335.62 1.77778 -0.801243 0
M  V30 3571 O 334.89 1.95166 0.16937 0
M  V30 3572 H 333.47 0.284251 -0.690804 0
M  V30 3573 H 336.132 0.0396827 -1.9486 0
M  V30 3574 H 335.228 1.27365 -2.84929 0
M  V30 3575 N 335.529 1.53961 0.336706 0
M  V30 3576 C 336.945 1.44378 0.680241 0
M  V30 3577 C 337.145 0.606034 1.9217 0
M  V30 3578 O 336.201 0.099688 2.52303 0
M  V30 3579 C 337.514 2.87945 0.8665 0
M  V30 3580 C 339.062 2.97763 0.964682 0
M  V30 3581 C 339.537 4.42453 1.18321 0
M  V30 3582 N 341.028 4.46008 1.25025 0
M  V30 3583 C 341.763 5.55102 1.43697 0
M  V30 3584 N 341.259 6.7419 1.59498 0
M  V30 3585 N 343.052 5.42727 1.463 0
M  V30 3586 H 335.203 2.06918 -0.479455 0
M  V30 3587 H 337.466 0.935634 -0.152619 0
M  V30 3588 H 337.172 3.51691 0.0256937 0
M  V30 3589 H 337.046 3.33293 1.76623 0
M  V30 3590 H 339.433 2.34153 1.796 0
M  V30 3591 H 339.514 2.55766 0.041708 0
M  V30 3592 H 339.158 5.06645 0.356788 0
M  V30 3593 H 339.088 4.82048 2.11985 0
M  V30 3594 H 341.579 3.60196 1.14312 0
M  V30 3595 H 341.892 7.53095 1.734 0
M  V30 3596 H 340.237 6.77123 1.56621 0
M  V30 3597 H 343.428 4.48647 1.33543 0
M  V30 3598 H 343.601 6.27806 1.6051 0
M  V30 3599 N 337.007 -0.598083 1.45811 0
M  V30 3600 C 338.284 -1.35777 1.40797 0
M  V30 3601 C 338.664 -2.10935 0.083462 0
M  V30 3602 O 338.012 -2.08505 -0.934763 0
M  V30 3603 C 338.222 -2.29666 2.62783 0
M  V30 3604 C 339.57 -2.91977 3.08277 0
M  V30 3605 O 340.594 -2.39984 2.63223 0
M  V30 3606 O 339.453 -3.86376 3.86491 0
M  V30 3607 H 336.547 -0.609291 0.55919 0
M  V30 3608 H 339.093 -0.620379 1.57954 0
M  V30 3609 H 337.865 -1.73454 3.50756 0
M  V30 3610 H 337.488 -3.1077 2.48008 0
M  V30 3611 N 338.485 -1.33259 -0.841409 0
M  V30 3612 C 339.71 -1.2775 -1.63385 0
M  V30 3613 C 340.135 0.149188 -1.87507 0
M  V30 3614 O 339.493 1.10498 -1.43736 0
M  V30 3615 C 339.541 -2.05571 -2.96265 0
M  V30 3616 O 338.645 -1.41257 -3.87453 0
M  V30 3617 H 337.986 -0.439627 -0.497618 0
M  V30 3618 H 340.516 -1.75782 -1.04699 0
M  V30 3619 H 340.526 -2.16241 -3.45982 0
M  V30 3620 H 339.201 -3.09309 -2.7803 0
M  V30 3621 H 337.778 -1.39217 -3.45938 0
M  V30 3622 N 339.963 1.05934 -1.16686 0
M  V30 3623 C 341.188 1.83029 -0.975455 0
M  V30 3624 C 341.613 1.82096 0.471452 0
M  V30 3625 O 340.971 1.22443 1.33706 0
M  V30 3626 C 341.019 3.27372 -1.51195 0
M  V30 3627 O 340.123 4.06054 -0.720701 0
M  V30 3628 H 339.464 0.566194 -0.346872 0
M  V30 3629 H 341.994 1.33541 -1.55009 0
M  V30 3630 H 342.004 3.78186 -1.53099 0
M  V30 3631 H 340.679 3.27366 -2.56523 0
M  V30 3632 H 339.256 3.64812 -0.772458 0
M  V30 3633 N 341.441 0.965919 1.2453 0
M  V30 3634 C 342.69 0.622437 1.91856 0
M  V30 3635 C 343.003 -0.846006 1.76358 0
M  V30 3636 O 344.209 -1.29993 2.38357 0
M  V30 3637 C 342.665 1.0626 3.43856 0
M  V30 3638 C 342.273 2.55437 3.68043 0
M  V30 3639 C 344.017 0.792183 4.17043 0
M  V30 3640 C 341.924 2.93196 5.13605 0
M  V30 3641 H 340.854 0.229092 0.718354 0
M  V30 3642 H 343.505 1.17189 1.41206 0
M  V30 3643 H 341.887 0.441476 3.93531 0
M  V30 3644 H 343.061 3.22665 3.28974 0
M  V30 3645 H 341.376 2.8007 3.08139 0
M  V30 3646 H 343.973 1.05031 5.24283 0
M  V30 3647 H 344.316 -0.271584 4.15413 0
M  V30 3648 H 344.849 1.37419 3.73311 0
M  V30 3649 H 341.588 3.98636 5.20355 0
M  V30 3650 H 341.108 2.30651 5.53679 0
M  V30 3651 H 342.787 2.83004 5.81823 0
M  V30 3652 N 342.919 -1.39368 0.735821 0
M  V30 3653 C 344.147 -2.04795 0.294393 0
M  V30 3654 C 344.562 -1.55478 -1.07107 0
M  V30 3655 O 343.919 -0.720038 -1.67695 0
M  V30 3656 C 343.97 -3.6035 0.288071 0
M  V30 3657 O 343.691 -4.07852 1.59963 0
M  V30 3658 C 345.192 -4.42976 -0.169422 0
M  V30 3659 H 342.412 -0.658571 0.128551 0
M  V30 3660 H 344.956 -1.78399 0.999701 0
M  V30 3661 H 343.111 -3.85645 -0.368355 0
M  V30 3662 H 343.525 -5.02181 1.51375 0
M  V30 3663 H 344.999 -5.51864 -0.122687 0
M  V30 3664 H 345.476 -4.22068 -1.21472 0
M  V30 3665 H 346.082 -4.22832 0.457469 0
M  V30 3666 N 344.397 -0.483516 -1.5 0
M  V30 3667 C 345.813 -0.138404 -1.58999 0
M  V30 3668 C 346.013 1.35597 -1.4905 0
M  V30 3669 O 345.069 2.13039 -1.35539 0
M  V30 3670 C 346.382 -0.699658 -2.92447 0
M  V30 3671 C 347.93 -0.664195 -3.05872 0
M  V30 3672 C 348.405 -1.20321 -4.41913 0
M  V30 3673 N 349.896 -1.16315 -4.48358 0
M  V30 3674 C 350.631 -1.55058 -5.52037 0
M  V30 3675 N 350.127 -2.01311 -6.62907 0
M  V30 3676 N 351.92 -1.46584 -5.42651 0
M  V30 3677 H 344.071 -1.45529 -1.5471 0
M  V30 3678 H 346.334 -0.60258 -0.731848 0
M  V30 3679 H 346.04 -1.747 -3.05242 0
M  V30 3680 H 345.914 -0.150194 -3.76901 0
M  V30 3681 H 348.301 0.374272 -2.92717 0
M  V30 3682 H 348.382 -1.25061 -2.23144 0
M  V30 3683 H 348.026 -2.24037 -4.55818 0
M  V30 3684 H 347.956 -0.592896 -5.23252 0
M  V30 3685 H 350.447 -0.824058 -3.68806 0
M  V30 3686 H 350.76 -2.2899 -7.38095 0
M  V30 3687 H 349.105 -2.05273 -6.63994 0
M  V30 3688 H 352.296 -1.10281 -4.54924 0
M  V30 3689 H 352.469 -1.77103 -6.23329 0
M  V30 3690 N 345.875 1.56104 -0.216619 0
M  V30 3691 C 346.805 2.23063 0.690296 0
M  V30 3692 C 347.786 1.20072 1.20485 0
M  V30 3693 O 348.971 1.48643 1.24976 0
M  V30 3694 C 346.101 2.90672 1.90072 0
M  V30 3695 C 345.055 4.00092 1.5202 0
M  V30 3696 C 344.381 4.54972 2.80899 0
M  V30 3697 C 345.681 5.17398 0.71391 0
M  V30 3698 H 347.375 2.99109 0.132038 0
M  V30 3699 H 344.921 1.43866 0.0620664 0
M  V30 3700 H 346.874 3.36204 2.54057 0
M  V30 3701 H 345.598 2.12066 2.48386 0
M  V30 3702 H 344.257 3.55283 0.903839 0
M  V30 3703 H 343.905 3.73102 3.37348 0
M  V30 3704 H 343.605 5.28817 2.56176 0
M  V30 3705 H 345.129 5.0322 3.45836 0
M  V30 3706 H 346.543 5.59342 1.25735 0
M  V30 3707 H 344.94 5.97444 0.563951 0
M  V30 3708 H 346.01 4.84088 -0.280527 0
M  V30 3709 N 347.353 -0.0568162 1.57498 0
M  V30 3710 C 348.764 -0.606858 1.76562 0
M  V30 3711 C 349.115 -1.77114 0.844094 0
M  V30 3712 O 348.24 -2.16376 0.0318911 0
M  V30 3713 C 348.835 -1.10766 3.20182 0
M  V30 3714 C 347.394 -1.60344 3.40539 0
M  V30 3715 C 346.541 -0.529311 2.72201 0
M  V30 3716 H 349.492 0.169393 1.57793 0
M  V30 3717 H 349.513 -1.97602 3.25167 0
M  V30 3718 H 349.025 -0.26006 3.87228 0
M  V30 3719 H 347.126 -2.47379 2.78629 0
M  V30 3720 H 347.239 -1.67006 4.4905 0
M  V30 3721 H 345.603 -0.977893 2.35179 0
M  V30 3722 H 346.386 0.308352 3.41912 0
M  V30 3723 N 348.832 -1.54138 -0.328536 0
M  V30 3724 C 349.762 -1.86167 -1.40939 0
M  V30 3725 C 350.743 -0.718044 -1.54202 0
M  V30 3726 O 351.928 -0.971328 -1.68163 0
M  V30 3727 C 349.058 -2.08461 -2.77779 0
M  V30 3728 C 348.012 -3.24299 -2.7931 0
M  V30 3729 C 347.338 -3.31955 -4.19178 0
M  V30 3730 C 348.638 -4.62065 -2.43502 0
M  V30 3731 H 350.332 -2.76689 -1.14383 0
M  V30 3732 H 347.878 -1.33132 -0.548806 0
M  V30 3733 H 349.831 -2.29453 -3.53454 0
M  V30 3734 H 348.555 -1.14684 -3.05802 0
M  V30 3735 H 347.214 -3.03187 -2.0609 0
M  V30 3736 H 346.862 -2.35745 -4.44335 0
M  V30 3737 H 346.562 -4.09805 -4.2111 0
M  V30 3738 H 348.086 -3.55175 -4.96672 0
M  V30 3739 H 349.5 -4.8297 -3.08889 0
M  V30 3740 H 347.897 -5.42429 -2.56693 0
M  V30 3741 H 348.967 -4.64652 -1.38659 0
M  V30 3742 N 350.31 0.590341 -1.46126 0
M  V30 3743 C 351.273 1.68194 -1.55703 0
M  V30 3744 C 352.273 1.54808 -0.434868 0
M  V30 3745 O 353.463 1.59564 -0.698928 0
M  V30 3746 C 350.595 3.07575 -1.47005 0
M  V30 3747 H 351.788 1.61064 -2.52979 0
M  V30 3748 H 349.341 0.807541 -1.33823 0
M  V30 3749 H 350.076 3.20268 -0.509785 0
M  V30 3750 H 349.861 3.187 -2.28414 0
M  V30 3751 H 351.351 3.87055 -1.56776 0
M  V30 3752 N 351.788 1.33704 0.83433 0
M  V30 3753 C 353.035 1.25417 1.58987 0
M  V30 3754 C 353.363 -0.178869 1.93676 0
M  V30 3755 O 352.618 -1.13723 1.59265 0
M  V30 3756 C 352.917 2.07926 2.90692 0
M  V30 3757 C 352.583 3.57066 2.75345 0
M  V30 3758 C 351.245 3.97724 2.70867 0
M  V30 3759 C 353.597 4.51817 2.59828 0
M  V30 3760 C 350.925 5.31344 2.48778 0
M  V30 3761 C 353.277 5.85604 2.39272 0
M  V30 3762 C 351.941 6.25439 2.33199 0
M  V30 3763 H 351.211 0.458934 0.581774 0
M  V30 3764 H 353.858 1.65335 0.966261 0
M  V30 3765 H 352.163 1.608 3.57282 0
M  V30 3766 H 353.86 1.98868 3.48213 0
M  V30 3767 H 350.45 3.24785 2.79665 0
M  V30 3768 H 354.634 4.21311 2.62319 0
M  V30 3769 H 349.89 5.61241 2.42526 0
M  V30 3770 H 354.064 6.58623 2.2625 0
M  V30 3771 H 351.691 7.28914 2.15843 0
M  V30 3772 N 353.266 -1.05314 1.17247 0
M  V30 3773 C 354.496 -1.81707 0.983166 0
M  V30 3774 C 354.904 -1.83222 -0.471822 0
M  V30 3775 O 354.247 -1.25721 -1.3394 0
M  V30 3776 C 354.309 -3.29134 1.44606 0
M  V30 3777 C 353.973 -3.51304 2.92292 0
M  V30 3778 C 354.97 -3.4353 3.90235 0
M  V30 3779 C 352.655 -3.78306 3.30439 0
M  V30 3780 C 354.649 -3.62442 5.24323 0
M  V30 3781 C 352.336 -3.96866 4.64694 0
M  V30 3782 C 353.334 -3.88933 5.61445 0
M  V30 3783 O 353.022 -4.06976 6.93272 0
M  V30 3784 H 352.754 -0.579476 0.348114 0
M  V30 3785 H 355.308 -1.33705 1.55924 0
M  V30 3786 H 353.538 -3.78046 0.813537 0
M  V30 3787 H 355.227 -3.87049 1.22262 0
M  V30 3788 H 355.993 -3.22648 3.62109 0
M  V30 3789 H 351.872 -3.83585 2.55702 0
M  V30 3790 H 355.416 -3.56165 5.99827 0
M  V30 3791 H 351.313 -4.1724 4.92525 0
M  V30 3792 H 352.081 -4.24209 6.99992 0
M  V30 3793 N 354.744 -0.972509 -1.24016 0
M  V30 3794 C 355.974 -0.653853 -1.9598 0
M  V30 3795 C 356.382 0.781801 -1.72292 0
M  V30 3796 O 355.725 1.53677 -1.00644 0
M  V30 3797 C 355.787 -0.854608 -3.49194 0
M  V30 3798 C 355.451 -2.27082 -3.96589 0
M  V30 3799 C 356.448 -3.24892 -4.05883 0
M  V30 3800 C 354.133 -2.5998 -4.29786 0
M  V30 3801 C 356.127 -4.53684 -4.47716 0
M  V30 3802 C 353.814 -3.88997 -4.71301 0
M  V30 3803 C 354.812 -4.85661 -4.80232 0
M  V30 3804 O 354.5 -6.12376 -5.20818 0
M  V30 3805 H 354.232 -0.242572 -0.630979 0
M  V30 3806 H 356.786 -1.30431 -1.58673 0
M  V30 3807 H 355.016 -0.146985 -3.86421 0
M  V30 3808 H 356.705 -0.534311 -4.02368 0
M  V30 3809 H 357.471 -3.00805 -3.80449 0
M  V30 3810 H 353.35 -1.85457 -4.22051 0
M  V30 3811 H 356.894 -5.29135 -4.54601 0
M  V30 3812 H 352.791 -4.12882 -4.96184 0
M  V30 3813 H 353.559 -6.16013 -5.38953 0
M  V30 3814 N 356.222 1.38976 -0.743202 0
M  V30 3815 C 357.47 1.99948 -0.29417 0
M  V30 3816 C 357.791 1.59279 1.12495 0
M  V30 3817 O 357.061 0.844808 1.76748 0
M  V30 3818 H 355.641 0.739473 -0.105774 0
M  V30 3819 H 358.303 1.699 -0.954986 0
M  V30 3820 H 357.399 3.10142 -0.349056 0
M  V30 3821 N 357.7 0.491464 1.49741 0
M  V30 3822 C 358.633 -0.338464 2.25676 0
M  V30 3823 C 359.611 -0.978676 1.29849 0
M  V30 3824 O 360.795 -1.01064 1.59117 0
M  V30 3825 C 357.922 -1.47588 3.04853 0
M  V30 3826 C 356.968 -0.951 4.15762 0
M  V30 3827 S 357.801 0.150626 5.35288 0
M  V30 3828 C 358.957 -0.990178 6.18018 0
M  V30 3829 H 359.19 0.306068 2.9572 0
M  V30 3830 H 356.723 0.276622 1.51902 0
M  V30 3831 H 358.681 -2.12764 3.51058 0
M  V30 3832 H 357.342 -2.09199 2.34296 0
M  V30 3833 H 356.535 -1.80311 4.70642 0
M  V30 3834 H 356.137 -0.376607 3.72099 0
M  V30 3835 H 358.429 -1.89748 6.50386 0
M  V30 3836 H 359.372 -0.480205 7.0647 0
M  V30 3837 H 359.78 -1.25321 5.50413 0
M  V30 3838 N 359.178 -1.55987 0.224894 0
M  V30 3839 C 360.408 -2.02489 -0.41007 0
M  V30 3840 C 360.816 -1.10391 -1.53657 0
M  V30 3841 O 360.159 -0.106458 -1.83391 0
M  V30 3842 C 360.221 -3.45319 -0.999757 0
M  V30 3843 C 359.885 -4.56999 -0.00827976 0
M  V30 3844 C 360.882 -5.13812 0.793314 0
M  V30 3845 C 358.567 -5.02176 0.111442 0
M  V30 3846 C 360.561 -6.14276 1.7013 0
M  V30 3847 C 358.248 -6.02477 1.02296 0
M  V30 3848 C 359.246 -6.58403 1.81643 0
M  V30 3849 O 358.934 -7.56751 2.71262 0
M  V30 3850 H 358.666 -0.667915 -0.104235 0
M  V30 3851 H 361.22 -2.0257 0.339782 0
M  V30 3852 H 359.45 -3.42318 -1.79876 0
M  V30 3853 H 361.139 -3.7545 -1.54248 0
M  V30 3854 H 361.905 -4.79756 0.711288 0
M  V30 3855 H 357.784 -4.58323 -0.49605 0
M  V30 3856 H 361.328 -6.57854 2.32107 0
M  V30 3857 H 357.225 -6.35954 1.10599 0
M  V30 3858 H 357.993 -7.74286 2.65375 0
M  V30 3859 N 360.656 0.0484629 -1.57525 0
M  V30 3860 C 361.619 1.03956 -2.04269 0
M  V30 3861 C 362.619 1.30211 -0.943496 0
M  V30 3862 O 363.809 1.25539 -1.20771 0
M  V30 3863 C 360.941 2.37742 -2.44319 0
M  V30 3864 H 362.134 0.636182 -2.93075 0
M  V30 3865 H 359.687 0.294811 -1.53494 0
M  V30 3866 H 360.422 2.82866 -1.5861 0
M  V30 3867 H 360.207 2.20021 -3.24551 0
M  V30 3868 H 361.697 3.08936 -2.80978 0
M  V30 3869 N 362.134 1.5431 0.320358 0
M  V30 3870 C 363.364 1.7638 1.07582 0
M  V30 3871 C 363.772 0.513944 1.82086 0
M  V30 3872 O 363.115 -0.525123 1.76035 0
M  V30 3873 C 363.177 2.9055 2.1171 0
M  V30 3874 C 362.841 4.2934 1.56575 0
M  V30 3875 C 363.838 5.10077 1.00586 0
M  V30 3876 C 361.523 4.75893 1.60722 0
M  V30 3877 C 363.517 6.35477 0.494756 0
M  V30 3878 C 361.204 6.0126 1.09224 0
M  V30 3879 C 362.202 6.80886 0.53696 0
M  V30 3880 O 361.89 8.03894 0.0297371 0
M  V30 3881 H 361.622 0.592369 0.325692 0
M  V30 3882 H 364.176 2.02019 0.37116 0
M  V30 3883 H 362.406 2.60489 2.85801 0
M  V30 3884 H 364.095 3.00373 2.73003 0
M  V30 3885 H 364.861 4.75265 0.966869 0
M  V30 3886 H 360.74 4.13957 2.02882 0
M  V30 3887 H 364.284 6.97574 0.0606842 0
M  V30 3888 H 360.181 6.35562 1.12831 0
M  V30 3889 H 360.949 8.18372 0.14486 0
M  V30 3890 N 363.613 -0.582584 1.46437 0
M  V30 3891 C 364.576 -1.67366 1.56592 0
M  V30 3892 C 365.576 -1.54575 0.443072 0
M  V30 3893 O 366.766 -1.59191 0.707381 0
M  V30 3894 C 363.898 -3.06791 1.48634 0
M  V30 3895 H 365.091 -1.5972 2.5383 0
M  V30 3896 H 362.644 -0.800432 1.34249 0
M  V30 3897 H 363.379 -3.19993 0.526763 0
M  V30 3898 H 363.164 -3.17484 2.30101 0
M  V30 3899 H 364.654 -3.86218 1.58826 0
M  V30 3900 N 365.091 -1.34144 -0.827227 0
M  V30 3901 C 366.339 -1.26009 -1.58007 0
M  V30 3902 C 366.66 0.170971 -1.94249 0
M  V30 3903 O 365.93 1.10256 -1.61927 0
M  V30 3904 H 364.51 -0.463414 -0.585881 0
M  V30 3905 H 367.172 -1.68005 -0.987951 0
M  V30 3906 H 366.268 -1.86187 -2.50481 0
M  V30 3907 N 366.569 1.04691 -1.17803 0
M  V30 3908 C 367.815 1.78181 -0.980977 0
M  V30 3909 C 368.17 1.86191 0.484825 0
M  V30 3910 O 367.463 1.35436 1.35527 0
M  V30 3911 C 367.657 3.21467 -1.56186 0
M  V30 3912 C 367.486 3.27422 -3.08261 0
M  V30 3913 C 366.256 3.36415 -3.77032 0
M  V30 3914 C 368.454 3.15947 -4.0581 0
M  V30 3915 N 366.436 3.31554 -5.16667 0
M  V30 3916 C 367.807 3.18514 -5.31929 0
M  V30 3917 C 369.862 2.99945 -3.97413 0
M  V30 3918 C 368.565 3.06723 -6.50625 0
M  V30 3919 C 370.591 2.89497 -5.15699 0
M  V30 3920 C 369.953 2.92702 -6.40706 0
M  V30 3921 H 366.052 0.6641 -0.412911 0
M  V30 3922 H 368.636 1.24762 -1.49474 0
M  V30 3923 H 366.807 3.73245 -1.07436 0
M  V30 3924 H 368.539 3.8322 -1.30093 0
M  V30 3925 H 365.294 3.41887 -3.27735 0
M  V30 3926 H 365.718 3.3258 -5.89678 0
M  V30 3927 H 370.36 2.96302 -3.01604 0
M  V30 3928 H 368.078 3.0912 -7.46639 0
M  V30 3929 H 371.664 2.78179 -5.10987 0
M  V30 3930 H 370.544 2.84697 -7.30696 0
M  V30 3931 N 368.047 0.979072 1.23499 0
M  V30 3932 C 369.294 0.647219 1.91878 0
M  V30 3933 C 369.622 -0.819074 1.76413 0
M  V30 3934 O 368.877 -1.60616 1.11808 0
M  V30 3935 C 369.176 0.981932 3.43646 0
M  V30 3936 C 368.842 2.43822 3.79291 0
M  V30 3937 C 367.504 2.83622 3.88731 0
M  V30 3938 C 369.856 3.3828 3.96505 0
M  V30 3939 C 367.184 4.16897 4.12812 0
M  V30 3940 C 369.536 4.71197 4.22085 0
M  V30 3941 C 368.2 5.10758 4.29747 0
M  V30 3942 H 367.47 0.236834 0.702133 0
M  V30 3943 H 370.117 1.23268 1.46551 0
M  V30 3944 H 368.422 0.314365 3.90537 0
M  V30 3945 H 370.119 0.703395 3.94783 0
M  V30 3946 H 366.709 2.11966 3.72516 0
M  V30 3947 H 370.893 3.0871 3.88603 0
M  V30 3948 H 366.149 4.47157 4.16966 0
M  V30 3949 H 370.323 5.44348 4.34348 0
M  V30 3950 H 367.95 6.1405 4.48159 0
M  V30 3951 N 369.525 -1.3858 0.750561 0
M  V30 3952 C 370.755 -2.04175 0.31564 0
M  V30 3953 C 371.163 -1.56726 -1.05989 0
M  V30 3954 O 370.506 -0.734225 -1.68389 0
M  V30 3955 C 370.568 -3.58585 0.256389 0
M  V30 3956 C 370.232 -4.29077 1.57296 0
M  V30 3957 C 371.229 -4.54656 2.52159 0
M  V30 3958 C 368.914 -4.67324 1.84156 0
M  V30 3959 C 370.908 -5.17512 3.72103 0
M  V30 3960 C 368.595 -5.29905 3.04374 0
M  V30 3961 C 369.593 -5.54933 3.98168 0
M  V30 3962 O 369.281 -6.16212 5.16273 0
M  V30 3963 H 369.013 -0.662742 0.133226 0
M  V30 3964 H 371.567 -1.78313 1.01948 0
M  V30 3965 H 369.797 -3.83406 -0.503677 0
M  V30 3966 H 371.486 -4.05628 -0.148612 0
M  V30 3967 H 372.252 -4.25539 2.32683 0
M  V30 3968 H 368.131 -4.47191 1.11988 0
M  V30 3969 H 371.675 -5.36963 4.45327 0
M  V30 3970 H 367.572 -5.58444 3.23745 0
M  V30 3971 H 368.34 -6.34701 5.16815 0
M  V30 3972 N 371.003 -0.499398 -1.49478 0
M  V30 3973 C 371.933 0.269244 -2.31943 0
M  V30 3974 C 372.914 0.964054 -1.40143 0
M  V30 3975 O 374.099 0.955767 -1.69052 0
M  V30 3976 C 371.229 1.33504 -3.20615 0
M  V30 3977 C 370.183 0.760202 -4.21195 0
M  V30 3978 C 369.509 1.9264 -4.98792 0
M  V30 3979 C 370.809 -0.247661 -5.21712 0
M  V30 3980 H 372.503 -0.419082 -2.96452 0
M  V30 3981 H 370.049 -0.202988 -1.42562 0
M  V30 3982 H 372.002 1.88048 -3.77115 0
M  V30 3983 H 370.726 2.05253 -2.54045 0
M  V30 3984 H 369.385 0.23653 -3.65836 0
M  V30 3985 H 369.033 2.63154 -4.28671 0
M  V30 3986 H 368.733 1.54785 -5.66847 0
M  V30 3987 H 370.257 2.4762 -5.58137 0
M  V30 3988 H 371.671 0.209579 -5.72917 0
M  V30 3989 H 370.068 -0.541962 -5.97648 0
M  V30 3990 H 371.138 -1.16409 -4.7072 0
M  V30 3991 N 372.481 1.55866 -0.233164 0
M  V30 3992 C 373.429 2.22176 0.68851 0
M  V30 3993 C 374.423 1.20487 1.19076 0
M  V30 3994 O 375.629 1.38536 1.14925 0
M  V30 3995 H 372.004 0.712511 0.240483 0
M  V30 3996 H 373.975 2.98212 0.105935 0
M  V30 3997 C 372.724 2.92446 1.88071 0
M  V30 3998 H 372.047 3.70458 1.50337 0
M  V30 3999 H 373.487 3.42226 2.50314 0
M  V30 4000 C 371.946 1.95555 2.74335 0
M  V30 4001 O 372.476 1.47986 3.73447 0
M  V30 4002 N 370.682 1.62953 2.40613 0
M  V30 4003 H 370.229 2.01831 1.60069 0
M  V30 4004 H 370.187 0.983886 2.98609 0
M  V30 4005 N 373.959 -0.0401083 1.57549 0
M  V30 4006 C 375.206 -0.733125 1.88763 0
M  V30 4007 C 375.534 -1.75946 0.829058 0
M  V30 4008 O 374.789 -1.94949 -0.171323 0
M  V30 4009 C 375.088 -1.44902 3.26708 0
M  V30 4010 C 374.754 -0.559707 4.47413 0
M  V30 4011 C 373.416 -0.314731 4.8017 0
M  V30 4012 C 375.768 0.0549743 5.21171 0
M  V30 4013 C 373.096 0.553886 5.8408 0
M  V30 4014 C 375.448 0.911229 6.26003 0
M  V30 4015 C 374.112 1.16577 6.57241 0
M  V30 4016 H 373.382 -0.268269 0.690733 0
M  V30 4017 H 376.029 0.00679408 1.91499 0
M  V30 4018 H 374.334 -2.26197 3.1991 0
M  V30 4019 H 376.031 -1.99058 3.48105 0
M  V30 4020 H 372.621 -0.760793 4.21794 0
M  V30 4021 H 376.805 -0.121344 4.96152 0
M  V30 4022 H 372.061 0.759518 6.06664 0
M  V30 4023 H 376.235 1.3941 6.82303 0
M  V30 4024 H 373.862 1.84058 7.37582 0
M  V30 4025 N 375.437 -1.54477 -0.31217 0
M  V30 4026 C 376.683 -1.73483 -1.0503 0
M  V30 4027 C 377.016 -0.513125 -1.87298 0
M  V30 4028 O 376.291 0.489864 -1.8823 0
M  V30 4029 C 376.574 -3.01723 -1.96558 0
M  V30 4030 C 376.427 -4.3417 -1.17545 0
M  V30 4031 C 377.746 -3.25772 -2.95907 0
M  V30 4032 H 374.865 -0.631222 -0.380432 0
M  V30 4033 H 377.507 -1.87184 -0.325932 0
M  V30 4034 H 375.657 -2.90174 -2.58324 0
M  V30 4035 H 377.329 -4.5762 -0.581513 0
M  V30 4036 H 375.572 -4.31159 -0.477925 0
M  V30 4037 H 376.243 -5.20143 -1.84811 0
M  V30 4038 H 378.719 -3.36857 -2.44267 0
M  V30 4039 H 377.595 -4.16838 -3.57123 0
M  V30 4040 H 377.856 -2.43537 -3.68974 0
M  V30 4041 N 376.915 0.57481 -1.46744 0
M  V30 4042 C 378.143 1.35856 -1.56047 0
M  V30 4043 C 378.558 1.87691 -0.204365 0
M  V30 4044 O 377.915 1.64049 0.79963 0
M  V30 4045 C 377.966 2.54066 -2.57163 0
M  V30 4046 O 377.687 2.04377 -3.87507 0
M  V30 4047 C 379.188 3.46514 -2.76483 0
M  V30 4048 H 376.408 0.414754 -0.527466 0
M  V30 4049 H 378.952 0.698035 -1.92218 0
M  V30 4050 H 377.107 3.16092 -2.23974 0
M  V30 4051 H 377.521 2.81419 -4.4261 0
M  V30 4052 H 378.995 4.25919 -3.51137 0
M  V30 4053 H 379.472 3.98951 -1.83671 0
M  V30 4054 H 380.078 2.90318 -3.10799 0
M  V30 4055 N 378.394 1.34581 0.820102 0
M  V30 4056 C 379.304 1.28471 1.96297 0
M  V30 4057 C 380.32 0.191902 1.72939 0
M  V30 4058 O 381.496 0.418879 1.96996 0
M  V30 4059 C 378.561 1.04281 3.30645 0
M  V30 4060 C 377.622 2.22745 3.66992 0
M  V30 4061 C 376.855 1.997 4.9493 0
M  V30 4062 O 377.078 0.956656 5.6232 0
M  V30 4063 O 376.012 2.86723 5.2922 0
M  V30 4064 H 379.838 2.24624 2.04396 0
M  V30 4065 H 377.423 1.14816 0.955913 0
M  V30 4066 H 379.305 0.925841 4.11104 0
M  V30 4067 H 377.98 0.111697 3.23507 0
M  V30 4068 H 376.887 2.40003 2.86966 0
M  V30 4069 H 378.22 3.14257 3.78819 0
M  V30 4070 N 379.872 -1.04064 1.18357 0
M  V30 4071 C 380.782 -2.15569 0.925596 0
M  V30 4072 C 381.798 -1.7365 -0.110295 0
M  V30 4073 O 382.974 -2.01273 0.0716218 0
M  V30 4074 C 380.039 -3.43704 0.454836 0
M  V30 4075 C 379.1 -4.00004 1.55869 0
M  V30 4076 C 378.333 -5.22023 1.1103 0
M  V30 4077 O 378.556 -5.70392 -0.0309756 0
M  V30 4078 O 377.49 -5.70856 1.90805 0
M  V30 4079 H 381.316 -2.40187 1.8586 0
M  V30 4080 H 378.901 -1.1402 0.965394 0
M  V30 4081 H 380.783 -4.20923 0.200382 0
M  V30 4082 H 379.458 -3.20559 -0.449876 0
M  V30 4083 H 378.365 -3.24172 1.86716 0
M  V30 4084 H 379.698 -4.2749 2.43953 0
M  V30 4085 N 381.35 -0.985608 -1.22978 0
M  V30 4086 C 382.596 -0.65836 -1.91816 0
M  V30 4087 C 382.929 0.806692 -1.76653 0
M  V30 4088 O 382.204 1.58252 -1.13078 0
M  V30 4089 C 382.487 -1.056 -3.44268 0
M  V30 4090 C 382.34 -2.57906 -3.68516 0
M  V30 4091 C 383.659 -0.603781 -4.35939 0
M  V30 4092 H 380.778 -0.24065 -0.696604 0
M  V30 4093 H 383.42 -1.22783 -1.44998 0
M  V30 4094 H 381.57 -0.571445 -3.84274 0
M  V30 4095 H 383.242 -3.13976 -3.3796 0
M  V30 4096 H 381.485 -3.00305 -3.13048 0
M  V30 4097 H 382.156 -2.80779 -4.75255 0
M  V30 4098 H 384.632 -1.01987 -4.03408 0
M  V30 4099 H 383.508 -0.910383 -5.41298 0
M  V30 4100 H 383.769 0.495761 -4.39312 0
M  V30 4101 N 382.828 1.3818 -0.7579 0
M  V30 4102 C 383.738 2.3421 -0.135247 0
M  V30 4103 C 384.754 1.59487 0.695683 0
M  V30 4104 O 385.93 1.91657 0.618832 0
M  V30 4105 C 382.995 3.3862 0.744139 0
M  V30 4106 C 382.056 4.2918 -0.101658 0
M  V30 4107 C 381.289 5.28603 0.735851 0
M  V30 4108 O 381.512 5.35166 1.97366 0
M  V30 4109 O 380.446 6.01707 0.152372 0
M  V30 4110 H 384.272 2.8916 -0.928436 0
M  V30 4111 H 381.857 1.40101 -0.518855 0
M  V30 4112 H 383.739 4.02539 1.2466 0
M  V30 4113 H 382.414 2.86019 1.51575 0
M  V30 4114 H 381.321 3.68407 -0.650167 0
M  V30 4115 H 382.654 4.85048 -0.836024 0
M  V30 4116 N 384.306 0.507319 1.49211 0
M  V30 4117 C 385.254 -0.281364 2.30892 0
M  V30 4118 C 386.248 -0.95687 1.39787 0
M  V30 4119 O 387.454 -0.883838 1.56807 0
M  V30 4120 H 383.829 -0.109597 0.743971 0
M  V30 4121 H 385.8 0.42744 2.95323 0
M  V30 4122 C 384.549 -1.32918 3.21291 0
M  V30 4123 H 383.872 -0.818799 3.91326 0
M  V30 4124 H 385.312 -1.85288 3.81372 0
M  V30 4125 C 383.771 -2.35074 2.41333 0
M  V30 4126 O 384.301 -3.4108 2.12197 0
M  V30 4127 N 382.507 -2.07705 2.03241 0
M  V30 4128 H 382.054 -1.2152 2.27136 0
M  V30 4129 H 382.012 -2.76283 1.50051 0
M  V30 4130 N 385.784 -1.5574 0.241426 0
M  V30 4131 C 387.195 -1.84842 -0.262755 0
M  V30 4132 C 387.546 -1.16317 -1.58003 0
M  V30 4133 O 386.671 -0.439653 -2.11887 0
M  V30 4134 C 387.266 -3.35332 -0.483523 0
M  V30 4135 C 385.825 -3.6468 -0.931977 0
M  V30 4136 C 384.972 -2.77299 -0.0061151 0
M  V30 4137 H 387.923 -1.51761 0.464129 0
M  V30 4138 H 387.944 -3.56615 -1.32688 0
M  V30 4139 H 387.456 -3.85178 0.47537 0
M  V30 4140 H 385.557 -3.20307 -1.90353 0
M  V30 4141 H 385.67 -4.72498 -0.792628 0
M  V30 4142 H 384.034 -2.49408 -0.516503 0
M  V30 4143 H 384.817 -3.2995 0.948052 0
M  V30 4144 N 387.262 0.0317525 -1.57568 0
M  V30 4145 C 388.172 1.05021 -2.0978 0
M  V30 4146 C 389.188 1.39809 -1.03583 0
M  V30 4147 O 390.364 1.49182 -1.35302 0
M  V30 4148 C 387.429 2.33301 -2.56459 0
M  V30 4149 C 386.49 2.0512 -3.77127 0
M  V30 4150 C 385.723 3.27283 -4.2157 0
M  V30 4151 O 385.946 4.37861 -3.65559 0
M  V30 4152 O 384.88 3.13141 -5.14029 0
M  V30 4153 H 388.706 0.636505 -2.96955 0
M  V30 4154 H 386.291 0.248559 -1.47318 0
M  V30 4155 H 388.173 3.08722 -2.86825 0
M  V30 4156 H 386.848 2.73973 -1.72397 0
M  V30 4157 H 385.755 1.27276 -3.51784 0
M  V30 4158 H 387.088 1.69305 -4.62165 0
M  V30 4159 N 388.74 1.54641 0.303973 0
M  V30 4160 C 389.687 1.85386 1.37479 0
M  V30 4161 C 390.657 0.702528 1.50512 0
M  V30 4162 O 391.842 0.950867 1.65418 0
M  V30 4163 C 388.982 2.10413 2.73533 0
M  V30 4164 C 388.095 3.38049 2.68974 0
M  V30 4165 C 387.23 3.52934 3.97002 0
M  V30 4166 C 386.269 4.74373 3.86829 0
M  V30 4167 N 385.406 4.8608 5.06627 0
M  V30 4168 H 390.246 2.76732 1.1056 0
M  V30 4169 H 387.783 1.37034 0.534805 0
M  V30 4170 H 389.741 2.22919 3.52652 0
M  V30 4171 H 388.371 1.22338 2.98719 0
M  V30 4172 H 387.423 3.3418 1.81736 0
M  V30 4173 H 388.735 4.27288 2.57346 0
M  V30 4174 H 387.889 3.65088 4.84557 0
M  V30 4175 H 386.628 2.61824 4.1146 0
M  V30 4176 H 385.633 4.62255 2.97658 0
M  V30 4177 H 386.858 5.66888 3.73918 0
M  V30 4178 H 384.804 3.97891 5.21554 0
M  V30 4179 H 384.721 5.69315 4.9741 0
M  V30 4180 H 385.989 5.02587 5.95841 0
M  V30 4181 N 390.218 -0.567019 1.47046 0
M  V30 4182 C 391.446 -1.35027 1.56765 0
M  V30 4183 C 391.861 -1.8758 0.214316 0
M  V30 4184 O 391.218 -1.64471 -0.790919 0
M  V30 4185 C 391.269 -2.52698 2.58507 0
M  V30 4186 O 390.99 -2.0232 3.88585 0
M  V30 4187 C 392.491 -3.45043 2.78316 0
M  V30 4188 H 389.711 -0.41195 0.529658 0
M  V30 4189 H 392.255 -0.687832 1.92585 0
M  V30 4190 H 390.41 -3.149 2.25648 0
M  V30 4191 H 390.824 -2.79068 4.44096 0
M  V30 4192 H 392.298 -4.2405 3.53391 0
M  V30 4193 H 392.775 -3.97971 1.85784 0
M  V30 4194 H 393.381 -2.88665 3.12334 0
M  V30 4195 N 391.696 -1.35014 -0.812953 0
M  V30 4196 C 392.945 -1.27269 -1.56479 0
M  V30 4197 C 393.258 0.152771 -1.95002 0
M  V30 4198 O 394.464 0.352451 -2.69203 0
M  V30 4199 C 392.92 -2.23159 -2.82362 0
M  V30 4200 C 392.528 -3.71016 -2.511 0
M  V30 4201 C 394.272 -2.24342 -3.60376 0
M  V30 4202 C 392.179 -4.58746 -3.73237 0
M  V30 4203 H 391.109 -0.472829 -0.587324 0
M  V30 4204 H 393.76 -1.6024 -0.894171 0
M  V30 4205 H 392.142 -1.83151 -3.51101 0
M  V30 4206 H 393.316 -4.1962 -1.90409 0
M  V30 4207 H 391.631 -3.72378 -1.86343 0
M  V30 4208 H 394.228 -2.87107 -4.51081 0
M  V30 4209 H 394.571 -1.24542 -3.97234 0
M  V30 4210 H 395.104 -2.62846 -2.98591 0
M  V30 4211 H 391.843 -5.59521 -3.41492 0
M  V30 4212 H 391.363 -4.14871 -4.33176 0
M  V30 4213 H 393.042 -4.73852 -4.40537 0
M  V30 4214 N 393.175 1.03435 -1.18907 0
M  V30 4215 C 394.586 1.58195 -0.991523 0
M  V30 4216 C 394.937 1.90801 0.457081 0
M  V30 4217 O 394.062 1.70272 1.33553 0
M  V30 4218 C 394.657 2.87432 -1.79355 0
M  V30 4219 C 393.216 3.38785 -1.64017 0
M  V30 4220 C 392.363 2.12292 -1.78402 0
M  V30 4221 H 395.314 0.860299 -1.33359 0
M  V30 4222 H 395.335 3.58096 -1.28638 0
M  V30 4223 H 394.847 2.63669 -2.84781 0
M  V30 4224 H 392.948 3.67547 -0.611536 0
M  V30 4225 H 393.061 4.12186 -2.44212 0
M  V30 4226 H 391.425 2.23901 -1.2141 0
M  V30 4227 H 392.208 1.90977 -2.85277 0
M  V30 4228 N 394.653 0.992116 1.22453 0
M  V30 4229 C 395.583 0.561677 2.26644 0
M  V30 4230 C 396.564 -0.411055 1.65059 0
M  V30 4231 O 397.749 -0.301861 1.9184 0
M  V30 4232 C 394.879 -0.125247 3.47074 0
M  V30 4233 C 393.833 0.765948 4.21091 0
M  V30 4234 C 393.159 -0.0538484 5.34673 0
M  V30 4235 C 394.459 2.06242 4.79856 0
M  V30 4236 H 396.153 1.43259 2.62902 0
M  V30 4237 H 393.699 0.690283 1.26377 0
M  V30 4238 H 395.652 -0.437764 4.1912 0
M  V30 4239 H 394.376 -1.03069 3.0991 0
M  V30 4240 H 393.035 1.0621 3.50878 0
M  V30 4241 H 392.683 -0.960188 4.9375 0
M  V30 4242 H 392.383 0.539415 5.85119 0
M  V30 4243 H 393.907 -0.360477 6.09535 0
M  V30 4244 H 395.321 1.8139 5.43848 0
M  V30 4245 H 393.718 2.60444 5.40638 0
M  V30 4246 H 394.788 2.74167 3.99951 0
M  V30 4247 N 396.131 -1.37776 0.765217 0
M  V30 4248 C 397.094 -2.28686 0.153416 0
M  V30 4249 C 398.094 -1.47727 -0.635081 0
M  V30 4250 O 399.284 -1.68027 -0.459632 0
M  V30 4251 C 396.416 -3.31608 -0.790495 0
M  V30 4252 H 397.609 -2.84297 0.954723 0
M  V30 4253 H 395.162 -1.46932 0.53299 0
M  V30 4254 H 395.897 -2.81109 -1.61705 0
M  V30 4255 H 395.682 -3.9144 -0.227348 0
M  V30 4256 H 397.172 -3.99559 -1.21419 0
M  V30 4257 N 397.609 -0.515225 -1.4894 0
M  V30 4258 C 398.858 0.0261361 -2.01683 0
M  V30 4259 C 399.171 1.36719 -1.39883 0
M  V30 4260 O 400.377 1.99606 -1.84037 0
M  V30 4261 C 398.833 0.0970111 -3.59769 0
M  V30 4262 C 398.441 -1.23825 -4.30548 0
M  V30 4263 C 400.185 0.587981 -4.20408 0
M  V30 4264 C 398.092 -1.12877 -5.80528 0
M  V30 4265 H 397.022 0.0135398 -0.753878 0
M  V30 4266 H 399.673 -0.656787 -1.71343 0
M  V30 4267 H 398.055 0.844694 -3.86886 0
M  V30 4268 H 399.229 -2.00034 -4.15118 0
M  V30 4269 H 397.544 -1.66379 -3.81716 0
M  V30 4270 H 400.141 0.68763 -5.3026 0
M  V30 4271 H 400.484 1.59026 -3.84729 0
M  V30 4272 H 401.017 -0.103582 -3.97665 0
M  V30 4273 H 397.756 -2.10575 -6.20756 0
M  V30 4274 H 397.276 -0.407799 -5.98412 0
M  V30 4275 H 398.955 -0.813332 -6.41868 0
M  V30 4276 N 399.087 1.5561 -0.249682 0
M  V30 4277 C 400.327 2.00916 0.37579 0
M  V30 4278 C 400.691 1.13409 1.54927 0
M  V30 4279 O 401.892 1.48183 2.24266 0
M  V30 4280 C 400.163 3.48949 0.772633 0
M  V30 4281 S 401.722 4.16261 1.38824 0
M  V30 4282 H 398.54 0.70112 0.118117 0
M  V30 4283 H 401.142 1.92052 -0.365567 0
M  V30 4284 H 399.846 4.103 -0.090683 0
M  V30 4285 H 399.377 3.61745 1.5461 0
M  V30 4286 H 401.392 4.17778 2.67724 0
M  V30 4287 N 400.565 -0.0233959 1.57583 0
M  V30 4288 C 401.814 -0.712133 1.8871 0
M  V30 4289 C 402.127 -1.76217 0.848944 0
M  V30 4290 O 403.333 -2.50389 1.04964 0
M  V30 4291 C 401.789 -1.3177 3.3491 0
M  V30 4292 C 401.397 -0.303715 4.46969 0
M  V30 4293 C 403.141 -1.98598 3.75179 0
M  V30 4294 C 401.048 -0.917945 5.84233 0
M  V30 4295 H 399.978 -0.269735 0.704101 0
M  V30 4296 H 402.629 0.0333114 1.8347 0
M  V30 4297 H 401.011 -2.11304 3.34913 0
M  V30 4298 H 402.185 0.465325 4.58445 0
M  V30 4299 H 400.5 0.2628 4.1557 0
M  V30 4300 H 403.097 -2.45416 4.75053 0
M  V30 4301 H 403.44 -2.80659 3.07468 0
M  V30 4302 H 403.973 -1.25831 3.77374 0
M  V30 4303 H 400.712 -0.136633 6.55358 0
M  V30 4304 H 400.232 -1.65669 5.76467 0
M  V30 4305 H 401.911 -1.4236 6.31144 0
M  V30 4306 N 402.043 -1.548 -0.295768 0
M  V30 4307 C 403.268 -1.78653 -1.05346 0
M  V30 4308 C 403.693 -0.546894 -1.79974 0
M  V30 4309 O 403.051 0.502763 -1.7419 0
M  V30 4310 C 403.099 -2.99679 -2.00561 0
M  V30 4311 O 402.203 -2.7317 -3.08953 0
M  V30 4312 H 401.544 -0.59116 -0.302367 0
M  V30 4313 H 404.074 -2.01895 -0.331598 0
M  V30 4314 H 404.084 -3.27793 -2.42932 0
M  V30 4315 H 402.759 -3.89562 -1.4565 0
M  V30 4316 H 401.336 -2.56089 -2.71059 0
M  V30 4317 N 403.521 0.559213 -1.47345 0
M  V30 4318 C 404.454 1.68201 -1.5422 0
M  V30 4319 C 405.432 1.57742 -0.394497 0
M  V30 4320 O 406.616 1.78628 -0.60201 0
M  V30 4321 C 403.743 3.0643 -1.44285 0
M  V30 4322 C 402.789 3.3534 -2.63532 0
M  V30 4323 S 403.622 3.24816 -4.25741 0
M  V30 4324 C 404.778 4.65542 -4.18355 0
M  V30 4325 H 405.011 1.62114 -2.49211 0
M  V30 4326 H 402.544 0.739871 -1.35519 0
M  V30 4327 H 404.502 3.86164 -1.3924 0
M  V30 4328 H 403.163 3.09984 -0.506816 0
M  V30 4329 H 402.356 4.36107 -2.52639 0
M  V30 4330 H 401.958 2.63221 -2.65689 0
M  V30 4331 H 404.25 5.56449 -3.86485 0
M  V30 4332 H 405.193 4.81493 -5.19202 0
M  V30 4333 H 405.601 4.43495 -3.49246 0
M  V30 4334 N 404.999 1.35443 0.805782 0
M  V30 4335 C 405.962 1.28301 1.89925 0
M  V30 4336 C 406.962 0.194285 1.59622 0
M  V30 4337 O 408.152 0.448036 1.6834 0
M  V30 4338 C 405.284 0.984997 3.2636 0
M  V30 4339 H 406.477 2.2553 1.97677 0
M  V30 4340 H 404.03 1.19979 1.00173 0
M  V30 4341 H 404.765 0.016603 3.24296 0
M  V30 4342 H 404.55 1.77269 3.4974 0
M  V30 4343 H 406.04 0.960651 4.064 0
M  V30 4344 N 406.477 -1.02803 1.19454 0
M  V30 4345 C 407.726 -1.7562 0.991996 0
M  V30 4346 C 408.039 -1.89672 -0.477901 0
M  V30 4347 O 409.245 -2.59468 -0.799287 0
M  V30 4348 C 407.701 -3.15812 1.72601 0
M  V30 4349 C 407.309 -3.0981 3.23607 0
M  V30 4350 C 409.053 -3.92918 1.60674 0
M  V30 4351 C 406.96 -4.44939 3.89594 0
M  V30 4352 H 405.89 -0.658352 0.367543 0
M  V30 4353 H 408.541 -1.15044 1.42959 0
M  V30 4354 H 406.923 -3.7686 1.21624 0
M  V30 4355 H 408.097 -2.58138 3.81709 0
M  V30 4356 H 406.412 -2.46201 3.35819 0
M  V30 4357 H 409.009 -4.9287 2.07323 0
M  V30 4358 H 409.352 -4.12502 0.561025 0
M  V30 4359 H 409.885 -3.38472 2.09001 0
M  V30 4360 H 406.624 -4.30559 4.94267 0
M  V30 4361 H 406.144 -4.96664 3.36281 0
M  V30 4362 H 407.823 -5.1382 3.93189 0
M  V30 4363 N 407.956 -0.998596 -1.21925 0
M  V30 4364 C 409.202 -0.678667 -1.91107 0
M  V30 4365 C 409.535 0.78791 -1.77498 0
M  V30 4366 O 408.81 1.57043 -1.1475 0
M  V30 4367 C 409.093 -1.09245 -3.43129 0
M  V30 4368 C 408.946 -2.61801 -3.6576 0
M  V30 4369 C 410.265 -0.649984 -4.35274 0
M  V30 4370 H 407.384 -0.248025 -0.694012 0
M  V30 4371 H 410.026 -1.24314 -1.43688 0
M  V30 4372 H 408.176 -0.612171 -3.83647 0
M  V30 4373 H 409.848 -3.17543 -3.34611 0
M  V30 4374 H 408.091 -3.03609 -3.09845 0
M  V30 4375 H 408.762 -2.85804 -4.7225 0
M  V30 4376 H 411.238 -1.0626 -4.02303 0
M  V30 4377 H 410.114 -0.967743 -5.40302 0
M  V30 4378 H 410.375 0.449139 -4.39813 0
M  V30 4379 N 409.434 1.37368 -0.772513 0
M  V30 4380 C 410.662 2.03942 -0.348588 0
M  V30 4381 C 411.077 1.58264 1.02947 0
M  V30 4382 O 410.434 0.764246 1.65727 0
M  V30 4383 C 410.485 3.5946 -0.38351 0
M  V30 4384 O 410.206 4.03468 -1.70721 0
M  V30 4385 C 411.707 4.4327 0.0519152 0
M  V30 4386 H 408.927 0.654931 -0.145966 0
M  V30 4387 H 411.471 1.75686 -1.04665 0
M  V30 4388 H 409.626 3.86486 0.265978 0
M  V30 4389 H 410.04 4.97991 -1.64636 0
M  V30 4390 H 411.514 5.51995 -0.0236733 0
M  V30 4391 H 411.991 4.2514 1.10238 0
M  V30 4392 H 412.597 4.21471 -0.569415 0
M  V30 4393 N 410.912 0.523116 1.48665 0
M  V30 4394 C 412.161 -0.01544 2.01694 0
M  V30 4395 C 412.474 -1.35975 1.40606 0
M  V30 4396 O 413.68 -1.98627 1.85093 0
M  V30 4397 C 412.136 -0.0779303 3.59816 0
M  V30 4398 C 411.744 1.26107 4.29885 0
M  V30 4399 C 413.488 -0.565678 4.20714 0
M  V30 4400 C 411.395 1.15954 5.79921 0
M  V30 4401 H 410.325 -0.00954163 0.75394 0
M  V30 4402 H 412.976 0.665865 1.70993 0
M  V30 4403 H 411.358 -0.824165 3.87329 0
M  V30 4404 H 412.532 2.02233 4.14051 0
M  V30 4405 H 410.847 1.68401 3.80828 0
M  V30 4406 H 413.444 -0.6595 5.30617 0
M  V30 4407 H 413.787 -1.56984 3.85567 0
M  V30 4408 H 414.32 0.12467 3.97605 0
M  V30 4409 H 411.059 2.13864 6.19631 0
M  V30 4410 H 410.579 0.439529 5.98187 0
M  V30 4411 H 412.258 0.847361 6.41427 0
M  V30 4412 N 412.39 -1.55475 0.257931 0
M  V30 4413 C 413.638 -1.98813 -0.363009 0
M  V30 4414 C 413.959 -1.14757 -1.57657 0
M  V30 4415 O 413.229 -0.232956 -1.9451 0
M  V30 4416 H 411.809 -0.734308 -0.137113 0
M  V30 4417 H 414.471 -1.9156 0.359281 0
M  V30 4418 H 413.567 -3.04941 -0.664634 0
M  V30 4419 N 413.868 0.0150385 -1.57593 0
M  V30 4420 C 415.098 0.713359 -1.93894 0
M  V30 4421 C 415.506 1.68663 -0.857289 0
M  V30 4422 O 414.849 1.82876 0.173788 0
M  V30 4423 C 414.911 1.51348 -3.26089 0
M  V30 4424 C 414.575 0.703451 -4.51554 0
M  V30 4425 C 415.572 -0.00237924 -5.199 0
M  V30 4426 C 413.257 0.653854 -4.98026 0
M  V30 4427 C 415.251 -0.746955 -6.33008 0
M  V30 4428 C 412.938 -0.0944578 -6.11027 0
M  V30 4429 C 413.936 -0.793609 -6.78374 0
M  V30 4430 O 413.624 -1.52974 -7.89211 0
M  V30 4431 H 413.356 0.204637 -0.644282 0
M  V30 4432 H 415.91 -0.0276411 -2.05381 0
M  V30 4433 H 414.14 2.29862 -3.10967 0
M  V30 4434 H 415.829 2.09572 -3.47612 0
M  V30 4435 H 416.595 0.0268803 -4.84993 0
M  V30 4436 H 412.474 1.18756 -4.45441 0
M  V30 4437 H 416.018 -1.2932 -6.85509 0
M  V30 4438 H 411.915 -0.125591 -6.45378 0
M  V30 4439 H 412.683 -1.44488 -8.05646 0
M  V30 4440 N 415.346 1.54954 0.287554 0
M  V30 4441 C 416.592 1.75132 1.02257 0
M  V30 4442 C 416.925 0.542858 1.86458 0
M  V30 4443 O 416.2 -0.459856 1.88986 0
M  V30 4444 C 416.483 3.04812 1.91733 0
M  V30 4445 C 416.336 4.35985 1.10622 0
M  V30 4446 C 417.655 3.30438 2.90687 0
M  V30 4447 H 414.774 0.637194 0.370341 0
M  V30 4448 H 417.416 1.87678 0.296111 0
M  V30 4449 H 415.566 2.94247 2.53675 0
M  V30 4450 H 417.238 4.58487 0.508636 0
M  V30 4451 H 415.481 4.31865 0.409271 0
M  V30 4452 H 416.152 5.23017 1.76513 0
M  V30 4453 H 418.628 3.40701 2.38877 0
M  V30 4454 H 417.504 4.22467 3.50447 0
M  V30 4455 H 417.765 2.49377 3.65053 0
M  V30 4456 N 416.824 -0.551391 1.4764 0
M  V30 4457 C 417.754 -1.66757 1.63445 0
M  V30 4458 C 418.735 -1.63077 0.483742 0
M  V30 4459 O 419.92 -1.80607 0.71377 0
M  V30 4460 C 417.05 -3.05387 1.65396 0
M  V30 4461 C 416.004 -3.23918 2.79752 0
M  V30 4462 C 415.33 -4.63393 2.66779 0
M  V30 4463 C 416.63 -3.08735 4.21284 0
M  V30 4464 H 418.324 -1.53786 2.56886 0
M  V30 4465 H 415.87 -0.738415 1.23626 0
M  V30 4466 H 417.823 -3.83325 1.75043 0
M  V30 4467 H 416.547 -3.19332 0.685195 0
M  V30 4468 H 415.206 -2.48391 2.69625 0
M  V30 4469 H 414.854 -4.74144 1.67918 0
M  V30 4470 H 414.554 -4.7674 3.43501 0
M  V30 4471 H 416.078 -5.43458 2.78364 0
M  V30 4472 H 417.492 -3.76484 4.32357 0
M  V30 4473 H 415.889 -3.33588 4.98838 0
M  V30 4474 H 416.959 -2.0541 4.39243 0
M  V30 4475 N 418.302 -1.35869 -0.798587 0
M  V30 4476 C 419.53 -1.32722 -1.58722 0
M  V30 4477 C 419.945 0.0935631 -1.88568 0
M  V30 4478 O 419.302 1.04784 -1.49421 0
M  V30 4479 C 419.353 -2.13974 -2.91371 0
M  V30 4480 O 419.074 -3.50514 -2.62815 0
M  V30 4481 C 420.575 -2.18504 -3.85708 0
M  V30 4482 H 417.795 -0.45562 -0.492596 0
M  V30 4483 H 420.339 -1.78837 -0.991843 0
M  V30 4484 H 418.494 -1.71438 -3.47402 0
M  V30 4485 H 418.908 -3.92806 -3.47568 0
M  V30 4486 H 420.382 -2.79732 -4.75872 0
M  V30 4487 H 420.859 -1.18597 -4.22885 0
M  V30 4488 H 421.465 -2.61236 -3.35612 0
M  V30 4489 N 419.78 1.02168 -1.19998 0
M  V30 4490 C 420.728 2.12717 -0.940967 0
M  V30 4491 C 421.722 1.69069 0.105841 0
M  V30 4492 O 422.928 1.79946 -0.0440583 0
M  V30 4493 H 419.303 0.695108 -0.28693 0
M  V30 4494 H 421.274 2.3175 -1.87975 0
M  V30 4495 C 420.023 3.44027 -0.504049 0
M  V30 4496 H 419.346 3.78036 -1.30112 0
M  V30 4497 H 420.786 4.22452 -0.361991 0
M  V30 4498 C 419.245 3.27678 0.782878 0
M  V30 4499 O 419.775 3.56949 1.84256 0
M  V30 4500 N 417.981 2.80943 0.742921 0
M  V30 4501 H 417.528 2.57322 -0.119687 0
M  V30 4502 H 417.486 2.70385 1.60435 0
M  V30 4503 N 421.258 1.00505 1.21394 0
M  V30 4504 C 422.504 0.688793 1.90745 0
M  V30 4505 C 422.837 -0.778486 1.77914 0
M  V30 4506 O 422.112 -1.56433 1.15581 0
M  V30 4507 C 422.395 1.11063 3.42545 0
M  V30 4508 C 422.248 2.63737 3.64367 0
M  V30 4509 C 423.567 0.673059 4.34923 0
M  V30 4510 H 420.686 0.251702 0.692687 0
M  V30 4511 H 423.328 1.25074 1.43026 0
M  V30 4512 H 421.478 0.632508 3.83317 0
M  V30 4513 H 423.15 3.19313 3.32922 0
M  V30 4514 H 421.393 3.05248 3.08231 0
M  V30 4515 H 422.064 2.88305 4.70727 0
M  V30 4516 H 424.54 1.08392 4.01734 0
M  V30 4517 H 423.416 0.996383 5.39781 0
M  V30 4518 H 423.677 -0.425808 4.40045 0
M  V30 4519 N 422.737 -1.36956 0.779787 0
M  V30 4520 C 423.7 -2.2851 0.177662 0
M  V30 4521 C 424.7 -1.48393 -0.619377 0
M  V30 4522 O 425.89 -1.68505 -0.441785 0
M  V30 4523 C 423.022 -3.32428 -0.755279 0
M  V30 4524 H 424.215 -2.83269 0.984823 0
M  V30 4525 H 421.768 -1.46358 0.548544 0
M  V30 4526 H 422.503 -2.82808 -1.58714 0
M  V30 4527 H 422.288 -3.91659 -0.185817 0
M  V30 4528 H 423.778 -4.00824 -1.17174 0
M  V30 4529 N 424.215 -0.530993 -1.48385 0
M  V30 4530 C 425.445 -0.00133928 -2.066 0
M  V30 4531 C 425.853 1.28599 -1.38777 0
M  V30 4532 O 425.196 1.77599 -0.469495 0
M  V30 4533 C 425.258 0.292137 -3.58311 0
M  V30 4534 C 424.922 -0.901864 -4.48013 0
M  V30 4535 C 425.919 -1.80053 -4.87726 0
M  V30 4536 C 423.604 -1.10915 -4.89901 0
M  V30 4537 C 425.598 -2.89038 -5.68098 0
M  V30 4538 C 423.285 -2.20213 -5.70043 0
M  V30 4539 C 424.283 -3.09107 -6.0905 0
M  V30 4540 O 423.971 -4.16514 -6.87583 0
M  V30 4541 H 423.703 -0.0308475 -0.675296 0
M  V30 4542 H 426.257 -0.736335 -1.91748 0
M  V30 4543 H 424.487 1.08112 -3.7128 0
M  V30 4544 H 426.176 0.763994 -3.98645 0
M  V30 4545 H 426.942 -1.65234 -4.55986 0
M  V30 4546 H 422.821 -0.426498 -4.59023 0
M  V30 4547 H 426.365 -3.58451 -5.98464 0
M  V30 4548 H 422.262 -2.35016 -6.01197 0
M  V30 4549 H 423.03 -4.14237 -7.05939 0
M  V30 4550 N 425.693 1.55336 -0.266172 0
M  V30 4551 C 426.94 1.99397 0.353158 0
M  V30 4552 C 427.268 1.15451 1.56529 0
M  V30 4553 O 426.523 0.209974 1.9457 0
M  V30 4554 C 426.822 3.48606 0.787957 0
M  V30 4555 C 426.488 4.49773 -0.318541 0
M  V30 4556 C 425.15 4.77158 -0.62239 0
M  V30 4557 C 427.502 5.10212 -1.06459 0
M  V30 4558 C 424.83 5.62251 -1.67602 0
M  V30 4559 C 427.182 5.96449 -2.10788 0
M  V30 4560 C 425.846 6.22158 -2.41817 0
M  V30 4561 H 425.116 0.729644 0.12923 0
M  V30 4562 H 427.763 1.87732 -0.37802 0
M  V30 4563 H 426.068 3.57701 1.59866 0
M  V30 4564 H 427.765 3.80098 1.27775 0
M  V30 4565 H 424.355 4.2854 -0.0715925 0
M  V30 4566 H 428.539 4.89086 -0.843098 0
M  V30 4567 H 423.795 5.80419 -1.92155 0
M  V30 4568 H 427.969 6.42317 -2.69076 0
M  V30 4569 H 425.596 6.87888 -3.23596 0
M  V30 4570 N 427.171 -0.0066808 1.57599 0
M  V30 4571 C 428.399 -0.704087 1.94551 0
M  V30 4572 C 428.814 -1.67677 0.867746 0
M  V30 4573 O 428.171 -1.8185 -0.153925 0
M  V30 4574 C 428.222 -1.44177 3.31505 0
M  V30 4575 O 427.943 -0.508097 4.35144 0
M  V30 4576 C 429.444 -2.23429 3.82876 0
M  V30 4577 H 426.664 -0.196523 0.641576 0
M  V30 4578 H 429.208 0.042453 2.04456 0
M  V30 4579 H 427.363 -2.13999 3.22929 0
M  V30 4580 H 427.777 -1.02782 5.14331 0
M  V30 4581 H 429.251 -2.70552 4.8115 0
M  V30 4582 H 429.728 -3.05818 3.15233 0
M  V30 4583 H 430.334 -1.58636 3.94607 0
M  V30 4584 N 428.649 -1.55105 -0.279332 0
M  V30 4585 C 429.877 -1.7943 -1.03017 0
M  V30 4586 C 430.292 -0.564456 -1.80165 0
M  V30 4587 O 429.649 0.466326 -1.76442 0
M  V30 4588 C 429.7 -3.0155 -1.99374 0
M  V30 4589 O 429.421 -4.19784 -1.25352 0
M  V30 4590 C 430.922 -3.3843 -2.86321 0
M  V30 4591 H 428.142 -0.597882 -0.304594 0
M  V30 4592 H 430.686 -2.02105 -0.312035 0
M  V30 4593 H 428.841 -2.81019 -2.66659 0
M  V30 4594 H 429.255 -4.88781 -1.90246 0
M  V30 4595 H 430.729 -4.27066 -3.49741 0
M  V30 4596 H 431.206 -2.57549 -3.5576 0
M  V30 4597 H 431.812 -3.61197 -2.24536 0
M  V30 4598 N 430.127 0.543554 -1.4793 0
M  V30 4599 C 431.376 1.29649 -1.54512 0
M  V30 4600 C 431.689 1.94382 -0.217973 0
M  V30 4601 O 432.895 2.71017 -0.161908 0
M  V30 4602 C 431.351 2.35175 -2.72435 0
M  V30 4603 C 430.959 1.76572 -4.11736 0
M  V30 4604 C 432.703 3.11564 -2.8832 0
M  V30 4605 C 430.61 2.79958 -5.20939 0
M  V30 4606 H 429.54 0.487541 -0.57517 0
M  V30 4607 H 432.191 0.575708 -1.74235 0
M  V30 4608 H 430.573 3.10229 -2.46118 0
M  V30 4609 H 431.747 1.07799 -4.48013 0
M  V30 4610 H 430.062 1.12722 -4.00852 0
M  V30 4611 H 432.659 3.88794 -3.67074 0
M  V30 4612 H 433.002 3.66594 -1.97268 0
M  V30 4613 H 433.535 2.43623 -3.14472 0
M  V30 4614 H 430.274 2.29766 -6.13912 0
M  V30 4615 H 429.794 3.47101 -4.89164 0
M  V30 4616 H 431.473 3.43198 -5.48474 0
M  V30 4617 N 431.605 1.3629 0.791371 0
M  V30 4618 C 432.553 1.30514 1.92533 0
M  V30 4619 C 433.547 0.197285 1.68247 0
M  V30 4620 O 434.753 0.364176 1.76278 0
M  V30 4621 H 431.128 0.406263 0.632815 0
M  V30 4622 H 433.099 2.26282 1.94523 0
M  V30 4623 C 431.848 1.10933 3.29529 0
M  V30 4624 H 431.171 1.95427 3.48781 0
M  V30 4625 H 432.611 1.10937 4.0923 0
M  V30 4626 C 431.07 -0.186123 3.36385 0
M  V30 4627 O 431.6 -1.17664 3.84081 0
M  V30 4628 N 429.806 -0.230128 2.89687 0
M  V30 4629 H 429.353 0.576545 2.51065 0
M  V30 4630 H 429.311 -1.09658 2.94657 0
M  V30 4631 N 433.083 -1.0153 1.20538 0
M  V30 4632 C 434.046 -2.0826 0.957098 0
M  V30 4633 C 435.046 -1.60657 -0.0678655 0
M  V30 4634 O 436.236 -1.73385 0.168332 0
M  V30 4635 C 433.368 -3.38033 0.441188 0
M  V30 4636 H 434.561 -2.31719 1.90384 0
M  V30 4637 H 432.114 -1.1835 1.02093 0
M  V30 4638 H 432.849 -3.20249 -0.510961 0
M  V30 4639 H 432.634 -3.73911 1.18038 0
M  V30 4640 H 434.124 -4.16613 0.287009 0
M  V30 4641 N 434.561 -1.01147 -1.20859 0
M  V30 4642 C 435.471 -0.58686 -2.27141 0
M  V30 4643 C 436.487 0.373198 -1.69951 0
M  V30 4644 O 437.663 0.235423 -2.00019 0
M  V30 4645 C 434.728 0.0733602 -3.46622 0
M  V30 4646 C 433.789 -0.931995 -4.19061 0
M  V30 4647 C 433.022 -0.303186 -5.32838 0
M  V30 4648 O 433.245 0.898395 -5.63281 0
M  V30 4649 O 432.179 -1.01735 -5.9324 0
M  V30 4650 H 436.005 -1.47155 -2.65667 0
M  V30 4651 H 433.59 -0.780689 -1.2738 0
M  V30 4652 H 435.472 0.442333 -4.19072 0
M  V30 4653 H 434.147 0.932329 -3.09983 0
M  V30 4654 H 433.054 -1.35224 -3.48805 0
M  V30 4655 H 434.387 -1.76076 -4.59628 0
M  V30 4656 N 436.039 1.36541 -0.78704 0
M  V30 4657 C 436.949 2.3387 -0.184896 0
M  V30 4658 C 437.965 1.60927 0.661697 0
M  V30 4659 O 439.141 1.92927 0.57804 0
M  V30 4660 C 436.206 3.40122 0.672145 0
M  V30 4661 C 435.267 4.28867 -0.19267 0
M  V30 4662 C 434.5 5.30045 0.623561 0
M  V30 4663 O 434.723 5.39232 1.8597 0
M  V30 4664 O 433.657 6.01895 0.0247068 0
M  V30 4665 H 437.483 2.87126 -0.989562 0
M  V30 4666 H 435.068 1.38969 -0.548455 0
M  V30 4667 H 436.95 4.05093 1.16094 0
M  V30 4668 H 435.625 2.89169 1.45474 0
M  V30 4669 H 434.532 3.66945 -0.728166 0
M  V30 4670 H 435.865 4.83165 -0.938722 0
M  V30 4671 N 437.518 0.538854 1.48102 0
M  V30 4672 C 438.448 -0.207654 2.32575 0
M  V30 4673 C 439.429 -0.926559 1.4265 0
M  V30 4674 O 440.614 -0.91061 1.71527 0
M  V30 4675 C 437.744 -1.24957 3.24042 0
M  V30 4676 C 436.698 -0.648263 4.23062 0
M  V30 4677 C 436.024 -1.79348 5.03725 0
M  V30 4678 C 437.324 0.385897 5.20872 0
M  V30 4679 H 439.018 0.497534 2.95237 0
M  V30 4680 H 436.564 0.240715 1.41974 0
M  V30 4681 H 438.517 -1.77983 3.81969 0
M  V30 4682 H 437.241 -1.98446 2.59397 0
M  V30 4683 H 435.9 -0.139452 3.66335 0
M  V30 4684 H 435.548 -2.51696 4.35498 0
M  V30 4685 H 435.248 -1.39702 5.70751 0
M  V30 4686 H 436.772 -2.32735 5.64506 0
M  V30 4687 H 438.186 -0.057607 5.73271 0
M  V30 4688 H 436.583 0.700227 5.96001 0
M  V30 4689 H 437.653 1.28848 4.67468 0
M  V30 4690 N 438.996 -1.55193 0.274407 0
M  V30 4691 C 439.926 -2.25471 -0.607032 0
M  V30 4692 C 440.907 -1.24461 -1.15946 0
M  V30 4693 O 442.092 -1.53179 -1.19373 0
M  V30 4694 C 439.222 -2.97526 -1.79153 0
M  V30 4695 C 438.176 -4.05459 -1.37067 0
M  V30 4696 C 437.502 -4.65084 -2.6382 0
M  V30 4697 C 438.802 -5.19691 -0.521389 0
M  V30 4698 H 440.496 -2.99393 -0.0209343 0
M  V30 4699 H 438.042 -1.43997 -0.00862866 0
M  V30 4700 H 439.995 -3.45402 -2.41404 0
M  V30 4701 H 438.719 -2.21138 -2.40344 0
M  V30 4702 H 437.378 -3.58393 -0.771355 0
M  V30 4703 H 437.026 -3.85365 -3.23268 0
M  V30 4704 H 436.726 -5.37961 -2.36372 0
M  V30 4705 H 438.25 -5.15708 -3.26921 0
M  V30 4706 H 439.664 -5.63623 -1.04889 0
M  V30 4707 H 438.061 -5.99126 -0.341825 0
M  V30 4708 H 439.131 -4.82713 0.46 0
M  V30 4709 N 440.474 -0.00167713 -1.576 0
M  V30 4710 C 441.404 0.988091 -2.11563 0
M  V30 4711 C 442.385 1.35736 -1.02517 0
M  V30 4712 O 443.57 1.44082 -1.30208 0
M  V30 4713 C 440.7 2.27941 -2.62031 0
M  V30 4714 C 439.654 2.0517 -3.75619 0
M  V30 4715 C 438.98 3.4033 -4.12407 0
M  V30 4716 C 440.28 1.41294 -5.02825 0
M  V30 4717 H 441.974 0.538771 -2.94513 0
M  V30 4718 H 439.52 0.257712 -1.41675 0
M  V30 4719 H 441.473 2.97539 -2.9841 0
M  V30 4720 H 440.197 2.74989 -1.76205 0
M  V30 4721 H 438.856 1.37998 -3.39635 0
M  V30 4722 H 438.504 3.85085 -3.23603 0
M  V30 4723 H 438.204 3.25909 -4.88935 0
M  V30 4724 H 439.728 4.1124 -4.51347 0
M  V30 4725 H 441.142 2.00851 -5.36965 0
M  V30 4726 H 439.539 1.37356 -5.84169 0
M  V30 4727 H 440.609 0.382362 -4.8339 0
M  V30 4728 N 441.952 1.55251 0.271103 0
M  V30 4729 C 443.177 1.80306 1.02491 0
M  V30 4730 C 443.602 0.575457 1.79081 0
M  V30 4731 O 442.96 -0.474987 1.74967 0
M  V30 4732 C 443.008 3.02832 1.95768 0
M  V30 4733 O 442.112 2.78051 3.04568 0
M  V30 4734 H 441.453 0.595896 0.292923 0
M  V30 4735 H 443.983 2.02397 0.299436 0
M  V30 4736 H 443.993 3.31616 2.37686 0
M  V30 4737 H 442.668 3.9183 1.39434 0
M  V30 4738 H 441.245 2.60369 2.66951 0
M  V30 4739 N 443.43 -0.535701 1.48216 0
M  V30 4740 C 444.378 -1.66179 1.62749 0
M  V30 4741 C 445.372 -1.62034 0.49409 0
M  V30 4742 O 446.578 -1.6696 0.672624 0
M  V30 4743 H 442.953 -0.550244 0.512578 0
M  V30 4744 H 444.924 -1.51063 2.57337 0
M  V30 4745 C 443.673 -3.04471 1.67907 0
M  V30 4746 H 442.996 -3.08351 2.54479 0
M  V30 4747 H 444.436 -3.82894 1.82121 0
M  V30 4748 C 442.895 -3.34314 0.416596 0
M  V30 4749 O 443.425 -3.98905 -0.473014 0
M  V30 4750 N 441.631 -2.89149 0.290038 0
M  V30 4751 H 441.178 -2.36764 1.01493 0
M  V30 4752 H 441.136 -3.09486 -0.55367 0
M  V30 4753 N 444.908 -1.36708 -0.784132 0
M  V30 4754 C 445.871 -1.31307 -1.87859 0
M  V30 4755 C 446.871 -0.219654 -1.59293 0
M  V30 4756 O 448.061 -0.47476 -1.67606 0
M  V30 4757 C 445.193 -1.03679 -3.24751 0
M  V30 4758 H 446.386 -2.28647 -1.94064 0
M  V30 4759 H 443.939 -1.21558 -0.98252 0
M  V30 4760 H 444.674 -0.0681936 -3.24228 0
M  V30 4761 H 444.459 -1.82811 -3.46876 0
M  V30 4762 H 445.949 -1.02518 -4.04821 0
M  V30 4763 N 446.386 1.0089 -1.21074 0
M  V30 4764 C 447.632 1.74866 -1.02712 0
M  V30 4765 C 447.965 1.89178 0.438787 0
M  V30 4766 O 447.24 1.42325 1.32567 0
M  V30 4767 C 447.523 3.16347 -1.72036 0
M  V30 4768 C 447.376 3.09782 -3.26121 0
M  V30 4769 C 448.695 4.15187 -1.45973 0
M  V30 4770 H 445.814 0.634736 -0.374539 0
M  V30 4771 H 448.456 1.17646 -1.49196 0
M  V30 4772 H 446.606 3.65201 -1.32517 0
M  V30 4773 H 448.278 2.68673 -3.74983 0
M  V30 4774 H 446.521 2.46982 -3.56626 0
M  V30 4775 H 447.192 4.09829 -3.6979 0
M  V30 4776 H 449.668 3.75022 -1.80272 0
M  V30 4777 H 448.544 5.12331 -1.96999 0
M  V30 4778 H 448.805 4.40386 -0.388924 0
M  V30 4779 N 447.864 1.01787 1.20321 0
M  V30 4780 C 448.827 0.593972 2.2137 0
M  V30 4781 C 449.827 -0.336553 1.57239 0
M  V30 4782 O 451.017 -0.125069 1.7375 0
M  V30 4783 C 448.149 -0.132433 3.40643 0
M  V30 4784 H 449.342 1.48791 2.60387 0
M  V30 4785 H 446.895 0.807803 1.33807 0
M  V30 4786 H 447.63 -1.04123 3.0713 0
M  V30 4787 H 447.415 0.53605 3.88418 0
M  V30 4788 H 448.905 -0.416314 4.1552 0
M  V30 4789 N 449.342 -1.36122 0.79427 0
M  V30 4790 C 450.588 -1.99406 0.369452 0
M  V30 4791 C 450.921 -1.62886 -1.05743 0
M  V30 4792 O 450.196 -0.886053 -1.73145 0
M  V30 4793 C 450.479 -3.56046 0.538833 0
M  V30 4794 C 450.332 -4.02404 2.00976 0
M  V30 4795 C 451.651 -4.40079 -0.0431359 0
M  V30 4796 H 448.77 -0.724397 0.135712 0
M  V30 4797 H 451.412 -1.61461 1.00151 0
M  V30 4798 H 449.562 -3.885 0.000771004 0
M  V30 4799 H 451.234 -3.80415 2.60926 0
M  V30 4800 H 449.477 -3.53765 2.51063 0
M  V30 4801 H 450.148 -5.11344 2.07922 0
M  V30 4802 H 452.624 -4.14013 0.416228 0
M  V30 4803 H 451.5 -5.48799 0.105374 0
M  V30 4804 H 451.761 -4.27264 -1.13571 0
M  V30 4805 N 450.82 -0.546701 -1.47814 0
M  V30 4806 C 452.048 -0.0232857 -2.06887 0
M  V30 4807 C 452.463 1.26571 -1.4009 0
M  V30 4808 O 451.82 1.7569 -0.493906 0
M  V30 4809 C 451.871 0.186975 -3.61016 0
M  V30 4810 O 451.592 -1.05097 -4.25307 0
M  V30 4811 C 453.093 0.748872 -4.36929 0
M  V30 4812 H 450.313 -0.0410763 -0.669742 0
M  V30 4813 H 452.857 -0.757117 -1.89968 0
M  V30 4814 H 451.012 0.870903 -3.77484 0
M  V30 4815 H 451.426 -0.842121 -5.17695 0
M  V30 4816 H 452.9 0.845334 -5.45489 0
M  V30 4817 H 453.377 1.75772 -4.02493 0
M  V30 4818 H 453.983 0.100979 -4.2518 0
M  V30 4819 N 452.299 1.55045 -0.282633 0
M  V30 4820 C 453.546 1.9976 0.33199 0
M  V30 4821 C 453.874 1.17105 1.55295 0
M  V30 4822 O 453.129 0.230599 1.94337 0
M  V30 4823 C 453.428 3.49422 0.750938 0
M  V30 4824 C 453.094 4.4941 -0.366228 0
M  V30 4825 C 451.756 4.76471 -0.672964 0
M  V30 4826 C 454.108 5.09054 -1.11864 0
M  V30 4827 C 451.436 5.60442 -1.73556 0
M  V30 4828 C 453.788 5.9418 -2.17102 0
M  V30 4829 C 452.452 6.19558 -2.48402 0
M  V30 4830 H 451.722 0.730974 0.121484 0
M  V30 4831 H 454.369 1.8732 -0.39791 0
M  V30 4832 H 452.674 3.59377 1.56063 0
M  V30 4833 H 454.371 3.81432 1.23736 0
M  V30 4834 H 450.961 4.2844 -0.117041 0
M  V30 4835 H 455.145 4.88165 -0.894925 0
M  V30 4836 H 450.401 5.78349 -1.983 0
M  V30 4837 H 454.575 6.39427 -2.75873 0
M  V30 4838 H 452.202 6.84417 -3.30874 0
M  V30 4839 N 453.777 0.010035 1.57597 0
M  V30 4840 C 455.002 -0.687021 1.95691 0
M  V30 4841 C 455.427 -1.65952 0.885519 0
M  V30 4842 O 454.785 -1.80633 -0.15543 0
M  V30 4843 C 454.833 -1.3864 3.32884 0
M  V30 4844 O 453.937 -2.50115 3.27897 0
M  V30 4845 H 453.278 -0.181989 0.638573 0
M  V30 4846 H 455.808 0.0662122 2.04493 0
M  V30 4847 H 455.818 -1.74754 3.6868 0
M  V30 4848 H 454.493 -0.673411 4.10412 0
M  V30 4849 H 453.07 -2.16253 3.03791 0
M  V30 4850 N 455.255 -1.55392 -0.262866 0
M  V30 4851 C 456.165 -1.92077 -1.34698 0
M  V30 4852 C 457.181 -0.819227 -1.53508 0
M  V30 4853 O 458.357 -1.11921 -1.67439 0
M  V30 4854 C 455.422 -2.19407 -2.68443 0
M  V30 4855 C 454.483 -3.42905 -2.58292 0
M  V30 4856 C 453.716 -3.68921 -3.85659 0
M  V30 4857 O 453.939 -2.97275 -4.8681 0
M  V30 4858 O 452.873 -4.62455 -3.85252 0
M  V30 4859 H 456.699 -2.84384 -1.06581 0
M  V30 4860 H 454.284 -1.42069 -0.462264 0
M  V30 4861 H 456.166 -2.38365 -3.47506 0
M  V30 4862 H 454.841 -1.30282 -2.96325 0
M  V30 4863 H 453.748 -3.29272 -1.7757 0
M  V30 4864 H 455.081 -4.32282 -2.35358 0
M  V30 4865 N 456.733 0.527833 -1.48498 0
M  V30 4866 C 458.149 0.856571 -1.34666 0
M  V30 4867 C 458.349 1.98271 -0.35931 0
M  V30 4868 O 457.405 2.51551 0.218703 0
M  V30 4869 C 458.718 1.22207 -2.74747 0
M  V30 4870 C 460.266 1.33183 -2.83251 0
M  V30 4871 C 460.741 1.73075 -4.24039 0
M  V30 4872 N 462.232 1.80174 -4.26722 0
M  V30 4873 C 462.967 2.1243 -5.32598 0
M  V30 4874 N 462.463 2.43096 -6.4875 0
M  V30 4875 N 464.256 2.13454 -5.19994 0
M  V30 4876 H 456.407 -0.215174 -2.11307 0
M  V30 4877 H 458.67 -0.0336281 -0.947403 0
M  V30 4878 H 458.376 0.468195 -3.4857 0
M  V30 4879 H 458.25 2.17173 -3.08409 0
M  V30 4880 H 460.637 2.07647 -2.09683 0
M  V30 4881 H 460.718 0.363333 -2.53206 0
M  V30 4882 H 460.362 0.991712 -4.98124 0
M  V30 4883 H 460.292 2.70979 -4.51529 0
M  V30 4884 H 462.783 1.58744 -3.42942 0
M  V30 4885 H 463.096 2.6682 -7.25277 0
M  V30 4886 H 461.441 2.40611 -6.52021 0
M  V30 4887 H 464.632 1.88956 -4.28268 0
M  V30 4888 H 464.805 2.38261 -6.02608 0
M  V30 4889 N 458.211 1.37122 0.776871 0
M  V30 4890 C 459.141 1.35164 1.90402 0
M  V30 4891 C 460.122 0.221069 1.68657 0
M  V30 4892 O 461.307 0.420642 1.8959 0
M  V30 4893 C 458.437 1.15274 3.27611 0
M  V30 4894 C 457.391 2.25289 3.63908 0
M  V30 4895 C 456.717 1.90527 4.99603 0
M  V30 4896 C 458.017 3.67446 3.71188 0
M  V30 4897 H 459.711 2.29482 1.92297 0
M  V30 4898 H 457.257 1.10465 0.923773 0
M  V30 4899 H 459.21 1.12536 4.06096 0
M  V30 4900 H 457.934 0.174102 3.26136 0
M  V30 4901 H 456.593 2.27174 2.87728 0
M  V30 4902 H 456.241 0.91206 4.94662 0
M  V30 4903 H 455.941 2.64193 5.24858 0
M  V30 4904 H 457.465 1.89367 5.80493 0
M  V30 4905 H 458.879 3.67719 4.39836 0
M  V30 4906 H 457.276 4.40123 4.07936 0
M  V30 4907 H 458.346 4.01443 2.71977 0
M  V30 4908 N 459.689 -1.00246 1.21608 0
M  V30 4909 C 460.619 -2.10921 1.00172 0
M  V30 4910 C 461.6 -1.69938 -0.0741587 0
M  V30 4911 O 462.785 -1.94009 0.0861753 0
M  V30 4912 C 459.915 -3.42618 0.568355 0
M  V30 4913 C 458.869 -3.97407 1.58909 0
M  V30 4914 C 458.195 -5.25038 1.01187 0
M  V30 4915 C 459.495 -4.2918 2.97661 0
M  V30 4916 H 461.189 -2.29112 1.92739 0
M  V30 4917 H 458.735 -1.10101 0.928102 0
M  V30 4918 H 460.688 -4.19444 0.405555 0
M  V30 4919 H 459.412 -3.24227 -0.392961 0
M  V30 4920 H 458.071 -3.22703 1.73949 0
M  V30 4921 H 457.719 -5.02982 0.0421965 0
M  V30 4922 H 457.419 -5.62661 1.6937 0
M  V30 4923 H 458.943 -6.04507 0.860448 0
M  V30 4924 H 460.357 -4.96839 2.86049 0
M  V30 4925 H 458.754 -4.77952 3.6288 0
M  V30 4926 H 459.824 -3.3735 3.48315 0
M  V30 4927 N 461.167 -1.02423 -1.1978 0
M  V30 4928 C 462.415 -0.716569 -1.8897 0
M  V30 4929 C 462.736 0.756769 -1.79716 0
M  V30 4930 O 462.006 1.5449 -1.20456 0
M  V30 4931 H 460.586 -0.262062 -0.699523 0
M  V30 4932 H 463.248 -1.29747 -1.45436 0
M  V30 4933 H 462.344 -1.00675 -2.95417 0
M  V30 4934 N 462.645 1.35699 -0.801477 0
M  V30 4935 C 463.593 2.3177 -0.196317 0
M  V30 4936 C 464.587 1.56388 0.651081 0
M  V30 4937 O 465.793 1.71557 0.544815 0
M  V30 4938 H 462.168 0.750669 -0.0447189 0
M  V30 4939 H 464.139 2.8036 -1.02181 0
M  V30 4940 C 462.888 3.41671 0.644702 0
M  V30 4941 H 462.211 3.998 0.0019921 0
M  V30 4942 H 463.651 4.11184 1.0346 0
M  V30 4943 C 462.11 2.84271 1.80808 0
M  V30 4944 O 462.64 2.77408 2.9053 0
M  V30 4945 N 460.846 2.41391 1.61799 0
M  V30 4946 H 460.393 2.47173 0.725493 0
M  V30 4947 H 460.351 2.03334 2.39797 0
M  V30 4948 N 464.123 0.554532 1.47522 0
M  V30 4949 C 465.37 0.029479 2.02479 0
M  V30 4950 C 465.698 -1.31929 1.42916 0
M  V30 4951 O 464.953 -1.87112 0.573385 0
M  V30 4952 C 465.252 -0.115927 3.57212 0
M  V30 4953 C 464.918 1.16161 4.3568 0
M  V30 4954 C 463.58 1.51168 4.56839 0
M  V30 4955 C 465.932 2.0083 4.80954 0
M  V30 4956 C 463.26 2.70696 5.2052 0
M  V30 4957 C 465.612 3.19559 5.45953 0
M  V30 4958 C 464.276 3.54882 5.65345 0
M  V30 4959 H 463.546 0.0107871 0.740921 0
M  V30 4960 H 466.193 0.725506 1.77225 0
M  V30 4961 H 464.498 -0.894902 3.81443 0
M  V30 4962 H 466.195 -0.53749 3.97381 0
M  V30 4963 H 462.785 0.879026 4.19489 0
M  V30 4964 H 466.969 1.75093 4.64388 0
M  V30 4965 H 462.225 2.98236 5.33728 0
M  V30 4966 H 466.399 3.85456 5.79997 0
M  V30 4967 H 464.026 4.47596 6.1446 0
M  V30 4968 N 465.601 -1.54893 0.290851 0
M  V30 4969 C 466.826 -2.04804 -0.32712 0
M  V30 4970 C 467.251 -1.16721 -1.47506 0
M  V30 4971 O 466.609 -0.169107 -1.8051 0
M  V30 4972 C 466.657 -3.52268 -0.770689 0
M  V30 4973 O 465.761 -3.67236 -1.87647 0
M  V30 4974 H 465.102 -0.660789 -0.0652227 0
M  V30 4975 H 467.632 -2.00036 0.429739 0
M  V30 4976 H 467.642 -3.9393 -1.06223 0
M  V30 4977 H 466.317 -4.15843 0.069096 0
M  V30 4978 H 464.894 -3.37479 -1.58626 0
M  V30 4979 N 467.08 -0.0183926 -1.57589 0
M  V30 4980 C 468.01 0.965596 -2.12599 0
M  V30 4981 C 468.991 1.34641 -1.0395 0
M  V30 4982 O 470.176 1.42693 -1.31729 0
M  V30 4983 C 467.306 2.25149 -2.64434 0
M  V30 4984 C 466.26 2.01175 -3.77773 0
M  V30 4985 C 465.586 3.35937 -4.15994 0
M  V30 4986 C 466.886 1.35953 -5.04296 0
M  V30 4987 H 468.58 0.507504 -2.95067 0
M  V30 4988 H 466.126 0.242671 -1.41941 0
M  V30 4989 H 468.079 2.94357 -3.01549 0
M  V30 4990 H 466.803 2.73105 -1.79112 0
M  V30 4991 H 465.462 1.34388 -3.4108 0
M  V30 4992 H 465.11 3.81631 -3.27669 0
M  V30 4993 H 464.81 3.20705 -4.92364 0
M  V30 4994 H 466.334 4.0643 -4.55683 0
M  V30 4995 H 467.748 1.95144 -5.39065 0
M  V30 4996 H 466.145 1.31152 -5.85593 0
M  V30 4997 H 467.215 0.331071 -4.83768 0
M  V30 4998 N 468.558 1.5553 0.254621 0
M  V30 4999 C 469.521 1.88872 1.29846 0
M  V30 5000 C 470.521 0.764591 1.41459 0
M  V30 5001 O 471.711 1.03265 1.40293 0
M  V30 5002 C 468.843 2.11032 2.67728 0
M  V30 5003 H 470.036 2.82201 1.01502 0
M  V30 5004 H 467.589 1.48303 0.493556 0
M  V30 5005 H 468.324 1.20146 3.01223 0
M  V30 5006 H 468.109 2.92895 2.60682 0
M  V30 5007 H 469.599 2.38038 3.43115 0
M  V30 5008 N 470.036 -0.519951 1.48776 0
M  V30 5009 C 471.282 -1.27711 1.57536 0
M  V30 5010 C 471.615 -1.92547 0.252866 0
M  V30 5011 O 470.89 -1.7979 -0.742021 0
M  V30 5012 C 471.173 -2.35875 2.72094 0
M  V30 5013 C 471.026 -1.75664 4.1408 0
M  V30 5014 C 472.345 -3.37575 2.82367 0
M  V30 5015 H 469.464 -0.462971 0.573434 0
M  V30 5016 H 472.106 -0.578194 1.80989 0
M  V30 5017 H 470.256 -2.95488 2.52228 0
M  V30 5018 H 471.928 -1.20025 4.45412 0
M  V30 5019 H 470.171 -1.06154 4.20611 0
M  V30 5020 H 470.842 -2.54029 4.90075 0
M  V30 5021 H 473.318 -2.87929 3.00393 0
M  V30 5022 H 472.194 -4.1064 3.64233 0
M  V30 5023 H 472.455 -3.98743 1.90936 0
M  V30 5024 N 471.514 -1.37532 -0.769588 0
M  V30 5025 C 472.925 -1.29382 -1.346 0
M  V30 5026 C 473.276 0.0576039 -1.96115 0
M  V30 5027 O 472.401 0.95947 -1.93967 0
M  V30 5028 C 472.996 -2.34298 -2.44724 0
M  V30 5029 C 471.555 -2.29776 -2.98128 0
M  V30 5030 C 470.702 -2.18013 -1.71364 0
M  V30 5031 H 473.653 -1.48123 -0.56968 0
M  V30 5032 H 473.674 -1.99089 -3.24259 0
M  V30 5033 H 473.186 -3.32645 -1.99922 0
M  V30 5034 H 471.287 -1.34959 -3.47299 0
M  V30 5035 H 471.4 -3.23276 -3.53595 0
M  V30 5036 H 469.764 -1.64595 -1.94372 0
M  V30 5037 H 470.547 -3.18278 -1.28662 0
M  V30 5038 N 472.992 0.995999 -1.22138 0
M  V30 5039 C 474.241 1.72928 -1.03821 0
M  V30 5040 C 474.554 1.90872 0.427444 0
M  V30 5041 O 475.76 2.61496 0.730212 0
M  V30 5042 C 474.216 3.11124 -1.80913 0
M  V30 5043 C 473.824 3.01122 -3.31707 0
M  V30 5044 C 475.568 3.8852 -1.71035 0
M  V30 5045 C 473.475 4.34453 -4.01253 0
M  V30 5046 H 472.405 0.648376 -0.384869 0
M  V30 5047 H 475.056 1.11213 -1.45959 0
M  V30 5048 H 473.438 3.73503 -1.31573 0
M  V30 5049 H 474.612 2.47926 -3.88419 0
M  V30 5050 H 472.927 2.3721 -3.42228 0
M  V30 5051 H 475.524 4.872 -2.20318 0
M  V30 5052 H 475.867 4.1087 -0.670196 0
M  V30 5053 H 476.4 3.32812 -2.17902 0
M  V30 5054 H 473.139 4.17303 -5.05508 0
M  V30 5055 H 472.659 4.87574 -3.49331 0
M  V30 5056 H 474.338 5.03215 -4.06674 0
M  V30 5057 N 474.47 1.03057 1.19235 0
M  V30 5058 C 475.717 0.728019 1.88961 0
M  V30 5059 C 476.045 -0.743515 1.79728 0
M  V30 5060 O 475.3 -1.55729 1.1852 0
M  V30 5061 C 475.599 1.1268 3.39172 0
M  V30 5062 C 475.265 2.5969 3.68608 0
M  V30 5063 C 473.927 2.99854 3.76352 0
M  V30 5064 C 476.279 3.54793 3.81801 0
M  V30 5065 C 473.607 4.34031 3.94758 0
M  V30 5066 C 475.959 4.88675 4.0172 0
M  V30 5067 C 474.623 5.28526 4.07697 0
M  V30 5068 H 473.893 0.266401 0.691456 0
M  V30 5069 H 476.54 1.29373 1.41191 0
M  V30 5070 H 474.845 0.479722 3.88852 0
M  V30 5071 H 476.542 0.870203 3.91444 0
M  V30 5072 H 473.132 2.27575 3.63191 0
M  V30 5073 H 477.316 3.24914 3.7516 0
M  V30 5074 H 472.572 4.6444 3.97625 0
M  V30 5075 H 476.746 5.6228 4.1087 0
M  V30 5076 H 474.373 6.32506 4.21712 0
M  V30 5077 N 475.948 -1.35272 0.808662 0
M  V30 5078 C 477.194 -1.99003 0.390581 0
M  V30 5079 C 477.527 -1.63999 -1.0401 0
M  V30 5080 O 476.802 -0.904368 -1.72196 0
M  V30 5081 C 477.085 -3.55454 0.576566 0
M  V30 5082 C 476.938 -4.00249 2.05233 0
M  V30 5083 C 478.257 -4.401 0.00354277 0
M  V30 5084 H 475.376 -0.722917 0.143388 0
M  V30 5085 H 478.018 -1.6039 1.01858 0
M  V30 5086 H 476.168 -3.88477 0.0419766 0
M  V30 5087 H 477.84 -3.77626 2.64946 0
M  V30 5088 H 476.083 -3.51082 2.54801 0
M  V30 5089 H 476.754 -5.0911 2.13333 0
M  V30 5090 H 479.23 -4.13548 0.460117 0
M  V30 5091 H 478.106 -5.48656 0.163575 0
M  V30 5092 H 478.367 -4.28444 -1.09032 0
M  V30 5093 N 477.426 -0.562348 -1.47226 0
M  V30 5094 C 478.389 0.172056 -2.28553 0
M  V30 5095 C 479.389 0.837928 -1.37242 0
M  V30 5096 O 480.579 0.693001 -1.59822 0
M  V30 5097 C 477.711 1.25223 -3.17068 0
M  V30 5098 H 478.904 -0.542401 -2.94954 0
M  V30 5099 H 476.457 -0.319493 -1.53 0
M  V30 5100 H 477.192 1.99892 -2.55369 0
M  V30 5101 H 476.977 0.779515 -3.84273 0
M  V30 5102 H 478.467 1.76791 -3.78332 0
M  V30 5103 N 478.904 1.54736 -0.299062 0
M  V30 5104 C 479.834 2.26409 0.571085 0
M  V30 5105 C 480.815 1.2629 1.13951 0
M  V30 5106 O 482 1.55059 1.16921 0
M  V30 5107 C 479.13 3.00338 1.74396 0
M  V30 5108 C 478.084 4.07588 1.30599 0
M  V30 5109 C 477.41 4.69222 2.56387 0
M  V30 5110 C 478.71 5.20455 0.438645 0
M  V30 5111 H 480.404 2.99388 -0.0266991 0
M  V30 5112 H 477.95 1.43993 -0.0142812 0
M  V30 5113 H 479.903 3.49198 2.35878 0
M  V30 5114 H 478.627 2.24934 2.36796 0
M  V30 5115 H 477.286 3.59575 0.71424 0
M  V30 5116 H 476.934 3.9046 3.17097 0
M  V30 5117 H 476.634 5.41653 2.27784 0
M  V30 5118 H 478.158 5.20844 3.18675 0
M  V30 5119 H 479.572 5.65221 0.959085 0
M  V30 5120 H 477.969 5.99594 0.246466 0
M  V30 5121 H 479.039 4.8192 -0.536738 0
M  V30 5122 N 480.382 0.0267497 1.57577 0
M  V30 5123 C 481.607 -0.666227 1.96408 0
M  V30 5124 C 482.032 -1.65004 0.903071 0
M  V30 5125 O 481.39 -1.80787 -0.136263 0
M  V30 5126 C 481.438 -1.35101 3.34335 0
M  V30 5127 O 480.542 -2.46623 3.30531 0
M  V30 5128 H 479.883 -0.175206 0.640468 0
M  V30 5129 H 482.413 0.0878977 2.04411 0
M  V30 5130 H 482.423 -1.70834 3.70513 0
M  V30 5131 H 481.098 -0.629844 4.11103 0
M  V30 5132 H 479.675 -2.13019 3.06068 0
M  V30 5133 N 481.861 -1.55662 -0.24637 0
M  V30 5134 C 483.101 -1.79283 -0.981685 0
M  V30 5135 C 483.465 -0.596356 -1.82504 0
M  V30 5136 O 484.666 -0.711342 -2.59217 0
M  V30 5137 C 482.937 -3.07648 -1.819 0
M  V30 5138 S 484.496 -3.52491 -2.61334 0
M  V30 5139 H 481.314 -0.629676 -0.330196 0
M  V30 5140 H 483.916 -1.93901 -0.249498 0
M  V30 5141 H 482.62 -3.92794 -1.18915 0
M  V30 5142 H 482.151 -2.95768 -2.59393 0
M  V30 5143 H 484.166 -3.13866 -3.84321 0
M  V30 5144 N 483.339 0.512053 -1.4905 0
M  V30 5145 C 484.586 1.26686 -1.57978 0
M  V30 5146 C 484.914 1.92733 -0.261553 0
M  V30 5147 O 484.169 1.80772 0.749667 0
M  V30 5148 C 484.468 2.36446 -2.68008 0
M  V30 5149 C 484.134 1.87932 -4.09869 0
M  V30 5150 C 482.796 1.74419 -4.48477 0
M  V30 5151 C 485.148 1.5149 -4.98698 0
M  V30 5152 C 482.476 1.22827 -5.73699 0
M  V30 5153 C 484.828 1.01355 -6.24428 0
M  V30 5154 C 483.492 0.864735 -6.61875 0
M  V30 5155 H 482.762 0.463577 -0.578081 0
M  V30 5156 H 485.409 0.569421 -1.82838 0
M  V30 5157 H 483.714 3.11933 -2.37076 0
M  V30 5158 H 485.411 2.9453 -2.72127 0
M  V30 5159 H 482.001 1.99405 -3.79389 0
M  V30 5160 H 486.185 1.60782 -4.69535 0
M  V30 5161 H 481.441 1.10008 -6.01422 0
M  V30 5162 H 485.615 0.722351 -6.92644 0
M  V30 5163 H 483.242 0.462777 -7.5879 0
M  V30 5164 N 484.817 1.37938 0.762283 0
M  V30 5165 C 486.065 1.33404 1.51815 0
M  V30 5166 C 486.386 -0.0780975 1.94844 0
M  V30 5167 O 485.656 -1.02405 1.67003 0
M  V30 5168 H 484.236 0.490839 0.563104 0
M  V30 5169 H 486.898 1.72527 0.906669 0
M  V30 5170 H 485.994 1.97926 2.41313 0
M  V30 5171 N 486.295 -0.989507 1.22664 0
M  V30 5172 C 487.52 -1.77031 1.08051 0
M  V30 5173 C 487.945 -1.84535 -0.364483 0
M  V30 5174 O 487.303 -1.3003 -1.2634 0
M  V30 5175 C 487.351 -3.18 1.70024 0
M  V30 5176 O 486.455 -4.01161 0.956216 0
M  V30 5177 H 485.796 -0.545008 0.379292 0
M  V30 5178 H 488.326 -1.24277 1.62531 0
M  V30 5179 H 488.336 -3.68616 1.74888 0
M  V30 5180 H 487.011 -3.11853 2.75174 0
M  V30 5181 H 485.588 -3.59687 0.98384 0
M  V30 5182 N 487.773 -1.03688 -1.18687 0
M  V30 5183 C 488.706 -0.569112 -2.2099 0
M  V30 5184 C 489.684 0.394315 -1.57746 0
M  V30 5185 O 490.868 0.309519 -1.85941 0
M  V30 5186 C 487.995 0.169104 -3.38278 0
M  V30 5187 C 487.041 -0.746989 -4.19908 0
M  V30 5188 S 487.874 -2.22773 -4.86963 0
M  V30 5189 C 489.03 -1.50025 -6.07654 0
M  V30 5190 H 489.263 -1.43589 -2.60326 0
M  V30 5191 H 486.796 -0.847507 -1.29061 0
M  V30 5192 H 488.754 0.588868 -4.06254 0
M  V30 5193 H 487.415 1.01172 -2.9736 0
M  V30 5194 H 486.608 -0.176626 -5.0369 0
M  V30 5195 H 486.21 -1.10543 -3.5729 0
M  V30 5196 H 488.502 -0.791217 -6.72864 0
M  V30 5197 H 489.445 -2.31498 -6.69189 0
M  V30 5198 H 489.853 -0.994245 -5.55675 0
M  V30 5199 N 489.251 1.34841 -0.815825 0
M  V30 5200 C 490.199 2.31549 -0.220888 0
M  V30 5201 C 491.193 1.5707 0.634457 0
M  V30 5202 O 492.399 1.72125 0.526589 0
M  V30 5203 H 488.774 0.750153 -0.0526782 0
M  V30 5204 H 490.745 2.7926 -1.05149 0
M  V30 5205 C 489.494 3.42335 0.608427 0
M  V30 5206 H 488.817 3.9978 -0.0404121 0
M  V30 5207 H 490.257 4.12258 0.990931 0
M  V30 5208 C 488.716 2.86173 1.77782 0
M  V30 5209 O 489.246 2.80474 2.87571 0
M  V30 5210 N 487.452 2.43093 1.59229 0
M  V30 5211 H 486.999 2.47928 0.699237 0
M  V30 5212 H 486.957 2.05866 2.37627 0
M  V30 5213 N 490.729 0.570148 1.46925 0
M  V30 5214 C 491.977 0.0508523 2.02036 0
M  V30 5215 C 492.298 -1.30885 1.44548 0
M  V30 5216 O 491.568 -1.85647 0.625453 0
M  V30 5217 H 490.148 0.0158088 0.746833 0
M  V30 5218 H 492.81 0.743086 1.80178 0
M  V30 5219 H 491.906 -0.027575 3.12088 0
M  V30 5220 N 492.207 -1.54576 0.307264 0
M  V30 5221 C 493.455 -1.99867 -0.299574 0
M  V30 5222 C 493.776 -1.19714 -1.53927 0
M  V30 5223 O 493.046 -0.29472 -1.9367 0
M  V30 5224 H 491.626 -0.738299 -0.113683 0
M  V30 5225 H 494.288 -1.9032 0.420042 0
M  V30 5226 H 493.384 -3.06901 -0.567283 0
M  V30 5227 N 493.685 -0.035106 -1.57561 0
M  V30 5228 C 494.931 0.64318 -1.92331 0
M  V30 5229 C 495.264 1.71434 -0.912368 0
M  V30 5230 O 494.539 1.94395 0.0640303 0
M  V30 5231 C 494.822 1.25411 -3.37556 0
M  V30 5232 C 494.675 0.192109 -4.4939 0
M  V30 5233 C 495.994 2.17041 -3.82859 0
M  V30 5234 H 493.113 0.232341 -0.699419 0
M  V30 5235 H 495.755 -0.0935889 -1.89769 0
M  V30 5236 H 493.905 1.88205 -3.39869 0
M  V30 5237 H 495.577 -0.438849 -4.59208 0
M  V30 5238 H 493.82 -0.481725 -4.31117 0
M  V30 5239 H 494.491 0.659292 -5.48049 0
M  V30 5240 H 496.967 1.64228 -3.8232 0
M  V30 5241 H 495.843 2.56738 -4.85157 0
M  V30 5242 H 496.104 3.06401 -3.18702 0
M  V30 5243 N 495.163 1.55791 0.238111 0
M  V30 5244 C 496.41 1.78033 0.964907 0
M  V30 5245 C 496.738 0.600984 1.84982 0
M  V30 5246 O 495.993 -0.41536 1.91241 0
M  V30 5247 C 496.292 3.05869 1.84875 0
M  V30 5248 C 495.958 4.36808 1.11846 0
M  V30 5249 C 494.62 4.72388 0.916662 0
M  V30 5250 C 496.972 5.17717 0.60151 0
M  V30 5251 C 494.3 5.86406 0.185756 0
M  V30 5252 C 496.652 6.32494 -0.115972 0
M  V30 5253 C 495.316 6.66688 -0.329168 0
M  V30 5254 H 494.586 0.651469 0.353085 0
M  V30 5255 H 497.233 1.90061 0.234318 0
M  V30 5256 H 495.538 2.88891 2.64668 0
M  V30 5257 H 497.235 3.20278 2.41294 0
M  V30 5258 H 493.825 4.08862 1.28569 0
M  V30 5259 H 498.009 4.90678 0.744932 0
M  V30 5260 H 493.265 6.11399 0.0101886 0
M  V30 5261 H 497.439 6.94425 -0.524127 0
M  V30 5262 H 495.066 7.54884 -0.897474 0
M  V30 5263 N 496.642 -0.504142 1.49319 0
M  V30 5264 C 497.605 -1.5883 1.65244 0
M  V30 5265 C 498.605 -1.52009 0.524386 0
M  V30 5266 O 499.795 -1.55218 0.79077 0
M  V30 5267 C 496.927 -2.98481 1.64687 0
M  V30 5268 H 498.12 -1.4604 2.61939 0
M  V30 5269 H 495.673 -0.728144 1.38303 0
M  V30 5270 H 496.408 -3.16751 0.695644 0
M  V30 5271 H 496.193 -3.0484 2.46607 0
M  V30 5272 H 497.683 -3.77256 1.79075 0
M  V30 5273 N 498.12 -1.38341 -0.754957 0
M  V30 5274 C 499.366 -1.34672 -1.51628 0
M  V30 5275 C 499.699 0.0636036 -1.94096 0
M  V30 5276 O 498.974 1.0245 -1.6533 0
M  V30 5277 C 499.257 -2.30116 -2.76981 0
M  V30 5278 C 499.11 -3.80003 -2.4066 0
M  V30 5279 C 500.429 -2.23715 -3.78998 0
M  V30 5280 H 497.548 -0.490517 -0.550056 0
M  V30 5281 H 500.19 -1.69178 -0.864807 0
M  V30 5282 H 498.34 -2.00821 -3.3257 0
M  V30 5283 H 500.012 -4.19966 -1.90856 0
M  V30 5284 H 498.255 -3.97751 -1.73137 0
M  V30 5285 H 498.926 -4.42244 -3.30339 0
M  V30 5286 H 501.402 -2.49574 -3.32945 0
M  V30 5287 H 500.278 -2.9261 -4.64403 0
M  V30 5288 H 500.539 -1.23554 -4.24484 0
M  V30 5289 N 499.598 0.982988 -1.23187 0
M  V30 5290 C 500.823 1.76455 -1.08988 0
M  V30 5291 C 501.248 1.84726 0.354691 0
M  V30 5292 O 500.606 1.30699 1.25649 0
M  V30 5293 C 500.654 3.17094 -1.71708 0
M  V30 5294 O 499.758 4.00648 -0.977477 0
M  V30 5295 H 499.099 0.542988 -0.382177 0
M  V30 5296 H 501.629 1.23413 -1.63188 0
M  V30 5297 H 501.639 3.67684 -1.76841 0
M  V30 5298 H 500.314 3.10389 -2.76823 0
M  V30 5299 H 498.891 3.59161 -1.0029 0
M  V30 5300 N 501.076 1.04316 1.18135 0
M  V30 5301 C 502.492 0.762858 1.40188 0
M  V30 5302 C 502.692 -0.646547 1.90846 0
M  V30 5303 O 501.748 -1.41036 2.0944 0
M  V30 5304 C 503.061 1.81106 2.40044 0
M  V30 5305 C 504.609 1.83226 2.53766 0
M  V30 5306 C 505.084 2.87044 3.56889 0
M  V30 5307 N 506.575 2.85951 3.64398 0
M  V30 5308 C 507.31 3.62932 4.43923 0
M  V30 5309 N 506.806 4.49672 5.27036 0
M  V30 5310 N 508.599 3.51411 4.38711 0
M  V30 5311 H 500.75 1.95264 0.835805 0
M  V30 5312 H 503.013 0.845017 0.429709 0
M  V30 5313 H 502.719 2.82214 2.09876 0
M  V30 5314 H 502.593 1.64529 3.39426 0
M  V30 5315 H 504.98 0.827869 2.8325 0
M  V30 5316 H 505.061 2.03879 1.54489 0
M  V30 5317 H 504.705 3.87663 3.28145 0
M  V30 5318 H 504.635 2.63645 4.5585 0
M  V30 5319 H 507.126 2.23051 3.05052 0
M  V30 5320 H 507.439 5.05116 5.84874 0
M  V30 5321 H 505.784 4.53738 5.26447 0
M  V30 5322 H 508.975 2.83047 3.72829 0
M  V30 5323 H 509.148 4.11654 5.00445 0
M  V30 5324 N 502.554 -1.34406 0.822964 0
M  V30 5325 C 503.484 -2.32052 0.259608 0
M  V30 5326 C 504.465 -1.58243 -0.623961 0
M  V30 5327 O 505.65 -1.86224 -0.55083 0
M  V30 5328 C 502.78 -3.42434 -0.579314 0
M  V30 5329 C 501.734 -4.27499 0.20712 0
M  V30 5330 C 501.06 -5.29349 -0.754547 0
M  V30 5331 C 502.36 -5.02758 1.41533 0
M  V30 5332 H 504.054 -2.79418 1.07545 0
M  V30 5333 H 501.6 -1.34338 0.518593 0
M  V30 5334 H 503.553 -4.0976 -0.983612 0
M  V30 5335 H 502.277 -2.93717 -1.4282 0
M  V30 5336 H 500.936 -3.61776 0.592787 0
M  V30 5337 H 500.584 -4.76895 -1.59939 0
M  V30 5338 H 500.284 -5.8714 -0.232561 0
M  V30 5339 H 501.808 -5.99544 -1.1567 0
M  V30 5340 H 503.222 -5.62938 1.08504 0
M  V30 5341 H 501.619 -5.70123 1.87296 0
M  V30 5342 H 502.689 -4.32451 2.1935 0
M  V30 5343 N 504.032 -0.577932 -1.46621 0
M  V30 5344 C 505.279 -0.0616879 -2.02406 0
M  V30 5345 C 505.607 1.29638 -1.44997 0
M  V30 5346 O 504.862 1.86176 -0.60308 0
M  V30 5347 C 505.161 0.0590832 -3.57351 0
M  V30 5348 C 504.827 -1.23077 -4.33777 0
M  V30 5349 C 503.489 -1.58416 -4.54376 0
M  V30 5350 C 505.841 -2.08457 -4.77698 0
M  V30 5351 C 503.169 -2.78943 -5.16147 0
M  V30 5352 C 505.521 -3.28204 -5.408 0
M  V30 5353 C 504.185 -3.63832 -5.59627 0
M  V30 5354 H 503.455 -0.0225732 -0.740656 0
M  V30 5355 H 506.102 -0.753609 -1.76048 0
M  V30 5356 H 504.407 0.834104 -3.82818 0
M  V30 5357 H 506.104 0.474202 -3.98186 0
M  V30 5358 H 502.694 -0.945652 -4.18038 0
M  V30 5359 H 506.878 -1.82459 -4.61544 0
M  V30 5360 H 502.134 -3.06689 -5.28916 0
M  V30 5361 H 506.308 -3.94634 -5.73792 0
M  V30 5362 H 503.935 -4.57315 -6.07262 0
M  V30 5363 N 505.51 1.54411 -0.315457 0
M  V30 5364 C 506.74 2.04536 0.291315 0
M  V30 5365 C 507.148 1.19162 1.4696 0
M  V30 5366 O 506.491 0.213199 1.82459 0
M  V30 5367 C 506.553 3.5056 0.796725 0
M  V30 5368 C 506.217 4.5627 -0.258178 0
M  V30 5369 C 507.214 5.08312 -1.09153 0
M  V30 5370 C 504.899 5.00672 -0.404036 0
M  V30 5371 C 506.893 6.03312 -2.05655 0
M  V30 5372 C 504.58 5.95488 -1.37248 0
M  V30 5373 C 505.578 6.46693 -2.19721 0
M  V30 5374 O 505.266 7.39648 -3.14921 0
M  V30 5375 H 504.998 0.672856 0.0651165 0
M  V30 5376 H 507.552 2.00244 -0.457308 0
M  V30 5377 H 505.782 3.52223 1.59612 0
M  V30 5378 H 507.471 3.83804 1.32096 0
M  V30 5379 H 508.237 4.74793 -0.98979 0
M  V30 5380 H 504.116 4.60436 0.22799 0
M  V30 5381 H 507.66 6.43203 -2.70067 0
M  V30 5382 H 503.557 6.28424 -1.47489 0
M  V30 5383 H 504.325 7.57496 -3.10067 0
M  V30 5384 N 506.988 0.0434614 1.5754 0
M  V30 5385 C 508.234 -0.632971 1.92669 0
M  V30 5386 C 508.567 -1.70947 0.921446 0
M  V30 5387 O 507.842 -1.94426 -0.0537202 0
M  V30 5388 C 508.125 -1.23619 3.38216 0
M  V30 5389 C 507.978 -0.168274 4.49485 0
M  V30 5390 C 509.297 -2.15008 3.84005 0
M  V30 5391 H 506.416 -0.228629 0.700641 0
M  V30 5392 H 509.058 0.103651 1.89717 0
M  V30 5393 H 507.208 -1.864 3.40863 0
M  V30 5394 H 508.88 0.463196 4.58969 0
M  V30 5395 H 507.123 0.504581 4.30855 0
M  V30 5396 H 507.794 -0.630218 5.48391 0
M  V30 5397 H 510.27 -1.62198 3.83185 0
M  V30 5398 H 509.146 -2.54161 4.86511 0
M  V30 5399 H 509.407 -3.04707 3.20322 0
M  V30 5400 N 508.466 -1.55915 -0.229846 0
M  V30 5401 C 509.429 -1.90914 -1.26824 0
M  V30 5402 C 510.429 -0.786999 -1.40225 0
M  V30 5403 O 511.619 -1.05484 -1.38632 0
M  V30 5404 C 508.751 -2.15264 -2.64337 0
M  V30 5405 H 509.944 -2.8378 -0.969998 0
M  V30 5406 H 507.497 -1.49069 -0.4699 0
M  V30 5407 H 508.232 -1.24923 -2.99274 0
M  V30 5408 H 508.017 -2.97005 -2.55989 0
M  V30 5409 H 509.507 -2.43467 -3.39284 0
M  V30 5410 N 509.944 0.496216 -1.49584 0
M  V30 5411 C 511.169 1.27865 -1.63295 0
M  V30 5412 C 511.594 1.85592 -0.306156 0
M  V30 5413 O 510.952 1.66092 0.726851 0
M  V30 5414 C 511 2.38128 -2.7079 0
M  V30 5415 O 510.104 3.42108 -2.30296 0
M  V30 5416 H 509.445 0.377279 -0.546403 0
M  V30 5417 H 511.975 0.593497 -1.95803 0
M  V30 5418 H 511.985 2.8382 -2.93104 0
M  V30 5419 H 510.66 1.95479 -3.67098 0
M  V30 5420 H 509.237 3.02301 -2.18331 0
M  V30 5421 N 511.423 1.38739 0.74761 0
M  V30 5422 C 512.839 1.20067 1.05148 0
M  V30 5423 C 513.039 0.0534835 2.01429 0
M  V30 5424 O 512.095 -0.59886 2.45296 0
M  V30 5425 C 513.408 2.52957 1.62584 0
M  V30 5426 C 514.956 2.59692 1.74726 0
M  V30 5427 C 515.431 3.92772 2.35573 0
M  V30 5428 N 516.922 3.94343 2.42997 0
M  V30 5429 C 517.657 4.9408 2.90985 0
M  V30 5430 N 517.153 6.04214 3.38965 0
M  V30 5431 N 518.946 4.81466 2.9008 0
M  V30 5432 H 511.097 2.12121 0.108808 0
M  V30 5433 H 513.36 0.941491 0.110899 0
M  V30 5434 H 513.066 3.37389 0.993051 0
M  V30 5435 H 512.94 2.71779 2.61565 0
M  V30 5436 H 515.327 1.75651 2.3713 0
M  V30 5437 H 515.408 2.44731 0.744326 0
M  V30 5438 H 515.052 4.77238 1.738 0
M  V30 5439 H 514.982 4.05046 3.36519 0
M  V30 5440 H 517.473 3.14799 2.0907 0
M  V30 5441 H 517.786 6.76241 3.74056 0
M  V30 5442 H 516.131 6.07825 3.37007 0
M  V30 5443 H 519.322 3.94535 2.51912 0
M  V30 5444 H 519.495 5.59344 3.27166 0
M  V30 5445 N 512.901 -0.976442 1.23707 0
M  V30 5446 C 513.811 -2.10359 1.03856 0
M  V30 5447 C 514.827 -1.73991 -0.0180919 0
M  V30 5448 O 516.003 -2.0061 0.178211 0
M  V30 5449 C 513.068 -3.40809 0.636387 0
M  V30 5450 C 512.129 -3.91179 1.76854 0
M  V30 5451 C 511.362 -5.15404 1.38546 0
M  V30 5452 O 511.585 -5.69754 0.27142 0
M  V30 5453 O 510.519 -5.5994 2.20797 0
M  V30 5454 H 514.345 -2.29997 1.98331 0
M  V30 5455 H 511.93 -1.08742 1.02448 0
M  V30 5456 H 513.812 -4.19269 0.423223 0
M  V30 5457 H 512.487 -3.22493 -0.279322 0
M  V30 5458 H 511.394 -3.13819 2.03638 0
M  V30 5459 H 512.727 -4.13958 2.6627 0
M  V30 5460 N 514.379 -1.04941 -1.1758 0
M  V30 5461 C 515.627 -0.756492 -1.87408 0
M  V30 5462 C 515.948 0.718478 -1.81281 0
M  V30 5463 O 515.218 1.519 -1.23706 0
M  V30 5464 H 513.798 -0.276841 -0.693807 0
M  V30 5465 H 516.46 -1.32803 -1.42652 0
M  V30 5466 H 515.556 -1.06918 -2.93215 0
M  V30 5467 N 515.857 1.33968 -0.830081 0
M  V30 5468 C 516.807 2.26845 -0.229242 0
M  V30 5469 C 517.791 1.48862 0.610659 0
M  V30 5470 O 518.983 1.70808 0.464067 0
M  V30 5471 C 516.112 3.3798 0.602057 0
M  V30 5472 C 515.198 4.23369 -0.248866 0
M  V30 5473 N 515.589 4.88182 -1.32334 0
M  V30 5474 C 513.887 4.45987 -0.0344077 0
M  V30 5475 C 514.588 5.51671 -1.84482 0
M  V30 5476 N 513.564 5.31348 -1.14762 0
M  V30 5477 H 517.366 2.74464 -1.05104 0
M  V30 5478 H 514.88 1.4777 -0.673623 0
M  V30 5479 H 516.877 4.03494 1.04873 0
M  V30 5480 H 515.537 2.9191 1.42193 0
M  V30 5481 H 516.548 4.88988 -1.70619 0
M  V30 5482 H 513.225 4.10658 0.752727 0
M  V30 5483 H 514.615 6.13308 -2.74413 0
M  V30 5484 N 517.335 0.585699 1.46312 0
M  V30 5485 C 518.265 -0.133556 2.33118 0
M  V30 5486 C 519.246 -0.880707 1.45525 0
M  V30 5487 O 520.431 -0.855579 1.74337 0
M  V30 5488 C 517.561 -1.14585 3.27853 0
M  V30 5489 C 516.515 -0.513341 4.2491 0
M  V30 5490 C 515.841 -1.63231 5.09175 0
M  V30 5491 C 517.141 0.551413 5.19381 0
M  V30 5492 H 518.835 0.59121 2.93505 0
M  V30 5493 H 516.381 0.285761 1.41136 0
M  V30 5494 H 518.334 -1.65741 3.87438 0
M  V30 5495 H 517.058 -1.90093 2.65579 0
M  V30 5496 H 515.717 -0.0228349 3.66593 0
M  V30 5497 H 515.365 -2.37713 4.43285 0
M  V30 5498 H 515.065 -1.21473 5.74907 0
M  V30 5499 H 516.589 -2.14658 5.71624 0
M  V30 5500 H 518.003 0.124804 5.73164 0
M  V30 5501 H 516.4 0.889486 5.93471 0
M  V30 5502 H 517.47 1.43655 4.63132 0
M  V30 5503 N 518.813 -1.54241 0.323641 0
M  V30 5504 C 520.224 -1.85975 -0.164405 0
M  V30 5505 C 520.575 -1.24529 -1.51615 0
M  V30 5506 O 519.7 -0.551351 -2.09258 0
M  V30 5507 C 520.295 -3.37424 -0.305091 0
M  V30 5508 C 518.854 -3.69107 -0.737358 0
M  V30 5509 C 518.001 -2.76942 0.140884 0
M  V30 5510 H 520.952 -1.49088 0.543922 0
M  V30 5511 H 520.973 -3.63147 -1.13598 0
M  V30 5512 H 520.485 -3.82116 0.678876 0
M  V30 5513 H 518.586 -3.29947 -1.73107 0
M  V30 5514 H 518.699 -4.76035 -0.541053 0
M  V30 5515 H 517.063 -2.51795 -0.383572 0
M  V30 5516 H 517.846 -3.24461 1.12162 0
M  V30 5517 N 520.291 -0.0518155 -1.57515 0
M  V30 5518 C 521.201 0.937539 -2.15052 0
M  V30 5519 C 522.217 1.34121 -1.10849 0
M  V30 5520 O 523.393 1.418 -1.4302 0
M  V30 5521 C 520.458 2.19379 -2.68466 0
M  V30 5522 C 519.519 1.84841 -3.87469 0
M  V30 5523 C 518.752 3.04477 -4.38326 0
M  V30 5524 O 518.975 4.17868 -3.88256 0
M  V30 5525 O 517.909 2.85453 -5.29906 0
M  V30 5526 H 521.735 0.478201 -2.99912 0
M  V30 5527 H 519.32 0.17012 -1.48428 0
M  V30 5528 H 521.202 2.93084 -3.02787 0
M  V30 5529 H 519.877 2.64449 -1.86677 0
M  V30 5530 H 518.784 1.08449 -3.58036 0
M  V30 5531 H 520.117 1.44569 -4.7049 0
M  V30 5532 N 521.769 1.56035 0.221574 0
M  V30 5533 C 523.018 1.78245 0.944016 0
M  V30 5534 C 523.331 0.620371 1.85501 0
M  V30 5535 O 524.537 0.726103 2.6161 0
M  V30 5536 C 522.993 3.15659 1.7288 0
M  V30 5537 C 522.601 4.39591 0.863942 0
M  V30 5538 C 524.345 3.47195 2.44246 0
M  V30 5539 C 522.252 5.6803 1.64607 0
M  V30 5540 H 521.182 0.664547 0.356222 0
M  V30 5541 H 523.833 1.8243 0.197904 0
M  V30 5542 H 522.215 3.0565 2.51781 0
M  V30 5543 H 523.389 4.60655 0.115464 0
M  V30 5544 H 521.704 4.15572 0.262407 0
M  V30 5545 H 524.301 4.40381 3.03263 0
M  V30 5546 H 524.644 2.69693 3.1713 0
M  V30 5547 H 525.177 3.58533 1.72334 0
M  V30 5548 H 521.916 6.48425 0.960507 0
M  V30 5549 H 521.436 5.51027 2.36917 0
M  V30 5550 H 523.115 6.08203 2.20675 0
M  V30 5551 N 523.247 -0.488276 1.49845 0
M  V30 5552 C 524.177 -1.59675 1.70371 0
M  V30 5553 C 525.158 -1.60878 0.552473 0
M  V30 5554 O 526.343 -1.77417 0.78973 0
M  V30 5555 C 523.473 -2.98098 1.782 0
M  V30 5556 C 522.427 -3.11761 2.93239 0
M  V30 5557 C 521.753 -4.51661 2.86193 0
M  V30 5558 C 523.053 -2.90589 4.33999 0
M  V30 5559 H 524.747 -1.42752 2.63177 0
M  V30 5560 H 522.293 -0.685317 1.26647 0
M  V30 5561 H 524.246 -3.75555 1.91144 0
M  V30 5562 H 522.97 -3.16138 0.820018 0
M  V30 5563 H 521.629 -2.36732 2.79917 0
M  V30 5564 H 521.277 -4.66595 1.87877 0
M  V30 5565 H 520.977 -4.61742 3.63412 0
M  V30 5566 H 522.501 -5.31162 3.01163 0
M  V30 5567 H 523.915 -3.57807 4.47936 0
M  V30 5568 H 522.312 -3.1213 5.12538 0
M  V30 5569 H 523.382 -1.86595 4.4756 0
M  V30 5570 N 524.725 -1.39134 -0.740242 0
M  V30 5571 C 525.95 -1.39518 -1.53459 0
M  V30 5572 C 526.375 0.00968883 -1.88098 0
M  V30 5573 O 525.733 0.995312 -1.51536 0
M  V30 5574 C 525.781 -2.26981 -2.802 0
M  V30 5575 O 524.885 -1.69609 -3.75908 0
M  V30 5576 H 524.226 -0.475328 -0.463637 0
M  V30 5577 H 526.756 -1.83064 -0.913717 0
M  V30 5578 H 526.766 -2.41309 -3.28989 0
M  V30 5579 H 525.441 -3.29081 -2.5432 0
M  V30 5580 H 524.018 -1.64495 -3.34658 0
M  V30 5581 N 526.204 0.969867 -1.24223 0
M  V30 5582 C 527.137 2.06279 -0.975926 0
M  V30 5583 C 528.115 1.62353 0.0895385 0
M  V30 5584 O 529.299 1.88442 -0.0469418 0
M  V30 5585 C 526.426 3.35391 -0.472315 0
M  V30 5586 C 525.472 3.98266 -1.526 0
M  V30 5587 S 526.305 4.36172 -3.10667 0
M  V30 5588 C 527.461 5.68423 -2.62003 0
M  V30 5589 H 527.694 2.28551 -1.90137 0
M  V30 5590 H 525.227 1.10748 -1.07584 0
M  V30 5591 H 527.185 4.10068 -0.188376 0
M  V30 5592 H 525.846 3.1111 0.432378 0
M  V30 5593 H 525.039 4.91307 -1.12399 0
M  V30 5594 H 524.641 3.30009 -1.75983 0
M  V30 5595 H 526.933 6.45842 -2.0468 0
M  V30 5596 H 527.876 6.13478 -3.53625 0
M  V30 5597 H 528.284 5.26928 -2.02502 0
M  V30 5598 N 527.682 1.05563 1.17022 0
M  V30 5599 C 528.931 0.763036 1.8671 0
M  V30 5600 C 529.244 -0.712857 1.82147 0
M  V30 5601 O 530.45 -1.11955 2.47343 0
M  V30 5602 C 528.906 1.31474 3.35026 0
M  V30 5603 C 528.514 2.82034 3.48081 0
M  V30 5604 C 530.258 1.09935 4.10018 0
M  V30 5605 C 528.165 3.30486 4.90442 0
M  V30 5606 H 527.095 0.281747 0.699382 0
M  V30 5607 H 529.746 1.2734 1.32124 0
M  V30 5608 H 528.128 0.732171 3.89173 0
M  V30 5609 H 529.302 3.46178 3.04133 0
M  V30 5610 H 527.617 3.02156 2.86515 0
M  V30 5611 H 530.214 1.43632 5.15048 0
M  V30 5612 H 530.557 0.0373072 4.16283 0
M  V30 5613 H 531.09 1.64732 3.62089 0
M  V30 5614 H 527.829 4.36137 4.89352 0
M  V30 5615 H 527.349 2.71086 5.35044 0
M  V30 5616 H 529.028 3.25382 5.59227 0
M  V30 5617 N 529.16 -1.33526 0.837174 0
M  V30 5618 C 530.11 -2.2672 0.241269 0
M  V30 5619 C 531.094 -1.49183 -0.602756 0
M  V30 5620 O 532.286 -1.71052 -0.455002 0
M  V30 5621 C 529.415 -3.38294 -0.584125 0
M  V30 5622 C 528.501 -4.23231 0.271315 0
M  V30 5623 N 528.892 -4.87473 1.34922 0
M  V30 5624 C 527.19 -4.45962 0.0580589 0
M  V30 5625 C 527.891 -5.50685 1.87405 0
M  V30 5626 N 526.867 -5.30732 1.17578 0
M  V30 5627 H 530.669 -2.73903 1.06558 0
M  V30 5628 H 528.183 -1.47411 0.68145 0
M  V30 5629 H 530.18 -4.04044 -1.02731 0
M  V30 5630 H 528.84 -2.9266 -1.40643 0
M  V30 5631 H 529.851 -4.88077 1.7321 0
M  V30 5632 H 526.528 -4.11052 -0.730938 0
M  V30 5633 H 527.918 -6.11845 2.77661 0
M  V30 5634 N 530.638 -0.59345 -1.46 0
M  V30 5635 C 531.884 -0.0832754 -2.02629 0
M  V30 5636 C 532.217 1.27749 -1.46266 0
M  V30 5637 O 531.492 1.8395 -0.631866 0
M  V30 5638 C 531.775 -0.0290756 -3.60088 0
M  V30 5639 C 531.628 -1.41951 -4.26814 0
M  V30 5640 C 532.947 0.666055 -4.35031 0
M  V30 5641 H 530.066 -0.031736 -0.736316 0
M  V30 5642 H 532.708 -0.762711 -1.74019 0
M  V30 5643 H 530.858 0.549532 -3.84594 0
M  V30 5644 H 532.53 -2.04411 -4.13538 0
M  V30 5645 H 530.773 -1.98422 -3.8576 0
M  V30 5646 H 531.444 -1.33395 -5.3564 0
M  V30 5647 H 533.92 0.174401 -4.15734 0
M  V30 5648 H 532.796 0.673041 -5.44758 0
M  V30 5649 H 533.057 1.72946 -4.06869 0
M  V30 5650 N 532.116 1.54067 -0.331816 0
M  V30 5651 C 533.532 1.59587 0.0205388 0
M  V30 5652 C 533.732 1.34813 1.49759 0
M  V30 5653 O 532.788 1.13661 2.25471 0
M  V30 5654 C 534.101 2.97959 -0.405103 0
M  V30 5655 C 535.649 3.10964 -0.356454 0
M  V30 5656 C 536.124 4.51694 -0.757384 0
M  V30 5657 N 537.615 4.57709 -0.71111 0
M  V30 5658 C 538.35 5.64729 -0.993427 0
M  V30 5659 N 537.846 6.79652 -1.3433 0
M  V30 5660 N 539.639 5.54546 -0.918442 0
M  V30 5661 H 531.79 1.68426 -1.29407 0
M  V30 5662 H 534.053 0.78819 -0.526745 0
M  V30 5663 H 533.759 3.21115 -1.43451 0
M  V30 5664 H 533.633 3.76524 0.225692 0
M  V30 5665 H 536.02 2.87538 0.663763 0
M  V30 5666 H 536.101 2.34484 -1.02229 0
M  V30 5667 H 535.745 4.75853 -1.77555 0
M  V30 5668 H 535.675 5.26555 -0.0691444 0
M  V30 5669 H 538.166 3.75176 -0.452883 0
M  V30 5670 H 538.479 7.57221 -1.54388 0
M  V30 5671 H 536.824 6.81128 -1.38164 0
M  V30 5672 H 540.015 4.63641 -0.644536 0
M  V30 5673 H 540.188 6.37861 -1.14181 0
M  V30 5674 N 533.594 0.0601682 1.57485 0
M  V30 5675 C 534.541 -0.91112 2.12055 0
M  V30 5676 C 535.511 -1.30298 1.03013 0
M  V30 5677 O 536.696 -1.39087 1.30612 0
M  V30 5678 C 533.836 -2.1775 2.67729 0
M  V30 5679 C 532.949 -1.83933 3.90887 0
M  V30 5680 C 532.084 -3.05096 4.34845 0
M  V30 5681 C 531.123 -2.67241 5.5068 0
M  V30 5682 N 530.26 -3.81127 5.8965 0
M  V30 5683 H 535.1 -0.43888 2.9475 0
M  V30 5684 H 532.637 -0.204995 1.45665 0
M  V30 5685 H 534.595 -2.91866 2.98111 0
M  V30 5686 H 533.225 -2.62535 1.87816 0
M  V30 5687 H 532.277 -0.999287 3.6704 0
M  V30 5688 H 533.589 -1.52074 4.75052 0
M  V30 5689 H 532.743 -3.87502 4.66827 0
M  V30 5690 H 531.482 -3.40139 3.49509 0
M  V30 5691 H 530.487 -1.83254 5.18361 0
M  V30 5692 H 531.712 -2.3338 6.37738 0
M  V30 5693 H 529.658 -4.15954 5.07266 0
M  V30 5694 H 529.575 -3.52997 6.68528 0
M  V30 5695 H 530.843 -4.64145 6.2625 0
M  V30 5696 N 535.072 -1.5615 -0.213296 0
M  V30 5697 C 536.022 -1.89485 -1.26804 0
M  V30 5698 C 537.006 -0.758713 -1.41889 0
M  V30 5699 O 538.198 -1.02127 -1.44565 0
M  V30 5700 C 535.327 -2.22219 -2.61675 0
M  V30 5701 C 534.413 -3.42245 -2.50458 0
M  V30 5702 N 534.804 -4.60645 -2.089 0
M  V30 5703 C 533.102 -3.46023 -2.81397 0
M  V30 5704 C 533.803 -5.42805 -2.09135 0
M  V30 5705 N 532.779 -4.82732 -2.49941 0
M  V30 5706 H 536.581 -2.78537 -0.937771 0
M  V30 5707 H 534.095 -1.56826 -0.421824 0
M  V30 5708 H 536.092 -2.44278 -3.37837 0
M  V30 5709 H 534.752 -1.34484 -2.95541 0
M  V30 5710 H 535.763 -4.85651 -1.79899 0
M  V30 5711 H 532.44 -2.68654 -3.1958 0
M  V30 5712 H 533.83 -6.47601 -1.79059 0
M  V30 5713 N 536.55 0.480323 -1.50102 0
M  V30 5714 C 537.778 1.25657 -1.64371 0
M  V30 5715 C 538.193 1.86011 -0.323316 0
M  V30 5716 O 537.55 1.68803 0.693682 0
M  V30 5717 C 537.601 2.37197 -2.728 0
M  V30 5718 O 537.322 1.7932 -3.9972 0
M  V30 5719 C 538.823 3.2823 -2.9796 0
M  V30 5720 H 536.043 0.380369 -0.552775 0
M  V30 5721 H 538.587 0.574379 -1.96268 0
M  V30 5722 H 536.742 3.01208 -2.43623 0
M  V30 5723 H 537.156 2.52701 -4.59611 0
M  V30 5724 H 538.63 4.02725 -3.77513 0
M  V30 5725 H 539.107 3.86462 -2.08671 0
M  V30 5726 H 539.713 2.69964 -3.28633 0
M  V30 5727 N 538.028 1.39524 0.732853 0
M  V30 5728 C 539.439 1.32905 1.31122 0
M  V30 5729 C 539.79 -0.00558708 1.96199 0
M  V30 5730 O 538.915 -0.907706 1.96443 0
M  V30 5731 C 539.51 2.40704 2.38426 0
M  V30 5732 C 538.069 2.37599 2.91931 0
M  V30 5733 C 537.216 2.2248 1.65523 0
M  V30 5734 H 540.167 1.49581 0.530207 0
M  V30 5735 H 540.188 2.07616 3.18867 0
M  V30 5736 H 539.7 3.37829 1.91033 0
M  V30 5737 H 537.801 1.44119 3.43599 0
M  V30 5738 H 537.914 3.32538 3.44899 0
M  V30 5739 H 536.278 1.69691 1.8994 0
M  V30 5740 H 537.061 3.21577 1.20178 0
M  V30 5741 N 539.506 -0.963266 1.24736 0
M  V30 5742 C 540.436 -2.07628 1.06832 0
M  V30 5743 C 541.417 -1.70088 -0.0200566 0
M  V30 5744 O 542.602 -1.93636 0.147854 0
M  V30 5745 C 539.732 -3.40636 0.677069 0
M  V30 5746 C 538.686 -3.9215 1.71471 0
M  V30 5747 C 538.012 -5.21553 1.1784 0
M  V30 5748 C 539.312 -4.19493 3.11164 0
M  V30 5749 H 541.006 -2.22864 1.9993 0
M  V30 5750 H 538.552 -1.07093 0.96266 0
M  V30 5751 H 540.505 -4.17941 0.538792 0
M  V30 5752 H 539.229 -3.25313 -0.289612 0
M  V30 5753 H 537.888 -3.17005 1.84128 0
M  V30 5754 H 537.536 -5.02593 0.202195 0
M  V30 5755 H 537.236 -5.56988 1.87185 0
M  V30 5756 H 538.76 -6.01463 1.05233 0
M  V30 5757 H 540.174 -4.87487 3.01711 0
M  V30 5758 H 538.571 -4.66165 3.77902 0
M  V30 5759 H 539.641 -3.26097 3.58871 0
M  V30 5760 N 540.985 -1.06182 -1.16461 0
M  V30 5761 C 542.396 -0.802426 -1.68576 0
M  V30 5762 C 542.747 0.67412 -1.84255 0
M  V30 5763 O 541.872 1.52303 -1.5373 0
M  V30 5764 C 542.467 -1.45002 -3.06202 0
M  V30 5765 C 541.026 -1.23843 -3.55443 0
M  V30 5766 C 540.173 -1.52724 -2.31454 0
M  V30 5767 H 543.124 -1.22545 -1.00839 0
M  V30 5768 H 543.145 -0.864731 -3.70544 0
M  V30 5769 H 542.657 -2.52466 -2.94759 0
M  V30 5770 H 540.758 -0.183487 -3.72148 0
M  V30 5771 H 540.871 -1.95036 -4.37604 0
M  V30 5772 H 539.235 -0.947726 -2.36411 0
M  V30 5773 H 540.018 -2.61343 -2.22609 0
M  V30 5774 N 542.463 1.3308 -0.844243 0
M  V30 5775 C 543.426 2.27403 -0.286485 0
M  V30 5776 C 544.426 1.51179 0.547872 0
M  V30 5777 O 545.616 1.70421 0.360886 0
M  V30 5778 C 542.748 3.35653 0.595813 0
M  V30 5779 H 543.941 2.78248 -1.11885 0
M  V30 5780 H 541.494 1.43574 -0.617749 0
M  V30 5781 H 542.229 2.90058 1.4504 0
M  V30 5782 H 542.014 3.921 -0.00125994 0
M  V30 5783 H 543.504 4.05958 0.979168 0
M  V30 5784 N 543.941 0.601185 1.45683 0
M  V30 5785 C 545.187 0.0940202 2.02582 0
M  V30 5786 C 545.52 -1.26972 1.46941 0
M  V30 5787 O 544.795 -1.83613 0.641612 0
M  V30 5788 C 545.078 0.0481715 3.60068 0
M  V30 5789 C 544.931 1.44212 4.26055 0
M  V30 5790 C 546.25 -0.642975 4.35378 0
M  V30 5791 H 543.369 0.0356404 0.736138 0
M  V30 5792 H 546.011 0.771929 1.73612 0
M  V30 5793 H 544.161 -0.529128 3.8488 0
M  V30 5794 H 545.833 2.06601 4.12449 0
M  V30 5795 H 544.076 2.00465 3.84703 0
M  V30 5796 H 544.747 1.36234 5.34925 0
M  V30 5797 H 547.223 -0.152351 4.15821 0
M  V30 5798 H 546.099 -0.644141 5.45107 0
M  V30 5799 H 546.36 -1.70785 4.0778 0
M  V30 5800 N 545.419 -1.53889 0.339982 0
M  V30 5801 C 546.668 -2.00035 -0.258604 0
M  V30 5802 C 546.981 -1.23179 -1.51942 0
M  V30 5803 O 548.187 -1.59784 -2.19503 0
M  V30 5804 C 546.643 -3.56249 -0.511359 0
M  V30 5805 C 546.251 -4.41957 0.733349 0
M  V30 5806 C 547.995 -4.1082 -1.069 0
M  V30 5807 C 545.902 -5.89673 0.451591 0
M  V30 5808 H 544.832 -0.747284 -0.10041 0
M  V30 5809 H 547.483 -1.77776 0.454758 0
M  V30 5810 H 545.865 -3.7456 -1.28533 0
M  V30 5811 H 547.039 -4.35421 1.50815 0
M  V30 5812 H 545.354 -3.9836 1.21237 0
M  V30 5813 H 547.951 -5.18789 -1.2947 0
M  V30 5814 H 548.294 -3.63817 -2.02343 0
M  V30 5815 H 548.827 -3.96205 -0.355817 0
M  V30 5816 H 545.566 -6.40903 1.37565 0
M  V30 5817 H 545.086 -5.99122 -0.285193 0
M  V30 5818 H 546.765 -6.46965 0.0675067 0
M  V30 5819 N 546.897 -0.0685191 -1.57451 0
M  V30 5820 C 548.143 0.602239 -1.93652 0
M  V30 5821 C 548.476 1.6946 -0.948526 0
M  V30 5822 O 547.751 1.94487 0.022782 0
M  V30 5823 C 548.034 1.18223 -3.4014 0
M  V30 5824 C 547.887 0.0967431 -4.49696 0
M  V30 5825 C 549.206 2.08872 -3.87377 0
M  V30 5826 H 546.325 0.217453 -0.70419 0
M  V30 5827 H 548.967 -0.133821 -1.89528 0
M  V30 5828 H 547.117 1.80953 -3.43785 0
M  V30 5829 H 548.789 -0.536155 -4.58174 0
M  V30 5830 H 547.032 -0.573063 -4.29998 0
M  V30 5831 H 547.703 0.542894 -5.49324 0
M  V30 5832 H 550.179 1.56081 -3.85717 0
M  V30 5833 H 549.055 2.46389 -4.90493 0
M  V30 5834 H 549.316 2.99572 -3.25129 0
M  V30 5835 N 548.375 1.56261 0.205012 0
M  V30 5836 C 549.305 1.96779 1.257 0
M  V30 5837 C 550.286 0.838309 1.48008 0
M  V30 5838 O 551.471 1.10189 1.59913 0
M  V30 5839 C 548.601 2.29876 2.60335 0
M  V30 5840 C 547.555 3.45469 2.52656 0
M  V30 5841 C 546.881 3.64215 3.91473 0
M  V30 5842 C 548.181 4.79954 2.06014 0
M  V30 5843 H 549.875 2.84904 0.920338 0
M  V30 5844 H 547.421 1.37072 0.441277 0
M  V30 5845 H 549.374 2.56814 3.34102 0
M  V30 5846 H 548.098 1.38622 2.95722 0
M  V30 5847 H 546.757 3.18605 1.81345 0
M  V30 5848 H 546.405 2.70309 4.24196 0
M  V30 5849 H 546.105 4.41973 3.87213 0
M  V30 5850 H 547.629 3.93519 4.66878 0
M  V30 5851 H 549.043 5.05989 2.69533 0
M  V30 5852 H 547.44 5.61111 2.12777 0
M  V30 5853 H 548.51 4.74201 1.01297 0
M  V30 5854 N 549.853 -0.472356 1.50355 0
M  V30 5855 C 550.803 -1.56809 1.65514 0
M  V30 5856 C 551.787 -1.5261 0.509801 0
M  V30 5857 O 552.979 -1.59655 0.764145 0
M  V30 5858 C 550.108 -2.9526 1.75146 0
M  V30 5859 C 549.194 -3.04348 2.95353 0
M  V30 5860 N 549.585 -2.83253 4.19048 0
M  V30 5861 C 547.883 -3.35482 2.93884 0
M  V30 5862 C 548.584 -2.97273 5.00003 0
M  V30 5863 N 547.56 -3.27418 4.33934 0
M  V30 5864 H 551.362 -1.39197 2.58846 0
M  V30 5865 H 548.876 -0.67906 1.47521 0
M  V30 5866 H 550.873 -3.74044 1.8411 0
M  V30 5867 H 549.533 -3.1392 0.829717 0
M  V30 5868 H 550.544 -2.5886 4.48567 0
M  V30 5869 H 547.221 -3.60138 2.11204 0
M  V30 5870 H 548.611 -2.85214 6.08361 0
M  V30 5871 N 551.331 -1.39911 -0.725443 0
M  V30 5872 C 552.742 -1.33599 -1.30415 0
M  V30 5873 C 553.093 -0.00481792 -1.96199 0
M  V30 5874 O 552.218 0.897275 -1.96921 0
M  V30 5875 C 552.813 -2.41965 -2.37146 0
M  V30 5876 C 551.372 -2.39144 -2.90667 0
M  V30 5877 C 550.519 -2.23355 -1.64341 0
M  V30 5878 H 553.47 -1.4986 -0.522267 0
M  V30 5879 H 553.491 -2.09304 -3.17761 0
M  V30 5880 H 553.003 -3.38837 -1.89238 0
M  V30 5881 H 551.104 -1.4594 -3.4283 0
M  V30 5882 H 551.217 -3.34362 -3.43131 0
M  V30 5883 H 549.581 -1.70696 -1.89037 0
M  V30 5884 H 550.364 -3.2221 -1.18471 0
M  V30 5885 N 552.809 0.956637 -1.25245 0
M  V30 5886 C 553.739 2.07058 -1.07931 0
M  V30 5887 C 554.72 1.70096 0.0110361 0
M  V30 5888 O 555.905 1.93555 -0.158121 0
M  V30 5889 C 553.035 3.40272 -0.695124 0
M  V30 5890 C 551.989 3.91235 -1.73549 0
M  V30 5891 C 551.315 5.20921 -1.20604 0
M  V30 5892 C 552.615 4.17837 -3.13385 0
M  V30 5893 H 554.309 2.218 -2.01109 0
M  V30 5894 H 551.855 1.06581 -0.968326 0
M  V30 5895 H 553.808 4.1765 -0.560949 0
M  V30 5896 H 552.532 3.25462 0.272355 0
M  V30 5897 H 551.191 3.16025 -1.85807 0
M  V30 5898 H 550.839 5.02479 -0.228846 0
M  V30 5899 H 550.539 5.55987 -1.90136 0
M  V30 5900 H 552.063 6.00897 -1.08421 0
M  V30 5901 H 553.477 4.8588 -3.04292 0
M  V30 5902 H 551.874 4.64154 -3.80369 0
M  V30 5903 H 552.944 3.2419 -3.60595 0
M  V30 5904 N 554.287 1.06798 1.15896 0
M  V30 5905 C 555.515 0.808694 1.90441 0
M  V30 5906 C 555.93 -0.637506 1.77711 0
M  V30 5907 O 555.287 -1.43684 1.12522 0
M  V30 5908 C 555.338 1.20068 3.40978 0
M  V30 5909 O 555.059 2.59013 3.53333 0
M  V30 5910 C 556.56 0.96987 4.3256 0
M  V30 5911 H 553.78 0.292809 0.603742 0
M  V30 5912 H 556.324 1.42296 1.46874 0
M  V30 5913 H 554.479 0.630842 3.82229 0
M  V30 5914 H 554.893 2.7485 4.46719 0
M  V30 5915 H 556.367 1.29371 5.36626 0
M  V30 5916 H 556.844 -0.0941209 4.39099 0
M  V30 5917 H 557.45 1.52433 3.97044 0
M  V30 5918 N 555.766 -1.3263 0.851289 0
M  V30 5919 C 556.699 -2.26952 0.238318 0
M  V30 5920 C 557.677 -1.50243 -0.621757 0
M  V30 5921 O 558.861 -1.79378 -0.579298 0
M  V30 5922 C 555.988 -3.32124 -0.664178 0
M  V30 5923 C 555.034 -4.26325 0.122067 0
M  V30 5924 S 555.867 -5.14404 1.48824 0
M  V30 5925 C 557.023 -6.231 0.591372 0
M  V30 5926 H 557.256 -2.78594 1.03791 0
M  V30 5927 H 554.789 -1.4011 0.648731 0
M  V30 5928 H 556.747 -3.93197 -1.17924 0
M  V30 5929 H 555.408 -2.79273 -1.43755 0
M  V30 5930 H 554.601 -5.00821 -0.565181 0
M  V30 5931 H 554.203 -3.69652 0.568602 0
M  V30 5932 H 556.495 -6.77187 -0.205762 0
M  V30 5933 H 557.438 -6.95936 1.30687 0
M  V30 5934 H 557.846 -5.64252 0.167206 0
M  V30 5935 N 557.244 -0.608902 -1.45362 0
M  V30 5936 C 558.493 -0.10218 -2.01441 0
M  V30 5937 C 558.806 1.27546 -1.48295 0
M  V30 5938 O 560.012 1.87498 -1.96359 0
M  V30 5939 C 558.468 -0.131985 -3.59658 0
M  V30 5940 C 558.076 -1.50956 -4.21801 0
M  V30 5941 C 559.82 0.319427 -4.23296 0
M  V30 5942 C 557.727 -1.49568 -5.72174 0
M  V30 5943 H 556.657 -0.0344314 -0.753213 0
M  V30 5944 H 559.308 -0.764426 -1.6682 0
M  V30 5945 H 557.69 0.596939 -3.91475 0
M  V30 5946 H 558.864 -2.26029 -4.01556 0
M  V30 5947 H 557.179 -1.90318 -3.70362 0
M  V30 5948 H 559.776 0.349013 -5.3356 0
M  V30 5949 H 560.119 1.34237 -3.94064 0
M  V30 5950 H 560.652 -0.356273 -3.96201 0
M  V30 5951 H 557.391 -2.49626 -6.06108 0
M  V30 5952 H 556.911 -0.787542 -5.94607 0
M  V30 5953 H 558.59 -1.21989 -6.35396 0
M  V30 5954 N 558.722 1.53707 -0.348139 0
M  V30 5955 C 559.655 2.21481 0.549667 0
M  V30 5956 C 560.633 1.20046 1.09671 0
M  V30 5957 O 561.817 1.48883 1.15612 0
M  V30 5958 C 558.944 2.89585 1.75664 0
M  V30 5959 C 557.99 4.04948 1.33864 0
M  V30 5960 S 558.823 5.34325 0.354577 0
M  V30 5961 C 559.979 6.05934 1.56828 0
M  V30 5962 H 560.212 2.97289 -0.0259755 0
M  V30 5963 H 557.745 1.53833 -0.132216 0
M  V30 5964 H 559.703 3.29441 2.44906 0
M  V30 5965 H 558.364 2.13535 2.30351 0
M  V30 5966 H 557.557 4.51552 2.23868 0
M  V30 5967 H 557.159 3.66893 0.725651 0
M  V30 5968 H 559.451 6.29606 2.50205 0
M  V30 5969 H 560.394 6.98799 1.14395 0
M  V30 5970 H 560.802 5.36151 1.76642 0
M  V30 5971 N 560.2 0.0768682 1.57412 0
M  V30 5972 C 561.13 -0.886026 2.16037 0
M  V30 5973 C 562.111 -1.30691 1.08876 0
M  V30 5974 O 563.296 -1.37705 1.36934 0
M  V30 5975 C 560.426 -2.1518 2.72608 0
M  V30 5976 C 559.38 -1.87015 3.8498 0
M  V30 5977 C 558.706 -3.20266 4.28175 0
M  V30 5978 C 560.006 -1.17143 5.08994 0
M  V30 5979 H 561.7 -0.397642 2.96748 0
M  V30 5980 H 559.246 -0.189823 1.42743 0
M  V30 5981 H 561.199 -2.82962 3.12266 0
M  V30 5982 H 559.923 -2.66269 1.89125 0
M  V30 5983 H 558.582 -1.21636 3.45833 0
M  V30 5984 H 558.23 -3.69207 3.41607 0
M  V30 5985 H 557.93 -3.0221 5.03927 0
M  V30 5986 H 559.454 -3.89237 4.70454 0
M  V30 5987 H 560.868 -1.75003 5.45937 0
M  V30 5988 H 559.265 -1.09328 5.90057 0
M  V30 5989 H 560.335 -0.151295 4.84664 0
M  V30 5990 N 561.678 -1.56367 -0.196722 0
M  V30 5991 C 562.925 -1.80529 -0.917366 0
M  V30 5992 C 563.253 -0.649817 -1.83324 0
M  V30 5993 O 562.508 0.36451 -1.92275 0
M  V30 5994 C 562.807 -3.10663 -1.767 0
M  V30 5995 C 562.473 -4.3962 -1.00225 0
M  V30 5996 C 561.135 -4.74653 -0.791095 0
M  V30 5997 C 563.487 -5.1913 -0.464035 0
M  V30 5998 C 560.815 -5.86692 -0.0302155 0
M  V30 5999 C 563.167 -6.31964 0.283625 0
M  V30 6000 C 561.831 -6.65581 0.505813 0
M  V30 6001 H 561.101 -0.660602 -0.335688 0
M  V30 6002 H 563.748 -1.90615 -0.183844 0
M  V30 6003 H 562.053 -2.95807 -2.56915 0
M  V30 6004 H 563.75 -3.26563 -2.32718 0
M  V30 6005 H 560.34 -4.12127 -1.17684 0
M  V30 6006 H 564.524 -4.9248 -0.614575 0
M  V30 6007 H 559.78 -6.11211 0.151917 0
M  V30 6008 H 563.954 -6.92791 0.708057 0
M  V30 6009 H 561.581 -7.52239 1.0973 0
M  V30 6010 N 563.156 0.464375 -1.50603 0
M  V30 6011 C 564.381 1.24372 -1.65971 0
M  V30 6012 C 564.806 1.84901 -0.345453 0
M  V30 6013 O 564.164 1.67596 0.691457 0
M  V30 6014 C 564.212 2.32331 -2.7578 0
M  V30 6015 O 563.316 3.37146 -2.375 0
M  V30 6016 H 562.657 0.365604 -0.554283 0
M  V30 6017 H 565.187 0.55183 -1.97018 0
M  V30 6018 H 565.197 2.77539 -2.99059 0
M  V30 6019 H 563.872 1.87648 -3.71162 0
M  V30 6020 H 562.449 2.97602 -2.24694 0
M  V30 6021 N 564.634 1.40294 0.718013 0
M  V30 6022 C 565.882 1.38167 1.47494 0
M  V30 6023 C 566.203 -0.01607 1.94993 0
M  V30 6024 O 565.473 -0.970396 1.70177 0
M  V30 6025 H 564.053 0.508505 0.547203 0
M  V30 6026 H 566.715 1.75324 0.851322 0
M  V30 6027 H 565.811 2.05503 2.34894 0
M  V30 6028 N 566.112 -0.949982 1.2575 0
M  V30 6029 C 567.389 -1.6718 1.01539 0
M  V30 6030 C 567.769 -2.06095 -0.456942 0
M  V30 6031 O 567.117 -1.77792 -1.43534 0
M  V30 6032 C 567.327 -2.8906 1.95564 0
M  V30 6033 C 568.675 -3.60909 2.23673 0
M  V30 6034 O 569.699 -2.9915 1.9336 0
M  V30 6035 O 568.558 -4.72127 2.75243 0
M  V30 6036 H 565.652 -0.731697 0.385419 0
M  V30 6037 H 568.198 -1.00249 1.36924 0
M  V30 6038 H 566.97 -2.57128 2.94959 0
M  V30 6039 H 566.593 -3.63719 1.60605 0
M  V30 6040 N 567.59 -1.07411 -1.15328 0
M  V30 6041 C 568.52 -0.716472 -2.22236 0
M  V30 6042 C 569.501 0.296373 -1.67498 0
M  V30 6043 O 570.686 0.168989 -1.93463 0
M  V30 6044 C 567.816 -0.114142 -3.47112 0
M  V30 6045 C 566.77 -1.05421 -4.14814 0
M  V30 6046 C 566.096 -0.314604 -5.33774 0
M  V30 6047 C 567.396 -2.38808 -4.64508 0
M  V30 6048 H 569.09 -1.61029 -2.52408 0
M  V30 6049 H 566.636 -0.775702 -1.21321 0
M  V30 6050 H 568.589 0.148001 -4.2114 0
M  V30 6051 H 567.313 0.814755 -3.16274 0
M  V30 6052 H 565.972 -1.30128 -3.42728 0
M  V30 6053 H 565.62 0.617772 -4.99192 0
M  V30 6054 H 565.32 -0.941209 -5.80013 0
M  V30 6055 H 566.844 -0.0602747 -6.1057 0
M  V30 6056 H 568.258 -2.18424 -5.3006 0
M  V30 6057 H 566.655 -2.97069 -5.21412 0
M  V30 6058 H 567.725 -3.01067 -3.80114 0
M  V30 6059 N 569.068 1.32177 -0.85831 0
M  V30 6060 C 570.345 1.91781 -0.384624 0
M  V30 6061 C 570.725 1.78171 1.13217 0
M  V30 6062 O 570.073 1.18209 1.95548 0
M  V30 6063 C 570.283 3.38414 -0.853047 0
M  V30 6064 C 571.631 4.15542 -0.872359 0
M  V30 6065 O 572.655 3.47148 -0.797926 0
M  V30 6066 O 571.514 5.37678 -0.978009 0
M  V30 6067 H 568.608 0.819259 -0.112886 0
M  V30 6068 H 571.154 1.40923 -0.945453 0
M  V30 6069 H 569.926 3.4228 -1.89632 0
M  V30 6070 H 569.549 3.96683 -0.269874 0
M  V30 6071 N 570.547 0.616602 1.45037 0
M  V30 6072 C 571.772 0.120192 2.07051 0
M  V30 6073 C 572.197 -1.19008 1.45666 0
M  V30 6074 O 571.555 -1.7267 0.552692 0
M  V30 6075 C 571.603 0.00354901 3.606 0
M  V30 6076 O 570.707 -1.04431 3.98958 0
M  V30 6077 H 570.048 0.0781599 0.659384 0
M  V30 6078 H 572.578 0.849167 1.86146 0
M  V30 6079 H 572.588 -0.191754 4.07549 0
M  V30 6080 H 571.263 0.960239 4.04663 0
M  V30 6081 H 569.84 -0.824749 3.63665 0
M  V30 6082 N 572.025 -1.5352 0.356285 0
M  V30 6083 C 572.955 -2.28372 -0.486661 0
M  V30 6084 C 573.936 -1.30432 -1.09185 0
M  V30 6085 O 575.121 -1.59291 -1.11085 0
M  V30 6086 C 572.251 -3.06604 -1.63129 0
M  V30 6087 C 571.205 -4.12154 -1.15381 0
M  V30 6088 C 570.531 -4.78415 -2.38796 0
M  V30 6089 C 571.831 -5.21724 -0.245179 0
M  V30 6090 H 573.525 -2.99083 0.137797 0
M  V30 6091 H 571.071 -1.43841 0.0677134 0
M  V30 6092 H 573.024 -3.57712 -2.22755 0
M  V30 6093 H 571.748 -2.33568 -2.28284 0
M  V30 6094 H 570.407 -3.61978 -0.580294 0
M  V30 6095 H 570.055 -4.01959 -3.02387 0
M  V30 6096 H 569.755 -5.49734 -2.07524 0
M  V30 6097 H 571.279 -5.32313 -2.99125 0
M  V30 6098 H 572.693 -5.68391 -0.748646 0
M  V30 6099 H 571.09 -6.00095 -0.0237608 0
M  V30 6100 H 572.16 -4.79596 0.715229 0
M  V30 6101 N 573.503 -0.0852151 -1.57369 0
M  V30 6102 C 574.433 0.874556 -2.16503 0
M  V30 6103 C 575.414 1.30111 -1.09568 0
M  V30 6104 O 576.599 1.36977 -1.37662 0
M  V30 6105 C 573.729 2.13731 -2.73745 0
M  V30 6106 C 572.683 1.84971 -3.85966 0
M  V30 6107 C 572.009 3.17991 -4.29867 0
M  V30 6108 C 573.309 1.14442 -5.09608 0
M  V30 6109 H 575.003 0.381899 -2.96954 0
M  V30 6110 H 572.549 0.18225 -1.42842 0
M  V30 6111 H 574.502 2.81302 -3.13763 0
M  V30 6112 H 573.226 2.65263 -1.90534 0
M  V30 6113 H 571.885 1.19801 -3.46473 0
M  V30 6114 H 571.533 3.6739 -3.4356 0
M  V30 6115 H 571.233 2.99534 -5.05523 0
M  V30 6116 H 572.757 3.86737 -4.72511 0
M  V30 6117 H 574.171 1.72105 -5.46857 0
M  V30 6118 H 572.568 1.06197 -5.90629 0
M  V30 6119 H 573.638 0.12559 -4.84737 0
M  V30 6120 N 574.981 1.5647 0.188427 0
M  V30 6121 C 575.929 1.95971 1.25293 0
M  V30 6122 C 576.923 0.846047 1.4676 0
M  V30 6123 O 578.129 1.03109 1.47542 0
M  V30 6124 H 574.504 0.623253 0.420784 0
M  V30 6125 H 576.475 2.84731 0.892792 0
M  V30 6126 C 575.224 2.32116 2.58877 0
M  V30 6127 H 574.547 3.17341 2.43176 0
M  V30 6128 H 575.987 2.63613 3.3209 0
M  V30 6129 C 574.446 1.15823 3.16365 0
M  V30 6130 O 574.976 0.436785 3.99318 0
M  V30 6131 N 573.182 0.933278 2.75206 0
M  V30 6132 H 572.729 1.52169 2.07852 0
M  V30 6133 H 572.687 0.156976 3.14008 0
M  V30 6134 N 576.459 -0.456382 1.50847 0
M  V30 6135 C 577.706 -1.20736 1.62571 0
M  V30 6136 C 578.034 -1.9163 0.332904 0
M  V30 6137 O 577.289 -1.8343 -0.682058 0
M  V30 6138 C 577.588 -2.26336 2.76599 0
M  V30 6139 C 577.254 -1.7259 4.16562 0
M  V30 6140 C 575.916 -1.57654 4.54641 0
M  V30 6141 C 578.268 -1.32877 5.03977 0
M  V30 6142 C 575.596 -1.0145 5.77862 0
M  V30 6143 C 577.948 -0.7811 6.27759 0
M  V30 6144 C 576.612 -0.618488 6.64628 0
M  V30 6145 H 575.882 -0.441803 0.594888 0
M  V30 6146 H 578.529 -0.501169 1.84826 0
M  V30 6147 H 576.834 -3.0292 2.48489 0
M  V30 6148 H 578.531 -2.84227 2.82871 0
M  V30 6149 H 575.121 -1.85187 3.86528 0
M  V30 6150 H 579.305 -1.43245 4.75179 0
M  V30 6151 H 574.561 -0.876109 6.0509 0
M  V30 6152 H 578.735 -0.464783 6.94847 0
M  V30 6153 H 576.362 -0.180838 7.59985 0
M  V30 6154 N 577.937 -1.40673 -0.710563 0
M  V30 6155 C 578.867 -1.44095 -1.83736 0
M  V30 6156 C 579.848 -0.301286 -1.67411 0
M  V30 6157 O 581.033 -0.510618 -1.87367 0
M  V30 6158 C 578.163 -1.30773 -3.21738 0
M  V30 6159 C 577.117 -2.42395 -3.52745 0
M  V30 6160 C 576.443 -2.14147 -4.89944 0
M  V30 6161 C 577.743 -3.84738 -3.53234 0
M  V30 6162 H 579.437 -2.38396 -1.81129 0
M  V30 6163 H 576.983 -1.14746 -0.870017 0
M  V30 6164 H 578.936 -1.31783 -4.00264 0
M  V30 6165 H 577.66 -0.329507 -3.24934 0
M  V30 6166 H 576.319 -2.40643 -2.76562 0
M  V30 6167 H 575.967 -1.14703 -4.89747 0
M  V30 6168 H 575.667 -2.88934 -5.11655 0
M  V30 6169 H 577.191 -2.16848 -5.70797 0
M  V30 6170 H 578.605 -3.88286 -4.2179 0
M  V30 6171 H 577.002 -4.59085 -3.86473 0
M  V30 6172 H 578.072 -4.13962 -2.52514 0
M  V30 6173 N 579.415 0.9433 -1.26252 0
M  V30 6174 C 580.64 1.72898 -1.14547 0
M  V30 6175 C 581.065 1.85761 0.295743 0
M  V30 6176 O 580.423 1.3463 1.21427 0
M  V30 6177 C 580.471 3.11471 -1.8171 0
M  V30 6178 O 579.575 3.97336 -1.10445 0
M  V30 6179 H 578.916 0.530555 -0.399259 0
M  V30 6180 H 581.446 1.18159 -1.67032 0
M  V30 6181 H 581.456 3.61872 -1.88449 0
M  V30 6182 H 580.131 3.01425 -2.86558 0
M  V30 6183 H 578.708 3.55788 -1.11666 0
M  V30 6184 N 580.893 1.08022 1.14757 0
M  V30 6185 C 582.14 0.807509 1.85703 0
M  V30 6186 C 582.468 -0.666617 1.8272 0
M  V30 6187 O 581.723 -1.50562 1.25018 0
M  V30 6188 C 582.022 1.26964 3.34088 0
M  V30 6189 C 581.688 2.7509 3.57262 0
M  V30 6190 C 580.35 3.15547 3.63296 0
M  V30 6191 C 582.702 3.70667 3.66409 0
M  V30 6192 C 580.03 4.50384 3.75994 0
M  V30 6193 C 582.382 5.05274 3.80632 0
M  V30 6194 C 581.046 5.45342 3.84913 0
M  V30 6195 H 580.316 0.295488 0.679535 0
M  V30 6196 H 582.963 1.35245 1.35577 0
M  V30 6197 H 581.268 0.644216 3.86467 0
M  V30 6198 H 582.965 1.03544 3.87401 0
M  V30 6199 H 579.555 2.42775 3.53212 0
M  V30 6200 H 583.739 3.40533 3.61041 0
M  V30 6201 H 578.995 4.80886 3.77569 0
M  V30 6202 H 583.169 5.79201 3.86652 0
M  V30 6203 H 580.796 6.49823 3.94505 0
M  V30 6204 N 582.371 -1.3172 0.865308 0
M  V30 6205 C 583.334 -2.26918 0.322627 0
M  V30 6206 C 584.334 -1.52031 -0.523751 0
M  V30 6207 O 585.524 -1.70973 -0.333727 0
M  V30 6208 C 582.656 -3.36558 -0.542338 0
M  V30 6209 H 583.849 -2.76432 1.16298 0
M  V30 6210 H 581.402 -1.42573 0.640512 0
M  V30 6211 H 582.137 -2.92329 -1.40407 0
M  V30 6212 H 581.922 -3.92048 0.0636395 0
M  V30 6213 H 583.412 -4.07465 -0.91446 0
M  V30 6214 N 583.85 -0.624285 -1.44708 0
M  V30 6215 C 585.266 -0.289322 -1.56956 0
M  V30 6216 C 585.466 1.20773 -1.61295 0
M  V30 6217 O 584.522 1.9915 -1.55227 0
M  V30 6218 C 585.835 -0.975215 -2.84447 0
M  V30 6219 C 587.383 -0.952709 -2.98148 0
M  V30 6220 C 587.858 -1.61893 -4.28433 0
M  V30 6221 N 589.349 -1.5852 -4.35231 0
M  V30 6222 C 590.084 -2.06969 -5.34744 0
M  V30 6223 N 589.58 -2.63579 -6.40701 0
M  V30 6224 N 591.373 -1.97638 -5.26209 0
M  V30 6225 H 583.524 -1.59612 -1.40135 0
M  V30 6226 H 585.787 -0.669592 -0.671081 0
M  V30 6227 H 585.493 -2.02999 -2.87201 0
M  V30 6228 H 585.367 -0.508749 -3.73753 0
M  V30 6229 H 587.754 0.093568 -2.94952 0
M  V30 6230 H 587.835 -1.4576 -2.10209 0
M  V30 6231 H 587.479 -2.66463 -4.32389 0
M  V30 6232 H 587.409 -1.08893 -5.15218 0
M  V30 6233 H 589.899 -1.17183 -3.59272 0
M  V30 6234 H 590.213 -2.98298 -7.12908 0
M  V30 6235 H 588.558 -2.67626 -6.41406 0
M  V30 6236 H 591.749 -1.5314 -4.42341 0
M  V30 6237 H 591.922 -2.35708 -6.03611 0
M  V30 6238 N 585.328 1.53329 -0.364422 0
M  V30 6239 C 586.574 2.02222 0.21855 0
M  V30 6240 C 586.929 1.24702 1.46517 0
M  V30 6241 O 586.222 0.331969 1.88702 0
M  V30 6242 C 586.416 3.52911 0.564661 0
M  V30 6243 C 586.245 4.45023 -0.646862 0
M  V30 6244 C 585.015 4.91838 -1.15858 0
M  V30 6245 C 587.213 4.91581 -1.51172 0
M  V30 6246 N 585.195 5.67955 -2.33025 0
M  V30 6247 C 586.566 5.66028 -2.53006 0
M  V30 6248 C 588.621 4.73656 -1.53473 0
M  V30 6249 C 587.324 6.24457 -3.56996 0
M  V30 6250 C 589.35 5.3295 -2.56356 0
M  V30 6251 C 588.712 6.07282 -3.56914 0
M  V30 6252 H 584.811 0.780832 0.0427199 0
M  V30 6253 H 587.395 1.87937 -0.508704 0
M  V30 6254 H 585.566 3.6736 1.26099 0
M  V30 6255 H 587.298 3.88528 1.13262 0
M  V30 6256 H 584.053 4.68043 -0.723393 0
M  V30 6257 H 584.477 6.10675 -2.92241 0
M  V30 6258 H 589.119 4.15714 -0.770842 0
M  V30 6259 H 586.837 6.81496 -4.34268 0
M  V30 6260 H 590.423 5.20976 -2.58989 0
M  V30 6261 H 589.303 6.52345 -4.35218 0
M  V30 6262 N 586.806 0.0935595 1.57322 0
M  V30 6263 C 587.736 -0.863062 2.16964 0
M  V30 6264 C 588.717 -1.29528 1.10256 0
M  V30 6265 O 589.902 -1.36245 1.38387 0
M  V30 6266 C 587.032 -2.12276 2.74875 0
M  V30 6267 C 585.986 -1.82921 3.86942 0
M  V30 6268 C 585.312 -3.15707 4.31548 0
M  V30 6269 C 586.612 -1.11737 5.10208 0
M  V30 6270 H 588.306 -0.366145 2.97153 0
M  V30 6271 H 585.852 -0.174673 1.42937 0
M  V30 6272 H 587.805 -2.79634 3.1525 0
M  V30 6273 H 586.529 -2.64248 1.91938 0
M  V30 6274 H 585.188 -1.17961 3.47103 0
M  V30 6275 H 584.836 -3.65563 3.45504 0
M  V30 6276 H 584.536 -2.96849 5.07104 0
M  V30 6277 H 586.06 -3.84226 4.74555 0
M  V30 6278 H 587.474 -1.69203 5.47762 0
M  V30 6279 H 585.871 -1.03064 5.91183 0
M  V30 6280 H 586.941 -0.0998818 4.84797 0
M  V30 6281 N 588.284 -1.56567 -0.180126 0
M  V30 6282 C 589.531 -1.81492 -0.898167 0
M  V30 6283 C 589.859 -0.669225 -1.82624 0
M  V30 6284 O 589.114 0.344096 -1.92651 0
M  V30 6285 C 589.413 -3.1252 -1.73395 0
M  V30 6286 C 589.079 -4.40658 -0.955567 0
M  V30 6287 C 587.741 -4.75465 -0.740707 0
M  V30 6288 C 590.093 -5.19593 -0.408948 0
M  V30 6289 C 587.421 -5.86691 0.0320128 0
M  V30 6290 C 589.773 -6.31627 0.350638 0
M  V30 6291 C 588.437 -6.65007 0.576378 0
M  V30 6292 H 587.707 -0.664125 -0.328662 0
M  V30 6293 H 590.354 -1.908 -0.163616 0
M  V30 6294 H 588.659 -2.98515 -2.53763 0
M  V30 6295 H 590.356 -3.29013 -2.29241 0
M  V30 6296 H 586.946 -4.13352 -1.13306 0
M  V30 6297 H 591.13 -4.93104 -0.562307 0
M  V30 6298 H 586.386 -6.11016 0.216735 0
M  V30 6299 H 590.56 -6.92001 0.781497 0
M  V30 6300 H 588.187 -7.51033 1.17703 0
M  V30 6301 N 589.762 0.448376 -1.51087 0
M  V30 6302 C 591.011 1.19561 -1.62444 0
M  V30 6303 C 591.324 1.92602 -0.341151 0
M  V30 6304 O 592.53 2.69439 -0.333936 0
M  V30 6305 C 590.986 2.17373 -2.8684 0
M  V30 6306 C 590.594 1.5003 -4.22131 0
M  V30 6307 C 592.338 2.92597 -3.0755 0
M  V30 6308 C 590.245 2.46262 -5.37689 0
M  V30 6309 H 589.175 0.449975 -0.605011 0
M  V30 6310 H 591.826 0.463735 -1.77544 0
M  V30 6311 H 590.208 2.93948 -2.65349 0
M  V30 6312 H 591.382 0.790886 -4.53962 0
M  V30 6313 H 589.697 0.870011 -4.0721 0
M  V30 6314 H 592.294 3.64663 -3.91056 0
M  V30 6315 H 592.637 3.53306 -2.20183 0
M  V30 6316 H 593.17 2.23131 -3.29329 0
M  V30 6317 H 589.909 1.90258 -6.27281 0
M  V30 6318 H 589.429 3.15289 -5.10248 0
M  V30 6319 H 591.108 3.07623 -5.6919 0
M  V30 6320 N 591.24 1.41047 0.703093 0
M  V30 6321 C 592.488 1.39723 1.4602 0
M  V30 6322 C 592.809 0.00461257 1.94999 0
M  V30 6323 O 592.079 -0.952292 1.71196 0
M  V30 6324 H 590.659 0.514281 0.541779 0
M  V30 6325 H 593.321 1.76217 0.832678 0
M  V30 6326 H 592.417 2.07982 2.32701 0
M  V30 6327 N 592.718 -0.936591 1.26751 0
M  V30 6328 C 593.648 -2.05315 1.11212 0
M  V30 6329 C 594.629 -1.70092 0.0160262 0
M  V30 6330 O 595.814 -1.93279 0.188894 0
M  V30 6331 C 592.944 -3.39123 0.749171 0
M  V30 6332 C 591.898 -3.88425 1.79751 0
M  V30 6333 C 591.224 -5.18936 1.28876 0
M  V30 6334 C 592.524 -4.12798 3.19992 0
M  V30 6335 H 594.218 -2.18573 2.04613 0
M  V30 6336 H 591.764 -1.05027 0.985159 0
M  V30 6337 H 593.717 -4.16704 0.627323 0
M  V30 6338 H 592.441 -3.25855 -0.220543 0
M  V30 6339 H 591.1 -3.13028 1.90811 0
M  V30 6340 H 590.748 -5.02051 0.308757 0
M  V30 6341 H 590.448 -5.52892 1.98958 0
M  V30 6342 H 591.972 -5.99096 1.17967 0
M  V30 6343 H 593.386 -4.80977 3.11983 0
M  V30 6344 H 591.783 -4.58044 3.87705 0
M  V30 6345 H 592.853 -3.18412 3.65707 0
M  V30 6346 N 594.196 -1.08629 -1.14182 0
M  V30 6347 C 595.159 -0.722027 -2.1753 0
M  V30 6348 C 596.159 0.244305 -1.58933 0
M  V30 6349 O 597.349 0.0235545 -1.74184 0
M  V30 6350 C 594.481 -0.0663966 -3.40835 0
M  V30 6351 H 595.674 -1.63719 -2.51269 0
M  V30 6352 H 593.227 -0.884442 -1.28869 0
M  V30 6353 H 593.962 0.860389 -3.12678 0
M  V30 6354 H 593.747 -0.761598 -3.84632 0
M  V30 6355 H 595.237 0.173346 -4.1724 0
M  V30 6356 N 595.674 1.31259 -0.872281 0
M  V30 6357 C 596.92 1.96913 -0.485083 0
M  V30 6358 C 597.253 1.68774 0.960667 0
M  V30 6359 O 596.528 0.985495 1.67685 0
M  V30 6360 C 596.811 3.52299 -0.745502 0
M  V30 6361 C 596.664 3.90002 -2.24095 0
M  V30 6362 C 597.983 4.39582 -0.213516 0
M  V30 6363 H 595.102 0.715252 -0.177716 0
M  V30 6364 H 597.744 1.55347 -1.09395 0
M  V30 6365 H 595.894 3.87835 -0.227276 0
M  V30 6366 H 597.566 3.64555 -2.82661 0
M  V30 6367 H 595.809 3.38526 -2.71261 0
M  V30 6368 H 596.48 4.98352 -2.37381 0
M  V30 6369 H 598.956 4.10882 -0.656902 0
M  V30 6370 H 597.832 5.47251 -0.42516 0
M  V30 6371 H 598.093 4.33158 0.884666 0
M  V30 6372 N 597.152 0.631951 1.44375 0
M  V30 6373 C 598.115 -0.0628142 2.29114 0
M  V30 6374 C 599.115 -0.771494 1.41084 0
M  V30 6375 O 600.305 -0.615959 1.62947 0
M  V30 6376 C 597.437 -1.09953 3.22681 0
M  V30 6377 H 598.63 0.682509 2.92031 0
M  V30 6378 H 596.183 0.392128 1.51301 0
M  V30 6379 H 596.918 -1.87481 2.64616 0
M  V30 6380 H 596.703 -0.595286 3.87555 0
M  V30 6381 H 598.193 -1.58538 3.86336 0
M  V30 6382 N 598.631 -1.53133 0.372548 0
M  V30 6383 C 599.879 -2.00958 -0.214534 0
M  V30 6384 C 600.2 -1.26135 -1.48711 0
M  V30 6385 O 599.47 -0.376597 -1.92246 0
M  V30 6386 H 598.05 -0.742456 -0.0822664 0
M  V30 6387 H 600.712 -1.88367 0.500385 0
M  V30 6388 H 599.808 -3.09031 -0.436605 0
M  V30 6389 N 600.109 -0.101901 -1.5727 0
M  V30 6390 C 601.039 0.851544 -2.17419 0
M  V30 6391 C 602.02 1.28942 -1.10941 0
M  V30 6392 O 603.205 1.35509 -1.39107 0
M  V30 6393 C 600.335 2.10816 -2.75996 0
M  V30 6394 C 599.289 1.80867 -3.87906 0
M  V30 6395 C 598.615 3.13413 -4.33216 0
M  V30 6396 C 599.915 1.0903 -5.10793 0
M  V30 6397 H 601.609 0.350381 -2.97343 0
M  V30 6398 H 599.155 0.16709 -1.43027 0
M  V30 6399 H 601.108 2.77959 -3.16729 0
M  V30 6400 H 599.832 2.63227 -1.93337 0
M  V30 6401 H 598.491 1.16119 -3.47724 0
M  V30 6402 H 598.139 3.63725 -3.47438 0
M  V30 6403 H 597.839 2.94155 -5.08671 0
M  V30 6404 H 599.363 3.81704 -4.76586 0
M  V30 6405 H 600.777 1.66295 -5.48652 0
M  V30 6406 H 599.174 0.99927 -5.91722 0
M  V30 6407 H 600.244 0.0741704 -4.84843 0
M  V30 6408 N 601.587 1.56661 0.17182 0
M  V30 6409 C 602.836 1.81158 0.886831 0
M  V30 6410 C 603.149 0.679072 1.83434 0
M  V30 6411 O 604.355 0.808964 2.59168 0
M  V30 6412 C 602.811 3.20999 1.6275 0
M  V30 6413 C 602.419 4.42117 0.723652 0
M  V30 6414 C 604.163 3.5479 2.33076 0
M  V30 6415 C 602.07 5.7298 1.46452 0
M  V30 6416 H 601 0.675543 0.334899 0
M  V30 6417 H 603.651 1.82967 0.139765 0
M  V30 6418 H 602.033 3.13506 2.4193 0
M  V30 6419 H 603.207 4.60789 -0.0311485 0
M  V30 6420 H 601.522 4.16197 0.130063 0
M  V30 6421 H 604.119 4.49806 2.89099 0
M  V30 6422 H 604.462 2.79646 3.08389 0
M  V30 6423 H 604.995 3.63834 1.6084 0
M  V30 6424 H 601.734 6.51152 0.753729 0
M  V30 6425 H 601.254 5.58285 2.19266 0
M  V30 6426 H 602.933 6.14916 2.01214 0
M  V30 6427 N 603.065 -0.440357 1.51323 0
M  V30 6428 C 604.295 -1.21079 1.67402 0
M  V30 6429 C 604.703 -1.85555 0.369599 0
M  V30 6430 O 604.046 -1.71375 -0.661525 0
M  V30 6431 C 604.108 -2.33839 2.73056 0
M  V30 6432 C 603.772 -1.89755 4.15743 0
M  V30 6433 C 604.769 -1.40268 5.0062 0
M  V30 6434 C 602.454 -1.97539 4.61826 0
M  V30 6435 C 604.448 -0.991474 6.29642 0
M  V30 6436 C 602.135 -1.56029 5.90845 0
M  V30 6437 C 603.133 -1.06915 6.7458 0
M  V30 6438 O 602.821 -0.659933 8.01187 0
M  V30 6439 H 602.553 -0.371133 0.56501 0
M  V30 6440 H 605.107 -0.528409 1.98487 0
M  V30 6441 H 603.337 -3.05345 2.37279 0
M  V30 6442 H 605.026 -2.95713 2.78044 0
M  V30 6443 H 605.792 -1.33652 4.66221 0
M  V30 6444 H 601.671 -2.34713 3.96776 0
M  V30 6445 H 605.215 -0.607425 6.9495 0
M  V30 6446 H 601.112 -1.62315 6.24759 0
M  V30 6447 H 601.88 -0.786052 8.14717 0
M  V30 6448 N 604.543 -1.41418 -0.695603 0
M  V30 6449 C 605.473 -1.46035 -1.82197 0
M  V30 6450 C 606.454 -0.319025 -1.67082 0
M  V30 6451 O 607.639 -0.530462 -1.86815 0
M  V30 6452 C 604.769 -1.34179 -3.20333 0
M  V30 6453 C 603.723 -2.46123 -3.50154 0
M  V30 6454 C 603.049 -2.19332 -4.87645 0
M  V30 6455 C 604.349 -3.88463 -3.49133 0
M  V30 6456 H 606.043 -2.40303 -1.78591 0
M  V30 6457 H 603.589 -1.15663 -0.857797 0
M  V30 6458 H 605.542 -1.36021 -3.98844 0
M  V30 6459 H 604.266 -0.363952 -3.24566 0
M  V30 6460 H 602.925 -2.43563 -2.73994 0
M  V30 6461 H 602.573 -1.19891 -4.88503 0
M  V30 6462 H 602.273 -2.94344 -5.08562 0
M  V30 6463 H 603.797 -2.22889 -5.68465 0
M  V30 6464 H 605.211 -3.92738 -4.17648 0
M  V30 6465 H 603.608 -4.63158 -3.81582 0
M  V30 6466 H 604.678 -4.16617 -2.48109 0
M  V30 6467 N 606.021 0.929856 -1.27246 0
M  V30 6468 C 607.437 1.20542 -1.04603 0
M  V30 6469 C 607.637 2.00276 0.221754 0
M  V30 6470 O 606.693 2.34835 0.927833 0
M  V30 6471 C 608.006 1.95566 -2.28417 0
M  V30 6472 C 609.554 2.08513 -2.33433 0
M  V30 6473 C 610.029 2.86943 -3.5697 0
M  V30 6474 N 611.52 2.94512 -3.57515 0
M  V30 6475 C 612.255 3.55656 -4.49774 0
M  V30 6476 N 611.751 4.18209 -5.52334 0
M  V30 6477 N 613.544 3.53038 -4.37402 0
M  V30 6478 H 605.695 0.397113 -2.08655 0
M  V30 6479 H 607.958 0.238277 -0.917566 0
M  V30 6480 H 607.664 1.44395 -3.20691 0
M  V30 6481 H 607.538 2.9619 -2.33563 0
M  V30 6482 H 609.925 2.58872 -1.41666 0
M  V30 6483 H 610.006 1.07117 -2.32292 0
M  V30 6484 H 609.65 2.37268 -4.49072 0
M  V30 6485 H 609.58 3.8862 -3.55362 0
M  V30 6486 H 612.071 2.50053 -2.83341 0
M  V30 6487 H 612.384 4.62796 -6.18902 0
M  V30 6488 H 610.729 4.16761 -5.56179 0
M  V30 6489 H 613.92 3.0337 -3.56489 0
M  V30 6490 H 614.093 4.004 -5.09493 0
M  V30 6491 N 607.499 1.09233 1.13605 0
M  V30 6492 C 608.729 0.847677 1.88409 0
M  V30 6493 C 609.137 -0.604524 1.79282 0
M  V30 6494 O 608.48 -1.42773 1.15592 0
M  V30 6495 C 608.542 1.20153 3.38827 0
M  V30 6496 C 608.206 2.65824 3.71735 0
M  V30 6497 C 609.203 3.64072 3.71143 0
M  V30 6498 C 606.888 3.01894 4.01454 0
M  V30 6499 C 608.882 4.96419 3.99808 0
M  V30 6500 C 606.569 4.34433 4.29781 0
M  V30 6501 C 607.567 5.31505 4.28942 0
M  V30 6502 O 607.255 6.61659 4.56576 0
M  V30 6503 H 606.987 0.304813 0.603378 0
M  V30 6504 H 609.541 1.4573 1.44748 0
M  V30 6505 H 607.771 0.534946 3.82982 0
M  V30 6506 H 609.46 0.936349 3.94952 0
M  V30 6507 H 610.226 3.37549 3.4826 0
M  V30 6508 H 606.105 2.26971 4.01255 0
M  V30 6509 H 609.649 5.7218 3.99069 0
M  V30 6510 H 605.546 4.607 4.52135 0
M  V30 6511 H 606.314 6.67102 4.74254 0
M  V30 6512 N 608.977 -1.30795 0.87923 0
M  V30 6513 C 609.924 -2.28282 0.339968 0
M  V30 6514 C 610.894 -1.56134 -0.566685 0
M  V30 6515 O 612.079 -1.84231 -0.496338 0
M  V30 6516 C 609.219 -3.42225 -0.444501 0
M  V30 6517 C 608.332 -4.29204 0.490717 0
M  V30 6518 C 607.467 -5.30302 -0.308784 0
M  V30 6519 C 606.506 -6.08929 0.622272 0
M  V30 6520 N 605.643 -7.01957 -0.14155 0
M  V30 6521 H 610.483 -2.73794 1.17647 0
M  V30 6522 H 608.02 -1.34682 0.591527 0
M  V30 6523 H 609.978 -4.07038 -0.915186 0
M  V30 6524 H 608.608 -2.97799 -1.24562 0
M  V30 6525 H 607.66 -3.6475 1.07988 0
M  V30 6526 H 608.972 -4.84045 1.20425 0
M  V30 6527 H 608.126 -6.00835 -0.841575 0
M  V30 6528 H 606.865 -4.7614 -1.05556 0
M  V30 6529 H 605.87 -5.37278 1.16674 0
M  V30 6530 H 607.095 -6.65178 1.36804 0
M  V30 6531 H 605.041 -6.50192 -0.870966 0
M  V30 6532 H 604.958 -7.54261 0.51246 0
M  V30 6533 H 606.226 -7.76741 -0.655271 0
M  V30 6534 N 610.455 -0.639598 -1.44038 0
M  V30 6535 C 611.695 -0.150902 -2.03842 0
M  V30 6536 C 612.059 1.20744 -1.49281 0
M  V30 6537 O 613.26 1.78875 -2.00642 0
M  V30 6538 C 611.531 -0.146114 -3.57101 0
M  V30 6539 S 613.09 0.276725 -4.37927 0
M  V30 6540 H 609.908 -0.0652447 -0.708 0
M  V30 6541 H 612.51 -0.844886 -1.76301 0
M  V30 6542 H 611.214 -1.13769 -3.94316 0
M  V30 6543 H 610.745 0.568846 -3.89266 0
M  V30 6544 H 612.76 1.51893 -4.7238 0
M  V30 6545 N 611.933 1.52934 -0.380664 0
M  V30 6546 C 613.344 1.86457 0.0952684 0
M  V30 6547 C 613.695 1.3007 1.46889 0
M  V30 6548 O 612.82 0.628636 2.07068 0
M  V30 6549 C 613.415 3.38323 0.179648 0
M  V30 6550 C 611.974 3.71589 0.599858 0
M  V30 6551 C 611.121 2.76228 -0.243572 0
M  V30 6552 H 614.072 1.46966 -0.59888 0
M  V30 6553 H 614.093 3.67113 1.00042 0
M  V30 6554 H 613.605 3.79333 -0.820228 0
M  V30 6555 H 611.706 3.36144 1.60742 0
M  V30 6556 H 611.819 4.77715 0.364003 0
M  V30 6557 H 610.183 2.53045 0.289855 0
M  V30 6558 H 610.966 3.20074 -1.24127 0
M  V30 6559 N 613.412 0.11024 1.57214 0
M  V30 6560 C 614.689 -0.592956 1.86396 0
M  V30 6561 C 615.069 -1.85379 1.00985 0
M  V30 6562 O 614.417 -2.28337 0.0863592 0
M  V30 6563 C 614.627 -0.893816 3.3736 0
M  V30 6564 C 615.975 -1.25069 4.05762 0
M  V30 6565 O 616.999 -0.984356 3.42329 0
M  V30 6566 O 615.858 -1.75017 5.17718 0
M  V30 6567 H 612.952 -0.29828 0.771335 0
M  V30 6568 H 615.498 0.144083 1.69087 0
M  V30 6569 H 614.27 2.6031e-05 3.913 0
M  V30 6570 H 613.893 -1.68631 3.60068 0
M  V30 6571 N 614.89 -1.56749 -0.16351 0
M  V30 6572 C 615.823 -1.9213 -1.23132 0
M  V30 6573 C 616.801 -0.785047 -1.42393 0
M  V30 6574 O 617.985 -1.0391 -1.57273 0
M  V30 6575 C 615.112 -2.17901 -2.59301 0
M  V30 6576 C 614.158 -3.40576 -2.5673 0
M  V30 6577 S 614.991 -4.94689 -2.05045 0
M  V30 6578 C 616.147 -5.23564 -3.42975 0
M  V30 6579 H 616.38 -2.824 -0.929383 0
M  V30 6580 H 613.913 -1.4994 -0.368418 0
M  V30 6581 H 615.871 -2.33429 -3.3767 0
M  V30 6582 H 614.532 -1.28324 -2.86691 0
M  V30 6583 H 613.725 -3.55833 -3.5693 0
M  V30 6584 H 613.327 -3.24204 -1.86462 0
M  V30 6585 H 615.619 -5.16019 -4.3901 0
M  V30 6586 H 616.562 -6.25134 -3.32586 0
M  V30 6587 H 616.97 -4.51113 -3.39348 0
M  V30 6588 N 616.368 0.432326 -1.51554 0
M  V30 6589 C 617.318 1.52366 -1.69614 0
M  V30 6590 C 618.302 1.51205 -0.550083 0
M  V30 6591 O 619.494 1.57573 -0.806206 0
M  V30 6592 C 616.623 2.90513 -1.82913 0
M  V30 6593 C 615.709 2.9641 -3.03318 0
M  V30 6594 N 616.1 2.72043 -4.26411 0
M  V30 6595 C 614.398 3.27572 -3.02675 0
M  V30 6596 C 615.099 2.83912 -5.07709 0
M  V30 6597 N 614.075 3.15798 -4.42462 0
M  V30 6598 H 617.877 1.32285 -2.62446 0
M  V30 6599 H 615.391 0.639708 -1.4927 0
M  V30 6600 H 617.388 3.69032 -1.93962 0
M  V30 6601 H 616.048 3.1161 -0.912655 0
M  V30 6602 H 617.059 2.46876 -4.55272 0
M  V30 6603 H 613.736 3.54411 -2.20678 0
M  V30 6604 H 615.126 2.68984 -6.15709 0
M  V30 6605 N 617.846 1.41785 0.688094 0
M  V30 6606 C 619.262 1.24419 0.999608 0
M  V30 6607 C 619.462 0.138868 2.01021 0
M  V30 6608 O 618.518 -0.494283 2.47615 0
M  V30 6609 C 619.831 2.59625 1.51709 0
M  V30 6610 C 621.379 2.66869 1.63554 0
M  V30 6611 C 621.854 4.0241 2.18702 0
M  V30 6612 N 623.345 4.04295 2.26053 0
M  V30 6613 C 624.08 5.05977 2.69768 0
M  V30 6614 N 623.576 6.18047 3.13033 0
M  V30 6615 N 625.369 4.93336 2.69398 0
M  V30 6616 H 617.52 2.12392 0.0187427 0
M  V30 6617 H 619.783 0.945347 0.0708673 0
M  V30 6618 H 619.489 3.41297 0.849059 0
M  V30 6619 H 619.363 2.82628 2.49803 0
M  V30 6620 H 621.75 1.8555 2.29467 0
M  V30 6621 H 621.831 2.47668 0.639857 0
M  V30 6622 H 621.475 4.8418 1.53402 0
M  V30 6623 H 621.405 4.18955 3.19037 0
M  V30 6624 H 623.896 3.23383 1.9553 0
M  V30 6625 H 624.209 6.91498 3.45038 0
M  V30 6626 H 622.554 6.21572 3.10923 0
M  V30 6627 H 625.745 4.04865 2.34952 0
M  V30 6628 H 625.918 5.72717 3.03148 0
M  V30 6629 N 619.324 -0.923095 1.27737 0
M  V30 6630 C 620.735 -1.48626 1.12993 0
M  V30 6631 C 621.086 -1.94142 -0.283439 0
M  V30 6632 O 620.211 -1.81605 -1.17681 0
M  V30 6633 C 620.806 -2.70117 2.04505 0
M  V30 6634 C 619.365 -3.22642 1.93853 0
M  V30 6635 C 618.512 -1.95368 1.96791 0
M  V30 6636 H 621.463 -0.736737 1.40563 0
M  V30 6637 H 621.484 -3.4506 1.60356 0
M  V30 6638 H 620.996 -2.36959 3.07363 0
M  V30 6639 H 619.097 -3.60549 0.939968 0
M  V30 6640 H 619.21 -3.88525 2.80331 0
M  V30 6641 H 617.574 -2.12061 1.41076 0
M  V30 6642 H 618.357 -1.64517 3.01312 0
M  V30 6643 N 620.802 -1.09834 -1.13024 0
M  V30 6644 C 622.049 -0.83695 -1.84395 0
M  V30 6645 C 622.377 0.637463 -1.83757 0
M  V30 6646 O 621.632 1.48554 -1.27398 0
M  V30 6647 C 621.931 -1.32263 -3.32026 0
M  V30 6648 C 621.597 -2.80739 -3.52841 0
M  V30 6649 C 620.259 -3.21286 -3.5823 0
M  V30 6650 C 622.611 -3.76449 -3.60466 0
M  V30 6651 C 619.939 -4.56308 -3.68781 0
M  V30 6652 C 622.291 -5.11266 -3.72546 0
M  V30 6653 C 620.955 -5.51397 -3.76189 0
M  V30 6654 H 620.225 -0.306262 -0.674748 0
M  V30 6655 H 622.872 -1.37385 -1.33408 0
M  V30 6656 H 621.177 -0.705618 -3.85394 0
M  V30 6657 H 622.874 -1.09695 -3.85705 0
M  V30 6658 H 619.464 -2.48363 -3.49305 0
M  V30 6659 H 623.648 -3.46234 -3.55578 0
M  V30 6660 H 618.904 -4.86832 -3.69871 0
M  V30 6661 H 623.078 -5.85279 -3.77388 0
M  V30 6662 H 620.705 -6.56017 -3.84117 0
M  V30 6663 N 622.28 1.30327 -0.886154 0
M  V30 6664 C 623.227 2.28099 -0.352069 0
M  V30 6665 C 624.197 1.56433 0.558397 0
M  V30 6666 O 625.382 1.84492 0.486561 0
M  V30 6667 C 622.522 3.42456 0.426346 0
M  V30 6668 C 621.635 4.28938 -0.513472 0
M  V30 6669 C 620.77 5.30458 0.280657 0
M  V30 6670 C 619.809 6.0859 -0.654556 0
M  V30 6671 N 618.946 7.02022 0.104322 0
M  V30 6672 H 623.786 2.73166 -1.19097 0
M  V30 6673 H 621.323 1.34367 -0.598662 0
M  V30 6674 H 623.281 4.07518 0.893587 0
M  V30 6675 H 621.911 2.98455 1.22981 0
M  V30 6676 H 620.963 3.64173 -1.09921 0
M  V30 6677 H 622.275 4.83399 -1.2299 0
M  V30 6678 H 621.429 6.01273 0.8097 0
M  V30 6679 H 620.168 4.76693 1.03029 0
M  V30 6680 H 619.173 5.36651 -1.19522 0
M  V30 6681 H 620.398 6.64443 -1.4033 0
M  V30 6682 H 618.344 6.50645 0.836472 0
M  V30 6683 H 618.261 7.53979 -0.552453 0
M  V30 6684 H 619.529 7.77077 0.614069 0
M  V30 6685 N 623.758 0.647228 1.43697 0
M  V30 6686 C 625.004 0.158422 2.0218 0
M  V30 6687 C 625.337 -1.22233 1.50907 0
M  V30 6688 O 624.612 -1.81478 0.699702 0
M  V30 6689 C 624.895 0.1627 3.59732 0
M  V30 6690 C 624.748 1.57694 4.21251 0
M  V30 6691 C 626.067 -0.504138 4.37203 0
M  V30 6692 H 623.186 0.059042 0.734631 0
M  V30 6693 H 625.828 0.826772 1.71069 0
M  V30 6694 H 623.978 -0.406414 3.86368 0
M  V30 6695 H 625.65 2.19618 4.05667 0
M  V30 6696 H 623.893 2.12603 3.7813 0
M  V30 6697 H 624.564 1.53183 5.3032 0
M  V30 6698 H 627.04 -0.0199841 4.16095 0
M  V30 6699 H 625.916 -0.470394 5.46881 0
M  V30 6700 H 626.177 -1.57726 4.13007 0
M  V30 6701 N 625.236 -1.5273 0.388769 0
M  V30 6702 C 626.647 -1.86505 -0.0853788 0
M  V30 6703 C 626.998 -1.30847 -1.46197 0
M  V30 6704 O 626.123 -0.639609 -2.06732 0
M  V30 6705 C 626.718 -3.38414 -0.161703 0
M  V30 6706 C 625.277 -3.71902 -0.580144 0
M  V30 6707 C 624.424 -2.76095 0.258218 0
M  V30 6708 H 627.375 -1.46647 0.606665 0
M  V30 6709 H 627.396 -3.67638 -0.980936 0
M  V30 6710 H 626.908 -3.78893 0.840333 0
M  V30 6711 H 625.009 -3.36992 -1.58957 0
M  V30 6712 H 625.122 -4.77902 -0.338663 0
M  V30 6713 H 623.486 -2.53195 -0.276432 0
M  V30 6714 H 624.269 -3.19411 1.25822 0
M  V30 6715 N 626.714 -0.118576 -1.57153 0
M  V30 6716 C 627.644 0.828436 -2.1831 0
M  V30 6717 C 628.625 1.27758 -1.12303 0
M  V30 6718 O 629.81 1.34026 -1.40537 0
M  V30 6719 C 626.94 2.07876 -2.78217 0
M  V30 6720 C 625.894 1.76742 -3.89803 0
M  V30 6721 C 625.22 3.08801 -4.36516 0
M  V30 6722 C 626.52 1.03606 -5.11921 0
M  V30 6723 H 628.214 0.318824 -2.97698 0
M  V30 6724 H 625.76 0.151911 -1.43196 0
M  V30 6725 H 627.713 2.74584 -3.19659 0
M  V30 6726 H 626.437 2.61161 -1.96118 0
M  V30 6727 H 625.096 1.12424 -3.48936 0
M  V30 6728 H 624.744 3.6002 -3.51276 0
M  V30 6729 H 624.444 2.88743 -5.11763 0
M  V30 6730 H 625.968 3.76627 -4.80608 0
M  V30 6731 H 627.382 1.60467 -5.50385 0
M  V30 6732 H 625.779 0.936454 -5.92748 0
M  V30 6733 H 626.849 0.0227421 -4.84895 0
M  V30 6734 N 628.193 1.56834 0.155195 0
M  V30 6735 C 629.44 1.82898 0.869179 0
M  V30 6736 C 629.768 0.698194 1.81537 0
M  V30 6737 O 629.023 -0.313404 1.93174 0
M  V30 6738 C 629.322 3.15239 1.68402 0
M  V30 6739 C 628.988 4.42123 0.885341 0
M  V30 6740 C 627.65 4.76583 0.664971 0
M  V30 6741 C 630.002 5.20178 0.326234 0
M  V30 6742 C 627.33 5.86566 -0.125346 0
M  V30 6743 C 629.682 6.3099 -0.45108 0
M  V30 6744 C 628.346 6.64006 -0.682102 0
M  V30 6745 H 627.616 0.66927 0.318055 0
M  V30 6746 H 630.263 1.91036 0.133241 0
M  V30 6747 H 628.568 3.02515 2.48982 0
M  V30 6748 H 630.265 3.32618 2.23978 0
M  V30 6749 H 626.855 4.15102 1.06716 0
M  V30 6750 H 631.039 4.93936 0.483787 0
M  V30 6751 H 626.295 6.10594 -0.313915 0
M  V30 6752 H 630.469 6.9067 -0.89149 0
M  V30 6753 H 628.096 7.49065 -1.29636 0
M  V30 6754 N 629.671 -0.424282 1.51781 0
M  V30 6755 C 630.92 -1.16961 1.64326 0
M  V30 6756 C 631.233 -1.92035 0.371749 0
M  V30 6757 O 632.439 -2.68873 0.37676 0
M  V30 6758 C 630.895 -2.12782 2.90262 0
M  V30 6759 C 630.503 -1.43295 4.24465 0
M  V30 6760 C 632.247 -2.87667 3.12166 0
M  V30 6761 C 630.154 -2.37676 5.41538 0
M  V30 6762 H 629.084 -0.440293 0.612093 0
M  V30 6763 H 631.735 -0.435431 1.78259 0
M  V30 6764 H 630.117 -2.8969 2.69992 0
M  V30 6765 H 631.291 -0.718564 4.55163 0
M  V30 6766 H 629.606 -0.805118 4.08542 0
M  V30 6767 H 632.203 -3.58395 3.96808 0
M  V30 6768 H 632.546 -3.49758 2.25776 0
M  V30 6769 H 633.079 -2.17863 3.32837 0
M  V30 6770 H 629.818 -1.80255 6.30229 0
M  V30 6771 H 629.338 -3.07132 5.15199 0
M  V30 6772 H 631.017 -2.98529 5.74012 0
M  V30 6773 N 631.149 -1.42148 -0.680565 0
M  V30 6774 C 632.56 -1.3768 -1.26099 0
M  V30 6775 C 632.911 -0.0672348 -1.96085 0
M  V30 6776 O 632.036 0.834172 -1.99676 0
M  V30 6777 C 632.631 -2.49387 -2.29328 0
M  V30 6778 C 631.19 -2.4827 -2.82911 0
M  V30 6779 C 630.337 -2.2847 -1.57152 0
M  V30 6780 H 633.288 -1.51446 -0.474326 0
M  V30 6781 H 633.309 -2.19307 -3.10941 0
M  V30 6782 H 632.821 -3.44686 -1.78363 0
M  V30 6783 H 630.922 -1.56773 -3.38013 0
M  V30 6784 H 631.035 -3.45109 -3.3232 0
M  V30 6785 H 629.399 -1.76623 -1.83511 0
M  V30 6786 H 630.182 -3.25816 -1.0816 0
M  V30 6787 N 632.627 0.916307 -1.28225 0
M  V30 6788 C 633.59 1.99996 -1.11957 0
M  V30 6789 C 634.59 1.60688 -0.0600152 0
M  V30 6790 O 635.78 1.71499 -0.30558 0
M  V30 6791 C 632.912 3.33458 -0.708411 0
M  V30 6792 H 634.105 2.15858 -2.08196 0
M  V30 6793 H 631.658 1.09863 -1.11175 0
M  V30 6794 H 632.393 3.23297 0.254859 0
M  V30 6795 H 632.178 3.63349 -1.47377 0
M  V30 6796 H 633.668 4.13014 -0.617164 0
M  V30 6797 N 634.105 1.10431 1.1244 0
M  V30 6798 C 635.035 0.775143 2.20258 0
M  V30 6799 C 636.016 -0.25186 1.68225 0
M  V30 6800 O 637.201 -0.117637 1.93843 0
M  V30 6801 C 634.331 0.206133 3.46688 0
M  V30 6802 C 633.285 1.16382 4.11873 0
M  V30 6803 C 632.611 0.456014 5.32752 0
M  V30 6804 C 633.911 2.5104 4.58013 0
M  V30 6805 H 635.605 1.67665 2.4805 0
M  V30 6806 H 633.151 0.807595 1.19222 0
M  V30 6807 H 635.104 -0.036291 4.21384 0
M  V30 6808 H 633.828 -0.730614 3.18323 0
M  V30 6809 H 632.487 1.39169 3.39157 0
M  V30 6810 H 632.135 -0.485203 5.00654 0
M  V30 6811 H 631.835 1.09466 5.77314 0
M  V30 6812 H 633.359 0.222135 6.10196 0
M  V30 6813 H 634.773 2.32401 5.24083 0
M  V30 6814 H 633.17 3.10789 5.13352 0
M  V30 6815 H 634.24 3.11039 3.71998 0
M  V30 6816 N 635.583 -1.29855 0.893053 0
M  V30 6817 C 636.83 -1.95826 0.515585 0
M  V30 6818 C 637.158 -1.70451 -0.936842 0
M  V30 6819 O 636.413 -1.00657 -1.67829 0
M  V30 6820 C 636.712 -3.49515 0.746588 0
M  V30 6821 C 636.378 -3.94955 2.17535 0
M  V30 6822 C 635.04 -4.07073 2.56603 0
M  V30 6823 C 637.392 -4.18536 3.10607 0
M  V30 6824 C 634.72 -4.40138 3.87938 0
M  V30 6825 C 637.072 -4.53073 4.41484 0
M  V30 6826 C 635.736 -4.634 4.80434 0
M  V30 6827 H 635.006 -0.71658 0.188666 0
M  V30 6828 H 637.653 -1.54574 1.13045 0
M  V30 6829 H 635.958 -3.9177 0.0487551 0
M  V30 6830 H 637.655 -3.98644 0.434009 0
M  V30 6831 H 634.245 -3.86035 1.86212 0
M  V30 6832 H 638.429 -4.08646 2.81641 0
M  V30 6833 H 633.685 -4.46335 4.17846 0
M  V30 6834 H 637.859 -4.70269 5.13634 0
M  V30 6835 H 635.486 -4.88775 5.82239 0
M  V30 6836 N 637.061 -0.65484 -1.43351 0
M  V30 6837 C 638.286 -0.175046 -2.0666 0
M  V30 6838 C 638.711 1.15104 -1.4877 0
M  V30 6839 O 638.069 1.71144 -0.598279 0
M  V30 6840 C 638.117 -0.0991544 -3.60464 0
M  V30 6841 O 637.221 0.938169 -4.01587 0
M  V30 6842 H 636.562 -0.0956148 -0.65708 0
M  V30 6843 H 639.092 -0.898222 -1.83829 0
M  V30 6844 H 639.102 0.083632 -4.07914 0
M  V30 6845 H 637.777 -1.06719 -4.01975 0
M  V30 6846 H 636.354 0.72804 -3.65724 0
M  V30 6847 N 638.539 1.52521 -0.396863 0
M  V30 6848 C 639.786 2.01672 0.182898 0
M  V30 6849 C 640.114 1.28302 1.46181 0
M  V30 6850 O 639.369 0.374118 1.92091 0
M  V30 6851 C 639.668 3.5403 0.489677 0
M  V30 6852 C 639.334 4.45456 -0.698581 0
M  V30 6853 C 637.996 4.70166 -1.02454 0
M  V30 6854 C 640.348 4.99354 -1.49316 0
M  V30 6855 C 637.676 5.46024 -2.1465 0
M  V30 6856 C 640.028 5.76439 -2.60579 0
M  V30 6857 C 638.692 5.99426 -2.93675 0
M  V30 6858 H 637.962 0.737971 0.066927 0
M  V30 6859 H 640.609 1.83853 -0.535764 0
M  V30 6860 H 638.914 3.69963 1.28976 0
M  V30 6861 H 640.611 3.8956 0.951018 0
M  V30 6862 H 637.201 4.26392 -0.434525 0
M  V30 6863 H 641.385 4.80182 -1.25457 0
M  V30 6864 H 636.641 5.62046 -2.40654 0
M  V30 6865 H 640.815 6.17202 -3.22544 0
M  V30 6866 H 638.442 6.57988 -3.80731 0
M  V30 6867 N 640.017 0.126909 1.57088 0
M  V30 6868 C 641.245 -0.53667 1.99819 0
M  V30 6869 C 641.66 -1.5972 1.00673 0
M  V30 6870 O 641.017 -1.825 0.000747365 0
M  V30 6871 C 641.068 -1.15563 3.42531 0
M  V30 6872 O 640.789 -0.137483 4.37884 0
M  V30 6873 C 642.29 -1.90176 4.00435 0
M  V30 6874 H 639.51 -0.141443 0.655923 0
M  V30 6875 H 642.054 0.215578 2.03361 0
M  V30 6876 H 640.209 -1.85861 3.39904 0
M  V30 6877 H 640.623 -0.588229 5.21191 0
M  V30 6878 H 642.097 -2.28801 5.02349 0
M  V30 6879 H 642.574 -2.78002 3.40017 0
M  V30 6880 H 643.18 -1.24623 4.06632 0
M  V30 6881 N 641.495 -1.56914 -0.146875 0
M  V30 6882 C 642.735 -1.85163 -0.86568 0
M  V30 6883 C 643.099 -0.711215 -1.78342 0
M  V30 6884 O 644.3 -0.874754 -2.54168 0
M  V30 6885 C 642.571 -3.18593 -1.61967 0
M  V30 6886 S 644.13 -3.68397 -2.38388 0
M  V30 6887 H 640.948 -0.6494 -0.289483 0
M  V30 6888 H 643.55 -1.95096 -0.125679 0
M  V30 6889 H 642.254 -3.99562 -0.93694 0
M  V30 6890 H 641.785 -3.11666 -2.40058 0
M  V30 6891 H 643.8 -3.37672 -3.63582 0
M  V30 6892 N 642.974 0.416227 -1.52004 0
M  V30 6893 C 643.904 1.51365 -1.77795 0
M  V30 6894 C 644.885 1.58059 -0.628601 0
M  V30 6895 O 646.07 1.73447 -0.873478 0
M  V30 6896 C 643.2 2.89256 -1.92219 0
M  V30 6897 C 642.154 2.97415 -3.0778 0
M  V30 6898 C 641.48 4.37492 -3.07417 0
M  V30 6899 C 642.78 2.69551 -4.47369 0
M  V30 6900 H 644.474 1.30033 -2.69688 0
M  V30 6901 H 642.02 0.624112 -1.29772 0
M  V30 6902 H 643.973 3.66008 -2.08845 0
M  V30 6903 H 642.697 3.11866 -0.969917 0
M  V30 6904 H 641.356 2.23107 -2.90893 0
M  V30 6905 H 641.004 4.571 -2.09925 0
M  V30 6906 H 640.704 4.43877 -3.85029 0
M  V30 6907 H 642.228 5.16188 -3.26162 0
M  V30 6908 H 643.642 3.36028 -4.64497 0
M  V30 6909 H 642.039 2.87321 -5.26846 0
M  V30 6910 H 643.109 1.65029 -4.55953 0
M  V30 6911 N 644.452 1.42507 0.673017 0
M  V30 6912 C 645.699 1.43072 1.43306 0
M  V30 6913 C 646.027 0.0478004 1.94441 0
M  V30 6914 O 645.282 -0.944106 1.71421 0
M  V30 6915 C 645.581 2.40351 2.64511 0
M  V30 6916 C 645.247 3.8669 2.31908 0
M  V30 6917 C 643.909 4.26551 2.22728 0
M  V30 6918 C 646.261 4.78991 2.05467 0
M  V30 6919 C 643.589 5.56691 1.85234 0
M  V30 6920 C 645.941 6.09476 1.69477 0
M  V30 6921 C 644.605 6.48334 1.58808 0
M  V30 6922 H 643.875 0.523536 0.524395 0
M  V30 6923 H 646.522 1.75459 0.76723 0
M  V30 6924 H 644.827 2.01297 3.36135 0
M  V30 6925 H 646.524 2.38051 3.22696 0
M  V30 6926 H 643.114 3.55132 2.39956 0
M  V30 6927 H 647.298 4.48982 2.11492 0
M  V30 6928 H 642.554 5.85657 1.75545 0
M  V30 6929 H 646.728 6.80482 1.48043 0
M  V30 6930 H 644.355 7.49084 1.29525 0
M  V30 6931 N 645.93 -0.909495 1.28709 0
M  V30 6932 C 646.863 -2.01388 1.07323 0
M  V30 6933 C 647.841 -1.62596 -0.0119757 0
M  V30 6934 O 649.025 -1.88003 0.136796 0
M  V30 6935 C 646.152 -3.32755 0.631797 0
M  V30 6936 C 645.198 -3.90532 1.71428 0
M  V30 6937 S 646.031 -4.20853 3.31124 0
M  V30 6938 C 647.187 -5.55276 2.88825 0
M  V30 6939 H 647.42 -2.19219 2.00824 0
M  V30 6940 H 644.953 -1.05489 1.12745 0
M  V30 6941 H 646.911 -4.08702 0.38381 0
M  V30 6942 H 645.572 -3.12818 -0.283451 0
M  V30 6943 H 644.765 -4.85385 1.35712 0
M  V30 6944 H 644.367 -3.21237 1.91528 0
M  V30 6945 H 646.659 -6.35341 2.3526 0
M  V30 6946 H 647.602 -5.95907 3.82492 0
M  V30 6947 H 648.01 -5.16666 2.27412 0
M  V30 6948 N 647.408 -1.11026 -1.11852 0
M  V30 6949 C 648.654 -0.857729 -1.83768 0
M  V30 6950 C 648.987 0.615143 -1.842 0
M  V30 6951 O 648.262 1.45391 -1.29196 0
M  V30 6952 C 648.545 -1.41453 -3.31154 0
M  V30 6953 C 648.398 -2.95471 -3.39142 0
M  V30 6954 C 649.717 -1.0619 -4.27097 0
M  V30 6955 H 646.836 -0.313044 -0.667212 0
M  V30 6956 H 649.478 -1.37443 -1.31185 0
M  V30 6957 H 647.628 -0.975052 -3.76065 0
M  V30 6958 H 649.3 -3.4799 -3.02821 0
M  V30 6959 H 647.543 -3.31759 -2.79497 0
M  V30 6960 H 648.214 -3.29515 -4.42859 0
M  V30 6961 H 650.69 -1.44122 -3.90344 0
M  V30 6962 H 649.566 -1.47832 -5.28618 0
M  V30 6963 H 649.827 0.0278912 -4.42091 0
M  V30 6964 N 648.886 1.2938 -0.899927 0
M  V30 6965 C 649.849 2.25983 -0.382677 0
M  V30 6966 C 650.849 1.53366 0.483259 0
M  V30 6967 O 652.039 1.71798 0.28828 0
M  V30 6968 C 649.171 3.37878 0.452915 0
M  V30 6969 H 650.364 2.73252 -1.23586 0
M  V30 6970 H 647.917 1.40825 -0.678088 0
M  V30 6971 H 648.652 2.95949 1.32608 0
M  V30 6972 H 648.437 3.91742 -0.167562 0
M  V30 6973 H 649.927 4.09746 0.806107 0
M  V30 6974 N 650.364 0.662433 1.43002 0
M  V30 6975 C 651.294 -0.00979809 2.33498 0
M  V30 6976 C 652.275 -0.802329 1.49989 0
M  V30 6977 O 653.46 -0.761964 1.78627 0
M  V30 6978 C 650.59 -0.970446 3.33466 0
M  V30 6979 C 649.544 -0.287383 4.27034 0
M  V30 6980 C 648.87 -1.36012 5.17112 0
M  V30 6981 C 650.17 0.82595 5.15728 0
M  V30 6982 H 651.864 0.745959 2.89958 0
M  V30 6983 H 649.41 0.360172 1.39423 0
M  V30 6984 H 651.363 -1.44971 3.95679 0
M  V30 6985 H 650.087 -1.75748 2.75282 0
M  V30 6986 H 648.746 0.17152 3.66199 0
M  V30 6987 H 648.394 -2.13882 4.55262 0
M  V30 6988 H 648.094 -0.908276 5.80538 0
M  V30 6989 H 649.618 -1.84056 5.82199 0
M  V30 6990 H 651.032 0.42845 5.71697 0
M  V30 6991 H 649.429 1.20282 5.87922 0
M  V30 6992 H 650.499 1.68003 4.54866 0
M  V30 6993 N 651.842 -1.52309 0.404946 0
M  V30 6994 C 653.067 -2.06666 -0.1743 0
M  V30 6995 C 653.492 -1.27341 -1.38441 0
M  V30 6996 O 652.85 -0.302539 -1.78758 0
M  V30 6997 C 652.898 -3.57014 -0.507262 0
M  V30 6998 O 652.002 -3.80144 -1.59889 0
M  V30 6999 H 651.343 -0.663807 -0.0160273 0
M  V30 7000 H 653.873 -1.96297 0.576937 0
M  V30 7001 H 653.883 -4.00724 -0.767098 0
M  V30 7002 H 652.558 -4.14184 0.377368 0
M  V30 7003 H 651.135 -3.48316 -1.33155 0
M  V30 7004 N 653.32 -0.135238 -1.57019 0
M  V30 7005 C 654.25 0.805235 -2.19176 0
M  V30 7006 C 655.231 1.2656 -1.13651 0
M  V30 7007 O 656.416 1.32528 -1.4195 0
M  V30 7008 C 653.546 2.04914 -2.80406 0
M  V30 7009 C 652.5 1.72598 -3.91655 0
M  V30 7010 C 651.826 3.04154 -4.39766 0
M  V30 7011 C 653.126 0.981709 -5.12991 0
M  V30 7012 H 654.82 0.287232 -2.98019 0
M  V30 7013 H 652.366 0.136714 -1.4335 0
M  V30 7014 H 654.319 2.71178 -3.22553 0
M  V30 7015 H 653.043 2.59067 -1.98877 0
M  V30 7016 H 651.702 1.08717 -3.50109 0
M  V30 7017 H 651.35 3.56274 -3.55075 0
M  V30 7018 H 651.05 2.83299 -5.14796 0
M  V30 7019 H 652.574 3.71509 -4.84576 0
M  V30 7020 H 653.988 1.5462 -5.52056 0
M  V30 7021 H 652.385 0.873533 -5.93708 0
M  V30 7022 H 653.455 -0.0286887 -4.84892 0
M  V30 7023 N 654.798 1.5699 0.138552 0
M  V30 7024 C 656.028 1.87704 0.863184 0
M  V30 7025 C 656.436 0.722411 1.74865 0
M  V30 7026 O 655.779 -0.316636 1.80951 0
M  V30 7027 C 655.841 3.13219 1.76449 0
M  V30 7028 C 655.505 4.44648 1.05532 0
M  V30 7029 C 656.502 5.18318 0.405252 0
M  V30 7030 C 654.187 4.91367 1.04231 0
M  V30 7031 C 656.181 6.36916 -0.24835 0
M  V30 7032 C 653.868 6.09887 0.384904 0
M  V30 7033 C 654.866 6.82508 -0.259292 0
M  V30 7034 O 654.554 7.98775 -0.906258 0
M  V30 7035 H 654.286 0.626255 0.254521 0
M  V30 7036 H 656.84 2.04966 0.133472 0
M  V30 7037 H 655.07 2.91988 2.53535 0
M  V30 7038 H 656.759 3.30111 2.36181 0
M  V30 7039 H 657.525 4.83289 0.407053 0
M  V30 7040 H 653.404 4.34759 1.53315 0
M  V30 7041 H 656.948 6.93538 -0.751755 0
M  V30 7042 H 652.845 6.44376 0.380799 0
M  V30 7043 H 653.613 8.14494 -0.80877 0
M  V30 7044 N 656.276 -0.40816 1.52223 0
M  V30 7045 C 657.501 -1.18127 1.70472 0
M  V30 7046 C 657.926 -1.83491 0.41384 0
M  V30 7047 O 657.284 -1.70047 -0.628778 0
M  V30 7048 C 657.332 -2.21935 2.84213 0
M  V30 7049 O 656.436 -3.28099 2.4985 0
M  V30 7050 H 655.777 -0.344781 0.56747 0
M  V30 7051 H 658.307 -0.478328 1.9893 0
M  V30 7052 H 658.317 -2.66248 3.09153 0
M  V30 7053 H 656.992 -1.73744 3.7787 0
M  V30 7054 H 655.569 -2.89058 2.35584 0
M  V30 7055 N 657.755 -1.42862 -0.66545 0
M  V30 7056 C 659.032 -1.3431 -1.42197 0
M  V30 7057 C 659.412 0.0150265 -2.11095 0
M  V30 7058 O 658.76 1.03101 -2.03918 0
M  V30 7059 C 658.97 -2.51783 -2.41674 0
M  V30 7060 C 660.318 -2.94321 -3.0604 0
M  V30 7061 O 661.342 -2.51741 -2.52001 0
M  V30 7062 O 660.201 -3.68047 -4.03985 0
M  V30 7063 H 657.295 -0.530159 -0.634713 0
M  V30 7064 H 659.841 -1.54888 -0.693386 0
M  V30 7065 H 658.613 -3.42282 -1.89627 0
M  V30 7066 H 658.236 -2.33241 -3.22001 0
M  V30 7067 N 659.233 0.902656 -1.29189 0
M  V30 7068 C 660.644 1.46809 -1.15343 0
M  V30 7069 C 660.995 1.94568 0.252517 0
M  V30 7070 O 660.12 1.83454 1.14777 0
M  V30 7071 C 660.715 2.66829 -2.08776 0
M  V30 7072 C 659.274 3.19518 -1.98961 0
M  V30 7073 C 658.421 1.92212 -1.99874 0
M  V30 7074 H 661.372 0.714282 -1.41717 0
M  V30 7075 H 661.393 3.42465 -1.65826 0
M  V30 7076 H 660.905 2.32039 -3.11094 0
M  V30 7077 H 659.006 3.59008 -0.99721 0
M  V30 7078 H 659.119 3.84016 -2.86477 0
M  V30 7079 H 657.483 2.0979 -1.44431 0
M  V30 7080 H 658.266 1.59702 -3.03891 0
M  V30 7081 N 660.711 1.11618 1.11262 0
M  V30 7082 C 661.958 0.86618 1.8304 0
M  V30 7083 C 662.286 -0.608149 1.84748 0
M  V30 7084 O 661.541 -1.46508 1.29745 0
M  V30 7085 C 661.84 1.37529 3.2988 0
M  V30 7086 C 661.506 2.86317 3.4833 0
M  V30 7087 C 660.168 3.26945 3.53073 0
M  V30 7088 C 662.52 3.82136 3.54431 0
M  V30 7089 C 659.848 4.62117 3.61475 0
M  V30 7090 C 662.2 5.17128 3.64365 0
M  V30 7091 C 660.864 5.57312 3.67369 0
M  V30 7092 H 660.134 0.316958 0.66979 0
M  V30 7093 H 662.781 1.3949 1.31205 0
M  V30 7094 H 661.086 0.766842 3.84222 0
M  V30 7095 H 662.783 1.15817 3.83911 0
M  V30 7096 H 659.373 2.53889 3.45309 0
M  V30 7097 H 663.557 3.51847 3.50025 0
M  V30 7098 H 658.813 4.92655 3.62079 0
M  V30 7099 H 662.987 5.91208 3.68029 0
M  V30 7100 H 660.614 6.62045 3.73632 0
M  V30 7101 N 662.189 -1.289 0.906776 0
M  V30 7102 C 663.414 -1.99939 0.551303 0
M  V30 7103 C 663.839 -1.67366 -0.858496 0
M  V30 7104 O 663.197 -0.902176 -1.57259 0
M  V30 7105 C 663.245 -3.52523 0.758937 0
M  V30 7106 O 662.349 -4.11983 -0.185308 0
M  V30 7107 H 661.69 -0.628376 0.214568 0
M  V30 7108 H 664.22 -1.64225 1.2203 0
M  V30 7109 H 664.23 -4.02522 0.666329 0
M  V30 7110 H 662.905 -3.75566 1.78671 0
M  V30 7111 H 661.482 -3.72873 -0.0445577 0
M  V30 7112 N 663.667 -0.670007 -1.42649 0
M  V30 7113 C 664.895 -0.19854 -2.05945 0
M  V30 7114 C 665.31 1.14243 -1.50313 0
M  V30 7115 O 664.667 1.70872 -0.641027 0
M  V30 7116 C 664.718 -0.11966 -3.61302 0
M  V30 7117 O 664.439 -1.40764 -4.1487 0
M  V30 7118 C 665.94 0.375878 -4.41704 0
M  V30 7119 H 663.16 -0.0976894 -0.663851 0
M  V30 7120 H 665.704 -0.915392 -1.82868 0
M  V30 7121 H 663.859 0.547851 -3.83507 0
M  V30 7122 H 664.273 -1.27784 -5.08696 0
M  V30 7123 H 665.747 0.379988 -5.50691 0
M  V30 7124 H 666.224 1.41028 -4.15942 0
M  V30 7125 H 666.83 -0.259727 -4.24506 0
M  V30 7126 N 665.145 1.52092 -0.413018 0
M  V30 7127 C 666.393 2.01456 0.161178 0
M  V30 7128 C 666.714 1.30034 1.45314 0
M  V30 7129 O 665.984 0.427435 1.9118 0
M  V30 7130 H 664.564 0.744376 0.0625526 0
M  V30 7131 H 667.226 1.86974 -0.550151 0
M  V30 7132 H 666.322 3.1008 0.354517 0
M  V30 7133 N 666.623 0.143563 1.56945 0
M  V30 7134 C 667.872 -0.50835 1.95189 0
M  V30 7135 C 668.185 -1.66239 1.03073 0
M  V30 7136 O 669.391 -2.3787 1.30882 0
M  V30 7137 C 667.847 -0.955735 3.46978 0
M  V30 7138 C 667.455 0.171183 4.47673 0
M  V30 7139 C 669.199 -1.57763 3.94095 0
M  V30 7140 C 667.106 -0.294279 5.90667 0
M  V30 7141 H 666.036 -0.193679 0.728701 0
M  V30 7142 H 668.687 0.227357 1.82086 0
M  V30 7143 H 667.069 -1.7466 3.55401 0
M  V30 7144 H 668.243 0.948049 4.50942 0
M  V30 7145 H 666.558 0.701273 4.10452 0
M  V30 7146 H 669.155 -1.93745 4.98364 0
M  V30 7147 H 669.498 -2.46531 3.35452 0
M  V30 7148 H 670.031 -0.851728 3.88575 0
M  V30 7149 H 666.77 0.557939 6.53121 0
M  V30 7150 H 666.29 -1.0371 5.90766 0
M  V30 7151 H 667.969 -0.747426 6.42668 0
M  V30 7152 N 668.101 -1.57061 -0.130224 0
M  V30 7153 C 669.349 -1.83893 -0.838313 0
M  V30 7154 C 669.67 -0.727046 -1.80939 0
M  V30 7155 O 668.94 0.249927 -1.94299 0
M  V30 7156 H 667.52 -0.67846 -0.312573 0
M  V30 7157 H 670.182 -1.94529 -0.120224 0
M  V30 7158 H 669.278 -2.79419 -1.39038 0
M  V30 7159 N 669.579 0.400081 -1.52437 0
M  V30 7160 C 670.826 1.14619 -1.6694 0
M  V30 7161 C 671.154 1.90262 -0.403797 0
M  V30 7162 O 670.409 1.85835 0.61351 0
M  V30 7163 C 670.708 2.15914 -2.84808 0
M  V30 7164 C 670.374 1.57011 -4.2268 0
M  V30 7165 C 669.036 1.40672 -4.60179 0
M  V30 7166 C 671.388 1.14081 -5.08562 0
M  V30 7167 C 668.716 0.799335 -5.81229 0
M  V30 7168 C 671.068 0.547573 -6.30226 0
M  V30 7169 C 669.732 0.371389 -6.66466 0
M  V30 7170 H 669.002 0.419419 -0.610875 0
M  V30 7171 H 671.649 0.432227 -1.86558 0
M  V30 7172 H 669.954 2.93488 -2.59561 0
M  V30 7173 H 671.651 2.73533 -2.93225 0
M  V30 7174 H 668.241 1.70713 -3.93135 0
M  V30 7175 H 672.425 1.2551 -4.80168 0
M  V30 7176 H 667.681 0.65093 -6.07925 0
M  V30 7177 H 671.855 0.206575 -6.96094 0
M  V30 7178 H 669.482 -0.10135 -7.60132 0
M  V30 7179 N 671.057 1.43213 0.657864 0
M  V30 7180 C 672.303 1.44798 1.41991 0
M  V30 7181 C 672.636 0.070256 1.94073 0
M  V30 7182 O 671.911 -0.908177 1.71995 0
M  V30 7183 C 672.194 2.4865 2.60471 0
M  V30 7184 C 672.047 3.95679 2.13911 0
M  V30 7185 C 673.366 2.49292 3.62686 0
M  V30 7186 H 670.485 0.527244 0.514959 0
M  V30 7187 H 673.127 1.74733 0.74621 0
M  V30 7188 H 671.277 2.23254 3.17946 0
M  V30 7189 H 672.949 4.32116 1.61472 0
M  V30 7190 H 671.192 4.08733 1.45325 0
M  V30 7191 H 671.863 4.6395 2.99089 0
M  V30 7192 H 674.339 2.71917 3.14961 0
M  V30 7193 H 673.215 3.23907 4.43143 0
M  V30 7194 H 673.476 1.52502 4.14964 0
M  V30 7195 N 672.536 -0.895792 1.29666 0
M  V30 7196 C 673.785 -1.64131 1.17234 0
M  V30 7197 C 674.098 -1.93665 -0.274416 0
M  V30 7198 O 675.304 -2.66472 -0.520105 0
M  V30 7199 C 673.76 -2.95764 2.05065 0
M  V30 7200 C 673.368 -2.7381 3.54587 0
M  V30 7201 C 675.112 -3.737 2.01367 0
M  V30 7202 C 673.019 -4.01194 4.34508 0
M  V30 7203 H 671.949 -0.615742 0.435175 0
M  V30 7204 H 674.6 -0.992626 1.54335 0
M  V30 7205 H 672.982 -3.61867 1.60837 0
M  V30 7206 H 674.156 -2.16277 4.06892 0
M  V30 7207 H 672.471 -2.09265 3.59996 0
M  V30 7208 H 675.068 -4.68152 2.58337 0
M  V30 7209 H 675.411 -4.04245 0.994575 0
M  V30 7210 H 675.944 -3.14444 2.43659 0
M  V30 7211 H 672.683 -3.75813 5.37071 0
M  V30 7212 H 672.203 -4.58272 3.86971 0
M  V30 7213 H 673.882 -4.69307 4.45376 0
M  V30 7214 N 674.014 -1.12206 -1.10668 0
M  V30 7215 C 675.242 -0.898635 -1.86366 0
M  V30 7216 C 675.657 0.551991 -1.80551 0
M  V30 7217 O 675.014 1.38152 -1.19249 0
M  V30 7218 C 675.065 -1.36199 -3.34861 0
M  V30 7219 O 674.786 -2.75576 -3.40573 0
M  V30 7220 C 676.287 -1.17515 -4.2744 0
M  V30 7221 H 673.507 -0.321281 -0.589084 0
M  V30 7222 H 676.051 -1.49142 -1.39918 0
M  V30 7223 H 674.206 -0.81249 -3.78784 0
M  V30 7224 H 674.62 -2.95851 -4.33096 0
M  V30 7225 H 676.094 -1.54827 -5.29842 0
M  V30 7226 H 676.571 -0.115486 -4.39048 0
M  V30 7227 H 677.177 -1.71203 -3.89319 0
M  V30 7228 N 675.492 1.28418 -0.913599 0
M  V30 7229 C 676.422 2.29713 -0.418847 0
M  V30 7230 C 677.403 1.62165 0.513469 0
M  V30 7231 O 678.588 1.89576 0.421235 0
M  V30 7232 C 675.718 3.45612 0.342042 0
M  V30 7233 C 674.672 4.25056 -0.501123 0
M  V30 7234 C 673.998 5.3329 0.388097 0
M  V30 7235 C 675.298 4.91814 -1.75831 0
M  V30 7236 H 676.992 2.71346 -1.26538 0
M  V30 7237 H 674.538 1.30446 -0.609903 0
M  V30 7238 H 676.491 4.15562 0.699 0
M  V30 7239 H 675.215 3.02858 1.22248 0
M  V30 7240 H 673.874 3.56833 -0.840598 0
M  V30 7241 H 673.522 4.8678 1.26707 0
M  V30 7242 H 673.222 5.87347 -0.172459 0
M  V30 7243 H 674.746 6.06088 0.74094 0
M  V30 7244 H 676.16 5.54126 -1.47026 0
M  V30 7245 H 674.557 5.55866 -2.26126 0
M  V30 7246 H 675.627 4.16313 -2.4862 0
M  V30 7247 N 676.97 0.677563 1.42291 0
M  V30 7248 C 678.198 0.209459 2.05837 0
M  V30 7249 C 678.613 -1.13444 1.50917 0
M  V30 7250 O 677.97 -1.70529 0.65008 0
M  V30 7251 C 678.021 0.138819 3.61233 0
M  V30 7252 O 677.742 1.42962 4.14118 0
M  V30 7253 C 679.243 -0.352449 4.41897 0
M  V30 7254 H 676.463 0.101209 0.663323 0
M  V30 7255 H 679.007 0.925077 1.8238 0
M  V30 7256 H 677.162 -0.527505 3.83792 0
M  V30 7257 H 677.576 1.3048 5.08011 0
M  V30 7258 H 679.05 -0.350778 5.50884 0
M  V30 7259 H 679.527 -1.3882 4.16684 0
M  V30 7260 H 680.133 0.282236 4.24362 0
M  V30 7261 N 678.448 -1.51871 0.421078 0
M  V30 7262 C 679.696 -2.01539 -0.150492 0
M  V30 7263 C 680.017 -1.30803 -1.44623 0
M  V30 7264 O 679.287 -0.437568 -1.90951 0
M  V30 7265 H 677.867 -0.744698 -0.0586041 0
M  V30 7266 H 680.529 -1.8668 0.560059 0
M  V30 7267 H 679.625 -3.10264 -0.338068 0
M  V30 7268 N 679.926 -0.151884 -1.56866 0
M  V30 7269 C 681.172 0.498742 -1.96572 0
M  V30 7270 C 681.505 1.64194 -1.03702 0
M  V30 7271 O 680.78 1.94334 -0.0803432 0
M  V30 7272 C 681.063 1.00027 -3.45929 0
M  V30 7273 C 680.916 -0.141767 -4.49577 0
M  V30 7274 C 682.235 1.88044 -3.97904 0
M  V30 7275 H 679.354 0.17982 -0.714726 0
M  V30 7276 H 681.996 -0.234097 -1.88552 0
M  V30 7277 H 680.146 1.62476 -3.52894 0
M  V30 7278 H 681.818 -0.778269 -4.54687 0
M  V30 7279 H 680.061 -0.80019 -4.26356 0
M  V30 7280 H 680.732 0.250947 -5.51429 0
M  V30 7281 H 683.208 1.35416 -3.93449 0
M  V30 7282 H 682.084 2.20043 -5.02864 0
M  V30 7283 H 682.345 2.81916 -3.40552 0
M  V30 7284 N 681.404 1.57128 0.121893 0
M  V30 7285 C 682.815 1.73902 0.679348 0
M  V30 7286 C 683.166 0.770135 1.80453 0
M  V30 7287 O 682.291 -0.0576083 2.16323 0
M  V30 7288 C 682.886 3.15328 1.2391 0
M  V30 7289 C 681.445 3.33618 1.74288 0
M  V30 7290 C 680.592 2.6978 0.641414 0
M  V30 7291 H 683.543 1.58359 -0.104 0
M  V30 7292 H 683.564 3.16718 2.10879 0
M  V30 7293 H 683.076 3.85821 0.419957 0
M  V30 7294 H 681.177 2.68162 2.58689 0
M  V30 7295 H 681.29 4.4176 1.85432 0
M  V30 7296 H 679.654 2.30935 1.0743 0
M  V30 7297 H 680.437 3.42895 -0.166707 0
M  V30 7298 N 682.882 -0.391992 1.52647 0
M  V30 7299 C 683.845 -1.46135 1.7657 0
M  V30 7300 C 684.845 -1.47701 0.635698 0
M  V30 7301 O 686.035 -1.48924 0.903728 0
M  V30 7302 C 683.167 -2.85443 1.86374 0
M  V30 7303 H 684.36 -1.26208 2.72051 0
M  V30 7304 H 681.913 -0.623549 1.43323 0
M  V30 7305 H 682.648 -3.10718 0.928685 0
M  V30 7306 H 682.433 -2.85708 2.68539 0
M  V30 7307 H 683.923 -3.62933 2.06566 0
M  V30 7308 N 684.36 -1.4356 -0.65026 0
M  V30 7309 C 685.59 -1.48563 -1.4357 0
M  V30 7310 C 685.998 -0.103041 -1.88919 0
M  V30 7311 O 685.341 0.897602 -1.60277 0
M  V30 7312 C 685.403 -2.37181 -2.70158 0
M  V30 7313 C 685.067 -3.84673 -2.4673 0
M  V30 7314 C 686.064 -4.75704 -2.09765 0
M  V30 7315 C 683.749 -4.29189 -2.60963 0
M  V30 7316 C 685.743 -6.09249 -1.87334 0
M  V30 7317 C 683.43 -5.62787 -2.38147 0
M  V30 7318 C 684.428 -6.52634 -2.01389 0
M  V30 7319 O 684.116 -7.83761 -1.78813 0
M  V30 7320 H 683.848 -0.506743 -0.447423 0
M  V30 7321 H 686.402 -1.89001 -0.80423 0
M  V30 7322 H 684.632 -1.91636 -3.35876 0
M  V30 7323 H 686.321 -2.33354 -3.32116 0
M  V30 7324 H 687.087 -4.42589 -1.98343 0
M  V30 7325 H 682.966 -3.59529 -2.88548 0
M  V30 7326 H 686.51 -6.7934 -1.58567 0
M  V30 7327 H 682.407 -5.95469 -2.49173 0
M  V30 7328 H 683.175 -7.95368 -1.93214 0
M  V30 7329 N 685.838 0.888903 -1.30139 0
M  V30 7330 C 687.068 1.67115 -1.21474 0
M  V30 7331 C 687.476 1.87852 0.225472 0
M  V30 7332 O 686.819 1.42324 1.16145 0
M  V30 7333 C 686.881 3.0713 -1.86846 0
M  V30 7334 C 686.545 3.09582 -3.36167 0
M  V30 7335 C 687.542 2.88929 -4.32222 0
M  V30 7336 C 685.227 3.31304 -3.77549 0
M  V30 7337 C 687.221 2.89949 -5.67634 0
M  V30 7338 C 684.908 3.31954 -5.13079 0
M  V30 7339 C 685.906 3.113 -6.07932 0
M  V30 7340 O 685.594 3.11758 -7.40987 0
M  V30 7341 H 685.326 0.528372 -0.421662 0
M  V30 7342 H 687.88 1.11919 -1.7223 0
M  V30 7343 H 686.11 3.63973 -1.30615 0
M  V30 7344 H 687.799 3.6749 -1.72354 0
M  V30 7345 H 688.565 2.71948 -4.01584 0
M  V30 7346 H 684.444 3.46417 -3.04165 0
M  V30 7347 H 687.988 2.73746 -6.41645 0
M  V30 7348 H 683.885 3.48469 -5.43359 0
M  V30 7349 H 684.653 3.27951 -7.49927 0
M  V30 7350 N 687.317 1.12792 1.10072 0
M  V30 7351 C 688.247 0.821688 2.18565 0
M  V30 7352 C 689.228 -0.21612 1.68721 0
M  V30 7353 O 690.413 -0.0764932 1.94049 0
M  V30 7354 C 687.543 0.279624 3.46172 0
M  V30 7355 C 686.497 1.25092 4.09312 0
M  V30 7356 C 685.823 0.568916 5.31665 0
M  V30 7357 C 687.123 2.60699 4.52585 0
M  V30 7358 H 688.817 1.72888 2.44438 0
M  V30 7359 H 686.363 0.832702 1.17482 0
M  V30 7360 H 688.316 0.053099 4.21367 0
M  V30 7361 H 687.04 -0.662929 3.19801 0
M  V30 7362 H 685.699 1.46332 3.36129 0
M  V30 7363 H 685.347 -0.378898 5.01571 0
M  V30 7364 H 685.047 1.21687 5.74862 0
M  V30 7365 H 686.571 0.351517 6.09587 0
M  V30 7366 H 687.985 2.43465 5.19035 0
M  V30 7367 H 686.382 3.21608 5.06644 0
M  V30 7368 H 687.452 3.1886 3.65317 0
M  V30 7369 N 688.795 -1.27931 0.920396 0
M  V30 7370 C 690.042 -1.94689 0.557007 0
M  V30 7371 C 690.37 -1.724 -0.900476 0
M  V30 7372 O 689.625 -1.04194 -1.65657 0
M  V30 7373 C 689.924 -3.47853 0.820558 0
M  V30 7374 C 689.59 -3.90252 2.25863 0
M  V30 7375 C 688.252 -4.01539 2.65179 0
M  V30 7376 C 690.604 -4.11853 3.19415 0
M  V30 7377 C 687.932 -4.3181 3.97187 0
M  V30 7378 C 690.284 -4.43606 4.50995 0
M  V30 7379 C 688.948 -4.53105 4.90155 0
M  V30 7380 H 688.218 -0.712416 0.203823 0
M  V30 7381 H 690.865 -1.52142 1.16298 0
M  V30 7382 H 689.17 -3.91578 0.131844 0
M  V30 7383 H 690.867 -3.97634 0.51847 0
M  V30 7384 H 687.457 -3.81999 1.94358 0
M  V30 7385 H 691.641 -4.0258 2.90246 0
M  V30 7386 H 686.897 -4.37371 4.2722 0
M  V30 7387 H 691.071 -4.59268 5.23494 0
M  V30 7388 H 688.698 -4.76315 5.92476 0
M  V30 7389 N 690.273 -0.685099 -1.4193 0
M  V30 7390 C 691.522 -0.208816 -2.00616 0
M  V30 7391 C 691.835 1.19506 -1.54847 0
M  V30 7392 O 693.041 1.76826 -2.06021 0
M  V30 7393 C 691.497 -0.322446 -3.58453 0
M  V30 7394 C 691.105 -1.73102 -4.13206 0
M  V30 7395 C 692.849 0.0945979 -4.24395 0
M  V30 7396 C 690.756 -1.79687 -5.63442 0
M  V30 7397 H 689.686 -0.0743092 -0.750329 0
M  V30 7398 H 692.337 -0.851778 -1.62533 0
M  V30 7399 H 690.719 0.388588 -3.94089 0
M  V30 7400 H 691.893 -2.46997 -3.8901 0
M  V30 7401 H 690.208 -2.09682 -3.59753 0
M  V30 7402 H 692.805 0.0656937 -5.3466 0
M  V30 7403 H 693.148 1.1316 -4.00625 0
M  V30 7404 H 693.681 -0.56579 -3.93756 0
M  V30 7405 H 690.42 -2.81404 -5.92024 0
M  V30 7406 H 689.94 -1.10162 -5.89597 0
M  V30 7407 H 691.619 -1.55498 -6.28036 0
M  V30 7408 N 691.751 1.51645 -0.429126 0
M  V30 7409 C 693 2.01203 0.141538 0
M  V30 7410 C 693.313 1.31828 1.44502 0
M  V30 7411 O 694.519 1.7231 2.09813 0
M  V30 7412 C 692.975 3.58624 0.302786 0
M  V30 7413 C 692.583 4.3693 -0.989775 0
M  V30 7414 C 694.327 4.16353 0.827661 0
M  V30 7415 C 692.234 5.86037 -0.794619 0
M  V30 7416 H 691.164 0.751867 0.05667 0
M  V30 7417 H 693.815 1.74822 -0.557633 0
M  V30 7418 H 692.197 3.81417 1.06476 0
M  V30 7419 H 693.371 4.25887 -1.75945 0
M  V30 7420 H 691.686 3.90614 -1.44256 0
M  V30 7421 H 694.283 5.25455 0.990026 0
M  V30 7422 H 694.626 3.74995 1.80787 0
M  V30 7423 H 695.159 3.97606 0.124213 0
M  V30 7424 H 691.898 6.31792 -1.74697 0
M  V30 7425 H 691.418 5.99765 -0.0645968 0
M  V30 7426 H 693.097 6.45471 -0.444591 0
M  V30 7427 N 693.229 0.160201 1.56784 0
M  V30 7428 C 694.475 -0.481855 1.9761 0
M  V30 7429 C 694.83 -1.61605 1.04411 0
M  V30 7430 O 694.123 -1.91426 0.0816402 0
M  V30 7431 C 694.317 -1.02259 3.42459 0
M  V30 7432 C 694.146 0.0576781 4.49663 0
M  V30 7433 C 692.916 0.503585 5.02784 0
M  V30 7434 C 695.114 0.854013 5.0716 0
M  V30 7435 N 693.096 1.56532 5.93608 0
M  V30 7436 C 694.467 1.76593 5.94319 0
M  V30 7437 C 696.522 0.900333 4.89692 0
M  V30 7438 C 695.225 2.72023 6.6588 0
M  V30 7439 C 697.251 1.84252 5.61965 0
M  V30 7440 C 696.613 2.74194 6.48843 0
M  V30 7441 H 692.712 -0.144748 0.768487 0
M  V30 7442 H 695.296 0.257853 1.92985 0
M  V30 7443 H 693.467 -1.73186 3.47651 0
M  V30 7444 H 695.199 -1.63235 3.70319 0
M  V30 7445 H 691.954 0.103361 4.73487 0
M  V30 7446 H 692.378 2.09634 6.43726 0
M  V30 7447 H 697.02 0.219023 4.22232 0
M  V30 7448 H 694.738 3.41147 7.3256 0
M  V30 7449 H 698.324 1.88433 5.5044 0
M  V30 7450 H 697.204 3.45912 7.03786 0
M  V30 7451 N 694.707 -1.5719 -0.113559 0
M  V30 7452 C 695.984 -1.76117 -0.850999 0
M  V30 7453 C 696.364 -0.737085 -1.97814 0
M  V30 7454 O 695.712 0.237942 -2.27258 0
M  V30 7455 C 695.922 -3.21298 -1.36266 0
M  V30 7456 C 697.27 -3.83955 -1.81283 0
M  V30 7457 O 698.294 -3.24934 -1.45933 0
M  V30 7458 O 697.153 -4.87707 -2.46585 0
M  V30 7459 H 694.247 -0.721308 -0.404529 0
M  V30 7460 H 696.793 -1.69423 -0.0968756 0
M  V30 7461 H 695.565 -3.87355 -0.554235 0
M  V30 7462 H 695.188 -3.32552 -2.17933 0
M  V30 7463 N 696.185 0.383891 -1.52853 0
M  V30 7464 C 697.132 1.46924 -1.77995 0
M  V30 7465 C 698.102 1.53958 -0.623396 0
M  V30 7466 O 699.287 1.70134 -0.863657 0
M  V30 7467 C 696.427 2.84093 -1.95921 0
M  V30 7468 C 695.54 2.86171 -3.23621 0
M  V30 7469 C 694.675 4.14799 -3.31836 0
M  V30 7470 C 693.714 4.10948 -4.53639 0
M  V30 7471 N 692.851 5.31192 -4.59107 0
M  V30 7472 H 697.691 1.24786 -2.70615 0
M  V30 7473 H 695.228 0.605265 -1.34071 0
M  V30 7474 H 697.186 3.63755 -2.04299 0
M  V30 7475 H 695.816 3.04671 -1.06656 0
M  V30 7476 H 694.868 1.9885 -3.24288 0
M  V30 7477 H 696.18 2.79194 -4.13343 0
M  V30 7478 H 695.334 5.02867 -3.39425 0
M  V30 7479 H 694.073 4.24505 -2.40097 0
M  V30 7480 H 693.078 3.21268 -4.46169 0
M  V30 7481 H 694.303 4.0286 -5.467 0
M  V30 7482 H 692.249 5.41518 -3.70262 0
M  V30 7483 H 692.166 5.26311 -5.42708 0
M  V30 7484 H 693.434 6.21143 -4.70958 0
M  V30 7485 N 697.663 1.43903 0.642637 0
M  V30 7486 C 698.61 1.49881 1.75512 0
M  V30 7487 C 699.58 0.347538 1.62423 0
M  V30 7488 O 700.765 0.556177 1.82514 0
M  V30 7489 C 697.905 1.43797 3.13714 0
M  V30 7490 C 697.018 2.6921 3.37861 0
M  V30 7491 C 696.153 2.5504 4.6597 0
M  V30 7492 C 695.192 3.75671 4.83257 0
M  V30 7493 N 694.329 3.60247 6.02633 0
M  V30 7494 H 699.169 2.44935 1.69737 0
M  V30 7495 H 696.706 1.21572 0.828165 0
M  V30 7496 H 698.664 1.38262 3.93624 0
M  V30 7497 H 697.294 0.523173 3.18532 0
M  V30 7498 H 696.346 2.8498 2.51973 0
M  V30 7499 H 697.658 3.58786 3.46517 0
M  V30 7500 H 696.812 2.47273 5.54023 0
M  V30 7501 H 695.551 1.63006 4.59653 0
M  V30 7502 H 694.556 3.83836 3.93637 0
M  V30 7503 H 695.781 4.68728 4.91397 0
M  V30 7504 H 693.727 2.70955 5.97427 0
M  V30 7505 H 693.644 4.43431 6.12295 0
M  V30 7506 H 694.912 3.56351 6.93278 0
M  V30 7507 N 699.141 -0.881989 1.30609 0
M  V30 7508 C 700.552 -1.44956 1.17664 0
M  V30 7509 C 700.903 -1.94945 -0.221531 0
M  V30 7510 O 700.028 -1.85257 -1.11844 0
M  V30 7511 C 700.623 -2.63474 2.12995 0
M  V30 7512 C 699.182 -3.16312 2.04019 0
M  V30 7513 C 698.329 -1.89008 2.02907 0
M  V30 7514 H 701.28 -0.691645 1.42835 0
M  V30 7515 H 701.301 -3.39783 1.71253 0
M  V30 7516 H 700.813 -2.2706 3.14746 0
M  V30 7517 H 698.914 -3.57376 1.0542 0
M  V30 7518 H 699.027 -3.79409 2.9255 0
M  V30 7519 H 697.391 -2.07465 1.47751 0
M  V30 7520 H 698.174 -1.54848 3.06394 0
M  V30 7521 N 700.619 -1.13374 -1.09472 0
M  V30 7522 C 702.035 -0.871846 -1.33682 0
M  V30 7523 C 702.235 0.492847 -1.9538 0
M  V30 7524 O 701.291 1.23946 -2.19985 0
M  V30 7525 C 702.604 -1.99608 -2.24893 0
M  V30 7526 C 704.152 -2.02812 -2.38404 0
M  V30 7527 C 704.627 -3.14497 -3.3295 0
M  V30 7528 N 706.118 -3.14004 -3.40523 0
M  V30 7529 C 706.853 -3.97061 -4.13679 0
M  V30 7530 N 706.349 -4.90131 -4.89636 0
M  V30 7531 N 708.142 -3.85162 -4.09398 0
M  V30 7532 H 700.293 -2.01288 -0.677995 0
M  V30 7533 H 702.556 -0.876492 -0.361201 0
M  V30 7534 H 702.262 -2.98 -1.86786 0
M  V30 7535 H 702.136 -1.90981 -3.25278 0
M  V30 7536 H 704.523 -1.05034 -2.75775 0
M  V30 7537 H 704.604 -2.15511 -1.37799 0
M  V30 7538 H 704.248 -4.12514 -2.96302 0
M  V30 7539 H 704.178 -2.99035 -4.33458 0
M  V30 7540 H 706.669 -2.46587 -2.86362 0
M  V30 7541 H 706.982 -5.49996 -5.42885 0
M  V30 7542 H 705.327 -4.94138 -4.88726 0
M  V30 7543 H 708.518 -3.11779 -3.49158 0
M  V30 7544 H 708.691 -4.5012 -4.6615 0
M  V30 7545 N 702.098 1.27442 -0.927168 0
M  V30 7546 C 703.344 1.95025 -0.577651 0
M  V30 7547 C 703.699 1.71534 0.871421 0
M  V30 7548 O 702.992 1.03354 1.61333 0
M  V30 7549 C 703.186 3.47413 -0.838994 0
M  V30 7550 C 703.015 3.85721 -2.31192 0
M  V30 7551 C 701.785 4.09199 -2.96452 0
M  V30 7552 C 703.983 3.95352 -3.28939 0
M  V30 7553 N 701.965 4.34283 -4.33903 0
M  V30 7554 C 703.336 4.24805 -4.51598 0
M  V30 7555 C 705.391 3.77926 -3.24155 0
M  V30 7556 C 704.094 4.38645 -5.70073 0
M  V30 7557 C 706.12 3.9299 -4.41942 0
M  V30 7558 C 705.482 4.22829 -5.63379 0
M  V30 7559 H 701.581 0.736983 -0.261495 0
M  V30 7560 H 704.165 1.53816 -1.19368 0
M  V30 7561 H 702.336 3.87581 -0.252129 0
M  V30 7562 H 704.068 4.02166 -0.452158 0
M  V30 7563 H 700.823 4.04013 -2.47125 0
M  V30 7564 H 701.247 4.50883 -5.05008 0
M  V30 7565 H 705.889 3.53897 -2.31337 0
M  V30 7566 H 703.607 4.615 -6.63358 0
M  V30 7567 H 707.193 3.80926 -4.39757 0
M  V30 7568 H 706.073 4.34234 -6.53001 0
M  V30 7569 N 703.576 0.692616 1.41565 0
M  V30 7570 C 704.823 0.222335 2.01276 0
M  V30 7571 C 705.151 -1.17706 1.5484 0
M  V30 7572 O 704.406 -1.80795 0.749118 0
M  V30 7573 C 704.705 0.225073 3.56691 0
M  V30 7574 C 704.371 1.57158 4.22625 0
M  V30 7575 C 703.033 1.94022 4.40351 0
M  V30 7576 C 705.385 2.45758 4.59622 0
M  V30 7577 C 702.713 3.19076 4.92349 0
M  V30 7578 C 705.065 3.70141 5.13009 0
M  V30 7579 C 703.729 4.07152 5.28946 0
M  V30 7580 H 702.999 0.0813581 0.73652 0
M  V30 7581 H 705.646 0.891123 1.69503 0
M  V30 7582 H 703.951 -0.527259 3.88236 0
M  V30 7583 H 705.648 -0.156283 4.00695 0
M  V30 7584 H 702.238 1.27486 4.09201 0
M  V30 7585 H 706.422 2.18558 4.45585 0
M  V30 7586 H 701.678 3.4775 5.02872 0
M  V30 7587 H 705.852 4.38983 5.40617 0
M  V30 7588 H 703.479 5.04125 5.69001 0
M  V30 7589 N 705.054 -1.51416 0.437162 0
M  V30 7590 C 706.47 -1.59349 0.0894459 0
M  V30 7591 C 706.67 -1.44809 -1.40116 0
M  V30 7592 O 705.726 -1.28924 -2.17106 0
M  V30 7593 C 707.039 -2.9446 0.609398 0
M  V30 7594 C 708.587 -3.07769 0.569824 0
M  V30 7595 C 709.062 -4.45404 1.06675 0
M  V30 7596 N 710.553 -4.51723 1.02473 0
M  V30 7597 C 711.288 -5.56544 1.3801 0
M  V30 7598 N 710.784 -6.68784 1.80831 0
M  V30 7599 N 712.577 -5.46901 1.29828 0
M  V30 7600 H 704.728 -1.59112 1.40703 0
M  V30 7601 H 706.991 -0.750031 0.579791 0
M  V30 7602 H 706.697 -3.1047 1.65231 0
M  V30 7603 H 706.571 -3.77184 0.0342236 0
M  V30 7604 H 708.958 -2.91428 -0.464107 0
M  V30 7605 H 709.039 -2.26885 1.1814 0
M  V30 7606 H 708.683 -4.62492 2.09914 0
M  V30 7607 H 708.613 -5.24827 0.431712 0
M  V30 7608 H 711.104 -3.71165 0.710258 0
M  V30 7609 H 711.417 -7.44787 2.06185 0
M  V30 7610 H 709.762 -6.69992 1.84757 0
M  V30 7611 H 712.953 -4.581 0.962397 0
M  V30 7612 H 713.126 -6.2848 1.57851 0
M  V30 7613 N 706.532 -0.168513 -1.56696 0
M  V30 7614 C 707.781 0.477233 -1.95973 0
M  V30 7615 C 708.094 1.64578 -1.05704 0
M  V30 7616 O 709.3 2.35758 -1.3465 0
M  V30 7617 C 707.756 0.900413 -3.48455 0
M  V30 7618 C 707.364 -0.242382 -4.47344 0
M  V30 7619 C 709.108 1.51474 -3.96555 0
M  V30 7620 C 707.015 0.200272 -5.91061 0
M  V30 7621 H 705.945 0.182061 -0.73169 0
M  V30 7622 H 708.596 -0.256297 -1.81701 0
M  V30 7623 H 706.978 1.68984 -3.58135 0
M  V30 7624 H 708.152 -1.01967 -4.49377 0
M  V30 7625 H 706.467 -0.766484 -4.09285 0
M  V30 7626 H 709.064 1.85792 -5.01384 0
M  V30 7627 H 709.407 2.41163 -3.39332 0
M  V30 7628 H 709.94 0.789802 -3.89881 0
M  V30 7629 H 706.679 -0.661775 -6.52151 0
M  V30 7630 H 706.199 0.942979 -5.92341 0
M  V30 7631 H 707.878 0.645088 -6.43776 0
M  V30 7632 N 708.01 1.57248 0.105221 0
M  V30 7633 C 708.943 1.96567 1.15916 0
M  V30 7634 C 709.921 0.837355 1.39381 0
M  V30 7635 O 711.105 1.09676 1.53308 0
M  V30 7636 C 708.232 2.27375 2.51035 0
M  V30 7637 C 707.278 3.49869 2.43913 0
M  V30 7638 S 708.111 5.01958 1.86543 0
M  V30 7639 C 709.267 5.35932 3.23307 0
M  V30 7640 H 709.5 2.85655 0.823931 0
M  V30 7641 H 707.033 1.51204 0.312515 0
M  V30 7642 H 708.991 2.45801 3.28774 0
M  V30 7643 H 707.652 1.38876 2.81731 0
M  V30 7644 H 706.845 3.68835 3.43477 0
M  V30 7645 H 706.447 3.30901 1.743 0
M  V30 7646 H 708.739 5.31958 4.19556 0
M  V30 7647 H 709.682 6.37047 3.09155 0
M  V30 7648 H 710.09 4.63397 3.22372 0
M  V30 7649 N 709.488 -0.375779 1.53054 0
M  V30 7650 C 710.713 -1.14484 1.7294 0
M  V30 7651 C 711.138 -1.82572 0.452668 0
M  V30 7652 O 710.496 -1.71343 -0.592567 0
M  V30 7653 C 710.544 -2.15857 2.88857 0
M  V30 7654 O 709.648 -3.22725 2.56753 0
M  V30 7655 H 708.989 -0.332666 0.574656 0
M  V30 7656 H 711.519 -0.436025 1.999 0
M  V30 7657 H 711.529 -2.59631 3.14731 0
M  V30 7658 H 710.204 -1.65689 3.81471 0
M  V30 7659 H 708.781 -2.83996 2.41663 0
M  V30 7660 N 710.966 -1.44241 -0.634997 0
M  V30 7661 C 711.876 -1.53293 -1.77591 0
M  V30 7662 C 712.892 -0.418831 -1.68884 0
M  V30 7663 O 714.068 -0.675619 -1.8973 0
M  V30 7664 C 711.133 -1.47075 -3.13958 0
M  V30 7665 C 710.194 -2.69304 -3.34326 0
M  V30 7666 C 709.427 -2.63374 -4.64187 0
M  V30 7667 O 709.65 -1.69161 -5.44739 0
M  V30 7668 O 708.584 -3.54166 -4.86673 0
M  V30 7669 H 712.41 -2.49673 -1.72908 0
M  V30 7670 H 709.995 -1.26445 -0.795745 0
M  V30 7671 H 711.877 -1.46117 -3.95257 0
M  V30 7672 H 710.552 -0.538373 -3.19192 0
M  V30 7673 H 709.459 -2.75831 -2.52721 0
M  V30 7674 H 710.792 -3.61576 -3.33951 0
M  V30 7675 N 712.444 0.87505 -1.31075 0
M  V30 7676 C 713.391 1.98178 -1.18296 0
M  V30 7677 C 714.361 1.65952 -0.0699923 0
M  V30 7678 O 715.546 1.8926 -0.241951 0
M  V30 7679 C 712.686 3.33399 -0.891024 0
M  V30 7680 C 711.799 3.78253 -2.08684 0
M  V30 7681 C 710.934 5.02166 -1.73212 0
M  V30 7682 C 709.973 5.39455 -2.89231 0
M  V30 7683 N 709.11 6.54549 -2.53989 0
M  V30 7684 H 713.95 2.0844 -2.12971 0
M  V30 7685 H 711.487 1.02047 -1.05948 0
M  V30 7686 H 713.445 4.11246 -0.702338 0
M  V30 7687 H 712.075 3.22794 0.0188799 0
M  V30 7688 H 711.127 2.9623 -2.38646 0
M  V30 7689 H 712.439 4.01821 -2.95536 0
M  V30 7690 H 711.593 5.87666 -1.50777 0
M  V30 7691 H 710.332 4.80491 -0.83544 0
M  V30 7692 H 709.337 4.52477 -3.12321 0
M  V30 7693 H 710.562 5.63098 -3.79601 0
M  V30 7694 H 708.508 6.3443 -1.66838 0
M  V30 7695 H 708.425 6.78035 -3.34372 0
M  V30 7696 H 709.693 7.43254 -2.34934 0
M  V30 7697 N 713.922 1.13953 1.08869 0
M  V30 7698 C 715.171 0.899431 1.80536 0
M  V30 7699 C 715.484 -0.575781 1.86933 0
M  V30 7700 O 716.69 -0.932988 2.54966 0
M  V30 7701 C 715.146 1.55963 3.24351 0
M  V30 7702 C 714.754 3.07077 3.26202 0
M  V30 7703 C 716.498 1.40046 4.00733 0
M  V30 7704 C 714.405 3.65955 4.64576 0
M  V30 7705 H 713.335 0.332849 0.676556 0
M  V30 7706 H 715.986 1.3679 1.22314 0
M  V30 7707 H 714.368 1.01883 3.82669 0
M  V30 7708 H 715.542 3.67785 2.77617 0
M  V30 7709 H 713.857 3.22576 2.63312 0
M  V30 7710 H 716.454 1.81441 5.02974 0
M  V30 7711 H 716.797 0.345993 4.1486 0
M  V30 7712 H 717.33 1.91137 3.48872 0
M  V30 7713 H 714.069 4.71234 4.55652 0
M  V30 7714 H 713.589 3.10027 5.13462 0
M  V30 7715 H 715.268 3.65968 5.33551 0
M  V30 7716 N 715.4 -1.26948 0.933913 0
M  V30 7717 C 716.628 -1.98186 0.59414 0
M  V30 7718 C 717.043 -1.69614 -0.829257 0
M  V30 7719 O 716.4 -0.960213 -1.55197 0
M  V30 7720 C 716.451 -3.52123 0.818026 0
M  V30 7721 O 716.172 -3.79698 2.18543 0
M  V30 7722 C 717.673 -4.40608 0.48781 0
M  V30 7723 H 714.893 -0.632305 0.224569 0
M  V30 7724 H 717.437 -1.61646 1.25263 0
M  V30 7725 H 715.592 -3.86851 0.206246 0
M  V30 7726 H 716.006 -4.7426 2.24005 0
M  V30 7727 H 717.48 -5.47606 0.695126 0
M  V30 7728 H 717.957 -4.35394 -0.576913 0
M  V30 7729 H 718.563 -4.11411 1.078 0
M  V30 7730 N 716.879 -0.700114 -1.41195 0
M  V30 7731 C 718.295 -0.372114 -1.55201 0
M  V30 7732 C 718.495 1.12053 -1.6747 0
M  V30 7733 O 717.551 1.90642 -1.65566 0
M  V30 7734 C 718.864 -1.12462 -2.78878 0
M  V30 7735 C 720.412 -1.10941 -2.92679 0
M  V30 7736 C 720.887 -1.84376 -4.19249 0
M  V30 7737 N 722.378 -1.81368 -4.26216 0
M  V30 7738 C 723.113 -2.35024 -5.23021 0
M  V30 7739 N 722.609 -2.9717 -6.25829 0
M  V30 7740 N 724.402 -2.25254 -5.14992 0
M  V30 7741 H 716.553 -1.66816 -1.31477 0
M  V30 7742 H 718.816 -0.704223 -0.634644 0
M  V30 7743 H 718.522 -2.17937 -2.76037 0
M  V30 7744 H 718.396 -0.706152 -3.70531 0
M  V30 7745 H 720.783 -0.062911 -2.95033 0
M  V30 7746 H 720.864 -1.56698 -2.02187 0
M  V30 7747 H 720.508 -2.89008 -4.17656 0
M  V30 7748 H 720.438 -1.3605 -5.08722 0
M  V30 7749 H 722.929 -1.36062 -3.52556 0
M  V30 7750 H 723.242 -3.35668 -6.96094 0
M  V30 7751 H 721.587 -3.01249 -6.26318 0
M  V30 7752 H 724.778 -1.76372 -4.33602 0
M  V30 7753 H 724.951 -2.67373 -5.90268 0
M  V30 7754 N 718.357 1.51182 -0.445186 0
M  V30 7755 C 719.585 2.06568 0.117091 0
M  V30 7756 C 720 1.31182 1.35781 0
M  V30 7757 O 719.357 0.373605 1.78635 0
M  V30 7758 C 719.408 3.58917 0.431408 0
M  V30 7759 O 719.129 4.31456 -0.760078 0
M  V30 7760 C 720.63 4.30843 1.0435 0
M  V30 7761 H 717.85 0.670985 0.00444436 0
M  V30 7762 H 720.394 1.94666 -0.626525 0
M  V30 7763 H 718.549 3.70708 1.12493 0
M  V30 7764 H 718.963 5.22215 -0.489048 0
M  V30 7765 H 720.437 5.38499 1.21337 0
M  V30 7766 H 720.914 3.89644 2.02667 0
M  V30 7767 H 721.52 4.23516 0.38913 0
M  V30 7768 N 719.835 0.176821 1.56605 0
M  V30 7769 C 720.765 -0.746841 2.21234 0
M  V30 7770 C 721.746 -1.23502 1.16967 0
M  V30 7771 O 722.931 -1.28718 1.45414 0
M  V30 7772 C 720.061 -1.97407 2.8574 0
M  V30 7773 C 719.015 -1.62153 3.96094 0
M  V30 7774 C 718.341 -2.92387 4.47676 0
M  V30 7775 C 719.641 -0.845353 5.15413 0
M  V30 7776 H 721.335 -0.208116 2.98676 0
M  V30 7777 H 718.881 -0.0986594 1.43662 0
M  V30 7778 H 720.834 -2.62531 3.2963 0
M  V30 7779 H 719.558 -2.53703 2.05676 0
M  V30 7780 H 718.217 -0.993964 3.52868 0
M  V30 7781 H 717.865 -3.46734 3.64396 0
M  V30 7782 H 717.565 -2.69551 5.22127 0
M  V30 7783 H 719.089 -3.5853 4.94255 0
M  V30 7784 H 720.503 -1.39929 5.55961 0
M  V30 7785 H 718.9 -0.715814 5.95815 0
M  V30 7786 H 719.97 0.157239 4.84645 0
M  V30 7787 N 721.313 -1.57302 -0.09688 0
M  V30 7788 C 722.245 -1.98618 -1.14384 0
M  V30 7789 C 723.258 -0.888483 -1.36418 0
M  V30 7790 O 724.447 -1.16661 -1.35101 0
M  V30 7791 C 721.547 -2.28838 -2.49973 0
M  V30 7792 C 720.72 -3.60132 -2.48241 0
M  V30 7793 C 719.779 -3.7831 -3.65743 0
M  V30 7794 O 718.805 -4.50183 -3.48316 0
M  V30 7795 N 720.007 -3.18752 -4.85157 0
M  V30 7796 H 722.772 -2.8904 -0.792202 0
M  V30 7797 H 720.333 -1.59356 -0.285883 0
M  V30 7798 H 722.325 -2.38193 -3.27179 0
M  V30 7799 H 720.895 -1.44431 -2.77233 0
M  V30 7800 H 720.115 -3.61763 -1.56593 0
M  V30 7801 H 721.403 -4.46389 -2.4416 0
M  V30 7802 H 720.801 -2.60368 -5.0222 0
M  V30 7803 H 719.358 -3.33595 -5.59962 0
M  V30 7804 N 722.791 0.367657 -1.53252 0
M  V30 7805 C 724.04 1.10782 -1.68554 0
M  V30 7806 C 724.353 1.90523 -0.442765 0
M  V30 7807 O 725.559 2.6729 -0.47629 0
M  V30 7808 C 724.015 2.01863 -2.97959 0
M  V30 7809 C 723.623 1.27443 -4.29491 0
M  V30 7810 C 725.367 2.75883 -3.22628 0
M  V30 7811 C 723.274 2.17414 -5.49987 0
M  V30 7812 H 722.204 0.417272 -0.628013 0
M  V30 7813 H 724.855 0.368971 -1.79752 0
M  V30 7814 H 723.237 2.7947 -2.80558 0
M  V30 7815 H 724.411 0.549138 -4.57516 0
M  V30 7816 H 722.726 0.652935 -4.11249 0
M  V30 7817 H 725.323 3.43421 -4.09837 0
M  V30 7818 H 725.666 3.41138 -2.38601 0
M  V30 7819 H 726.199 2.0536 -3.40693 0
M  V30 7820 H 722.938 1.5674 -6.36485 0
M  V30 7821 H 722.458 2.87799 -5.26243 0
M  V30 7822 H 724.137 2.77019 -5.84696 0
M  V30 7823 N 724.269 1.44576 0.627338 0
M  V30 7824 C 725.518 1.46837 1.38281 0
M  V30 7825 C 725.831 0.10635 1.95311 0
M  V30 7826 O 727.037 0.00651084 2.71499 0
M  V30 7827 C 725.493 2.58527 2.50384 0
M  V30 7828 C 725.101 4.00953 1.99851 0
M  V30 7829 C 726.845 2.70013 3.27557 0
M  V30 7830 C 724.752 5.0406 3.09318 0
M  V30 7831 H 723.682 0.546319 0.519664 0
M  V30 7832 H 726.333 1.70654 0.674497 0
M  V30 7833 H 724.715 2.27957 3.23808 0
M  V30 7834 H 725.889 4.41108 1.33267 0
M  V30 7835 H 724.204 3.93743 1.35482 0
M  V30 7836 H 726.801 3.44217 4.09168 0
M  V30 7837 H 727.144 1.75961 3.77284 0
M  V30 7838 H 727.677 3.00011 2.61224 0
M  V30 7839 H 724.416 5.99753 2.6453 0
M  V30 7840 H 723.936 4.68493 3.74532 0
M  V30 7841 H 725.615 5.2793 3.74031 0
M  V30 7842 N 725.747 -0.868086 1.31537 0
M  V30 7843 C 726.677 -1.99131 1.21939 0
M  V30 7844 C 727.658 -1.69768 0.106166 0
M  V30 7845 O 728.843 -1.92006 0.291081 0
M  V30 7846 C 725.973 -3.34676 0.927879 0
M  V30 7847 C 724.927 -3.7835 2.00088 0
M  V30 7848 C 724.253 -5.11375 1.56203 0
M  V30 7849 C 725.553 -3.95256 3.41424 0
M  V30 7850 H 727.247 -2.07419 2.15911 0
M  V30 7851 H 724.793 -0.996569 1.03945 0
M  V30 7852 H 726.746 -4.12793 0.847327 0
M  V30 7853 H 725.47 -3.26565 -0.0475042 0
M  V30 7854 H 724.129 -3.02474 2.07135 0
M  V30 7855 H 723.777 -4.99709 0.57445 0
M  V30 7856 H 723.477 -5.41568 2.27985 0
M  V30 7857 H 725.001 -5.92001 1.49558 0
M  V30 7858 H 726.415 -4.63764 3.3704 0
M  V30 7859 H 724.812 -4.36849 4.1144 0
M  V30 7860 H 725.882 -2.98579 3.82072 0
M  V30 7861 N 727.225 -1.14528 -1.08264 0
M  V30 7862 C 728.135 -0.84728 -2.18765 0
M  V30 7863 C 729.151 0.172826 -1.7314 0
M  V30 7864 O 730.327 0.000985336 -2.014 0
M  V30 7865 C 727.392 -0.330633 -3.4512 0
M  V30 7866 C 726.453 -1.41348 -4.05363 0
M  V30 7867 C 725.686 -0.921387 -5.25686 0
M  V30 7868 O 725.909 0.236587 -5.69909 0
M  V30 7869 O 724.843 -1.70101 -5.77364 0
M  V30 7870 H 728.669 -1.7708 -2.46731 0
M  V30 7871 H 726.254 -0.923661 -1.17426 0
M  V30 7872 H 728.136 -0.0485053 -4.21372 0
M  V30 7873 H 726.811 0.565147 -3.18728 0
M  V30 7874 H 725.718 -1.74908 -3.30693 0
M  V30 7875 H 727.051 -2.28383 -4.36007 0
M  V30 7876 N 728.703 1.26451 -0.940633 0
M  V30 7877 C 729.949 1.94065 -0.58878 0
M  V30 7878 C 730.282 1.7363 0.869853 0
M  V30 7879 O 729.557 1.073 1.62225 0
M  V30 7880 C 729.84 3.47852 -0.931199 0
M  V30 7881 C 729.693 3.77575 -2.44453 0
M  V30 7882 C 731.012 4.37832 -0.446229 0
M  V30 7883 H 728.131 0.704827 -0.21538 0
M  V30 7884 H 730.773 1.4933 -1.17475 0
M  V30 7885 H 728.923 3.86085 -0.432539 0
M  V30 7886 H 730.595 3.49059 -3.01588 0
M  V30 7887 H 728.838 3.23671 -2.88825 0
M  V30 7888 H 729.509 4.85068 -2.63464 0
M  V30 7889 H 731.985 4.06822 -0.873778 0
M  V30 7890 H 730.861 5.44228 -0.714648 0
M  V30 7891 H 731.122 4.37239 0.653815 0
M  V30 7892 N 730.181 0.707592 1.40822 0
M  V30 7893 C 731.427 0.244031 2.01326 0
M  V30 7894 C 731.76 -1.15722 1.55955 0
M  V30 7895 O 731.035 -1.78347 0.776044 0
M  V30 7896 C 731.318 0.315128 3.58718 0
M  V30 7897 C 731.171 1.75419 4.14184 0
M  V30 7898 C 732.49 -0.318251 4.38948 0
M  V30 7899 H 729.609 0.0901471 0.731466 0
M  V30 7900 H 732.251 0.898584 1.67408 0
M  V30 7901 H 730.401 -0.242176 3.87744 0
M  V30 7902 H 732.073 2.36626 3.95987 0
M  V30 7903 H 730.316 2.28449 3.68773 0
M  V30 7904 H 730.987 1.75538 5.23345 0
M  V30 7905 H 733.463 0.156514 4.15806 0
M  V30 7906 H 732.339 -0.238019 5.48384 0
M  V30 7907 H 732.6 -1.40067 4.19325 0
M  V30 7908 N 731.66 -1.50943 0.453197 0
M  V30 7909 C 733.071 -1.86699 -0.00619892 0
M  V30 7910 C 733.422 -1.3693 -1.40515 0
M  V30 7911 O 732.547 -0.726715 -2.03833 0
M  V30 7912 C 733.142 -3.38795 -0.018025 0
M  V30 7913 C 731.701 -3.74028 -0.421885 0
M  V30 7914 C 730.848 -2.74752 0.375087 0
M  V30 7915 H 733.799 -1.43942 0.668317 0
M  V30 7916 H 733.82 -3.71468 -0.824125 0
M  V30 7917 H 733.332 -3.74988 1.00028 0
M  V30 7918 H 731.433 -3.43431 -1.44521 0
M  V30 7919 H 731.546 -4.78908 -0.135664 0
M  V30 7920 H 729.91 -2.5414 -0.168794 0
M  V30 7921 H 730.693 -3.13787 1.39256 0
M  V30 7922 N 733.138 -0.185124 -1.56509 0
M  V30 7923 C 734.048 0.751908 -2.22224 0
M  V30 7924 C 735.064 1.24244 -1.21817 0
M  V30 7925 O 736.24 1.29169 -1.54523 0
M  V30 7926 C 733.305 1.95837 -2.86092 0
M  V30 7927 C 732.366 1.51337 -4.01741 0
M  V30 7928 C 731.599 2.66233 -4.62554 0
M  V30 7929 O 731.822 3.8346 -4.22273 0
M  V30 7930 O 730.756 2.39517 -5.52191 0
M  V30 7931 H 734.582 0.222304 -3.02885 0
M  V30 7932 H 732.167 0.0437141 -1.49336 0
M  V30 7933 H 734.049 2.66368 -3.26536 0
M  V30 7934 H 732.724 2.47677 -2.08417 0
M  V30 7935 H 731.631 0.777155 -3.65939 0
M  V30 7936 H 732.964 1.04175 -4.81049 0
M  V30 7937 N 734.616 1.57351 0.0885366 0
M  V30 7938 C 735.526 2.05858 1.12516 0
M  V30 7939 C 736.542 0.984758 1.43452 0
M  V30 7940 O 737.718 1.29836 1.53963 0
M  V30 7941 C 734.783 2.47882 2.42395 0
M  V30 7942 C 733.844 3.69487 2.18582 0
M  V30 7943 C 733.077 4.09497 3.42268 0
M  V30 7944 O 733.3 3.49536 4.50755 0
M  V30 7945 O 732.234 5.02406 3.31469 0
M  V30 7946 H 736.06 2.94467 0.743146 0
M  V30 7947 H 733.645 1.46326 0.301507 0
M  V30 7948 H 735.527 2.75509 3.18862 0
M  V30 7949 H 734.202 1.62408 2.8001 0
M  V30 7950 H 733.109 3.46967 1.39875 0
M  V30 7951 H 734.442 4.55761 1.85857 0
M  V30 7952 N 736.094 -0.359525 1.53444 0
M  V30 7953 C 737.371 -1.11756 1.6053 0
M  V30 7954 C 737.751 -2.06949 0.416587 0
M  V30 7955 O 737.099 -2.20681 -0.592628 0
M  V30 7956 C 737.309 -1.85133 2.95849 0
M  V30 7957 C 738.657 -2.3945 3.50641 0
M  V30 7958 O 739.681 -1.95251 2.97918 0
M  V30 7959 O 738.54 -3.20266 4.42823 0
M  V30 7960 H 735.634 -0.513005 0.648656 0
M  V30 7961 H 738.18 -0.362301 1.65787 0
M  V30 7962 H 736.952 -1.15694 3.73806 0
M  V30 7963 H 736.575 -2.67554 2.9411 0
M  V30 7964 N 737.572 -1.44907 -0.619662 0
M  V30 7965 C 738.519 -1.52654 -1.73105 0
M  V30 7966 C 739.489 -0.373334 -1.6185 0
M  V30 7967 O 740.674 -0.585143 -1.81606 0
M  V30 7968 C 737.814 -1.48769 -3.11387 0
M  V30 7969 C 736.927 -2.74551 -3.33535 0
M  V30 7970 C 736.062 -2.62421 -4.61854 0
M  V30 7971 C 735.101 -3.83312 -4.77219 0
M  V30 7972 N 734.238 -3.69789 -5.96826 0
M  V30 7973 H 739.078 -2.47605 -1.65819 0
M  V30 7974 H 736.615 -1.22875 -0.808719 0
M  V30 7975 H 738.573 -1.44507 -3.91374 0
M  V30 7976 H 737.203 -0.573783 -3.1766 0
M  V30 7977 H 736.255 -2.88953 -2.47408 0
M  V30 7978 H 737.567 -3.64253 -3.40765 0
M  V30 7979 H 736.721 -2.56056 -5.50019 0
M  V30 7980 H 735.46 -1.70298 -4.57001 0
M  V30 7981 H 734.465 -3.90049 -3.87481 0
M  V30 7982 H 735.69 -4.76486 -4.83878 0
M  V30 7983 H 733.636 -2.80426 -5.93041 0
M  V30 7984 H 733.553 -4.53116 -6.05163 0
M  V30 7985 H 734.821 -3.67335 -6.87521 0
M  V30 7986 N 739.05 0.861098 -1.31996 0
M  V30 7987 C 739.98 1.98482 -1.22993 0
M  V30 7988 C 740.961 1.6971 -0.115168 0
M  V30 7989 O 742.146 1.91849 -0.30126 0
M  V30 7990 C 739.276 3.34179 -0.945615 0
M  V30 7991 C 738.23 3.77284 -2.02091 0
M  V30 7992 C 737.556 5.1054 -1.58912 0
M  V30 7993 C 738.856 3.93439 -3.43515 0
M  V30 7994 H 740.55 2.06271 -2.17008 0
M  V30 7995 H 738.096 0.991043 -1.04472 0
M  V30 7996 H 740.049 4.12338 -0.869206 0
M  V30 7997 H 738.773 3.26586 0.0301849 0
M  V30 7998 H 737.432 3.01371 -2.08737 0
M  V30 7999 H 737.08 4.99397 -0.600942 0
M  V30 8000 H 736.78 5.40352 -2.30854 0
M  V30 8001 H 738.304 5.91199 -1.52696 0
M  V30 8002 H 739.718 4.6197 -3.39495 0
M  V30 8003 H 738.115 4.34661 -4.13751 0
M  V30 8004 H 739.185 2.96548 -3.8365 0
M  V30 8005 O 740.567 1.26963 0.998129 0
M  V30 8006 H 741.258 1.06242 1.61964 0
M  V30 END ATOM
M  V30 BEGIN BOND
M  V30 END BOND
M  V30 END CTAB
M  END
$$$$
