drugbank_target|P18846 Cyclic AMP-dependent transcription factor ATF-1 (DB00852)
 OpenBabel12092121013D

  0  0  0     0  0            999 V3000
M  V30 BEGIN CTAB
M  V30 COUNTS 4094 4116 0 0 0
M  V30 BEGIN ATOM
M  V30 1 H -0.908 1.98254 -0.117106 0
M  V30 2 N 0 1.576 0 0
M  V30 3 C 0.933 2.03868 1.02534 0
M  V30 4 C 1.911 0.928543 1.3348 0
M  V30 5 O 3.095 1.19667 1.45644 0
M  V30 6 C 0.222 2.43627 2.35294 0
M  V30 7 C -0.732 3.65373 2.2001 0
M  V30 8 S 0.101 5.13292 1.52614 0
M  V30 9 C 1.257 5.56322 2.86805 0
M  V30 10 H 1.49 2.90518 0.631377 0
M  V30 11 H -0.977 1.52953 0.210867 0
M  V30 12 H 0.981 2.67203 3.11629 0
M  V30 13 H -0.358 1.57376 2.7183 0
M  V30 14 H -1.165 3.90944 3.18086 0
M  V30 15 H -1.563 3.418 1.51819 0
M  V30 16 H 0.729 5.58782 3.83104 0
M  V30 17 H 1.672 6.56266 2.65933 0
M  V30 18 H 2.08 4.83886 2.90714 0
M  V30 19 N 1.4781 -0.272755 1.55222 0
M  V30 20 C 2.3881 -1.35918 1.91216 0
M  V30 21 C 3.4041 -1.54026 0.809436 0
M  V30 22 O 4.5801 -1.68148 1.10852 0
M  V30 23 C 1.6451 -2.69834 2.17693 0
M  V30 24 C 0.7061 -2.6047 3.41253 0
M  V30 25 C -0.0609 -3.88 3.66458 0
M  V30 26 O 0.1621 -4.88693 2.94169 0
M  V30 27 O -0.9039 -3.88189 4.59992 0
M  V30 28 H 2.9221 -1.0839 2.83699 0
M  V30 29 H 0.5071 -0.471301 1.41771 0
M  V30 30 H 2.3891 -3.49017 2.36147 0
M  V30 31 H 1.0641 -2.97148 1.28392 0
M  V30 32 H -0.0289 -1.79663 3.28134 0
M  V30 33 H 1.3041 -2.38106 4.30774 0
M  V30 34 N 2.9562 -1.48159 -0.537278 0
M  V30 35 C 4.2332 -1.46291 -1.29839 0
M  V30 36 C 4.6132 -0.170613 -2.10409 0
M  V30 37 O 3.9612 0.847746 -2.12192 0
M  V30 38 C 4.1712 -2.72055 -2.18603 0
M  V30 39 C 5.5192 -3.20087 -2.7898 0
M  V30 40 O 6.5432 -2.72921 -2.28894 0
M  V30 41 O 5.4022 -4.02138 -3.70064 0
M  V30 42 H 2.4962 -0.583906 -0.585647 0
M  V30 43 H 5.0422 -1.60384 -0.554534 0
M  V30 44 H 3.8142 -3.57628 -1.58801 0
M  V30 45 H 3.4372 -2.60646 -3.00249 0
M  V30 46 N 4.4343 0.785586 -1.36625 0
M  V30 47 C 5.6593 1.57963 -1.34397 0
M  V30 48 C 6.0843 1.87964 0.071526 0
M  V30 49 O 5.4423 1.48182 1.0446 0
M  V30 50 C 5.4903 2.87511 -2.17646 0
M  V30 51 O 4.5943 3.81281 -1.57158 0
M  V30 52 H 3.9353 0.479014 -0.459828 0
M  V30 53 H 6.4653 0.973411 -1.79961 0
M  V30 54 H 6.4753 3.36745 -2.30362 0
M  V30 55 H 5.1503 2.65002 -3.20541 0
M  V30 56 H 3.7273 3.39885 -1.53403 0
M  V30 57 N 5.9124 1.20967 1.01018 0
M  V30 58 C 6.8624 0.93182 2.08089 0
M  V30 59 C 7.8464 -0.110898 1.60517 0
M  V30 60 O 9.0384 0.0973392 1.76732 0
M  V30 61 C 6.1674 0.492719 3.39746 0
M  V30 62 C 5.2534 1.56922 3.94 0
M  V30 63 N 5.6444 2.79312 4.21686 0
M  V30 64 C 3.9424 1.43688 4.2222 0
M  V30 65 C 4.6434 3.48797 4.65527 0
M  V30 66 N 3.6194 2.76224 4.68189 0
M  V30 67 H 7.4214 1.86175 2.27412 0
M  V30 68 H 4.9354 1.10463 1.19045 0
M  V30 69 H 6.9324 0.275044 4.15992 0
M  V30 70 H 5.5924 -0.430509 3.21833 0
M  V30 71 H 6.6034 3.15903 4.10397 0
M  V30 72 H 3.2804 0.578548 4.13472 0
M  V30 73 H 4.6704 4.53561 4.95714 0
M  V30 74 N 7.3905 -1.2043 1.01659 0
M  V30 75 C 8.3375 -2.23215 0.586822 0
M  V30 76 C 9.3075 -1.61382 -0.393085 0
M  V30 77 O 10.4925 -1.88544 -0.292525 0
M  V30 78 C 7.6325 -3.45032 -0.0687464 0
M  V30 79 C 6.7455 -4.21296 0.955724 0
M  V30 80 C 5.8805 -5.30507 0.271208 0
M  V30 81 C 4.9195 -5.98515 1.28244 0
M  V30 82 N 4.0565 -6.99316 0.62459 0
M  V30 83 H 8.8965 -2.59336 1.46796 0
M  V30 84 H 6.4335 -1.27431 0.734836 0
M  V30 85 H 8.3915 -4.1459 -0.465965 0
M  V30 86 H 7.0215 -3.09604 -0.913529 0
M  V30 87 H 6.0735 -3.50803 1.4711 0
M  V30 88 H 7.3855 -4.6803 1.72479 0
M  V30 89 H 6.5395 -6.06428 -0.18151 0
M  V30 90 H 5.2785 -4.8481 -0.530163 0
M  V30 91 H 4.2835 -5.21355 1.74554 0
M  V30 92 H 5.5085 -6.46298 2.08509 0
M  V30 93 H 3.4545 -6.55812 -0.156914 0
M  V30 94 H 3.3715 -7.44178 1.33172 0
M  V30 95 H 4.6395 -7.79255 0.195462 0
M  V30 96 N 8.8686 -0.792821 -1.36206 0
M  V30 97 C 10.0936 -0.377701 -2.03932 0
M  V30 98 C 10.5186 0.998947 -1.59382 0
M  V30 99 O 9.8766 1.64421 -0.763903 0
M  V30 100 C 9.9246 -0.453635 -3.57735 0
M  V30 101 O 9.0286 0.538151 -4.08874 0
M  V30 102 H 8.3696 -0.159855 -0.644471 0
M  V30 103 H 10.8996 -1.07488 -1.7409 0
M  V30 104 H 10.9096 -0.318464 -4.06755 0
M  V30 105 H 9.5846 -1.45784 -3.89512 0
M  V30 106 H 8.1616 0.364359 -3.71116 0
M  V30 107 N 10.3467 1.47872 -0.545128 0
M  V30 108 C 11.5747 2.06889 -0.021084 0
M  V30 109 C 11.9897 1.39955 1.2672 0
M  V30 110 O 11.3467 0.492036 1.75742 0
M  V30 111 C 11.3977 3.60996 0.190817 0
M  V30 112 O 11.1187 4.25419 -1.04644 0
M  V30 113 C 12.6197 4.36849 0.753521 0
M  V30 114 H 9.8397 0.669785 -0.0403635 0
M  V30 115 H 12.3837 1.90049 -0.755095 0
M  V30 116 H 10.5387 3.77391 0.87492 0
M  V30 117 H 10.9527 5.17785 -0.836611 0
M  V30 118 H 12.4267 5.45399 0.851139 0
M  V30 119 H 12.9037 4.02306 1.762 0
M  V30 120 H 13.5097 4.25169 0.105503 0
M  V30 121 N 11.8248 0.280983 1.55075 0
M  V30 122 C 13.0528 -0.337293 2.04132 0
M  V30 123 C 13.4678 -1.4903 1.15912 0
M  V30 124 O 12.8248 -1.81606 0.180459 0
M  V30 125 C 12.8758 -0.812706 3.52246 0
M  V30 126 O 12.5968 0.294387 4.3711 0
M  V30 127 C 14.0978 -1.4982 4.17216 0
M  V30 128 H 11.3178 -0.0761638 0.666663 0
M  V30 129 H 13.8618 0.414787 2.00249 0
M  V30 130 H 12.0168 -1.51486 3.56554 0
M  V30 131 H 12.4308 -0.0721325 5.2445 0
M  V30 132 H 13.9048 -1.7822 5.22438 0
M  V30 133 H 14.3818 -2.43168 3.65741 0
M  V30 134 H 14.9878 -0.839742 4.16927 0
M  V30 135 N 13.3029 -1.57598 0.00835791 0
M  V30 136 C 14.5279 -1.95617 -0.689103 0
M  V30 137 C 14.9529 -0.883753 -1.66046 0
M  V30 138 O 14.3109 0.157352 -1.80616 0
M  V30 139 C 14.3589 -3.32736 -1.38994 0
M  V30 140 O 13.4629 -3.27631 -2.50463 0
M  V30 141 H 12.8039 -0.638379 -0.182668 0
M  V30 142 H 15.3339 -2.045 0.064036 0
M  V30 143 H 15.3439 -3.68494 -1.75147 0
M  V30 144 H 14.0189 -4.1034 -0.677778 0
M  V30 145 H 12.5959 -3.03561 -2.16576 0
M  V30 146 N 14.781 0.264519 -1.55364 0
M  V30 147 C 15.691 1.34902 -1.91934 0
M  V30 148 C 16.707 1.53595 -0.817593 0
M  V30 149 O 17.883 1.67558 -1.11742 0
M  V30 150 C 14.948 2.68676 -2.19121 0
M  V30 151 C 14.009 2.58657 -3.4263 0
M  V30 152 C 13.242 3.86051 -3.68511 0
M  V30 153 O 13.465 4.87126 -2.96757 0
M  V30 154 O 12.399 3.85744 -4.62045 0
M  V30 155 H 16.225 1.06883 -2.8427 0
M  V30 156 H 13.81 0.463775 -1.42019 0
M  V30 157 H 15.692 3.47759 -2.37995 0
M  V30 158 H 14.367 2.96463 -1.29966 0
M  V30 159 H 13.274 1.7792 -3.29082 0
M  V30 160 H 14.607 2.35818 -4.32031 0
M  V30 161 N 16.2591 1.48442 0.529413 0
M  V30 162 C 17.4871 1.60151 1.30994 0
M  V30 163 C 17.9021 0.261985 1.86973 0
M  V30 164 O 17.2591 -0.748805 1.66431 0
M  V30 165 C 17.3101 2.64854 2.46038 0
M  V30 166 O 17.0311 3.93608 1.92365 0
M  V30 167 C 18.5321 2.87007 3.37849 0
M  V30 168 H 15.7521 0.539971 0.398338 0
M  V30 169 H 18.2961 1.94273 0.638597 0
M  V30 170 H 16.4511 2.33589 3.09055 0
M  V30 171 H 16.8651 4.51055 2.67675 0
M  V30 172 H 18.3391 3.64068 4.14919 0
M  V30 173 H 18.8161 1.95852 3.93114 0
M  V30 174 H 19.4221 3.19579 2.80623 0
M  V30 175 N 17.7372 -0.778329 1.37039 0
M  V30 176 C 18.7002 -1.87301 1.32102 0
M  V30 177 C 19.7002 -1.59198 0.226405 0
M  V30 178 O 20.8902 -1.67403 0.481861 0
M  V30 179 C 18.0222 -3.24309 1.05055 0
M  V30 180 H 19.2152 -1.93093 2.29467 0
M  V30 181 H 16.7682 -0.977358 1.21973 0
M  V30 182 H 17.5032 -3.24196 0.0819373 0
M  V30 183 H 17.2882 -3.46098 1.84279 0
M  V30 184 H 18.7782 -4.04382 1.04234 0
M  V30 185 N 19.2153 -1.21501 -1.00376 0
M  V30 186 C 20.6263 -1.03146 -1.55621 0
M  V30 187 C 20.9773 0.408375 -1.91903 0
M  V30 188 O 20.1023 1.29177 -1.73616 0
M  V30 189 C 20.6973 -1.86612 -2.82775 0
M  V30 190 C 19.2563 -1.72586 -3.34501 0
M  V30 191 C 18.4033 -1.83747 -2.07683 0
M  V30 192 H 21.3543 -1.35505 -0.826081 0
M  V30 193 H 21.3753 -1.3771 -3.54706 0
M  V30 194 H 20.8873 -2.91399 -2.56336 0
M  V30 195 H 18.9883 -0.704877 -3.65872 0
M  V30 196 H 19.1013 -2.54623 -4.05837 0
M  V30 197 H 17.4653 -1.27069 -2.20739 0
M  V30 198 H 18.2483 -2.90044 -1.83655 0
M  V30 199 N 20.6934 1.19889 -1.02296 0
M  V30 200 C 21.6254 2.22334 -0.556787 0
M  V30 201 C 22.6384 1.58674 0.364199 0
M  V30 202 O 23.8274 1.77768 0.161533 0
M  V30 203 C 20.9274 3.38257 0.208694 0
M  V30 204 C 20.1004 4.31504 -0.71577 0
M  V30 205 C 19.1594 5.262 0.00325597 0
M  V30 206 O 18.1854 5.65798 -0.621357 0
M  V30 207 N 19.3874 5.66303 1.27599 0
M  V30 208 H 22.1524 2.62957 -1.43784 0
M  V30 209 H 19.7134 1.34495 -0.901261 0
M  V30 210 H 21.7054 3.98616 0.699111 0
M  V30 211 H 20.2754 2.96472 0.991102 0
M  V30 212 H 19.4954 3.69016 -1.38638 0
M  V30 213 H 20.7834 4.9072 -1.34428 0
M  V30 214 H 20.1814 5.36155 1.80429 0
M  V30 215 H 18.7384 6.28942 1.71102 0
M  V30 216 N 22.1715 0.800033 1.35784 0
M  V30 217 C 23.5825 0.439142 1.81462 0
M  V30 218 C 23.9335 -1.03813 1.66485 0
M  V30 219 O 23.0585 -1.80626 1.19177 0
M  V30 220 C 23.6535 0.790314 3.29453 0
M  V30 221 C 22.2125 0.482111 3.733 0
M  V30 222 C 21.3595 1.01938 2.57883 0
M  V30 223 H 24.3105 0.992254 1.23855 0
M  V30 224 H 24.3315 0.0853677 3.80404 0
M  V30 225 H 23.8435 1.86554 3.40322 0
M  V30 226 H 21.9445 -0.584652 3.67984 0
M  V30 227 H 22.0575 1.01015 4.6833 0
M  V30 228 H 20.4215 0.442043 2.50835 0
M  V30 229 H 21.2045 2.10059 2.71533 0
M  V30 230 N 23.6496 -1.47581 0.552962 0
M  V30 231 C 24.8976 -2.02082 0.0272703 0
M  V30 232 C 25.2186 -1.4301 -1.32563 0
M  V30 233 O 24.4886 -0.603745 -1.86365 0
M  V30 234 H 23.0686 -0.746966 0.00709182 0
M  V30 235 H 25.7306 -1.81033 0.722008 0
M  V30 236 H 24.8266 -3.12034 -0.0639951 0
M  V30 237 N 25.1277 -0.289203 -1.54924 0
M  V30 238 C 26.3527 0.329299 -2.04769 0
M  V30 239 C 26.7777 1.4763 -1.16564 0
M  V30 240 O 26.1357 1.80527 -0.167186 0
M  V30 241 C 26.1837 0.774438 -3.52186 0
M  V30 242 O 25.2877 1.88038 -3.67036 0
M  V30 243 H 24.6287 0.0659259 -0.660719 0
M  V30 244 H 27.1587 -0.42761 -2.00082 0
M  V30 245 H 27.1687 1.06642 -3.93816 0
M  V30 246 H 25.8437 -0.0646707 -4.1585 0
M  V30 247 H 24.4207 1.58985 -3.3731 0
M  V30 248 N 26.6058 1.57591 -0.0167156 0
M  V30 249 C 27.5688 2.08393 0.954204 0
M  V30 250 C 28.5688 0.996531 1.26198 0
M  V30 251 O 29.7588 1.25858 1.20438 0
M  V30 252 C 26.8908 2.5394 2.27436 0
M  V30 253 H 28.0838 2.95455 0.514451 0
M  V30 254 H 25.6368 1.54582 0.231089 0
M  V30 255 H 26.3718 1.70171 2.76066 0
M  V30 256 H 26.1568 3.33371 2.06412 0
M  V30 257 H 27.6468 2.93512 2.97053 0
M  V30 258 N 28.0839 -0.256276 1.55502 0
M  V30 259 C 29.3299 -0.987079 1.77157 0
M  V30 260 C 29.6629 -1.85327 0.580315 0
M  V30 261 O 28.9379 -1.89874 -0.421686 0
M  V30 262 C 29.2209 -1.85553 3.08613 0
M  V30 263 C 29.0739 -1.01816 4.38125 0
M  V30 264 C 30.3929 -2.8397 3.36228 0
M  V30 265 H 27.5119 -0.357428 0.644526 0
M  V30 266 H 30.1539 -0.258239 1.88237 0
M  V30 267 H 28.3039 -2.47695 2.99298 0
M  V30 268 H 29.9759 -0.416159 4.59419 0
M  V30 269 H 28.2189 -0.322178 4.32602 0
M  V30 270 H 28.8899 -1.65939 5.26468 0
M  V30 271 H 31.3659 -2.31964 3.45445 0
M  V30 272 H 30.2419 -3.41864 4.29442 0
M  V30 273 H 30.5029 -3.59955 2.56681 0
M  V30 274 N 29.562 -1.4872 -0.521534 0
M  V30 275 C 30.494 -1.59968 -1.64143 0
M  V30 276 C 31.507 -0.483463 -1.55456 0
M  V30 277 O 32.696 -0.75467 -1.61762 0
M  V30 278 C 29.796 -1.52127 -3.02838 0
M  V30 279 C 28.969 -2.78932 -3.36921 0
M  V30 280 C 28.028 -2.64428 -4.54933 0
M  V30 281 O 27.054 -3.38331 -4.57735 0
M  V30 282 N 28.256 -1.74606 -5.53618 0
M  V30 283 H 31.021 -2.56548 -1.54929 0
M  V30 284 H 28.582 -1.45551 -0.708988 0
M  V30 285 H 30.574 -1.40106 -3.79674 0
M  V30 286 H 29.144 -0.634868 -3.06085 0
M  V30 287 H 28.364 -3.05455 -2.4918 0
M  V30 288 H 29.652 -3.63041 -3.56481 0
M  V30 289 H 29.05 -1.13782 -5.54139 0
M  V30 290 H 27.607 -1.6852 -6.29638 0
M  V30 291 N 31.0401 0.771051 -1.3745 0
M  V30 292 C 32.2881 1.52661 -1.32435 0
M  V30 293 C 32.6091 1.9479 0.0905024 0
M  V30 294 O 31.8791 1.66348 1.03466 0
M  V30 295 H 30.4591 0.566218 -0.487244 0
M  V30 296 H 33.1211 0.917636 -1.71946 0
M  V30 297 H 32.2171 2.42568 -1.96385 0
M  V30 298 N 32.5182 1.22032 0.997298 0
M  V30 299 C 33.4812 0.987909 2.06816 0
M  V30 300 C 34.4812 -0.0440084 1.6074 0
M  V30 301 O 35.6712 0.194053 1.73116 0
M  V30 302 C 32.8032 0.49132 3.37341 0
M  V30 303 H 33.9962 1.93803 2.28868 0
M  V30 304 H 31.5492 1.03838 1.16822 0
M  V30 305 H 32.2842 -0.463364 3.20973 0
M  V30 306 H 32.0692 1.23575 3.72118 0
M  V30 307 H 33.5592 0.348824 4.16141 0
M  V30 308 N 33.9963 -1.19345 1.0293 0
M  V30 309 C 34.9463 -2.20472 0.58104 0
M  V30 310 C 35.9303 -1.56578 -0.370442 0
M  V30 311 O 37.1223 -1.75963 -0.191344 0
M  V30 312 C 34.2513 -3.43236 -0.066306 0
M  V30 313 C 33.3373 -4.14274 0.907642 0
M  V30 314 N 33.7283 -4.61492 2.07023 0
M  V30 315 C 32.0263 -4.39966 0.731177 0
M  V30 316 C 32.7273 -5.1605 2.68454 0
M  V30 317 N 31.7033 -5.06875 1.96414 0
M  V30 318 H 35.5053 -2.54659 1.46717 0
M  V30 319 H 33.0193 -1.35423 0.896345 0
M  V30 320 H 35.0163 -4.14927 -0.405068 0
M  V30 321 H 33.6763 -3.10549 -0.948118 0
M  V30 322 H 34.6873 -4.56304 2.44963 0
M  V30 323 H 31.3643 -4.17377 -0.101507 0
M  V30 324 H 32.7543 -5.6287 3.66915 0
M  V30 325 N 35.4744 -0.807222 -1.35358 0
M  V30 326 C 36.7234 -0.384376 -1.98004 0
M  V30 327 C 37.0364 1.0543 -1.64754 0
M  V30 328 O 38.2424 1.58029 -2.20769 0
M  V30 329 C 36.6984 -0.636326 -3.5423 0
M  V30 330 C 36.3064 -2.08759 -3.96388 0
M  V30 331 C 38.0504 -0.278869 -4.23583 0
M  V30 332 C 35.9574 -2.28525 -5.45463 0
M  V30 333 H 34.8874 -0.139986 -0.740891 0
M  V30 334 H 37.5384 -0.991369 -1.54415 0
M  V30 335 H 35.9204 0.0406256 -3.95979 0
M  V30 336 H 37.0944 -2.8024 -3.6579 0
M  V30 337 H 35.4094 -2.40497 -3.39926 0
M  V30 338 H 38.0064 -0.404599 -5.33167 0
M  V30 339 H 38.3494 0.775012 -4.09022 0
M  V30 340 H 38.8824 -0.909764 -3.87257 0
M  V30 341 H 35.6214 -3.32361 -5.64992 0
M  V30 342 H 35.1414 -1.61569 -5.77629 0
M  V30 343 H 36.8204 -2.10109 -6.11934 0
M  V30 344 N 36.9525 1.47285 -0.560781 0
M  V30 345 C 38.1775 2.07359 -0.0410566 0
M  V30 346 C 38.6025 1.41017 1.24483 0
M  V30 347 O 37.9605 0.486368 1.74654 0
M  V30 348 C 38.0085 3.6035 0.134123 0
M  V30 349 O 37.1125 3.94681 1.19587 0
M  V30 350 H 36.4535 0.661887 -0.0529291 0
M  V30 351 H 38.9835 1.89252 -0.777482 0
M  V30 352 H 38.9935 4.0652 0.347207 0
M  V30 353 H 37.6685 4.08034 -0.805047 0
M  V30 354 H 36.2455 3.60251 0.962987 0
M  V30 355 N 38.4306 0.297415 1.54768 0
M  V30 356 C 39.3806 -0.595275 2.20092 0
M  V30 357 C 40.3646 -1.10163 1.17273 0
M  V30 358 O 41.5566 -1.043 1.43006 0
M  V30 359 C 38.6856 -1.7684 2.94249 0
M  V30 360 C 37.7716 -1.27818 4.0438 0
M  V30 361 N 38.1626 -0.505695 5.03266 0
M  V30 362 C 36.4606 -1.55923 4.17857 0
M  V30 363 C 37.1616 -0.245094 5.81183 0
M  V30 364 N 36.1376 -0.823881 5.3732 0
M  V30 365 H 39.9396 0.00250837 2.939 0
M  V30 366 H 37.4536 0.102007 1.62079 0
M  V30 367 H 39.4506 -2.41944 3.39513 0
M  V30 368 H 38.1106 -2.36992 2.21957 0
M  V30 369 H 39.1216 -0.150928 5.1768 0
M  V30 370 H 35.7986 -2.16849 3.56767 0
M  V30 371 H 37.1886 0.375084 6.70852 0
M  V30 372 N 39.9087 -1.5758 0.0250728 0
M  V30 373 C 41.1577 -1.90811 -0.653767 0
M  V30 374 C 41.4707 -0.90273 -1.73523 0
M  V30 375 O 42.6767 -1.12614 -2.47043 0
M  V30 376 C 41.1327 -3.38804 -1.21409 0
M  V30 377 C 40.7407 -4.47692 -0.166126 0
M  V30 378 C 42.4847 -3.81108 -1.86967 0
M  V30 379 C 40.3917 -5.86779 -0.737856 0
M  V30 380 H 39.3217 -0.712063 -0.247956 0
M  V30 381 H 41.9727 -1.83281 0.0897137 0
M  V30 382 H 40.3547 -3.41252 -2.00905 0
M  V30 383 H 41.5287 -4.56797 0.606079 0
M  V30 384 H 39.8437 -4.14565 0.390466 0
M  V30 385 H 42.4407 -4.82375 -2.30692 0
M  V30 386 H 42.7837 -3.15953 -2.71071 0
M  V30 387 H 43.3167 -3.81065 -1.14167 0
M  V30 388 H 40.0557 -6.55468 0.0649577 0
M  V30 389 H 39.5757 -5.81288 -1.47864 0
M  V30 390 H 41.2547 -6.35223 -1.22884 0
M  V30 391 N 41.3868 0.248026 -1.55636 0
M  V30 392 C 42.3498 1.29044 -1.89421 0
M  V30 393 C 43.3498 1.41134 -0.770581 0
M  V30 394 O 44.5398 1.39854 -1.03858 0
M  V30 395 C 41.6718 2.66831 -2.12165 0
M  V30 396 H 42.8648 1.00305 -2.82629 0
M  V30 397 H 40.4178 0.487265 -1.48511 0
M  V30 398 H 41.1528 3.00711 -1.21422 0
M  V30 399 H 40.9378 2.59438 -2.93997 0
M  V30 400 H 42.4278 3.42103 -2.3949 0
M  V30 401 N 42.8649 1.48995 0.513639 0
M  V30 402 C 43.7969 1.60836 1.63293 0
M  V30 403 C 44.8099 0.491701 1.55197 0
M  V30 404 O 45.9989 0.763238 1.6136 0
M  V30 405 C 43.0989 1.53731 3.02027 0
M  V30 406 C 42.2719 2.80715 3.35437 0
M  V30 407 C 41.3309 2.66837 4.53525 0
M  V30 408 O 40.3569 3.40753 4.55934 0
M  V30 409 N 41.5589 1.77539 5.52684 0
M  V30 410 H 44.3239 2.57366 1.53566 0
M  V30 411 H 41.8849 1.45925 0.701259 0
M  V30 412 H 43.8769 1.42118 3.78926 0
M  V30 413 H 42.4469 0.651092 3.05744 0
M  V30 414 H 41.6669 3.06772 2.47557 0
M  V30 415 H 42.9549 3.64927 3.54551 0
M  V30 416 H 42.3529 1.16719 5.53528 0
M  V30 417 H 40.9099 1.71856 6.28736 0
M  V30 418 N 44.343 -0.763751 1.37857 0
M  V30 419 C 45.275 -1.88664 1.30148 0
M  V30 420 C 46.288 -1.61365 0.215685 0
M  V30 421 O 47.477 -1.72134 0.472459 0
M  V30 422 C 44.577 -3.24075 0.991396 0
M  V30 423 C 43.75 -3.78958 2.18426 0
M  V30 424 C 42.809 -4.92862 1.8432 0
M  V30 425 O 41.835 -5.08027 2.56704 0
M  V30 426 N 43.037 -5.75071 0.792081 0
M  V30 427 H 45.802 -1.95791 2.26905 0
M  V30 428 H 43.363 -0.943226 1.31586 0
M  V30 429 H 45.355 -3.97804 0.743935 0
M  V30 430 H 43.925 -3.12399 0.112122 0
M  V30 431 H 43.145 -2.96913 2.59299 0
M  V30 432 H 44.433 -4.12357 2.98058 0
M  V30 433 H 43.831 -5.65375 0.191595 0
M  V30 434 H 42.388 -6.48991 0.60449 0
M  V30 435 N 45.8211 -1.22559 -0.990812 0
M  V30 436 C 47.0671 -1.05297 -1.73322 0
M  V30 437 C 47.4001 0.410655 -1.89808 0
M  V30 438 O 46.6751 1.30439 -1.44277 0
M  V30 439 C 46.9581 -1.76713 -3.13759 0
M  V30 440 C 46.8111 -3.30684 -3.04907 0
M  V30 441 C 48.1301 -1.52121 -4.12974 0
M  V30 442 H 45.2491 -0.38392 -0.629106 0
M  V30 443 H 47.8911 -1.50926 -1.15418 0
M  V30 444 H 46.0411 -1.37924 -3.63193 0
M  V30 445 H 47.7131 -3.7893 -2.63077 0
M  V30 446 H 45.9561 -3.60253 -2.41661 0
M  V30 447 H 46.6271 -3.75833 -4.04294 0
M  V30 448 H 49.1031 -1.85819 -3.72304 0
M  V30 449 H 47.9791 -2.04582 -5.0935 0
M  V30 450 H 48.2401 -0.454257 -4.3976 0
M  V30 451 N 47.2992 1.18797 -1.03562 0
M  V30 452 C 48.5242 1.9314 -0.755764 0
M  V30 453 C 48.9492 1.7537 0.68022 0
M  V30 454 O 48.3072 1.06046 1.47051 0
M  V30 455 C 48.3552 3.42747 -1.12058 0
M  V30 456 O 47.4592 4.11683 -0.243124 0
M  V30 457 H 46.8002 0.602724 -0.278604 0
M  V30 458 H 49.3302 1.50678 -1.3841 0
M  V30 459 H 49.3402 3.93437 -1.08035 0
M  V30 460 H 48.0152 3.55002 -2.16672 0
M  V30 461 H 46.5922 3.71323 -0.342539 0
M  V30 462 N 48.7773 0.814389 1.34928 0
M  V30 463 C 50.0023 0.410097 2.03305 0
M  V30 464 C 50.4273 -0.973464 1.60951 0
M  V30 465 O 49.7853 -1.63185 0.789964 0
M  V30 466 C 49.8333 0.51049 3.56968 0
M  V30 467 O 48.9373 -0.473035 4.09678 0
M  V30 468 H 48.2783 0.170088 0.641846 0
M  V30 469 H 50.8083 1.10244 1.72358 0
M  V30 470 H 50.8183 0.383135 4.06197 0
M  V30 471 H 49.4933 1.51963 3.87144 0
M  V30 472 H 48.0703 -0.305272 3.71648 0
M  V30 473 N 50.2554 -1.46986 0.568584 0
M  V30 474 C 51.1854 -2.32946 -0.160753 0
M  V30 475 C 52.1664 -1.44487 -0.897631 0
M  V30 476 O 53.3514 -1.73327 -0.875867 0
M  V30 477 C 50.4814 -3.26494 -1.18403 0
M  V30 478 C 49.4354 -4.24282 -0.562895 0
M  V30 479 C 48.7614 -5.07236 -1.69163 0
M  V30 480 C 50.0614 -5.19989 0.490761 0
M  V30 481 H 51.7554 -2.94175 0.556916 0
M  V30 482 H 49.3014 -1.4146 0.26927 0
M  V30 483 H 51.2544 -3.85477 -1.70251 0
M  V30 484 H 49.9784 -2.63343 -1.93179 0
M  V30 485 H 48.6374 -3.66541 -0.0656164 0
M  V30 486 H 48.2854 -4.4048 -2.42871 0
M  V30 487 H 47.9854 -5.7345 -1.28174 0
M  V30 488 H 49.5094 -5.6908 -2.21314 0
M  V30 489 H 50.9234 -5.73271 0.0579047 0
M  V30 490 H 49.3204 -5.94469 0.820165 0
M  V30 491 H 50.3904 -4.64777 1.3824 0
M  V30 492 N 51.7335 -0.305618 -1.54608 0
M  V30 493 C 52.9585 0.307562 -2.05107 0
M  V30 494 C 53.3835 1.46385 -1.18123 0
M  V30 495 O 52.7415 1.8034 -0.186324 0
M  V30 496 C 52.7895 0.73704 -3.52987 0
M  V30 497 O 51.8935 1.84134 -3.6901 0
M  V30 498 H 51.2345 0.0589143 -0.661381 0
M  V30 499 H 53.7645 -0.448807 -1.99617 0
M  V30 500 H 53.7745 1.02459 -3.94925 0
M  V30 501 H 52.4495 -0.108773 -4.15758 0
M  V30 502 H 51.0265 1.55398 -3.38978 0
M  V30 503 N 53.2116 1.57565 -0.0334293 0
M  V30 504 C 54.1216 2.13943 0.962572 0
M  V30 505 C 55.1376 1.09276 1.35406 0
M  V30 506 O 56.3136 1.41355 1.4346 0
M  V30 507 C 53.3786 2.65887 2.22497 0
M  V30 508 C 52.4396 3.85286 1.8935 0
M  V30 509 C 51.6726 4.34743 3.09571 0
M  V30 510 O 51.8956 3.83352 4.22371 0
M  V30 511 O 50.8296 5.26538 2.91618 0
M  V30 512 H 54.6556 2.99333 0.513169 0
M  V30 513 H 52.2406 1.4822 0.18743 0
M  V30 514 H 54.1226 2.99346 2.96598 0
M  V30 515 H 52.7976 1.83578 2.6661 0
M  V30 516 H 51.7046 3.56746 1.1262 0
M  V30 517 H 53.0376 4.68771 1.5005 0
M  V30 518 N 54.6897 -0.239769 1.55765 0
M  V30 519 C 55.9147 -0.988373 1.82335 0
M  V30 520 C 56.3397 -1.77886 0.611421 0
M  V30 521 O 55.6977 -1.75889 -0.439639 0
M  V30 522 C 55.7457 -1.89627 3.06715 0
M  V30 523 O 54.8497 -2.98904 2.84131 0
M  V30 524 H 54.1907 -0.280858 0.601677 0
M  V30 525 H 56.7207 -0.258597 2.02959 0
M  V30 526 H 56.7307 -2.30957 3.36338 0
M  V30 527 H 55.4057 -1.31511 3.9456 0
M  V30 528 H 53.9827 -2.61651 2.65694 0
M  V30 529 N 56.1678 -1.49265 -0.50573 0
M  V30 530 C 57.0778 -1.68312 -1.63427 0
M  V30 531 C 58.0938 -0.565682 -1.64548 0
M  V30 532 O 59.2698 -0.839801 -1.83055 0
M  V30 533 C 56.3348 -1.74107 -2.99813 0
M  V30 534 C 55.3958 -2.97653 -3.09356 0
M  V30 535 C 54.6288 -3.03163 -4.39236 0
M  V30 536 O 54.8518 -2.16396 -5.27758 0
M  V30 537 O 53.7858 -3.9558 -4.53652 0
M  V30 538 H 57.6118 -2.63907 -1.50289 0
M  V30 539 H 55.1968 -1.32951 -0.681502 0
M  V30 540 H 57.0788 -1.803 -3.80881 0
M  V30 541 H 55.7538 -0.816901 -3.13223 0
M  V30 542 H 54.6608 -2.96981 -2.27493 0
M  V30 543 H 55.9938 -3.89535 -3.00871 0
M  V30 544 N 57.6459 0.756429 -1.3826 0
M  V30 545 C 58.5559 1.9009 -1.37488 0
M  V30 546 C 59.5719 1.71855 -0.272366 0
M  V30 547 O 60.7479 1.94827 -0.510318 0
M  V30 548 C 57.8129 3.25421 -1.19592 0
M  V30 549 C 56.8739 3.56202 -2.39622 0
M  V30 550 C 56.1069 4.85075 -2.2257 0
M  V30 551 O 56.3299 5.57246 -1.21793 0
M  V30 552 O 55.2639 5.15269 -3.11098 0
M  V30 553 H 59.0899 1.93695 -2.33914 0
M  V30 554 H 56.6749 0.901313 -1.1915 0
M  V30 555 H 58.5569 4.06337 -1.11661 0
M  V30 556 H 57.2319 3.22634 -0.262486 0
M  V30 557 H 56.1389 2.75458 -2.53128 0
M  V30 558 H 57.4719 3.63747 -3.31586 0
M  V30 559 N 59.124 1.23083 0.984299 0
M  V30 560 C 60.349 1.088 1.76571 0
M  V30 561 C 60.774 -0.356657 1.84688 0
M  V30 562 O 60.132 -1.25788 1.30565 0
M  V30 563 C 60.18 1.71371 3.17277 0
M  V30 564 O 59.284 0.973213 4.00752 0
M  V30 565 H 58.625 0.381599 0.543395 0
M  V30 566 H 61.155 1.63057 1.23587 0
M  V30 567 H 61.165 1.76449 3.67872 0
M  V30 568 H 59.84 2.76493 3.10684 0
M  V30 569 H 58.417 0.999078 3.59267 0
M  V30 570 N 60.6021 -1.18246 1.0419 0
M  V30 571 C 61.5341 -2.2142 0.592088 0
M  V30 572 C 62.5471 -1.59233 -0.338909 0
M  V30 573 O 63.7361 -1.78002 -0.133231 0
M  V30 574 C 60.8361 -3.38546 -0.154854 0
M  V30 575 C 60.0091 -4.3031 0.784328 0
M  V30 576 C 59.0681 -5.26138 0.0804583 0
M  V30 577 O 58.0941 -5.64738 0.711292 0
M  V30 578 N 59.2961 -5.68261 -1.18574 0
M  V30 579 H 62.0611 -2.60636 1.47949 0
M  V30 580 H 59.6221 -1.33044 0.922544 0
M  V30 581 H 61.6141 -3.99678 -0.635606 0
M  V30 582 H 60.1841 -2.98012 -0.943811 0
M  V30 583 H 59.4041 -3.66764 1.44491 0
M  V30 584 H 60.6921 -4.8852 1.42218 0
M  V30 585 H 60.0901 -5.38957 -1.71876 0
M  V30 586 H 58.6471 -6.31584 -1.61074 0
M  V30 587 N 62.0802 -0.821533 -1.34494 0
M  V30 588 C 63.3572 -0.33159 -1.92769 0
M  V30 589 C 63.7372 1.18088 -1.74981 0
M  V30 590 O 63.0852 1.98733 -1.12772 0
M  V30 591 C 63.2952 -0.759398 -3.40638 0
M  V30 592 C 64.6432 -0.757433 -4.1779 0
M  V30 593 O 65.6672 -0.70189 -3.49216 0
M  V30 594 O 64.5262 -0.829361 -5.4017 0
M  V30 595 H 61.6202 -0.0902502 -0.822061 0
M  V30 596 H 64.1662 -0.906231 -1.43477 0
M  V30 597 H 62.9382 -1.8012 -3.47379 0
M  V30 598 H 62.5612 -0.160378 -3.97276 0
M  V30 599 N 63.5583 1.46682 -0.576371 0
M  V30 600 C 64.7833 2.07304 -0.0630475 0
M  V30 601 C 65.2083 1.42329 1.2298 0
M  V30 602 O 64.5663 0.504865 1.74129 0
M  V30 603 C 64.6143 3.60472 0.095895 0
M  V30 604 O 63.7183 3.95927 1.15394 0
M  V30 605 H 63.0593 0.661288 -0.0599463 0
M  V30 606 H 65.5893 1.88417 -0.797511 0
M  V30 607 H 65.5993 4.06865 0.304071 0
M  V30 608 H 64.2743 4.07157 -0.84828 0
M  V30 609 H 62.8513 3.61252 0.924724 0
M  V30 610 N 65.0364 0.313813 1.54444 0
M  V30 611 C 66.2614 -0.296681 2.05267 0
M  V30 612 C 66.6864 -1.45757 1.18897 0
M  V30 613 O 66.0444 -1.80239 0.195886 0
M  V30 614 C 66.0924 -0.71831 3.53373 0
M  V30 615 O 65.1964 -1.82175 3.69981 0
M  V30 616 H 64.5374 -0.0554061 0.661684 0
M  V30 617 H 67.0674 0.459387 1.99376 0
M  V30 618 H 67.0774 -1.00364 3.95463 0
M  V30 619 H 65.7524 0.130821 4.15694 0
M  V30 620 H 64.3294 -1.53598 3.39797 0
M  V30 621 N 66.5145 -1.57545 0.0417849 0
M  V30 622 C 67.7915 -1.83642 -0.673433 0
M  V30 623 C 68.1715 -0.928298 -1.89594 0
M  V30 624 O 67.5195 0.0129955 -2.28496 0
M  V30 625 C 67.7295 -3.33155 -1.03964 0
M  V30 626 C 69.0775 -3.99941 -1.42592 0
M  V30 627 O 70.1015 -3.37725 -1.13226 0
M  V30 628 O 68.9605 -5.09619 -1.9736 0
M  V30 629 H 66.0545 -0.757638 -0.331533 0
M  V30 630 H 68.6005 -1.69554 0.070433 0
M  V30 631 H 67.3725 -3.9093 -0.170098 0
M  V30 632 H 66.9955 -3.52396 -1.84126 0
M  V30 633 N 67.9926 0.231505 -1.5589 0
M  V30 634 C 69.2176 0.978689 -1.82856 0
M  V30 635 C 69.6426 1.77559 -0.620846 0
M  V30 636 O 69.0006 1.76119 0.430305 0
M  V30 637 C 69.0486 1.87997 -3.07716 0
M  V30 638 O 68.1526 2.97393 -2.85712 0
M  V30 639 H 67.4936 0.277663 -0.603158 0
M  V30 640 H 70.0236 0.24783 -2.03093 0
M  V30 641 H 70.0336 2.2917 -3.37558 0
M  V30 642 H 68.7086 1.29417 -3.95252 0
M  V30 643 H 67.2856 2.60238 -2.67078 0
M  V30 644 N 69.4707 1.49531 0.497807 0
M  V30 645 C 70.7197 1.58426 1.24837 0
M  V30 646 C 71.0327 0.277643 1.93619 0
M  V30 647 O 72.2387 0.24517 2.70391 0
M  V30 648 C 70.6947 2.79538 2.26686 0
M  V30 649 C 70.3027 4.16971 1.63828 0
M  V30 650 C 72.0467 2.97764 3.0255 0
M  V30 651 C 69.9537 5.29301 2.63807 0
M  V30 652 H 68.8837 0.58989 0.469623 0
M  V30 653 H 71.5347 1.75923 0.521857 0
M  V30 654 H 69.9167 2.55542 3.02514 0
M  V30 655 H 71.0907 4.51116 0.939711 0
M  V30 656 H 69.4057 4.04129 1.00342 0
M  V30 657 H 72.0027 3.78856 3.77323 0
M  V30 658 H 72.3457 2.08448 3.60354 0
M  V30 659 H 72.8787 3.21815 2.33838 0
M  V30 660 H 69.6177 6.20687 2.10779 0
M  V30 661 H 69.1377 4.99606 3.31894 0
M  V30 662 H 70.8167 5.58768 3.2617 0
M  V30 663 N 70.9488 -0.749086 1.3866 0
M  V30 664 C 72.1968 -1.50535 1.34847 0
M  V30 665 C 72.5178 -1.94909 -0.0595016 0
M  V30 666 O 71.7878 -1.67973 -1.00806 0
M  V30 667 H 70.3678 -0.558395 0.49619 0
M  V30 668 H 73.0298 -0.890165 1.73384 0
M  V30 669 H 72.1258 -2.39413 2.00219 0
M  V30 670 N 72.4269 -1.23603 -0.977757 0
M  V30 671 C 73.6519 -1.09735 -1.75991 0
M  V30 672 C 74.0769 0.346858 -1.84874 0
M  V30 673 O 73.4349 1.25093 -1.3123 0
M  V30 674 C 73.4829 -1.73051 -3.16363 0
M  V30 675 O 72.5869 -0.994452 -4.0023 0
M  V30 676 H 71.9279 -0.384476 -0.541364 0
M  V30 677 H 74.4579 -1.6371 -1.2272 0
M  V30 678 H 74.4679 -1.78398 -3.66931 0
M  V30 679 H 73.1429 -2.78137 -3.09213 0
M  V30 680 H 71.7199 -1.01812 -3.58732 0
M  V30 681 N 73.905 1.17692 -1.04816 0
M  V30 682 C 75.13 1.92327 -0.776207 0
M  V30 683 C 75.555 1.76082 0.661581 0
M  V30 684 O 74.913 1.076 1.45917 0
M  V30 685 C 74.961 3.41539 -1.15687 0
M  V30 686 O 74.065 4.11402 -0.286775 0
M  V30 687 H 73.406 0.599735 -0.284981 0
M  V30 688 H 75.936 1.49201 -1.4 0
M  V30 689 H 75.946 3.92269 -1.12202 0
M  V30 690 H 74.621 3.52684 -2.20425 0
M  V30 691 H 73.198 3.70939 -0.381903 0
M  V30 692 N 75.3831 0.828654 1.34056 0
M  V30 693 C 76.3151 0.212052 2.28217 0
M  V30 694 C 77.3281 -0.601362 1.51286 0
M  V30 695 O 78.5171 -0.430104 1.73241 0
M  V30 696 C 75.6171 -0.72088 3.31144 0
M  V30 697 C 74.7901 0.0509587 4.3737 0
M  V30 698 C 73.8491 -0.803766 5.20025 0
M  V30 699 O 72.8751 -0.246667 5.68665 0
M  V30 700 N 74.0771 -2.1227 5.40298 0
M  V30 701 H 76.8421 1.02105 2.81771 0
M  V30 702 H 74.4031 0.686153 1.46641 0
M  V30 703 H 76.3951 -1.29742 3.8334 0
M  V30 704 H 74.9651 -1.43061 2.77943 0
M  V30 705 H 74.1851 0.808831 3.85813 0
M  V30 706 H 75.4731 0.582065 5.0546 0
M  V30 707 H 74.8711 -2.59898 5.02464 0
M  V30 708 H 73.4281 -2.64796 5.95589 0
M  V30 709 N 76.8612 -1.46375 0.584142 0
M  V30 710 C 77.8082 -2.30323 -0.148286 0
M  V30 711 C 78.7782 -1.40703 -0.882713 0
M  V30 712 O 79.9632 -1.69651 -0.873099 0
M  V30 713 C 77.1032 -3.25196 -1.15507 0
M  V30 714 C 76.2162 -4.29915 -0.423943 0
M  V30 715 C 75.3512 -5.11914 -1.41838 0
M  V30 716 C 74.3902 -6.08381 -0.673736 0
M  V30 717 N 73.5272 -6.83242 -1.6163 0
M  V30 718 H 78.3672 -2.92427 0.573644 0
M  V30 719 H 75.9042 -1.44118 0.294703 0
M  V30 720 H 77.8622 -3.78646 -1.75166 0
M  V30 721 H 76.4922 -2.64898 -1.8447 0
M  V30 722 H 75.5442 -3.7931 0.287714 0
M  V30 723 H 76.8562 -4.98549 0.158128 0
M  V30 724 H 76.0102 -5.69648 -2.08773 0
M  V30 725 H 74.7492 -4.43243 -2.03438 0
M  V30 726 H 73.7542 -5.49799 0.00938483 0
M  V30 727 H 74.9792 -6.79071 -0.0631082 0
M  V30 728 H 72.9252 -6.1728 -2.22038 0
M  V30 729 H 72.8422 -7.48144 -1.08707 0
M  V30 730 H 74.1102 -7.45534 -2.27596 0
M  V30 731 N 78.3393 -0.321999 -1.54275 0
M  V30 732 C 79.3023 0.531975 -2.22941 0
M  V30 733 C 80.3023 1.04478 -1.22234 0
M  V30 734 O 81.4923 0.937452 -1.46825 0
M  V30 735 C 78.6243 1.73874 -2.93224 0
M  V30 736 H 79.8173 -0.0682612 -2.99822 0
M  V30 737 H 77.3703 -0.0730644 -1.56129 0
M  V30 738 H 78.1053 2.37825 -2.20476 0
M  V30 739 H 77.8903 1.37847 -3.6707 0
M  V30 740 H 79.3803 2.34496 -3.45545 0
M  V30 741 N 79.8174 1.5752 -0.0501392 0
M  V30 742 C 80.7674 2.07981 0.934231 0
M  V30 743 C 81.7514 0.984745 1.27246 0
M  V30 744 O 82.9434 1.24809 1.25506 0
M  V30 745 C 80.0724 2.62751 2.20945 0
M  V30 746 C 79.1584 3.79225 1.89865 0
M  V30 747 N 79.5494 4.89036 1.29142 0
M  V30 748 C 77.8474 3.88111 2.19741 0
M  V30 749 C 78.5484 5.70084 1.15669 0
M  V30 750 N 77.5244 5.17659 1.65923 0
M  V30 751 H 81.3264 2.90277 0.460053 0
M  V30 752 H 78.8404 1.61665 0.15434 0
M  V30 753 H 80.8374 2.97205 2.9236 0
M  V30 754 H 79.4974 1.81894 2.6897 0
M  V30 755 H 80.5084 5.08854 0.963756 0
M  V30 756 H 77.1854 3.18194 2.70293 0
M  V30 757 H 78.5754 6.68395 0.685356 0
M  V30 758 N 81.2955 -0.223234 1.56011 0
M  V30 759 C 82.5435 -0.946003 1.78592 0
M  V30 760 C 82.8645 -1.84936 0.618349 0
M  V30 761 O 82.1345 -1.92473 -0.364833 0
M  V30 762 H 80.7145 -0.352298 0.658707 0
M  V30 763 H 83.3765 -0.235494 1.93472 0
M  V30 764 H 82.4725 -1.55381 2.70672 0
M  V30 765 N 82.7736 -1.49793 -0.48987 0
M  V30 766 C 84.0226 -1.59085 -1.23995 0
M  V30 767 C 84.3356 -0.287907 -1.9347 0
M  V30 768 O 85.5416 -0.259506 -2.70257 0
M  V30 769 C 83.9976 -2.80736 -2.252 0
M  V30 770 C 83.6056 -4.17833 -1.61614 0
M  V30 771 C 85.3496 -2.99364 -3.00967 0
M  V30 772 C 83.2566 -5.30693 -2.60996 0
M  V30 773 H 82.1866 -0.592372 -0.466488 0
M  V30 774 H 84.8376 -1.76197 -0.51252 0
M  V30 775 H 83.2196 -2.57142 -3.01154 0
M  V30 776 H 84.3936 -4.51608 -0.915774 0
M  V30 777 H 82.7086 -4.04656 -0.981977 0
M  V30 778 H 85.3056 -3.80851 -3.75308 0
M  V30 779 H 85.6486 -2.10356 -3.59244 0
M  V30 780 H 86.1816 -3.2305 -2.32128 0
M  V30 781 H 82.9206 -6.21796 -2.07485 0
M  V30 782 H 82.4406 -5.01359 -3.2924 0
M  V30 783 H 84.1196 -5.6049 -3.23202 0
M  V30 784 N 84.2517 0.741722 -1.39055 0
M  V30 785 C 85.1817 1.869 -1.39966 0
M  V30 786 C 86.1627 1.6804 -0.26392 0
M  V30 787 O 87.3477 1.88458 -0.468755 0
M  V30 788 C 84.4777 3.24572 -1.23574 0
M  V30 789 C 83.4317 3.58056 -2.34477 0
M  V30 790 C 82.7577 4.94593 -2.0318 0
M  V30 791 C 84.0577 3.61716 -3.76774 0
M  V30 792 H 85.7517 1.86395 -2.34302 0
M  V30 793 H 83.2977 0.895361 -1.1278 0
M  V30 794 H 85.2507 4.031 -1.22834 0
M  V30 795 H 83.9747 3.25587 -0.257045 0
M  V30 796 H 82.6337 2.81854 -2.34423 0
M  V30 797 H 82.2817 4.92181 -1.03765 0
M  V30 798 H 81.9817 5.17964 -2.77465 0
M  V30 799 H 83.5057 5.75486 -2.04079 0
M  V30 800 H 84.9197 4.30335 -3.78794 0
M  V30 801 H 83.3167 3.96603 -4.50362 0
M  V30 802 H 84.3867 2.61672 -4.08235 0
M  V30 803 N 85.7298 1.2412 0.971189 0
M  V30 804 C 86.6928 1.03156 2.04674 0
M  V30 805 C 87.6928 -0.00990322 1.60797 0
M  V30 806 O 88.8828 0.230729 1.72665 0
M  V30 807 C 86.0148 0.562765 3.36223 0
M  V30 808 H 87.2078 1.98614 2.24705 0
M  V30 809 H 84.7608 1.06293 1.14593 0
M  V30 810 H 85.4958 -0.395176 3.21883 0
M  V30 811 H 85.2808 1.31441 3.69413 0
M  V30 812 H 86.7708 0.437015 4.15307 0
M  V30 813 N 87.2079 -1.17134 1.05439 0
M  V30 814 C 88.6239 -1.39454 0.776201 0
M  V30 815 C 88.8239 -1.91454 -0.628307 0
M  V30 816 O 87.8799 -2.10777 -1.39031 0
M  V30 817 C 89.1929 -2.38305 1.83388 0
M  V30 818 C 90.7409 -2.52006 1.85639 0
M  V30 819 C 91.2159 -3.54133 2.90437 0
M  V30 820 N 92.7069 -3.61653 2.89415 0
M  V30 821 C 93.4419 -4.4044 3.67152 0
M  V30 822 N 92.9379 -5.22721 4.54681 0
M  V30 823 N 94.7309 -4.35337 3.55581 0
M  V30 824 H 86.8819 -0.817134 1.96053 0
M  V30 825 H 89.1449 -0.421626 0.849079 0
M  V30 826 H 88.8509 -2.07173 2.84204 0
M  V30 827 H 88.7249 -3.37841 1.67761 0
M  V30 828 H 91.1119 -2.82447 0.85486 0
M  V30 829 H 91.1929 -1.52537 2.05344 0
M  V30 830 H 90.8369 -3.24431 3.90777 0
M  V30 831 H 90.7669 -4.53313 2.67983 0
M  V30 832 H 93.2579 -3.02909 2.25952 0
M  V30 833 H 93.5709 -5.80027 5.10674 0
M  V30 834 H 91.9159 -5.22093 4.58741 0
M  V30 835 H 95.1069 -3.70112 2.86592 0
M  V30 836 H 95.2799 -4.96494 4.1641 0
M  V30 837 N 88.686 -0.835752 -1.33615 0
M  V30 838 C 90.102 -0.523139 -1.50783 0
M  V30 839 C 90.302 0.950171 -1.77691 0
M  V30 840 O 89.358 1.73411 -1.83534 0
M  V30 841 C 90.671 -1.39378 -2.66448 0
M  V30 842 C 92.219 -1.39223 -2.80332 0
M  V30 843 C 92.694 -2.24765 -3.99055 0
M  V30 844 N 94.185 -2.22458 -4.06284 0
M  V30 845 C 94.92 -2.85386 -4.97336 0
M  V30 846 N 94.416 -3.57354 -5.93523 0
M  V30 847 N 96.209 -2.74872 -4.90308 0
M  V30 848 H 88.36 -1.78952 -1.14411 0
M  V30 849 H 90.623 -0.763297 -0.562212 0
M  V30 850 H 90.329 -2.44061 -2.53234 0
M  V30 851 H 90.203 -1.0676 -3.61776 0
M  V30 852 H 92.59 -0.353136 -2.92979 0
M  V30 853 H 92.671 -1.75846 -1.85773 0
M  V30 854 H 92.315 -3.28732 -3.87167 0
M  V30 855 H 92.245 -1.85485 -4.92852 0
M  V30 856 H 94.736 -1.70119 -3.37443 0
M  V30 857 H 95.049 -4.02584 -6.59656 0
M  V30 858 H 93.394 -3.61461 -5.93608 0
M  V30 859 H 96.585 -2.18213 -4.14126 0
M  V30 860 H 96.758 -3.24199 -5.61069 0
M  V30 861 N 90.1641 1.46063 -0.591896 0
M  V30 862 C 91.5751 1.85944 -0.167822 0
M  V30 863 C 91.9261 1.49429 1.27143 0
M  V30 864 O 91.0511 0.913515 1.96173 0
M  V30 865 C 91.6461 3.37489 -0.297794 0
M  V30 866 C 90.2051 3.76332 0.0714732 0
M  V30 867 C 89.3521 2.7006 -0.629509 0
M  V30 868 H 92.3031 1.37087 -0.799555 0
M  V30 869 H 92.3241 3.77532 0.474349 0
M  V30 870 H 91.8361 3.64034 -1.3454 0
M  V30 871 H 89.9371 3.55405 1.11886 0
M  V30 872 H 90.0501 4.78088 -0.311245 0
M  V30 873 H 88.4141 2.54607 -0.0687867 0
M  V30 874 H 89.1971 2.99444 -1.67894 0
M  V30 875 N 91.6422 0.330177 1.54103 0
M  V30 876 C 92.8672 -0.274893 2.0557 0
M  V30 877 C 93.2922 -1.44487 1.20437 0
M  V30 878 O 92.6502 -1.80021 0.214991 0
M  V30 879 C 92.6982 -0.68079 3.54115 0
M  V30 880 O 91.8022 -1.7824 3.71893 0
M  V30 881 H 91.1432 -0.0483849 0.662235 0
M  V30 882 H 93.6732 0.480508 1.98878 0
M  V30 883 H 93.6832 -0.961635 3.96505 0
M  V30 884 H 92.3582 0.174903 4.15532 0
M  V30 885 H 90.9352 -1.49985 3.41407 0
M  V30 886 N 93.1203 -1.57491 0.0584922 0
M  V30 887 C 94.3503 -1.9701 -0.622134 0
M  V30 888 C 94.7583 -0.935034 -1.6448 0
M  V30 889 O 94.1013 0.0882904 -1.83488 0
M  V30 890 C 94.1633 -3.32794 -1.35972 0
M  V30 891 C 93.8273 -4.54343 -0.492043 0
M  V30 892 C 94.8243 -5.19323 0.244901 0
M  V30 893 C 92.5093 -5.00534 -0.420821 0
M  V30 894 C 94.5033 -6.28835 1.04143 0
M  V30 895 C 92.1903 -6.09921 0.379389 0
M  V30 896 C 93.1883 -6.73933 1.10919 0
M  V30 897 O 92.8763 -7.81216 1.89623 0
M  V30 898 H 92.6083 -0.653127 -0.174359 0
M  V30 899 H 95.1623 -2.05029 0.123418 0
M  V30 900 H 93.3923 -3.21351 -2.15105 0
M  V30 901 H 95.0813 -3.5701 -1.93129 0
M  V30 902 H 95.8473 -4.8459 0.19939 0
M  V30 903 H 91.7263 -4.50496 -0.978474 0
M  V30 904 H 95.2703 -6.7873 1.61157 0
M  V30 905 H 91.1673 -6.44089 0.426512 0
M  V30 906 H 91.9353 -7.98029 1.81913 0
M  V30 907 N 94.5984 0.214957 -1.56127 0
M  V30 908 C 96.0144 0.564948 -1.49267 0
M  V30 909 C 96.2144 1.86827 -0.754838 0
M  V30 910 O 95.2704 2.50745 -0.297198 0
M  V30 911 C 96.5834 0.638071 -2.93852 0
M  V30 912 C 98.1314 0.728253 -3.0441 0
M  V30 913 C 98.6064 0.832663 -4.50367 0
M  V30 914 N 100.097 0.896712 -4.54437 0
M  V30 915 C 100.832 0.997324 -5.6466 0
M  V30 916 N 100.328 1.06147 -6.8462 0
M  V30 917 N 102.121 1.03297 -5.52527 0
M  V30 918 H 94.2724 -0.640211 -2.02522 0
M  V30 919 H 96.5354 -0.225507 -0.920788 0
M  V30 920 H 96.2414 -0.250126 -3.50809 0
M  V30 921 H 96.1154 1.49947 -3.46115 0
M  V30 922 H 98.5024 1.60689 -2.47514 0
M  V30 923 H 98.5834 -0.158952 -2.55306 0
M  V30 924 H 98.2274 -0.0415417 -5.07883 0
M  V30 925 H 98.1574 1.73538 -4.97184 0
M  V30 926 H 100.648 0.857188 -3.6805 0
M  V30 927 H 100.961 1.1382 -7.64372 0
M  V30 928 H 99.3064 1.03049 -6.87318 0
M  V30 929 H 102.497 0.979558 -4.57736 0
M  V30 930 H 102.67 1.10793 -6.38458 0
M  V30 931 N 96.0765 1.50051 0.48192 0
M  V30 932 C 97.0235 1.68122 1.58125 0
M  V30 933 C 97.9935 0.522545 1.57666 0
M  V30 934 O 99.1785 0.751844 1.75362 0
M  V30 935 C 96.3185 1.77142 2.96167 0
M  V30 936 C 95.4315 3.0444 3.06497 0
M  V30 937 C 94.5665 3.04321 4.35387 0
M  V30 938 C 93.6055 4.26118 4.3942 0
M  V30 939 N 92.7425 4.238 5.59766 0
M  V30 940 H 97.5825 2.6198 1.42022 0
M  V30 941 H 95.1195 1.29877 0.690687 0
M  V30 942 H 97.0775 1.80352 3.76203 0
M  V30 943 H 95.7075 0.867329 3.1093 0
M  V30 944 H 94.7595 3.10752 2.19402 0
M  V30 945 H 96.0715 3.94426 3.05336 0
M  V30 946 H 95.2255 3.062 5.23762 0
M  V30 947 H 93.9645 2.12147 4.39141 0
M  V30 948 H 92.9695 4.24463 3.49444 0
M  V30 949 H 94.1945 5.19507 4.37366 0
M  V30 950 H 92.1405 3.34474 5.64326 0
M  V30 951 H 92.0575 5.07542 5.60301 0
M  V30 952 H 93.3255 4.2981 6.50295 0
M  V30 953 N 97.5546 -0.734337 1.39446 0
M  V30 954 C 98.8036 -1.48937 1.36017 0
M  V30 955 C 99.1166 -1.95557 -0.0409005 0
M  V30 956 O 100.323 -2.70779 -0.19778 0
M  V30 957 C 98.7786 -2.69125 2.38955 0
M  V30 958 C 98.3866 -2.29452 3.8478 0
M  V30 959 C 100.131 -3.46944 2.44603 0
M  V30 960 C 98.0376 -3.46366 4.79358 0
M  V30 961 H 96.9676 -0.559296 0.505672 0
M  V30 962 H 99.6186 -0.800983 1.65095 0
M  V30 963 H 98.0006 -3.40041 2.02948 0
M  V30 964 H 99.1746 -1.66077 4.29831 0
M  V30 965 H 97.4896 -1.64723 3.82433 0
M  V30 966 H 100.087 -4.33907 3.12456 0
M  V30 967 H 100.43 -3.89454 1.47076 0
M  V30 968 H 100.963 -2.83056 2.79507 0
M  V30 969 H 97.7016 -3.08905 5.78151 0
M  V30 970 H 97.2216 -4.08719 4.38986 0
M  V30 971 H 98.9006 -4.12691 4.98292 0
M  V30 972 N 99.0327 -1.24633 -0.964593 0
M  V30 973 C 99.9627 -1.06611 -2.07741 0
M  V30 974 C 100.944 0.0218666 -1.70086 0
M  V30 975 O 102.129 -0.145793 -1.93652 0
M  V30 976 C 99.2587 -0.673444 -3.40708 0
M  V30 977 C 98.2127 -1.71054 -3.92332 0
M  V30 978 C 97.5387 -1.17285 -5.21678 0
M  V30 979 C 98.8387 -3.10718 -4.19824 0
M  V30 980 H 100.533 -1.99693 -2.23076 0
M  V30 981 H 98.0787 -0.96152 -1.07195 0
M  V30 982 H 100.032 -0.534345 -4.17998 0
M  V30 983 H 98.7557 0.293073 -3.25282 0
M  V30 984 H 97.4147 -1.83791 -3.17201 0
M  V30 985 H 97.0627 -0.196847 -5.02615 0
M  V30 986 H 96.7627 -1.86592 -5.57187 0
M  V30 987 H 98.2867 -1.04593 -6.01575 0
M  V30 988 H 99.7007 -3.01192 -4.87808 0
M  V30 989 H 98.0977 -3.77406 -4.66567 0
M  V30 990 H 99.1677 -3.58524 -3.26479 0
M  V30 991 N 100.511 1.16574 -1.06058 0
M  V30 992 C 101.458 2.20883 -0.669263 0
M  V30 993 C 102.428 1.62729 0.332918 0
M  V30 994 O 103.613 1.895 0.222346 0
M  V30 995 C 100.753 3.45049 -0.0593572 0
M  V30 996 C 99.8658 4.17458 -1.11143 0
M  V30 997 C 99.0008 5.29135 -0.467916 0
M  V30 998 C 98.0398 5.93343 -1.50369 0
M  V30 999 N 97.1768 6.96516 -0.883706 0
M  V30 1000 H 102.017 2.53709 -1.5632 0
M  V30 1001 H 99.5538 1.24616 -0.781625 0
M  V30 1002 H 101.512 4.16033 0.311771 0
M  V30 1003 H 100.142 3.12781 0.797992 0
M  V30 1004 H 99.1938 3.45101 -1.60029 0
M  V30 1005 H 100.506 4.61307 -1.89731 0
M  V30 1006 H 99.6598 6.06684 -0.0436871 0
M  V30 1007 H 98.3988 4.86443 0.349864 0
M  V30 1008 H 97.4038 5.14517 -1.93784 0
M  V30 1009 H 98.6288 6.38114 -2.32352 0
M  V30 1010 H 96.5748 6.55943 -0.086595 0
M  V30 1011 H 96.4918 7.38723 -1.607 0
M  V30 1012 H 97.7598 7.77993 -0.484543 0
M  V30 1013 N 101.989 0.842826 1.3317 0
M  V30 1014 C 103.266 0.362216 1.92217 0
M  V30 1015 C 103.646 -1.15289 1.76838 0
M  V30 1016 O 102.994 -1.96914 1.15919 0
M  V30 1017 C 103.204 0.813495 3.39387 0
M  V30 1018 C 104.552 0.823804 4.16532 0
M  V30 1019 O 105.576 0.757358 3.48055 0
M  V30 1020 O 104.435 0.915193 5.38782 0
M  V30 1021 H 101.529 0.103317 0.820521 0
M  V30 1022 H 104.075 0.928942 1.42017 0
M  V30 1023 H 102.847 1.85624 3.4447 0
M  V30 1024 H 102.47 0.223561 3.96971 0
M  V30 1025 N 103.467 -1.45747 0.599634 0
M  V30 1026 C 104.397 -2.33235 -0.111306 0
M  V30 1027 C 105.378 -1.46359 -0.866781 0
M  V30 1028 O 106.563 -1.75146 -0.838904 0
M  V30 1029 C 103.693 -3.28932 -1.11451 0
M  V30 1030 C 102.647 -4.25381 -0.472772 0
M  V30 1031 C 101.973 -5.1071 -1.58365 0
M  V30 1032 C 103.273 -5.18831 0.600948 0
M  V30 1033 H 104.967 -2.92927 0.61919 0
M  V30 1034 H 102.513 -1.40857 0.299215 0
M  V30 1035 H 104.466 -3.89002 -1.62036 0
M  V30 1036 H 103.19 -2.67381 -1.8755 0
M  V30 1037 H 101.849 -3.66598 0.0121472 0
M  V30 1038 H 101.497 -4.45533 -2.33473 0
M  V30 1039 H 101.197 -5.7604 -1.15982 0
M  V30 1040 H 102.721 -5.73647 -2.09194 0
M  V30 1041 H 104.135 -5.73019 0.179491 0
M  V30 1042 H 102.532 -5.92595 0.946076 0
M  V30 1043 H 103.602 -4.6174 1.48068 0
M  V30 1044 N 104.945 -0.338344 -1.53925 0
M  V30 1045 C 106.17 0.263987 -2.05713 0
M  V30 1046 C 106.595 1.43847 -1.21201 0
M  V30 1047 O 105.953 1.79904 -0.224535 0
M  V30 1048 C 106.001 0.662 -3.54471 0
M  V30 1049 O 105.105 1.76265 -3.72833 0
M  V30 1050 H 104.446 0.0448722 -0.662482 0
M  V30 1051 H 106.976 -0.491048 -1.9862 0
M  V30 1052 H 106.986 0.940594 -3.9701 0
M  V30 1053 H 105.661 -0.196937 -4.15433 0
M  V30 1054 H 104.238 1.48173 -3.42198 0
M  V30 1055 N 106.423 1.57458 -0.0668435 0
M  V30 1056 C 107.648 1.9804 0.616027 0
M  V30 1057 C 108.073 0.944771 1.62652 0
M  V30 1058 O 107.431 -0.0902094 1.81075 0
M  V30 1059 C 107.479 3.37665 1.26549 0
M  V30 1060 O 106.583 3.36701 2.38131 0
M  V30 1061 H 105.924 0.644719 0.158849 0
M  V30 1062 H 108.454 2.04121 -0.139891 0
M  V30 1063 H 108.464 3.7474 1.6135 0
M  V30 1064 H 107.139 4.12573 0.525016 0
M  V30 1065 H 105.716 3.1139 2.0516 0
M  V30 1066 N 107.901 -0.206675 1.56239 0
M  V30 1067 C 108.811 -1.27686 1.96808 0
M  V30 1068 C 109.827 -1.50455 0.874035 0
M  V30 1069 O 111.003 -1.63295 1.17884 0
M  V30 1070 C 108.068 -2.60358 2.28942 0
M  V30 1071 C 107.129 -2.45762 3.51994 0
M  V30 1072 C 106.362 -3.72108 3.82585 0
M  V30 1073 O 106.585 -4.75776 3.14631 0
M  V30 1074 O 105.519 -3.6833 4.76043 0
M  V30 1075 H 109.345 -0.962593 2.88041 0
M  V30 1076 H 106.93 -0.410746 1.43643 0
M  V30 1077 H 108.812 -3.38687 2.50737 0
M  V30 1078 H 107.487 -2.91435 1.4088 0
M  V30 1079 H 106.394 -1.65584 3.35459 0
M  V30 1080 H 107.727 -2.19621 4.40486 0
M  V30 1081 N 109.379 -1.50304 -0.473955 0
M  V30 1082 C 110.656 -1.51667 -1.23518 0
M  V30 1083 C 111.036 -0.259701 -2.09496 0
M  V30 1084 O 110.384 0.756986 -2.15597 0
M  V30 1085 C 110.594 -2.81082 -2.06868 0
M  V30 1086 C 111.942 -3.31631 -2.65153 0
M  V30 1087 O 112.966 -2.82384 -2.17113 0
M  V30 1088 O 111.825 -4.17471 -3.52675 0
M  V30 1089 H 108.919 -0.60822 -0.560355 0
M  V30 1090 H 111.465 -1.62592 -0.486011 0
M  V30 1091 H 110.237 -3.64041 -1.4349 0
M  V30 1092 H 109.86 -2.73146 -2.88924 0
M  V30 1093 N 110.857 0.726932 -1.39834 0
M  V30 1094 C 112.085 1.51613 -1.40787 0
M  V30 1095 C 112.5 1.88799 -0.00451505 0
M  V30 1096 O 111.857 1.54662 0.968809 0
M  V30 1097 C 111.908 2.79863 -2.28821 0
M  V30 1098 O 111.629 2.44253 -3.63692 0
M  V30 1099 C 113.13 3.73837 -2.38245 0
M  V30 1100 H 110.35 0.468264 -0.480593 0
M  V30 1101 H 112.894 0.897607 -1.83748 0
M  V30 1102 H 111.049 3.38027 -1.89252 0
M  V30 1103 H 111.463 3.26695 -4.1033 0
M  V30 1104 H 112.937 4.60699 -3.04073 0
M  V30 1105 H 113.414 4.16153 -1.40403 0
M  V30 1106 H 114.02 3.21589 -2.78317 0
M  V30 1107 N 112.336 1.25143 0.95797 0
M  V30 1108 C 113.752 1.01892 1.22842 0
M  V30 1109 C 113.952 -0.266311 1.99732 0
M  V30 1110 O 113.008 -0.979913 2.3271 0
M  V30 1111 C 114.321 2.24004 2.00606 0
M  V30 1112 C 115.869 2.28731 2.13662 0
M  V30 1113 C 116.344 3.5049 2.94823 0
M  V30 1114 N 117.835 3.50866 3.02403 0
M  V30 1115 C 118.57 4.4174 3.65586 0
M  V30 1116 N 118.066 5.42882 4.30408 0
M  V30 1117 N 119.859 4.29429 3.62694 0
M  V30 1118 H 112.01 2.07718 0.443493 0
M  V30 1119 H 114.273 0.912031 0.258657 0
M  V30 1120 H 113.979 3.17395 1.51503 0
M  V30 1121 H 113.853 2.26907 3.01319 0
M  V30 1122 H 116.24 1.35865 2.61963 0
M  V30 1123 H 116.321 2.29848 1.12265 0
M  V30 1124 H 115.965 4.43676 2.47213 0
M  V30 1125 H 115.895 3.46617 3.96439 0
M  V30 1126 H 118.386 2.777 2.56302 0
M  V30 1127 H 118.699 6.0844 4.76467 0
M  V30 1128 H 117.044 5.46758 4.29047 0
M  V30 1129 H 120.235 3.49643 3.11236 0
M  V30 1130 H 120.408 5.00448 4.1165 0
M  V30 1131 N 113.814 -1.1601 1.06675 0
M  V30 1132 C 115.062 -1.86264 0.784229 0
M  V30 1133 C 115.383 -1.82328 -0.691488 0
M  V30 1134 O 114.653 -1.25947 -1.50047 0
M  V30 1135 H 113.233 -0.689621 0.28711 0
M  V30 1136 H 115.895 -1.40664 1.34906 0
M  V30 1137 H 114.991 -2.91595 1.11259 0
M  V30 1138 N 115.292 -0.849877 -1.32721 0
M  V30 1139 C 116.708 -0.539102 -1.50219 0
M  V30 1140 C 116.908 0.931271 -1.78689 0
M  V30 1141 O 115.964 1.71455 -1.85363 0
M  V30 1142 C 117.277 -1.42196 -2.64954 0
M  V30 1143 C 118.825 -1.42189 -2.78839 0
M  V30 1144 C 119.3 -2.28985 -3.96648 0
M  V30 1145 N 120.791 -2.26754 -4.03902 0
M  V30 1146 C 121.526 -2.90644 -4.94281 0
M  V30 1147 N 121.022 -3.63629 -5.897 0
M  V30 1148 N 122.815 -2.80057 -4.87365 0
M  V30 1149 H 114.966 -1.80156 -1.12506 0
M  V30 1150 H 117.229 -0.769217 -0.554085 0
M  V30 1151 H 116.935 -2.46733 -2.50631 0
M  V30 1152 H 116.809 -1.10591 -3.60624 0
M  V30 1153 H 119.196 -0.38419 -2.92588 0
M  V30 1154 H 119.277 -1.77807 -1.83898 0
M  V30 1155 H 118.921 -3.32819 -3.83658 0
M  V30 1156 H 118.851 -1.90702 -4.90857 0
M  V30 1157 H 121.342 -1.73688 -3.3562 0
M  V30 1158 H 121.655 -4.09558 -6.55349 0
M  V30 1159 H 120 -3.67737 -5.89741 0
M  V30 1160 H 123.191 -2.22593 -4.11789 0
M  V30 1161 H 123.364 -3.30132 -5.57599 0
M  V30 1162 N 116.77 1.45427 -0.607355 0
M  V30 1163 C 117.717 2.3053 0.111625 0
M  V30 1164 C 118.687 1.4209 0.860216 0
M  V30 1165 O 119.872 1.71019 0.845998 0
M  V30 1166 C 117.012 3.26992 1.10319 0
M  V30 1167 C 116.125 4.30535 0.355493 0
M  V30 1168 C 115.26 5.14105 1.33676 0
M  V30 1169 C 114.299 6.09376 0.576862 0
M  V30 1170 N 113.436 6.85727 1.5074 0
M  V30 1171 H 118.276 2.91477 -0.620093 0
M  V30 1172 H 115.813 1.43631 -0.317594 0
M  V30 1173 H 117.771 3.81385 1.6912 0
M  V30 1174 H 116.401 2.67799 1.80232 0
M  V30 1175 H 115.453 3.78805 -0.348023 0
M  V30 1176 H 116.765 4.98235 -0.237423 0
M  V30 1177 H 115.919 5.72897 1.99684 0
M  V30 1178 H 114.658 4.46423 1.9636 0
M  V30 1179 H 113.663 5.49715 -0.0968519 0
M  V30 1180 H 114.888 6.79085 -0.0449341 0
M  V30 1181 H 112.834 6.20735 2.12189 0
M  V30 1182 H 112.751 7.49778 0.967913 0
M  V30 1183 H 114.019 7.4906 2.15706 0
M  V30 1184 N 118.248 0.346503 1.53744 0
M  V30 1185 C 119.496 -0.248612 2.00565 0
M  V30 1186 C 119.817 -1.5083 1.23593 0
M  V30 1187 O 119.087 -1.92858 0.343912 0
M  V30 1188 H 117.667 -0.0948564 0.740953 0
M  V30 1189 H 120.329 0.468341 1.89189 0
M  V30 1190 H 119.425 -0.488994 3.08245 0
M  V30 1191 N 119.726 -1.57421 0.075193 0
M  V30 1192 C 121.003 -1.85029 -0.634329 0
M  V30 1193 C 121.383 -0.968305 -1.87582 0
M  V30 1194 O 120.731 -0.0354749 -2.28472 0
M  V30 1195 C 120.941 -3.35286 -0.968742 0
M  V30 1196 C 122.289 -4.02875 -1.34077 0
M  V30 1197 O 123.313 -3.40051 -1.06037 0
M  V30 1198 O 122.172 -5.13691 -1.86506 0
M  V30 1199 H 119.266 -0.7645 -0.315387 0
M  V30 1200 H 121.812 -1.69366 0.106382 0
M  V30 1201 H 120.584 -3.91203 -0.0871376 0
M  V30 1202 H 120.207 -3.56223 -1.7661 0
M  V30 1203 N 121.204 0.198386 -1.56346 0
M  V30 1204 C 122.452 0.91747 -1.80075 0
M  V30 1205 C 122.773 1.83929 -0.647692 0
M  V30 1206 O 122.043 1.93029 0.334166 0
M  V30 1207 H 120.623 0.341774 -0.664228 0
M  V30 1208 H 123.285 0.204684 -1.93822 0
M  V30 1209 H 122.381 1.51055 -2.7311 0
M  V30 1210 N 122.682 1.50554 0.465978 0
M  V30 1211 C 123.592 1.72585 1.58907 0
M  V30 1212 C 124.608 0.60911 1.6299 0
M  V30 1213 O 125.784 0.88804 1.80765 0
M  V30 1214 C 122.849 1.81995 2.95091 0
M  V30 1215 C 121.91 3.05751 3.01355 0
M  V30 1216 C 121.143 3.14702 4.31043 0
M  V30 1217 O 121.366 2.30313 5.21835 0
M  V30 1218 O 120.3 4.07468 4.43005 0
M  V30 1219 H 124.126 2.67799 1.43239 0
M  V30 1220 H 121.711 1.34711 0.646013 0
M  V30 1221 H 123.593 1.90335 3.75966 0
M  V30 1222 H 122.268 0.899659 3.10947 0
M  V30 1223 H 121.175 3.02908 2.19539 0
M  V30 1224 H 122.508 3.97375 2.90437 0
M  V30 1225 N 124.16 -0.719506 1.40217 0
M  V30 1226 C 125.108 -1.85493 1.40339 0
M  V30 1227 C 126.102 -1.66995 0.284415 0
M  V30 1228 O 127.308 -1.74148 0.455252 0
M  V30 1229 H 123.683 -0.610857 0.438586 0
M  V30 1230 H 125.654 -1.82506 2.36081 0
M  V30 1231 C 124.403 -3.23321 1.27901 0
M  V30 1232 H 123.726 -3.38159 2.1328 0
M  V30 1233 H 125.166 -4.02914 1.32045 0
M  V30 1234 C 123.625 -3.36898 -0.0111355 0
M  V30 1235 O 124.155 -3.89674 -0.975538 0
M  V30 1236 N 122.361 -2.90492 -0.0793393 0
M  V30 1237 H 121.908 -2.47731 0.706183 0
M  V30 1238 H 121.866 -2.99955 -0.942038 0
M  V30 1239 N 125.638 -1.25649 -0.95132 0
M  V30 1240 C 126.863 -1.13443 -1.73624 0
M  V30 1241 C 127.288 0.307565 -1.85568 0
M  V30 1242 O 126.646 1.22282 -1.33854 0
M  V30 1243 C 126.694 -1.79723 -3.12621 0
M  V30 1244 O 125.798 -1.07912 -3.98031 0
M  V30 1245 H 125.139 -0.395872 -0.533086 0
M  V30 1246 H 127.669 -1.66276 -1.1922 0
M  V30 1247 H 127.679 -1.86141 -3.63064 0
M  V30 1248 H 126.354 -2.84633 -3.03244 0
M  V30 1249 H 124.931 -1.09398 -3.56492 0
M  V30 1250 N 127.117 1.15442 -1.07289 0
M  V30 1251 C 128.365 1.85845 -0.794096 0
M  V30 1252 C 128.686 1.82692 0.681809 0
M  V30 1253 O 127.956 1.26741 1.49377 0
M  V30 1254 H 126.536 0.688089 -0.290763 0
M  V30 1255 H 129.198 1.39947 -1.3565 0
M  V30 1256 H 128.294 2.91001 -1.12804 0
M  V30 1257 N 128.595 0.856903 1.32268 0
M  V30 1258 C 129.841 0.462069 1.97466 0
M  V30 1259 C 130.174 -0.980298 1.67642 0
M  V30 1260 O 129.449 -1.68824 0.965858 0
M  V30 1261 C 129.732 0.704336 3.53145 0
M  V30 1262 C 129.585 2.19529 3.9259 0
M  V30 1263 C 130.904 0.1622 4.39801 0
M  V30 1264 H 128.023 0.169357 0.717278 0
M  V30 1265 H 130.665 1.07574 1.56614 0
M  V30 1266 H 128.815 0.181999 3.88073 0
M  V30 1267 H 130.487 2.78387 3.67829 0
M  V30 1268 H 128.73 2.67292 3.41668 0
M  V30 1269 H 129.401 2.31549 5.01088 0
M  V30 1270 H 131.877 0.608905 4.11621 0
M  V30 1271 H 130.753 0.361265 5.4771 0
M  V30 1272 H 131.014 -0.935158 4.32096 0
M  V30 1273 N 130.073 -1.45103 0.615059 0
M  V30 1274 C 131.298 -2.07064 0.117988 0
M  V30 1275 C 131.723 -1.4554 -1.19163 0
M  V30 1276 O 131.081 -0.550855 -1.72729 0
M  V30 1277 C 131.129 -3.606 -0.000288387 0
M  V30 1278 O 130.233 -3.98847 -1.04856 0
M  V30 1279 H 129.574 -0.659467 0.0774581 0
M  V30 1280 H 132.104 -1.86236 0.847186 0
M  V30 1281 H 132.114 -4.07529 -0.196091 0
M  V30 1282 H 130.789 -4.04765 0.955932 0
M  V30 1283 H 129.366 -3.63577 -0.828619 0
M  V30 1284 N 131.551 -0.354651 -1.53558 0
M  V30 1285 C 132.514 0.484566 -2.24019 0
M  V30 1286 C 133.514 1.01861 -1.24422 0
M  V30 1287 O 134.704 0.906097 -1.4878 0
M  V30 1288 C 131.836 1.67615 -2.96847 0
M  V30 1289 H 133.029 -0.131843 -2.9961 0
M  V30 1290 H 130.582 -0.106165 -1.55939 0
M  V30 1291 H 131.317 2.33095 -2.25471 0
M  V30 1292 H 131.102 1.30029 -3.69912 0
M  V30 1293 H 132.592 2.27114 -3.50441 0
M  V30 1294 N 133.029 1.57378 -0.0835403 0
M  V30 1295 C 133.992 2.12252 0.864959 0
M  V30 1296 C 134.992 1.04916 1.21858 0
M  V30 1297 O 136.182 1.30853 1.14991 0
M  V30 1298 C 133.314 2.63358 2.16461 0
M  V30 1299 H 134.507 2.97371 0.388676 0
M  V30 1300 H 132.06 1.55423 0.165317 0
M  V30 1301 H 132.795 1.81727 2.686 0
M  V30 1302 H 132.58 3.41826 1.92087 0
M  V30 1303 H 134.07 3.05847 2.84337 0
M  V30 1304 N 134.507 -0.190092 1.56449 0
M  V30 1305 C 135.753 -0.911052 1.81184 0
M  V30 1306 C 136.086 -1.82699 0.658396 0
M  V30 1307 O 135.361 -1.91491 -0.340775 0
M  V30 1308 C 135.644 -1.72297 3.16205 0
M  V30 1309 C 135.497 -0.831419 4.42049 0
M  V30 1310 C 136.816 -2.69454 3.47969 0
M  V30 1311 H 133.935 -0.32977 0.659106 0
M  V30 1312 H 136.577 -0.178169 1.89163 0
M  V30 1313 H 134.727 -2.34778 3.09534 0
M  V30 1314 H 136.399 -0.220929 4.60771 0
M  V30 1315 H 134.642 -0.138406 4.33579 0
M  V30 1316 H 135.313 -1.43461 5.33032 0
M  V30 1317 H 137.789 -2.17104 3.54972 0
M  V30 1318 H 136.665 -3.23342 4.43555 0
M  V30 1319 H 136.926 -3.48744 2.71717 0
M  V30 1320 N 135.985 -1.50799 -0.457987 0
M  V30 1321 C 137.213 -1.66218 -1.23203 0
M  V30 1322 C 137.628 -0.350894 -1.85511 0
M  V30 1323 O 136.985 0.668546 -1.69814 0
M  V30 1324 C 137.036 -2.76291 -2.33121 0
M  V30 1325 O 136.757 -4.02338 -1.73366 0
M  V30 1326 C 138.258 -3.028 -3.2377 0
M  V30 1327 H 135.478 -0.558361 -0.372121 0
M  V30 1328 H 138.022 -1.97099 -0.545179 0
M  V30 1329 H 136.177 -2.48068 -2.97558 0
M  V30 1330 H 136.591 -4.63312 -2.4585 0
M  V30 1331 H 138.065 -3.8345 -3.97077 0
M  V30 1332 H 138.542 -2.14385 -3.83322 0
M  V30 1333 H 139.148 -3.32604 -2.65056 0
M  V30 1334 N 137.463 0.71206 -1.40597 0
M  V30 1335 C 138.688 1.50617 -1.42581 0
M  V30 1336 C 139.113 1.88079 -0.0282102 0
M  V30 1337 O 138.471 1.53511 0.964579 0
M  V30 1338 C 138.519 2.7557 -2.3258 0
M  V30 1339 O 137.623 3.72414 -1.77148 0
M  V30 1340 H 136.964 0.453966 -0.484573 0
M  V30 1341 H 139.494 0.876649 -1.84868 0
M  V30 1342 H 139.504 3.2406 -2.47889 0
M  V30 1343 H 138.179 2.47639 -3.34138 0
M  V30 1344 H 136.756 3.31276 -1.71204 0
M  V30 1345 N 138.941 1.26152 0.944643 0
M  V30 1346 C 139.874 1.01729 2.04271 0
M  V30 1347 C 140.852 -0.0568101 1.62501 0
M  V30 1348 O 142.036 0.0848987 1.88309 0
M  V30 1349 C 139.163 0.539792 3.34371 0
M  V30 1350 C 138.209 1.60593 3.9511 0
M  V30 1351 S 139.042 3.19392 4.29825 0
M  V30 1352 C 140.198 2.73402 5.63029 0
M  V30 1353 H 140.431 1.94703 2.24673 0
M  V30 1354 H 137.964 1.09793 1.08558 0
M  V30 1355 H 139.922 0.270956 4.09605 0
M  V30 1356 H 138.583 -0.369609 3.11918 0
M  V30 1357 H 137.776 1.22275 4.88943 0
M  V30 1358 H 137.378 1.82596 3.26397 0
M  V30 1359 H 139.67 2.1765 6.41588 0
M  V30 1360 H 140.613 3.65913 6.06229 0
M  V30 1361 H 141.021 2.13077 5.22741 0
M  V30 1362 N 140.419 -1.14872 1.07899 0
M  V30 1363 C 141.644 -1.90202 0.826926 0
M  V30 1364 C 142.069 -1.77774 -0.614664 0
M  V30 1365 O 141.427 -1.11431 -1.43013 0
M  V30 1366 C 141.475 -3.38352 1.24702 0
M  V30 1367 O 140.579 -4.10497 0.39575 0
M  V30 1368 H 139.92 -0.591968 0.300782 0
M  V30 1369 H 142.45 -1.45437 1.43907 0
M  V30 1370 H 142.46 -3.89156 1.22563 0
M  V30 1371 H 141.135 -3.46715 2.29698 0
M  V30 1372 H 139.712 -3.69796 0.480117 0
M  V30 1373 N 141.898 -0.863906 -1.31812 0
M  V30 1374 C 143.144 -0.472535 -1.97218 0
M  V30 1375 C 143.477 0.971394 -1.68159 0
M  V30 1376 O 142.752 1.68309 -0.974798 0
M  V30 1377 C 143.035 -0.723054 -3.52766 0
M  V30 1378 C 142.888 -2.21608 -3.91421 0
M  V30 1379 C 144.207 -0.185522 -4.39709 0
M  V30 1380 H 141.326 -0.173158 -0.71637 0
M  V30 1381 H 143.968 -1.08403 -1.56041 0
M  V30 1382 H 142.118 -0.202577 -3.87971 0
M  V30 1383 H 143.79 -2.80334 -3.66347 0
M  V30 1384 H 142.033 -2.691 -3.40246 0
M  V30 1385 H 142.704 -2.34203 -4.99853 0
M  V30 1386 H 145.18 -0.630726 -4.11292 0
M  V30 1387 H 144.056 -0.390306 -5.47511 0
M  V30 1388 H 144.317 0.912229 -4.32586 0
M  V30 1389 N 143.376 1.44774 -0.622745 0
M  V30 1390 C 144.787 1.85546 -0.207226 0
M  V30 1391 C 145.138 1.52093 1.23944 0
M  V30 1392 O 144.263 0.95492 1.94191 0
M  V30 1393 C 144.858 3.36781 -0.369313 0
M  V30 1394 C 143.417 3.76399 -0.00836847 0
M  V30 1395 C 142.564 2.68664 -0.686651 0
M  V30 1396 H 145.515 1.3536 -0.828454 0
M  V30 1397 H 145.536 3.78453 0.394162 0
M  V30 1398 H 145.048 3.61098 -1.42231 0
M  V30 1399 H 143.149 3.57698 1.04322 0
M  V30 1400 H 143.262 4.7732 -0.412584 0
M  V30 1401 H 141.626 2.54404 -0.122777 0
M  V30 1402 H 142.409 2.95815 -1.74208 0
M  V30 1403 N 144.854 0.36279 1.53368 0
M  V30 1404 C 146.082 -0.228613 2.05633 0
M  V30 1405 C 146.497 -1.42676 1.23649 0
M  V30 1406 O 145.854 -1.80394 0.27647 0
M  V30 1407 C 145.905 -0.624845 3.56059 0
M  V30 1408 O 145.626 0.525675 4.34935 0
M  V30 1409 C 147.127 -1.27493 4.24571 0
M  V30 1410 H 144.347 -0.0407183 0.669763 0
M  V30 1411 H 146.891 0.520352 1.97769 0
M  V30 1412 H 145.046 -1.32373 3.64083 0
M  V30 1413 H 145.46 0.205969 5.24095 0
M  V30 1414 H 146.934 -1.50277 5.31151 0
M  V30 1415 H 147.411 -2.23439 3.78116 0
M  V30 1416 H 148.017 -0.617558 4.20792 0
M  V30 1417 N 146.332 -1.57332 0.0918853 0
M  V30 1418 C 147.743 -1.81496 -0.437739 0
M  V30 1419 C 148.094 -1.00727 -1.6837 0
M  V30 1420 O 147.219 -0.235694 -2.15113 0
M  V30 1421 C 147.814 -3.29197 -0.800939 0
M  V30 1422 C 146.373 -3.54136 -1.27532 0
M  V30 1423 C 145.52 -2.75979 -0.270392 0
M  V30 1424 H 148.471 -1.55494 0.317366 0
M  V30 1425 H 148.492 -3.42344 -1.66074 0
M  V30 1426 H 148.004 -3.87955 0.106078 0
M  V30 1427 H 146.105 -3.00705 -2.20016 0
M  V30 1428 H 146.218 -4.62792 -1.23938 0
M  V30 1429 H 144.582 -2.43349 -0.751872 0
M  V30 1430 H 145.365 -3.37484 0.629248 0
M  V30 1431 N 147.81 0.181792 -1.56548 0
M  V30 1432 C 149.059 0.898348 -1.8059 0
M  V30 1433 C 149.372 1.83862 -0.667379 0
M  V30 1434 O 150.578 2.59678 -0.792446 0
M  V30 1435 C 149.034 1.64791 -3.19956 0
M  V30 1436 C 148.642 0.751789 -4.41647 0
M  V30 1437 C 150.386 2.35331 -3.53298 0
M  V30 1438 C 148.293 1.50098 -5.72035 0
M  V30 1439 H 147.223 0.339194 -0.673397 0
M  V30 1440 H 149.874 0.151413 -1.82874 0
M  V30 1441 H 148.256 2.43921 -3.11959 0
M  V30 1442 H 149.43 -0.0018076 -4.608 0
M  V30 1443 H 147.745 0.156562 -4.16106 0
M  V30 1444 H 150.342 2.91958 -4.47956 0
M  V30 1445 H 150.685 3.10164 -2.77676 0
M  V30 1446 H 151.218 1.63154 -3.62803 0
M  V30 1447 H 147.957 0.795175 -6.50659 0
M  V30 1448 H 147.477 2.22817 -5.56878 0
M  V30 1449 H 149.156 2.05125 -6.13622 0
M  V30 1450 N 149.288 1.51039 0.449983 0
M  V30 1451 C 150.518 1.66627 1.22143 0
M  V30 1452 C 150.926 0.357776 1.85786 0
M  V30 1453 O 150.269 -0.672424 1.70951 0
M  V30 1454 C 150.331 2.71562 2.35573 0
M  V30 1455 C 149.995 4.14526 1.92399 0
M  V30 1456 C 150.992 4.99717 1.43453 0
M  V30 1457 C 148.677 4.60559 2.00475 0
M  V30 1458 C 150.671 6.28998 1.03155 0
M  V30 1459 C 148.358 5.8984 1.59788 0
M  V30 1460 C 149.356 6.73886 1.11208 0
M  V30 1461 O 149.044 8.0075 0.710935 0
M  V30 1462 H 148.776 0.562635 0.374724 0
M  V30 1463 H 151.33 1.98146 0.541036 0
M  V30 1464 H 149.56 2.3533 3.06849 0
M  V30 1465 H 151.249 2.76156 2.97478 0
M  V30 1466 H 152.015 4.65361 1.36618 0
M  V30 1467 H 147.894 3.95273 2.37235 0
M  V30 1468 H 151.438 6.9455 0.651663 0
M  V30 1469 H 147.335 6.23713 1.66289 0
M  V30 1470 H 148.103 8.142 0.837913 0
M  V30 1471 N 150.766 -0.704594 1.40972 0
M  V30 1472 C 151.698 -1.82974 1.38033 0
M  V30 1473 C 152.711 -1.60305 0.283931 0
M  V30 1474 O 153.9 -1.69975 0.545042 0
M  V30 1475 C 151 -3.19578 1.12795 0
M  V30 1476 C 150.173 -3.69352 2.34302 0
M  V30 1477 C 149.232 -4.84601 2.05058 0
M  V30 1478 O 148.258 -4.96682 2.7802 0
M  V30 1479 N 149.46 -5.71194 1.03528 0
M  V30 1480 H 152.225 -1.85991 2.35005 0
M  V30 1481 H 149.786 -0.886567 1.35468 0
M  V30 1482 H 151.778 -3.9429 0.911987 0
M  V30 1483 H 150.348 -3.11642 0.24452 0
M  V30 1484 H 149.568 -2.85649 2.71659 0
M  V30 1485 H 150.856 -3.99345 3.1528 0
M  V30 1486 H 150.254 -5.64054 0.431217 0
M  V30 1487 H 148.811 -6.45843 0.879205 0
M  V30 1488 N 152.244 -1.26651 -0.937939 0
M  V30 1489 C 153.472 -1.15173 -1.7188 0
M  V30 1490 C 153.887 0.292668 -1.86518 0
M  V30 1491 O 153.244 1.20014 -1.37488 0
M  V30 1492 C 153.295 -1.81925 -3.12387 0
M  V30 1493 O 153.016 -3.2072 -2.98446 0
M  V30 1494 C 154.517 -1.76442 -4.06673 0
M  V30 1495 H 151.737 -0.400911 -0.538063 0
M  V30 1496 H 154.281 -1.67332 -1.1756 0
M  V30 1497 H 152.436 -1.33696 -3.63599 0
M  V30 1498 H 152.85 -3.53802 -3.872 0
M  V30 1499 H 154.324 -2.27781 -5.02812 0
M  V30 1500 H 154.801 -0.731608 -4.33064 0
M  V30 1501 H 155.407 -2.24238 -3.61382 0
M  V30 1502 N 153.722 1.14298 -1.08507 0
M  V30 1503 C 154.947 1.8976 -0.837001 0
M  V30 1504 C 155.372 1.78097 0.605228 0
M  V30 1505 O 154.73 1.12188 1.4242 0
M  V30 1506 C 154.778 3.37685 -1.26495 0
M  V30 1507 O 153.882 4.10281 -0.417514 0
M  V30 1508 H 153.223 0.590365 -0.303917 0
M  V30 1509 H 155.753 1.44672 -1.44676 0
M  V30 1510 H 155.763 3.88501 -1.24625 0
M  V30 1511 H 154.438 3.45492 -2.31534 0
M  V30 1512 H 153.015 3.69536 -0.499722 0
M  V30 1513 N 155.201 0.870884 1.31352 0
M  V30 1514 C 156.426 0.495957 2.01383 0
M  V30 1515 C 156.851 -0.904324 1.64935 0
M  V30 1516 O 156.209 -1.59687 0.858466 0
M  V30 1517 C 156.257 0.661433 3.54482 0
M  V30 1518 O 155.361 -0.298851 4.11316 0
M  V30 1519 H 154.702 0.197158 0.634054 0
M  V30 1520 H 157.232 1.17455 1.67527 0
M  V30 1521 H 157.242 0.555072 4.04207 0
M  V30 1522 H 155.917 1.68246 3.8035 0
M  V30 1523 H 154.494 -0.147368 3.72609 0
M  V30 1524 N 156.679 -1.44442 0.630414 0
M  V30 1525 C 157.927 -2.01653 0.134351 0
M  V30 1526 C 158.248 -1.49836 -1.24796 0
M  V30 1527 O 157.518 -0.701684 -1.82902 0
M  V30 1528 H 156.098 -0.74554 0.0466769 0
M  V30 1529 H 158.76 -1.76952 0.816955 0
M  V30 1530 H 157.856 -3.11935 0.101498 0
M  V30 1531 N 158.157 -0.370918 -1.53173 0
M  V30 1532 C 159.089 0.507823 -2.23503 0
M  V30 1533 C 160.102 1.04182 -1.251 0
M  V30 1534 O 161.291 0.947286 -1.5129 0
M  V30 1535 C 158.391 1.71447 -2.92334 0
M  V30 1536 C 157.564 1.31105 -4.17289 0
M  V30 1537 C 156.623 2.38035 -4.69282 0
M  V30 1538 O 155.649 2.00204 -5.32829 0
M  V30 1539 N 156.851 3.69697 -4.47554 0
M  V30 1540 H 159.616 -0.0946382 -2.99551 0
M  V30 1541 H 157.177 -0.196358 -1.60705 0
M  V30 1542 H 159.169 2.42469 -3.24023 0
M  V30 1543 H 157.739 2.22368 -2.19707 0
M  V30 1544 H 156.959 0.430462 -3.91843 0
M  V30 1545 H 158.247 1.0179 -4.98514 0
M  V30 1546 H 157.645 4.03205 -3.9679 0
M  V30 1547 H 156.202 4.36807 -4.8378 0
M  V30 1548 N 159.635 1.57281 -0.100228 0
M  V30 1549 C 160.865 1.98591 0.569681 0
M  V30 1550 C 161.273 0.978315 1.61943 0
M  V30 1551 O 160.616 -0.0396108 1.83657 0
M  V30 1552 C 160.678 3.36282 1.271 0
M  V30 1553 C 160.342 4.55488 0.371409 0
M  V30 1554 C 161.339 5.18491 -0.382504 0
M  V30 1555 C 159.024 5.01474 0.287965 0
M  V30 1556 C 161.018 6.25852 -1.20779 0
M  V30 1557 C 158.705 6.08701 -0.540965 0
M  V30 1558 C 159.703 6.70755 -1.28749 0
M  V30 1559 O 159.391 7.75914 -2.10269 0
M  V30 1560 H 159.123 0.65752 0.156982 0
M  V30 1561 H 161.677 2.0463 -0.177734 0
M  V30 1562 H 159.907 3.26941 2.0651 0
M  V30 1563 H 161.596 3.62005 1.83595 0
M  V30 1564 H 162.362 4.83891 -0.3278 0
M  V30 1565 H 158.241 4.52932 0.858689 0
M  V30 1566 H 161.785 6.74218 -1.79096 0
M  V30 1567 H 157.682 6.42732 -0.597131 0
M  V30 1568 H 158.45 7.92925 -2.03007 0
M  V30 1569 N 161.113 -0.173488 1.56642 0
M  V30 1570 C 162.362 -0.888758 1.81063 0
M  V30 1571 C 162.675 -1.83506 0.67712 0
M  V30 1572 O 163.881 -2.59254 0.806206 0
M  V30 1573 C 162.337 -1.63091 3.20826 0
M  V30 1574 C 161.945 -0.728357 4.4204 0
M  V30 1575 C 163.689 -2.33454 3.54541 0
M  V30 1576 C 161.596 -1.47062 5.72823 0
M  V30 1577 H 160.526 -0.335618 0.675186 0
M  V30 1578 H 163.177 -0.141712 1.82952 0
M  V30 1579 H 161.559 -2.42263 3.13248 0
M  V30 1580 H 162.733 0.0262449 4.60793 0
M  V30 1581 H 161.048 -0.134492 4.16183 0
M  V30 1582 H 163.645 -2.89578 4.49498 0
M  V30 1583 H 163.988 -3.08687 2.79317 0
M  V30 1584 H 164.521 -1.61227 3.63663 0
M  V30 1585 H 161.26 -0.760658 6.51072 0
M  V30 1586 H 160.78 -2.1986 5.58052 0
M  V30 1587 H 162.459 -2.01868 6.14702 0
M  V30 1588 N 162.591 -1.51276 -0.441967 0
M  V30 1589 C 163.554 -1.7167 -1.51862 0
M  V30 1590 C 164.554 -0.586793 -1.49711 0
M  V30 1591 O 165.744 -0.854276 -1.51815 0
M  V30 1592 C 162.876 -1.76889 -2.91416 0
M  V30 1593 H 164.069 -2.67754 -1.35084 0
M  V30 1594 H 161.622 -1.41196 -0.670333 0
M  V30 1595 H 162.357 -0.826026 -3.13604 0
M  V30 1596 H 162.142 -2.59001 -2.94382 0
M  V30 1597 H 163.632 -1.94522 -3.69528 0
M  V30 1598 N 164.069 0.697108 -1.41344 0
M  V30 1599 C 165.318 1.45279 -1.39918 0
M  V30 1600 C 165.631 1.95597 -0.0109624 0
M  V30 1601 O 166.837 2.71208 0.125919 0
M  V30 1602 C 165.293 2.62695 -2.46007 0
M  V30 1603 C 164.901 2.19169 -3.90729 0
M  V30 1604 C 166.645 3.40336 -2.53715 0
M  V30 1605 C 164.552 3.33535 -4.88373 0
M  V30 1606 H 163.482 0.545692 -0.520323 0
M  V30 1607 H 166.133 0.756929 -1.67161 0
M  V30 1608 H 164.515 3.34541 -2.11892 0
M  V30 1609 H 165.689 1.54623 -4.34083 0
M  V30 1610 H 164.004 1.54525 -3.86666 0
M  V30 1611 H 166.601 4.2547 -3.2385 0
M  V30 1612 H 166.944 3.85418 -1.5735 0
M  V30 1613 H 167.477 2.75546 -2.86913 0
M  V30 1614 H 164.216 2.93468 -5.86137 0
M  V30 1615 H 163.736 3.96936 -4.49668 0
M  V30 1616 H 165.415 3.99335 -5.09059 0
M  V30 1617 N 165.547 1.27147 0.931209 0
M  V30 1618 C 166.51 1.09615 2.01289 0
M  V30 1619 C 167.51 0.0412581 1.60747 0
M  V30 1620 O 168.7 0.285545 1.71844 0
M  V30 1621 C 165.832 0.669447 3.34262 0
M  V30 1622 H 167.025 2.05662 2.18273 0
M  V30 1623 H 164.578 1.09885 1.11153 0
M  V30 1624 H 165.313 -0.292572 3.22978 0
M  V30 1625 H 165.098 1.43127 3.65044 0
M  V30 1626 H 166.588 0.568921 4.13706 0
M  V30 1627 N 167.025 -1.13721 1.09112 0
M  V30 1628 C 168.436 -1.6648 0.845068 0
M  V30 1629 C 168.787 -1.85911 -0.62701 0
M  V30 1630 O 167.912 -1.57556 -1.48341 0
M  V30 1631 C 168.507 -3.02413 1.52748 0
M  V30 1632 C 167.066 -3.52176 1.32849 0
M  V30 1633 C 166.213 -2.27492 1.58564 0
M  V30 1634 H 169.164 -0.976872 1.25072 0
M  V30 1635 H 169.185 -3.68223 0.958752 0
M  V30 1636 H 168.697 -2.88238 2.59885 0
M  V30 1637 H 166.798 -3.7156 0.278137 0
M  V30 1638 H 166.911 -4.32499 2.0611 0
M  V30 1639 H 165.275 -2.33923 1.00758 0
M  V30 1640 H 166.058 -2.15886 2.66924 0
M  V30 1641 N 168.503 -0.877838 -1.30888 0
M  V30 1642 C 169.451 -0.328662 -2.30266 0
M  V30 1643 C 170.445 0.560496 -1.59859 0
M  V30 1644 O 171.651 0.445722 -1.74394 0
M  V30 1645 H 168.026 -0.0876142 -0.746879 0
M  V30 1646 H 169.997 -1.18061 -2.74051 0
M  V30 1647 C 168.746 0.448071 -3.44801 0
M  V30 1648 H 168.069 -0.226859 -3.99156 0
M  V30 1649 H 169.509 0.797541 -4.16432 0
M  V30 1650 C 167.968 1.64239 -2.94155 0
M  V30 1651 O 168.498 2.74175 -2.93583 0
M  V30 1652 N 166.704 1.47716 -2.50256 0
M  V30 1653 H 166.251 0.582821 -2.5092 0
M  V30 1654 H 166.209 2.27765 -2.16727 0
M  V30 1655 N 169.982 1.44106 -0.638065 0
M  V30 1656 C 171.23 2.01579 -0.145043 0
M  V30 1657 C 171.551 1.50496 1.24 0
M  V30 1658 O 170.821 0.711374 1.82527 0
M  V30 1659 H 169.401 0.745282 -0.05063 0
M  V30 1660 H 172.063 1.76516 -0.826327 0
M  V30 1661 H 171.159 3.11877 -0.118039 0
M  V30 1662 N 171.46 0.379036 1.52974 0
M  V30 1663 C 172.423 -0.448865 2.24762 0
M  V30 1664 C 173.423 -0.998689 1.26027 0
M  V30 1665 O 174.613 -0.882313 1.50203 0
M  V30 1666 C 171.745 -1.62872 2.99476 0
M  V30 1667 H 172.938 0.179491 2.99362 0
M  V30 1668 H 170.491 0.13096 1.5575 0
M  V30 1669 H 171.226 -2.29479 2.29151 0
M  V30 1670 H 171.011 -1.24128 3.71934 0
M  V30 1671 H 172.501 -2.2151 3.5401 0
M  V30 1672 N 172.938 -1.57226 0.108567 0
M  V30 1673 C 173.868 -2.17778 -0.84232 0
M  V30 1674 C 174.849 -1.11487 -1.2847 0
M  V30 1675 O 176.034 -1.39681 -1.34918 0
M  V30 1676 C 173.164 -2.76888 -2.09644 0
M  V30 1677 C 172.118 -3.88669 -1.79221 0
M  V30 1678 C 171.444 -4.34541 -3.11574 0
M  V30 1679 C 172.744 -5.11251 -1.06864 0
M  V30 1680 H 174.438 -2.97489 -0.337774 0
M  V30 1681 H 171.984 -1.43097 -0.161025 0
M  V30 1682 H 173.937 -3.17904 -2.76614 0
M  V30 1683 H 172.661 -1.94451 -2.62405 0
M  V30 1684 H 171.32 -3.48213 -1.14644 0
M  V30 1685 H 170.968 -3.48977 -3.62249 0
M  V30 1686 H 170.668 -5.09914 -2.91996 0
M  V30 1687 H 172.192 -4.782 -3.7968 0
M  V30 1688 H 173.606 -5.49352 -1.63968 0
M  V30 1689 H 172.003 -5.9214 -0.974178 0
M  V30 1690 H 173.073 -4.8487 -0.0536168 0
M  V30 1691 N 174.416 0.165178 -1.56732 0
M  V30 1692 C 175.348 1.22911 -1.93457 0
M  V30 1693 C 176.361 1.40152 -0.828333 0
M  V30 1694 O 177.55 1.40046 -1.10677 0
M  V30 1695 C 174.65 2.59686 -2.17753 0
M  V30 1696 C 173.823 2.63663 -3.48999 0
M  V30 1697 C 172.882 3.81845 -3.62051 0
M  V30 1698 O 171.908 3.67559 -4.34613 0
M  V30 1699 N 173.11 4.98557 -2.97357 0
M  V30 1700 H 175.875 0.917118 -2.85323 0
M  V30 1701 H 173.436 0.354895 -1.57962 0
M  V30 1702 H 175.428 3.37225 -2.23743 0
M  V30 1703 H 173.998 2.83251 -1.32242 0
M  V30 1704 H 173.218 1.72173 -3.54612 0
M  V30 1705 H 174.506 2.63336 -4.35352 0
M  V30 1706 H 173.904 5.13065 -2.38287 0
M  V30 1707 H 172.461 5.73936 -3.08934 0
M  V30 1708 N 175.894 1.51508 0.433938 0
M  V30 1709 C 176.824 1.76016 1.53429 0
M  V30 1710 C 177.805 0.610112 1.58782 0
M  V30 1711 O 178.99 0.853177 1.74455 0
M  V30 1712 C 176.12 1.88831 2.9148 0
M  V30 1713 C 175.074 3.04288 3.00987 0
M  V30 1714 C 174.4 3.0229 4.4105 0
M  V30 1715 C 175.7 4.44193 2.74754 0
M  V30 1716 H 177.394 2.68152 1.33171 0
M  V30 1717 H 174.94 1.29035 0.639214 0
M  V30 1718 H 176.893 2.04559 3.6842 0
M  V30 1719 H 175.617 0.933455 3.12976 0
M  V30 1720 H 174.276 2.8827 2.26486 0
M  V30 1721 H 173.924 2.04576 4.59519 0
M  V30 1722 H 173.624 3.79822 4.4834 0
M  V30 1723 H 175.148 3.20116 5.1996 0
M  V30 1724 H 176.562 4.60544 3.41426 0
M  V30 1725 H 174.959 5.23457 2.9345 0
M  V30 1726 H 176.029 4.53996 1.70339 0
M  V30 1727 N 177.372 -0.689602 1.41712 0
M  V30 1728 C 178.335 -1.78521 1.43746 0
M  V30 1729 C 179.335 -1.57436 0.327191 0
M  V30 1730 O 180.525 -1.64 0.587348 0
M  V30 1731 C 177.657 -3.16971 1.25467 0
M  V30 1732 H 178.85 -1.78108 2.41283 0
M  V30 1733 H 176.403 -0.89781 1.27942 0
M  V30 1734 H 177.138 -3.23019 0.287948 0
M  V30 1735 H 176.923 -3.33678 2.05917 0
M  V30 1736 H 178.413 -3.96935 1.2974 0
M  V30 1737 N 178.85 -1.27639 -0.924453 0
M  V30 1738 C 180.075 -1.17101 -1.71179 0
M  V30 1739 C 180.5 0.268134 -1.86179 0
M  V30 1740 O 179.858 1.19415 -1.36418 0
M  V30 1741 C 179.906 -1.86313 -3.08739 0
M  V30 1742 O 179.01 -1.16331 -3.95652 0
M  V30 1743 H 178.351 -0.407091 -0.524569 0
M  V30 1744 H 180.881 -1.68767 -1.15666 0
M  V30 1745 H 180.891 -1.938 -3.59034 0
M  V30 1746 H 179.566 -2.91001 -2.97138 0
M  V30 1747 H 178.143 -1.16935 -3.54091 0
M  V30 1748 N 180.328 1.1314 -1.09713 0
M  V30 1749 C 181.739 1.66029 -0.853885 0
M  V30 1750 C 182.09 1.86241 0.617142 0
M  V30 1751 O 181.215 1.5834 1.47503 0
M  V30 1752 C 181.81 3.01599 -1.5435 0
M  V30 1753 C 180.369 3.51467 -1.34714 0
M  V30 1754 C 179.516 2.26648 -1.59769 0
M  V30 1755 H 182.467 0.970226 -1.25588 0
M  V30 1756 H 182.488 3.67709 -0.978267 0
M  V30 1757 H 182 2.86856 -2.6141 0
M  V30 1758 H 180.101 3.71408 -0.297838 0
M  V30 1759 H 180.214 4.314 -2.08401 0
M  V30 1760 H 178.578 2.33385 -1.01998 0
M  V30 1761 H 179.361 2.14467 -2.68065 0
M  V30 1762 N 181.806 0.884767 1.30421 0
M  V30 1763 C 183.054 0.502112 1.95763 0
M  V30 1764 C 183.375 -0.951815 1.70192 0
M  V30 1765 O 182.645 -1.6692 1.0254 0
M  V30 1766 H 181.225 0.182694 0.724315 0
M  V30 1767 H 183.887 1.1278 1.58955 0
M  V30 1768 H 182.983 0.672188 3.04775 0
M  V30 1769 N 183.284 -1.43765 0.645699 0
M  V30 1770 C 184.512 -2.06253 0.163556 0
M  V30 1771 C 184.927 -1.48352 -1.16778 0
M  V30 1772 O 184.284 -0.611932 -1.71935 0
M  V30 1773 C 184.335 -3.61453 0.0583186 0
M  V30 1774 O 184.056 -4.172 1.33702 0
M  V30 1775 C 185.557 -4.41002 -0.450795 0
M  V30 1776 H 182.777 -0.665413 0.0864077 0
M  V30 1777 H 185.321 -1.84396 0.884222 0
M  V30 1778 H 183.476 -3.82522 -0.612865 0
M  V30 1779 H 183.89 -5.10791 1.19131 0
M  V30 1780 H 185.364 -5.49966 -0.473403 0
M  V30 1781 H 185.841 -4.13488 -1.48068 0
M  V30 1782 H 186.447 -4.24886 0.187637 0
M  V30 1783 N 184.763 -0.387143 -1.52771 0
M  V30 1784 C 186.04 0.253197 -1.93954 0
M  V30 1785 C 186.42 1.64545 -1.32243 0
M  V30 1786 O 185.768 2.23191 -0.489699 0
M  V30 1787 C 185.978 0.281722 -3.47861 0
M  V30 1788 C 187.326 0.511715 -4.21505 0
M  V30 1789 O 188.35 0.362023 -3.54356 0
M  V30 1790 O 187.209 0.804847 -5.40541 0
M  V30 1791 H 184.303 0.156845 -0.811991 0
M  V30 1792 H 186.849 -0.441494 -1.63856 0
M  V30 1793 H 185.621 -0.693571 -3.85104 0
M  V30 1794 H 185.244 1.02142 -3.84256 0
M  V30 1795 N 186.241 1.57166 -0.116904 0
M  V30 1796 C 187.489 1.94737 0.540533 0
M  V30 1797 C 187.81 1.00096 1.67349 0
M  V30 1798 O 187.08 0.0568854 1.95817 0
M  V30 1799 H 185.66 0.718981 0.202669 0
M  V30 1800 H 188.322 1.94017 -0.185353 0
M  V30 1801 H 187.418 2.97719 0.936483 0
M  V30 1802 N 187.719 -0.156864 1.56817 0
M  V30 1803 C 188.965 -0.872416 1.83076 0
M  V30 1804 C 189.298 -1.81261 0.697001 0
M  V30 1805 O 188.573 -1.92171 -0.30008 0
M  V30 1806 C 188.856 -1.65551 3.19789 0
M  V30 1807 C 188.709 -0.737467 4.43713 0
M  V30 1808 C 190.028 -2.62012 3.53606 0
M  V30 1809 H 187.147 -0.315715 0.665953 0
M  V30 1810 H 189.789 -0.138004 1.89498 0
M  V30 1811 H 187.939 -2.28159 3.14445 0
M  V30 1812 H 189.611 -0.123143 4.61136 0
M  V30 1813 H 187.854 -0.0464067 4.33775 0
M  V30 1814 H 188.525 -1.32122 5.35955 0
M  V30 1815 H 191.001 -2.09525 3.59497 0
M  V30 1816 H 189.877 -3.13861 4.50314 0
M  V30 1817 H 190.138 -3.42902 2.79053 0
M  V30 1818 N 189.197 -1.51736 -0.425897 0
M  V30 1819 C 190.129 -1.70083 -1.53638 0
M  V30 1820 C 191.142 -0.581349 -1.52066 0
M  V30 1821 O 192.331 -0.856017 -1.56635 0
M  V30 1822 C 189.431 -1.71078 -2.9255 0
M  V30 1823 C 188.604 -2.99795 -3.185 0
M  V30 1824 C 187.663 -2.92825 -4.37196 0
M  V30 1825 O 186.689 -3.66756 -4.35291 0
M  V30 1826 N 187.891 -2.0946 -5.41393 0
M  V30 1827 H 190.656 -2.65882 -1.383 0
M  V30 1828 H 188.217 -1.49765 -0.614988 0
M  V30 1829 H 190.209 -1.63969 -3.69995 0
M  V30 1830 H 188.779 -0.828242 -3.01428 0
M  V30 1831 H 187.999 -3.20684 -2.2925 0
M  V30 1832 H 189.287 -3.84977 -3.32671 0
M  V30 1833 H 188.685 -1.48792 -5.45781 0
M  V30 1834 H 187.242 -2.08221 -6.17647 0
M  V30 1835 N 190.675 0.682077 -1.42076 0
M  V30 1836 C 191.923 1.4393 -1.41876 0
M  V30 1837 C 192.244 1.94971 -0.0335599 0
M  V30 1838 O 191.514 1.72591 0.926773 0
M  V30 1839 H 190.094 0.534085 -0.522267 0
M  V30 1840 H 192.756 0.806427 -1.77434 0
M  V30 1841 H 191.852 2.29588 -2.11414 0
M  V30 1842 N 192.153 1.28127 0.917671 0
M  V30 1843 C 193.083 1.14248 2.03641 0
M  V30 1844 C 194.064 0.0412748 1.7005 0
M  V30 1845 O 195.249 0.217566 1.92977 0
M  V30 1846 C 192.379 0.799431 3.37974 0
M  V30 1847 C 191.333 1.85497 3.85713 0
M  V30 1848 C 190.659 1.36565 5.16966 0
M  V30 1849 C 191.959 3.26085 4.08002 0
M  V30 1850 H 193.653 2.07835 2.15511 0
M  V30 1851 H 191.199 1.00064 1.03553 0
M  V30 1852 H 193.152 0.689114 4.15727 0
M  V30 1853 H 191.876 -0.172145 3.26146 0
M  V30 1854 H 190.535 1.95437 3.10161 0
M  V30 1855 H 190.183 0.383253 5.01538 0
M  V30 1856 H 189.883 2.07143 5.49878 0
M  V30 1857 H 191.407 1.26848 5.97279 0
M  V30 1858 H 192.821 3.19089 4.76293 0
M  V30 1859 H 191.218 3.94462 4.52238 0
M  V30 1860 H 192.288 3.70394 3.12948 0
M  V30 1861 N 193.631 -1.12557 1.10312 0
M  V30 1862 C 194.563 -2.17971 0.708625 0
M  V30 1863 C 195.576 -1.60806 -0.254027 0
M  V30 1864 O 196.765 -1.78458 -0.0386891 0
M  V30 1865 C 193.865 -3.38891 0.0248198 0
M  V30 1866 C 193.038 -4.25548 1.01132 0
M  V30 1867 C 192.097 -5.24972 0.35924 0
M  V30 1868 O 191.123 -5.60174 1.00965 0
M  V30 1869 N 192.325 -5.73747 -0.882847 0
M  V30 1870 H 195.09 -2.52427 1.61557 0
M  V30 1871 H 192.651 -1.27967 0.991771 0
M  V30 1872 H 194.643 -4.02485 -0.422852 0
M  V30 1873 H 193.213 -3.02596 -0.784514 0
M  V30 1874 H 192.433 -3.58589 1.6373 0
M  V30 1875 H 193.721 -4.80294 1.67914 0
M  V30 1876 H 193.119 -5.4731 -1.43065 0
M  V30 1877 H 191.676 -6.39234 -1.27369 0
M  V30 1878 N 195.109 -0.891671 -1.2995 0
M  V30 1879 C 196.337 -0.52866 -2.00032 0
M  V30 1880 C 196.752 0.884574 -1.66795 0
M  V30 1881 O 196.109 1.5827 -0.908669 0
M  V30 1882 C 196.16 -0.701814 -3.54622 0
M  V30 1883 O 195.881 -2.05942 -3.86678 0
M  V30 1884 C 197.382 -0.342683 -4.41973 0
M  V30 1885 H 194.602 -0.203659 -0.639347 0
M  V30 1886 H 197.146 -1.19881 -1.65677 0
M  V30 1887 H 195.301 -0.0789468 -3.8732 0
M  V30 1888 H 195.715 -2.08291 -4.81368 0
M  V30 1889 H 197.189 -0.514709 -5.49595 0
M  V30 1890 H 197.666 0.71975 -4.33262 0
M  V30 1891 H 198.272 -0.942154 -4.14733 0
M  V30 1892 N 196.587 1.43421 -0.653314 0
M  V30 1893 C 197.517 2.33487 0.0246656 0
M  V30 1894 C 198.498 1.49475 0.811863 0
M  V30 1895 O 199.683 1.78139 0.773322 0
M  V30 1896 C 196.813 3.32841 0.99166 0
M  V30 1897 C 195.767 4.26842 0.314568 0
M  V30 1898 C 195.093 5.16236 1.39302 0
M  V30 1899 C 196.393 5.16243 -0.793095 0
M  V30 1900 H 198.087 2.90427 -0.727481 0
M  V30 1901 H 195.633 1.39649 -0.351287 0
M  V30 1902 H 197.586 3.94747 1.47487 0
M  V30 1903 H 196.31 2.74158 1.77497 0
M  V30 1904 H 194.969 3.663 -0.148199 0
M  V30 1905 H 194.617 4.53891 2.16776 0
M  V30 1906 H 194.317 5.79948 0.945223 0
M  V30 1907 H 195.841 5.81015 1.87759 0
M  V30 1908 H 197.255 5.71958 -0.392039 0
M  V30 1909 H 195.652 5.88676 -1.16536 0
M  V30 1910 H 196.722 4.55927 -1.65103 0
M  V30 1911 N 198.065 0.39524 1.52563 0
M  V30 1912 C 199.293 -0.184943 2.06072 0
M  V30 1913 C 199.708 -1.40021 1.26647 0
M  V30 1914 O 199.065 -1.79767 0.314672 0
M  V30 1915 C 199.116 -0.549179 3.57304 0
M  V30 1916 O 198.837 0.617813 4.33722 0
M  V30 1917 C 200.338 -1.18459 4.2718 0
M  V30 1918 H 197.558 -0.0265025 0.670476 0
M  V30 1919 H 200.102 0.562184 1.96621 0
M  V30 1920 H 198.257 -1.2462 3.66809 0
M  V30 1921 H 198.671 0.317091 5.23541 0
M  V30 1922 H 200.145 -1.38976 5.34219 0
M  V30 1923 H 200.622 -2.15368 3.82771 0
M  V30 1924 H 201.228 -0.528163 4.22008 0
M  V30 1925 N 199.544 -1.57102 0.125237 0
M  V30 1926 C 200.477 -2.11371 -0.860094 0
M  V30 1927 C 201.455 -1.03168 -1.25679 0
M  V30 1928 O 202.639 -1.30862 -1.35674 0
M  V30 1929 C 199.766 -2.61555 -2.1519 0
M  V30 1930 C 198.812 -3.81701 -1.9028 0
M  V30 1931 S 199.645 -5.23797 -1.11343 0
M  V30 1932 C 200.801 -5.77353 -2.41689 0
M  V30 1933 H 201.034 -2.94617 -0.39852 0
M  V30 1934 H 198.567 -1.54145 -0.0886555 0
M  V30 1935 H 200.525 -2.91122 -2.89411 0
M  V30 1936 H 199.186 -1.78479 -2.58465 0
M  V30 1937 H 198.379 -4.14985 -2.86014 0
M  V30 1938 H 197.981 -3.52783 -1.24178 0
M  V30 1939 H 200.273 -5.87458 -3.37489 0
M  V30 1940 H 201.216 -6.75323 -2.12942 0
M  V30 1941 H 201.624 -5.05457 -2.51342 0
M  V30 1942 N 201.022 0.148545 -1.56898 0
M  V30 1943 C 202.25 0.876389 -1.87422 0
M  V30 1944 C 202.665 1.74809 -0.713256 0
M  V30 1945 O 202.022 1.79725 0.317025 0
M  V30 1946 C 202.073 1.73438 -3.17178 0
M  V30 1947 O 201.794 0.897809 -4.28802 0
M  V30 1948 C 203.295 2.56993 -3.61205 0
M  V30 1949 H 200.515 0.253489 -0.621277 0
M  V30 1950 H 203.059 0.141798 -2.04008 0
M  V30 1951 H 201.214 2.42205 -3.0235 0
M  V30 1952 H 201.628 1.48672 -5.02988 0
M  V30 1953 H 203.102 3.12773 -4.54838 0
M  V30 1954 H 203.579 3.32958 -2.86419 0
M  V30 1955 H 204.185 1.9352 -3.78722 0
M  V30 1956 N 202.5 1.5196 0.417844 0
M  V30 1957 C 203.448 1.75278 1.52907 0
M  V30 1958 C 204.442 0.619611 1.57662 0
M  V30 1959 O 205.648 0.801457 1.61173 0
M  V30 1960 H 202.023 0.554141 0.508362 0
M  V30 1961 H 203.994 2.68389 1.30422 0
M  V30 1962 C 202.743 1.91262 2.90369 0
M  V30 1963 H 202.066 2.77872 2.8745 0
M  V30 1964 H 203.506 2.11581 3.67436 0
M  V30 1965 C 201.965 0.677431 3.30019 0
M  V30 1966 O 202.495 -0.158799 4.01386 0
M  V30 1967 N 200.701 0.515851 2.85985 0
M  V30 1968 H 200.248 1.19744 2.28077 0
M  V30 1969 H 200.206 -0.309315 3.12875 0
M  V30 1970 N 203.978 -0.674533 1.42435 0
M  V30 1971 C 205.203 -1.46784 1.46524 0
M  V30 1972 C 205.628 -1.87938 0.078066 0
M  V30 1973 O 204.986 -1.56014 -0.92354 0
M  V30 1974 C 205.034 -2.69307 2.39805 0
M  V30 1975 O 204.138 -3.67587 1.86959 0
M  V30 1976 H 203.479 -0.440959 0.496439 0
M  V30 1977 H 206.009 -0.827326 1.87127 0
M  V30 1978 H 206.019 -3.17374 2.56393 0
M  V30 1979 H 204.694 -2.38692 3.40586 0
M  V30 1980 H 203.271 -3.2662 1.79927 0
M  V30 1981 N 205.456 -1.28612 -0.910864 0
M  V30 1982 C 206.704 -1.15705 -1.65701 0
M  V30 1983 C 207.025 0.29416 -1.92769 0
M  V30 1984 O 206.295 1.20331 -1.54588 0
M  V30 1985 H 204.875 -0.425216 -0.614167 0
M  V30 1986 H 207.537 -1.61381 -1.0928 0
M  V30 1987 H 206.633 -1.6988 -2.61815 0
M  V30 1988 N 206.934 1.1197 -1.10907 0
M  V30 1989 C 208.159 1.87942 -0.877064 0
M  V30 1990 C 208.584 1.79341 0.567314 0
M  V30 1991 O 207.942 1.15184 1.40009 0
M  V30 1992 C 207.99 3.34926 -1.33629 0
M  V30 1993 O 207.094 4.09303 -0.504447 0
M  V30 1994 H 206.435 0.583785 -0.316371 0
M  V30 1995 H 208.965 1.4157 -1.47712 0
M  V30 1996 H 208.975 3.8577 -1.32837 0
M  V30 1997 H 207.65 3.40504 -2.3881 0
M  V30 1998 H 206.227 3.68393 -0.577993 0
M  V30 1999 N 208.412 0.89855 1.29475 0
M  V30 2000 C 209.64 0.539261 1.99749 0
M  V30 2001 C 210.055 -0.875716 1.67262 0
M  V30 2002 O 209.412 -1.57786 0.917049 0
M  V30 2003 C 209.463 0.72061 3.54245 0
M  V30 2004 O 209.184 2.07989 3.8558 0
M  V30 2005 C 210.685 0.366118 4.41786 0
M  V30 2006 H 207.905 0.207047 0.638258 0
M  V30 2007 H 210.449 1.20758 1.65039 0
M  V30 2008 H 208.604 0.0994862 3.87272 0
M  V30 2009 H 209.018 2.10841 4.80257 0
M  V30 2010 H 210.492 0.543848 5.49314 0
M  V30 2011 H 210.969 -0.696763 4.33638 0
M  V30 2012 H 211.575 0.964135 4.14228 0
M  V30 2013 N 209.89 -1.43072 0.660911 0
M  V30 2014 C 210.822 -2.29108 -0.0647641 0
M  V30 2015 C 211.835 -1.42928 -0.779448 0
M  V30 2016 O 213.024 -1.66788 -0.635921 0
M  V30 2017 C 210.124 -3.20032 -1.11503 0
M  V30 2018 C 209.297 -4.34792 -0.476955 0
M  V30 2019 C 208.356 -5.06534 -1.42513 0
M  V30 2020 O 207.382 -5.61538 -0.930771 0
M  V30 2021 N 208.584 -5.1075 -2.75889 0
M  V30 2022 H 211.349 -2.92029 0.673731 0
M  V30 2023 H 208.91 -1.53846 0.50427 0
M  V30 2024 H 210.902 -3.64892 -1.75032 0
M  V30 2025 H 209.472 -2.58658 -1.75541 0
M  V30 2026 H 208.692 -3.92752 0.337572 0
M  V30 2027 H 209.98 -5.0879 -0.0318525 0
M  V30 2028 H 209.378 -4.67447 -3.18606 0
M  V30 2029 H 207.935 -5.59302 -3.347 0
M  V30 2030 N 211.368 -0.403325 -1.52352 0
M  V30 2031 C 212.3 0.4603 -2.2453 0
M  V30 2032 C 213.313 1.01505 -1.27282 0
M  V30 2033 O 214.502 0.914982 -1.53266 0
M  V30 2034 C 211.602 1.65208 -2.95905 0
M  V30 2035 C 210.775 1.22224 -4.19976 0
M  V30 2036 C 209.834 2.28028 -4.74226 0
M  V30 2037 O 208.86 1.88857 -5.36956 0
M  V30 2038 N 210.062 3.6012 -4.55295 0
M  V30 2039 H 212.827 -0.158156 -2.99282 0
M  V30 2040 H 210.388 -0.230402 -1.60252 0
M  V30 2041 H 212.38 2.35541 -3.29093 0
M  V30 2042 H 210.95 2.17658 -2.24374 0
M  V30 2043 H 210.17 0.34725 -3.92668 0
M  V30 2044 H 211.458 0.911924 -5.00561 0
M  V30 2045 H 210.856 3.94698 -4.05253 0
M  V30 2046 H 209.413 4.26447 -4.92936 0
M  V30 2047 N 212.846 1.57033 -0.133567 0
M  V30 2048 C 214.094 1.953 0.519848 0
M  V30 2049 C 214.415 1.01866 1.66278 0
M  V30 2050 O 213.685 0.0776513 1.95746 0
M  V30 2051 H 212.265 0.721091 0.195032 0
M  V30 2052 H 214.927 1.93809 -0.205921 0
M  V30 2053 H 214.023 2.98695 0.904854 0
M  V30 2054 N 214.325 -0.140222 1.56975 0
M  V30 2055 C 215.553 -0.866437 1.87884 0
M  V30 2056 C 215.968 -1.74428 0.722517 0
M  V30 2057 O 215.325 -1.79891 -0.30749 0
M  V30 2058 C 215.376 -1.71753 3.18093 0
M  V30 2059 O 215.097 -0.875056 4.29272 0
M  V30 2060 C 216.598 -2.55074 3.62563 0
M  V30 2061 H 213.818 -0.25019 0.622612 0
M  V30 2062 H 216.362 -0.130977 2.0408 0
M  V30 2063 H 214.517 -2.40598 3.03631 0
M  V30 2064 H 214.931 -1.46002 5.03769 0
M  V30 2065 H 216.405 -3.10356 4.5649 0
M  V30 2066 H 216.882 -3.31434 2.88181 0
M  V30 2067 H 217.488 -1.91509 3.79743 0
M  V30 2068 N 215.803 -1.52179 -0.40978 0
M  V30 2069 C 217.031 -1.70054 -1.17853 0
M  V30 2070 C 217.446 -0.409735 -1.843 0
M  V30 2071 O 216.803 0.614183 -1.71855 0
M  V30 2072 C 216.854 -2.83568 -2.24213 0
M  V30 2073 O 216.575 -4.0765 -1.60478 0
M  V30 2074 C 218.076 -3.12947 -3.13973 0
M  V30 2075 H 215.296 -0.569917 -0.354169 0
M  V30 2076 H 217.84 -1.98734 -0.482198 0
M  V30 2077 H 215.995 -2.57409 -2.89516 0
M  V30 2078 H 216.409 -4.70899 -2.30986 0
M  V30 2079 H 217.883 -3.95889 -3.84677 0
M  V30 2080 H 218.36 -2.26472 -3.76307 0
M  V30 2081 H 218.966 -3.40868 -2.5434 0
M  V30 2082 N 217.281 0.66697 -1.42791 0
M  V30 2083 C 218.53 1.42278 -1.42968 0
M  V30 2084 C 218.843 1.9553 -0.0524489 0
M  V30 2085 O 220.049 2.71414 0.068363 0
M  V30 2086 C 218.505 2.57418 -2.51524 0
M  V30 2087 C 218.113 2.10832 -3.9529 0
M  V30 2088 C 219.857 3.34878 -2.60877 0
M  V30 2089 C 217.764 3.23101 -4.95338 0
M  V30 2090 H 216.694 0.534533 -0.531781 0
M  V30 2091 H 219.345 0.721302 -1.68729 0
M  V30 2092 H 217.727 3.29971 -2.18941 0
M  V30 2093 H 218.901 1.4538 -4.37266 0
M  V30 2094 H 217.216 1.46289 -3.89857 0
M  V30 2095 H 219.813 4.18505 -3.32802 0
M  V30 2096 H 220.156 3.81993 -1.6549 0
M  V30 2097 H 220.689 2.69398 -2.92693 0
M  V30 2098 H 217.428 2.80969 -5.9223 0
M  V30 2099 H 216.948 3.87309 -4.57987 0
M  V30 2100 H 218.627 3.88447 -5.17415 0
M  V30 2101 N 218.759 1.29093 0.90403 0
M  V30 2102 C 219.689 1.16401 2.02418 0
M  V30 2103 C 220.67 0.0593085 1.69997 0
M  V30 2104 O 221.855 0.238021 1.92736 0
M  V30 2105 C 218.985 0.835233 3.37107 0
M  V30 2106 C 217.939 1.89578 3.83724 0
M  V30 2107 C 217.265 1.42041 5.15489 0
M  V30 2108 C 218.565 3.30394 4.04521 0
M  V30 2109 H 220.259 2.10109 2.13295 0
M  V30 2110 H 217.805 1.01157 1.02486 0
M  V30 2111 H 219.758 0.733169 4.14973 0
M  V30 2112 H 218.482 -0.137543 3.2631 0
M  V30 2113 H 217.141 1.98715 3.08071 0
M  V30 2114 H 216.789 0.436426 5.01103 0
M  V30 2115 H 216.489 2.12964 5.4765 0
M  V30 2116 H 218.013 1.33176 5.959 0
M  V30 2117 H 219.427 3.24123 4.72882 0
M  V30 2118 H 217.824 3.99237 4.48029 0
M  V30 2119 H 218.894 3.73692 3.09002 0
M  V30 2120 N 220.237 -1.11381 1.11499 0
M  V30 2121 C 221.169 -2.17207 0.731704 0
M  V30 2122 C 222.182 -1.61066 -0.236957 0
M  V30 2123 O 223.371 -1.78489 -0.0197591 0
M  V30 2124 C 220.471 -3.38846 0.0607624 0
M  V30 2125 C 219.644 -4.24451 1.0564 0
M  V30 2126 C 218.703 -5.24562 0.4149 0
M  V30 2127 O 217.729 -5.59071 1.069 0
M  V30 2128 N 218.931 -5.74651 -0.821943 0
M  V30 2129 H 221.696 -2.50699 1.64225 0
M  V30 2130 H 219.257 -1.26908 1.00529 0
M  V30 2131 H 221.249 -4.02911 -0.380139 0
M  V30 2132 H 219.819 -3.03411 -0.752376 0
M  V30 2133 H 219.039 -3.56833 1.67524 0
M  V30 2134 H 220.327 -4.78486 1.72998 0
M  V30 2135 H 219.725 -5.48797 -1.37252 0
M  V30 2136 H 218.282 -6.40549 -1.20582 0
M  V30 2137 N 221.715 -0.905404 -1.28997 0
M  V30 2138 C 222.945 -0.549049 -1.99171 0
M  V30 2139 C 223.353 0.87203 -1.67906 0
M  V30 2140 O 222.696 1.58796 -0.923561 0
M  V30 2141 C 222.758 -0.668306 -3.53234 0
M  V30 2142 C 222.422 -2.0574 -4.08069 0
M  V30 2143 C 223.419 -3.0292 -4.22534 0
M  V30 2144 C 221.104 -2.36833 -4.42962 0
M  V30 2145 C 223.098 -4.29314 -4.71135 0
M  V30 2146 C 220.785 -3.63467 -4.91258 0
M  V30 2147 C 221.783 -4.59522 -5.053 0
M  V30 2148 O 221.471 -5.83907 -5.52546 0
M  V30 2149 H 221.203 -0.208784 -0.64295 0
M  V30 2150 H 223.757 -1.21836 -1.65363 0
M  V30 2151 H 221.987 0.0580547 -3.86656 0
M  V30 2152 H 223.676 -0.320273 -4.04634 0
M  V30 2153 H 224.442 -2.80216 -3.95859 0
M  V30 2154 H 220.321 -1.62824 -4.31288 0
M  V30 2155 H 223.865 -5.04293 -4.8201 0
M  V30 2156 H 219.762 -3.86 -5.17372 0
M  V30 2157 H 220.53 -5.86578 -5.70849 0
M  V30 2158 N 223.193 1.4272 -0.668489 0
M  V30 2159 C 224.156 2.292 0.00448567 0
M  V30 2160 C 225.156 1.43001 0.735339 0
M  V30 2161 O 226.346 1.64461 0.57429 0
M  V30 2162 C 223.478 3.25375 1.01705 0
M  V30 2163 H 224.671 2.90199 -0.756608 0
M  V30 2164 H 222.224 1.50254 -0.430506 0
M  V30 2165 H 222.959 2.69301 1.80686 0
M  V30 2166 H 222.744 3.88944 0.496463 0
M  V30 2167 H 224.234 3.90245 1.48655 0
M  V30 2168 N 224.671 0.411399 1.52136 0
M  V30 2169 C 225.603 -0.448386 2.24771 0
M  V30 2170 C 226.616 -1.00828 1.27818 0
M  V30 2171 O 227.805 -0.906841 1.53749 0
M  V30 2172 C 224.905 -1.63636 2.96777 0
M  V30 2173 C 224.078 -1.19995 4.20618 0
M  V30 2174 C 223.137 -2.25509 4.75428 0
M  V30 2175 O 222.163 -1.86007 5.3795 0
M  V30 2176 N 223.365 -3.577 4.57199 0
M  V30 2177 H 226.13 0.174025 2.99194 0
M  V30 2178 H 223.691 0.238897 1.60128 0
M  V30 2179 H 225.683 -2.33793 3.30338 0
M  V30 2180 H 224.253 -2.16465 2.25526 0
M  V30 2181 H 223.473 -0.326421 3.92846 0
M  V30 2182 H 224.761 -0.885365 5.01038 0
M  V30 2183 H 224.159 -3.92543 4.07341 0
M  V30 2184 H 222.716 -4.23827 4.95191 0
M  V30 2185 N 226.149 -1.5696 0.141893 0
M  V30 2186 C 227.377 -2.00322 -0.517579 0
M  V30 2187 C 227.792 -1.02193 -1.58752 0
M  V30 2188 O 227.149 -0.0181619 -1.82491 0
M  V30 2189 C 227.2 -3.43618 -1.12289 0
M  V30 2190 O 226.921 -4.37995 -0.0956929 0
M  V30 2191 C 228.422 -4.02231 -1.86347 0
M  V30 2192 H 225.642 -0.657243 -0.135177 0
M  V30 2193 H 228.186 -2.03146 0.234973 0
M  V30 2194 H 226.341 -3.41662 -1.82609 0
M  V30 2195 H 226.755 -5.21729 -0.538469 0
M  V30 2196 H 228.229 -5.04509 -2.23997 0
M  V30 2197 H 228.706 -3.42655 -2.74744 0
M  V30 2198 H 229.312 -4.07802 -1.20737 0
M  V30 2199 N 227.627 0.131896 -1.57047 0
M  V30 2200 C 228.852 0.860418 -1.8871 0
M  V30 2201 C 229.277 1.73251 -0.73251 0
M  V30 2202 O 228.635 1.785 0.317429 0
M  V30 2203 C 228.683 1.68047 -3.19049 0
M  V30 2204 O 227.787 2.7862 -3.04047 0
M  V30 2205 H 227.128 0.238743 -0.619595 0
M  V30 2206 H 229.658 0.118169 -2.04258 0
M  V30 2207 H 229.668 2.07238 -3.51449 0
M  V30 2208 H 228.343 1.04018 -4.02682 0
M  V30 2209 H 226.92 2.42726 -2.83088 0
M  V30 2210 N 229.106 1.52395 0.401703 0
M  V30 2211 C 230.383 1.57387 1.16141 0
M  V30 2212 C 230.763 0.359359 2.08019 0
M  V30 2213 O 230.111 -0.65326 2.18963 0
M  V30 2214 C 230.321 2.90631 1.93221 0
M  V30 2215 C 231.669 3.43904 2.49028 0
M  V30 2216 O 232.693 2.92421 2.03393 0
M  V30 2217 O 231.552 4.33823 3.32356 0
M  V30 2218 H 228.646 0.634262 0.530698 0
M  V30 2219 H 231.192 1.64725 0.407883 0
M  V30 2220 H 229.964 3.70473 1.25958 0
M  V30 2221 H 229.587 2.8662 2.75563 0
M  V30 2222 N 230.584 -0.659388 1.43143 0
M  V30 2223 C 231.832 -1.41654 1.44147 0
M  V30 2224 C 232.153 -1.94893 0.0645739 0
M  V30 2225 O 231.423 -1.74044 -0.899198 0
M  V30 2226 H 230.003 -0.525708 0.530697 0
M  V30 2227 H 232.665 -0.778097 1.78694 0
M  V30 2228 H 231.761 -2.26195 2.1504 0
M  V30 2229 N 232.062 -1.29571 -0.897171 0
M  V30 2230 C 232.994 -1.10724 -2.00681 0
M  V30 2231 C 234.007 -0.0540026 -1.6271 0
M  V30 2232 O 235.196 -0.298783 -1.75982 0
M  V30 2233 C 232.296 -0.663912 -3.32333 0
M  V30 2234 C 231.469 -1.79622 -3.98816 0
M  V30 2235 C 230.528 -1.34349 -5.0876 0
M  V30 2236 O 229.554 -2.04864 -5.31055 0
M  V30 2237 N 230.756 -0.215764 -5.80099 0
M  V30 2238 H 233.521 -2.06291 -2.17403 0
M  V30 2239 H 231.082 -1.21544 -1.06951 0
M  V30 2240 H 233.074 -0.344295 -4.03233 0
M  V30 2241 H 231.644 0.199375 -3.11964 0
M  V30 2242 H 230.864 -2.28459 -3.21248 0
M  V30 2243 H 232.152 -2.55535 -4.39976 0
M  V30 2244 H 231.55 0.372091 -5.64475 0
M  V30 2245 H 230.107 0.0444707 -6.51785 0
M  V30 2246 N 233.54 1.10788 -1.12088 0
M  V30 2247 C 234.472 2.16816 -0.743213 0
M  V30 2248 C 235.485 1.6119 0.228412 0
M  V30 2249 O 236.674 1.78497 0.0102931 0
M  V30 2250 C 233.774 3.38809 -0.0787313 0
M  V30 2251 C 232.947 4.23885 -1.0789 0
M  V30 2252 C 232.006 5.24334 -0.442713 0
M  V30 2253 O 231.032 5.58497 -1.09864 0
M  V30 2254 N 232.234 5.75079 0.791457 0
M  V30 2255 H 234.999 2.49825 -1.65552 0
M  V30 2256 H 232.56 1.26373 -1.012 0
M  V30 2257 H 234.552 4.03107 0.358766 0
M  V30 2258 H 233.122 3.03805 0.736275 0
M  V30 2259 H 232.342 3.55939 -1.69414 0
M  V30 2260 H 233.63 4.77562 -1.75533 0
M  V30 2261 H 233.028 5.49517 1.3434 0
M  V30 2262 H 231.585 6.4118 1.17183 0
M  V30 2263 N 235.018 0.912232 1.28515 0
M  V30 2264 C 236.267 0.540504 1.94323 0
M  V30 2265 C 236.58 -0.920044 1.72611 0
M  V30 2266 O 237.786 -1.39986 2.32629 0
M  V30 2267 C 236.242 0.915803 3.48053 0
M  V30 2268 C 235.85 2.39598 3.78546 0
M  V30 2269 C 237.594 0.614588 4.20027 0
M  V30 2270 C 235.501 2.71148 5.25578 0
M  V30 2271 H 234.431 0.198418 0.727424 0
M  V30 2272 H 237.082 1.11094 1.46049 0
M  V30 2273 H 235.464 0.274168 3.9505 0
M  V30 2274 H 236.638 3.08422 3.42364 0
M  V30 2275 H 234.953 2.66749 3.1974 0
M  V30 2276 H 237.55 0.827002 5.28266 0
M  V30 2277 H 237.893 -0.447531 4.13887 0
M  V30 2278 H 238.426 1.21462 3.78803 0
M  V30 2279 H 235.165 3.76207 5.36794 0
M  V30 2280 H 234.685 2.0696 5.62963 0
M  V30 2281 H 236.364 2.58072 5.93302 0
M  V30 2282 N 236.496 -1.42363 0.676048 0
M  V30 2283 C 237.426 -2.33497 0.0124832 0
M  V30 2284 C 238.407 -1.50748 -0.787981 0
M  V30 2285 O 239.592 -1.79346 -0.744884 0
M  V30 2286 C 236.722 -3.34377 -0.938582 0
M  V30 2287 C 235.676 -4.27289 -0.246622 0
M  V30 2288 C 235.002 -5.18386 -1.31071 0
M  V30 2289 C 236.302 -5.14916 0.875125 0
M  V30 2290 H 237.996 -2.89233 0.773593 0
M  V30 2291 H 235.542 -1.39073 0.37346 0
M  V30 2292 H 237.495 -3.97044 -1.41188 0
M  V30 2293 H 236.219 -2.76947 -1.73113 0
M  V30 2294 H 234.878 -3.66018 0.206456 0
M  V30 2295 H 234.526 -4.57282 -2.09528 0
M  V30 2296 H 234.226 -5.81378 -0.852839 0
M  V30 2297 H 235.75 -5.83929 -1.78492 0
M  V30 2298 H 237.164 -5.71262 0.482983 0
M  V30 2299 H 235.561 -5.86747 1.25887 0
M  V30 2300 H 236.631 -4.53242 1.72335 0
M  V30 2301 N 237.974 -0.419461 -1.51915 0
M  V30 2302 C 239.22 0.153166 -2.02221 0
M  V30 2303 C 239.553 1.43907 -1.30401 0
M  V30 2304 O 238.828 1.90055 -0.413438 0
M  V30 2305 C 239.111 0.390291 -3.57979 0
M  V30 2306 C 238.964 -0.913014 -4.40436 0
M  V30 2307 C 240.283 1.16794 -4.2432 0
M  V30 2308 H 237.402 0.0541924 -0.735005 0
M  V30 2309 H 240.044 -0.554955 -1.81715 0
M  V30 2310 H 238.194 0.993491 -3.75582 0
M  V30 2311 H 239.866 -1.54882 -4.34522 0
M  V30 2312 H 238.109 -1.52168 -4.06236 0
M  V30 2313 H 238.78 -0.701361 -5.47526 0
M  V30 2314 H 241.256 0.657161 -4.10878 0
M  V30 2315 H 240.132 1.3026 -5.3322 0
M  V30 2316 H 240.393 2.19132 -3.83971 0
M  V30 2317 N 239.452 1.56882 -0.150215 0
M  V30 2318 C 240.863 1.82995 0.370076 0
M  V30 2319 C 241.214 1.06907 1.64515 0
M  V30 2320 O 240.339 0.315369 2.1409 0
M  V30 2321 C 240.934 3.31942 0.678208 0
M  V30 2322 C 239.493 3.58625 1.14301 0
M  V30 2323 C 238.64 2.76792 0.167778 0
M  V30 2324 H 241.591 1.54209 -0.374858 0
M  V30 2325 H 241.612 3.48272 1.53254 0
M  V30 2326 H 241.124 3.87294 -0.249991 0
M  V30 2327 H 239.225 3.08664 2.08704 0
M  V30 2328 H 239.338 4.67073 1.06676 0
M  V30 2329 H 237.702 2.45972 0.661037 0
M  V30 2330 H 238.485 3.34916 -0.754069 0
M  V30 2331 N 240.93 -0.123565 1.57115 0
M  V30 2332 C 242.155 -0.850398 1.89164 0
M  V30 2333 C 242.58 -1.7286 0.741688 0
M  V30 2334 O 241.938 -1.78665 -0.307958 0
M  V30 2335 C 241.986 -1.66353 3.19936 0
M  V30 2336 O 241.09 -2.77004 3.0552 0
M  V30 2337 H 240.431 -0.235454 0.620852 0
M  V30 2338 H 242.961 -0.107335 2.04318 0
M  V30 2339 H 242.971 -2.05372 3.52543 0
M  V30 2340 H 241.646 -1.01881 4.03228 0
M  V30 2341 H 240.223 -2.41221 2.84371 0
M  V30 2342 N 242.408 -1.52605 -0.393616 0
M  V30 2343 C 243.356 -1.77688 -1.50099 0
M  V30 2344 C 244.35 -0.644615 -1.56656 0
M  V30 2345 O 245.556 -0.826997 -1.59877 0
M  V30 2346 H 241.931 -0.562159 -0.499481 0
M  V30 2347 H 243.902 -2.7043 -1.26135 0
M  V30 2348 C 242.651 -1.95858 -2.87289 0
M  V30 2349 H 241.974 -2.8241 -2.82992 0
M  V30 2350 H 243.414 -2.174 -3.64024 0
M  V30 2351 C 241.873 -0.729848 -3.28899 0
M  V30 2352 O 242.403 0.0949217 -4.01588 0
M  V30 2353 N 240.609 -0.561283 -2.85128 0
M  V30 2354 H 240.156 -1.23357 -2.26143 0
M  V30 2355 H 240.114 0.2595 -3.13327 0
M  V30 2356 N 243.887 0.651787 -1.4349 0
M  V30 2357 C 244.819 1.77725 -1.44729 0
M  V30 2358 C 245.832 1.59141 -0.343231 0
M  V30 2359 O 247.021 1.67835 -0.607751 0
M  V30 2360 C 244.121 3.15172 -1.24579 0
M  V30 2361 C 243.294 3.60402 -2.47849 0
M  V30 2362 C 242.353 4.76656 -2.22902 0
M  V30 2363 O 241.379 4.86022 -2.96263 0
M  V30 2364 N 242.581 5.66958 -1.24656 0
M  V30 2365 H 245.346 1.77141 -2.41746 0
M  V30 2366 H 242.907 0.835678 -1.38665 0
M  V30 2367 H 244.899 3.90634 -1.0577 0
M  V30 2368 H 243.469 3.1052 -0.360015 0
M  V30 2369 H 242.689 2.75369 -2.82073 0
M  V30 2370 H 243.977 3.87368 -3.29884 0
M  V30 2371 H 243.375 5.62065 -0.640265 0
M  V30 2372 H 241.932 6.42135 -1.1183 0
M  V30 2373 N 245.365 1.30045 0.890287 0
M  V30 2374 C 246.611 1.18737 1.64406 0
M  V30 2375 C 246.944 -0.258525 1.92472 0
M  V30 2376 O 246.219 -1.18562 1.54186 0
M  V30 2377 C 246.502 2.01087 2.98724 0
M  V30 2378 C 246.355 3.53867 2.77665 0
M  V30 2379 C 247.674 1.84457 3.9958 0
M  V30 2380 H 244.793 0.432698 0.596608 0
M  V30 2381 H 247.435 1.5962 1.0306 0
M  V30 2382 H 245.585 1.66349 3.51084 0
M  V30 2383 H 247.257 3.98637 2.32133 0
M  V30 2384 H 245.5 3.78318 2.12269 0
M  V30 2385 H 246.171 4.06772 3.7315 0
M  V30 2386 H 248.647 2.14817 3.56361 0
M  V30 2387 H 247.523 2.44411 4.91482 0
M  V30 2388 H 247.784 0.802276 4.3476 0
M  V30 2389 N 246.843 -1.10192 1.12674 0
M  V30 2390 C 248.089 -1.82475 0.884915 0
M  V30 2391 C 248.422 -1.85093 -0.58773 0
M  V30 2392 O 247.697 -1.3134 -1.43457 0
M  V30 2393 C 247.98 -3.29018 1.46353 0
M  V30 2394 C 247.833 -3.34718 3.00473 0
M  V30 2395 C 249.152 -4.25473 1.12519 0
M  V30 2396 H 246.271 -0.662492 0.322915 0
M  V30 2397 H 248.913 -1.2913 1.39375 0
M  V30 2398 H 247.063 -3.74576 1.03077 0
M  V30 2399 H 248.735 -2.97622 3.52447 0
M  V30 2400 H 246.978 -2.74541 3.35872 0
M  V30 2401 H 247.649 -4.37918 3.36053 0
M  V30 2402 H 250.125 -3.88161 1.499 0
M  V30 2403 H 249.001 -5.26365 1.55663 0
M  V30 2404 H 249.262 -4.42084 0.0377407 0
M  V30 2405 N 248.321 -0.919034 -1.28029 0
M  V30 2406 C 249.567 -0.555757 -1.95036 0
M  V30 2407 C 249.9 0.899198 -1.72128 0
M  V30 2408 O 249.175 1.64023 -1.04531 0
M  V30 2409 C 249.458 -0.872024 -3.49382 0
M  V30 2410 C 249.311 -2.3801 -3.81669 0
M  V30 2411 C 250.63 -0.37185 -4.38526 0
M  V30 2412 H 247.749 -0.203386 -0.708381 0
M  V30 2413 H 250.391 -1.14924 -1.51303 0
M  V30 2414 H 248.541 -0.366946 -3.86763 0
M  V30 2415 H 250.213 -2.9562 -3.54128 0
M  V30 2416 H 248.456 -2.83289 -3.28526 0
M  V30 2417 H 249.127 -2.55192 -4.8947 0
M  V30 2418 H 251.603 -0.804602 -4.08247 0
M  V30 2419 H 250.479 -0.622173 -5.45362 0
M  V30 2420 H 250.74 0.727934 -4.36066 0
M  V30 2421 N 249.799 1.42003 -0.683588 0
M  V30 2422 C 250.731 2.29183 0.0283068 0
M  V30 2423 C 251.744 1.4415 0.756611 0
M  V30 2424 O 252.933 1.67779 0.609306 0
M  V30 2425 C 250.033 3.21765 1.06398 0
M  V30 2426 C 249.206 4.35496 0.407723 0
M  V30 2427 C 248.265 5.08737 1.34437 0
M  V30 2428 O 247.291 5.62948 0.841318 0
M  V30 2429 N 248.493 5.15075 2.67728 0
M  V30 2430 H 251.258 2.9092 -0.720105 0
M  V30 2431 H 248.819 1.53025 -0.528682 0
M  V30 2432 H 250.811 3.6763 1.69204 0
M  V30 2433 H 249.381 2.61418 1.71404 0
M  V30 2434 H 248.601 3.92165 -0.400012 0
M  V30 2435 H 249.889 5.08776 -0.0490956 0
M  V30 2436 H 249.287 4.72457 3.11129 0
M  V30 2437 H 247.844 5.64556 3.2576 0
M  V30 2438 N 251.277 0.427512 1.51691 0
M  V30 2439 C 252.505 -0.141191 2.06418 0
M  V30 2440 C 252.92 -1.37303 1.29589 0
M  V30 2441 O 252.277 -1.79059 0.352732 0
M  V30 2442 C 252.328 -0.473266 3.58389 0
M  V30 2443 O 252.049 0.709673 4.32314 0
M  V30 2444 C 253.55 -1.09371 4.29596 0
M  V30 2445 H 250.77 -0.0122747 0.670888 0
M  V30 2446 H 253.314 0.603764 1.95384 0
M  V30 2447 H 251.469 -1.16812 3.69369 0
M  V30 2448 H 251.883 0.42807 5.2275 0
M  V30 2449 H 253.357 -1.27613 5.37046 0
M  V30 2450 H 253.834 -2.072 3.87253 0
M  V30 2451 H 254.44 -0.43853 4.23033 0
M  V30 2452 N 252.755 -1.56801 0.158532 0
M  V30 2453 C 253.718 -2.16138 -0.762705 0
M  V30 2454 C 254.718 -1.1061 -1.16713 0
M  V30 2455 O 255.908 -1.36191 -1.08617 0
M  V30 2456 C 253.04 -2.73386 -2.03649 0
M  V30 2457 H 254.233 -2.98886 -0.246354 0
M  V30 2458 H 251.786 -1.56035 -0.0909744 0
M  V30 2459 H 252.521 -1.94335 -2.59623 0
M  V30 2460 H 252.306 -3.50601 -1.75559 0
M  V30 2461 H 253.796 -3.19065 -2.6942 0
M  V30 2462 N 254.233 0.115231 -1.57178 0
M  V30 2463 C 255.458 0.840354 -1.89612 0
M  V30 2464 C 255.883 1.72464 -0.750845 0
M  V30 2465 O 255.241 1.78826 0.298478 0
M  V30 2466 C 255.289 1.64654 -3.20814 0
M  V30 2467 O 254.393 2.7538 -3.06985 0
M  V30 2468 H 253.734 0.232158 -0.622092 0
M  V30 2469 H 256.264 0.0964977 -2.04372 0
M  V30 2470 H 256.274 2.03499 -3.53627 0
M  V30 2471 H 254.949 0.997416 -4.03763 0
M  V30 2472 H 253.526 2.3971 -2.85646 0
M  V30 2473 N 255.711 1.52812 0.385517 0
M  V30 2474 C 256.959 1.67694 1.12797 0
M  V30 2475 C 257.28 0.421115 1.90399 0
M  V30 2476 O 256.55 -0.564551 1.87589 0
M  V30 2477 H 255.13 0.618155 0.419396 0
M  V30 2478 H 257.792 1.89938 0.436972 0
M  V30 2479 H 256.888 2.52896 1.82894 0
M  V30 2480 N 257.189 -0.644168 1.43834 0
M  V30 2481 C 258.466 -1.40188 1.36406 0
M  V30 2482 C 258.846 -2.11094 0.0163124 0
M  V30 2483 O 258.194 -2.05426 -1.00062 0
M  V30 2484 C 258.404 -2.3791 2.55343 0
M  V30 2485 C 259.752 -3.01637 2.98832 0
M  V30 2486 O 260.776 -2.48237 2.55455 0
M  V30 2487 O 259.635 -3.98477 3.74003 0
M  V30 2488 H 256.729 -0.626773 0.539523 0
M  V30 2489 H 259.275 -0.670317 1.559 0
M  V30 2490 H 258.047 -1.84525 3.4506 0
M  V30 2491 H 257.67 -3.18503 2.37995 0
M  V30 2492 N 258.668 -1.30515 -0.883378 0
M  V30 2493 C 259.601 -1.11359 -1.99184 0
M  V30 2494 C 260.579 -0.0207858 -1.62587 0
M  V30 2495 O 261.763 -0.174646 -1.87689 0
M  V30 2496 C 258.89 -0.69871 -3.31415 0
M  V30 2497 C 257.936 -1.79261 -3.86998 0
M  V30 2498 S 258.769 -3.39536 -4.14096 0
M  V30 2499 C 259.925 -2.99954 -5.49344 0
M  V30 2500 H 260.158 -2.052 -2.15128 0
M  V30 2501 H 257.691 -1.14847 -1.03196 0
M  V30 2502 H 259.649 -0.466075 -4.07846 0
M  V30 2503 H 258.31 0.220368 -3.13326 0
M  V30 2504 H 257.503 -1.45464 -4.82552 0
M  V30 2505 H 257.105 -1.97961 -3.17313 0
M  V30 2506 H 259.397 -2.48013 -6.30473 0
M  V30 2507 H 260.34 -3.9442 -5.8808 0
M  V30 2508 H 260.748 -2.37775 -5.1198 0
M  V30 2509 N 260.146 1.09593 -1.13257 0
M  V30 2510 C 261.078 2.16015 -0.766167 0
M  V30 2511 C 262.091 1.61423 0.211303 0
M  V30 2512 O 263.28 1.78498 -0.00863946 0
M  V30 2513 C 260.38 3.38706 -0.114662 0
M  V30 2514 C 259.553 4.22717 -1.12379 0
M  V30 2515 C 258.612 5.23835 -0.498301 0
M  V30 2516 O 257.638 5.573 -1.15781 0
M  V30 2517 N 258.84 5.75886 0.730417 0
M  V30 2518 H 261.605 2.48055 -1.68193 0
M  V30 2519 H 259.166 1.25292 -1.02535 0
M  V30 2520 H 261.158 4.03464 0.315991 0
M  V30 2521 H 259.728 3.04569 0.704011 0
M  V30 2522 H 258.948 3.54122 -1.73179 0
M  V30 2523 H 260.236 4.75673 -1.80589 0
M  V30 2524 H 259.634 5.50911 1.28504 0
M  V30 2525 H 258.191 6.42387 1.10376 0
M  V30 2526 N 261.624 0.925811 1.2754 0
M  V30 2527 C 262.852 0.581509 1.9856 0
M  V30 2528 C 263.267 -0.840041 1.69082 0
M  V30 2529 O 262.624 -1.55805 0.950312 0
M  V30 2530 C 262.675 0.795589 3.52637 0
M  V30 2531 O 262.396 2.16121 3.81082 0
M  V30 2532 C 263.897 0.459744 4.4091 0
M  V30 2533 H 261.117 0.220538 0.633722 0
M  V30 2534 H 263.661 1.24232 1.6244 0
M  V30 2535 H 261.816 0.18161 3.86974 0
M  V30 2536 H 262.23 2.2098 4.75676 0
M  V30 2537 H 263.704 0.660244 5.48037 0
M  V30 2538 H 264.181 -0.604625 4.35018 0
M  V30 2539 H 264.787 1.05178 4.12089 0
M  V30 2540 N 263.102 -1.41638 0.69111 0
M  V30 2541 C 264.332 -2.0533 0.228758 0
M  V30 2542 C 264.74 -1.52089 -1.12541 0
M  V30 2543 O 264.083 -0.662145 -1.71351 0
M  V30 2544 C 264.145 -3.59349 0.10407 0
M  V30 2545 C 263.809 -4.35362 1.38956 0
M  V30 2546 C 264.806 -4.64942 2.32648 0
M  V30 2547 C 262.491 -4.74714 1.64169 0
M  V30 2548 C 264.485 -5.32828 3.49818 0
M  V30 2549 C 262.172 -5.42338 2.81625 0
M  V30 2550 C 263.17 -5.71322 3.74273 0
M  V30 2551 O 262.858 -6.37554 4.89673 0
M  V30 2552 H 262.59 -0.667796 0.104997 0
M  V30 2553 H 265.144 -1.82477 0.942938 0
M  V30 2554 H 263.374 -3.80924 -0.665839 0
M  V30 2555 H 265.063 -4.04633 -0.320519 0
M  V30 2556 H 265.829 -4.35025 2.14425 0
M  V30 2557 H 261.708 -4.51538 0.929202 0
M  V30 2558 H 265.252 -5.55368 4.22152 0
M  V30 2559 H 261.149 -5.71673 2.99768 0
M  V30 2560 H 261.917 -6.56049 4.8943 0
M  V30 2561 N 264.58 -0.43555 -1.51462 0
M  V30 2562 C 265.512 0.41257 -2.25456 0
M  V30 2563 C 266.525 0.987822 -1.29406 0
M  V30 2564 O 267.714 0.882266 -1.55172 0
M  V30 2565 C 264.814 1.58894 -2.99342 0
M  V30 2566 C 263.987 1.13288 -4.22474 0
M  V30 2567 C 263.046 2.17917 -4.78956 0
M  V30 2568 O 262.072 1.77425 -5.40841 0
M  V30 2569 N 263.274 3.50382 -4.62832 0
M  V30 2570 H 266.039 -0.221603 -2.9888 0
M  V30 2571 H 263.6 -0.264342 -1.59727 0
M  V30 2572 H 265.592 2.28508 -3.34015 0
M  V30 2573 H 264.162 2.12849 -2.28941 0
M  V30 2574 H 263.382 0.263881 -3.93316 0
M  V30 2575 H 264.67 0.805542 -5.02383 0
M  V30 2576 H 264.068 3.86013 -4.13534 0
M  V30 2577 H 262.625 4.15895 -5.01871 0
M  V30 2578 N 266.058 1.56714 -0.166846 0
M  V30 2579 C 267.307 1.95922 0.479318 0
M  V30 2580 C 267.62 1.05529 1.6469 0
M  V30 2581 O 268.826 1.34399 2.35901 0
M  V30 2582 C 267.282 3.48359 0.90412 0
M  V30 2583 C 266.89 4.47369 -0.237621 0
M  V30 2584 C 268.634 3.96394 1.51896 0
M  V30 2585 C 266.541 5.91039 0.206561 0
M  V30 2586 H 265.471 0.731495 0.18284 0
M  V30 2587 H 268.122 1.81728 -0.254363 0
M  V30 2588 H 266.504 3.57955 1.69365 0
M  V30 2589 H 267.678 4.49485 -1.01489 0
M  V30 2590 H 265.993 4.09366 -0.762128 0
M  V30 2591 H 268.59 5.01186 1.86325 0
M  V30 2592 H 268.933 3.39075 2.41524 0
M  V30 2593 H 269.466 3.89796 0.79395 0
M  V30 2594 H 266.205 6.52221 -0.654834 0
M  V30 2595 H 265.725 5.9224 0.949282 0
M  V30 2596 H 267.404 6.43707 0.651939 0
M  V30 2597 N 267.536 -0.106894 1.57237 0
M  V30 2598 C 268.952 -0.46078 1.52804 0
M  V30 2599 C 269.152 -1.81184 0.881746 0
M  V30 2600 O 268.208 -2.48102 0.469224 0
M  V30 2601 C 269.521 -0.434127 2.9755 0
M  V30 2602 C 271.069 -0.516821 3.08704 0
M  V30 2603 C 271.544 -0.520436 4.55033 0
M  V30 2604 N 273.035 -0.58153 4.59535 0
M  V30 2605 C 273.77 -0.605973 5.70189 0
M  V30 2606 N 273.266 -0.587331 6.90306 0
M  V30 2607 N 275.059 -0.649895 5.5833 0
M  V30 2608 H 267.21 0.778203 1.9763 0
M  V30 2609 H 269.473 0.288403 0.903066 0
M  V30 2610 H 269.179 0.491197 3.48253 0
M  V30 2611 H 269.053 -1.25748 3.55622 0
M  V30 2612 H 271.44 -1.43256 2.57995 0
M  V30 2613 H 271.521 0.334449 2.53604 0
M  V30 2614 H 271.165 0.391313 5.0639 0
M  V30 2615 H 271.095 -1.38876 5.07958 0
M  V30 2616 H 273.586 -0.60161 3.73081 0
M  V30 2617 H 273.899 -0.60894 7.70397 0
M  V30 2618 H 272.244 -0.554564 6.92784 0
M  V30 2619 H 275.435 -0.661907 4.63397 0
M  V30 2620 H 275.608 -0.665476 6.44574 0
M  V30 2621 N 269.014 -1.53014 -0.377408 0
M  V30 2622 C 270.242 -1.72515 -1.14219 0
M  V30 2623 C 270.657 -0.448735 -1.8339 0
M  V30 2624 O 270.014 0.577592 -1.73119 0
M  V30 2625 C 270.065 -2.8826 -2.18148 0
M  V30 2626 O 269.786 -4.10962 -1.51795 0
M  V30 2627 C 271.287 -3.19536 -3.07264 0
M  V30 2628 H 268.507 -0.577301 -0.342001 0
M  V30 2629 H 271.051 -1.99712 -0.439935 0
M  V30 2630 H 269.206 -2.63492 -2.83991 0
M  V30 2631 H 269.62 -4.75693 -2.20945 0
M  V30 2632 H 271.094 -4.03959 -3.76193 0
M  V30 2633 H 271.571 -2.34403 -3.71419 0
M  V30 2634 H 272.177 -3.46186 -2.47053 0
M  V30 2635 N 270.492 0.636531 -1.44174 0
M  V30 2636 C 271.72 1.42353 -1.50144 0
M  V30 2637 C 272.135 1.88389 -0.124575 0
M  V30 2638 O 271.492 1.6051 0.868489 0
M  V30 2639 C 271.543 2.64744 -2.46156 0
M  V30 2640 O 271.264 2.20629 -3.7849 0
M  V30 2641 C 272.765 3.57929 -2.61537 0
M  V30 2642 H 269.985 0.436752 -0.5094 0
M  V30 2643 H 272.529 0.778933 -1.89084 0
M  V30 2644 H 270.684 3.25307 -2.10366 0
M  V30 2645 H 271.098 2.99938 -4.30276 0
M  V30 2646 H 272.572 4.40428 -3.32757 0
M  V30 2647 H 273.049 4.06382 -1.66585 0
M  V30 2648 H 273.655 3.03238 -2.98206 0
M  V30 2649 N 271.97 1.30982 0.876444 0
M  V30 2650 C 273.381 1.18277 1.44456 0
M  V30 2651 C 273.732 -0.213265 1.95037 0
M  V30 2652 O 272.857 -1.11057 1.85729 0
M  V30 2653 C 273.452 2.1411 2.62569 0
M  V30 2654 C 272.011 2.05358 3.15444 0
M  V30 2655 C 271.158 2.03706 1.88146 0
M  V30 2656 H 274.109 1.43127 0.685584 0
M  V30 2657 H 274.13 1.72692 3.39054 0
M  V30 2658 H 273.642 3.15706 2.25724 0
M  V30 2659 H 271.743 1.06934 3.56926 0
M  V30 2660 H 271.856 2.94156 3.78166 0
M  V30 2661 H 270.22 1.48629 2.06837 0
M  V30 2662 H 271.003 3.07047 1.53547 0
M  V30 2663 N 273.449 -1.08991 1.13837 0
M  V30 2664 C 274.674 -1.85551 0.926585 0
M  V30 2665 C 275.099 -1.80782 -0.519566 0
M  V30 2666 O 274.457 -1.18855 -1.36906 0
M  V30 2667 C 274.505 -3.31266 1.42462 0
M  V30 2668 O 273.609 -4.07822 0.612789 0
M  V30 2669 H 272.95 -0.575192 0.331738 0
M  V30 2670 H 275.48 -1.37604 1.51414 0
M  V30 2671 H 275.49 -3.82112 1.43019 0
M  V30 2672 H 274.165 -3.34052 2.47754 0
M  V30 2673 H 272.742 -3.66731 0.675463 0
M  V30 2674 N 274.927 -0.932562 -1.27047 0
M  V30 2675 C 275.89 -0.440064 -2.24936 0
M  V30 2676 C 276.89 0.444071 -1.54547 0
M  V30 2677 O 278.08 0.244465 -1.72476 0
M  V30 2678 C 275.212 0.36678 -3.38921 0
M  V30 2679 H 276.405 -1.305 -2.70018 0
M  V30 2680 H 273.958 -0.713707 -1.39054 0
M  V30 2681 H 274.693 1.25033 -2.99228 0
M  V30 2682 H 274.478 -0.267204 -3.91188 0
M  V30 2683 H 275.968 0.701567 -4.11665 0
M  V30 2684 N 276.405 1.4127 -0.698611 0
M  V30 2685 C 277.633 2.05503 -0.239992 0
M  V30 2686 C 278.048 1.52584 1.11191 0
M  V30 2687 O 277.405 0.675323 1.69545 0
M  V30 2688 C 277.456 3.60987 -0.192429 0
M  V30 2689 O 277.177 4.1195 -1.49094 0
M  V30 2690 C 278.678 4.42371 0.28681 0
M  V30 2691 H 275.898 0.661748 -0.111045 0
M  V30 2692 H 278.442 1.80987 -0.95205 0
M  V30 2693 H 276.597 3.84533 0.470472 0
M  V30 2694 H 277.011 5.06018 -1.38007 0
M  V30 2695 H 278.485 5.51344 0.26896 0
M  V30 2696 H 278.962 4.18699 1.32619 0
M  V30 2697 H 279.568 4.23897 -0.345201 0
M  V30 2698 N 277.883 0.443576 1.51229 0
M  V30 2699 C 279.108 -0.121648 2.07043 0
M  V30 2700 C 279.533 -1.35156 1.30823 0
M  V30 2701 O 278.891 -1.7793 0.347934 0
M  V30 2702 C 278.939 -0.41624 3.5819 0
M  V30 2703 O 278.043 -1.50163 3.8409 0
M  V30 2704 H 277.384 0.000871367 0.663999 0
M  V30 2705 H 279.914 0.626706 1.94765 0
M  V30 2706 H 279.924 -0.664867 4.02546 0
M  V30 2707 H 278.599 0.482653 4.1309 0
M  V30 2708 H 277.176 -1.24248 3.51592 0
M  V30 2709 N 279.361 -1.56624 0.175154 0
M  V30 2710 C 280.291 -2.21155 -0.749195 0
M  V30 2711 C 281.272 -1.16836 -1.23626 0
M  V30 2712 O 282.457 -1.45277 -1.28873 0
M  V30 2713 C 279.587 -2.8553 -1.97711 0
M  V30 2714 C 278.541 -3.95921 -1.62575 0
M  V30 2715 C 277.867 -4.47365 -2.92864 0
M  V30 2716 C 279.167 -5.15323 -0.850838 0
M  V30 2717 H 280.861 -2.98653 -0.211295 0
M  V30 2718 H 278.407 -1.43651 -0.100188 0
M  V30 2719 H 280.36 -3.2935 -2.62881 0
M  V30 2720 H 279.084 -2.05406 -2.53921 0
M  V30 2721 H 277.743 -3.52762 -0.997719 0
M  V30 2722 H 277.391 -3.64027 -3.47122 0
M  V30 2723 H 277.091 -5.21839 -2.70106 0
M  V30 2724 H 278.615 -4.93873 -3.59056 0
M  V30 2725 H 280.029 -5.55812 -1.40521 0
M  V30 2726 H 278.426 -5.95739 -0.722154 0
M  V30 2727 H 279.496 -4.84661 0.152082 0
M  V30 2728 N 280.839 0.0985539 -1.57292 0
M  V30 2729 C 282.25 0.653457 -1.74891 0
M  V30 2730 C 282.601 1.7929 -0.796838 0
M  V30 2731 O 281.726 2.16385 0.0254886 0
M  V30 2732 C 282.321 1.19216 -3.17133 0
M  V30 2733 C 280.88 1.69316 -3.36168 0
M  V30 2734 C 280.027 0.601294 -2.70702 0
M  V30 2735 H 282.978 -0.127497 -1.58187 0
M  V30 2736 H 282.999 2.06154 -3.19814 0
M  V30 2737 H 282.511 0.362635 -3.86402 0
M  V30 2738 H 280.612 2.5468 -2.71972 0
M  V30 2739 H 280.725 1.78853 -4.44464 0
M  V30 2740 H 279.089 1.0399 -2.32504 0
M  V30 2741 H 279.872 -0.217592 -3.4261 0
M  V30 2742 N 282.317 1.53212 0.369288 0
M  V30 2743 C 283.249 1.75668 1.47219 0
M  V30 2744 C 284.262 0.637387 1.49804 0
M  V30 2745 O 285.451 0.913561 1.5335 0
M  V30 2746 C 282.551 1.81818 2.85999 0
M  V30 2747 C 281.724 3.11409 3.07153 0
M  V30 2748 C 280.783 3.08849 4.26026 0
M  V30 2749 O 279.809 3.82659 4.2138 0
M  V30 2750 N 281.011 2.29409 5.33246 0
M  V30 2751 H 283.776 2.70832 1.28337 0
M  V30 2752 H 281.337 1.51944 0.55898 0
M  V30 2753 H 283.329 1.77588 3.63655 0
M  V30 2754 H 281.899 0.939544 2.98146 0
M  V30 2755 H 281.119 3.28971 2.1719 0
M  V30 2756 H 282.407 3.97059 3.18154 0
M  V30 2757 H 281.805 1.68946 5.39883 0
M  V30 2758 H 280.362 2.31001 6.09493 0
M  V30 2759 N 283.795 -0.628877 1.44509 0
M  V30 2760 C 285.023 -1.41554 1.50897 0
M  V30 2761 C 285.438 -1.8832 0.134564 0
M  V30 2762 O 284.795 -1.60969 -0.859965 0
M  V30 2763 C 284.846 -2.63435 2.47556 0
M  V30 2764 O 284.567 -2.18619 3.79654 0
M  V30 2765 C 286.068 -3.56537 2.63431 0
M  V30 2766 H 283.288 -0.434044 0.511709 0
M  V30 2767 H 285.832 -0.768895 1.89495 0
M  V30 2768 H 283.987 -3.24187 2.12089 0
M  V30 2769 H 284.401 -2.97652 4.31861 0
M  V30 2770 H 285.875 -4.38657 3.35088 0
M  V30 2771 H 286.352 -4.05493 1.68738 0
M  V30 2772 H 286.958 -3.01653 2.9981 0
M  V30 2773 N 285.273 -1.31445 -0.869486 0
M  V30 2774 C 286.519 -1.21337 -1.62496 0
M  V30 2775 C 286.852 0.227872 -1.92858 0
M  V30 2776 O 286.127 1.16094 -1.56053 0
M  V30 2777 C 286.41 -2.05814 -2.95487 0
M  V30 2778 C 286.263 -3.5824 -2.72 0
M  V30 2779 C 287.582 -1.9079 -3.96594 0
M  V30 2780 H 284.701 -0.442135 -0.589649 0
M  V30 2781 H 287.343 -1.6124 -1.00507 0
M  V30 2782 H 285.493 -1.71913 -3.48394 0
M  V30 2783 H 287.165 -4.0228 -2.25762 0
M  V30 2784 H 285.408 -3.81647 -2.06224 0
M  V30 2785 H 286.079 -4.12657 -3.66631 0
M  V30 2786 H 288.555 -2.20459 -3.52898 0
M  V30 2787 H 287.431 -2.52199 -4.87531 0
M  V30 2788 H 287.692 -0.871341 -4.33428 0
M  V30 2789 N 286.751 1.08385 -1.14413 0
M  V30 2790 C 287.997 1.81044 -0.913834 0
M  V30 2791 C 288.33 1.86004 0.558209 0
M  V30 2792 O 287.605 1.33606 1.4135 0
M  V30 2793 C 287.888 3.26648 -1.51569 0
M  V30 2794 C 287.741 3.29895 -3.0576 0
M  V30 2795 C 289.06 4.23629 -1.19273 0
M  V30 2796 H 286.179 0.65727 -0.333414 0
M  V30 2797 H 288.821 1.26896 -1.41412 0
M  V30 2798 H 286.971 3.72889 -1.09023 0
M  V30 2799 H 288.643 2.91977 -3.57137 0
M  V30 2800 H 286.886 2.69163 -3.40197 0
M  V30 2801 H 287.557 4.32516 -3.42977 0
M  V30 2802 H 290.033 3.85727 -1.56057 0
M  V30 2803 H 288.909 5.23822 -1.64017 0
M  V30 2804 H 289.17 4.41968 -0.108068 0
M  V30 2805 N 288.23 0.939286 1.26551 0
M  V30 2806 C 289.163 0.391702 2.24813 0
M  V30 2807 C 290.141 -0.518421 1.54114 0
M  V30 2808 O 291.325 -0.456299 1.82894 0
M  V30 2809 C 288.452 -0.437382 3.35864 0
M  V30 2810 C 287.498 0.410946 4.24516 0
M  V30 2811 S 288.331 1.83372 5.03125 0
M  V30 2812 C 289.487 1.01264 6.17654 0
M  V30 2813 H 289.72 1.22448 2.70913 0
M  V30 2814 H 287.253 0.742269 1.35387 0
M  V30 2815 H 289.211 -0.909837 4.0029 0
M  V30 2816 H 287.872 -1.24482 2.8838 0
M  V30 2817 H 287.065 -0.224191 5.03501 0
M  V30 2818 H 286.667 0.818014 3.64945 0
M  V30 2819 H 288.959 0.254023 6.77024 0
M  V30 2820 H 289.902 1.77589 6.85469 0
M  V30 2821 H 290.31 0.549532 5.61819 0
M  V30 2822 N 289.708 -1.40897 0.706093 0
M  V30 2823 C 290.936 -2.05373 0.250887 0
M  V30 2824 C 291.351 -1.53172 -1.10381 0
M  V30 2825 O 290.708 -0.684305 -1.69185 0
M  V30 2826 C 290.759 -3.6088 0.211571 0
M  V30 2827 O 290.48 -4.11153 1.51276 0
M  V30 2828 C 291.981 -4.42517 -0.263346 0
M  V30 2829 H 289.201 -0.66115 0.114552 0
M  V30 2830 H 291.745 -1.80479 0.961635 0
M  V30 2831 H 289.9 -3.84777 -0.450073 0
M  V30 2832 H 290.314 -5.05279 1.40689 0
M  V30 2833 H 291.788 -5.51479 -0.239718 0
M  V30 2834 H 292.265 -4.19396 -1.30397 0
M  V30 2835 H 292.871 -4.23708 0.367677 0
M  V30 2836 N 291.186 -0.45159 -1.50991 0
M  V30 2837 C 292.411 0.110667 -2.07105 0
M  V30 2838 C 292.836 1.3446 -1.31538 0
M  V30 2839 O 292.194 1.77743 -0.357365 0
M  V30 2840 C 292.242 0.397238 -3.58405 0
M  V30 2841 O 291.346 1.48124 -3.84881 0
M  V30 2842 H 290.687 -0.00439271 -0.663985 0
M  V30 2843 H 293.217 -0.637026 -1.9443 0
M  V30 2844 H 293.227 0.64351 -4.02893 0
M  V30 2845 H 291.902 -0.504553 -4.12828 0
M  V30 2846 H 290.479 1.22381 -3.52246 0
M  V30 2847 N 292.664 1.56529 -0.183458 0
M  V30 2848 C 294.075 1.83739 0.331177 0
M  V30 2849 C 294.426 1.10373 1.62211 0
M  V30 2850 O 293.551 0.36071 2.13373 0
M  V30 2851 C 294.146 3.33306 0.607646 0
M  V30 2852 C 292.705 3.60969 1.06668 0
M  V30 2853 C 291.852 2.77086 0.109029 0
M  V30 2854 H 294.803 1.53379 -0.407484 0
M  V30 2855 H 294.824 3.51444 1.45832 0
M  V30 2856 H 294.336 3.86677 -0.332086 0
M  V30 2857 H 292.437 3.13021 2.0211 0
M  V30 2858 H 292.55 4.69231 0.967447 0
M  V30 2859 H 290.914 2.47319 0.608714 0
M  V30 2860 H 291.697 3.33241 -0.82494 0
M  V30 2861 N 294.142 -0.090211 1.57342 0
M  V30 2862 C 295.388 -0.793982 1.86611 0
M  V30 2863 C 295.721 -1.78142 0.773252 0
M  V30 2864 O 294.996 -1.93271 -0.218304 0
M  V30 2865 C 295.279 -1.51839 3.26523 0
M  V30 2866 C 295.132 -0.548609 4.46442 0
M  V30 2867 C 296.451 -2.46779 3.64401 0
M  V30 2868 H 293.57 -0.287186 0.678744 0
M  V30 2869 H 296.212 -0.0575076 1.89913 0
M  V30 2870 H 294.362 -2.14617 3.23839 0
M  V30 2871 H 296.034 0.0725513 4.61243 0
M  V30 2872 H 294.277 0.137614 4.33582 0
M  V30 2873 H 294.948 -1.09271 5.41076 0
M  V30 2874 H 297.424 -1.94089 3.68061 0
M  V30 2875 H 296.3 -2.94479 4.63221 0
M  V30 2876 H 296.561 -3.30758 2.93346 0
M  V30 2877 N 295.62 -1.53406 -0.361157 0
M  V30 2878 C 296.848 -1.73717 -1.12383 0
M  V30 2879 C 297.263 -0.468161 -1.82904 0
M  V30 2880 O 296.62 0.559198 -1.73722 0
M  V30 2881 C 296.671 -2.90558 -2.15078 0
M  V30 2882 O 296.392 -4.12549 -1.47428 0
M  V30 2883 C 297.893 -3.22777 -3.03858 0
M  V30 2884 H 295.113 -0.580896 -0.335858 0
M  V30 2885 H 297.657 -2.00167 -0.418728 0
M  V30 2886 H 295.812 -2.66489 -2.8118 0
M  V30 2887 H 296.226 -4.78009 -2.15887 0
M  V30 2888 H 297.7 -4.07927 -3.71887 0
M  V30 2889 H 298.177 -2.38329 -3.68912 0
M  V30 2890 H 298.783 -3.48787 -2.43367 0
M  V30 2891 N 297.098 0.621204 -1.44841 0
M  V30 2892 C 298.028 1.74366 -1.55303 0
M  V30 2893 C 299.009 1.65199 -0.405385 0
M  V30 2894 O 300.194 1.83807 -0.626787 0
M  V30 2895 C 297.324 3.12931 -1.50637 0
M  V30 2896 C 296.278 3.36896 -2.63979 0
M  V30 2897 C 295.604 4.75594 -2.44366 0
M  V30 2898 C 296.904 3.28483 -4.06074 0
M  V30 2899 H 298.598 1.65867 -2.49256 0
M  V30 2900 H 296.144 0.796558 -1.19962 0
M  V30 2901 H 298.097 3.9124 -1.56555 0
M  V30 2902 H 296.821 3.22237 -0.532057 0
M  V30 2903 H 295.48 2.60972 -2.57467 0
M  V30 2904 H 295.128 4.81616 -1.45105 0
M  V30 2905 H 294.828 4.92586 -3.20364 0
M  V30 2906 H 296.352 5.5612 -2.52117 0
M  V30 2907 H 297.766 3.96684 -4.13902 0
M  V30 2908 H 296.163 3.57008 -4.82354 0
M  V30 2909 H 297.233 2.26133 -4.28943 0
M  V30 2910 N 298.576 1.31904 0.862503 0
M  V30 2911 C 299.804 1.24998 1.64873 0
M  V30 2912 C 300.219 -0.183425 1.87907 0
M  V30 2913 O 299.576 -1.11794 1.44251 0
M  V30 2914 C 299.627 1.99829 3.01248 0
M  V30 2915 O 299.348 3.37575 2.79239 0
M  V30 2916 C 300.849 1.99852 3.95694 0
M  V30 2917 H 298.069 0.431599 0.513773 0
M  V30 2918 H 300.613 1.73901 1.07604 0
M  V30 2919 H 298.768 1.54668 3.55185 0
M  V30 2920 H 299.182 3.75776 3.65914 0
M  V30 2921 H 300.656 2.56709 4.88676 0
M  V30 2922 H 301.133 0.982852 4.28062 0
M  V30 2923 H 301.739 2.44926 3.47694 0
M  V30 2924 N 300.054 -1.07777 1.14986 0
M  V30 2925 C 301.279 -1.84558 0.946213 0
M  V30 2926 C 301.704 -1.81323 -0.500362 0
M  V30 2927 O 301.062 -1.20301 -1.35637 0
M  V30 2928 C 301.11 -3.29736 1.45968 0
M  V30 2929 O 300.214 -4.07149 0.65601 0
M  V30 2930 H 299.555 -0.571641 0.33782 0
M  V30 2931 H 302.085 -1.35991 1.52865 0
M  V30 2932 H 302.095 -3.80574 1.47063 0
M  V30 2933 H 300.77 -3.31406 2.51283 0
M  V30 2934 H 299.347 -3.65994 0.714322 0
M  V30 2935 N 301.532 -0.945985 -1.26051 0
M  V30 2936 C 302.464 -0.416662 -2.25381 0
M  V30 2937 C 303.477 0.462712 -1.56086 0
M  V30 2938 O 304.666 0.272383 -1.7641 0
M  V30 2939 C 301.766 0.419812 -3.3629 0
M  V30 2940 C 300.939 -0.444531 -4.35135 0
M  V30 2941 C 299.998 0.332305 -5.2515 0
M  V30 2942 O 299.024 -0.266324 -5.68577 0
M  V30 2943 N 300.226 1.62763 -5.57215 0
M  V30 2944 H 302.991 -1.27059 -2.71433 0
M  V30 2945 H 300.552 -0.815392 -1.39868 0
M  V30 2946 H 302.544 0.947013 -3.93464 0
M  V30 2947 H 301.114 1.17456 -2.89694 0
M  V30 2948 H 300.334 -1.15291 -3.76964 0
M  V30 2949 H 301.622 -1.03478 -4.98166 0
M  V30 2950 H 301.02 2.13603 -5.23823 0
M  V30 2951 H 299.577 2.10097 -6.17011 0
M  V30 2952 N 303.011 1.40521 -0.713556 0
M  V30 2953 C 304.239 2.05237 -0.261775 0
M  V30 2954 C 304.654 1.53755 1.09567 0
M  V30 2955 O 304.011 0.693268 1.6882 0
M  V30 2956 C 304.062 3.60763 -0.230706 0
M  V30 2957 O 303.783 4.10345 -1.53455 0
M  V30 2958 C 305.284 4.42651 0.239874 0
M  V30 2959 H 302.504 0.660533 -0.118057 0
M  V30 2960 H 305.048 1.79967 -0.971192 0
M  V30 2961 H 303.203 3.8501 0.429661 0
M  V30 2962 H 303.617 5.04526 -1.43366 0
M  V30 2963 H 305.091 5.51599 0.210468 0
M  V30 2964 H 305.568 4.20082 1.28171 0
M  V30 2965 H 306.174 4.23507 -0.390142 0
M  V30 2966 N 304.489 0.459591 1.5075 0
M  V30 2967 C 305.717 -0.0973749 2.06671 0
M  V30 2968 C 306.132 -1.34524 1.32472 0
M  V30 2969 O 305.489 -1.7827 0.390634 0
M  V30 2970 C 305.54 -0.39714 3.59312 0
M  V30 2971 O 305.261 0.801214 4.30711 0
M  V30 2972 C 306.762 -1.00234 4.31819 0
M  V30 2973 H 303.982 0.00195854 0.670997 0
M  V30 2974 H 306.526 0.645072 1.94059 0
M  V30 2975 H 304.681 -1.08951 3.71764 0
M  V30 2976 H 305.095 0.538857 5.21725 0
M  V30 2977 H 306.569 -1.16193 5.39632 0
M  V30 2978 H 307.046 -1.98939 3.91561 0
M  V30 2979 H 307.652 -0.348699 4.23868 0
M  V30 2980 N 305.967 -1.56429 0.191757 0
M  V30 2981 C 306.914 -2.18936 -0.730454 0
M  V30 2982 C 307.884 -1.13557 -1.21219 0
M  V30 2983 O 309.069 -1.41794 -1.27668 0
M  V30 2984 C 306.209 -2.85013 -1.9458 0
M  V30 2985 C 305.322 -4.04909 -1.50574 0
M  V30 2986 C 304.457 -4.58853 -2.67634 0
M  V30 2987 C 303.496 -5.71114 -2.20217 0
M  V30 2988 N 302.633 -6.19478 -3.30442 0
M  V30 2989 H 307.473 -2.97389 -0.190664 0
M  V30 2990 H 305.01 -1.46869 -0.0823694 0
M  V30 2991 H 306.968 -3.21492 -2.65893 0
M  V30 2992 H 305.598 -2.09129 -2.45896 0
M  V30 2993 H 304.65 -3.74115 -0.688605 0
M  V30 2994 H 305.962 -4.86113 -1.11784 0
M  V30 2995 H 305.116 -4.97619 -3.47074 0
M  V30 2996 H 303.855 -3.76749 -3.09696 0
M  V30 2997 H 302.86 -5.31879 -1.3923 0
M  V30 2998 H 304.085 -6.55033 -1.79189 0
M  V30 2999 H 302.031 -5.40297 -3.72041 0
M  V30 3000 H 301.948 -6.95725 -2.9581 0
M  V30 3001 H 303.216 -6.62898 -4.10106 0
M  V30 3002 N 307.445 0.0818655 -1.57387 0
M  V30 3003 C 308.673 0.796108 -1.9097 0
M  V30 3004 C 309.088 1.71626 -0.786757 0
M  V30 3005 O 308.445 1.80908 0.240513 0
M  V30 3006 C 308.496 1.59829 -3.24248 0
M  V30 3007 O 308.217 0.715131 -4.32224 0
M  V30 3008 C 309.718 2.41442 -3.7178 0
M  V30 3009 H 306.938 0.22691 -0.631469 0
M  V30 3010 H 309.482 0.0551439 -2.04426 0
M  V30 3011 H 307.637 2.29163 -3.12351 0
M  V30 3012 H 308.051 1.27205 -5.08841 0
M  V30 3013 H 309.525 2.932 -4.67694 0
M  V30 3014 H 310.002 3.2051 -3.00283 0
M  V30 3015 H 310.608 1.77283 -3.86589 0
M  V30 3016 N 308.923 1.53595 0.353017 0
M  V30 3017 C 310.2 1.61002 1.11075 0
M  V30 3018 C 310.58 0.425356 2.0677 0
M  V30 3019 O 309.928 -0.583267 2.2093 0
M  V30 3020 C 310.138 2.96631 1.83877 0
M  V30 3021 C 311.486 3.51653 2.37961 0
M  V30 3022 O 312.51 2.98743 1.93987 0
M  V30 3023 O 311.369 4.44177 3.18386 0
M  V30 3024 H 308.463 0.650825 0.510251 0
M  V30 3025 H 311.009 1.6594 0.35527 0
M  V30 3026 H 309.781 3.74293 1.14108 0
M  V30 3027 H 309.404 2.95242 2.66304 0
M  V30 3028 N 310.401 -0.613514 1.45168 0
M  V30 3029 C 311.678 -1.37263 1.39349 0
M  V30 3030 C 312.058 -2.11012 0.0610848 0
M  V30 3031 O 311.406 -2.07502 -0.956825 0
M  V30 3032 C 311.616 -2.3244 2.60332 0
M  V30 3033 C 312.964 -2.9523 3.05163 0
M  V30 3034 O 313.988 -2.42762 2.60663 0
M  V30 3035 O 312.847 -3.90454 3.82372 0
M  V30 3036 H 309.941 -0.615188 0.552696 0
M  V30 3037 H 312.487 -0.637097 1.57287 0
M  V30 3038 H 311.259 -1.77164 3.48896 0
M  V30 3039 H 310.882 -3.13383 2.44698 0
M  V30 3040 N 311.879 -1.3236 -0.855495 0
M  V30 3041 C 313.29 -1.2056 -1.42556 0
M  V30 3042 C 313.641 0.182209 -1.95352 0
M  V30 3043 O 312.766 1.08088 -1.87472 0
M  V30 3044 C 313.361 -2.1826 -2.59129 0
M  V30 3045 C 311.92 -2.10351 -3.12137 0
M  V30 3046 C 311.067 -2.06674 -1.84882 0
M  V30 3047 H 314.018 -1.442 -0.662727 0
M  V30 3048 H 314.039 -1.78064 -3.36264 0
M  V30 3049 H 313.551 -3.19257 -2.20673 0
M  V30 3050 H 311.652 -1.12599 -3.55179 0
M  V30 3051 H 311.765 -3.00135 -3.73438 0
M  V30 3052 H 310.129 -1.51901 -2.04446 0
M  V30 3053 H 310.912 -3.09451 -1.48643 0
M  V30 3054 N 313.357 1.07166 -1.15556 0
M  V30 3055 C 314.289 2.14341 -0.811815 0
M  V30 3056 C 315.302 1.61835 0.177015 0
M  V30 3057 O 316.491 1.78439 -0.0464996 0
M  V30 3058 C 313.591 3.38387 -0.186481 0
M  V30 3059 C 312.764 4.20238 -1.21321 0
M  V30 3060 C 311.823 5.2266 -0.609302 0
M  V30 3061 O 310.849 5.54719 -1.27576 0
M  V30 3062 N 312.051 5.77306 0.608099 0
M  V30 3063 H 314.816 2.44431 -1.73417 0
M  V30 3064 H 312.377 1.23089 -1.0517 0
M  V30 3065 H 314.369 4.04044 0.230339 0
M  V30 3066 H 312.939 3.05994 0.639249 0
M  V30 3067 H 312.159 3.50369 -1.80652 0
M  V30 3068 H 313.447 4.71736 -1.90638 0
M  V30 3069 H 312.845 5.53513 1.1679 0
M  V30 3070 H 311.402 6.44583 0.96725 0
M  V30 3071 N 314.835 0.952656 1.25548 0
M  V30 3072 C 315.765 0.489287 2.28316 0
M  V30 3073 C 316.746 -0.463359 1.63667 0
M  V30 3074 O 317.931 -0.36274 1.90782 0
M  V30 3075 C 315.061 -0.235603 3.465 0
M  V30 3076 C 314.015 0.631593 4.23314 0
M  V30 3077 C 313.341 -0.223923 5.34231 0
M  V30 3078 C 314.641 1.90871 4.86174 0
M  V30 3079 H 316.335 1.34822 2.67326 0
M  V30 3080 H 313.881 0.649728 1.28509 0
M  V30 3081 H 315.834 -0.570882 4.17515 0
M  V30 3082 H 314.558 -1.12877 3.06474 0
M  V30 3083 H 313.217 0.949929 3.54079 0
M  V30 3084 H 312.865 -1.11678 4.90446 0
M  V30 3085 H 312.565 0.35299 5.86539 0
M  V30 3086 H 314.089 -0.554214 6.0808 0
M  V30 3087 H 315.503 1.63997 5.49343 0
M  V30 3088 H 313.9 2.43112 5.4865 0
M  V30 3089 H 314.97 2.61304 4.08471 0
M  V30 3090 N 316.313 -1.40141 0.720998 0
M  V30 3091 C 317.26 -2.30688 0.071919 0
M  V30 3092 C 318.23 -1.48476 -0.744584 0
M  V30 3093 O 319.415 -1.77201 -0.707423 0
M  V30 3094 C 316.555 -3.34724 -0.839855 0
M  V30 3095 C 315.668 -4.31998 -0.0122438 0
M  V30 3096 C 314.803 -5.23102 -0.923995 0
M  V30 3097 C 313.842 -6.12033 -0.0907969 0
M  V30 3098 N 312.979 -6.95537 -0.957718 0
M  V30 3099 H 317.819 -2.85628 0.849755 0
M  V30 3100 H 315.356 -1.40653 0.430726 0
M  V30 3101 H 317.314 -3.93618 -1.38279 0
M  V30 3102 H 315.944 -2.81274 -1.58381 0
M  V30 3103 H 314.996 -3.74841 0.64794 0
M  V30 3104 H 316.308 -4.94772 0.632595 0
M  V30 3105 H 315.462 -5.86953 -1.53527 0
M  V30 3106 H 314.201 -4.60615 -1.60264 0
M  V30 3107 H 313.206 -5.47207 0.533377 0
M  V30 3108 H 314.431 -6.76581 0.584428 0
M  V30 3109 H 312.377 -6.35633 -1.62192 0
M  V30 3110 H 312.294 -7.55099 -0.36904 0
M  V30 3111 H 313.562 -7.63832 -1.555 0
M  V30 3112 N 317.792 -0.46758 -1.50504 0
M  V30 3113 C 319.208 -0.121533 -1.59137 0
M  V30 3114 C 319.408 1.3717 -1.47603 0
M  V30 3115 O 318.464 2.14464 -1.33272 0
M  V30 3116 C 319.777 -0.6686 -2.93173 0
M  V30 3117 C 321.325 -0.631716 -3.06559 0
M  V30 3118 C 321.8 -1.15627 -4.43164 0
M  V30 3119 N 323.291 -1.11553 -4.49567 0
M  V30 3120 C 324.026 -1.49195 -5.5365 0
M  V30 3121 N 323.522 -1.94269 -6.65005 0
M  V30 3122 N 325.315 -1.4082 -5.44175 0
M  V30 3123 H 317.466 -1.4388 -1.56245 0
M  V30 3124 H 319.729 -0.594784 -0.738198 0
M  V30 3125 H 319.435 -1.71453 -3.07078 0
M  V30 3126 H 319.309 -0.11021 -3.77039 0
M  V30 3127 H 321.696 0.405297 -2.92304 0
M  V30 3128 H 321.777 -1.22687 -2.24458 0
M  V30 3129 H 321.421 -2.1919 -4.58168 0
M  V30 3130 H 321.351 -0.537365 -5.23851 0
M  V30 3131 H 323.842 -0.784895 -3.69659 0
M  V30 3132 H 324.155 -2.21148 -7.40482 0
M  V30 3133 H 322.5 -1.98219 -6.66134 0
M  V30 3134 H 325.691 -1.0545 -4.56068 0
M  V30 3135 H 325.864 -1.70481 -6.25172 0
M  V30 3136 N 319.27 1.56325 -0.20005 0
M  V30 3137 C 320.18 2.22931 0.730668 0
M  V30 3138 C 321.196 1.22997 1.23076 0
M  V30 3139 O 322.372 1.55748 1.27689 0
M  V30 3140 C 319.437 2.87948 1.93098 0
M  V30 3141 C 318.498 4.03166 1.47497 0
M  V30 3142 C 317.731 4.65073 2.61807 0
M  V30 3143 O 317.954 4.25913 3.79413 0
M  V30 3144 O 316.888 5.54452 2.34237 0
M  V30 3145 H 320.714 3.03084 0.193391 0
M  V30 3146 H 318.299 1.49371 0.0294621 0
M  V30 3147 H 320.181 3.29063 2.6324 0
M  V30 3148 H 318.856 2.10771 2.45677 0
M  V30 3149 H 317.763 3.66664 0.742201 0
M  V30 3150 H 319.096 4.82022 0.995796 0
M  V30 3151 N 320.748 -0.0735177 1.57428 0
M  V30 3152 C 321.997 -0.771809 1.86349 0
M  V30 3153 C 322.31 -1.78828 0.792452 0
M  V30 3154 O 323.516 -2.53602 0.96945 0
M  V30 3155 C 321.972 -1.42358 3.30548 0
M  V30 3156 C 321.58 -0.445761 4.45777 0
M  V30 3157 C 323.324 -2.10434 3.6867 0
M  V30 3158 C 321.231 -1.10335 5.81016 0
M  V30 3159 H 320.161 -0.291999 0.695164 0
M  V30 3160 H 322.812 -0.0250749 1.83483 0
M  V30 3161 H 321.194 -2.21852 3.28021 0
M  V30 3162 H 322.368 0.319239 4.59693 0
M  V30 3163 H 320.683 0.130457 4.16196 0
M  V30 3164 H 323.28 -2.60405 4.67004 0
M  V30 3165 H 323.623 -2.90298 2.98383 0
M  V30 3166 H 324.156 -1.37773 3.7318 0
M  V30 3167 H 320.895 -0.345061 6.54591 0
M  V30 3168 H 320.415 -1.83925 5.70904 0
M  V30 3169 H 322.094 -1.62367 6.26295 0
M  V30 3170 N 322.226 -1.5378 -0.344866 0
M  V30 3171 C 323.642 -1.44015 -0.687888 0
M  V30 3172 C 323.842 -0.595834 -1.92489 0
M  V30 3173 O 322.898 -0.0863064 -2.52352 0
M  V30 3174 C 324.211 -2.87481 -0.881758 0
M  V30 3175 C 325.759 -2.97247 -0.980459 0
M  V30 3176 C 326.234 -4.41819 -1.20665 0
M  V30 3177 N 327.725 -4.45339 -1.27389 0
M  V30 3178 C 328.46 -5.54333 -1.46639 0
M  V30 3179 N 327.956 -6.73335 -1.63071 0
M  V30 3180 N 329.749 -5.41944 -1.49176 0
M  V30 3181 H 321.9 -2.07169 0.468475 0
M  V30 3182 H 324.163 -0.93643 0.147655 0
M  V30 3183 H 323.869 -3.51672 -0.0443444 0
M  V30 3184 H 323.743 -3.32352 -1.78388 0
M  V30 3185 H 326.13 -2.33197 -1.8084 0
M  V30 3186 H 326.211 -2.5574 -0.0552713 0
M  V30 3187 H 325.855 -5.06449 -0.383652 0
M  V30 3188 H 325.785 -4.80917 -2.14539 0
M  V30 3189 H 328.276 -3.59585 -1.1622 0
M  V30 3190 H 328.589 -7.52165 -1.77391 0
M  V30 3191 H 326.934 -6.76282 -1.60209 0
M  V30 3192 H 330.125 -4.47932 -1.3592 0
M  V30 3193 H 330.298 -6.26946 -1.63837 0
M  V30 3194 N 323.704 0.605807 -1.45491 0
M  V30 3195 C 324.634 1.72709 -1.57143 0
M  V30 3196 C 325.615 1.6476 -0.422884 0
M  V30 3197 O 326.8 1.83132 -0.646247 0
M  V30 3198 C 323.93 3.11316 -1.53948 0
M  V30 3199 C 322.884 3.34077 -2.67537 0
M  V30 3200 C 322.21 4.72975 -2.49397 0
M  V30 3201 C 323.51 3.24158 -4.09535 0
M  V30 3202 H 325.204 1.63214 -2.51001 0
M  V30 3203 H 322.75 0.78379 -1.208 0
M  V30 3204 H 324.703 3.89557 -1.60696 0
M  V30 3205 H 323.427 3.21655 -0.566205 0
M  V30 3206 H 322.086 2.58227 -2.6022 0
M  V30 3207 H 321.734 4.8005 -1.50205 0
M  V30 3208 H 321.434 4.8916 -3.25571 0
M  V30 3209 H 322.958 5.53414 -2.58002 0
M  V30 3210 H 324.372 3.92271 -4.18086 0
M  V30 3211 H 322.769 3.51872 -4.86113 0
M  V30 3212 H 323.839 2.2157 -4.31317 0
M  V30 3213 N 325.182 1.32811 0.848464 0
M  V30 3214 C 326.115 1.16601 1.96162 0
M  V30 3215 C 327.093 0.0638855 1.62474 0
M  V30 3216 O 328.277 0.224348 1.8716 0
M  V30 3217 C 325.404 0.786333 3.29446 0
M  V30 3218 C 324.45 1.89459 3.8211 0
M  V30 3219 S 325.283 3.50395 4.04949 0
M  V30 3220 C 326.439 3.14413 5.41198 0
M  V30 3221 H 326.672 2.10832 2.09612 0
M  V30 3222 H 324.205 1.17543 1.00115 0
M  V30 3223 H 326.163 0.574044 4.06466 0
M  V30 3224 H 324.824 -0.137218 3.138 0
M  V30 3225 H 324.017 1.58207 4.78526 0
M  V30 3226 H 323.619 2.06304 3.11953 0
M  V30 3227 H 325.911 2.64642 6.23675 0
M  V30 3228 H 326.854 4.09874 5.77416 0
M  V30 3229 H 327.262 2.51266 5.05495 0
M  V30 3230 N 326.66 -1.06551 1.16123 0
M  V30 3231 C 327.607 -2.13961 0.865414 0
M  V30 3232 C 328.577 -1.65066 -0.185055 0
M  V30 3233 O 329.762 -1.90732 -0.05083 0
M  V30 3234 C 326.902 -3.43113 0.369776 0
M  V30 3235 C 326.015 -4.05756 1.48276 0
M  V30 3236 C 325.15 -5.22773 0.942414 0
M  V30 3237 C 324.189 -5.77395 2.03179 0
M  V30 3238 N 323.326 -6.85731 1.50721 0
M  V30 3239 H 328.166 -2.38605 1.78527 0
M  V30 3240 H 325.703 -1.17072 0.890646 0
M  V30 3241 H 327.661 -4.17151 0.0640643 0
M  V30 3242 H 326.291 -3.18695 -0.513143 0
M  V30 3243 H 325.343 -3.29292 1.9045 0
M  V30 3244 H 326.655 -4.42351 2.30493 0
M  V30 3245 H 325.809 -6.03827 0.589729 0
M  V30 3246 H 324.548 -4.87618 0.0895191 0
M  V30 3247 H 323.553 -4.94981 2.3932 0
M  V30 3248 H 324.778 -6.14603 2.8886 0
M  V30 3249 H 322.724 -6.52499 0.676811 0
M  V30 3250 H 322.641 -7.21254 2.26557 0
M  V30 3251 H 323.909 -7.7047 1.18303 0
M  V30 3252 N 328.138 -0.959301 -1.25041 0
M  V30 3253 C 329.086 -0.474437 -2.2771 0
M  V30 3254 C 330.08 0.457697 -1.631 0
M  V30 3255 O 331.286 0.333912 -1.76876 0
M  V30 3256 H 327.661 -0.134936 -0.739795 0
M  V30 3257 H 329.632 -1.35251 -2.65988 0
M  V30 3258 C 328.381 0.227884 -3.46952 0
M  V30 3259 H 327.704 -0.480248 -3.96905 0
M  V30 3260 H 329.144 0.531091 -4.20661 0
M  V30 3261 C 327.603 1.452 -3.04004 0
M  V30 3262 O 328.133 2.54949 -3.10426 0
M  V30 3263 N 326.339 1.31502 -2.59144 0
M  V30 3264 H 325.886 0.422065 -2.54119 0
M  V30 3265 H 325.844 2.13521 -2.30773 0
M  V30 3266 N 329.616 1.39756 -0.72842 0
M  V30 3267 C 331.032 1.5442 -0.403308 0
M  V30 3268 C 331.232 1.69694 1.08656 0
M  V30 3269 O 330.288 1.69373 1.87267 0
M  V30 3270 C 331.601 2.76555 -1.18058 0
M  V30 3271 C 333.149 2.90384 -1.16815 0
M  V30 3272 C 333.624 4.15449 -1.92785 0
M  V30 3273 N 335.115 4.22475 -1.89918 0
M  V30 3274 C 335.85 5.1818 -2.45514 0
M  V30 3275 N 335.346 6.19714 -3.09719 0
M  V30 3276 N 337.139 5.1035 -2.35584 0
M  V30 3277 H 329.29 1.28089 -1.69431 0
M  V30 3278 H 331.553 0.620327 -0.716867 0
M  V30 3279 H 331.259 2.7159 -2.23455 0
M  V30 3280 H 331.133 3.69033 -0.780662 0
M  V30 3281 H 333.52 2.94846 -0.12234 0
M  V30 3282 H 333.601 1.98988 -1.6074 0
M  V30 3283 H 333.245 4.11749 -2.97364 0
M  V30 3284 H 333.175 5.05877 -1.46272 0
M  V30 3285 H 335.666 3.49743 -1.43138 0
M  V30 3286 H 335.979 6.8919 -3.49625 0
M  V30 3287 H 334.324 6.20121 -3.13807 0
M  V30 3288 H 337.515 4.2996 -1.85072 0
M  V30 3289 H 337.688 5.84761 -2.79211 0
M  V30 3290 N 331.094 0.475555 1.50254 0
M  V30 3291 C 332.004 -0.321501 2.32387 0
M  V30 3292 C 333.02 -0.991755 1.42969 0
M  V30 3293 O 334.196 -0.978747 1.76018 0
M  V30 3294 C 331.261 -1.38667 3.17762 0
M  V30 3295 C 330.322 -0.732538 4.23004 0
M  V30 3296 C 329.555 -1.74695 5.04299 0
M  V30 3297 O 329.778 -2.97399 4.86734 0
M  V30 3298 O 328.712 -1.31631 5.8733 0
M  V30 3299 H 332.538 0.350071 3.01676 0
M  V30 3300 H 330.123 0.237321 1.47503 0
M  V30 3301 H 332.005 -2.00354 3.70724 0
M  V30 3302 H 330.68 -2.04163 2.51196 0
M  V30 3303 H 329.587 -0.0765902 3.74022 0
M  V30 3304 H 330.92 -0.120452 4.92053 0
M  V30 3305 N 332.573 -1.56217 0.208337 0
M  V30 3306 C 333.536 -2.18455 -0.693557 0
M  V30 3307 C 334.536 -1.14268 -1.13135 0
M  V30 3308 O 335.726 -1.39577 -1.0423 0
M  V30 3309 C 332.858 -2.79727 -1.94848 0
M  V30 3310 H 334.051 -2.99519 -0.15114 0
M  V30 3311 H 331.604 -1.56245 -0.041287 0
M  V30 3312 H 332.339 -2.02497 -2.53309 0
M  V30 3313 H 332.124 -3.56009 -1.64316 0
M  V30 3314 H 333.614 -3.27475 -2.59133 0
M  V30 3315 N 334.051 0.0651679 -1.57465 0
M  V30 3316 C 335.014 1.06117 -2.03155 0
M  V30 3317 C 336.014 1.31204 -0.929632 0
M  V30 3318 O 337.204 1.26813 -1.19432 0
M  V30 3319 C 334.336 2.4032 -2.41783 0
M  V30 3320 H 335.529 0.667231 -2.92383 0
M  V30 3321 H 333.082 0.311075 -1.53173 0
M  V30 3322 H 333.817 2.84532 -1.55601 0
M  V30 3323 H 333.602 2.23451 -3.22199 0
M  V30 3324 H 335.092 3.11898 -2.77685 0
M  V30 3325 N 335.529 1.53961 0.336706 0
M  V30 3326 C 336.945 1.44378 0.680241 0
M  V30 3327 C 337.145 0.606034 1.9217 0
M  V30 3328 O 336.201 0.099688 2.52303 0
M  V30 3329 C 337.514 2.87945 0.8665 0
M  V30 3330 C 339.062 2.97763 0.964682 0
M  V30 3331 C 339.537 4.42453 1.18321 0
M  V30 3332 N 341.028 4.46008 1.25025 0
M  V30 3333 C 341.763 5.55102 1.43697 0
M  V30 3334 N 341.259 6.7419 1.59498 0
M  V30 3335 N 343.052 5.42727 1.463 0
M  V30 3336 H 335.203 2.06918 -0.479455 0
M  V30 3337 H 337.466 0.935634 -0.152619 0
M  V30 3338 H 337.172 3.51691 0.0256937 0
M  V30 3339 H 337.046 3.33293 1.76623 0
M  V30 3340 H 339.433 2.34153 1.796 0
M  V30 3341 H 339.514 2.55766 0.041708 0
M  V30 3342 H 339.158 5.06645 0.356788 0
M  V30 3343 H 339.088 4.82048 2.11985 0
M  V30 3344 H 341.579 3.60196 1.14312 0
M  V30 3345 H 341.892 7.53095 1.734 0
M  V30 3346 H 340.237 6.77123 1.56621 0
M  V30 3347 H 343.428 4.48647 1.33543 0
M  V30 3348 H 343.601 6.27806 1.6051 0
M  V30 3349 N 337.007 -0.598083 1.45811 0
M  V30 3350 C 337.917 -1.73632 1.57763 0
M  V30 3351 C 338.933 -1.67763 0.461676 0
M  V30 3352 O 340.109 -1.87949 0.723685 0
M  V30 3353 C 337.174 -3.10114 1.55018 0
M  V30 3354 C 336.235 -3.27364 2.77726 0
M  V30 3355 C 335.468 -4.57334 2.75102 0
M  V30 3356 O 335.691 -5.40258 1.8297 0
M  V30 3357 O 334.625 -4.77502 3.66437 0
M  V30 3358 H 338.451 -1.66498 2.53992 0
M  V30 3359 H 336.036 -0.763308 1.28429 0
M  V30 3360 H 337.918 -3.9141 1.56129 0
M  V30 3361 H 336.593 -3.17718 0.619431 0
M  V30 3362 H 335.5 -2.45619 2.82174 0
M  V30 3363 H 336.833 -3.24641 3.69958 0
M  V30 3364 N 338.485 -1.33259 -0.841409 0
M  V30 3365 C 339.725 -1.25902 -1.61022 0
M  V30 3366 C 340.089 0.173325 -1.91216 0
M  V30 3367 O 341.29 0.370824 -2.6623 0
M  V30 3368 C 339.561 -2.10735 -2.88662 0
M  V30 3369 S 341.12 -2.20541 -3.79351 0
M  V30 3370 H 337.938 -0.447958 -0.552137 0
M  V30 3371 H 340.54 -1.68263 -0.995382 0
M  V30 3372 H 339.244 -3.1384 -2.64448 0
M  V30 3373 H 338.775 -1.69201 -3.55154 0
M  V30 3374 H 340.79 -1.36462 -4.77067 0
M  V30 3375 N 339.963 1.05934 -1.16686 0
M  V30 3376 C 341.379 1.30938 -0.912542 0
M  V30 3377 C 341.579 1.96803 0.432533 0
M  V30 3378 O 340.635 2.23693 1.17123 0
M  V30 3379 C 341.948 2.18649 -2.06429 0
M  V30 3380 C 343.496 2.32055 -2.10047 0
M  V30 3381 C 343.971 3.23122 -3.24586 0
M  V30 3382 N 345.462 3.30706 -3.24327 0
M  V30 3383 C 346.197 4.01273 -4.09594 0
M  V30 3384 N 345.693 4.74332 -5.04956 0
M  V30 3385 N 347.486 3.97361 -3.97569 0
M  V30 3386 H 339.637 0.615777 -2.03278 0
M  V30 3387 H 341.9 0.334077 -0.887185 0
M  V30 3388 H 341.606 1.77534 -3.03603 0
M  V30 3389 H 341.48 3.19252 -2.00894 0
M  V30 3390 H 343.867 2.72415 -1.13464 0
M  V30 3391 H 343.948 1.31107 -2.19647 0
M  V30 3392 H 343.592 2.83477 -4.2143 0
M  V30 3393 H 343.522 4.24057 -3.12223 0
M  V30 3394 H 346.013 2.78644 -2.55276 0
M  V30 3395 H 346.326 5.25716 -5.6643 0
M  V30 3396 H 344.671 4.733 -5.08933 0
M  V30 3397 H 347.862 3.39405 -3.22369 0
M  V30 3398 H 348.035 4.52089 -4.64241 0
M  V30 3399 N 341.441 0.965919 1.2453 0
M  V30 3400 C 342.857 0.67216 1.44756 0
M  V30 3401 C 343.057 -0.766609 1.86347 0
M  V30 3402 O 342.113 -1.5407 2.00047 0
M  V30 3403 C 343.426 1.65473 2.51076 0
M  V30 3404 C 344.974 1.66716 2.64905 0
M  V30 3405 C 345.449 2.63766 3.74421 0
M  V30 3406 N 346.94 2.62198 3.81846 0
M  V30 3407 C 347.675 3.33966 4.66106 0
M  V30 3408 N 347.171 4.15245 5.54566 0
M  V30 3409 N 348.964 3.22799 4.60171 0
M  V30 3410 H 341.115 1.89553 0.958293 0
M  V30 3411 H 343.378 0.815979 0.482579 0
M  V30 3412 H 343.084 2.68296 2.27399 0
M  V30 3413 H 342.958 1.4261 3.49202 0
M  V30 3414 H 345.345 0.646057 2.87941 0
M  V30 3415 H 345.426 1.93642 1.67142 0
M  V30 3416 H 345.07 3.6601 3.52135 0
M  V30 3417 H 345 2.34121 4.71694 0
M  V30 3418 H 347.491 2.032 3.18619 0
M  V30 3419 H 347.804 4.66898 6.15814 0
M  V30 3420 H 346.149 4.1934 5.54237 0
M  V30 3421 H 349.34 2.58764 3.90075 0
M  V30 3422 H 349.513 3.78994 5.25612 0
M  V30 3423 N 342.919 -1.39368 0.735821 0
M  V30 3424 C 343.866 -2.30599 0.0963825 0
M  V30 3425 C 344.836 -1.49257 -0.728794 0
M  V30 3426 O 346.021 -1.77941 -0.688588 0
M  V30 3427 C 343.161 -3.35596 -0.804305 0
M  V30 3428 C 342.274 -4.31987 0.0335761 0
M  V30 3429 C 341.409 -5.24053 -0.868461 0
M  V30 3430 C 340.448 -6.12095 -0.0258776 0
M  V30 3431 N 339.585 -6.96514 -0.883893 0
M  V30 3432 H 344.425 -2.8471 0.880002 0
M  V30 3433 H 341.962 -1.40188 0.445619 0
M  V30 3434 H 343.92 -3.95062 -1.34096 0
M  V30 3435 H 342.55 -2.82938 -1.55389 0
M  V30 3436 H 341.602 -3.74133 0.68766 0
M  V30 3437 H 342.914 -4.94074 0.685036 0
M  V30 3438 H 342.068 -5.88549 -1.47293 0
M  V30 3439 H 340.807 -4.62289 -1.5537 0
M  V30 3440 H 339.812 -5.4661 0.591386 0
M  V30 3441 H 341.037 -6.75923 0.656156 0
M  V30 3442 H 338.983 -6.37318 -1.55441 0
M  V30 3443 H 338.9 -7.55448 -0.288931 0
M  V30 3444 H 340.168 -7.65439 -1.4739 0
M  V30 3445 N 344.397 -0.483516 -1.5 0
M  V30 3446 C 345.344 0.304164 -2.28787 0
M  V30 3447 C 346.314 0.976114 -1.34392 0
M  V30 3448 O 347.499 0.986156 -1.63339 0
M  V30 3449 C 344.639 1.37298 -3.16612 0
M  V30 3450 C 343.752 0.714561 -4.26049 0
M  V30 3451 C 342.887 1.76232 -5.01114 0
M  V30 3452 C 341.926 1.08483 -6.0241 0
M  V30 3453 N 341.063 2.076 -6.70706 0
M  V30 3454 H 345.903 -0.373981 -2.95644 0
M  V30 3455 H 343.44 -0.196275 -1.45785 0
M  V30 3456 H 345.398 2.00445 -3.65893 0
M  V30 3457 H 344.028 2.02012 -2.51776 0
M  V30 3458 H 343.08 -0.0297798 -3.80388 0
M  V30 3459 H 344.392 0.180383 -4.98474 0
M  V30 3460 H 343.546 2.46929 -5.54176 0
M  V30 3461 H 342.285 2.33033 -4.28424 0
M  V30 3462 H 341.29 0.363545 -5.48597 0
M  V30 3463 H 342.515 0.523551 -6.77079 0
M  V30 3464 H 340.461 2.63394 -6.00799 0
M  V30 3465 H 340.378 1.59201 -7.39047 0
M  V30 3466 H 341.646 2.77639 -7.2838 0
M  V30 3467 N 345.875 1.56104 -0.216619 0
M  V30 3468 C 346.822 2.2007 0.695531 0
M  V30 3469 C 347.792 1.15471 1.19397 0
M  V30 3470 O 348.977 1.43807 1.25396 0
M  V30 3471 C 346.117 2.88073 1.90021 0
M  V30 3472 C 345.23 4.07253 1.44113 0
M  V30 3473 C 344.365 4.63052 2.603 0
M  V30 3474 C 343.404 5.74545 2.11103 0
M  V30 3475 N 342.541 6.24656 3.20545 0
M  V30 3476 H 347.381 2.97655 0.143327 0
M  V30 3477 H 344.918 1.46982 0.0589934 0
M  V30 3478 H 346.876 3.25681 2.60745 0
M  V30 3479 H 345.506 2.13015 2.42538 0
M  V30 3480 H 344.558 3.75164 0.628999 0
M  V30 3481 H 345.87 4.8783 1.04036 0
M  V30 3482 H 345.024 5.03078 3.39113 0
M  V30 3483 H 343.763 3.81628 3.03663 0
M  V30 3484 H 342.768 5.34027 1.3075 0
M  V30 3485 H 343.993 6.57801 1.68746 0
M  V30 3486 H 341.939 5.46148 3.63399 0
M  V30 3487 H 341.856 7.00343 2.84704 0
M  V30 3488 H 343.124 6.69338 3.99508 0
M  V30 3489 N 347.353 -0.0568162 1.57498 0
M  V30 3490 C 348.263 -1.08346 2.08083 0
M  V30 3491 C 349.279 -1.41439 1.01346 0
M  V30 3492 O 350.455 -1.51316 1.32912 0
M  V30 3493 C 347.52 -2.37352 2.52715 0
M  V30 3494 C 346.581 -2.11093 3.73816 0
M  V30 3495 C 345.814 -3.33949 4.1631 0
M  V30 3496 O 346.037 -4.43622 3.58547 0
M  V30 3497 O 344.971 -3.21279 5.08983 0
M  V30 3498 H 348.797 -0.683667 2.95905 0
M  V30 3499 H 346.382 -0.271965 1.46904 0
M  V30 3500 H 348.264 -3.13246 2.81877 0
M  V30 3501 H 346.939 -2.76681 1.68016 0
M  V30 3502 H 345.846 -1.32856 3.49714 0
M  V30 3503 H 347.179 -1.76637 4.59413 0
M  V30 3504 N 348.832 -1.54138 -0.328536 0
M  V30 3505 C 350.062 -1.75807 -1.08516 0
M  V30 3506 C 350.47 -0.50428 -1.82356 0
M  V30 3507 O 349.813 0.534451 -1.75754 0
M  V30 3508 C 349.875 -2.89423 -2.13248 0
M  V30 3509 C 349.539 -4.28504 -1.5885 0
M  V30 3510 C 350.536 -5.09536 -1.03289 0
M  V30 3511 C 348.221 -4.75034 -1.63243 0
M  V30 3512 C 350.215 -6.35206 -0.52845 0
M  V30 3513 C 347.902 -6.00672 -1.12411 0
M  V30 3514 C 348.9 -6.80592 -0.573062 0
M  V30 3515 O 348.588 -8.03867 -0.0723692 0
M  V30 3516 H 348.32 -0.590633 -0.328829 0
M  V30 3517 H 350.874 -2.01819 -0.381868 0
M  V30 3518 H 349.104 -2.5897 -2.87178 0
M  V30 3519 H 350.793 -2.98921 -2.74592 0
M  V30 3520 H 351.559 -4.74745 -0.99206 0
M  V30 3521 H 347.438 -4.12875 -2.05074 0
M  V30 3522 H 350.982 -6.97532 -0.0976774 0
M  V30 3523 H 346.879 -6.34955 -1.162 0
M  V30 3524 H 347.647 -8.18283 -0.188258 0
M  V30 3525 N 350.31 0.590341 -1.46126 0
M  V30 3526 C 351.556 1.35082 -1.51264 0
M  V30 3527 C 351.889 1.93534 -0.160711 0
M  V30 3528 O 351.164 1.76045 0.826956 0
M  V30 3529 C 351.447 2.48588 -2.6053 0
M  V30 3530 C 351.3 1.95221 -4.05227 0
M  V30 3531 C 352.619 3.50662 -2.6594 0
M  V30 3532 H 349.738 0.489803 -0.550692 0
M  V30 3533 H 352.38 0.663887 -1.78024 0
M  V30 3534 H 350.53 3.07186 -2.37843 0
M  V30 3535 H 352.202 1.41139 -4.39178 0
M  V30 3536 H 350.445 1.26101 -4.15068 0
M  V30 3537 H 351.116 2.77121 -4.77397 0
M  V30 3538 H 353.592 3.01934 -2.86313 0
M  V30 3539 H 352.468 4.27551 -3.44226 0
M  V30 3540 H 352.729 4.07399 -1.71694 0
M  V30 3541 N 351.788 1.33704 0.83433 0
M  V30 3542 C 352.735 1.24335 1.94447 0
M  V30 3543 C 353.705 0.120991 1.65659 0
M  V30 3544 O 354.89 0.300035 1.88426 0
M  V30 3545 C 352.03 0.993124 3.30501 0
M  V30 3546 C 351.143 2.20217 3.71657 0
M  V30 3547 C 350.278 1.88572 4.96602 0
M  V30 3548 C 349.317 3.05683 5.30306 0
M  V30 3549 N 348.454 2.73997 6.46429 0
M  V30 3550 H 353.294 2.1928 2.01792 0
M  V30 3551 H 350.831 1.09035 0.987404 0
M  V30 3552 H 352.789 0.828467 4.08892 0
M  V30 3553 H 351.419 0.0803902 3.227 0
M  V30 3554 H 350.471 2.47642 2.88752 0
M  V30 3555 H 351.783 3.07752 3.92543 0
M  V30 3556 H 350.937 1.68776 5.82752 0
M  V30 3557 H 349.676 0.982799 4.77695 0
M  V30 3558 H 348.681 3.26088 4.42659 0
M  V30 3559 H 349.906 3.96737 5.51159 0
M  V30 3560 H 347.852 1.86268 6.28999 0
M  V30 3561 H 347.769 3.55064 6.67432 0
M  V30 3562 H 349.037 2.57679 7.35678 0
M  V30 3563 N 353.266 -1.05314 1.17247 0
M  V30 3564 C 354.506 -1.79869 0.970898 0
M  V30 3565 C 354.87 -1.85594 -0.491808 0
M  V30 3566 O 356.071 -2.56229 -0.812409 0
M  V30 3567 C 354.342 -3.19937 1.59295 0
M  V30 3568 S 355.901 -4.10986 1.53741 0
M  V30 3569 H 352.719 -0.61949 0.348931 0
M  V30 3570 H 355.321 -1.26368 1.49169 0
M  V30 3571 H 354.025 -3.13372 2.65003 0
M  V30 3572 H 353.556 -3.78515 1.07191 0
M  V30 3573 H 355.571 -4.93203 0.544537 0
M  V30 3574 N 354.744 -0.972509 -1.24016 0
M  V30 3575 C 355.674 -0.525548 -2.27509 0
M  V30 3576 C 356.655 0.437262 -1.64384 0
M  V30 3577 O 357.84 0.332343 -1.91335 0
M  V30 3578 C 354.97 0.180448 -3.46831 0
M  V30 3579 C 353.924 -0.698859 -4.22256 0
M  V30 3580 C 353.25 0.138903 -5.3452 0
M  V30 3581 C 354.55 -1.98582 -4.83076 0
M  V30 3582 H 356.244 -1.39058 -2.65148 0
M  V30 3583 H 353.79 -0.67009 -1.27459 0
M  V30 3584 H 355.743 0.504387 -4.18371 0
M  V30 3585 H 354.467 1.07987 -3.08231 0
M  V30 3586 H 353.126 -1.00614 -3.52523 0
M  V30 3587 H 352.774 1.03862 -4.9216 0
M  V30 3588 H 352.474 -0.446259 -5.85903 0
M  V30 3589 H 353.998 0.457404 -6.08884 0
M  V30 3590 H 355.412 -1.72715 -5.46665 0
M  V30 3591 H 353.809 -2.5181 -5.44713 0
M  V30 3592 H 354.879 -2.67769 -4.04262 0
M  V30 3593 N 356.222 1.38976 -0.743202 0
M  V30 3594 C 357.132 2.3434 -0.110399 0
M  V30 3595 C 358.148 1.58741 0.712559 0
M  V30 3596 O 359.324 1.9099 0.639125 0
M  V30 3597 C 356.389 3.37812 0.780012 0
M  V30 3598 C 355.45 4.29263 -0.0561319 0
M  V30 3599 C 354.683 5.27793 0.791875 0
M  V30 3600 O 354.906 5.33043 2.03031 0
M  V30 3601 O 353.84 6.01512 0.216183 0
M  V30 3602 H 357.666 2.90129 -0.897714 0
M  V30 3603 H 355.251 1.40643 -0.503966 0
M  V30 3604 H 357.133 4.01194 1.28923 0
M  V30 3605 H 355.808 2.84395 1.546 0
M  V30 3606 H 354.715 3.69076 -0.611056 0
M  V30 3607 H 356.048 4.85907 -0.784531 0
M  V30 3608 N 357.7 0.491464 1.49741 0
M  V30 3609 C 358.648 -0.305837 2.30581 0
M  V30 3610 C 359.642 -0.971642 1.38764 0
M  V30 3611 O 360.848 -0.90042 1.5586 0
M  V30 3612 H 357.223 -0.117482 0.742767 0
M  V30 3613 H 359.194 0.396093 2.95759 0
M  V30 3614 C 357.943 -1.36319 3.19863 0
M  V30 3615 H 357.266 -0.860258 3.90435 0
M  V30 3616 H 358.706 -1.89323 3.79385 0
M  V30 3617 C 357.165 -2.37621 2.38826 0
M  V30 3618 O 357.695 -3.43311 2.08567 0
M  V30 3619 N 355.901 -2.09849 2.01026 0
M  V30 3620 H 355.448 -1.23922 2.25834 0
M  V30 3621 H 355.406 -2.77859 1.47112 0
M  V30 3622 N 359.178 -1.55987 0.224894 0
M  V30 3623 C 360.594 -1.59066 -0.130426 0
M  V30 3624 C 360.794 -1.24176 -1.5869 0
M  V30 3625 O 359.85 -0.978592 -2.32766 0
M  V30 3626 C 361.163 -3.00042 0.198883 0
M  V30 3627 C 362.711 -3.1268 0.141391 0
M  V30 3628 C 363.186 -4.55839 0.444422 0
M  V30 3629 N 364.677 -4.6152 0.394115 0
M  V30 3630 C 365.412 -5.70231 0.602038 0
M  V30 3631 N 364.908 -6.87291 0.871914 0
M  V30 3632 N 366.701 -5.59555 0.534245 0
M  V30 3633 H 358.852 -1.76941 1.17497 0
M  V30 3634 H 361.115 -0.822604 0.471197 0
M  V30 3635 H 360.821 -3.30234 1.2099 0
M  V30 3636 H 360.695 -3.74075 -0.484535 0
M  V30 3637 H 363.082 -2.82283 -0.860265 0
M  V30 3638 H 363.163 -2.40969 0.858335 0
M  V30 3639 H 362.807 -4.86954 1.44353 0
M  V30 3640 H 362.737 -5.2578 -0.293752 0
M  V30 3641 H 365.228 -3.77405 0.193356 0
M  V30 3642 H 365.541 -7.66058 1.01858 0
M  V30 3643 H 363.886 -6.89028 0.909145 0
M  V30 3644 H 367.077 -4.6698 0.323612 0
M  V30 3645 H 367.25 -6.44211 0.699693 0
M  V30 3646 N 360.656 0.0484629 -1.57525 0
M  V30 3647 C 361.902 0.744226 -1.88651 0
M  V30 3648 C 362.235 1.76029 -0.820212 0
M  V30 3649 O 361.51 1.93782 0.166985 0
M  V30 3650 C 361.793 1.43128 -3.30434 0
M  V30 3651 C 361.646 0.43005 -4.47739 0
M  V30 3652 C 362.965 2.37031 -3.70816 0
M  V30 3653 H 360.084 0.269089 -0.68612 0
M  V30 3654 H 362.726 0.00713532 -1.89999 0
M  V30 3655 H 360.876 2.05956 -3.29415 0
M  V30 3656 H 362.548 -0.194816 -4.60888 0
M  V30 3657 H 360.791 -0.252522 -4.33064 0
M  V30 3658 H 361.462 0.948874 -5.43783 0
M  V30 3659 H 363.938 1.84263 -3.73077 0
M  V30 3660 H 362.814 2.82094 -4.70865 0
M  V30 3661 H 363.075 3.22864 -3.02012 0
M  V30 3662 N 362.134 1.5431 0.320358 0
M  V30 3663 C 363.097 1.83195 1.3774 0
M  V30 3664 C 364.097 0.703906 1.44575 0
M  V30 3665 O 365.287 0.972214 1.44546 0
M  V30 3666 C 362.419 1.99487 2.76438 0
M  V30 3667 H 363.612 2.77642 1.1338 0
M  V30 3668 H 361.165 1.46076 0.556012 0
M  V30 3669 H 361.9 1.07262 3.06048 0
M  V30 3670 H 361.685 2.81575 2.7287 0
M  V30 3671 H 363.175 2.23271 3.52902 0
M  V30 3672 N 363.613 -0.582584 1.46437 0
M  V30 3673 C 364.859 -1.34278 1.51978 0
M  V30 3674 C 365.192 -1.93446 0.170973 0
M  V30 3675 O 364.467 -1.76481 -0.817608 0
M  V30 3676 C 364.75 -2.47203 2.61845 0
M  V30 3677 C 364.603 -1.93069 4.06257 0
M  V30 3678 C 365.922 -3.49247 2.67795 0
M  V30 3679 H 363.041 -0.486876 0.553282 0
M  V30 3680 H 365.683 -0.654437 1.78374 0
M  V30 3681 H 363.833 -3.0592 2.39469 0
M  V30 3682 H 365.505 -1.38808 4.3992 0
M  V30 3683 H 363.748 -1.23898 4.1573 0
M  V30 3684 H 364.419 -2.74586 4.7886 0
M  V30 3685 H 366.895 -3.00411 2.8791 0
M  V30 3686 H 365.771 -4.25719 3.46489 0
M  V30 3687 H 366.032 -4.06482 1.73852 0
M  V30 3688 N 365.091 -1.34144 -0.827227 0
M  V30 3689 C 366.021 -1.28005 -1.95287 0
M  V30 3690 C 367.002 -0.158321 -1.69362 0
M  V30 3691 O 368.187 -0.349987 -1.9102 0
M  V30 3692 C 365.317 -1.03036 -3.31664 0
M  V30 3693 C 364.271 -2.11628 -3.72019 0
M  V30 3694 C 363.597 -1.71854 -5.0633 0
M  V30 3695 C 364.897 -3.53417 -3.8457 0
M  V30 3696 H 366.591 -2.22187 -2.00682 0
M  V30 3697 H 364.137 -1.0696 -0.964135 0
M  V30 3698 H 366.09 -0.973863 -4.09993 0
M  V30 3699 H 364.814 -0.0529391 -3.26557 0
M  V30 3700 H 363.473 -2.16339 -2.95961 0
M  V30 3701 H 363.121 -0.727841 -4.97706 0
M  V30 3702 H 362.821 -2.44531 -5.34302 0
M  V30 3703 H 364.345 -1.67692 -5.87122 0
M  V30 3704 H 365.759 -3.51142 -4.5318 0
M  V30 3705 H 364.156 -4.24679 -4.2399 0
M  V30 3706 H 365.226 -3.91072 -2.86689 0
M  V30 3707 N 366.569 1.04691 -1.17803 0
M  V30 3708 C 367.479 2.16057 -0.914151 0
M  V30 3709 C 368.495 1.73589 0.119503 0
M  V30 3710 O 369.671 2.01308 -0.0609468 0
M  V30 3711 C 366.736 3.4394 -0.436603 0
M  V30 3712 C 365.797 4.00825 -1.53746 0
M  V30 3713 C 365.03 5.22604 -1.0826 0
M  V30 3714 O 365.253 5.70367 0.0612244 0
M  V30 3715 O 364.187 5.7186 -1.87775 0
M  V30 3716 H 368.013 2.41169 -1.84584 0
M  V30 3717 H 365.598 1.1453 -0.959334 0
M  V30 3718 H 367.48 4.21024 -0.178057 0
M  V30 3719 H 366.155 3.20316 0.466869 0
M  V30 3720 H 365.062 3.25158 -1.84995 0
M  V30 3721 H 366.395 4.28778 -2.41683 0
M  V30 3722 N 368.047 0.979072 1.23499 0
M  V30 3723 C 368.995 0.510604 2.26926 0
M  V30 3724 C 369.989 -0.431691 1.63807 0
M  V30 3725 O 371.195 -0.30573 1.77385 0
M  V30 3726 H 367.57 0.146688 0.737554 0
M  V30 3727 H 369.541 1.39466 2.63803 0
M  V30 3728 C 368.29 -0.172658 3.47271 0
M  V30 3729 H 367.613 0.543331 3.96091 0
M  V30 3730 H 369.053 -0.464101 4.21452 0
M  V30 3731 C 367.512 -1.40345 3.06276 0
M  V30 3732 O 368.042 -2.49978 3.14442 0
M  V30 3733 N 366.248 -1.27362 2.61203 0
M  V30 3734 H 365.795 -0.381584 2.54758 0
M  V30 3735 H 365.753 -2.09822 2.34141 0
M  V30 3736 N 369.525 -1.3858 0.750561 0
M  V30 3737 C 370.457 -2.29057 0.0810714 0
M  V30 3738 C 371.47 -1.47596 -0.686973 0
M  V30 3739 O 372.659 -1.70495 -0.528563 0
M  V30 3740 C 369.759 -3.26475 -0.909247 0
M  V30 3741 C 368.932 -4.36945 -0.199478 0
M  V30 3742 C 367.991 -5.14572 -1.10011 0
M  V30 3743 O 367.017 -5.66321 -0.57177 0
M  V30 3744 N 368.219 -5.27262 -2.42849 0
M  V30 3745 H 370.984 -2.87153 0.858087 0
M  V30 3746 H 368.545 -1.50328 0.60109 0
M  V30 3747 H 370.537 -3.75285 -1.51471 0
M  V30 3748 H 369.107 -2.69298 -1.58736 0
M  V30 3749 H 368.327 -3.8981 0.586664 0
M  V30 3750 H 369.615 -5.07963 0.291783 0
M  V30 3751 H 369.013 -4.86763 -2.88233 0
M  V30 3752 H 367.57 -5.79456 -2.98453 0
M  V30 3753 N 371.003 -0.499398 -1.49478 0
M  V30 3754 C 371.951 0.293604 -2.3074 0
M  V30 3755 C 372.945 0.96427 -1.39277 0
M  V30 3756 O 374.151 0.892141 -1.56336 0
M  V30 3757 H 370.526 0.113541 -0.743379 0
M  V30 3758 H 372.497 -0.411772 -2.95545 0
M  V30 3759 C 371.246 1.3462 -3.20582 0
M  V30 3760 H 370.569 0.83954 -3.90886 0
M  V30 3761 H 372.009 1.87308 -3.80384 0
M  V30 3762 C 370.468 2.36351 -2.40083 0
M  V30 3763 O 370.998 3.422 -2.10385 0
M  V30 3764 N 369.204 2.0878 -2.02137 0
M  V30 3765 H 368.751 1.22723 -2.26488 0
M  V30 3766 H 368.709 2.77075 -1.48583 0
M  V30 3767 N 372.481 1.55866 -0.233164 0
M  V30 3768 C 373.428 2.20796 0.67215 0
M  V30 3769 C 374.398 1.16731 1.18166 0
M  V30 3770 O 375.583 1.45129 1.23864 0
M  V30 3771 C 372.723 2.90072 1.86955 0
M  V30 3772 C 371.836 4.08759 1.39786 0
M  V30 3773 C 370.971 4.65787 2.55374 0
M  V30 3774 C 370.01 5.76752 2.04998 0
M  V30 3775 N 369.147 6.28021 3.13901 0
M  V30 3776 H 373.987 2.9779 0.111749 0
M  V30 3777 H 371.524 1.47036 0.0434007 0
M  V30 3778 H 373.482 3.28428 2.57276 0
M  V30 3779 H 372.112 2.15575 2.40265 0
M  V30 3780 H 371.164 3.7581 0.589173 0
M  V30 3781 H 372.476 4.88906 0.98856 0
M  V30 3782 H 371.63 5.06646 3.33758 0
M  V30 3783 H 370.369 3.84828 2.99598 0
M  V30 3784 H 369.374 5.35383 1.25079 0
M  V30 3785 H 370.599 6.59553 1.61759 0
M  V30 3786 H 368.545 5.49971 3.57586 0
M  V30 3787 H 368.462 7.03323 2.7726 0
M  V30 3788 H 369.73 6.73538 3.92386 0
M  V30 3789 N 373.959 -0.0401083 1.57549 0
M  V30 3790 C 375.187 -0.745196 1.93014 0
M  V30 3791 C 375.602 -1.6948 0.831984 0
M  V30 3792 O 374.959 -1.81482 -0.192463 0
M  V30 3793 C 375.01 -1.51176 3.28372 0
M  V30 3794 O 374.731 -0.600284 4.33968 0
M  V30 3795 C 376.232 -2.315 3.78051 0
M  V30 3796 H 373.452 -0.210088 0.637263 0
M  V30 3797 H 375.996 -0.000924689 2.045 0
M  V30 3798 H 374.151 -2.20801 3.18317 0
M  V30 3799 H 374.565 -1.13669 5.12035 0
M  V30 3800 H 376.039 -2.80697 4.75303 0
M  V30 3801 H 376.516 -3.12436 3.08675 0
M  V30 3802 H 377.122 -1.66971 3.91153 0
M  V30 3803 N 375.437 -1.54477 -0.31217 0
M  V30 3804 C 376.367 -1.87652 -1.38957 0
M  V30 3805 C 377.348 -0.734358 -1.53431 0
M  V30 3806 O 378.533 -0.98911 -1.67123 0
M  V30 3807 C 375.663 -2.11396 -2.75552 0
M  V30 3808 C 374.617 -3.27243 -2.75855 0
M  V30 3809 C 373.943 -3.36382 -4.15633 0
M  V30 3810 C 375.243 -4.64622 -2.38587 0
M  V30 3811 H 376.937 -2.77887 -1.11442 0
M  V30 3812 H 374.483 -1.33707 -0.534655 0
M  V30 3813 H 376.436 -2.33189 -3.51 0
M  V30 3814 H 375.16 -1.17921 -3.04569 0
M  V30 3815 H 373.819 -3.05356 -2.02863 0
M  V30 3816 H 373.467 -2.40445 -4.41809 0
M  V30 3817 H 373.167 -4.14249 -4.1674 0
M  V30 3818 H 374.691 -3.60422 -4.92877 0
M  V30 3819 H 376.105 -4.86219 -3.03749 0
M  V30 3820 H 374.502 -5.45121 -2.50925 0
M  V30 3821 H 375.572 -4.66097 -1.33723 0
M  V30 3822 N 376.915 0.57481 -1.46744 0
M  V30 3823 C 378.164 1.32898 -1.51727 0
M  V30 3824 C 378.477 1.948 -0.176692 0
M  V30 3825 O 379.683 2.71299 -0.104385 0
M  V30 3826 C 378.139 2.40901 -2.67385 0
M  V30 3827 C 377.747 1.85266 -4.07898 0
M  V30 3828 C 379.491 3.17609 -2.81646 0
M  V30 3829 C 377.398 2.90945 -5.14883 0
M  V30 3830 H 376.328 0.499631 -0.564699 0
M  V30 3831 H 378.979 0.612536 -1.72975 0
M  V30 3832 H 377.361 3.15379 -2.39483 0
M  V30 3833 H 378.535 1.17278 -4.45626 0
M  V30 3834 H 376.85 1.21199 -3.98371 0
M  V30 3835 H 379.447 3.96493 -3.58744 0
M  V30 3836 H 379.79 3.70696 -1.89448 0
M  V30 3837 H 380.323 2.50239 -3.09233 0
M  V30 3838 H 377.062 2.42736 -6.089 0
M  V30 3839 H 376.582 3.57398 -4.81691 0
M  V30 3840 H 378.261 3.54755 -5.41071 0
M  V30 3841 N 378.394 1.34581 0.820102 0
M  V30 3842 C 379.304 1.28471 1.96297 0
M  V30 3843 C 380.32 0.191902 1.72939 0
M  V30 3844 O 381.496 0.418879 1.96996 0
M  V30 3845 C 378.561 1.04281 3.30645 0
M  V30 3846 C 377.622 2.22745 3.66992 0
M  V30 3847 C 376.855 1.997 4.9493 0
M  V30 3848 O 377.078 0.956656 5.6232 0
M  V30 3849 O 376.012 2.86723 5.2922 0
M  V30 3850 H 379.838 2.24624 2.04396 0
M  V30 3851 H 377.423 1.14816 0.955913 0
M  V30 3852 H 379.305 0.925841 4.11104 0
M  V30 3853 H 377.98 0.111697 3.23507 0
M  V30 3854 H 376.887 2.40003 2.86966 0
M  V30 3855 H 378.22 3.14257 3.78819 0
M  V30 3856 N 379.872 -1.04064 1.18357 0
M  V30 3857 C 380.782 -2.15569 0.925596 0
M  V30 3858 C 381.798 -1.7365 -0.110295 0
M  V30 3859 O 382.974 -2.01273 0.0716218 0
M  V30 3860 C 380.039 -3.43704 0.454836 0
M  V30 3861 C 379.1 -4.00004 1.55869 0
M  V30 3862 C 378.333 -5.22023 1.1103 0
M  V30 3863 O 378.556 -5.70392 -0.0309756 0
M  V30 3864 O 377.49 -5.70856 1.90805 0
M  V30 3865 H 381.316 -2.40187 1.8586 0
M  V30 3866 H 378.901 -1.1402 0.965394 0
M  V30 3867 H 380.783 -4.20923 0.200382 0
M  V30 3868 H 379.458 -3.20559 -0.449876 0
M  V30 3869 H 378.365 -3.24172 1.86716 0
M  V30 3870 H 379.698 -4.2749 2.43953 0
M  V30 3871 N 381.35 -0.985608 -1.22978 0
M  V30 3872 C 382.28 -0.549649 -2.26939 0
M  V30 3873 C 383.261 0.419803 -1.64838 0
M  V30 3874 O 384.446 0.31203 -1.91677 0
M  V30 3875 C 381.576 0.143652 -3.47003 0
M  V30 3876 C 380.53 -0.743606 -4.21491 0
M  V30 3877 C 379.856 0.0822027 -5.34637 0
M  V30 3878 C 381.156 -2.03694 -4.80943 0
M  V30 3879 H 382.85 -1.41862 -2.63658 0
M  V30 3880 H 380.396 -0.683571 -1.26741 0
M  V30 3881 H 382.349 0.459985 -4.18882 0
M  V30 3882 H 381.073 1.04711 -3.09359 0
M  V30 3883 H 379.732 -1.04347 -3.51436 0
M  V30 3884 H 379.38 0.986359 -4.93234 0
M  V30 3885 H 379.08 -0.508377 -5.85397 0
M  V30 3886 H 380.604 0.392797 -6.09335 0
M  V30 3887 H 382.018 -1.78504 -5.44802 0
M  V30 3888 H 380.415 -2.57573 -5.42011 0
M  V30 3889 H 381.485 -2.72042 -4.01399 0
M  V30 3890 N 382.828 1.3818 -0.7579 0
M  V30 3891 C 383.775 2.30416 -0.133057 0
M  V30 3892 C 384.745 1.50398 0.704957 0
M  V30 3893 O 385.93 1.79014 0.660192 0
M  V30 3894 C 383.07 3.36834 0.750813 0
M  V30 3895 C 382.183 4.31879 -0.102297 0
M  V30 3896 C 381.318 5.25368 0.784979 0
M  V30 3897 C 380.357 6.12058 -0.0715046 0
M  V30 3898 N 379.494 6.97832 0.772972 0
M  V30 3899 H 384.334 2.83274 -0.925186 0
M  V30 3900 H 381.871 1.39461 -0.467866 0
M  V30 3901 H 383.829 3.97145 1.27794 0
M  V30 3902 H 382.459 2.85374 1.50868 0
M  V30 3903 H 381.511 3.72991 -0.747095 0
M  V30 3904 H 382.823 4.92921 -0.763552 0
M  V30 3905 H 381.977 5.90818 1.37911 0
M  V30 3906 H 380.716 4.64703 1.47996 0
M  V30 3907 H 379.721 5.456 -0.678272 0
M  V30 3908 H 380.946 6.74793 -0.763606 0
M  V30 3909 H 378.892 6.3971 1.45282 0
M  V30 3910 H 378.809 7.55812 0.168709 0
M  V30 3911 H 380.077 7.67687 1.35194 0
M  V30 3912 N 384.306 0.507319 1.49211 0
M  V30 3913 C 385.534 -0.0315749 2.06876 0
M  V30 3914 C 385.949 -1.30241 1.36685 0
M  V30 3915 O 385.306 -1.76937 0.447152 0
M  V30 3916 C 385.357 -0.282627 3.60393 0
M  V30 3917 O 385.078 0.937835 4.27944 0
M  V30 3918 C 386.579 -0.864453 4.3479 0
M  V30 3919 H 383.799 0.0233048 0.670595 0
M  V30 3920 H 386.343 0.706484 1.91909 0
M  V30 3921 H 384.498 -0.97068 3.75042 0
M  V30 3922 H 384.912 0.704567 5.19746 0
M  V30 3923 H 386.386 -0.989664 5.43056 0
M  V30 3924 H 386.863 -1.86382 3.97692 0
M  V30 3925 H 387.469 -0.213672 4.24763 0
M  V30 3926 N 385.784 -1.5574 0.241426 0
M  V30 3927 C 386.714 -2.24133 -0.654722 0
M  V30 3928 C 387.695 -1.21974 -1.1856 0
M  V30 3929 O 388.88 -1.50612 -1.22595 0
M  V30 3930 C 386.01 -2.93659 -1.85423 0
M  V30 3931 C 384.964 -4.0246 -1.45636 0
M  V30 3932 C 384.29 -4.59383 -2.73626 0
M  V30 3933 C 385.59 -5.18468 -0.631506 0
M  V30 3934 H 387.284 -2.99281 -0.0844353 0
M  V30 3935 H 384.83 -1.43947 -0.0391707 0
M  V30 3936 H 386.783 -3.40203 -2.48676 0
M  V30 3937 H 385.507 -2.15991 -2.44981 0
M  V30 3938 H 384.166 -3.56676 -0.847202 0
M  V30 3939 H 383.814 -3.78422 -3.3137 0
M  V30 3940 H 383.514 -5.32826 -2.4773 0
M  V30 3941 H 385.038 -5.08658 -3.37786 0
M  V30 3942 H 386.452 -5.61272 -1.1682 0
M  V30 3943 H 384.849 -5.98266 -0.468831 0
M  V30 3944 H 385.919 -4.8358 0.357506 0
M  V30 3945 N 387.262 0.0317525 -1.57568 0
M  V30 3946 C 388.209 1.0332 -2.06382 0
M  V30 3947 C 389.179 1.36082 -0.952414 0
M  V30 3948 O 390.364 1.46466 -1.2228 0
M  V30 3949 C 387.504 2.32989 -2.54578 0
M  V30 3950 C 386.617 2.0641 -3.79498 0
M  V30 3951 C 385.752 3.2993 -4.16317 0
M  V30 3952 C 384.791 2.98893 -5.34162 0
M  V30 3953 N 383.928 4.14857 -5.66426 0
M  V30 3954 H 388.768 0.609982 -2.9169 0
M  V30 3955 H 386.305 0.289573 -1.44222 0
M  V30 3956 H 388.263 3.0875 -2.80587 0
M  V30 3957 H 386.893 2.73039 -1.7219 0
M  V30 3958 H 385.945 1.21158 -3.6059 0
M  V30 3959 H 387.257 1.79513 -4.65378 0
M  V30 3960 H 386.411 4.1406 -4.4344 0
M  V30 3961 H 385.15 3.59938 -3.29083 0
M  V30 3962 H 384.155 2.13164 -5.06795 0
M  V30 3963 H 385.38 2.70165 -6.23047 0
M  V30 3964 H 383.326 4.44821 -4.82151 0
M  V30 3965 H 383.243 3.91374 -6.4681 0
M  V30 3966 H 384.511 4.99868 -5.98124 0
M  V30 3967 N 388.74 1.54641 0.303973 0
M  V30 3968 C 390.017 1.64455 1.05896 0
M  V30 3969 C 390.397 0.490923 2.05312 0
M  V30 3970 O 389.745 -0.512685 2.22674 0
M  V30 3971 C 389.955 3.02331 1.74347 0
M  V30 3972 C 391.303 3.59045 2.26653 0
M  V30 3973 O 392.327 3.04764 1.84384 0
M  V30 3974 O 391.186 4.54081 3.04093 0
M  V30 3975 H 388.28 0.666729 0.489287 0
M  V30 3976 H 390.826 1.66986 0.302298 0
M  V30 3977 H 389.598 3.77734 1.02142 0
M  V30 3978 H 389.221 3.03565 2.56777 0
M  V30 3979 N 390.218 -0.567019 1.47046 0
M  V30 3980 C 391.148 -1.68482 1.61667 0
M  V30 3981 C 392.129 -1.6358 0.466418 0
M  V30 3982 O 393.314 -1.81354 0.694574 0
M  V30 3983 C 390.444 -3.07124 1.62148 0
M  V30 3984 C 389.398 -3.26867 2.76301 0
M  V30 3985 C 388.724 -4.66196 2.61849 0
M  V30 3986 C 390.024 -3.13186 4.17986 0
M  V30 3987 H 391.718 -1.56502 2.5524 0
M  V30 3988 H 389.264 -0.751486 1.22836 0
M  V30 3989 H 391.217 -3.8516 1.70968 0
M  V30 3990 H 389.941 -3.2004 0.651287 0
M  V30 3991 H 388.6 -2.51237 2.66975 0
M  V30 3992 H 388.248 -4.75898 1.62879 0
M  V30 3993 H 387.948 -4.80356 3.38425 0
M  V30 3994 H 389.472 -5.46379 2.72584 0
M  V30 3995 H 390.886 -3.81049 4.2834 0
M  V30 3996 H 389.283 -3.3886 4.95272 0
M  V30 3997 H 390.353 -2.10057 4.3704 0
M  V30 3998 N 391.696 -1.35014 -0.812953 0
M  V30 3999 C 392.926 -1.30841 -1.59888 0
M  V30 4000 C 393.334 0.117576 -1.88834 0
M  V30 4001 O 392.677 1.07807 -1.48739 0
M  V30 4002 C 392.739 -2.0412 -2.95931 0
M  V30 4003 C 392.403 -3.53336 -2.89832 0
M  V30 4004 C 393.4 -4.48052 -2.63714 0
M  V30 4005 C 391.085 -3.95894 -3.0915 0
M  V30 4006 C 393.079 -5.833 -2.56982 0
M  V30 4007 C 390.766 -5.31239 -3.0204 0
M  V30 4008 C 391.764 -6.24754 -2.75991 0
M  V30 4009 O 391.452 -7.57617 -2.68833 0
M  V30 4010 H 391.184 -0.451215 -0.50337 0
M  V30 4011 H 393.738 -1.78354 -1.01877 0
M  V30 4012 H 391.968 -1.51235 -3.559 0
M  V30 4013 H 393.657 -1.93107 -3.57022 0
M  V30 4014 H 394.423 -4.16492 -2.48515 0
M  V30 4015 H 390.302 -3.23495 -3.28438 0
M  V30 4016 H 393.846 -6.56263 -2.36569 0
M  V30 4017 H 389.743 -5.62415 -3.16796 0
M  V30 4018 H 390.511 -7.67469 -2.84487 0
M  V30 4019 N 393.175 1.03435 -1.18907 0
M  V30 4020 C 394.4 1.80919 -1.01406 0
M  V30 4021 C 394.825 1.83055 0.432721 0
M  V30 4022 O 394.183 1.25252 1.31079 0
M  V30 4023 C 394.231 3.24091 -1.58105 0
M  V30 4024 O 393.335 4.04434 -0.806669 0
M  V30 4025 H 392.676 0.558709 -0.358803 0
M  V30 4026 H 395.206 1.30223 -1.57807 0
M  V30 4027 H 395.216 3.74853 -1.61087 0
M  V30 4028 H 393.891 3.21851 -2.6341 0
M  V30 4029 H 392.468 3.63091 -0.849666 0
M  V30 4030 N 394.653 0.992116 1.22453 0
M  V30 4031 C 395.601 0.534644 2.26372 0
M  V30 4032 C 396.595 -0.414293 1.64256 0
M  V30 4033 O 397.801 -0.286899 1.77699 0
M  V30 4034 H 394.176 0.154502 0.735957 0
M  V30 4035 H 396.147 1.42256 2.62309 0
M  V30 4036 C 394.896 -0.135815 3.47435 0
M  V30 4037 H 394.219 0.585311 3.95492 0
M  V30 4038 H 395.659 -0.419374 4.21921 0
M  V30 4039 C 394.118 -1.37089 3.07747 0
M  V30 4040 O 394.648 -2.46629 3.17076 0
M  V30 4041 N 392.854 -1.24585 2.62539 0
M  V30 4042 H 392.401 -0.354542 2.55149 0
M  V30 4043 H 392.359 -2.07327 2.36353 0
M  V30 4044 N 396.131 -1.37776 0.765217 0
M  V30 4045 C 397.078 -2.30342 0.145274 0
M  V30 4046 C 398.048 -1.5077 -0.696971 0
M  V30 4047 O 399.233 -1.79362 -0.650689 0
M  V30 4048 C 396.373 -3.37227 -0.732939 0
M  V30 4049 C 395.486 -4.31819 0.125199 0
M  V30 4050 C 394.621 -5.25777 -0.757107 0
M  V30 4051 C 393.66 -6.12012 0.103963 0
M  V30 4052 N 392.797 -6.98232 -0.735953 0
M  V30 4053 H 397.637 -2.8278 0.940195 0
M  V30 4054 H 395.174 -1.39211 0.475255 0
M  V30 4055 H 397.132 -3.97818 -1.25686 0
M  V30 4056 H 395.762 -2.86171 -1.49353 0
M  V30 4057 H 394.814 -3.7259 0.766865 0
M  V30 4058 H 396.126 -4.92509 0.789683 0
M  V30 4059 H 395.28 -5.91541 -1.34776 0
M  V30 4060 H 394.019 -4.65481 -1.45529 0
M  V30 4061 H 393.024 -5.45233 0.707197 0
M  V30 4062 H 394.249 -6.74379 0.799381 0
M  V30 4063 H 392.195 -6.40472 -1.41887 0
M  V30 4064 H 392.112 -7.55891 -0.128624 0
M  V30 4065 H 393.38 -7.68393 -1.31121 0
M  V30 4066 N 397.609 -0.515225 -1.4894 0
M  V30 4067 C 398.834 0.022727 -2.07388 0
M  V30 4068 C 399.259 1.2876 -1.37122 0
M  V30 4069 O 398.617 1.76067 -0.432431 0
M  V30 4070 C 398.665 0.244869 -3.59768 0
M  V30 4071 O 397.769 1.31667 -3.90817 0
M  V30 4072 H 397.11 -0.0325506 -0.663202 0
M  V30 4073 H 399.64 -0.718918 -1.91553 0
M  V30 4074 H 399.65 0.47205 -4.0526 0
M  V30 4075 H 398.325 -0.679194 -4.10317 0
M  V30 4076 H 396.902 1.07331 -3.5712 0
M  V30 4077 N 399.087 1.5561 -0.249682 0
M  V30 4078 C 400.333 1.99306 0.374841 0
M  V30 4079 C 400.666 1.13767 1.57387 0
M  V30 4080 O 399.941 0.201711 1.93451 0
M  V30 4081 C 400.224 3.51507 0.781986 0
M  V30 4082 C 400.077 4.4781 -0.422629 0
M  V30 4083 C 401.396 4.08884 1.62793 0
M  V30 4084 H 398.515 0.724572 0.134773 0
M  V30 4085 H 401.157 1.86719 -0.351549 0
M  V30 4086 H 399.307 3.62363 1.4009 0
M  V30 4087 H 400.979 4.48931 -1.06108 0
M  V30 4088 H 399.222 4.20518 -1.06524 0
M  V30 4089 H 399.893 5.51919 -0.0943766 0
M  V30 4090 H 402.369 4.01147 1.10547 0
M  V30 4091 H 401.245 5.1564 1.88166 0
M  V30 4092 H 401.506 3.57515 2.60068 0
M  V30 4093 O 400.604 0.114399 1.61094 0
M  V30 4094 H 401.295 -0.485048 1.87529 0
M  V30 END ATOM
M  V30 BEGIN BOND
M  V30 END BOND
M  V30 END CTAB
M  END
$$$$
