drugbank_target|Q79MP6 Beta-lactamase (DB02154; DB02450)
 OpenBabel12092120433D

  0  0  0     0  0            999 V3000
M  V30 BEGIN CTAB
M  V30 COUNTS 3862 3912 0 0 0
M  V30 BEGIN ATOM
M  V30 1 H -0.908 1.98254 -0.117106 0
M  V30 2 N 0 1.576 0 0
M  V30 3 C 0.933 2.03868 1.02534 0
M  V30 4 C 1.911 0.928543 1.3348 0
M  V30 5 O 3.095 1.19667 1.45644 0
M  V30 6 C 0.222 2.43627 2.35294 0
M  V30 7 C -0.732 3.65373 2.2001 0
M  V30 8 S 0.101 5.13292 1.52614 0
M  V30 9 C 1.257 5.56322 2.86805 0
M  V30 10 H 1.49 2.90518 0.631377 0
M  V30 11 H -0.977 1.52953 0.210867 0
M  V30 12 H 0.981 2.67203 3.11629 0
M  V30 13 H -0.358 1.57376 2.7183 0
M  V30 14 H -1.165 3.90944 3.18086 0
M  V30 15 H -1.563 3.418 1.51819 0
M  V30 16 H 0.729 5.58782 3.83104 0
M  V30 17 H 1.672 6.56266 2.65933 0
M  V30 18 H 2.08 4.83886 2.90714 0
M  V30 19 N 1.4781 -0.272755 1.55222 0
M  V30 20 C 2.7031 -1.02683 1.80197 0
M  V30 21 C 3.1281 -1.79142 0.573551 0
M  V30 22 O 2.4861 -1.74917 -0.476849 0
M  V30 23 C 2.5341 -1.9609 3.02624 0
M  V30 24 O 1.6381 -3.04863 2.77727 0
M  V30 25 H 0.9791 -0.293557 0.595584 0
M  V30 26 H 3.5091 -0.30159 2.02365 0
M  V30 27 H 3.5191 -2.38039 3.31363 0
M  V30 28 H 2.1941 -1.39851 3.91682 0
M  V30 29 H 0.7711 -2.67228 2.60084 0
M  V30 30 N 2.9562 -1.48159 -0.537278 0
M  V30 31 C 3.9032 -1.62138 -1.64256 0
M  V30 32 C 4.8732 -0.463668 -1.59497 0
M  V30 33 O 6.0582 -0.686241 -1.78032 0
M  V30 34 C 3.1982 -1.66028 -3.02537 0
M  V30 35 C 2.3112 -2.92855 -3.17585 0
M  V30 36 C 1.4462 -2.87952 -4.46382 0
M  V30 37 C 0.4852 -4.09516 -4.54932 0
M  V30 38 N -0.3778 -4.02733 -5.75109 0
M  V30 39 H 4.4622 -2.56529 -1.51647 0
M  V30 40 H 1.9992 -1.27224 -0.738414 0
M  V30 41 H 3.9572 -1.66265 -3.82638 0
M  V30 42 H 2.5872 -0.751331 -3.13934 0
M  V30 43 H 1.6392 -3.02395 -2.30784 0
M  V30 44 H 2.9512 -3.82822 -3.19764 0
M  V30 45 H 2.1052 -2.8655 -5.34765 0
M  V30 46 H 0.8442 -1.95702 -4.46712 0
M  V30 47 H -0.1508 -4.11201 -3.64957 0
M  V30 48 H 1.0742 -5.02917 -4.56346 0
M  V30 49 H -0.9798 -3.13299 -5.76351 0
M  V30 50 H -1.0628 -4.86397 -5.78752 0
M  V30 51 H 0.2052 -4.05379 -6.65799 0
M  V30 52 N 4.4343 0.785586 -1.36625 0
M  V30 53 C 5.3643 1.91259 -1.33949 0
M  V30 54 C 6.3453 1.68795 -0.210325 0
M  V30 55 O 7.5303 1.89854 -0.408561 0
M  V30 56 C 4.6603 3.28339 -1.13186 0
M  V30 57 C 3.6143 3.65335 -2.22967 0
M  V30 58 C 2.9403 5.00806 -1.87342 0
M  V30 59 C 4.2403 3.7352 -3.65075 0
M  V30 60 H 5.9343 1.93755 -2.28253 0
M  V30 61 H 3.4803 0.930788 -1.09874 0
M  V30 62 H 5.4333 4.06804 -1.09948 0
M  V30 63 H 4.1573 3.2624 -0.153332 0
M  V30 64 H 2.8163 2.89169 -2.25337 0
M  V30 65 H 2.4643 4.95233 -0.880545 0
M  V30 66 H 2.1643 5.26529 -2.60846 0
M  V30 67 H 3.6883 5.81687 -1.85667 0
M  V30 68 H 5.1023 4.42168 -3.64911 0
M  V30 69 H 3.4993 4.10731 -4.37516 0
M  V30 70 H 4.5693 2.74527 -3.99703 0
M  V30 71 N 5.9124 1.20967 1.01018 0
M  V30 72 C 7.1374 1.0503 1.78839 0
M  V30 73 C 7.5624 -0.395752 1.8389 0
M  V30 74 O 6.9204 -1.28529 1.27867 0
M  V30 75 C 6.9684 1.64602 3.2084 0
M  V30 76 O 6.0724 0.887988 4.02726 0
M  V30 77 H 5.4134 0.369987 0.551367 0
M  V30 78 H 7.9434 1.60399 1.27018 0
M  V30 79 H 7.9534 1.68607 3.71532 0
M  V30 80 H 6.6284 2.69841 3.16479 0
M  V30 81 H 5.2054 0.922648 3.61305 0
M  V30 82 N 7.3905 -1.2043 1.01659 0
M  V30 83 C 8.6365 -1.90079 0.706963 0
M  V30 84 C 8.9695 -1.78648 -0.761474 0
M  V30 85 O 8.2445 -1.17069 -1.55323 0
M  V30 86 C 8.5275 -3.41469 1.14327 0
M  V30 87 C 8.3805 -3.61833 2.67201 0
M  V30 88 C 9.6995 -4.34261 0.714529 0
M  V30 89 H 6.8185 -0.690254 0.2583 0
M  V30 90 H 9.4605 -1.41826 1.26433 0
M  V30 91 H 7.6105 -3.82696 0.669056 0
M  V30 92 H 9.2825 -3.2986 3.22475 0
M  V30 93 H 7.5255 -3.05304 3.08175 0
M  V30 94 H 8.1965 -4.67955 2.92783 0
M  V30 95 H 10.6725 -4.00682 1.12221 0
M  V30 96 H 9.5485 -5.38806 1.04784 0
M  V30 97 H 9.8095 -4.40431 -0.383799 0
M  V30 98 N 8.8686 -0.792821 -1.36206 0
M  V30 99 C 10.1156 -0.366786 -1.99151 0
M  V30 100 C 10.4436 1.06243 -1.62919 0
M  V30 101 O 9.6986 1.74927 -0.877442 0
M  V30 102 C 9.9976 -0.481501 -3.54142 0
M  V30 103 C 9.6636 -1.87202 -4.10203 0
M  V30 104 C 8.3256 -2.25248 -4.25226 0
M  V30 105 C 10.6776 -2.78237 -4.40719 0
M  V30 106 C 8.0056 -3.53723 -4.68078 0
M  V30 107 C 10.3576 -4.06144 -4.85005 0
M  V30 108 C 9.0216 -4.44207 -4.98234 0
M  V30 109 H 8.2916 -0.134217 -0.728743 0
M  V30 110 H 10.9386 -1.01094 -1.62641 0
M  V30 111 H 9.2436 0.246146 -3.91026 0
M  V30 112 H 10.9406 -0.132844 -4.0078 0
M  V30 113 H 7.5306 -1.56639 -3.98951 0
M  V30 114 H 11.7146 -2.50097 -4.28679 0
M  V30 115 H 6.9706 -3.8308 -4.76508 0
M  V30 116 H 11.1446 -4.76796 -5.07581 0
M  V30 117 H 8.7716 -5.43814 -5.31197 0
M  V30 118 N 10.3467 1.47872 -0.545128 0
M  V30 119 C 11.5937 2.02493 -0.0165858 0
M  V30 120 C 11.9217 1.42073 1.32836 0
M  V30 121 O 11.1767 0.561459 1.87473 0
M  V30 122 C 11.4757 3.57131 0.13867 0
M  V30 123 C 11.1417 4.36411 -1.13384 0
M  V30 124 C 9.8037 4.57792 -1.48256 0
M  V30 125 C 12.1557 4.82223 -1.97764 0
M  V30 126 C 9.4837 5.22233 -2.67376 0
M  V30 127 C 11.8357 5.47977 -3.16076 0
M  V30 128 C 10.4997 5.67593 -3.51275 0
M  V30 129 H 9.7697 0.740975 -0.00606918 0
M  V30 130 H 12.4167 1.77683 -0.714207 0
M  V30 131 H 10.7217 3.80865 0.919172 0
M  V30 132 H 12.4187 3.97031 0.562782 0
M  V30 133 H 9.0087 4.2004 -0.852297 0
M  V30 134 H 13.1927 4.65493 -1.72132 0
M  V30 135 H 8.4487 5.35616 -2.94831 0
M  V30 136 H 12.6227 5.8244 -3.81755 0
M  V30 137 H 10.2497 6.17298 -4.43675 0
M  V30 138 N 11.8248 0.280983 1.55075 0
M  V30 139 C 13.0738 -0.334784 1.98902 0
M  V30 140 C 13.3868 -1.56534 1.17288 0
M  V30 141 O 14.5928 -2.25443 1.51287 0
M  V30 142 C 13.0488 -0.646994 3.54037 0
M  V30 143 C 12.6568 0.564085 4.44435 0
M  V30 144 C 14.4008 -1.22506 4.06439 0
M  V30 145 C 12.3078 0.226137 5.90967 0
M  V30 146 H 11.2378 -0.128866 0.742906 0
M  V30 147 H 13.8888 0.386556 1.79382 0
M  V30 148 H 12.2708 -1.42739 3.6938 0
M  V30 149 H 13.4448 1.34082 4.40861 0
M  V30 150 H 11.7598 1.0594 4.02698 0
M  V30 151 H 14.3568 -1.49182 5.13468 0
M  V30 152 H 14.6998 -2.16085 3.55827 0
M  V30 153 H 15.2328 -0.50682 3.94558 0
M  V30 154 H 11.9718 1.12996 6.45687 0
M  V30 155 H 11.4918 -0.513717 5.97596 0
M  V30 156 H 13.1708 -0.179539 6.46751 0
M  V30 157 N 13.3029 -1.57598 0.00835791 0
M  V30 158 C 14.5499 -1.90928 -0.674732 0
M  V30 159 C 14.8779 -0.88277 -1.73313 0
M  V30 160 O 14.1329 0.111294 -1.95383 0
M  V30 161 C 14.4319 -3.3101 -1.34787 0
M  V30 162 C 14.0979 -4.48922 -0.421861 0
M  V30 163 C 12.7599 -4.8091 -0.166927 0
M  V30 164 C 15.1119 -5.20755 0.215211 0
M  V30 165 C 12.4399 -5.821 0.733232 0
M  V30 166 C 14.7919 -6.22905 1.1033 0
M  V30 167 C 13.4559 -6.53346 1.36733 0
M  V30 168 H 12.7259 -0.698656 -0.246902 0
M  V30 169 H 15.3729 -1.91387 0.0656779 0
M  V30 170 H 13.6779 -3.26714 -2.16253 0
M  V30 171 H 15.3749 -3.54061 -1.8826 0
M  V30 172 H 11.9649 -4.23934 -0.630729 0
M  V30 173 H 16.1489 -4.9629 0.0312829 0
M  V30 174 H 11.4049 -6.04042 0.945712 0
M  V30 175 H 15.5789 -6.77694 1.60325 0
M  V30 176 H 13.2059 -7.31573 2.06652 0
M  V30 177 N 14.781 0.264519 -1.55364 0
M  V30 178 C 15.711 1.33121 -1.91836 0
M  V30 179 C 16.692 1.51101 -0.781192 0
M  V30 180 O 17.877 1.64003 -1.04003 0
M  V30 181 C 15.007 2.68921 -2.19769 0
M  V30 182 C 13.961 2.65661 -3.35571 0
M  V30 183 C 13.287 4.05093 -3.49004 0
M  V30 184 C 14.587 2.24187 -4.71739 0
M  V30 185 H 16.281 1.02844 -2.81182 0
M  V30 186 H 13.827 0.493286 -1.35287 0
M  V30 187 H 15.78 3.43663 -2.43872 0
M  V30 188 H 14.504 3.00799 -1.27231 0
M  V30 189 H 13.163 1.93377 -3.1145 0
M  V30 190 H 12.811 4.34206 -2.53917 0
M  V30 191 H 12.511 4.03804 -4.26868 0
M  V30 192 H 14.035 4.81561 -3.75408 0
M  V30 193 H 15.449 2.88654 -4.9533 0
M  V30 194 H 13.846 2.34044 -5.52579 0
M  V30 195 H 14.916 1.19327 -4.69988 0
M  V30 196 N 16.2591 1.48442 0.529413 0
M  V30 197 C 17.5061 1.56488 1.28521 0
M  V30 198 C 17.8341 0.239042 1.93025 0
M  V30 199 O 17.0891 -0.770713 1.79885 0
M  V30 200 C 17.3881 2.6523 2.39558 0
M  V30 201 C 17.0541 4.07648 1.92702 0
M  V30 202 C 15.7161 4.46411 1.79641 0
M  V30 203 C 18.0681 4.96896 1.573 0
M  V30 204 C 15.3961 5.72226 1.29514 0
M  V30 205 C 17.7481 6.23202 1.08636 0
M  V30 206 C 16.4121 6.60821 0.941919 0
M  V30 207 H 15.6821 0.572631 0.470292 0
M  V30 208 H 18.3291 1.82161 0.59072 0
M  V30 209 H 16.6341 2.33419 3.14679 0
M  V30 210 H 18.3311 2.68671 2.97686 0
M  V30 211 H 14.9211 3.77036 2.03819 0
M  V30 212 H 19.1051 4.67626 1.66251 0
M  V30 213 H 14.3611 6.00097 1.17019 0
M  V30 214 H 18.5351 6.91753 0.803136 0
M  V30 215 H 16.1621 7.58198 0.5513 0
M  V30 216 N 17.7372 -0.778329 1.37039 0
M  V30 217 C 18.9772 -1.54973 1.33276 0
M  V30 218 C 19.3412 -1.91816 -0.0839376 0
M  V30 219 O 20.5422 -2.6767 -0.246228 0
M  V30 220 C 18.8132 -2.78517 2.23971 0
M  V30 221 S 20.3722 -3.6865 2.37997 0
M  V30 222 H 17.1902 -0.530639 0.473226 0
M  V30 223 H 19.7922 -0.915806 1.72723 0
M  V30 224 H 18.4962 -2.4952 3.25835 0
M  V30 225 H 18.0272 -3.46875 1.85584 0
M  V30 226 H 20.0422 -4.70182 1.58567 0
M  V30 227 N 19.2153 -1.21501 -1.00376 0
M  V30 228 C 20.4403 -1.05977 -1.78279 0
M  V30 229 C 20.8653 0.385994 -1.84097 0
M  V30 230 O 20.2233 1.27849 -1.28547 0
M  V30 231 C 20.2713 -1.66302 -3.19963 0
M  V30 232 O 19.3753 -0.909333 -4.0225 0
M  V30 233 H 18.7163 -0.372906 -0.549397 0
M  V30 234 H 21.2463 -1.6107 -1.26165 0
M  V30 235 H 21.2563 -1.70574 -3.70632 0
M  V30 236 H 19.9313 -2.71515 -3.15043 0
M  V30 237 H 18.5083 -0.941795 -3.60811 0
M  V30 238 N 20.6934 1.19889 -1.02296 0
M  V30 239 C 21.9424 1.88743 -0.711257 0
M  V30 240 C 22.2554 1.80112 0.762817 0
M  V30 241 O 23.4614 2.44161 1.18733 0
M  V30 242 C 21.9174 3.38525 -1.22185 0
M  V30 243 C 21.5254 3.55727 -2.72328 0
M  V30 244 C 23.2694 4.12893 -0.985864 0
M  V30 245 C 21.1764 4.99369 -3.16835 0
M  V30 246 H 20.1064 0.706885 -0.262353 0
M  V30 247 H 22.7574 1.35586 -1.23648 0
M  V30 248 H 21.1394 3.91044 -0.624571 0
M  V30 249 H 22.3134 3.13564 -3.3766 0
M  V30 250 H 20.6284 2.94739 -2.9414 0
M  V30 251 H 23.2254 5.18813 -1.29374 0
M  V30 252 H 23.5684 4.16228 0.0775055 0
M  V30 253 H 24.1014 3.66494 -1.54684 0
M  V30 254 H 20.8404 5.01193 -4.22476 0
M  V30 255 H 20.3604 5.42317 -2.56228 0
M  V30 256 H 22.0394 5.67988 -3.09837 0
M  V30 257 N 22.1715 0.800033 1.35784 0
M  V30 258 C 23.1345 0.211565 2.28221 0
M  V30 259 C 24.1345 -0.59728 1.49296 0
M  V30 260 O 25.3245 -0.416721 1.69142 0
M  V30 261 C 22.4565 -0.705846 3.33513 0
M  V30 262 H 23.6495 1.02677 2.81776 0
M  V30 263 H 21.2025 0.570211 1.45528 0
M  V30 264 H 21.9375 -1.54498 2.85133 0
M  V30 265 H 21.7225 -0.127655 3.91892 0
M  V30 266 H 23.2125 -1.11211 4.02519 0
M  V30 267 N 23.6496 -1.47581 0.552962 0
M  V30 268 C 24.8776 -2.06875 0.0320556 0
M  V30 269 C 25.2926 -1.40625 -1.25976 0
M  V30 270 O 24.6496 -0.501349 -1.75479 0
M  V30 271 C 24.7006 -3.61092 -0.17167 0
M  V30 272 O 24.4216 -4.24858 1.06899 0
M  V30 273 C 25.9226 -4.37242 -0.730344 0
M  V30 274 H 23.1426 -0.669561 0.043915 0
M  V30 275 H 25.6866 -1.89646 0.765163 0
M  V30 276 H 23.8416 -3.7785 -0.854894 0
M  V30 277 H 24.2556 -5.17334 0.864059 0
M  V30 278 H 25.7296 -5.45842 -0.822203 0
M  V30 279 H 26.2066 -4.03235 -1.74064 0
M  V30 280 H 26.8126 -4.25219 -0.0829543 0
M  V30 281 N 25.1277 -0.289203 -1.54924 0
M  V30 282 C 26.0907 0.579144 -2.21762 0
M  V30 283 C 27.0907 1.07047 -1.1999 0
M  V30 284 O 28.2807 0.968384 -1.44803 0
M  V30 285 C 25.4127 1.80055 -2.8947 0
M  V30 286 H 26.6057 -0.00464908 -2.999 0
M  V30 287 H 24.1587 -0.0399306 -1.56249 0
M  V30 288 H 24.8937 2.42449 -2.15381 0
M  V30 289 H 24.6787 1.45602 -3.64064 0
M  V30 290 H 26.1687 2.41773 -3.40493 0
M  V30 291 N 26.6058 1.57591 -0.0167156 0
M  V30 292 C 27.5688 2.08393 0.954204 0
M  V30 293 C 28.5688 0.996531 1.26198 0
M  V30 294 O 29.7588 1.25858 1.20438 0
M  V30 295 C 26.8908 2.5394 2.27436 0
M  V30 296 H 28.0838 2.95455 0.514451 0
M  V30 297 H 25.6368 1.54582 0.231089 0
M  V30 298 H 26.3718 1.70171 2.76066 0
M  V30 299 H 26.1568 3.33371 2.06412 0
M  V30 300 H 27.6468 2.93512 2.97053 0
M  V30 301 N 28.0839 -0.256276 1.55502 0
M  V30 302 C 28.9939 -1.33882 1.92647 0
M  V30 303 C 30.0099 -1.53159 0.825727 0
M  V30 304 O 31.1859 -1.66963 1.12629 0
M  V30 305 C 28.2509 -2.6751 2.20543 0
M  V30 306 C 27.3119 -2.56836 3.43997 0
M  V30 307 C 26.5449 -3.84092 3.70553 0
M  V30 308 O 26.7679 -4.85545 2.99336 0
M  V30 309 O 25.7019 -3.83288 4.64084 0
M  V30 310 H 29.5279 -1.05374 2.84833 0
M  V30 311 H 27.1129 -0.456237 1.42263 0
M  V30 312 H 28.9949 -3.46492 2.39835 0
M  V30 313 H 27.6699 -2.9577 1.31536 0
M  V30 314 H 26.5769 -1.76172 3.30021 0
M  V30 315 H 27.9099 -2.33523 4.33275 0
M  V30 316 N 29.562 -1.4872 -0.521534 0
M  V30 317 C 30.787 -1.61101 -1.30618 0
M  V30 318 C 31.212 -0.274611 -1.86085 0
M  V30 319 O 30.57 0.754937 -1.64834 0
M  V30 320 C 30.618 -2.66709 -2.4269 0
M  V30 321 O 29.722 -2.24456 -3.45967 0
M  V30 322 H 29.063 -0.539921 -0.386499 0
M  V30 323 H 31.593 -1.94767 -0.626645 0
M  V30 324 H 31.603 -2.88245 -2.88754 0
M  V30 325 H 30.278 -3.63727 -2.01682 0
M  V30 326 H 28.855 -2.13168 -3.05964 0
M  V30 327 N 31.0401 0.771051 -1.3745 0
M  V30 328 C 31.9701 1.89827 -1.3597 0
M  V30 329 C 32.9511 1.68562 -0.228216 0
M  V30 330 O 34.1361 1.8941 -0.428675 0
M  V30 331 C 31.2661 3.2712 -1.16662 0
M  V30 332 C 30.2201 3.6295 -2.2683 0
M  V30 333 C 29.5461 4.98791 -1.92644 0
M  V30 334 C 30.8461 3.69627 -3.69017 0
M  V30 335 H 32.5401 1.91323 -2.30295 0
M  V30 336 H 30.0861 0.919082 -1.10855 0
M  V30 337 H 32.0391 4.05615 -1.14256 0
M  V30 338 H 30.7631 3.26059 -0.187926 0
M  V30 339 H 29.4221 2.86763 -2.28392 0
M  V30 340 H 29.0701 4.94271 -0.933021 0
M  V30 341 H 28.7701 5.23733 -2.66416 0
M  V30 342 H 30.2941 5.79685 -1.91826 0
M  V30 343 H 31.7081 4.38273 -3.69581 0
M  V30 344 H 30.1051 4.06067 -4.41848 0
M  V30 345 H 31.1751 2.70273 -4.02592 0
M  V30 346 N 32.5182 1.22032 0.997298 0
M  V30 347 C 33.9292 1.0397 1.55071 0
M  V30 348 C 34.2802 -0.398192 1.92117 0
M  V30 349 O 33.4052 -1.28254 1.74298 0
M  V30 350 C 34.0002 1.88109 2.81781 0
M  V30 351 C 32.5592 1.74357 3.33581 0
M  V30 352 C 31.7062 1.84846 2.06706 0
M  V30 353 H 34.6572 1.35941 0.818883 0
M  V30 354 H 34.6782 1.39589 3.53971 0
M  V30 355 H 34.1902 2.92754 2.54787 0
M  V30 356 H 32.2912 0.72427 3.65493 0
M  V30 357 H 32.4042 2.56772 4.04481 0
M  V30 358 H 30.7682 1.28238 2.20062 0
M  V30 359 H 31.5512 2.91014 1.82114 0
M  V30 360 N 33.9963 -1.19345 1.0293 0
M  V30 361 C 35.2733 -1.84811 0.640642 0
M  V30 362 C 35.6533 -1.91855 -0.88062 0
M  V30 363 O 35.0013 -1.43587 -1.7775 0
M  V30 364 C 35.2113 -3.23755 1.30321 0
M  V30 365 C 36.5593 -3.99912 1.42673 0
M  V30 366 O 37.5833 -3.33155 1.26041 0
M  V30 367 O 36.4423 -5.19494 1.6967 0
M  V30 368 H 33.5363 -0.796443 0.222726 0
M  V30 369 H 36.0823 -1.26831 1.12748 0
M  V30 370 H 34.8543 -3.13466 2.34211 0
M  V30 371 H 34.4773 -3.89381 0.804261 0
M  V30 372 N 35.4744 -0.807222 -1.35358 0
M  V30 373 C 36.4044 -0.232509 -2.3234 0
M  V30 374 C 37.3854 0.642386 -1.57504 0
M  V30 375 O 38.5704 0.572526 -1.85569 0
M  V30 376 C 35.7004 0.619238 -3.41735 0
M  V30 377 C 34.6544 -0.157215 -4.27711 0
M  V30 378 C 33.9804 0.816273 -5.28433 0
M  V30 379 C 35.2804 -1.35656 -5.04376 0
M  V30 380 H 36.9744 -1.04276 -2.80654 0
M  V30 381 H 34.5204 -0.50288 -1.34934 0
M  V30 382 H 36.4734 1.03137 -4.08584 0
M  V30 383 H 35.1974 1.46239 -2.92031 0
M  V30 384 H 33.8564 -0.550525 -3.62443 0
M  V30 385 H 33.5044 1.65494 -4.74996 0
M  V30 386 H 33.2044 0.301067 -5.86828 0
M  V30 387 H 34.7284 1.22659 -5.98153 0
M  V30 388 H 36.1424 -1.01927 -5.64166 0
M  V30 389 H 34.5394 -1.8063 -5.7227 0
M  V30 390 H 35.6094 -2.14288 -4.34981 0
M  V30 391 N 36.9525 1.47285 -0.560781 0
M  V30 392 C 37.8995 2.30058 0.18491 0
M  V30 393 C 38.8695 1.39281 0.904986 0
M  V30 394 O 40.0545 1.68241 0.899979 0
M  V30 395 C 37.1945 3.23317 1.20666 0
M  V30 396 C 36.3075 4.29186 0.492285 0
M  V30 397 C 35.4425 5.09592 1.49964 0
M  V30 398 C 34.4815 6.07232 0.770439 0
M  V30 399 N 33.6185 6.80584 1.72479 0
M  V30 400 H 38.4585 2.93302 -0.527048 0
M  V30 401 H 35.9955 1.44568 -0.271738 0
M  V30 402 H 37.9535 3.75811 1.81168 0
M  V30 403 H 36.5835 2.61929 1.88661 0
M  V30 404 H 35.6355 3.7972 -0.227333 0
M  V30 405 H 36.9475 4.98738 -0.0787929 0
M  V30 406 H 36.1015 5.66254 2.17809 0
M  V30 407 H 34.8405 4.3995 2.10464 0
M  V30 408 H 33.8455 5.49745 0.0780846 0
M  V30 409 H 35.0705 6.78884 0.171134 0
M  V30 410 H 33.0165 6.1367 2.3183 0
M  V30 411 H 32.9335 7.46319 1.20596 0
M  V30 412 H 34.2015 7.41818 2.39428 0
M  V30 413 N 38.4306 0.297415 1.54768 0
M  V30 414 C 39.6796 -0.313669 1.99246 0
M  V30 415 C 39.9926 -1.55281 1.18942 0
M  V30 416 O 41.1986 -2.23825 1.5367 0
M  V30 417 C 39.6546 -0.609407 3.54703 0
M  V30 418 C 39.2626 0.611192 4.43811 0
M  V30 419 C 41.0066 -1.18188 4.07715 0
M  V30 420 C 38.9136 0.288805 5.90694 0
M  V30 421 H 37.8436 -0.120979 0.744231 0
M  V30 422 H 40.4946 0.40556 1.78962 0
M  V30 423 H 38.8766 -1.38813 3.70873 0
M  V30 424 H 40.0506 1.3875 4.39414 0
M  V30 425 H 38.3656 1.10205 4.01552 0
M  V30 426 H 40.9626 -1.43727 5.15021 0
M  V30 427 H 41.3056 -2.12299 3.58099 0
M  V30 428 H 41.8386 -0.464944 3.95074 0
M  V30 429 H 38.5776 1.19838 6.44453 0
M  V30 430 H 38.0976 -0.450305 5.98107 0
M  V30 431 H 39.7766 -0.110933 6.46905 0
M  V30 432 N 39.9087 -1.5758 0.0250728 0
M  V30 433 C 40.8187 -2.1343 -0.973905 0
M  V30 434 C 41.8347 -1.08556 -1.35984 0
M  V30 435 O 43.0107 -1.40592 -1.44207 0
M  V30 436 C 40.0757 -2.64703 -2.23904 0
M  V30 437 C 39.1367 -3.84276 -1.91391 0
M  V30 438 C 38.3697 -4.33095 -3.11873 0
M  V30 439 O 38.5927 -3.81107 -4.24398 0
M  V30 440 O 37.5267 -5.24984 -2.94406 0
M  V30 441 H 41.3527 -2.99057 -0.529036 0
M  V30 442 H 38.9377 -1.48118 -0.195288 0
M  V30 443 H 40.8197 -2.97769 -2.98181 0
M  V30 444 H 39.4947 -1.82161 -2.6758 0
M  V30 445 H 38.4017 -3.56143 -1.14511 0
M  V30 446 H 39.7347 -4.67968 -1.52534 0
M  V30 447 N 41.3868 0.248026 -1.55636 0
M  V30 448 C 42.3338 1.30707 -1.90222 0
M  V30 449 C 43.3038 1.47881 -0.756332 0
M  V30 450 O 44.4888 1.61883 -1.00988 0
M  V30 451 C 41.6288 2.65769 -2.20138 0
M  V30 452 C 40.7418 2.56612 -3.47526 0
M  V30 453 C 39.8768 3.8402 -3.67017 0
M  V30 454 C 38.9158 3.69476 -4.8801 0
M  V30 455 N 38.0528 4.88774 -5.04029 0
M  V30 456 H 42.8928 1.00512 -2.80538 0
M  V30 457 H 40.4298 0.485055 -1.38873 0
M  V30 458 H 42.3878 3.44386 -2.35487 0
M  V30 459 H 41.0178 2.94115 -1.33027 0
M  V30 460 H 40.0698 1.69571 -3.40514 0
M  V30 461 H 41.3818 2.41774 -4.36287 0
M  V30 462 H 40.5358 4.7108 -3.8232 0
M  V30 463 H 39.2748 4.01754 -2.76487 0
M  V30 464 H 38.2798 2.80799 -4.72686 0
M  V30 465 H 39.5048 3.53238 -5.8 0
M  V30 466 H 37.4508 5.0687 -4.16435 0
M  V30 467 H 37.3678 4.76562 -5.86877 0
M  V30 468 H 38.6358 5.77335 -5.23741 0
M  V30 469 N 42.8649 1.48995 0.513639 0
M  V30 470 C 43.7949 1.67636 1.62544 0
M  V30 471 C 44.7759 0.525087 1.61793 0
M  V30 472 O 45.9609 0.759502 1.78732 0
M  V30 473 C 43.0909 1.73114 3.01079 0
M  V30 474 C 42.0449 2.87905 3.16693 0
M  V30 475 C 41.3709 2.78486 4.56453 0
M  V30 476 C 42.6709 4.29005 2.97913 0
M  V30 477 H 44.3649 2.60716 1.47198 0
M  V30 478 H 41.9109 1.25465 0.706714 0
M  V30 479 H 43.8639 1.84742 3.78746 0
M  V30 480 H 42.5879 0.766241 3.17484 0
M  V30 481 H 41.2469 2.75859 2.41448 0
M  V30 482 H 40.8949 1.7993 4.69717 0
M  V30 483 H 40.5949 3.55523 4.67843 0
M  V30 484 H 42.1189 2.92104 5.36197 0
M  V30 485 H 43.5329 4.41798 3.65359 0
M  V30 486 H 41.9299 5.07166 3.20785 0
M  V30 487 H 42.9999 4.44329 1.94165 0
M  V30 488 N 44.343 -0.763751 1.37857 0
M  V30 489 C 45.62 -1.51244 1.24035 0
M  V30 490 C 46 -2.10472 -0.162649 0
M  V30 491 O 45.348 -1.96206 -1.17112 0
M  V30 492 C 45.558 -2.58694 2.34261 0
M  V30 493 C 46.906 -3.25878 2.72193 0
M  V30 494 O 47.93 -2.68993 2.33497 0
M  V30 495 O 46.789 -4.2874 3.38887 0
M  V30 496 H 43.883 -0.670243 0.484462 0
M  V30 497 H 46.429 -0.800031 1.49658 0
M  V30 498 H 45.201 -2.13105 3.2818 0
M  V30 499 H 44.824 -3.37527 2.10146 0
M  V30 500 N 45.8211 -1.22559 -0.990812 0
M  V30 501 C 46.7311 -1.01394 -2.11557 0
M  V30 502 C 47.7471 0.0383962 -1.73958 0
M  V30 503 O 48.9231 -0.154787 -2.00804 0
M  V30 504 C 45.9881 -0.596569 -3.41529 0
M  V30 505 C 45.0491 -1.72276 -3.93217 0
M  V30 506 C 44.2821 -1.32521 -5.16985 0
M  V30 507 O 44.5051 -0.204909 -5.70032 0
M  V30 508 O 43.4391 -2.14247 -5.62478 0
M  V30 509 H 47.2651 -1.95633 -2.32296 0
M  V30 510 H 44.8501 -1.01172 -1.0993 0
M  V30 511 H 46.7321 -0.374263 -4.19735 0
M  V30 512 H 45.4071 0.316939 -3.22145 0
M  V30 513 H 44.3141 -1.99961 -3.16174 0
M  V30 514 H 45.6471 -2.61421 -4.17037 0
M  V30 515 N 47.2992 1.18797 -1.03562 0
M  V30 516 C 48.5472 1.88278 -0.734569 0
M  V30 517 C 48.8682 1.8043 0.739586 0
M  V30 518 O 48.1382 1.21925 1.53333 0
M  V30 519 H 46.7182 0.696991 -0.268725 0
M  V30 520 H 49.3802 1.44192 -1.31129 0
M  V30 521 H 48.4762 2.94443 -1.03489 0
M  V30 522 N 48.7773 0.814389 1.34928 0
M  V30 523 C 50.0233 0.399013 1.98836 0
M  V30 524 C 50.3563 -1.03314 1.64438 0
M  V30 525 O 49.6313 -1.71811 0.911659 0
M  V30 526 C 49.9143 0.591629 3.55207 0
M  V30 527 C 49.7673 2.06928 3.99376 0
M  V30 528 C 51.0863 0.022199 4.40094 0
M  V30 529 H 48.2053 0.146451 0.722303 0
M  V30 530 H 50.8473 1.02537 1.59957 0
M  V30 531 H 48.9973 0.0584441 3.88456 0
M  V30 532 H 50.6693 2.66544 3.76499 0
M  V30 533 H 48.9123 2.56287 3.49999 0
M  V30 534 H 49.5833 2.1549 5.08201 0
M  V30 535 H 52.0593 0.477643 4.13349 0
M  V30 536 H 50.9353 0.186832 5.48582 0
M  V30 537 H 51.1963 -1.07215 4.28902 0
M  V30 538 N 50.2554 -1.46986 0.568584 0
M  V30 539 C 51.4854 -2.0653 0.0539173 0
M  V30 540 C 51.8934 -1.42004 -1.25026 0
M  V30 541 O 51.2364 -0.514541 -1.76347 0
M  V30 542 C 51.2984 -3.58938 -0.200854 0
M  V30 543 C 50.9624 -4.45572 1.01559 0
M  V30 544 C 51.9594 -4.82986 1.92407 0
M  V30 545 C 49.6444 -4.8692 1.23346 0
M  V30 546 C 51.6384 -5.60559 3.03402 0
M  V30 547 C 49.3254 -5.64255 2.34649 0
M  V30 548 C 50.3234 -6.00986 3.24507 0
M  V30 549 O 50.0114 -6.76761 4.33878 0
M  V30 550 H 49.7434 -0.674292 0.0480234 0
M  V30 551 H 52.2974 -1.89812 0.784896 0
M  V30 552 H 50.5274 -3.73911 -0.986279 0
M  V30 553 H 52.2164 -4.0046 -0.662294 0
M  V30 554 H 52.9824 -4.51633 1.76785 0
M  V30 555 H 48.8614 -4.57789 0.543178 0
M  V30 556 H 52.4054 -5.89147 3.73565 0
M  V30 557 H 48.3024 -5.95021 2.5024 0
M  V30 558 H 49.0704 -6.95168 4.32068 0
M  V30 559 N 51.7335 -0.305618 -1.54608 0
M  V30 560 C 52.9795 0.302746 -2.00528 0
M  V30 561 C 53.3125 1.53184 -1.19367 0
M  V30 562 O 52.5875 1.92598 -0.271321 0
M  V30 563 C 52.8705 0.654756 -3.54097 0
M  V30 564 C 52.7235 -0.583793 -4.45995 0
M  V30 565 C 54.0425 1.47947 -4.14487 0
M  V30 566 H 51.1615 0.108564 -0.72896 0
M  V30 567 H 53.8035 -0.418634 -1.85331 0
M  V30 568 H 51.9535 1.26935 -3.67178 0
M  V30 569 H 53.6255 -1.22224 -4.44814 0
M  V30 570 H 51.8685 -1.21615 -4.16404 0
M  V30 571 H 52.5395 -0.293287 -5.5122 0
M  V30 572 H 55.0155 0.96013 -4.04871 0
M  V30 573 H 53.8915 1.69454 -5.22088 0
M  V30 574 H 54.1525 2.47011 -3.66658 0
M  V30 575 N 53.2116 1.57565 -0.0334293 0
M  V30 576 C 54.1616 2.06978 0.956237 0
M  V30 577 C 55.1456 0.971193 1.28283 0
M  V30 578 O 56.3376 1.23471 1.26822 0
M  V30 579 C 53.4666 2.60393 2.23719 0
M  V30 580 C 52.5526 3.7719 1.93877 0
M  V30 581 N 52.9436 4.87639 1.34321 0
M  V30 582 C 51.2416 3.85758 2.23845 0
M  V30 583 C 51.9426 5.68825 1.21709 0
M  V30 584 N 50.9186 5.1587 1.71404 0
M  V30 585 H 54.7206 2.89773 0.490815 0
M  V30 586 H 52.2346 1.61492 0.171478 0
M  V30 587 H 54.2316 2.94088 2.95496 0
M  V30 588 H 52.8916 1.79031 2.70884 0
M  V30 589 H 53.9026 5.07803 1.01767 0
M  V30 590 H 50.5796 3.1531 2.73653 0
M  V30 591 H 51.9696 6.67631 0.75621 0
M  V30 592 N 54.6897 -0.239769 1.55765 0
M  V30 593 C 55.9177 -0.98417 1.81994 0
M  V30 594 C 56.3327 -1.7867 0.610124 0
M  V30 595 O 55.6897 -1.77571 -0.421271 0
M  V30 596 C 55.7407 -1.91635 3.06526 0
M  V30 597 O 55.4617 -1.14629 4.22838 0
M  V30 598 C 56.9627 -2.77616 3.45607 0
M  V30 599 H 54.1827 -0.28928 0.605441 0
M  V30 600 H 56.7267 -0.260499 2.02834 0
M  V30 601 H 54.8817 -2.5942 2.87715 0
M  V30 602 H 55.2957 -1.77745 4.93464 0
M  V30 603 H 56.7697 -3.38759 4.35828 0
M  V30 604 H 57.2467 -3.4909 2.6652 0
M  V30 605 H 57.8527 -2.15271 3.66795 0
M  V30 606 N 56.1678 -1.49265 -0.50573 0
M  V30 607 C 57.3928 -1.62478 -1.28902 0
M  V30 608 C 57.8178 -0.294332 -1.85783 0
M  V30 609 O 57.1758 0.737412 -1.65626 0
M  V30 610 C 57.2238 -2.69268 -2.39848 0
M  V30 611 O 56.3278 -2.28113 -3.43567 0
M  V30 612 H 55.6688 -0.54399 -0.380751 0
M  V30 613 H 58.1988 -1.95421 -0.605952 0
M  V30 614 H 58.2088 -2.91291 -2.85681 0
M  V30 615 H 56.8838 -3.65846 -1.97812 0
M  V30 616 H 55.4608 -2.16401 -3.03685 0
M  V30 617 N 57.6459 0.756429 -1.3826 0
M  V30 618 C 58.8929 1.51547 -1.34312 0
M  V30 619 C 59.2209 1.94382 0.0677144 0
M  V30 620 O 58.4759 1.65514 1.04421 0
M  V30 621 C 58.7749 2.78313 -2.24224 0
M  V30 622 C 58.4409 2.54455 -3.72241 0
M  V30 623 C 57.1029 2.47657 -4.12576 0
M  V30 624 C 59.4549 2.3354 -4.65949 0
M  V30 625 C 56.7829 2.17956 -5.44713 0
M  V30 626 C 59.1349 2.05359 -5.9834 0
M  V30 627 C 57.7989 1.97016 -6.37762 0
M  V30 628 H 57.0689 0.55455 -0.491482 0
M  V30 629 H 59.7159 0.870039 -1.70595 0
M  V30 630 H 58.0209 3.47492 -1.80987 0
M  V30 631 H 59.7179 3.36259 -2.18474 0
M  V30 632 H 56.3079 2.60616 -3.40261 0
M  V30 633 H 60.4919 2.37772 -4.35635 0
M  V30 634 H 55.7479 2.10003 -5.74203 0
M  V30 635 H 59.9219 1.88179 -6.70494 0
M  V30 636 H 57.5489 1.73766 -7.40074 0
M  V30 637 N 59.124 1.23083 0.984299 0
M  V30 638 C 60.034 1.02515 2.11016 0
M  V30 639 C 61.05 -0.0291702 1.73976 0
M  V30 640 O 62.226 0.165434 2.00719 0
M  V30 641 C 59.291 0.614673 3.41208 0
M  V30 642 C 58.352 1.74359 3.92297 0
M  V30 643 C 57.585 1.35261 5.16275 0
M  V30 644 O 57.808 0.235136 5.69915 0
M  V30 645 O 56.742 2.17227 5.61334 0
M  V30 646 H 60.568 1.96862 2.31255 0
M  V30 647 H 58.153 1.01753 1.09392 0
M  V30 648 H 60.035 0.396518 4.1953 0
M  V30 649 H 58.71 -0.299851 3.22308 0
M  V30 650 H 57.617 2.01635 3.1511 0
M  V30 651 H 58.95 2.63629 4.15645 0
M  V30 652 N 60.6021 -1.18246 1.0419 0
M  V30 653 C 61.5121 -2.25574 0.644476 0
M  V30 654 C 62.5281 -1.70845 -0.329826 0
M  V30 655 O 63.7041 -2.00554 -0.184443 0
M  V30 656 C 60.7691 -3.46697 0.014877 0
M  V30 657 C 59.8301 -4.16554 1.03834 0
M  V30 658 C 59.0631 -5.31894 0.438692 0
M  V30 659 O 59.2861 -5.65385 -0.754752 0
M  V30 660 O 58.2201 -5.90459 1.168 0
M  V30 661 H 62.0461 -2.61836 1.53869 0
M  V30 662 H 59.6311 -1.25352 0.812854 0
M  V30 663 H 61.5131 -4.20062 -0.335538 0
M  V30 664 H 60.1881 -3.12255 -0.853138 0
M  V30 665 H 59.0951 -3.45251 1.44057 0
M  V30 666 H 60.4281 -4.54998 1.87716 0
M  V30 667 N 62.0802 -0.821533 -1.34494 0
M  V30 668 C 63.3262 -0.409552 -1.98622 0
M  V30 669 C 63.6592 1.0244 -1.64984 0
M  V30 670 O 62.9342 1.71325 -0.920758 0
M  V30 671 C 63.2172 -0.610458 -3.54888 0
M  V30 672 C 63.0702 -2.09043 -3.98273 0
M  V30 673 C 64.3892 -0.0455379 -4.40076 0
M  V30 674 H 61.5082 -0.15028 -0.721516 0
M  V30 675 H 64.1502 -1.03384 -1.59411 0
M  V30 676 H 62.3002 -0.079044 -3.8842 0
M  V30 677 H 63.9722 -2.68537 -3.75081 0
M  V30 678 H 62.2152 -2.58139 -3.48635 0
M  V30 679 H 62.8862 -2.18182 -5.07051 0
M  V30 680 H 65.3622 -0.499557 -4.1309 0
M  V30 681 H 64.2382 -0.215922 -5.48475 0
M  V30 682 H 64.4992 1.04939 -4.29465 0
M  V30 683 N 63.5583 1.46682 -0.576371 0
M  V30 684 C 64.5063 2.31953 0.17335 0
M  V30 685 C 65.5003 1.44098 0.89062 0
M  V30 686 O 66.7063 1.60759 0.809728 0
M  V30 687 H 63.0813 0.748273 0.0747727 0
M  V30 688 H 65.0523 2.93007 -0.564738 0
M  V30 689 C 63.8013 3.27142 1.17786 0
M  V30 690 H 63.1243 3.94719 0.635361 0
M  V30 691 H 64.5643 3.896 1.67296 0
M  V30 692 C 63.0233 2.52036 2.23561 0
M  V30 693 O 63.5533 2.27877 3.3081 0
M  V30 694 N 61.7593 2.12709 1.97998 0
M  V30 695 H 61.3063 2.32557 1.10792 0
M  V30 696 H 61.2643 1.62776 2.68982 0
M  V30 697 N 65.0364 0.313813 1.54444 0
M  V30 698 C 66.2844 -0.291099 1.99993 0
M  V30 699 C 66.6054 -1.53418 1.20366 0
M  V30 700 O 65.8754 -1.93544 0.302927 0
M  V30 701 H 64.4554 -0.110552 0.738774 0
M  V30 702 H 67.1174 0.428106 1.9014 0
M  V30 703 H 66.2134 -0.554268 3.07139 0
M  V30 704 N 66.5145 -1.57545 0.0417849 0
M  V30 705 C 67.7605 -1.93424 -0.629168 0
M  V30 706 C 68.1155 -0.919564 -1.69002 0
M  V30 707 O 67.4085 0.0626178 -1.91498 0
M  V30 708 C 67.6025 -3.33794 -1.27735 0
M  V30 709 C 67.4315 -4.48822 -0.280806 0
M  V30 710 C 66.2015 -5.05148 0.123869 0
M  V30 711 C 68.3995 -5.12148 0.470012 0
M  V30 712 N 66.3815 -6.03703 1.11426 0
M  V30 713 C 67.7525 -6.05921 1.31377 0
M  V30 714 C 69.8075 -4.95078 0.529343 0
M  V30 715 C 68.5105 -6.84459 2.21152 0
M  V30 716 C 70.5365 -5.74235 1.41448 0
M  V30 717 C 69.8985 -6.67634 2.24598 0
M  V30 718 H 65.9975 -0.755418 -0.202158 0
M  V30 719 H 68.5815 -1.94378 0.111923 0
M  V30 720 H 66.7525 -3.33635 -1.98852 0
M  V30 721 H 68.4845 -3.56988 -1.90635 0
M  V30 722 H 65.2395 -4.72923 -0.253178 0
M  V30 723 H 65.6635 -6.57674 1.60607 0
M  V30 724 H 70.3055 -4.22683 -0.0992798 0
M  V30 725 H 68.0235 -7.56151 2.85063 0
M  V30 726 H 71.6095 -5.63057 1.46484 0
M  V30 727 H 70.4895 -7.27817 2.9198 0
M  V30 728 N 67.9926 0.231505 -1.5589 0
M  V30 729 C 69.2406 0.955461 -1.78088 0
M  V30 730 C 69.5616 1.85262 -0.608533 0
M  V30 731 O 68.8316 1.92277 0.375035 0
M  V30 732 H 67.4116 0.355787 -0.656829 0
M  V30 733 H 70.0736 0.245751 -1.93344 0
M  V30 734 H 69.1696 1.56814 -2.69844 0
M  V30 735 N 69.4707 1.49531 0.497807 0
M  V30 736 C 70.7167 1.59415 1.25358 0
M  V30 737 C 71.0497 0.281422 1.9215 0
M  V30 738 O 70.3247 -0.715249 1.80871 0
M  V30 739 C 70.6077 2.75566 2.3181 0
M  V30 740 C 70.4607 4.16642 1.69498 0
M  V30 741 C 71.7797 2.87347 3.33346 0
M  V30 742 H 68.8987 0.580244 0.454408 0
M  V30 743 H 71.5407 1.81827 0.551262 0
M  V30 744 H 69.6907 2.56587 2.91711 0
M  V30 745 H 71.3627 4.47145 1.13399 0
M  V30 746 H 69.6057 4.22141 0.998978 0
M  V30 747 H 70.2767 4.93792 2.46725 0
M  V30 748 H 72.7527 3.04634 2.83438 0
M  V30 749 H 71.6287 3.70289 4.05188 0
M  V30 750 H 71.8897 1.96834 3.95865 0
M  V30 751 N 70.9488 -0.749086 1.3866 0
M  V30 752 C 72.1948 -1.51056 1.35314 0
M  V30 753 C 72.5278 -1.94121 -0.0553751 0
M  V30 754 O 71.8028 -1.65763 -1.01749 0
M  V30 755 C 72.0858 -2.76003 2.31288 0
M  V30 756 C 71.9388 -2.39047 3.8102 0
M  V30 757 C 73.2578 -3.78046 2.2532 0
M  V30 758 H 70.3768 -0.547972 0.492844 0
M  V30 759 H 73.0188 -0.857628 1.69543 0
M  V30 760 H 71.1688 -3.31716 2.02229 0
M  V30 761 H 72.8408 -1.89074 4.20771 0
M  V30 762 H 71.0838 -1.71449 3.98482 0
M  V30 763 H 71.7548 -3.28462 4.4364 0
M  V30 764 H 74.2308 -3.31884 2.50983 0
M  V30 765 H 73.1068 -4.63159 2.94576 0
M  V30 766 H 73.3678 -4.23957 1.25352 0
M  V30 767 N 72.4269 -1.23603 -0.977757 0
M  V30 768 C 73.8379 -1.06424 -1.53398 0
M  V30 769 C 74.1889 0.367578 -1.92726 0
M  V30 770 O 73.3139 1.25465 -1.76316 0
M  V30 771 C 73.9089 -1.92568 -2.78753 0
M  V30 772 C 72.4679 -1.79642 -3.30765 0
M  V30 773 C 71.6149 -1.88111 -2.03739 0
M  V30 774 H 74.5659 -1.37227 -0.797152 0
M  V30 775 H 74.5869 -1.45203 -3.51705 0
M  V30 776 H 74.0989 -2.96771 -2.50098 0
M  V30 777 H 72.1999 -0.782325 -3.64294 0
M  V30 778 H 72.3129 -2.63174 -4.00345 0
M  V30 779 H 70.6769 -1.31723 -2.17994 0
M  V30 780 H 71.4599 -2.93875 -1.77461 0
M  V30 781 N 73.905 1.17692 -1.04816 0
M  V30 782 C 74.852 2.21581 -0.645797 0
M  V30 783 C 75.822 1.62367 0.350159 0
M  V30 784 O 77.007 1.89254 0.242433 0
M  V30 785 C 74.147 3.45092 -0.0227568 0
M  V30 786 C 73.26 4.18613 -1.06709 0
M  V30 787 C 72.395 5.29602 -0.411767 0
M  V30 788 C 71.434 5.94904 -1.44067 0
M  V30 789 N 70.571 6.97414 -0.809781 0
M  V30 790 H 75.411 2.55353 -1.5362 0
M  V30 791 H 72.948 1.25438 -0.768364 0
M  V30 792 H 74.906 4.15679 0.35588 0
M  V30 793 H 73.536 3.11917 0.831122 0
M  V30 794 H 72.588 3.46779 -1.5636 0
M  V30 795 H 73.9 4.63293 -1.84827 0
M  V30 796 H 73.054 6.06696 0.0206623 0
M  V30 797 H 71.793 4.86045 0.401438 0
M  V30 798 H 70.798 5.16544 -1.88316 0
M  V30 799 H 72.023 6.40542 -2.25571 0
M  V30 800 H 69.969 6.55998 -0.0170186 0
M  V30 801 H 69.886 7.40386 -1.52856 0
M  V30 802 H 71.154 7.78463 -0.401999 0
M  V30 803 N 75.3831 0.828654 1.34056 0
M  V30 804 C 76.3331 0.226828 2.26869 0
M  V30 805 C 77.3171 -0.612243 1.48796 0
M  V30 806 O 78.5091 -0.465884 1.70759 0
M  V30 807 C 75.6381 -0.605654 3.37915 0
M  V30 808 C 74.7241 0.244361 4.23395 0
M  V30 809 N 75.1151 1.31815 4.88322 0
M  V30 810 C 73.4131 0.0296616 4.4599 0
M  V30 811 C 74.1141 1.83895 5.51867 0
M  V30 812 N 73.0901 1.14196 5.3147 0
M  V30 813 H 76.8921 1.04811 2.74576 0
M  V30 814 H 74.4061 0.67205 1.47842 0
M  V30 815 H 76.4031 -1.05302 4.03382 0
M  V30 816 H 75.0631 -1.42504 2.91758 0
M  V30 817 H 76.0741 1.70099 4.8917 0
M  V30 818 H 72.7511 -0.757097 4.10578 0
M  V30 819 H 74.1411 2.7376 6.136 0
M  V30 820 N 76.8612 -1.46375 0.584142 0
M  V30 821 C 78.1092 -2.01978 0.0701287 0
M  V30 822 C 78.4302 -1.4579 -1.295 0
M  V30 823 O 77.7002 -0.64314 -1.85042 0
M  V30 824 H 76.2802 -0.746648 0.0229345 0
M  V30 825 H 78.9422 -1.79461 0.760245 0
M  V30 826 H 78.0382 -3.121 0.0022064 0
M  V30 827 N 78.3393 -0.321999 -1.54275 0
M  V30 828 C 79.2693 0.537411 -2.27231 0
M  V30 829 C 80.2503 1.12064 -1.27968 0
M  V30 830 O 81.4353 1.14606 -1.56777 0
M  V30 831 C 78.5653 1.69919 -3.02894 0
M  V30 832 C 77.5193 1.24534 -4.09482 0
M  V30 833 C 76.8453 2.49394 -4.72977 0
M  V30 834 C 78.1453 0.361335 -5.21049 0
M  V30 835 H 79.8393 -0.0711406 -2.99315 0
M  V30 836 H 77.3853 -0.0356555 -1.43956 0
M  V30 837 H 79.3383 2.30668 -3.52662 0
M  V30 838 H 78.0623 2.33431 -2.28424 0
M  V30 839 H 76.7213 0.660782 -3.60596 0
M  V30 840 H 76.3693 3.11265 -3.95124 0
M  V30 841 H 76.0693 2.19718 -5.44975 0
M  V30 842 H 77.5933 3.10908 -5.25517 0
M  V30 843 H 79.0073 0.875072 -5.66582 0
M  V30 844 H 77.4043 0.157428 -5.99893 0
M  V30 845 H 78.4743 -0.60822 -4.8107 0
M  V30 846 N 79.8174 1.5752 -0.0501392 0
M  V30 847 C 81.0634 1.92936 0.624798 0
M  V30 848 C 81.3964 0.928685 1.70555 0
M  V30 849 O 80.6714 -0.0454779 1.94447 0
M  V30 850 C 80.9544 3.38737 1.22185 0
M  V30 851 C 80.8074 4.49552 0.149218 0
M  V30 852 C 82.1264 3.84913 2.13378 0
M  V30 853 H 79.2454 0.701604 0.225657 0
M  V30 854 H 81.8874 1.89671 -0.111693 0
M  V30 855 H 80.0374 3.4165 1.84953 0
M  V30 856 H 81.7094 4.58768 -0.482648 0
M  V30 857 H 79.9524 4.30638 -0.522841 0
M  V30 858 H 80.6234 5.48653 0.606966 0
M  V30 859 H 83.0994 3.8387 1.60572 0
M  V30 860 H 81.9754 4.87584 2.52097 0
M  V30 861 H 82.2364 3.21611 3.03346 0
M  V30 862 N 81.2955 -0.223234 1.56011 0
M  V30 863 C 82.5415 -0.949279 1.79211 0
M  V30 864 C 82.8745 -1.84054 0.619494 0
M  V30 865 O 82.1495 -1.90726 -0.381317 0
M  V30 866 C 82.4325 -1.78965 3.12479 0
M  V30 867 C 82.2855 -0.924997 4.40186 0
M  V30 868 C 83.6045 -2.76774 3.42175 0
M  V30 869 H 80.7235 -0.343676 0.651963 0
M  V30 870 H 83.3655 -0.218253 1.88742 0
M  V30 871 H 81.5155 -2.41291 3.04485 0
M  V30 872 H 83.1875 -0.318615 4.60198 0
M  V30 873 H 81.4305 -0.230344 4.33188 0
M  V30 874 H 82.1015 -1.54735 5.29869 0
M  V30 875 H 84.5775 -2.24584 3.50287 0
M  V30 876 H 83.4535 -3.32678 4.36597 0
M  V30 877 H 83.7145 -3.54429 2.64258 0
M  V30 878 N 82.7736 -1.49793 -0.48987 0
M  V30 879 C 83.7036 -1.70201 -1.59856 0
M  V30 880 C 84.6846 -0.55076 -1.60937 0
M  V30 881 O 85.8696 -0.787841 -1.77501 0
M  V30 882 C 82.9996 -1.77882 -2.98287 0
M  V30 883 C 81.9536 -2.92907 -3.12073 0
M  V30 884 C 81.2796 -2.85712 -4.51965 0
M  V30 885 C 82.5796 -4.3369 -2.91051 0
M  V30 886 H 84.2736 -2.63025 -1.43032 0
M  V30 887 H 81.8196 -1.26574 -0.686664 0
M  V30 888 H 83.7726 -1.90744 -3.75759 0
M  V30 889 H 82.4966 -0.816653 -3.16225 0
M  V30 890 H 81.1556 -2.79665 -2.37029 0
M  V30 891 H 80.8036 -1.8738 -4.66795 0
M  V30 892 H 80.5036 -3.62921 -4.62128 0
M  V30 893 H 82.0276 -3.00598 -5.31482 0
M  V30 894 H 83.4416 -4.47555 -3.58284 0
M  V30 895 H 81.8386 -5.12205 -3.12675 0
M  V30 896 H 82.9086 -4.47362 -1.87071 0
M  V30 897 N 84.2517 0.741722 -1.39055 0
M  V30 898 C 85.4977 1.50336 -1.36113 0
M  V30 899 C 85.8307 1.94148 0.0450796 0
M  V30 900 O 85.1057 1.66301 1.00868 0
M  V30 901 C 85.3887 2.74773 -2.32749 0
M  V30 902 C 85.2417 2.37023 -3.82283 0
M  V30 903 C 86.5607 3.76846 -2.27322 0
M  V30 904 H 83.6797 0.545351 -0.495743 0
M  V30 905 H 86.3217 0.848624 -1.69995 0
M  V30 906 H 84.4717 3.30639 -2.03986 0
M  V30 907 H 86.1437 1.8684 -4.21768 0
M  V30 908 H 84.3867 1.69334 -3.99385 0
M  V30 909 H 85.0577 3.26104 -4.45376 0
M  V30 910 H 87.5337 3.30548 -2.5274 0
M  V30 911 H 86.4097 4.6159 -2.97028 0
M  V30 912 H 86.6707 4.23286 -1.27599 0
M  V30 913 N 85.7298 1.2412 0.971189 0
M  V30 914 C 86.6778 1.02812 2.08644 0
M  V30 915 C 87.6718 -0.0358403 1.69362 0
M  V30 916 O 88.8778 0.118429 1.7961 0
M  V30 917 H 85.2528 0.315428 0.682649 0
M  V30 918 H 87.2238 1.97397 2.23779 0
M  V30 919 C 85.9728 0.645874 3.41649 0
M  V30 920 H 85.2958 1.45632 3.72332 0
M  V30 921 H 86.7358 0.536366 4.20594 0
M  V30 922 C 85.1948 -0.646713 3.30635 0
M  V30 923 O 85.7248 -1.69338 3.64263 0
M  V30 924 N 83.9308 -0.626115 2.83775 0
M  V30 925 H 83.4778 0.225988 2.56607 0
M  V30 926 H 83.4358 -1.49117 2.76788 0
M  V30 927 N 87.2079 -1.17134 1.05439 0
M  V30 928 C 88.1709 -2.19439 0.661764 0
M  V30 929 C 89.1709 -1.58199 -0.288042 0
M  V30 930 O 90.3609 -1.74053 -0.0715803 0
M  V30 931 C 87.4929 -3.40889 -0.0276209 0
M  V30 932 H 88.6859 -2.55688 1.56728 0
M  V30 933 H 86.2389 -1.31259 0.848567 0
M  V30 934 H 86.9739 -3.10187 -0.94629 0
M  V30 935 H 86.7589 -3.86586 0.655238 0
M  V30 936 H 88.2489 -4.16603 -0.288342 0
M  V30 937 N 88.686 -0.835752 -1.33615 0
M  V30 938 C 89.596 -0.269088 -2.33052 0
M  V30 939 C 90.612 0.603251 -1.63208 0
M  V30 940 O 91.788 0.508112 -1.94885 0
M  V30 941 C 88.853 0.549091 -3.42324 0
M  V30 942 C 87.914 -0.347156 -4.27894 0
M  V30 943 C 87.147 0.43207 -5.31948 0
M  V30 944 O 87.37 1.66409 -5.45586 0
M  V30 945 O 86.304 -0.192298 -6.01593 0
M  V30 946 H 90.13 -1.09243 -2.83372 0
M  V30 947 H 87.715 -0.598198 -1.36901 0
M  V30 948 H 89.597 1.01414 -4.09015 0
M  V30 949 H 88.272 1.34955 -2.94226 0
M  V30 950 H 87.179 -0.859979 -3.64081 0
M  V30 951 H 88.512 -1.1123 -4.79467 0
M  V30 952 N 90.1641 1.46063 -0.591896 0
M  V30 953 C 91.1271 2.28854 0.125973 0
M  V30 954 C 92.1271 1.38903 0.810107 0
M  V30 955 O 93.3171 1.61186 0.66066 0
M  V30 956 C 90.4491 3.19526 1.1881 0
M  V30 957 H 91.6421 2.93802 -0.601717 0
M  V30 958 H 89.1951 1.52325 -0.350254 0
M  V30 959 H 89.9301 2.59345 1.94707 0
M  V30 960 H 89.7151 3.85766 0.701936 0
M  V30 961 H 91.2051 3.81817 1.69132 0
M  V30 962 N 91.6422 0.330177 1.54103 0
M  V30 963 C 92.8722 -0.271784 2.04805 0
M  V30 964 C 93.2802 -1.45816 1.20559 0
M  V30 965 O 92.6232 -1.82247 0.2306 0
M  V30 966 C 92.6852 -0.763238 3.51305 0
M  V30 967 C 92.3492 0.301705 4.56003 0
M  V30 968 C 93.3462 1.13999 5.07248 0
M  V30 969 C 91.0312 0.451793 5.00264 0
M  V30 970 C 93.0252 2.11402 6.01322 0
M  V30 971 C 90.7122 1.42924 5.94151 0
M  V30 972 C 91.7102 2.25882 6.44567 0
M  V30 973 O 91.3982 3.21965 7.3661 0
M  V30 974 H 91.1302 -0.058693 0.673447 0
M  V30 975 H 93.6842 0.476395 1.99799 0
M  V30 976 H 91.9142 -1.56244 3.5373 0
M  V30 977 H 93.6032 -1.28427 3.85047 0
M  V30 978 H 94.3692 1.03505 4.73827 0
M  V30 979 H 90.2482 -0.184044 4.60632 0
M  V30 980 H 93.7922 2.76192 6.40596 0
M  V30 981 H 89.6892 1.53479 6.26988 0
M  V30 982 H 90.4572 3.17281 7.54503 0
M  V30 983 N 93.1203 -1.57491 0.0584922 0
M  V30 984 C 94.0503 -2.14988 -0.911178 0
M  V30 985 C 95.0313 -1.07343 -1.31952 0
M  V30 986 O 96.2163 -1.35318 -1.39294 0
M  V30 987 C 93.3463 -2.70078 -2.18347 0
M  V30 988 C 92.3003 -3.82771 -1.91495 0
M  V30 989 C 91.6263 -4.24408 -3.25241 0
M  V30 990 C 92.9263 -5.07592 -1.23075 0
M  V30 991 H 94.6203 -2.96263 -0.432246 0
M  V30 992 H 92.1663 -1.42512 -0.206469 0
M  V30 993 H 94.1193 -3.08943 -2.86587 0
M  V30 994 H 92.8433 -1.86005 -2.68458 0
M  V30 995 H 91.5023 -3.44389 -1.25664 0
M  V30 996 H 91.1503 -3.37275 -3.73168 0
M  V30 997 H 90.8503 -5.00366 -3.08071 0
M  V30 998 H 92.3743 -4.65879 -3.94701 0
M  V30 999 H 93.7883 -5.43857 -1.81362 0
M  V30 1000 H 92.1853 -5.88741 -1.16207 0
M  V30 1001 H 93.2553 -4.84454 -0.207847 0
M  V30 1002 N 94.5984 0.214957 -1.56127 0
M  V30 1003 C 95.8474 0.936451 -1.78643 0
M  V30 1004 C 96.1604 1.85237 -0.628229 0
M  V30 1005 O 97.3664 2.613 -0.737186 0
M  V30 1006 C 95.8224 1.7154 -3.16389 0
M  V30 1007 C 95.4304 0.845299 -4.39953 0
M  V30 1008 C 97.1744 2.42772 -3.48227 0
M  V30 1009 C 95.0814 1.62198 -5.68723 0
M  V30 1010 H 94.0114 0.353401 -0.666051 0
M  V30 1011 H 96.6624 0.190169 -1.82512 0
M  V30 1012 H 95.0444 2.50484 -3.06715 0
M  V30 1013 H 96.2184 0.0959353 -4.607 0
M  V30 1014 H 94.5334 0.244789 -4.1568 0
M  V30 1015 H 97.1304 3.01394 -4.41663 0
M  V30 1016 H 97.4734 3.15984 -2.71035 0
M  V30 1017 H 98.0064 1.70813 -3.5926 0
M  V30 1018 H 94.7454 0.933011 -6.48826 0
M  V30 1019 H 94.2654 2.34579 -5.52026 0
M  V30 1020 H 95.9444 2.18095 -6.09133 0
M  V30 1021 N 96.0765 1.50051 0.48192 0
M  V30 1022 C 97.3535 1.51009 1.2432 0
M  V30 1023 C 97.7335 0.248587 2.09631 0
M  V30 1024 O 97.0815 -0.768409 2.15192 0
M  V30 1025 C 97.2915 2.79981 2.08355 0
M  V30 1026 C 98.6395 3.3022 2.66908 0
M  V30 1027 O 99.6635 2.81228 2.18607 0
M  V30 1028 O 98.5225 4.15595 3.54884 0
M  V30 1029 H 95.6165 0.605239 0.563573 0
M  V30 1030 H 98.1625 1.62332 0.494627 0
M  V30 1031 H 96.9345 3.63275 1.45419 0
M  V30 1032 H 96.5575 2.7161 2.90368 0
M  V30 1033 N 97.5546 -0.734337 1.39446 0
M  V30 1034 C 98.7826 -1.52358 1.39981 0
M  V30 1035 C 99.1976 -1.88799 -0.0054975 0
M  V30 1036 O 98.5546 -1.54146 -0.976998 0
M  V30 1037 C 98.6056 -2.81072 2.27333 0
M  V30 1038 O 98.3266 -2.46178 3.62392 0
M  V30 1039 C 99.8276 -3.75096 2.36259 0
M  V30 1040 H 97.0476 -0.470806 0.478103 0
M  V30 1041 H 99.5916 -0.907339 1.83269 0
M  V30 1042 H 97.7466 -3.39026 1.87457 0
M  V30 1043 H 98.1606 -3.28866 4.08592 0
M  V30 1044 H 99.6346 -4.62305 3.01626 0
M  V30 1045 H 100.112 -4.16892 1.38194 0
M  V30 1046 H 100.718 -3.23061 2.76608 0
M  V30 1047 N 99.0327 -1.24633 -0.964593 0
M  V30 1048 C 100.444 -1.08045 -1.5226 0
M  V30 1049 C 100.795 0.347116 -1.93105 0
M  V30 1050 O 99.9197 1.23588 -1.77637 0
M  V30 1051 C 100.515 -1.95514 -2.76695 0
M  V30 1052 C 99.0737 -1.8314 -3.28841 0
M  V30 1053 C 98.2207 -1.90262 -2.01732 0
M  V30 1054 H 101.172 -1.38064 -0.782553 0
M  V30 1055 H 101.193 -1.48925 -3.50145 0
M  V30 1056 H 100.705 -2.99407 -2.46936 0
M  V30 1057 H 98.8057 -0.82092 -3.63444 0
M  V30 1058 H 98.9187 -2.67406 -3.97531 0
M  V30 1059 H 97.2827 -1.34027 -2.16584 0
M  V30 1060 H 98.0657 -2.9574 -1.74334 0
M  V30 1061 N 100.511 1.16574 -1.06058 0
M  V30 1062 C 101.758 1.87047 -0.775873 0
M  V30 1063 C 102.086 1.81562 0.697534 0
M  V30 1064 O 101.341 1.22445 1.52662 0
M  V30 1065 C 101.64 3.36195 -1.21275 0
M  V30 1066 C 101.306 3.6188 -2.68986 0
M  V30 1067 C 99.9678 3.68599 -3.09335 0
M  V30 1068 C 102.32 3.72648 -3.64394 0
M  V30 1069 C 99.6478 3.83584 -4.43937 0
M  V30 1070 C 102 3.89154 -4.98741 0
M  V30 1071 C 100.664 3.94114 -5.3873 0
M  V30 1072 H 99.9338 0.684452 -0.283912 0
M  V30 1073 H 102.581 1.37853 -1.32925 0
M  V30 1074 H 100.886 3.87505 -0.578528 0
M  V30 1075 H 102.583 3.89103 -0.969542 0
M  V30 1076 H 99.1728 3.57281 -2.36744 0
M  V30 1077 H 103.357 3.66769 -3.34356 0
M  V30 1078 H 98.6128 3.85677 -4.74409 0
M  V30 1079 H 102.787 3.96427 -5.72554 0
M  V30 1080 H 100.414 4.05478 -6.43033 0
M  V30 1081 N 101.989 0.842826 1.3317 0
M  V30 1082 C 103.217 0.454055 2.01856 0
M  V30 1083 C 103.632 -0.94587 1.63397 0
M  V30 1084 O 102.989 -1.61534 0.849302 0
M  V30 1085 C 103.04 0.569715 3.56982 0
M  V30 1086 O 102.761 1.91448 3.94055 0
M  V30 1087 C 104.262 0.178412 4.42941 0
M  V30 1088 H 101.482 0.17979 0.646465 0
M  V30 1089 H 104.026 1.1365 1.70012 0
M  V30 1090 H 102.181 -0.0648587 3.87346 0
M  V30 1091 H 102.595 1.90282 4.88767 0
M  V30 1092 H 104.069 0.310376 5.51127 0
M  V30 1093 H 104.546 -0.880056 4.30293 0
M  V30 1094 H 105.152 0.787579 4.17944 0
M  V30 1095 N 103.467 -1.45747 0.599634 0
M  V30 1096 C 104.43 -2.28917 -0.113835 0
M  V30 1097 C 105.43 -1.3933 -0.802729 0
M  V30 1098 O 106.62 -1.61534 -0.652103 0
M  V30 1099 C 103.752 -3.20152 -1.17114 0
M  V30 1100 H 104.945 -2.93478 0.617289 0
M  V30 1101 H 102.498 -1.52137 0.358327 0
M  V30 1102 H 103.233 -2.60374 -1.93329 0
M  V30 1103 H 103.018 -3.86133 -0.681468 0
M  V30 1104 H 104.508 -3.82708 -1.67105 0
M  V30 1105 N 104.945 -0.338344 -1.53925 0
M  V30 1106 C 105.892 0.520845 -2.24846 0
M  V30 1107 C 106.862 1.09976 -1.24477 0
M  V30 1108 O 108.047 1.13735 -1.53196 0
M  V30 1109 C 105.187 1.6685 -3.02084 0
M  V30 1110 C 104.3 1.11739 -4.17299 0
M  V30 1111 C 103.435 2.23193 -4.82036 0
M  V30 1112 C 102.474 1.65407 -5.89328 0
M  V30 1113 N 101.611 2.70582 -6.47866 0
M  V30 1114 H 106.451 -0.0904881 -2.97863 0
M  V30 1115 H 103.988 -0.0564282 -1.46992 0
M  V30 1116 H 105.946 2.34407 -3.45122 0
M  V30 1117 H 104.576 2.2509 -2.31375 0
M  V30 1118 H 103.628 0.332919 -3.7894 0
M  V30 1119 H 104.94 0.654677 -4.94485 0
M  V30 1120 H 104.094 2.98626 -5.28117 0
M  V30 1121 H 102.833 2.72807 -4.04262 0
M  V30 1122 H 101.838 0.884779 -5.42634 0
M  V30 1123 H 103.063 1.16652 -6.69006 0
M  V30 1124 H 101.009 3.1946 -5.72959 0
M  V30 1125 H 100.926 2.28917 -7.20509 0
M  V30 1126 H 102.194 3.45799 -6.98601 0
M  V30 1127 N 106.423 1.57458 -0.0668435 0
M  V30 1128 C 107.7 1.8469 0.644132 0
M  V30 1129 C 108.08 0.958343 1.88093 0
M  V30 1130 O 107.428 0.0233579 2.28488 0
M  V30 1131 C 107.638 3.34767 0.986509 0
M  V30 1132 C 108.986 4.02159 1.36212 0
M  V30 1133 O 110.01 3.39484 1.07839 0
M  V30 1134 O 108.869 5.12694 1.89227 0
M  V30 1135 H 105.963 0.762816 0.319437 0
M  V30 1136 H 108.509 1.6942 -0.0973986 0
M  V30 1137 H 107.281 3.91151 0.107883 0
M  V30 1138 H 106.904 3.55281 1.78497 0
M  V30 1139 N 107.901 -0.206675 1.56239 0
M  V30 1140 C 109.129 -0.945345 1.8404 0
M  V30 1141 C 109.544 -1.77336 0.647885 0
M  V30 1142 O 108.901 -1.78425 -0.383511 0
M  V30 1143 C 108.952 -1.8509 3.10522 0
M  V30 1144 O 108.673 -1.05634 4.25174 0
M  V30 1145 C 110.174 -2.70222 3.51418 0
M  V30 1146 H 107.394 -0.276372 0.61144 0
M  V30 1147 H 109.938 -0.217417 2.03341 0
M  V30 1148 H 108.093 -2.53259 2.93153 0
M  V30 1149 H 108.507 -1.67238 4.97124 0
M  V30 1150 H 109.981 -3.29438 4.42916 0
M  V30 1151 H 110.458 -3.43358 2.73864 0
M  V30 1152 H 111.064 -2.07443 3.71278 0
M  V30 1153 N 109.379 -1.50304 -0.473955 0
M  V30 1154 C 110.289 -1.7174 -1.5982 0
M  V30 1155 C 111.305 -0.600457 -1.63311 0
M  V30 1156 O 112.481 -0.878441 -1.81233 0
M  V30 1157 C 109.546 -1.80427 -2.96052 0
M  V30 1158 C 108.607 -3.04148 -3.02972 0
M  V30 1159 C 107.84 -3.12411 -4.32706 0
M  V30 1160 O 108.063 -2.27542 -5.23049 0
M  V30 1161 O 106.997 -4.05113 -4.45159 0
M  V30 1162 H 110.823 -2.67035 -1.44657 0
M  V30 1163 H 108.408 -1.34366 -0.653148 0
M  V30 1164 H 110.29 -1.88338 -3.7697 0
M  V30 1165 H 108.965 -0.883156 -3.11419 0
M  V30 1166 H 107.872 -3.0174 -2.21142 0
M  V30 1167 H 109.205 -3.95829 -2.92541 0
M  V30 1168 N 110.857 0.726932 -1.39834 0
M  V30 1169 C 111.804 1.841 -1.39197 0
M  V30 1170 C 112.774 1.642 -0.250502 0
M  V30 1171 O 113.959 1.85494 -0.446846 0
M  V30 1172 C 111.099 3.21697 -1.24919 0
M  V30 1173 C 110.212 3.53247 -2.48678 0
M  V30 1174 C 109.347 4.80289 -2.26928 0
M  V30 1175 C 108.386 5.04707 -3.4632 0
M  V30 1176 N 107.523 6.22956 -3.23836 0
M  V30 1177 H 112.363 1.83979 -2.34427 0
M  V30 1178 H 109.9 0.898876 -1.16442 0
M  V30 1179 H 111.858 4.01137 -1.1465 0
M  V30 1180 H 110.488 3.21076 -0.333153 0
M  V30 1181 H 109.54 2.68447 -2.69519 0
M  V30 1182 H 110.852 3.67205 -3.37582 0
M  V30 1183 H 110.006 5.67725 -2.13947 0
M  V30 1184 H 108.745 4.68519 -1.35431 0
M  V30 1185 H 107.75 4.1573 -3.5979 0
M  V30 1186 H 108.975 5.18357 -4.38729 0
M  V30 1187 H 106.921 6.12459 -2.35011 0
M  V30 1188 H 106.838 6.37539 -4.063 0
M  V30 1189 H 108.106 7.1321 -3.14566 0
M  V30 1190 N 112.336 1.25143 0.95797 0
M  V30 1191 C 113.266 1.07711 2.07173 0
M  V30 1192 C 114.247 -0.0128462 1.70095 0
M  V30 1193 O 115.432 0.156061 1.93572 0
M  V30 1194 C 112.562 0.691503 3.40346 0
M  V30 1195 C 111.516 1.73132 3.9142 0
M  V30 1196 C 110.842 1.20049 5.21049 0
M  V30 1197 C 112.142 3.1294 4.1817 0
M  V30 1198 H 113.836 2.00873 2.22014 0
M  V30 1199 H 111.382 0.967191 1.06684 0
M  V30 1200 H 113.335 0.556505 4.17709 0
M  V30 1201 H 112.059 -0.275819 3.25433 0
M  V30 1202 H 110.718 1.8547 3.16222 0
M  V30 1203 H 110.366 0.223499 5.02503 0
M  V30 1204 H 110.066 1.89545 5.56189 0
M  V30 1205 H 111.59 1.07782 6.01012 0
M  V30 1206 H 113.004 3.03775 4.86203 0
M  V30 1207 H 111.401 3.79875 4.64559 0
M  V30 1208 H 112.471 3.6025 3.24573 0
M  V30 1209 N 113.814 -1.1601 1.06675 0
M  V30 1210 C 115.06 -1.86909 0.786945 0
M  V30 1211 C 115.393 -1.81717 -0.685018 0
M  V30 1212 O 114.668 -1.23551 -1.50218 0
M  V30 1213 C 114.951 -3.36313 1.28707 0
M  V30 1214 C 114.804 -3.50175 2.82308 0
M  V30 1215 C 116.123 -4.3084 0.898071 0
M  V30 1216 H 113.242 -0.678677 0.287343 0
M  V30 1217 H 115.884 -1.36336 1.32334 0
M  V30 1218 H 114.034 -3.79513 0.830768 0
M  V30 1219 H 115.706 -3.15886 3.36175 0
M  V30 1220 H 113.949 -2.91959 3.20847 0
M  V30 1221 H 114.62 -4.55116 3.12368 0
M  V30 1222 H 117.096 -3.95561 1.29114 0
M  V30 1223 H 115.972 -5.33876 1.27543 0
M  V30 1224 H 116.233 -4.41662 -0.196651 0
M  V30 1225 N 115.292 -0.849877 -1.32721 0
M  V30 1226 C 116.52 -0.464754 -2.01613 0
M  V30 1227 C 116.935 0.937191 -1.63897 0
M  V30 1228 O 116.292 1.61081 -0.857856 0
M  V30 1229 C 116.343 -0.588638 -3.56675 0
M  V30 1230 O 116.064 -1.93535 -3.93034 0
M  V30 1231 C 117.565 -0.2019 -4.4284 0
M  V30 1232 H 114.785 -0.183215 -0.645502 0
M  V30 1233 H 117.329 -1.1455 -1.69407 0
M  V30 1234 H 115.484 0.0443159 -3.87375 0
M  V30 1235 H 115.898 -1.92871 -4.87751 0
M  V30 1236 H 117.372 -0.339599 -5.50954 0
M  V30 1237 H 117.849 0.857224 -4.30753 0
M  V30 1238 H 118.455 -0.809733 -4.17521 0
M  V30 1239 N 116.77 1.45427 -0.607355 0
M  V30 1240 C 118.016 2.03097 -0.111035 0
M  V30 1241 C 118.371 1.46735 1.24445 0
M  V30 1242 O 117.664 0.632478 1.8086 0
M  V30 1243 C 117.858 3.57398 -0.0129263 0
M  V30 1244 C 117.687 4.28726 -1.35735 0
M  V30 1245 C 116.457 4.66659 -1.93798 0
M  V30 1246 C 118.655 4.60699 -2.28607 0
M  V30 1247 N 116.637 5.22845 -3.21723 0
M  V30 1248 C 118.008 5.17716 -3.41131 0
M  V30 1249 C 120.063 4.42638 -2.27982 0
M  V30 1250 C 118.766 5.58576 -4.53194 0
M  V30 1251 C 120.792 4.84531 -3.39093 0
M  V30 1252 C 120.154 5.4164 -4.50339 0
M  V30 1253 H 116.253 0.777476 -0.083994 0
M  V30 1254 H 118.837 1.77249 -0.805655 0
M  V30 1255 H 117.008 3.82907 0.650914 0
M  V30 1256 H 118.74 4.01722 0.490033 0
M  V30 1257 H 115.495 4.50207 -1.47007 0
M  V30 1258 H 115.919 5.55438 -3.87063 0
M  V30 1259 H 120.561 3.97798 -1.43235 0
M  V30 1260 H 118.279 6.02382 -5.38667 0
M  V30 1261 H 121.865 4.72289 -3.39757 0
M  V30 1262 H 120.745 5.73461 -5.34895 0
M  V30 1263 N 118.248 0.346503 1.53744 0
M  V30 1264 C 119.495 -0.249104 2.00962 0
M  V30 1265 C 119.823 -1.5032 1.23426 0
M  V30 1266 O 119.078 -1.93217 0.310761 0
M  V30 1267 C 119.377 -0.605809 3.52228 0
M  V30 1268 C 119.043 0.551747 4.47512 0
M  V30 1269 C 117.705 0.86941 4.73281 0
M  V30 1270 C 120.057 1.32818 5.03993 0
M  V30 1271 C 117.385 1.96582 5.52786 0
M  V30 1272 C 119.737 2.41486 5.84694 0
M  V30 1273 C 118.401 2.73808 6.08757 0
M  V30 1274 H 117.671 -0.0911538 0.735372 0
M  V30 1275 H 120.318 0.475027 1.85515 0
M  V30 1276 H 118.623 -1.4107 3.65522 0
M  V30 1277 H 120.32 -1.07858 3.86222 0
M  V30 1278 H 116.91 0.294102 4.2759 0
M  V30 1279 H 121.094 1.09602 4.84047 0
M  V30 1280 H 116.35 2.22045 5.69654 0
M  V30 1281 H 120.524 3.02078 6.27473 0
M  V30 1282 H 118.151 3.58892 6.7015 0
M  V30 1283 N 119.726 -1.57421 0.075193 0
M  V30 1284 C 120.972 -1.93905 -0.594025 0
M  V30 1285 C 121.305 -0.955701 -1.69056 0
M  V30 1286 O 120.58 0.0145373 -1.94495 0
M  V30 1287 C 120.863 -3.40638 -1.1678 0
M  V30 1288 C 120.716 -4.49733 -0.0776792 0
M  V30 1289 C 122.035 -3.88259 -2.07228 0
M  V30 1290 H 119.154 -0.705105 -0.214466 0
M  V30 1291 H 121.796 -1.8947 0.141854 0
M  V30 1292 H 119.946 -3.44549 -1.79494 0
M  V30 1293 H 121.618 -4.57942 0.555573 0
M  V30 1294 H 119.861 -4.29751 0.591286 0
M  V30 1295 H 120.532 -5.49549 -0.519603 0
M  V30 1296 H 123.008 -3.86376 -1.54445 0
M  V30 1297 H 121.884 -4.91533 -2.44308 0
M  V30 1298 H 122.145 -3.26396 -2.98191 0
M  V30 1299 N 121.204 0.198386 -1.56346 0
M  V30 1300 C 122.114 1.2664 -1.97483 0
M  V30 1301 C 123.13 1.49989 -0.882002 0
M  V30 1302 O 124.306 1.62668 -1.18748 0
M  V30 1303 C 121.371 2.59141 -2.30319 0
M  V30 1304 C 120.432 2.43892 -3.53292 0
M  V30 1305 C 119.665 3.70074 -3.84553 0
M  V30 1306 O 119.888 4.74101 -3.1715 0
M  V30 1307 O 118.822 3.658 -4.7799 0
M  V30 1308 H 122.648 0.947304 -2.88548 0
M  V30 1309 H 120.233 0.403123 -1.43859 0
M  V30 1310 H 122.115 3.37352 -2.5253 0
M  V30 1311 H 120.79 2.90684 -1.42423 0
M  V30 1312 H 119.697 1.63803 -3.36332 0
M  V30 1313 H 121.03 2.17282 -4.41644 0
M  V30 1314 N 122.682 1.50554 0.465978 0
M  V30 1315 C 124.098 1.38093 0.800154 0
M  V30 1316 C 124.298 0.440988 1.96615 0
M  V30 1317 O 123.354 -0.114499 2.5224 0
M  V30 1318 C 124.667 2.79565 1.10742 0
M  V30 1319 C 126.215 2.88516 1.21357 0
M  V30 1320 C 126.69 4.30833 1.55393 0
M  V30 1321 N 128.181 4.33807 1.62375 0
M  V30 1322 C 128.916 5.40927 1.90225 0
M  V30 1323 N 128.412 6.58247 2.16062 0
M  V30 1324 N 130.205 5.28376 1.9177 0
M  V30 1325 H 122.356 2.10237 -0.302366 0
M  V30 1326 H 124.619 0.945203 -0.0727746 0
M  V30 1327 H 124.325 3.50208 0.323661 0
M  V30 1328 H 124.199 3.17125 2.04234 0
M  V30 1329 H 126.586 2.1809 1.98799 0
M  V30 1330 H 126.667 2.54492 0.258321 0
M  V30 1331 H 126.311 5.01799 0.784889 0
M  V30 1332 H 126.241 4.62347 2.52076 0
M  V30 1333 H 128.732 3.49212 1.44427 0
M  V30 1334 H 129.045 7.3569 2.36601 0
M  V30 1335 H 127.39 6.61413 2.13444 0
M  V30 1336 H 130.581 4.35715 1.71085 0
M  V30 1337 H 130.754 6.11944 2.13139 0
M  V30 1338 N 124.16 -0.719506 1.40217 0
M  V30 1339 C 125.408 -1.47641 1.3801 0
M  V30 1340 C 125.729 -1.94992 -0.018145 0
M  V30 1341 O 124.999 -1.70073 -0.972207 0
M  V30 1342 H 123.579 -0.547744 0.507923 0
M  V30 1343 H 126.241 -0.853187 1.75233 0
M  V30 1344 H 125.337 -2.35112 2.05253 0
M  V30 1345 N 125.638 -1.25649 -0.95132 0
M  V30 1346 C 126.868 -1.13179 -1.72841 0
M  V30 1347 C 127.276 0.316827 -1.86528 0
M  V30 1348 O 126.619 1.22948 -1.3649 0
M  V30 1349 C 126.681 -1.71644 -3.15878 0
M  V30 1350 C 126.345 -3.20667 -3.25609 0
M  V30 1351 C 127.342 -4.17616 -3.09666 0
M  V30 1352 C 125.027 -3.6094 -3.49324 0
M  V30 1353 C 127.021 -5.52817 -3.17289 0
M  V30 1354 C 124.708 -4.96278 -3.56584 0
M  V30 1355 C 125.706 -5.92025 -3.40581 0
M  V30 1356 O 125.394 -7.24899 -3.47528 0
M  V30 1357 H 125.126 -0.395389 -0.54831 0
M  V30 1358 H 127.68 -1.66566 -1.20187 0
M  V30 1359 H 125.91 -1.12707 -3.69911 0
M  V30 1360 H 127.599 -1.54225 -3.75459 0
M  V30 1361 H 128.365 -3.87842 -2.91211 0
M  V30 1362 H 124.244 -2.86907 -3.6084 0
M  V30 1363 H 127.788 -6.2753 -3.04716 0
M  V30 1364 H 123.685 -5.25716 -3.74556 0
M  V30 1365 H 124.453 -7.33039 -3.64138 0
M  V30 1366 N 127.117 1.15442 -1.07289 0
M  V30 1367 C 128.064 2.20161 -0.692653 0
M  V30 1368 C 129.034 1.63073 0.31564 0
M  V30 1369 O 130.219 1.89725 0.202235 0
M  V30 1370 C 127.359 3.44967 -0.0959509 0
M  V30 1371 C 126.472 4.16256 -1.15564 0
M  V30 1372 C 125.607 5.28609 -0.524011 0
M  V30 1373 C 124.646 5.91715 -1.56653 0
M  V30 1374 N 123.783 6.9554 -0.957531 0
M  V30 1375 H 128.623 2.52037 -1.59002 0
M  V30 1376 H 126.16 1.2378 -0.794798 0
M  V30 1377 H 128.118 4.16341 0.267628 0
M  V30 1378 H 126.748 3.1361 0.764772 0
M  V30 1379 H 125.8 3.43385 -1.6368 0
M  V30 1380 H 127.112 4.59268 -1.94613 0
M  V30 1381 H 126.266 6.06604 -0.108032 0
M  V30 1382 H 125.005 4.86787 0.29825 0
M  V30 1383 H 124.01 5.12433 -1.9923 0
M  V30 1384 H 125.235 6.35614 -2.39107 0
M  V30 1385 H 123.181 6.55814 -0.156162 0
M  V30 1386 H 123.098 7.36977 -1.68526 0
M  V30 1387 H 124.366 7.77435 -0.567032 0
M  V30 1388 N 128.595 0.856903 1.32268 0
M  V30 1389 C 129.844 0.457599 1.96441 0
M  V30 1390 C 130.157 -0.992426 1.68553 0
M  V30 1391 O 131.363 -1.49727 2.26482 0
M  V30 1392 C 129.819 0.767358 3.51624 0
M  V30 1393 C 129.427 2.23326 3.88367 0
M  V30 1394 C 131.171 0.435887 4.22256 0
M  V30 1395 C 129.078 2.48613 5.36606 0
M  V30 1396 H 128.008 0.167387 0.735185 0
M  V30 1397 H 130.659 1.048 1.5063 0
M  V30 1398 H 129.041 0.106367 3.95857 0
M  V30 1399 H 130.215 2.93623 3.55137 0
M  V30 1400 H 128.53 2.52948 3.30766 0
M  V30 1401 H 131.127 0.602202 5.31298 0
M  V30 1402 H 131.47 -0.622672 4.11617 0
M  V30 1403 H 132.003 1.05286 3.83614 0
M  V30 1404 H 128.742 3.53101 5.52268 0
M  V30 1405 H 128.262 1.82896 5.71235 0
M  V30 1406 H 129.941 2.32676 6.03714 0
M  V30 1407 N 130.073 -1.45103 0.615059 0
M  V30 1408 C 131.02 -2.30586 -0.0993978 0
M  V30 1409 C 131.99 -1.42544 -0.852669 0
M  V30 1410 O 133.175 -1.71465 -0.836917 0
M  V30 1411 C 130.315 -3.27572 -1.08583 0
M  V30 1412 C 129.428 -4.30717 -0.332656 0
M  V30 1413 C 128.563 -5.14807 -1.30947 0
M  V30 1414 C 127.602 -6.09673 -0.544538 0
M  V30 1415 N 126.739 -6.86517 -1.47101 0
M  V30 1416 H 131.579 -2.91144 0.635542 0
M  V30 1417 H 129.116 -1.4346 0.325206 0
M  V30 1418 H 131.074 -3.82276 -1.67095 0
M  V30 1419 H 129.704 -2.68751 -1.78809 0
M  V30 1420 H 128.756 -3.78615 0.368107 0
M  V30 1421 H 130.068 -4.98102 0.263842 0
M  V30 1422 H 129.222 -5.73948 -1.96643 0
M  V30 1423 H 127.961 -4.47458 -1.9399 0
M  V30 1424 H 126.966 -5.49656 0.126003 0
M  V30 1425 H 128.191 -6.79052 0.080947 0
M  V30 1426 H 126.137 -6.21851 -2.08895 0
M  V30 1427 H 126.054 -7.50281 -0.928137 0
M  V30 1428 H 127.322 -7.50194 -2.11731 0
M  V30 1429 N 131.551 -0.354651 -1.53558 0
M  V30 1430 C 132.799 0.237972 -2.00694 0
M  V30 1431 C 133.12 1.50173 -1.24391 0
M  V30 1432 O 132.39 1.92673 -0.354135 0
M  V30 1433 H 130.97 0.0909256 -0.741446 0
M  V30 1434 H 133.632 -0.478368 -1.88938 0
M  V30 1435 H 132.728 0.47264 -3.085 0
M  V30 1436 N 133.029 1.57378 -0.0835403 0
M  V30 1437 C 134.254 1.98682 0.594987 0
M  V30 1438 C 134.679 0.961969 1.61641 0
M  V30 1439 O 134.037 -0.0709989 1.81161 0
M  V30 1440 C 134.085 3.38988 1.2296 0
M  V30 1441 O 133.189 3.39208 2.34546 0
M  V30 1442 H 132.53 0.646368 0.152002 0
M  V30 1443 H 135.06 2.03961 -0.161533 0
M  V30 1444 H 135.07 3.76431 1.57366 0
M  V30 1445 H 133.745 4.13107 0.481228 0
M  V30 1446 H 132.322 3.13548 2.01846 0
M  V30 1447 N 134.507 -0.190092 1.56449 0
M  V30 1448 C 135.756 -0.907912 1.80111 0
M  V30 1449 C 136.069 -1.84214 0.657619 0
M  V30 1450 O 137.275 -2.60094 0.778663 0
M  V30 1451 C 135.731 -1.66485 3.19078 0
M  V30 1452 C 135.339 -0.7752 4.41242 0
M  V30 1453 C 137.083 -2.37201 3.52045 0
M  V30 1454 C 134.99 -1.53129 5.71231 0
M  V30 1455 H 133.92 -0.34276 0.671589 0
M  V30 1456 H 136.571 -0.161109 1.82791 0
M  V30 1457 H 134.953 -2.45572 3.10661 0
M  V30 1458 H 136.127 -0.0226298 4.60794 0
M  V30 1459 H 134.442 -0.178627 4.16017 0
M  V30 1460 H 137.039 -2.94329 4.46402 0
M  V30 1461 H 137.382 -3.11632 2.76028 0
M  V30 1462 H 137.915 -1.65075 3.61932 0
M  V30 1463 H 134.654 -0.82967 6.50228 0
M  V30 1464 H 134.174 -2.25767 5.55688 0
M  V30 1465 H 135.853 -2.08377 6.12526 0
M  V30 1466 N 135.985 -1.50799 -0.457987 0
M  V30 1467 C 137.21 -1.66496 -1.23668 0
M  V30 1468 C 137.635 -0.353288 -1.84752 0
M  V30 1469 O 136.993 0.684346 -1.67888 0
M  V30 1470 C 137.041 -2.76763 -2.3116 0
M  V30 1471 O 136.145 -2.38928 -3.36136 0
M  V30 1472 H 135.486 -0.555828 -0.363252 0
M  V30 1473 H 138.016 -1.9725 -0.543474 0
M  V30 1474 H 138.026 -3.00232 -2.76269 0
M  V30 1475 H 136.701 -3.71954 -1.86073 0
M  V30 1476 H 135.278 -2.25953 -2.96647 0
M  V30 1477 N 137.463 0.71206 -1.40597 0
M  V30 1478 C 138.688 1.50617 -1.42581 0
M  V30 1479 C 139.113 1.88079 -0.0282102 0
M  V30 1480 O 138.471 1.53511 0.964579 0
M  V30 1481 C 138.519 2.7557 -2.3258 0
M  V30 1482 O 137.623 3.72414 -1.77148 0
M  V30 1483 H 136.964 0.453966 -0.484573 0
M  V30 1484 H 139.494 0.876649 -1.84868 0
M  V30 1485 H 139.504 3.2406 -2.47889 0
M  V30 1486 H 138.179 2.47639 -3.34138 0
M  V30 1487 H 136.756 3.31276 -1.71204 0
M  V30 1488 N 138.941 1.26152 0.944643 0
M  V30 1489 C 139.891 1.04081 2.02857 0
M  V30 1490 C 140.875 -0.0256555 1.6088 0
M  V30 1491 O 142.067 0.190884 1.75968 0
M  V30 1492 C 139.196 0.672118 3.36656 0
M  V30 1493 C 138.282 1.77586 3.85128 0
M  V30 1494 N 138.673 3.01272 4.06287 0
M  V30 1495 C 136.971 1.65867 4.1401 0
M  V30 1496 C 137.672 3.72983 4.46384 0
M  V30 1497 N 136.648 3.00653 4.52889 0
M  V30 1498 H 140.45 1.97968 2.17223 0
M  V30 1499 H 137.964 1.16618 1.13022 0
M  V30 1500 H 139.961 0.495166 4.13949 0
M  V30 1501 H 138.621 -0.259307 3.23663 0
M  V30 1502 H 139.632 3.37213 3.93075 0
M  V30 1503 H 136.309 0.796907 4.09824 0
M  V30 1504 H 137.699 4.792 4.70975 0
M  V30 1505 N 140.419 -1.14872 1.07899 0
M  V30 1506 C 141.666 -1.85789 0.805532 0
M  V30 1507 C 141.994 -1.82649 -0.668561 0
M  V30 1508 O 141.249 -1.24858 -1.50695 0
M  V30 1509 C 141.548 -3.34223 1.26609 0
M  V30 1510 C 141.214 -3.57555 2.74709 0
M  V30 1511 C 139.876 -3.63631 3.1516 0
M  V30 1512 C 142.228 -3.66803 3.70277 0
M  V30 1513 C 139.556 -3.76473 4.49983 0
M  V30 1514 C 141.908 -3.8117 5.04869 0
M  V30 1515 C 140.572 -3.85494 5.44932 0
M  V30 1516 H 139.842 -0.679849 0.294765 0
M  V30 1517 H 142.489 -1.3572 1.35101 0
M  V30 1518 H 140.794 -3.86536 0.640103 0
M  V30 1519 H 142.491 -3.87511 1.03132 0
M  V30 1520 H 139.081 -3.5347 2.42398 0
M  V30 1521 H 143.265 -3.61404 3.40149 0
M  V30 1522 H 138.521 -3.7808 4.80484 0
M  V30 1523 H 142.695 -3.87268 5.78789 0
M  V30 1524 H 140.322 -3.95197 6.49403 0
M  V30 1525 N 141.898 -0.863906 -1.31812 0
M  V30 1526 C 142.848 -0.286898 -2.26188 0
M  V30 1527 C 143.832 0.572577 -1.50367 0
M  V30 1528 O 145.024 0.420447 -1.71934 0
M  V30 1529 C 142.153 0.515849 -3.39402 0
M  V30 1530 C 141.239 -0.356531 -4.22599 0
M  V30 1531 N 141.63 -1.44716 -4.84656 0
M  V30 1532 C 139.928 -0.147898 -4.45755 0
M  V30 1533 C 140.629 -1.98462 -5.46798 0
M  V30 1534 N 139.605 -1.28247 -5.28255 0
M  V30 1535 H 143.407 -1.12055 -2.717 0
M  V30 1536 H 140.921 -0.711012 -1.46008 0
M  V30 1537 H 142.918 0.945701 -4.06032 0
M  V30 1538 H 141.578 1.34718 -2.95434 0
M  V30 1539 H 142.589 -1.83008 -4.84488 0
M  V30 1540 H 139.266 0.647973 -4.12441 0
M  V30 1541 H 140.656 -2.89932 -6.06126 0
M  V30 1542 N 143.376 1.44774 -0.622745 0
M  V30 1543 C 144.601 2.06999 -0.128968 0
M  V30 1544 C 145.026 1.4617 1.1839 0
M  V30 1545 O 144.384 0.560007 1.72434 0
M  V30 1546 C 144.432 3.60595 -0.0188351 0
M  V30 1547 O 143.536 3.99398 1.02739 0
M  V30 1548 H 142.877 0.659047 -0.0809544 0
M  V30 1549 H 145.407 1.85784 -0.85705 0
M  V30 1550 H 145.417 4.07627 0.174476 0
M  V30 1551 H 144.092 4.04252 -0.977384 0
M  V30 1552 H 142.669 3.64011 0.809326 0
M  V30 1553 N 144.854 0.36279 1.53368 0
M  V30 1554 C 146.131 -0.284021 1.93527 0
M  V30 1555 C 146.511 -1.66628 1.29608 0
M  V30 1556 O 145.859 -2.23942 0.45413 0
M  V30 1557 C 146.069 -0.337028 3.47369 0
M  V30 1558 C 147.417 -0.578708 4.20638 0
M  V30 1559 O 148.441 -0.418352 3.53735 0
M  V30 1560 O 147.3 -0.89074 5.39192 0
M  V30 1561 H 144.394 -0.169743 0.809393 0
M  V30 1562 H 146.94 0.41537 1.64538 0
M  V30 1563 H 145.712 0.632217 3.86159 0
M  V30 1564 H 145.335 -1.08243 3.82582 0
M  V30 1565 N 146.332 -1.57332 0.0918853 0
M  V30 1566 C 147.557 -1.98995 -0.584442 0
M  V30 1567 C 147.982 -0.970528 -1.61128 0
M  V30 1568 O 147.34 0.0613904 -1.81196 0
M  V30 1569 C 147.388 -3.39636 -1.21161 0
M  V30 1570 O 146.492 -3.40447 -2.32744 0
M  V30 1571 H 145.833 -0.647165 -0.148572 0
M  V30 1572 H 148.363 -2.03873 0.172347 0
M  V30 1573 H 148.373 -3.7726 -1.55367 0
M  V30 1574 H 147.048 -4.13356 -0.459313 0
M  V30 1575 H 145.625 -3.14614 -2.0018 0
M  V30 1576 N 147.81 0.181792 -1.56548 0
M  V30 1577 C 149.038 0.915947 -1.85521 0
M  V30 1578 C 149.453 1.76282 -0.676016 0
M  V30 1579 O 148.81 1.79012 0.355077 0
M  V30 1580 C 148.861 1.80126 -3.13427 0
M  V30 1581 O 148.582 0.988562 -4.26801 0
M  V30 1582 C 150.083 2.64597 -3.55673 0
M  V30 1583 H 147.303 0.26661 -0.61576 0
M  V30 1584 H 149.847 0.185039 -2.03661 0
M  V30 1585 H 148.002 2.48563 -2.97145 0
M  V30 1586 H 148.416 1.59308 -4.99721 0
M  V30 1587 H 149.89 3.2235 -4.48101 0
M  V30 1588 H 150.367 3.38958 -2.79292 0
M  V30 1589 H 150.973 2.0151 -3.74532 0
M  V30 1590 N 149.288 1.51039 0.449983 0
M  V30 1591 C 150.536 1.62759 1.19808 0
M  V30 1592 C 150.857 0.339981 1.92013 0
M  V30 1593 O 150.127 -0.643606 1.85026 0
M  V30 1594 H 148.707 0.599811 0.445237 0
M  V30 1595 H 151.369 1.87914 0.517138 0
M  V30 1596 H 150.465 2.44911 1.93455 0
M  V30 1597 N 150.766 -0.704594 1.40972 0
M  V30 1598 C 152.014 -1.46169 1.39568 0
M  V30 1599 C 152.335 -1.95 0.00253745 0
M  V30 1600 O 151.605 -1.71095 -0.954114 0
M  V30 1601 H 150.185 -0.542326 0.513704 0
M  V30 1602 H 152.847 -0.834553 1.76128 0
M  V30 1603 H 151.943 -2.32922 2.07735 0
M  V30 1604 N 152.244 -1.26651 -0.937939 0
M  V30 1605 C 153.493 -1.11775 -1.67897 0
M  V30 1606 C 153.806 0.33794 -1.92659 0
M  V30 1607 O 155.012 0.607434 -2.64618 0
M  V30 1608 C 153.468 -1.9523 -3.02346 0
M  V30 1609 C 153.076 -3.45393 -2.8532 0
M  V30 1610 C 154.82 -1.88972 -3.80118 0
M  V30 1611 C 152.727 -4.21083 -4.15263 0
M  V30 1612 H 151.657 -0.414696 -0.629717 0
M  V30 1613 H 154.308 -1.50988 -1.04283 0
M  V30 1614 H 152.69 -1.48853 -3.66959 0
M  V30 1615 H 153.864 -3.99561 -2.29537 0
M  V30 1616 H 152.179 -3.52921 -2.20988 0
M  V30 1617 H 154.776 -2.42805 -4.76392 0
M  V30 1618 H 155.119 -0.86113 -4.07296 0
M  V30 1619 H 155.652 -2.33189 -3.22285 0
M  V30 1620 H 152.391 -5.24425 -3.93267 0
M  V30 1621 H 151.911 -3.71695 -4.70747 0
M  V30 1622 H 153.59 -4.29706 -4.83696 0
M  V30 1623 N 153.722 1.14298 -1.08507 0
M  V30 1624 C 154.632 2.23027 -0.727753 0
M  V30 1625 C 155.648 1.71952 0.26619 0
M  V30 1626 O 156.824 2.011 0.109882 0
M  V30 1627 C 153.889 3.46403 -0.143541 0
M  V30 1628 C 152.95 4.12413 -1.19223 0
M  V30 1629 C 152.183 5.29899 -0.635798 0
M  V30 1630 O 152.406 5.67796 0.544393 0
M  V30 1631 O 151.34 5.85717 -1.38634 0
M  V30 1632 H 155.166 2.55945 -1.63481 0
M  V30 1633 H 152.751 1.22248 -0.858817 0
M  V30 1634 H 154.633 4.21018 0.179404 0
M  V30 1635 H 153.308 3.15206 0.736659 0
M  V30 1636 H 152.215 3.39667 -1.56772 0
M  V30 1637 H 153.548 4.47718 -2.04474 0
M  V30 1638 N 155.201 0.870884 1.31352 0
M  V30 1639 C 156.447 0.492314 1.97352 0
M  V30 1640 C 156.802 -0.945174 1.67583 0
M  V30 1641 O 156.095 -1.65674 0.962423 0
M  V30 1642 C 156.289 0.687157 3.50732 0
M  V30 1643 C 156.118 2.14203 3.95407 0
M  V30 1644 C 154.888 2.78382 4.21701 0
M  V30 1645 C 157.086 3.1144 4.09279 0
M  V30 1646 N 155.068 4.14611 4.52737 0
M  V30 1647 C 156.439 4.32702 4.44037 0
M  V30 1648 C 158.494 3.07418 3.91661 0
M  V30 1649 C 157.197 5.50463 4.63015 0
M  V30 1650 C 159.223 4.24438 4.11833 0
M  V30 1651 C 158.585 5.44463 4.46923 0
M  V30 1652 H 154.684 0.229206 0.747655 0
M  V30 1653 H 157.268 1.12568 1.5886 0
M  V30 1654 H 155.439 0.083384 3.8831 0
M  V30 1655 H 157.171 0.276883 4.03752 0
M  V30 1656 H 153.926 2.29326 4.14375 0
M  V30 1657 H 154.35 4.84928 4.72413 0
M  V30 1658 H 158.992 2.15732 3.6362 0
M  V30 1659 H 156.71 6.42666 4.89904 0
M  V30 1660 H 160.296 4.2278 3.99685 0
M  V30 1661 H 159.176 6.33504 4.62214 0
M  V30 1662 N 156.679 -1.44442 0.630414 0
M  V30 1663 C 157.609 -2.33418 -0.0618083 0
M  V30 1664 C 158.59 -1.48165 -0.835541 0
M  V30 1665 O 159.775 -1.76886 -0.801564 0
M  V30 1666 C 156.905 -3.31222 -1.04449 0
M  V30 1667 C 155.859 -4.26288 -0.382436 0
M  V30 1668 C 155.185 -5.13954 -1.47497 0
M  V30 1669 C 156.485 -5.1744 0.710865 0
M  V30 1670 H 158.179 -2.91548 0.681184 0
M  V30 1671 H 155.725 -1.40191 0.329026 0
M  V30 1672 H 157.678 -3.92351 -1.53748 0
M  V30 1673 H 156.402 -2.71299 -1.81836 0
M  V30 1674 H 155.061 -3.6649 0.0899054 0
M  V30 1675 H 154.709 -4.50385 -2.2397 0
M  V30 1676 H 154.409 -5.7837 -1.03737 0
M  V30 1677 H 155.933 -5.77955 -1.96979 0
M  V30 1678 H 157.347 -5.72509 0.300996 0
M  V30 1679 H 155.744 -5.90455 1.07156 0
M  V30 1680 H 156.814 -4.58496 1.57829 0
M  V30 1681 N 158.157 -0.370918 -1.53173 0
M  V30 1682 C 159.105 0.488101 -2.27421 0
M  V30 1683 C 160.099 1.07884 -1.30604 0
M  V30 1684 O 161.305 1.02143 -1.48212 0
M  V30 1685 H 157.68 0.176134 -0.731082 0
M  V30 1686 H 159.651 -0.159815 -2.97972 0
M  V30 1687 C 158.4 1.61306 -3.08019 0
M  V30 1688 H 157.723 1.1678 -3.82364 0
M  V30 1689 H 159.163 2.18872 -3.63141 0
M  V30 1690 C 157.622 2.55848 -2.19188 0
M  V30 1691 O 158.152 3.58799 -1.80626 0
M  V30 1692 N 156.358 2.2516 -1.83715 0
M  V30 1693 H 155.905 1.41476 -2.15273 0
M  V30 1694 H 155.863 2.8867 -1.24567 0
M  V30 1695 N 159.635 1.57281 -0.100228 0
M  V30 1696 C 160.86 1.99302 0.573881 0
M  V30 1697 C 161.285 0.979059 1.60611 0
M  V30 1698 O 160.643 -0.0517803 1.81226 0
M  V30 1699 C 160.691 3.40274 1.19358 0
M  V30 1700 O 159.795 3.41676 2.30935 0
M  V30 1701 H 159.136 0.647944 0.145138 0
M  V30 1702 H 161.666 2.03779 -0.183156 0
M  V30 1703 H 161.676 3.78078 1.53365 0
M  V30 1704 H 160.351 4.13594 0.437385 0
M  V30 1705 H 158.928 3.15672 1.98509 0
M  V30 1706 N 161.113 -0.173488 1.56642 0
M  V30 1707 C 162.529 -0.525174 1.50712 0
M  V30 1708 C 162.729 -1.8476 0.804107 0
M  V30 1709 O 161.785 -2.49869 0.363574 0
M  V30 1710 C 163.098 -0.559937 2.95441 0
M  V30 1711 C 164.646 -0.647288 3.06234 0
M  V30 1712 C 165.121 -0.712963 4.52417 0
M  V30 1713 N 166.612 -0.775911 4.56655 0
M  V30 1714 C 167.347 -0.847264 5.67106 0
M  V30 1715 N 166.843 -0.879585 6.87194 0
M  V30 1716 N 168.636 -0.886117 5.55071 0
M  V30 1717 H 160.787 0.693681 2.00753 0
M  V30 1718 H 163.05 0.249841 0.914485 0
M  V30 1719 H 162.756 0.343049 3.50023 0
M  V30 1720 H 162.63 -1.40718 3.49969 0
M  V30 1721 H 165.017 -1.5407 2.51687 0
M  V30 1722 H 165.098 0.226586 2.54794 0
M  V30 1723 H 164.742 0.176183 5.07594 0
M  V30 1724 H 164.672 -1.60295 5.0161 0
M  V30 1725 H 167.163 -0.759304 3.70193 0
M  V30 1726 H 167.476 -0.935144 7.67121 0
M  V30 1727 H 165.821 -0.847898 6.89808 0
M  V30 1728 H 169.012 -0.857853 4.60172 0
M  V30 1729 H 169.185 -0.938263 6.41171 0
M  V30 1730 N 162.591 -1.51276 -0.441967 0
M  V30 1731 C 163.816 -1.67799 -1.21895 0
M  V30 1732 C 164.241 -0.372864 -1.84367 0
M  V30 1733 O 163.599 0.666501 -1.68604 0
M  V30 1734 C 163.647 -2.79199 -2.28211 0
M  V30 1735 O 162.751 -2.42479 -3.33583 0
M  V30 1736 H 162.092 -0.559649 -0.357336 0
M  V30 1737 H 164.622 -1.97815 -0.522522 0
M  V30 1738 H 164.632 -3.03146 -2.73069 0
M  V30 1739 H 163.307 -3.73906 -1.82118 0
M  V30 1740 H 161.884 -2.29087 -2.94234 0
M  V30 1741 N 164.069 0.697108 -1.41344 0
M  V30 1742 C 165.318 1.45279 -1.39918 0
M  V30 1743 C 165.631 1.95597 -0.0109624 0
M  V30 1744 O 166.837 2.71208 0.125919 0
M  V30 1745 C 165.293 2.62695 -2.46007 0
M  V30 1746 C 164.901 2.19169 -3.90729 0
M  V30 1747 C 166.645 3.40336 -2.53715 0
M  V30 1748 C 164.552 3.33535 -4.88373 0
M  V30 1749 H 163.482 0.545692 -0.520323 0
M  V30 1750 H 166.133 0.756929 -1.67161 0
M  V30 1751 H 164.515 3.34541 -2.11892 0
M  V30 1752 H 165.689 1.54623 -4.34083 0
M  V30 1753 H 164.004 1.54525 -3.86666 0
M  V30 1754 H 166.601 4.2547 -3.2385 0
M  V30 1755 H 166.944 3.85418 -1.5735 0
M  V30 1756 H 167.477 2.75546 -2.86913 0
M  V30 1757 H 164.216 2.93468 -5.86137 0
M  V30 1758 H 163.736 3.96936 -4.49668 0
M  V30 1759 H 165.415 3.99335 -5.09059 0
M  V30 1760 N 165.547 1.27147 0.931209 0
M  V30 1761 C 166.958 1.12044 1.49342 0
M  V30 1762 C 167.309 -0.295795 1.93957 0
M  V30 1763 O 166.434 -1.18835 1.80852 0
M  V30 1764 C 167.029 2.02781 2.71414 0
M  V30 1765 C 165.588 1.91794 3.2387 0
M  V30 1766 C 164.735 1.95543 1.96617 0
M  V30 1767 H 167.686 1.40091 0.745672 0
M  V30 1768 H 167.707 1.58156 3.46074 0
M  V30 1769 H 167.219 3.05848 2.38911 0
M  V30 1770 H 165.32 0.916992 3.6114 0
M  V30 1771 H 165.433 2.77852 3.90302 0
M  V30 1772 H 163.797 1.39722 2.12955 0
M  V30 1773 H 164.58 3.00259 1.66432 0
M  V30 1774 N 167.025 -1.13721 1.09112 0
M  V30 1775 C 168.253 -1.88773 0.846899 0
M  V30 1776 C 168.668 -1.7896 -0.601572 0
M  V30 1777 O 168.025 -1.15394 -1.41388 0
M  V30 1778 C 168.076 -3.3849 1.26913 0
M  V30 1779 O 167.797 -3.48043 2.66079 0
M  V30 1780 C 169.298 -4.30518 1.05682 0
M  V30 1781 H 166.518 -0.59772 0.304914 0
M  V30 1782 H 169.062 -1.43977 1.45227 0
M  V30 1783 H 167.217 -3.80881 0.707723 0
M  V30 1784 H 167.631 -4.4109 2.83795 0
M  V30 1785 H 169.105 -5.3391 1.40156 0
M  V30 1786 H 169.582 -4.392 -0.00563416 0
M  V30 1787 H 170.188 -3.93893 1.60402 0
M  V30 1788 N 168.503 -0.877838 -1.30888 0
M  V30 1789 C 169.733 -0.506678 -2.00291 0
M  V30 1790 C 170.141 0.907449 -1.66018 0
M  V30 1791 O 169.484 1.60719 -0.88967 0
M  V30 1792 C 169.546 -0.59323 -3.54572 0
M  V30 1793 C 169.21 -1.97038 -4.12341 0
M  V30 1794 C 170.207 -2.93889 -4.28865 0
M  V30 1795 C 167.892 -2.27383 -4.47886 0
M  V30 1796 C 169.886 -4.19224 -4.80136 0
M  V30 1797 C 167.573 -3.52965 -4.98857 0
M  V30 1798 C 168.571 -4.48701 -5.14934 0
M  V30 1799 O 168.259 -5.72056 -5.64808 0
M  V30 1800 H 167.991 -0.1951 -0.647234 0
M  V30 1801 H 170.545 -1.18301 -1.6791 0
M  V30 1802 H 168.775 0.140057 -3.86446 0
M  V30 1803 H 170.464 -0.234372 -4.05223 0
M  V30 1804 H 171.23 -2.71756 -4.01714 0
M  V30 1805 H 167.109 -1.53639 -4.34645 0
M  V30 1806 H 170.653 -4.93956 -4.92599 0
M  V30 1807 H 166.55 -3.74939 -5.25443 0
M  V30 1808 H 167.318 -5.74337 -5.83163 0
M  V30 1809 N 169.982 1.44106 -0.638065 0
M  V30 1810 C 170.945 2.29138 0.0531013 0
M  V30 1811 C 171.945 1.41409 0.765506 0
M  V30 1812 O 173.135 1.63206 0.609046 0
M  V30 1813 C 170.267 3.23144 1.08584 0
M  V30 1814 H 171.46 2.91739 -0.694883 0
M  V30 1815 H 169.013 1.51134 -0.398538 0
M  V30 1816 H 169.748 2.65408 1.86357 0
M  V30 1817 H 169.533 3.87804 0.578852 0
M  V30 1818 H 171.023 3.87004 1.56899 0
M  V30 1819 N 171.46 0.379036 1.52974 0
M  V30 1820 C 172.685 -0.209353 2.06341 0
M  V30 1821 C 173.11 -1.40583 1.24972 0
M  V30 1822 O 172.468 -1.79246 0.272155 0
M  V30 1823 C 172.516 -0.567786 3.56102 0
M  V30 1824 O 171.62 -1.66318 3.77375 0
M  V30 1825 H 170.961 -0.0272919 0.663439 0
M  V30 1826 H 173.491 0.543536 1.97248 0
M  V30 1827 H 173.501 -0.835003 3.99364 0
M  V30 1828 H 172.176 0.307013 4.14765 0
M  V30 1829 H 170.753 -1.39048 3.46006 0
M  V30 1830 N 172.938 -1.57226 0.108567 0
M  V30 1831 C 173.848 -2.18292 -0.859401 0
M  V30 1832 C 174.864 -1.15612 -1.30038 0
M  V30 1833 O 176.04 -1.48039 -1.36552 0
M  V30 1834 C 173.105 -2.762 -2.09558 0
M  V30 1835 C 172.166 -3.93881 -1.70752 0
M  V30 1836 C 171.399 -4.49018 -2.88477 0
M  V30 1837 O 171.622 -4.03068 -4.036 0
M  V30 1838 O 170.556 -5.39852 -2.66164 0
M  V30 1839 H 174.382 -3.01441 -0.369769 0
M  V30 1840 H 171.967 -1.48945 -0.1165 0
M  V30 1841 H 173.849 -3.13156 -2.81978 0
M  V30 1842 H 172.524 -1.96089 -2.57548 0
M  V30 1843 H 171.431 -3.61713 -0.954714 0
M  V30 1844 H 172.764 -4.75396 -1.27513 0
M  V30 1845 N 174.416 0.165178 -1.56732 0
M  V30 1846 C 175.346 1.20651 -1.99914 0
M  V30 1847 C 176.327 1.45827 -0.875705 0
M  V30 1848 O 177.512 1.57057 -1.14223 0
M  V30 1849 C 174.642 2.54401 -2.36427 0
M  V30 1850 C 173.596 2.43782 -3.51787 0
M  V30 1851 C 172.922 3.82078 -3.7406 0
M  V30 1852 C 174.222 1.93732 -4.85041 0
M  V30 1853 H 175.916 0.847534 -2.87154 0
M  V30 1854 H 173.462 0.40625 -1.38151 0
M  V30 1855 H 175.415 3.27458 -2.65234 0
M  V30 1856 H 174.139 2.92098 -1.46103 0
M  V30 1857 H 172.798 1.73178 -3.23117 0
M  V30 1858 H 172.446 4.17179 -2.81017 0
M  V30 1859 H 172.146 3.7584 -4.51684 0
M  V30 1860 H 173.67 4.56712 -4.05274 0
M  V30 1861 H 175.084 2.56569 -5.12684 0
M  V30 1862 H 173.481 1.98428 -5.66345 0
M  V30 1863 H 174.551 0.891962 -4.76626 0
M  V30 1864 N 175.894 1.51508 0.433938 0
M  V30 1865 C 177.122 1.68157 1.20543 0
M  V30 1866 C 177.537 0.380362 1.84929 0
M  V30 1867 O 176.894 -0.641446 1.70856 0
M  V30 1868 C 176.945 2.79965 2.28696 0
M  V30 1869 O 176.666 4.05045 1.66943 0
M  V30 1870 C 178.167 3.07912 3.18912 0
M  V30 1871 H 175.387 0.56421 0.363191 0
M  V30 1872 H 177.931 1.97941 0.513754 0
M  V30 1873 H 176.086 2.5277 2.93574 0
M  V30 1874 H 176.5 4.67165 2.38448 0
M  V30 1875 H 177.974 3.89719 3.90926 0
M  V30 1876 H 178.451 2.20456 3.79863 0
M  V30 1877 H 179.057 3.36779 2.59731 0
M  V30 1878 N 177.372 -0.689602 1.41712 0
M  V30 1879 C 178.32 -1.82475 1.44242 0
M  V30 1880 C 179.314 -1.66354 0.319774 0
M  V30 1881 O 180.52 -1.73143 0.492089 0
M  V30 1882 H 176.895 -0.601416 0.451445 0
M  V30 1883 H 178.866 -1.77458 2.39899 0
M  V30 1884 C 177.615 -3.20535 1.3473 0
M  V30 1885 H 176.938 -3.33559 2.20405 0
M  V30 1886 H 178.378 -4.00023 1.40562 0
M  V30 1887 C 176.837 -3.36846 0.0603281 0
M  V30 1888 O 177.367 -3.91656 -0.892663 0
M  V30 1889 N 175.573 -2.90595 -0.0177039 0
M  V30 1890 H 175.12 -2.46178 0.758572 0
M  V30 1891 H 175.078 -3.01886 -0.878201 0
M  V30 1892 N 178.85 -1.27639 -0.924453 0
M  V30 1893 C 179.76 -1.12466 -2.05885 0
M  V30 1894 C 180.776 -0.053869 -1.73917 0
M  V30 1895 O 181.952 -0.261012 -1.99702 0
M  V30 1896 C 179.017 -0.776768 -3.37886 0
M  V30 1897 C 178.078 -1.92878 -3.83532 0
M  V30 1898 C 177.311 -1.59739 -5.09234 0
M  V30 1899 O 177.534 -0.506782 -5.68144 0
M  V30 1900 O 176.468 -2.43761 -5.50331 0
M  V30 1901 H 180.294 -2.07671 -2.21599 0
M  V30 1902 H 177.879 -1.06857 -1.04413 0
M  V30 1903 H 179.761 -0.596229 -4.17161 0
M  V30 1904 H 178.436 0.145732 -3.23372 0
M  V30 1905 H 177.343 -2.1644 -3.0513 0
M  V30 1906 H 178.676 -2.8316 -4.02593 0
M  V30 1907 N 180.328 1.1314 -1.09713 0
M  V30 1908 C 181.258 2.20748 -0.761102 0
M  V30 1909 C 182.239 1.68061 0.262566 0
M  V30 1910 O 183.424 1.93765 0.129977 0
M  V30 1911 C 180.554 3.46812 -0.184054 0
M  V30 1912 C 179.508 4.12606 -1.13757 0
M  V30 1913 C 178.834 5.33031 -0.422083 0
M  V30 1914 C 180.134 4.59603 -2.48118 0
M  V30 1915 H 181.828 2.49113 -1.66082 0
M  V30 1916 H 179.374 1.19734 -0.799987 0
M  V30 1917 H 181.327 4.21353 0.0631215 0
M  V30 1918 H 180.051 3.17851 0.750868 0
M  V30 1919 H 178.71 3.40036 -1.37007 0
M  V30 1920 H 178.358 5.00335 0.517072 0
M  V30 1921 H 178.058 5.77999 -1.05788 0
M  V30 1922 H 179.582 6.10325 -0.183277 0
M  V30 1923 H 180.996 5.25552 -2.29059 0
M  V30 1924 H 179.393 5.15321 -3.07514 0
M  V30 1925 H 180.463 3.73971 -3.08665 0
M  V30 1926 N 181.806 0.884767 1.30421 0
M  V30 1927 C 182.736 0.367574 2.30589 0
M  V30 1928 C 183.717 -0.549464 1.60981 0
M  V30 1929 O 184.902 -0.46336 1.88591 0
M  V30 1930 C 182.032 -0.418944 3.44764 0
M  V30 1931 C 180.986 0.406316 4.26067 0
M  V30 1932 C 180.312 -0.506793 5.32293 0
M  V30 1933 C 181.612 1.64832 4.95608 0
M  V30 1934 H 183.306 1.20462 2.74097 0
M  V30 1935 H 180.852 0.580695 1.31772 0
M  V30 1936 H 182.805 -0.791395 4.13902 0
M  V30 1937 H 181.529 -1.28964 3.0006 0
M  V30 1938 H 180.188 0.760903 3.58617 0
M  V30 1939 H 179.836 -1.37519 4.83836 0
M  V30 1940 H 179.536 0.0415828 5.87585 0
M  V30 1941 H 181.06 -0.875764 6.04287 0
M  V30 1942 H 182.474 1.34646 5.57264 0
M  V30 1943 H 180.871 2.13688 5.60765 0
M  V30 1944 H 181.941 2.39284 4.21748 0
M  V30 1945 N 183.284 -1.43765 0.645699 0
M  V30 1946 C 184.231 -2.30745 -0.0504648 0
M  V30 1947 C 185.201 -1.4432 -0.822241 0
M  V30 1948 O 186.386 -1.73202 -0.800358 0
M  V30 1949 C 183.526 -3.29802 -1.0161 0
M  V30 1950 C 182.639 -4.31326 -0.241219 0
M  V30 1951 C 181.774 -5.17469 -1.19998 0
M  V30 1952 C 180.813 -6.10691 -0.415094 0
M  V30 1953 N 179.95 -6.89483 -1.32506 0
M  V30 1954 H 184.79 -2.8973 0.697155 0
M  V30 1955 H 182.327 -1.42738 0.355563 0
M  V30 1956 H 184.285 -3.85734 -1.58949 0
M  V30 1957 H 182.915 -2.72483 -1.73069 0
M  V30 1958 H 181.967 -3.77749 0.448334 0
M  V30 1959 H 183.279 -4.9743 0.369437 0
M  V30 1960 H 182.433 -5.7799 -1.84424 0
M  V30 1961 H 181.172 -4.51473 -1.84455 0
M  V30 1962 H 180.177 -5.49265 0.242565 0
M  V30 1963 H 181.402 -6.78727 0.224966 0
M  V30 1964 H 179.348 -6.26142 -1.95657 0
M  V30 1965 H 179.265 -7.52081 -0.768783 0
M  V30 1966 H 180.533 -7.54516 -1.9577 0
M  V30 1967 N 184.763 -0.387143 -1.52771 0
M  V30 1968 C 185.71 0.449048 -2.26389 0
M  V30 1969 C 186.68 1.05961 -1.27912 0
M  V30 1970 O 187.865 1.08804 -1.56737 0
M  V30 1971 C 185.005 1.57155 -3.0724 0
M  V30 1972 C 184.118 0.984066 -4.20643 0
M  V30 1973 C 183.253 2.07745 -4.88892 0
M  V30 1974 C 182.292 1.46574 -5.94292 0
M  V30 1975 N 181.429 2.49834 -6.56146 0
M  V30 1976 H 186.269 -0.185205 -2.97424 0
M  V30 1977 H 183.806 -0.103164 -1.46738 0
M  V30 1978 H 185.764 2.23309 -3.52405 0
M  V30 1979 H 184.394 2.17615 -2.38419 0
M  V30 1980 H 183.446 0.212193 -3.79808 0
M  V30 1981 H 184.758 0.497029 -4.96318 0
M  V30 1982 H 183.912 2.81673 -5.3735 0
M  V30 1983 H 182.651 2.59807 -4.12737 0
M  V30 1984 H 181.656 0.711696 -5.45174 0
M  V30 1985 H 182.881 0.953088 -6.72379 0
M  V30 1986 H 180.827 3.0107 -5.82832 0
M  V30 1987 H 180.744 2.05879 -7.27427 0
M  V30 1988 H 182.012 3.23399 -7.09249 0
M  V30 1989 N 186.241 1.57166 -0.116904 0
M  V30 1990 C 187.518 1.86645 0.585049 0
M  V30 1991 C 187.898 1.0177 1.84949 0
M  V30 1992 O 187.246 0.0960379 2.28298 0
M  V30 1993 C 187.456 3.37736 0.879507 0
M  V30 1994 C 188.804 4.06289 1.23348 0
M  V30 1995 O 189.828 3.42743 0.969836 0
M  V30 1996 O 188.687 5.18455 1.7282 0
M  V30 1997 H 185.781 0.772593 0.295007 0
M  V30 1998 H 188.327 1.69025 -0.151249 0
M  V30 1999 H 187.099 3.91296 -0.0166136 0
M  V30 2000 H 186.722 3.6078 1.67103 0
M  V30 2001 N 187.719 -0.156864 1.56817 0
M  V30 2002 C 188.967 -0.869404 1.82444 0
M  V30 2003 C 189.288 -1.82147 0.69623 0
M  V30 2004 O 188.558 -1.93847 -0.28287 0
M  V30 2005 H 187.138 -0.324043 0.673056 0
M  V30 2006 H 189.8 -0.153224 1.94297 0
M  V30 2007 H 188.896 -1.43761 2.77019 0
M  V30 2008 N 189.197 -1.51736 -0.425897 0
M  V30 2009 C 190.144 -1.73875 -1.51776 0
M  V30 2010 C 191.114 -0.580702 -1.55618 0
M  V30 2011 O 192.299 -0.81641 -1.72451 0
M  V30 2012 C 189.439 -1.88012 -2.89388 0
M  V30 2013 C 188.552 -3.15606 -2.94986 0
M  V30 2014 C 187.687 -3.20271 -4.23793 0
M  V30 2015 C 186.726 -4.42134 -4.23302 0
M  V30 2016 N 185.863 -4.44284 -5.43651 0
M  V30 2017 H 190.703 -2.67071 -1.32201 0
M  V30 2018 H 188.24 -1.32351 -0.642008 0
M  V30 2019 H 190.198 -1.9419 -3.69251 0
M  V30 2020 H 188.828 -0.98213 -3.07496 0
M  V30 2021 H 187.88 -3.18681 -2.07717 0
M  V30 2022 H 189.192 -4.05486 -2.90486 0
M  V30 2023 H 188.346 -3.25428 -5.12036 0
M  V30 2024 H 187.085 -2.28299 -4.30965 0
M  V30 2025 H 186.09 -4.3714 -3.3345 0
M  V30 2026 H 187.315 -5.35382 -4.17783 0
M  V30 2027 H 185.261 -3.55188 -5.51523 0
M  V30 2028 H 185.178 -5.27988 -5.41078 0
M  V30 2029 H 186.446 -4.53649 -6.33895 0
M  V30 2030 N 190.675 0.682077 -1.42076 0
M  V30 2031 C 191.921 1.44428 -1.42367 0
M  V30 2032 C 192.254 1.94164 -0.0373056 0
M  V30 2033 O 191.529 1.70429 0.937239 0
M  V30 2034 C 191.812 2.64654 -2.44194 0
M  V30 2035 C 191.665 2.20596 -3.91991 0
M  V30 2036 C 192.984 3.66865 -2.431 0
M  V30 2037 H 190.103 0.523834 -0.518428 0
M  V30 2038 H 192.745 0.77576 -1.73442 0
M  V30 2039 H 190.895 3.2169 -2.17826 0
M  V30 2040 H 192.567 1.68783 -4.29313 0
M  V30 2041 H 190.81 1.52242 -4.06208 0
M  V30 2042 H 191.481 3.06921 -4.58807 0
M  V30 2043 H 193.957 3.19531 -2.66532 0
M  V30 2044 H 192.833 4.48577 -3.16339 0
M  V30 2045 H 193.094 4.17493 -1.45437 0
M  V30 2046 N 192.153 1.28127 0.917671 0
M  V30 2047 C 193.085 1.07517 2.02417 0
M  V30 2048 C 194.098 0.0281099 1.62776 0
M  V30 2049 O 195.287 0.270748 1.76435 0
M  V30 2050 C 192.387 0.610957 3.33347 0
M  V30 2051 C 191.56 1.73255 4.01624 0
M  V30 2052 C 190.619 1.26238 5.10833 0
M  V30 2053 O 189.645 1.96389 5.34247 0
M  V30 2054 N 190.847 0.123448 5.80369 0
M  V30 2055 H 193.612 2.02806 2.20658 0
M  V30 2056 H 191.173 1.19827 1.08871 0
M  V30 2057 H 193.165 0.280101 4.0373 0
M  V30 2058 H 191.735 -0.24898 3.11607 0
M  V30 2059 H 190.955 2.23319 3.24842 0
M  V30 2060 H 192.243 2.48503 4.43986 0
M  V30 2061 H 191.641 -0.461847 5.63812 0
M  V30 2062 H 190.198 -0.148158 6.51632 0
M  V30 2063 N 193.631 -1.12557 1.10312 0
M  V30 2064 C 194.594 -2.16434 0.75424 0
M  V30 2065 C 195.594 -1.59278 -0.220685 0
M  V30 2066 O 196.784 -1.742 0.00230591 0
M  V30 2067 C 193.916 -3.40699 0.116987 0
M  V30 2068 H 195.109 -2.48811 1.67431 0
M  V30 2069 H 192.662 -1.27542 0.903475 0
M  V30 2070 H 193.397 -3.13921 -0.813877 0
M  V30 2071 H 193.182 -3.83459 0.818613 0
M  V30 2072 H 194.672 -4.17451 -0.111387 0
M  V30 2073 N 195.109 -0.891671 -1.2995 0
M  V30 2074 C 196.337 -0.52866 -2.00032 0
M  V30 2075 C 196.752 0.884574 -1.66795 0
M  V30 2076 O 196.109 1.5827 -0.908669 0
M  V30 2077 C 196.16 -0.701814 -3.54622 0
M  V30 2078 O 195.881 -2.05942 -3.86678 0
M  V30 2079 C 197.382 -0.342683 -4.41973 0
M  V30 2080 H 194.602 -0.203659 -0.639347 0
M  V30 2081 H 197.146 -1.19881 -1.65677 0
M  V30 2082 H 195.301 -0.0789468 -3.8732 0
M  V30 2083 H 195.715 -2.08291 -4.81368 0
M  V30 2084 H 197.189 -0.514709 -5.49595 0
M  V30 2085 H 197.666 0.71975 -4.33262 0
M  V30 2086 H 198.272 -0.942154 -4.14733 0
M  V30 2087 N 196.587 1.43421 -0.653314 0
M  V30 2088 C 197.535 2.32546 0.0501531 0
M  V30 2089 C 198.529 1.48617 0.812985 0
M  V30 2090 O 199.735 1.64825 0.723375 0
M  V30 2091 H 196.11 0.751185 0.0350032 0
M  V30 2092 H 198.081 2.89602 -0.719261 0
M  V30 2093 C 196.83 3.32925 1.00279 0
M  V30 2094 H 196.153 3.97532 0.425236 0
M  V30 2095 H 197.593 3.9792 1.46409 0
M  V30 2096 C 196.052 2.63532 2.09886 0
M  V30 2097 O 196.582 2.45092 3.18265 0
M  V30 2098 N 194.788 2.22905 1.86445 0
M  V30 2099 H 194.335 2.38103 0.98309 0
M  V30 2100 H 194.293 1.76805 2.59976 0
M  V30 2101 N 198.065 0.39524 1.52563 0
M  V30 2102 C 199.29 -0.187456 2.06551 0
M  V30 2103 C 199.715 -1.39249 1.26457 0
M  V30 2104 O 199.073 -1.78947 0.291151 0
M  V30 2105 C 199.121 -0.529985 3.56684 0
M  V30 2106 O 198.225 -1.62307 3.79118 0
M  V30 2107 H 197.566 -0.0202537 0.663691 0
M  V30 2108 H 200.096 0.564426 1.96661 0
M  V30 2109 H 200.106 -0.792598 4.00227 0
M  V30 2110 H 198.781 0.350987 4.14416 0
M  V30 2111 H 197.358 -1.3537 3.47461 0
M  V30 2112 N 199.544 -1.57102 0.125237 0
M  V30 2113 C 200.791 -1.95407 -0.531248 0
M  V30 2114 C 201.119 -1.0089 -1.66287 0
M  V30 2115 O 200.374 -0.0339431 -1.95671 0
M  V30 2116 C 200.673 -3.40096 -1.09862 0
M  V30 2117 C 200.339 -4.50815 -0.0876989 0
M  V30 2118 C 199.001 -4.80824 0.19026 0
M  V30 2119 C 201.353 -5.17724 0.600902 0
M  V30 2120 C 198.681 -5.75058 1.163 0
M  V30 2121 C 201.033 -6.13005 1.56231 0
M  V30 2122 C 199.697 -6.41403 1.8482 0
M  V30 2123 H 198.967 -0.715046 -0.194397 0
M  V30 2124 H 201.614 -1.90373 0.207463 0
M  V30 2125 H 199.919 -3.41855 -1.91422 0
M  V30 2126 H 201.616 -3.6705 -1.61478 0
M  V30 2127 H 198.206 -4.27444 -0.314528 0
M  V30 2128 H 202.39 -4.94691 0.399333 0
M  V30 2129 H 197.646 -5.95362 1.39117 0
M  V30 2130 H 201.82 -6.63934 2.10153 0
M  V30 2131 H 199.447 -7.14229 2.60349 0
M  V30 2132 N 201.022 0.148545 -1.56898 0
M  V30 2133 C 202.247 0.880385 -1.87787 0
M  V30 2134 C 202.672 1.74018 -0.714093 0
M  V30 2135 O 202.03 1.78153 0.336343 0
M  V30 2136 C 202.078 1.71422 -3.17249 0
M  V30 2137 O 201.182 2.8183 -3.01074 0
M  V30 2138 H 200.523 0.245301 -0.617028 0
M  V30 2139 H 203.053 0.139826 -2.04122 0
M  V30 2140 H 203.063 2.10954 -3.49231 0
M  V30 2141 H 201.738 1.08284 -4.01556 0
M  V30 2142 H 200.315 2.45715 -2.80497 0
M  V30 2143 N 202.5 1.5196 0.417844 0
M  V30 2144 C 203.748 1.65263 1.16329 0
M  V30 2145 C 204.069 0.380634 1.91249 0
M  V30 2146 O 203.339 -0.604214 1.86349 0
M  V30 2147 H 201.919 0.60912 0.432414 0
M  V30 2148 H 204.581 1.88969 0.477162 0
M  V30 2149 H 203.677 2.4896 1.88217 0
M  V30 2150 N 203.978 -0.674533 1.42435 0
M  V30 2151 C 205.224 -1.43671 1.43131 0
M  V30 2152 C 205.557 -1.94142 0.0476021 0
M  V30 2153 O 204.832 -1.70924 -0.928188 0
M  V30 2154 C 205.115 -2.63355 2.45594 0
M  V30 2155 C 204.968 -2.18514 3.93156 0
M  V30 2156 C 206.287 -3.65571 2.45043 0
M  V30 2157 H 203.406 -0.521077 0.521198 0
M  V30 2158 H 206.048 -0.766551 1.7385 0
M  V30 2159 H 204.198 -3.2053 2.19528 0
M  V30 2160 H 205.87 -1.66504 4.30202 0
M  V30 2161 H 204.113 -1.50086 4.07009 0
M  V30 2162 H 204.784 -3.04484 4.60428 0
M  V30 2163 H 207.26 -3.18113 2.68223 0
M  V30 2164 H 206.136 -4.46893 3.18713 0
M  V30 2165 H 206.397 -4.16716 1.47649 0
M  V30 2166 N 205.456 -1.28612 -0.910864 0
M  V30 2167 C 206.404 -1.1265 -2.03501 0
M  V30 2168 C 207.398 -0.0450054 -1.6934 0
M  V30 2169 O 208.604 -0.203988 -1.7884 0
M  V30 2170 H 204.979 -0.347639 -0.666822 0
M  V30 2171 H 206.95 -2.07849 -2.14106 0
M  V30 2172 C 205.699 -0.808143 -3.38178 0
M  V30 2173 H 205.022 -1.63231 -3.6496 0
M  V30 2174 H 206.462 -0.736426 -4.17556 0
M  V30 2175 C 204.921 0.488226 -3.33344 0
M  V30 2176 O 205.451 1.51766 -3.71927 0
M  V30 2177 N 203.657 0.490009 -2.86439 0
M  V30 2178 H 203.204 -0.348161 -2.55236 0
M  V30 2179 H 203.162 1.35741 -2.83587 0
M  V30 2180 N 206.934 1.1197 -1.10907 0
M  V30 2181 C 208.164 1.8713 -0.875553 0
M  V30 2182 C 208.572 1.8016 0.577843 0
M  V30 2183 O 207.915 1.17699 1.41042 0
M  V30 2184 C 207.977 3.37005 -1.2517 0
M  V30 2185 C 207.641 3.67748 -2.71313 0
M  V30 2186 C 208.638 3.65698 -3.69542 0
M  V30 2187 C 206.323 3.96928 -3.07821 0
M  V30 2188 C 208.317 3.92395 -5.023 0
M  V30 2189 C 206.004 4.23284 -4.40765 0
M  V30 2190 C 207.002 4.21005 -5.37814 0
M  V30 2191 O 206.69 4.46704 -6.68364 0
M  V30 2192 H 206.422 0.598786 -0.313737 0
M  V30 2193 H 208.976 1.42568 -1.47863 0
M  V30 2194 H 207.206 3.82146 -0.591741 0
M  V30 2195 H 208.895 3.93519 -0.994877 0
M  V30 2196 H 209.661 3.43211 -3.42682 0
M  V30 2197 H 205.54 3.97841 -2.32902 0
M  V30 2198 H 209.084 3.90531 -5.78041 0
M  V30 2199 H 204.981 4.45246 -4.67361 0
M  V30 2200 H 205.749 4.64299 -6.74069 0
M  V30 2201 N 208.412 0.89855 1.29475 0
M  V30 2202 C 209.658 0.534065 1.96263 0
M  V30 2203 C 210.013 -0.909415 1.69551 0
M  V30 2204 O 209.306 -1.63596 0.997349 0
M  V30 2205 C 209.5 0.761398 3.49195 0
M  V30 2206 C 209.329 2.22542 3.90775 0
M  V30 2207 C 208.099 2.87264 4.15701 0
M  V30 2208 C 210.297 3.20051 4.02581 0
M  V30 2209 N 208.279 4.24121 4.4384 0
M  V30 2210 C 209.65 4.42023 4.34759 0
M  V30 2211 C 211.705 3.15657 3.85052 0
M  V30 2212 C 210.408 5.60161 4.51235 0
M  V30 2213 C 212.434 4.33078 4.02737 0
M  V30 2214 C 211.796 5.5382 4.35273 0
M  V30 2215 H 207.895 0.245013 0.742625 0
M  V30 2216 H 210.479 1.15912 1.56437 0
M  V30 2217 H 208.65 0.165732 3.88046 0
M  V30 2218 H 210.382 0.362462 4.03074 0
M  V30 2219 H 207.137 2.38064 4.09417 0
M  V30 2220 H 207.561 4.94839 4.6202 0
M  V30 2221 H 212.203 2.23396 3.58962 0
M  V30 2222 H 209.921 6.52913 4.76162 0
M  V30 2223 H 213.507 4.31163 3.90628 0
M  V30 2224 H 212.387 6.43166 4.48672 0
M  V30 2225 N 209.89 -1.43072 0.660911 0
M  V30 2226 C 210.82 -2.33497 -0.0122829 0
M  V30 2227 C 211.801 -1.49903 -0.803925 0
M  V30 2228 O 212.986 -1.78546 -0.763864 0
M  V30 2229 C 210.116 -3.33363 -0.973994 0
M  V30 2230 C 209.07 -4.27003 -0.291928 0
M  V30 2231 C 208.396 -5.16967 -1.36562 0
M  V30 2232 C 209.696 -5.15816 0.820462 0
M  V30 2233 H 211.39 -2.90038 0.742873 0
M  V30 2234 H 208.936 -1.39461 0.358688 0
M  V30 2235 H 210.889 -3.95524 -1.45392 0
M  V30 2236 H 209.613 -2.75095 -1.7604 0
M  V30 2237 H 208.272 -3.66217 0.167623 0
M  V30 2238 H 207.92 -4.55034 -2.14366 0
M  V30 2239 H 207.62 -5.80441 -0.914454 0
M  V30 2240 H 209.144 -5.82003 -1.84675 0
M  V30 2241 H 210.558 -5.71742 0.422366 0
M  V30 2242 H 208.955 -5.8805 1.19656 0
M  V30 2243 H 210.025 -4.55045 1.67518 0
M  V30 2244 N 211.368 -0.403325 -1.52352 0
M  V30 2245 C 212.614 0.174605 -2.02047 0
M  V30 2246 C 212.947 1.45282 -1.28867 0
M  V30 2247 O 212.222 1.90483 -0.393257 0
M  V30 2248 C 212.505 0.428238 -3.57545 0
M  V30 2249 C 212.358 -0.866248 -4.4138 0
M  V30 2250 C 213.677 1.21287 -4.23057 0
M  V30 2251 H 210.796 0.0619851 -0.734389 0
M  V30 2252 H 213.438 -0.53565 -1.82293 0
M  V30 2253 H 211.588 1.03327 -3.74507 0
M  V30 2254 H 213.26 -1.50265 -4.3614 0
M  V30 2255 H 211.503 -1.47851 -4.07827 0
M  V30 2256 H 212.174 -0.643249 -5.48239 0
M  V30 2257 H 214.65 0.700703 -4.10158 0
M  V30 2258 H 213.526 1.35909 -5.31808 0
M  V30 2259 H 213.787 2.23193 -3.81625 0
M  V30 2260 N 212.846 1.57033 -0.133567 0
M  V30 2261 C 213.793 2.16074 0.811208 0
M  V30 2262 C 214.763 1.08979 1.2535 0
M  V30 2263 O 215.948 1.36958 1.32843 0
M  V30 2264 C 213.088 2.77595 2.05024 0
M  V30 2265 C 212.201 3.99042 1.65498 0
M  V30 2266 C 211.336 4.48603 2.84479 0
M  V30 2267 C 210.375 5.62547 2.41262 0
M  V30 2268 N 209.512 6.06787 3.53206 0
M  V30 2269 H 214.352 2.96477 0.300906 0
M  V30 2270 H 211.889 1.46462 0.136822 0
M  V30 2271 H 213.847 3.11402 2.77642 0
M  V30 2272 H 212.477 1.99859 2.53488 0
M  V30 2273 H 211.529 3.71302 0.826981 0
M  V30 2274 H 212.841 4.81629 1.29748 0
M  V30 2275 H 211.995 4.84395 3.65303 0
M  V30 2276 H 210.734 3.64995 3.23465 0
M  V30 2277 H 209.739 5.26345 1.58874 0
M  V30 2278 H 210.964 6.47931 2.03377 0
M  V30 2279 H 208.91 5.26117 3.91838 0
M  V30 2280 H 208.827 6.84266 3.21427 0
M  V30 2281 H 210.095 6.4722 4.34427 0
M  V30 2282 N 214.325 -0.140222 1.56975 0
M  V30 2283 C 215.273 -1.19207 1.99731 0
M  V30 2284 C 216.267 -1.44089 0.890777 0
M  V30 2285 O 217.473 -1.44301 1.07597 0
M  V30 2286 H 213.848 -0.40142 0.635898 0
M  V30 2287 H 215.819 -0.804813 2.87342 0
M  V30 2288 C 214.568 -2.51617 2.39967 0
M  V30 2289 H 213.891 -2.33303 3.24669 0
M  V30 2290 H 215.331 -3.23827 2.73701 0
M  V30 2291 C 213.79 -3.12654 1.25496 0
M  V30 2292 O 214.32 -3.97786 0.559371 0
M  V30 2293 N 212.526 -2.72206 1.01746 0
M  V30 2294 H 212.073 -2.03074 1.58489 0
M  V30 2295 H 212.031 -3.13377 0.253461 0
M  V30 2296 N 215.803 -1.52179 -0.40978 0
M  V30 2297 C 216.75 -1.75475 -1.49924 0
M  V30 2298 C 217.72 -0.597175 -1.54994 0
M  V30 2299 O 218.905 -0.834655 -1.71575 0
M  V30 2300 C 216.045 -1.9107 -2.87378 0
M  V30 2301 C 215.158 -3.18717 -2.91622 0
M  V30 2302 C 214.293 -3.24747 -4.20372 0
M  V30 2303 C 213.332 -4.46598 -4.18588 0
M  V30 2304 N 212.469 -4.50025 -5.38908 0
M  V30 2305 H 217.309 -2.68458 -1.29361 0
M  V30 2306 H 214.846 -1.33024 -0.627934 0
M  V30 2307 H 216.804 -1.98096 -3.6717 0
M  V30 2308 H 215.434 -1.01469 -3.06437 0
M  V30 2309 H 214.486 -3.20866 -2.04326 0
M  V30 2310 H 215.798 -4.08544 -2.86169 0
M  V30 2311 H 214.952 -3.30841 -5.08556 0
M  V30 2312 H 213.691 -2.32857 -4.28519 0
M  V30 2313 H 212.696 -4.40652 -3.28794 0
M  V30 2314 H 213.921 -5.39783 -4.12081 0
M  V30 2315 H 211.867 -3.61017 -5.47725 0
M  V30 2316 H 211.784 -5.33697 -5.35447 0
M  V30 2317 H 213.052 -4.60347 -6.29048 0
M  V30 2318 N 217.281 0.66697 -1.42791 0
M  V30 2319 C 218.53 1.42278 -1.42968 0
M  V30 2320 C 218.843 1.9553 -0.0524489 0
M  V30 2321 O 220.049 2.71414 0.068363 0
M  V30 2322 C 218.505 2.57418 -2.51524 0
M  V30 2323 C 218.113 2.10832 -3.9529 0
M  V30 2324 C 219.857 3.34878 -2.60877 0
M  V30 2325 C 217.764 3.23101 -4.95338 0
M  V30 2326 H 216.694 0.534533 -0.531781 0
M  V30 2327 H 219.345 0.721302 -1.68729 0
M  V30 2328 H 217.727 3.29971 -2.18941 0
M  V30 2329 H 218.901 1.4538 -4.37266 0
M  V30 2330 H 217.216 1.46289 -3.89857 0
M  V30 2331 H 219.813 4.18505 -3.32802 0
M  V30 2332 H 220.156 3.81993 -1.6549 0
M  V30 2333 H 220.689 2.69398 -2.92693 0
M  V30 2334 H 217.428 2.80969 -5.9223 0
M  V30 2335 H 216.948 3.87309 -4.57987 0
M  V30 2336 H 218.627 3.88447 -5.17415 0
M  V30 2337 N 218.759 1.29093 0.90403 0
M  V30 2338 C 219.669 1.15727 2.0407 0
M  V30 2339 C 220.685 0.0815308 1.73809 0
M  V30 2340 O 221.861 0.292749 1.99261 0
M  V30 2341 C 218.926 0.830424 3.36608 0
M  V30 2342 C 217.987 1.98955 3.80415 0
M  V30 2343 C 217.22 1.6782 5.06628 0
M  V30 2344 O 217.443 0.597105 5.67266 0
M  V30 2345 O 216.377 2.52486 5.46383 0
M  V30 2346 H 220.203 2.11171 2.18267 0
M  V30 2347 H 217.788 1.08504 1.027 0
M  V30 2348 H 219.67 0.662521 4.16159 0
M  V30 2349 H 218.345 -0.0942678 3.23563 0
M  V30 2350 H 217.252 2.21267 3.01648 0
M  V30 2351 H 218.585 2.89529 3.98037 0
M  V30 2352 N 220.237 -1.11381 1.11499 0
M  V30 2353 C 221.483 -1.83403 0.865512 0
M  V30 2354 C 221.816 -1.84459 -0.607329 0
M  V30 2355 O 221.091 -1.29811 -1.44842 0
M  V30 2356 C 221.374 -3.30552 1.42855 0
M  V30 2357 C 221.227 -3.37886 2.96906 0
M  V30 2358 C 222.546 -4.26643 1.08 0
M  V30 2359 H 219.665 -0.665879 0.31587 0
M  V30 2360 H 222.307 -1.30601 1.37998 0
M  V30 2361 H 220.457 -3.75648 0.990985 0
M  V30 2362 H 222.129 -3.01343 3.49271 0
M  V30 2363 H 220.372 -2.78088 3.32941 0
M  V30 2364 H 221.043 -4.41458 3.31389 0
M  V30 2365 H 223.519 -3.89729 1.45775 0
M  V30 2366 H 222.395 -5.27986 1.50072 0
M  V30 2367 H 222.656 -4.42099 -0.00915037 0
M  V30 2368 N 221.715 -0.905404 -1.28997 0
M  V30 2369 C 222.962 -0.534248 -1.95325 0
M  V30 2370 C 223.29 0.920535 -1.71337 0
M  V30 2371 O 222.545 1.66861 -1.02254 0
M  V30 2372 C 222.844 -0.779906 -3.48787 0
M  V30 2373 C 222.51 -2.21293 -3.92861 0
M  V30 2374 C 221.172 -2.60475 -4.04606 0
M  V30 2375 C 223.524 -3.14587 -4.15553 0
M  V30 2376 C 220.852 -3.9212 -4.36416 0
M  V30 2377 C 223.204 -4.45787 -4.48839 0
M  V30 2378 C 221.868 -4.84834 -4.58794 0
M  V30 2379 H 221.138 -0.195495 -0.714747 0
M  V30 2380 H 223.785 -1.14514 -1.53488 0
M  V30 2381 H 222.09 -0.0861365 -3.91705 0
M  V30 2382 H 223.787 -0.472029 -3.98212 0
M  V30 2383 H 220.377 -1.89887 -3.84241 0
M  V30 2384 H 224.561 -2.85528 -4.0594 0
M  V30 2385 H 219.817 -4.22086 -4.42327 0
M  V30 2386 H 223.991 -5.18098 -4.65346 0
M  V30 2387 H 221.618 -5.86877 -4.83197 0
M  V30 2388 N 223.193 1.4272 -0.668489 0
M  V30 2389 C 224.423 2.05668 -0.196063 0
M  V30 2390 C 224.831 1.5028 1.14946 0
M  V30 2391 O 224.174 0.6348 1.72383 0
M  V30 2392 C 224.236 3.59469 -0.0468879 0
M  V30 2393 C 223.9 4.37518 -1.32012 0
M  V30 2394 C 224.897 4.68584 -2.25222 0
M  V30 2395 C 222.582 4.77266 -1.56596 0
M  V30 2396 C 224.576 5.38326 -3.41297 0
M  V30 2397 C 222.263 5.4675 -2.72962 0
M  V30 2398 C 223.261 5.77204 -3.65137 0
M  V30 2399 O 222.949 6.45264 -4.79468 0
M  V30 2400 H 222.681 0.669382 -0.0943599 0
M  V30 2401 H 225.235 1.83954 -0.913788 0
M  V30 2402 H 223.465 3.79817 0.726357 0
M  V30 2403 H 225.154 4.04071 0.384852 0
M  V30 2404 H 225.92 4.38382 -2.07477 0
M  V30 2405 H 221.799 4.52959 -0.857249 0
M  V30 2406 H 225.343 5.62014 -4.13263 0
M  V30 2407 H 221.24 5.76369 -2.90635 0
M  V30 2408 H 222.008 6.63753 -4.78931 0
M  V30 2409 N 224.671 0.411399 1.52136 0
M  V30 2410 C 226.082 -0.0576826 1.86611 0
M  V30 2411 C 226.433 -1.44238 1.33003 0
M  V30 2412 O 225.558 -2.05759 0.670228 0
M  V30 2413 C 226.153 -0.111448 3.38617 0
M  V30 2414 C 224.712 -0.52487 3.72723 0
M  V30 2415 C 223.859 0.299176 2.75681 0
M  V30 2416 H 226.81 0.628368 1.4573 0
M  V30 2417 H 226.831 -0.926252 3.69054 0
M  V30 2418 H 226.343 0.896488 3.77604 0
M  V30 2419 H 224.444 -1.53936 3.39315 0
M  V30 2420 H 224.557 -0.267681 4.78352 0
M  V30 2421 H 222.921 -0.238814 2.53578 0
M  V30 2422 H 223.704 1.3055 3.17508 0
M  V30 2423 N 226.149 -1.5696 0.141893 0
M  V30 2424 C 227.397 -1.95573 -0.509484 0
M  V30 2425 C 227.718 -1.02746 -1.65736 0
M  V30 2426 O 226.988 -0.0880311 -1.95702 0
M  V30 2427 H 225.568 -0.722115 -0.191205 0
M  V30 2428 H 228.23 -1.93697 0.216196 0
M  V30 2429 H 227.326 -2.99171 -0.889 0
M  V30 2430 N 227.627 0.131896 -1.57047 0
M  V30 2431 C 229.038 0.690407 -1.73465 0
M  V30 2432 C 229.389 1.8094 -0.758629 0
M  V30 2433 O 228.514 2.16282 0.0713813 0
M  V30 2434 C 229.109 1.25916 -3.14532 0
M  V30 2435 C 227.668 1.76409 -3.32501 0
M  V30 2436 C 226.815 0.658579 -2.69366 0
M  V30 2437 H 229.766 -0.0939144 -1.58422 0
M  V30 2438 H 229.787 2.12892 -3.15369 0
M  V30 2439 H 229.299 0.444515 -3.85546 0
M  V30 2440 H 227.4 2.60391 -2.66509 0
M  V30 2441 H 227.513 1.88241 -4.4057 0
M  V30 2442 H 225.877 1.08899 -2.30246 0
M  V30 2443 H 226.66 -0.14487 -3.42994 0
M  V30 2444 N 229.106 1.52395 0.401703 0
M  V30 2445 C 230.354 1.66488 1.14569 0
M  V30 2446 C 230.675 0.400897 1.90835 0
M  V30 2447 O 229.945 -0.584415 1.8698 0
M  V30 2448 H 228.525 0.613672 0.425929 0
M  V30 2449 H 231.187 1.89464 0.457093 0
M  V30 2450 H 230.283 2.50942 1.85566 0
M  V30 2451 N 230.584 -0.659388 1.43143 0
M  V30 2452 C 231.534 -1.7655 1.44271 0
M  V30 2453 C 232.518 -1.57847 0.311961 0
M  V30 2454 O 233.71 -1.68064 0.555306 0
M  V30 2455 C 230.839 -3.15104 1.36251 0
M  V30 2456 C 229.925 -3.39377 2.54331 0
M  V30 2457 N 230.316 -3.34153 3.79704 0
M  V30 2458 C 228.614 -3.70072 2.48922 0
M  V30 2459 C 229.315 -3.58337 4.58225 0
M  V30 2460 N 228.291 -3.79851 3.88863 0
M  V30 2461 H 232.093 -1.70928 2.39083 0
M  V30 2462 H 229.607 -0.860823 1.37708 0
M  V30 2463 H 231.604 -3.94389 1.35141 0
M  V30 2464 H 230.264 -3.21913 0.424531 0
M  V30 2465 H 231.275 -3.13704 4.1208 0
M  V30 2466 H 227.952 -3.84034 1.63781 0
M  V30 2467 H 229.342 -3.60129 5.67236 0
M  V30 2468 N 232.062 -1.29571 -0.897171 0
M  V30 2469 C 233.29 -1.20583 -1.68129 0
M  V30 2470 C 233.705 0.233181 -1.87354 0
M  V30 2471 O 233.062 1.15579 -1.41236 0
M  V30 2472 C 233.113 -1.91772 -3.06441 0
M  V30 2473 O 232.834 -3.30053 -2.88091 0
M  V30 2474 C 234.335 -1.89291 -4.00854 0
M  V30 2475 H 231.555 -0.417826 -0.525036 0
M  V30 2476 H 234.099 -1.70987 -1.12177 0
M  V30 2477 H 232.254 -1.45196 -3.59161 0
M  V30 2478 H 232.668 -3.65942 -3.75748 0
M  V30 2479 H 234.142 -2.43662 -4.95311 0
M  V30 2480 H 234.619 -0.869014 -4.30517 0
M  V30 2481 H 235.225 -2.35622 -3.54066 0
M  V30 2482 N 233.54 1.10788 -1.12088 0
M  V30 2483 C 234.951 1.64181 -0.88891 0
M  V30 2484 C 235.302 1.87508 0.577498 0
M  V30 2485 O 234.427 1.61434 1.44112 0
M  V30 2486 C 235.022 2.98257 -1.60712 0
M  V30 2487 C 233.581 3.4853 -1.42139 0
M  V30 2488 C 232.728 2.23208 -1.6454 0
M  V30 2489 H 235.679 0.943368 -1.27618 0
M  V30 2490 H 235.7 3.65552 -1.05604 0
M  V30 2491 H 235.212 2.81246 -2.67436 0
M  V30 2492 H 233.313 3.70692 -0.376552 0
M  V30 2493 H 233.426 4.26882 -2.17505 0
M  V30 2494 H 231.79 2.31169 -1.06925 0
M  V30 2495 H 232.573 2.08733 -2.72554 0
M  V30 2496 N 235.018 0.912232 1.28515 0
M  V30 2497 C 236.295 0.463597 1.90027 0
M  V30 2498 C 236.675 -1.05753 1.82701 0
M  V30 2499 O 236.023 -1.90492 1.26194 0
M  V30 2500 C 236.233 0.992253 3.34597 0
M  V30 2501 C 237.581 1.04344 4.11579 0
M  V30 2502 O 238.605 0.94079 3.43551 0
M  V30 2503 O 237.464 1.1995 5.33174 0
M  V30 2504 H 234.558 0.146666 0.813891 0
M  V30 2505 H 237.104 1.00292 1.36893 0
M  V30 2506 H 235.876 2.03623 3.34146 0
M  V30 2507 H 235.499 0.433672 3.95228 0
M  V30 2508 N 236.496 -1.42363 0.676048 0
M  V30 2509 C 237.444 -2.32596 -0.0131507 0
M  V30 2510 C 238.438 -1.49891 -0.789238 0
M  V30 2511 O 239.644 -1.65955 -0.697061 0
M  V30 2512 H 236.019 -0.751647 -0.0230481 0
M  V30 2513 H 237.99 -2.88421 0.765243 0
M  V30 2514 C 236.739 -3.34479 -0.949702 0
M  V30 2515 H 236.062 -3.98158 -0.361938 0
M  V30 2516 H 237.502 -4.00199 -1.4006 0
M  V30 2517 C 235.961 -2.66838 -2.05667 0
M  V30 2518 O 236.491 -2.50124 -3.14326 0
M  V30 2519 N 234.697 -2.25843 -1.82875 0
M  V30 2520 H 234.244 -2.39637 -0.945085 0
M  V30 2521 H 234.202 -1.80918 -2.5713 0
M  V30 2522 N 237.974 -0.419461 -1.51915 0
M  V30 2523 C 239.22 0.153166 -2.02221 0
M  V30 2524 C 239.553 1.43907 -1.30401 0
M  V30 2525 O 238.828 1.90055 -0.413438 0
M  V30 2526 C 239.111 0.390291 -3.57979 0
M  V30 2527 C 238.964 -0.913014 -4.40436 0
M  V30 2528 C 240.283 1.16794 -4.2432 0
M  V30 2529 H 237.402 0.0541924 -0.735005 0
M  V30 2530 H 240.044 -0.554955 -1.81715 0
M  V30 2531 H 238.194 0.993491 -3.75582 0
M  V30 2532 H 239.866 -1.54882 -4.34522 0
M  V30 2533 H 238.109 -1.52168 -4.06236 0
M  V30 2534 H 238.78 -0.701361 -5.47526 0
M  V30 2535 H 241.256 0.657161 -4.10878 0
M  V30 2536 H 240.132 1.3026 -5.3322 0
M  V30 2537 H 240.393 2.19132 -3.83971 0
M  V30 2538 N 239.452 1.56882 -0.150215 0
M  V30 2539 C 240.698 1.96518 0.500834 0
M  V30 2540 C 241.031 1.03527 1.64304 0
M  V30 2541 O 240.306 0.0782751 1.94342 0
M  V30 2542 C 240.589 3.45822 1.00395 0
M  V30 2543 C 240.442 4.49591 -0.136983 0
M  V30 2544 C 241.761 3.97704 1.88467 0
M  V30 2545 H 238.88 0.714535 0.18058 0
M  V30 2546 H 241.522 1.88577 -0.232091 0
M  V30 2547 H 239.672 3.5272 1.62851 0
M  V30 2548 H 241.344 4.5477 -0.77343 0
M  V30 2549 H 239.587 4.26441 -0.795652 0
M  V30 2550 H 240.258 5.51402 0.256815 0
M  V30 2551 H 242.734 3.93304 1.35834 0
M  V30 2552 H 241.61 5.0263 2.20578 0
M  V30 2553 H 241.871 3.40252 2.82279 0
M  V30 2554 N 240.93 -0.123565 1.57115 0
M  V30 2555 C 242.176 -0.833386 1.84885 0
M  V30 2556 C 242.509 -1.79742 0.735292 0
M  V30 2557 O 241.784 -1.92764 -0.25925 0
M  V30 2558 C 242.067 -1.5873 3.23228 0
M  V30 2559 C 241.92 -0.643183 4.45178 0
M  V30 2560 C 243.239 -2.54453 3.59085 0
M  V30 2561 H 240.358 -0.301518 0.6725 0
M  V30 2562 H 243 -0.097778 1.89748 0
M  V30 2563 H 241.15 -2.21438 3.19214 0
M  V30 2564 H 242.822 -0.0253015 4.61293 0
M  V30 2565 H 241.065 0.0456139 4.33776 0
M  V30 2566 H 241.736 -1.20724 5.38637 0
M  V30 2567 H 244.212 -2.01853 3.63861 0
M  V30 2568 H 243.088 -3.04238 4.5687 0
M  V30 2569 H 243.349 -3.36906 2.86264 0
M  V30 2570 N 242.408 -1.52605 -0.393616 0
M  V30 2571 C 243.654 -1.68624 -1.13743 0
M  V30 2572 C 244.009 -0.418687 -1.87789 0
M  V30 2573 O 243.302 0.58747 -1.82371 0
M  V30 2574 C 243.496 -2.85721 -2.14705 0
M  V30 2575 C 243.325 -4.23742 -1.50575 0
M  V30 2576 C 242.095 -4.89033 -1.2718 0
M  V30 2577 C 244.293 -5.05293 -0.958311 0
M  V30 2578 N 242.275 -6.11048 -0.591058 0
M  V30 2579 C 243.646 -6.18673 -0.405367 0
M  V30 2580 C 245.701 -4.90517 -0.854274 0
M  V30 2581 C 244.404 -7.18895 0.241434 0
M  V30 2582 C 246.43 -5.90986 -0.221301 0
M  V30 2583 C 245.792 -7.03669 0.320894 0
M  V30 2584 H 241.891 -0.670556 -0.402342 0
M  V30 2585 H 244.475 -1.89946 -0.427607 0
M  V30 2586 H 242.646 -2.65987 -2.83029 0
M  V30 2587 H 244.378 -2.90699 -2.8156 0
M  V30 2588 H 241.133 -4.47672 -1.54554 0
M  V30 2589 H 241.557 -6.76474 -0.266862 0
M  V30 2590 H 246.199 -4.03612 -1.25926 0
M  V30 2591 H 243.917 -8.05413 0.658448 0
M  V30 2592 H 247.503 -5.81626 -0.142111 0
M  V30 2593 H 246.383 -7.80078 0.802956 0
M  V30 2594 N 243.887 0.651787 -1.4349 0
M  V30 2595 C 244.817 1.77621 -1.51569 0
M  V30 2596 C 245.798 1.66022 -0.370253 0
M  V30 2597 O 246.983 1.85095 -0.587658 0
M  V30 2598 C 244.113 3.16056 -1.43966 0
M  V30 2599 C 243.067 3.4242 -2.56774 0
M  V30 2600 C 242.393 4.8067 -2.34223 0
M  V30 2601 C 243.693 3.37023 -3.99015 0
M  V30 2602 H 245.387 1.71117 -2.45681 0
M  V30 2603 H 242.933 0.821825 -1.18246 0
M  V30 2604 H 244.886 3.94472 -1.48221 0
M  V30 2605 H 243.61 3.23293 -0.463586 0
M  V30 2606 H 242.269 2.66375 -2.51873 0
M  V30 2607 H 241.917 4.84585 -1.34856 0
M  V30 2608 H 241.617 4.9927 -3.09844 0
M  V30 2609 H 243.141 5.61342 -2.40265 0
M  V30 2610 H 244.555 4.05374 -4.05395 0
M  V30 2611 H 242.952 3.67159 -4.74673 0
M  V30 2612 H 244.022 2.3518 -4.2405 0
M  V30 2613 N 245.365 1.30045 0.890287 0
M  V30 2614 C 246.776 1.16738 1.45702 0
M  V30 2615 C 247.127 -0.233939 1.948 0
M  V30 2616 O 246.252 -1.13021 1.84541 0
M  V30 2617 C 246.847 2.11313 2.64825 0
M  V30 2618 C 245.406 2.02001 3.17604 0
M  V30 2619 C 244.553 2.01699 1.90296 0
M  V30 2620 H 247.504 1.42392 0.700726 0
M  V30 2621 H 247.525 1.69086 3.40867 0
M  V30 2622 H 247.037 3.13294 2.2906 0
M  V30 2623 H 245.138 1.03142 3.5804 0
M  V30 2624 H 245.251 2.90128 3.81264 0
M  V30 2625 H 243.615 1.46427 2.08402 0
M  V30 2626 H 244.398 3.05402 1.56795 0
M  V30 2627 N 246.843 -1.10192 1.12674 0
M  V30 2628 C 247.753 -2.20172 0.810026 0
M  V30 2629 C 248.769 -1.72821 -0.202188 0
M  V30 2630 O 249.945 -2.01369 -0.0351691 0
M  V30 2631 C 247.01 -3.45631 0.272007 0
M  V30 2632 C 246.071 -4.07704 1.34447 0
M  V30 2633 C 245.304 -5.27175 0.832029 0
M  V30 2634 O 245.527 -5.69425 -0.333284 0
M  V30 2635 O 244.461 -5.80168 1.60277 0
M  V30 2636 H 248.287 -2.49701 1.72867 0
M  V30 2637 H 245.872 -1.18977 0.903597 0
M  V30 2638 H 247.754 -4.21394 -0.0230219 0
M  V30 2639 H 246.429 -3.17723 -0.619164 0
M  V30 2640 H 245.336 -3.33614 1.6927 0
M  V30 2641 H 246.669 -4.3982 2.2095 0
M  V30 2642 N 248.321 -0.919034 -1.28029 0
M  V30 2643 C 249.737 -0.617972 -1.4715 0
M  V30 2644 C 249.937 0.835242 -1.83374 0
M  V30 2645 O 248.993 1.61388 -1.94191 0
M  V30 2646 C 250.306 -1.56041 -2.57044 0
M  V30 2647 C 251.854 -1.56769 -2.7091 0
M  V30 2648 C 252.329 -2.49688 -3.83953 0
M  V30 2649 N 253.82 -2.47845 -3.91314 0
M  V30 2650 C 254.555 -3.16437 -4.78179 0
M  V30 2651 N 254.051 -3.94376 -5.69596 0
M  V30 2652 N 255.844 -3.05498 -4.71834 0
M  V30 2653 H 247.995 -1.85866 -1.02798 0
M  V30 2654 H 250.258 -0.797506 -0.512531 0
M  V30 2655 H 249.964 -2.59671 -2.372 0
M  V30 2656 H 249.838 -1.29551 -3.54255 0
M  V30 2657 H 252.225 -0.538745 -2.90141 0
M  V30 2658 H 252.306 -1.87305 -1.74214 0
M  V30 2659 H 251.95 -3.52688 -3.65477 0
M  V30 2660 H 251.88 -2.16453 -4.80058 0
M  V30 2661 H 254.371 -1.91234 -3.25941 0
M  V30 2662 H 254.684 -4.43721 -6.32718 0
M  V30 2663 H 253.029 -3.98481 -5.69419 0
M  V30 2664 H 256.22 -2.44108 -3.99411 0
M  V30 2665 H 256.393 -3.59225 -5.39316 0
M  V30 2666 N 249.799 1.42003 -0.683588 0
M  V30 2667 C 250.746 2.30798 -0.0107309 0
M  V30 2668 C 251.716 1.4645 0.783688 0
M  V30 2669 O 252.901 1.75263 0.754156 0
M  V30 2670 C 250.041 3.3238 0.928306 0
M  V30 2671 C 249.154 4.31814 0.126776 0
M  V30 2672 C 248.289 5.20468 1.06236 0
M  V30 2673 C 247.328 6.11577 0.253035 0
M  V30 2674 N 246.465 6.92754 1.14179 0
M  V30 2675 H 251.305 2.8778 -0.773727 0
M  V30 2676 H 248.842 1.41745 -0.393283 0
M  V30 2677 H 250.8 3.89813 1.48666 0
M  V30 2678 H 249.43 2.76976 1.65783 0
M  V30 2679 H 248.482 3.76427 -0.54833 0
M  V30 2680 H 249.794 4.96276 -0.501192 0
M  V30 2681 H 248.948 5.82677 1.69035 0
M  V30 2682 H 247.687 4.56204 1.7242 0
M  V30 2683 H 246.692 5.48428 -0.388108 0
M  V30 2684 H 247.917 6.77892 -0.404839 0
M  V30 2685 H 245.863 6.3111 1.78987 0
M  V30 2686 H 245.78 7.53855 0.569111 0
M  V30 2687 H 247.048 7.59441 1.75697 0
M  V30 2688 N 251.277 0.427512 1.51691 0
M  V30 2689 C 252.526 -0.143679 2.01188 0
M  V30 2690 C 252.839 -1.44642 1.31674 0
M  V30 2691 O 254.045 -2.09997 1.72086 0
M  V30 2692 C 252.501 -0.306602 3.58592 0
M  V30 2693 C 252.109 0.985125 4.37035 0
M  V30 2694 C 253.853 -0.832091 4.16265 0
M  V30 2695 C 251.76 0.788382 5.86122 0
M  V30 2696 H 250.69 -0.0574701 0.751807 0
M  V30 2697 H 253.341 0.555772 1.74881 0
M  V30 2698 H 251.723 -1.06882 3.81303 0
M  V30 2699 H 252.897 1.75492 4.26074 0
M  V30 2700 H 251.212 1.4384 3.90767 0
M  V30 2701 H 253.809 -0.995617 5.25349 0
M  V30 2702 H 254.152 -1.81186 3.74803 0
M  V30 2703 H 254.685 -0.128444 3.97593 0
M  V30 2704 H 251.424 1.74025 6.31978 0
M  V30 2705 H 250.944 0.0582143 5.99772 0
M  V30 2706 H 252.623 0.437722 6.45518 0
M  V30 2707 N 252.755 -1.56801 0.158532 0
M  V30 2708 C 253.685 -2.20347 -0.772609 0
M  V30 2709 C 254.666 -1.15518 -1.24859 0
M  V30 2710 O 255.851 -1.43902 -1.30406 0
M  V30 2711 C 252.981 -2.83417 -2.00729 0
M  V30 2712 C 251.935 -3.94174 -1.66765 0
M  V30 2713 C 251.261 -4.44233 -2.97592 0
M  V30 2714 C 252.561 -5.14392 -0.905447 0
M  V30 2715 H 254.255 -2.98413 -0.242959 0
M  V30 2716 H 251.801 -1.43537 -0.115419 0
M  V30 2717 H 253.754 -3.26543 -2.6636 0
M  V30 2718 H 252.478 -2.02701 -2.56086 0
M  V30 2719 H 251.137 -3.51684 -1.03508 0
M  V30 2720 H 250.785 -3.60325 -3.50963 0
M  V30 2721 H 250.485 -5.18945 -2.75626 0
M  V30 2722 H 252.009 -4.90037 -3.64274 0
M  V30 2723 H 253.423 -5.5429 -1.46408 0
M  V30 2724 H 251.82 -5.9494 -0.7853 0
M  V30 2725 H 252.89 -4.84795 0.100668 0
M  V30 2726 N 254.233 0.115231 -1.57178 0
M  V30 2727 C 255.48 0.822351 -1.8505 0
M  V30 2728 C 255.808 1.79701 -0.744168 0
M  V30 2729 O 255.063 1.93909 0.26414 0
M  V30 2730 C 255.362 1.60324 -3.19423 0
M  V30 2731 C 255.028 0.772536 -4.44233 0
M  V30 2732 C 253.69 0.543468 -4.78121 0
M  V30 2733 C 256.042 0.193746 -5.2084 0
M  V30 2734 C 253.37 -0.274583 -5.86057 0
M  V30 2735 C 255.722 -0.611517 -6.29637 0
M  V30 2736 C 254.386 -0.850867 -6.62055 0
M  V30 2737 H 253.656 0.30092 -0.677147 0
M  V30 2738 H 256.303 0.0845802 -1.91313 0
M  V30 2739 H 254.608 2.41203 -3.08753 0
M  V30 2740 H 256.305 2.1544 -3.38211 0
M  V30 2741 H 252.895 0.96117 -4.17683 0
M  V30 2742 H 257.079 0.357926 -4.95008 0
M  V30 2743 H 252.335 -0.469206 -6.09597 0
M  V30 2744 H 256.509 -1.06697 -6.88178 0
M  V30 2745 H 254.136 -1.48657 -7.45523 0
M  V30 2746 N 255.711 1.52812 0.385517 0
M  V30 2747 C 256.959 1.67694 1.12797 0
M  V30 2748 C 257.28 0.421115 1.90399 0
M  V30 2749 O 256.55 -0.564551 1.87589 0
M  V30 2750 H 255.13 0.618155 0.419396 0
M  V30 2751 H 257.792 1.89938 0.436972 0
M  V30 2752 H 256.888 2.52896 1.82894 0
M  V30 2753 N 257.189 -0.644168 1.43834 0
M  V30 2754 C 258.437 -1.40117 1.45642 0
M  V30 2755 C 258.758 -1.94814 0.0852413 0
M  V30 2756 O 258.028 -1.74988 -0.880688 0
M  V30 2757 H 256.608 -0.52005 0.536243 0
M  V30 2758 H 259.27 -0.7591 1.7951 0
M  V30 2759 H 258.366 -2.23902 2.17427 0
M  V30 2760 N 258.668 -1.30515 -0.883378 0
M  V30 2761 C 259.908 -1.20716 -1.64946 0
M  V30 2762 C 260.272 0.234072 -1.90568 0
M  V30 2763 O 261.473 0.455335 -2.64915 0
M  V30 2764 C 259.744 -2.01444 -2.9522 0
M  V30 2765 S 261.303 -2.0836 -3.86175 0
M  V30 2766 H 258.121 -0.430165 -0.566109 0
M  V30 2767 H 260.723 -1.65011 -1.04841 0
M  V30 2768 H 259.427 -3.05268 -2.74298 0
M  V30 2769 H 258.958 -1.57817 -3.60357 0
M  V30 2770 H 260.973 -1.21215 -4.81167 0
M  V30 2771 N 260.146 1.09593 -1.13257 0
M  V30 2772 C 261.393 1.81734 -0.893257 0
M  V30 2773 C 261.721 1.8563 0.580656 0
M  V30 2774 O 260.976 1.31906 1.44566 0
M  V30 2775 C 261.275 3.27802 -1.42411 0
M  V30 2776 C 260.941 3.44041 -2.91456 0
M  V30 2777 C 259.603 3.48181 -3.3215 0
M  V30 2778 C 261.955 3.48719 -3.87356 0
M  V30 2779 C 259.283 3.54575 -4.67433 0
M  V30 2780 C 261.635 3.56648 -5.2248 0
M  V30 2781 C 260.299 3.59055 -5.62704 0
M  V30 2782 H 259.569 0.665011 -0.326866 0
M  V30 2783 H 262.216 1.2912 -1.41422 0
M  V30 2784 H 260.521 3.83042 -0.823795 0
M  V30 2785 H 262.218 3.82149 -1.21503 0
M  V30 2786 H 258.808 3.41502 -2.58987 0
M  V30 2787 H 262.992 3.44763 -3.57004 0
M  V30 2788 H 258.248 3.54725 -4.97976 0
M  V30 2789 H 262.422 3.59212 -5.96607 0
M  V30 2790 H 260.049 3.63763 -6.67518 0
M  V30 2791 N 261.624 0.925811 1.2754 0
M  V30 2792 C 262.873 0.561084 1.93739 0
M  V30 2793 C 263.186 -0.901685 1.73577 0
M  V30 2794 O 264.392 -1.37511 2.34101 0
M  V30 2795 C 262.848 0.952668 3.47062 0
M  V30 2796 C 262.456 2.43599 3.75983 0
M  V30 2797 C 264.2 0.659103 4.19352 0
M  V30 2798 C 262.107 2.76707 5.22673 0
M  V30 2799 H 261.037 0.206122 0.725279 0
M  V30 2800 H 263.688 1.12637 1.44863 0
M  V30 2801 H 262.07 0.316053 3.94737 0
M  V30 2802 H 263.244 3.12035 3.39073 0
M  V30 2803 H 261.559 2.70125 3.16893 0
M  V30 2804 H 264.156 0.882985 5.27359 0
M  V30 2805 H 264.499 -0.403607 4.14339 0
M  V30 2806 H 265.032 1.25473 3.77494 0
M  V30 2807 H 261.771 3.8188 5.32774 0
M  V30 2808 H 261.291 2.12919 5.60737 0
M  V30 2809 H 262.97 2.6435 5.90532 0
M  V30 2810 N 263.102 -1.41638 0.69111 0
M  V30 2811 C 264.049 -2.30789 0.0229705 0
M  V30 2812 C 265.019 -1.46863 -0.775911 0
M  V30 2813 O 266.204 -1.75661 -0.74485 0
M  V30 2814 C 263.344 -3.32868 -0.910666 0
M  V30 2815 C 262.457 -4.31875 -0.103874 0
M  V30 2816 C 261.592 -5.21024 -1.03475 0
M  V30 2817 C 260.631 -6.11702 -0.220598 0
M  V30 2818 N 259.768 -6.93349 -1.10504 0
M  V30 2819 H 264.608 -2.87366 0.788978 0
M  V30 2820 H 262.145 -1.41535 0.400794 0
M  V30 2821 H 264.103 -3.90596 -1.46597 0
M  V30 2822 H 262.733 -2.77851 -1.64312 0
M  V30 2823 H 261.785 -3.76131 0.568285 0
M  V30 2824 H 263.097 -4.96003 0.527504 0
M  V30 2825 H 262.251 -5.83565 -1.65943 0
M  V30 2826 H 260.99 -4.57112 -1.69999 0
M  V30 2827 H 259.995 -5.48215 0.417187 0
M  V30 2828 H 261.22 -6.77668 0.440784 0
M  V30 2829 H 259.166 -6.3205 -1.75638 0
M  V30 2830 H 259.083 -7.54146 -0.529125 0
M  V30 2831 H 260.351 -7.60362 -1.71667 0
M  V30 2832 N 264.58 -0.43555 -1.51462 0
M  V30 2833 C 265.991 0.0279871 -1.86679 0
M  V30 2834 C 266.342 1.42104 -1.35281 0
M  V30 2835 O 265.467 2.04667 -0.702878 0
M  V30 2836 C 266.062 0.0575626 -3.38751 0
M  V30 2837 C 264.621 0.465507 -3.7351 0
M  V30 2838 C 263.768 -0.342996 -2.75171 0
M  V30 2839 H 266.719 -0.651473 -1.44712 0
M  V30 2840 H 266.74 0.867421 -3.70481 0
M  V30 2841 H 266.252 -0.956448 -3.7613 0
M  V30 2842 H 264.353 1.48519 -3.41721 0
M  V30 2843 H 264.466 0.191546 -4.78717 0
M  V30 2844 H 262.83 0.198442 -2.53926 0
M  V30 2845 H 263.613 -1.35585 -3.15391 0
M  V30 2846 N 266.058 1.56714 -0.166846 0
M  V30 2847 C 267.288 2.00828 0.48494 0
M  V30 2848 C 267.696 1.04612 1.57648 0
M  V30 2849 O 267.039 0.0383201 1.8366 0
M  V30 2850 C 267.101 3.4137 1.12723 0
M  V30 2851 C 266.765 4.56654 0.177886 0
M  V30 2852 C 267.762 5.16402 -0.60207 0
M  V30 2853 C 265.447 5.02244 0.0750139 0
M  V30 2854 C 267.441 6.20167 -1.47215 0
M  V30 2855 C 265.128 6.05859 -0.798649 0
M  V30 2856 C 266.126 6.64691 -1.57082 0
M  V30 2857 O 265.814 7.66297 -2.42989 0
M  V30 2858 H 265.546 0.663587 0.128953 0
M  V30 2859 H 268.1 2.03692 -0.264365 0
M  V30 2860 H 266.33 3.35406 1.92457 0
M  V30 2861 H 268.019 3.69466 1.68076 0
M  V30 2862 H 268.785 4.82065 -0.53274 0
M  V30 2863 H 264.664 4.56167 0.665812 0
M  V30 2864 H 268.208 6.66016 -2.07531 0
M  V30 2865 H 264.105 6.39621 -0.869199 0
M  V30 2866 H 264.873 7.83601 -2.36455 0
M  V30 2867 N 267.536 -0.106894 1.57237 0
M  V30 2868 C 268.784 -0.810921 1.85117 0
M  V30 2869 C 269.105 -1.7984 0.753827 0
M  V30 2870 O 268.375 -1.94649 -0.221056 0
M  V30 2871 H 266.955 -0.302466 0.683025 0
M  V30 2872 H 269.617 -0.0913324 1.94686 0
M  V30 2873 H 268.713 -1.34875 2.81452 0
M  V30 2874 N 269.014 -1.53014 -0.377408 0
M  V30 2875 C 269.944 -1.81589 -1.46791 0
M  V30 2876 C 270.925 -0.668622 -1.56408 0
M  V30 2877 O 272.11 -0.917337 -1.71168 0
M  V30 2878 C 269.24 -1.99519 -2.8427 0
M  V30 2879 C 268.194 -3.15249 -2.89486 0
M  V30 2880 C 267.52 -3.18451 -4.29527 0
M  V30 2881 C 268.82 -4.54084 -2.58079 0
M  V30 2882 H 270.514 -2.7291 -1.23127 0
M  V30 2883 H 268.06 -1.31319 -0.590883 0
M  V30 2884 H 270.013 -2.18092 -3.60575 0
M  V30 2885 H 268.737 -1.04897 -3.09296 0
M  V30 2886 H 267.396 -2.96477 -2.15631 0
M  V30 2887 H 267.044 -2.2149 -4.5161 0
M  V30 2888 H 266.744 -3.962 -4.33934 0
M  V30 2889 H 268.268 -3.39193 -5.07721 0
M  V30 2890 H 269.682 -4.72899 -3.24098 0
M  V30 2891 H 268.079 -5.33987 -2.7382 0
M  V30 2892 H 269.149 -4.60006 -1.53372 0
M  V30 2893 N 270.492 0.636531 -1.44174 0
M  V30 2894 C 271.74 1.39343 -1.46383 0
M  V30 2895 C 272.061 1.94766 -0.0955715 0
M  V30 2896 O 271.331 1.75452 0.871395 0
M  V30 2897 H 269.911 0.517199 -0.538994 0
M  V30 2898 H 272.573 0.74957 -1.7991 0
M  V30 2899 H 271.669 2.22746 -2.18611 0
M  V30 2900 N 271.97 1.30982 0.876444 0
M  V30 2901 C 272.918 1.18006 2.00443 0
M  V30 2902 C 273.912 0.0898871 1.69161 0
M  V30 2903 O 275.118 0.251333 1.78237 0
M  V30 2904 H 271.493 0.365196 0.65737 0
M  V30 2905 H 273.464 2.13453 2.0852 0
M  V30 2906 C 272.213 0.897521 3.35916 0
M  V30 2907 H 271.536 1.7285 3.60504 0
M  V30 2908 H 272.976 0.846874 4.15456 0
M  V30 2909 C 271.435 -0.399674 3.34521 0
M  V30 2910 O 271.965 -1.41852 3.7582 0
M  V30 2911 N 270.171 -0.413893 2.87637 0
M  V30 2912 H 269.718 0.41571 2.54224 0
M  V30 2913 H 269.676 -1.28175 2.87086 0
M  V30 2914 N 273.449 -1.08991 1.13837 0
M  V30 2915 C 274.379 -2.17771 0.842507 0
M  V30 2916 C 275.36 -1.6892 -0.20001 0
M  V30 2917 O 276.545 -1.94113 -0.0579731 0
M  V30 2918 C 273.675 -3.4589 0.312644 0
M  V30 2919 C 272.629 -4.08099 1.28992 0
M  V30 2920 C 271.955 -5.31098 0.619623 0
M  V30 2921 C 273.255 -4.50077 2.65005 0
M  V30 2922 H 274.949 -2.42777 1.75213 0
M  V30 2923 H 272.495 -1.16682 0.843875 0
M  V30 2924 H 274.448 -4.21297 0.0933043 0
M  V30 2925 H 273.172 -3.20419 -0.632382 0
M  V30 2926 H 271.831 -3.34717 1.49533 0
M  V30 2927 H 271.479 -5.0191 -0.33102 0
M  V30 2928 H 271.179 -5.73674 1.27167 0
M  V30 2929 H 272.703 -6.09224 0.409669 0
M  V30 2930 H 274.117 -5.16688 2.48407 0
M  V30 2931 H 272.514 -5.03553 3.26427 0
M  V30 2932 H 273.584 -3.62257 3.22332 0
M  V30 2933 N 274.927 -0.932562 -1.27047 0
M  V30 2934 C 276.175 -0.574422 -1.93765 0
M  V30 2935 C 276.496 0.887993 -1.73608 0
M  V30 2936 O 275.766 1.62999 -1.08665 0
M  V30 2937 H 274.346 -0.209451 -0.717035 0
M  V30 2938 H 277.008 -1.18601 -1.5466 0
M  V30 2939 H 276.104 -0.784841 -3.02071 0
M  V30 2940 N 276.405 1.4127 -0.698611 0
M  V30 2941 C 277.682 1.94955 -0.158762 0
M  V30 2942 C 278.062 1.63781 1.33188 0
M  V30 2943 O 277.41 0.946423 2.07979 0
M  V30 2944 C 277.62 3.46044 -0.453309 0
M  V30 2945 C 278.968 4.22872 -0.382707 0
M  V30 2946 O 279.992 3.54076 -0.388396 0
M  V30 2947 O 278.851 5.45407 -0.345463 0
M  V30 2948 H 275.945 0.82683 -0.0167505 0
M  V30 2949 H 278.491 1.50971 -0.77498 0
M  V30 2950 H 277.263 3.62028 -1.48498 0
M  V30 2951 H 276.886 3.97128 0.19373 0
M  V30 2952 N 277.883 0.443576 1.51229 0
M  V30 2953 C 278.846 -0.353132 2.26463 0
M  V30 2954 C 279.846 -0.944338 1.3015 0
M  V30 2955 O 281.036 -0.817813 1.5381 0
M  V30 2956 C 278.168 -1.50023 3.06114 0
M  V30 2957 H 279.361 0.3063 2.98332 0
M  V30 2958 H 276.914 0.196902 1.55055 0
M  V30 2959 H 277.649 -2.19553 2.38677 0
M  V30 2960 H 277.434 -1.08241 3.76864 0
M  V30 2961 H 278.924 -2.06296 3.63087 0
M  V30 2962 N 279.361 -1.56624 0.175154 0
M  V30 2963 C 280.309 -2.19468 -0.770495 0
M  V30 2964 C 281.303 -1.15985 -1.23466 0
M  V30 2965 O 282.509 -1.34176 -1.19987 0
M  V30 2966 H 278.884 -0.703095 -0.266761 0
M  V30 2967 H 280.855 -2.97613 -0.216542 0
M  V30 2968 C 279.604 -2.85264 -1.98796 0
M  V30 2969 H 278.927 -3.64623 -1.63983 0
M  V30 2970 H 280.367 -3.327 -2.62843 0
M  V30 2971 C 278.826 -1.85239 -2.81404 0
M  V30 2972 O 279.356 -1.34024 -3.78682 0
M  V30 2973 N 277.562 -1.53911 -2.46495 0
M  V30 2974 H 277.109 -1.95751 -1.67449 0
M  V30 2975 H 277.067 -0.872382 -3.02054 0
M  V30 2976 N 280.839 0.0985539 -1.57292 0
M  V30 2977 C 282.088 0.801358 -1.85098 0
M  V30 2978 C 282.401 1.80066 -0.763902 0
M  V30 2979 O 283.607 2.55112 -0.928981 0
M  V30 2980 C 282.063 1.47599 -3.28242 0
M  V30 2981 C 281.671 0.516624 -4.45011 0
M  V30 2982 C 283.415 2.16272 -3.65276 0
M  V30 2983 C 281.322 1.19564 -5.79188 0
M  V30 2984 H 280.252 0.303022 -0.69043 0
M  V30 2985 H 282.903 0.0542623 -1.8342 0
M  V30 2986 H 281.285 2.27042 -3.2445 0
M  V30 2987 H 282.459 -0.246065 -4.60143 0
M  V30 2988 H 280.774 -0.064227 -4.1635 0
M  V30 2989 H 283.371 2.67802 -4.62803 0
M  V30 2990 H 283.714 2.95009 -2.93727 0
M  V30 2991 H 284.247 1.43693 -3.70941 0
M  V30 2992 H 280.986 0.449157 -6.53959 0
M  V30 2993 H 280.506 1.92984 -5.67906 0
M  V30 2994 H 282.185 1.7231 -6.23633 0
M  V30 2995 N 282.317 1.53212 0.369288 0
M  V30 2996 C 283.227 1.82342 1.47609 0
M  V30 2997 C 284.243 0.711532 1.58787 0
M  V30 2998 O 285.419 1.0012 1.74751 0
M  V30 2999 C 282.484 2.00393 2.8292 0
M  V30 3000 C 281.545 3.24297 2.81301 0
M  V30 3001 C 280.778 3.41478 4.10157 0
M  V30 3002 O 281.001 2.63033 5.06132 0
M  V30 3003 O 279.935 4.34817 4.16194 0
M  V30 3004 H 283.761 2.76366 1.25918 0
M  V30 3005 H 281.346 1.38547 0.559034 0
M  V30 3006 H 283.228 2.13859 3.63101 0
M  V30 3007 H 281.903 1.09559 3.04596 0
M  V30 3008 H 280.81 3.16257 1.99831 0
M  V30 3009 H 282.143 4.15041 2.64578 0
M  V30 3010 N 283.795 -0.628877 1.44509 0
M  V30 3011 C 284.758 -1.72263 1.51188 0
M  V30 3012 C 285.758 -1.55907 0.39367 0
M  V30 3013 O 286.948 -1.61361 0.656377 0
M  V30 3014 C 284.08 -3.11365 1.38798 0
M  V30 3015 H 285.273 -1.67714 2.4862 0
M  V30 3016 H 282.826 -0.842737 1.31634 0
M  V30 3017 H 283.561 -3.21507 0.424693 0
M  V30 3018 H 283.346 -3.24644 2.19884 0
M  V30 3019 H 284.836 -3.91075 1.46458 0
M  V30 3020 N 285.273 -1.31445 -0.869486 0
M  V30 3021 C 286.519 -1.22347 -1.62489 0
M  V30 3022 C 286.874 0.216204 -1.91181 0
M  V30 3023 O 286.167 1.14977 -1.53268 0
M  V30 3024 C 286.361 -2.00145 -2.96102 0
M  V30 3025 C 286.19 -3.51531 -2.80456 0
M  V30 3026 C 284.96 -4.20882 -2.79618 0
M  V30 3027 C 287.158 -4.46471 -2.5528 0
M  V30 3028 N 285.14 -5.58421 -2.55027 0
M  V30 3029 C 286.511 -5.71682 -2.39957 0
M  V30 3030 C 288.566 -4.35892 -2.40629 0
M  V30 3031 C 287.269 -6.87511 -2.11472 0
M  V30 3032 C 289.295 -5.51505 -2.13532 0
M  V30 3033 C 288.657 -6.75707 -1.98998 0
M  V30 3034 H 284.756 -0.502815 -0.598917 0
M  V30 3035 H 287.34 -1.65639 -1.02332 0
M  V30 3036 H 285.511 -1.59221 -3.54264 0
M  V30 3037 H 287.243 -1.83063 -3.60929 0
M  V30 3038 H 283.998 -3.72857 -2.92018 0
M  V30 3039 H 284.422 -6.30841 -2.45701 0
M  V30 3040 H 289.064 -3.40533 -2.50593 0
M  V30 3041 H 286.782 -7.82897 -2.00245 0
M  V30 3042 H 290.368 -5.45238 -2.02995 0
M  V30 3043 H 289.248 -7.63655 -1.78326 0
M  V30 3044 N 286.751 1.08385 -1.14413 0
M  V30 3045 C 288.162 1.62258 -0.923535 0
M  V30 3046 C 288.513 1.88691 0.537595 0
M  V30 3047 O 287.638 1.64454 1.40655 0
M  V30 3048 C 288.233 2.94781 -1.67002 0
M  V30 3049 C 286.792 3.45437 -1.495 0
M  V30 3050 C 285.939 2.19668 -1.69238 0
M  V30 3051 H 288.89 0.916086 -1.2959 0
M  V30 3052 H 288.911 3.63229 -1.13334 0
M  V30 3053 H 288.423 2.7551 -2.73342 0
M  V30 3054 H 286.524 3.6981 -0.455097 0
M  V30 3055 H 286.637 4.22173 -2.2651 0
M  V30 3056 H 285.001 2.28849 -1.11804 0
M  V30 3057 H 285.784 2.02905 -2.7692 0
M  V30 3058 N 288.23 0.939286 1.26551 0
M  V30 3059 C 289.177 0.446088 2.26448 0
M  V30 3060 C 290.147 -0.493234 1.58608 0
M  V30 3061 O 291.332 -0.409857 1.86346 0
M  V30 3062 C 288.472 -0.284375 3.43926 0
M  V30 3063 C 287.585 0.690399 4.26448 0
M  V30 3064 C 286.72 -0.0610712 5.31165 0
M  V30 3065 C 285.759 0.905649 6.05363 0
M  V30 3066 N 284.896 0.186055 7.01853 0
M  V30 3067 H 289.736 1.30291 2.68008 0
M  V30 3068 H 287.273 0.65371 1.31776 0
M  V30 3069 H 289.231 -0.724313 4.10864 0
M  V30 3070 H 287.861 -1.10535 3.03285 0
M  V30 3071 H 286.913 1.24885 3.59316 0
M  V30 3072 H 288.225 1.42873 4.779 0
M  V30 3073 H 287.379 -0.56038 6.04106 0
M  V30 3074 H 286.118 -0.832297 4.80546 0
M  V30 3075 H 285.123 1.4161 5.3125 0
M  V30 3076 H 286.348 1.67685 6.58072 0
M  V30 3077 H 284.294 -0.566714 6.53548 0
M  V30 3078 H 284.211 0.863752 7.51049 0
M  V30 3079 H 285.479 -0.292221 7.78952 0
M  V30 3080 N 289.708 -1.40897 0.706093 0
M  V30 3081 C 290.933 -2.05895 0.249435 0
M  V30 3082 C 291.358 -1.52823 -1.09666 0
M  V30 3083 O 290.716 -0.659589 -1.68876 0
M  V30 3084 C 290.764 -3.59872 0.22904 0
M  V30 3085 O 289.868 -4.04708 -0.792784 0
M  V30 3086 H 289.209 -0.653206 0.119241 0
M  V30 3087 H 291.739 -1.80471 0.96391 0
M  V30 3088 H 291.749 -4.07951 0.0634791 0
M  V30 3089 H 290.424 -3.97866 1.21141 0
M  V30 3090 H 289.001 -3.68111 -0.59572 0
M  V30 3091 N 291.186 -0.45159 -1.50991 0
M  V30 3092 C 292.149 0.341117 -2.26647 0
M  V30 3093 C 293.149 0.937422 -1.30649 0
M  V30 3094 O 294.339 0.809644 -1.54241 0
M  V30 3095 C 291.471 1.48398 -3.06905 0
M  V30 3096 H 292.664 -0.322117 -2.98165 0
M  V30 3097 H 290.217 -0.205122 -1.54948 0
M  V30 3098 H 290.952 2.18284 -2.39838 0
M  V30 3099 H 290.737 1.06241 -3.77432 0
M  V30 3100 H 292.227 2.04367 -3.64176 0
M  V30 3101 N 292.664 1.56529 -0.183458 0
M  V30 3102 C 293.611 2.18546 0.742055 0
M  V30 3103 C 294.581 1.12912 1.2182 0
M  V30 3104 O 295.766 1.41115 1.28418 0
M  V30 3105 C 292.906 2.83977 1.96089 0
M  V30 3106 C 292.019 4.04105 1.52719 0
M  V30 3107 C 291.154 4.57427 2.70063 0
M  V30 3108 C 290.193 5.69938 2.23243 0
M  V30 3109 N 289.33 6.17717 3.33722 0
M  V30 3110 H 294.17 2.97284 0.206432 0
M  V30 3111 H 291.707 1.46823 0.0901571 0
M  V30 3112 H 293.665 3.20077 2.67594 0
M  V30 3113 H 292.295 2.07822 2.47002 0
M  V30 3114 H 291.347 3.73745 0.708436 0
M  V30 3115 H 292.659 4.85513 1.1436 0
M  V30 3116 H 291.813 4.95772 3.49708 0
M  V30 3117 H 290.552 3.75101 3.11689 0
M  V30 3118 H 289.557 5.31133 1.42048 0
M  V30 3119 H 290.782 6.54073 1.82661 0
M  V30 3120 H 288.728 5.38317 3.74902 0
M  V30 3121 H 288.645 6.94146 2.99495 0
M  V30 3122 H 289.913 6.60713 4.13616 0
M  V30 3123 N 294.142 -0.090211 1.57342 0
M  V30 3124 C 295.072 -1.10976 2.05443 0
M  V30 3125 C 296.053 -1.41482 0.944284 0
M  V30 3126 O 297.238 -1.51428 1.21586 0
M  V30 3127 C 294.368 -2.42831 2.48295 0
M  V30 3128 C 293.322 -2.26721 3.63018 0
M  V30 3129 C 292.648 -3.63796 3.91863 0
M  V30 3130 C 293.948 -1.7037 4.93732 0
M  V30 3131 H 295.642 -0.709564 2.9087 0
M  V30 3132 H 293.188 -0.339874 1.39932 0
M  V30 3133 H 295.141 -3.14431 2.80555 0
M  V30 3134 H 293.865 -2.84795 1.59873 0
M  V30 3135 H 292.524 -1.57565 3.31012 0
M  V30 3136 H 292.172 -4.03297 3.00601 0
M  V30 3137 H 291.872 -3.53861 4.69101 0
M  V30 3138 H 293.396 -4.36855 4.26603 0
M  V30 3139 H 294.81 -2.31816 5.24342 0
M  V30 3140 H 293.207 -1.71181 5.75167 0
M  V30 3141 H 294.277 -0.663542 4.80339 0
M  V30 3142 N 295.62 -1.53406 -0.361157 0
M  V30 3143 C 296.55 -1.83136 -1.44857 0
M  V30 3144 C 297.531 -0.685174 -1.5569 0
M  V30 3145 O 298.716 -0.93544 -1.70186 0
M  V30 3146 C 295.846 -2.02522 -2.82138 0
M  V30 3147 C 294.8 -3.18302 -2.86126 0
M  V30 3148 C 294.126 -3.22989 -4.26125 0
M  V30 3149 C 295.426 -4.56796 -2.53248 0
M  V30 3150 H 297.12 -2.74201 -1.20226 0
M  V30 3151 H 294.666 -1.31938 -0.576922 0
M  V30 3152 H 296.619 -2.21904 -3.58241 0
M  V30 3153 H 295.343 -1.08172 -3.08166 0
M  V30 3154 H 294.002 -2.98747 -2.12475 0
M  V30 3155 H 293.65 -2.26267 -4.49235 0
M  V30 3156 H 293.35 -4.00781 -4.29708 0
M  V30 3157 H 294.874 -3.44559 -5.04094 0
M  V30 3158 H 296.288 -4.7631 -3.19064 0
M  V30 3159 H 294.685 -5.36862 -2.68141 0
M  V30 3160 H 295.755 -4.61606 -1.48484 0
M  V30 3161 N 297.098 0.621204 -1.44841 0
M  V30 3162 C 298.045 1.73267 -1.5247 0
M  V30 3163 C 299.015 1.6189 -0.371611 0
M  V30 3164 O 300.2 1.81668 -0.58321 0
M  V30 3165 C 297.34 3.11545 -1.48438 0
M  V30 3166 C 296.453 3.33827 -2.74196 0
M  V30 3167 C 295.588 4.62133 -2.61929 0
M  V30 3168 C 294.627 4.77627 -3.82804 0
M  V30 3169 N 293.764 5.97219 -3.69153 0
M  V30 3170 H 298.604 1.66082 -2.47428 0
M  V30 3171 H 296.141 0.810026 -1.22788 0
M  V30 3172 H 298.099 3.91528 -1.4409 0
M  V30 3173 H 296.729 3.1772 -0.570402 0
M  V30 3174 H 295.781 2.47715 -2.88689 0
M  V30 3175 H 297.093 3.41153 -3.6389 0
M  V30 3176 H 296.247 5.50291 -2.5547 0
M  V30 3177 H 294.986 4.57182 -1.69811 0
M  V30 3178 H 293.991 3.87896 -3.89637 0
M  V30 3179 H 295.216 4.84385 -4.75971 0
M  V30 3180 H 293.162 5.93339 -2.79794 0
M  V30 3181 H 293.079 6.05644 -4.52472 0
M  V30 3182 H 294.347 6.87912 -3.66603 0
M  V30 3183 N 298.576 1.31904 0.862503 0
M  V30 3184 C 299.801 1.25135 1.65397 0
M  V30 3185 C 300.226 -0.179 1.87246 0
M  V30 3186 O 299.584 -1.1277 1.4196 0
M  V30 3187 C 299.632 2.00832 2.99498 0
M  V30 3188 O 298.736 1.35075 3.89652 0
M  V30 3189 H 298.077 0.431655 0.504549 0
M  V30 3190 H 300.607 1.74094 1.07483 0
M  V30 3191 H 300.617 2.10709 3.49379 0
M  V30 3192 H 299.292 3.04847 2.82916 0
M  V30 3193 H 297.869 1.33696 3.48109 0
M  V30 3194 N 300.054 -1.07777 1.14986 0
M  V30 3195 C 301.001 -2.14867 0.842672 0
M  V30 3196 C 301.971 -1.6486 -0.202552 0
M  V30 3197 O 303.156 -1.90668 -0.0710568 0
M  V30 3198 C 300.296 -3.43486 0.333363 0
M  V30 3199 C 299.409 -4.07306 1.43965 0
M  V30 3200 C 298.544 -5.23744 0.886914 0
M  V30 3201 C 297.583 -5.79517 1.97043 0
M  V30 3202 N 296.72 -6.87291 1.4344 0
M  V30 3203 H 301.56 -2.40485 1.75986 0
M  V30 3204 H 299.097 -1.1801 0.878179 0
M  V30 3205 H 301.055 -4.17195 0.0198163 0
M  V30 3206 H 299.685 -3.18133 -0.546916 0
M  V30 3207 H 298.737 -3.31293 1.86946 0
M  V30 3208 H 300.049 -4.44771 2.25788 0
M  V30 3209 H 299.203 -6.04419 0.525651 0
M  V30 3210 H 297.942 -4.87685 0.0377957 0
M  V30 3211 H 296.947 -4.97491 2.34057 0
M  V30 3212 H 298.172 -6.17632 2.82325 0
M  V30 3213 H 296.118 -6.5318 0.607567 0
M  V30 3214 H 296.035 -7.23617 2.18895 0
M  V30 3215 H 297.303 -7.71682 1.10124 0
M  V30 3216 N 301.532 -0.945985 -1.26051 0
M  V30 3217 C 302.762 -0.612136 -1.97323 0
M  V30 3218 C 303.17 0.818171 -1.70595 0
M  V30 3219 O 302.513 1.55777 -0.973613 0
M  V30 3220 C 302.575 -0.780347 -3.50929 0
M  V30 3221 C 302.239 -2.18619 -4.01317 0
M  V30 3222 C 303.236 -3.16209 -4.12683 0
M  V30 3223 C 300.921 -2.50805 -4.35203 0
M  V30 3224 C 302.915 -4.44085 -4.57238 0
M  V30 3225 C 300.602 -3.78912 -4.79446 0
M  V30 3226 C 301.6 -4.75365 -4.90425 0
M  V30 3227 O 301.288 -6.01191 -5.3369 0
M  V30 3228 H 301.02 -0.229134 -0.635982 0
M  V30 3229 H 303.574 -1.27036 -1.61404 0
M  V30 3230 H 301.804 -0.0649864 -3.86645 0
M  V30 3231 H 303.493 -0.448842 -4.03411 0
M  V30 3232 H 304.259 -2.92668 -3.86744 0
M  V30 3233 H 300.138 -1.76463 -4.2589 0
M  V30 3234 H 303.682 -5.19373 -4.65723 0
M  V30 3235 H 299.579 -4.02265 -5.0483 0
M  V30 3236 H 300.347 -6.04442 -5.51899 0
M  V30 3237 N 303.011 1.40521 -0.713556 0
M  V30 3238 C 304.259 2.00527 -0.251692 0
M  V30 3239 C 304.58 1.56857 1.15848 0
M  V30 3240 O 303.85 0.807127 1.785 0
M  V30 3241 H 302.43 0.741551 -0.0900646 0
M  V30 3242 H 305.092 1.71887 -0.918733 0
M  V30 3243 H 304.188 3.10813 -0.283192 0
M  V30 3244 N 304.489 0.459591 1.5075 0
M  V30 3245 C 305.436 -0.340524 2.28274 0
M  V30 3246 C 306.406 -0.997371 1.32822 0
M  V30 3247 O 307.591 -1.01202 1.61749 0
M  V30 3248 C 304.731 -1.42317 3.14388 0
M  V30 3249 C 303.844 -0.782251 4.24859 0
M  V30 3250 C 302.979 -1.84182 4.98247 0
M  V30 3251 C 302.018 -1.18053 6.00608 0
M  V30 3252 N 301.155 -2.18244 6.67319 0
M  V30 3253 H 305.995 0.326899 2.96202 0
M  V30 3254 H 303.532 0.173057 1.46078 0
M  V30 3255 H 305.49 -2.06241 3.62658 0
M  V30 3256 H 304.12 -2.05992 2.4853 0
M  V30 3257 H 303.172 -0.0307404 3.80388 0
M  V30 3258 H 304.484 -0.259663 4.98124 0
M  V30 3259 H 303.638 -2.55714 5.50177 0
M  V30 3260 H 302.377 -2.39819 4.24662 0
M  V30 3261 H 301.382 -0.450776 5.47949 0
M  V30 3262 H 302.607 -0.631202 6.7616 0
M  V30 3263 H 300.553 -2.72919 5.96533 0
M  V30 3264 H 300.47 -1.70938 7.36421 0
M  V30 3265 H 301.738 -2.89191 7.23871 0
M  V30 3266 N 305.967 -1.56429 0.191757 0
M  V30 3267 C 306.93 -2.17707 -0.716688 0
M  V30 3268 C 307.93 -1.13061 -1.14341 0
M  V30 3269 O 309.12 -1.38464 -1.05704 0
M  V30 3270 C 306.252 -2.77644 -1.97804 0
M  V30 3271 H 307.445 -2.99342 -0.1829 0
M  V30 3272 H 304.998 -1.56193 -0.0578566 0
M  V30 3273 H 305.733 -1.99799 -2.55443 0
M  V30 3274 H 305.518 -3.54246 -1.68083 0
M  V30 3275 H 307.008 -3.24708 -2.62592 0
M  V30 3276 N 307.445 0.0818655 -1.57387 0
M  V30 3277 C 308.392 1.09834 -2.0299 0
M  V30 3278 C 309.362 1.39043 -0.908639 0
M  V30 3279 O 310.547 1.50282 -1.17559 0
M  V30 3280 C 307.687 2.40971 -2.47037 0
M  V30 3281 C 306.8 2.18379 -3.7274 0
M  V30 3282 C 305.935 3.43008 -4.0561 0
M  V30 3283 C 304.974 3.15736 -5.24383 0
M  V30 3284 N 304.111 4.32667 -5.52941 0
M  V30 3285 H 308.951 0.702472 -2.89602 0
M  V30 3286 H 306.488 0.33531 -1.43227 0
M  V30 3287 H 308.446 3.1752 -2.70623 0
M  V30 3288 H 307.076 2.78379 -1.63417 0
M  V30 3289 H 306.128 1.32569 -3.56552 0
M  V30 3290 H 307.44 1.94227 -4.59431 0
M  V30 3291 H 306.594 4.27958 -4.30043 0
M  V30 3292 H 305.333 3.70225 -3.17466 0
M  V30 3293 H 304.338 2.2918 -4.99757 0
M  V30 3294 H 305.563 2.8985 -6.14136 0
M  V30 3295 H 303.509 4.59935 -4.67756 0
M  V30 3296 H 303.426 4.11753 -6.34031 0
M  V30 3297 H 304.694 5.18644 -5.81918 0
M  V30 3298 N 308.923 1.53595 0.353017 0
M  V30 3299 C 309.853 1.83902 1.43883 0
M  V30 3300 C 310.834 0.693421 1.55324 0
M  V30 3301 O 312.019 0.944452 1.69687 0
M  V30 3302 C 309.149 2.04016 2.8106 0
M  V30 3303 C 308.103 3.19814 2.84434 0
M  V30 3304 C 307.429 3.25244 4.24406 0
M  V30 3305 C 308.729 4.58133 2.50822 0
M  V30 3306 H 310.423 2.74835 1.1877 0
M  V30 3307 H 307.969 1.32242 0.569917 0
M  V30 3308 H 309.922 2.238 3.57059 0
M  V30 3309 H 308.646 1.09804 3.07588 0
M  V30 3310 H 307.305 2.9987 2.10887 0
M  V30 3311 H 306.953 2.28646 4.48029 0
M  V30 3312 H 306.653 4.03054 4.27576 0
M  V30 3313 H 308.177 3.47228 5.0226 0
M  V30 3314 H 309.591 4.77995 3.16534 0
M  V30 3315 H 307.988 5.38276 2.6529 0
M  V30 3316 H 309.058 4.62387 1.46034 0
M  V30 3317 N 310.401 -0.613514 1.45168 0
M  V30 3318 C 311.647 -1.37471 1.49096 0
M  V30 3319 C 311.98 -1.93765 0.129901 0
M  V30 3320 O 311.255 -1.74707 -0.854858 0
M  V30 3321 C 311.538 -2.52701 2.56542 0
M  V30 3322 C 311.391 -2.01643 4.0207 0
M  V30 3323 C 312.71 -3.54849 2.60327 0
M  V30 3324 H 309.829 -0.498502 0.54283 0
M  V30 3325 H 312.471 -0.692125 1.76945 0
M  V30 3326 H 310.621 -3.10931 2.32926 0
M  V30 3327 H 312.293 -1.48108 4.36877 0
M  V30 3328 H 310.536 -1.32688 4.13009 0
M  V30 3329 H 311.207 -2.84681 4.72928 0
M  V30 3330 H 313.683 -3.0645 2.81474 0
M  V30 3331 H 312.559 -4.32973 3.37381 0
M  V30 3332 H 312.82 -4.10079 1.6519 0
M  V30 3333 N 311.879 -1.3236 -0.855495 0
M  V30 3334 C 313.125 -1.23054 -1.612 0
M  V30 3335 C 313.458 0.207404 -1.93089 0
M  V30 3336 O 312.733 1.14432 -1.57275 0
M  V30 3337 C 313.016 -2.08937 -2.93287 0
M  V30 3338 C 312.869 -3.61105 -2.68185 0
M  V30 3339 C 314.188 -1.94986 -3.94549 0
M  V30 3340 H 311.307 -0.448364 -0.584926 0
M  V30 3341 H 313.949 -1.62297 -0.987917 0
M  V30 3342 H 312.099 -1.75599 -3.46551 0
M  V30 3343 H 313.771 -4.04652 -2.21483 0
M  V30 3344 H 312.014 -3.83813 -2.02164 0
M  V30 3345 H 312.685 -4.16522 -3.62234 0
M  V30 3346 H 315.161 -2.24189 -3.5054 0
M  V30 3347 H 314.037 -2.57356 -4.84829 0
M  V30 3348 H 314.298 -0.917263 -4.3248 0
M  V30 3349 N 313.357 1.07166 -1.15556 0
M  V30 3350 C 314.768 1.6127 -0.940693 0
M  V30 3351 C 315.119 1.89251 0.517551 0
M  V30 3352 O 314.244 1.65937 1.38903 0
M  V30 3353 C 314.839 2.92993 -1.7012 0
M  V30 3354 C 313.398 3.43832 -1.53156 0
M  V30 3355 C 312.545 2.1786 -1.71558 0
M  V30 3356 H 315.496 0.90229 -1.30554 0
M  V30 3357 H 315.517 3.62007 -1.17181 0
M  V30 3358 H 315.029 2.72596 -2.76248 0
M  V30 3359 H 313.13 3.69307 -0.494294 0
M  V30 3360 H 313.243 4.19747 -2.30975 0
M  V30 3361 H 311.607 2.2765 -1.14225 0
M  V30 3362 H 312.39 1.99956 -2.79056 0
M  V30 3363 N 314.835 0.952656 1.25548 0
M  V30 3364 C 316.06 0.623025 1.97821 0
M  V30 3365 C 316.485 -0.7976 1.70352 0
M  V30 3366 O 315.843 -1.53905 0.958283 0
M  V30 3367 C 315.891 0.885532 3.49558 0
M  V30 3368 O 314.995 -0.0366641 4.12384 0
M  V30 3369 H 314.336 0.237082 0.620232 0
M  V30 3370 H 316.866 1.27871 1.59719 0
M  V30 3371 H 316.876 0.811009 3.99858 0
M  V30 3372 H 315.551 1.92094 3.6888 0
M  V30 3373 H 314.128 0.0898954 3.72792 0
M  V30 3374 N 316.313 -1.40141 0.720998 0
M  V30 3375 C 317.263 -2.27949 0.0482544 0
M  V30 3376 C 318.247 -1.43538 -0.727021 0
M  V30 3377 O 319.439 -1.6658 -0.598332 0
M  V30 3378 C 316.568 -3.32126 -0.868729 0
M  V30 3379 C 315.654 -4.24008 -0.0883515 0
M  V30 3380 N 316.045 -4.97154 0.931226 0
M  V30 3381 C 314.343 -4.4485 -0.320105 0
M  V30 3382 C 315.044 -5.64587 1.4006 0
M  V30 3383 N 314.02 -5.38787 0.721752 0
M  V30 3384 H 317.822 -2.81948 0.829609 0
M  V30 3385 H 315.336 -1.52656 0.554067 0
M  V30 3386 H 317.333 -3.93884 -1.36605 0
M  V30 3387 H 315.993 -2.79687 -1.6494 0
M  V30 3388 H 317.004 -5.01 1.31222 0
M  V30 3389 H 313.681 -4.03378 -1.07668 0
M  V30 3390 H 315.071 -6.33175 2.24808 0
M  V30 3391 N 317.792 -0.46758 -1.50504 0
M  V30 3392 C 319.017 0.0886943 -2.0721 0
M  V30 3393 C 319.442 1.33057 -1.32956 0
M  V30 3394 O 318.8 1.77354 -0.376197 0
M  V30 3395 C 318.848 0.359202 -3.58806 0
M  V30 3396 O 317.952 1.44034 -3.8643 0
M  V30 3397 H 317.293 -0.0114349 -0.663902 0
M  V30 3398 H 319.823 -0.657613 -1.93744 0
M  V30 3399 H 319.833 0.600742 -4.03553 0
M  V30 3400 H 318.508 -0.548311 -4.1227 0
M  V30 3401 H 317.085 1.18638 -3.53524 0
M  V30 3402 N 319.27 1.56325 -0.20005 0
M  V30 3403 C 320.18 2.22931 0.730668 0
M  V30 3404 C 321.196 1.22997 1.23076 0
M  V30 3405 O 322.372 1.55748 1.27689 0
M  V30 3406 C 319.437 2.87948 1.93098 0
M  V30 3407 C 318.498 4.03166 1.47497 0
M  V30 3408 C 317.731 4.65073 2.61807 0
M  V30 3409 O 317.954 4.25913 3.79413 0
M  V30 3410 O 316.888 5.54452 2.34237 0
M  V30 3411 H 320.714 3.03084 0.193391 0
M  V30 3412 H 318.299 1.49371 0.0294621 0
M  V30 3413 H 320.181 3.29063 2.6324 0
M  V30 3414 H 318.856 2.10771 2.45677 0
M  V30 3415 H 317.763 3.66664 0.742201 0
M  V30 3416 H 319.096 4.82022 0.995796 0
M  V30 3417 N 320.748 -0.0735177 1.57428 0
M  V30 3418 C 321.994 -0.774145 1.87443 0
M  V30 3419 C 322.327 -1.77311 0.792103 0
M  V30 3420 O 321.602 -1.93492 -0.197793 0
M  V30 3421 C 321.885 -1.48367 3.28115 0
M  V30 3422 C 321.738 -0.501227 4.46999 0
M  V30 3423 C 323.057 -2.429 3.66998 0
M  V30 3424 H 320.176 -0.279971 0.681752 0
M  V30 3425 H 322.818 -0.0373616 1.89963 0
M  V30 3426 H 320.968 -2.11171 3.26097 0
M  V30 3427 H 322.64 0.121468 4.6114 0
M  V30 3428 H 320.883 0.183593 4.33411 0
M  V30 3429 H 321.554 -1.03526 5.42205 0
M  V30 3430 H 324.03 -1.90175 3.70098 0
M  V30 3431 H 322.906 -2.89549 4.66318 0
M  V30 3432 H 323.167 -3.27628 2.96837 0
M  V30 3433 N 322.226 -1.5378 -0.344866 0
M  V30 3434 C 323.474 -1.70625 -1.08311 0
M  V30 3435 C 323.795 -0.471447 -1.89215 0
M  V30 3436 O 323.065 0.514616 -1.8902 0
M  V30 3437 H 321.645 -0.629058 -0.402859 0
M  V30 3438 H 324.307 -1.9103 -0.386459 0
M  V30 3439 H 323.403 -2.57656 -1.76124 0
M  V30 3440 N 323.704 0.605807 -1.45491 0
M  V30 3441 C 324.981 1.36522 -1.40075 0
M  V30 3442 C 325.361 2.10976 -0.0722744 0
M  V30 3443 O 324.709 2.08007 0.945808 0
M  V30 3444 C 324.919 2.31056 -2.61561 0
M  V30 3445 C 326.267 2.93608 -3.06724 0
M  V30 3446 O 327.291 2.41376 -2.61946 0
M  V30 3447 O 326.15 3.88421 -3.84437 0
M  V30 3448 H 323.244 0.612248 -0.555951 0
M  V30 3449 H 325.79 0.628747 -1.57623 0
M  V30 3450 H 324.562 1.75311 -3.49831 0
M  V30 3451 H 324.185 3.12081 -2.46356 0
M  V30 3452 N 325.182 1.32811 0.848464 0
M  V30 3453 C 326.145 1.22194 1.9391 0
M  V30 3454 C 327.145 0.143404 1.60159 0
M  V30 3455 O 328.335 0.394253 1.6968 0
M  V30 3456 C 325.467 0.88067 3.29328 0
M  V30 3457 H 326.66 2.19127 2.04752 0
M  V30 3458 H 324.213 1.16731 1.0394 0
M  V30 3459 H 324.948 -0.0865776 3.24184 0
M  V30 3460 H 324.733 1.66052 3.55203 0
M  V30 3461 H 326.223 0.830871 4.09251 0
M  V30 3462 N 326.66 -1.06551 1.16123 0
M  V30 3463 C 327.885 -1.83544 0.965735 0
M  V30 3464 C 328.31 -1.81843 -0.481102 0
M  V30 3465 O 327.668 -1.21732 -1.34354 0
M  V30 3466 C 327.716 -3.28169 1.49457 0
M  V30 3467 O 326.82 -4.0643 0.699157 0
M  V30 3468 H 326.161 -0.568026 0.343864 0
M  V30 3469 H 328.691 -1.34362 1.54299 0
M  V30 3470 H 328.701 -3.78992 1.51092 0
M  V30 3471 H 327.376 -3.28722 2.54784 0
M  V30 3472 H 325.953 -3.65216 0.7531 0
M  V30 3473 N 328.138 -0.959301 -1.25041 0
M  V30 3474 C 329.068 -0.501388 -2.28053 0
M  V30 3475 C 330.049 0.454673 -1.63911 0
M  V30 3476 O 331.234 0.352618 -1.90972 0
M  V30 3477 C 328.364 0.217224 -3.4662 0
M  V30 3478 C 327.318 -0.654034 -4.22973 0
M  V30 3479 C 326.644 0.195589 -5.34342 0
M  V30 3480 C 327.944 -1.93447 -4.85155 0
M  V30 3481 H 329.638 -1.36238 -2.66608 0
M  V30 3482 H 327.184 -0.656534 -1.28163 0
M  V30 3483 H 329.137 0.548732 -4.17812 0
M  V30 3484 H 327.861 1.1125 -3.07068 0
M  V30 3485 H 326.52 -0.968693 -3.5357 0
M  V30 3486 H 326.168 1.09076 -4.91031 0
M  V30 3487 H 325.868 -0.384091 -5.86343 0
M  V30 3488 H 327.392 0.521958 -6.08365 0
M  V30 3489 H 328.806 -1.66908 -5.48466 0
M  V30 3490 H 327.203 -2.46018 -5.47353 0
M  V30 3491 H 328.273 -2.63466 -4.07079 0
M  V30 3492 N 329.616 1.39756 -0.72842 0
M  V30 3493 C 330.546 2.33289 -0.0991354 0
M  V30 3494 C 331.527 1.53568 0.731489 0
M  V30 3495 O 332.712 1.81987 0.677807 0
M  V30 3496 C 329.842 3.3763 0.813834 0
M  V30 3497 C 328.796 4.2791 0.0878663 0
M  V30 3498 C 328.122 5.22894 1.11741 0
M  V30 3499 C 329.422 5.11314 -1.06563 0
M  V30 3500 H 331.116 2.86163 -0.880408 0
M  V30 3501 H 328.662 1.37591 -0.424819 0
M  V30 3502 H 330.615 4.0201 1.26355 0
M  V30 3503 H 329.339 2.83181 1.62715 0
M  V30 3504 H 327.998 3.65 -0.342159 0
M  V30 3505 H 327.646 4.64744 1.92412 0
M  V30 3506 H 327.346 5.84143 0.636477 0
M  V30 3507 H 328.87 5.90151 1.56697 0
M  V30 3508 H 330.284 5.69076 -0.694671 0
M  V30 3509 H 328.681 5.81671 -1.47577 0
M  V30 3510 H 329.751 4.46534 -1.89038 0
M  V30 3511 N 331.094 0.475555 1.50254 0
M  V30 3512 C 332.041 -0.316293 2.28622 0
M  V30 3513 C 333.011 -0.983227 1.33873 0
M  V30 3514 O 334.196 -0.994805 1.62814 0
M  V30 3515 C 331.336 -1.38975 3.1588 0
M  V30 3516 C 330.449 -0.737146 4.25664 0
M  V30 3517 C 329.584 -1.78887 5.00173 0
M  V30 3518 C 328.623 -1.11676 6.01826 0
M  V30 3519 N 327.76 -2.11154 6.69596 0
M  V30 3520 H 332.6 0.358297 2.95838 0
M  V30 3521 H 330.137 0.188541 1.45887 0
M  V30 3522 H 332.095 -2.02383 3.64825 0
M  V30 3523 H 330.725 -2.03344 2.50701 0
M  V30 3524 H 329.777 0.0096065 3.80399 0
M  V30 3525 H 331.089 -0.206816 4.98371 0
M  V30 3526 H 330.243 -2.49865 5.52859 0
M  V30 3527 H 328.982 -2.35302 4.27182 0
M  V30 3528 H 327.987 -0.392633 5.48396 0
M  V30 3529 H 329.212 -0.55945 6.76792 0
M  V30 3530 H 327.158 -2.66577 5.99394 0
M  V30 3531 H 327.075 -1.63118 7.38193 0
M  V30 3532 H 328.343 -2.81497 7.26897 0
M  V30 3533 N 332.573 -1.56217 0.208337 0
M  V30 3534 C 333.503 -2.22694 -0.702116 0
M  V30 3535 C 334.484 -1.19432 -1.2112 0
M  V30 3536 O 335.669 -1.47978 -1.25762 0
M  V30 3537 C 332.799 -2.8966 -1.9161 0
M  V30 3538 C 331.753 -3.9928 -1.5414 0
M  V30 3539 C 331.079 -4.53476 -2.83308 0
M  V30 3540 C 332.379 -5.17012 -0.741339 0
M  V30 3541 H 334.073 -2.99034 -0.147898 0
M  V30 3542 H 331.619 -1.43831 -0.0696951 0
M  V30 3543 H 333.572 -3.34852 -2.55836 0
M  V30 3544 H 332.296 -2.10746 -2.49507 0
M  V30 3545 H 330.955 -3.54799 -0.922668 0
M  V30 3546 H 330.603 -3.71308 -3.39322 0
M  V30 3547 H 330.303 -5.27451 -2.58976 0
M  V30 3548 H 331.827 -5.01378 -3.485 0
M  V30 3549 H 333.241 -5.58667 -1.28699 0
M  V30 3550 H 331.638 -5.97137 -0.595627 0
M  V30 3551 H 332.708 -4.8423 0.254851 0
M  V30 3552 N 334.051 0.0651679 -1.57465 0
M  V30 3553 C 335.279 0.775808 -1.91804 0
M  V30 3554 C 335.694 1.70782 -0.804916 0
M  V30 3555 O 335.051 1.81153 0.221311 0
M  V30 3556 C 335.102 1.56381 -3.25925 0
M  V30 3557 O 334.823 0.669248 -4.32958 0
M  V30 3558 C 336.324 2.37485 -3.7432 0
M  V30 3559 H 333.544 0.2202 -0.63384 0
M  V30 3560 H 336.088 0.0334587 -2.04473 0
M  V30 3561 H 334.243 2.25837 -3.14764 0
M  V30 3562 H 334.657 1.21801 -5.10162 0
M  V30 3563 H 336.131 2.88223 -4.70778 0
M  V30 3564 H 336.608 3.17307 -3.03666 0
M  V30 3565 H 337.214 1.73173 -3.88447 0
M  V30 3566 N 335.529 1.53961 0.336706 0
M  V30 3567 C 336.459 1.85417 1.41925 0
M  V30 3568 C 337.44 0.709856 1.5458 0
M  V30 3569 O 338.625 0.962396 1.68676 0
M  V30 3570 C 335.755 2.06985 2.78881 0
M  V30 3571 C 334.709 3.22813 2.81026 0
M  V30 3572 C 334.035 3.29727 4.20932 0
M  V30 3573 C 335.335 4.60767 2.45949 0
M  V30 3574 H 337.029 2.76079 1.15848 0
M  V30 3575 H 334.575 1.32839 0.555859 0
M  V30 3576 H 336.528 2.27575 3.54665 0
M  V30 3577 H 335.252 1.13061 3.06406 0
M  V30 3578 H 333.911 3.0209 2.07695 0
M  V30 3579 H 333.559 2.33385 4.45579 0
M  V30 3580 H 333.259 4.07566 4.23277 0
M  V30 3581 H 334.783 3.52536 4.98549 0
M  V30 3582 H 336.197 4.81325 3.11446 0
M  V30 3583 H 334.594 5.4106 2.59566 0
M  V30 3584 H 335.664 4.6391 1.41122 0
M  V30 3585 N 337.007 -0.598083 1.45811 0
M  V30 3586 C 337.917 -1.73632 1.57763 0
M  V30 3587 C 338.933 -1.67763 0.461676 0
M  V30 3588 O 340.109 -1.87949 0.723685 0
M  V30 3589 C 337.174 -3.10114 1.55018 0
M  V30 3590 C 336.235 -3.27364 2.77726 0
M  V30 3591 C 335.468 -4.57334 2.75102 0
M  V30 3592 O 335.691 -5.40258 1.8297 0
M  V30 3593 O 334.625 -4.77502 3.66437 0
M  V30 3594 H 338.451 -1.66498 2.53992 0
M  V30 3595 H 336.036 -0.763308 1.28429 0
M  V30 3596 H 337.918 -3.9141 1.56129 0
M  V30 3597 H 336.593 -3.17718 0.619431 0
M  V30 3598 H 335.5 -2.45619 2.82174 0
M  V30 3599 H 336.833 -3.24641 3.69958 0
M  V30 3600 N 338.485 -1.33259 -0.841409 0
M  V30 3601 C 339.417 -1.19136 -1.95804 0
M  V30 3602 C 340.43 -0.122965 -1.62335 0
M  V30 3603 O 341.619 -0.373154 -1.74556 0
M  V30 3604 C 338.719 -0.804268 -3.29218 0
M  V30 3605 C 337.892 -1.96376 -3.90839 0
M  V30 3606 C 336.951 -1.55806 -5.02604 0
M  V30 3607 O 335.977 -2.27203 -5.21888 0
M  V30 3608 N 337.179 -0.461609 -5.78662 0
M  V30 3609 H 339.944 -2.15326 -2.08458 0
M  V30 3610 H 337.505 -1.25971 -1.017 0
M  V30 3611 H 339.497 -0.51501 -4.0141 0
M  V30 3612 H 338.067 0.0668809 -3.12528 0
M  V30 3613 H 337.287 -2.41879 -3.11269 0
M  V30 3614 H 338.575 -2.73966 -4.28742 0
M  V30 3615 H 337.973 0.132343 -5.65545 0
M  V30 3616 H 336.53 -0.232013 -6.51387 0
M  V30 3617 N 339.963 1.05934 -1.16686 0
M  V30 3618 C 340.926 2.11669 -0.879144 0
M  V30 3619 C 341.926 1.60294 0.127445 0
M  V30 3620 O 343.116 1.7389 -0.103865 0
M  V30 3621 C 340.248 3.39438 -0.315425 0
M  V30 3622 H 341.441 2.38626 -1.81653 0
M  V30 3623 H 338.994 1.22058 -0.976299 0
M  V30 3624 H 339.729 3.18132 0.629468 0
M  V30 3625 H 339.514 3.78034 -1.04079 0
M  V30 3626 H 341.004 4.17391 -0.132189 0
M  V30 3627 N 341.441 0.965919 1.2453 0
M  V30 3628 C 342.687 0.62776 1.92839 0
M  V30 3629 C 343.02 -0.834694 1.75347 0
M  V30 3630 O 342.295 -1.60031 1.10546 0
M  V30 3631 C 342.578 1.00109 3.45905 0
M  V30 3632 C 342.431 2.52011 3.72573 0
M  V30 3633 C 343.75 0.53435 4.36844 0
M  V30 3634 H 340.869 0.229537 0.700344 0
M  V30 3635 H 343.511 1.2046 1.46933 0
M  V30 3636 H 341.661 0.510238 3.85135 0
M  V30 3637 H 343.333 3.08559 3.42912 0
M  V30 3638 H 341.576 2.95287 3.17786 0
M  V30 3639 H 342.247 2.73183 4.79661 0
M  V30 3640 H 344.723 0.955565 4.04979 0
M  V30 3641 H 343.599 0.824152 5.42678 0
M  V30 3642 H 343.86 -0.565589 4.38467 0
M  V30 3643 N 342.919 -1.39368 0.735821 0
M  V30 3644 C 343.866 -2.30599 0.0963825 0
M  V30 3645 C 344.836 -1.49257 -0.728794 0
M  V30 3646 O 346.021 -1.77941 -0.688588 0
M  V30 3647 C 343.161 -3.35596 -0.804305 0
M  V30 3648 C 342.274 -4.31987 0.0335761 0
M  V30 3649 C 341.409 -5.24053 -0.868461 0
M  V30 3650 C 340.448 -6.12095 -0.0258776 0
M  V30 3651 N 339.585 -6.96514 -0.883893 0
M  V30 3652 H 344.425 -2.8471 0.880002 0
M  V30 3653 H 341.962 -1.40188 0.445619 0
M  V30 3654 H 343.92 -3.95062 -1.34096 0
M  V30 3655 H 342.55 -2.82938 -1.55389 0
M  V30 3656 H 341.602 -3.74133 0.68766 0
M  V30 3657 H 342.914 -4.94074 0.685036 0
M  V30 3658 H 342.068 -5.88549 -1.47293 0
M  V30 3659 H 340.807 -4.62289 -1.5537 0
M  V30 3660 H 339.812 -5.4661 0.591386 0
M  V30 3661 H 341.037 -6.75923 0.656156 0
M  V30 3662 H 338.983 -6.37318 -1.55441 0
M  V30 3663 H 338.9 -7.55448 -0.288931 0
M  V30 3664 H 340.168 -7.65439 -1.4739 0
M  V30 3665 N 344.397 -0.483516 -1.5 0
M  V30 3666 C 345.645 0.067027 -2.01989 0
M  V30 3667 C 345.966 1.3909 -1.36671 0
M  V30 3668 O 345.236 1.88978 -0.516152 0
M  V30 3669 H 343.816 0.0277606 -0.746484 0
M  V30 3670 H 346.478 -0.636773 -1.84204 0
M  V30 3671 H 345.574 0.209484 -3.11396 0
M  V30 3672 N 345.875 1.56104 -0.216619 0
M  V30 3673 C 346.805 2.23063 0.690296 0
M  V30 3674 C 347.786 1.20072 1.20485 0
M  V30 3675 O 348.971 1.48643 1.24976 0
M  V30 3676 C 346.101 2.90672 1.90072 0
M  V30 3677 C 345.055 4.00092 1.5202 0
M  V30 3678 C 344.381 4.54972 2.80899 0
M  V30 3679 C 345.681 5.17398 0.71391 0
M  V30 3680 H 347.375 2.99109 0.132038 0
M  V30 3681 H 344.921 1.43866 0.0620664 0
M  V30 3682 H 346.874 3.36204 2.54057 0
M  V30 3683 H 345.598 2.12066 2.48386 0
M  V30 3684 H 344.257 3.55283 0.903839 0
M  V30 3685 H 343.905 3.73102 3.37348 0
M  V30 3686 H 343.605 5.28817 2.56176 0
M  V30 3687 H 345.129 5.0322 3.45836 0
M  V30 3688 H 346.543 5.59342 1.25735 0
M  V30 3689 H 344.94 5.97444 0.563951 0
M  V30 3690 H 346.01 4.84088 -0.280527 0
M  V30 3691 N 347.353 -0.0568162 1.57498 0
M  V30 3692 C 348.301 -1.08452 2.05769 0
M  V30 3693 C 349.295 -1.39164 0.965903 0
M  V30 3694 O 350.501 -1.38395 1.15095 0
M  V30 3695 H 346.876 -0.367148 0.656282 0
M  V30 3696 H 348.847 -0.651368 2.91204 0
M  V30 3697 C 347.596 -2.38543 2.52968 0
M  V30 3698 H 346.919 -2.15765 3.36579 0
M  V30 3699 H 348.359 -3.08863 2.90481 0
M  V30 3700 C 346.818 -3.05562 1.41893 0
M  V30 3701 O 347.348 -3.94262 0.769442 0
M  V30 3702 N 345.554 -2.6643 1.16032 0
M  V30 3703 H 345.101 -1.94387 1.6903 0
M  V30 3704 H 345.059 -3.11593 0.419219 0
M  V30 3705 N 348.832 -1.54138 -0.328536 0
M  V30 3706 C 349.742 -1.86192 -1.42723 0
M  V30 3707 C 350.758 -0.753382 -1.56844 0
M  V30 3708 O 351.934 -1.04718 -1.72035 0
M  V30 3709 C 348.999 -2.07824 -2.77507 0
M  V30 3710 C 348.06 -3.31641 -2.72603 0
M  V30 3711 C 347.293 -3.52232 -4.00959 0
M  V30 3712 O 347.516 -2.7636 -4.9898 0
M  V30 3713 O 346.45 -4.45699 -4.0452 0
M  V30 3714 H 350.276 -2.79608 -1.18547 0
M  V30 3715 H 347.861 -1.3998 -0.522104 0
M  V30 3716 H 349.743 -2.23411 -3.57303 0
M  V30 3717 H 348.418 -1.17596 -3.01584 0
M  V30 3718 H 347.325 -3.21444 -1.91376 0
M  V30 3719 H 348.658 -4.2191 -2.53481 0
M  V30 3720 N 350.31 0.590341 -1.46126 0
M  V30 3721 C 351.535 1.37991 -1.54833 0
M  V30 3722 C 351.96 1.87163 -0.187506 0
M  V30 3723 O 351.318 1.61133 0.831008 0
M  V30 3724 C 351.366 2.54867 -2.55098 0
M  V30 3725 O 350.47 3.56061 -2.08073 0
M  V30 3726 H 349.811 0.411265 -0.521303 0
M  V30 3727 H 352.341 0.716819 -1.91632 0
M  V30 3728 H 352.351 3.01886 -2.74461 0
M  V30 3729 H 351.026 2.18429 -3.53923 0
M  V30 3730 H 349.603 3.15574 -1.98664 0
M  V30 3731 N 351.788 1.33704 0.83433 0
M  V30 3732 C 352.735 1.24335 1.94447 0
M  V30 3733 C 353.705 0.120991 1.65659 0
M  V30 3734 O 354.89 0.300035 1.88426 0
M  V30 3735 C 352.03 0.993124 3.30501 0
M  V30 3736 C 351.143 2.20217 3.71657 0
M  V30 3737 C 350.278 1.88572 4.96602 0
M  V30 3738 C 349.317 3.05683 5.30306 0
M  V30 3739 N 348.454 2.73997 6.46429 0
M  V30 3740 H 353.294 2.1928 2.01792 0
M  V30 3741 H 350.831 1.09035 0.987404 0
M  V30 3742 H 352.789 0.828467 4.08892 0
M  V30 3743 H 351.419 0.0803902 3.227 0
M  V30 3744 H 350.471 2.47642 2.88752 0
M  V30 3745 H 351.783 3.07752 3.92543 0
M  V30 3746 H 350.937 1.68776 5.82752 0
M  V30 3747 H 349.676 0.982799 4.77695 0
M  V30 3748 H 348.681 3.26088 4.42659 0
M  V30 3749 H 349.906 3.96737 5.51159 0
M  V30 3750 H 347.852 1.86268 6.28999 0
M  V30 3751 H 347.769 3.55064 6.67432 0
M  V30 3752 H 349.037 2.57679 7.35678 0
M  V30 3753 N 353.266 -1.05314 1.17247 0
M  V30 3754 C 354.213 -2.13031 0.888058 0
M  V30 3755 C 355.183 -1.65253 -0.167537 0
M  V30 3756 O 356.368 -1.90775 -0.0305974 0
M  V30 3757 C 353.508 -3.42702 0.406147 0
M  V30 3758 C 352.621 -4.04161 1.52572 0
M  V30 3759 C 351.756 -5.21744 0.997808 0
M  V30 3760 C 350.795 -5.75207 2.09291 0
M  V30 3761 N 349.932 -6.84094 1.57986 0
M  V30 3762 H 354.772 -2.36698 1.81048 0
M  V30 3763 H 352.309 -1.16121 0.903013 0
M  V30 3764 H 354.267 -4.17059 0.108305 0
M  V30 3765 H 352.897 -3.19222 -0.479313 0
M  V30 3766 H 351.949 -3.27253 1.93931 0
M  V30 3767 H 353.261 -4.39881 2.35172 0
M  V30 3768 H 352.415 -6.03168 0.653739 0
M  V30 3769 H 351.154 -4.87495 0.141232 0
M  V30 3770 H 350.159 -4.92414 2.44557 0
M  V30 3771 H 351.384 -6.11505 2.95362 0
M  V30 3772 H 349.33 -6.51745 0.74598 0
M  V30 3773 H 349.247 -7.18811 2.34195 0
M  V30 3774 H 350.515 -7.69172 1.26468 0
M  V30 3775 N 354.744 -0.972509 -1.24016 0
M  V30 3776 C 356.155 -0.67517 -1.74064 0
M  V30 3777 C 356.506 0.808939 -1.78747 0
M  V30 3778 O 355.631 1.63286 -1.42009 0
M  V30 3779 C 356.226 -1.21889 -3.16115 0
M  V30 3780 C 354.785 -0.971358 -3.6365 0
M  V30 3781 C 353.932 -1.35134 -2.42145 0
M  V30 3782 H 356.883 -1.14727 -1.09651 0
M  V30 3783 H 356.904 -0.587489 -3.75937 0
M  V30 3784 H 356.416 -2.29906 -3.12674 0
M  V30 3785 H 354.517 0.0930686 -3.72484 0
M  V30 3786 H 354.63 -1.62039 -4.50866 0
M  V30 3787 H 352.994 -0.769751 -2.4279 0
M  V30 3788 H 353.777 -2.4411 -2.41381 0
M  V30 3789 N 356.222 1.38976 -0.743202 0
M  V30 3790 C 357.447 2.05161 -0.303936 0
M  V30 3791 C 357.872 1.55677 1.05576 0
M  V30 3792 O 357.23 0.704131 1.67068 0
M  V30 3793 C 357.278 3.59138 -0.324373 0
M  V30 3794 O 356.382 4.06668 0.685204 0
M  V30 3795 H 355.723 0.649815 -0.136518 0
M  V30 3796 H 358.253 1.77852 -1.01142 0
M  V30 3797 H 358.263 4.07639 -0.171618 0
M  V30 3798 H 356.938 3.94515 -1.31647 0
M  V30 3799 H 355.515 3.69561 0.497913 0
M  V30 3800 N 357.7 0.491464 1.49741 0
M  V30 3801 C 358.647 -0.292027 2.28945 0
M  V30 3802 C 359.617 -0.968973 1.34908 0
M  V30 3803 O 360.802 -0.97748 1.6386 0
M  V30 3804 C 357.942 -1.35617 3.17336 0
M  V30 3805 C 357.055 -0.691957 4.26422 0
M  V30 3806 C 356.19 -1.73572 5.02042 0
M  V30 3807 C 355.229 -1.05286 6.02977 0
M  V30 3808 N 354.366 -2.0404 6.71798 0
M  V30 3809 H 359.206 0.389654 2.95442 0
M  V30 3810 H 356.743 0.204003 1.45679 0
M  V30 3811 H 358.701 -1.98502 3.66951 0
M  V30 3812 H 357.331 -2.00674 2.52844 0
M  V30 3813 H 356.383 0.0499523 3.80367 0
M  V30 3814 H 357.695 -0.153946 4.98562 0
M  V30 3815 H 356.849 -2.43987 5.55478 0
M  V30 3816 H 355.588 -2.30757 4.29654 0
M  V30 3817 H 354.593 -0.334446 5.48782 0
M  V30 3818 H 355.818 -0.487636 6.77347 0
M  V30 3819 H 353.764 -2.60205 6.02187 0
M  V30 3820 H 353.681 -1.55279 7.39881 0
M  V30 3821 H 354.949 -2.73772 7.29842 0
M  V30 3822 N 359.178 -1.55987 0.224894 0
M  V30 3823 C 360.589 -1.84553 -0.282345 0
M  V30 3824 C 360.94 -1.14634 -1.59227 0
M  V30 3825 O 360.065 -0.417155 -2.12341 0
M  V30 3826 C 360.66 -3.348 -0.519062 0
M  V30 3827 C 359.219 -3.63671 -0.970604 0
M  V30 3828 C 358.366 -2.77277 -0.0355261 0
M  V30 3829 H 361.317 -1.52245 0.448006 0
M  V30 3830 H 361.338 -3.55187 -1.36463 0
M  V30 3831 H 360.85 -3.8566 0.43449 0
M  V30 3832 H 358.951 -3.1827 -1.9374 0
M  V30 3833 H 359.064 -4.71631 -0.842698 0
M  V30 3834 H 357.428 -2.48846 -0.542927 0
M  V30 3835 H 358.211 -3.30937 0.913003 0
M  V30 3836 N 360.656 0.0484629 -1.57525 0
M  V30 3837 C 361.881 0.759177 -1.93006 0
M  V30 3838 C 362.306 1.69125 -0.823317 0
M  V30 3839 O 361.664 1.79931 0.222364 0
M  V30 3840 C 361.712 1.50899 -3.27509 0
M  V30 3841 O 360.816 2.62112 -3.18388 0
M  V30 3842 H 360.157 0.205564 -0.631379 0
M  V30 3843 H 362.687 0.00972959 -2.04598 0
M  V30 3844 H 362.697 1.88317 -3.6194 0
M  V30 3845 H 361.372 0.825269 -4.0763 0
M  V30 3846 H 359.949 2.27379 -2.95556 0
M  V30 3847 N 362.134 1.5431 0.320358 0
M  V30 3848 C 363.082 1.84647 1.4145 0
M  V30 3849 C 364.076 0.718624 1.53402 0
M  V30 3850 O 365.282 0.902335 1.5575 0
M  V30 3851 H 361.657 0.585349 0.472091 0
M  V30 3852 H 363.628 2.7614 1.13089 0
M  V30 3853 C 362.377 2.09341 2.77617 0
M  V30 3854 H 361.7 2.9559 2.69196 0
M  V30 3855 H 363.14 2.3452 3.53237 0
M  V30 3856 C 361.599 0.885939 3.25043 0
M  V30 3857 O 362.129 0.0967891 4.01583 0
M  V30 3858 N 360.335 0.696682 2.82125 0
M  V30 3859 H 359.882 1.34006 2.2 0
M  V30 3860 H 359.84 -0.109712 3.14209 0
M  V30 3861 O 363.651 -0.466303 1.54622 0
M  V30 3862 H 364.342 -1.12058 1.57996 0
M  V30 END ATOM
M  V30 BEGIN BOND
M  V30 END BOND
M  V30 END CTAB
M  END
$$$$
