drugbank_target|Q9UNI1 Chymotrypsin-like elastase family member 1 (DB01844; DB02114; DB02341; DB03202; DB03702; DB03757; DB03890; DB03925; DB06951; DB07433; DB07955; DB07956; DB07957; DB08007; DB08614; DB08640; DB08641)
 OpenBabel12092120383D

  0  0  0     0  0            999 V3000
M  V30 BEGIN CTAB
M  V30 COUNTS 3843 3886 0 0 0
M  V30 BEGIN ATOM
M  V30 1 H -0.908 1.98254 -0.117106 0
M  V30 2 N 0 1.576 0 0
M  V30 3 C 0.933 2.03868 1.02534 0
M  V30 4 C 1.911 0.928543 1.3348 0
M  V30 5 O 3.095 1.19667 1.45644 0
M  V30 6 C 0.222 2.43627 2.35294 0
M  V30 7 C -0.732 3.65373 2.2001 0
M  V30 8 S 0.101 5.13292 1.52614 0
M  V30 9 C 1.257 5.56322 2.86805 0
M  V30 10 H 1.49 2.90518 0.631377 0
M  V30 11 H -0.977 1.52953 0.210867 0
M  V30 12 H 0.981 2.67203 3.11629 0
M  V30 13 H -0.358 1.57376 2.7183 0
M  V30 14 H -1.165 3.90944 3.18086 0
M  V30 15 H -1.563 3.418 1.51819 0
M  V30 16 H 0.729 5.58782 3.83104 0
M  V30 17 H 1.672 6.56266 2.65933 0
M  V30 18 H 2.08 4.83886 2.90714 0
M  V30 19 N 1.4781 -0.272755 1.55222 0
M  V30 20 C 2.4081 -1.34136 1.91127 0
M  V30 21 C 3.3891 -1.51513 0.773168 0
M  V30 22 O 4.5741 -1.64552 1.03132 0
M  V30 23 C 1.7041 -2.70083 2.1834 0
M  V30 24 C 0.6581 -2.67437 3.34158 0
M  V30 25 C -0.0159 -4.06938 3.46851 0
M  V30 26 C 1.2841 -2.26686 4.70543 0
M  V30 27 H 2.9781 -1.04333 2.80633 0
M  V30 28 H 0.5241 -0.500454 1.35024 0
M  V30 29 H 2.4771 -3.44952 2.42046 0
M  V30 30 H 1.2011 -3.01469 1.25634 0
M  V30 31 H -0.1399 -1.95026 3.1042 0
M  V30 32 H -0.4919 -4.35547 2.51611 0
M  V30 33 H -0.7919 -4.06062 4.2472 0
M  V30 34 H 0.7321 -4.83545 3.72849 0
M  V30 35 H 2.1461 -2.91277 4.93792 0
M  V30 36 H 0.5431 -2.36971 5.5133 0
M  V30 37 H 1.6131 -1.21818 4.69349 0
M  V30 38 N 2.9562 -1.48159 -0.537278 0
M  V30 39 C 4.2022 -1.56035 -1.29541 0
M  V30 40 C 4.5352 -0.230377 -1.92829 0
M  V30 41 O 3.8102 0.762952 -1.78911 0
M  V30 42 C 4.0932 -2.69323 -2.39034 0
M  V30 43 C 3.9462 -4.12002 -1.80485 0
M  V30 44 C 5.2652 -2.78408 -3.40847 0
M  V30 45 H 2.3842 -0.567992 -0.469632 0
M  V30 46 H 5.0262 -1.80302 -0.599277 0
M  V30 47 H 3.1762 -2.48763 -2.98412 0
M  V30 48 H 4.8482 -4.43981 -1.25215 0
M  V30 49 H 3.0912 -4.19344 -1.11055 0
M  V30 50 H 3.7622 -4.87077 -2.59731 0
M  V30 51 H 6.2382 -2.97012 -2.91416 0
M  V30 52 H 5.1142 -3.59416 -4.14863 0
M  V30 53 H 5.3752 -1.86269 -4.00944 0
M  V30 54 N 4.4343 0.785586 -1.36625 0
M  V30 55 C 5.3643 1.91259 -1.33949 0
M  V30 56 C 6.3453 1.68795 -0.210325 0
M  V30 57 O 7.5303 1.89854 -0.408561 0
M  V30 58 C 4.6603 3.28339 -1.13186 0
M  V30 59 C 3.6143 3.65335 -2.22967 0
M  V30 60 C 2.9403 5.00806 -1.87342 0
M  V30 61 C 4.2403 3.7352 -3.65075 0
M  V30 62 H 5.9343 1.93755 -2.28253 0
M  V30 63 H 3.4803 0.930788 -1.09874 0
M  V30 64 H 5.4333 4.06804 -1.09948 0
M  V30 65 H 4.1573 3.2624 -0.153332 0
M  V30 66 H 2.8163 2.89169 -2.25337 0
M  V30 67 H 2.4643 4.95233 -0.880545 0
M  V30 68 H 2.1643 5.26529 -2.60846 0
M  V30 69 H 3.6883 5.81687 -1.85667 0
M  V30 70 H 5.1023 4.42168 -3.64911 0
M  V30 71 H 3.4993 4.10731 -4.37516 0
M  V30 72 H 4.5693 2.74527 -3.99703 0
M  V30 73 N 5.9124 1.20967 1.01018 0
M  V30 74 C 7.1424 1.04803 1.78044 0
M  V30 75 C 7.5504 -0.405462 1.84804 0
M  V30 76 O 6.8934 -1.2932 1.30468 0
M  V30 77 C 6.9554 1.56377 3.23707 0
M  V30 78 C 6.6194 3.04767 3.40538 0
M  V30 79 C 7.6164 4.02366 3.29239 0
M  V30 80 C 5.3014 3.43862 3.66147 0
M  V30 81 C 7.2954 5.37049 3.43304 0
M  V30 82 C 4.9824 4.78699 3.79855 0
M  V30 83 C 5.9804 5.75101 3.68439 0
M  V30 84 O 5.6684 7.07493 3.81719 0
M  V30 85 H 5.4004 0.368778 0.56655 0
M  V30 86 H 7.9544 1.60642 1.27997 0
M  V30 87 H 6.1844 0.949297 3.74867 0
M  V30 88 H 7.8734 1.36136 3.8239 0
M  V30 89 H 8.6394 3.73506 3.09384 0
M  V30 90 H 4.5184 2.69364 3.74118 0
M  V30 91 H 8.0624 6.12277 3.34309 0
M  V30 92 H 3.9594 5.07247 3.99213 0
M  V30 93 H 4.7274 7.1483 3.98697 0
M  V30 94 N 7.3905 -1.2043 1.01659 0
M  V30 95 C 8.6385 -1.89423 0.704522 0
M  V30 96 C 8.9595 -1.79231 -0.768197 0
M  V30 97 O 8.2295 -1.1947 -1.55254 0
M  V30 98 H 6.8095 -0.701178 0.257602 0
M  V30 99 H 9.4715 -1.4626 1.28818 0
M  V30 100 H 8.5675 -2.96052 0.987916 0
M  V30 101 N 8.8686 -0.792821 -1.36206 0
M  V30 102 C 9.8186 -0.166598 -2.27391 0
M  V30 103 C 10.8026 0.651479 -1.47121 0
M  V30 104 O 11.9946 0.510994 -1.69463 0
M  V30 105 C 9.1236 0.695033 -3.36191 0
M  V30 106 C 8.2096 -0.132019 -4.23894 0
M  V30 107 N 8.6006 -1.18822 -4.91645 0
M  V30 108 C 6.8986 0.0885952 -4.45912 0
M  V30 109 C 7.5996 -1.69198 -5.56549 0
M  V30 110 N 6.5756 -1.00065 -5.34311 0
M  V30 111 H 10.3776 -0.974947 -2.77258 0
M  V30 112 H 7.8916 -0.632616 -1.49572 0
M  V30 113 H 9.8886 1.1596 -4.00448 0
M  V30 114 H 8.5486 1.50189 -2.87877 0
M  V30 115 H 9.5596 -1.57069 -4.93507 0
M  V30 116 H 6.2366 0.865688 -4.08426 0
M  V30 117 H 7.6266 -2.57395 -6.20643 0
M  V30 118 N 10.3467 1.47872 -0.545128 0
M  V30 119 C 11.5717 2.07391 -0.0190611 0
M  V30 120 C 11.9967 1.39688 1.25971 0
M  V30 121 O 11.3547 0.467816 1.7516 0
M  V30 122 C 11.4027 3.60188 0.172335 0
M  V30 123 O 10.5067 3.9339 1.23766 0
M  V30 124 H 9.8477 0.662411 -0.0459059 0
M  V30 125 H 12.3777 1.90066 -0.757365 0
M  V30 126 H 12.3877 4.06129 0.390305 0
M  V30 127 H 11.0627 4.08865 -0.761725 0
M  V30 128 H 9.6397 3.5921 1.00114 0
M  V30 129 N 11.8248 0.280983 1.55075 0
M  V30 130 C 13.0528 -0.337293 2.04132 0
M  V30 131 C 13.4678 -1.4903 1.15912 0
M  V30 132 O 12.8248 -1.81606 0.180459 0
M  V30 133 C 12.8758 -0.812706 3.52246 0
M  V30 134 O 12.5968 0.294387 4.3711 0
M  V30 135 C 14.0978 -1.4982 4.17216 0
M  V30 136 H 11.3178 -0.0761638 0.666663 0
M  V30 137 H 13.8618 0.414787 2.00249 0
M  V30 138 H 12.0168 -1.51486 3.56554 0
M  V30 139 H 12.4308 -0.0721325 5.2445 0
M  V30 140 H 13.9048 -1.7822 5.22438 0
M  V30 141 H 14.3818 -2.43168 3.65741 0
M  V30 142 H 14.9878 -0.839742 4.16927 0
M  V30 143 N 13.3029 -1.57598 0.00835791 0
M  V30 144 C 14.2349 -2.05811 -1.00868 0
M  V30 145 C 15.2479 -0.977579 -1.30182 0
M  V30 146 O 16.4369 -1.25421 -1.27011 0
M  V30 147 C 13.5369 -2.45016 -2.34137 0
M  V30 148 C 12.7099 -3.75903 -2.23643 0
M  V30 149 C 11.7689 -4.01884 -3.3967 0
M  V30 150 O 10.7949 -4.72433 -3.17483 0
M  V30 151 N 11.9969 -3.50432 -4.62793 0
M  V30 152 H 14.7619 -2.93684 -0.597458 0
M  V30 153 H 12.3229 -1.60909 -0.178852 0
M  V30 154 H 14.3149 -2.59506 -3.10546 0
M  V30 155 H 12.8849 -1.62618 -2.66972 0
M  V30 156 H 12.1049 -3.7141 -1.32091 0
M  V30 157 H 13.3929 -4.61695 -2.13812 0
M  V30 158 H 12.7909 -2.93317 -4.83716 0
M  V30 159 H 11.3479 -3.70236 -5.3644 0
M  V30 160 N 14.781 0.264519 -1.55364 0
M  V30 161 C 16.058 1.01677 -1.67096 0
M  V30 162 C 16.438 2.03996 -0.543015 0
M  V30 163 O 15.786 2.23907 0.45585 0
M  V30 164 C 15.996 1.66596 -3.0667 0
M  V30 165 C 17.344 2.17442 -3.64697 0
M  V30 166 O 18.368 1.76568 -3.09358 0
M  V30 167 O 17.227 2.92439 -4.61673 0
M  V30 168 H 14.321 0.472161 -0.678965 0
M  V30 169 H 16.867 0.259703 -1.67701 0
M  V30 170 H 15.639 0.924962 -3.80211 0
M  V30 171 H 15.262 2.48968 -3.10001 0
M  V30 172 N 16.2591 1.48442 0.529413 0
M  V30 173 C 17.1891 1.65902 1.64313 0
M  V30 174 C 18.1701 0.507897 1.6234 0
M  V30 175 O 19.3551 0.740503 1.79528 0
M  V30 176 C 16.4851 1.69911 3.02898 0
M  V30 177 C 15.4391 2.8453 3.19729 0
M  V30 178 C 14.7651 2.73629 4.59381 0
M  V30 179 C 16.0651 4.25821 3.02447 0
M  V30 180 H 17.7591 2.5914 1.49955 0
M  V30 181 H 15.3051 1.24709 0.719982 0
M  V30 182 H 17.2581 1.80715 3.80684 0
M  V30 183 H 15.9821 0.732524 3.18279 0
M  V30 184 H 14.6411 2.73283 2.44361 0
M  V30 185 H 14.2891 1.74938 4.71599 0
M  V30 186 H 13.9891 3.50541 4.71588 0
M  V30 187 H 15.5131 2.86401 5.39265 0
M  V30 188 H 16.9271 4.37898 3.70024 0
M  V30 189 H 15.3241 5.03735 3.26146 0
M  V30 190 H 16.3941 4.42244 1.98867 0
M  V30 191 N 17.7372 -0.778329 1.37039 0
M  V30 192 C 19.1482 -1.35421 1.28523 0
M  V30 193 C 19.4992 -1.96075 -0.0700901 0
M  V30 194 O 18.6242 -1.93352 -0.971801 0
M  V30 195 C 19.2192 -2.46211 2.32735 0
M  V30 196 C 17.7782 -2.99585 2.27873 0
M  V30 197 C 16.9252 -1.72748 2.16918 0
M  V30 198 H 19.8762 -0.5791 1.47757 0
M  V30 199 H 19.8972 -3.2552 1.9702 0
M  V30 200 H 19.4092 -2.02036 3.31365 0
M  V30 201 H 17.5102 -3.48152 1.32745 0
M  V30 202 H 17.6232 -3.55646 3.21018 0
M  V30 203 H 15.9872 -1.95416 1.63354 0
M  V30 204 H 16.7702 -1.30686 3.17452 0
M  V30 205 N 19.2153 -1.21501 -1.00376 0
M  V30 206 C 20.1253 -0.991447 -2.12621 0
M  V30 207 C 21.1413 0.0568446 -1.73907 0
M  V30 208 O 22.3173 -0.13348 -2.00957 0
M  V30 209 C 19.3823 -0.560312 -3.42142 0
M  V30 210 C 18.4433 -1.68096 -3.95022 0
M  V30 211 C 17.6763 -1.2703 -5.18362 0
M  V30 212 O 17.8993 -0.144438 -5.70217 0
M  V30 213 O 16.8333 -2.08269 -5.64719 0
M  V30 214 H 20.6593 -1.93158 -2.34358 0
M  V30 215 H 18.2443 -0.999999 -1.10997 0
M  V30 216 H 20.1263 -0.329724 -4.20108 0
M  V30 217 H 18.8013 0.351089 -3.2179 0
M  V30 218 H 17.7083 -1.96597 -3.18278 0
M  V30 219 H 19.0413 -2.56983 -4.19786 0
M  V30 220 N 20.6934 1.19889 -1.02296 0
M  V30 221 C 21.9214 1.9339 -0.735399 0
M  V30 222 C 22.3364 1.75148 0.704887 0
M  V30 223 O 21.6934 1.06954 1.47875 0
M  V30 224 C 21.7444 3.45313 -1.06962 0
M  V30 225 O 21.4654 3.62964 -2.45334 0
M  V30 226 C 22.9664 4.35948 -0.804021 0
M  V30 227 H 20.1864 0.61448 -0.269546 0
M  V30 228 H 22.7304 1.522 -1.36585 0
M  V30 229 H 20.8854 3.84359 -0.484455 0
M  V30 230 H 21.2994 4.56886 -2.57595 0
M  V30 231 H 22.7734 5.41174 -1.0879 0
M  V30 232 H 23.2504 4.3842 0.261691 0
M  V30 233 H 23.8564 4.02574 -1.37164 0
M  V30 234 N 22.1715 0.800033 1.35784 0
M  V30 235 C 23.1195 0.193851 2.31791 0
M  V30 236 C 24.1135 -0.652744 1.56319 0
M  V30 237 O 25.3195 -0.546641 1.71499 0
M  V30 238 H 21.6945 0.04392 0.750716 0
M  V30 239 H 23.6655 1.01883 2.80468 0
M  V30 240 C 22.4145 -0.648338 3.41602 0
M  V30 241 H 21.7375 -0.00624665 3.998 0
M  V30 242 H 23.1775 -1.03898 4.11073 0
M  V30 243 C 21.6365 -1.8111 2.84079 0
M  V30 244 O 22.1665 -2.90825 2.77099 0
M  V30 245 N 20.3725 -1.62056 2.41218 0
M  V30 246 H 19.9195 -0.728123 2.47095 0
M  V30 247 H 19.8775 -2.40013 2.03079 0
M  V30 248 N 23.6496 -1.47581 0.552962 0
M  V30 249 C 24.6126 -2.28439 -0.186605 0
M  V30 250 C 25.6126 -1.36706 -0.84665 0
M  V30 251 O 26.8026 -1.59378 -0.703164 0
M  V30 252 C 23.9346 -3.16264 -1.2724 0
M  V30 253 H 25.1276 -2.95294 0.523609 0
M  V30 254 H 22.6806 -1.532 0.309745 0
M  V30 255 H 23.4156 -2.54091 -2.01514 0
M  V30 256 H 23.2006 -3.83769 -0.803968 0
M  V30 257 H 24.6906 -3.77198 -1.79196 0
M  V30 258 N 25.1277 -0.289203 -1.54924 0
M  V30 259 C 26.5437 0.0645403 -1.59469 0
M  V30 260 C 26.7437 1.53419 -1.30632 0
M  V30 261 O 25.7997 2.2852 -1.074 0
M  V30 262 C 27.1127 -0.32278 -2.98963 0
M  V30 263 C 28.6607 -0.270564 -3.11828 0
M  V30 264 C 29.1357 -0.632532 -4.53611 0
M  V30 265 N 30.6267 -0.584617 -4.59496 0
M  V30 266 C 31.3617 -0.837314 -5.67254 0
M  V30 267 N 30.8577 -1.15536 -6.83098 0
M  V30 268 N 32.6507 -0.765166 -5.56868 0
M  V30 269 H 24.8017 -1.24714 -1.71931 0
M  V30 270 H 27.0647 -0.504809 -0.802416 0
M  V30 271 H 26.7707 -1.34541 -3.24948 0
M  V30 272 H 26.6447 0.32944 -3.75759 0
M  V30 273 H 29.0317 0.742805 -2.85598 0
M  V30 274 H 29.1127 -0.957242 -2.37214 0
M  V30 275 H 28.7567 -1.64365 -4.80569 0
M  V30 276 H 28.6867 0.07609 -5.26545 0
M  V30 277 H 31.1777 -0.349248 -3.76283 0
M  V30 278 H 31.4907 -1.33447 -7.61191 0
M  V30 279 H 29.8357 -1.19328 -6.84679 0
M  V30 280 H 33.0267 -0.516432 -4.65243 0
M  V30 281 H 33.1997 -0.965477 -6.40767 0
M  V30 282 N 26.6058 1.57591 -0.0167156 0
M  V30 283 C 27.8518 1.91567 0.665582 0
M  V30 284 C 28.1848 0.892298 1.72487 0
M  V30 285 O 27.4598 -0.0867127 1.94307 0
M  V30 286 C 27.7428 3.36069 1.29342 0
M  V30 287 C 27.5958 4.49135 0.244541 0
M  V30 288 C 28.9148 3.803 2.21495 0
M  V30 289 H 26.0338 0.69666 0.240488 0
M  V30 290 H 28.6758 1.89866 -0.0714356 0
M  V30 291 H 26.8258 3.3765 1.92158 0
M  V30 292 H 28.4978 4.59689 -0.385228 0
M  V30 293 H 26.7408 4.3165 -0.431379 0
M  V30 294 H 27.4118 5.47242 0.723207 0
M  V30 295 H 29.8878 3.80377 1.68678 0
M  V30 296 H 28.7638 4.82127 2.62382 0
M  V30 297 H 29.0248 3.15104 3.101 0
M  V30 298 N 28.0839 -0.256276 1.55502 0
M  V30 299 C 29.3299 -0.987079 1.77157 0
M  V30 300 C 29.6629 -1.85327 0.580315 0
M  V30 301 O 28.9379 -1.89874 -0.421686 0
M  V30 302 C 29.2209 -1.85553 3.08613 0
M  V30 303 C 29.0739 -1.01816 4.38125 0
M  V30 304 C 30.3929 -2.8397 3.36228 0
M  V30 305 H 27.5119 -0.357428 0.644526 0
M  V30 306 H 30.1539 -0.258239 1.88237 0
M  V30 307 H 28.3039 -2.47695 2.99298 0
M  V30 308 H 29.9759 -0.416159 4.59419 0
M  V30 309 H 28.2189 -0.322178 4.32602 0
M  V30 310 H 28.8899 -1.65939 5.26468 0
M  V30 311 H 31.3659 -2.31964 3.45445 0
M  V30 312 H 30.2419 -3.41864 4.29442 0
M  V30 313 H 30.5029 -3.59955 2.56681 0
M  V30 314 N 29.562 -1.4872 -0.521534 0
M  V30 315 C 30.81 -1.56857 -1.27437 0
M  V30 316 C 31.131 -0.247982 -1.93417 0
M  V30 317 O 30.401 0.731151 -1.81744 0
M  V30 318 H 28.981 -0.577885 -0.473347 0
M  V30 319 H 31.643 -1.85233 -0.606205 0
M  V30 320 H 30.739 -2.35402 -2.0492 0
M  V30 321 N 31.0401 0.771051 -1.3745 0
M  V30 322 C 32.2881 1.52661 -1.32435 0
M  V30 323 C 32.6091 1.9479 0.0905024 0
M  V30 324 O 31.8791 1.66348 1.03466 0
M  V30 325 H 30.4591 0.566218 -0.487244 0
M  V30 326 H 33.1211 0.917636 -1.71946 0
M  V30 327 H 32.2171 2.42568 -1.96385 0
M  V30 328 N 32.5182 1.22032 0.997298 0
M  V30 329 C 33.7462 1.06841 1.7718 0
M  V30 330 C 34.1612 -0.381325 1.84909 0
M  V30 331 O 33.5182 -1.26437 1.31605 0
M  V30 332 C 33.5692 1.66814 3.20711 0
M  V30 333 O 33.2902 3.06116 3.13408 0
M  V30 334 C 34.7912 1.56838 4.14628 0
M  V30 335 H 32.0112 0.374782 0.556578 0
M  V30 336 H 34.5552 1.61532 1.2541 0
M  V30 337 H 32.7102 1.16196 3.69564 0
M  V30 338 H 33.1242 3.34926 4.0364 0
M  V30 339 H 34.5982 2.03532 5.13107 0
M  V30 340 H 35.0752 0.524155 4.36061 0
M  V30 341 H 35.6812 2.06741 3.7167 0
M  V30 342 N 33.9963 -1.19345 1.0293 0
M  V30 343 C 34.9063 -2.26245 0.620515 0
M  V30 344 C 35.9223 -1.70486 -0.347928 0
M  V30 345 O 37.0983 -2.00347 -0.205704 0
M  V30 346 C 34.1633 -3.46693 -0.0218957 0
M  V30 347 C 33.2243 -4.17632 0.994102 0
M  V30 348 C 32.4573 -5.32329 0.382253 0
M  V30 349 O 32.6803 -5.64552 -0.814676 0
M  V30 350 O 31.6143 -5.91664 1.10531 0
M  V30 351 H 35.4403 -2.63453 1.51083 0
M  V30 352 H 33.0253 -1.26207 0.799513 0
M  V30 353 H 34.9073 -4.19683 -0.380072 0
M  V30 354 H 33.5823 -3.11333 -0.886209 0
M  V30 355 H 32.4893 -3.4676 1.40387 0
M  V30 356 H 33.8223 -4.56964 1.8288 0
M  V30 357 N 35.4744 -0.807222 -1.35358 0
M  V30 358 C 36.4374 -0.223665 -2.28106 0
M  V30 359 C 37.4374 0.589354 -1.4961 0
M  V30 360 O 38.6274 0.407745 -1.69361 0
M  V30 361 C 35.7594 0.688149 -3.33882 0
M  V30 362 H 36.9524 -1.04169 -2.81227 0
M  V30 363 H 34.5054 -0.577921 -1.45223 0
M  V30 364 H 35.2404 1.52984 -2.85948 0
M  V30 365 H 35.0254 0.10687 -3.91954 0
M  V30 366 H 36.5154 1.09075 -4.03104 0
M  V30 367 N 36.9525 1.47285 -0.560781 0
M  V30 368 C 38.2005 2.02064 -0.0379868 0
M  V30 369 C 38.5215 1.43711 1.31803 0
M  V30 370 O 37.7915 0.61362 1.86042 0
M  V30 371 H 36.3715 0.746918 -0.0110531 0
M  V30 372 H 39.0335 1.80648 -0.731598 0
M  V30 373 H 38.1295 3.12064 0.0474463 0
M  V30 374 N 38.4306 0.297415 1.54768 0
M  V30 375 C 39.8466 -0.0560823 1.59501 0
M  V30 376 C 40.0466 -1.52725 1.31444 0
M  V30 377 O 39.1026 -2.27947 1.08611 0
M  V30 378 C 40.4156 0.338631 2.98787 0
M  V30 379 C 41.9636 0.287097 3.11681 0
M  V30 380 C 42.4386 0.656579 4.53269 0
M  V30 381 N 43.9296 0.608977 4.59179 0
M  V30 382 C 44.6646 0.867385 5.66802 0
M  V30 383 N 44.1606 1.19157 6.82476 0
M  V30 384 N 45.9536 0.794687 5.56454 0
M  V30 385 H 38.1046 1.25624 1.71267 0
M  V30 386 H 40.3676 0.509057 0.799728 0
M  V30 387 H 40.0736 1.36263 3.2423 0
M  V30 388 H 39.9476 -0.309508 3.75928 0
M  V30 389 H 42.3346 -0.727649 2.85988 0
M  V30 390 H 42.4156 0.969809 2.36703 0
M  V30 391 H 42.0596 1.66912 4.7969 0
M  V30 392 H 41.9896 -0.0481649 5.26578 0
M  V30 393 H 44.4806 0.369198 3.76092 0
M  V30 394 H 44.7936 1.37482 7.60473 0
M  V30 395 H 43.1386 1.22958 6.84037 0
M  V30 396 H 46.3296 0.541098 4.64962 0
M  V30 397 H 46.5026 0.999445 6.40246 0
M  V30 398 N 39.9087 -1.5758 0.0250728 0
M  V30 399 C 40.8567 -2.11125 -0.97617 0
M  V30 400 C 41.8507 -1.03689 -1.33959 0
M  V30 401 O 43.0567 -1.22128 -1.3223 0
M  V30 402 H 39.4317 -0.674468 -0.332561 0
M  V30 403 H 41.4027 -2.94194 -0.499223 0
M  V30 404 C 40.1517 -2.65017 -2.2508 0
M  V30 405 H 39.4747 -3.47333 -1.9799 0
M  V30 406 H 40.9147 -3.06133 -2.93357 0
M  V30 407 C 39.3737 -1.57574 -2.97779 0
M  V30 408 O 39.9037 -0.973203 -3.89733 0
M  V30 409 N 38.1097 -1.29716 -2.60043 0
M  V30 410 H 37.6567 -1.789 -1.85345 0
M  V30 411 H 37.6147 -0.58051 -3.08994 0
M  V30 412 N 41.3868 0.248026 -1.55636 0
M  V30 413 C 42.6118 0.998028 -1.81808 0
M  V30 414 C 43.0368 1.78207 -0.601979 0
M  V30 415 O 42.3948 1.75653 0.448961 0
M  V30 416 C 42.4428 1.9125 -3.05705 0
M  V30 417 O 41.5468 3.00406 -2.82542 0
M  V30 418 H 40.8878 0.284045 -0.600179 0
M  V30 419 H 43.4178 0.269357 -2.02819 0
M  V30 420 H 43.4278 2.32737 -3.35108 0
M  V30 421 H 42.1028 1.33602 -3.93857 0
M  V30 422 H 40.6798 2.63056 -2.64303 0
M  V30 423 N 42.8649 1.48995 0.513639 0
M  V30 424 C 44.1109 1.59053 1.26783 0
M  V30 425 C 44.4659 0.268136 1.90522 0
M  V30 426 O 43.7589 -0.730534 1.77126 0
M  V30 427 C 43.9529 2.67756 2.36731 0
M  V30 428 C 43.7819 4.10437 1.83771 0
M  V30 429 C 42.5519 4.7738 1.65639 0
M  V30 430 C 44.7499 4.9608 1.35681 0
M  V30 431 N 42.7319 6.04419 1.07476 0
M  V30 432 C 44.1029 6.13496 0.895715 0
M  V30 433 C 46.1579 4.82177 1.24136 0
M  V30 434 C 44.8609 7.1854 0.3306 0
M  V30 435 C 46.8869 5.87358 0.690229 0
M  V30 436 C 46.2489 7.03993 0.239292 0
M  V30 437 H 42.3479 0.636463 0.454355 0
M  V30 438 H 44.9319 1.85948 0.577196 0
M  V30 439 H 43.1029 2.42655 3.03271 0
M  V30 440 H 44.8349 2.67406 3.0377 0
M  V30 441 H 41.5899 4.33974 1.8964 0
M  V30 442 H 42.0139 6.72214 0.803579 0
M  V30 443 H 46.6559 3.92329 1.57601 0
M  V30 444 H 44.3739 8.08098 -0.0163435 0
M  V30 445 H 47.9599 5.78658 0.603852 0
M  V30 446 H 46.8399 7.83992 -0.180526 0
M  V30 447 N 44.343 -0.763751 1.37857 0
M  V30 448 C 45.754 -1.3405 1.29952 0
M  V30 449 C 46.105 -1.96138 -0.0492898 0
M  V30 450 O 45.23 -1.94372 -0.951239 0
M  V30 451 C 45.825 -2.43729 2.35333 0
M  V30 452 C 44.384 -2.97151 2.31037 0
M  V30 453 C 43.531 -1.70438 2.18738 0
M  V30 454 H 46.482 -0.563396 1.48363 0
M  V30 455 H 46.503 -3.23412 2.00462 0
M  V30 456 H 46.015 -1.9851 3.33489 0
M  V30 457 H 44.116 -3.46724 1.3643 0
M  V30 458 H 44.229 -3.52221 3.24772 0
M  V30 459 H 42.593 -1.93673 1.65418 0
M  V30 460 H 43.376 -1.27312 3.18821 0
M  V30 461 N 45.8211 -1.22559 -0.990812 0
M  V30 462 C 47.0461 -1.07862 -1.77145 0
M  V30 463 C 47.4711 0.366447 -1.84496 0
M  V30 464 O 46.8291 1.26478 -1.29896 0
M  V30 465 C 46.8771 -1.69686 -3.18181 0
M  V30 466 O 45.9811 -0.951946 -4.01263 0
M  V30 467 H 45.3221 -0.378712 -0.545411 0
M  V30 468 H 47.8521 -1.62399 -1.2445 0
M  V30 469 H 47.8621 -1.74496 -3.68802 0
M  V30 470 H 46.5371 -2.74841 -3.12146 0
M  V30 471 H 45.1141 -0.980011 -3.59792 0
M  V30 472 N 47.2992 1.18797 -1.03562 0
M  V30 473 C 48.2312 2.21731 -0.580337 0
M  V30 474 C 49.2442 1.59051 0.347349 0
M  V30 475 O 50.4332 1.77929 0.142669 0
M  V30 476 C 47.5332 3.38459 0.172805 0
M  V30 477 C 46.7062 4.3072 -0.761496 0
M  V30 478 C 45.7652 5.26174 -0.0525547 0
M  V30 479 O 44.7912 5.65108 -0.681333 0
M  V30 480 N 45.9932 5.67624 1.21586 0
M  V30 481 H 48.7582 2.61417 -1.46565 0
M  V30 482 H 46.3192 1.33531 -0.915476 0
M  V30 483 H 48.3112 3.99335 0.656793 0
M  V30 484 H 46.8812 2.97507 0.959602 0
M  V30 485 H 46.1012 3.67525 -1.42544 0
M  V30 486 H 47.3892 4.89267 -1.39626 0
M  V30 487 H 46.7872 5.38038 1.74732 0
M  V30 488 H 45.3442 6.30721 1.64421 0
M  V30 489 N 48.7773 0.814389 1.34928 0
M  V30 490 C 50.0263 0.394871 1.97797 0
M  V30 491 C 50.3393 -1.04555 1.65311 0
M  V30 492 O 51.5453 -1.56856 2.21604 0
M  V30 493 C 50.0013 0.655103 3.53888 0
M  V30 494 C 49.6093 2.10858 3.95276 0
M  V30 495 C 51.3533 0.301329 4.23429 0
M  V30 496 C 49.2603 2.31415 5.44244 0
M  V30 497 H 48.1903 0.143913 0.740139 0
M  V30 498 H 50.8413 0.999544 1.53888 0
M  V30 499 H 49.2233 -0.0196253 3.95995 0
M  V30 500 H 50.3973 2.82176 3.64298 0
M  V30 501 H 48.7123 2.42297 3.38646 0
M  V30 502 H 51.3093 0.432869 5.32945 0
M  V30 503 H 51.6523 -0.75331 4.09428 0
M  V30 504 H 52.1853 0.930288 3.86769 0
M  V30 505 H 48.9243 3.35353 5.63222 0
M  V30 506 H 48.4443 1.6463 5.76764 0
M  V30 507 H 50.1233 2.13352 6.10811 0
M  V30 508 N 50.2554 -1.46986 0.568584 0
M  V30 509 C 51.4804 -2.07335 0.0520528 0
M  V30 510 C 51.9054 -1.41675 -1.23733 0
M  V30 511 O 51.2634 -0.495623 -1.74394 0
M  V30 512 C 51.3114 -3.60417 -0.11501 0
M  V30 513 O 50.4154 -3.95309 -1.17492 0
M  V30 514 H 49.7564 -0.661597 0.0564385 0
M  V30 515 H 52.2864 -1.88837 0.787507 0
M  V30 516 H 52.2964 -4.06698 -0.325644 0
M  V30 517 H 50.9714 -4.07601 0.826675 0
M  V30 518 H 49.5484 -3.60757 -0.943869 0
M  V30 519 N 51.7335 -0.305618 -1.54608 0
M  V30 520 C 52.6635 0.561482 -2.26649 0
M  V30 521 C 53.6445 1.13415 -1.26772 0
M  V30 522 O 54.8295 1.16262 -1.55553 0
M  V30 523 C 51.9595 1.73122 -3.01075 0
M  V30 524 C 50.9135 1.2887 -4.08138 0
M  V30 525 C 50.2395 2.54396 -4.70305 0
M  V30 526 C 51.5395 0.416578 -5.20636 0
M  V30 527 H 53.2335 -0.0393902 -2.99374 0
M  V30 528 H 50.7795 -0.020385 -1.43986 0
M  V30 529 H 52.7325 2.34396 -3.50195 0
M  V30 530 H 51.4565 2.3584 -2.25936 0
M  V30 531 H 50.1155 0.698991 -3.59875 0
M  V30 532 H 49.7635 3.15439 -3.918 0
M  V30 533 H 49.4635 2.25486 -5.42614 0
M  V30 534 H 50.9875 3.16464 -5.2219 0
M  V30 535 H 52.4015 0.935116 -5.65622 0
M  V30 536 H 50.7985 0.221046 -5.99693 0
M  V30 537 H 51.8685 -0.557162 -4.81688 0
M  V30 538 N 53.2116 1.57565 -0.0334293 0
M  V30 539 C 54.1436 2.0739 0.975811 0
M  V30 540 C 55.1566 0.998166 1.2861 0
M  V30 541 O 56.3456 1.27426 1.25 0
M  V30 542 C 53.4456 2.4871 2.30209 0
M  V30 543 C 52.6186 3.79413 2.17634 0
M  V30 544 C 51.6776 4.07237 3.33233 0
M  V30 545 O 50.7036 4.77425 3.09927 0
M  V30 546 N 51.9056 3.5775 4.5716 0
M  V30 547 H 54.6706 2.94598 0.55066 0
M  V30 548 H 52.2316 1.61173 0.15323 0
M  V30 549 H 54.2236 2.64413 3.06378 0
M  V30 550 H 52.7936 1.66845 2.64351 0
M  V30 551 H 52.0136 3.73465 1.26165 0
M  V30 552 H 53.3016 4.65038 2.0644 0
M  V30 553 H 52.6996 3.00976 4.78989 0
M  V30 554 H 51.2566 3.78724 5.30482 0
M  V30 555 N 54.6897 -0.239769 1.55765 0
M  V30 556 C 55.9197 -0.982743 1.8173 0
M  V30 557 C 56.3277 -1.7917 0.607835 0
M  V30 558 O 55.6707 -1.78525 -0.432973 0
M  V30 559 C 55.7327 -1.96332 3.01155 0
M  V30 560 C 55.3967 -1.34062 4.36894 0
M  V30 561 C 56.3937 -0.739539 5.14613 0
M  V30 562 C 54.0787 -1.35784 4.83599 0
M  V30 563 C 56.0727 -0.163989 6.37189 0
M  V30 564 C 53.7597 -0.778441 6.06122 0
M  V30 565 C 54.7577 -0.182548 6.82756 0
M  V30 566 O 54.4457 0.387887 8.02964 0
M  V30 567 H 54.1777 -0.294481 0.608487 0
M  V30 568 H 56.7317 -0.26572 2.03674 0
M  V30 569 H 54.9617 -2.71884 2.74984 0
M  V30 570 H 56.6507 -2.57032 3.14149 0
M  V30 571 H 57.4167 -0.718687 4.79646 0
M  V30 572 H 53.2957 -1.81105 4.23936 0
M  V30 573 H 56.8397 0.301753 6.96947 0
M  V30 574 H 52.7367 -0.796645 6.40565 0
M  V30 575 H 53.5047 0.28044 8.18019 0
M  V30 576 N 56.1678 -1.49265 -0.50573 0
M  V30 577 C 57.5838 -1.35923 -0.836486 0
M  V30 578 C 57.7838 -0.388704 -1.97715 0
M  V30 579 O 56.8398 0.181336 -2.51848 0
M  V30 580 C 58.1528 -2.76531 -1.18115 0
M  V30 581 C 59.7008 -2.85197 -1.28964 0
M  V30 582 C 60.1758 -4.26561 -1.66761 0
M  V30 583 N 61.6668 -4.2935 -1.73819 0
M  V30 584 C 62.4018 -5.35693 -2.045 0
M  V30 585 N 61.8978 -6.52287 -2.33438 0
M  V30 586 N 63.6908 -5.23105 -2.05711 0
M  V30 587 H 55.8418 -2.10965 0.246519 0
M  V30 588 H 58.1048 -0.9468 0.0476887 0
M  V30 589 H 57.8108 -3.49226 -0.416398 0
M  V30 590 H 57.6848 -3.11599 -2.1257 0
M  V30 591 H 60.0718 -2.12742 -2.04511 0
M  V30 592 H 60.1528 -2.53718 -0.325704 0
M  V30 593 H 59.7968 -4.99541 -0.917656 0
M  V30 594 H 59.7268 -4.55502 -2.64246 0
M  V30 595 H 62.2178 -3.4526 -1.53635 0
M  V30 596 H 62.5308 -7.29158 -2.56024 0
M  V30 597 H 60.8758 -6.55521 -2.30905 0
M  V30 598 H 64.0668 -4.31026 -1.82577 0
M  V30 599 H 64.2398 -6.06078 -2.29289 0
M  V30 600 N 57.6459 0.756429 -1.3826 0
M  V30 601 C 58.8709 1.55077 -1.37717 0
M  V30 602 C 59.2959 1.88073 0.03164 0
M  V30 603 O 58.6539 1.50364 1.01293 0
M  V30 604 C 58.7019 2.8283 -2.23695 0
M  V30 605 O 57.8059 3.77862 -1.6521 0
M  V30 606 H 57.1469 0.469152 -0.469885 0
M  V30 607 H 59.6769 0.935019 -1.81985 0
M  V30 608 H 59.6869 3.31783 -2.37453 0
M  V30 609 H 58.3619 2.58144 -3.2609 0
M  V30 610 H 56.9389 3.36555 -1.60578 0
M  V30 611 N 59.124 1.23083 0.984299 0
M  V30 612 C 60.372 1.05848 1.72165 0
M  V30 613 C 60.693 -0.406049 1.90726 0
M  V30 614 O 59.963 -1.29139 1.47309 0
M  V30 615 H 58.543 0.388685 0.637913 0
M  V30 616 H 61.205 1.54736 1.18503 0
M  V30 617 H 60.301 1.54327 2.71274 0
M  V30 618 N 60.6021 -1.18246 1.0419 0
M  V30 619 C 61.8501 -1.87886 0.744543 0
M  V30 620 C 62.1711 -1.8082 -0.730006 0
M  V30 621 O 61.4411 -1.22736 -1.52685 0
M  V30 622 H 60.0211 -0.695556 0.272417 0
M  V30 623 H 62.6831 -1.43494 1.31892 0
M  V30 624 H 61.7791 -2.9389 1.05049 0
M  V30 625 N 62.0802 -0.821533 -1.34494 0
M  V30 626 C 63.3052 -0.420873 -2.03085 0
M  V30 627 C 63.7302 0.964915 -1.61465 0
M  V30 628 O 63.0882 1.62763 -0.798607 0
M  V30 629 C 63.1362 -0.529414 -3.56693 0
M  V30 630 O 62.2402 0.451302 -4.09923 0
M  V30 631 H 61.5812 -0.173489 -0.640935 0
M  V30 632 H 64.1112 -1.11157 -1.71771 0
M  V30 633 H 64.1212 -0.404671 -4.05988 0
M  V30 634 H 62.7962 -1.54014 -3.86332 0
M  V30 635 H 61.3732 0.285558 -3.71805 0
M  V30 636 N 63.5583 1.46682 -0.576371 0
M  V30 637 C 64.9743 1.57822 -0.237562 0
M  V30 638 C 65.1743 1.57237 1.26011 0
M  V30 639 O 64.2303 1.48596 2.04146 0
M  V30 640 C 65.5433 2.87499 -0.881168 0
M  V30 641 C 67.0913 3.01119 -0.85417 0
M  V30 642 C 67.5663 4.33524 -1.4772 0
M  V30 643 N 69.0573 4.40207 -1.44125 0
M  V30 644 C 69.7923 5.4126 -1.89276 0
M  V30 645 N 69.2883 6.49021 -2.42371 0
M  V30 646 N 71.0813 5.32422 -1.80231 0
M  V30 647 H 63.2323 1.45306 -1.54919 0
M  V30 648 H 65.4953 0.692733 -0.647167 0
M  V30 649 H 65.2013 2.9372 -1.93447 0
M  V30 650 H 65.0753 3.75224 -0.385592 0
M  V30 651 H 67.4623 2.94485 0.190491 0
M  V30 652 H 67.5433 2.14887 -1.3877 0
M  V30 653 H 67.1873 4.40916 -2.52103 0
M  V30 654 H 67.1173 5.1852 -0.918947 0
M  V30 655 H 69.6083 3.62931 -1.05307 0
M  V30 656 H 69.9213 7.2233 -2.74698 0
M  V30 657 H 68.2663 6.49858 -2.46393 0
M  V30 658 H 71.4573 4.47137 -1.38514 0
M  V30 659 H 71.6303 6.11034 -2.15735 0
M  V30 660 N 65.0364 0.313813 1.54444 0
M  V30 661 C 66.2664 -0.293491 2.04505 0
M  V30 662 C 66.6744 -1.47086 1.19005 0
M  V30 663 O 66.0174 -1.82481 0.211257 0
M  V30 664 C 66.0794 -0.800455 3.50475 0
M  V30 665 C 65.7434 0.253322 4.56297 0
M  V30 666 C 66.7404 1.08612 5.08428 0
M  V30 667 C 64.4254 0.398708 5.00715 0
M  V30 668 C 66.4194 2.05013 6.0353 0
M  V30 669 C 64.1064 1.36614 5.95634 0
M  V30 670 C 65.1044 2.19033 6.46926 0
M  V30 671 O 64.7924 3.14134 7.39983 0
M  V30 672 H 64.5244 -0.0658325 0.672787 0
M  V30 673 H 67.0784 0.455177 2.00293 0
M  V30 674 H 65.3084 -1.59987 3.52053 0
M  V30 675 H 66.9974 -1.32504 3.83663 0
M  V30 676 H 67.7634 0.984736 4.74898 0
M  V30 677 H 63.6424 -0.23289 4.60411 0
M  V30 678 H 67.1864 2.69382 6.4349 0
M  V30 679 H 63.0834 1.4682 6.28581 0
M  V30 680 H 63.8514 3.0926 7.57826 0
M  V30 681 N 66.5145 -1.57545 0.0417849 0
M  V30 682 C 67.4645 -2.07483 -0.945247 0
M  V30 683 C 68.4485 -0.977983 -1.27767 0
M  V30 684 O 69.6405 -1.24142 -1.26166 0
M  V30 685 C 66.7695 -2.61576 -2.22335 0
M  V30 686 C 65.8555 -3.78213 -1.91874 0
M  V30 687 N 66.2465 -4.88344 -1.31733 0
M  V30 688 C 64.5445 -3.8694 -2.21796 0
M  V30 689 C 65.2455 -5.69462 -1.1869 0
M  V30 690 N 64.2215 -5.16771 -1.68666 0
M  V30 691 H 68.0235 -2.90029 -0.475441 0
M  V30 692 H 65.5375 -1.61581 -0.162911 0
M  V30 693 H 67.5345 -2.95651 -2.93932 0
M  V30 694 H 66.1945 -1.80465 -2.69931 0
M  V30 695 H 67.2055 -5.08335 -0.990729 0
M  V30 696 H 63.8825 -3.16757 -2.71977 0
M  V30 697 H 65.2725 -6.68023 -0.720793 0
M  V30 698 N 67.9926 0.231505 -1.5589 0
M  V30 699 C 69.2206 0.974505 -1.82513 0
M  V30 700 C 69.6356 1.78344 -0.619591 0
M  V30 701 O 68.9926 1.77792 0.411848 0
M  V30 702 C 69.0436 1.90007 -3.07538 0
M  V30 703 O 68.7646 1.12385 -4.2344 0
M  V30 704 C 70.2656 2.75779 -3.47075 0
M  V30 705 H 67.4856 0.286065 -0.606966 0
M  V30 706 H 70.0296 0.249739 -2.02969 0
M  V30 707 H 68.1846 2.57891 -2.89086 0
M  V30 708 H 68.5986 1.75125 -4.944 0
M  V30 709 H 70.0726 3.36443 -4.37619 0
M  V30 710 H 70.5496 3.47672 -2.68367 0
M  V30 711 H 71.1556 2.13323 -3.67931 0
M  V30 712 N 69.4707 1.49531 0.497807 0
M  V30 713 C 70.7107 1.60799 1.26187 0
M  V30 714 C 71.0747 0.289627 1.89803 0
M  V30 715 O 72.2757 0.277512 2.67364 0
M  V30 716 C 70.5467 2.73729 2.29798 0
M  V30 717 S 72.1057 3.04968 3.155 0
M  V30 718 H 68.9237 0.567145 0.428798 0
M  V30 719 H 71.5257 1.87204 0.563477 0
M  V30 720 H 70.2297 3.68036 1.81597 0
M  V30 721 H 69.7607 2.49328 3.04301 0
M  V30 722 H 71.7757 2.46735 4.30507 0
M  V30 723 N 70.9488 -0.749086 1.3866 0
M  V30 724 C 72.1968 -1.50535 1.34847 0
M  V30 725 C 72.5178 -1.94909 -0.0595016 0
M  V30 726 O 71.7878 -1.67973 -1.00806 0
M  V30 727 H 70.3678 -0.558395 0.49619 0
M  V30 728 H 73.0298 -0.890165 1.73384 0
M  V30 729 H 72.1258 -2.39413 2.00219 0
M  V30 730 N 72.4269 -1.23603 -0.977757 0
M  V30 731 C 73.6749 -1.06759 -1.71601 0
M  V30 732 C 73.9959 0.395929 -1.90938 0
M  V30 733 O 73.2659 1.28356 -1.47992 0
M  V30 734 H 71.8459 -0.392062 -0.635843 0
M  V30 735 H 74.5079 -1.55362 -1.1768 0
M  V30 736 H 73.6039 -1.55763 -2.70452 0
M  V30 737 N 73.905 1.17692 -1.04816 0
M  V30 738 C 75.133 1.91786 -0.776254 0
M  V30 739 C 75.548 1.76604 0.667577 0
M  V30 740 O 74.905 1.10067 1.45573 0
M  V30 741 C 74.956 3.42967 -1.14263 0
M  V30 742 O 74.677 3.57678 -2.52978 0
M  V30 743 C 76.178 4.34144 -0.896311 0
M  V30 744 H 73.398 0.608624 -0.282519 0
M  V30 745 H 75.942 1.49268 -1.39783 0
M  V30 746 H 74.097 3.83245 -0.565874 0
M  V30 747 H 74.511 4.51319 -2.67229 0
M  V30 748 H 75.985 5.38744 -1.20244 0
M  V30 749 H 76.462 4.38876 0.168636 0
M  V30 750 H 77.068 3.99574 -1.45672 0
M  V30 751 N 75.3831 0.828654 1.34056 0
M  V30 752 C 76.3131 0.269443 2.3194 0
M  V30 753 C 77.2941 -0.617247 1.58506 0
M  V30 754 O 78.4791 -0.542931 1.86456 0
M  V30 755 C 75.6091 -0.564793 3.42677 0
M  V30 756 C 74.5631 0.225241 4.27407 0
M  V30 757 C 73.8891 -0.7321 5.29664 0
M  V30 758 C 75.1891 1.43663 5.02154 0
M  V30 759 H 76.8831 1.08728 2.7896 0
M  V30 760 H 74.4291 0.524283 1.34117 0
M  V30 761 H 76.3821 -0.966233 4.10173 0
M  V30 762 H 75.1061 -1.41574 2.9432 0
M  V30 763 H 73.7651 0.608117 3.61521 0
M  V30 764 H 73.4131 -1.57916 4.77568 0
M  V30 765 H 73.1131 -0.20767 5.87233 0
M  V30 766 H 74.6371 -1.13128 6.00029 0
M  V30 767 H 76.0511 1.1089 5.62473 0
M  V30 768 H 74.4481 1.89711 5.69324 0
M  V30 769 H 75.5181 2.21181 4.31517 0
M  V30 770 N 76.8612 -1.46375 0.584142 0
M  V30 771 C 78.1102 -2.01585 0.0679741 0
M  V30 772 C 78.4232 -1.46109 -1.30045 0
M  V30 773 O 79.6292 -1.93148 -1.90804 0
M  V30 774 C 78.0852 -3.5983 0.0709207 0
M  V30 775 C 77.6932 -4.24303 1.43775 0
M  V30 776 C 79.4372 -4.22693 -0.391228 0
M  V30 777 C 77.3442 -5.74631 1.39834 0
M  V30 778 H 76.2742 -0.753689 0.0216421 0
M  V30 779 H 78.9252 -1.68093 0.736001 0
M  V30 780 H 77.3072 -3.90405 -0.663299 0
M  V30 781 H 78.4812 -4.05335 2.19181 0
M  V30 782 H 76.7962 -3.73539 1.84004 0
M  V30 783 H 79.3932 -5.3289 -0.439524 0
M  V30 784 H 79.7362 -3.91728 -1.40906 0
M  V30 785 H 80.2692 -3.96749 0.288974 0
M  V30 786 H 77.0082 -6.10258 2.39303 0
M  V30 787 H 76.5282 -5.95858 0.686505 0
M  V30 788 H 78.2072 -6.37375 1.11187 0
M  V30 789 N 78.3393 -0.321999 -1.54275 0
M  V30 790 C 79.7553 0.0306999 -1.5957 0
M  V30 791 C 79.9553 1.50614 -1.33857 0
M  V30 792 O 79.0113 2.2619 -1.12223 0
M  V30 793 C 80.3243 -0.386122 -2.98211 0
M  V30 794 C 81.8723 -0.336647 -3.11184 0
M  V30 795 C 82.3473 -0.728607 -4.52167 0
M  V30 796 N 83.8383 -0.681952 -4.58152 0
M  V30 797 C 84.5733 -0.957449 -5.6535 0
M  V30 798 N 84.0693 -1.3 -6.80494 0
M  V30 799 N 85.8623 -0.883113 -5.55119 0
M  V30 800 H 78.0133 -1.28332 -1.69247 0
M  V30 801 H 80.2763 -0.521716 -0.791528 0
M  V30 802 H 79.9823 -1.41404 -3.22022 0
M  V30 803 H 79.8563 0.249662 -3.76373 0
M  V30 804 H 82.2433 0.682058 -2.8711 0
M  V30 805 H 82.3243 -1.00734 -2.3513 0
M  V30 806 H 81.9683 -1.74522 -4.76974 0
M  V30 807 H 81.8983 -0.0356152 -5.26588 0
M  V30 808 H 84.3893 -0.428985 -3.75457 0
M  V30 809 H 84.7023 -1.49563 -7.58189 0
M  V30 810 H 83.0473 -1.33824 -6.81994 0
M  V30 811 H 86.2383 -0.615001 -4.64042 0
M  V30 812 H 86.4113 -1.10118 -6.38575 0
M  V30 813 N 79.8174 1.5752 -0.0501392 0
M  V30 814 C 80.7494 2.08413 0.95376 0
M  V30 815 C 81.7624 1.01175 1.27544 0
M  V30 816 O 82.9514 1.28744 1.23641 0
M  V30 817 C 80.0514 2.51138 2.27559 0
M  V30 818 C 79.2244 3.817 2.13598 0
M  V30 819 C 78.2834 4.10749 3.28895 0
M  V30 820 O 77.3094 4.80685 3.04845 0
M  V30 821 N 78.5114 3.62579 4.5334 0
M  V30 822 H 81.2764 2.95165 0.519383 0
M  V30 823 H 78.8374 1.61327 0.136127 0
M  V30 824 H 80.8294 2.67648 3.03557 0
M  V30 825 H 79.3994 1.6964 2.62567 0
M  V30 826 H 78.6194 3.74782 1.22197 0
M  V30 827 H 79.9074 4.67201 2.01496 0
M  V30 828 H 79.3054 3.06039 4.75769 0
M  V30 829 H 77.8624 3.84329 5.26436 0
M  V30 830 N 81.2955 -0.223234 1.56011 0
M  V30 831 C 82.2435 -1.29627 1.93131 0
M  V30 832 C 83.2375 -1.48608 0.813146 0
M  V30 833 O 84.4435 -1.49802 0.997966 0
M  V30 834 H 80.8185 -0.434563 0.613726 0
M  V30 835 H 82.7895 -0.955995 2.82672 0
M  V30 836 C 81.5385 -2.63983 2.26292 0
M  V30 837 H 80.8615 -2.50185 3.11846 0
M  V30 838 H 82.3015 -3.3788 2.56151 0
M  V30 839 C 80.7605 -3.18866 1.08747 0
M  V30 840 O 81.2905 -4.00192 0.347727 0
M  V30 841 N 79.4965 -2.77217 0.871743 0
M  V30 842 H 79.0435 -2.1119 1.47501 0
M  V30 843 H 79.0015 -3.1428 0.0869905 0
M  V30 844 N 82.7736 -1.49793 -0.48987 0
M  V30 845 C 84.0196 -1.61049 -1.24236 0
M  V30 846 C 84.3746 -0.298412 -1.90072 0
M  V30 847 O 83.6676 0.702262 -1.78266 0
M  V30 848 C 83.8616 -2.71488 -2.32441 0
M  V30 849 C 83.6906 -4.13308 -1.77218 0
M  V30 850 C 82.4606 -4.79955 -1.58023 0
M  V30 851 C 84.6586 -4.98176 -1.27772 0
M  V30 852 N 82.6406 -6.06052 -0.978465 0
M  V30 853 C 84.0116 -6.14843 -0.798 0
M  V30 854 C 86.0666 -4.84091 -1.16449 0
M  V30 855 C 84.7696 -7.18975 -0.216245 0
M  V30 856 C 86.7956 -5.88382 -0.596698 0
M  V30 857 C 86.1576 -7.04285 -0.127262 0
M  V30 858 H 82.2566 -0.643611 -0.444172 0
M  V30 859 H 84.8406 -1.86842 -0.54754 0
M  V30 860 H 83.0116 -2.47449 -2.99372 0
M  V30 861 H 84.7436 -2.72205 -2.99477 0
M  V30 862 H 81.4986 -4.36936 -1.82712 0
M  V30 863 H 81.9226 -6.73407 -0.696534 0
M  V30 864 H 86.5646 -3.94786 -1.5134 0
M  V30 865 H 84.2826 -8.0797 0.144903 0
M  V30 866 H 87.8686 -5.79545 -0.511716 0
M  V30 867 H 86.7486 -7.83606 0.30523 0
M  V30 868 N 84.2517 0.741722 -1.39055 0
M  V30 869 C 85.4977 1.50336 -1.36113 0
M  V30 870 C 85.8307 1.94148 0.0450796 0
M  V30 871 O 85.1057 1.66301 1.00868 0
M  V30 872 C 85.3887 2.74773 -2.32749 0
M  V30 873 C 85.2417 2.37023 -3.82283 0
M  V30 874 C 86.5607 3.76846 -2.27322 0
M  V30 875 H 83.6797 0.545351 -0.495743 0
M  V30 876 H 86.3217 0.848624 -1.69995 0
M  V30 877 H 84.4717 3.30639 -2.03986 0
M  V30 878 H 86.1437 1.8684 -4.21768 0
M  V30 879 H 84.3867 1.69334 -3.99385 0
M  V30 880 H 85.0577 3.26104 -4.45376 0
M  V30 881 H 87.5337 3.30548 -2.5274 0
M  V30 882 H 86.4097 4.6159 -2.97028 0
M  V30 883 H 86.6707 4.23286 -1.27599 0
M  V30 884 N 85.7298 1.2412 0.971189 0
M  V30 885 C 86.6628 0.97373 2.06382 0
M  V30 886 C 87.6408 -0.0912662 1.62344 0
M  V30 887 O 88.8248 0.0449365 1.88446 0
M  V30 888 C 85.9518 0.468746 3.35441 0
M  V30 889 C 84.9978 1.52176 3.98428 0
M  V30 890 S 85.8308 3.10203 4.36503 0
M  V30 891 C 86.9868 2.61398 5.68702 0
M  V30 892 H 87.2198 1.89893 2.28753 0
M  V30 893 H 84.7528 1.07466 1.10862 0
M  V30 894 H 86.7108 0.184012 4.10087 0
M  V30 895 H 85.3718 -0.435688 3.11064 0
M  V30 896 H 84.5648 1.11876 4.91426 0
M  V30 897 H 84.1668 1.75632 3.30196 0
M  V30 898 H 86.4588 2.03992 6.4606 0
M  V30 899 H 87.4018 3.52972 6.13854 0
M  V30 900 H 87.8098 2.01941 5.27143 0
M  V30 901 N 87.2079 -1.17134 1.05439 0
M  V30 902 C 88.4359 -1.91372 0.786414 0
M  V30 903 C 88.8509 -1.76955 -0.658202 0
M  V30 904 O 88.2079 -1.10838 -1.44987 0
M  V30 905 C 88.2589 -3.42356 1.1608 0
M  V30 906 O 87.9799 -3.56332 2.54871 0
M  V30 907 C 89.4809 -4.33663 0.919322 0
M  V30 908 H 86.7009 -0.607118 0.285743 0
M  V30 909 H 89.2449 -1.48525 1.40572 0
M  V30 910 H 87.3999 -3.82939 0.586191 0
M  V30 911 H 87.8139 -4.49896 2.69618 0
M  V30 912 H 89.2879 -5.38099 1.231 0
M  V30 913 H 89.7649 -4.38959 -0.145359 0
M  V30 914 H 90.3709 -3.98796 1.47789 0
M  V30 915 N 88.686 -0.835752 -1.33615 0
M  V30 916 C 89.649 -0.272 -2.2758 0
M  V30 917 C 90.649 0.557487 -1.50827 0
M  V30 918 O 91.839 0.37173 -1.70188 0
M  V30 919 C 88.971 0.617173 -3.35267 0
M  V30 920 H 90.164 -1.10111 -2.78954 0
M  V30 921 H 87.717 -0.608594 -1.43965 0
M  V30 922 H 88.452 1.46884 -2.89129 0
M  V30 923 H 88.237 0.0237066 -3.92093 0
M  V30 924 H 89.727 1.005 -4.05326 0
M  V30 925 N 90.1641 1.46063 -0.591896 0
M  V30 926 C 91.1271 2.28854 0.125973 0
M  V30 927 C 92.1271 1.38903 0.810107 0
M  V30 928 O 93.3171 1.61186 0.66066 0
M  V30 929 C 90.4491 3.19526 1.1881 0
M  V30 930 H 91.6421 2.93802 -0.601717 0
M  V30 931 H 89.1951 1.52325 -0.350254 0
M  V30 932 H 89.9301 2.59345 1.94707 0
M  V30 933 H 89.7151 3.85766 0.701936 0
M  V30 934 H 91.2051 3.81817 1.69132 0
M  V30 935 N 91.6422 0.330177 1.54103 0
M  V30 936 C 92.5922 -0.548456 2.21305 0
M  V30 937 C 93.5762 -1.07651 1.19583 0
M  V30 938 O 94.7682 -1.01243 1.45186 0
M  V30 939 C 91.8972 -1.70559 2.97934 0
M  V30 940 C 90.9832 -1.19212 4.07 0
M  V30 941 N 91.3742 -0.398831 5.04225 0
M  V30 942 C 89.6722 -1.47024 4.2107 0
M  V30 943 C 90.3732 -0.121761 5.81573 0
M  V30 944 N 89.3492 -0.709722 5.38947 0
M  V30 945 H 93.1512 0.0648483 2.93828 0
M  V30 946 H 90.6652 0.136363 1.61826 0
M  V30 947 H 92.6622 -2.34688 3.44568 0
M  V30 948 H 91.3222 -2.32231 2.26934 0
M  V30 949 H 92.3332 -0.0410869 5.17884 0
M  V30 950 H 89.0102 -2.09232 3.61287 0
M  V30 951 H 90.4002 0.517298 6.69906 0
M  V30 952 N 93.1203 -1.57491 0.0584922 0
M  V30 953 C 94.3603 -1.94851 -0.617458 0
M  V30 954 C 94.7243 -0.937165 -1.67575 0
M  V30 955 O 95.9253 -1.19795 -2.40629 0
M  V30 956 C 94.1963 -3.36955 -1.19147 0
M  V30 957 S 95.7553 -3.96277 -1.8844 0
M  V30 958 H 92.5733 -0.681539 -0.202547 0
M  V30 959 H 95.1753 -1.95073 0.129176 0
M  V30 960 H 93.8793 -4.08355 -0.409215 0
M  V30 961 H 93.4103 -3.40245 -1.97476 0
M  V30 962 H 95.4253 -3.82099 -3.16568 0
M  V30 963 N 94.5984 0.214957 -1.56127 0
M  V30 964 C 95.8444 0.939762 -1.79712 0
M  V30 965 C 96.1774 1.83723 -0.629247 0
M  V30 966 O 95.4524 1.90925 0.371197 0
M  V30 967 C 95.7354 1.77306 -3.13424 0
M  V30 968 C 95.5884 0.90164 -4.40671 0
M  V30 969 C 96.9074 2.74956 -3.43638 0
M  V30 970 H 94.0264 0.340214 -0.653776 0
M  V30 971 H 96.6684 0.20824 -1.88855 0
M  V30 972 H 94.8184 2.39673 -3.0576 0
M  V30 973 H 96.4904 0.294206 -4.60361 0
M  V30 974 H 94.7334 0.207368 -4.33304 0
M  V30 975 H 95.4044 1.51923 -5.30682 0
M  V30 976 H 97.8804 2.22724 -3.51473 0
M  V30 977 H 96.7564 3.30358 -4.38355 0
M  V30 978 H 97.0174 3.53023 -2.66134 0
M  V30 979 N 96.0765 1.50051 0.48192 0
M  V30 980 C 97.3535 1.51009 1.2432 0
M  V30 981 C 97.7335 0.248587 2.09631 0
M  V30 982 O 97.0815 -0.768409 2.15192 0
M  V30 983 C 97.2915 2.79981 2.08355 0
M  V30 984 C 98.6395 3.3022 2.66908 0
M  V30 985 O 99.6635 2.81228 2.18607 0
M  V30 986 O 98.5225 4.15595 3.54884 0
M  V30 987 H 95.6165 0.605239 0.563573 0
M  V30 988 H 98.1625 1.62332 0.494627 0
M  V30 989 H 96.9345 3.63275 1.45419 0
M  V30 990 H 96.5575 2.7161 2.90368 0
M  V30 991 N 97.5546 -0.734337 1.39446 0
M  V30 992 C 98.7846 -1.52137 1.39778 0
M  V30 993 C 99.1926 -1.89198 -0.00929312 0
M  V30 994 O 98.5356 -1.54666 -0.991168 0
M  V30 995 C 98.5976 -2.83762 2.20724 0
M  V30 996 C 98.2616 -2.69131 3.69347 0
M  V30 997 C 99.2586 -2.37635 4.62413 0
M  V30 998 C 96.9436 -2.85982 4.1294 0
M  V30 999 C 98.9376 -2.23172 5.97054 0
M  V30 1000 C 96.6246 -2.71137 5.47657 0
M  V30 1001 C 97.6226 -2.39777 6.39528 0
M  V30 1002 O 97.3106 -2.25026 7.71763 0
M  V30 1003 H 97.0426 -0.476717 0.479288 0
M  V30 1004 H 99.5966 -0.915012 1.83893 0
M  V30 1005 H 97.8266 -3.4666 1.71359 0
M  V30 1006 H 99.5156 -3.45383 2.13226 0
M  V30 1007 H 100.282 -2.24267 4.30034 0
M  V30 1008 H 96.1606 -3.09383 3.41765 0
M  V30 1009 H 99.7046 -1.98617 6.68728 0
M  V30 1010 H 95.6016 -2.84083 5.79626 0
M  V30 1011 H 96.3696 -2.40091 7.82495 0
M  V30 1012 N 99.0327 -1.24633 -0.964593 0
M  V30 1013 C 99.9647 -0.999302 -2.06268 0
M  V30 1014 C 100.978 0.0323226 -1.62768 0
M  V30 1015 O 102.167 -0.205079 -1.77318 0
M  V30 1016 C 99.2667 -0.486816 -3.35385 0
M  V30 1017 C 98.4397 -1.5823 -4.07777 0
M  V30 1018 C 97.4987 -1.07191 -5.15166 0
M  V30 1019 O 96.5247 -1.76426 -5.41168 0
M  V30 1020 N 97.7267 0.0920373 -5.80427 0
M  V30 1021 H 100.492 -1.94477 -2.28033 0
M  V30 1022 H 98.0527 -1.15704 -1.13244 0
M  V30 1023 H 100.045 -0.130066 -4.04491 0
M  V30 1024 H 98.6147 0.364459 -3.10468 0
M  V30 1025 H 97.8347 -2.11109 -3.32906 0
M  V30 1026 H 99.1227 -2.31854 -4.52903 0
M  V30 1027 H 98.5207 0.670784 -5.61709 0
M  V30 1028 H 97.0777 0.389905 -6.50633 0
M  V30 1029 N 100.511 1.16574 -1.06058 0
M  V30 1030 C 101.458 2.20883 -0.669263 0
M  V30 1031 C 102.428 1.62729 0.332918 0
M  V30 1032 O 103.613 1.895 0.222346 0
M  V30 1033 C 100.753 3.45049 -0.0593572 0
M  V30 1034 C 99.8658 4.17458 -1.11143 0
M  V30 1035 C 99.0008 5.29135 -0.467916 0
M  V30 1036 C 98.0398 5.93343 -1.50369 0
M  V30 1037 N 97.1768 6.96516 -0.883706 0
M  V30 1038 H 102.017 2.53709 -1.5632 0
M  V30 1039 H 99.5538 1.24616 -0.781625 0
M  V30 1040 H 101.512 4.16033 0.311771 0
M  V30 1041 H 100.142 3.12781 0.797992 0
M  V30 1042 H 99.1938 3.45101 -1.60029 0
M  V30 1043 H 100.506 4.61307 -1.89731 0
M  V30 1044 H 99.6598 6.06684 -0.0436871 0
M  V30 1045 H 98.3988 4.86443 0.349864 0
M  V30 1046 H 97.4038 5.14517 -1.93784 0
M  V30 1047 H 98.6288 6.38114 -2.32352 0
M  V30 1048 H 96.5748 6.55943 -0.086595 0
M  V30 1049 H 96.4918 7.38723 -1.607 0
M  V30 1050 H 97.7598 7.77993 -0.484543 0
M  V30 1051 N 101.989 0.842826 1.3317 0
M  V30 1052 C 103.217 0.454055 2.01856 0
M  V30 1053 C 103.632 -0.94587 1.63397 0
M  V30 1054 O 102.989 -1.61534 0.849302 0
M  V30 1055 C 103.04 0.569715 3.56982 0
M  V30 1056 O 102.761 1.91448 3.94055 0
M  V30 1057 C 104.262 0.178412 4.42941 0
M  V30 1058 H 101.482 0.17979 0.646465 0
M  V30 1059 H 104.026 1.1365 1.70012 0
M  V30 1060 H 102.181 -0.0648587 3.87346 0
M  V30 1061 H 102.595 1.90282 4.88767 0
M  V30 1062 H 104.069 0.310376 5.51127 0
M  V30 1063 H 104.546 -0.880056 4.30293 0
M  V30 1064 H 105.152 0.787579 4.17944 0
M  V30 1065 N 103.467 -1.45747 0.599634 0
M  V30 1066 C 104.714 -2.02292 0.0917284 0
M  V30 1067 C 105.042 -1.46906 -1.27472 0
M  V30 1068 O 104.297 -0.630652 -1.8526 0
M  V30 1069 C 104.596 -3.57399 -0.00602758 0
M  V30 1070 C 104.262 -4.31902 1.29503 0
M  V30 1071 C 102.924 -4.51974 1.65144 0
M  V30 1072 C 105.276 -4.74551 2.15525 0
M  V30 1073 C 102.604 -5.11949 2.86574 0
M  V30 1074 C 104.956 -5.35868 3.36196 0
M  V30 1075 C 103.62 -5.54165 3.72099 0
M  V30 1076 H 102.89 -0.740239 0.0335658 0
M  V30 1077 H 105.537 -1.7491 0.779661 0
M  V30 1078 H 103.842 -3.84014 -0.777183 0
M  V30 1079 H 105.539 -3.98846 -0.415038 0
M  V30 1080 H 102.129 -4.16588 1.00761 0
M  V30 1081 H 106.313 -4.58784 1.8929 0
M  V30 1082 H 101.569 -5.24305 3.14507 0
M  V30 1083 H 105.743 -5.6787 4.03109 0
M  V30 1084 H 103.37 -6.00406 4.6628 0
M  V30 1085 N 104.945 -0.338344 -1.53925 0
M  V30 1086 C 106.361 0.0137736 -1.59594 0
M  V30 1087 C 106.561 1.49186 -1.35447 0
M  V30 1088 O 105.617 2.24987 -1.14616 0
M  V30 1089 C 106.93 -0.41773 -2.97784 0
M  V30 1090 C 108.478 -0.369633 -3.1081 0
M  V30 1091 C 108.953 -0.776524 -4.51369 0
M  V30 1092 N 110.444 -0.730506 -4.57403 0
M  V30 1093 C 111.179 -1.01736 -5.64303 0
M  V30 1094 N 110.675 -1.3721 -6.79077 0
M  V30 1095 N 112.468 -0.941942 -5.54151 0
M  V30 1096 H 104.619 -1.3012 -1.67876 0
M  V30 1097 H 106.882 -0.530082 -0.78595 0
M  V30 1098 H 106.588 -1.44811 -3.20504 0
M  V30 1099 H 106.462 0.209729 -3.76616 0
M  V30 1100 H 108.849 0.651568 -2.87817 0
M  V30 1101 H 108.93 -1.03223 -2.34049 0
M  V30 1102 H 108.574 -1.79571 -4.75096 0
M  V30 1103 H 108.504 -0.0914649 -5.26521 0
M  V30 1104 H 110.995 -0.468783 -3.74981 0
M  V30 1105 H 111.308 -1.57597 -7.5656 0
M  V30 1106 H 109.653 -1.4105 -6.80536 0
M  V30 1107 H 112.844 -0.664184 -4.63364 0
M  V30 1108 H 113.017 -1.16884 -6.37371 0
M  V30 1109 N 106.423 1.57458 -0.0668435 0
M  V30 1110 C 107.669 1.93587 0.6043 0
M  V30 1111 C 108.002 0.946722 1.69561 0
M  V30 1112 O 107.277 -0.0248516 1.94484 0
M  V30 1113 C 107.56 3.40014 1.18585 0
M  V30 1114 C 107.413 4.49685 0.101529 0
M  V30 1115 C 108.732 3.87154 2.09284 0
M  V30 1116 H 105.851 0.703958 0.218202 0
M  V30 1117 H 108.493 1.89542 -0.131804 0
M  V30 1118 H 106.643 3.43592 1.81319 0
M  V30 1119 H 108.315 4.5823 -0.531279 0
M  V30 1120 H 106.558 4.30059 -0.568487 0
M  V30 1121 H 107.229 5.49266 0.54874 0
M  V30 1122 H 109.705 3.85551 1.56491 0
M  V30 1123 H 108.581 4.90231 2.46911 0
M  V30 1124 H 108.842 3.2481 2.99918 0
M  V30 1125 N 107.901 -0.206675 1.56239 0
M  V30 1126 C 109.147 -0.930218 1.80208 0
M  V30 1127 C 109.48 -1.83387 0.638981 0
M  V30 1128 O 108.755 -1.91119 -0.361066 0
M  V30 1129 C 109.038 -1.75641 3.1436 0
M  V30 1130 C 108.891 -0.878257 4.41142 0
M  V30 1131 C 110.21 -2.73129 3.45092 0
M  V30 1132 H 107.329 -0.336742 0.655571 0
M  V30 1133 H 109.971 -0.198222 1.88963 0
M  V30 1134 H 108.121 -2.38048 3.07027 0
M  V30 1135 H 109.793 -0.269787 4.6051 0
M  V30 1136 H 108.036 -0.184385 4.33408 0
M  V30 1137 H 108.707 -1.49106 5.3148 0
M  V30 1138 H 111.183 -2.20856 3.52649 0
M  V30 1139 H 110.059 -3.28028 4.40101 0
M  V30 1140 H 110.32 -3.51606 2.68003 0
M  V30 1141 N 109.379 -1.50304 -0.473955 0
M  V30 1142 C 110.342 -1.6841 -1.55469 0
M  V30 1143 C 111.342 -0.554905 -1.50922 0
M  V30 1144 O 112.532 -0.821882 -1.53593 0
M  V30 1145 C 109.664 -1.70667 -2.95102 0
M  V30 1146 H 110.857 -2.64828 -1.40733 0
M  V30 1147 H 108.41 -1.39742 -0.700132 0
M  V30 1148 H 109.145 -0.75932 -3.15285 0
M  V30 1149 H 108.93 -2.52698 -2.9981 0
M  V30 1150 H 110.42 -1.8664 -3.73571 0
M  V30 1151 N 110.857 0.726932 -1.39834 0
M  V30 1152 C 112.105 1.4837 -1.37225 0
M  V30 1153 C 112.426 1.94979 0.0284857 0
M  V30 1154 O 111.696 1.69555 0.981213 0
M  V30 1155 H 110.276 0.55043 -0.505011 0
M  V30 1156 H 112.938 0.862468 -1.74778 0
M  V30 1157 H 112.034 2.36198 -2.04003 0
M  V30 1158 N 112.336 1.25143 0.95797 0
M  V30 1159 C 113.613 1.00472 1.67823 0
M  V30 1160 C 113.993 -0.470056 2.058 0
M  V30 1161 O 113.341 -1.44663 1.76875 0
M  V30 1162 C 113.551 1.9372 2.90299 0
M  V30 1163 C 114.899 2.21371 3.62326 0
M  V30 1164 O 115.923 1.91451 3.00375 0
M  V30 1165 O 114.782 2.72231 4.7387 0
M  V30 1166 H 111.876 0.380752 0.734137 0
M  V30 1167 H 114.422 1.36283 1.01119 0
M  V30 1168 H 113.194 2.93316 2.59001 0
M  V30 1169 H 112.817 1.58286 3.64735 0
M  V30 1170 N 113.814 -1.1601 1.06675 0
M  V30 1171 C 114.764 -2.18512 0.650888 0
M  V30 1172 C 115.748 -1.57677 -0.320441 0
M  V30 1173 O 116.94 -1.76482 -0.135266 0
M  V30 1174 C 114.069 -3.43273 0.0429255 0
M  V30 1175 C 113.155 -4.11176 1.03898 0
M  V30 1176 N 113.546 -4.54672 2.216 0
M  V30 1177 C 111.844 -4.37417 0.870779 0
M  V30 1178 C 112.545 -5.07248 2.84736 0
M  V30 1179 N 111.521 -5.0037 2.12441 0
M  V30 1180 H 115.323 -2.49863 1.54745 0
M  V30 1181 H 112.837 -1.32503 0.938975 0
M  V30 1182 H 114.834 -4.16006 -0.272857 0
M  V30 1183 H 113.494 -3.13408 -0.84884 0
M  V30 1184 H 114.505 -4.4828 2.59356 0
M  V30 1185 H 111.182 -4.17488 0.0313293 0
M  V30 1186 H 112.572 -5.50912 3.84636 0
M  V30 1187 N 115.292 -0.849877 -1.32721 0
M  V30 1188 C 116.24 -0.279745 -2.30912 0
M  V30 1189 C 117.234 0.594278 -1.58634 0
M  V30 1190 O 118.44 0.482613 -1.73409 0
M  V30 1191 H 114.815 -0.0717521 -0.748569 0
M  V30 1192 H 116.786 -1.12222 -2.76494 0
M  V30 1193 C 115.535 0.521108 -3.43773 0
M  V30 1194 H 114.858 -0.142141 -3.99547 0
M  V30 1195 H 116.298 0.885693 -4.14646 0
M  V30 1196 C 114.757 1.70442 -2.90605 0
M  V30 1197 O 115.287 2.8034 -2.87702 0
M  V30 1198 N 113.493 1.52991 -2.47067 0
M  V30 1199 H 113.04 0.635914 -2.49628 0
M  V30 1200 H 112.998 2.32311 -2.11847 0
M  V30 1201 N 116.77 1.45427 -0.607355 0
M  V30 1202 C 117.7 2.3329 0.0989352 0
M  V30 1203 C 118.681 1.46816 0.859007 0
M  V30 1204 O 119.866 1.75588 0.829604 0
M  V30 1205 C 116.996 3.29518 1.09705 0
M  V30 1206 C 115.95 4.25626 0.450206 0
M  V30 1207 C 115.276 5.11542 1.55655 0
M  V30 1208 C 116.576 5.18505 -0.628455 0
M  V30 1209 H 118.27 2.92595 -0.634716 0
M  V30 1210 H 115.816 1.40696 -0.306681 0
M  V30 1211 H 117.769 3.89855 1.59971 0
M  V30 1212 H 116.493 2.68372 1.86129 0
M  V30 1213 H 115.152 3.66586 -0.0315886 0
M  V30 1214 H 114.8 4.46765 2.31107 0
M  V30 1215 H 114.5 5.76647 1.12925 0
M  V30 1216 H 116.024 5.74748 2.06148 0
M  V30 1217 H 117.438 5.72916 -0.209877 0
M  V30 1218 H 115.835 5.92085 -0.977489 0
M  V30 1219 H 116.905 4.60948 -1.50514 0
M  V30 1220 N 118.248 0.346503 1.53744 0
M  V30 1221 C 119.473 -0.253074 2.0585 0
M  V30 1222 C 119.898 -1.43202 1.21962 0
M  V30 1223 O 119.256 -1.79783 0.234073 0
M  V30 1224 C 119.304 -0.643193 3.54817 0
M  V30 1225 O 118.408 -1.74286 3.73762 0
M  V30 1226 H 117.749 -0.0413583 0.662711 0
M  V30 1227 H 120.279 0.501574 1.98357 0
M  V30 1228 H 120.289 -0.919526 3.97503 0
M  V30 1229 H 118.964 0.218966 4.15323 0
M  V30 1230 H 117.541 -1.46356 3.42979 0
M  V30 1231 N 119.726 -1.57421 0.075193 0
M  V30 1232 C 120.658 -2.09904 -0.920483 0
M  V30 1233 C 121.671 -1.03191 -1.25918 0
M  V30 1234 O 122.86 -1.30695 -1.21577 0
M  V30 1235 C 119.96 -2.54726 -2.23534 0
M  V30 1236 C 119.133 -3.8505 -2.07498 0
M  V30 1237 C 118.192 -4.15929 -3.22319 0
M  V30 1238 O 117.218 -4.85474 -2.9716 0
M  V30 1239 N 118.42 -3.69745 -4.47514 0
M  V30 1240 H 121.185 -2.95954 -0.472359 0
M  V30 1241 H 118.746 -1.61523 -0.110444 0
M  V30 1242 H 120.738 -2.72443 -2.9926 0
M  V30 1243 H 119.308 -1.73795 -2.59835 0
M  V30 1244 H 118.528 -3.76679 -1.16219 0
M  V30 1245 H 119.816 -4.70348 -1.94038 0
M  V30 1246 H 119.214 -3.13569 -4.7084 0
M  V30 1247 H 117.771 -3.92655 -5.20255 0
M  V30 1248 N 121.204 0.198386 -1.56346 0
M  V30 1249 C 122.152 1.26538 -1.95169 0
M  V30 1250 C 123.146 1.47295 -0.836685 0
M  V30 1251 O 124.352 1.48195 -1.02167 0
M  V30 1252 H 120.727 0.424744 -0.620561 0
M  V30 1253 H 122.698 0.910904 -2.84157 0
M  V30 1254 C 121.447 2.6035 -2.30463 0
M  V30 1255 H 120.77 2.45192 -3.15786 0
M  V30 1256 H 122.21 3.33762 -2.61494 0
M  V30 1257 C 120.669 3.17096 -1.13806 0
M  V30 1258 O 121.199 3.99588 -0.41135 0
M  V30 1259 N 119.405 2.75795 -0.915736 0
M  V30 1260 H 118.952 2.08816 -1.50843 0
M  V30 1261 H 118.91 3.14101 -0.136979 0
M  V30 1262 N 122.682 1.50554 0.465978 0
M  V30 1263 C 123.959 1.5232 1.22712 0
M  V30 1264 C 124.339 0.270807 2.09356 0
M  V30 1265 O 123.687 -0.745541 2.15995 0
M  V30 1266 C 123.897 2.82175 2.05374 0
M  V30 1267 C 125.245 3.33033 2.6339 0
M  V30 1268 O 126.269 2.83531 2.15612 0
M  V30 1269 O 125.128 4.19336 3.50456 0
M  V30 1270 H 122.222 0.611183 0.557122 0
M  V30 1271 H 124.768 1.62847 0.477381 0
M  V30 1272 H 123.54 3.64797 1.41558 0
M  V30 1273 H 123.163 2.74675 2.87471 0
M  V30 1274 N 124.16 -0.719506 1.40217 0
M  V30 1275 C 125.408 -1.47641 1.3801 0
M  V30 1276 C 125.729 -1.94992 -0.018145 0
M  V30 1277 O 124.999 -1.70073 -0.972207 0
M  V30 1278 H 123.579 -0.547744 0.507923 0
M  V30 1279 H 126.241 -0.853187 1.75233 0
M  V30 1280 H 125.337 -2.35112 2.05253 0
M  V30 1281 N 125.638 -1.25649 -0.95132 0
M  V30 1282 C 126.866 -1.13343 -1.73092 0
M  V30 1283 C 127.281 0.312434 -1.86197 0
M  V30 1284 O 126.638 1.21465 -1.36207 0
M  V30 1285 C 126.689 -1.78602 -3.14299 0
M  V30 1286 O 126.41 -3.17537 -3.01831 0
M  V30 1287 C 127.911 -1.72119 -4.08522 0
M  V30 1288 H 125.131 -0.395181 -0.542285 0
M  V30 1289 H 127.675 -1.66076 -1.19328 0
M  V30 1290 H 125.83 -1.29832 -3.64996 0
M  V30 1291 H 126.244 -3.49676 -3.90931 0
M  V30 1292 H 127.718 -2.22435 -5.052 0
M  V30 1293 H 128.195 -0.685635 -4.33815 0
M  V30 1294 H 128.801 -2.20393 -3.63741 0
M  V30 1295 N 127.117 1.15442 -1.07289 0
M  V30 1296 C 128.027 2.23786 -0.704057 0
M  V30 1297 C 129.043 1.7166 0.284413 0
M  V30 1298 O 130.219 2.00972 0.131205 0
M  V30 1299 C 127.284 3.46535 -0.106792 0
M  V30 1300 C 126.345 4.13654 -1.14842 0
M  V30 1301 C 125.578 5.30544 -0.57956 0
M  V30 1302 O 125.801 5.67187 0.604585 0
M  V30 1303 O 124.735 5.87154 -1.32414 0
M  V30 1304 H 128.561 2.57664 -1.60757 0
M  V30 1305 H 126.146 1.23152 -0.845803 0
M  V30 1306 H 128.028 4.20804 0.224048 0
M  V30 1307 H 126.703 3.14407 0.770049 0
M  V30 1308 H 125.61 3.4131 -1.5316 0
M  V30 1309 H 126.943 4.49861 -1.99714 0
M  V30 1310 N 128.595 0.856903 1.32268 0
M  V30 1311 C 129.527 0.260412 2.27716 0
M  V30 1312 C 130.54 -0.569137 1.52528 0
M  V30 1313 O 131.729 -0.39326 1.74114 0
M  V30 1314 C 128.829 -0.650477 3.32599 0
M  V30 1315 C 128.002 0.14372 4.37164 0
M  V30 1316 C 127.061 -0.69328 5.21613 0
M  V30 1317 O 126.087 -0.12599 5.69061 0
M  V30 1318 N 127.289 -2.00761 5.44679 0
M  V30 1319 H 130.054 1.08059 2.79541 0
M  V30 1320 H 127.615 0.717103 1.45152 0
M  V30 1321 H 129.607 -1.21581 3.86005 0
M  V30 1322 H 128.177 -1.37133 2.80915 0
M  V30 1323 H 127.397 0.890486 3.8401 0
M  V30 1324 H 128.685 0.68915 5.04111 0
M  V30 1325 H 128.083 -2.49181 5.07863 0
M  V30 1326 H 126.64 -2.52103 6.01072 0
M  V30 1327 N 130.073 -1.45103 0.615059 0
M  V30 1328 C 131.303 -2.06254 0.119596 0
M  V30 1329 C 131.711 -1.4591 -1.20445 0
M  V30 1330 O 131.054 -0.570384 -1.7462 0
M  V30 1331 C 131.116 -3.59396 -0.0865591 0
M  V30 1332 C 130.78 -4.42116 1.15683 0
M  V30 1333 C 131.777 -4.7662 2.07676 0
M  V30 1334 C 129.462 -4.82749 1.38775 0
M  V30 1335 C 131.456 -5.50622 3.21082 0
M  V30 1336 C 129.143 -5.56504 2.52481 0
M  V30 1337 C 130.141 -5.90358 3.43463 0
M  V30 1338 O 129.829 -6.62615 4.55189 0
M  V30 1339 H 129.561 -0.672423 0.0694512 0
M  V30 1340 H 132.115 -1.87219 0.844885 0
M  V30 1341 H 130.345 -3.76859 -0.866823 0
M  V30 1342 H 132.034 -4.02365 -0.534555 0
M  V30 1343 H 132.8 -4.4578 1.91063 0
M  V30 1344 H 128.679 -4.55829 0.688545 0
M  V30 1345 H 132.223 -5.76965 3.92119 0
M  V30 1346 H 128.12 -5.86759 2.69043 0
M  V30 1347 H 128.888 -6.81071 4.53966 0
M  V30 1348 N 131.551 -0.354651 -1.53558 0
M  V30 1349 C 132.797 0.238797 -2.01389 0
M  V30 1350 C 133.13 1.49309 -1.2418 0
M  V30 1351 O 132.405 1.91638 -0.332457 0
M  V30 1352 C 132.688 0.541771 -3.56001 0
M  V30 1353 C 132.541 -0.725388 -4.43912 0
M  V30 1354 C 133.86 1.34685 -4.18984 0
M  V30 1355 H 130.979 0.0853177 -0.732045 0
M  V30 1356 H 133.621 -0.477384 -1.83905 0
M  V30 1357 H 131.771 1.15189 -3.71031 0
M  V30 1358 H 133.443 -1.36313 -4.407 0
M  V30 1359 H 131.686 -1.34801 -4.12324 0
M  V30 1360 H 132.357 -0.468505 -5.50008 0
M  V30 1361 H 134.833 0.830837 -4.07721 0
M  V30 1362 H 133.709 1.52759 -5.27215 0
M  V30 1363 H 133.97 2.35221 -3.74331 0
M  V30 1364 N 133.029 1.57378 -0.0835403 0
M  V30 1365 C 134.254 1.98682 0.594987 0
M  V30 1366 C 134.679 0.961969 1.61641 0
M  V30 1367 O 134.037 -0.0709989 1.81161 0
M  V30 1368 C 134.085 3.38988 1.2296 0
M  V30 1369 O 133.189 3.39208 2.34546 0
M  V30 1370 H 132.53 0.646368 0.152002 0
M  V30 1371 H 135.06 2.03961 -0.161533 0
M  V30 1372 H 135.07 3.76431 1.57366 0
M  V30 1373 H 133.745 4.13107 0.481228 0
M  V30 1374 H 132.322 3.13548 2.01846 0
M  V30 1375 N 134.507 -0.190092 1.56449 0
M  V30 1376 C 135.753 -0.911052 1.81184 0
M  V30 1377 C 136.086 -1.82699 0.658396 0
M  V30 1378 O 135.361 -1.91491 -0.340775 0
M  V30 1379 C 135.644 -1.72297 3.16205 0
M  V30 1380 C 135.497 -0.831419 4.42049 0
M  V30 1381 C 136.816 -2.69454 3.47969 0
M  V30 1382 H 133.935 -0.32977 0.659106 0
M  V30 1383 H 136.577 -0.178169 1.89163 0
M  V30 1384 H 134.727 -2.34778 3.09534 0
M  V30 1385 H 136.399 -0.220929 4.60771 0
M  V30 1386 H 134.642 -0.138406 4.33579 0
M  V30 1387 H 135.313 -1.43461 5.33032 0
M  V30 1388 H 137.789 -2.17104 3.54972 0
M  V30 1389 H 136.665 -3.23342 4.43555 0
M  V30 1390 H 136.926 -3.48744 2.71717 0
M  V30 1391 N 135.985 -1.50799 -0.457987 0
M  V30 1392 C 136.917 -1.66786 -1.57211 0
M  V30 1393 C 137.93 -0.548962 -1.53265 0
M  V30 1394 O 139.119 -0.8226 -1.58416 0
M  V30 1395 C 136.219 -1.64834 -2.96113 0
M  V30 1396 C 135.392 -2.92971 -3.24787 0
M  V30 1397 C 134.451 -2.83485 -4.43309 0
M  V30 1398 O 133.477 -3.5744 -4.42973 0
M  V30 1399 N 134.679 -1.97929 -5.45714 0
M  V30 1400 H 137.444 -2.62889 -1.43909 0
M  V30 1401 H 135.005 -1.48427 -0.646617 0
M  V30 1402 H 136.997 -1.56084 -3.7339 0
M  V30 1403 H 135.567 -0.764118 -3.03117 0
M  V30 1404 H 134.787 -3.15749 -2.36 0
M  V30 1405 H 136.075 -3.77834 -3.40762 0
M  V30 1406 H 135.473 -1.37182 -5.48815 0
M  V30 1407 H 134.03 -1.95073 -6.21924 0
M  V30 1408 N 137.463 0.71206 -1.40597 0
M  V30 1409 C 138.41 1.82613 -1.41142 0
M  V30 1410 C 139.38 1.63925 -0.267903 0
M  V30 1411 O 140.565 1.85009 -0.466495 0
M  V30 1412 C 137.705 3.20354 -1.28324 0
M  V30 1413 C 136.818 3.50589 -2.52411 0
M  V30 1414 C 135.953 4.77855 -2.32009 0
M  V30 1415 C 134.992 5.01005 -3.51654 0
M  V30 1416 N 134.129 6.19487 -3.30425 0
M  V30 1417 H 138.969 1.81482 -2.36365 0
M  V30 1418 H 136.506 0.886475 -1.17388 0
M  V30 1419 H 138.464 3.99899 -1.18899 0
M  V30 1420 H 137.094 3.20705 -0.367189 0
M  V30 1421 H 136.146 2.65573 -2.72351 0
M  V30 1422 H 137.458 3.63604 -3.41458 0
M  V30 1423 H 136.612 5.65424 -2.19956 0
M  V30 1424 H 135.351 4.67056 -1.40392 0
M  V30 1425 H 134.356 4.1189 -3.64179 0
M  V30 1426 H 135.581 5.13674 -4.44202 0
M  V30 1427 H 133.527 6.09932 -2.41494 0
M  V30 1428 H 133.444 6.33194 -4.13039 0
M  V30 1429 H 134.712 7.09834 -3.22113 0
M  V30 1430 N 138.941 1.26152 0.944643 0
M  V30 1431 C 140.19 1.10883 1.68487 0
M  V30 1432 C 140.503 -0.348153 1.92477 0
M  V30 1433 O 141.709 -0.621459 2.64292 0
M  V30 1434 C 140.165 1.93624 3.03377 0
M  V30 1435 C 139.773 3.43875 2.87148 0
M  V30 1436 C 141.517 1.86954 3.81115 0
M  V30 1437 C 139.424 4.18875 4.1749 0
M  V30 1438 H 138.354 0.41135 0.631907 0
M  V30 1439 H 141.005 1.50433 1.05082 0
M  V30 1440 H 139.387 1.46904 3.67743 0
M  V30 1441 H 140.561 3.98338 2.31653 0
M  V30 1442 H 138.876 3.51744 2.22856 0
M  V30 1443 H 141.473 2.40275 4.77673 0
M  V30 1444 H 141.816 0.839518 4.07747 0
M  V30 1445 H 142.349 2.31477 3.23517 0
M  V30 1446 H 139.088 5.22332 3.96043 0
M  V30 1447 H 138.608 3.69193 4.72712 0
M  V30 1448 H 140.287 4.27134 4.85968 0
M  V30 1449 N 140.419 -1.14872 1.07899 0
M  V30 1450 C 141.665 -1.86064 0.806725 0
M  V30 1451 C 141.998 -1.82434 -0.665706 0
M  V30 1452 O 141.273 -1.25138 -1.48899 0
M  V30 1453 C 141.556 -3.34929 1.32267 0
M  V30 1454 C 141.409 -3.47161 2.86006 0
M  V30 1455 C 142.728 -4.29863 0.943717 0
M  V30 1456 H 139.847 -0.675591 0.294526 0
M  V30 1457 H 142.489 -1.34925 1.33773 0
M  V30 1458 H 140.639 -3.78611 0.870974 0
M  V30 1459 H 142.311 -3.12302 3.39507 0
M  V30 1460 H 140.554 -2.88539 3.23925 0
M  V30 1461 H 141.225 -4.51777 3.17177 0
M  V30 1462 H 143.701 -3.9417 1.33302 0
M  V30 1463 H 142.577 -5.32494 1.33198 0
M  V30 1464 H 142.838 -4.41846 -0.149796 0
M  V30 1465 N 141.898 -0.863906 -1.31812 0
M  V30 1466 C 143.144 -0.472535 -1.97218 0
M  V30 1467 C 143.477 0.971394 -1.68159 0
M  V30 1468 O 142.752 1.68309 -0.974798 0
M  V30 1469 C 143.035 -0.723054 -3.52766 0
M  V30 1470 C 142.888 -2.21608 -3.91421 0
M  V30 1471 C 144.207 -0.185522 -4.39709 0
M  V30 1472 H 141.326 -0.173158 -0.71637 0
M  V30 1473 H 143.968 -1.08403 -1.56041 0
M  V30 1474 H 142.118 -0.202577 -3.87971 0
M  V30 1475 H 143.79 -2.80334 -3.66347 0
M  V30 1476 H 142.033 -2.691 -3.40246 0
M  V30 1477 H 142.704 -2.34203 -4.99853 0
M  V30 1478 H 145.18 -0.630726 -4.11292 0
M  V30 1479 H 144.056 -0.390306 -5.47511 0
M  V30 1480 H 144.317 0.912229 -4.32586 0
M  V30 1481 N 143.376 1.44774 -0.622745 0
M  V30 1482 C 144.326 2.2774 0.108889 0
M  V30 1483 C 145.31 1.38189 0.824175 0
M  V30 1484 O 146.502 1.62063 0.711664 0
M  V30 1485 C 143.631 3.25353 1.09546 0
M  V30 1486 C 142.717 4.22392 0.380232 0
M  V30 1487 N 143.108 5.02388 -0.586535 0
M  V30 1488 C 141.406 4.41588 0.625792 0
M  V30 1489 C 142.107 5.72894 -1.00834 0
M  V30 1490 N 141.083 5.42479 -0.348878 0
M  V30 1491 H 144.885 2.86993 -0.63341 0
M  V30 1492 H 142.399 1.5611 -0.447589 0
M  V30 1493 H 144.396 3.83538 1.63414 0
M  V30 1494 H 143.056 2.6766 1.83815 0
M  V30 1495 H 144.067 5.0885 -0.963975 0
M  V30 1496 H 140.744 3.95003 1.352 0
M  V30 1497 H 142.134 6.47158 -1.80656 0
M  V30 1498 N 144.854 0.36279 1.53368 0
M  V30 1499 C 146.265 -0.117022 1.86333 0
M  V30 1500 C 146.616 -1.48397 1.28347 0
M  V30 1501 O 145.741 -2.07787 0.604428 0
M  V30 1502 C 146.336 -0.21912 3.38091 0
M  V30 1503 C 144.895 -0.643184 3.70864 0
M  V30 1504 C 144.042 0.211318 2.76494 0
M  V30 1505 H 146.993 0.581687 1.47655 0
M  V30 1506 H 147.014 -1.04319 3.6592 0
M  V30 1507 H 146.526 0.775902 3.80265 0
M  V30 1508 H 144.627 -1.64654 3.34245 0
M  V30 1509 H 144.74 -0.41973 4.77258 0
M  V30 1510 H 143.104 -0.319367 2.5269 0
M  V30 1511 H 143.887 1.20383 3.21501 0
M  V30 1512 N 146.332 -1.57332 0.0918853 0
M  V30 1513 C 147.562 -1.98286 -0.580205 0
M  V30 1514 C 147.97 -0.969713 -1.6246 0
M  V30 1515 O 147.313 0.0493501 -1.83634 0
M  V30 1516 C 147.375 -3.35603 -1.28882 0
M  V30 1517 C 147.039 -4.55285 -0.395559 0
M  V30 1518 C 148.036 -5.18687 0.355002 0
M  V30 1519 C 145.721 -5.01314 -0.314556 0
M  V30 1520 C 147.715 -6.26484 1.17458 0
M  V30 1521 C 145.402 -6.08979 0.508677 0
M  V30 1522 C 146.4 -6.71429 1.2519 0
M  V30 1523 O 146.088 -7.77018 2.06151 0
M  V30 1524 H 145.82 -0.656678 -0.160466 0
M  V30 1525 H 148.374 -2.04721 0.16688 0
M  V30 1526 H 146.604 -3.25842 -2.08241 0
M  V30 1527 H 148.293 -3.61026 -1.85512 0
M  V30 1528 H 149.059 -4.84058 0.302134 0
M  V30 1529 H 144.938 -4.5247 -0.882697 0
M  V30 1530 H 148.482 -6.75159 1.75518 0
M  V30 1531 H 144.379 -6.4304 0.563037 0
M  V30 1532 H 145.147 -7.93991 1.98799 0
M  V30 1533 N 147.81 0.181792 -1.56548 0
M  V30 1534 C 149.056 0.896803 -1.82562 0
M  V30 1535 C 149.411 1.80324 -0.670908 0
M  V30 1536 O 148.704 1.8868 0.333235 0
M  V30 1537 C 148.898 1.73728 -3.12335 0
M  V30 1538 C 148.727 0.913714 -4.4032 0
M  V30 1539 C 147.497 0.592903 -5.01809 0
M  V30 1540 C 149.695 0.260164 -5.13642 0
M  V30 1541 N 147.677 -0.247901 -6.13399 0
M  V30 1542 C 149.048 -0.442256 -6.18421 0
M  V30 1543 C 151.103 0.177253 -4.97584 0
M  V30 1544 C 149.806 -1.21971 -7.08883 0
M  V30 1545 C 151.832 -0.586839 -5.88481 0
M  V30 1546 C 151.194 -1.27766 -6.92716 0
M  V30 1547 H 147.293 0.307122 -0.719166 0
M  V30 1548 H 149.877 0.164535 -1.94004 0
M  V30 1549 H 148.048 2.44105 -3.02105 0
M  V30 1550 H 149.78 2.39279 -3.26386 0
M  V30 1551 H 146.535 0.920502 -4.64568 0
M  V30 1552 H 146.959 -0.658304 -6.73792 0
M  V30 1553 H 151.601 0.696993 -4.17015 0
M  V30 1554 H 149.319 -1.75083 -7.88905 0
M  V30 1555 H 152.905 -0.652522 -5.78129 0
M  V30 1556 H 151.785 -1.85943 -7.61836 0
M  V30 1557 N 149.288 1.51039 0.449983 0
M  V30 1558 C 150.236 1.71995 1.5659 0
M  V30 1559 C 151.23 0.586029 1.5894 0
M  V30 1560 O 152.436 0.76709 1.62837 0
M  V30 1561 H 148.811 0.543233 0.520001 0
M  V30 1562 H 150.782 2.65562 1.36085 0
M  V30 1563 C 149.531 1.8506 2.9436 0
M  V30 1564 H 148.854 2.71712 2.93279 0
M  V30 1565 H 150.294 2.0374 3.71842 0
M  V30 1566 C 148.753 0.607277 3.31382 0
M  V30 1567 O 149.283 -0.243903 4.00959 0
M  V30 1568 N 147.489 0.455073 2.87015 0
M  V30 1569 H 147.036 1.14879 2.30566 0
M  V30 1570 H 146.994 -0.375611 3.12148 0
M  V30 1571 N 150.766 -0.704594 1.40972 0
M  V30 1572 C 151.991 -1.49858 1.43378 0
M  V30 1573 C 152.416 -1.88061 0.038184 0
M  V30 1574 O 151.774 -1.5402 -0.956425 0
M  V30 1575 C 151.822 -2.74333 2.34038 0
M  V30 1576 O 150.926 -3.7147 1.7912 0
M  V30 1577 H 150.267 -0.45139 0.486974 0
M  V30 1578 H 152.797 -0.866832 1.8533 0
M  V30 1579 H 152.807 -3.22741 2.49604 0
M  V30 1580 H 151.482 -2.45863 3.35446 0
M  V30 1581 H 150.059 -3.30363 1.72958 0
M  V30 1582 N 152.244 -1.26651 -0.937939 0
M  V30 1583 C 153.521 -1.0313 -1.66204 0
M  V30 1584 C 153.901 0.437256 -2.06522 0
M  V30 1585 O 153.249 1.41831 -1.79154 0
M  V30 1586 C 153.459 -1.98314 -2.87181 0
M  V30 1587 C 154.807 -2.27107 -3.58758 0
M  V30 1588 O 155.831 -1.96205 -2.97291 0
M  V30 1589 O 154.69 -2.79736 -4.69479 0
M  V30 1590 H 151.784 -0.392384 -0.727986 0
M  V30 1591 H 154.33 -1.37874 -0.989382 0
M  V30 1592 H 153.102 -2.97399 -2.54302 0
M  V30 1593 H 152.725 -1.64068 -3.6217 0
M  V30 1594 N 153.722 1.14298 -1.08507 0
M  V30 1595 C 154.67 2.21483 -0.710483 0
M  V30 1596 C 155.664 1.66998 0.284234 0
M  V30 1597 O 156.87 1.79401 0.146692 0
M  V30 1598 H 153.245 0.721578 -0.211729 0
M  V30 1599 H 155.216 2.50348 -1.62384 0
M  V30 1600 C 153.965 3.4743 -0.137007 0
M  V30 1601 H 153.288 3.89686 -0.893592 0
M  V30 1602 H 154.728 4.2391 0.0872789 0
M  V30 1603 C 153.187 3.17548 1.12538 0
M  V30 1604 O 153.717 3.35437 2.21009 0
M  V30 1605 N 151.923 2.71499 1.03617 0
M  V30 1606 H 151.47 2.57143 0.153403 0
M  V30 1607 H 151.428 2.51881 1.88158 0
M  V30 1608 N 155.201 0.870884 1.31352 0
M  V30 1609 C 156.447 0.482987 1.96965 0
M  V30 1610 C 156.78 -0.962462 1.68672 0
M  V30 1611 O 156.055 -1.6779 0.98371 0
M  V30 1612 C 156.338 0.741752 3.52378 0
M  V30 1613 C 156.191 2.2368 3.9024 0
M  V30 1614 C 157.51 0.208838 4.39604 0
M  V30 1615 H 154.629 0.176955 0.715441 0
M  V30 1616 H 157.271 1.09229 1.55464 0
M  V30 1617 H 155.421 0.223149 3.87859 0
M  V30 1618 H 157.093 2.82273 3.64856 0
M  V30 1619 H 155.336 2.70901 3.38814 0
M  V30 1620 H 156.007 2.3685 4.98604 0
M  V30 1621 H 158.483 0.652529 4.10952 0
M  V30 1622 H 157.359 0.419336 5.47296 0
M  V30 1623 H 157.62 -0.889275 4.33064 0
M  V30 1624 N 156.679 -1.44442 0.630414 0
M  V30 1625 C 157.642 -2.29107 -0.0652523 0
M  V30 1626 C 158.642 -1.41002 -0.772995 0
M  V30 1627 O 159.832 -1.62881 -0.617692 0
M  V30 1628 C 156.964 -3.22564 -1.10296 0
M  V30 1629 H 158.157 -2.92103 0.679401 0
M  V30 1630 H 155.71 -1.51343 0.390517 0
M  V30 1631 H 156.445 -2.64416 -1.87762 0
M  V30 1632 H 156.23 -3.87491 -0.59941 0
M  V30 1633 H 157.72 -3.86167 -1.5895 0
M  V30 1634 N 158.157 -0.370918 -1.53173 0
M  V30 1635 C 159.12 0.460778 -2.24521 0
M  V30 1636 C 160.12 1.00536 -1.25496 0
M  V30 1637 O 161.31 0.890266 -1.49733 0
M  V30 1638 C 158.442 1.64457 -2.98608 0
M  V30 1639 H 159.635 -0.163613 -2.99453 0
M  V30 1640 H 157.188 -0.122699 -1.55818 0
M  V30 1641 H 157.923 2.30691 -2.2793 0
M  V30 1642 H 157.708 1.26099 -3.7127 0
M  V30 1643 H 159.198 2.23384 -3.5283 0
M  V30 1644 N 159.635 1.57281 -0.100228 0
M  V30 1645 C 160.883 1.94153 0.561157 0
M  V30 1646 C 161.204 0.983157 1.68401 0
M  V30 1647 O 160.474 0.0361132 1.95867 0
M  V30 1648 H 159.054 0.716791 0.210283 0
M  V30 1649 H 161.716 1.94202 -0.164765 0
M  V30 1650 H 160.812 2.96709 0.968008 0
M  V30 1651 N 161.113 -0.173488 1.56642 0
M  V30 1652 C 162.343 -0.904781 1.85734 0
M  V30 1653 C 162.751 -1.76431 0.68328 0
M  V30 1654 O 162.094 -1.802 -0.356865 0
M  V30 1655 C 162.156 -1.83382 3.09211 0
M  V30 1656 C 161.82 -1.15411 4.42187 0
M  V30 1657 C 162.817 -0.520609 5.17287 0
M  V30 1658 C 160.502 -1.15151 4.88923 0
M  V30 1659 C 162.496 0.106412 6.37311 0
M  V30 1660 C 160.183 -0.520664 6.08878 0
M  V30 1661 C 161.181 0.107196 6.82916 0
M  V30 1662 O 160.869 0.728102 8.00596 0
M  V30 1663 H 160.601 -0.268408 0.62043 0
M  V30 1664 H 163.155 -0.179096 2.04618 0
M  V30 1665 H 161.385 -2.59976 2.86268 0
M  V30 1666 H 163.074 -2.43476 3.24768 0
M  V30 1667 H 163.84 -0.514606 4.82262 0
M  V30 1668 H 159.719 -1.62961 4.31236 0
M  V30 1669 H 163.263 0.597081 6.9504 0
M  V30 1670 H 159.16 -0.524242 6.43368 0
M  V30 1671 H 159.928 0.627138 8.16094 0
M  V30 1672 N 162.591 -1.51276 -0.441967 0
M  V30 1673 C 163.868 -1.54252 -1.20273 0
M  V30 1674 C 164.248 -0.30408 -2.08898 0
M  V30 1675 O 163.596 0.711084 -2.17154 0
M  V30 1676 C 163.806 -2.85406 -2.00859 0
M  V30 1677 C 165.154 -3.37181 -2.58059 0
M  V30 1678 O 166.178 -2.86925 -2.11074 0
M  V30 1679 O 165.037 -4.24858 -3.43741 0
M  V30 1680 H 162.131 -0.619969 -0.547328 0
M  V30 1681 H 164.677 -1.63586 -0.451413 0
M  V30 1682 H 163.449 -3.67003 -1.35736 0
M  V30 1683 H 163.072 -2.79213 -2.83065 0
M  V30 1684 N 164.069 0.697108 -1.41344 0
M  V30 1685 C 165.318 1.45279 -1.39918 0
M  V30 1686 C 165.631 1.95597 -0.0109624 0
M  V30 1687 O 166.837 2.71208 0.125919 0
M  V30 1688 C 165.293 2.62695 -2.46007 0
M  V30 1689 C 164.901 2.19169 -3.90729 0
M  V30 1690 C 166.645 3.40336 -2.53715 0
M  V30 1691 C 164.552 3.33535 -4.88373 0
M  V30 1692 H 163.482 0.545692 -0.520323 0
M  V30 1693 H 166.133 0.756929 -1.67161 0
M  V30 1694 H 164.515 3.34541 -2.11892 0
M  V30 1695 H 165.689 1.54623 -4.34083 0
M  V30 1696 H 164.004 1.54525 -3.86666 0
M  V30 1697 H 166.601 4.2547 -3.2385 0
M  V30 1698 H 166.944 3.85418 -1.5735 0
M  V30 1699 H 167.477 2.75546 -2.86913 0
M  V30 1700 H 164.216 2.93468 -5.86137 0
M  V30 1701 H 163.736 3.96936 -4.49668 0
M  V30 1702 H 165.415 3.99335 -5.09059 0
M  V30 1703 N 165.547 1.27147 0.931209 0
M  V30 1704 C 166.51 1.09615 2.01289 0
M  V30 1705 C 167.51 0.0412581 1.60747 0
M  V30 1706 O 168.7 0.285545 1.71844 0
M  V30 1707 C 165.832 0.669447 3.34262 0
M  V30 1708 H 167.025 2.05662 2.18273 0
M  V30 1709 H 164.578 1.09885 1.11153 0
M  V30 1710 H 165.313 -0.292572 3.22978 0
M  V30 1711 H 165.098 1.43127 3.65044 0
M  V30 1712 H 166.588 0.568921 4.13706 0
M  V30 1713 N 167.025 -1.13721 1.09112 0
M  V30 1714 C 167.955 -2.21148 0.749385 0
M  V30 1715 C 168.936 -1.6792 -0.271475 0
M  V30 1716 O 170.121 -1.93693 -0.140251 0
M  V30 1717 C 167.251 -3.46905 0.165659 0
M  V30 1718 C 166.205 -4.13203 1.11567 0
M  V30 1719 C 165.531 -5.33248 0.393809 0
M  V30 1720 C 166.831 -4.60912 2.45678 0
M  V30 1721 H 168.525 -2.4999 1.64758 0
M  V30 1722 H 166.071 -1.20156 0.793626 0
M  V30 1723 H 168.024 -4.21313 -0.085466 0
M  V30 1724 H 166.748 -3.17449 -0.767714 0
M  V30 1725 H 165.407 -3.40758 1.35202 0
M  V30 1726 H 165.055 -5.00054 -0.543599 0
M  V30 1727 H 164.755 -5.78552 1.02721 0
M  V30 1728 H 166.279 -6.10413 0.150908 0
M  V30 1729 H 167.693 -5.26759 2.26269 0
M  V30 1730 H 166.09 -5.16944 3.04776 0
M  V30 1731 H 167.16 -3.75603 3.06677 0
M  V30 1732 N 168.503 -0.877838 -1.30888 0
M  V30 1733 C 169.433 -0.35534 -2.3078 0
M  V30 1734 C 170.414 0.557994 -1.60687 0
M  V30 1735 O 171.599 0.473355 -1.88343 0
M  V30 1736 C 168.729 0.437221 -3.44537 0
M  V30 1737 C 167.683 -0.383715 -4.26276 0
M  V30 1738 C 167.009 0.535014 -5.32017 0
M  V30 1739 C 168.309 -1.62201 -4.96476 0
M  V30 1740 H 170.003 -1.19007 -2.74732 0
M  V30 1741 H 167.549 -0.573698 -1.32078 0
M  V30 1742 H 169.502 0.813334 -4.13477 0
M  V30 1743 H 168.226 1.30553 -2.99372 0
M  V30 1744 H 166.885 -0.741874 -3.59015 0
M  V30 1745 H 166.533 1.40083 -4.831 0
M  V30 1746 H 166.233 -0.0104211 -5.87599 0
M  V30 1747 H 167.757 0.907799 -6.03814 0
M  V30 1748 H 169.171 -1.31689 -5.5797 0
M  V30 1749 H 167.568 -2.10711 -5.61891 0
M  V30 1750 H 168.638 -2.37044 -4.23011 0
M  V30 1751 N 169.982 1.44106 -0.638065 0
M  V30 1752 C 171.398 1.56672 -0.304286 0
M  V30 1753 C 171.598 1.6244 1.19228 0
M  V30 1754 O 170.654 1.57121 1.9766 0
M  V30 1755 C 171.967 2.83503 -1.00231 0
M  V30 1756 C 173.515 2.97226 -0.981116 0
M  V30 1757 C 173.99 4.26868 -1.65974 0
M  V30 1758 N 175.481 4.33698 -1.62666 0
M  V30 1759 C 176.216 5.32745 -2.12063 0
M  V30 1760 N 175.712 6.38157 -2.6968 0
M  V30 1761 N 177.505 5.24299 -2.02651 0
M  V30 1762 H 169.656 1.38605 -1.60942 0
M  V30 1763 H 171.919 0.664661 -0.675965 0
M  V30 1764 H 171.625 2.85251 -2.0573 0
M  V30 1765 H 171.499 3.73251 -0.54439 0
M  V30 1766 H 173.886 2.95027 0.0654188 0
M  V30 1767 H 173.967 2.08808 -1.47759 0
M  V30 1768 H 173.611 4.29826 -2.70576 0
M  V30 1769 H 173.541 5.14156 -1.13804 0
M  V30 1770 H 176.032 3.58138 -1.20606 0
M  V30 1771 H 176.345 7.10029 -3.05087 0
M  V30 1772 H 174.69 6.38823 -2.73734 0
M  V30 1773 H 177.881 4.4086 -1.57353 0
M  V30 1774 H 178.054 6.01334 -2.41457 0
M  V30 1775 N 171.46 0.379036 1.52974 0
M  V30 1776 C 172.39 -0.452706 2.29069 0
M  V30 1777 C 173.371 -1.07237 1.32039 0
M  V30 1778 O 174.556 -1.08708 1.60923 0
M  V30 1779 C 171.686 -1.5856 3.08992 0
M  V30 1780 C 170.64 -1.0925 4.13822 0
M  V30 1781 C 169.966 -2.31668 4.81907 0
M  V30 1782 C 171.266 -0.167702 5.22031 0
M  V30 1783 H 172.96 0.182181 2.98845 0
M  V30 1784 H 170.506 0.0890592 1.43724 0
M  V30 1785 H 172.459 -2.1742 3.6098 0
M  V30 1786 H 171.183 -2.24792 2.36931 0
M  V30 1787 H 169.842 -0.526494 3.628 0
M  V30 1788 H 169.49 -2.96386 4.06404 0
M  V30 1789 H 169.19 -1.9934 5.52754 0
M  V30 1790 H 170.714 -2.91189 5.36695 0
M  V30 1791 H 172.128 -0.664186 5.6944 0
M  V30 1792 H 170.525 0.0653265 6.00064 0
M  V30 1793 H 171.595 0.786347 4.78482 0
M  V30 1794 N 172.938 -1.57226 0.108567 0
M  V30 1795 C 173.901 -2.13602 -0.831082 0
M  V30 1796 C 174.901 -1.06841 -1.20173 0
M  V30 1797 O 176.091 -1.32666 -1.12895 0
M  V30 1798 C 173.223 -2.66769 -2.12243 0
M  V30 1799 H 174.416 -2.97951 -0.341317 0
M  V30 1800 H 171.969 -1.55667 -0.14057 0
M  V30 1801 H 172.704 -1.85977 -2.65675 0
M  V30 1802 H 172.489 -3.44839 -1.86625 0
M  V30 1803 H 173.979 -3.10332 -2.79435 0
M  V30 1804 N 174.416 0.165178 -1.56732 0
M  V30 1805 C 175.348 1.22911 -1.93457 0
M  V30 1806 C 176.361 1.40152 -0.828333 0
M  V30 1807 O 177.55 1.40046 -1.10677 0
M  V30 1808 C 174.65 2.59686 -2.17753 0
M  V30 1809 C 173.823 2.63663 -3.48999 0
M  V30 1810 C 172.882 3.81845 -3.62051 0
M  V30 1811 O 171.908 3.67559 -4.34613 0
M  V30 1812 N 173.11 4.98557 -2.97357 0
M  V30 1813 H 175.875 0.917118 -2.85323 0
M  V30 1814 H 173.436 0.354895 -1.57962 0
M  V30 1815 H 175.428 3.37225 -2.23743 0
M  V30 1816 H 173.998 2.83251 -1.32242 0
M  V30 1817 H 173.218 1.72173 -3.54612 0
M  V30 1818 H 174.506 2.63336 -4.35352 0
M  V30 1819 H 173.904 5.13065 -2.38287 0
M  V30 1820 H 172.461 5.73936 -3.08934 0
M  V30 1821 N 175.894 1.51508 0.433938 0
M  V30 1822 C 177.119 1.68443 1.21003 0
M  V30 1823 C 177.544 0.382636 1.84167 0
M  V30 1824 O 176.902 -0.65755 1.68956 0
M  V30 1825 C 176.95 2.80405 2.26727 0
M  V30 1826 O 176.054 2.44245 3.32292 0
M  V30 1827 H 175.395 0.561536 0.354363 0
M  V30 1828 H 177.925 1.9809 0.512024 0
M  V30 1829 H 177.935 3.0459 2.71457 0
M  V30 1830 H 176.61 3.74867 1.80132 0
M  V30 1831 H 175.187 2.30644 2.93015 0
M  V30 1832 N 177.372 -0.689602 1.41712 0
M  V30 1833 C 178.618 -1.45181 1.41599 0
M  V30 1834 C 178.951 -1.94181 0.0270081 0
M  V30 1835 O 178.226 -1.6993 -0.946265 0
M  V30 1836 C 178.509 -2.65945 2.42787 0
M  V30 1837 C 178.362 -2.22672 3.90816 0
M  V30 1838 C 179.681 -3.68149 2.41151 0
M  V30 1839 H 176.8 -0.526576 0.515642 0
M  V30 1840 H 179.442 -0.784947 1.73028 0
M  V30 1841 H 177.592 -3.2284 2.16116 0
M  V30 1842 H 179.264 -1.71058 4.28412 0
M  V30 1843 H 177.507 -1.54394 4.05395 0
M  V30 1844 H 178.178 -3.0935 4.57172 0
M  V30 1845 H 180.654 -3.2094 2.64834 0
M  V30 1846 H 179.53 -4.50248 3.13955 0
M  V30 1847 H 179.791 -4.18259 1.43221 0
M  V30 1848 N 178.85 -1.27639 -0.924453 0
M  V30 1849 C 180.078 -1.16989 -1.70649 0
M  V30 1850 C 180.493 0.272869 -1.86818 0
M  V30 1851 O 179.85 1.18549 -1.38753 0
M  V30 1852 C 179.901 -1.85229 -3.10439 0
M  V30 1853 O 179.622 -3.23868 -2.95028 0
M  V30 1854 C 181.123 -1.80746 -4.04779 0
M  V30 1855 H 178.343 -0.406595 -0.53378 0
M  V30 1856 H 180.887 -1.68569 -1.15778 0
M  V30 1857 H 179.042 -1.37545 -3.6216 0
M  V30 1858 H 179.456 -3.57889 -3.83426 0
M  V30 1859 H 180.93 -2.33101 -5.00368 0
M  V30 1860 H 181.407 -0.777499 -4.32263 0
M  V30 1861 H 182.013 -2.28059 -3.58984 0
M  V30 1862 N 180.328 1.1314 -1.09713 0
M  V30 1863 C 181.258 2.20748 -0.761102 0
M  V30 1864 C 182.239 1.68061 0.262566 0
M  V30 1865 O 183.424 1.93765 0.129977 0
M  V30 1866 C 180.554 3.46812 -0.184054 0
M  V30 1867 C 179.508 4.12606 -1.13757 0
M  V30 1868 C 178.834 5.33031 -0.422083 0
M  V30 1869 C 180.134 4.59603 -2.48118 0
M  V30 1870 H 181.828 2.49113 -1.66082 0
M  V30 1871 H 179.374 1.19734 -0.799987 0
M  V30 1872 H 181.327 4.21353 0.0631215 0
M  V30 1873 H 180.051 3.17851 0.750868 0
M  V30 1874 H 178.71 3.40036 -1.37007 0
M  V30 1875 H 178.358 5.00335 0.517072 0
M  V30 1876 H 178.058 5.77999 -1.05788 0
M  V30 1877 H 179.582 6.10325 -0.183277 0
M  V30 1878 H 180.996 5.25552 -2.29059 0
M  V30 1879 H 179.393 5.15321 -3.07514 0
M  V30 1880 H 180.463 3.73971 -3.08665 0
M  V30 1881 N 181.806 0.884767 1.30421 0
M  V30 1882 C 182.754 0.340869 2.30089 0
M  V30 1883 C 183.748 -0.55201 1.60154 0
M  V30 1884 O 184.954 -0.436467 1.74628 0
M  V30 1885 H 181.329 0.0915739 0.746404 0
M  V30 1886 H 183.3 1.19513 2.73421 0
M  V30 1887 C 182.049 -0.429779 3.45034 0
M  V30 1888 H 181.372 0.248024 3.9903 0
M  V30 1889 H 182.812 -0.775445 4.16849 0
M  V30 1890 C 181.271 -1.62677 2.95022 0
M  V30 1891 O 181.801 -2.72614 2.95033 0
M  V30 1892 N 180.007 -1.46387 2.51036 0
M  V30 1893 H 179.554 -0.569506 2.51226 0
M  V30 1894 H 179.512 -2.26612 2.17932 0
M  V30 1895 N 183.284 -1.43765 0.645699 0
M  V30 1896 C 184.509 -2.06767 0.161883 0
M  V30 1897 C 184.934 -1.48034 -1.16049 0
M  V30 1898 O 184.292 -0.587369 -1.71522 0
M  V30 1899 C 184.34 -3.60519 0.0762003 0
M  V30 1900 O 183.444 -4.00982 -0.963721 0
M  V30 1901 H 182.785 -0.657675 0.091429 0
M  V30 1902 H 185.315 -1.84397 0.886499 0
M  V30 1903 H 185.325 -4.07853 -0.109604 0
M  V30 1904 H 184 -4.02646 1.04157 0
M  V30 1905 H 182.577 -3.65253 -0.751312 0
M  V30 1906 N 184.763 -0.387143 -1.52771 0
M  V30 1907 C 185.993 0.195585 -2.05672 0
M  V30 1908 C 186.401 1.41241 -1.25887 0
M  V30 1909 O 185.744 1.81265 -0.298081 0
M  V30 1910 C 185.806 0.632327 -3.53895 0
M  V30 1911 C 185.47 -0.470739 -4.54569 0
M  V30 1912 C 186.467 -1.32746 -5.02667 0
M  V30 1913 C 184.152 -0.637151 -4.98243 0
M  V30 1914 C 186.146 -2.33574 -5.93061 0
M  V30 1915 C 183.833 -1.64877 -5.88438 0
M  V30 1916 C 184.831 -2.49649 -6.35739 0
M  V30 1917 O 184.519 -3.49082 -7.24153 0
M  V30 1918 H 184.251 0.033658 -0.675162 0
M  V30 1919 H 186.805 -0.550221 -1.97893 0
M  V30 1920 H 185.035 1.43008 -3.59285 0
M  V30 1921 H 186.724 1.14048 -3.89548 0
M  V30 1922 H 187.49 -1.21019 -4.69659 0
M  V30 1923 H 183.369 0.0129567 -4.60998 0
M  V30 1924 H 186.913 -2.99777 -6.29904 0
M  V30 1925 H 182.81 -1.76643 -6.2086 0
M  V30 1926 H 183.578 -3.45065 -7.42208 0
M  V30 1927 N 186.241 1.57166 -0.116904 0
M  V30 1928 C 187.487 1.95412 0.542405 0
M  V30 1929 C 187.82 1.00019 1.66463 0
M  V30 1930 O 187.095 0.0370346 1.94465 0
M  V30 1931 C 187.378 3.43615 1.07708 0
M  V30 1932 C 187.231 4.49781 -0.0415868 0
M  V30 1933 C 188.55 3.93616 1.96861 0
M  V30 1934 H 185.669 0.710543 0.195696 0
M  V30 1935 H 188.311 1.89027 -0.192038 0
M  V30 1936 H 186.461 3.49187 1.70296 0
M  V30 1937 H 188.133 4.56308 -0.676793 0
M  V30 1938 H 186.376 4.28033 -0.705019 0
M  V30 1939 H 187.047 5.50733 0.373717 0
M  V30 1940 H 189.523 3.90335 1.44146 0
M  V30 1941 H 188.399 4.97838 2.3119 0
M  V30 1942 H 188.66 3.34188 2.89432 0
M  V30 1943 N 187.719 -0.156864 1.56817 0
M  V30 1944 C 188.651 -1.21883 1.94106 0
M  V30 1945 C 189.664 -1.3971 0.835754 0
M  V30 1946 O 190.853 -1.39457 1.11418 0
M  V30 1947 C 187.953 -2.58527 2.19127 0
M  V30 1948 C 187.126 -2.61809 3.50393 0
M  V30 1949 C 186.185 -3.7992 3.64071 0
M  V30 1950 O 185.211 -3.65249 4.36557 0
M  V30 1951 N 186.413 -4.96973 2.99997 0
M  V30 1952 H 189.178 -0.901974 2.85805 0
M  V30 1953 H 186.739 -0.346513 1.58148 0
M  V30 1954 H 188.731 -3.36034 2.25529 0
M  V30 1955 H 187.301 -2.82545 1.33742 0
M  V30 1956 H 186.521 -1.7029 3.5552 0
M  V30 1957 H 187.809 -2.61024 4.36742 0
M  V30 1958 H 187.207 -5.11794 2.41004 0
M  V30 1959 H 185.764 -5.7229 3.11974 0
M  V30 1960 N 189.197 -1.51736 -0.425897 0
M  V30 1961 C 190.127 -1.76827 -1.52494 0
M  V30 1962 C 191.108 -0.618524 -1.58456 0
M  V30 1963 O 192.293 -0.862416 -1.74 0
M  V30 1964 C 189.423 -1.90374 -2.90474 0
M  V30 1965 C 188.377 -3.0588 -2.99369 0
M  V30 1966 C 187.703 -3.04625 -4.3944 0
M  V30 1967 C 189.003 -4.45644 -2.72394 0
M  V30 1968 H 190.697 -2.68855 -1.31748 0
M  V30 1969 H 188.243 -1.29372 -0.632362 0
M  V30 1970 H 190.196 -2.0651 -3.6733 0
M  V30 1971 H 188.92 -0.95004 -3.12477 0
M  V30 1972 H 187.579 -2.89467 -2.24954 0
M  V30 1973 H 187.227 -2.0701 -4.58428 0
M  V30 1974 H 186.927 -3.82195 -4.46319 0
M  V30 1975 H 188.451 -3.22869 -5.18255 0
M  V30 1976 H 189.865 -4.62348 -3.38979 0
M  V30 1977 H 188.262 -5.25006 -2.9067 0
M  V30 1978 H 189.332 -4.54893 -1.67929 0
M  V30 1979 N 190.675 0.682077 -1.42076 0
M  V30 1980 C 191.923 1.4393 -1.41876 0
M  V30 1981 C 192.244 1.94971 -0.0335599 0
M  V30 1982 O 191.514 1.72591 0.926773 0
M  V30 1983 H 190.094 0.534085 -0.522267 0
M  V30 1984 H 192.756 0.806427 -1.77434 0
M  V30 1985 H 191.852 2.29588 -2.11414 0
M  V30 1986 N 192.153 1.28127 0.917671 0
M  V30 1987 C 193.399 1.15223 1.66888 0
M  V30 1988 C 193.732 -0.299293 1.9188 0
M  V30 1989 O 193.007 -1.21805 1.51637 0
M  V30 1990 C 193.29 1.94706 3.02922 0
M  V30 1991 C 193.143 3.47898 2.85109 0
M  V30 1992 C 194.462 1.75939 4.03402 0
M  V30 1993 H 191.581 0.419946 0.605652 0
M  V30 1994 H 194.223 1.57398 1.06423 0
M  V30 1995 H 192.373 1.58864 3.54534 0
M  V30 1996 H 194.045 3.93624 2.40537 0
M  V30 1997 H 192.288 3.7373 2.20246 0
M  V30 1998 H 192.959 3.98765 3.81694 0
M  V30 1999 H 195.435 2.07209 3.60837 0
M  V30 2000 H 194.311 2.33931 4.96556 0
M  V30 2001 H 194.572 0.709877 4.36364 0
M  V30 2002 N 193.631 -1.12557 1.10312 0
M  V30 2003 C 194.561 -2.20341 0.772798 0
M  V30 2004 C 195.542 -1.68198 -0.25365 0
M  V30 2005 O 196.727 -1.93831 -0.119699 0
M  V30 2006 C 193.857 -3.46709 0.202443 0
M  V30 2007 C 192.811 -4.11996 1.15943 0
M  V30 2008 C 192.137 -5.328 0.450345 0
M  V30 2009 C 193.437 -4.5828 2.50552 0
M  V30 2010 H 195.131 -2.48229 1.674 0
M  V30 2011 H 192.677 -1.19308 0.806326 0
M  V30 2012 H 194.63 -4.2138 -0.0407752 0
M  V30 2013 H 193.354 -3.18245 -0.734001 0
M  V30 2014 H 192.013 -3.39305 1.38808 0
M  V30 2015 H 191.661 -5.00602 -0.490531 0
M  V30 2016 H 191.361 -5.7743 1.08851 0
M  V30 2017 H 192.885 -6.10219 0.215642 0
M  V30 2018 H 194.299 -5.2433 2.31843 0
M  V30 2019 H 192.696 -5.13683 3.10242 0
M  V30 2020 H 193.766 -3.72329 3.10643 0
M  V30 2021 N 195.109 -0.891671 -1.2995 0
M  V30 2022 C 196.52 -0.563104 -1.78006 0
M  V30 2023 C 196.871 0.920978 -1.73241 0
M  V30 2024 O 195.996 1.71987 -1.31337 0
M  V30 2025 C 196.591 -1.01539 -3.23226 0
M  V30 2026 C 195.15 -0.738124 -3.69092 0
M  V30 2027 C 194.297 -1.19461 -2.50249 0
M  V30 2028 H 197.248 -1.07522 -1.16725 0
M  V30 2029 H 197.269 -0.347217 -3.78912 0
M  V30 2030 H 196.781 -2.09555 -3.26662 0
M  V30 2031 H 194.882 0.329766 -3.71138 0
M  V30 2032 H 194.995 -1.33037 -4.60259 0
M  V30 2033 H 193.359 -0.613787 -2.47194 0
M  V30 2034 H 194.142 -2.28265 -2.56417 0
M  V30 2035 N 196.587 1.43421 -0.653314 0
M  V30 2036 C 197.519 2.29071 0.0769134 0
M  V30 2037 C 198.532 1.42513 0.787017 0
M  V30 2038 O 199.721 1.66449 0.644757 0
M  V30 2039 C 196.821 3.19436 1.13199 0
M  V30 2040 C 195.994 4.34533 0.500006 0
M  V30 2041 C 195.053 5.05771 1.45198 0
M  V30 2042 O 194.079 5.61037 0.960538 0
M  V30 2043 N 195.281 5.0928 2.78594 0
M  V30 2044 H 198.046 2.92382 -0.658235 0
M  V30 2045 H 195.607 1.54112 -0.496104 0
M  V30 2046 H 197.599 3.63958 1.76964 0
M  V30 2047 H 196.169 2.57724 1.7691 0
M  V30 2048 H 195.389 3.92925 -0.316738 0
M  V30 2049 H 196.677 5.08766 0.0588345 0
M  V30 2050 H 196.075 4.65751 3.2108 0
M  V30 2051 H 194.632 5.57519 3.37662 0
M  V30 2052 N 198.065 0.39524 1.52563 0
M  V30 2053 C 198.975 -0.444232 2.30356 0
M  V30 2054 C 199.991 -1.06615 1.37511 0
M  V30 2055 O 201.167 -1.07067 1.70583 0
M  V30 2056 C 198.232 -1.55315 3.09964 0
M  V30 2057 C 197.293 -0.955734 4.18526 0
M  V30 2058 C 196.526 -2.01181 4.9433 0
M  V30 2059 O 196.749 -3.22781 4.70285 0
M  V30 2060 O 195.683 -1.62579 5.79527 0
M  V30 2061 H 199.509 0.189667 3.03107 0
M  V30 2062 H 197.094 0.1588 1.48554 0
M  V30 2063 H 198.976 -2.19724 3.59582 0
M  V30 2064 H 197.651 -2.17191 2.4002 0
M  V30 2065 H 196.558 -0.274743 3.7309 0
M  V30 2066 H 197.891 -0.381109 4.90722 0
M  V30 2067 N 199.544 -1.57102 0.125237 0
M  V30 2068 C 200.792 -1.95021 -0.530198 0
M  V30 2069 C 201.113 -1.00982 -1.66816 0
M  V30 2070 O 200.383 -0.0672693 -1.95784 0
M  V30 2071 H 198.963 -0.720046 -0.198853 0
M  V30 2072 H 201.625 -1.93916 0.19564 0
M  V30 2073 H 200.721 -2.98211 -0.920681 0
M  V30 2074 N 201.022 0.148545 -1.56898 0
M  V30 2075 C 201.985 1.16736 -1.97244 0
M  V30 2076 C 202.985 1.35947 -0.858777 0
M  V30 2077 O 204.175 1.32966 -1.12542 0
M  V30 2078 C 201.307 2.52798 -2.28705 0
M  V30 2079 H 202.5 0.821279 -2.88435 0
M  V30 2080 H 200.053 0.391831 -1.51309 0
M  V30 2081 H 200.788 2.92381 -1.403 0
M  V30 2082 H 200.573 2.40216 -3.09901 0
M  V30 2083 H 202.063 3.26179 -2.60762 0
M  V30 2084 N 202.5 1.5196 0.417844 0
M  V30 2085 C 203.749 1.6482 1.16264 0
M  V30 2086 C 204.062 0.379886 1.91876 0
M  V30 2087 O 205.268 0.388154 2.68711 0
M  V30 2088 C 203.724 2.91161 2.1155 0
M  V30 2089 C 203.332 4.25068 1.41495 0
M  V30 2090 C 205.076 3.13383 2.86341 0
M  V30 2091 C 202.983 5.42541 2.35379 0
M  V30 2092 H 201.913 0.613954 0.437694 0
M  V30 2093 H 204.564 1.78442 0.427871 0
M  V30 2094 H 202.946 2.71218 2.88543 0
M  V30 2095 H 204.12 4.55463 0.699263 0
M  V30 2096 H 202.435 4.0888 0.787792 0
M  V30 2097 H 205.032 3.98324 3.5671 0
M  V30 2098 H 205.375 2.27256 3.48798 0
M  V30 2099 H 205.908 3.33757 2.1645 0
M  V30 2100 H 202.647 6.30987 1.77582 0
M  V30 2101 H 202.167 5.16497 3.04945 0
M  V30 2102 H 203.846 5.75272 2.96093 0
M  V30 2103 N 203.978 -0.674533 1.42435 0
M  V30 2104 C 204.908 -1.80009 1.48724 0
M  V30 2105 C 205.889 -1.6659 0.343793 0
M  V30 2106 O 207.074 -1.86007 0.558137 0
M  V30 2107 C 204.204 -3.18306 1.38919 0
M  V30 2108 C 203.158 -3.46461 2.51294 0
M  V30 2109 C 202.484 -4.84335 2.26547 0
M  V30 2110 C 203.784 -3.43328 3.93603 0
M  V30 2111 H 205.478 -1.75004 2.42928 0
M  V30 2112 H 203.024 -0.840533 1.16923 0
M  V30 2113 H 204.977 -3.9678 1.41927 0
M  V30 2114 H 203.701 -3.2399 0.412094 0
M  V30 2115 H 202.36 -2.70348 2.47604 0
M  V30 2116 H 202.008 -4.86669 1.2713 0
M  V30 2117 H 201.708 -5.04136 3.01861 0
M  V30 2118 H 203.232 -5.65094 2.31304 0
M  V30 2119 H 204.646 -4.11772 3.98894 0
M  V30 2120 H 203.043 -3.74664 4.68771 0
M  V30 2121 H 204.113 -2.41897 4.20255 0
M  V30 2122 N 205.456 -1.28612 -0.910864 0
M  V30 2123 C 206.419 -1.12803 -1.9952 0
M  V30 2124 C 207.419 -0.0668264 -1.60661 0
M  V30 2125 O 208.609 -0.312847 -1.71368 0
M  V30 2126 C 205.741 -0.72254 -3.33155 0
M  V30 2127 H 206.934 -2.09109 -2.14973 0
M  V30 2128 H 204.487 -1.11639 -1.09391 0
M  V30 2129 H 205.222 0.241152 -3.23402 0
M  V30 2130 H 205.007 -1.48916 -3.62721 0
M  V30 2131 H 206.497 -0.634666 -4.12749 0
M  V30 2132 N 206.934 1.1197 -1.10907 0
M  V30 2133 C 207.882 2.19927 -0.757303 0
M  V30 2134 C 208.876 1.67564 0.248747 0
M  V30 2135 O 210.082 1.79672 0.108605 0
M  V30 2136 H 206.457 0.716925 -0.226987 0
M  V30 2137 H 208.428 2.46847 -1.67658 0
M  V30 2138 C 207.177 3.47061 -0.210671 0
M  V30 2139 H 206.5 3.87703 -0.976049 0
M  V30 2140 H 207.94 4.24 -0.0026584 0
M  V30 2141 C 206.399 3.19864 1.05777 0
M  V30 2142 O 206.929 3.40049 2.13845 0
M  V30 2143 N 205.135 2.73636 0.978349 0
M  V30 2144 H 204.682 2.5741 0.0988246 0
M  V30 2145 H 204.64 2.55815 1.82773 0
M  V30 2146 N 208.412 0.89855 1.29475 0
M  V30 2147 C 209.36 0.365253 2.29714 0
M  V30 2148 C 210.354 -0.534993 1.6073 0
M  V30 2149 O 211.56 -0.417921 1.75081 0
M  V30 2150 H 207.935 0.0994853 0.74539 0
M  V30 2151 H 209.906 1.22406 2.72138 0
M  V30 2152 C 208.655 -0.393159 3.4547 0
M  V30 2153 H 207.978 0.290332 3.98744 0
M  V30 2154 H 209.418 -0.731189 4.17648 0
M  V30 2155 C 207.877 -1.59539 2.9673 0
M  V30 2156 O 208.407 -2.69469 2.97908 0
M  V30 2157 N 206.613 -1.43716 2.52575 0
M  V30 2158 H 206.16 -0.542828 2.51816 0
M  V30 2159 H 206.118 -2.24288 2.20323 0
M  V30 2160 N 209.89 -1.43072 0.660911 0
M  V30 2161 C 211.115 -2.06584 0.183805 0
M  V30 2162 C 211.54 -1.49257 -1.14472 0
M  V30 2163 O 210.898 -0.605528 -1.70889 0
M  V30 2164 C 210.946 -3.60418 0.114434 0
M  V30 2165 O 210.05 -4.01981 -0.921137 0
M  V30 2166 H 209.391 -0.656669 0.0983994 0
M  V30 2167 H 211.921 -1.83447 0.906006 0
M  V30 2168 H 211.931 -4.07946 -0.0663394 0
M  V30 2169 H 210.606 -4.01519 1.08422 0
M  V30 2170 H 209.183 -3.66029 -0.71253 0
M  V30 2171 N 211.368 -0.403325 -1.52352 0
M  V30 2172 C 212.779 0.0675782 -1.86578 0
M  V30 2173 C 213.13 1.44941 -1.32236 0
M  V30 2174 O 212.255 2.06112 -0.659307 0
M  V30 2175 C 212.85 0.129404 -3.38553 0
M  V30 2176 C 211.409 0.544629 -3.72439 0
M  V30 2177 C 210.556 -0.284551 -2.75836 0
M  V30 2178 H 213.507 -0.620631 -1.46061 0
M  V30 2179 H 213.528 0.94581 -3.68558 0
M  V30 2180 H 213.04 -0.87645 -3.78074 0
M  V30 2181 H 211.141 1.55734 -3.38493 0
M  V30 2182 H 211.254 0.293046 -4.78203 0
M  V30 2183 H 209.618 0.252258 -2.53448 0
M  V30 2184 H 210.401 -1.28865 -3.18196 0
M  V30 2185 N 212.846 1.57033 -0.133567 0
M  V30 2186 C 214.086 1.97575 0.523789 0
M  V30 2187 C 214.45 1.01605 1.62912 0
M  V30 2188 O 215.651 1.3114 2.3464 0
M  V30 2189 C 213.922 3.42256 1.02935 0
M  V30 2190 S 215.481 4.04817 1.69319 0
M  V30 2191 H 212.299 0.690427 0.169799 0
M  V30 2192 H 214.901 1.94234 -0.222101 0
M  V30 2193 H 213.605 4.09842 0.213917 0
M  V30 2194 H 213.136 3.4928 1.81017 0
M  V30 2195 H 215.151 3.96767 2.97977 0
M  V30 2196 N 214.325 -0.140222 1.56975 0
M  V30 2197 C 215.555 -0.865181 1.87612 0
M  V30 2198 C 215.963 -1.74942 0.72055 0
M  V30 2199 O 215.306 -1.80917 -0.318561 0
M  V30 2200 C 215.368 -1.76782 3.13031 0
M  V30 2201 C 215.032 -1.06005 4.44536 0
M  V30 2202 C 216.029 -0.410768 5.18275 0
M  V30 2203 C 213.714 -1.04754 4.91255 0
M  V30 2204 C 215.708 0.241572 6.36942 0
M  V30 2205 C 213.395 -0.391394 6.09845 0
M  V30 2206 C 214.393 0.252029 6.82535 0
M  V30 2207 O 214.081 0.897757 7.98871 0
M  V30 2208 H 213.813 -0.255188 0.625983 0
M  V30 2209 H 216.367 -0.135653 2.04952 0
M  V30 2210 H 214.597 -2.53846 2.91718 0
M  V30 2211 H 216.286 -2.36533 3.29859 0
M  V30 2212 H 217.052 -0.412195 4.83245 0
M  V30 2213 H 212.931 -1.53777 4.34596 0
M  V30 2214 H 216.475 0.744375 6.93617 0
M  V30 2215 H 212.372 -0.387656 6.44335 0
M  V30 2216 H 213.14 0.800102 8.1458 0
M  V30 2217 N 215.803 -1.52179 -0.40978 0
M  V30 2218 C 217.052 -1.65434 -1.15388 0
M  V30 2219 C 217.365 -0.390056 -1.91671 0
M  V30 2220 O 218.571 -0.402399 -2.68501 0
M  V30 2221 C 217.027 -2.92279 -2.10003 0
M  V30 2222 C 216.635 -4.25813 -1.39239 0
M  V30 2223 C 218.379 -3.14897 -2.84675 0
M  V30 2224 C 216.286 -5.43782 -2.32498 0
M  V30 2225 H 215.216 -0.616267 -0.434432 0
M  V30 2226 H 217.867 -1.78666 -0.418401 0
M  V30 2227 H 216.249 -2.72744 -2.871 0
M  V30 2228 H 217.423 -4.55828 -0.675099 0
M  V30 2229 H 215.738 -4.09292 -0.766097 0
M  V30 2230 H 218.335 -4.0021 -3.54593 0
M  V30 2231 H 218.678 -2.29103 -3.47588 0
M  V30 2232 H 219.211 -3.34901 -2.14677 0
M  V30 2233 H 215.95 -6.3192 -1.74233 0
M  V30 2234 H 215.47 -5.18106 -3.02201 0
M  V30 2235 H 217.149 -5.76834 -2.93038 0
M  V30 2236 N 217.281 0.66697 -1.42791 0
M  V30 2237 C 218.509 1.45505 -1.47091 0
M  V30 2238 C 218.924 1.8861 -0.0845873 0
M  V30 2239 O 218.281 1.58632 0.90234 0
M  V30 2240 C 218.332 2.69906 -2.40485 0
M  V30 2241 O 218.053 2.28608 -3.73725 0
M  V30 2242 C 219.554 3.63396 -2.53886 0
M  V30 2243 H 216.774 0.447459 -0.500022 0
M  V30 2244 H 219.318 0.818866 -1.8739 0
M  V30 2245 H 217.473 3.29696 -2.03419 0
M  V30 2246 H 217.887 3.08997 -4.23817 0
M  V30 2247 H 219.361 4.47387 -3.2334 0
M  V30 2248 H 219.838 4.09824 -1.57927 0
M  V30 2249 H 220.444 3.09495 -2.91706 0
M  V30 2250 N 218.759 1.29093 0.90403 0
M  V30 2251 C 220.007 1.16583 1.65085 0
M  V30 2252 C 220.328 -0.283933 1.92922 0
M  V30 2253 O 219.598 -1.19509 1.55224 0
M  V30 2254 H 218.178 0.428467 0.611903 0
M  V30 2255 H 220.84 1.61959 1.08422 0
M  V30 2256 H 219.936 1.71266 2.6091 0
M  V30 2257 N 220.237 -1.11381 1.11499 0
M  V30 2258 C 221.483 -1.83597 0.875423 0
M  V30 2259 C 221.838 -1.83048 -0.592555 0
M  V30 2260 O 221.131 -1.27304 -1.43193 0
M  V30 2261 C 221.325 -3.30026 1.37177 0
M  V30 2262 C 221.154 -3.44837 2.88647 0
M  V30 2263 C 219.924 -3.57825 3.56776 0
M  V30 2264 C 222.122 -3.3907 3.86699 0
M  V30 2265 N 220.104 -3.61113 4.96458 0
M  V30 2266 C 221.475 -3.48986 5.12454 0
M  V30 2267 C 223.53 -3.22605 3.7925 0
M  V30 2268 C 222.233 -3.44135 6.31636 0
M  V30 2269 C 224.259 -3.19072 4.97943 0
M  V30 2270 C 223.621 -3.29559 6.22551 0
M  V30 2271 H 219.72 -0.687044 0.37349 0
M  V30 2272 H 222.304 -1.33265 1.41946 0
M  V30 2273 H 220.475 -3.78874 0.854919 0
M  V30 2274 H 222.207 -3.90153 1.07529 0
M  V30 2275 H 218.962 -3.60414 3.07244 0
M  V30 2276 H 219.386 -3.66394 5.69284 0
M  V30 2277 H 224.028 -3.13382 2.83816 0
M  V30 2278 H 221.746 -3.52126 7.27347 0
M  V30 2279 H 225.332 -3.07498 4.93899 0
M  V30 2280 H 224.212 -3.26815 7.12855 0
M  V30 2281 N 221.715 -0.905404 -1.28997 0
M  V30 2282 C 222.963 -0.533192 -1.9494 0
M  V30 2283 C 223.284 0.924618 -1.71685 0
M  V30 2284 O 222.554 1.65268 -1.05183 0
M  V30 2285 H 221.134 -0.194194 -0.721317 0
M  V30 2286 H 223.796 -1.15294 -1.57141 0
M  V30 2287 H 222.892 -0.72059 -3.03667 0
M  V30 2288 N 223.193 1.4272 -0.668489 0
M  V30 2289 C 224.14 2.30796 0.0137489 0
M  V30 2290 C 225.11 1.4561 0.799177 0
M  V30 2291 O 226.295 1.74453 0.772702 0
M  V30 2292 C 223.435 3.31377 0.963507 0
M  V30 2293 C 222.548 4.31655 0.172569 0
M  V30 2294 C 221.683 5.19312 1.1175 0
M  V30 2295 C 220.722 6.11274 0.317886 0
M  V30 2296 N 219.859 6.91504 1.2152 0
M  V30 2297 H 224.699 2.88585 -0.743161 0
M  V30 2298 H 222.236 1.42154 -0.378226 0
M  V30 2299 H 224.194 3.88214 1.52792 0
M  V30 2300 H 222.824 2.75202 1.68712 0
M  V30 2301 H 221.876 3.76988 -0.508374 0
M  V30 2302 H 223.188 4.96779 -0.448527 0
M  V30 2303 H 222.342 5.80851 1.75206 0
M  V30 2304 H 221.081 4.5435 1.77249 0
M  V30 2305 H 220.086 5.48809 -0.329918 0
M  V30 2306 H 221.311 6.78283 -0.332917 0
M  V30 2307 H 219.257 6.29176 1.85671 0
M  V30 2308 H 219.174 7.53209 0.649036 0
M  V30 2309 H 220.442 7.57535 1.83742 0
M  V30 2310 N 224.671 0.411399 1.52136 0
M  V30 2311 C 225.899 -0.163076 2.06256 0
M  V30 2312 C 226.314 -1.3867 1.28125 0
M  V30 2313 O 225.671 -1.79423 0.333721 0
M  V30 2314 C 225.722 -0.511252 3.57867 0
M  V30 2315 O 225.443 0.66378 4.33042 0
M  V30 2316 C 226.944 -1.13921 4.28412 0
M  V30 2317 H 224.164 -0.0193897 0.67072 0
M  V30 2318 H 226.708 0.583007 1.96013 0
M  V30 2319 H 224.863 -1.20723 3.6811 0
M  V30 2320 H 225.277 0.372601 5.23175 0
M  V30 2321 H 226.751 -1.33302 5.35663 0
M  V30 2322 H 227.228 -2.11296 3.85033 0
M  V30 2323 H 227.834 -0.483373 4.22544 0
M  V30 2324 N 226.149 -1.5696 0.141893 0
M  V30 2325 C 227.096 -2.16501 -0.799737 0
M  V30 2326 C 228.066 -1.09643 -1.24771 0
M  V30 2327 O 229.251 -1.3766 -1.32115 0
M  V30 2328 C 226.391 -2.78679 -2.03549 0
M  V30 2329 C 225.504 -3.99914 -1.6338 0
M  V30 2330 C 224.639 -4.50106 -2.82096 0
M  V30 2331 C 223.678 -5.63819 -2.38275 0
M  V30 2332 N 222.815 -6.08651 -3.49983 0
M  V30 2333 H 227.655 -2.96632 -0.285179 0
M  V30 2334 H 225.192 -1.46533 -0.129053 0
M  V30 2335 H 227.15 -3.1287 -2.75986 0
M  V30 2336 H 225.78 -2.012 -2.52425 0
M  V30 2337 H 224.832 -3.71735 -0.807279 0
M  V30 2338 H 226.144 -4.82311 -1.27192 0
M  V30 2339 H 225.298 -4.86325 -3.62729 0
M  V30 2340 H 224.037 -3.66706 -3.21525 0
M  V30 2341 H 223.042 -5.2718 -1.56081 0
M  V30 2342 H 224.267 -6.49 -1.99938 0
M  V30 2343 H 222.213 -5.28188 -3.89042 0
M  V30 2344 H 222.13 -6.85961 -3.17794 0
M  V30 2345 H 223.398 -6.49515 -4.30988 0
M  V30 2346 N 227.627 0.131896 -1.57047 0
M  V30 2347 C 228.855 0.856461 -1.88341 0
M  V30 2348 C 229.27 1.74042 -0.731757 0
M  V30 2349 O 228.627 1.80051 0.297945 0
M  V30 2350 C 228.678 1.70064 -3.18999 0
M  V30 2351 O 228.399 0.852278 -4.2973 0
M  V30 2352 C 229.9 2.53148 -3.63911 0
M  V30 2353 H 227.12 0.246885 -0.62393 0
M  V30 2354 H 229.664 0.120152 -2.04147 0
M  V30 2355 H 227.819 2.38984 -3.04902 0
M  V30 2356 H 228.233 1.43329 -5.04537 0
M  V30 2357 H 229.707 3.07931 -4.58129 0
M  V30 2358 H 230.184 3.29901 -2.89935 0
M  V30 2359 H 230.79 1.89492 -3.80753 0
M  V30 2360 N 229.106 1.52395 0.401703 0
M  V30 2361 C 230.054 1.7689 1.51039 0
M  V30 2362 C 231.048 0.636298 1.56996 0
M  V30 2363 O 232.254 0.818507 1.60314 0
M  V30 2364 H 228.629 0.559502 0.502456 0
M  V30 2365 H 230.6 2.69757 1.27568 0
M  V30 2366 C 229.349 1.94331 2.88324 0
M  V30 2367 H 228.672 2.80905 2.84486 0
M  V30 2368 H 230.112 2.15466 3.65172 0
M  V30 2369 C 228.571 0.712396 3.29282 0
M  V30 2370 O 229.101 -0.116218 4.01532 0
M  V30 2371 N 227.307 0.546154 2.85422 0
M  V30 2372 H 226.854 1.22156 2.26794 0
M  V30 2373 H 226.812 -0.276113 3.13185 0
M  V30 2374 N 230.584 -0.659388 1.43143 0
M  V30 2375 C 231.832 -1.41654 1.44147 0
M  V30 2376 C 232.153 -1.94893 0.0645739 0
M  V30 2377 O 231.423 -1.74044 -0.899198 0
M  V30 2378 H 230.003 -0.525708 0.530697 0
M  V30 2379 H 232.665 -0.778097 1.78694 0
M  V30 2380 H 231.761 -2.26195 2.1504 0
M  V30 2381 N 232.062 -1.29571 -0.897171 0
M  V30 2382 C 232.994 -1.10724 -2.00681 0
M  V30 2383 C 234.007 -0.0540026 -1.6271 0
M  V30 2384 O 235.196 -0.298783 -1.75982 0
M  V30 2385 C 232.296 -0.663912 -3.32333 0
M  V30 2386 C 231.469 -1.79622 -3.98816 0
M  V30 2387 C 230.528 -1.34349 -5.0876 0
M  V30 2388 O 229.554 -2.04864 -5.31055 0
M  V30 2389 N 230.756 -0.215764 -5.80099 0
M  V30 2390 H 233.521 -2.06291 -2.17403 0
M  V30 2391 H 231.082 -1.21544 -1.06951 0
M  V30 2392 H 233.074 -0.344295 -4.03233 0
M  V30 2393 H 231.644 0.199375 -3.11964 0
M  V30 2394 H 230.864 -2.28459 -3.21248 0
M  V30 2395 H 232.152 -2.55535 -4.39976 0
M  V30 2396 H 231.55 0.372091 -5.64475 0
M  V30 2397 H 230.107 0.0444707 -6.51785 0
M  V30 2398 N 233.54 1.10788 -1.12088 0
M  V30 2399 C 234.47 2.19083 -0.807755 0
M  V30 2400 C 235.451 1.6858 0.226859 0
M  V30 2401 O 236.636 1.93997 0.0888475 0
M  V30 2402 C 233.766 3.46344 -0.257576 0
M  V30 2403 C 232.72 4.101 -1.22483 0
M  V30 2404 C 232.046 5.32016 -0.535052 0
M  V30 2405 C 233.346 4.54236 -2.57811 0
M  V30 2406 H 235.04 2.45534 -1.71328 0
M  V30 2407 H 232.586 1.1801 -0.825205 0
M  V30 2408 H 234.539 4.21392 -0.0262679 0
M  V30 2409 H 233.263 3.19373 0.683278 0
M  V30 2410 H 231.922 3.37054 -1.44189 0
M  V30 2411 H 231.57 5.01319 0.410827 0
M  V30 2412 H 231.27 5.75625 -1.18024 0
M  V30 2413 H 232.794 6.09799 -0.312695 0
M  V30 2414 H 234.208 5.20575 -2.40155 0
M  V30 2415 H 232.605 5.08682 -3.18375 0
M  V30 2416 H 233.675 3.6734 -3.16528 0
M  V30 2417 N 235.018 0.912232 1.28515 0
M  V30 2418 C 235.981 0.404223 2.25607 0
M  V30 2419 C 236.981 -0.468602 1.53821 0
M  V30 2420 O 238.171 -0.271873 1.72065 0
M  V30 2421 C 235.303 -0.420653 3.38295 0
M  V30 2422 H 236.496 1.26188 2.7206 0
M  V30 2423 H 234.049 0.691495 1.40171 0
M  V30 2424 H 234.784 -1.29777 2.97201 0
M  V30 2425 H 234.569 0.204935 3.91564 0
M  V30 2426 H 236.059 -0.766971 4.10496 0
M  V30 2427 N 236.496 -1.42363 0.676048 0
M  V30 2428 C 237.428 -2.29164 -0.0404605 0
M  V30 2429 C 238.441 -1.43747 -0.764245 0
M  V30 2430 O 239.63 -1.67453 -0.618195 0
M  V30 2431 C 236.73 -3.21196 -1.08103 0
M  V30 2432 C 235.903 -4.35273 -0.430812 0
M  V30 2433 C 234.962 -5.08017 -1.37133 0
M  V30 2434 O 233.988 -5.62494 -0.87116 0
M  V30 2435 N 235.19 -5.13647 -2.70456 0
M  V30 2436 H 237.955 -2.91298 0.704667 0
M  V30 2437 H 235.516 -1.53303 0.520559 0
M  V30 2438 H 237.508 -3.66728 -1.71152 0
M  V30 2439 H 236.078 -2.60505 -1.72788 0
M  V30 2440 H 235.298 -3.92372 0.379209 0
M  V30 2441 H 236.586 -5.08795 0.0221132 0
M  V30 2442 H 235.984 -4.708 -3.1363 0
M  V30 2443 H 234.541 -5.62821 -3.28749 0
M  V30 2444 N 237.974 -0.419461 -1.51915 0
M  V30 2445 C 239.202 0.152136 -2.0634 0
M  V30 2446 C 239.617 1.37988 -1.28859 0
M  V30 2447 O 238.974 1.79243 -0.343232 0
M  V30 2448 C 239.025 0.492266 -3.58133 0
M  V30 2449 O 238.746 -0.686736 -4.32684 0
M  V30 2450 C 240.247 1.11648 -4.2901 0
M  V30 2451 H 237.467 0.0158325 -0.670813 0
M  V30 2452 H 240.011 -0.593394 -1.95702 0
M  V30 2453 H 238.166 1.18769 -3.68745 0
M  V30 2454 H 238.58 -0.400341 -5.2297 0
M  V30 2455 H 240.054 1.3046 -5.36362 0
M  V30 2456 H 240.531 2.09251 -3.86148 0
M  V30 2457 H 241.137 0.460958 -4.22795 0
M  V30 2458 N 239.452 1.56882 -0.150215 0
M  V30 2459 C 240.382 2.19935 0.784284 0
M  V30 2460 C 241.363 1.14854 1.25469 0
M  V30 2461 O 242.548 1.43209 1.31168 0
M  V30 2462 C 239.678 2.82349 2.02229 0
M  V30 2463 C 238.632 3.93285 1.68853 0
M  V30 2464 C 237.958 4.42649 2.99944 0
M  V30 2465 C 239.258 5.13904 0.932714 0
M  V30 2466 H 240.952 2.9828 0.258781 0
M  V30 2467 H 238.498 1.43473 0.123029 0
M  V30 2468 H 240.451 3.25126 2.68088 0
M  V30 2469 H 239.175 2.0134 2.57157 0
M  V30 2470 H 237.834 3.5113 1.05371 0
M  V30 2471 H 237.482 3.58458 3.52869 0
M  V30 2472 H 237.182 5.17476 2.78374 0
M  V30 2473 H 238.706 4.88099 3.66868 0
M  V30 2474 H 240.12 5.53506 1.49345 0
M  V30 2475 H 238.517 5.94515 0.81684 0
M  V30 2476 H 239.587 4.84842 -0.0749568 0
M  V30 2477 N 240.93 -0.123565 1.57115 0
M  V30 2478 C 241.862 -1.17739 1.96648 0
M  V30 2479 C 242.875 -1.37906 0.865201 0
M  V30 2480 O 244.064 -1.37062 1.14351 0
M  V30 2481 C 241.164 -2.53821 2.24562 0
M  V30 2482 C 240.337 -2.54317 3.55867 0
M  V30 2483 C 239.396 -3.72112 3.72047 0
M  V30 2484 O 238.422 -3.55907 4.44206 0
M  V30 2485 N 239.624 -4.90498 3.10471 0
M  V30 2486 H 242.389 -0.841147 2.87654 0
M  V30 2487 H 239.95 -0.31289 1.58848 0
M  V30 2488 H 241.942 -3.31175 2.32606 0
M  V30 2489 H 240.512 -2.79645 1.39705 0
M  V30 2490 H 239.732 -1.62711 3.59053 0
M  V30 2491 H 241.02 -2.51701 4.42181 0
M  V30 2492 H 240.418 -5.06567 2.51806 0
M  V30 2493 H 238.975 -5.65544 3.24043 0
M  V30 2494 N 242.408 -1.52605 -0.393616 0
M  V30 2495 C 243.34 -1.73303 -1.49995 0
M  V30 2496 C 244.353 -0.613473 -1.50799 0
M  V30 2497 O 245.542 -0.889049 -1.54784 0
M  V30 2498 C 242.642 -1.77245 -2.88855 0
M  V30 2499 C 241.815 -3.06483 -3.12069 0
M  V30 2500 C 240.874 -3.02033 -4.30886 0
M  V30 2501 O 239.9 -3.75907 -4.27414 0
M  V30 2502 N 241.102 -2.20897 -5.36828 0
M  V30 2503 H 243.867 -2.68756 -1.32629 0
M  V30 2504 H 241.428 -1.51036 -0.583083 0
M  V30 2505 H 243.42 -1.7178 -3.66434 0
M  V30 2506 H 241.99 -0.891993 -2.99603 0
M  V30 2507 H 241.21 -3.25474 -2.22396 0
M  V30 2508 H 242.498 -3.91947 -3.2443 0
M  V30 2509 H 241.896 -1.60336 -5.42502 0
M  V30 2510 H 240.453 -2.21275 -6.13091 0
M  V30 2511 N 243.887 0.651787 -1.4349 0
M  V30 2512 C 244.85 1.74647 -1.48429 0
M  V30 2513 C 245.85 1.56513 -0.368817 0
M  V30 2514 O 247.04 1.62385 -0.630623 0
M  V30 2515 C 244.172 3.13533 -1.33827 0
M  V30 2516 H 245.365 1.71649 -2.4592 0
M  V30 2517 H 242.918 0.863573 -1.30277 0
M  V30 2518 H 243.653 3.22142 -0.37349 0
M  V30 2519 H 243.438 3.28101 -2.14691 0
M  V30 2520 H 244.928 3.93356 -1.40218 0
M  V30 2521 N 245.365 1.30045 0.890287 0
M  V30 2522 C 246.595 1.21296 1.67245 0
M  V30 2523 C 247.003 -0.227471 1.87828 0
M  V30 2524 O 246.346 -1.16296 1.422 0
M  V30 2525 C 246.408 1.86519 3.07329 0
M  V30 2526 C 246.072 3.35837 3.09939 0
M  V30 2527 C 247.069 4.31915 2.89389 0
M  V30 2528 C 244.754 3.77196 3.31706 0
M  V30 2529 C 246.748 5.67325 2.90552 0
M  V30 2530 C 244.435 5.12725 3.32499 0
M  V30 2531 C 245.433 6.076 3.11947 0
M  V30 2532 O 245.121 7.40655 3.12547 0
M  V30 2533 H 244.853 0.4211 0.528821 0
M  V30 2534 H 247.407 1.72111 1.12103 0
M  V30 2535 H 245.637 1.30228 3.64112 0
M  V30 2536 H 247.326 1.71963 3.67673 0
M  V30 2537 H 248.092 4.01294 2.72375 0
M  V30 2538 H 243.971 3.03796 3.4674 0
M  V30 2539 H 247.515 6.41354 2.74429 0
M  V30 2540 H 243.412 5.42988 3.49047 0
M  V30 2541 H 244.18 7.49577 3.28749 0
M  V30 2542 N 246.843 -1.10192 1.12674 0
M  V30 2543 C 247.773 -2.18652 0.819362 0
M  V30 2544 C 248.754 -1.68698 -0.217915 0
M  V30 2545 O 249.939 -1.94041 -0.0785581 0
M  V30 2546 C 247.069 -3.46202 0.27594 0
M  V30 2547 C 246.023 -4.09444 1.24656 0
M  V30 2548 C 245.349 -5.31725 0.563258 0
M  V30 2549 C 246.649 -4.52863 2.60217 0
M  V30 2550 H 248.343 -2.44622 1.72628 0
M  V30 2551 H 245.889 -1.17571 0.831451 0
M  V30 2552 H 247.842 -4.21372 0.0486149 0
M  V30 2553 H 246.566 -3.1973 -0.666331 0
M  V30 2554 H 245.225 -3.36284 1.45974 0
M  V30 2555 H 244.873 -5.0153 -0.384235 0
M  V30 2556 H 244.573 -5.74991 1.21075 0
M  V30 2557 H 246.097 -6.09624 0.34503 0
M  V30 2558 H 247.511 -5.19294 2.42913 0
M  V30 2559 H 245.908 -5.06986 3.21068 0
M  V30 2560 H 246.978 -3.65656 3.18471 0
M  V30 2561 N 248.321 -0.919034 -1.28029 0
M  V30 2562 C 249.732 -0.600735 -1.76771 0
M  V30 2563 C 250.083 0.884024 -1.75156 0
M  V30 2564 O 249.208 1.69163 -1.34956 0
M  V30 2565 C 249.803 -1.08372 -3.21 0
M  V30 2566 C 248.362 -0.816248 -3.67443 0
M  V30 2567 C 247.509 -1.24742 -2.47658 0
M  V30 2568 H 250.46 -1.09974 -1.14418 0
M  V30 2569 H 250.481 -0.427512 -3.78091 0
M  V30 2570 H 249.993 -2.16437 -3.22144 0
M  V30 2571 H 248.094 0.250968 -3.71754 0
M  V30 2572 H 248.207 -1.4277 -4.57333 0
M  V30 2573 H 246.571 -0.666083 -2.45836 0
M  V30 2574 H 247.354 -2.33653 -2.51518 0
M  V30 2575 N 249.799 1.42003 -0.683588 0
M  V30 2576 C 251.024 2.06265 -0.216647 0
M  V30 2577 C 251.449 1.51059 1.12083 0
M  V30 2578 O 250.807 0.632638 1.69904 0
M  V30 2579 C 250.855 3.60191 -0.171759 0
M  V30 2580 O 249.959 4.03396 0.857069 0
M  V30 2581 H 249.3 0.65502 -0.108834 0
M  V30 2582 H 251.83 1.81982 -0.935077 0
M  V30 2583 H 251.84 4.08 0.0014303 0
M  V30 2584 H 250.515 3.99743 -1.14796 0
M  V30 2585 H 249.092 3.67117 0.654208 0
M  V30 2586 N 251.277 0.427512 1.51691 0
M  V30 2587 C 252.523 -0.142439 2.02299 0
M  V30 2588 C 252.856 -1.43214 1.31162 0
M  V30 2589 O 252.131 -1.89833 0.423511 0
M  V30 2590 C 252.414 -0.371301 3.58181 0
M  V30 2591 C 252.267 0.936358 4.39946 0
M  V30 2592 C 253.586 -1.14542 4.24933 0
M  V30 2593 H 250.705 -0.0502937 0.735282 0
M  V30 2594 H 253.347 0.564584 1.81418 0
M  V30 2595 H 251.497 -0.973559 3.76104 0
M  V30 2596 H 253.169 1.57184 4.33694 0
M  V30 2597 H 251.412 1.5432 4.05423 0
M  V30 2598 H 252.083 0.730388 5.47147 0
M  V30 2599 H 254.559 -0.635362 4.11221 0
M  V30 2600 H 253.435 -1.27431 5.33903 0
M  V30 2601 H 253.696 -2.17093 3.85127 0
M  V30 2602 N 252.755 -1.56801 0.158532 0
M  V30 2603 C 254.032 -1.88131 -0.535357 0
M  V30 2604 C 254.412 -1.06638 -1.82186 0
M  V30 2605 O 253.76 -0.156533 -2.27963 0
M  V30 2606 C 253.97 -3.39949 -0.789653 0
M  V30 2607 C 255.318 -4.09416 -1.12533 0
M  V30 2608 O 256.342 -3.45194 -0.878622 0
M  V30 2609 O 255.201 -5.22855 -1.59014 0
M  V30 2610 H 252.295 -0.780143 -0.27442 0
M  V30 2611 H 254.841 -1.68564 0.19601 0
M  V30 2612 H 253.613 -3.91115 0.120353 0
M  V30 2613 H 253.236 -3.65084 -1.57479 0
M  V30 2614 N 254.233 0.115231 -1.57178 0
M  V30 2615 C 255.463 0.835224 -1.88964 0
M  V30 2616 C 255.871 1.73774 -0.74829 0
M  V30 2617 O 255.214 1.81401 0.289739 0
M  V30 2618 C 255.276 1.7178 -3.15804 0
M  V30 2619 C 254.94 0.989198 -4.46166 0
M  V30 2620 C 255.937 0.328263 -5.18863 0
M  V30 2621 C 253.622 0.969256 -4.9286 0
M  V30 2622 C 255.616 -0.342873 -6.36477 0
M  V30 2623 C 253.303 0.294324 -6.10391 0
M  V30 2624 C 254.301 -0.360582 -6.82048 0
M  V30 2625 O 253.989 -1.02474 -7.97342 0
M  V30 2626 H 253.721 0.245197 -0.629964 0
M  V30 2627 H 256.275 0.10303 -2.05141 0
M  V30 2628 H 254.505 2.49173 -2.95719 0
M  V30 2629 H 256.194 2.31255 -3.33581 0
M  V30 2630 H 256.96 0.335263 -4.8384 0
M  V30 2631 H 252.839 1.46844 -4.36987 0
M  V30 2632 H 256.383 -0.854629 -6.92345 0
M  V30 2633 H 252.28 0.285099 -6.4487 0
M  V30 2634 H 253.048 -0.929594 -8.13204 0
M  V30 2635 N 255.711 1.52812 0.385517 0
M  V30 2636 C 256.674 1.77188 1.45386 0
M  V30 2637 C 257.674 0.641953 1.4743 0
M  V30 2638 O 258.864 0.910033 1.4854 0
M  V30 2639 C 255.996 1.87582 2.8465 0
M  V30 2640 H 257.189 2.72583 1.25054 0
M  V30 2641 H 254.742 1.43586 0.617467 0
M  V30 2642 H 255.477 0.941849 3.10322 0
M  V30 2643 H 255.262 2.69748 2.84567 0
M  V30 2644 H 256.752 2.08102 3.62054 0
M  V30 2645 N 257.189 -0.644168 1.43834 0
M  V30 2646 C 258.438 -1.39985 1.45214 0
M  V30 2647 C 258.751 -1.95421 0.0835494 0
M  V30 2648 O 259.957 -2.71488 -0.0251748 0
M  V30 2649 C 258.413 -2.53384 2.55587 0
M  V30 2650 C 258.021 -2.04517 3.98594 0
M  V30 2651 C 259.765 -3.30685 2.66172 0
M  V30 2652 C 257.672 -3.1518 5.00416 0
M  V30 2653 H 256.602 -0.526005 0.540218 0
M  V30 2654 H 259.253 -0.694367 1.69855 0
M  V30 2655 H 257.635 -3.26446 2.24163 0
M  V30 2656 H 258.809 -1.38405 4.39523 0
M  V30 2657 H 257.124 -1.40068 3.92135 0
M  V30 2658 H 259.721 -4.13158 3.39418 0
M  V30 2659 H 260.064 -3.79312 1.71546 0
M  V30 2660 H 260.597 -2.64708 2.96942 0
M  V30 2661 H 257.336 -2.71511 5.96625 0
M  V30 2662 H 256.856 -3.79974 4.64091 0
M  V30 2663 H 258.535 -3.80166 5.23529 0
M  V30 2664 N 258.668 -1.30515 -0.883378 0
M  V30 2665 C 259.908 -1.20716 -1.64946 0
M  V30 2666 C 260.272 0.234072 -1.90568 0
M  V30 2667 O 261.473 0.455335 -2.64915 0
M  V30 2668 C 259.744 -2.01444 -2.9522 0
M  V30 2669 S 261.303 -2.0836 -3.86175 0
M  V30 2670 H 258.121 -0.430165 -0.566109 0
M  V30 2671 H 260.723 -1.65011 -1.04841 0
M  V30 2672 H 259.427 -3.05268 -2.74298 0
M  V30 2673 H 258.958 -1.57817 -3.60357 0
M  V30 2674 H 260.973 -1.21215 -4.81167 0
M  V30 2675 N 260.146 1.09593 -1.13257 0
M  V30 2676 C 261.371 1.8604 -0.916732 0
M  V30 2677 C 261.796 1.80504 0.529146 0
M  V30 2678 O 261.154 1.18127 1.37534 0
M  V30 2679 C 261.202 3.32017 -1.40703 0
M  V30 2680 O 260.306 4.08141 -0.591153 0
M  V30 2681 H 259.647 0.576943 -0.328683 0
M  V30 2682 H 262.177 1.38405 -1.50682 0
M  V30 2683 H 262.187 3.82865 -1.4099 0
M  V30 2684 H 260.862 3.35361 -2.45979 0
M  V30 2685 H 259.439 3.67084 -0.656005 0
M  V30 2686 N 261.624 0.925811 1.2754 0
M  V30 2687 C 262.849 0.580924 1.99098 0
M  V30 2688 C 263.274 -0.833555 1.68622 0
M  V30 2689 O 262.632 -1.55903 0.925422 0
M  V30 2690 C 262.68 0.811186 3.51358 0
M  V30 2691 O 261.784 -0.124129 4.12213 0
M  V30 2692 H 261.125 0.223873 0.625122 0
M  V30 2693 H 263.655 1.24455 1.62395 0
M  V30 2694 H 263.665 0.72601 4.01489 0
M  V30 2695 H 262.34 1.84227 3.72872 0
M  V30 2696 H 260.917 0.0108006 3.72898 0
M  V30 2697 N 263.102 -1.41638 0.69111 0
M  V30 2698 C 264.327 -2.06148 0.227583 0
M  V30 2699 C 264.752 -1.51652 -1.11281 0
M  V30 2700 O 264.11 -0.64164 -1.69566 0
M  V30 2701 C 264.158 -3.60095 0.190858 0
M  V30 2702 O 263.262 -4.03845 -0.835664 0
M  V30 2703 H 262.603 -0.654434 0.112306 0
M  V30 2704 H 265.133 -1.81484 0.944714 0
M  V30 2705 H 265.143 -4.07995 0.020207 0
M  V30 2706 H 263.818 -3.99129 1.16915 0
M  V30 2707 H 262.395 -3.67458 -0.63473 0
M  V30 2708 N 264.58 -0.43555 -1.51462 0
M  V30 2709 C 265.805 0.132627 -2.06976 0
M  V30 2710 C 266.23 1.35848 -1.30104 0
M  V30 2711 O 265.588 1.78112 -0.338493 0
M  V30 2712 C 265.636 0.43523 -3.57964 0
M  V30 2713 O 264.74 1.52198 -3.83288 0
M  V30 2714 H 264.081 0.00265 -0.663995 0
M  V30 2715 H 266.611 -0.616369 -1.95095 0
M  V30 2716 H 266.621 0.686206 -4.02188 0
M  V30 2717 H 265.296 -0.460739 -4.1334 0
M  V30 2718 H 263.873 1.2611 -3.50928 0
M  V30 2719 N 266.058 1.56714 -0.166846 0
M  V30 2720 C 267.288 2.00828 0.48494 0
M  V30 2721 C 267.696 1.04612 1.57648 0
M  V30 2722 O 267.039 0.0383201 1.8366 0
M  V30 2723 C 267.101 3.4137 1.12723 0
M  V30 2724 C 266.765 4.56654 0.177886 0
M  V30 2725 C 267.762 5.16402 -0.60207 0
M  V30 2726 C 265.447 5.02244 0.0750139 0
M  V30 2727 C 267.441 6.20167 -1.47215 0
M  V30 2728 C 265.128 6.05859 -0.798649 0
M  V30 2729 C 266.126 6.64691 -1.57082 0
M  V30 2730 O 265.814 7.66297 -2.42989 0
M  V30 2731 H 265.546 0.663587 0.128953 0
M  V30 2732 H 268.1 2.03692 -0.264365 0
M  V30 2733 H 266.33 3.35406 1.92457 0
M  V30 2734 H 268.019 3.69466 1.68076 0
M  V30 2735 H 268.785 4.82065 -0.53274 0
M  V30 2736 H 264.664 4.56167 0.665812 0
M  V30 2737 H 268.208 6.66016 -2.07531 0
M  V30 2738 H 264.105 6.39621 -0.869199 0
M  V30 2739 H 264.873 7.83601 -2.36455 0
M  V30 2740 N 267.536 -0.106894 1.57237 0
M  V30 2741 C 268.782 -0.808678 1.86633 0
M  V30 2742 C 269.137 -1.76917 0.756178 0
M  V30 2743 O 268.43 -1.90055 -0.242834 0
M  V30 2744 C 268.624 -1.58628 3.20268 0
M  V30 2745 C 268.453 -0.702592 4.44178 0
M  V30 2746 C 267.223 -0.352808 5.04067 0
M  V30 2747 C 269.421 -0.0148031 5.14298 0
M  V30 2748 N 267.403 0.540279 6.11518 0
M  V30 2749 C 268.774 0.736809 6.15606 0
M  V30 2750 C 270.829 0.0603524 4.97863 0
M  V30 2751 C 269.532 1.55654 7.02257 0
M  V30 2752 C 271.558 0.866942 5.85011 0
M  V30 2753 C 270.92 1.60671 6.85831 0
M  V30 2754 H 267.019 -0.27246 0.733001 0
M  V30 2755 H 269.603 -0.0717858 1.94568 0
M  V30 2756 H 267.774 -2.29413 3.13408 0
M  V30 2757 H 269.506 -2.23434 3.3743 0
M  V30 2758 H 266.261 -0.697802 4.68431 0
M  V30 2759 H 266.685 0.979029 6.69884 0
M  V30 2760 H 271.327 -0.497236 4.19866 0
M  V30 2761 H 269.045 2.12524 7.79653 0
M  V30 2762 H 272.631 0.927612 5.74358 0
M  V30 2763 H 271.511 2.2208 7.52097 0
M  V30 2764 N 269.014 -1.53014 -0.377408 0
M  V30 2765 C 270.262 -1.6829 -1.11906 0
M  V30 2766 C 270.583 -0.431206 -1.90173 0
M  V30 2767 O 269.853 0.554595 -1.87886 0
M  V30 2768 H 268.433 -0.620371 -0.416112 0
M  V30 2769 H 271.095 -1.90167 -0.426893 0
M  V30 2770 H 270.191 -2.53862 -1.8155 0
M  V30 2771 N 270.492 0.636531 -1.44174 0
M  V30 2772 C 271.717 1.42847 -1.50364 0
M  V30 2773 C 272.142 1.87665 -0.127867 0
M  V30 2774 O 271.5 1.58408 0.88185 0
M  V30 2775 C 271.548 2.62854 -2.4686 0
M  V30 2776 O 270.652 3.62501 -1.9664 0
M  V30 2777 H 269.993 0.427642 -0.507955 0
M  V30 2778 H 272.523 0.777422 -1.89255 0
M  V30 2779 H 272.533 3.10465 -2.64718 0
M  V30 2780 H 271.208 2.29578 -3.46795 0
M  V30 2781 H 269.785 3.21735 -1.88523 0
M  V30 2782 N 271.97 1.30982 0.876444 0
M  V30 2783 C 273.198 1.23242 1.6619 0
M  V30 2784 C 273.613 -0.203345 1.87702 0
M  V30 2785 O 272.97 -1.13317 1.43057 0
M  V30 2786 C 273.021 1.96623 3.03351 0
M  V30 2787 O 272.742 3.34594 2.82804 0
M  V30 2788 C 274.243 1.95644 3.97792 0
M  V30 2789 H 271.463 0.426126 0.518322 0
M  V30 2790 H 274.007 1.7275 1.09442 0
M  V30 2791 H 272.162 1.50892 3.56806 0
M  V30 2792 H 272.576 3.71873 3.69879 0
M  V30 2793 H 274.05 2.51511 4.91372 0
M  V30 2794 H 274.527 0.937395 4.2908 0
M  V30 2795 H 275.133 2.41225 3.50272 0
M  V30 2796 N 273.449 -1.08991 1.13837 0
M  V30 2797 C 274.695 -1.81526 0.90422 0
M  V30 2798 C 275.028 -1.85706 -0.568066 0
M  V30 2799 O 274.303 -1.32855 -1.42056 0
M  V30 2800 C 274.586 -3.27447 1.49835 0
M  V30 2801 C 274.439 -3.31512 3.04006 0
M  V30 2802 C 275.758 -4.24256 1.17025 0
M  V30 2803 H 272.877 -0.659029 0.329923 0
M  V30 2804 H 275.519 -1.27644 1.40737 0
M  V30 2805 H 273.669 -3.73462 1.07044 0
M  V30 2806 H 275.341 -2.93867 3.55584 0
M  V30 2807 H 273.584 -2.70963 3.38765 0
M  V30 2808 H 274.255 -4.34329 3.40679 0
M  V30 2809 H 276.731 -3.86549 1.54009 0
M  V30 2810 H 275.607 -5.24684 1.61237 0
M  V30 2811 H 275.868 -4.42019 0.0846274 0
M  V30 2812 N 274.927 -0.932562 -1.27047 0
M  V30 2813 C 275.874 -0.434072 -2.26681 0
M  V30 2814 C 276.844 0.501639 -1.58344 0
M  V30 2815 O 278.029 0.419734 -1.86126 0
M  V30 2816 C 275.169 0.30261 -3.43771 0
M  V30 2817 C 274.282 -0.667774 -4.26808 0
M  V30 2818 C 273.417 0.0892393 -5.31125 0
M  V30 2819 C 272.456 -0.873532 -6.05835 0
M  V30 2820 N 271.593 -0.148832 -7.01942 0
M  V30 2821 H 276.433 -1.28868 -2.68695 0
M  V30 2822 H 273.97 -0.646713 -1.32121 0
M  V30 2823 H 275.928 0.746092 -4.10474 0
M  V30 2824 H 274.558 1.12142 -3.02695 0
M  V30 2825 H 273.61 -1.22978 -3.59973 0
M  V30 2826 H 274.922 -1.40337 -4.78651 0
M  V30 2827 H 274.076 0.592409 -6.03801 0
M  V30 2828 H 272.815 0.85777 -4.80097 0
M  V30 2829 H 271.82 -1.38791 -5.31994 0
M  V30 2830 H 273.045 -1.64193 -6.58952 0
M  V30 2831 H 270.991 0.601365 -6.53238 0
M  V30 2832 H 270.908 -0.82391 -7.51497 0
M  V30 2833 H 272.176 0.333527 -7.78786 0
M  V30 2834 N 276.405 1.4127 -0.698611 0
M  V30 2835 C 277.353 2.32588 -0.023855 0
M  V30 2836 C 278.347 1.51128 0.765292 0
M  V30 2837 O 279.553 1.67043 0.670571 0
M  V30 2838 H 275.928 0.751918 0.0110871 0
M  V30 2839 H 277.899 2.87167 -0.811031 0
M  V30 2840 C 276.648 3.35947 0.896369 0
M  V30 2841 H 275.971 3.98684 0.298548 0
M  V30 2842 H 277.411 4.02376 1.33676 0
M  V30 2843 C 275.87 2.70076 2.01396 0
M  V30 2844 O 276.4 2.55093 3.10307 0
M  V30 2845 N 274.606 2.28724 1.79259 0
M  V30 2846 H 274.153 2.4111 0.906841 0
M  V30 2847 H 274.111 1.84986 2.54219 0
M  V30 2848 N 277.883 0.443576 1.51229 0
M  V30 2849 C 279.111 -0.11929 2.06556 0
M  V30 2850 C 279.526 -1.35921 1.31038 0
M  V30 2851 O 278.883 -1.78675 0.371704 0
M  V30 2852 C 278.934 -0.435228 3.5887 0
M  V30 2853 O 278.655 0.755486 4.31537 0
M  V30 2854 C 280.156 -1.04808 4.30732 0
M  V30 2855 H 277.376 -0.0051584 0.67098 0
M  V30 2856 H 279.92 0.624453 1.94733 0
M  V30 2857 H 278.075 -1.12887 3.70588 0
M  V30 2858 H 278.489 0.483491 5.22267 0
M  V30 2859 H 279.963 -1.2191 5.3837 0
M  V30 2860 H 280.44 -2.03081 3.89429 0
M  V30 2861 H 281.046 -0.393637 4.23474 0
M  V30 2862 N 279.361 -1.56624 0.175154 0
M  V30 2863 C 280.294 -2.14 -0.792412 0
M  V30 2864 C 281.272 -1.07114 -1.22333 0
M  V30 2865 O 282.456 -1.35112 -1.31442 0
M  V30 2866 C 279.583 -2.68268 -2.0676 0
M  V30 2867 C 278.629 -3.87562 -1.7804 0
M  V30 2868 S 279.462 -5.27074 -0.946222 0
M  V30 2869 C 280.618 -5.8475 -2.23199 0
M  V30 2870 H 280.851 -2.95736 -0.304588 0
M  V30 2871 H 278.384 -1.54349 -0.0395705 0
M  V30 2872 H 280.342 -3.00182 -2.80002 0
M  V30 2873 H 279.003 -1.86612 -2.52656 0
M  V30 2874 H 278.196 -4.23874 -2.72666 0
M  V30 2875 H 277.798 -3.56555 -1.12891 0
M  V30 2876 H 280.09 -5.97898 -3.18629 0
M  V30 2877 H 281.033 -6.81756 -1.91349 0
M  V30 2878 H 281.441 -5.13198 -2.35134 0
M  V30 2879 N 280.839 0.0985539 -1.57292 0
M  V30 2880 C 282.085 0.803867 -1.86188 0
M  V30 2881 C 282.418 1.78549 -0.763794 0
M  V30 2882 O 281.693 1.93153 0.22855 0
M  V30 2883 C 281.976 1.53568 -3.25713 0
M  V30 2884 C 281.829 0.572277 -4.46145 0
M  V30 2885 C 283.148 2.48708 -3.63087 0
M  V30 2886 H 280.267 0.290781 -0.677211 0
M  V30 2887 H 282.909 0.0675783 -1.8988 0
M  V30 2888 H 281.059 2.16332 -3.22696 0
M  V30 2889 H 282.731 -0.0480894 -4.61275 0
M  V30 2890 H 280.974 -0.114618 -4.33649 0
M  V30 2891 H 281.645 1.12139 -5.40489 0
M  V30 2892 H 284.121 1.96039 -3.67026 0
M  V30 2893 H 282.997 2.96932 -4.61652 0
M  V30 2894 H 283.258 3.32309 -2.91588 0
M  V30 2895 N 282.317 1.53212 0.369288 0
M  V30 2896 C 283.557 1.70915 1.12105 0
M  V30 2897 C 283.921 0.449444 1.86665 0
M  V30 2898 O 285.122 0.503105 2.6405 0
M  V30 2899 C 283.393 2.9222 2.05772 0
M  V30 2900 S 284.952 3.30609 2.88519 0
M  V30 2901 H 281.77 0.601445 0.379189 0
M  V30 2902 H 284.372 1.91306 0.402794 0
M  V30 2903 H 283.076 3.82103 1.49752 0
M  V30 2904 H 282.607 2.7422 2.82076 0
M  V30 2905 H 284.622 2.82333 4.08047 0
M  V30 2906 N 283.795 -0.628877 1.44509 0
M  V30 2907 C 284.758 -1.72263 1.51188 0
M  V30 2908 C 285.758 -1.55907 0.39367 0
M  V30 2909 O 286.948 -1.61361 0.656377 0
M  V30 2910 C 284.08 -3.11365 1.38798 0
M  V30 2911 H 285.273 -1.67714 2.4862 0
M  V30 2912 H 282.826 -0.842737 1.31634 0
M  V30 2913 H 283.561 -3.21507 0.424693 0
M  V30 2914 H 283.346 -3.24644 2.19884 0
M  V30 2915 H 284.836 -3.91075 1.46458 0
M  V30 2916 N 285.273 -1.31445 -0.869486 0
M  V30 2917 C 286.521 -1.20918 -1.61936 0
M  V30 2918 C 286.842 0.232683 -1.93607 0
M  V30 2919 O 286.112 1.15352 -1.58338 0
M  V30 2920 H 284.692 -0.44454 -0.600328 0
M  V30 2921 H 287.354 -1.64776 -1.0409 0
M  V30 2922 H 286.45 -1.78124 -2.56278 0
M  V30 2923 N 286.751 1.08385 -1.14413 0
M  V30 2924 C 287.999 1.80419 -0.910679 0
M  V30 2925 C 288.32 1.86658 0.564243 0
M  V30 2926 O 287.59 1.35985 1.41014 0
M  V30 2927 H 286.17 0.668204 -0.333934 0
M  V30 2928 H 288.832 1.31037 -1.44275 0
M  V30 2929 H 287.928 2.83238 -1.31082 0
M  V30 2930 N 288.23 0.939286 1.26551 0
M  V30 2931 C 289.507 0.5038 1.89001 0
M  V30 2932 C 289.887 -1.01854 1.84903 0
M  V30 2933 O 289.235 -1.87773 1.30206 0
M  V30 2934 C 289.445 1.063 3.32417 0
M  V30 2935 C 290.793 1.13051 4.09273 0
M  V30 2936 O 291.817 1.01345 3.41479 0
M  V30 2937 O 290.676 1.31233 5.30509 0
M  V30 2938 H 287.77 0.163897 0.810597 0
M  V30 2939 H 290.316 1.03173 1.34735 0
M  V30 2940 H 289.088 2.10665 3.29752 0
M  V30 2941 H 288.711 0.517408 3.94219 0
M  V30 2942 N 289.708 -1.40897 0.706093 0
M  V30 2943 C 290.956 -2.00657 0.241054 0
M  V30 2944 C 291.277 -1.56241 -1.16678 0
M  V30 2945 O 290.547 -0.79765 -1.78926 0
M  V30 2946 H 289.127 -0.742018 0.0861308 0
M  V30 2947 H 291.789 -1.72372 0.909604 0
M  V30 2948 H 290.885 -3.10958 0.266705 0
M  V30 2949 N 291.186 -0.45159 -1.50991 0
M  V30 2950 C 292.432 0.110237 -2.025 0
M  V30 2951 C 292.765 1.41109 -1.33424 0
M  V30 2952 O 292.04 1.89135 -0.453659 0
M  V30 2953 C 292.323 0.314271 -3.58726 0
M  V30 2954 C 292.176 -1.00623 -4.38401 0
M  V30 2955 C 293.495 1.07767 -4.26702 0
M  V30 2956 H 290.614 0.0385897 -0.735989 0
M  V30 2957 H 293.256 -0.593374 -1.80497 0
M  V30 2958 H 291.406 0.913601 -3.77605 0
M  V30 2959 H 293.078 -1.64064 -4.31139 0
M  V30 2960 H 291.321 -1.6075 -4.02917 0
M  V30 2961 H 291.992 -0.817341 -5.45915 0
M  V30 2962 H 294.468 0.56986 -4.12179 0
M  V30 2963 H 293.344 1.18921 -5.35863 0
M  V30 2964 H 293.605 2.10939 -3.88532 0
M  V30 2965 N 292.664 1.56529 -0.183458 0
M  V30 2966 C 294.08 1.58664 0.172554 0
M  V30 2967 C 294.28 1.19925 1.61926 0
M  V30 2968 O 293.336 0.916534 2.35278 0
M  V30 2969 C 294.649 3.00463 -0.119262 0
M  V30 2970 C 296.197 3.12945 -0.0584396 0
M  V30 2971 C 296.672 4.56857 -0.323408 0
M  V30 2972 N 298.163 4.62403 -0.271612 0
M  V30 2973 C 298.898 5.71626 -0.450639 0
M  V30 2974 N 298.394 6.89362 -0.689384 0
M  V30 2975 N 300.187 5.60775 -0.385701 0
M  V30 2976 H 292.338 1.79994 -1.12765 0
M  V30 2977 H 294.601 0.834808 -0.449222 0
M  V30 2978 H 294.307 3.33326 -1.12192 0
M  V30 2979 H 294.181 3.72659 0.583544 0
M  V30 2980 H 296.568 2.79902 0.934805 0
M  V30 2981 H 296.649 2.4316 -0.794144 0
M  V30 2982 H 296.293 4.9061 -1.31392 0
M  V30 2983 H 296.223 5.24816 0.43305 0
M  V30 2984 H 298.714 3.77785 -0.0932256 0
M  V30 2985 H 299.027 7.68489 -0.815113 0
M  V30 2986 H 297.372 6.91196 -0.726142 0
M  V30 2987 H 300.563 4.67674 -0.199687 0
M  V30 2988 H 300.736 6.4584 -0.528646 0
M  V30 2989 N 294.142 -0.090211 1.57342 0
M  V30 2990 C 295.367 -0.810082 1.90925 0
M  V30 2991 C 295.792 -1.71248 0.778187 0
M  V30 2992 O 295.15 -1.79278 -0.269991 0
M  V30 2993 C 295.198 -1.59529 3.23393 0
M  V30 2994 O 294.302 -2.70461 3.11327 0
M  V30 2995 H 293.643 -0.222231 0.625707 0
M  V30 2996 H 296.173 -0.0639716 2.045 0
M  V30 2997 H 296.183 -1.97847 3.5682 0
M  V30 2998 H 294.858 -0.933055 4.05299 0
M  V30 2999 H 293.435 -2.35135 2.89423 0
M  V30 3000 N 295.62 -1.53406 -0.361157 0
M  V30 3001 C 296.868 -1.69467 -1.10115 0
M  V30 3002 C 297.189 -0.451352 -1.89705 0
M  V30 3003 O 296.459 0.534636 -1.88463 0
M  V30 3004 H 295.039 -0.624749 -0.409508 0
M  V30 3005 H 297.701 -1.90609 -0.406699 0
M  V30 3006 H 296.797 -2.55774 -1.78847 0
M  V30 3007 N 297.098 0.621204 -1.44841 0
M  V30 3008 C 298.338 1.39201 -1.49674 0
M  V30 3009 C 298.702 1.91561 -0.129764 0
M  V30 3010 O 299.903 2.68748 -0.0527814 0
M  V30 3011 C 298.174 2.519 -2.53537 0
M  V30 3012 S 299.733 3.39916 -2.77494 0
M  V30 3013 H 296.551 0.474758 -0.529269 0
M  V30 3014 H 299.153 0.718171 -1.81831 0
M  V30 3015 H 297.857 2.11761 -3.51547 0
M  V30 3016 H 297.388 3.241 -2.22986 0
M  V30 3017 H 299.403 4.49646 -2.0984 0
M  V30 3018 N 298.576 1.31904 0.862503 0
M  V30 3019 C 299.508 1.16005 1.97675 0
M  V30 3020 C 300.521 0.0971234 1.6251 0
M  V30 3021 O 301.71 0.345337 1.75128 0
M  V30 3022 C 298.81 0.751791 3.30456 0
M  V30 3023 C 297.983 1.90133 3.93914 0
M  V30 3024 C 297.042 1.4779 5.05019 0
M  V30 3025 O 296.068 2.18872 5.25437 0
M  V30 3026 N 297.27 0.369491 5.79323 0
M  V30 3027 H 300.035 2.11982 2.11857 0
M  V30 3028 H 297.596 1.24337 1.03691 0
M  V30 3029 H 299.588 0.451084 4.02178 0
M  V30 3030 H 298.158 -0.116593 3.12382 0
M  V30 3031 H 297.378 2.36896 3.15078 0
M  V30 3032 H 298.666 2.67111 4.33047 0
M  V30 3033 H 298.064 -0.222299 5.65263 0
M  V30 3034 H 296.621 0.128354 6.51674 0
M  V30 3035 N 300.054 -1.07777 1.14986 0
M  V30 3036 C 301.302 -1.79934 0.920235 0
M  V30 3037 C 301.623 -1.86955 -0.554336 0
M  V30 3038 O 300.893 -1.36731 -1.40291 0
M  V30 3039 H 299.473 -0.666424 0.337473 0
M  V30 3040 H 302.135 -1.3027 1.44968 0
M  V30 3041 H 301.231 -2.82539 1.32583 0
M  V30 3042 N 301.532 -0.945985 -1.26051 0
M  V30 3043 C 302.809 -0.513816 -1.88731 0
M  V30 3044 C 303.189 1.00872 -1.8544 0
M  V30 3045 O 302.537 1.8708 -1.312 0
M  V30 3046 C 302.747 -1.08062 -3.31849 0
M  V30 3047 C 304.095 -1.1522 -4.08668 0
M  V30 3048 O 305.119 -1.03155 -3.40936 0
M  V30 3049 O 303.978 -1.34044 -5.29806 0
M  V30 3050 H 301.072 -0.168193 -0.809716 0
M  V30 3051 H 303.618 -1.03886 -1.34186 0
M  V30 3052 H 302.39 -2.1241 -3.2863 0
M  V30 3053 H 302.013 -0.538307 -3.93939 0
M  V30 3054 N 303.011 1.40521 -0.713556 0
M  V30 3055 C 304.236 2.05759 -0.26035 0
M  V30 3056 C 304.661 1.53403 1.08854 0
M  V30 3057 O 304.019 0.668535 1.68524 0
M  V30 3058 C 304.067 3.59745 -0.248122 0
M  V30 3059 O 303.171 4.05123 0.77131 0
M  V30 3060 H 302.512 0.652564 -0.122703 0
M  V30 3061 H 305.042 1.79958 -0.973467 0
M  V30 3062 H 305.052 4.07911 -0.0851129 0
M  V30 3063 H 303.727 3.97218 -1.2325 0
M  V30 3064 H 302.304 3.68422 0.57619 0
M  V30 3065 N 304.489 0.459591 1.5075 0
M  V30 3066 C 305.737 -0.0991532 2.01857 0
M  V30 3067 C 306.058 -1.41247 1.34441 0
M  V30 3068 O 305.328 -1.89775 0.486022 0
M  V30 3069 H 303.908 -0.039633 0.745948 0
M  V30 3070 H 306.57 0.607387 1.85194 0
M  V30 3071 H 305.666 -0.258998 3.11023 0
M  V30 3072 N 305.967 -1.56429 0.191757 0
M  V30 3073 C 307.215 -1.97095 -0.447006 0
M  V30 3074 C 307.536 -1.07967 -1.62383 0
M  V30 3075 O 306.806 -0.150248 -1.95323 0
M  V30 3076 H 305.386 -0.727832 -0.168135 0
M  V30 3077 H 308.048 -1.92911 0.27771 0
M  V30 3078 H 307.144 -3.01848 -0.793371 0
M  V30 3079 N 307.445 0.0818655 -1.57387 0
M  V30 3080 C 308.856 0.634871 -1.75574 0
M  V30 3081 C 309.207 1.78435 -0.815809 0
M  V30 3082 O 308.332 2.164 0.0025366 0
M  V30 3083 C 308.927 1.15845 -3.18379 0
M  V30 3084 C 307.486 1.65741 -3.37945 0
M  V30 3085 C 306.633 0.572549 -2.71325 0
M  V30 3086 H 309.584 -0.144268 -1.58043 0
M  V30 3087 H 309.605 2.02751 -3.21982 0
M  V30 3088 H 309.117 0.321631 -3.86765 0
M  V30 3089 H 307.218 2.51781 -2.74658 0
M  V30 3090 H 307.331 1.74129 -4.46336 0
M  V30 3091 H 305.695 1.01518 -2.33594 0
M  V30 3092 H 306.478 -0.253918 -3.4236 0
M  V30 3093 N 308.923 1.53595 0.353017 0
M  V30 3094 C 309.853 1.83902 1.43883 0
M  V30 3095 C 310.834 0.693421 1.55324 0
M  V30 3096 O 312.019 0.944452 1.69687 0
M  V30 3097 C 309.149 2.04016 2.8106 0
M  V30 3098 C 308.103 3.19814 2.84434 0
M  V30 3099 C 307.429 3.25244 4.24406 0
M  V30 3100 C 308.729 4.58133 2.50822 0
M  V30 3101 H 310.423 2.74835 1.1877 0
M  V30 3102 H 307.969 1.32242 0.569917 0
M  V30 3103 H 309.922 2.238 3.57059 0
M  V30 3104 H 308.646 1.09804 3.07588 0
M  V30 3105 H 307.305 2.9987 2.10887 0
M  V30 3106 H 306.953 2.28646 4.48029 0
M  V30 3107 H 306.653 4.03054 4.27576 0
M  V30 3108 H 308.177 3.47228 5.0226 0
M  V30 3109 H 309.591 4.77995 3.16534 0
M  V30 3110 H 307.988 5.38276 2.6529 0
M  V30 3111 H 309.058 4.62387 1.46034 0
M  V30 3112 N 310.401 -0.613514 1.45168 0
M  V30 3113 C 311.351 -1.71871 1.49815 0
M  V30 3114 C 312.335 -1.56774 0.362021 0
M  V30 3115 O 313.527 -1.66212 0.608493 0
M  V30 3116 C 310.656 -3.1061 1.46207 0
M  V30 3117 C 309.742 -3.31114 2.64999 0
M  V30 3118 N 310.133 -3.21904 3.90143 0
M  V30 3119 C 308.431 -3.61966 2.6057 0
M  V30 3120 C 309.132 -3.43577 4.69393 0
M  V30 3121 N 308.108 -3.67287 4.00751 0
M  V30 3122 H 311.91 -1.63235 2.444 0
M  V30 3123 H 309.424 -0.816577 1.40377 0
M  V30 3124 H 311.421 -3.8989 1.4762 0
M  V30 3125 H 310.081 -3.20399 0.52673 0
M  V30 3126 H 311.092 -3.00436 4.21852 0
M  V30 3127 H 307.769 -3.78629 1.75916 0
M  V30 3128 H 309.159 -3.41901 5.78406 0
M  V30 3129 N 311.879 -1.3236 -0.855495 0
M  V30 3130 C 313.119 -1.24187 -1.62348 0
M  V30 3131 C 313.483 0.193597 -1.91021 0
M  V30 3132 O 314.684 0.39904 -2.65822 0
M  V30 3133 C 312.955 -2.07661 -2.90881 0
M  V30 3134 S 314.514 -2.16505 -3.81669 0
M  V30 3135 H 311.332 -0.442076 -0.556857 0
M  V30 3136 H 313.934 -1.67198 -1.01317 0
M  V30 3137 H 312.638 -3.11018 -2.67761 0
M  V30 3138 H 312.169 -1.65425 -3.56929 0
M  V30 3139 H 314.184 -1.31394 -4.78487 0
M  V30 3140 N 313.357 1.07166 -1.15556 0
M  V30 3141 C 314.287 2.16403 -0.877046 0
M  V30 3142 C 315.268 1.69217 0.173111 0
M  V30 3143 O 316.453 1.94181 0.027084 0
M  V30 3144 C 313.583 3.45349 -0.367632 0
M  V30 3145 C 312.537 4.05995 -1.35468 0
M  V30 3146 C 311.863 5.30045 -0.704038 0
M  V30 3147 C 313.163 4.45804 -2.72132 0
M  V30 3148 H 314.857 2.39959 -1.79053 0
M  V30 3149 H 312.403 1.15325 -0.862331 0
M  V30 3150 H 314.356 4.21095 -0.160317 0
M  V30 3151 H 313.08 3.21385 0.581326 0
M  V30 3152 H 311.739 3.32296 -1.54839 0
M  V30 3153 H 311.387 5.02373 0.251128 0
M  V30 3154 H 311.087 5.71579 -1.36277 0
M  V30 3155 H 312.611 6.08495 -0.50654 0
M  V30 3156 H 314.025 5.12671 -2.56595 0
M  V30 3157 H 312.422 4.98296 -3.34397 0
M  V30 3158 H 313.492 3.57083 -3.28054 0
M  V30 3159 N 314.835 0.952656 1.25548 0
M  V30 3160 C 316.081 0.607272 1.93494 0
M  V30 3161 C 316.414 -0.853245 1.74452 0
M  V30 3162 O 315.689 -1.61194 1.08843 0
M  V30 3163 C 315.972 0.96435 3.46947 0
M  V30 3164 C 315.825 2.48045 3.75225 0
M  V30 3165 C 317.144 0.487987 4.37386 0
M  V30 3166 H 314.263 0.222096 0.702739 0
M  V30 3167 H 316.905 1.18895 1.48203 0
M  V30 3168 H 315.055 0.469361 3.85654 0
M  V30 3169 H 316.727 3.04905 3.46166 0
M  V30 3170 H 314.97 2.919 3.209 0
M  V30 3171 H 315.641 2.6808 4.82532 0
M  V30 3172 H 318.117 0.912558 4.0597 0
M  V30 3173 H 316.993 0.766547 5.43521 0
M  V30 3174 H 317.254 -0.612063 4.37843 0
M  V30 3175 N 316.313 -1.40141 0.720998 0
M  V30 3176 C 317.261 -2.3252 0.0608547 0
M  V30 3177 C 318.255 -1.52326 -0.741152 0
M  V30 3178 O 319.461 -1.68089 -0.643911 0
M  V30 3179 H 315.836 -0.751999 0.000876664 0
M  V30 3180 H 317.807 -2.8584 0.856614 0
M  V30 3181 C 316.556 -3.37331 -0.842809 0
M  V30 3182 H 315.879 -3.99108 -0.235084 0
M  V30 3183 H 317.319 -4.04452 -1.27257 0
M  V30 3184 C 315.778 -2.73246 -1.97074 0
M  V30 3185 O 316.308 -2.59998 -3.06209 0
M  V30 3186 N 314.514 -2.31547 -1.75597 0
M  V30 3187 H 314.061 -2.42522 -0.868368 0
M  V30 3188 H 314.019 -1.89007 -2.51244 0
M  V30 3189 N 317.792 -0.46758 -1.50504 0
M  V30 3190 C 319.04 0.0884469 -2.01906 0
M  V30 3191 C 319.361 1.40532 -1.35188 0
M  V30 3192 O 318.631 1.89515 -0.496079 0
M  V30 3193 H 317.211 0.0356765 -0.746148 0
M  V30 3194 H 319.873 -0.6172 -1.84869 0
M  V30 3195 H 318.969 0.2425 -3.11156 0
M  V30 3196 N 319.27 1.56325 -0.20005 0
M  V30 3197 C 320.217 2.1932 0.718833 0
M  V30 3198 C 321.187 1.14198 1.20615 0
M  V30 3199 O 322.372 1.42469 1.26914 0
M  V30 3200 C 319.512 2.86041 1.93066 0
M  V30 3201 C 318.625 4.05702 1.48425 0
M  V30 3202 C 317.76 4.60266 2.65196 0
M  V30 3203 C 316.799 5.72273 2.17185 0
M  V30 3204 N 315.936 6.21221 3.27152 0
M  V30 3205 H 320.776 2.97486 0.17489 0
M  V30 3206 H 318.313 1.46911 0.0745794 0
M  V30 3207 H 320.271 3.22897 2.64184 0
M  V30 3208 H 318.901 2.1043 2.44783 0
M  V30 3209 H 317.953 3.74475 0.668755 0
M  V30 3210 H 319.265 4.86699 1.09204 0
M  V30 3211 H 318.419 4.99453 3.4443 0
M  V30 3212 H 317.158 3.78386 3.07693 0
M  V30 3213 H 316.163 5.3261 1.36407 0
M  V30 3214 H 317.388 6.55974 1.75713 0
M  V30 3215 H 315.334 5.42263 3.69171 0
M  V30 3216 H 315.251 6.97284 2.92116 0
M  V30 3217 H 316.519 6.65063 4.06585 0
M  V30 3218 N 320.748 -0.0735177 1.57428 0
M  V30 3219 C 321.978 -0.78483 1.91112 0
M  V30 3220 C 322.386 -1.71729 0.7941 0
M  V30 3221 O 321.729 -1.82105 -0.241542 0
M  V30 3222 C 321.791 -1.63346 3.20247 0
M  V30 3223 C 321.455 -0.870557 4.48632 0
M  V30 3224 C 322.452 -0.19058 5.19551 0
M  V30 3225 C 320.137 -0.838242 4.95256 0
M  V30 3226 C 322.131 0.511503 6.35344 0
M  V30 3227 C 319.818 -0.132386 6.10957 0
M  V30 3228 C 320.816 0.541288 6.80852 0
M  V30 3229 O 320.504 1.23578 7.94345 0
M  V30 3230 H 320.236 -0.228408 0.636244 0
M  V30 3231 H 322.79 -0.0486039 2.05342 0
M  V30 3232 H 321.02 -2.41245 3.02222 0
M  V30 3233 H 322.709 -2.22329 3.39595 0
M  V30 3234 H 323.475 -0.206864 4.84559 0
M  V30 3235 H 319.354 -1.35206 4.40727 0
M  V30 3236 H 322.898 1.03789 6.89836 0
M  V30 3237 H 318.795 -0.114023 6.45399 0
M  V30 3238 H 319.563 1.14487 8.10454 0
M  V30 3239 N 322.226 -1.5378 -0.344866 0
M  V30 3240 C 323.451 -1.75211 -1.10977 0
M  V30 3241 C 323.876 -0.48936 -1.81623 0
M  V30 3242 O 323.234 0.557925 -1.72502 0
M  V30 3243 C 323.282 -2.93147 -2.09993 0
M  V30 3244 O 322.386 -2.63203 -3.17487 0
M  V30 3245 H 321.727 -0.581241 -0.321021 0
M  V30 3246 H 324.257 -2.00738 -0.395661 0
M  V30 3247 H 324.267 -3.19898 -2.53237 0
M  V30 3248 H 322.942 -3.84731 -1.5797 0
M  V30 3249 H 321.519 -2.47336 -2.79069 0
M  V30 3250 N 323.704 0.605807 -1.45491 0
M  V30 3251 C 324.95 1.36679 -1.49823 0
M  V30 3252 C 325.283 1.93693 -0.140175 0
M  V30 3253 O 324.558 1.75158 0.845581 0
M  V30 3254 C 324.841 2.51337 -2.57879 0
M  V30 3255 C 324.694 1.99508 -4.03134 0
M  V30 3256 C 326.013 3.53463 -2.62205 0
M  V30 3257 H 323.132 0.495617 -0.545466 0
M  V30 3258 H 325.774 0.682732 -1.7731 0
M  V30 3259 H 323.924 3.09691 -2.34571 0
M  V30 3260 H 325.596 1.45789 -4.37656 0
M  V30 3261 H 323.839 1.30496 -4.13707 0
M  V30 3262 H 324.51 2.82169 -4.74431 0
M  V30 3263 H 326.986 3.04953 -2.83095 0
M  V30 3264 H 325.862 4.31178 -3.39672 0
M  V30 3265 H 326.123 4.09197 -1.67363 0
M  V30 3266 N 325.182 1.32811 0.848464 0
M  V30 3267 C 326.132 1.18842 1.94578 0
M  V30 3268 C 327.116 0.0937517 1.60627 0
M  V30 3269 O 328.308 0.320887 1.74067 0
M  V30 3270 C 325.437 0.91999 3.30743 0
M  V30 3271 C 324.523 2.05665 3.70894 0
M  V30 3272 N 324.914 3.30579 3.8282 0
M  V30 3273 C 323.212 1.9612 4.00566 0
M  V30 3274 C 323.913 4.05067 4.17487 0
M  V30 3275 N 322.889 3.33419 4.2934 0
M  V30 3276 H 326.691 2.13536 2.0194 0
M  V30 3277 H 324.205 1.2468 1.0406 0
M  V30 3278 H 326.202 0.800859 4.09136 0
M  V30 3279 H 324.862 -0.0185076 3.24695 0
M  V30 3280 H 325.873 3.65441 3.66978 0
M  V30 3281 H 322.55 1.09871 4.02784 0
M  V30 3282 H 323.94 5.12815 4.34131 0
M  V30 3283 N 326.66 -1.06551 1.16123 0
M  V30 3284 C 327.908 -1.78947 0.939267 0
M  V30 3285 C 328.229 -1.87532 -0.534476 0
M  V30 3286 O 327.499 -1.38211 -1.38833 0
M  V30 3287 H 326.079 -0.662807 0.344523 0
M  V30 3288 H 328.741 -1.28725 1.46342 0
M  V30 3289 H 327.837 -2.81117 1.35572 0
M  V30 3290 N 328.138 -0.959301 -1.25041 0
M  V30 3291 C 329.384 -0.617525 -1.9317 0
M  V30 3292 C 329.717 0.843981 -1.74902 0
M  V30 3293 O 328.992 1.60615 -1.09696 0
M  V30 3294 C 329.275 -0.982736 -3.46431 0
M  V30 3295 C 329.128 -2.50032 -3.73904 0
M  V30 3296 C 330.447 -0.511176 -4.37121 0
M  V30 3297 H 327.566 -0.22582 -0.701552 0
M  V30 3298 H 330.208 -1.19679 -1.4757 0
M  V30 3299 H 328.358 -0.489806 -3.854 0
M  V30 3300 H 330.03 -3.06737 -3.44544 0
M  V30 3301 H 328.273 -2.93598 -3.19348 0
M  V30 3302 H 328.944 -2.70635 -4.81103 0
M  V30 3303 H 331.42 -0.934075 -4.0548 0
M  V30 3304 H 330.296 -0.795361 -5.43107 0
M  V30 3305 H 330.557 0.588834 -4.38161 0
M  V30 3306 N 329.616 1.39756 -0.72842 0
M  V30 3307 C 330.844 2.04948 -0.283528 0
M  V30 3308 C 331.259 1.54908 1.0793 0
M  V30 3309 O 330.616 0.711135 1.68075 0
M  V30 3310 C 330.667 3.60498 -0.268957 0
M  V30 3311 O 330.388 4.08695 -1.57798 0
M  V30 3312 C 331.889 4.4288 0.192912 0
M  V30 3313 H 329.109 0.659243 -0.125056 0
M  V30 3314 H 331.653 1.78927 -0.990226 0
M  V30 3315 H 329.808 3.85444 0.388801 0
M  V30 3316 H 330.222 5.02977 -1.48709 0
M  V30 3317 H 331.696 5.51791 0.151952 0
M  V30 3318 H 332.173 4.21418 1.23708 0
M  V30 3319 H 332.779 4.23069 -0.435039 0
M  V30 3320 N 331.094 0.475555 1.50254 0
M  V30 3321 C 332.319 -0.0777042 2.07254 0
M  V30 3322 C 332.744 -1.3235 1.3366 0
M  V30 3323 O 332.102 -1.77152 0.385597 0
M  V30 3324 C 332.15 -0.340169 3.58992 0
M  V30 3325 O 331.254 -1.41982 3.87188 0
M  V30 3326 H 330.595 0.0149556 0.663832 0
M  V30 3327 H 333.125 0.667878 1.93392 0
M  V30 3328 H 333.135 -0.579332 4.03866 0
M  V30 3329 H 331.81 0.570167 4.11973 0
M  V30 3330 H 330.387 -1.16762 3.54148 0
M  V30 3331 N 332.573 -1.56217 0.208337 0
M  V30 3332 C 333.82 -1.97949 -0.42692 0
M  V30 3333 C 334.148 -1.09562 -1.60706 0
M  V30 3334 O 333.403 -0.137616 -1.95216 0
M  V30 3335 C 333.702 -3.45441 -0.916797 0
M  V30 3336 C 333.368 -4.50646 0.151391 0
M  V30 3337 C 332.03 -4.79139 0.444867 0
M  V30 3338 C 334.382 -5.13811 0.874492 0
M  V30 3339 C 331.71 -5.68084 1.46619 0
M  V30 3340 C 334.062 -6.03861 1.88506 0
M  V30 3341 C 332.726 -6.30704 2.18559 0
M  V30 3342 H 331.996 -0.724345 -0.156221 0
M  V30 3343 H 334.643 -1.89006 0.308084 0
M  V30 3344 H 332.948 -3.51521 -1.73032 0
M  V30 3345 H 334.645 -3.75094 -1.41794 0
M  V30 3346 H 331.235 -4.28511 -0.0875068 0
M  V30 3347 H 335.419 -4.91879 0.660996 0
M  V30 3348 H 330.675 -5.87151 1.7048 0
M  V30 3349 H 334.849 -6.51861 2.45051 0
M  V30 3350 H 332.476 -6.99424 2.97843 0
M  V30 3351 N 334.051 0.0651679 -1.57465 0
M  V30 3352 C 335.297 0.764193 -1.87851 0
M  V30 3353 C 335.63 1.76889 -0.801495 0
M  V30 3354 O 334.905 1.93594 0.187528 0
M  V30 3355 C 335.188 1.46625 -3.28897 0
M  V30 3356 C 335.041 0.477515 -4.47258 0
M  V30 3357 C 336.36 2.4095 -3.68281 0
M  V30 3358 H 333.479 0.276351 -0.683227 0
M  V30 3359 H 336.121 0.0272868 -1.8998 0
M  V30 3360 H 334.271 2.09438 -3.27212 0
M  V30 3361 H 335.943 -0.145922 -4.61069 0
M  V30 3362 H 334.186 -0.206576 -4.33308 0
M  V30 3363 H 334.857 1.0065 -5.42746 0
M  V30 3364 H 337.333 1.88209 -3.71102 0
M  V30 3365 H 336.209 2.87072 -4.67847 0
M  V30 3366 H 336.47 3.26049 -2.98571 0
M  V30 3367 N 335.529 1.53961 0.336706 0
M  V30 3368 C 336.754 1.75797 1.10046 0
M  V30 3369 C 337.179 0.498985 1.81361 0
M  V30 3370 O 336.537 -0.548769 1.72795 0
M  V30 3371 C 336.585 2.94257 2.08436 0
M  V30 3372 O 335.689 2.64883 3.16087 0
M  V30 3373 H 335.03 0.582936 0.317934 0
M  V30 3374 H 337.56 2.00945 0.38501 0
M  V30 3375 H 337.57 3.21237 2.51537 0
M  V30 3376 H 336.245 3.85564 1.55927 0
M  V30 3377 H 334.822 2.48812 2.77753 0
M  V30 3378 N 337.007 -0.598083 1.45811 0
M  V30 3379 C 338.232 -1.3881 1.54099 0
M  V30 3380 C 338.657 -1.8726 0.177578 0
M  V30 3381 O 338.015 -1.6069 -0.839541 0
M  V30 3382 C 338.063 -2.56217 2.53743 0
M  V30 3383 O 337.167 -3.5716 2.06182 0
M  V30 3384 H 336.508 -0.414024 0.519115 0
M  V30 3385 H 339.038 -0.726971 1.91249 0
M  V30 3386 H 339.048 -3.03337 2.72856 0
M  V30 3387 H 337.723 -2.20303 3.5276 0
M  V30 3388 H 336.3 -3.16624 1.96987 0
M  V30 3389 N 338.485 -1.33259 -0.841409 0
M  V30 3390 C 339.901 -1.12538 -1.13169 0
M  V30 3391 C 340.101 0.0854037 -2.01319 0
M  V30 3392 O 339.157 0.766417 -2.40587 0
M  V30 3393 C 340.47 -2.41156 -1.79623 0
M  V30 3394 C 342.018 -2.47038 -1.922 0
M  V30 3395 C 342.493 -3.7561 -2.6207 0
M  V30 3396 N 343.984 -3.76667 -2.69585 0
M  V30 3397 C 344.719 -4.72861 -3.2433 0
M  V30 3398 N 344.215 -5.79428 -3.79783 0
M  V30 3399 N 346.008 -4.6034 -3.22558 0
M  V30 3400 H 338.159 -2.10868 -0.254676 0
M  V30 3401 H 340.422 -0.931615 -0.175493 0
M  V30 3402 H 340.128 -3.29747 -1.22311 0
M  V30 3403 H 340.002 -2.53114 -2.79666 0
M  V30 3404 H 342.389 -1.58898 -2.48667 0
M  V30 3405 H 342.47 -2.39022 -0.911148 0
M  V30 3406 H 342.114 -4.64131 -2.06263 0
M  V30 3407 H 342.044 -3.80902 -3.63622 0
M  V30 3408 H 344.535 -2.99648 -2.30259 0
M  V30 3409 H 344.848 -6.48867 -4.19752 0
M  V30 3410 H 343.193 -5.83166 -3.78078 0
M  V30 3411 H 346.384 -3.76244 -2.78492 0
M  V30 3412 H 346.557 -5.35478 -3.64921 0
M  V30 3413 N 339.963 1.05934 -1.16686 0
M  V30 3414 C 341.211 1.78447 -0.948744 0
M  V30 3415 C 341.532 1.87813 0.524523 0
M  V30 3416 O 340.802 1.38945 1.38098 0
M  V30 3417 H 339.382 0.660971 -0.348033 0
M  V30 3418 H 342.044 1.27947 -1.47022 0
M  V30 3419 H 341.14 2.80394 -1.37061 0
M  V30 3420 N 341.441 0.965919 1.2453 0
M  V30 3421 C 342.681 0.634656 1.94297 0
M  V30 3422 C 343.045 -0.814822 1.73852 0
M  V30 3423 O 344.246 -1.25622 2.3764 0
M  V30 3424 C 342.517 0.99702 3.43212 0
M  V30 3425 S 344.076 0.780038 4.31811 0
M  V30 3426 H 340.894 0.232893 0.671775 0
M  V30 3427 H 343.496 1.24249 1.50938 0
M  V30 3428 H 342.2 2.04886 3.55598 0
M  V30 3429 H 341.731 0.379888 3.91562 0
M  V30 3430 H 343.746 -0.343512 4.9501 0
M  V30 3431 N 342.919 -1.39368 0.735821 0
M  V30 3432 C 343.867 -2.32443 0.0855131 0
M  V30 3433 C 344.861 -1.53104 -0.724954 0
M  V30 3434 O 346.067 -1.68762 -0.626047 0
M  V30 3435 H 342.442 -0.751948 0.00885257 0
M  V30 3436 H 344.413 -2.84916 0.886883 0
M  V30 3437 C 343.162 -3.38206 -0.806983 0
M  V30 3438 H 342.485 -3.99335 -0.19274 0
M  V30 3439 H 343.925 -4.05779 -1.2296 0
M  V30 3440 C 342.384 -2.75321 -1.94165 0
M  V30 3441 O 342.914 -2.63231 -3.03435 0
M  V30 3442 N 341.12 -2.33396 -1.73132 0
M  V30 3443 H 340.667 -2.4343 -0.842596 0
M  V30 3444 H 340.625 -1.91661 -2.49225 0
M  V30 3445 N 344.397 -0.483516 -1.5 0
M  V30 3446 C 345.643 0.0672592 -2.02688 0
M  V30 3447 C 345.976 1.38247 -1.36387 0
M  V30 3448 O 345.251 1.88131 -0.493675 0
M  V30 3449 C 345.534 0.238109 -3.59312 0
M  V30 3450 C 345.387 -1.099 -4.36168 0
M  V30 3451 C 346.706 0.986916 -4.28892 0
M  V30 3452 H 343.825 0.0229696 -0.736642 0
M  V30 3453 H 346.467 -0.631527 -1.79197 0
M  V30 3454 H 344.617 0.8333 -3.79458 0
M  V30 3455 H 346.289 -1.73172 -4.27562 0
M  V30 3456 H 344.532 -1.69261 -3.99416 0
M  V30 3457 H 345.203 -0.932954 -5.44059 0
M  V30 3458 H 347.679 0.482302 -4.13295 0
M  V30 3459 H 346.555 1.07527 -5.38265 0
M  V30 3460 H 346.816 2.0265 -3.92919 0
M  V30 3461 N 345.875 1.56104 -0.216619 0
M  V30 3462 C 347.1 2.0301 0.424462 0
M  V30 3463 C 347.525 1.0955 1.52907 0
M  V30 3464 O 346.883 0.0827914 1.81111 0
M  V30 3465 C 346.931 3.4819 0.937883 0
M  V30 3466 O 346.035 3.57865 2.04955 0
M  V30 3467 H 345.376 0.656925 0.0966755 0
M  V30 3468 H 347.906 2.01859 -0.33381 0
M  V30 3469 H 347.916 3.88413 1.24897 0
M  V30 3470 H 346.591 4.15699 0.129387 0
M  V30 3471 H 345.168 3.29527 1.74546 0
M  V30 3472 N 347.353 -0.0568162 1.57498 0
M  V30 3473 C 348.769 -0.411933 1.54192 0
M  V30 3474 C 348.969 -1.78287 0.938942 0
M  V30 3475 O 348.025 -2.46483 0.547919 0
M  V30 3476 C 349.338 -0.339244 2.9878 0
M  V30 3477 C 350.886 -0.418348 3.10192 0
M  V30 3478 C 351.361 -0.375407 4.56459 0
M  V30 3479 N 352.852 -0.435038 4.61153 0
M  V30 3480 C 353.587 -0.424265 5.71828 0
M  V30 3481 N 353.083 -0.367418 6.91825 0
M  V30 3482 N 354.876 -0.471938 5.60115 0
M  V30 3483 H 347.027 0.840684 1.95055 0
M  V30 3484 H 349.29 0.316987 0.893433 0
M  V30 3485 H 348.996 0.601742 3.46514 0
M  V30 3486 H 348.87 -1.14371 3.59443 0
M  V30 3487 H 351.257 -1.34976 2.62422 0
M  V30 3488 H 351.338 0.414962 2.52412 0
M  V30 3489 H 350.982 0.552219 5.04889 0
M  V30 3490 H 350.912 -1.22645 5.12119 0
M  V30 3491 H 353.403 -0.482612 3.74806 0
M  V30 3492 H 353.716 -0.363535 7.71944 0
M  V30 3493 H 352.061 -0.333879 6.94198 0
M  V30 3494 H 355.252 -0.514145 4.65268 0
M  V30 3495 H 355.425 -0.460073 6.46365 0
M  V30 3496 N 348.832 -1.54138 -0.328536 0
M  V30 3497 C 349.779 -1.83176 -1.40411 0
M  V30 3498 C 350.749 -0.678494 -1.5161 0
M  V30 3499 O 351.934 -0.92443 -1.6691 0
M  V30 3500 C 349.074 -2.06035 -2.76846 0
M  V30 3501 C 348.187 -3.33727 -2.74318 0
M  V30 3502 C 347.322 -3.46574 -4.02567 0
M  V30 3503 C 346.361 -4.68159 -3.94327 0
M  V30 3504 N 345.498 -4.77959 -5.14296 0
M  V30 3505 H 350.338 -2.74938 -1.14948 0
M  V30 3506 H 347.875 -1.36166 -0.556538 0
M  V30 3507 H 349.833 -2.1728 -3.56153 0
M  V30 3508 H 348.463 -1.1757 -3.00628 0
M  V30 3509 H 347.515 -3.31246 -1.8703 0
M  V30 3510 H 348.827 -4.23139 -2.64111 0
M  V30 3511 H 347.981 -3.57333 -4.90304 0
M  V30 3512 H 346.72 -2.55245 -4.15574 0
M  V30 3513 H 345.725 -4.57461 -3.04974 0
M  V30 3514 H 346.95 -5.60868 -3.82889 0
M  V30 3515 H 344.896 -3.89544 -5.27818 0
M  V30 3516 H 344.813 -5.6133 -5.06404 0
M  V30 3517 H 346.081 -4.93044 -6.03761 0
M  V30 3518 N 350.31 0.590341 -1.46126 0
M  V30 3519 C 351.721 1.17243 -1.45296 0
M  V30 3520 C 352.072 1.95281 -0.189723 0
M  V30 3521 O 351.197 2.04502 0.707674 0
M  V30 3522 C 351.792 2.13284 -2.6324 0
M  V30 3523 C 350.351 2.66832 -2.65476 0
M  V30 3524 C 349.498 1.42557 -2.3785 0
M  V30 3525 H 352.449 0.378692 -1.54116 0
M  V30 3526 H 352.47 2.96619 -2.38323 0
M  V30 3527 H 351.982 1.56459 -3.55165 0
M  V30 3528 H 350.083 3.27548 -1.77603 0
M  V30 3529 H 350.196 3.10088 -3.65215 0
M  V30 3530 H 348.56 1.72107 -1.87753 0
M  V30 3531 H 349.343 0.875741 -3.31942 0
M  V30 3532 N 351.788 1.33704 0.83433 0
M  V30 3533 C 353.016 1.28467 1.62185 0
M  V30 3534 C 353.431 -0.143526 1.88254 0
M  V30 3535 O 352.788 -1.08709 1.4659 0
M  V30 3536 C 352.839 2.06174 2.96942 0
M  V30 3537 O 352.56 3.43422 2.72016 0
M  V30 3538 C 354.061 2.08201 3.91366 0
M  V30 3539 H 351.281 0.4424 0.504503 0
M  V30 3540 H 353.825 1.76145 1.03891 0
M  V30 3541 H 351.98 1.62167 3.51825 0
M  V30 3542 H 352.394 3.83453 3.57861 0
M  V30 3543 H 353.868 2.67017 4.83121 0
M  V30 3544 H 354.345 1.07343 4.2588 0
M  V30 3545 H 354.951 2.52246 3.42421 0
M  V30 3546 N 353.266 -1.05314 1.17247 0
M  V30 3547 C 354.512 -1.78557 0.961513 0
M  V30 3548 C 354.845 -1.87419 -0.508697 0
M  V30 3549 O 354.12 -1.37307 -1.37757 0
M  V30 3550 C 354.403 -3.22514 1.60176 0
M  V30 3551 C 354.256 -3.21673 3.14399 0
M  V30 3552 C 355.575 -4.20318 1.30463 0
M  V30 3553 H 352.694 -0.6482 0.350723 0
M  V30 3554 H 355.336 -1.23102 1.44727 0
M  V30 3555 H 353.486 -3.69867 1.18871 0
M  V30 3556 H 355.158 -2.82405 3.64753 0
M  V30 3557 H 353.401 -2.60048 3.47214 0
M  V30 3558 H 354.072 -4.23271 3.54324 0
M  V30 3559 H 356.548 -3.81454 1.66229 0
M  V30 3560 H 355.424 -5.19289 1.77848 0
M  V30 3561 H 355.685 -4.41526 0.22521 0
M  V30 3562 N 354.744 -0.972509 -1.24016 0
M  V30 3563 C 355.991 -0.637034 -1.92219 0
M  V30 3564 C 356.319 0.828418 -1.75976 0
M  V30 3565 O 355.574 1.61206 -1.10955 0
M  V30 3566 C 355.873 -0.963694 -3.44162 0
M  V30 3567 C 355.539 -2.41807 -3.80579 0
M  V30 3568 C 354.201 -2.81556 -3.9023 0
M  V30 3569 C 356.553 -3.36172 -3.98293 0
M  V30 3570 C 353.881 -4.14702 -4.15017 0
M  V30 3571 C 356.233 -4.68952 -4.24578 0
M  V30 3572 C 354.897 -5.08472 -4.32449 0
M  V30 3573 H 354.167 -0.233107 -0.703379 0
M  V30 3574 H 356.814 -1.2249 -1.47202 0
M  V30 3575 H 355.119 -0.29365 -3.90698 0
M  V30 3576 H 356.816 -0.682449 -3.9515 0
M  V30 3577 H 353.406 -2.09988 -3.73635 0
M  V30 3578 H 357.59 -3.06644 -3.90234 0
M  V30 3579 H 352.846 -4.4494 -4.19331 0
M  V30 3580 H 357.02 -5.42037 -4.37229 0
M  V30 3581 H 354.647 -6.11665 -4.51409 0
M  V30 3582 N 356.222 1.38976 -0.743202 0
M  V30 3583 C 357.45 2.04636 -0.30525 0
M  V30 3584 C 357.865 1.56044 1.06281 0
M  V30 3585 O 357.222 0.728921 1.67311 0
M  V30 3586 C 357.273 3.60193 -0.307177 0
M  V30 3587 O 356.994 4.06998 -1.62124 0
M  V30 3588 C 358.495 4.4306 0.145928 0
M  V30 3589 H 355.715 0.65788 -0.132041 0
M  V30 3590 H 358.259 1.77866 -1.00915 0
M  V30 3591 H 356.414 3.85835 0.347898 0
M  V30 3592 H 356.828 5.01371 -1.54036 0
M  V30 3593 H 358.302 5.51921 0.0934183 0
M  V30 3594 H 358.779 4.22706 1.19231 0
M  V30 3595 H 359.385 4.22584 -0.479886 0
M  V30 3596 N 357.7 0.491464 1.49741 0
M  V30 3597 C 358.632 -0.328609 2.26832 0
M  V30 3598 C 359.645 -0.939113 1.32983 0
M  V30 3599 O 360.834 -0.824067 1.58339 0
M  V30 3600 C 357.934 -1.47675 3.05033 0
M  V30 3601 C 357.107 -0.975305 4.26388 0
M  V30 3602 C 356.166 -1.99991 4.86714 0
M  V30 3603 O 355.192 -1.57229 5.47054 0
M  V30 3604 N 356.394 -3.32962 4.75517 0
M  V30 3605 H 359.159 0.332377 2.97851 0
M  V30 3606 H 356.72 0.323441 1.58636 0
M  V30 3607 H 358.712 -2.15954 3.42266 0
M  V30 3608 H 357.282 -2.04206 2.36683 0
M  V30 3609 H 356.502 -0.117723 3.94024 0
M  V30 3610 H 357.79 -0.618531 5.05026 0
M  V30 3611 H 357.188 -3.70399 4.27576 0
M  V30 3612 H 355.745 -3.96982 5.16961 0
M  V30 3613 N 359.178 -1.55987 0.224894 0
M  V30 3614 C 360.424 -1.98684 -0.406502 0
M  V30 3615 C 360.757 -1.11248 -1.59177 0
M  V30 3616 O 360.032 -0.170909 -1.93748 0
M  V30 3617 C 360.315 -3.50218 -0.837808 0
M  V30 3618 C 360.168 -4.48426 0.351332 0
M  V30 3619 C 361.487 -4.06243 -1.69278 0
M  V30 3620 H 358.606 -0.722337 -0.146283 0
M  V30 3621 H 361.248 -1.87255 0.321799 0
M  V30 3622 H 359.398 -3.60089 -1.45837 0
M  V30 3623 H 361.07 -4.50562 0.989526 0
M  V30 3624 H 359.313 -4.22159 0.998207 0
M  V30 3625 H 359.984 -5.52 0.00655905 0
M  V30 3626 H 362.46 -3.99337 -1.16914 0
M  V30 3627 H 361.336 -5.12581 -1.96346 0
M  V30 3628 H 361.597 -3.53332 -2.65723 0
M  V30 3629 N 360.656 0.0484629 -1.57525 0
M  V30 3630 C 361.881 0.759177 -1.93006 0
M  V30 3631 C 362.306 1.69125 -0.823317 0
M  V30 3632 O 361.664 1.79931 0.222364 0
M  V30 3633 C 361.712 1.50899 -3.27509 0
M  V30 3634 O 360.816 2.62112 -3.18388 0
M  V30 3635 H 360.157 0.205564 -0.631379 0
M  V30 3636 H 362.687 0.00972959 -2.04598 0
M  V30 3637 H 362.697 1.88317 -3.6194 0
M  V30 3638 H 361.372 0.825269 -4.0763 0
M  V30 3639 H 359.949 2.27379 -2.95556 0
M  V30 3640 N 362.134 1.5431 0.320358 0
M  V30 3641 C 363.097 1.83195 1.3774 0
M  V30 3642 C 364.097 0.703906 1.44575 0
M  V30 3643 O 365.287 0.972214 1.44546 0
M  V30 3644 C 362.419 1.99487 2.76438 0
M  V30 3645 H 363.612 2.77642 1.1338 0
M  V30 3646 H 361.165 1.46076 0.556012 0
M  V30 3647 H 361.9 1.07262 3.06048 0
M  V30 3648 H 361.685 2.81575 2.7287 0
M  V30 3649 H 363.175 2.23271 3.52902 0
M  V30 3650 N 363.613 -0.582584 1.46437 0
M  V30 3651 C 364.843 -1.36484 1.55099 0
M  V30 3652 C 365.251 -1.88233 0.191056 0
M  V30 3653 O 364.594 -1.6429 -0.821858 0
M  V30 3654 C 364.656 -2.588 2.49525 0
M  V30 3655 C 364.32 -2.28517 3.95764 0
M  V30 3656 C 365.317 -1.87346 4.84972 0
M  V30 3657 C 363.002 -2.40658 4.40896 0
M  V30 3658 C 364.996 -1.5871 6.17325 0
M  V30 3659 C 362.683 -2.11635 5.73284 0
M  V30 3660 C 363.681 -1.70725 6.61318 0
M  V30 3661 O 363.369 -1.42057 7.91249 0
M  V30 3662 H 363.101 -0.423297 0.527063 0
M  V30 3663 H 365.655 -0.715188 1.92547 0
M  V30 3664 H 363.885 -3.26571 2.07095 0
M  V30 3665 H 365.574 -3.20868 2.48593 0
M  V30 3666 H 366.34 -1.77481 4.5136 0
M  V30 3667 H 362.219 -2.71463 3.72598 0
M  V30 3668 H 365.763 -1.26704 6.85997 0
M  V30 3669 H 361.66 -2.21124 6.06444 0
M  V30 3670 H 362.428 -1.55901 8.03515 0
M  V30 3671 N 365.091 -1.34144 -0.827227 0
M  V30 3672 C 366.34 -1.25602 -1.5782 0
M  V30 3673 C 366.653 0.173445 -1.94829 0
M  V30 3674 O 367.859 0.380984 -2.68814 0
M  V30 3675 C 366.315 -2.20151 -2.84713 0
M  V30 3676 C 365.923 -3.68331 -2.55021 0
M  V30 3677 C 367.667 -2.20508 -3.62735 0
M  V30 3678 C 365.574 -4.54762 -3.78082 0
M  V30 3679 H 364.504 -0.466573 -0.592306 0
M  V30 3680 H 367.155 -1.59283 -0.911116 0
M  V30 3681 H 365.537 -1.79417 -3.53023 0
M  V30 3682 H 366.711 -4.17577 -1.94849 0
M  V30 3683 H 365.026 -3.7038 -1.90283 0
M  V30 3684 H 367.623 -2.82306 -4.54101 0
M  V30 3685 H 367.966 -1.20322 -3.98533 0
M  V30 3686 H 368.499 -2.59664 -3.01362 0
M  V30 3687 H 365.238 -5.55867 -3.47407 0
M  V30 3688 H 364.758 -4.10254 -4.37552 0
M  V30 3689 H 366.437 -4.69153 -4.45538 0
M  V30 3690 N 366.569 1.04691 -1.17803 0
M  V30 3691 C 367.794 1.81984 -0.994813 0
M  V30 3692 C 368.219 1.82586 0.452112 0
M  V30 3693 O 367.577 1.23854 1.324 0
M  V30 3694 C 367.625 3.2575 -1.54659 0
M  V30 3695 O 366.729 4.05267 -0.763728 0
M  V30 3696 H 366.07 0.562483 -0.352857 0
M  V30 3697 H 368.6 1.3189 -1.56417 0
M  V30 3698 H 368.61 3.76541 -1.57102 0
M  V30 3699 H 367.285 3.24627 -2.59981 0
M  V30 3700 H 365.862 3.63972 -0.811108 0
M  V30 3701 N 368.047 0.979072 1.23499 0
M  V30 3702 C 369.293 0.6578 1.9247 0
M  V30 3703 C 369.648 -0.799746 1.74991 0
M  V30 3704 O 368.941 -1.56922 1.09937 0
M  V30 3705 C 369.135 0.981932 3.43646 0
M  V30 3706 C 368.964 2.46944 3.75831 0
M  V30 3707 C 367.734 3.13119 3.96591 0
M  V30 3708 C 369.932 3.45006 3.81412 0
M  V30 3709 N 367.914 4.51489 4.15969 0
M  V30 3710 C 369.285 4.68778 4.05768 0
M  V30 3711 C 371.34 3.39505 3.64198 0
M  V30 3712 C 370.043 5.87723 4.14697 0
M  V30 3713 C 372.069 4.57814 3.7438 0
M  V30 3714 C 371.431 5.80381 3.99171 0
M  V30 3715 H 367.53 0.291746 0.72554 0
M  V30 3716 H 370.114 1.25626 1.48749 0
M  V30 3717 H 368.285 0.412179 3.86207 0
M  V30 3718 H 370.017 0.618068 3.99953 0
M  V30 3719 H 366.772 2.63619 3.93449 0
M  V30 3720 H 367.196 5.23221 4.29615 0
M  V30 3721 H 371.838 2.45773 3.44029 0
M  V30 3722 H 369.556 6.81874 4.33675 0
M  V30 3723 H 373.142 4.55132 3.62417 0
M  V30 3724 H 372.022 6.70398 4.06861 0
M  V30 3725 N 369.525 -1.3858 0.750561 0
M  V30 3726 C 370.774 -1.99424 0.302172 0
M  V30 3727 C 371.087 -1.60254 -1.12152 0
M  V30 3728 O 372.293 -2.14046 -1.67023 0
M  V30 3729 C 370.749 -3.56558 0.489307 0
M  V30 3730 C 370.357 -4.04682 1.92189 0
M  V30 3731 C 372.101 -4.24374 0.103478 0
M  V30 3732 C 370.008 -5.54446 2.05775 0
M  V30 3733 H 368.938 -0.746046 0.10923 0
M  V30 3734 H 371.589 -1.58383 0.92667 0
M  V30 3735 H 369.971 -3.95472 -0.204329 0
M  V30 3736 H 371.145 -3.77065 2.64875 0
M  V30 3737 H 369.46 -3.4958 2.26236 0
M  V30 3738 H 372.057 -5.34384 0.183787 0
M  V30 3739 H 372.4 -4.05468 -0.943481 0
M  V30 3740 H 372.933 -3.90688 0.748854 0
M  V30 3741 H 369.672 -5.78252 3.08714 0
M  V30 3742 H 369.192 -5.83816 1.37546 0
M  V30 3743 H 370.871 -6.20099 1.84626 0
M  V30 3744 N 371.003 -0.499398 -1.49478 0
M  V30 3745 C 371.951 0.293604 -2.3074 0
M  V30 3746 C 372.945 0.96427 -1.39277 0
M  V30 3747 O 374.151 0.892141 -1.56336 0
M  V30 3748 H 370.526 0.113541 -0.743379 0
M  V30 3749 H 372.497 -0.411772 -2.95545 0
M  V30 3750 C 371.246 1.3462 -3.20582 0
M  V30 3751 H 370.569 0.83954 -3.90886 0
M  V30 3752 H 372.009 1.87308 -3.80384 0
M  V30 3753 C 370.468 2.36351 -2.40083 0
M  V30 3754 O 370.998 3.422 -2.10385 0
M  V30 3755 N 369.204 2.0878 -2.02137 0
M  V30 3756 H 368.751 1.22723 -2.26488 0
M  V30 3757 H 368.709 2.77075 -1.48583 0
M  V30 3758 N 372.481 1.55866 -0.233164 0
M  V30 3759 C 373.429 2.22176 0.68851 0
M  V30 3760 C 374.423 1.20487 1.19076 0
M  V30 3761 O 375.629 1.38536 1.14925 0
M  V30 3762 H 372.004 0.712511 0.240483 0
M  V30 3763 H 373.975 2.98212 0.105935 0
M  V30 3764 C 372.724 2.92446 1.88071 0
M  V30 3765 H 372.047 3.70458 1.50337 0
M  V30 3766 H 373.487 3.42226 2.50314 0
M  V30 3767 C 371.946 1.95555 2.74335 0
M  V30 3768 O 372.476 1.47986 3.73447 0
M  V30 3769 N 370.682 1.62953 2.40613 0
M  V30 3770 H 370.229 2.01831 1.60069 0
M  V30 3771 H 370.187 0.983886 2.98609 0
M  V30 3772 N 373.959 -0.0401083 1.57549 0
M  V30 3773 C 375.205 -0.734211 1.89043 0
M  V30 3774 C 375.538 -1.75591 0.829535 0
M  V30 3775 O 374.813 -1.93868 -0.156706 0
M  V30 3776 C 375.096 -1.41374 3.31188 0
M  V30 3777 C 374.949 -0.406299 4.47961 0
M  V30 3778 C 376.268 -2.35061 3.72068 0
M  V30 3779 H 373.387 -0.265447 0.687537 0
M  V30 3780 H 376.029 0.00294087 1.9 0
M  V30 3781 H 374.179 -2.04206 3.30503 0
M  V30 3782 H 375.851 0.219255 4.60779 0
M  V30 3783 H 374.094 0.275485 4.32924 0
M  V30 3784 H 374.765 -0.920022 5.44279 0
M  V30 3785 H 377.241 -1.82282 3.74049 0
M  V30 3786 H 376.117 -2.79593 4.72355 0
M  V30 3787 H 376.378 -3.21258 3.0372 0
M  V30 3788 N 375.437 -1.54477 -0.31217 0
M  V30 3789 C 376.686 -1.72438 -1.04633 0
M  V30 3790 C 376.999 -0.511163 -1.88803 0
M  V30 3791 O 378.205 -0.572341 -2.65399 0
M  V30 3792 C 376.661 -3.05043 -1.9099 0
M  V30 3793 C 376.269 -4.33806 -1.11877 0
M  V30 3794 C 378.013 -3.32364 -2.64073 0
M  V30 3795 C 375.92 -5.57467 -1.97445 0
M  V30 3796 H 374.85 -0.642647 -0.394361 0
M  V30 3797 H 377.501 -1.80966 -0.303929 0
M  V30 3798 H 375.883 -2.90451 -2.69173 0
M  V30 3799 H 377.057 -4.59199 -0.383843 0
M  V30 3800 H 375.372 -4.13336 -0.504252 0
M  V30 3801 H 377.969 -4.21951 -3.28423 0
M  V30 3802 H 378.312 -2.50745 -3.32314 0
M  V30 3803 H 378.845 -3.47875 -1.92944 0
M  V30 3804 H 375.584 -6.41722 -1.33692 0
M  V30 3805 H 375.104 -5.36277 -2.6864 0
M  V30 3806 H 376.783 -5.94303 -2.5576 0
M  V30 3807 N 376.915 0.57481 -1.46744 0
M  V30 3808 C 377.878 1.66533 -1.57478 0
M  V30 3809 C 378.878 1.54338 -0.451263 0
M  V30 3810 O 380.068 1.58814 -0.715813 0
M  V30 3811 C 377.2 3.05999 -1.50259 0
M  V30 3812 H 378.393 1.58372 -2.54673 0
M  V30 3813 H 375.946 0.793301 -1.34672 0
M  V30 3814 H 376.681 3.19709 -0.543725 0
M  V30 3815 H 376.466 3.16259 -2.31781 0
M  V30 3816 H 377.956 3.8537 -1.60872 0
M  V30 3817 N 378.394 1.34581 0.820102 0
M  V30 3818 C 379.619 1.30333 1.61332 0
M  V30 3819 C 380.044 -0.119339 1.87721 0
M  V30 3820 O 379.402 -1.08197 1.45475 0
M  V30 3821 C 379.45 2.10258 2.92957 0
M  V30 3822 O 378.554 1.47404 3.85157 0
M  V30 3823 H 377.895 0.447488 0.490561 0
M  V30 3824 H 380.425 1.77425 1.01889 0
M  V30 3825 H 380.435 2.21718 3.42498 0
M  V30 3826 H 379.11 3.13693 2.73074 0
M  V30 3827 H 377.687 1.44703 3.43679 0
M  V30 3828 N 379.872 -1.04064 1.18357 0
M  V30 3829 C 380.82 -2.14187 0.907007 0
M  V30 3830 C 381.814 -1.68879 -0.132725 0
M  V30 3831 O 383.02 -1.79993 0.0154248 0
M  V30 3832 H 379.395 -0.699585 0.275835 0
M  V30 3833 H 381.366 -2.34711 1.84264 0
M  V30 3834 C 380.115 -3.44785 0.449254 0
M  V30 3835 H 379.438 -3.80058 1.24081 0
M  V30 3836 H 380.878 -4.22974 0.294737 0
M  V30 3837 C 379.337 -3.26391 -0.834909 0
M  V30 3838 O 379.867 -3.53973 -1.89911 0
M  V30 3839 N 378.073 -2.79726 -0.787523 0
M  V30 3840 H 377.62 -2.5748 0.0787347 0
M  V30 3841 H 377.578 -2.67798 -1.64716 0
M  V30 3842 O 381.389 -1.11421 -1.16909 0
M  V30 3843 H 382.08 -0.820425 -1.75467 0
M  V30 END ATOM
M  V30 BEGIN BOND
M  V30 END BOND
M  V30 END CTAB
M  END
$$$$
