drugbank_target|P62937 Peptidyl-prolyl cis-trans isomerase A (DB00091; DB00172; DB01742; DB02419; DB03393; DB09130; DB11638)
 OpenBabel12092119453D

  0  0  0     0  0            999 V3000
M  V30 BEGIN CTAB
M  V30 COUNTS 2503 2531 0 0 0
M  V30 BEGIN ATOM
M  V30 1 H -0.908 1.98254 -0.117106 0
M  V30 2 N 0 1.576 0 0
M  V30 3 C 0.933 2.03868 1.02534 0
M  V30 4 C 1.911 0.928543 1.3348 0
M  V30 5 O 3.095 1.19667 1.45644 0
M  V30 6 C 0.222 2.43627 2.35294 0
M  V30 7 C -0.732 3.65373 2.2001 0
M  V30 8 S 0.101 5.13292 1.52614 0
M  V30 9 C 1.257 5.56322 2.86805 0
M  V30 10 H 1.49 2.90518 0.631377 0
M  V30 11 H -0.977 1.52953 0.210867 0
M  V30 12 H 0.981 2.67203 3.11629 0
M  V30 13 H -0.358 1.57376 2.7183 0
M  V30 14 H -1.165 3.90944 3.18086 0
M  V30 15 H -1.563 3.418 1.51819 0
M  V30 16 H 0.729 5.58782 3.83104 0
M  V30 17 H 1.672 6.56266 2.65933 0
M  V30 18 H 2.08 4.83886 2.90714 0
M  V30 19 N 1.4781 -0.272755 1.55222 0
M  V30 20 C 2.7241 -1.00581 1.761 0
M  V30 21 C 3.0571 -1.85932 0.560625 0
M  V30 22 O 2.3321 -1.89416 -0.441801 0
M  V30 23 C 2.6151 -1.88816 3.06628 0
M  V30 24 C 2.4681 -1.06457 4.37021 0
M  V30 25 C 3.7871 -2.8752 3.33197 0
M  V30 26 H 0.9061 -0.364244 0.640699 0
M  V30 27 H 3.5481 -0.278189 1.87952 0
M  V30 28 H 1.6981 -2.50856 2.96654 0
M  V30 29 H 3.3701 -0.464863 4.58952 0
M  V30 30 H 1.6131 -0.368043 4.32236 0
M  V30 31 H 2.2841 -1.71514 5.24678 0
M  V30 32 H 4.7601 -2.35615 3.42965 0
M  V30 33 H 3.6361 -3.46399 4.25792 0
M  V30 34 H 3.8971 -3.62657 2.52849 0
M  V30 35 N 2.9562 -1.48159 -0.537278 0
M  V30 36 C 3.9042 -1.62573 -1.66352 0
M  V30 37 C 4.8982 -0.492366 -1.62087 0
M  V30 38 O 6.1042 -0.670847 -1.67032 0
M  V30 39 H 2.4792 -0.511992 -0.550789 0
M  V30 40 H 4.4502 -2.57176 -1.51337 0
M  V30 41 C 3.1992 -1.67583 -3.04649 0
M  V30 42 H 2.5222 -2.54151 -3.08622 0
M  V30 43 H 3.9622 -1.81713 -3.83088 0
M  V30 44 C 2.4212 -0.413039 -3.34358 0
M  V30 45 O 2.9512 0.477259 -3.98855 0
M  V30 46 N 1.1572 -0.286961 -2.8918 0
M  V30 47 H 0.7042 -1.01241 -2.36871 0
M  V30 48 H 0.6622 0.556963 -3.09427 0
M  V30 49 N 4.4343 0.785586 -1.36625 0
M  V30 50 C 5.8453 1.36101 -1.27803 0
M  V30 51 C 6.1963 1.96035 0.0804875 0
M  V30 52 O 5.3213 1.92834 0.982042 0
M  V30 53 C 5.9163 2.47442 -2.31426 0
M  V30 54 C 4.4753 3.00789 -2.26281 0
M  V30 55 C 3.6223 1.73896 -2.15999 0
M  V30 56 H 6.5733 0.586928 -1.47448 0
M  V30 57 H 6.5943 3.2656 -1.95291 0
M  V30 58 H 6.1063 2.03791 -3.30289 0
M  V30 59 H 4.2073 3.48851 -1.30896 0
M  V30 60 H 4.3203 3.57343 -3.19128 0
M  V30 61 H 2.6843 1.9628 -1.62316 0
M  V30 62 H 3.4673 1.32368 -3.16755 0
M  V30 63 N 5.9124 1.20967 1.01018 0
M  V30 64 C 7.1404 1.04956 1.78303 0
M  V30 65 C 7.5554 -0.400915 1.84494 0
M  V30 66 O 6.9124 -1.27826 1.30257 0
M  V30 67 C 6.9634 1.63403 3.22462 0
M  V30 68 O 6.6844 3.02775 3.16637 0
M  V30 69 C 8.1854 1.52432 4.16268 0
M  V30 70 H 5.4054 0.368858 0.560522 0
M  V30 71 H 7.9494 1.60193 1.27116 0
M  V30 72 H 6.1044 1.1227 3.70775 0
M  V30 73 H 6.5184 3.30626 4.07169 0
M  V30 74 H 7.9924 1.98078 5.15237 0
M  V30 75 H 8.4694 0.477875 4.36592 0
M  V30 76 H 9.0754 2.02787 3.73841 0
M  V30 77 N 7.3905 -1.2043 1.01659 0
M  V30 78 C 8.6365 -1.90079 0.706963 0
M  V30 79 C 8.9695 -1.78648 -0.761474 0
M  V30 80 O 8.2445 -1.17069 -1.55323 0
M  V30 81 C 8.5275 -3.41469 1.14327 0
M  V30 82 C 8.3805 -3.61833 2.67201 0
M  V30 83 C 9.6995 -4.34261 0.714529 0
M  V30 84 H 6.8185 -0.690254 0.2583 0
M  V30 85 H 9.4605 -1.41826 1.26433 0
M  V30 86 H 7.6105 -3.82696 0.669056 0
M  V30 87 H 9.2825 -3.2986 3.22475 0
M  V30 88 H 7.5255 -3.05304 3.08175 0
M  V30 89 H 8.1965 -4.67955 2.92783 0
M  V30 90 H 10.6725 -4.00682 1.12221 0
M  V30 91 H 9.5485 -5.38806 1.04784 0
M  V30 92 H 9.8095 -4.40431 -0.383799 0
M  V30 93 N 8.8686 -0.792821 -1.36206 0
M  V30 94 C 10.1156 -0.366786 -1.99151 0
M  V30 95 C 10.4436 1.06243 -1.62919 0
M  V30 96 O 9.6986 1.74927 -0.877442 0
M  V30 97 C 9.9976 -0.481501 -3.54142 0
M  V30 98 C 9.6636 -1.87202 -4.10203 0
M  V30 99 C 8.3256 -2.25248 -4.25226 0
M  V30 100 C 10.6776 -2.78237 -4.40719 0
M  V30 101 C 8.0056 -3.53723 -4.68078 0
M  V30 102 C 10.3576 -4.06144 -4.85005 0
M  V30 103 C 9.0216 -4.44207 -4.98234 0
M  V30 104 H 8.2916 -0.134217 -0.728743 0
M  V30 105 H 10.9386 -1.01094 -1.62641 0
M  V30 106 H 9.2436 0.246146 -3.91026 0
M  V30 107 H 10.9406 -0.132844 -4.0078 0
M  V30 108 H 7.5306 -1.56639 -3.98951 0
M  V30 109 H 11.7146 -2.50097 -4.28679 0
M  V30 110 H 6.9706 -3.8308 -4.76508 0
M  V30 111 H 11.1446 -4.76796 -5.07581 0
M  V30 112 H 8.7716 -5.43814 -5.31197 0
M  V30 113 N 10.3467 1.47872 -0.545128 0
M  V30 114 C 11.5937 2.02493 -0.0165858 0
M  V30 115 C 11.9217 1.42073 1.32836 0
M  V30 116 O 11.1767 0.561459 1.87473 0
M  V30 117 C 11.4757 3.57131 0.13867 0
M  V30 118 C 11.1417 4.36411 -1.13384 0
M  V30 119 C 9.8037 4.57792 -1.48256 0
M  V30 120 C 12.1557 4.82223 -1.97764 0
M  V30 121 C 9.4837 5.22233 -2.67376 0
M  V30 122 C 11.8357 5.47977 -3.16076 0
M  V30 123 C 10.4997 5.67593 -3.51275 0
M  V30 124 H 9.7697 0.740975 -0.00606918 0
M  V30 125 H 12.4167 1.77683 -0.714207 0
M  V30 126 H 10.7217 3.80865 0.919172 0
M  V30 127 H 12.4187 3.97031 0.562782 0
M  V30 128 H 9.0087 4.2004 -0.852297 0
M  V30 129 H 13.1927 4.65493 -1.72132 0
M  V30 130 H 8.4487 5.35616 -2.94831 0
M  V30 131 H 12.6227 5.8244 -3.81755 0
M  V30 132 H 10.2497 6.17298 -4.43675 0
M  V30 133 N 11.8248 0.280983 1.55075 0
M  V30 134 C 13.1018 -0.386207 1.91749 0
M  V30 135 C 13.4818 -1.73264 1.20594 0
M  V30 136 O 12.8298 -2.26034 0.334784 0
M  V30 137 C 13.0398 -0.520687 3.45094 0
M  V30 138 C 14.3878 -0.800865 4.16979 0
M  V30 139 O 15.4118 -0.605271 3.5102 0
M  V30 140 O 14.2708 -1.1753 5.33712 0
M  V30 141 H 11.3648 -0.212408 0.799257 0
M  V30 142 H 13.9108 0.327568 1.66509 0
M  V30 143 H 12.6828 0.426633 3.88967 0
M  V30 144 H 12.3058 -1.2837 3.76307 0
M  V30 145 N 13.3029 -1.57598 0.00835791 0
M  V30 146 C 14.5519 -1.90107 -0.673968 0
M  V30 147 C 14.8649 -0.884275 -1.7447 0
M  V30 148 O 16.0709 -1.09987 -2.48224 0
M  V30 149 C 14.5269 -3.37497 -1.24995 0
M  V30 150 C 14.1349 -4.47491 -0.2136 0
M  V30 151 C 15.8789 -3.79104 -1.90999 0
M  V30 152 C 13.7859 -5.85963 -0.80005 0
M  V30 153 H 12.7159 -0.709393 -0.255495 0
M  V30 154 H 15.3669 -1.83365 0.0702693 0
M  V30 155 H 13.7489 -3.39102 -2.04513 0
M  V30 156 H 14.9229 -4.57414 0.557596 0
M  V30 157 H 13.2379 -4.14956 0.346474 0
M  V30 158 H 15.8349 -4.79901 -2.35795 0
M  V30 159 H 16.1779 -3.1306 -2.74407 0
M  V30 160 H 16.7109 -3.79833 -1.18203 0
M  V30 161 H 13.4499 -6.555 -0.00456708 0
M  V30 162 H 12.9699 -5.79687 -1.54021 0
M  V30 163 H 14.6489 -6.33884 -1.29615 0
M  V30 164 N 14.781 0.264519 -1.55364 0
M  V30 165 C 15.744 1.31046 -1.88042 0
M  V30 166 C 16.744 1.41943 -0.755569 0
M  V30 167 O 17.934 1.40947 -1.02369 0
M  V30 168 C 15.066 2.69067 -2.09323 0
M  V30 169 H 16.259 1.03297 -2.81549 0
M  V30 170 H 13.812 0.502989 -1.47986 0
M  V30 171 H 14.547 3.01982 -1.18226 0
M  V30 172 H 14.332 2.62542 -2.91229 0
M  V30 173 H 15.822 3.44623 -2.35848 0
M  V30 174 N 16.2591 1.48442 0.529413 0
M  V30 175 C 17.5051 1.5672 1.28711 0
M  V30 176 C 17.8381 0.2406 1.92704 0
M  V30 177 O 17.1131 -0.753454 1.79313 0
M  V30 178 C 17.3961 2.70587 2.37603 0
M  V30 179 C 17.2491 4.12953 1.78297 0
M  V30 180 C 18.5681 2.80212 3.39366 0
M  V30 181 H 15.6871 0.570474 0.466613 0
M  V30 182 H 18.3291 1.80617 0.589706 0
M  V30 183 H 16.4791 2.50342 2.97088 0
M  V30 184 H 18.1511 4.44639 1.22858 0
M  V30 185 H 16.3941 4.19927 1.0883 0
M  V30 186 H 17.0651 4.88448 2.57144 0
M  V30 187 H 19.5411 2.98553 2.89836 0
M  V30 188 H 18.4171 3.61611 4.12951 0
M  V30 189 H 18.6781 1.88393 3.99951 0
M  V30 190 N 17.7372 -0.778329 1.37039 0
M  V30 191 C 19.0142 -1.52551 1.22424 0
M  V30 192 C 19.3942 -2.10288 -0.184964 0
M  V30 193 O 18.7422 -1.94953 -1.19187 0
M  V30 194 C 18.9522 -2.61164 2.31504 0
M  V30 195 C 20.3002 -3.28746 2.68721 0
M  V30 196 O 21.3242 -2.71455 2.30631 0
M  V30 197 O 20.1832 -4.3231 3.3432 0
M  V30 198 H 17.2772 -0.675343 0.477326 0
M  V30 199 H 19.8232 -0.815859 1.48801 0
M  V30 200 H 18.5952 -2.16574 3.25901 0
M  V30 201 H 18.2182 -3.39737 2.06554 0
M  V30 202 N 19.2153 -1.21501 -1.00376 0
M  V30 203 C 20.4633 -1.03095 -1.73827 0
M  V30 204 C 20.7843 0.436341 -1.90055 0
M  V30 205 O 20.0543 1.31466 -1.45236 0
M  V30 206 H 18.6343 -0.378487 -0.644016 0
M  V30 207 H 21.2963 -1.52831 -1.20949 0
M  V30 208 H 20.3923 -1.49991 -2.73695 0
M  V30 209 N 20.6934 1.19889 -1.02296 0
M  V30 210 C 21.6034 2.26571 -0.608508 0
M  V30 211 C 22.6194 1.70299 0.356964 0
M  V30 212 O 23.7954 2.00235 0.216326 0
M  V30 213 C 20.8604 3.46677 0.0402814 0
M  V30 214 C 19.9214 4.18153 -0.97194 0
M  V30 215 C 19.1544 5.32525 -0.354016 0
M  V30 216 O 19.3774 5.64112 0.844604 0
M  V30 217 O 18.3114 5.92242 -1.07391 0
M  V30 218 H 22.1374 2.64251 -1.49684 0
M  V30 219 H 19.7224 1.26629 -0.792809 0
M  V30 220 H 21.6044 4.19475 0.402324 0
M  V30 221 H 20.2794 3.10858 0.902707 0
M  V30 222 H 19.1864 3.47499 -1.38546 0
M  V30 223 H 20.5194 4.57927 -1.80454 0
M  V30 224 N 22.1715 0.800033 1.35784 0
M  V30 225 C 23.5825 0.439142 1.81462 0
M  V30 226 C 23.9335 -1.03813 1.66485 0
M  V30 227 O 23.0585 -1.80626 1.19177 0
M  V30 228 C 23.6535 0.790314 3.29453 0
M  V30 229 C 22.2125 0.482111 3.733 0
M  V30 230 C 21.3595 1.01938 2.57883 0
M  V30 231 H 24.3105 0.992254 1.23855 0
M  V30 232 H 24.3315 0.0853677 3.80404 0
M  V30 233 H 23.8435 1.86554 3.40322 0
M  V30 234 H 21.9445 -0.584652 3.67984 0
M  V30 235 H 22.0575 1.01015 4.6833 0
M  V30 236 H 20.4215 0.442043 2.50835 0
M  V30 237 H 21.2045 2.10059 2.71533 0
M  V30 238 N 23.6496 -1.47581 0.552962 0
M  V30 239 C 24.5796 -2.32762 -0.185451 0
M  V30 240 C 25.5606 -1.43527 -0.912905 0
M  V30 241 O 26.7456 -1.72388 -0.894201 0
M  V30 242 C 23.8756 -3.25219 -1.21859 0
M  V30 243 C 22.8296 -4.23661 -0.607864 0
M  V30 244 C 22.1556 -5.05413 -1.74533 0
M  V30 245 C 23.4556 -5.20481 0.435582 0
M  V30 246 H 25.1496 -2.94749 0.525684 0
M  V30 247 H 22.6956 -1.41738 0.254251 0
M  V30 248 H 24.6486 -3.8365 -1.7433 0
M  V30 249 H 23.3726 -2.61279 -1.95961 0
M  V30 250 H 22.0316 -3.66451 -0.104489 0
M  V30 251 H 21.6796 -4.3788 -2.47529 0
M  V30 252 H 21.3796 -5.72059 -1.34249 0
M  V30 253 H 22.9036 -5.66701 -2.27338 0
M  V30 254 H 24.3176 -5.733 -0.00290157 0
M  V30 255 H 22.7146 -5.95305 0.757067 0
M  V30 256 H 23.7846 -4.66217 1.33303 0
M  V30 257 N 25.1277 -0.289203 -1.54924 0
M  V30 258 C 26.3757 0.322879 -1.99504 0
M  V30 259 C 26.6967 1.55313 -1.1791 0
M  V30 260 O 25.9667 1.94001 -0.272097 0
M  V30 261 H 24.5467 0.122291 -0.736922 0
M  V30 262 H 27.2087 -0.397802 -1.90797 0
M  V30 263 H 26.3047 0.603061 -3.06218 0
M  V30 264 N 26.6058 1.57591 -0.0167156 0
M  V30 265 C 28.0218 1.55946 0.339557 0
M  V30 266 C 28.2218 1.02109 1.73713 0
M  V30 267 O 27.2778 0.662303 2.43659 0
M  V30 268 C 28.5908 3.00037 0.199499 0
M  V30 269 C 30.1388 3.11805 0.273193 0
M  V30 270 C 30.6138 4.57713 0.162068 0
M  V30 271 N 32.1048 4.6268 0.219444 0
M  V30 272 C 32.8398 5.73185 0.157054 0
M  V30 273 N 32.3358 6.92786 0.0442936 0
M  V30 274 N 34.1288 5.61707 0.21014 0
M  V30 275 H 26.2798 1.90921 -0.930758 0
M  V30 276 H 28.5428 0.877674 -0.358319 0
M  V30 277 H 28.2488 3.4333 -0.76273 0
M  V30 278 H 28.1228 3.64387 0.974786 0
M  V30 279 H 30.5098 2.68433 1.22587 0
M  V30 280 H 30.5908 2.50201 -0.532256 0
M  V30 281 H 30.2348 5.01763 -0.78714 0
M  V30 282 H 30.1648 5.17283 0.986222 0
M  V30 283 H 32.6558 3.76649 0.307246 0
M  V30 284 H 32.9688 7.728 0.00304069 0
M  V30 285 H 31.3138 6.94999 0.00968457 0
M  V30 286 H 34.5048 4.6716 0.296546 0
M  V30 287 H 34.6778 6.47807 0.158054 0
M  V30 288 N 28.0839 -0.256276 1.55502 0
M  V30 289 C 29.3299 -0.987079 1.77157 0
M  V30 290 C 29.6629 -1.85327 0.580315 0
M  V30 291 O 28.9379 -1.89874 -0.421686 0
M  V30 292 C 29.2209 -1.85553 3.08613 0
M  V30 293 C 29.0739 -1.01816 4.38125 0
M  V30 294 C 30.3929 -2.8397 3.36228 0
M  V30 295 H 27.5119 -0.357428 0.644526 0
M  V30 296 H 30.1539 -0.258239 1.88237 0
M  V30 297 H 28.3039 -2.47695 2.99298 0
M  V30 298 H 29.9759 -0.416159 4.59419 0
M  V30 299 H 28.2189 -0.322178 4.32602 0
M  V30 300 H 28.8899 -1.65939 5.26468 0
M  V30 301 H 31.3659 -2.31964 3.45445 0
M  V30 302 H 30.2419 -3.41864 4.29442 0
M  V30 303 H 30.5029 -3.59955 2.56681 0
M  V30 304 N 29.562 -1.4872 -0.521534 0
M  V30 305 C 30.787 -1.61101 -1.30618 0
M  V30 306 C 31.212 -0.274611 -1.86085 0
M  V30 307 O 30.57 0.754937 -1.64834 0
M  V30 308 C 30.618 -2.66709 -2.4269 0
M  V30 309 O 29.722 -2.24456 -3.45967 0
M  V30 310 H 29.063 -0.539921 -0.386499 0
M  V30 311 H 31.593 -1.94767 -0.626645 0
M  V30 312 H 31.603 -2.88245 -2.88754 0
M  V30 313 H 30.278 -3.63727 -2.01682 0
M  V30 314 H 28.855 -2.13168 -3.05964 0
M  V30 315 N 31.0401 0.771051 -1.3745 0
M  V30 316 C 32.2871 1.52963 -1.32697 0
M  V30 317 C 32.6151 1.94299 0.0883274 0
M  V30 318 O 31.8701 1.64397 1.0617 0
M  V30 319 C 32.1691 2.80676 -2.2126 0
M  V30 320 C 31.8351 2.58389 -3.69521 0
M  V30 321 C 30.4971 2.52019 -4.09927 0
M  V30 322 C 32.8491 2.38469 -4.63446 0
M  V30 323 C 30.1771 2.23721 -5.42371 0
M  V30 324 C 32.5291 2.11694 -5.96128 0
M  V30 325 C 31.1931 2.03769 -6.35637 0
M  V30 326 H 30.4631 0.559732 -0.485573 0
M  V30 327 H 33.1101 0.888083 -1.69662 0
M  V30 328 H 31.4151 3.49392 -1.77291 0
M  V30 329 H 33.1121 3.38557 -2.14895 0
M  V30 330 H 29.7021 2.6421 -3.37478 0
M  V30 331 H 33.8861 2.4238 -4.33089 0
M  V30 332 H 29.1421 2.16081 -5.71943 0
M  V30 333 H 33.3161 1.9528 -6.6846 0
M  V30 334 H 30.9431 1.81606 -7.38189 0
M  V30 335 N 32.5182 1.22032 0.997298 0
M  V30 336 C 33.4282 1.00271 2.12092 0
M  V30 337 C 34.4442 -0.047621 1.73935 0
M  V30 338 O 35.6202 0.144136 2.00884 0
M  V30 339 C 32.6852 0.578449 3.4184 0
M  V30 340 C 31.7462 1.70189 3.94125 0
M  V30 341 C 30.9792 1.29778 5.17681 0
M  V30 342 O 31.2022 0.174676 5.70132 0
M  V30 343 O 30.1362 2.11261 5.63607 0
M  V30 344 H 33.9622 1.94398 2.3333 0
M  V30 345 H 31.5472 1.00587 1.10465 0
M  V30 346 H 33.4292 0.351998 4.19927 0
M  V30 347 H 32.1042 -0.334019 3.21972 0
M  V30 348 H 31.0112 1.98282 3.1723 0
M  V30 349 H 32.3442 2.59206 4.18417 0
M  V30 350 N 33.9963 -1.19345 1.0293 0
M  V30 351 C 34.9263 -2.2481 0.631105 0
M  V30 352 C 35.9073 -1.66245 -0.360104 0
M  V30 353 O 37.0923 -1.92677 -0.242726 0
M  V30 354 C 34.2223 -3.47295 -0.0184607 0
M  V30 355 C 33.1763 -4.18536 0.895073 0
M  V30 356 C 32.5023 -5.34586 0.110592 0
M  V30 357 C 33.8023 -4.73287 2.209 0
M  V30 358 H 35.4963 -2.58372 1.51275 0
M  V30 359 H 33.0423 -1.24194 0.728818 0
M  V30 360 H 34.9953 -4.20268 -0.308675 0
M  V30 361 H 33.7193 -3.12933 -0.934907 0
M  V30 362 H 32.3783 -3.47446 1.16949 0
M  V30 363 H 32.0263 -4.96469 -0.807902 0
M  V30 364 H 31.7263 -5.83183 0.719087 0
M  V30 365 H 33.2503 -6.10355 -0.172871 0
M  V30 366 H 34.6643 -5.38013 1.98028 0
M  V30 367 H 33.0613 -5.32373 2.76946 0
M  V30 368 H 34.1313 -3.91331 2.86336 0
M  V30 369 N 35.4744 -0.807222 -1.35358 0
M  V30 370 C 36.7214 -0.387888 -1.9875 0
M  V30 371 C 37.0494 1.04509 -1.64037 0
M  V30 372 O 36.3044 1.73986 -0.895946 0
M  V30 373 C 36.6034 -0.519036 -3.53611 0
M  V30 374 C 36.2694 -1.91542 -4.08194 0
M  V30 375 C 34.9314 -2.29745 -4.22813 0
M  V30 376 C 37.2834 -2.82896 -4.37744 0
M  V30 377 C 34.6114 -3.58668 -4.643 0
M  V30 378 C 36.9634 -4.11265 -4.8067 0
M  V30 379 C 35.6274 -4.49466 -4.93494 0
M  V30 380 H 34.8974 -0.141938 -0.727279 0
M  V30 381 H 37.5444 -1.02814 -1.6156 0
M  V30 382 H 35.8494 0.204658 -3.91265 0
M  V30 383 H 37.5464 -0.175345 -4.00616 0
M  V30 384 H 34.1364 -1.60862 -3.97268 0
M  V30 385 H 38.3204 -2.54629 -4.26002 0
M  V30 386 H 33.5764 -3.88113 -4.72418 0
M  V30 387 H 37.7504 -4.82153 -5.02496 0
M  V30 388 H 35.3774 -5.49418 -5.25399 0
M  V30 389 N 36.9525 1.47285 -0.560781 0
M  V30 390 C 37.9155 2.28535 0.174488 0
M  V30 391 C 38.9155 1.37153 0.839388 0
M  V30 392 O 40.1055 1.59748 0.694702 0
M  V30 393 C 37.2375 3.16934 1.25561 0
M  V30 394 H 38.4305 2.95012 -0.539262 0
M  V30 395 H 35.9835 1.53034 -0.317865 0
M  V30 396 H 36.7185 2.55157 2.00164 0
M  V30 397 H 36.5035 3.8419 0.783604 0
M  V30 398 H 37.9935 3.78143 1.77193 0
M  V30 399 N 38.4306 0.297415 1.54768 0
M  V30 400 C 39.7076 -0.365847 1.92148 0
M  V30 401 C 40.0876 -1.71975 1.22424 0
M  V30 402 O 39.4356 -2.25666 0.358739 0
M  V30 403 C 39.6456 -0.484056 3.45627 0
M  V30 404 C 40.9936 -0.756594 4.17805 0
M  V30 405 O 42.0176 -0.568007 3.51642 0
M  V30 406 O 40.8766 -1.11863 5.34929 0
M  V30 407 H 37.9706 -0.203919 0.801465 0
M  V30 408 H 40.5166 0.34521 1.66152 0
M  V30 409 H 39.2886 0.467865 3.88493 0
M  V30 410 H 38.9116 -1.24372 3.77647 0
M  V30 411 N 39.9087 -1.5758 0.0250728 0
M  V30 412 C 40.8557 -2.09973 -0.958129 0
M  V30 413 C 41.8257 -1.00085 -1.3256 0
M  V30 414 O 43.0107 -1.27481 -1.41962 0
M  V30 415 C 40.1507 -2.62812 -2.2366 0
M  V30 416 C 39.2637 -3.86693 -1.92594 0
M  V30 417 C 38.3987 -4.27941 -3.14707 0
M  V30 418 C 37.4377 -5.44591 -2.79442 0
M  V30 419 N 36.5747 -5.81014 -3.94167 0
M  V30 420 H 41.4147 -2.937 -0.504428 0
M  V30 421 H 38.9517 -1.45172 -0.237392 0
M  V30 422 H 40.9097 -2.91536 -2.98434 0
M  V30 423 H 39.5397 -1.81922 -2.66654 0
M  V30 424 H 38.5917 -3.64723 -1.0808 0
M  V30 425 H 39.9037 -4.71547 -1.62619 0
M  V30 426 H 39.0577 -4.58079 -3.97804 0
M  V30 427 H 37.7967 -3.41845 -3.4784 0
M  V30 428 H 36.8017 -5.1415 -1.94755 0
M  V30 429 H 38.0267 -6.32382 -2.47528 0
M  V30 430 H 35.9727 -4.97874 -4.2715 0
M  V30 431 H 35.8897 -6.60498 -3.67801 0
M  V30 432 H 37.1577 -6.15756 -4.7798 0
M  V30 433 N 41.3868 0.248026 -1.55636 0
M  V30 434 C 42.6328 0.97767 -1.77678 0
M  V30 435 C 42.9658 1.85016 -0.590135 0
M  V30 436 O 42.2408 1.90095 0.411611 0
M  V30 437 C 42.5238 1.83914 -3.09593 0
M  V30 438 C 42.3768 0.99491 -4.38659 0
M  V30 439 C 43.6958 2.82183 -3.37729 0
M  V30 440 H 40.8148 0.354005 -0.646413 0
M  V30 441 H 43.4568 0.248253 -1.88371 0
M  V30 442 H 41.6068 2.46104 -3.00608 0
M  V30 443 H 43.2788 0.391789 -4.59633 0
M  V30 444 H 41.5218 0.299231 -4.32767 0
M  V30 445 H 42.1928 1.63145 -5.2734 0
M  V30 446 H 44.6688 2.30129 -3.4667 0
M  V30 447 H 43.5448 3.39582 -4.31249 0
M  V30 448 H 43.8058 3.58588 -2.58586 0
M  V30 449 N 42.8649 1.48995 0.513639 0
M  V30 450 C 44.2759 1.5119 1.09537 0
M  V30 451 C 44.6269 0.290906 1.94031 0
M  V30 452 O 43.7519 -0.60049 2.07902 0
M  V30 453 C 44.3469 2.73964 1.99322 0
M  V30 454 C 42.9059 2.78978 2.52682 0
M  V30 455 C 42.0529 2.44934 1.30009 0
M  V30 456 H 45.0039 1.55875 0.298125 0
M  V30 457 H 45.0249 2.53409 2.83838 0
M  V30 458 H 44.5369 3.62813 1.37799 0
M  V30 459 H 42.6379 1.94378 3.1788 0
M  V30 460 H 42.7509 3.8083 2.90698 0
M  V30 461 H 41.1149 1.9644 1.62122 0
M  V30 462 H 41.8979 3.36043 0.702131 0
M  V30 463 N 44.343 -0.763751 1.37857 0
M  V30 464 C 45.29 -1.87726 1.34267 0
M  V30 465 C 46.26 -1.64807 0.206879 0
M  V30 466 O 47.445 -1.86613 0.397508 0
M  V30 467 C 44.585 -3.24896 1.16346 0
M  V30 468 C 43.698 -3.59716 2.39225 0
M  V30 469 C 42.833 -4.86137 2.14114 0
M  V30 470 C 41.872 -5.13711 3.32817 0
M  V30 471 N 41.009 -6.31323 3.07206 0
M  V30 472 H 45.849 -1.90129 2.29466 0
M  V30 473 H 43.386 -0.929433 1.14017 0
M  V30 474 H 45.344 -4.04036 1.03975 0
M  V30 475 H 43.974 -3.21847 0.247909 0
M  V30 476 H 43.026 -2.75498 2.62307 0
M  V30 477 H 44.338 -3.76027 3.27728 0
M  V30 478 H 43.492 -5.73198 1.9882 0
M  V30 479 H 42.231 -4.71945 1.22961 0
M  V30 480 H 41.236 -4.25123 3.48641 0
M  V30 481 H 42.461 -5.29807 4.24832 0
M  V30 482 H 40.407 -6.18474 2.1869 0
M  V30 483 H 40.324 -6.48087 3.89254 0
M  V30 484 H 41.592 -7.213 2.95546 0
M  V30 485 N 45.8211 -1.22559 -0.990812 0
M  V30 486 C 47.0491 -1.07779 -1.76611 0
M  V30 487 C 47.4641 0.371513 -1.85109 0
M  V30 488 O 46.8211 1.25737 -1.32274 0
M  V30 489 C 46.8721 -1.68512 -3.19822 0
M  V30 490 O 46.5931 -3.07774 -3.1178 0
M  V30 491 C 48.0941 -1.59035 -4.13791 0
M  V30 492 H 45.3141 -0.377729 -0.554583 0
M  V30 493 H 47.8581 -1.62195 -1.24551 0
M  V30 494 H 46.0131 -1.18154 -3.68942 0
M  V30 495 H 46.4271 -3.37062 -4.01858 0
M  V30 496 H 47.9011 -2.0625 -5.1202 0
M  V30 497 H 48.3781 -0.547273 -4.35777 0
M  V30 498 H 48.9841 -2.08709 -3.70568 0
M  V30 499 N 47.2992 1.18797 -1.03562 0
M  V30 500 C 48.2622 2.20464 -0.626769 0
M  V30 501 C 49.2622 1.57721 0.313173 0
M  V30 502 O 50.4522 1.73917 0.0992615 0
M  V30 503 C 47.5842 3.40802 0.0818498 0
M  V30 504 H 48.7772 2.58149 -1.5264 0
M  V30 505 H 46.3302 1.32593 -0.827578 0
M  V30 506 H 47.0652 3.08642 0.995518 0
M  V30 507 H 46.8502 3.8758 -0.593652 0
M  V30 508 H 48.3402 4.16092 0.354584 0
M  V30 509 N 48.7773 0.814389 1.34928 0
M  V30 510 C 49.6873 0.231978 2.3345 0
M  V30 511 C 50.7033 -0.629139 1.62228 0
M  V30 512 O 51.8793 -0.539052 1.94052 0
M  V30 513 C 48.9443 -0.603482 3.41407 0
M  V30 514 C 48.0053 0.279037 4.28392 0
M  V30 515 C 47.2383 -0.516643 5.31193 0
M  V30 516 O 47.4613 -1.75068 5.4287 0
M  V30 517 O 46.3953 0.0965652 6.01823 0
M  V30 518 H 50.2213 1.04721 2.85074 0
M  V30 519 H 47.8063 0.576343 1.37836 0
M  V30 520 H 49.6883 -1.07908 4.0735 0
M  V30 521 H 48.3633 -1.39618 2.92042 0
M  V30 522 H 47.2703 0.801948 3.65403 0
M  V30 523 H 48.6033 1.03588 4.81176 0
M  V30 524 N 50.2554 -1.46986 0.568584 0
M  V30 525 C 51.2034 -2.31858 -0.185649 0
M  V30 526 C 52.1974 -1.43624 -0.898249 0
M  V30 527 O 53.4034 -1.60327 -0.818242 0
M  V30 528 H 49.7784 -0.747866 -0.0787399 0
M  V30 529 H 51.7494 -2.93303 0.549191 0
M  V30 530 C 50.4984 -3.26513 -1.19519 0
M  V30 531 H 49.8214 -3.94377 -0.656285 0
M  V30 532 H 51.2614 -3.88707 -1.6936 0
M  V30 533 C 49.7204 -2.50847 -2.24894 0
M  V30 534 O 50.2504 -2.26119 -3.32014 0
M  V30 535 N 48.4564 -2.11656 -1.99124 0
M  V30 536 H 48.0034 -2.31966 -1.12024 0
M  V30 537 H 47.9614 -1.61347 -2.69842 0
M  V30 538 N 51.7335 -0.305618 -1.54608 0
M  V30 539 C 52.9805 0.302298 -2.00231 0
M  V30 540 C 53.3085 1.5354 -1.19398 0
M  V30 541 O 52.5635 1.93973 -0.259423 0
M  V30 542 C 52.8625 0.698983 -3.50498 0
M  V30 543 C 52.5285 -0.432903 -4.48817 0
M  V30 544 C 51.1905 -0.743622 -4.75419 0
M  V30 545 C 53.5425 -1.19409 -5.07337 0
M  V30 546 C 50.8705 -1.81857 -5.57804 0
M  V30 547 C 53.2225 -2.25899 -5.90891 0
M  V30 548 C 51.8865 -2.57572 -6.15803 0
M  V30 549 H 51.1565 0.110619 -0.732697 0
M  V30 550 H 53.8035 -0.425674 -1.86709 0
M  V30 551 H 52.1085 1.50711 -3.61654 0
M  V30 552 H 53.8055 1.1806 -3.83227 0
M  V30 553 H 50.3955 -0.18063 -4.28219 0
M  V30 554 H 54.5795 -0.967295 -4.86782 0
M  V30 555 H 49.8355 -2.06864 -5.75341 0
M  V30 556 H 54.0095 -2.85335 -6.35261 0
M  V30 557 H 51.6365 -3.40998 -6.7943 0
M  V30 558 N 53.2116 1.57565 -0.0334293 0
M  V30 559 C 54.6276 1.56297 0.322997 0
M  V30 560 C 54.8276 1.03945 1.7262 0
M  V30 561 O 53.8836 0.688109 2.42943 0
M  V30 562 C 55.1966 3.00232 0.167664 0
M  V30 563 C 56.7446 3.12078 0.240107 0
M  V30 564 C 57.2196 4.57859 0.113513 0
M  V30 565 N 58.7106 4.62887 0.170359 0
M  V30 566 C 59.4456 5.73319 0.0962517 0
M  V30 567 N 58.9416 6.92794 -0.0291881 0
M  V30 568 N 60.7346 5.61898 0.150551 0
M  V30 569 H 52.8856 1.89923 -0.950956 0
M  V30 570 H 55.1486 0.873824 -0.367608 0
M  V30 571 H 54.8546 3.42501 -0.799102 0
M  V30 572 H 54.7286 3.654 0.936083 0
M  V30 573 H 57.1156 2.69718 1.19733 0
M  V30 574 H 57.1966 2.49623 -0.558763 0
M  V30 575 H 56.8406 5.009 -0.840314 0
M  V30 576 H 56.7706 5.18299 0.931302 0
M  V30 577 H 59.2616 3.76954 0.26728 0
M  V30 578 H 59.5746 7.7276 -0.0789252 0
M  V30 579 H 57.9196 6.94971 -0.0640299 0
M  V30 580 H 61.1106 4.67448 0.246981 0
M  V30 581 H 61.2836 6.47938 0.0893365 0
M  V30 582 N 54.6897 -0.239769 1.55765 0
M  V30 583 C 55.6527 -1.28038 1.90103 0
M  V30 584 C 56.6527 -1.40723 0.778055 0
M  V30 585 O 57.8427 -1.39301 1.04599 0
M  V30 586 C 54.9747 -2.65702 2.13577 0
M  V30 587 H 56.1677 -0.988048 2.83157 0
M  V30 588 H 53.7207 -0.479382 1.48767 0
M  V30 589 H 54.4557 -3.00063 1.23015 0
M  V30 590 H 54.2407 -2.57875 2.95369 0
M  V30 591 H 55.7307 -3.40828 2.41301 0
M  V30 592 N 56.1678 -1.49265 -0.50573 0
M  V30 593 C 57.0978 -1.68495 -1.61653 0
M  V30 594 C 58.0788 -0.53366 -1.61512 0
M  V30 595 O 59.2638 -0.76897 -1.78327 0
M  V30 596 C 56.3938 -1.74709 -3.00157 0
M  V30 597 C 55.3478 -2.89581 -3.15162 0
M  V30 598 C 54.6738 -2.80903 -4.5497 0
M  V30 599 C 55.9738 -4.30578 -2.95634 0
M  V30 600 H 57.6678 -2.61493 -1.45814 0
M  V30 601 H 55.2138 -1.25838 -0.70005 0
M  V30 602 H 57.1668 -1.86748 -3.77761 0
M  V30 603 H 55.8908 -0.783067 -3.17074 0
M  V30 604 H 54.5498 -2.77136 -2.39982 0
M  V30 605 H 54.1978 -1.82419 -4.68756 0
M  V30 606 H 53.8978 -3.57999 -4.65951 0
M  V30 607 H 55.4218 -2.94944 -5.34641 0
M  V30 608 H 56.8358 -4.4373 -3.63011 0
M  V30 609 H 55.2328 -5.0886 -3.18091 0
M  V30 610 H 56.3028 -4.45352 -1.91806 0
M  V30 611 N 57.6459 0.756429 -1.3826 0
M  V30 612 C 58.8709 1.55077 -1.37717 0
M  V30 613 C 59.2959 1.88073 0.03164 0
M  V30 614 O 58.6539 1.50364 1.01293 0
M  V30 615 C 58.7019 2.8283 -2.23695 0
M  V30 616 O 57.8059 3.77862 -1.6521 0
M  V30 617 H 57.1469 0.469152 -0.469885 0
M  V30 618 H 59.6769 0.935019 -1.81985 0
M  V30 619 H 59.6869 3.31783 -2.37453 0
M  V30 620 H 58.3619 2.58144 -3.2609 0
M  V30 621 H 56.9389 3.36555 -1.60578 0
M  V30 622 N 59.124 1.23083 0.984299 0
M  V30 623 C 60.352 1.08714 1.76037 0
M  V30 624 C 60.767 -0.361691 1.85303 0
M  V30 625 O 60.124 -1.25034 1.32939 0
M  V30 626 C 60.175 1.70206 3.18923 0
M  V30 627 O 59.896 3.09423 3.10144 0
M  V30 628 C 61.397 1.61227 4.12941 0
M  V30 629 H 58.617 0.380664 0.552572 0
M  V30 630 H 61.161 1.62853 1.23689 0
M  V30 631 H 59.316 1.20109 3.6831 0
M  V30 632 H 59.73 3.39188 4.00065 0
M  V30 633 H 61.204 2.08962 5.10919 0
M  V30 634 H 61.681 0.570375 4.35481 0
M  V30 635 H 62.287 2.10671 3.69456 0
M  V30 636 N 60.6021 -1.18246 1.0419 0
M  V30 637 C 61.8501 -1.87886 0.744543 0
M  V30 638 C 62.1711 -1.8082 -0.730006 0
M  V30 639 O 61.4411 -1.22736 -1.52685 0
M  V30 640 H 60.0211 -0.695556 0.272417 0
M  V30 641 H 62.6831 -1.43494 1.31892 0
M  V30 642 H 61.7791 -2.9389 1.05049 0
M  V30 643 N 62.0802 -0.821533 -1.34494 0
M  V30 644 C 62.9902 -0.244355 -2.33324 0
M  V30 645 C 64.0062 0.620527 -1.62559 0
M  V30 646 O 65.1822 0.528754 -1.94335 0
M  V30 647 C 62.2472 0.585368 -3.41723 0
M  V30 648 C 61.3082 -0.301752 -4.28238 0
M  V30 649 C 60.5412 0.488466 -5.3146 0
M  V30 650 O 60.7642 1.72186 -5.4379 0
M  V30 651 O 59.6982 -0.12848 -6.01763 0
M  V30 652 H 63.5242 -1.06231 -2.84515 0
M  V30 653 H 61.1092 -0.583645 -1.37528 0
M  V30 654 H 62.9912 1.05747 -4.07916 0
M  V30 655 H 61.6662 1.38068 -2.92778 0
M  V30 656 H 60.5732 -0.821315 -3.64973 0
M  V30 657 H 61.9062 -1.06138 -4.8062 0
M  V30 658 N 63.5583 1.46682 -0.576371 0
M  V30 659 C 64.5053 2.30241 0.160499 0
M  V30 660 C 65.4753 1.40233 0.890162 0
M  V30 661 O 66.6603 1.69186 0.882084 0
M  V30 662 C 63.8003 3.24578 1.1723 0
M  V30 663 C 62.9133 4.29684 0.446736 0
M  V30 664 C 62.0483 5.11154 1.44551 0
M  V30 665 C 61.0873 6.08015 0.70599 0
M  V30 666 N 60.2243 6.82376 1.65251 0
M  V30 667 H 65.0643 2.92727 -0.558127 0
M  V30 668 H 62.6013 1.44272 -0.287056 0
M  V30 669 H 64.5593 3.77711 1.77172 0
M  V30 670 H 63.1893 2.63916 1.85872 0
M  V30 671 H 62.2413 3.79458 -0.267594 0
M  V30 672 H 63.5533 4.98626 -0.131686 0
M  V30 673 H 62.7073 5.68533 2.11791 0
M  V30 674 H 61.4463 4.42158 2.05786 0
M  V30 675 H 60.4513 5.49796 0.0197725 0
M  V30 676 H 61.6763 6.79028 0.09912 0
M  V30 677 H 59.6223 6.16094 2.25308 0
M  V30 678 H 59.5393 7.47556 1.12673 0
M  V30 679 H 60.8073 7.44316 2.31546 0
M  V30 680 N 65.0364 0.313813 1.54444 0
M  V30 681 C 66.2844 -0.291099 1.99993 0
M  V30 682 C 66.6054 -1.53418 1.20366 0
M  V30 683 O 65.8754 -1.93544 0.302927 0
M  V30 684 H 64.4554 -0.110552 0.738774 0
M  V30 685 H 67.1174 0.428106 1.9014 0
M  V30 686 H 66.2134 -0.554268 3.07139 0
M  V30 687 N 66.5145 -1.57545 0.0417849 0
M  V30 688 C 67.7615 -1.92317 -0.634082 0
M  V30 689 C 68.0895 -0.919334 -1.71402 0
M  V30 690 O 67.3445 0.0698253 -1.95575 0
M  V30 691 C 67.6435 -3.33794 -1.27735 0
M  V30 692 C 67.3095 -4.49716 -0.326543 0
M  V30 693 C 65.9715 -4.81156 -0.0648814 0
M  V30 694 C 68.3235 -5.20182 0.325623 0
M  V30 695 C 65.6515 -5.80414 0.856539 0
M  V30 696 C 68.0035 -6.20424 1.23518 0
M  V30 697 C 66.6675 -6.50298 1.5056 0
M  V30 698 H 65.9375 -0.703736 -0.232027 0
M  V30 699 H 68.5845 -1.91205 0.106259 0
M  V30 700 H 66.8895 -3.31228 -2.09274 0
M  V30 701 H 68.5865 -3.57975 -1.80707 0
M  V30 702 H 65.1765 -4.25176 -0.540665 0
M  V30 703 H 69.3605 -4.96112 0.136546 0
M  V30 704 H 64.6165 -6.019 1.07363 0
M  V30 705 H 68.7905 -6.74141 1.74664 0
M  V30 706 H 66.4175 -7.27025 2.22123 0
M  V30 707 N 67.9926 0.231505 -1.5589 0
M  V30 708 C 69.2406 0.955461 -1.78088 0
M  V30 709 C 69.5616 1.85262 -0.608533 0
M  V30 710 O 68.8316 1.92277 0.375035 0
M  V30 711 H 67.4116 0.355787 -0.656829 0
M  V30 712 H 70.0736 0.245751 -1.93344 0
M  V30 713 H 69.1696 1.56814 -2.69844 0
M  V30 714 N 69.4707 1.49531 0.497807 0
M  V30 715 C 70.7007 1.62657 1.27382 0
M  V30 716 C 71.1087 0.298488 1.86831 0
M  V30 717 O 70.4517 -0.72647 1.68725 0
M  V30 718 C 70.5137 2.6393 2.44093 0
M  V30 719 C 70.1777 4.08195 2.05489 0
M  V30 720 C 71.1747 4.949 1.59279 0
M  V30 721 C 68.8597 4.53948 2.15026 0
M  V30 722 C 70.8537 6.25397 1.23113 0
M  V30 723 C 68.5407 5.84458 1.78473 0
M  V30 724 C 69.5387 6.70006 1.32591 0
M  V30 725 O 69.2267 7.98083 0.965327 0
M  V30 726 H 68.9587 0.550429 0.392434 0
M  V30 727 H 71.5127 1.96325 0.603801 0
M  V30 728 H 69.7427 2.25449 3.14181 0
M  V30 729 H 71.4317 2.66552 3.06113 0
M  V30 730 H 72.1977 4.60779 1.51354 0
M  V30 731 H 68.0767 3.87525 2.4969 0
M  V30 732 H 71.6207 6.92125 0.872299 0
M  V30 733 H 67.5177 6.18107 1.86048 0
M  V30 734 H 68.2857 8.11122 1.09652 0
M  V30 735 N 70.9488 -0.749086 1.3866 0
M  V30 736 C 71.8958 -1.86291 1.36251 0
M  V30 737 C 72.8658 -1.64578 0.224347 0
M  V30 738 O 74.0508 -1.86181 0.417279 0
M  V30 739 C 71.1908 -3.23644 1.19786 0
M  V30 740 C 70.3038 -3.57158 2.43027 0
M  V30 741 C 69.4388 -4.83838 2.19258 0
M  V30 742 C 68.4778 -5.10152 3.38247 0
M  V30 743 N 67.6148 -6.28029 3.13884 0
M  V30 744 H 72.4548 -1.87685 2.3147 0
M  V30 745 H 69.9918 -0.917287 1.14997 0
M  V30 746 H 71.9498 -4.0291 1.08254 0
M  V30 747 H 70.5798 -3.21566 0.282031 0
M  V30 748 H 69.6318 -2.72701 2.65214 0
M  V30 749 H 70.9438 -3.7253 3.31697 0
M  V30 750 H 70.0978 -5.71057 2.04888 0
M  V30 751 H 68.8368 -4.70614 1.2796 0
M  V30 752 H 67.8418 -4.21401 3.53131 0
M  V30 753 H 69.0668 -5.25271 4.30427 0
M  V30 754 H 67.0128 -6.1612 2.25238 0
M  V30 755 H 66.9298 -6.43922 3.96106 0
M  V30 756 H 68.1978 -7.18124 3.03179 0
M  V30 757 N 72.4269 -1.23603 -0.977757 0
M  V30 758 C 73.6749 -1.06759 -1.71601 0
M  V30 759 C 73.9959 0.395929 -1.90938 0
M  V30 760 O 73.2659 1.28356 -1.47992 0
M  V30 761 H 71.8459 -0.392062 -0.635843 0
M  V30 762 H 74.5079 -1.55362 -1.1768 0
M  V30 763 H 73.6039 -1.55763 -2.70452 0
M  V30 764 N 73.905 1.17692 -1.04816 0
M  V30 765 C 75.13 1.92327 -0.776207 0
M  V30 766 C 75.555 1.76082 0.661581 0
M  V30 767 O 74.913 1.076 1.45917 0
M  V30 768 C 74.961 3.41539 -1.15687 0
M  V30 769 O 74.065 4.11402 -0.286775 0
M  V30 770 H 73.406 0.599735 -0.284981 0
M  V30 771 H 75.936 1.49201 -1.4 0
M  V30 772 H 75.946 3.92269 -1.12202 0
M  V30 773 H 74.621 3.52684 -2.20425 0
M  V30 774 H 73.198 3.70939 -0.381903 0
M  V30 775 N 75.3831 0.828654 1.34056 0
M  V30 776 C 76.6231 0.425394 1.99924 0
M  V30 777 C 76.9871 -0.994294 1.64249 0
M  V30 778 O 78.1881 -1.50074 2.23005 0
M  V30 779 C 76.4591 0.628071 3.51838 0
M  V30 780 S 78.0181 0.318511 4.37642 0
M  V30 781 H 74.8361 0.160465 0.692656 0
M  V30 782 H 77.4381 1.07572 1.63244 0
M  V30 783 H 76.1421 1.66089 3.7529 0
M  V30 784 H 75.6731 -0.0367799 3.93383 0
M  V30 785 H 77.6881 -0.865632 4.88591 0
M  V30 786 N 76.8612 -1.46375 0.584142 0
M  V30 787 C 78.1082 -2.02378 0.0702675 0
M  V30 788 C 78.4362 -1.45545 -1.29023 0
M  V30 789 O 77.6912 -0.610967 -1.85918 0
M  V30 790 C 77.9902 -3.57373 -0.0439342 0
M  V30 791 C 77.6562 -4.33252 1.24915 0
M  V30 792 C 76.3182 -4.53701 1.60341 0
M  V30 793 C 78.6702 -4.7681 2.1048 0
M  V30 794 C 75.9982 -5.1496 2.81128 0
M  V30 795 C 78.3502 -5.39404 3.30494 0
M  V30 796 C 77.0142 -5.5808 3.66201 0
M  V30 797 H 76.2842 -0.740554 0.0257127 0
M  V30 798 H 78.9312 -1.75727 0.761065 0
M  V30 799 H 77.2362 -3.83169 -0.817869 0
M  V30 800 H 78.9332 -3.98384 -0.457318 0
M  V30 801 H 75.5232 -4.17633 0.963364 0
M  V30 802 H 79.7072 -4.60766 1.84414 0
M  V30 803 H 74.9632 -5.27611 3.08928 0
M  V30 804 H 79.1372 -5.72114 3.97063 0
M  V30 805 H 76.7642 -6.05318 4.59885 0
M  V30 806 N 78.3393 -0.321999 -1.54275 0
M  V30 807 C 79.2893 0.560185 -2.21011 0
M  V30 808 C 80.2733 1.08283 -1.19011 0
M  V30 809 O 81.4653 1.02011 -1.44647 0
M  V30 810 C 78.5943 1.72137 -2.97025 0
M  V30 811 C 77.6803 1.21369 -4.06363 0
M  V30 812 N 78.0713 0.425566 -5.04007 0
M  V30 813 C 76.3693 1.49255 -4.20284 0
M  V30 814 C 77.0703 0.152601 -5.815 0
M  V30 815 N 76.0463 0.738294 -5.38563 0
M  V30 816 H 79.8483 -0.049265 -2.93859 0
M  V30 817 H 77.3623 -0.127779 -1.61897 0
M  V30 818 H 79.3593 2.36512 -3.43319 0
M  V30 819 H 78.0193 2.33431 -2.25699 0
M  V30 820 H 79.0303 0.068551 -5.17855 0
M  V30 821 H 75.7073 2.11145 -3.60172 0
M  V30 822 H 77.0973 -0.481764 -6.70171 0
M  V30 823 N 79.8174 1.5752 -0.0501392 0
M  V30 824 C 81.2334 1.56631 0.306402 0
M  V30 825 C 81.4334 1.0577 1.71508 0
M  V30 826 O 80.4894 0.713837 2.422 0
M  V30 827 C 81.8024 3.00393 0.135811 0
M  V30 828 C 83.3504 3.12315 0.206993 0
M  V30 829 C 83.8254 4.57954 0.064944 0
M  V30 830 N 85.3164 4.63041 0.121254 0
M  V30 831 C 86.0514 5.73389 0.0354381 0
M  V30 832 N 85.5474 6.92724 -0.102666 0
M  V30 833 N 87.3404 5.62026 0.090946 0
M  V30 834 H 79.4914 1.88903 -0.971046 0
M  V30 835 H 81.7544 0.869876 -0.376855 0
M  V30 836 H 81.4604 3.41635 -0.835384 0
M  V30 837 H 81.3344 3.66373 0.897275 0
M  V30 838 H 83.7214 2.70973 1.16866 0
M  V30 839 H 83.8024 2.49016 -0.585208 0
M  V30 840 H 83.4464 4.99981 -0.893394 0
M  V30 841 H 83.3764 5.19258 0.876277 0
M  V30 842 H 85.8674 3.77216 0.227284 0
M  V30 843 H 86.1804 7.72633 -0.160882 0
M  V30 844 H 84.5254 6.94864 -0.137737 0
M  V30 845 H 87.7164 4.67684 0.197388 0
M  V30 846 H 87.8894 6.47997 0.0206089 0
M  V30 847 N 81.2955 -0.223234 1.56011 0
M  V30 848 C 82.5445 -0.945912 1.78144 0
M  V30 849 C 82.8575 -1.85567 0.618396 0
M  V30 850 O 84.0635 -2.61688 0.723318 0
M  V30 851 C 82.5195 -1.73216 3.15475 0
M  V30 852 C 82.1275 -0.868619 4.39499 0
M  V30 853 C 83.8715 -2.44615 3.46935 0
M  V30 854 C 81.7785 -1.65212 5.67855 0
M  V30 855 H 80.7085 -0.356929 0.664167 0
M  V30 856 H 83.3595 -0.199845 1.82409 0
M  V30 857 H 81.7415 -2.52107 3.05382 0
M  V30 858 H 82.9155 -0.120366 4.60643 0
M  V30 859 H 81.2305 -0.26683 4.15544 0
M  V30 860 H 83.8275 -3.03732 4.40058 0
M  V30 861 H 84.1705 -3.17417 2.69355 0
M  V30 862 H 84.7035 -1.72715 3.58349 0
M  V30 863 H 81.4425 -0.967407 6.48322 0
M  V30 864 H 80.9625 -2.37503 5.50774 0
M  V30 865 H 82.6415 -2.21322 6.07968 0
M  V30 866 N 82.7736 -1.49793 -0.48987 0
M  V30 867 C 84.0226 -1.59085 -1.23995 0
M  V30 868 C 84.3356 -0.287907 -1.9347 0
M  V30 869 O 85.5416 -0.259506 -2.70257 0
M  V30 870 C 83.9976 -2.80736 -2.252 0
M  V30 871 C 83.6056 -4.17833 -1.61614 0
M  V30 872 C 85.3496 -2.99364 -3.00967 0
M  V30 873 C 83.2566 -5.30693 -2.60996 0
M  V30 874 H 82.1866 -0.592372 -0.466488 0
M  V30 875 H 84.8376 -1.76197 -0.51252 0
M  V30 876 H 83.2196 -2.57142 -3.01154 0
M  V30 877 H 84.3936 -4.51608 -0.915774 0
M  V30 878 H 82.7086 -4.04656 -0.981977 0
M  V30 879 H 85.3056 -3.80851 -3.75308 0
M  V30 880 H 85.6486 -2.10356 -3.59244 0
M  V30 881 H 86.1816 -3.2305 -2.32128 0
M  V30 882 H 82.9206 -6.21796 -2.07485 0
M  V30 883 H 82.4406 -5.01359 -3.2924 0
M  V30 884 H 84.1196 -5.6049 -3.23202 0
M  V30 885 N 84.2517 0.741722 -1.39055 0
M  V30 886 C 85.6627 1.31966 -1.32068 0
M  V30 887 C 86.0137 1.96192 0.0180797 0
M  V30 888 O 85.1387 1.95861 0.920196 0
M  V30 889 C 85.7337 2.39954 -2.39181 0
M  V30 890 C 84.2927 2.93438 -2.35735 0
M  V30 891 C 83.4397 1.66936 -2.21422 0
M  V30 892 H 86.3907 0.539721 -1.4924 0
M  V30 893 H 86.4117 3.20182 -2.05581 0
M  V30 894 H 85.9237 1.9318 -3.36605 0
M  V30 895 H 84.0247 3.4451 -1.41929 0
M  V30 896 H 84.1377 3.4701 -3.30335 0
M  V30 897 H 82.5017 1.91016 -1.68478 0
M  V30 898 H 83.2847 1.22224 -3.20806 0
M  V30 899 N 85.7298 1.2412 0.971189 0
M  V30 900 C 86.9778 1.07668 1.71032 0
M  V30 901 C 87.2988 -0.385797 1.91146 0
M  V30 902 O 86.5688 -1.27569 1.4867 0
M  V30 903 H 85.1488 0.395429 0.633755 0
M  V30 904 H 87.8108 1.55984 1.16855 0
M  V30 905 H 86.9068 1.57195 2.69622 0
M  V30 906 N 87.2079 -1.17134 1.05439 0
M  V30 907 C 88.4549 -1.87456 0.765942 0
M  V30 908 C 88.7829 -1.81189 -0.707153 0
M  V30 909 O 88.0379 -1.21633 -1.5331 0
M  V30 910 C 88.3369 -3.36833 1.19491 0
M  V30 911 C 88.0029 -3.63301 2.67063 0
M  V30 912 C 86.6649 -3.70234 3.07376 0
M  V30 913 C 89.0169 -3.74575 3.62413 0
M  V30 914 C 86.3449 -3.85933 4.41896 0
M  V30 915 C 88.6969 -3.91793 4.9667 0
M  V30 916 C 87.3609 -3.96966 5.36633 0
M  V30 917 H 86.6309 -0.685948 0.280278 0
M  V30 918 H 89.2779 -1.38556 1.32192 0
M  V30 919 H 87.5829 -3.87807 0.557969 0
M  V30 920 H 89.2799 -3.89611 0.948893 0
M  V30 921 H 85.8699 -3.58532 2.34846 0
M  V30 922 H 90.0539 -3.68537 3.32406 0
M  V30 923 H 85.3099 -3.88187 4.72357 0
M  V30 924 H 89.4839 -3.99458 5.70444 0
M  V30 925 H 87.1109 -4.08883 6.40874 0
M  V30 926 N 88.686 -0.835752 -1.33615 0
M  V30 927 C 89.619 -0.211815 -2.27215 0
M  V30 928 C 90.597 0.639249 -1.49507 0
M  V30 929 O 91.781 0.600193 -1.78689 0
M  V30 930 C 88.908 0.702893 -3.31326 0
M  V30 931 C 87.954 -0.0723049 -4.26439 0
M  V30 932 S 88.787 -1.42811 -5.16106 0
M  V30 933 C 89.943 -0.518613 -6.23748 0
M  V30 934 H 90.176 -1.00533 -2.79786 0
M  V30 935 H 87.709 -0.632336 -1.40858 0
M  V30 936 H 89.667 1.22505 -3.91794 0
M  V30 937 H 88.328 1.47004 -2.77576 0
M  V30 938 H 87.521 0.62359 -5.00127 0
M  V30 939 H 87.123 -0.525424 -3.70291 0
M  V30 940 H 89.415 0.284778 -6.76901 0
M  V30 941 H 90.358 -1.22556 -6.97413 0
M  V30 942 H 90.766 -0.101344 -5.64409 0
M  V30 943 N 90.1641 1.46063 -0.591896 0
M  V30 944 C 91.4041 2.04228 -0.0838014 0
M  V30 945 C 91.7681 1.45231 1.25587 0
M  V30 946 O 92.9691 1.94653 1.85375 0
M  V30 947 C 91.2401 3.57389 -0.0286282 0
M  V30 948 S 92.7991 4.3678 0.420557 0
M  V30 949 H 89.6171 0.709762 -0.0419319 0
M  V30 950 H 92.2191 1.78983 -0.786465 0
M  V30 951 H 90.9231 3.97843 -1.00743 0
M  V30 952 H 90.4541 3.87185 0.69652 0
M  V30 953 H 92.4691 4.67131 1.67341 0
M  V30 954 N 91.6422 0.330177 1.54103 0
M  V30 955 C 92.5742 -0.566902 2.22079 0
M  V30 956 C 93.5872 -1.07462 1.22294 0
M  V30 957 O 94.7762 -0.987065 1.48726 0
M  V30 958 C 91.8762 -1.79138 2.87685 0
M  V30 959 C 91.0492 -1.42123 4.13666 0
M  V30 960 C 90.1082 -2.50394 4.62806 0
M  V30 961 O 89.1342 -2.14261 5.27334 0
M  V30 962 N 90.3362 -3.81433 4.37595 0
M  V30 963 H 93.1012 0.0151844 2.99696 0
M  V30 964 H 90.6622 0.153681 1.61169 0
M  V30 965 H 92.6542 -2.50975 3.1748 0
M  V30 966 H 91.2242 -2.28115 2.13734 0
M  V30 967 H 90.4442 -0.534201 3.90564 0
M  V30 968 H 91.7322 -1.14971 4.9564 0
M  V30 969 H 91.1302 -4.13584 3.8596 0
M  V30 970 H 89.6872 -4.4948 4.72029 0
M  V30 971 N 93.1203 -1.57491 0.0584922 0
M  V30 972 C 94.3683 -1.92597 -0.612436 0
M  V30 973 C 94.6893 -0.938162 -1.70949 0
M  V30 974 O 93.9593 0.0158301 -1.95894 0
M  V30 975 H 92.5393 -0.710964 -0.229214 0
M  V30 976 H 95.2013 -1.94571 0.113218 0
M  V30 977 H 94.2973 -2.94038 -1.04633 0
M  V30 978 N 94.5984 0.214957 -1.56127 0
M  V30 979 C 95.8464 0.936518 -1.79091 0
M  V30 980 C 96.1674 1.84606 -0.628148 0
M  V30 981 O 95.4374 1.92664 0.35462 0
M  V30 982 H 94.0174 0.3488 -0.660566 0
M  V30 983 H 96.6794 0.22523 -1.93594 0
M  V30 984 H 95.7754 1.53943 -2.71492 0
M  V30 985 N 96.0765 1.50051 0.48192 0
M  V30 986 C 97.3535 1.51009 1.2432 0
M  V30 987 C 97.7335 0.248587 2.09631 0
M  V30 988 O 97.0815 -0.768409 2.15192 0
M  V30 989 C 97.2915 2.79981 2.08355 0
M  V30 990 C 98.6395 3.3022 2.66908 0
M  V30 991 O 99.6635 2.81228 2.18607 0
M  V30 992 O 98.5225 4.15595 3.54884 0
M  V30 993 H 95.6165 0.605239 0.563573 0
M  V30 994 H 98.1625 1.62332 0.494627 0
M  V30 995 H 96.9345 3.63275 1.45419 0
M  V30 996 H 96.5575 2.7161 2.90368 0
M  V30 997 N 97.5546 -0.734337 1.39446 0
M  V30 998 C 98.8016 -1.49391 1.36706 0
M  V30 999 C 99.1296 -1.94465 -0.0367813 0
M  V30 1000 O 98.3846 -1.67154 -1.01774 0
M  V30 1001 C 98.6836 -2.74711 2.28623 0
M  V30 1002 C 98.3496 -2.48501 3.76242 0
M  V30 1003 C 97.0116 -2.41062 4.16464 0
M  V30 1004 C 99.3636 -2.26098 4.69606 0
M  V30 1005 C 96.6916 -2.09262 5.48112 0
M  V30 1006 C 99.0436 -1.95814 6.01531 0
M  V30 1007 C 97.7076 -1.86845 6.40816 0
M  V30 1008 H 96.9776 -0.546661 0.500243 0
M  V30 1009 H 99.6246 -0.842788 1.71957 0
M  V30 1010 H 97.9296 -3.44569 1.86492 0
M  V30 1011 H 99.6266 -3.32741 2.23796 0
M  V30 1012 H 96.2166 -2.55169 3.44364 0
M  V30 1013 H 100.401 -2.30812 4.39363 0
M  V30 1014 H 95.6566 -2.00841 5.77471 0
M  V30 1015 H 99.8306 -1.77488 6.73403 0
M  V30 1016 H 97.4576 -1.6197 7.42745 0
M  V30 1017 N 99.0327 -1.24633 -0.964593 0
M  V30 1018 C 100.261 -1.11501 -1.74285 0
M  V30 1019 C 100.676 0.332165 -1.85855 0
M  V30 1020 O 100.033 1.22903 -1.34911 0
M  V30 1021 C 100.084 -1.75258 -3.16175 0
M  V30 1022 O 99.8047 -3.14318 -3.05182 0
M  V30 1023 C 101.306 -1.67776 -4.10324 0
M  V30 1024 H 98.5257 -0.389407 -0.546446 0
M  V30 1025 H 101.07 -1.64801 -1.21083 0
M  V30 1026 H 99.2247 -1.25954 -3.66353 0
M  V30 1027 H 99.6387 -3.4551 -3.94618 0
M  V30 1028 H 101.113 -2.17064 -5.0753 0
M  V30 1029 H 101.59 -0.639584 -4.34518 0
M  V30 1030 H 102.196 -2.16522 -3.66058 0
M  V30 1031 N 100.511 1.16574 -1.06058 0
M  V30 1032 C 101.927 1.3904 -0.783585 0
M  V30 1033 C 102.127 1.91784 0.618145 0
M  V30 1034 O 101.183 2.11511 1.37911 0
M  V30 1035 C 102.496 2.37329 -1.84649 0
M  V30 1036 C 104.044 2.51018 -1.86973 0
M  V30 1037 C 104.519 3.52588 -2.92311 0
M  V30 1038 N 106.01 3.60113 -2.91329 0
M  V30 1039 C 106.745 4.38486 -3.69482 0
M  V30 1040 N 106.241 5.20302 -4.57447 0
M  V30 1041 N 108.034 4.33446 -3.57885 0
M  V30 1042 H 100.185 0.806725 -1.96483 0
M  V30 1043 H 102.448 0.417117 -0.851303 0
M  V30 1044 H 102.154 2.05663 -2.85299 0
M  V30 1045 H 102.028 3.36946 -1.6955 0
M  V30 1046 H 104.415 2.81989 -0.869827 0
M  V30 1047 H 104.496 1.51445 -2.0615 0
M  V30 1048 H 104.14 3.22354 -3.92492 0
M  V30 1049 H 104.07 4.51886 -2.70383 0
M  V30 1050 H 106.561 3.01707 -2.27555 0
M  V30 1051 H 106.874 5.77311 -5.13743 0
M  V30 1052 H 105.219 5.19653 -4.61503 0
M  V30 1053 H 108.41 3.68586 -2.88551 0
M  V30 1054 H 108.583 4.94279 -4.19037 0
M  V30 1055 N 101.989 0.842826 1.3317 0
M  V30 1056 C 102.939 0.250877 2.26616 0
M  V30 1057 C 103.923 -0.596427 1.49437 0
M  V30 1058 O 105.115 -0.447747 1.71243 0
M  V30 1059 C 102.244 -0.569779 3.38539 0
M  V30 1060 C 101.33 0.289254 4.23112 0
M  V30 1061 N 101.721 1.36987 4.86897 0
M  V30 1062 C 100.019 0.0769631 4.45934 0
M  V30 1063 C 100.72 1.89737 5.49886 0
M  V30 1064 N 99.6959 1.19827 5.30229 0
M  V30 1065 H 103.498 1.07718 2.73448 0
M  V30 1066 H 101.012 0.687693 1.47121 0
M  V30 1067 H 103.009 -1.01018 4.04476 0
M  V30 1068 H 101.669 -1.39401 2.93253 0
M  V30 1069 H 102.68 1.75277 4.87338 0
M  V30 1070 H 99.3569 -0.713507 4.11358 0
M  V30 1071 H 100.747 2.80253 6.10662 0
M  V30 1072 N 103.467 -1.45747 0.599634 0
M  V30 1073 C 104.415 -2.322 -0.136426 0
M  V30 1074 C 105.409 -1.45497 -0.867583 0
M  V30 1075 O 106.615 -1.62027 -0.78405 0
M  V30 1076 H 102.99 -0.749368 -0.0628588 0
M  V30 1077 H 104.961 -2.92072 0.611281 0
M  V30 1078 C 103.71 -3.28974 -1.12567 0
M  V30 1079 H 103.033 -3.9568 -0.572484 0
M  V30 1080 H 104.473 -3.92212 -1.61077 0
M  V30 1081 C 102.932 -2.55561 -2.19523 0
M  V30 1082 O 103.462 -2.33111 -3.27143 0
M  V30 1083 N 101.668 -2.15832 -1.94589 0
M  V30 1084 H 101.215 -2.3429 -1.07078 0
M  V30 1085 H 101.173 -1.67034 -2.66359 0
M  V30 1086 N 104.945 -0.338344 -1.53925 0
M  V30 1087 C 106.193 0.259245 -2.0043 0
M  V30 1088 C 106.514 1.51484 -1.22791 0
M  V30 1089 O 105.784 1.93037 -0.33368 0
M  V30 1090 H 104.364 0.0987845 -0.740439 0
M  V30 1091 H 107.026 -0.458302 -1.89435 0
M  V30 1092 H 106.122 0.505334 -3.07982 0
M  V30 1093 N 106.423 1.57458 -0.0668435 0
M  V30 1094 C 107.651 1.97624 0.612565 0
M  V30 1095 C 108.066 0.94502 1.63447 0
M  V30 1096 O 107.423 -0.0689276 1.8237 0
M  V30 1097 C 107.474 3.37869 1.28555 0
M  V30 1098 O 107.195 4.3704 0.304557 0
M  V30 1099 C 108.696 3.92882 2.05325 0
M  V30 1100 H 105.916 0.650045 0.166381 0
M  V30 1101 H 108.46 2.04035 -0.137782 0
M  V30 1102 H 106.615 3.3256 1.98702 0
M  V30 1103 H 107.029 5.18565 0.786779 0
M  V30 1104 H 108.503 4.93247 2.47812 0
M  V30 1105 H 108.98 3.29156 2.9078 0
M  V30 1106 H 109.586 4.01577 1.40056 0
M  V30 1107 N 107.901 -0.206675 1.56239 0
M  V30 1108 C 109.149 -0.927007 1.79586 0
M  V30 1109 C 109.47 -1.8427 0.637929 0
M  V30 1110 O 108.74 -1.92849 -0.344398 0
M  V30 1111 H 107.32 -0.345292 0.662407 0
M  V30 1112 H 109.982 -0.21496 1.93711 0
M  V30 1113 H 109.078 -1.52501 2.72305 0
M  V30 1114 N 109.379 -1.50304 -0.473955 0
M  V30 1115 C 110.627 -1.60832 -1.22382 0
M  V30 1116 C 110.948 -0.30939 -1.9253 0
M  V30 1117 O 110.218 0.67296 -1.83978 0
M  V30 1118 H 108.798 -0.592652 -0.454723 0
M  V30 1119 H 111.46 -1.87068 -0.546968 0
M  V30 1120 H 110.556 -2.41803 -1.97327 0
M  V30 1121 N 110.857 0.726932 -1.39834 0
M  V30 1122 C 111.804 1.841 -1.39197 0
M  V30 1123 C 112.774 1.642 -0.250502 0
M  V30 1124 O 113.959 1.85494 -0.446846 0
M  V30 1125 C 111.099 3.21697 -1.24919 0
M  V30 1126 C 110.212 3.53247 -2.48678 0
M  V30 1127 C 109.347 4.80289 -2.26928 0
M  V30 1128 C 108.386 5.04707 -3.4632 0
M  V30 1129 N 107.523 6.22956 -3.23836 0
M  V30 1130 H 112.363 1.83979 -2.34427 0
M  V30 1131 H 109.9 0.898876 -1.16442 0
M  V30 1132 H 111.858 4.01137 -1.1465 0
M  V30 1133 H 110.488 3.21076 -0.333153 0
M  V30 1134 H 109.54 2.68447 -2.69519 0
M  V30 1135 H 110.852 3.67205 -3.37582 0
M  V30 1136 H 110.006 5.67725 -2.13947 0
M  V30 1137 H 108.745 4.68519 -1.35431 0
M  V30 1138 H 107.75 4.1573 -3.5979 0
M  V30 1139 H 108.975 5.18357 -4.38729 0
M  V30 1140 H 106.921 6.12459 -2.35011 0
M  V30 1141 H 106.838 6.37539 -4.063 0
M  V30 1142 H 108.106 7.1321 -3.14566 0
M  V30 1143 N 112.336 1.25143 0.95797 0
M  V30 1144 C 113.561 1.12521 1.74223 0
M  V30 1145 C 113.986 -0.317402 1.85403 0
M  V30 1146 O 113.344 -1.2299 1.33204 0
M  V30 1147 C 113.392 1.78062 3.1357 0
M  V30 1148 O 112.496 1.058 3.98598 0
M  V30 1149 H 111.837 0.39304 0.535178 0
M  V30 1150 H 114.367 1.65641 1.201 0
M  V30 1151 H 114.377 1.84213 3.64046 0
M  V30 1152 H 113.052 2.83021 3.04749 0
M  V30 1153 H 111.629 1.07506 3.57067 0
M  V30 1154 N 113.814 -1.1601 1.06675 0
M  V30 1155 C 115.063 -1.85973 0.780818 0
M  V30 1156 C 115.376 -1.82819 -0.695444 0
M  V30 1157 O 116.582 -2.484 -1.09589 0
M  V30 1158 C 115.038 -3.33757 1.34665 0
M  V30 1159 C 114.646 -3.45374 2.85343 0
M  V30 1160 C 116.39 -4.0895 1.13843 0
M  V30 1161 C 114.297 -4.87266 3.35151 0
M  V30 1162 H 113.227 -0.696661 0.288407 0
M  V30 1163 H 115.878 -1.30903 1.28595 0
M  V30 1164 H 114.26 -3.88456 0.769274 0
M  V30 1165 H 115.434 -3.00816 3.49065 0
M  V30 1166 H 113.749 -2.83619 3.04876 0
M  V30 1167 H 116.346 -5.13654 1.4854 0
M  V30 1168 H 116.689 -4.16229 0.0770282 0
M  V30 1169 H 117.222 -3.605 1.68179 0
M  V30 1170 H 113.961 -4.85168 4.40786 0
M  V30 1171 H 113.481 -5.32433 2.76179 0
M  V30 1172 H 115.16 -5.56097 3.30704 0
M  V30 1173 N 115.292 -0.849877 -1.32721 0
M  V30 1174 C 116.522 -0.46408 -2.0132 0
M  V30 1175 C 116.93 0.94246 -1.64056 0
M  V30 1176 O 116.273 1.6257 -0.855379 0
M  V30 1177 C 116.335 -0.517887 -3.5575 0
M  V30 1178 C 115.999 -1.88248 -4.16427 0
M  V30 1179 C 116.996 -2.84726 -4.35002 0
M  V30 1180 C 114.681 -2.17832 -4.52609 0
M  V30 1181 C 116.675 -4.08945 -4.8892 0
M  V30 1182 C 114.362 -3.42304 -5.06232 0
M  V30 1183 C 115.36 -4.37677 -5.24335 0
M  V30 1184 O 115.048 -5.59946 -5.76815 0
M  V30 1185 H 114.78 -0.181327 -0.651227 0
M  V30 1186 H 117.334 -1.14713 -1.70382 0
M  V30 1187 H 115.564 0.221997 -3.86062 0
M  V30 1188 H 117.253 -0.148366 -4.05629 0
M  V30 1189 H 118.019 -2.63174 -4.07388 0
M  V30 1190 H 113.898 -1.44385 -4.37806 0
M  V30 1191 H 117.442 -4.83396 -5.02966 0
M  V30 1192 H 113.339 -3.63709 -5.33278 0
M  V30 1193 H 114.107 -5.61838 -5.95214 0
M  V30 1194 N 116.77 1.45427 -0.607355 0
M  V30 1195 C 118.018 2.01841 -0.102253 0
M  V30 1196 C 118.339 1.47832 1.27164 0
M  V30 1197 O 117.609 0.672497 1.83995 0
M  V30 1198 H 116.189 0.746188 -0.0348101 0
M  V30 1199 H 118.851 1.78229 -0.7887 0
M  V30 1200 H 117.947 3.12057 -0.0518585 0
M  V30 1201 N 118.248 0.346503 1.53744 0
M  V30 1202 C 119.158 -0.517293 2.28826 0
M  V30 1203 C 120.174 -1.10935 1.3405 0
M  V30 1204 O 121.35 -1.1244 1.6709 0
M  V30 1205 C 118.415 -1.65098 3.04866 0
M  V30 1206 C 117.476 -1.0884 4.15274 0
M  V30 1207 C 116.709 -2.16806 4.87679 0
M  V30 1208 O 116.932 -3.3758 4.59778 0
M  V30 1209 O 115.866 -1.80934 5.74061 0
M  V30 1210 H 119.692 0.0931396 3.03557 0
M  V30 1211 H 117.277 0.111458 1.48984 0
M  V30 1212 H 119.159 -2.31053 3.5241 0
M  V30 1213 H 117.834 -2.24717 2.32989 0
M  V30 1214 H 116.741 -0.3933 3.72027 0
M  V30 1215 H 118.074 -0.537036 4.89261 0
M  V30 1216 N 119.726 -1.57421 0.075193 0
M  V30 1217 C 120.673 -2.12915 -0.890843 0
M  V30 1218 C 121.643 -1.04252 -1.29309 0
M  V30 1219 O 122.828 -1.31933 -1.37834 0
M  V30 1220 C 119.968 -2.69795 -2.15186 0
M  V30 1221 C 119.081 -3.92624 -1.80194 0
M  V30 1222 C 118.216 -4.37736 -3.00933 0
M  V30 1223 C 117.255 -5.53205 -2.61974 0
M  V30 1224 N 116.392 -5.9326 -3.75483 0
M  V30 1225 H 121.232 -2.95156 -0.410735 0
M  V30 1226 H 118.769 -1.45854 -0.191086 0
M  V30 1227 H 120.727 -3.00883 -2.89008 0
M  V30 1228 H 119.357 -1.90313 -2.60731 0
M  V30 1229 H 118.409 -3.67977 -0.964218 0
M  V30 1230 H 119.721 -4.76482 -1.47534 0
M  V30 1231 H 118.875 -4.70503 -3.8303 0
M  V30 1232 H 117.614 -3.52739 -3.36789 0
M  V30 1233 H 116.619 -5.20086 -1.783 0
M  V30 1234 H 117.844 -6.39936 -2.27284 0
M  V30 1235 H 115.79 -5.11212 -4.11094 0
M  V30 1236 H 115.707 -6.71865 -3.46602 0
M  V30 1237 H 116.975 -6.30651 -4.58148 0
M  V30 1238 N 121.204 0.198386 -1.56346 0
M  V30 1239 C 122.451 0.919286 -1.80431 0
M  V30 1240 C 122.779 1.83393 -0.647866 0
M  V30 1241 O 122.034 1.92236 0.366556 0
M  V30 1242 C 122.333 1.77031 -3.10475 0
M  V30 1243 C 121.999 1.00693 -4.39513 0
M  V30 1244 C 120.661 0.796145 -4.74568 0
M  V30 1245 C 123.013 0.469559 -5.19081 0
M  V30 1246 C 120.341 0.0364588 -5.86689 0
M  V30 1247 C 122.693 -0.2769 -6.31994 0
M  V30 1248 C 121.357 -0.49873 -6.65634 0
M  V30 1249 H 120.627 0.336391 -0.660244 0
M  V30 1250 H 123.274 0.185872 -1.90596 0
M  V30 1251 H 121.579 2.5723 -2.95533 0
M  V30 1252 H 123.276 2.33065 -3.26315 0
M  V30 1253 H 119.866 1.18122 -4.12001 0
M  V30 1254 H 124.05 0.619816 -4.92414 0
M  V30 1255 H 119.306 -0.145412 -6.11227 0
M  V30 1256 H 123.48 -0.700684 -6.92866 0
M  V30 1257 H 121.107 -1.0893 -7.52355 0
M  V30 1258 N 122.682 1.50554 0.465978 0
M  V30 1259 C 123.592 1.72585 1.58907 0
M  V30 1260 C 124.608 0.60911 1.6299 0
M  V30 1261 O 125.784 0.88804 1.80765 0
M  V30 1262 C 122.849 1.81995 2.95091 0
M  V30 1263 C 121.91 3.05751 3.01355 0
M  V30 1264 C 121.143 3.14702 4.31043 0
M  V30 1265 O 121.366 2.30313 5.21835 0
M  V30 1266 O 120.3 4.07468 4.43005 0
M  V30 1267 H 124.126 2.67799 1.43239 0
M  V30 1268 H 121.711 1.34711 0.646013 0
M  V30 1269 H 123.593 1.90335 3.75966 0
M  V30 1270 H 122.268 0.899659 3.10947 0
M  V30 1271 H 121.175 3.02908 2.19539 0
M  V30 1272 H 122.508 3.97375 2.90437 0
M  V30 1273 N 124.16 -0.719506 1.40217 0
M  V30 1274 C 125.437 -1.47221 1.28784 0
M  V30 1275 C 125.817 -2.10883 -0.0956067 0
M  V30 1276 O 125.165 -1.99833 -1.10811 0
M  V30 1277 C 125.375 -2.5111 2.42373 0
M  V30 1278 C 126.723 -3.17053 2.82423 0
M  V30 1279 O 127.747 -2.61429 2.41937 0
M  V30 1280 O 126.606 -4.17742 3.52355 0
M  V30 1281 H 123.7 -0.654491 0.50554 0
M  V30 1282 H 126.246 -0.752014 1.52128 0
M  V30 1283 H 125.018 -2.02556 3.34793 0
M  V30 1284 H 124.641 -3.3067 2.20778 0
M  V30 1285 N 125.638 -1.25649 -0.95132 0
M  V30 1286 C 126.548 -1.08073 -2.08224 0
M  V30 1287 C 127.564 -0.0169666 -1.73992 0
M  V30 1288 O 128.74 -0.218593 -2.0021 0
M  V30 1289 C 125.805 -0.704922 -3.39458 0
M  V30 1290 C 124.866 -1.84699 -3.87537 0
M  V30 1291 C 124.099 -1.48902 -5.12508 0
M  V30 1292 O 124.322 -0.386156 -5.69091 0
M  V30 1293 O 123.256 -2.32033 -5.55378 0
M  V30 1294 H 127.082 -2.02924 -2.25954 0
M  V30 1295 H 124.667 -1.04618 -1.06656 0
M  V30 1296 H 126.549 -0.507609 -4.18332 0
M  V30 1297 H 125.224 0.214291 -3.2299 0
M  V30 1298 H 124.131 -2.09919 -3.09653 0
M  V30 1299 H 125.464 -2.74557 -4.08509 0
M  V30 1300 N 127.117 1.15442 -1.07289 0
M  V30 1301 C 128.065 2.22225 -0.686952 0
M  V30 1302 C 129.059 1.66688 0.30193 0
M  V30 1303 O 130.265 1.79236 0.165712 0
M  V30 1304 H 126.64 0.723783 -0.204064 0
M  V30 1305 H 128.611 2.52056 -1.5972 0
M  V30 1306 C 127.36 3.47556 -0.100149 0
M  V30 1307 H 126.683 3.90612 -0.852211 0
M  V30 1308 H 128.123 4.23794 0.132235 0
M  V30 1309 C 126.582 3.16337 1.159 0
M  V30 1310 O 127.112 3.33074 2.24555 0
M  V30 1311 N 125.318 2.70385 1.06491 0
M  V30 1312 H 124.865 2.56966 0.180668 0
M  V30 1313 H 124.823 2.49871 1.90819 0
M  V30 1314 N 128.595 0.856903 1.32268 0
M  V30 1315 C 129.842 0.461386 1.97174 0
M  V30 1316 C 130.17 -0.983491 1.67803 0
M  V30 1317 O 129.425 -1.70541 0.959903 0
M  V30 1318 C 129.724 0.649919 3.51441 0
M  V30 1319 C 129.39 2.0656 4.00804 0
M  V30 1320 C 128.052 2.45279 4.13995 0
M  V30 1321 C 130.404 2.98947 4.26943 0
M  V30 1322 C 127.732 3.75653 4.50668 0
M  V30 1323 C 130.084 4.28822 4.65075 0
M  V30 1324 C 128.748 4.67472 4.76472 0
M  V30 1325 H 128.018 0.168833 0.72151 0
M  V30 1326 H 130.665 1.08739 1.57633 0
M  V30 1327 H 128.97 -0.0593018 3.91755 0
M  V30 1328 H 130.667 0.32391 3.9969 0
M  V30 1329 H 127.257 1.75495 3.91024 0
M  V30 1330 H 131.441 2.70265 4.16258 0
M  V30 1331 H 126.697 4.05379 4.57688 0
M  V30 1332 H 130.871 5.0047 4.84255 0
M  V30 1333 H 128.498 5.68539 5.04646 0
M  V30 1334 N 130.073 -1.45103 0.615059 0
M  V30 1335 C 131.322 -2.01396 0.110718 0
M  V30 1336 C 131.635 -1.48834 -1.26916 0
M  V30 1337 O 132.841 -1.97152 -1.86664 0
M  V30 1338 C 131.297 -3.59599 0.14723 0
M  V30 1339 C 130.905 -4.21158 1.52743 0
M  V30 1340 C 132.649 -4.23428 -0.30148 0
M  V30 1341 C 130.556 -5.71535 1.51992 0
M  V30 1342 H 129.486 -0.753061 0.0376241 0
M  V30 1343 H 132.137 -1.66494 0.77149 0
M  V30 1344 H 130.519 -3.91724 -0.580339 0
M  V30 1345 H 131.693 -4.00594 2.2773 0
M  V30 1346 H 130.008 -3.69552 1.91886 0
M  V30 1347 H 132.605 -5.33703 -0.326392 0
M  V30 1348 H 132.948 -3.94629 -1.32565 0
M  V30 1349 H 133.481 -3.96047 0.373065 0
M  V30 1350 H 130.22 -6.05044 2.52193 0
M  V30 1351 H 129.74 -5.94268 0.81274 0
M  V30 1352 H 131.419 -6.34873 1.24681 0
M  V30 1353 N 131.551 -0.354651 -1.53558 0
M  V30 1354 C 132.481 0.489091 -2.2832 0
M  V30 1355 C 133.462 1.09324 -1.30316 0
M  V30 1356 O 134.647 1.11255 -1.59173 0
M  V30 1357 C 131.777 1.63456 -3.0643 0
M  V30 1358 C 130.731 1.1582 -4.12031 0
M  V30 1359 C 130.057 2.39305 -4.7816 0
M  V30 1360 C 131.357 0.250731 -5.21698 0
M  V30 1361 H 133.051 -0.134614 -2.99097 0
M  V30 1362 H 130.597 -0.0661826 -1.43848 0
M  V30 1363 H 132.55 2.23136 -3.57475 0
M  V30 1364 H 131.274 2.28533 -2.33325 0
M  V30 1365 H 129.933 0.584146 -3.61916 0
M  V30 1366 H 129.581 3.02814 -4.01637 0
M  V30 1367 H 129.281 2.08109 -5.49513 0
M  V30 1368 H 130.805 2.99691 -5.31994 0
M  V30 1369 H 132.219 0.754695 -5.68311 0
M  V30 1370 H 130.616 0.0301468 -6.00092 0
M  V30 1371 H 131.686 -0.710125 -4.79672 0
M  V30 1372 N 133.029 1.57378 -0.0835403 0
M  V30 1373 C 133.976 2.13384 0.879539 0
M  V30 1374 C 134.946 1.04936 1.28754 0
M  V30 1375 O 136.131 1.32662 1.37133 0
M  V30 1376 C 133.271 2.70932 2.13752 0
M  V30 1377 C 132.384 3.93575 1.7811 0
M  V30 1378 C 131.519 4.39326 2.98607 0
M  V30 1379 C 130.558 5.54587 2.59037 0
M  V30 1380 N 129.695 5.95243 3.72331 0
M  V30 1381 H 134.535 2.9537 0.395076 0
M  V30 1382 H 132.072 1.45953 0.183349 0
M  V30 1383 H 134.03 3.02411 2.87408 0
M  V30 1384 H 132.66 1.91693 2.59718 0
M  V30 1385 H 131.712 3.68483 0.94469 0
M  V30 1386 H 133.024 4.77258 1.45005 0
M  V30 1387 H 132.178 4.72528 3.80529 0
M  V30 1388 H 130.917 3.5452 3.34913 0
M  V30 1389 H 129.922 5.21024 1.75539 0
M  V30 1390 H 131.147 6.41133 2.23887 0
M  V30 1391 H 129.093 5.13385 4.08378 0
M  V30 1392 H 129.01 6.73694 3.43034 0
M  V30 1393 H 130.278 6.33072 4.54797 0
M  V30 1394 N 134.507 -0.190092 1.56449 0
M  V30 1395 C 135.457 -1.23977 1.91347 0
M  V30 1396 C 136.441 -1.40747 0.779693 0
M  V30 1397 O 137.633 -1.43033 1.04262 0
M  V30 1398 C 134.762 -2.58347 2.26079 0
M  V30 1399 C 133.848 -2.4535 3.45925 0
M  V30 1400 N 134.239 -2.02039 4.63696 0
M  V30 1401 C 132.537 -2.76229 3.50162 0
M  V30 1402 C 133.238 -2.01053 5.4585 0
M  V30 1403 N 132.214 -2.42747 4.8639 0
M  V30 1404 H 136.016 -0.896318 2.79899 0
M  V30 1405 H 133.53 -0.398496 1.57435 0
M  V30 1406 H 135.527 -3.34173 2.49267 0
M  V30 1407 H 134.187 -2.93512 1.38856 0
M  V30 1408 H 135.198 -1.7267 4.88268 0
M  V30 1409 H 131.875 -3.15556 2.73369 0
M  V30 1410 H 133.265 -1.69426 6.50188 0
M  V30 1411 N 135.985 -1.50799 -0.457987 0
M  V30 1412 C 137.213 -1.66218 -1.23203 0
M  V30 1413 C 137.628 -0.350894 -1.85511 0
M  V30 1414 O 136.985 0.668546 -1.69814 0
M  V30 1415 C 137.036 -2.76291 -2.33121 0
M  V30 1416 O 136.757 -4.02338 -1.73366 0
M  V30 1417 C 138.258 -3.028 -3.2377 0
M  V30 1418 H 135.478 -0.558361 -0.372121 0
M  V30 1419 H 138.022 -1.97099 -0.545179 0
M  V30 1420 H 136.177 -2.48068 -2.97558 0
M  V30 1421 H 136.591 -4.63312 -2.4585 0
M  V30 1422 H 138.065 -3.8345 -3.97077 0
M  V30 1423 H 138.542 -2.14385 -3.83322 0
M  V30 1424 H 139.148 -3.32604 -2.65056 0
M  V30 1425 N 137.463 0.71206 -1.40597 0
M  V30 1426 C 138.711 1.46907 -1.38791 0
M  V30 1427 C 139.032 1.94998 0.00780391 0
M  V30 1428 O 138.302 1.70587 0.963174 0
M  V30 1429 H 136.882 0.545043 -0.51082 0
M  V30 1430 H 139.544 0.843882 -1.75683 0
M  V30 1431 H 138.64 2.34021 -2.06496 0
M  V30 1432 N 138.941 1.26152 0.944643 0
M  V30 1433 C 140.352 1.10454 1.50522 0
M  V30 1434 C 140.703 -0.31635 1.93633 0
M  V30 1435 O 139.828 -1.20746 1.79581 0
M  V30 1436 C 140.423 1.99891 2.73549 0
M  V30 1437 C 138.982 1.88348 3.25886 0
M  V30 1438 C 138.129 1.93447 1.9868 0
M  V30 1439 H 141.08 1.39292 0.760489 0
M  V30 1440 H 141.101 1.54477 3.47732 0
M  V30 1441 H 140.613 3.03297 2.42141 0
M  V30 1442 H 138.714 0.878636 3.62092 0
M  V30 1443 H 138.827 2.73696 3.93227 0
M  V30 1444 H 137.191 1.37456 2.14425 0
M  V30 1445 H 137.974 2.98476 1.69607 0
M  V30 1446 N 140.419 -1.14872 1.07899 0
M  V30 1447 C 141.667 -1.85422 0.803941 0
M  V30 1448 C 141.988 -1.83051 -0.67211 0
M  V30 1449 O 141.258 -1.27532 -1.48703 0
M  V30 1450 H 139.838 -0.686537 0.294408 0
M  V30 1451 H 142.5 -1.39226 1.3639 0
M  V30 1452 H 141.596 -2.90399 1.14346 0
M  V30 1453 N 141.898 -0.863906 -1.31812 0
M  V30 1454 C 143.147 -0.46801 -1.96195 0
M  V30 1455 C 143.46 0.983474 -1.69077 0
M  V30 1456 O 144.666 1.48523 -2.27273 0
M  V30 1457 C 143.122 -0.785995 -3.51212 0
M  V30 1458 C 142.73 -2.25383 -3.87178 0
M  V30 1459 C 144.474 -0.458274 -4.22019 0
M  V30 1460 C 142.381 -2.51455 -5.3528 0
M  V30 1461 H 141.311 -0.171283 -0.734287 0
M  V30 1462 H 143.962 -1.05597 -1.50072 0
M  V30 1463 H 142.344 -0.127359 -3.95795 0
M  V30 1464 H 143.518 -2.95502 -3.53575 0
M  V30 1465 H 141.833 -2.54698 -3.2942 0
M  V30 1466 H 144.43 -0.630369 -5.30971 0
M  V30 1467 H 144.773 0.600834 -4.11941 0
M  V30 1468 H 145.306 -1.07319 -3.8305 0
M  V30 1469 H 142.045 -3.56025 -5.50387 0
M  V30 1470 H 141.565 -1.85923 -5.70257 0
M  V30 1471 H 143.244 -2.35874 -6.02472 0
M  V30 1472 N 143.376 1.44774 -0.622745 0
M  V30 1473 C 144.306 2.33382 0.0741861 0
M  V30 1474 C 145.287 1.47719 0.843387 0
M  V30 1475 O 146.472 1.76458 0.810934 0
M  V30 1476 C 143.602 3.30663 1.06204 0
M  V30 1477 C 142.556 4.26079 0.405037 0
M  V30 1478 C 141.882 5.13165 1.5022 0
M  V30 1479 C 143.182 5.1781 -0.683414 0
M  V30 1480 H 144.876 2.91905 -0.665713 0
M  V30 1481 H 142.422 1.40363 -0.321587 0
M  V30 1482 H 144.375 3.9153 1.55827 0
M  V30 1483 H 143.099 2.70331 1.83272 0
M  V30 1484 H 141.758 3.66532 -0.0704683 0
M  V30 1485 H 141.406 4.49191 2.26355 0
M  V30 1486 H 141.106 5.77812 1.06803 0
M  V30 1487 H 142.63 5.76902 2.00041 0
M  V30 1488 H 144.044 5.72661 -0.270631 0
M  V30 1489 H 142.441 5.91015 -1.04023 0
M  V30 1490 H 143.511 4.59326 -1.55395 0
M  V30 1491 N 144.854 0.36279 1.53368 0
M  V30 1492 C 146.079 -0.231226 2.06107 0
M  V30 1493 C 146.504 -1.419 1.23474 0
M  V30 1494 O 145.862 -1.79524 0.253128 0
M  V30 1495 C 145.91 -0.605523 3.5548 0
M  V30 1496 O 145.014 -1.70312 3.7559 0
M  V30 1497 H 144.355 -0.034327 0.663112 0
M  V30 1498 H 146.885 0.522584 1.97814 0
M  V30 1499 H 146.895 -0.877314 3.98456 0
M  V30 1500 H 145.57 0.263004 4.15068 0
M  V30 1501 H 144.147 -1.4271 3.44512 0
M  V30 1502 N 146.332 -1.57332 0.0918853 0
M  V30 1503 C 147.265 -2.09499 -0.904735 0
M  V30 1504 C 148.243 -1.00479 -1.27839 0
M  V30 1505 O 149.427 -1.27954 -1.38419 0
M  V30 1506 C 146.554 -2.56931 -2.2069 0
M  V30 1507 C 145.6 -3.77579 -1.98334 0
M  V30 1508 S 146.433 -5.21317 -1.22428 0
M  V30 1509 C 147.589 -5.72097 -2.53882 0
M  V30 1510 H 147.822 -2.93705 -0.460922 0
M  V30 1511 H 145.355 -1.53923 -0.121332 0
M  V30 1512 H 147.313 -2.84917 -2.95521 0
M  V30 1513 H 145.974 -1.72956 -2.62192 0
M  V30 1514 H 145.167 -4.08824 -2.94752 0
M  V30 1515 H 144.769 -3.5007 -1.31633 0
M  V30 1516 H 147.061 -5.80168 -3.49874 0
M  V30 1517 H 148.004 -6.70654 -2.27219 0
M  V30 1518 H 148.412 -5.00012 -2.62007 0
M  V30 1519 N 147.81 0.181792 -1.56548 0
M  V30 1520 C 148.773 1.20894 -1.94724 0
M  V30 1521 C 149.773 1.37738 -0.829747 0
M  V30 1522 O 150.963 1.35323 -1.09697 0
M  V30 1523 C 148.095 2.57593 -2.23291 0
M  V30 1524 H 149.288 0.882275 -2.86629 0
M  V30 1525 H 146.841 0.423838 -1.50444 0
M  V30 1526 H 147.576 2.95291 -1.34067 0
M  V30 1527 H 147.361 2.46735 -3.04736 0
M  V30 1528 H 148.851 3.31637 -2.53785 0
M  V30 1529 N 149.288 1.51039 0.449983 0
M  V30 1530 C 150.236 1.71995 1.5659 0
M  V30 1531 C 151.23 0.586029 1.5894 0
M  V30 1532 O 152.436 0.76709 1.62837 0
M  V30 1533 H 148.811 0.543233 0.520001 0
M  V30 1534 H 150.782 2.65562 1.36085 0
M  V30 1535 C 149.531 1.8506 2.9436 0
M  V30 1536 H 148.854 2.71712 2.93279 0
M  V30 1537 H 150.294 2.0374 3.71842 0
M  V30 1538 C 148.753 0.607277 3.31382 0
M  V30 1539 O 149.283 -0.243903 4.00959 0
M  V30 1540 N 147.489 0.455073 2.87015 0
M  V30 1541 H 147.036 1.14879 2.30566 0
M  V30 1542 H 146.994 -0.375611 3.12148 0
M  V30 1543 N 150.766 -0.704594 1.40972 0
M  V30 1544 C 151.729 -1.80035 1.41845 0
M  V30 1545 C 152.729 -1.57774 0.310474 0
M  V30 1546 O 153.919 -1.64613 0.56992 0
M  V30 1547 C 151.051 -3.18284 1.22098 0
M  V30 1548 H 152.244 -1.80658 2.3938 0
M  V30 1549 H 149.797 -0.911329 1.26982 0
M  V30 1550 H 150.532 -3.23306 0.253672 0
M  V30 1551 H 150.317 -3.35843 2.02366 0
M  V30 1552 H 151.807 -3.98289 1.25522 0
M  V30 1553 N 152.244 -1.26651 -0.937939 0
M  V30 1554 C 153.492 -1.12165 -1.68118 0
M  V30 1555 C 153.813 0.334983 -1.92101 0
M  V30 1556 O 153.083 1.23583 -1.52 0
M  V30 1557 H 151.663 -0.412093 -0.623048 0
M  V30 1558 H 154.325 -1.59027 -1.12678 0
M  V30 1559 H 153.421 -1.64289 -2.6536 0
M  V30 1560 N 153.722 1.14298 -1.08507 0
M  V30 1561 C 155.133 1.66926 -0.836227 0
M  V30 1562 C 155.484 1.85576 0.63686 0
M  V30 1563 O 154.609 1.56767 1.49175 0
M  V30 1564 C 155.204 3.03219 -1.51142 0
M  V30 1565 C 153.763 3.52876 -1.30979 0
M  V30 1566 C 152.91 2.2833 -1.57356 0
M  V30 1567 H 155.861 0.983491 -1.24552 0
M  V30 1568 H 155.882 3.68726 -0.939211 0
M  V30 1569 H 155.394 2.89612 -2.58353 0
M  V30 1570 H 153.495 3.71703 -0.258429 0
M  V30 1571 H 153.608 4.33586 -2.03814 0
M  V30 1572 H 151.972 2.34454 -0.995164 0
M  V30 1573 H 152.755 2.17298 -2.65775 0
M  V30 1574 N 155.201 0.870884 1.31352 0
M  V30 1575 C 156.149 0.316445 2.30437 0
M  V30 1576 C 157.143 -0.568965 1.59559 0
M  V30 1577 O 158.349 -0.454964 1.74155 0
M  V30 1578 H 154.724 0.0836521 0.747333 0
M  V30 1579 H 156.695 1.16606 2.74673 0
M  V30 1580 C 155.444 -0.46635 3.44558 0
M  V30 1581 H 154.767 0.205687 3.99271 0
M  V30 1582 H 156.207 -0.819614 4.16003 0
M  V30 1583 C 154.666 -1.65797 2.9328 0
M  V30 1584 O 155.196 -2.75728 2.92125 0
M  V30 1585 N 153.402 -1.49041 2.4947 0
M  V30 1586 H 152.949 -0.59612 2.50608 0
M  V30 1587 H 152.907 -2.28911 2.15516 0
M  V30 1588 N 156.679 -1.44442 0.630414 0
M  V30 1589 C 157.907 -2.06414 0.141671 0
M  V30 1590 C 158.322 -1.47105 -1.18345 0
M  V30 1591 O 157.679 -0.593662 -1.72574 0
M  V30 1592 C 157.73 -3.61494 0.0199784 0
M  V30 1593 O 157.451 -4.18594 1.29269 0
M  V30 1594 C 158.952 -4.40499 -0.497544 0
M  V30 1595 H 156.172 -0.666292 0.0793452 0
M  V30 1596 H 158.716 -1.85323 0.864614 0
M  V30 1597 H 156.871 -3.8185 -0.653402 0
M  V30 1598 H 157.285 -5.12026 1.13707 0
M  V30 1599 H 158.759 -5.49433 -0.531708 0
M  V30 1600 H 159.236 -4.11895 -1.52445 0
M  V30 1601 H 159.842 -4.25061 0.142562 0
M  V30 1602 N 158.157 -0.370918 -1.53173 0
M  V30 1603 C 159.105 0.488101 -2.27421 0
M  V30 1604 C 160.099 1.07884 -1.30604 0
M  V30 1605 O 161.305 1.02143 -1.48212 0
M  V30 1606 H 157.68 0.176134 -0.731082 0
M  V30 1607 H 159.651 -0.159815 -2.97972 0
M  V30 1608 C 158.4 1.61306 -3.08019 0
M  V30 1609 H 157.723 1.1678 -3.82364 0
M  V30 1610 H 159.163 2.18872 -3.63141 0
M  V30 1611 C 157.622 2.55848 -2.19188 0
M  V30 1612 O 158.152 3.58799 -1.80626 0
M  V30 1613 N 156.358 2.2516 -1.83715 0
M  V30 1614 H 155.905 1.41476 -2.15273 0
M  V30 1615 H 155.863 2.8867 -1.24567 0
M  V30 1616 N 159.635 1.57281 -0.100228 0
M  V30 1617 C 160.883 1.94153 0.561157 0
M  V30 1618 C 161.204 0.983157 1.68401 0
M  V30 1619 O 160.474 0.0361132 1.95867 0
M  V30 1620 H 159.054 0.716791 0.210283 0
M  V30 1621 H 161.716 1.94202 -0.164765 0
M  V30 1622 H 160.812 2.96709 0.968008 0
M  V30 1623 N 161.113 -0.173488 1.56642 0
M  V30 1624 C 162.338 -0.910149 1.86363 0
M  V30 1625 C 162.763 -1.75132 0.686318 0
M  V30 1626 O 162.121 -1.77595 -0.364643 0
M  V30 1627 C 162.169 -1.76447 3.14482 0
M  V30 1628 O 161.273 -2.86584 2.96553 0
M  V30 1629 H 160.614 -0.255086 0.613047 0
M  V30 1630 H 163.144 -0.172283 2.03873 0
M  V30 1631 H 163.154 -2.16483 3.45831 0
M  V30 1632 H 161.829 -1.14658 3.99783 0
M  V30 1633 H 160.406 -2.50146 2.76553 0
M  V30 1634 N 162.591 -1.51276 -0.441967 0
M  V30 1635 C 163.523 -1.68444 -1.55433 0
M  V30 1636 C 164.536 -0.565187 -1.52674 0
M  V30 1637 O 165.725 -0.839356 -1.57534 0
M  V30 1638 C 162.825 -1.67966 -2.94348 0
M  V30 1639 C 161.998 -2.964 -3.21661 0
M  V30 1640 C 161.057 -2.88171 -4.40277 0
M  V30 1641 O 160.083 -3.62119 -4.39157 0
M  V30 1642 N 161.285 -2.03706 -5.43584 0
M  V30 1643 H 164.05 -2.644 -1.41112 0
M  V30 1644 H 161.611 -1.49104 -0.630838 0
M  V30 1645 H 163.603 -1.60035 -3.71713 0
M  V30 1646 H 162.173 -0.796225 -3.0229 0
M  V30 1647 H 161.393 -3.18234 -2.32638 0
M  V30 1648 H 162.681 -3.81427 -3.36736 0
M  V30 1649 H 162.079 -1.42995 -5.47329 0
M  V30 1650 H 160.636 -2.01658 -6.1982 0
M  V30 1651 N 164.069 0.697108 -1.41344 0
M  V30 1652 C 165.316 1.45714 -1.40619 0
M  V30 1653 C 165.644 1.94494 -0.0147907 0
M  V30 1654 O 164.899 1.69794 0.973066 0
M  V30 1655 C 165.198 2.68553 -2.35826 0
M  V30 1656 C 164.864 2.38438 -3.82698 0
M  V30 1657 C 163.526 2.29936 -4.22709 0
M  V30 1658 C 165.878 2.13567 -4.75435 0
M  V30 1659 C 163.206 1.94656 -5.53467 0
M  V30 1660 C 165.558 1.79797 -6.06511 0
M  V30 1661 C 164.222 1.69789 -6.45545 0
M  V30 1662 H 163.492 0.533206 -0.51456 0
M  V30 1663 H 166.139 0.796901 -1.74131 0
M  V30 1664 H 164.444 3.39503 -1.95563 0
M  V30 1665 H 166.141 3.2669 -2.32539 0
M  V30 1666 H 162.731 2.4595 -3.51008 0
M  V30 1667 H 166.915 2.19082 -4.45328 0
M  V30 1668 H 162.171 1.8546 -5.82593 0
M  V30 1669 H 166.345 1.59572 -6.77872 0
M  V30 1670 H 163.972 1.4222 -7.46778 0
M  V30 1671 N 165.547 1.27147 0.931209 0
M  V30 1672 C 166.794 1.13278 1.67852 0
M  V30 1673 C 167.122 -0.32204 1.91815 0
M  V30 1674 O 166.377 -1.25224 1.50391 0
M  V30 1675 C 166.676 1.8579 3.05314 0
M  V30 1676 C 166.342 3.35657 3.01073 0
M  V30 1677 C 165.004 3.76536 2.99623 0
M  V30 1678 C 167.356 4.31299 2.92627 0
M  V30 1679 C 164.684 5.11426 2.87506 0
M  V30 1680 C 167.036 5.66242 2.82051 0
M  V30 1681 C 165.7 6.06418 2.7895 0
M  V30 1682 H 164.97 0.414515 0.614214 0
M  V30 1683 H 167.617 1.57712 1.08624 0
M  V30 1684 H 165.922 1.33854 3.68226 0
M  V30 1685 H 167.619 1.72491 3.62005 0
M  V30 1686 H 164.209 3.03146 3.02986 0
M  V30 1687 H 168.393 4.00692 2.92848 0
M  V30 1688 H 163.649 5.41705 2.83489 0
M  V30 1689 H 167.823 6.40026 2.74481 0
M  V30 1690 H 165.45 7.10895 2.69318 0
M  V30 1691 N 167.025 -1.13721 1.09112 0
M  V30 1692 C 168.274 -1.84275 0.82009 0
M  V30 1693 C 168.587 -1.84253 -0.656509 0
M  V30 1694 O 169.793 -2.50668 -1.04296 0
M  V30 1695 C 168.249 -3.30825 1.41714 0
M  V30 1696 C 167.857 -3.39244 2.92605 0
M  V30 1697 C 169.601 -4.06443 1.22492 0
M  V30 1698 C 167.508 -4.80047 3.45411 0
M  V30 1699 H 166.438 -0.690387 0.30312 0
M  V30 1700 H 169.089 -1.28146 1.31343 0
M  V30 1701 H 167.471 -3.86737 0.851498 0
M  V30 1702 H 168.645 -2.93344 3.55367 0
M  V30 1703 H 166.96 -2.77088 3.10823 0
M  V30 1704 H 169.557 -5.10387 1.59402 0
M  V30 1705 H 169.9 -4.15972 0.165299 0
M  V30 1706 H 170.433 -3.56852 1.75788 0
M  V30 1707 H 167.172 -4.75709 4.50978 0
M  V30 1708 H 166.692 -5.26455 2.87411 0
M  V30 1709 H 168.371 -5.48957 3.42425 0
M  V30 1710 N 168.503 -0.877838 -1.30888 0
M  V30 1711 C 169.743 -0.499301 -1.98208 0
M  V30 1712 C 170.107 0.932649 -1.67826 0
M  V30 1713 O 171.308 1.41694 -2.28421 0
M  V30 1714 C 169.579 -0.758221 -3.49265 0
M  V30 1715 S 171.138 -0.480719 -4.36159 0
M  V30 1716 H 167.956 -0.186062 -0.686223 0
M  V30 1717 H 170.558 -1.13556 -1.59139 0
M  V30 1718 H 169.262 -1.79903 -3.68867 0
M  V30 1719 H 168.793 -0.109247 -3.93248 0
M  V30 1720 H 170.808 0.683698 -4.91467 0
M  V30 1721 N 169.982 1.44106 -0.638065 0
M  V30 1722 C 171.21 2.06336 -0.152615 0
M  V30 1723 C 171.625 1.47731 1.17563 0
M  V30 1724 O 170.982 0.602806 1.72257 0
M  V30 1725 C 171.033 3.61479 -0.0391491 0
M  V30 1726 O 170.754 4.17903 -1.31487 0
M  V30 1727 C 172.255 4.40757 0.474176 0
M  V30 1728 H 169.475 0.665862 -0.0828776 0
M  V30 1729 H 172.019 1.84862 -0.87443 0
M  V30 1730 H 170.174 3.82191 0.633142 0
M  V30 1731 H 170.588 5.11416 -1.16421 0
M  V30 1732 H 172.062 5.49707 0.502562 0
M  V30 1733 H 172.539 4.12697 1.50258 0
M  V30 1734 H 173.145 4.24979 -0.165102 0
M  V30 1735 N 171.46 0.379036 1.52974 0
M  V30 1736 C 172.423 -0.448865 2.24762 0
M  V30 1737 C 173.423 -0.998689 1.26027 0
M  V30 1738 O 174.613 -0.882313 1.50203 0
M  V30 1739 C 171.745 -1.62872 2.99476 0
M  V30 1740 H 172.938 0.179491 2.99362 0
M  V30 1741 H 170.491 0.13096 1.5575 0
M  V30 1742 H 171.226 -2.29479 2.29151 0
M  V30 1743 H 171.011 -1.24128 3.71934 0
M  V30 1744 H 172.501 -2.2151 3.5401 0
M  V30 1745 N 172.938 -1.57226 0.108567 0
M  V30 1746 C 173.885 -2.14756 -0.845481 0
M  V30 1747 C 174.855 -1.06971 -1.27068 0
M  V30 1748 O 176.04 -1.34827 -1.35005 0
M  V30 1749 C 173.18 -2.74298 -2.09415 0
M  V30 1750 C 172.293 -3.96358 -1.71826 0
M  V30 1751 C 171.428 -4.44021 -2.9158 0
M  V30 1752 C 170.467 -5.58637 -2.50181 0
M  V30 1753 N 169.604 -6.01091 -3.62814 0
M  V30 1754 H 174.444 -2.95961 -0.348035 0
M  V30 1755 H 171.981 -1.46226 -0.160106 0
M  V30 1756 H 173.939 -3.06945 -2.82561 0
M  V30 1757 H 172.569 -1.95801 -2.56636 0
M  V30 1758 H 171.621 -3.69939 -0.885947 0
M  V30 1759 H 172.933 -4.79504 -1.37394 0
M  V30 1760 H 172.087 -4.78522 -3.72963 0
M  V30 1761 H 170.826 -3.59803 -3.29231 0
M  V30 1762 H 169.831 -5.23751 -1.67228 0
M  V30 1763 H 171.056 -6.44613 -2.13659 0
M  V30 1764 H 169.002 -5.19817 -4.00158 0
M  V30 1765 H 168.919 -6.79066 -3.32273 0
M  V30 1766 H 170.187 -6.40227 -4.44668 0
M  V30 1767 N 174.416 0.165178 -1.56732 0
M  V30 1768 C 175.644 0.896218 -1.86482 0
M  V30 1769 C 176.059 1.75555 -0.694675 0
M  V30 1770 O 175.416 1.79379 0.33607 0
M  V30 1771 C 175.467 1.76792 -3.1532 0
M  V30 1772 O 175.188 0.943239 -4.27825 0
M  V30 1773 C 176.689 2.6081 -3.58459 0
M  V30 1774 H 173.909 0.260064 -0.618553 0
M  V30 1775 H 176.453 0.163428 -2.03846 0
M  V30 1776 H 174.608 2.45398 -2.99764 0
M  V30 1777 H 175.022 1.53998 -5.01383 0
M  V30 1778 H 176.496 3.17579 -4.51495 0
M  V30 1779 H 176.973 3.35977 -2.82872 0
M  V30 1780 H 177.579 1.97526 -3.76648 0
M  V30 1781 N 175.894 1.51508 0.433938 0
M  V30 1782 C 176.804 1.75917 1.5521 0
M  V30 1783 C 177.82 0.643545 1.61662 0
M  V30 1784 O 178.996 0.926183 1.7884 0
M  V30 1785 C 176.061 1.88213 2.91164 0
M  V30 1786 C 175.122 3.12074 2.94802 0
M  V30 1787 C 174.355 3.23774 4.24271 0
M  V30 1788 O 174.578 2.4133 5.16833 0
M  V30 1789 O 173.512 4.16774 4.34262 0
M  V30 1790 H 177.338 2.70777 1.37527 0
M  V30 1791 H 174.923 1.36051 0.617293 0
M  V30 1792 H 176.805 1.98267 3.71845 0
M  V30 1793 H 175.48 0.965413 3.08968 0
M  V30 1794 H 174.387 3.07497 2.13065 0
M  V30 1795 H 175.72 4.03446 2.81943 0
M  V30 1796 N 177.372 -0.689602 1.41712 0
M  V30 1797 C 178.618 -1.45041 1.42599 0
M  V30 1798 C 178.973 -1.92366 0.0363764 0
M  V30 1799 O 178.266 -1.67022 -0.938844 0
M  V30 1800 C 178.46 -2.67298 2.37247 0
M  V30 1801 C 178.289 -2.31935 3.85274 0
M  V30 1802 C 177.059 -2.2201 4.53916 0
M  V30 1803 C 179.257 -1.94526 4.76093 0
M  V30 1804 N 177.239 -1.79594 5.87043 0
M  V30 1805 C 178.61 -1.62915 5.98213 0
M  V30 1806 C 180.665 -1.81388 4.63684 0
M  V30 1807 C 179.368 -1.19486 7.09306 0
M  V30 1808 C 181.394 -1.39364 5.74745 0
M  V30 1809 C 180.756 -1.08668 6.95967 0
M  V30 1810 H 176.855 -0.527806 0.577014 0
M  V30 1811 H 179.439 -0.797266 1.77628 0
M  V30 1812 H 177.61 -3.30325 2.04304 0
M  V30 1813 H 179.342 -3.33806 2.28814 0
M  V30 1814 H 176.097 -2.406 4.07932 0
M  V30 1815 H 176.521 -1.60851 6.57614 0
M  V30 1816 H 181.163 -2.03772 3.70455 0
M  V30 1817 H 178.881 -0.958477 8.02396 0
M  V30 1818 H 182.467 -1.2974 5.6715 0
M  V30 1819 H 181.347 -0.766417 7.80446 0
M  V30 1820 N 178.85 -1.27639 -0.924453 0
M  V30 1821 C 179.78 -1.13166 -2.04244 0
M  V30 1822 C 180.761 -0.032256 -1.70069 0
M  V30 1823 O 181.946 -0.207328 -1.9309 0
M  V30 1824 C 179.076 -0.781496 -3.38393 0
M  V30 1825 C 178.03 -1.83449 -3.86692 0
M  V30 1826 C 177.356 -1.33822 -5.17683 0
M  V30 1827 C 178.656 -3.23917 -4.09726 0
M  V30 1828 H 180.35 -2.06689 -2.1661 0
M  V30 1829 H 177.896 -0.995136 -1.04082 0
M  V30 1830 H 179.849 -0.667057 -4.16087 0
M  V30 1831 H 178.573 0.189439 -3.2605 0
M  V30 1832 H 177.232 -1.93789 -3.11193 0
M  V30 1833 H 176.88 -0.35665 -5.01734 0
M  V30 1834 H 176.58 -2.04224 -5.50968 0
M  V30 1835 H 178.104 -1.23679 -5.97943 0
M  V30 1836 H 179.518 -3.16559 -4.77978 0
M  V30 1837 H 177.915 -3.92059 -4.54324 0
M  V30 1838 H 178.985 -3.68729 -3.14908 0
M  V30 1839 N 180.328 1.1314 -1.09713 0
M  V30 1840 C 181.605 1.80762 -0.747302 0
M  V30 1841 C 181.985 1.96663 0.767265 0
M  V30 1842 O 181.333 1.53706 1.69076 0
M  V30 1843 C 181.543 3.15606 -1.48975 0
M  V30 1844 C 182.891 3.90914 -1.65746 0
M  V30 1845 O 183.915 3.25239 -1.45251 0
M  V30 1846 O 182.774 5.08718 -1.9967 0
M  V30 1847 H 179.868 0.782103 -0.268782 0
M  V30 1848 H 182.414 1.20041 -1.19951 0
M  V30 1849 H 181.186 2.99278 -2.52088 0
M  V30 1850 H 180.809 3.84029 -1.02991 0
M  V30 1851 N 181.806 0.884767 1.30421 0
M  V30 1852 C 183.054 0.502112 1.95763 0
M  V30 1853 C 183.375 -0.951815 1.70192 0
M  V30 1854 O 182.645 -1.6692 1.0254 0
M  V30 1855 H 181.225 0.182694 0.724315 0
M  V30 1856 H 183.887 1.1278 1.58955 0
M  V30 1857 H 182.983 0.672188 3.04775 0
M  V30 1858 N 183.284 -1.43765 0.645699 0
M  V30 1859 C 184.231 -2.30745 -0.0504648 0
M  V30 1860 C 185.201 -1.4432 -0.822241 0
M  V30 1861 O 186.386 -1.73202 -0.800358 0
M  V30 1862 C 183.526 -3.29802 -1.0161 0
M  V30 1863 C 182.639 -4.31326 -0.241219 0
M  V30 1864 C 181.774 -5.17469 -1.19998 0
M  V30 1865 C 180.813 -6.10691 -0.415094 0
M  V30 1866 N 179.95 -6.89483 -1.32506 0
M  V30 1867 H 184.79 -2.8973 0.697155 0
M  V30 1868 H 182.327 -1.42738 0.355563 0
M  V30 1869 H 184.285 -3.85734 -1.58949 0
M  V30 1870 H 182.915 -2.72483 -1.73069 0
M  V30 1871 H 181.967 -3.77749 0.448334 0
M  V30 1872 H 183.279 -4.9743 0.369437 0
M  V30 1873 H 182.433 -5.7799 -1.84424 0
M  V30 1874 H 181.172 -4.51473 -1.84455 0
M  V30 1875 H 180.177 -5.49265 0.242565 0
M  V30 1876 H 181.402 -6.78727 0.224966 0
M  V30 1877 H 179.348 -6.26142 -1.95657 0
M  V30 1878 H 179.265 -7.52081 -0.768783 0
M  V30 1879 H 180.533 -7.54516 -1.9577 0
M  V30 1880 N 184.763 -0.387143 -1.52771 0
M  V30 1881 C 185.713 0.465942 -2.23188 0
M  V30 1882 C 186.697 1.03138 -1.23496 0
M  V30 1883 O 187.889 0.957845 -1.48843 0
M  V30 1884 C 185.018 1.59384 -3.04059 0
M  V30 1885 C 184.104 1.04024 -4.11144 0
M  V30 1886 N 184.495 0.211416 -5.05358 0
M  V30 1887 C 182.793 1.31295 -4.26237 0
M  V30 1888 C 183.494 -0.0941698 -5.81624 0
M  V30 1889 N 182.47 0.509207 -5.4121 0
M  V30 1890 H 186.272 -0.173856 -2.93385 0
M  V30 1891 H 183.786 -0.19633 -1.61209 0
M  V30 1892 H 185.783 2.21738 -3.53041 0
M  V30 1893 H 184.443 2.23648 -2.35397 0
M  V30 1894 H 185.454 -0.151151 -5.17679 0
M  V30 1895 H 182.131 1.95679 -3.68803 0
M  V30 1896 H 183.521 -0.765572 -6.67524 0
M  V30 1897 N 186.241 1.57166 -0.116904 0
M  V30 1898 C 187.487 1.95412 0.542405 0
M  V30 1899 C 187.82 1.00019 1.66463 0
M  V30 1900 O 187.095 0.0370346 1.94465 0
M  V30 1901 C 187.378 3.43615 1.07708 0
M  V30 1902 C 187.231 4.49781 -0.0415868 0
M  V30 1903 C 188.55 3.93616 1.96861 0
M  V30 1904 H 185.669 0.710543 0.195696 0
M  V30 1905 H 188.311 1.89027 -0.192038 0
M  V30 1906 H 186.461 3.49187 1.70296 0
M  V30 1907 H 188.133 4.56308 -0.676793 0
M  V30 1908 H 186.376 4.28033 -0.705019 0
M  V30 1909 H 187.047 5.50733 0.373717 0
M  V30 1910 H 189.523 3.90335 1.44146 0
M  V30 1911 H 188.399 4.97838 2.3119 0
M  V30 1912 H 188.66 3.34188 2.89432 0
M  V30 1913 N 187.719 -0.156864 1.56817 0
M  V30 1914 C 188.965 -0.872416 1.83076 0
M  V30 1915 C 189.298 -1.81261 0.697001 0
M  V30 1916 O 188.573 -1.92171 -0.30008 0
M  V30 1917 C 188.856 -1.65551 3.19789 0
M  V30 1918 C 188.709 -0.737467 4.43713 0
M  V30 1919 C 190.028 -2.62012 3.53606 0
M  V30 1920 H 187.147 -0.315715 0.665953 0
M  V30 1921 H 189.789 -0.138004 1.89498 0
M  V30 1922 H 187.939 -2.28159 3.14445 0
M  V30 1923 H 189.611 -0.123143 4.61136 0
M  V30 1924 H 187.854 -0.0464067 4.33775 0
M  V30 1925 H 188.525 -1.32122 5.35955 0
M  V30 1926 H 191.001 -2.09525 3.59497 0
M  V30 1927 H 189.877 -3.13861 4.50314 0
M  V30 1928 H 190.138 -3.42902 2.79053 0
M  V30 1929 N 189.197 -1.51736 -0.425897 0
M  V30 1930 C 190.444 -1.6497 -1.17436 0
M  V30 1931 C 190.772 -0.371445 -1.9092 0
M  V30 1932 O 190.027 0.644963 -1.84767 0
M  V30 1933 C 190.326 -2.81103 -2.20717 0
M  V30 1934 C 189.992 -4.19954 -1.64162 0
M  V30 1935 C 188.654 -4.57725 -1.48462 0
M  V30 1936 C 191.006 -5.06552 -1.22696 0
M  V30 1937 C 188.334 -5.79789 -0.897873 0
M  V30 1938 C 190.686 -6.29205 -0.654464 0
M  V30 1939 C 189.35 -6.6574 -0.484456 0
M  V30 1940 H 188.62 -0.603668 -0.429727 0
M  V30 1941 H 191.267 -1.85798 -0.463829 0
M  V30 1942 H 189.572 -2.54542 -2.97852 0
M  V30 1943 H 191.269 -2.8854 -2.78471 0
M  V30 1944 H 187.859 -3.90181 -1.77361 0
M  V30 1945 H 192.043 -4.77968 -1.33642 0
M  V30 1946 H 187.299 -6.06733 -0.75402 0
M  V30 1947 H 191.473 -6.95643 -0.324694 0
M  V30 1948 H 189.1 -7.60195 -0.0276833 0
M  V30 1949 N 190.675 0.682077 -1.42076 0
M  V30 1950 C 191.923 1.4393 -1.41876 0
M  V30 1951 C 192.244 1.94971 -0.0335599 0
M  V30 1952 O 191.514 1.72591 0.926773 0
M  V30 1953 H 190.094 0.534085 -0.522267 0
M  V30 1954 H 192.756 0.806427 -1.77434 0
M  V30 1955 H 191.852 2.29588 -2.11414 0
M  V30 1956 N 192.153 1.28127 0.917671 0
M  V30 1957 C 193.1 1.11717 2.0196 0
M  V30 1958 C 194.07 0.0153929 1.66093 0
M  V30 1959 O 195.255 0.179596 1.89953 0
M  V30 1960 C 192.395 0.780927 3.36148 0
M  V30 1961 C 191.508 1.96135 3.84909 0
M  V30 1962 C 190.643 1.56609 5.0759 0
M  V30 1963 C 189.682 2.71339 5.48673 0
M  V30 1964 N 188.819 2.32332 6.62545 0
M  V30 1965 H 193.659 2.06003 2.15329 0
M  V30 1966 H 191.196 1.02535 1.05475 0
M  V30 1967 H 193.154 0.56675 4.13333 0
M  V30 1968 H 191.784 -0.124998 3.22558 0
M  V30 1969 H 190.836 2.28777 3.03916 0
M  V30 1970 H 192.148 2.82165 4.1132 0
M  V30 1971 H 191.302 1.31374 5.92305 0
M  V30 1972 H 190.041 0.677014 4.82978 0
M  V30 1973 H 189.046 2.97276 4.62501 0
M  V30 1974 H 190.271 3.60882 5.75274 0
M  V30 1975 H 188.217 1.45889 6.39572 0
M  V30 1976 H 188.134 3.11899 6.88662 0
M  V30 1977 H 189.402 2.10371 7.50576 0
M  V30 1978 N 193.631 -1.12557 1.10312 0
M  V30 1979 C 194.877 -1.84311 0.846011 0
M  V30 1980 C 195.21 -1.83805 -0.626859 0
M  V30 1981 O 194.485 -1.28268 -1.46211 0
M  V30 1982 C 194.768 -3.32048 1.39341 0
M  V30 1983 C 194.621 -3.41016 2.93305 0
M  V30 1984 C 195.94 -4.27764 1.03468 0
M  V30 1985 H 193.059 -0.669192 0.30879 0
M  V30 1986 H 195.701 -1.32057 1.36605 0
M  V30 1987 H 193.851 -3.76678 0.951087 0
M  V30 1988 H 195.523 -3.05031 3.46055 0
M  V30 1989 H 193.766 -2.81603 3.29973 0
M  V30 1990 H 194.437 -4.44948 3.26689 0
M  V30 1991 H 196.913 -3.91253 1.41633 0
M  V30 1992 H 195.789 -5.29549 1.44463 0
M  V30 1993 H 196.05 -4.42064 -0.0560404 0
M  V30 1994 N 195.109 -0.891671 -1.2995 0
M  V30 1995 C 196.056 -0.361736 -2.27948 0
M  V30 1996 C 197.026 0.551761 -1.56668 0
M  V30 1997 O 198.211 0.478736 -1.84696 0
M  V30 1998 C 195.351 0.411825 -3.42634 0
M  V30 1999 C 194.464 -0.531651 -4.28716 0
M  V30 2000 C 193.599 0.258167 -5.30572 0
M  V30 2001 C 192.638 -0.680349 -6.08307 0
M  V30 2002 N 191.775 0.0745613 -7.0206 0
M  V30 2003 H 196.615 -1.20254 -2.72659 0
M  V30 2004 H 194.152 -0.604352 -1.34112 0
M  V30 2005 H 196.11 0.876304 -4.07893 0
M  V30 2006 H 194.74 1.21715 -2.98974 0
M  V30 2007 H 193.792 -1.11463 -3.63703 0
M  V30 2008 H 195.104 -1.25038 -4.82874 0
M  V30 2009 H 194.258 0.784204 -6.0161 0
M  V30 2010 H 192.997 1.01008 -4.77126 0
M  V30 2011 H 192.002 -1.21796 -5.3614 0
M  V30 2012 H 193.227 -1.43145 -6.63842 0
M  V30 2013 H 191.173 0.808883 -6.50994 0
M  V30 2014 H 191.09 -0.584409 -7.53738 0
M  V30 2015 H 192.358 0.581123 -7.77331 0
M  V30 2016 N 196.587 1.43421 -0.653314 0
M  V30 2017 C 197.497 2.34568 0.0388565 0
M  V30 2018 C 198.513 1.53888 0.81207 0
M  V30 2019 O 199.689 1.86539 0.759294 0
M  V30 2020 C 196.754 3.32167 0.993269 0
M  V30 2021 C 195.815 4.28751 0.216977 0
M  V30 2022 C 195.048 5.21688 1.12593 0
M  V30 2023 O 195.271 5.19052 2.36519 0
M  V30 2024 O 194.205 5.98919 0.598284 0
M  V30 2025 H 198.031 2.95251 -0.711386 0
M  V30 2026 H 195.616 1.43564 -0.413502 0
M  V30 2027 H 197.498 3.92183 1.54176 0
M  V30 2028 H 196.173 2.73987 1.72374 0
M  V30 2029 H 195.08 3.72215 -0.375101 0
M  V30 2030 H 196.413 4.89913 -0.473924 0
M  V30 2031 N 198.065 0.39524 1.52563 0
M  V30 2032 C 199.313 -0.184678 2.01254 0
M  V30 2033 C 199.634 -1.46822 1.28329 0
M  V30 2034 O 198.904 -1.91666 0.405094 0
M  V30 2035 H 197.484 -0.0712355 0.743596 0
M  V30 2036 H 200.146 0.528293 1.87603 0
M  V30 2037 H 199.242 -0.390681 3.09645 0
M  V30 2038 N 199.544 -1.57102 0.125237 0
M  V30 2039 C 200.477 -2.11371 -0.860094 0
M  V30 2040 C 201.455 -1.03168 -1.25679 0
M  V30 2041 O 202.639 -1.30862 -1.35674 0
M  V30 2042 C 199.766 -2.61555 -2.1519 0
M  V30 2043 C 198.812 -3.81701 -1.9028 0
M  V30 2044 S 199.645 -5.23797 -1.11343 0
M  V30 2045 C 200.801 -5.77353 -2.41689 0
M  V30 2046 H 201.034 -2.94617 -0.39852 0
M  V30 2047 H 198.567 -1.54145 -0.0886555 0
M  V30 2048 H 200.525 -2.91122 -2.89411 0
M  V30 2049 H 199.186 -1.78479 -2.58465 0
M  V30 2050 H 198.379 -4.14985 -2.86014 0
M  V30 2051 H 197.981 -3.52783 -1.24178 0
M  V30 2052 H 200.273 -5.87458 -3.37489 0
M  V30 2053 H 201.216 -6.75323 -2.12942 0
M  V30 2054 H 201.624 -5.05457 -2.51342 0
M  V30 2055 N 201.022 0.148545 -1.56898 0
M  V30 2056 C 201.97 1.20265 -1.99096 0
M  V30 2057 C 202.964 1.44559 -0.883123 0
M  V30 2058 O 204.17 1.4487 -1.0683 0
M  V30 2059 H 200.545 0.404786 -0.63376 0
M  V30 2060 H 202.516 0.82004 -2.86911 0
M  V30 2061 C 201.265 2.52886 -2.3863 0
M  V30 2062 H 200.588 2.35021 -3.23427 0
M  V30 2063 H 202.028 3.25274 -2.7198 0
M  V30 2064 C 200.487 3.13315 -1.23837 0
M  V30 2065 O 201.017 3.98077 -0.538268 0
M  V30 2066 N 199.223 2.72742 -1.00301 0
M  V30 2067 H 198.77 2.03912 -1.5741 0
M  V30 2068 H 198.728 3.13507 -0.236838 0
M  V30 2069 N 202.5 1.5196 0.417844 0
M  V30 2070 C 203.749 1.6482 1.16264 0
M  V30 2071 C 204.062 0.379886 1.91876 0
M  V30 2072 O 205.268 0.388154 2.68711 0
M  V30 2073 C 203.724 2.91161 2.1155 0
M  V30 2074 C 203.332 4.25068 1.41495 0
M  V30 2075 C 205.076 3.13383 2.86341 0
M  V30 2076 C 202.983 5.42541 2.35379 0
M  V30 2077 H 201.913 0.613954 0.437694 0
M  V30 2078 H 204.564 1.78442 0.427871 0
M  V30 2079 H 202.946 2.71218 2.88543 0
M  V30 2080 H 204.12 4.55463 0.699263 0
M  V30 2081 H 202.435 4.0888 0.787792 0
M  V30 2082 H 205.032 3.98324 3.5671 0
M  V30 2083 H 205.375 2.27256 3.48798 0
M  V30 2084 H 205.908 3.33757 2.1645 0
M  V30 2085 H 202.647 6.30987 1.77582 0
M  V30 2086 H 202.167 5.16497 3.04945 0
M  V30 2087 H 203.846 5.75272 2.96093 0
M  V30 2088 N 203.978 -0.674533 1.42435 0
M  V30 2089 C 205.224 -1.43671 1.43131 0
M  V30 2090 C 205.557 -1.94142 0.0476021 0
M  V30 2091 O 204.832 -1.70924 -0.928188 0
M  V30 2092 C 205.115 -2.63355 2.45594 0
M  V30 2093 C 204.968 -2.18514 3.93156 0
M  V30 2094 C 206.287 -3.65571 2.45043 0
M  V30 2095 H 203.406 -0.521077 0.521198 0
M  V30 2096 H 206.048 -0.766551 1.7385 0
M  V30 2097 H 204.198 -3.2053 2.19528 0
M  V30 2098 H 205.87 -1.66504 4.30202 0
M  V30 2099 H 204.113 -1.50086 4.07009 0
M  V30 2100 H 204.784 -3.04484 4.60428 0
M  V30 2101 H 207.26 -3.18113 2.68223 0
M  V30 2102 H 206.136 -4.46893 3.18713 0
M  V30 2103 H 206.397 -4.16716 1.47649 0
M  V30 2104 N 205.456 -1.28612 -0.910864 0
M  V30 2105 C 206.366 -1.14643 -2.0468 0
M  V30 2106 C 207.382 -0.0723121 -1.7385 0
M  V30 2107 O 208.558 -0.282178 -1.99413 0
M  V30 2108 C 205.623 -0.812561 -3.37044 0
M  V30 2109 C 204.684 -1.96935 -3.81465 0
M  V30 2110 C 203.917 -1.65131 -5.07511 0
M  V30 2111 O 204.14 -0.567013 -5.67575 0
M  V30 2112 O 203.074 -2.49585 -5.47714 0
M  V30 2113 H 206.9 -2.1001 -2.19384 0
M  V30 2114 H 204.485 -1.07958 -1.03274 0
M  V30 2115 H 206.367 -0.640441 -4.16505 0
M  V30 2116 H 205.042 0.111426 -3.23508 0
M  V30 2117 H 203.949 -2.19664 -3.02818 0
M  V30 2118 H 205.282 -2.87414 -3.99567 0
M  V30 2119 N 206.934 1.1197 -1.10907 0
M  V30 2120 C 207.897 2.16031 -0.765707 0
M  V30 2121 C 208.897 1.59393 0.212235 0
M  V30 2122 O 210.087 1.74196 -0.0115441 0
M  V30 2123 C 207.219 3.40632 -0.135053 0
M  V30 2124 H 208.412 2.47919 -1.68748 0
M  V30 2125 H 205.965 1.27061 -0.910226 0
M  V30 2126 H 206.7 3.14348 0.797218 0
M  V30 2127 H 206.485 3.8302 -0.838937 0
M  V30 2128 H 207.975 4.17505 0.0892469 0
M  V30 2129 N 208.412 0.89855 1.29475 0
M  V30 2130 C 209.345 0.319981 2.25945 0
M  V30 2131 C 210.323 -0.567189 1.52387 0
M  V30 2132 O 211.507 -0.514254 1.8135 0
M  V30 2133 C 208.634 -0.544013 3.34303 0
M  V30 2134 C 207.68 0.275682 4.25608 0
M  V30 2135 S 208.513 1.67272 5.08704 0
M  V30 2136 C 209.669 0.815621 6.20563 0
M  V30 2137 H 209.902 1.13767 2.74671 0
M  V30 2138 H 207.435 0.69882 1.3768 0
M  V30 2139 H 209.393 -1.03673 3.97193 0
M  V30 2140 H 208.054 -1.33593 2.84274 0
M  V30 2141 H 207.247 -0.384263 5.02533 0
M  V30 2142 H 206.849 0.701496 3.67362 0
M  V30 2143 H 209.141 0.0385042 6.77489 0
M  V30 2144 H 210.084 1.55691 6.90772 0
M  V30 2145 H 210.492 0.370516 5.63283 0
M  V30 2146 N 209.89 -1.43072 0.660911 0
M  V30 2147 C 210.8 -2.34585 -0.0264163 0
M  V30 2148 C 211.816 -1.54316 -0.803898 0
M  V30 2149 O 212.992 -1.86939 -0.749391 0
M  V30 2150 C 210.057 -3.32689 -0.975639 0
M  V30 2151 C 209.118 -4.2886 -0.194236 0
M  V30 2152 C 208.351 -5.22278 -1.09825 0
M  V30 2153 O 208.574 -5.20299 -2.33763 0
M  V30 2154 O 207.508 -5.99228 -0.566513 0
M  V30 2155 H 211.334 -2.94869 0.727034 0
M  V30 2156 H 208.919 -1.43342 0.42111 0
M  V30 2157 H 210.801 -3.92995 -1.52094 0
M  V30 2158 H 209.476 -2.74898 -1.70918 0
M  V30 2159 H 208.383 -3.72011 0.394835 0
M  V30 2160 H 209.716 -4.89655 0.499899 0
M  V30 2161 N 211.368 -0.403325 -1.52352 0
M  V30 2162 C 212.784 -0.0539281 -1.59509 0
M  V30 2163 C 212.984 1.43307 -1.41652 0
M  V30 2164 O 212.04 2.19924 -1.24056 0
M  V30 2165 C 213.353 -0.543654 -2.95745 0
M  V30 2166 C 214.901 -0.501125 -3.08962 0
M  V30 2167 C 215.376 -0.967267 -4.47669 0
M  V30 2168 N 216.867 -0.923849 -4.53893 0
M  V30 2169 C 217.602 -1.25578 -5.5948 0
M  V30 2170 N 217.098 -1.65889 -6.72646 0
M  V30 2171 N 218.891 -1.17613 -5.49658 0
M  V30 2172 H 211.042 -1.37123 -1.62206 0
M  V30 2173 H 213.305 -0.56294 -0.76276 0
M  V30 2174 H 213.011 -1.58275 -3.14073 0
M  V30 2175 H 212.885 0.0498042 -3.77167 0
M  V30 2176 H 215.272 0.528909 -2.90321 0
M  V30 2177 H 215.353 -1.13056 -2.2946 0
M  V30 2178 H 214.997 -1.9956 -4.67053 0
M  V30 2179 H 214.927 -0.314698 -5.25659 0
M  V30 2180 H 217.418 -0.627403 -3.72655 0
M  V30 2181 H 217.731 -1.89543 -7.49195 0
M  V30 2182 H 216.076 -1.69787 -6.73942 0
M  V30 2183 H 219.267 -0.860115 -4.6013 0
M  V30 2184 H 219.44 -1.43812 -6.3184 0
M  V30 2185 N 212.846 1.57033 -0.133567 0
M  V30 2186 C 214.093 1.95686 0.520877 0
M  V30 2187 C 214.421 1.0177 1.6575 0
M  V30 2188 O 213.676 0.0443195 1.9565 0
M  V30 2189 C 213.975 3.40674 1.08057 0
M  V30 2190 C 213.641 4.50855 0.0637899 0
M  V30 2191 C 212.303 4.80716 -0.215757 0
M  V30 2192 C 214.655 5.17398 -0.62835 0
M  V30 2193 C 211.983 5.74433 -1.19348 0
M  V30 2194 C 214.335 6.12167 -1.5948 0
M  V30 2195 C 212.999 6.40414 -1.88218 0
M  V30 2196 H 212.269 0.716067 0.190602 0
M  V30 2197 H 214.916 1.9026 -0.217556 0
M  V30 2198 H 213.221 3.42865 1.89606 0
M  V30 2199 H 214.918 3.67902 1.59529 0
M  V30 2200 H 211.508 4.27605 0.291855 0
M  V30 2201 H 215.692 4.94472 -0.425562 0
M  V30 2202 H 210.948 5.94616 -1.42272 0
M  V30 2203 H 215.122 6.6281 -2.13671 0
M  V30 2204 H 212.749 7.12838 -2.64133 0
M  V30 2205 N 214.325 -0.140222 1.56975 0
M  V30 2206 C 215.573 -0.850005 1.83356 0
M  V30 2207 C 215.894 -1.81399 0.71551 0
M  V30 2208 O 215.164 -1.94136 -0.262294 0
M  V30 2209 H 213.744 -0.316886 0.676456 0
M  V30 2210 H 216.406 -0.132608 1.94448 0
M  V30 2211 H 215.502 -1.40814 2.78528 0
M  V30 2212 N 215.803 -1.52179 -0.40978 0
M  V30 2213 C 217.028 -1.70347 -1.18308 0
M  V30 2214 C 217.453 -0.411887 -1.83535 0
M  V30 2215 O 216.811 0.630587 -1.6998 0
M  V30 2216 C 216.859 -2.83977 -2.22238 0
M  V30 2217 O 215.963 -2.495 -3.28365 0
M  V30 2218 H 215.304 -0.567103 -0.345384 0
M  V30 2219 H 217.834 -1.98879 -0.480445 0
M  V30 2220 H 217.844 -3.0887 -2.66577 0
M  V30 2221 H 216.519 -3.77685 -1.74146 0
M  V30 2222 H 215.096 -2.35277 -2.89308 0
M  V30 2223 N 217.281 0.66697 -1.42791 0
M  V30 2224 C 218.697 0.981027 -1.25889 0
M  V30 2225 C 218.897 2.00793 -0.168695 0
M  V30 2226 O 217.953 2.48321 0.45747 0
M  V30 2227 C 219.266 1.47838 -2.61848 0
M  V30 2228 C 220.814 1.59575 -2.69267 0
M  V30 2229 C 221.289 2.12704 -4.05612 0
M  V30 2230 N 222.78 2.20026 -4.07606 0
M  V30 2231 C 223.515 2.62227 -5.09926 0
M  V30 2232 N 223.011 3.03824 -6.22626 0
M  V30 2233 N 224.804 2.62045 -4.97281 0
M  V30 2234 H 216.955 -0.0127891 -2.12396 0
M  V30 2235 H 219.218 0.0568258 -0.946295 0
M  V30 2236 H 218.924 0.798299 -3.4252 0
M  V30 2237 H 218.798 2.45579 -2.86305 0
M  V30 2238 H 221.185 2.26687 -1.88936 0
M  V30 2239 H 221.266 0.60302 -2.48591 0
M  V30 2240 H 220.91 1.46198 -4.86404 0
M  V30 2241 H 220.84 3.12782 -4.23645 0
M  V30 2242 H 223.331 1.90708 -3.2625 0
M  V30 2243 H 223.644 3.34734 -6.96544 0
M  V30 2244 H 221.989 3.01662 -6.26119 0
M  V30 2245 H 225.18 2.28916 -4.08308 0
M  V30 2246 H 225.353 2.94613 -5.77154 0
M  V30 2247 N 218.759 1.29093 0.90403 0
M  V30 2248 C 219.707 1.13727 2.02901 0
M  V30 2249 C 220.701 0.0539853 1.69314 0
M  V30 2250 O 221.907 0.213469 1.7873 0
M  V30 2251 H 218.282 0.35117 0.664969 0
M  V30 2252 H 220.253 2.08982 2.13001 0
M  V30 2253 C 219.002 0.826066 3.37745 0
M  V30 2254 H 218.325 1.65164 3.64089 0
M  V30 2255 H 219.765 0.758559 4.17159 0
M  V30 2256 C 218.224 -0.470541 3.33598 0
M  V30 2257 O 218.754 -1.49792 3.72727 0
M  V30 2258 N 216.96 -0.474812 2.86695 0
M  V30 2259 H 216.507 0.361692 2.55048 0
M  V30 2260 H 216.465 -1.34236 2.84303 0
M  V30 2261 N 220.237 -1.11381 1.11499 0
M  V30 2262 C 221.485 -1.8277 0.862524 0
M  V30 2263 C 221.806 -1.85097 -0.613534 0
M  V30 2264 O 221.076 -1.32198 -1.4457 0
M  V30 2265 H 219.656 -0.676823 0.316101 0
M  V30 2266 H 222.318 -1.34816 1.4075 0
M  V30 2267 H 221.414 -2.86614 1.23527 0
M  V30 2268 N 221.715 -0.905404 -1.28997 0
M  V30 2269 C 222.662 -0.385892 -2.27551 0
M  V30 2270 C 223.632 0.535113 -1.57244 0
M  V30 2271 O 224.817 0.459119 -1.85194 0
M  V30 2272 C 221.957 0.375461 -3.43051 0
M  V30 2273 C 221.07 -0.577092 -4.28128 0
M  V30 2274 C 220.205 0.201879 -5.30816 0
M  V30 2275 C 219.244 -0.744829 -6.07551 0
M  V30 2276 N 218.381 9.42587e-05 -7.021 0
M  V30 2277 H 223.221 -1.23139 -2.71368 0
M  V30 2278 H 220.758 -0.618542 -1.33463 0
M  V30 2279 H 222.716 0.832992 -4.088 0
M  V30 2280 H 221.346 1.18537 -3.00248 0
M  V30 2281 H 220.398 -1.15315 -3.62501 0
M  V30 2282 H 221.71 -1.30152 -4.8152 0
M  V30 2283 H 220.864 0.720351 -6.02408 0
M  V30 2284 H 219.603 0.959413 -4.7817 0
M  V30 2285 H 218.608 -1.27475 -5.34818 0
M  V30 2286 H 219.833 -1.50178 -6.62286 0
M  V30 2287 H 217.779 0.739791 -6.51815 0
M  V30 2288 H 217.696 -0.664321 -7.53076 0
M  V30 2289 H 218.964 0.498644 -7.77903 0
M  V30 2290 N 223.193 1.4272 -0.668489 0
M  V30 2291 C 224.421 2.05966 -0.196348 0
M  V30 2292 C 224.836 1.50191 1.14403 0
M  V30 2293 O 224.193 0.639208 1.7094 0
M  V30 2294 C 224.244 3.61314 -0.115815 0
M  V30 2295 O 223.965 4.1502 -1.40322 0
M  V30 2296 C 225.466 4.41663 0.380579 0
M  V30 2297 H 222.686 0.663954 -0.0969829 0
M  V30 2298 H 225.23 1.82966 -0.913446 0
M  V30 2299 H 223.385 3.83448 0.551931 0
M  V30 2300 H 223.799 5.08832 -1.27243 0
M  V30 2301 H 225.273 5.5065 0.385848 0
M  V30 2302 H 225.75 4.15792 1.41471 0
M  V30 2303 H 226.356 4.24534 -0.255209 0
M  V30 2304 N 224.671 0.411399 1.52136 0
M  V30 2305 C 225.896 -0.165538 2.06738 0
M  V30 2306 C 226.321 -1.379 1.27926 0
M  V30 2307 O 225.679 -1.78628 0.310114 0
M  V30 2308 C 225.727 -0.492124 3.57226 0
M  V30 2309 O 224.831 -1.58276 3.80818 0
M  V30 2310 H 224.172 -0.0132132 0.663869 0
M  V30 2311 H 226.702 0.585253 1.96051 0
M  V30 2312 H 226.712 -0.750104 4.01045 0
M  V30 2313 H 225.387 0.394922 4.14021 0
M  V30 2314 H 223.964 -1.31677 3.48877 0
M  V30 2315 N 226.149 -1.5696 0.141893 0
M  V30 2316 C 227.096 -2.16501 -0.799737 0
M  V30 2317 C 228.066 -1.09643 -1.24771 0
M  V30 2318 O 229.251 -1.3766 -1.32115 0
M  V30 2319 C 226.391 -2.78679 -2.03549 0
M  V30 2320 C 225.504 -3.99914 -1.6338 0
M  V30 2321 C 224.639 -4.50106 -2.82096 0
M  V30 2322 C 223.678 -5.63819 -2.38275 0
M  V30 2323 N 222.815 -6.08651 -3.49983 0
M  V30 2324 H 227.655 -2.96632 -0.285179 0
M  V30 2325 H 225.192 -1.46533 -0.129053 0
M  V30 2326 H 227.15 -3.1287 -2.75986 0
M  V30 2327 H 225.78 -2.012 -2.52425 0
M  V30 2328 H 224.832 -3.71735 -0.807279 0
M  V30 2329 H 226.144 -4.82311 -1.27192 0
M  V30 2330 H 225.298 -4.86325 -3.62729 0
M  V30 2331 H 224.037 -3.66706 -3.21525 0
M  V30 2332 H 223.042 -5.2718 -1.56081 0
M  V30 2333 H 224.267 -6.49 -1.99938 0
M  V30 2334 H 222.213 -5.28188 -3.89042 0
M  V30 2335 H 222.13 -6.85961 -3.17794 0
M  V30 2336 H 223.398 -6.49515 -4.30988 0
M  V30 2337 N 227.627 0.131896 -1.57047 0
M  V30 2338 C 228.574 1.16236 -1.99393 0
M  V30 2339 C 229.544 1.41863 -0.863943 0
M  V30 2340 O 230.729 1.53946 -1.12718 0
M  V30 2341 C 227.869 2.48708 -2.39245 0
M  V30 2342 C 226.982 2.30127 -3.65603 0
M  V30 2343 C 226.117 3.55738 -3.94492 0
M  V30 2344 C 225.156 3.32259 -5.14073 0
M  V30 2345 N 224.293 4.50039 -5.38896 0
M  V30 2346 H 229.133 0.794251 -2.87221 0
M  V30 2347 H 226.67 0.380707 -1.42088 0
M  V30 2348 H 228.628 3.25969 -2.60384 0
M  V30 2349 H 227.258 2.83437 -1.54478 0
M  V30 2350 H 226.31 1.43845 -3.52154 0
M  V30 2351 H 227.622 2.08746 -4.5302 0
M  V30 2352 H 226.776 4.41423 -4.1621 0
M  V30 2353 H 225.515 3.80138 -3.05526 0
M  V30 2354 H 224.52 2.44963 -4.92212 0
M  V30 2355 H 225.745 3.09242 -6.04604 0
M  V30 2356 H 223.691 4.74584 -4.52886 0
M  V30 2357 H 223.608 4.31716 -6.2061 0
M  V30 2358 H 224.876 5.36895 -5.65123 0
M  V30 2359 N 229.106 1.52395 0.401703 0
M  V30 2360 C 230.355 1.66044 1.14509 0
M  V30 2361 C 230.668 0.400216 1.91462 0
M  V30 2362 O 231.874 0.416632 2.68284 0
M  V30 2363 C 230.33 2.93388 2.0845 0
M  V30 2364 C 229.938 4.26545 1.36978 0
M  V30 2365 C 231.682 3.16402 2.83001 0
M  V30 2366 C 229.589 5.45007 2.29611 0
M  V30 2367 H 228.519 0.618562 0.431158 0
M  V30 2368 H 231.17 1.78886 0.40892 0
M  V30 2369 H 229.552 2.74263 2.8565 0
M  V30 2370 H 230.726 4.56179 0.650916 0
M  V30 2371 H 229.041 4.09692 0.74438 0
M  V30 2372 H 231.638 4.02085 3.52465 0
M  V30 2373 H 231.981 2.30943 3.46368 0
M  V30 2374 H 232.514 3.36034 2.12898 0
M  V30 2375 H 229.253 6.32835 1.70879 0
M  V30 2376 H 228.773 5.19702 2.9945 0
M  V30 2377 H 230.452 5.7838 2.89974 0
M  V30 2378 N 230.584 -0.659388 1.43143 0
M  V30 2379 C 231.812 -1.44723 1.47861 0
M  V30 2380 C 232.227 -1.88563 0.0945886 0
M  V30 2381 O 231.584 -1.59108 -0.893915 0
M  V30 2382 C 231.635 -2.68627 2.41913 0
M  V30 2383 O 231.356 -2.26623 3.74932 0
M  V30 2384 C 232.857 -3.62045 2.55809 0
M  V30 2385 H 230.077 -0.444801 0.502387 0
M  V30 2386 H 232.621 -0.808916 1.87821 0
M  V30 2387 H 230.776 -3.28613 2.05164 0
M  V30 2388 H 231.19 -3.06745 4.2545 0
M  V30 2389 H 232.664 -4.45666 3.25708 0
M  V30 2390 H 233.141 -4.08981 1.60099 0
M  V30 2391 H 233.747 -3.07944 2.93344 0
M  V30 2392 N 232.062 -1.29571 -0.897171 0
M  V30 2393 C 233.311 -1.1706 -1.64256 0
M  V30 2394 C 233.624 0.276476 -1.93636 0
M  V30 2395 O 234.83 0.52294 -2.66416 0
M  V30 2396 C 233.286 -2.0475 -2.95982 0
M  V30 2397 C 232.894 -3.54295 -2.74187 0
M  V30 2398 C 234.638 -2.0097 -3.73914 0
M  V30 2399 C 232.545 -4.34081 -4.01656 0
M  V30 2400 H 231.475 -0.43452 -0.616205 0
M  V30 2401 H 234.126 -1.54229 -0.994268 0
M  V30 2402 H 232.508 -1.60452 -3.62038 0
M  V30 2403 H 233.682 -4.06662 -2.1671 0
M  V30 2404 H 231.997 -3.59773 -2.09648 0
M  V30 2405 H 234.594 -2.57838 -4.68427 0
M  V30 2406 H 234.937 -0.990273 -4.0435 0
M  V30 2407 H 235.47 -2.43325 -3.14703 0
M  V30 2408 H 232.209 -5.36671 -3.76384 0
M  V30 2409 H 231.729 -3.86483 -4.58684 0
M  V30 2410 H 233.408 -4.44877 -4.69781 0
M  V30 2411 N 233.54 1.10788 -1.12088 0
M  V30 2412 C 234.503 2.15207 -0.788577 0
M  V30 2413 C 235.503 1.59609 0.195317 0
M  V30 2414 O 236.693 1.74174 -0.0300193 0
M  V30 2415 C 233.825 3.4047 -0.171174 0
M  V30 2416 H 235.018 2.46116 -1.71368 0
M  V30 2417 H 232.571 1.26089 -0.923652 0
M  V30 2418 H 233.306 3.15176 0.763832 0
M  V30 2419 H 233.091 3.82109 -0.879514 0
M  V30 2420 H 234.581 4.17576 0.04496 0
M  V30 2421 N 235.018 0.912232 1.28515 0
M  V30 2422 C 236.295 0.463597 1.90027 0
M  V30 2423 C 236.675 -1.05753 1.82701 0
M  V30 2424 O 236.023 -1.90492 1.26194 0
M  V30 2425 C 236.233 0.992253 3.34597 0
M  V30 2426 C 237.581 1.04344 4.11579 0
M  V30 2427 O 238.605 0.94079 3.43551 0
M  V30 2428 O 237.464 1.1995 5.33174 0
M  V30 2429 H 234.558 0.146666 0.813891 0
M  V30 2430 H 237.104 1.00292 1.36893 0
M  V30 2431 H 235.876 2.03623 3.34146 0
M  V30 2432 H 235.499 0.433672 3.95228 0
M  V30 2433 N 236.496 -1.42363 0.676048 0
M  V30 2434 C 237.736 -2.03392 0.20273 0
M  V30 2435 C 238.1 -1.52306 -1.16906 0
M  V30 2436 O 239.301 -2.05129 -1.73711 0
M  V30 2437 C 237.572 -3.56614 0.236947 0
M  V30 2438 S 239.131 -4.38489 -0.165186 0
M  V30 2439 H 235.949 -0.70611 0.0832418 0
M  V30 2440 H 238.551 -1.74093 0.88948 0
M  V30 2441 H 237.255 -3.91293 1.23767 0
M  V30 2442 H 236.786 -3.90587 -0.469596 0
M  V30 2443 H 238.801 -4.76093 -1.39822 0
M  V30 2444 N 237.974 -0.419461 -1.51915 0
M  V30 2445 C 239.222 0.152637 -2.01523 0
M  V30 2446 C 239.543 1.44762 -1.30649 0
M  V30 2447 O 238.813 1.90997 -0.435535 0
M  V30 2448 H 237.393 0.0593966 -0.744635 0
M  V30 2449 H 240.055 -0.558073 -1.86739 0
M  V30 2450 H 239.151 0.341369 -3.10227 0
M  V30 2451 N 239.452 1.56882 -0.150215 0
M  V30 2452 C 240.384 2.14057 0.819286 0
M  V30 2453 C 241.397 1.09082 1.20851 0
M  V30 2454 O 242.586 1.36347 1.15203 0
M  V30 2455 C 239.686 2.65102 2.11127 0
M  V30 2456 C 238.859 3.94511 1.88891 0
M  V30 2457 C 237.918 4.30834 3.02107 0
M  V30 2458 O 236.944 4.99099 2.73659 0
M  V30 2459 N 238.146 3.90676 4.29363 0
M  V30 2460 H 240.911 2.97871 0.330618 0
M  V30 2461 H 238.472 1.61866 0.0332538 0
M  V30 2462 H 240.464 2.86411 2.85921 0
M  V30 2463 H 239.034 1.85994 2.51247 0
M  V30 2464 H 238.254 3.81795 0.981152 0
M  V30 2465 H 239.542 4.7907 1.71376 0
M  V30 2466 H 238.94 3.35677 4.55343 0
M  V30 2467 H 237.497 4.1703 5.00928 0
M  V30 2468 N 240.93 -0.123565 1.57115 0
M  V30 2469 C 241.86 -1.15309 2.03042 0
M  V30 2470 C 242.841 -1.43454 0.914061 0
M  V30 2471 O 244.026 -1.53973 1.18347 0
M  V30 2472 C 241.156 -2.48043 2.43089 0
M  V30 2473 C 240.11 -2.3437 3.58127 0
M  V30 2474 C 239.436 -3.72026 3.84059 0
M  V30 2475 C 240.736 -1.80804 4.90007 0
M  V30 2476 H 242.43 -0.771102 2.893 0
M  V30 2477 H 239.976 -0.369479 1.39179 0
M  V30 2478 H 241.929 -3.20311 2.73823 0
M  V30 2479 H 240.653 -2.88122 1.53796 0
M  V30 2480 H 239.312 -1.64551 3.27595 0
M  V30 2481 H 238.96 -4.09582 2.91979 0
M  V30 2482 H 238.66 -3.63732 4.6149 0
M  V30 2483 H 240.184 -4.45806 4.1724 0
M  V30 2484 H 241.598 -2.42886 5.19307 0
M  V30 2485 H 239.995 -1.83343 5.71407 0
M  V30 2486 H 241.065 -0.76528 4.78823 0
M  V30 2487 N 242.408 -1.52605 -0.393616 0
M  V30 2488 C 243.318 -1.79971 -1.50492 0
M  V30 2489 C 244.334 -0.686181 -1.59899 0
M  V30 2490 O 245.51 -0.973274 -1.76322 0
M  V30 2491 C 242.575 -1.95867 -2.86072 0
M  V30 2492 C 241.636 -3.19781 -2.86424 0
M  V30 2493 C 240.869 -3.34909 -4.15538 0
M  V30 2494 O 241.092 -2.54948 -5.10253 0
M  V30 2495 O 240.026 -4.28141 -4.23059 0
M  V30 2496 H 243.852 -2.74328 -1.30299 0
M  V30 2497 H 241.437 -1.3764 -0.581005 0
M  V30 2498 H 243.319 -2.08056 -3.66457 0
M  V30 2499 H 241.994 -1.04699 -3.063 0
M  V30 2500 H 240.901 -3.13038 -2.04837 0
M  V30 2501 H 242.234 -4.1078 -2.71147 0
M  V30 2502 O 243.925 0.539544 -1.52221 0
M  V30 2503 H 244.616 1.19468 -1.5247 0
M  V30 END ATOM
M  V30 BEGIN BOND
M  V30 END BOND
M  V30 END CTAB
M  END
$$$$
