drugbank_target|P11759 GDP-mannose 6-dehydrogenase (DB04023)
 OpenBabel12092120013D

  0  0  0     0  0            999 V3000
M  V30 BEGIN CTAB
M  V30 COUNTS 6712 6766 0 0 0
M  V30 BEGIN ATOM
M  V30 1 H -0.908 1.98254 -0.117106 0
M  V30 2 N 0 1.576 0 0
M  V30 3 C 0.933 2.03868 1.02534 0
M  V30 4 C 1.911 0.928543 1.3348 0
M  V30 5 O 3.095 1.19667 1.45644 0
M  V30 6 C 0.222 2.43627 2.35294 0
M  V30 7 C -0.732 3.65373 2.2001 0
M  V30 8 S 0.101 5.13292 1.52614 0
M  V30 9 C 1.257 5.56322 2.86805 0
M  V30 10 H 1.49 2.90518 0.631377 0
M  V30 11 H -0.977 1.52953 0.210867 0
M  V30 12 H 0.981 2.67203 3.11629 0
M  V30 13 H -0.358 1.57376 2.7183 0
M  V30 14 H -1.165 3.90944 3.18086 0
M  V30 15 H -1.563 3.418 1.51819 0
M  V30 16 H 0.729 5.58782 3.83104 0
M  V30 17 H 1.672 6.56266 2.65933 0
M  V30 18 H 2.08 4.83886 2.90714 0
M  V30 19 N 1.4781 -0.272755 1.55222 0
M  V30 20 C 2.8941 -0.619959 1.47067 0
M  V30 21 C 3.0941 -1.895 0.684978 0
M  V30 22 O 2.1501 -2.51675 0.203931 0
M  V30 23 C 3.4631 -0.746693 2.91282 0
M  V30 24 C 5.0111 -0.840731 3.01497 0
M  V30 25 C 5.4861 -0.99924 4.46967 0
M  V30 26 N 6.9771 -1.06476 4.50796 0
M  V30 27 C 7.7121 -1.20621 5.6057 0
M  V30 28 N 7.2081 -1.31483 6.80209 0
M  V30 29 N 9.0011 -1.23733 5.48312 0
M  V30 30 H 1.1521 0.564606 2.04758 0
M  V30 31 H 3.4151 0.191177 0.928523 0
M  V30 32 H 3.1211 0.119753 3.51496 0
M  V30 33 H 2.9951 -1.6269 3.40311 0
M  V30 34 H 5.3821 -1.69764 2.41379 0
M  V30 35 H 5.4631 0.0640874 2.5572 0
M  V30 36 H 5.1071 -0.146984 5.07687 0
M  V30 37 H 5.0371 -1.91871 4.90401 0
M  V30 38 H 7.5281 -0.993196 3.64615 0
M  V30 39 H 7.8411 -1.42111 7.59621 0
M  V30 40 H 6.1861 -1.28487 6.8302 0
M  V30 41 H 9.3771 -1.14877 4.53785 0
M  V30 42 H 9.5501 -1.34412 6.33906 0
M  V30 43 N 2.9562 -1.48159 -0.537278 0
M  V30 44 C 4.2052 -1.5506 -1.28993 0
M  V30 45 C 4.5182 -0.226211 -1.94288 0
M  V30 46 O 5.7242 -0.173395 -2.70946 0
M  V30 47 C 4.1802 -2.73429 -2.34018 0
M  V30 48 C 3.7882 -4.1248 -1.74825 0
M  V30 49 C 5.5322 -2.89638 -3.10339 0
M  V30 50 C 3.4392 -5.22121 -2.77747 0
M  V30 51 H 2.3692 -0.577231 -0.485098 0
M  V30 52 H 5.0202 -1.74478 -0.568317 0
M  V30 53 H 3.4022 -2.47431 -3.09182 0
M  V30 54 H 4.5762 -4.48466 -1.05899 0
M  V30 55 H 2.8912 -4.01327 -1.11022 0
M  V30 56 H 5.4882 -3.68718 -3.87235 0
M  V30 57 H 5.8312 -1.9882 -3.65754 0
M  V30 58 H 6.3642 -3.15502 -2.42288 0
M  V30 59 H 3.1032 -6.1488 -2.27161 0
M  V30 60 H 2.6232 -4.90631 -3.45024 0
M  V30 61 H 4.3022 -5.49924 -3.4087 0
M  V30 62 N 4.4343 0.785586 -1.36625 0
M  V30 63 C 5.6593 1.57963 -1.34397 0
M  V30 64 C 6.0843 1.87964 0.071526 0
M  V30 65 O 5.4423 1.48182 1.0446 0
M  V30 66 C 5.4903 2.87511 -2.17646 0
M  V30 67 O 4.5943 3.81281 -1.57158 0
M  V30 68 H 3.9353 0.479014 -0.459828 0
M  V30 69 H 6.4653 0.973411 -1.79961 0
M  V30 70 H 6.4753 3.36745 -2.30362 0
M  V30 71 H 5.1503 2.65002 -3.20541 0
M  V30 72 H 3.7273 3.39885 -1.53403 0
M  V30 73 N 5.9124 1.20967 1.01018 0
M  V30 74 C 7.1614 1.01796 1.74128 0
M  V30 75 C 7.4744 -0.449691 1.90361 0
M  V30 76 O 8.6804 -0.76068 2.60626 0
M  V30 77 C 7.1364 1.7727 3.13215 0
M  V30 78 C 6.7444 3.28171 3.04972 0
M  V30 79 C 8.4884 1.66489 3.90489 0
M  V30 80 C 6.3954 3.96156 4.39107 0
M  V30 81 H 5.3254 0.377276 0.652824 0
M  V30 82 H 7.9764 1.44651 1.12909 0
M  V30 83 H 6.3584 1.27205 3.75013 0
M  V30 84 H 7.5324 3.85499 2.52443 0
M  V30 85 H 5.8474 3.39437 2.41188 0
M  V30 86 H 8.4444 2.14617 4.89738 0
M  V30 87 H 8.7874 0.6222 4.11624 0
M  V30 88 H 9.3204 2.14003 3.35332 0
M  V30 89 H 6.0594 5.00604 4.23174 0
M  V30 90 H 5.5794 3.43617 4.91617 0
M  V30 91 H 7.2584 4.00774 5.07926 0
M  V30 92 N 7.3905 -1.2043 1.01659 0
M  V30 93 C 8.6375 -1.89797 0.705917 0
M  V30 94 C 8.9655 -1.78848 -0.764439 0
M  V30 95 O 8.2205 -1.16694 -1.57102 0
M  V30 96 C 8.5195 -3.40464 1.08714 0
M  V30 97 C 8.1855 -3.71614 2.5537 0
M  V30 98 C 6.8475 -3.79826 2.95441 0
M  V30 99 C 9.1995 -3.85915 3.50313 0
M  V30 100 C 6.5275 -3.99797 4.29394 0
M  V30 101 C 8.8795 -4.07396 4.83954 0
M  V30 102 C 7.5435 -4.13837 5.23732 0
M  V30 103 H 6.8135 -0.694518 0.258313 0
M  V30 104 H 9.4605 -1.42691 1.27717 0
M  V30 105 H 7.7655 -3.89385 0.434309 0
M  V30 106 H 9.4625 -3.92433 0.824461 0
M  V30 107 H 6.0525 -3.65822 2.23321 0
M  V30 108 H 10.2365 -3.78926 3.20513 0
M  V30 109 H 5.4925 -4.03018 4.59768 0
M  V30 110 H 9.6665 -4.17404 5.57447 0
M  V30 111 H 7.2935 -4.29064 6.27541 0
M  V30 112 N 8.8686 -0.792821 -1.36206 0
M  V30 113 C 10.1166 -0.366062 -1.98757 0
M  V30 114 C 10.4376 1.0668 -1.63231 0
M  V30 115 O 9.7076 1.73587 -0.907978 0
M  V30 116 H 8.2876 -0.132364 -0.735179 0
M  V30 117 H 10.9496 -1.01562 -1.66347 0
M  V30 118 H 10.0456 -0.460638 -3.08682 0
M  V30 119 N 10.3467 1.47872 -0.545128 0
M  V30 120 C 11.2767 2.32661 0.197793 0
M  V30 121 C 12.2577 1.43041 0.920504 0
M  V30 122 O 13.4427 1.71912 0.90333 0
M  V30 123 C 10.5727 3.24569 1.23582 0
M  V30 124 C 9.5267 4.23333 0.630323 0
M  V30 125 C 8.8527 5.0448 1.77211 0
M  V30 126 C 10.1527 5.20704 -0.407974 0
M  V30 127 H 11.8467 2.95024 -0.510045 0
M  V30 128 H 9.3927 1.4187 -0.246731 0
M  V30 129 H 11.3457 3.8272 1.76362 0
M  V30 130 H 10.0697 2.60236 1.97344 0
M  V30 131 H 8.7287 3.6639 0.123922 0
M  V30 132 H 8.3767 4.36561 2.49847 0
M  V30 133 H 8.0767 5.71339 1.37281 0
M  V30 134 H 9.6007 5.65487 2.3034 0
M  V30 135 H 11.0147 5.7329 0.033305 0
M  V30 136 H 9.4117 5.95699 -0.725486 0
M  V30 137 H 10.4817 4.66917 -1.30828 0
M  V30 138 N 11.8248 0.280983 1.55075 0
M  V30 139 C 13.0728 -0.333455 1.9933 0
M  V30 140 C 13.3938 -1.55937 1.17085 0
M  V30 141 O 12.6638 -1.94143 0.261805 0
M  V30 142 H 11.2438 -0.126197 0.736263 0
M  V30 143 H 13.9058 0.387678 1.91005 0
M  V30 144 H 13.0018 -0.619292 3.05894 0
M  V30 145 N 13.3029 -1.57598 0.00835791 0
M  V30 146 C 14.5329 -1.94931 -0.684496 0
M  V30 147 C 14.9409 -0.882233 -1.67372 0
M  V30 148 O 14.2839 0.146621 -1.83114 0
M  V30 149 C 14.3459 -3.283 -1.4649 0
M  V30 150 C 14.0099 -4.52548 -0.63634 0
M  V30 151 C 15.0069 -5.19839 0.0795586 0
M  V30 152 C 12.6919 -4.98942 -0.579849 0
M  V30 153 C 14.6859 -6.3183 0.840843 0
M  V30 154 C 12.3729 -6.10819 0.185155 0
M  V30 155 C 13.3709 -6.77121 0.894227 0
M  V30 156 O 13.0589 -7.86853 1.64673 0
M  V30 157 H 12.7909 -0.647249 -0.19505 0
M  V30 158 H 15.3449 -2.05318 0.0581272 0
M  V30 159 H 13.5749 -3.14345 -2.2522 0
M  V30 160 H 15.2639 -3.50685 -2.04389 0
M  V30 161 H 16.0299 -4.84979 0.0451202 0
M  V30 162 H 11.9089 -4.47155 -1.1213 0
M  V30 163 H 15.4529 -6.83513 1.39483 0
M  V30 164 H 11.3499 -6.4512 0.221384 0
M  V30 165 H 12.1179 -8.03412 1.56432 0
M  V30 166 N 14.781 0.264519 -1.55364 0
M  V30 167 C 16.027 0.99646 -1.76631 0
M  V30 168 C 16.36 1.85632 -0.570478 0
M  V30 169 O 15.635 1.89647 0.43175 0
M  V30 170 C 15.918 1.87187 -3.07625 0
M  V30 171 C 15.771 1.04138 -4.37579 0
M  V30 172 C 17.09 2.85749 -3.34717 0
M  V30 173 H 14.209 0.360841 -0.642622 0
M  V30 174 H 16.851 0.268218 -1.88097 0
M  V30 175 H 15.001 2.49279 -2.9798 0
M  V30 176 H 16.673 0.440517 -4.59192 0
M  V30 177 H 14.916 0.345115 -4.32425 0
M  V30 178 H 15.587 1.68729 -5.2558 0
M  V30 179 H 18.063 2.33793 -3.4421 0
M  V30 180 H 16.939 3.44136 -4.27623 0
M  V30 181 H 17.2 3.61311 -2.54768 0
M  V30 182 N 16.2591 1.48442 0.529413 0
M  V30 183 C 17.5071 1.56179 1.28267 0
M  V30 184 C 17.8281 0.237721 1.93546 0
M  V30 185 O 17.0981 -0.740779 1.81354 0
M  V30 186 H 15.6781 0.575367 0.476405 0
M  V30 187 H 18.3401 1.84909 0.61602 0
M  V30 188 H 17.4361 2.34312 2.06165 0
M  V30 189 N 17.7372 -0.778329 1.37039 0
M  V30 190 C 18.7002 -1.87301 1.32102 0
M  V30 191 C 19.7002 -1.59198 0.226405 0
M  V30 192 O 20.8902 -1.67403 0.481861 0
M  V30 193 C 18.0222 -3.24309 1.05055 0
M  V30 194 H 19.2152 -1.93093 2.29467 0
M  V30 195 H 16.7682 -0.977358 1.21973 0
M  V30 196 H 17.5032 -3.24196 0.0819373 0
M  V30 197 H 17.2882 -3.46098 1.84279 0
M  V30 198 H 18.7782 -4.04382 1.04234 0
M  V30 199 N 19.2153 -1.21501 -1.00376 0
M  V30 200 C 20.4613 -1.03452 -1.74429 0
M  V30 201 C 20.7943 0.430764 -1.89362 0
M  V30 202 O 20.0693 1.31962 -1.42886 0
M  V30 203 C 20.3523 -1.73375 -3.15615 0
M  V30 204 C 20.2053 -3.27431 -3.08397 0
M  V30 205 C 21.5243 -1.47732 -4.14564 0
M  V30 206 H 18.6433 -0.377226 -0.633143 0
M  V30 207 H 21.2853 -1.49693 -1.17013 0
M  V30 208 H 19.4353 -1.34064 -3.64636 0
M  V30 209 H 21.1073 -3.76119 -2.67081 0
M  V30 210 H 19.3503 -3.5767 -2.45468 0
M  V30 211 H 20.0213 -3.71524 -4.08258 0
M  V30 212 H 22.4973 -1.8186 -3.74254 0
M  V30 213 H 21.3733 -1.99169 -5.11491 0
M  V30 214 H 21.6343 -0.407589 -4.40217 0
M  V30 215 N 20.6934 1.19889 -1.02296 0
M  V30 216 C 21.9334 1.91125 -0.724602 0
M  V30 217 C 22.2974 1.77464 0.732835 0
M  V30 218 O 23.4984 2.43241 1.144 0
M  V30 219 C 21.7694 3.38187 -1.15604 0
M  V30 220 S 23.3284 4.27702 -0.980621 0
M  V30 221 H 20.1464 0.66018 -0.263976 0
M  V30 222 H 22.7484 1.44978 -1.31155 0
M  V30 223 H 21.4524 3.45653 -2.21251 0
M  V30 224 H 20.9834 3.89363 -0.562131 0
M  V30 225 H 22.9984 4.96073 0.112225 0
M  V30 226 N 22.1715 0.800033 1.35784 0
M  V30 227 C 23.1345 0.211565 2.28221 0
M  V30 228 C 24.1345 -0.59728 1.49296 0
M  V30 229 O 25.3245 -0.416721 1.69142 0
M  V30 230 C 22.4565 -0.705846 3.33513 0
M  V30 231 H 23.6495 1.02677 2.81776 0
M  V30 232 H 21.2025 0.570211 1.45528 0
M  V30 233 H 21.9375 -1.54498 2.85133 0
M  V30 234 H 21.7225 -0.127655 3.91892 0
M  V30 235 H 23.2125 -1.11211 4.02519 0
M  V30 236 N 23.6496 -1.47581 0.552962 0
M  V30 237 C 24.8976 -2.02082 0.0272703 0
M  V30 238 C 25.2186 -1.4301 -1.32563 0
M  V30 239 O 24.4886 -0.603745 -1.86365 0
M  V30 240 H 23.0686 -0.746966 0.00709182 0
M  V30 241 H 25.7306 -1.81033 0.722008 0
M  V30 242 H 24.8266 -3.12034 -0.0639951 0
M  V30 243 N 25.1277 -0.289203 -1.54924 0
M  V30 244 C 26.3677 0.324536 -2.01807 0
M  V30 245 C 26.7317 1.5199 -1.17316 0
M  V30 246 O 27.9327 2.20422 -1.53843 0
M  V30 247 C 26.2037 0.683578 -3.50802 0
M  V30 248 S 27.7627 1.28185 -4.19659 0
M  V30 249 H 24.5807 0.100236 -0.703899 0
M  V30 250 H 27.1827 -0.414325 -1.91059 0
M  V30 251 H 25.8867 -0.195073 -4.09936 0
M  V30 252 H 25.4177 1.45354 -3.65562 0
M  V30 253 H 27.4327 2.57006 -4.24456 0
M  V30 254 N 26.6058 1.57591 -0.0167156 0
M  V30 255 C 27.5358 2.12496 0.967858 0
M  V30 256 C 28.5168 1.03807 1.34752 0
M  V30 257 O 29.7018 1.31577 1.42833 0
M  V30 258 C 26.8318 2.64194 2.25431 0
M  V30 259 C 25.7858 3.77559 2.01576 0
M  V30 260 C 25.1118 4.15636 3.36379 0
M  V30 261 C 26.4118 5.04151 1.36489 0
M  V30 262 H 28.1058 2.95013 0.510643 0
M  V30 263 H 25.6518 1.41915 0.244181 0
M  V30 264 H 27.6048 3.01236 2.94678 0
M  V30 265 H 26.3288 1.78821 2.73296 0
M  V30 266 H 24.9878 3.40937 1.34751 0
M  V30 267 H 24.6358 3.27263 3.81979 0
M  V30 268 H 24.3358 4.92022 3.21229 0
M  V30 269 H 25.8598 4.5525 4.06915 0
M  V30 270 H 27.2738 5.38857 1.95718 0
M  V30 271 H 25.6708 5.85453 1.31776 0
M  V30 272 H 26.7408 4.83733 0.336219 0
M  V30 273 N 28.0839 -0.256276 1.55502 0
M  V30 274 C 29.3089 -1.00766 1.81276 0
M  V30 275 C 29.7339 -1.78524 0.59252 0
M  V30 276 O 29.0919 -1.75413 -0.45827 0
M  V30 277 C 29.1399 -1.92869 3.04687 0
M  V30 278 O 28.2439 -3.019 2.80945 0
M  V30 279 H 27.5849 -0.287224 0.598664 0
M  V30 280 H 30.1149 -0.280109 2.02674 0
M  V30 281 H 30.1249 -2.34511 3.33869 0
M  V30 282 H 28.7999 -1.35689 3.93143 0
M  V30 283 H 27.3769 -2.64454 2.62904 0
M  V30 284 N 29.562 -1.4872 -0.521534 0
M  V30 285 C 30.525 -1.63379 -1.60748 0
M  V30 286 C 31.525 -0.50661 -1.52611 0
M  V30 287 O 32.715 -0.772601 -1.5613 0
M  V30 288 C 29.847 -1.61192 -3.00383 0
M  V30 289 H 31.04 -2.60217 -1.49087 0
M  V30 290 H 28.593 -1.37444 -0.744235 0
M  V30 291 H 29.328 -0.65863 -3.17541 0
M  V30 292 H 29.113 -2.43032 -3.07698 0
M  V30 293 H 30.603 -1.7466 -3.7932 0
M  V30 294 N 31.0401 0.771051 -1.3745 0
M  V30 295 C 32.4561 1.07171 -1.18265 0
M  V30 296 C 32.6561 2.01491 -0.019287 0
M  V30 297 O 31.7121 2.44244 0.640408 0
M  V30 298 C 33.0251 1.66854 -2.50161 0
M  V30 299 C 34.5731 1.79109 -2.56689 0
M  V30 300 C 35.0481 2.42205 -3.88717 0
M  V30 301 N 36.5391 2.49655 -3.90162 0
M  V30 302 C 37.2741 2.9933 -4.8907 0
M  V30 303 N 36.7701 3.49172 -5.98374 0
M  V30 304 N 38.5631 2.9821 -4.76474 0
M  V30 305 H 30.7141 0.144796 -2.11906 0
M  V30 306 H 32.9771 0.126863 -0.939473 0
M  V30 307 H 32.6831 1.05017 -3.35655 0
M  V30 308 H 32.5571 2.6614 -2.673 0
M  V30 309 H 34.9441 2.40077 -1.71601 0
M  V30 310 H 35.0251 0.785757 -2.43433 0
M  V30 311 H 34.6691 1.81875 -4.74219 0
M  V30 312 H 34.5991 3.43345 -3.99276 0
M  V30 313 H 37.0901 2.14383 -3.11205 0
M  V30 314 H 37.4031 3.8548 -6.69795 0
M  V30 315 H 35.7481 3.47275 -6.02018 0
M  V30 316 H 38.9391 2.58572 -3.90203 0
M  V30 317 H 39.1121 3.36613 -5.53711 0
M  V30 318 N 32.5182 1.22032 0.997298 0
M  V30 319 C 33.7662 1.04016 1.73278 0
M  V30 320 C 34.0872 -0.426255 1.90284 0
M  V30 321 O 33.3572 -1.30694 1.45931 0
M  V30 322 H 31.9372 0.381897 0.642 0
M  V30 323 H 34.5992 1.5347 1.20137 0
M  V30 324 H 33.6952 1.51441 2.72896 0
M  V30 325 N 33.9963 -1.19345 1.0293 0
M  V30 326 C 34.9463 -2.20472 0.58104 0
M  V30 327 C 35.9303 -1.56578 -0.370442 0
M  V30 328 O 37.1223 -1.75963 -0.191344 0
M  V30 329 C 34.2513 -3.43236 -0.066306 0
M  V30 330 C 33.3373 -4.14274 0.907642 0
M  V30 331 N 33.7283 -4.61492 2.07023 0
M  V30 332 C 32.0263 -4.39966 0.731177 0
M  V30 333 C 32.7273 -5.1605 2.68454 0
M  V30 334 N 31.7033 -5.06875 1.96414 0
M  V30 335 H 35.5053 -2.54659 1.46717 0
M  V30 336 H 33.0193 -1.35423 0.896345 0
M  V30 337 H 35.0163 -4.14927 -0.405068 0
M  V30 338 H 33.6763 -3.10549 -0.948118 0
M  V30 339 H 34.6873 -4.56304 2.44963 0
M  V30 340 H 31.3643 -4.17377 -0.101507 0
M  V30 341 H 32.7543 -5.6287 3.66915 0
M  V30 342 N 35.4744 -0.807222 -1.35358 0
M  V30 343 C 36.3844 -0.219594 -2.3357 0
M  V30 344 C 37.4004 0.637734 -1.61892 0
M  V30 345 O 38.5764 0.549336 -1.93763 0
M  V30 346 C 35.6414 0.62158 -3.41083 0
M  V30 347 C 34.7024 -0.256315 -4.28534 0
M  V30 348 C 33.9354 0.544807 -5.30912 0
M  V30 349 O 34.1584 1.77944 -5.41934 0
M  V30 350 O 33.0924 -0.0646478 -6.01865 0
M  V30 351 H 36.9184 -1.03208 -2.85625 0
M  V30 352 H 34.5034 -0.569025 -1.38139 0
M  V30 353 H 36.3854 1.10067 -4.06772 0
M  V30 354 H 35.0604 1.41165 -2.91297 0
M  V30 355 H 33.9674 -0.782559 -3.65823 0
M  V30 356 H 35.3004 -1.01034 -4.81719 0
M  V30 357 N 36.9525 1.47285 -0.560781 0
M  V30 358 C 38.1985 2.02764 -0.0381184 0
M  V30 359 C 38.5315 1.43384 1.30976 0
M  V30 360 O 37.8065 0.590733 1.85312 0
M  V30 361 C 38.0895 3.60064 0.0511427 0
M  V30 362 C 37.9425 4.2987 -1.32408 0
M  V30 363 C 39.2615 4.33439 0.762795 0
M  V30 364 H 36.3805 0.736841 -0.0153264 0
M  V30 365 H 39.0225 1.75675 -0.723759 0
M  V30 366 H 37.1725 3.83274 0.635065 0
M  V30 367 H 38.8445 4.17989 -1.95148 0
M  V30 368 H 37.0875 3.90085 -1.8978 0
M  V30 369 H 37.7585 5.38478 -1.21431 0
M  V30 370 H 40.2345 4.15243 0.266965 0
M  V30 371 H 39.1105 5.43124 0.794221 0
M  V30 372 H 39.3715 4.02915 1.81966 0
M  V30 373 N 38.4306 0.297415 1.54768 0
M  V30 374 C 39.6796 -0.313669 1.99246 0
M  V30 375 C 39.9926 -1.55281 1.18942 0
M  V30 376 O 41.1986 -2.23825 1.5367 0
M  V30 377 C 39.6546 -0.609407 3.54703 0
M  V30 378 C 39.2626 0.611192 4.43811 0
M  V30 379 C 41.0066 -1.18188 4.07715 0
M  V30 380 C 38.9136 0.288805 5.90694 0
M  V30 381 H 37.8436 -0.120979 0.744231 0
M  V30 382 H 40.4946 0.40556 1.78962 0
M  V30 383 H 38.8766 -1.38813 3.70873 0
M  V30 384 H 40.0506 1.3875 4.39414 0
M  V30 385 H 38.3656 1.10205 4.01552 0
M  V30 386 H 40.9626 -1.43727 5.15021 0
M  V30 387 H 41.3056 -2.12299 3.58099 0
M  V30 388 H 41.8386 -0.464944 3.95074 0
M  V30 389 H 38.5776 1.19838 6.44453 0
M  V30 390 H 38.0976 -0.450305 5.98107 0
M  V30 391 H 39.7766 -0.110933 6.46905 0
M  V30 392 N 39.9087 -1.5758 0.0250728 0
M  V30 393 C 41.1567 -1.91255 -0.653151 0
M  V30 394 C 41.4777 -0.901691 -1.729 0
M  V30 395 O 40.7477 0.0573785 -1.95816 0
M  V30 396 H 39.3277 -0.705942 -0.244243 0
M  V30 397 H 41.9897 -1.94767 0.0719209 0
M  V30 398 H 41.0857 -2.91752 -1.10847 0
M  V30 399 N 41.3868 0.248026 -1.55636 0
M  V30 400 C 42.6328 0.97767 -1.77678 0
M  V30 401 C 42.9658 1.85016 -0.590135 0
M  V30 402 O 42.2408 1.90095 0.411611 0
M  V30 403 C 42.5238 1.83914 -3.09593 0
M  V30 404 C 42.3768 0.99491 -4.38659 0
M  V30 405 C 43.6958 2.82183 -3.37729 0
M  V30 406 H 40.8148 0.354005 -0.646413 0
M  V30 407 H 43.4568 0.248253 -1.88371 0
M  V30 408 H 41.6068 2.46104 -3.00608 0
M  V30 409 H 43.2788 0.391789 -4.59633 0
M  V30 410 H 41.5218 0.299231 -4.32767 0
M  V30 411 H 42.1928 1.63145 -5.2734 0
M  V30 412 H 44.6688 2.30129 -3.4667 0
M  V30 413 H 43.5448 3.39582 -4.31249 0
M  V30 414 H 43.8058 3.58588 -2.58586 0
M  V30 415 N 42.8649 1.48995 0.513639 0
M  V30 416 C 44.1419 1.48338 1.27495 0
M  V30 417 C 44.5219 0.204065 2.10111 0
M  V30 418 O 43.8699 -0.813881 2.13514 0
M  V30 419 C 44.0799 2.75498 2.14247 0
M  V30 420 C 45.4279 3.24484 2.73852 0
M  V30 421 O 46.4519 2.76528 2.24523 0
M  V30 422 O 45.3109 4.07974 3.6362 0
M  V30 423 H 42.4049 0.593149 0.576284 0
M  V30 424 H 44.9509 1.61246 0.528948 0
M  V30 425 H 43.7229 3.60109 1.53092 0
M  V30 426 H 43.3459 2.6539 2.96064 0
M  V30 427 N 44.343 -0.763751 1.37857 0
M  V30 428 C 45.589 -1.52483 1.33704 0
M  V30 429 C 45.922 -1.94051 -0.0759612 0
M  V30 430 O 45.197 -1.64675 -1.03501 0
M  V30 431 C 45.48 -2.78441 2.28348 0
M  V30 432 C 45.333 -2.43075 3.78463 0
M  V30 433 C 46.652 -3.80415 2.21298 0
M  V30 434 H 43.771 -0.553169 0.487005 0
M  V30 435 H 46.413 -0.875562 1.68624 0
M  V30 436 H 44.563 -3.33842 1.987 0
M  V30 437 H 46.235 -1.93527 4.18742 0
M  V30 438 H 44.478 -1.75666 3.96641 0
M  V30 439 H 45.149 -3.33149 4.40132 0
M  V30 440 H 47.625 -3.34527 2.47449 0
M  V30 441 H 46.501 -4.66257 2.89647 0
M  V30 442 H 46.762 -4.25262 1.20849 0
M  V30 443 N 45.8211 -1.22559 -0.990812 0
M  V30 444 C 47.0461 -1.07862 -1.77145 0
M  V30 445 C 47.4711 0.366447 -1.84496 0
M  V30 446 O 46.8291 1.26478 -1.29896 0
M  V30 447 C 46.8771 -1.69686 -3.18181 0
M  V30 448 O 45.9811 -0.951946 -4.01263 0
M  V30 449 H 45.3221 -0.378712 -0.545411 0
M  V30 450 H 47.8521 -1.62399 -1.2445 0
M  V30 451 H 47.8621 -1.74496 -3.68802 0
M  V30 452 H 46.5371 -2.74841 -3.12146 0
M  V30 453 H 45.1141 -0.980011 -3.59792 0
M  V30 454 N 47.2992 1.18797 -1.03562 0
M  V30 455 C 48.5242 1.9314 -0.755764 0
M  V30 456 C 48.9492 1.7537 0.68022 0
M  V30 457 O 48.3072 1.06046 1.47051 0
M  V30 458 C 48.3552 3.42747 -1.12058 0
M  V30 459 O 47.4592 4.11683 -0.243124 0
M  V30 460 H 46.8002 0.602724 -0.278604 0
M  V30 461 H 49.3302 1.50678 -1.3841 0
M  V30 462 H 49.3402 3.93437 -1.08035 0
M  V30 463 H 48.0152 3.55002 -2.16672 0
M  V30 464 H 46.5922 3.71323 -0.342539 0
M  V30 465 N 48.7773 0.814389 1.34928 0
M  V30 466 C 50.0053 0.411136 2.02774 0
M  V30 467 C 50.4203 -0.980316 1.61354 0
M  V30 468 O 49.7773 -1.63299 0.814847 0
M  V30 469 C 49.8283 0.493865 3.58111 0
M  V30 470 O 49.5493 1.83047 3.98027 0
M  V30 471 C 51.0503 0.0844174 4.4322 0
M  V30 472 H 48.2703 0.166037 0.650133 0
M  V30 473 H 50.8143 1.10018 1.72384 0
M  V30 474 H 48.9693 -0.147006 3.87121 0
M  V30 475 H 49.3833 1.79872 4.92693 0
M  V30 476 H 50.8573 0.193404 5.51661 0
M  V30 477 H 51.3343 -0.97113 4.28329 0
M  V30 478 H 51.9403 0.69875 4.19521 0
M  V30 479 N 50.2554 -1.46986 0.568584 0
M  V30 480 C 51.2024 -2.30153 -0.172707 0
M  V30 481 C 52.1724 -1.39759 -0.897586 0
M  V30 482 O 53.3574 -1.68716 -0.891044 0
M  V30 483 C 50.4974 -3.23952 -1.1895 0
M  V30 484 C 49.6104 -4.29441 -0.469517 0
M  V30 485 C 48.7454 -5.1038 -1.47259 0
M  V30 486 C 47.7844 -6.07632 -0.738225 0
M  V30 487 N 46.9214 -6.8149 -1.68868 0
M  V30 488 H 51.7614 -2.93019 0.542596 0
M  V30 489 H 49.2984 -1.44422 0.279401 0
M  V30 490 H 51.2564 -3.76767 -1.79173 0
M  V30 491 H 49.8864 -2.62926 -1.87269 0
M  V30 492 H 48.9384 -3.79594 0.247467 0
M  V30 493 H 50.2504 -4.98689 0.105241 0
M  V30 494 H 49.4044 -5.67402 -2.14803 0
M  V30 495 H 48.1434 -4.4106 -2.08128 0
M  V30 496 H 47.1484 -5.49778 -0.0489293 0
M  V30 497 H 48.3734 -6.78966 -0.135129 0
M  V30 498 H 46.3194 -6.14891 -2.28573 0
M  V30 499 H 46.2364 -7.46948 -1.16636 0
M  V30 500 H 47.5044 -7.43078 -2.3549 0
M  V30 501 N 51.7335 -0.305618 -1.54608 0
M  V30 502 C 52.9825 0.303098 -1.9941 0
M  V30 503 C 53.2955 1.54648 -1.19764 0
M  V30 504 O 54.5015 2.23007 -1.54855 0
M  V30 505 C 52.9575 0.590588 -3.55021 0
M  V30 506 C 52.5655 -0.634719 -4.43481 0
M  V30 507 C 54.3095 1.16025 -4.08336 0
M  V30 508 C 52.2165 -0.320126 -5.90533 0
M  V30 509 H 51.1465 0.117031 -0.744862 0
M  V30 510 H 53.7975 -0.415045 -1.78745 0
M  V30 511 H 52.1795 1.36845 -3.71604 0
M  V30 512 H 53.3535 -1.41079 -4.38672 0
M  V30 513 H 51.6685 -1.12333 -4.00962 0
M  V30 514 H 54.2655 1.40994 -5.15776 0
M  V30 515 H 54.6085 2.10397 -3.5922 0
M  V30 516 H 55.1415 0.443985 -3.95315 0
M  V30 517 H 51.8805 -1.23254 -6.43808 0
M  V30 518 H 51.4005 0.418579 -5.98338 0
M  V30 519 H 53.0795 0.0766241 -6.46955 0
M  V30 520 N 53.2116 1.57565 -0.0334293 0
M  V30 521 C 54.4886 1.83282 0.683163 0
M  V30 522 C 54.8686 0.91823 1.90084 0
M  V30 523 O 54.2166 -0.025113 2.28486 0
M  V30 524 C 54.4266 3.32599 1.0573 0
M  V30 525 C 55.7746 3.99179 1.44711 0
M  V30 526 O 56.7986 3.3712 1.15015 0
M  V30 527 O 55.6576 5.08565 2.0006 0
M  V30 528 H 52.7516 0.755869 0.335546 0
M  V30 529 H 55.2976 1.69589 -0.0614402 0
M  V30 530 H 54.0696 3.90834 0.190828 0
M  V30 531 H 53.6926 3.51415 1.85993 0
M  V30 532 N 54.6897 -0.239769 1.55765 0
M  V30 533 C 55.6197 -1.30052 1.9393 0
M  V30 534 C 56.6007 -1.49839 0.805132 0
M  V30 535 O 57.7857 -1.62328 1.06599 0
M  V30 536 C 54.9157 -2.65391 2.2402 0
M  V30 537 C 53.8697 -2.60289 3.39755 0
M  V30 538 C 53.1957 -3.99489 3.55405 0
M  V30 539 C 54.4957 -2.16654 4.75246 0
M  V30 540 H 56.1897 -0.983573 2.82783 0
M  V30 541 H 53.7357 -0.471701 1.36055 0
M  V30 542 H 55.6887 -3.3974 2.49308 0
M  V30 543 H 54.4127 -2.98736 1.32 0
M  V30 544 H 53.0717 -1.88398 3.14487 0
M  V30 545 H 52.7197 -4.30112 2.60793 0
M  V30 546 H 52.4197 -3.96962 4.33238 0
M  V30 547 H 53.9437 -4.75528 3.83022 0
M  V30 548 H 55.3577 -2.80737 4.99859 0
M  V30 549 H 53.7547 -2.25223 5.56232 0
M  V30 550 H 54.8247 -1.11835 4.71827 0
M  V30 551 N 56.1678 -1.49265 -0.50573 0
M  V30 552 C 57.4168 -1.57761 -1.25675 0
M  V30 553 C 57.7298 -0.267371 -1.93764 0
M  V30 554 O 58.9358 -0.230827 -2.70517 0
M  V30 555 C 57.3918 -2.78332 -2.28165 0
M  V30 556 C 56.9998 -4.16096 -1.66037 0
M  V30 557 C 58.7438 -2.96155 -3.04125 0
M  V30 558 C 56.6508 -5.27895 -2.6661 0
M  V30 559 H 55.5808 -0.587391 -0.472745 0
M  V30 560 H 58.2318 -1.75644 -0.53118 0
M  V30 561 H 56.6138 -2.53934 -3.03865 0
M  V30 562 H 57.7878 -4.50612 -0.963622 0
M  V30 563 H 56.1028 -4.03591 -1.02484 0
M  V30 564 H 58.6998 -3.76849 -3.79327 0
M  V30 565 H 59.0428 -2.06534 -3.61455 0
M  V30 566 H 59.5758 -3.2057 -2.35541 0
M  V30 567 H 56.3148 -6.1956 -2.14068 0
M  V30 568 H 55.8348 -4.97839 -3.34539 0
M  V30 569 H 57.5138 -5.57031 -3.29129 0
M  V30 570 N 57.6459 0.756429 -1.3826 0
M  V30 571 C 58.5939 1.89149 -1.35372 0
M  V30 572 C 59.5879 1.67691 -0.24004 0
M  V30 573 O 60.7939 1.75294 -0.408919 0
M  V30 574 H 57.1689 0.622271 -0.422236 0
M  V30 575 H 59.1399 1.88701 -2.31159 0
M  V30 576 C 57.8889 3.26599 -1.19284 0
M  V30 577 H 57.2119 3.43695 -2.0424 0
M  V30 578 H 58.6519 4.06274 -1.21316 0
M  V30 579 C 57.1109 3.3675 0.100454 0
M  V30 580 O 57.6409 3.86951 1.07851 0
M  V30 581 N 55.8469 2.90179 0.15633 0
M  V30 582 H 55.3939 2.49517 -0.640253 0
M  V30 583 H 55.3519 2.97352 1.02123 0
M  V30 584 N 59.124 1.23083 0.984299 0
M  V30 585 C 60.056 0.96636 2.07832 0
M  V30 586 C 61.069 -0.0582135 1.62696 0
M  V30 587 O 62.258 0.176843 1.77622 0
M  V30 588 C 59.358 0.433397 3.36117 0
M  V30 589 C 58.531 1.51722 4.10243 0
M  V30 590 C 57.59 0.989821 5.16807 0
M  V30 591 O 56.616 1.67794 5.43906 0
M  V30 592 N 57.818 -0.184367 5.80207 0
M  V30 593 H 60.583 1.90824 2.31098 0
M  V30 594 H 58.144 1.13888 1.1507 0
M  V30 595 H 60.136 0.065699 4.04647 0
M  V30 596 H 58.706 -0.413806 3.09849 0
M  V30 597 H 57.926 2.05786 3.36223 0
M  V30 598 H 59.214 2.24619 4.56534 0
M  V30 599 H 58.612 -0.760062 5.60571 0
M  V30 600 H 57.169 -0.493366 6.4993 0
M  V30 601 N 60.6021 -1.18246 1.0419 0
M  V30 602 C 61.8501 -1.87886 0.744543 0
M  V30 603 C 62.1711 -1.8082 -0.730006 0
M  V30 604 O 61.4411 -1.22736 -1.52685 0
M  V30 605 H 60.0211 -0.695556 0.272417 0
M  V30 606 H 62.6831 -1.43494 1.31892 0
M  V30 607 H 61.7791 -2.9389 1.05049 0
M  V30 608 N 62.0802 -0.821533 -1.34494 0
M  V30 609 C 63.0272 -0.240397 -2.29545 0
M  V30 610 C 63.9972 0.634031 -1.53523 0
M  V30 611 O 65.1822 0.575966 -1.81899 0
M  V30 612 C 62.3222 0.592869 -3.39969 0
M  V30 613 C 61.4352 -0.30365 -4.30932 0
M  V30 614 C 60.5702 0.539049 -5.28458 0
M  V30 615 C 59.6092 -0.356942 -6.11058 0
M  V30 616 N 58.7462 0.446603 -7.00678 0
M  V30 617 H 63.5862 -1.05632 -2.7865 0
M  V30 618 H 61.1232 -0.532413 -1.37127 0
M  V30 619 H 63.0812 1.09129 -4.02675 0
M  V30 620 H 61.7112 1.37392 -2.92102 0
M  V30 621 H 60.7632 -0.920276 -3.691 0
M  V30 622 H 62.0752 -0.992661 -4.88823 0
M  V30 623 H 61.2292 1.102 -5.96608 0
M  V30 624 H 59.9682 1.26157 -4.71101 0
M  V30 625 H 58.9732 -0.932047 -5.41842 0
M  V30 626 H 60.1982 -1.07755 -6.70497 0
M  V30 627 H 58.1442 1.15282 -6.45791 0
M  V30 628 H 58.0612 -0.184048 -7.55776 0
M  V30 629 H 59.3292 0.992352 -7.73158 0
M  V30 630 N 63.5583 1.46682 -0.576371 0
M  V30 631 C 64.7833 2.07304 -0.0630475 0
M  V30 632 C 65.2083 1.42329 1.2298 0
M  V30 633 O 64.5663 0.504865 1.74129 0
M  V30 634 C 64.6143 3.60472 0.095895 0
M  V30 635 O 63.7183 3.95927 1.15394 0
M  V30 636 H 63.0593 0.661288 -0.0599463 0
M  V30 637 H 65.5893 1.88417 -0.797511 0
M  V30 638 H 65.5993 4.06865 0.304071 0
M  V30 639 H 64.2743 4.07157 -0.84828 0
M  V30 640 H 62.8513 3.61252 0.924724 0
M  V30 641 N 65.0364 0.313813 1.54444 0
M  V30 642 C 66.4474 -0.176243 1.85866 0
M  V30 643 C 66.7984 -1.52405 1.23561 0
M  V30 644 O 65.9234 -2.09605 0.538016 0
M  V30 645 C 66.5184 -0.32657 3.37222 0
M  V30 646 C 65.0774 -0.760846 3.6863 0
M  V30 647 C 64.2244 0.123247 2.77026 0
M  V30 648 H 67.1754 0.534418 1.49431 0
M  V30 649 H 67.1964 -1.15908 3.62416 0
M  V30 650 H 66.7084 0.654531 3.82541 0
M  V30 651 H 64.8094 -1.75204 3.28838 0
M  V30 652 H 64.9224 -0.571353 4.75681 0
M  V30 653 H 63.2864 -0.399597 2.51546 0
M  V30 654 H 64.0694 1.10094 3.25168 0
M  V30 655 N 66.5145 -1.57545 0.0417849 0
M  V30 656 C 67.7635 -1.91494 -0.633492 0
M  V30 657 C 68.0765 -0.921084 -1.72556 0
M  V30 658 O 69.2825 -1.15228 -2.45835 0
M  V30 659 C 67.7385 -3.40072 -1.17808 0
M  V30 660 C 67.3465 -4.47843 -0.118633 0
M  V30 661 C 69.0905 -3.8307 -1.82915 0
M  V30 662 C 66.9975 -5.87529 -0.675578 0
M  V30 663 H 65.9275 -0.714653 -0.24039 0
M  V30 664 H 68.5785 -1.83175 0.109148 0
M  V30 665 H 66.9605 -3.43364 -1.97274 0
M  V30 666 H 68.1345 -4.56128 0.654494 0
M  V30 667 H 66.4495 -4.14128 0.434414 0
M  V30 668 H 69.0465 -4.84794 -2.25563 0
M  V30 669 H 69.3895 -3.1881 -2.67705 0
M  V30 670 H 69.9225 -3.82255 -1.10119 0
M  V30 671 H 66.6615 -6.55362 0.134475 0
M  V30 672 H 66.1815 -5.82824 -1.4169 0
M  V30 673 H 67.8605 -6.36491 -1.1614 0
M  V30 674 N 67.9926 0.231505 -1.5589 0
M  V30 675 C 69.2386 0.95877 -1.78705 0
M  V30 676 C 69.5716 1.8438 -0.609725 0
M  V30 677 O 68.8466 1.90521 0.391426 0
M  V30 678 C 69.1296 1.8062 -3.11526 0
M  V30 679 C 68.9826 0.948328 -4.39689 0
M  V30 680 C 70.3016 2.78585 -3.40703 0
M  V30 681 H 67.4206 0.347129 -0.650131 0
M  V30 682 H 70.0626 0.228259 -1.88624 0
M  V30 683 H 68.2126 2.42902 -3.03201 0
M  V30 684 H 69.8846 0.343016 -4.60023 0
M  V30 685 H 68.1276 0.253314 -4.3306 0
M  V30 686 H 68.7986 1.57543 -5.29041 0
M  V30 687 H 71.2746 2.26439 -3.49091 0
M  V30 688 H 70.1506 3.34988 -4.34826 0
M  V30 689 H 70.4116 3.55825 -2.62375 0
M  V30 690 N 69.4707 1.49531 0.497807 0
M  V30 691 C 70.3807 1.69176 1.62532 0
M  V30 692 C 71.3967 0.5744 1.64246 0
M  V30 693 O 72.5727 0.849497 1.82608 0
M  V30 694 C 69.6377 1.75695 2.98885 0
M  V30 695 C 68.6987 2.9929 3.07773 0
M  V30 696 C 67.9317 3.05488 4.37622 0
M  V30 697 O 68.1547 2.19192 5.26603 0
M  V30 698 O 67.0887 3.9798 4.51548 0
M  V30 699 H 70.9147 2.647 1.48887 0
M  V30 700 H 68.4997 1.3331 0.674441 0
M  V30 701 H 70.3817 1.82317 3.79919 0
M  V30 702 H 69.0567 0.8335 3.12785 0
M  V30 703 H 67.9637 2.98183 2.25915 0
M  V30 704 H 69.2967 3.91125 2.98801 0
M  V30 705 N 70.9488 -0.749086 1.3866 0
M  V30 706 C 72.3598 -1.32664 1.31366 0
M  V30 707 C 72.7108 -1.96179 -0.028484 0
M  V30 708 O 71.8358 -1.9537 -0.93057 0
M  V30 709 C 72.4308 -2.41219 2.37905 0
M  V30 710 C 70.9898 -2.94684 2.34176 0
M  V30 711 C 70.1368 -1.68108 2.20533 0
M  V30 712 H 73.0878 -0.547628 1.48952 0
M  V30 713 H 73.1088 -3.21268 2.0388 0
M  V30 714 H 72.6208 -1.94962 3.35576 0
M  V30 715 H 70.7218 -3.45258 1.401 0
M  V30 716 H 70.8348 -3.48757 3.2849 0
M  V30 717 H 69.1988 -1.91907 1.67463 0
M  V30 718 H 69.9818 -1.23923 3.20153 0
M  V30 719 N 72.4269 -1.23603 -0.977757 0
M  V30 720 C 73.6749 -1.06759 -1.71601 0
M  V30 721 C 73.9959 0.395929 -1.90938 0
M  V30 722 O 73.2659 1.28356 -1.47992 0
M  V30 723 H 71.8459 -0.392062 -0.635843 0
M  V30 724 H 74.5079 -1.55362 -1.1768 0
M  V30 725 H 73.6039 -1.55763 -2.70452 0
M  V30 726 N 73.905 1.17692 -1.04816 0
M  V30 727 C 74.835 2.23777 -0.666791 0
M  V30 728 C 75.816 1.66796 0.33361 0
M  V30 729 O 77.001 1.93039 0.212042 0
M  V30 730 C 74.131 3.47281 -0.0367933 0
M  V30 731 C 73.085 4.17059 -0.961546 0
M  V30 732 C 72.411 5.34342 -0.195626 0
M  V30 733 C 73.711 4.69713 -2.28402 0
M  V30 734 H 75.405 2.55933 -1.55367 0
M  V30 735 H 72.951 1.23019 -0.748484 0
M  V30 736 H 74.904 4.20706 0.241775 0
M  V30 737 H 73.628 3.14381 0.885004 0
M  V30 738 H 72.287 3.45541 -1.22462 0
M  V30 739 H 71.935 4.97692 0.728816 0
M  V30 740 H 71.635 5.81966 -0.811775 0
M  V30 741 H 73.159 6.10553 0.0757473 0
M  V30 742 H 74.573 5.34794 -2.06563 0
M  V30 743 H 72.97 5.279 -2.8538 0
M  V30 744 H 74.04 3.86726 -2.92525 0
M  V30 745 N 75.3831 0.828654 1.34056 0
M  V30 746 C 76.2931 0.256725 2.33191 0
M  V30 747 C 77.3091 -0.611898 1.62886 0
M  V30 748 O 78.4851 -0.51844 1.94613 0
M  V30 749 C 75.5501 -0.567238 3.42028 0
M  V30 750 C 74.6111 0.324458 4.28072 0
M  V30 751 C 73.8441 -0.460274 5.31712 0
M  V30 752 O 74.0671 -1.693 5.44696 0
M  V30 753 O 73.0011 0.160391 6.01686 0
M  V30 754 H 76.8271 1.07739 2.83947 0
M  V30 755 H 74.4121 0.59093 1.37217 0
M  V30 756 H 76.2941 -1.03582 4.08471 0
M  V30 757 H 74.9691 -1.36513 2.93506 0
M  V30 758 H 73.8761 0.840659 3.64532 0
M  V30 759 H 75.2091 1.08685 4.8005 0
M  V30 760 N 76.8612 -1.46375 0.584142 0
M  V30 761 C 77.8242 -2.28784 -0.138108 0
M  V30 762 C 78.8242 -1.38471 -0.817462 0
M  V30 763 O 80.0142 -1.60833 -0.669199 0
M  V30 764 C 77.1462 -3.18892 -1.20503 0
M  V30 765 H 78.3392 -2.94117 0.586127 0
M  V30 766 H 75.8922 -1.52509 0.342171 0
M  V30 767 H 76.6272 -2.58309 -1.96079 0
M  V30 768 H 76.4122 -3.85388 -0.722384 0
M  V30 769 H 77.9022 -3.80914 -1.71155 0
M  V30 770 N 78.3393 -0.321999 -1.54275 0
M  V30 771 C 79.2693 0.537411 -2.27231 0
M  V30 772 C 80.2503 1.12064 -1.27968 0
M  V30 773 O 81.4353 1.14606 -1.56777 0
M  V30 774 C 78.5653 1.69919 -3.02894 0
M  V30 775 C 77.5193 1.24534 -4.09482 0
M  V30 776 C 76.8453 2.49394 -4.72977 0
M  V30 777 C 78.1453 0.361335 -5.21049 0
M  V30 778 H 79.8393 -0.0711406 -2.99315 0
M  V30 779 H 77.3853 -0.0356555 -1.43956 0
M  V30 780 H 79.3383 2.30668 -3.52662 0
M  V30 781 H 78.0623 2.33431 -2.28424 0
M  V30 782 H 76.7213 0.660782 -3.60596 0
M  V30 783 H 76.3693 3.11265 -3.95124 0
M  V30 784 H 76.0693 2.19718 -5.44975 0
M  V30 785 H 77.5933 3.10908 -5.25517 0
M  V30 786 H 79.0073 0.875072 -5.66582 0
M  V30 787 H 77.4043 0.157428 -5.99893 0
M  V30 788 H 78.4743 -0.60822 -4.8107 0
M  V30 789 N 79.8174 1.5752 -0.0501392 0
M  V30 790 C 80.7474 2.14502 0.922566 0
M  V30 791 C 81.7284 1.06642 1.3252 0
M  V30 792 O 82.9134 1.34577 1.4001 0
M  V30 793 C 80.0434 2.68916 2.19776 0
M  V30 794 C 78.9974 3.8175 1.93523 0
M  V30 795 C 78.3234 4.22677 3.27487 0
M  V30 796 C 79.6234 5.06932 1.25765 0
M  V30 797 H 81.3174 2.9603 0.447952 0
M  V30 798 H 78.8634 1.42401 0.214024 0
M  V30 799 H 80.8164 3.07419 2.88222 0
M  V30 800 H 79.5404 1.84578 2.69441 0
M  V30 801 H 78.1994 3.43718 1.27489 0
M  V30 802 H 77.8474 3.35291 3.74952 0
M  V30 803 H 77.5474 4.98725 3.1072 0
M  V30 804 H 79.0714 4.63779 3.97166 0
M  V30 805 H 80.4854 5.42888 1.84244 0
M  V30 806 H 78.8824 5.88116 1.19328 0
M  V30 807 H 79.9524 4.84337 0.233536 0
M  V30 808 N 81.2955 -0.223234 1.56011 0
M  V30 809 C 82.2275 -1.30006 1.88762 0
M  V30 810 C 83.2405 -1.43129 0.775746 0
M  V30 811 O 84.4295 -1.44057 1.05403 0
M  V30 812 C 81.5295 -2.67589 2.07965 0
M  V30 813 C 80.7025 -2.76434 3.38973 0
M  V30 814 C 79.7615 -3.95019 3.47629 0
M  V30 815 O 78.7875 -3.83436 4.20672 0
M  V30 816 N 79.9895 -5.09249 2.78649 0
M  V30 817 H 82.7545 -1.02238 2.81722 0
M  V30 818 H 80.3155 -0.413278 1.56536 0
M  V30 819 H 82.3075 -3.45297 2.11073 0
M  V30 820 H 80.8775 -2.87964 1.21638 0
M  V30 821 H 80.0975 -1.85216 3.47978 0
M  V30 822 H 81.3855 -2.79313 4.25278 0
M  V30 823 H 80.7835 -5.21556 2.19081 0
M  V30 824 H 79.3405 -5.85007 2.8742 0
M  V30 825 N 82.7736 -1.49793 -0.48987 0
M  V30 826 C 83.7056 -1.63413 -1.60713 0
M  V30 827 C 84.7186 -0.516329 -1.54395 0
M  V30 828 O 85.9076 -0.788812 -1.60125 0
M  V30 829 C 83.0076 -1.58516 -2.99543 0
M  V30 830 C 82.1806 -2.86016 -3.30928 0
M  V30 831 C 81.2396 -2.74018 -4.49222 0
M  V30 832 O 80.2656 -3.47964 -4.50455 0
M  V30 833 N 81.4676 -1.86309 -5.4979 0
M  V30 834 H 84.2326 -2.59777 -1.49452 0
M  V30 835 H 81.7936 -1.47022 -0.677955 0
M  V30 836 H 83.7856 -1.48128 -3.76617 0
M  V30 837 H 82.3556 -0.69965 -3.0467 0
M  V30 838 H 81.5756 -3.10672 -2.42645 0
M  V30 839 H 82.8636 -3.70521 -3.487 0
M  V30 840 H 82.2616 -1.2551 -5.51601 0
M  V30 841 H 80.8186 -1.81837 -6.25922 0
M  V30 842 N 84.2517 0.741722 -1.39055 0
M  V30 843 C 85.4997 1.49818 -1.35643 0
M  V30 844 C 85.8207 1.94938 0.0491642 0
M  V30 845 O 85.0907 1.68505 0.999141 0
M  V30 846 H 83.6707 0.555755 -0.499144 0
M  V30 847 H 86.3327 0.880957 -1.73854 0
M  V30 848 H 85.4287 2.38348 -2.01486 0
M  V30 849 N 85.7298 1.2412 0.971189 0
M  V30 850 C 87.1458 1.00584 1.23916 0
M  V30 851 C 87.3458 -0.287481 1.99439 0
M  V30 852 O 86.4018 -1.00454 2.31658 0
M  V30 853 C 87.7148 2.21864 2.0297 0
M  V30 854 C 89.2628 2.26452 2.16076 0
M  V30 855 C 89.7378 3.47343 2.98524 0
M  V30 856 N 91.2288 3.47639 3.06107 0
M  V30 857 C 91.9638 4.37837 3.70251 0
M  V30 858 N 91.4598 5.38286 4.36142 0
M  V30 859 N 93.2528 4.25558 3.67228 0
M  V30 860 H 85.4038 2.07236 0.465499 0
M  V30 861 H 87.6668 0.909236 0.268315 0
M  V30 862 H 87.3728 3.15771 1.54861 0
M  V30 863 H 87.2468 2.23698 3.03709 0
M  V30 864 H 89.6338 1.33078 2.6339 0
M  V30 865 H 89.7148 2.28645 1.14696 0
M  V30 866 H 89.3588 4.41029 2.51905 0
M  V30 867 H 89.2888 3.42393 4.00093 0
M  V30 868 H 91.7798 2.74966 2.59233 0
M  V30 869 H 92.0928 6.03352 4.82894 0
M  V30 870 H 90.4378 5.42176 4.34822 0
M  V30 871 H 93.6288 3.46322 3.14927 0
M  V30 872 H 93.8018 4.96054 4.16935 0
M  V30 873 N 87.2079 -1.17134 1.05439 0
M  V30 874 C 88.1399 -2.2078 0.615539 0
M  V30 875 C 89.1529 -1.59584 -0.322001 0
M  V30 876 O 90.3419 -1.78133 -0.114344 0
M  V30 877 C 87.4419 -3.38691 -0.118938 0
M  V30 878 C 86.6149 -4.29454 0.829924 0
M  V30 879 C 85.6739 -5.26024 0.136258 0
M  V30 880 O 84.6999 -5.63952 0.77115 0
M  V30 881 N 85.9019 -5.69487 -1.1254 0
M  V30 882 H 88.6669 -2.59052 1.50705 0
M  V30 883 H 86.2279 -1.32058 0.936603 0
M  V30 884 H 88.2199 -4.00329 -0.593179 0
M  V30 885 H 86.7899 -2.98996 -0.91215 0
M  V30 886 H 86.0099 -3.65211 1.48373 0
M  V30 887 H 87.2979 -4.86984 1.47392 0
M  V30 888 H 86.6959 -5.4075 -1.6615 0
M  V30 889 H 85.2529 -6.33257 -1.54366 0
M  V30 890 N 88.686 -0.835752 -1.33615 0
M  V30 891 C 89.914 -0.443344 -2.02094 0
M  V30 892 C 90.329 0.954522 -1.62894 0
M  V30 893 O 89.686 1.61982 -0.840723 0
M  V30 894 C 89.737 -0.550775 -3.5728 0
M  V30 895 O 89.458 -1.89356 -3.95065 0
M  V30 896 C 90.959 -0.154919 -4.43029 0
M  V30 897 H 88.179 -0.176359 -0.647409 0
M  V30 898 H 90.723 -1.12746 -1.70612 0
M  V30 899 H 88.878 0.0853997 -3.87306 0
M  V30 900 H 89.292 -1.87687 -4.89769 0
M  V30 901 H 90.766 -0.281144 -5.51284 0
M  V30 902 H 91.243 0.902863 -4.2982 0
M  V30 903 H 91.849 -0.765404 -4.18356 0
M  V30 904 N 90.1641 1.46063 -0.591896 0
M  V30 905 C 91.4121 2.01938 -0.0808391 0
M  V30 906 C 91.7331 1.46475 1.28725 0
M  V30 907 O 91.0031 0.652944 1.84698 0
M  V30 908 H 89.5831 0.746516 -0.0268938 0
M  V30 909 H 92.2451 1.79055 -0.769752 0
M  V30 910 H 91.3411 3.12094 -0.0187578 0
M  V30 911 N 91.6422 0.330177 1.54103 0
M  V30 912 C 93.0582 -0.0222371 1.59585 0
M  V30 913 C 93.2582 -1.49902 1.34654 0
M  V30 914 O 92.3142 -2.25592 1.13421 0
M  V30 915 C 93.6272 0.401932 2.98002 0
M  V30 916 C 95.1752 0.353145 3.11001 0
M  V30 917 C 95.6502 0.752576 4.51775 0
M  V30 918 N 97.1412 0.706239 4.57784 0
M  V30 919 C 97.8762 0.987417 5.64834 0
M  V30 920 N 97.3722 1.33607 6.79795 0
M  V30 921 N 99.1652 0.91254 5.54643 0
M  V30 922 H 91.3162 1.29228 1.68564 0
M  V30 923 H 93.5792 0.525906 0.78875 0
M  V30 924 H 93.2852 1.4311 3.21267 0
M  V30 925 H 93.1592 -0.229699 3.765 0
M  V30 926 H 95.5462 -0.666822 2.87467 0
M  V30 927 H 95.6272 1.0198 2.34593 0
M  V30 928 H 95.2712 1.77049 4.76042 0
M  V30 929 H 95.2012 0.0635409 5.26562 0
M  V30 930 H 97.6922 0.44889 3.75224 0
M  V30 931 H 98.0052 1.53582 7.57385 0
M  V30 932 H 96.3502 1.37439 6.81275 0
M  V30 933 H 99.5412 0.639601 4.6371 0
M  V30 934 H 99.7142 1.13503 6.37982 0
M  V30 935 N 93.1203 -1.57491 0.0584922 0
M  V30 936 C 94.0503 -2.14988 -0.911178 0
M  V30 937 C 95.0313 -1.07343 -1.31952 0
M  V30 938 O 96.2163 -1.35318 -1.39294 0
M  V30 939 C 93.3463 -2.70078 -2.18347 0
M  V30 940 C 92.3003 -3.82771 -1.91495 0
M  V30 941 C 91.6263 -4.24408 -3.25241 0
M  V30 942 C 92.9263 -5.07592 -1.23075 0
M  V30 943 H 94.6203 -2.96263 -0.432246 0
M  V30 944 H 92.1663 -1.42512 -0.206469 0
M  V30 945 H 94.1193 -3.08943 -2.86587 0
M  V30 946 H 92.8433 -1.86005 -2.68458 0
M  V30 947 H 91.5023 -3.44389 -1.25664 0
M  V30 948 H 91.1503 -3.37275 -3.73168 0
M  V30 949 H 90.8503 -5.00366 -3.08071 0
M  V30 950 H 92.3743 -4.65879 -3.94701 0
M  V30 951 H 93.7883 -5.43857 -1.81362 0
M  V30 952 H 92.1853 -5.88741 -1.16207 0
M  V30 953 H 93.2553 -4.84454 -0.207847 0
M  V30 954 N 94.5984 0.214957 -1.56127 0
M  V30 955 C 95.8234 0.95924 -1.83884 0
M  V30 956 C 96.2484 1.7689 -0.639644 0
M  V30 957 O 95.6064 1.76566 0.411601 0
M  V30 958 C 95.6544 1.84723 -3.09693 0
M  V30 959 O 94.7584 2.94346 -2.8885 0
M  V30 960 H 94.0994 0.27125 -0.606069 0
M  V30 961 H 96.6294 0.226276 -2.03345 0
M  V30 962 H 96.6394 2.25576 -3.39969 0
M  V30 963 H 95.3144 1.25218 -3.96602 0
M  V30 964 H 93.8914 2.57391 -2.69823 0
M  V30 965 N 96.0765 1.50051 0.48192 0
M  V30 966 C 97.3245 1.60181 1.23234 0
M  V30 967 C 97.6455 0.299176 1.92691 0
M  V30 968 O 96.9155 -0.682708 1.83619 0
M  V30 969 H 95.4955 0.590232 0.457859 0
M  V30 970 H 98.1575 1.86775 0.556881 0
M  V30 971 H 97.2535 2.40753 1.98607 0
M  V30 972 N 97.5546 -0.734337 1.39446 0
M  V30 973 C 98.7826 -1.52358 1.39981 0
M  V30 974 C 99.1976 -1.88799 -0.0054975 0
M  V30 975 O 98.5546 -1.54146 -0.976998 0
M  V30 976 C 98.6056 -2.81072 2.27333 0
M  V30 977 O 98.3266 -2.46178 3.62392 0
M  V30 978 C 99.8276 -3.75096 2.36259 0
M  V30 979 H 97.0476 -0.470806 0.478103 0
M  V30 980 H 99.5916 -0.907339 1.83269 0
M  V30 981 H 97.7466 -3.39026 1.87457 0
M  V30 982 H 98.1606 -3.28866 4.08592 0
M  V30 983 H 99.6346 -4.62305 3.01626 0
M  V30 984 H 100.112 -4.16892 1.38194 0
M  V30 985 H 100.718 -3.23061 2.76608 0
M  V30 986 N 99.0327 -1.24633 -0.964593 0
M  V30 987 C 100.261 -1.11501 -1.74285 0
M  V30 988 C 100.676 0.332165 -1.85855 0
M  V30 989 O 100.033 1.22903 -1.34911 0
M  V30 990 C 100.084 -1.75258 -3.16175 0
M  V30 991 O 99.8047 -3.14318 -3.05182 0
M  V30 992 C 101.306 -1.67776 -4.10324 0
M  V30 993 H 98.5257 -0.389407 -0.546446 0
M  V30 994 H 101.07 -1.64801 -1.21083 0
M  V30 995 H 99.2247 -1.25954 -3.66353 0
M  V30 996 H 99.6387 -3.4551 -3.94618 0
M  V30 997 H 101.113 -2.17064 -5.0753 0
M  V30 998 H 101.59 -0.639584 -4.34518 0
M  V30 999 H 102.196 -2.16522 -3.66058 0
M  V30 1000 N 100.511 1.16574 -1.06058 0
M  V30 1001 C 101.788 1.83048 -0.689416 0
M  V30 1002 C 102.168 1.94122 0.829443 0
M  V30 1003 O 101.516 1.48249 1.7388 0
M  V30 1004 C 101.726 3.20186 -1.38859 0
M  V30 1005 C 103.074 3.95989 -1.53226 0
M  V30 1006 O 104.098 3.29696 -1.3483 0
M  V30 1007 O 102.957 5.14813 -1.83384 0
M  V30 1008 H 100.051 0.790258 -0.243764 0
M  V30 1009 H 102.597 1.23797 -1.16071 0
M  V30 1010 H 101.369 3.07146 -2.4244 0
M  V30 1011 H 100.992 3.87112 -0.907216 0
M  V30 1012 N 101.989 0.842826 1.3317 0
M  V30 1013 C 103.236 0.440447 1.97652 0
M  V30 1014 C 103.564 -1.00123 1.6675 0
M  V30 1015 O 102.819 -1.7155 0.941761 0
M  V30 1016 C 103.118 0.612607 3.52111 0
M  V30 1017 C 102.784 2.02297 4.02972 0
M  V30 1018 C 101.446 2.40874 4.16573 0
M  V30 1019 C 103.798 2.94402 4.30089 0
M  V30 1020 C 101.126 3.70852 4.54627 0
M  V30 1021 C 103.478 4.23865 4.69597 0
M  V30 1022 C 102.142 4.62392 4.81404 0
M  V30 1023 H 101.412 0.161171 0.72326 0
M  V30 1024 H 104.059 1.07061 1.58777 0
M  V30 1025 H 102.364 -0.100849 3.9167 0
M  V30 1026 H 104.061 0.2815 4.00011 0
M  V30 1027 H 100.651 1.71338 3.92863 0
M  V30 1028 H 104.835 2.65835 4.19101 0
M  V30 1029 H 100.091 4.00501 4.61962 0
M  V30 1030 H 104.265 4.95306 4.89536 0
M  V30 1031 H 101.892 5.63154 5.10648 0
M  V30 1032 N 103.467 -1.45747 0.599634 0
M  V30 1033 C 104.414 -2.30467 -0.123849 0
M  V30 1034 C 105.384 -1.41632 -0.86774 0
M  V30 1035 O 106.569 -1.70568 -0.855056 0
M  V30 1036 C 103.709 -3.26402 -1.12051 0
M  V30 1037 C 102.822 -4.3034 -0.37832 0
M  V30 1038 C 101.957 -5.13389 -1.364 0
M  V30 1039 C 100.996 -6.09061 -0.609171 0
M  V30 1040 N 100.133 -6.84918 -1.54374 0
M  V30 1041 H 104.973 -2.91802 0.604627 0
M  V30 1042 H 102.51 -1.43797 0.309972 0
M  V30 1043 H 104.468 -3.80482 -1.7114 0
M  V30 1044 H 103.098 -2.66839 -1.8165 0
M  V30 1045 H 102.15 -3.78984 0.327929 0
M  V30 1046 H 103.462 -4.98354 0.210997 0
M  V30 1047 H 102.616 -5.7183 -2.02719 0
M  V30 1048 H 101.355 -4.45376 -1.98725 0
M  V30 1049 H 100.36 -5.49758 0.0676979 0
M  V30 1050 H 101.585 -6.79099 0.00891991 0
M  V30 1051 H 99.531 -6.19601 -2.15478 0
M  V30 1052 H 99.448 -7.49254 -1.00766 0
M  V30 1053 H 100.716 -7.47906 -2.19676 0
M  V30 1054 N 104.945 -0.338344 -1.53925 0
M  V30 1055 C 105.892 0.520845 -2.24846 0
M  V30 1056 C 106.862 1.09976 -1.24477 0
M  V30 1057 O 108.047 1.13735 -1.53196 0
M  V30 1058 C 105.187 1.6685 -3.02084 0
M  V30 1059 C 104.3 1.11739 -4.17299 0
M  V30 1060 C 103.435 2.23193 -4.82036 0
M  V30 1061 C 102.474 1.65407 -5.89328 0
M  V30 1062 N 101.611 2.70582 -6.47866 0
M  V30 1063 H 106.451 -0.0904881 -2.97863 0
M  V30 1064 H 103.988 -0.0564282 -1.46992 0
M  V30 1065 H 105.946 2.34407 -3.45122 0
M  V30 1066 H 104.576 2.2509 -2.31375 0
M  V30 1067 H 103.628 0.332919 -3.7894 0
M  V30 1068 H 104.94 0.654677 -4.94485 0
M  V30 1069 H 104.094 2.98626 -5.28117 0
M  V30 1070 H 102.833 2.72807 -4.04262 0
M  V30 1071 H 101.838 0.884779 -5.42634 0
M  V30 1072 H 103.063 1.16652 -6.69006 0
M  V30 1073 H 101.009 3.1946 -5.72959 0
M  V30 1074 H 100.926 2.28917 -7.20509 0
M  V30 1075 H 102.194 3.45799 -6.98601 0
M  V30 1076 N 106.423 1.57458 -0.0668435 0
M  V30 1077 C 107.386 2.11323 0.887422 0
M  V30 1078 C 108.386 1.03618 1.22964 0
M  V30 1079 O 109.576 1.29626 1.16373 0
M  V30 1080 C 106.708 2.61048 2.19242 0
M  V30 1081 H 107.901 2.96942 0.420194 0
M  V30 1082 H 105.454 1.55239 0.181793 0
M  V30 1083 H 106.189 1.78868 2.70512 0
M  V30 1084 H 105.974 3.39769 1.95702 0
M  V30 1085 H 107.464 3.02814 2.87565 0
M  V30 1086 N 107.901 -0.206675 1.56239 0
M  V30 1087 C 109.147 -0.930218 1.80208 0
M  V30 1088 C 109.48 -1.83387 0.638981 0
M  V30 1089 O 108.755 -1.91119 -0.361066 0
M  V30 1090 C 109.038 -1.75641 3.1436 0
M  V30 1091 C 108.891 -0.878257 4.41142 0
M  V30 1092 C 110.21 -2.73129 3.45092 0
M  V30 1093 H 107.329 -0.336742 0.655571 0
M  V30 1094 H 109.971 -0.198222 1.88963 0
M  V30 1095 H 108.121 -2.38048 3.07027 0
M  V30 1096 H 109.793 -0.269787 4.6051 0
M  V30 1097 H 108.036 -0.184385 4.33408 0
M  V30 1098 H 108.707 -1.49106 5.3148 0
M  V30 1099 H 111.183 -2.20856 3.52649 0
M  V30 1100 H 110.059 -3.28028 4.40101 0
M  V30 1101 H 110.32 -3.51606 2.68003 0
M  V30 1102 N 109.379 -1.50304 -0.473955 0
M  V30 1103 C 110.309 -1.71886 -1.58042 0
M  V30 1104 C 111.29 -0.567799 -1.60344 0
M  V30 1105 O 112.475 -0.806623 -1.76656 0
M  V30 1106 C 109.605 -1.81036 -2.96384 0
M  V30 1107 C 108.559 -2.962 -3.08949 0
M  V30 1108 C 107.885 -2.9049 -4.48909 0
M  V30 1109 C 109.185 -4.36752 -2.86434 0
M  V30 1110 H 110.879 -2.64527 -1.40234 0
M  V30 1111 H 108.425 -1.27295 -0.673201 0
M  V30 1112 H 110.378 -1.94719 -3.73714 0
M  V30 1113 H 109.102 -0.850147 -3.15341 0
M  V30 1114 H 107.761 -2.82164 -2.3405 0
M  V30 1115 H 107.409 -1.92321 -4.64781 0
M  V30 1116 H 107.109 -3.67802 -4.58253 0
M  V30 1117 H 108.633 -3.06218 -5.28264 0
M  V30 1118 H 110.047 -4.5133 -3.53517 0
M  V30 1119 H 108.444 -5.15493 -3.07225 0
M  V30 1120 H 109.514 -4.49321 -1.82316 0
M  V30 1121 N 110.857 0.726932 -1.39834 0
M  V30 1122 C 112.134 1.47902 -1.28001 0
M  V30 1123 C 112.514 2.1083 0.106789 0
M  V30 1124 O 111.862 1.99242 1.11869 0
M  V30 1125 C 112.072 2.52392 -2.41038 0
M  V30 1126 C 113.42 3.18546 -2.80737 0
M  V30 1127 O 114.444 2.62708 -2.40547 0
M  V30 1128 O 113.303 4.19604 -3.50135 0
M  V30 1129 H 110.397 0.657163 -0.502062 0
M  V30 1130 H 112.943 0.760071 -1.51727 0
M  V30 1131 H 111.715 2.04329 -3.33715 0
M  V30 1132 H 111.338 3.31837 -2.19021 0
M  V30 1133 N 112.336 1.25143 0.95797 0
M  V30 1134 C 113.561 1.12521 1.74223 0
M  V30 1135 C 113.986 -0.317402 1.85403 0
M  V30 1136 O 113.344 -1.2299 1.33204 0
M  V30 1137 C 113.392 1.78062 3.1357 0
M  V30 1138 O 112.496 1.058 3.98598 0
M  V30 1139 H 111.837 0.39304 0.535178 0
M  V30 1140 H 114.367 1.65641 1.201 0
M  V30 1141 H 114.377 1.84213 3.64046 0
M  V30 1142 H 113.052 2.83021 3.04749 0
M  V30 1143 H 111.629 1.07506 3.57067 0
M  V30 1144 N 113.814 -1.1601 1.06675 0
M  V30 1145 C 115.091 -1.82679 0.699114 0
M  V30 1146 C 115.471 -1.94559 -0.819137 0
M  V30 1147 O 114.819 -1.49169 -1.73092 0
M  V30 1148 C 115.029 -3.19445 1.40555 0
M  V30 1149 C 116.377 -3.95171 1.55323 0
M  V30 1150 O 117.401 -3.28976 1.36577 0
M  V30 1151 O 116.26 -5.13833 1.86112 0
M  V30 1152 H 113.354 -0.788954 0.247951 0
M  V30 1153 H 115.9 -1.23179 1.16726 0
M  V30 1154 H 114.672 -3.05856 2.44065 0
M  V30 1155 H 114.295 -3.86625 0.927733 0
M  V30 1156 N 115.292 -0.849877 -1.32721 0
M  V30 1157 C 116.538 -0.451591 -1.97708 0
M  V30 1158 C 116.871 0.989175 -1.6712 0
M  V30 1159 O 116.146 1.69334 -0.956891 0
M  V30 1160 C 116.429 -0.685598 -3.53513 0
M  V30 1161 C 116.282 -2.17444 -3.93749 0
M  V30 1162 C 117.601 -0.138874 -4.39881 0
M  V30 1163 H 114.72 -0.16555 -0.718166 0
M  V30 1164 H 117.362 -1.06742 -1.57182 0
M  V30 1165 H 115.512 -0.161416 -3.88165 0
M  V30 1166 H 117.184 -2.76433 -3.693 0
M  V30 1167 H 115.427 -2.65476 -3.43081 0
M  V30 1168 H 116.098 -2.28888 -5.02309 0
M  V30 1169 H 118.574 -0.587068 -4.11938 0
M  V30 1170 H 117.45 -0.332213 -5.47894 0
M  V30 1171 H 117.711 0.95806 -4.31594 0
M  V30 1172 N 116.77 1.45427 -0.607355 0
M  V30 1173 C 117.995 2.07124 -0.107006 0
M  V30 1174 C 118.42 1.44906 1.19933 0
M  V30 1175 O 117.778 0.541687 1.73019 0
M  V30 1176 C 117.826 3.60595 0.0194119 0
M  V30 1177 O 116.93 3.98285 1.0697 0
M  V30 1178 H 116.271 0.659868 -0.0739597 0
M  V30 1179 H 118.801 1.86683 -0.837297 0
M  V30 1180 H 118.811 4.07419 0.2177 0
M  V30 1181 H 117.486 4.05266 -0.934453 0
M  V30 1182 H 116.063 3.63133 0.847889 0
M  V30 1183 N 118.248 0.346503 1.53744 0
M  V30 1184 C 119.495 -0.249104 2.00962 0
M  V30 1185 C 119.823 -1.5032 1.23426 0
M  V30 1186 O 119.078 -1.93217 0.310761 0
M  V30 1187 C 119.377 -0.605809 3.52228 0
M  V30 1188 C 119.043 0.551747 4.47512 0
M  V30 1189 C 117.705 0.86941 4.73281 0
M  V30 1190 C 120.057 1.32818 5.03993 0
M  V30 1191 C 117.385 1.96582 5.52786 0
M  V30 1192 C 119.737 2.41486 5.84694 0
M  V30 1193 C 118.401 2.73808 6.08757 0
M  V30 1194 H 117.671 -0.0911538 0.735372 0
M  V30 1195 H 120.318 0.475027 1.85515 0
M  V30 1196 H 118.623 -1.4107 3.65522 0
M  V30 1197 H 120.32 -1.07858 3.86222 0
M  V30 1198 H 116.91 0.294102 4.2759 0
M  V30 1199 H 121.094 1.09602 4.84047 0
M  V30 1200 H 116.35 2.22045 5.69654 0
M  V30 1201 H 120.524 3.02078 6.27473 0
M  V30 1202 H 118.151 3.58892 6.7015 0
M  V30 1203 N 119.726 -1.57421 0.075193 0
M  V30 1204 C 120.975 -1.92794 -0.592731 0
M  V30 1205 C 121.288 -0.957478 -1.70563 0
M  V30 1206 O 122.494 -1.20417 -2.43335 0
M  V30 1207 C 120.95 -3.42495 -1.10569 0
M  V30 1208 C 120.558 -4.47994 -0.0236121 0
M  V30 1209 C 122.302 -3.86864 -1.74748 0
M  V30 1210 C 120.209 -5.88829 -0.550803 0
M  V30 1211 H 119.139 -0.719591 -0.225177 0
M  V30 1212 H 121.79 -1.82902 0.147978 0
M  V30 1213 H 120.172 -3.47471 -1.89947 0
M  V30 1214 H 121.346 -4.54637 0.751099 0
M  V30 1215 H 119.661 -4.13113 0.522159 0
M  V30 1216 H 122.258 -4.8947 -2.15229 0
M  V30 1217 H 122.601 -3.24417 -2.60882 0
M  V30 1218 H 123.134 -3.84504 -1.01986 0
M  V30 1219 H 119.873 -6.54929 0.273457 0
M  V30 1220 H 119.393 -5.85698 -1.29296 0
M  V30 1221 H 121.072 -6.38811 -1.02613 0
M  V30 1222 N 121.204 0.198386 -1.56346 0
M  V30 1223 C 122.444 0.92609 -1.82217 0
M  V30 1224 C 122.808 1.80584 -0.652195 0
M  V30 1225 O 124.009 2.56907 -0.790716 0
M  V30 1226 C 122.28 1.72354 -3.13096 0
M  V30 1227 S 123.839 2.50371 -3.6036 0
M  V30 1228 H 120.657 0.310677 -0.639532 0
M  V30 1229 H 123.259 0.189755 -1.94577 0
M  V30 1230 H 121.963 1.0678 -3.96265 0
M  V30 1231 H 121.494 2.50175 -3.03605 0
M  V30 1232 H 123.509 3.74488 -3.25535 0
M  V30 1233 N 122.682 1.50554 0.465978 0
M  V30 1234 C 123.928 1.62038 1.21949 0
M  V30 1235 C 124.261 0.322116 1.9151 0
M  V30 1236 O 123.536 -0.676723 1.82348 0
M  V30 1237 C 123.819 2.80421 2.25912 0
M  V30 1238 C 123.672 4.20144 1.60622 0
M  V30 1239 C 124.991 2.94354 3.27176 0
M  V30 1240 H 122.11 0.589752 0.441998 0
M  V30 1241 H 124.752 1.82956 0.51257 0
M  V30 1242 H 122.902 2.62717 2.86203 0
M  V30 1243 H 124.574 4.49449 1.03889 0
M  V30 1244 H 122.817 4.24165 0.909211 0
M  V30 1245 H 123.488 4.98914 2.36196 0
M  V30 1246 H 125.964 3.10578 2.76913 0
M  V30 1247 H 124.84 3.788 3.97242 0
M  V30 1248 H 125.101 2.05186 3.916 0
M  V30 1249 N 124.16 -0.719506 1.40217 0
M  V30 1250 C 125.408 -1.47641 1.3801 0
M  V30 1251 C 125.729 -1.94992 -0.018145 0
M  V30 1252 O 124.999 -1.70073 -0.972207 0
M  V30 1253 H 123.579 -0.547744 0.507923 0
M  V30 1254 H 126.241 -0.853187 1.75233 0
M  V30 1255 H 125.337 -2.35112 2.05253 0
M  V30 1256 N 125.638 -1.25649 -0.95132 0
M  V30 1257 C 126.866 -1.13343 -1.73092 0
M  V30 1258 C 127.281 0.312434 -1.86197 0
M  V30 1259 O 126.638 1.21465 -1.36207 0
M  V30 1260 C 126.689 -1.78602 -3.14299 0
M  V30 1261 O 126.41 -3.17537 -3.01831 0
M  V30 1262 C 127.911 -1.72119 -4.08522 0
M  V30 1263 H 125.131 -0.395181 -0.542285 0
M  V30 1264 H 127.675 -1.66076 -1.19328 0
M  V30 1265 H 125.83 -1.29832 -3.64996 0
M  V30 1266 H 126.244 -3.49676 -3.90931 0
M  V30 1267 H 127.718 -2.22435 -5.052 0
M  V30 1268 H 128.195 -0.685635 -4.33815 0
M  V30 1269 H 128.801 -2.20393 -3.63741 0
M  V30 1270 N 127.117 1.15442 -1.07289 0
M  V30 1271 C 128.528 1.67803 -0.818475 0
M  V30 1272 C 128.879 1.8489 0.656507 0
M  V30 1273 O 128.004 1.55176 1.50829 0
M  V30 1274 C 128.599 3.04805 -1.47917 0
M  V30 1275 C 127.158 3.54245 -1.27229 0
M  V30 1276 C 126.305 2.29986 -1.54925 0
M  V30 1277 H 129.256 0.996646 -1.23502 0
M  V30 1278 H 129.277 3.69702 -0.90005 0
M  V30 1279 H 128.789 2.92336 -2.55267 0
M  V30 1280 H 126.89 3.71956 -0.21899 0
M  V30 1281 H 127.003 4.35723 -1.99203 0
M  V30 1282 H 125.367 2.35496 -0.970242 0
M  V30 1283 H 126.15 2.20105 -2.63455 0
M  V30 1284 N 128.595 0.856903 1.32268 0
M  V30 1285 C 129.82 0.474569 2.01897 0
M  V30 1286 C 130.245 -0.921766 1.63967 0
M  V30 1287 O 129.603 -1.60589 0.84148 0
M  V30 1288 C 129.651 0.623799 3.55164 0
M  V30 1289 O 128.755 -0.342459 4.10976 0
M  V30 1290 H 128.096 0.190422 0.63611 0
M  V30 1291 H 130.626 1.15672 1.68764 0
M  V30 1292 H 130.636 0.512169 4.04773 0
M  V30 1293 H 129.311 1.64202 3.82113 0
M  V30 1294 H 127.888 -0.18688 3.72431 0
M  V30 1295 N 130.073 -1.45103 0.615059 0
M  V30 1296 C 131.02 -2.30586 -0.0993978 0
M  V30 1297 C 131.99 -1.42544 -0.852669 0
M  V30 1298 O 133.175 -1.71465 -0.836917 0
M  V30 1299 C 130.315 -3.27572 -1.08583 0
M  V30 1300 C 129.428 -4.30717 -0.332656 0
M  V30 1301 C 128.563 -5.14807 -1.30947 0
M  V30 1302 C 127.602 -6.09673 -0.544538 0
M  V30 1303 N 126.739 -6.86517 -1.47101 0
M  V30 1304 H 131.579 -2.91144 0.635542 0
M  V30 1305 H 129.116 -1.4346 0.325206 0
M  V30 1306 H 131.074 -3.82276 -1.67095 0
M  V30 1307 H 129.704 -2.68751 -1.78809 0
M  V30 1308 H 128.756 -3.78615 0.368107 0
M  V30 1309 H 130.068 -4.98102 0.263842 0
M  V30 1310 H 129.222 -5.73948 -1.96643 0
M  V30 1311 H 127.961 -4.47458 -1.9399 0
M  V30 1312 H 126.966 -5.49656 0.126003 0
M  V30 1313 H 128.191 -6.79052 0.080947 0
M  V30 1314 H 126.137 -6.21851 -2.08895 0
M  V30 1315 H 126.054 -7.50281 -0.928137 0
M  V30 1316 H 127.322 -7.50194 -2.11731 0
M  V30 1317 N 131.551 -0.354651 -1.53558 0
M  V30 1318 C 132.498 0.496968 -2.25386 0
M  V30 1319 C 133.468 1.0865 -1.25636 0
M  V30 1320 O 134.653 1.12104 -1.54394 0
M  V30 1321 C 131.793 1.63637 -3.03837 0
M  V30 1322 C 130.906 1.07307 -4.18461 0
M  V30 1323 C 130.041 2.18068 -4.84376 0
M  V30 1324 C 129.08 1.59147 -5.91049 0
M  V30 1325 N 128.217 2.63695 -6.50699 0
M  V30 1326 H 133.057 -0.122075 -2.9775 0
M  V30 1327 H 130.594 -0.0720154 -1.46924 0
M  V30 1328 H 132.552 2.30734 -3.47589 0
M  V30 1329 H 131.182 2.22623 -2.33749 0
M  V30 1330 H 130.234 0.292708 -3.79272 0
M  V30 1331 H 131.546 0.602193 -4.95152 0
M  V30 1332 H 130.7 2.93007 -5.31255 0
M  V30 1333 H 129.439 2.68504 -4.07133 0
M  V30 1334 H 128.444 0.827175 -5.43542 0
M  V30 1335 H 129.669 1.09549 -6.70206 0
M  V30 1336 H 127.615 3.13365 -5.76315 0
M  V30 1337 H 127.532 2.21263 -7.22896 0
M  V30 1338 H 128.8 3.3837 -7.02229 0
M  V30 1339 N 133.029 1.57378 -0.0835403 0
M  V30 1340 C 133.977 2.14602 0.89714 0
M  V30 1341 C 134.971 1.08589 1.30018 0
M  V30 1342 O 136.177 1.26952 1.27606 0
M  V30 1343 H 132.552 0.686346 0.3073 0
M  V30 1344 H 134.523 2.95845 0.38969 0
M  V30 1345 C 133.272 2.73188 2.15089 0
M  V30 1346 H 132.595 3.54442 1.84962 0
M  V30 1347 H 134.035 3.1681 2.81793 0
M  V30 1348 C 132.494 1.68517 2.91725 0
M  V30 1349 O 133.024 1.11718 3.85852 0
M  V30 1350 N 131.23 1.39277 2.55049 0
M  V30 1351 H 130.777 1.85655 1.78577 0
M  V30 1352 H 130.735 0.694791 3.06627 0
M  V30 1353 N 134.507 -0.190092 1.56449 0
M  V30 1354 C 135.755 -0.907908 1.80559 0
M  V30 1355 C 136.076 -1.83583 0.657438 0
M  V30 1356 O 135.346 -1.93203 -0.323924 0
M  V30 1357 H 133.926 -0.338247 0.666032 0
M  V30 1358 H 136.588 -0.194403 1.93928 0
M  V30 1359 H 135.684 -1.49604 2.73907 0
M  V30 1360 N 135.985 -1.50799 -0.457987 0
M  V30 1361 C 137.262 -1.52968 -1.21902 0
M  V30 1362 C 137.642 -0.281906 -2.09209 0
M  V30 1363 O 136.99 0.734076 -2.16388 0
M  V30 1364 C 137.2 -2.8326 -2.03875 0
M  V30 1365 C 138.548 -3.34425 -2.6162 0
M  V30 1366 O 139.572 -2.8467 -2.14106 0
M  V30 1367 O 138.431 -4.21188 -3.48228 0
M  V30 1368 H 135.525 -0.614129 -0.553873 0
M  V30 1369 H 138.071 -1.63098 -0.468739 0
M  V30 1370 H 136.843 -3.65543 -1.39621 0
M  V30 1371 H 136.466 -2.76195 -2.8601 0
M  V30 1372 N 137.463 0.71206 -1.40597 0
M  V30 1373 C 138.393 1.83889 -1.43899 0
M  V30 1374 C 139.374 1.67442 -0.299504 0
M  V30 1375 O 140.559 1.87421 -0.508624 0
M  V30 1376 C 137.689 3.21877 -1.30431 0
M  V30 1377 C 136.643 3.53002 -2.42019 0
M  V30 1378 C 135.969 4.90172 -2.13626 0
M  V30 1379 C 137.269 3.53643 -3.84362 0
M  V30 1380 H 138.963 1.81383 -2.38203 0
M  V30 1381 H 136.509 0.871237 -1.14654 0
M  V30 1382 H 138.462 4.00404 -1.31357 0
M  V30 1383 H 137.186 3.24968 -0.326049 0
M  V30 1384 H 135.845 2.76818 -2.40349 0
M  V30 1385 H 135.493 4.89869 -1.14182 0
M  V30 1386 H 135.193 5.11962 -2.88389 0
M  V30 1387 H 136.717 5.71028 -2.1624 0
M  V30 1388 H 138.131 4.22203 -3.87837 0
M  V30 1389 H 136.528 3.86961 -4.58673 0
M  V30 1390 H 137.598 2.52954 -4.13693 0
M  V30 1391 N 138.941 1.26152 0.944643 0
M  V30 1392 C 140.218 1.02247 1.66748 0
M  V30 1393 C 140.598 -0.448202 2.06287 0
M  V30 1394 O 139.946 -1.42779 1.78399 0
M  V30 1395 C 140.156 1.96788 2.88228 0
M  V30 1396 C 141.504 2.25201 3.59958 0
M  V30 1397 O 142.528 1.94626 2.98327 0
M  V30 1398 O 141.387 2.77242 4.70956 0
M  V30 1399 H 138.481 0.388517 0.730057 0
M  V30 1400 H 141.027 1.37348 0.99668 0
M  V30 1401 H 139.799 2.96047 2.55875 0
M  V30 1402 H 139.422 1.62145 3.63035 0
M  V30 1403 N 140.419 -1.14872 1.07899 0
M  V30 1404 C 141.349 -2.2193 0.725887 0
M  V30 1405 C 142.33 -1.67622 -0.28927 0
M  V30 1406 O 143.515 -1.93533 -0.160787 0
M  V30 1407 C 140.645 -3.47061 0.128856 0
M  V30 1408 C 139.599 -4.14363 1.07178 0
M  V30 1409 C 138.925 -5.33636 0.337229 0
M  V30 1410 C 140.225 -4.63492 2.40775 0
M  V30 1411 H 141.919 -2.51724 1.62097 0
M  V30 1412 H 139.465 -1.20991 0.780838 0
M  V30 1413 H 141.418 -4.21199 -0.130147 0
M  V30 1414 H 140.142 -3.16617 -0.80134 0
M  V30 1415 H 138.801 -3.42173 1.3158 0
M  V30 1416 H 138.449 -4.99449 -0.596606 0
M  V30 1417 H 138.149 -5.79609 0.965788 0
M  V30 1418 H 139.673 -6.10539 0.0861567 0
M  V30 1419 H 141.087 -5.2913 2.20669 0
M  V30 1420 H 139.484 -5.20148 2.99276 0
M  V30 1421 H 140.554 -3.78834 3.02676 0
M  V30 1422 N 141.898 -0.863906 -1.31812 0
M  V30 1423 C 143.146 -0.470904 -1.96537 0
M  V30 1424 C 143.467 0.978771 -1.68657 0
M  V30 1425 O 142.737 1.6853 -0.998717 0
M  V30 1426 H 141.317 -0.171148 -0.72713 0
M  V30 1427 H 143.979 -1.10236 -1.60729 0
M  V30 1428 H 143.075 -0.623616 -3.05806 0
M  V30 1429 N 143.376 1.44774 -0.622745 0
M  V30 1430 C 144.606 2.06187 -0.130532 0
M  V30 1431 C 145.014 1.46547 1.19669 0
M  V30 1432 O 144.357 0.579636 1.74316 0
M  V30 1433 C 144.419 3.59437 0.0674983 0
M  V30 1434 C 144.083 4.41496 -1.18026 0
M  V30 1435 C 145.08 4.75512 -2.102 0
M  V30 1436 C 142.765 4.82007 -1.41333 0
M  V30 1437 C 144.759 5.48912 -3.23998 0
M  V30 1438 C 142.446 5.55157 -2.55429 0
M  V30 1439 C 143.444 5.88528 -3.46589 0
M  V30 1440 O 143.132 6.60191 -4.58697 0
M  V30 1441 H 142.864 0.672045 -0.0730162 0
M  V30 1442 H 145.418 1.86768 -0.854802 0
M  V30 1443 H 143.648 3.77314 0.846825 0
M  V30 1444 H 145.337 4.02642 0.513209 0
M  V30 1445 H 146.103 4.4476 -1.93425 0
M  V30 1446 H 141.982 4.55457 -0.712709 0
M  V30 1447 H 145.526 5.74877 -3.95174 0
M  V30 1448 H 141.423 5.85324 -2.72151 0
M  V30 1449 H 142.191 6.78654 -4.57571 0
M  V30 1450 N 144.854 0.36279 1.53368 0
M  V30 1451 C 146.103 -0.22888 2.00397 0
M  V30 1452 C 146.416 -1.50096 1.25421 0
M  V30 1453 O 147.622 -2.17106 1.63025 0
M  V30 1454 C 146.078 -0.458417 3.56969 0
M  V30 1455 C 145.686 0.798877 4.4082 0
M  V30 1456 C 147.43 -1.00789 4.12361 0
M  V30 1457 C 145.337 0.539078 5.88938 0
M  V30 1458 H 144.267 -0.089305 0.748693 0
M  V30 1459 H 146.918 0.481099 1.77081 0
M  V30 1460 H 145.3 -1.22959 3.76427 0
M  V30 1461 H 146.474 1.57262 4.33134 0
M  V30 1462 H 144.789 1.27137 3.96516 0
M  V30 1463 H 147.386 -1.21754 5.20653 0
M  V30 1464 H 147.729 -1.9692 3.66781 0
M  V30 1465 H 148.262 -0.296961 3.9669 0
M  V30 1466 H 145.001 1.47064 6.3879 0
M  V30 1467 H 144.521 -0.196222 5.99479 0
M  V30 1468 H 146.2 0.163542 6.46793 0
M  V30 1469 N 146.332 -1.57332 0.0918853 0
M  V30 1470 C 147.242 -2.17368 -0.882505 0
M  V30 1471 C 148.258 -1.14226 -1.31257 0
M  V30 1472 O 149.434 -1.46582 -1.38115 0
M  V30 1473 C 146.499 -2.73962 -2.12476 0
M  V30 1474 C 145.56 -3.92048 -1.7492 0
M  V30 1475 C 144.793 -4.45933 -2.93223 0
M  V30 1476 O 145.016 -3.98764 -4.07852 0
M  V30 1477 O 143.95 -5.36999 -2.71875 0
M  V30 1478 H 147.776 -3.01031 -0.40172 0
M  V30 1479 H 145.361 -1.48813 -0.132291 0
M  V30 1480 H 147.243 -3.10147 -2.85283 0
M  V30 1481 H 145.918 -1.93347 -2.59613 0
M  V30 1482 H 144.825 -3.6068 -0.993025 0
M  V30 1483 H 146.158 -4.74017 -1.32548 0
M  V30 1484 N 147.81 0.181792 -1.56548 0
M  V30 1485 C 149.038 0.915947 -1.85521 0
M  V30 1486 C 149.453 1.76282 -0.676016 0
M  V30 1487 O 148.81 1.79012 0.355077 0
M  V30 1488 C 148.861 1.80126 -3.13427 0
M  V30 1489 O 148.582 0.988562 -4.26801 0
M  V30 1490 C 150.083 2.64597 -3.55673 0
M  V30 1491 H 147.303 0.26661 -0.61576 0
M  V30 1492 H 149.847 0.185039 -2.03661 0
M  V30 1493 H 148.002 2.48563 -2.97145 0
M  V30 1494 H 148.416 1.59308 -4.99721 0
M  V30 1495 H 149.89 3.2235 -4.48101 0
M  V30 1496 H 150.367 3.38958 -2.79292 0
M  V30 1497 H 150.973 2.0151 -3.74532 0
M  V30 1498 N 149.288 1.51039 0.449983 0
M  V30 1499 C 150.534 1.63322 1.20223 0
M  V30 1500 C 150.867 0.34241 1.91158 0
M  V30 1501 O 150.142 -0.657344 1.83055 0
M  V30 1502 C 150.425 2.82801 2.22925 0
M  V30 1503 C 150.278 4.21823 1.56157 0
M  V30 1504 C 151.597 2.97807 3.24035 0
M  V30 1505 H 148.716 0.594407 0.435718 0
M  V30 1506 H 151.358 1.83489 0.493136 0
M  V30 1507 H 149.508 2.65738 2.834 0
M  V30 1508 H 151.18 4.50526 0.991162 0
M  V30 1509 H 149.423 4.25105 0.864172 0
M  V30 1510 H 150.094 5.01391 2.30891 0
M  V30 1511 H 152.57 3.13497 2.73603 0
M  V30 1512 H 151.446 3.82992 3.93202 0
M  V30 1513 H 151.707 2.09328 3.89402 0
M  V30 1514 N 150.766 -0.704594 1.40972 0
M  V30 1515 C 152.006 -1.47691 1.41304 0
M  V30 1516 C 152.37 -1.91992 0.0178582 0
M  V30 1517 O 153.571 -2.68599 -0.103996 0
M  V30 1518 C 151.842 -2.66254 2.38419 0
M  V30 1519 S 153.401 -3.55516 2.57204 0
M  V30 1520 H 150.219 -0.504808 0.500689 0
M  V30 1521 H 152.821 -0.822962 1.77335 0
M  V30 1522 H 151.525 -2.31897 3.38603 0
M  V30 1523 H 151.056 -3.3655 2.03711 0
M  V30 1524 H 153.071 -4.61115 1.83268 0
M  V30 1525 N 152.244 -1.26651 -0.937939 0
M  V30 1526 C 153.66 -1.03834 -1.21205 0
M  V30 1527 C 153.86 0.234502 -2.00131 0
M  V30 1528 O 152.916 0.942767 -2.3424 0
M  V30 1529 C 154.229 -2.27167 -1.97017 0
M  V30 1530 C 155.777 -2.32101 -2.09996 0
M  V30 1531 C 156.252 -3.55136 -2.8921 0
M  V30 1532 N 157.743 -3.55632 -2.96783 0
M  V30 1533 C 158.478 -4.475 -3.58512 0
M  V30 1534 N 157.974 -5.4966 -4.21717 0
M  V30 1535 N 159.767 -4.35145 -3.55816 0
M  V30 1536 H 151.918 -2.08398 -0.410391 0
M  V30 1537 H 154.181 -0.916031 -0.244114 0
M  V30 1538 H 153.887 -3.19765 -1.46434 0
M  V30 1539 H 153.761 -2.31672 -2.97671 0
M  V30 1540 H 156.148 -1.40015 -2.59769 0
M  V30 1541 H 156.229 -2.31605 -1.08594 0
M  V30 1542 H 155.873 -4.47553 -2.40123 0
M  V30 1543 H 155.803 -3.5288 -3.90875 0
M  V30 1544 H 158.294 -2.81743 -2.51852 0
M  V30 1545 H 158.607 -6.15943 -4.66727 0
M  V30 1546 H 156.952 -5.53514 -4.20294 0
M  V30 1547 H 160.143 -3.5455 -3.05634 0
M  V30 1548 H 160.316 -5.06934 -4.03636 0
M  V30 1549 N 153.722 1.14298 -1.08507 0
M  V30 1550 C 154.632 2.23027 -0.727753 0
M  V30 1551 C 155.648 1.71952 0.26619 0
M  V30 1552 O 156.824 2.011 0.109882 0
M  V30 1553 C 153.889 3.46403 -0.143541 0
M  V30 1554 C 152.95 4.12413 -1.19223 0
M  V30 1555 C 152.183 5.29899 -0.635798 0
M  V30 1556 O 152.406 5.67796 0.544393 0
M  V30 1557 O 151.34 5.85717 -1.38634 0
M  V30 1558 H 155.166 2.55945 -1.63481 0
M  V30 1559 H 152.751 1.22248 -0.858817 0
M  V30 1560 H 154.633 4.21018 0.179404 0
M  V30 1561 H 153.308 3.15206 0.736659 0
M  V30 1562 H 152.215 3.39667 -1.56772 0
M  V30 1563 H 153.548 4.47718 -2.04474 0
M  V30 1564 N 155.201 0.870884 1.31352 0
M  V30 1565 C 156.45 0.478408 1.95944 0
M  V30 1566 C 156.763 -0.974493 1.69597 0
M  V30 1567 O 157.969 -1.47316 2.28058 0
M  V30 1568 C 156.425 0.804609 3.50791 0
M  V30 1569 C 156.033 2.27433 3.85977 0
M  V30 1570 C 157.777 0.480648 4.2177 0
M  V30 1571 C 155.684 2.5429 5.33939 0
M  V30 1572 H 154.614 0.175175 0.733369 0
M  V30 1573 H 157.265 1.06391 1.4951 0
M  V30 1574 H 155.647 0.148347 3.95722 0
M  V30 1575 H 156.821 2.97373 3.52002 0
M  V30 1576 H 155.136 2.56442 3.28065 0
M  V30 1577 H 157.733 0.658519 5.30629 0
M  V30 1578 H 158.076 -0.578979 4.12254 0
M  V30 1579 H 158.609 1.09349 3.82476 0
M  V30 1580 H 155.348 3.58939 5.48491 0
M  V30 1581 H 154.868 1.88945 5.69263 0
M  V30 1582 H 156.547 2.39066 6.01212 0
M  V30 1583 N 156.679 -1.44442 0.630414 0
M  V30 1584 C 157.927 -2.01653 0.134351 0
M  V30 1585 C 158.248 -1.49836 -1.24796 0
M  V30 1586 O 157.518 -0.701684 -1.82902 0
M  V30 1587 H 156.098 -0.74554 0.0466769 0
M  V30 1588 H 158.76 -1.76952 0.816955 0
M  V30 1589 H 157.856 -3.11935 0.101498 0
M  V30 1590 N 158.157 -0.370918 -1.53173 0
M  V30 1591 C 159.404 0.217102 -2.01333 0
M  V30 1592 C 159.732 1.48338 -1.25802 0
M  V30 1593 O 158.987 1.92698 -0.34146 0
M  V30 1594 C 159.286 0.549696 -3.53147 0
M  V30 1595 C 158.952 -0.622872 -4.46577 0
M  V30 1596 C 157.614 -0.944595 -4.71838 0
M  V30 1597 C 159.966 -1.40819 -5.01816 0
M  V30 1598 C 157.294 -2.05351 -5.49589 0
M  V30 1599 C 159.646 -2.50757 -5.80778 0
M  V30 1600 C 158.31 -2.83458 -6.04324 0
M  V30 1601 H 157.58 0.0794431 -0.736729 0
M  V30 1602 H 160.227 -0.504481 -1.84736 0
M  V30 1603 H 158.532 1.35237 -3.6772 0
M  V30 1604 H 160.229 1.017 -3.87889 0
M  V30 1605 H 156.819 -0.36209 -4.27068 0
M  V30 1606 H 161.003 -1.17289 -4.82242 0
M  V30 1607 H 156.259 -2.3108 -5.6605 0
M  V30 1608 H 160.433 -3.12022 -6.22588 0
M  V30 1609 H 158.06 -3.69508 -6.64355 0
M  V30 1610 N 159.635 1.57281 -0.100228 0
M  V30 1611 C 160.598 2.13158 0.842398 0
M  V30 1612 C 161.598 1.06202 1.20738 0
M  V30 1613 O 162.788 1.32066 1.13597 0
M  V30 1614 C 159.92 2.65639 2.13655 0
M  V30 1615 H 161.113 2.97766 0.357114 0
M  V30 1616 H 158.666 1.5559 0.148823 0
M  V30 1617 H 159.401 1.84566 2.66657 0
M  V30 1618 H 159.186 3.43844 1.88451 0
M  V30 1619 H 160.676 3.08846 2.81077 0
M  V30 1620 N 161.113 -0.173488 1.56642 0
M  V30 1621 C 162.362 -0.888758 1.81063 0
M  V30 1622 C 162.675 -1.83506 0.67712 0
M  V30 1623 O 163.881 -2.59254 0.806206 0
M  V30 1624 C 162.337 -1.63091 3.20826 0
M  V30 1625 C 161.945 -0.728357 4.4204 0
M  V30 1626 C 163.689 -2.33454 3.54541 0
M  V30 1627 C 161.596 -1.47062 5.72823 0
M  V30 1628 H 160.526 -0.335618 0.675186 0
M  V30 1629 H 163.177 -0.141712 1.82952 0
M  V30 1630 H 161.559 -2.42263 3.13248 0
M  V30 1631 H 162.733 0.0262449 4.60793 0
M  V30 1632 H 161.048 -0.134492 4.16183 0
M  V30 1633 H 163.645 -2.89578 4.49498 0
M  V30 1634 H 163.988 -3.08687 2.79317 0
M  V30 1635 H 164.521 -1.61227 3.63663 0
M  V30 1636 H 161.26 -0.760658 6.51072 0
M  V30 1637 H 160.78 -2.1986 5.58052 0
M  V30 1638 H 162.459 -2.01868 6.14702 0
M  V30 1639 N 162.591 -1.51276 -0.441967 0
M  V30 1640 C 164.007 -1.39349 -0.778083 0
M  V30 1641 C 164.207 -0.472212 -1.95889 0
M  V30 1642 O 163.263 0.0743551 -2.5239 0
M  V30 1643 C 164.576 -2.81292 -1.0628 0
M  V30 1644 C 166.124 -2.9041 -1.16751 0
M  V30 1645 C 166.599 -4.33251 -1.48519 0
M  V30 1646 N 168.09 -4.36336 -1.55453 0
M  V30 1647 C 168.825 -5.43885 -1.81596 0
M  V30 1648 N 168.321 -6.61601 -2.05562 0
M  V30 1649 N 170.114 -5.3136 -1.8334 0
M  V30 1650 H 162.265 -2.09729 0.335774 0
M  V30 1651 H 164.528 -0.943925 0.0878028 0
M  V30 1652 H 164.234 -3.50678 -0.267905 0
M  V30 1653 H 164.108 -3.20334 -1.99163 0
M  V30 1654 H 166.495 -2.21225 -1.95304 0
M  V30 1655 H 166.576 -2.54871 -0.217801 0
M  V30 1656 H 166.22 -5.02984 -0.704958 0
M  V30 1657 H 166.15 -4.66299 -2.44689 0
M  V30 1658 H 168.641 -3.51466 -1.38853 0
M  V30 1659 H 168.954 -7.39361 -2.24867 0
M  V30 1660 H 167.299 -6.64725 -2.02894 0
M  V30 1661 H 170.49 -4.38382 -1.64132 0
M  V30 1662 H 170.663 -6.15258 -2.03377 0
M  V30 1663 N 164.069 0.697108 -1.41344 0
M  V30 1664 C 164.979 1.84088 -1.45427 0
M  V30 1665 C 165.995 1.70545 -0.34501 0
M  V30 1666 O 167.171 1.92488 -0.592492 0
M  V30 1667 C 164.236 3.20056 -1.33286 0
M  V30 1668 C 163.297 3.45718 -2.54514 0
M  V30 1669 C 162.53 4.75199 -2.42944 0
M  V30 1670 O 162.753 5.51579 -1.45318 0
M  V30 1671 O 161.687 5.0161 -3.32672 0
M  V30 1672 H 165.513 1.836 -2.41919 0
M  V30 1673 H 163.098 0.849966 -1.22866 0
M  V30 1674 H 164.98 4.01236 -1.28794 0
M  V30 1675 H 163.655 3.2123 -0.39909 0
M  V30 1676 H 162.562 2.64474 -2.64583 0
M  V30 1677 H 163.895 3.49356 -3.46715 0
M  V30 1678 N 165.547 1.27147 0.931209 0
M  V30 1679 C 166.494 1.09568 2.03134 0
M  V30 1680 C 167.464 -0.00222433 1.661 0
M  V30 1681 O 168.649 0.159439 1.90133 0
M  V30 1682 C 165.789 0.745231 3.36957 0
M  V30 1683 C 164.902 1.92041 3.86968 0
M  V30 1684 C 164.037 1.51216 5.09222 0
M  V30 1685 C 163.076 2.65504 5.5152 0
M  V30 1686 N 162.213 2.25291 6.64972 0
M  V30 1687 H 167.053 2.03708 2.17502 0
M  V30 1688 H 164.59 1.01411 1.06556 0
M  V30 1689 H 166.548 0.522878 4.1391 0
M  V30 1690 H 165.178 -0.159202 3.22407 0
M  V30 1691 H 164.23 2.25541 3.06326 0
M  V30 1692 H 165.542 2.77787 4.1429 0
M  V30 1693 H 164.696 1.25084 5.93666 0
M  V30 1694 H 163.435 0.625749 4.83669 0
M  V30 1695 H 162.44 2.92354 4.65628 0
M  V30 1696 H 163.665 3.54761 5.7907 0
M  V30 1697 H 161.611 1.39098 6.41083 0
M  V30 1698 H 161.528 3.04577 6.91931 0
M  V30 1699 H 162.796 2.02398 7.52765 0
M  V30 1700 N 167.025 -1.13721 1.09112 0
M  V30 1701 C 168.25 -1.89314 0.847053 0
M  V30 1702 C 168.675 -1.78416 -0.595774 0
M  V30 1703 O 168.033 -1.12942 -1.41823 0
M  V30 1704 C 168.081 -3.3701 1.28284 0
M  V30 1705 O 167.185 -4.10054 0.439267 0
M  V30 1706 H 166.526 -0.588745 0.307044 0
M  V30 1707 H 169.056 -1.43902 1.45442 0
M  V30 1708 H 169.066 -3.87834 1.26683 0
M  V30 1709 H 167.741 -3.4426 2.33363 0
M  V30 1710 H 166.318 -3.69266 0.519312 0
M  V30 1711 N 168.503 -0.877838 -1.30888 0
M  V30 1712 C 169.413 -0.343096 -2.32078 0
M  V30 1713 C 170.429 0.551022 -1.65045 0
M  V30 1714 O 171.605 0.445854 -1.96403 0
M  V30 1715 C 168.67 0.439905 -3.43898 0
M  V30 1716 C 167.731 -0.483111 -4.26573 0
M  V30 1717 C 166.964 0.262616 -5.33053 0
M  V30 1718 O 167.187 1.48967 -5.50604 0
M  V30 1719 O 166.121 -0.383593 -6.00676 0
M  V30 1720 H 169.947 -1.18203 -2.79753 0
M  V30 1721 H 167.532 -0.64145 -1.34929 0
M  V30 1722 H 169.414 0.883504 -4.12034 0
M  V30 1723 H 168.089 1.25526 -2.98371 0
M  V30 1724 H 166.996 -0.975374 -3.61161 0
M  V30 1725 H 168.329 -1.26427 -4.75686 0
M  V30 1726 N 169.982 1.44106 -0.638065 0
M  V30 1727 C 171.398 1.56672 -0.304286 0
M  V30 1728 C 171.598 1.6244 1.19228 0
M  V30 1729 O 170.654 1.57121 1.9766 0
M  V30 1730 C 171.967 2.83503 -1.00231 0
M  V30 1731 C 173.515 2.97226 -0.981116 0
M  V30 1732 C 173.99 4.26868 -1.65974 0
M  V30 1733 N 175.481 4.33698 -1.62666 0
M  V30 1734 C 176.216 5.32745 -2.12063 0
M  V30 1735 N 175.712 6.38157 -2.6968 0
M  V30 1736 N 177.505 5.24299 -2.02651 0
M  V30 1737 H 169.656 1.38605 -1.60942 0
M  V30 1738 H 171.919 0.664661 -0.675965 0
M  V30 1739 H 171.625 2.85251 -2.0573 0
M  V30 1740 H 171.499 3.73251 -0.54439 0
M  V30 1741 H 173.886 2.95027 0.0654188 0
M  V30 1742 H 173.967 2.08808 -1.47759 0
M  V30 1743 H 173.611 4.29826 -2.70576 0
M  V30 1744 H 173.541 5.14156 -1.13804 0
M  V30 1745 H 176.032 3.58138 -1.20606 0
M  V30 1746 H 176.345 7.10029 -3.05087 0
M  V30 1747 H 174.69 6.38823 -2.73734 0
M  V30 1748 H 177.881 4.4086 -1.57353 0
M  V30 1749 H 178.054 6.01334 -2.41457 0
M  V30 1750 N 171.46 0.379036 1.52974 0
M  V30 1751 C 172.41 -0.477772 2.22938 0
M  V30 1752 C 173.394 -1.03792 1.22948 0
M  V30 1753 O 174.586 -0.965725 1.48333 0
M  V30 1754 C 171.715 -1.60994 3.03209 0
M  V30 1755 C 170.801 -1.06203 4.10587 0
M  V30 1756 N 171.192 -0.238214 5.05239 0
M  V30 1757 C 169.49 -1.33554 4.25534 0
M  V30 1758 C 170.191 0.0633235 5.81666 0
M  V30 1759 N 169.167 -0.537901 5.40932 0
M  V30 1760 H 172.969 0.158295 2.93473 0
M  V30 1761 H 170.483 0.187778 1.61311 0
M  V30 1762 H 172.48 -2.23607 3.5186 0
M  V30 1763 H 171.14 -2.24893 2.34207 0
M  V30 1764 H 172.151 0.123695 5.17752 0
M  V30 1765 H 168.828 -1.97632 3.6776 0
M  V30 1766 H 170.218 0.730161 6.67921 0
M  V30 1767 N 172.938 -1.57226 0.108567 0
M  V30 1768 C 174.166 -1.99179 -0.559954 0
M  V30 1769 C 174.581 -0.988022 -1.60884 0
M  V30 1770 O 173.938 0.0205512 -1.82488 0
M  V30 1771 C 173.989 -3.41159 -1.19552 0
M  V30 1772 O 173.71 -4.37694 -0.188577 0
M  V30 1773 C 175.211 -3.98188 -1.94837 0
M  V30 1774 H 172.431 -0.654228 -0.149088 0
M  V30 1775 H 174.975 -2.03598 0.19183 0
M  V30 1776 H 173.13 -3.37711 -1.89815 0
M  V30 1777 H 173.544 -5.20469 -0.649014 0
M  V30 1778 H 175.018 -4.99644 -2.34648 0
M  V30 1779 H 175.495 -3.3675 -2.81951 0
M  V30 1780 H 176.101 -4.0515 -1.2936 0
M  V30 1781 N 174.416 0.165178 -1.56732 0
M  V30 1782 C 175.662 0.882112 -1.82611 0
M  V30 1783 C 175.995 1.81628 -0.687378 0
M  V30 1784 O 175.27 1.92009 0.310267 0
M  V30 1785 C 175.553 1.67245 -3.18906 0
M  V30 1786 C 175.406 0.760987 -4.43316 0
M  V30 1787 C 176.725 2.63884 -3.52212 0
M  V30 1788 H 173.844 0.319242 -0.664269 0
M  V30 1789 H 176.486 0.148052 -1.89422 0
M  V30 1790 H 174.636 2.29824 -3.1323 0
M  V30 1791 H 176.308 0.147596 -4.61064 0
M  V30 1792 H 174.551 0.0694102 -4.33744 0
M  V30 1793 H 175.222 1.34962 -5.35247 0
M  V30 1794 H 177.698 2.11429 -3.58381 0
M  V30 1795 H 176.574 3.16245 -4.48643 0
M  V30 1796 H 176.835 3.44377 -2.77231 0
M  V30 1797 N 175.894 1.51508 0.433938 0
M  V30 1798 C 177.14 1.64588 1.18484 0
M  V30 1799 C 177.473 0.362666 1.90784 0
M  V30 1800 O 176.748 -0.637892 1.83742 0
M  V30 1801 C 177.031 2.85149 2.19913 0
M  V30 1802 C 176.884 4.23456 1.51674 0
M  V30 1803 C 178.203 3.01227 3.20858 0
M  V30 1804 H 175.322 0.598994 0.429389 0
M  V30 1805 H 177.964 1.84002 0.473647 0
M  V30 1806 H 176.114 2.68729 2.80566 0
M  V30 1807 H 177.786 4.51552 0.943322 0
M  V30 1808 H 176.029 4.25998 0.819035 0
M  V30 1809 H 176.7 5.03812 2.2556 0
M  V30 1810 H 179.176 3.16382 2.70263 0
M  V30 1811 H 178.052 3.87141 3.89118 0
M  V30 1812 H 178.313 2.13447 3.8716 0
M  V30 1813 N 177.372 -0.689602 1.41712 0
M  V30 1814 C 178.618 -1.45181 1.41599 0
M  V30 1815 C 178.951 -1.94181 0.0270081 0
M  V30 1816 O 178.226 -1.6993 -0.946265 0
M  V30 1817 C 178.509 -2.65945 2.42787 0
M  V30 1818 C 178.362 -2.22672 3.90816 0
M  V30 1819 C 179.681 -3.68149 2.41151 0
M  V30 1820 H 176.8 -0.526576 0.515642 0
M  V30 1821 H 179.442 -0.784947 1.73028 0
M  V30 1822 H 177.592 -3.2284 2.16116 0
M  V30 1823 H 179.264 -1.71058 4.28412 0
M  V30 1824 H 177.507 -1.54394 4.05395 0
M  V30 1825 H 178.178 -3.0935 4.57172 0
M  V30 1826 H 180.654 -3.2094 2.64834 0
M  V30 1827 H 179.53 -4.50248 3.13955 0
M  V30 1828 H 179.791 -4.18259 1.43221 0
M  V30 1829 N 178.85 -1.27639 -0.924453 0
M  V30 1830 C 180.266 -1.05113 -1.20097 0
M  V30 1831 C 180.466 0.213262 -2.00368 0
M  V30 1832 O 179.522 0.91787 -2.35226 0
M  V30 1833 C 180.835 -2.29244 -1.94596 0
M  V30 1834 C 182.383 -2.34315 -2.07522 0
M  V30 1835 C 182.858 -3.58183 -2.85427 0
M  V30 1836 N 184.349 -3.5876 -2.92994 0
M  V30 1837 C 185.084 -4.51277 -3.53746 0
M  V30 1838 N 184.58 -5.54102 -4.15863 0
M  V30 1839 N 186.373 -4.38894 -3.51181 0
M  V30 1840 H 178.524 -2.08821 -0.388264 0
M  V30 1841 H 180.787 -0.918568 -0.234385 0
M  V30 1842 H 180.493 -3.21301 -1.43034 0
M  V30 1843 H 180.367 -2.34816 -2.95197 0
M  V30 1844 H 182.754 -1.42762 -2.58269 0
M  V30 1845 H 182.835 -2.32744 -1.06131 0
M  V30 1846 H 182.479 -4.50074 -2.35363 0
M  V30 1847 H 182.409 -3.57006 -3.8711 0
M  V30 1848 H 184.9 -2.84398 -2.4885 0
M  V30 1849 H 185.213 -6.20859 -4.60168 0
M  V30 1850 H 183.558 -5.57941 -4.144 0
M  V30 1851 H 186.749 -3.57772 -3.01856 0
M  V30 1852 H 186.922 -5.11186 -3.98237 0
M  V30 1853 N 180.328 1.1314 -1.09713 0
M  V30 1854 C 181.553 1.88862 -0.857081 0
M  V30 1855 C 181.978 1.78729 0.586304 0
M  V30 1856 O 181.336 1.13692 1.41222 0
M  V30 1857 C 181.384 3.36325 -1.30069 0
M  V30 1858 O 180.488 4.09815 -0.461007 0
M  V30 1859 H 179.829 0.587108 -0.310162 0
M  V30 1860 H 182.359 1.43129 -1.46203 0
M  V30 1861 H 182.369 3.87157 -1.28738 0
M  V30 1862 H 181.044 3.43017 -2.35185 0
M  V30 1863 H 179.621 3.68986 -0.538888 0
M  V30 1864 N 181.806 0.884767 1.30421 0
M  V30 1865 C 183.034 0.518044 2.0031 0
M  V30 1866 C 183.449 -0.893408 1.66324 0
M  V30 1867 O 182.806 -1.5875 0.900262 0
M  V30 1868 C 182.857 0.682997 3.54989 0
M  V30 1869 O 182.578 2.03888 3.87764 0
M  V30 1870 C 184.079 0.31924 4.42149 0
M  V30 1871 H 181.299 0.200265 0.640418 0
M  V30 1872 H 183.843 1.19001 1.6631 0
M  V30 1873 H 181.998 0.0584052 3.87356 0
M  V30 1874 H 182.412 2.05735 4.82466 0
M  V30 1875 H 183.886 0.485555 5.4986 0
M  V30 1876 H 184.363 -0.742717 4.32875 0
M  V30 1877 H 184.969 0.920147 4.15227 0
M  V30 1878 N 183.284 -1.43765 0.645699 0
M  V30 1879 C 184.53 -2.02197 0.156271 0
M  V30 1880 C 184.863 -1.50776 -1.22393 0
M  V30 1881 O 184.138 -0.697771 -1.81553 0
M  V30 1882 C 184.421 -3.59749 0.158872 0
M  V30 1883 C 184.274 -4.21419 1.57245 0
M  V30 1884 C 185.593 -4.37149 -0.50879 0
M  V30 1885 H 182.712 -0.734694 0.0582602 0
M  V30 1886 H 185.354 -1.71157 0.824951 0
M  V30 1887 H 183.504 -3.86325 -0.410525 0
M  V30 1888 H 185.176 -4.059 2.19186 0
M  V30 1889 H 183.419 -3.78356 2.122 0
M  V30 1890 H 184.09 -5.30482 1.52619 0
M  V30 1891 H 186.566 -4.16093 -0.024412 0
M  V30 1892 H 185.442 -5.4683 -0.476213 0
M  V30 1893 H 185.703 -4.12839 -1.58165 0
M  V30 1894 N 184.763 -0.387143 -1.52771 0
M  V30 1895 C 185.693 0.440551 -2.29306 0
M  V30 1896 C 186.674 1.06535 -1.32606 0
M  V30 1897 O 187.859 1.07853 -1.61497 0
M  V30 1898 C 184.989 1.56919 -3.09829 0
M  V30 1899 C 183.943 1.07054 -4.14395 0
M  V30 1900 C 183.269 2.29109 -4.83129 0
M  V30 1901 C 184.569 0.140015 -5.22112 0
M  V30 1902 H 186.263 -0.198026 -2.98744 0
M  V30 1903 H 183.809 -0.09668 -1.43675 0
M  V30 1904 H 185.762 2.15503 -3.62128 0
M  V30 1905 H 184.486 2.23532 -2.3812 0
M  V30 1906 H 183.145 0.507247 -3.63074 0
M  V30 1907 H 182.793 2.94227 -4.0797 0
M  V30 1908 H 182.493 1.96406 -5.53804 0
M  V30 1909 H 184.017 2.88339 -5.38231 0
M  V30 1910 H 185.431 0.633978 -5.69784 0
M  V30 1911 H 183.828 -0.0971485 -6.00021 0
M  V30 1912 H 184.898 -0.811711 -4.78058 0
M  V30 1913 N 186.241 1.57166 -0.116904 0
M  V30 1914 C 187.652 1.82169 0.408809 0
M  V30 1915 C 188.003 1.03393 1.66746 0
M  V30 1916 O 187.128 0.269886 2.1471 0
M  V30 1917 C 187.723 3.30429 0.748466 0
M  V30 1918 C 186.282 3.5612 1.21882 0
M  V30 1919 C 185.429 2.76374 0.226452 0
M  V30 1920 H 188.38 1.5497 -0.342063 0
M  V30 1921 H 188.401 3.44943 1.60607 0
M  V30 1922 H 187.913 3.87737 -0.167784 0
M  V30 1923 H 186.014 3.04168 2.15204 0
M  V30 1924 H 186.127 4.64705 1.16559 0
M  V30 1925 H 184.491 2.44515 0.713063 0
M  V30 1926 H 185.274 3.3644 -0.682859 0
M  V30 1927 N 187.719 -0.156864 1.56817 0
M  V30 1928 C 188.967 -0.869404 1.82444 0
M  V30 1929 C 189.288 -1.82147 0.69623 0
M  V30 1930 O 188.558 -1.93847 -0.28287 0
M  V30 1931 H 187.138 -0.324043 0.673056 0
M  V30 1932 H 189.8 -0.153224 1.94297 0
M  V30 1933 H 188.896 -1.43761 2.77019 0
M  V30 1934 N 189.197 -1.51736 -0.425897 0
M  V30 1935 C 190.425 -1.68794 -1.1965 0
M  V30 1936 C 190.84 -0.390164 -1.84725 0
M  V30 1937 O 190.197 0.632376 -1.71194 0
M  V30 1938 C 190.248 -2.81174 -2.27208 0
M  V30 1939 O 189.969 -4.05925 -1.64793 0
M  V30 1940 C 191.47 -3.09599 -3.17275 0
M  V30 1941 H 188.69 -0.566128 -0.360194 0
M  V30 1942 H 191.234 -1.98211 -0.503249 0
M  V30 1943 H 189.389 -2.54324 -2.9223 0
M  V30 1944 H 189.803 -4.68423 -2.35967 0
M  V30 1945 H 191.277 -3.91786 -3.88854 0
M  V30 1946 H 191.754 -2.22468 -3.78688 0
M  V30 1947 H 192.36 -3.38151 -2.57941 0
M  V30 1948 N 190.675 0.682077 -1.42076 0
M  V30 1949 C 191.921 1.44428 -1.42367 0
M  V30 1950 C 192.254 1.94164 -0.0373056 0
M  V30 1951 O 191.529 1.70429 0.937239 0
M  V30 1952 C 191.812 2.64654 -2.44194 0
M  V30 1953 C 191.665 2.20596 -3.91991 0
M  V30 1954 C 192.984 3.66865 -2.431 0
M  V30 1955 H 190.103 0.523834 -0.518428 0
M  V30 1956 H 192.745 0.77576 -1.73442 0
M  V30 1957 H 190.895 3.2169 -2.17826 0
M  V30 1958 H 192.567 1.68783 -4.29313 0
M  V30 1959 H 190.81 1.52242 -4.06208 0
M  V30 1960 H 191.481 3.06921 -4.58807 0
M  V30 1961 H 193.957 3.19531 -2.66532 0
M  V30 1962 H 192.833 4.48577 -3.16339 0
M  V30 1963 H 193.094 4.17493 -1.45437 0
M  V30 1964 N 192.153 1.28127 0.917671 0
M  V30 1965 C 193.101 1.11569 2.04096 0
M  V30 1966 C 194.095 0.0360242 1.69362 0
M  V30 1967 O 195.301 0.194501 1.78946 0
M  V30 1968 H 191.676 0.344097 0.668656 0
M  V30 1969 H 193.647 2.06711 2.15205 0
M  V30 1970 C 192.396 0.790197 3.38602 0
M  V30 1971 H 191.719 1.61293 3.6582 0
M  V30 1972 H 193.159 0.714271 4.1794 0
M  V30 1973 C 191.618 -0.505897 3.3308 0
M  V30 1974 O 192.148 -1.53736 3.71117 0
M  V30 1975 N 190.354 -0.505193 2.86175 0
M  V30 1976 H 189.901 0.334621 2.55417 0
M  V30 1977 H 189.859 -1.37243 2.82863 0
M  V30 1978 N 193.631 -1.12557 1.10312 0
M  V30 1979 C 194.579 -2.20325 0.745629 0
M  V30 1980 C 195.573 -1.67429 -0.25763 0
M  V30 1981 O 196.779 -1.79612 -0.118132 0
M  V30 1982 H 193.154 -0.718118 0.223182 0
M  V30 1983 H 195.125 -2.47733 1.66346 0
M  V30 1984 C 193.874 -3.47168 0.192262 0
M  V30 1985 H 193.197 -3.88215 0.955475 0
M  V30 1986 H 194.637 -4.23995 -0.0198274 0
M  V30 1987 C 193.096 -3.19298 -1.07472 0
M  V30 1988 O 193.626 -3.3891 -2.15645 0
M  V30 1989 N 191.832 -2.73113 -0.992847 0
M  V30 1990 H 191.379 -2.57354 -0.112474 0
M  V30 1991 H 191.337 -2.54842 -1.84127 0
M  V30 1992 N 195.109 -0.891671 -1.2995 0
M  V30 1993 C 196.355 -0.514261 -1.96171 0
M  V30 1994 C 196.688 0.935506 -1.70182 0
M  V30 1995 O 195.963 1.66204 -1.01028 0
M  V30 1996 C 196.246 -0.797719 -3.51153 0
M  V30 1997 C 196.099 -2.2986 -3.86632 0
M  V30 1998 C 197.418 -0.278749 -4.39216 0
M  V30 1999 H 194.537 -0.188314 -0.712535 0
M  V30 2000 H 197.179 -1.11689 -1.53706 0
M  V30 2001 H 195.329 -0.284826 -3.87455 0
M  V30 2002 H 197.001 -2.88042 -3.60319 0
M  V30 2003 H 195.244 -2.76257 -3.34462 0
M  V30 2004 H 195.915 -2.44753 -4.94773 0
M  V30 2005 H 198.391 -0.717825 -4.09862 0
M  V30 2006 H 197.267 -0.506353 -5.46559 0
M  V30 2007 H 197.528 0.820266 -4.34424 0
M  V30 2008 N 196.587 1.43421 -0.653314 0
M  V30 2009 C 197.833 2.02111 -0.166992 0
M  V30 2010 C 198.166 1.51423 1.21592 0
M  V30 2011 O 197.441 0.707389 1.8118 0
M  V30 2012 C 197.724 3.5966 -0.177948 0
M  V30 2013 C 197.577 4.20579 -1.59478 0
M  V30 2014 C 198.896 4.37413 0.4856 0
M  V30 2015 H 196.015 0.734374 -0.0621557 0
M  V30 2016 H 198.657 1.70717 -0.834016 0
M  V30 2017 H 196.807 3.86537 0.390032 0
M  V30 2018 H 198.479 4.04732 -2.21336 0
M  V30 2019 H 196.722 3.77226 -2.14204 0
M  V30 2020 H 197.393 5.29665 -1.5543 0
M  V30 2021 H 199.869 4.161 0.00234528 0
M  V30 2022 H 198.745 5.47075 0.447207 0
M  V30 2023 H 199.006 4.13672 1.55974 0
M  V30 2024 N 198.065 0.39524 1.52563 0
M  V30 2025 C 199.314 -0.186321 2.00838 0
M  V30 2026 C 199.627 -1.47402 1.28577 0
M  V30 2027 O 200.833 -2.13599 1.67593 0
M  V30 2028 C 199.289 -0.382595 3.57861 0
M  V30 2029 C 198.897 0.892202 4.39026 0
M  V30 2030 C 200.641 -0.9202 4.14406 0
M  V30 2031 C 198.548 0.66388 5.87662 0
M  V30 2032 H 197.478 -0.0734041 0.750418 0
M  V30 2033 H 200.129 0.518552 1.76021 0
M  V30 2034 H 198.511 -1.14946 3.7895 0
M  V30 2035 H 199.685 1.66414 4.29701 0
M  V30 2036 H 198 1.35519 3.9373 0
M  V30 2037 H 200.597 -1.10683 5.23119 0
M  V30 2038 H 200.94 -1.89096 3.70875 0
M  V30 2039 H 201.473 -0.212751 3.97231 0
M  V30 2040 H 198.212 1.6058 6.35527 0
M  V30 2041 H 197.732 -0.0690193 5.9976 0
M  V30 2042 H 199.411 0.300699 6.46301 0
M  V30 2043 N 199.544 -1.57102 0.125237 0
M  V30 2044 C 200.955 -1.82384 -0.399142 0
M  V30 2045 C 201.306 -1.04276 -1.66195 0
M  V30 2046 O 200.431 -0.281269 -2.14564 0
M  V30 2047 C 201.026 -3.30821 -0.730932 0
M  V30 2048 C 199.585 -3.56762 -1.19992 0
M  V30 2049 C 198.732 -2.7649 -0.211792 0
M  V30 2050 H 201.683 -1.54786 0.350277 0
M  V30 2051 H 201.704 -3.4579 -1.58775 0
M  V30 2052 H 201.216 -3.87643 0.188345 0
M  V30 2053 H 199.317 -3.05305 -2.13588 0
M  V30 2054 H 199.43 -4.65317 -1.14093 0
M  V30 2055 H 197.794 -2.4489 -0.700085 0
M  V30 2056 H 198.577 -3.36073 0.700691 0
M  V30 2057 N 201.022 0.148545 -1.56898 0
M  V30 2058 C 201.952 1.18524 -2.01182 0
M  V30 2059 C 202.933 1.4489 -0.891123 0
M  V30 2060 O 204.118 1.55836 -1.15882 0
M  V30 2061 C 201.248 2.51879 -2.39112 0
M  V30 2062 C 200.202 2.40038 -3.54353 0
M  V30 2063 C 199.528 3.78089 -3.78091 0
M  V30 2064 C 200.828 1.88577 -4.87069 0
M  V30 2065 H 202.522 0.817029 -2.88036 0
M  V30 2066 H 200.068 0.391575 -1.38574 0
M  V30 2067 H 202.021 3.24627 -2.68692 0
M  V30 2068 H 200.745 2.90532 -1.49193 0
M  V30 2069 H 199.404 1.69742 -3.24936 0
M  V30 2070 H 199.052 4.14175 -2.85426 0
M  V30 2071 H 198.752 3.71028 -4.55645 0
M  V30 2072 H 200.276 4.52387 -4.10095 0
M  V30 2073 H 201.69 2.51117 -5.15377 0
M  V30 2074 H 200.087 1.9241 -5.68417 0
M  V30 2075 H 201.157 0.84136 -4.77545 0
M  V30 2076 N 202.5 1.5196 0.417844 0
M  V30 2077 C 203.749 1.6482 1.16264 0
M  V30 2078 C 204.062 0.379886 1.91876 0
M  V30 2079 O 205.268 0.388154 2.68711 0
M  V30 2080 C 203.724 2.91161 2.1155 0
M  V30 2081 C 203.332 4.25068 1.41495 0
M  V30 2082 C 205.076 3.13383 2.86341 0
M  V30 2083 C 202.983 5.42541 2.35379 0
M  V30 2084 H 201.913 0.613954 0.437694 0
M  V30 2085 H 204.564 1.78442 0.427871 0
M  V30 2086 H 202.946 2.71218 2.88543 0
M  V30 2087 H 204.12 4.55463 0.699263 0
M  V30 2088 H 202.435 4.0888 0.787792 0
M  V30 2089 H 205.032 3.98324 3.5671 0
M  V30 2090 H 205.375 2.27256 3.48798 0
M  V30 2091 H 205.908 3.33757 2.1645 0
M  V30 2092 H 202.647 6.30987 1.77582 0
M  V30 2093 H 202.167 5.16497 3.04945 0
M  V30 2094 H 203.846 5.75272 2.96093 0
M  V30 2095 N 203.978 -0.674533 1.42435 0
M  V30 2096 C 204.888 -1.81751 1.48337 0
M  V30 2097 C 205.904 -1.69975 0.372099 0
M  V30 2098 O 207.08 -1.91521 0.62304 0
M  V30 2099 C 204.145 -3.17895 1.38361 0
M  V30 2100 C 203.206 -3.41625 2.59982 0
M  V30 2101 C 202.439 -4.71274 2.50473 0
M  V30 2102 O 202.662 -5.49197 1.54075 0
M  V30 2103 O 201.596 -4.96254 3.4061 0
M  V30 2104 H 205.422 -1.79728 2.44809 0
M  V30 2105 H 203.007 -0.830312 1.24202 0
M  V30 2106 H 204.889 -3.99136 1.35161 0
M  V30 2107 H 203.564 -3.20555 0.450144 0
M  V30 2108 H 202.471 -2.60231 2.68757 0
M  V30 2109 H 203.804 -3.43796 3.52229 0
M  V30 2110 N 205.456 -1.28612 -0.910864 0
M  V30 2111 C 206.733 -1.06632 -1.63979 0
M  V30 2112 C 207.113 0.393351 -2.07403 0
M  V30 2113 O 206.461 1.37999 -1.82122 0
M  V30 2114 C 206.671 -2.0436 -2.8291 0
M  V30 2115 C 208.019 -2.34666 -3.5386 0
M  V30 2116 O 209.043 -2.02467 -2.93062 0
M  V30 2117 O 207.902 -2.89631 -4.63439 0
M  V30 2118 H 204.996 -0.407737 -0.7195 0
M  V30 2119 H 207.542 -1.39942 -0.959914 0
M  V30 2120 H 206.314 -3.02727 -2.47936 0
M  V30 2121 H 205.937 -1.71714 -3.58609 0
M  V30 2122 N 206.934 1.1197 -1.10907 0
M  V30 2123 C 208.174 1.85224 -0.864378 0
M  V30 2124 C 208.538 1.82411 0.599178 0
M  V30 2125 O 209.739 2.51057 0.960416 0
M  V30 2126 C 208.01 3.2868 -1.40371 0
M  V30 2127 S 209.569 4.1925 -1.29518 0
M  V30 2128 H 206.387 0.63878 -0.312219 0
M  V30 2129 H 208.989 1.3485 -1.41548 0
M  V30 2130 H 207.693 3.28289 -2.46281 0
M  V30 2131 H 207.224 3.84121 -0.849402 0
M  V30 2132 H 209.239 4.95539 -0.256059 0
M  V30 2133 N 208.412 0.89855 1.29475 0
M  V30 2134 C 209.637 0.538561 2.00285 0
M  V30 2135 C 210.062 -0.869135 1.66816 0
M  V30 2136 O 209.42 -1.57831 0.892145 0
M  V30 2137 C 209.468 0.736475 3.52999 0
M  V30 2138 O 208.572 -0.211537 4.11857 0
M  V30 2139 H 207.913 0.210563 0.62973 0
M  V30 2140 H 210.443 1.20982 1.64998 0
M  V30 2141 H 210.453 0.640685 4.02938 0
M  V30 2142 H 209.128 1.76276 3.76696 0
M  V30 2143 H 207.705 -0.0682991 3.72837 0
M  V30 2144 N 209.89 -1.43072 0.660911 0
M  V30 2145 C 211.138 -2.01323 0.177094 0
M  V30 2146 C 211.459 -1.5245 -1.2159 0
M  V30 2147 O 210.729 -0.740322 -1.81373 0
M  V30 2148 H 209.309 -0.744382 0.0624804 0
M  V30 2149 H 211.971 -1.75179 0.854305 0
M  V30 2150 H 211.067 -3.11649 0.167641 0
M  V30 2151 N 211.368 -0.403325 -1.52352 0
M  V30 2152 C 212.315 0.425011 -2.26853 0
M  V30 2153 C 213.285 1.04598 -1.29029 0
M  V30 2154 O 214.47 1.07135 -1.57882 0
M  V30 2155 C 211.61 1.53888 -3.08889 0
M  V30 2156 C 210.723 0.939396 -4.21663 0
M  V30 2157 C 209.858 2.02547 -4.91068 0
M  V30 2158 C 208.897 1.40263 -5.95813 0
M  V30 2159 N 208.034 2.4286 -6.58759 0
M  V30 2160 H 212.874 -0.21674 -2.97211 0
M  V30 2161 H 210.411 -0.118722 -1.4662 0
M  V30 2162 H 212.369 2.19558 -3.54753 0
M  V30 2163 H 210.999 2.15074 -2.40714 0
M  V30 2164 H 210.051 0.171898 -3.80011 0
M  V30 2165 H 211.363 0.44436 -4.96817 0
M  V30 2166 H 210.517 2.75958 -5.40308 0
M  V30 2167 H 209.256 2.55415 -4.15469 0
M  V30 2168 H 208.261 0.653833 -5.45898 0
M  V30 2169 H 209.486 0.881719 -6.73352 0
M  V30 2170 H 207.432 2.94871 -5.85992 0
M  V30 2171 H 207.349 1.98152 -7.2957 0
M  V30 2172 H 208.617 3.15858 -7.12639 0
M  V30 2173 N 212.846 1.57033 -0.133567 0
M  V30 2174 C 213.793 2.16074 0.811208 0
M  V30 2175 C 214.763 1.08979 1.2535 0
M  V30 2176 O 215.948 1.36958 1.32843 0
M  V30 2177 C 213.088 2.77595 2.05024 0
M  V30 2178 C 212.201 3.99042 1.65498 0
M  V30 2179 C 211.336 4.48603 2.84479 0
M  V30 2180 C 210.375 5.62547 2.41262 0
M  V30 2181 N 209.512 6.06787 3.53206 0
M  V30 2182 H 214.352 2.96477 0.300906 0
M  V30 2183 H 211.889 1.46462 0.136822 0
M  V30 2184 H 213.847 3.11402 2.77642 0
M  V30 2185 H 212.477 1.99859 2.53488 0
M  V30 2186 H 211.529 3.71302 0.826981 0
M  V30 2187 H 212.841 4.81629 1.29748 0
M  V30 2188 H 211.995 4.84395 3.65303 0
M  V30 2189 H 210.734 3.64995 3.23465 0
M  V30 2190 H 209.739 5.26345 1.58874 0
M  V30 2191 H 210.964 6.47931 2.03377 0
M  V30 2192 H 208.91 5.26117 3.91838 0
M  V30 2193 H 208.827 6.84266 3.21427 0
M  V30 2194 H 210.095 6.4722 4.34427 0
M  V30 2195 N 214.325 -0.140222 1.56975 0
M  V30 2196 C 215.288 -1.15689 1.97861 0
M  V30 2197 C 216.288 -1.3549 0.865974 0
M  V30 2198 O 217.478 -1.32367 1.13246 0
M  V30 2199 C 214.61 -2.51582 2.30042 0
M  V30 2200 H 215.803 -0.805971 2.88867 0
M  V30 2201 H 213.356 -0.383801 1.51515 0
M  V30 2202 H 214.091 -2.91632 1.41849 0
M  V30 2203 H 213.876 -2.38569 3.11171 0
M  V30 2204 H 215.366 -3.24792 2.62488 0
M  V30 2205 N 215.803 -1.52179 -0.40978 0
M  V30 2206 C 217.051 -1.65878 -1.15451 0
M  V30 2207 C 217.372 -0.390771 -1.91044 0
M  V30 2208 O 216.642 0.594323 -1.86667 0
M  V30 2209 H 215.222 -0.611405 -0.429177 0
M  V30 2210 H 217.884 -1.89219 -0.467134 0
M  V30 2211 H 216.98 -2.49954 -1.86894 0
M  V30 2212 N 217.281 0.66697 -1.42791 0
M  V30 2213 C 218.527 1.4291 -1.43891 0
M  V30 2214 C 218.86 1.94114 -0.0578972 0
M  V30 2215 O 218.135 1.71414 0.91911 0
M  V30 2216 C 218.418 2.62049 -2.46987 0
M  V30 2217 C 218.271 2.16426 -3.94309 0
M  V30 2218 C 219.59 3.64266 -2.46978 0
M  V30 2219 H 216.709 0.518306 -0.523954 0
M  V30 2220 H 219.351 0.757321 -1.74255 0
M  V30 2221 H 217.501 3.19361 -2.21225 0
M  V30 2222 H 219.173 1.64221 -4.31079 0
M  V30 2223 H 217.416 1.47925 -4.078 0
M  V30 2224 H 218.087 3.02038 -4.62036 0
M  V30 2225 H 220.563 3.16686 -2.69906 0
M  V30 2226 H 219.439 4.45196 -3.21079 0
M  V30 2227 H 219.7 4.15927 -1.49857 0
M  V30 2228 N 218.759 1.29093 0.90403 0
M  V30 2229 C 220.036 1.075 1.63411 0
M  V30 2230 C 220.416 -0.382346 2.07609 0
M  V30 2231 O 219.764 -1.37031 1.82851 0
M  V30 2232 C 219.974 2.05858 2.81822 0
M  V30 2233 C 221.322 2.36539 3.52611 0
M  V30 2234 O 222.346 2.04019 2.91984 0
M  V30 2235 O 221.205 2.92085 4.61897 0
M  V30 2236 H 218.299 0.411547 0.717327 0
M  V30 2237 H 220.845 1.40449 0.952479 0
M  V30 2238 H 219.617 3.04037 2.46327 0
M  V30 2239 H 219.24 1.73613 3.57693 0
M  V30 2240 N 220.237 -1.11381 1.11499 0
M  V30 2241 C 221.484 -1.83132 0.864231 0
M  V30 2242 C 221.812 -1.84683 -0.610114 0
M  V30 2243 O 221.067 -1.29589 -1.46646 0
M  V30 2244 C 221.366 -3.30026 1.37177 0
M  V30 2245 C 221.032 -3.48634 2.85946 0
M  V30 2246 C 219.694 -3.53421 3.26569 0
M  V30 2247 C 222.046 -3.54837 3.81759 0
M  V30 2248 C 219.374 -3.61967 4.61733 0
M  V30 2249 C 221.726 -3.64915 5.1674 0
M  V30 2250 C 220.39 -3.67962 5.5692 0
M  V30 2251 H 219.66 -0.670127 0.316245 0
M  V30 2252 H 222.307 -1.31354 1.3935 0
M  V30 2253 H 220.612 -3.84304 0.762753 0
M  V30 2254 H 222.309 -3.84034 1.15408 0
M  V30 2255 H 218.899 -3.45579 2.53521 0
M  V30 2256 H 223.083 -3.50399 3.51474 0
M  V30 2257 H 218.339 -3.62603 4.92269 0
M  V30 2258 H 222.513 -3.68658 5.90816 0
M  V30 2259 H 220.14 -3.74336 6.61647 0
M  V30 2260 N 221.715 -0.905404 -1.28997 0
M  V30 2261 C 222.963 -0.533192 -1.9494 0
M  V30 2262 C 223.284 0.924618 -1.71685 0
M  V30 2263 O 222.554 1.65268 -1.05183 0
M  V30 2264 H 221.134 -0.194194 -0.721317 0
M  V30 2265 H 223.796 -1.15294 -1.57141 0
M  V30 2266 H 222.892 -0.72059 -3.03667 0
M  V30 2267 N 223.193 1.4272 -0.668489 0
M  V30 2268 C 224.439 2.01923 -0.188419 0
M  V30 2269 C 224.772 1.52704 1.19979 0
M  V30 2270 O 224.047 0.726566 1.8042 0
M  V30 2271 C 224.33 3.59451 -0.216085 0
M  V30 2272 C 224.183 4.18864 -1.6393 0
M  V30 2273 C 225.502 4.37903 0.439179 0
M  V30 2274 H 222.621 0.733674 -0.0699412 0
M  V30 2275 H 225.263 1.69822 -0.852076 0
M  V30 2276 H 223.413 3.86929 0.349012 0
M  V30 2277 H 225.085 4.02362 -2.25616 0
M  V30 2278 H 223.328 3.74933 -2.18193 0
M  V30 2279 H 223.999 5.27987 -1.61039 0
M  V30 2280 H 226.475 4.16079 -0.0417878 0
M  V30 2281 H 225.351 5.47519 0.389157 0
M  V30 2282 H 225.612 4.15303 1.51577 0
M  V30 2283 N 224.671 0.411399 1.52136 0
M  V30 2284 C 225.919 -0.163322 2.01439 0
M  V30 2285 C 226.24 -1.45453 1.29879 0
M  V30 2286 O 225.51 -1.91225 0.4254 0
M  V30 2287 H 224.09 -0.0633447 0.744309 0
M  V30 2288 H 226.752 0.548161 1.87033 0
M  V30 2289 H 225.848 -0.357817 3.10042 0
M  V30 2290 N 226.149 -1.5696 0.141893 0
M  V30 2291 C 227.377 -2.00322 -0.517579 0
M  V30 2292 C 227.792 -1.02193 -1.58752 0
M  V30 2293 O 227.149 -0.0181619 -1.82491 0
M  V30 2294 C 227.2 -3.43618 -1.12289 0
M  V30 2295 O 226.921 -4.37995 -0.0956929 0
M  V30 2296 C 228.422 -4.02231 -1.86347 0
M  V30 2297 H 225.642 -0.657243 -0.135177 0
M  V30 2298 H 228.186 -2.03146 0.234973 0
M  V30 2299 H 226.341 -3.41662 -1.82609 0
M  V30 2300 H 226.755 -5.21729 -0.538469 0
M  V30 2301 H 228.229 -5.04509 -2.23997 0
M  V30 2302 H 228.706 -3.42655 -2.74744 0
M  V30 2303 H 229.312 -4.07802 -1.20737 0
M  V30 2304 N 227.627 0.131896 -1.57047 0
M  V30 2305 C 228.575 1.18146 -2.0036 0
M  V30 2306 C 229.569 1.43614 -0.898406 0
M  V30 2307 O 230.775 1.43729 -1.08361 0
M  V30 2308 H 227.15 0.398042 -0.638018 0
M  V30 2309 H 229.121 0.789564 -2.87765 0
M  V30 2310 C 227.87 2.50341 -2.41298 0
M  V30 2311 H 227.193 2.31578 -3.25902 0
M  V30 2312 H 228.633 3.22371 -2.75414 0
M  V30 2313 C 227.092 3.11984 -1.27153 0
M  V30 2314 O 227.622 3.97484 -0.580459 0
M  V30 2315 N 225.828 2.71662 -1.03189 0
M  V30 2316 H 225.375 2.02231 -1.59564 0
M  V30 2317 H 225.333 3.13238 -0.270077 0
M  V30 2318 N 229.106 1.52395 0.401703 0
M  V30 2319 C 230.517 1.58899 0.980202 0
M  V30 2320 C 230.868 0.434032 1.91339 0
M  V30 2321 O 229.993 -0.444619 2.11783 0
M  V30 2322 C 230.588 2.87994 1.78451 0
M  V30 2323 C 229.147 2.96953 2.31292 0
M  V30 2324 C 228.294 2.53903 1.11483 0
M  V30 2325 H 231.245 1.57657 0.18168 0
M  V30 2326 H 231.266 2.73765 2.64259 0
M  V30 2327 H 230.778 3.72035 1.10506 0
M  V30 2328 H 228.879 2.17422 3.02586 0
M  V30 2329 H 228.992 4.01344 2.61649 0
M  V30 2330 H 227.356 2.07925 1.47104 0
M  V30 2331 H 228.139 3.40326 0.450928 0
M  V30 2332 N 230.584 -0.659388 1.43143 0
M  V30 2333 C 231.494 -1.80167 1.50256 0
M  V30 2334 C 232.51 -1.69571 0.390106 0
M  V30 2335 O 233.686 -1.90849 0.643319 0
M  V30 2336 C 230.751 -3.16409 1.41725 0
M  V30 2337 C 229.812 -3.38848 2.63591 0
M  V30 2338 C 229.045 -4.68591 2.55458 0
M  V30 2339 O 229.268 -5.47532 1.59891 0
M  V30 2340 O 228.202 -4.92614 3.45854 0
M  V30 2341 H 232.028 -1.77121 2.46702 0
M  V30 2342 H 229.613 -0.817092 1.25076 0
M  V30 2343 H 231.495 -3.9768 1.39387 0
M  V30 2344 H 230.17 -3.20059 0.484118 0
M  V30 2345 H 229.077 -2.57366 2.71502 0
M  V30 2346 H 230.41 -3.4004 3.55856 0
M  V30 2347 N 232.062 -1.29571 -0.897171 0
M  V30 2348 C 233.309 -1.17689 -1.6479 0
M  V30 2349 C 233.637 0.27107 -1.92602 0
M  V30 2350 O 232.892 1.21193 -1.53658 0
M  V30 2351 C 233.191 -1.9382 -3.00281 0
M  V30 2352 C 232.857 -3.43522 -2.92068 0
M  V30 2353 C 231.519 -3.84348 -2.89535 0
M  V30 2354 C 233.871 -4.38906 -2.81089 0
M  V30 2355 C 231.199 -5.18869 -2.73846 0
M  V30 2356 C 233.551 -5.73521 -2.66939 0
M  V30 2357 C 232.215 -6.13601 -2.62774 0
M  V30 2358 H 231.485 -0.430654 -0.603008 0
M  V30 2359 H 234.132 -1.60536 -1.04404 0
M  V30 2360 H 232.437 -1.4357 -3.64547 0
M  V30 2361 H 234.134 -1.82028 -3.57305 0
M  V30 2362 H 230.724 -3.11072 -2.94842 0
M  V30 2363 H 234.908 -4.08315 -2.82121 0
M  V30 2364 H 230.164 -5.4903 -2.69027 0
M  V30 2365 H 234.338 -6.47078 -2.57416 0
M  V30 2366 H 231.965 -7.17786 -2.50375 0
M  V30 2367 N 233.54 1.10788 -1.12088 0
M  V30 2368 C 234.47 2.19083 -0.807755 0
M  V30 2369 C 235.451 1.6858 0.226859 0
M  V30 2370 O 236.636 1.93997 0.0888475 0
M  V30 2371 C 233.766 3.46344 -0.257576 0
M  V30 2372 C 232.72 4.101 -1.22483 0
M  V30 2373 C 232.046 5.32016 -0.535052 0
M  V30 2374 C 233.346 4.54236 -2.57811 0
M  V30 2375 H 235.04 2.45534 -1.71328 0
M  V30 2376 H 232.586 1.1801 -0.825205 0
M  V30 2377 H 234.539 4.21392 -0.0262679 0
M  V30 2378 H 233.263 3.19373 0.683278 0
M  V30 2379 H 231.922 3.37054 -1.44189 0
M  V30 2380 H 231.57 5.01319 0.410827 0
M  V30 2381 H 231.27 5.75625 -1.18024 0
M  V30 2382 H 232.794 6.09799 -0.312695 0
M  V30 2383 H 234.208 5.20575 -2.40155 0
M  V30 2384 H 232.605 5.08682 -3.18375 0
M  V30 2385 H 233.675 3.6734 -3.16528 0
M  V30 2386 N 235.018 0.912232 1.28515 0
M  V30 2387 C 236.434 0.610159 1.47476 0
M  V30 2388 C 236.634 -0.844955 1.82928 0
M  V30 2389 O 235.69 -1.62416 1.93332 0
M  V30 2390 C 237.003 1.54675 2.57868 0
M  V30 2391 C 238.551 1.55331 2.71738 0
M  V30 2392 C 239.026 2.47649 3.85272 0
M  V30 2393 N 240.517 2.45767 3.92623 0
M  V30 2394 C 241.252 3.13896 4.79851 0
M  V30 2395 N 240.748 3.9135 5.71679 0
M  V30 2396 N 242.541 3.02991 4.73448 0
M  V30 2397 H 234.692 1.85318 1.03783 0
M  V30 2398 H 236.955 0.794777 0.516753 0
M  V30 2399 H 236.661 2.5841 2.38574 0
M  V30 2400 H 236.535 1.27671 3.54937 0
M  V30 2401 H 238.922 0.52335 2.90422 0
M  V30 2402 H 239.003 1.86378 1.75205 0
M  V30 2403 H 238.647 3.50745 3.67342 0
M  V30 2404 H 238.577 2.13904 4.81199 0
M  V30 2405 H 241.068 1.89503 3.26951 0
M  V30 2406 H 241.381 4.40359 6.35062 0
M  V30 2407 H 239.726 3.95455 5.71524 0
M  V30 2408 H 242.917 2.41987 4.007 0
M  V30 2409 H 243.09 3.5636 5.41213 0
M  V30 2410 N 236.496 -1.42363 0.676048 0
M  V30 2411 C 237.406 -2.346 -0.00153389 0
M  V30 2412 C 238.422 -1.5516 -0.787485 0
M  V30 2413 O 239.598 -1.87723 -0.729521 0
M  V30 2414 C 236.663 -3.33705 -0.940298 0
M  V30 2415 C 235.724 -4.29042 -0.148739 0
M  V30 2416 C 234.957 -5.23413 -1.04279 0
M  V30 2417 O 235.18 -5.22749 -2.28232 0
M  V30 2418 O 234.114 -5.99795 -0.502925 0
M  V30 2419 H 237.94 -2.94082 0.758268 0
M  V30 2420 H 235.525 -1.42888 0.436289 0
M  V30 2421 H 237.407 -3.94586 -1.47917 0
M  V30 2422 H 236.082 -2.76695 -1.67993 0
M  V30 2423 H 234.989 -3.71571 0.43427 0
M  V30 2424 H 236.322 -4.89097 0.551805 0
M  V30 2425 N 237.974 -0.419461 -1.51915 0
M  V30 2426 C 239.199 0.154572 -2.06823 0
M  V30 2427 C 239.624 1.3722 -1.28656 0
M  V30 2428 O 238.982 1.78461 -0.319583 0
M  V30 2429 C 239.03 0.473172 -3.57482 0
M  V30 2430 O 238.134 1.56255 -3.81652 0
M  V30 2431 H 237.475 0.0096924 -0.663929 0
M  V30 2432 H 240.005 -0.595642 -1.95738 0
M  V30 2433 H 240.015 0.728825 -4.01438 0
M  V30 2434 H 238.69 -0.416873 -4.13805 0
M  V30 2435 H 237.267 1.29825 -3.49571 0
M  V30 2436 N 239.452 1.56882 -0.150215 0
M  V30 2437 C 240.68 2.00593 0.506948 0
M  V30 2438 C 241.095 1.03033 1.58208 0
M  V30 2439 O 240.452 0.0278396 1.82479 0
M  V30 2440 C 240.503 3.44209 1.10465 0
M  V30 2441 O 240.224 4.3804 0.0724636 0
M  V30 2442 C 241.725 4.03214 1.84211 0
M  V30 2443 H 238.945 0.65795 0.13169 0
M  V30 2444 H 241.489 2.03018 -0.245743 0
M  V30 2445 H 239.644 3.42625 1.80795 0
M  V30 2446 H 240.058 5.22007 0.510793 0
M  V30 2447 H 241.532 5.0569 2.21318 0
M  V30 2448 H 242.009 3.44107 2.72923 0
M  V30 2449 H 242.615 4.08437 1.18572 0
M  V30 2450 N 240.93 -0.123565 1.57115 0
M  V30 2451 C 241.893 -1.13583 1.99076 0
M  V30 2452 C 242.893 -1.34564 0.880296 0
M  V30 2453 O 244.083 -1.31158 1.14644 0
M  V30 2454 C 241.215 -2.49128 2.32698 0
M  V30 2455 H 242.408 -0.775287 2.89706 0
M  V30 2456 H 239.961 -0.36771 1.51913 0
M  V30 2457 H 240.696 -2.90111 1.44934 0
M  V30 2458 H 240.481 -2.35255 3.13684 0
M  V30 2459 H 241.971 -3.2199 2.65918 0
M  V30 2460 N 242.408 -1.52605 -0.393616 0
M  V30 2461 C 243.657 -1.66649 -1.13627 0
M  V30 2462 C 243.97 -0.410364 -1.91247 0
M  V30 2463 O 245.176 -0.430854 -2.68059 0
M  V30 2464 C 243.632 -2.9449 -2.06891 0
M  V30 2465 C 243.24 -4.27266 -1.34714 0
M  V30 2466 C 244.984 -3.17899 -2.81319 0
M  V30 2467 C 242.891 -5.46217 -2.26717 0
M  V30 2468 H 241.821 -0.62084 -0.427871 0
M  V30 2469 H 244.472 -1.791 -0.399428 0
M  V30 2470 H 242.854 -2.75774 -2.84191 0
M  V30 2471 H 244.028 -4.56518 -0.626714 0
M  V30 2472 H 242.343 -4.10081 -0.722643 0
M  V30 2473 H 244.94 -4.03949 -3.50328 0
M  V30 2474 H 245.283 -2.32777 -3.45139 0
M  V30 2475 H 245.816 -3.37159 -2.11113 0
M  V30 2476 H 242.555 -6.33733 -1.67521 0
M  V30 2477 H 242.075 -5.21283 -2.96689 0
M  V30 2478 H 243.754 -5.7991 -2.86903 0
M  V30 2479 N 243.887 0.651787 -1.4349 0
M  V30 2480 C 244.834 1.76462 -1.4876 0
M  V30 2481 C 245.804 1.62641 -0.337189 0
M  V30 2482 O 246.989 1.82864 -0.544544 0
M  V30 2483 C 244.129 3.14623 -1.41796 0
M  V30 2484 C 243.242 3.39568 -2.67053 0
M  V30 2485 C 242.377 4.67585 -2.52068 0
M  V30 2486 C 241.416 4.85639 -3.72587 0
M  V30 2487 N 240.553 6.04915 -3.56402 0
M  V30 2488 H 245.393 1.71293 -2.43849 0
M  V30 2489 H 242.93 0.835889 -1.21043 0
M  V30 2490 H 244.888 3.94496 -1.35753 0
M  V30 2491 H 243.518 3.18859 -0.50288 0
M  V30 2492 H 242.57 2.53783 -2.8337 0
M  V30 2493 H 243.882 3.48795 -3.56572 0
M  V30 2494 H 243.036 5.55586 -2.4374 0
M  V30 2495 H 241.775 4.60681 -1.60075 0
M  V30 2496 H 240.78 3.96073 -3.81321 0
M  V30 2497 H 242.005 4.94372 -4.65589 0
M  V30 2498 H 239.951 5.9914 -2.67146 0
M  V30 2499 H 239.868 6.15106 -4.39524 0
M  V30 2500 H 241.136 6.95533 -3.51929 0
M  V30 2501 N 245.365 1.30045 0.890287 0
M  V30 2502 C 246.642 1.09227 1.62262 0
M  V30 2503 C 247.022 -0.360305 2.08002 0
M  V30 2504 O 246.37 -1.35084 1.84295 0
M  V30 2505 C 246.58 2.08835 2.79623 0
M  V30 2506 C 247.928 2.40266 3.50082 0
M  V30 2507 O 248.952 2.07104 2.89804 0
M  V30 2508 O 247.811 2.96967 4.58773 0
M  V30 2509 H 244.905 0.419132 0.712922 0
M  V30 2510 H 247.451 1.41451 0.937529 0
M  V30 2511 H 246.223 3.06633 2.43089 0
M  V30 2512 H 245.846 1.77397 3.55832 0
M  V30 2513 N 246.843 -1.10192 1.12674 0
M  V30 2514 C 248.073 -1.85713 0.905213 0
M  V30 2515 C 248.481 -1.81056 -0.549108 0
M  V30 2516 O 247.824 -1.19927 -1.39151 0
M  V30 2517 C 247.886 -3.34972 1.30516 0
M  V30 2518 C 247.55 -3.63385 2.77129 0
M  V30 2519 C 248.547 -3.59772 3.75313 0
M  V30 2520 C 246.232 -3.91981 3.14096 0
M  V30 2521 C 248.226 -3.84354 5.08479 0
M  V30 2522 C 245.913 -4.16218 4.47443 0
M  V30 2523 C 246.911 -4.12395 5.44444 0
M  V30 2524 O 246.599 -4.36014 6.75387 0
M  V30 2525 H 246.331 -0.593719 0.323223 0
M  V30 2526 H 248.885 -1.40198 1.50112 0
M  V30 2527 H 247.115 -3.81156 0.652463 0
M  V30 2528 H 248.804 -3.91886 1.05736 0
M  V30 2529 H 249.57 -3.37716 3.48099 0
M  V30 2530 H 245.449 -3.94085 2.39202 0
M  V30 2531 H 248.993 -3.81285 5.84181 0
M  V30 2532 H 244.89 -4.37754 4.74386 0
M  V30 2533 H 245.658 -4.53516 6.8137 0
M  V30 2534 N 248.321 -0.919034 -1.28029 0
M  V30 2535 C 249.598 -0.473668 -1.89778 0
M  V30 2536 C 249.978 1.04783 -1.83259 0
M  V30 2537 O 249.326 1.8982 -1.27202 0
M  V30 2538 C 249.536 -1.00998 -3.34066 0
M  V30 2539 C 250.884 -1.06525 -4.1102 0
M  V30 2540 O 251.908 -0.958996 -3.43048 0
M  V30 2541 O 250.767 -1.22776 -5.3253 0
M  V30 2542 H 247.861 -0.15098 -0.813101 0
M  V30 2543 H 250.407 -1.01016 -1.36359 0
M  V30 2544 H 249.179 -2.05392 -3.33061 0
M  V30 2545 H 248.802 -0.454626 -3.94992 0
M  V30 2546 N 249.799 1.42003 -0.683588 0
M  V30 2547 C 251.046 2.01413 -0.209514 0
M  V30 2548 C 251.374 1.54088 1.1869 0
M  V30 2549 O 250.629 0.737591 1.81268 0
M  V30 2550 C 250.928 3.56827 -0.202357 0
M  V30 2551 C 250.594 4.23617 -1.54464 0
M  V30 2552 C 249.256 4.41577 -1.91215 0
M  V30 2553 C 251.608 4.61178 -2.42826 0
M  V30 2554 C 248.936 4.9437 -3.15935 0
M  V30 2555 C 251.288 5.15355 -3.66867 0
M  V30 2556 C 249.952 5.31528 -4.03776 0
M  V30 2557 H 249.222 0.737023 -0.0766668 0
M  V30 2558 H 251.869 1.70067 -0.880312 0
M  V30 2559 H 250.174 3.87892 0.551969 0
M  V30 2560 H 251.871 4.00588 0.181793 0
M  V30 2561 H 248.461 4.10004 -1.24877 0
M  V30 2562 H 252.645 4.46968 -2.15717 0
M  V30 2563 H 247.901 5.05076 -3.44541 0
M  V30 2564 H 252.075 5.43402 -4.35531 0
M  V30 2565 H 249.702 5.72199 -5.00492 0
M  V30 2566 N 251.277 0.427512 1.51691 0
M  V30 2567 C 252.688 -0.0378867 1.86662 0
M  V30 2568 C 253.039 -1.42819 1.34525 0
M  V30 2569 O 252.164 -2.05037 0.692014 0
M  V30 2570 C 252.759 -0.0755266 3.38716 0
M  V30 2571 C 251.318 -0.485309 3.73258 0
M  V30 2572 C 250.465 0.328399 2.75349 0
M  V30 2573 H 253.416 0.64379 1.45055 0
M  V30 2574 H 253.437 -0.887056 3.70016 0
M  V30 2575 H 252.949 0.936487 3.76632 0
M  V30 2576 H 251.05 -1.50329 3.40928 0
M  V30 2577 H 251.163 -0.21693 4.78609 0
M  V30 2578 H 249.527 -0.211905 2.53817 0
M  V30 2579 H 250.31 1.3391 3.16106 0
M  V30 2580 N 252.755 -1.56801 0.158532 0
M  V30 2581 C 254.166 -1.83189 -0.360366 0
M  V30 2582 C 254.517 -1.07778 -1.63946 0
M  V30 2583 O 253.642 -0.326718 -2.13919 0
M  V30 2584 C 254.237 -3.32297 -0.660595 0
M  V30 2585 C 252.796 -3.59227 -1.12398 0
M  V30 2586 C 251.943 -2.76877 -0.153097 0
M  V30 2587 H 254.894 -1.54008 0.383031 0
M  V30 2588 H 254.915 -3.4908 -1.51405 0
M  V30 2589 H 254.427 -3.87156 0.270527 0
M  V30 2590 H 252.528 -3.09766 -2.07064 0
M  V30 2591 H 252.641 -4.67632 -1.04197 0
M  V30 2592 H 251.005 -2.46319 -0.647983 0
M  V30 2593 H 251.788 -3.34511 0.77182 0
M  V30 2594 N 254.233 0.115231 -1.57178 0
M  V30 2595 C 255.166 1.17166 -1.95825 0
M  V30 2596 C 256.144 1.39912 -0.828463 0
M  V30 2597 O 257.328 1.54004 -1.08697 0
M  V30 2598 C 254.455 2.52478 -2.25771 0
M  V30 2599 C 253.501 2.46136 -3.48309 0
M  V30 2600 S 254.334 1.89736 -5.0076 0
M  V30 2601 C 255.49 3.26713 -5.33863 0
M  V30 2602 H 255.723 0.842103 -2.85124 0
M  V30 2603 H 253.256 0.322136 -1.51002 0
M  V30 2604 H 255.214 3.30332 -2.43702 0
M  V30 2605 H 253.875 2.82609 -1.37079 0
M  V30 2606 H 253.068 3.45819 -3.66641 0
M  V30 2607 H 252.67 1.76404 -3.29784 0
M  V30 2608 H 254.962 4.22935 -5.29275 0
M  V30 2609 H 255.905 3.13205 -6.35065 0
M  V30 2610 H 256.313 3.25316 -4.61335 0
M  V30 2611 N 255.711 1.52812 0.385517 0
M  V30 2612 C 256.939 1.71907 1.15133 0
M  V30 2613 C 257.354 0.439004 1.83625 0
M  V30 2614 O 256.711 -0.586765 1.7281 0
M  V30 2615 C 256.762 2.87099 2.19673 0
M  V30 2616 O 256.483 4.10151 1.53973 0
M  V30 2617 C 257.984 3.17902 3.08955 0
M  V30 2618 H 255.204 0.575479 0.345057 0
M  V30 2619 H 257.748 1.99476 0.45052 0
M  V30 2620 H 255.903 2.61982 2.85384 0
M  V30 2621 H 256.317 4.74514 2.23465 0
M  V30 2622 H 257.791 4.01959 3.7833 0
M  V30 2623 H 258.268 2.3243 3.72657 0
M  V30 2624 H 258.874 3.44871 2.48885 0
M  V30 2625 N 257.189 -0.644168 1.43834 0
M  V30 2626 C 258.435 -1.40603 1.46146 0
M  V30 2627 C 258.768 -1.93997 0.0887717 0
M  V30 2628 O 258.043 -1.72854 -0.891724 0
M  V30 2629 C 258.326 -2.58086 2.51124 0
M  V30 2630 C 258.179 -2.10126 3.97702 0
M  V30 2631 C 259.498 -3.60291 2.52742 0
M  V30 2632 H 256.617 -0.509905 0.532134 0
M  V30 2633 H 259.259 -0.729502 1.75437 0
M  V30 2634 H 257.409 -3.15801 2.26278 0
M  V30 2635 H 259.081 -1.57342 4.33637 0
M  V30 2636 H 257.324 -1.41419 4.10101 0
M  V30 2637 H 257.995 -2.94649 4.66783 0
M  V30 2638 H 260.471 -3.12352 2.7491 0
M  V30 2639 H 259.347 -4.40032 3.28121 0
M  V30 2640 H 259.608 -4.1349 1.56455 0
M  V30 2641 N 258.668 -1.30515 -0.883378 0
M  V30 2642 C 259.917 -1.18795 -1.63005 0
M  V30 2643 C 260.23 0.255923 -1.93919 0
M  V30 2644 O 261.436 0.494654 -2.66956 0
M  V30 2645 C 259.892 -2.07878 -2.93794 0
M  V30 2646 C 259.5 -3.57184 -2.70414 0
M  V30 2647 C 261.244 -2.04924 -3.71761 0
M  V30 2648 C 259.151 -4.38317 -3.97029 0
M  V30 2649 H 258.081 -0.441031 -0.611562 0
M  V30 2650 H 260.732 -1.55275 -0.977854 0
M  V30 2651 H 259.114 -1.64283 -3.60315 0
M  V30 2652 H 260.288 -4.08937 -2.12384 0
M  V30 2653 H 258.603 -3.61976 -2.0582 0
M  V30 2654 H 261.2 -2.62792 -4.65665 0
M  V30 2655 H 261.543 -1.0331 -4.03277 0
M  V30 2656 H 262.076 -2.46649 -3.12104 0
M  V30 2657 H 258.815 -5.40632 -3.70671 0
M  V30 2658 H 258.335 -3.91326 -4.54559 0
M  V30 2659 H 260.014 -4.49834 -4.65036 0
M  V30 2660 N 260.146 1.09593 -1.13257 0
M  V30 2661 C 261.394 1.81375 -0.891492 0
M  V30 2662 C 261.715 1.86049 0.584009 0
M  V30 2663 O 260.985 1.34481 1.42449 0
M  V30 2664 H 259.565 0.671708 -0.326828 0
M  V30 2665 H 262.227 1.3256 -1.42877 0
M  V30 2666 H 261.323 2.84612 -1.28071 0
M  V30 2667 N 261.624 0.925811 1.2754 0
M  V30 2668 C 262.534 0.428993 2.30644 0
M  V30 2669 C 263.55 -0.489387 1.66976 0
M  V30 2670 O 264.726 -0.372653 1.97922 0
M  V30 2671 C 261.791 -0.311967 3.45294 0
M  V30 2672 C 260.852 0.641098 4.24486 0
M  V30 2673 C 260.085 -0.0645955 5.33661 0
M  V30 2674 O 260.308 -1.28429 5.55754 0
M  V30 2675 O 259.242 0.606265 5.98839 0
M  V30 2676 H 263.068 1.28504 2.75173 0
M  V30 2677 H 260.653 0.691086 1.32455 0
M  V30 2678 H 262.535 -0.729972 4.15029 0
M  V30 2679 H 261.21 -1.14365 3.02824 0
M  V30 2680 H 260.117 1.10874 3.57292 0
M  V30 2681 H 261.45 1.43995 4.70666 0
M  V30 2682 N 263.102 -1.41638 0.69111 0
M  V30 2683 C 264.032 -2.3347 0.037248 0
M  V30 2684 C 265.013 -1.51575 -0.771947 0
M  V30 2685 O 266.198 -1.80126 -0.72582 0
M  V30 2686 C 263.328 -3.35354 -0.903064 0
M  V30 2687 C 262.282 -4.27526 -0.201288 0
M  V30 2688 C 261.608 -5.19747 -1.25565 0
M  V30 2689 C 262.908 -5.13959 0.929689 0
M  V30 2690 H 264.602 -2.88397 0.804227 0
M  V30 2691 H 262.148 -1.38669 0.388189 0
M  V30 2692 H 264.101 -3.98519 -1.36969 0
M  V30 2693 H 262.825 -2.78767 -1.70166 0
M  V30 2694 H 261.484 -3.65779 0.245265 0
M  V30 2695 H 261.132 -4.59479 -2.04666 0
M  V30 2696 H 260.832 -5.8225 -0.791128 0
M  V30 2697 H 262.356 -5.85789 -1.72288 0
M  V30 2698 H 263.77 -5.70718 0.543546 0
M  V30 2699 H 262.167 -5.85379 1.32103 0
M  V30 2700 H 263.237 -4.51389 1.77133 0
M  V30 2701 N 264.58 -0.43555 -1.51462 0
M  V30 2702 C 265.857 0.191364 -1.94662 0
M  V30 2703 C 266.237 1.60254 -1.37411 0
M  V30 2704 O 265.585 2.2152 -0.560458 0
M  V30 2705 C 265.795 0.17091 -3.48581 0
M  V30 2706 C 267.143 0.377357 -4.2292 0
M  V30 2707 O 268.167 0.249104 -3.55328 0
M  V30 2708 O 267.026 0.63247 -5.42828 0
M  V30 2709 H 264.12 0.130932 -0.816569 0
M  V30 2710 H 266.666 -0.4934 -1.62369 0
M  V30 2711 H 265.438 -0.815738 -3.82703 0
M  V30 2712 H 265.061 0.898659 -3.87311 0
M  V30 2713 N 266.058 1.56714 -0.166846 0
M  V30 2714 C 267.005 2.17746 0.765193 0
M  V30 2715 C 267.975 1.11614 1.23011 0
M  V30 2716 O 269.16 1.39745 1.29908 0
M  V30 2717 C 266.3 2.81882 1.9909 0
M  V30 2718 C 265.413 4.02462 1.56997 0
M  V30 2719 C 264.548 4.54537 2.749 0
M  V30 2720 C 263.587 5.67538 2.29275 0
M  V30 2721 N 262.724 6.14142 3.40255 0
M  V30 2722 H 267.564 2.97048 0.237952 0
M  V30 2723 H 265.101 1.4672 0.105725 0
M  V30 2724 H 267.059 3.17221 2.70974 0
M  V30 2725 H 265.689 2.05191 2.49192 0
M  V30 2726 H 264.741 3.72973 0.748037 0
M  V30 2727 H 266.053 4.84273 1.19503 0
M  V30 2728 H 265.207 4.92035 3.54946 0
M  V30 2729 H 263.946 3.71774 3.1565 0
M  V30 2730 H 262.951 5.29597 1.47674 0
M  V30 2731 H 264.176 6.52099 1.89588 0
M  V30 2732 H 262.122 5.3431 3.8059 0
M  V30 2733 H 262.039 6.9093 3.06841 0
M  V30 2734 H 263.307 6.56289 4.206 0
M  V30 2735 N 267.536 -0.106894 1.57237 0
M  V30 2736 C 268.468 -1.15646 1.97885 0
M  V30 2737 C 269.481 -1.36981 0.879779 0
M  V30 2738 O 270.67 -1.35841 1.15799 0
M  V30 2739 C 267.77 -2.51425 2.27241 0
M  V30 2740 C 266.943 -2.50529 3.58545 0
M  V30 2741 C 266.002 -3.68145 3.75973 0
M  V30 2742 O 265.028 -3.51176 4.47956 0
M  V30 2743 N 266.23 -4.87177 3.15656 0
M  V30 2744 H 268.995 -0.81059 2.8853 0
M  V30 2745 H 266.556 -0.296024 1.59171 0
M  V30 2746 H 268.548 -3.28689 2.36105 0
M  V30 2747 H 267.118 -2.78147 1.42663 0
M  V30 2748 H 266.338 -1.58894 3.60758 0
M  V30 2749 H 267.626 -2.46997 4.44826 0
M  V30 2750 H 267.024 -5.03868 2.57165 0
M  V30 2751 H 265.581 -5.62075 3.30023 0
M  V30 2752 N 269.014 -1.53014 -0.377408 0
M  V30 2753 C 270.242 -1.72515 -1.14219 0
M  V30 2754 C 270.657 -0.448735 -1.8339 0
M  V30 2755 O 270.014 0.577592 -1.73119 0
M  V30 2756 C 270.065 -2.8826 -2.18148 0
M  V30 2757 O 269.786 -4.10962 -1.51795 0
M  V30 2758 C 271.287 -3.19536 -3.07264 0
M  V30 2759 H 268.507 -0.577301 -0.342001 0
M  V30 2760 H 271.051 -1.99712 -0.439935 0
M  V30 2761 H 269.206 -2.63492 -2.83991 0
M  V30 2762 H 269.62 -4.75693 -2.20945 0
M  V30 2763 H 271.094 -4.03959 -3.76193 0
M  V30 2764 H 271.571 -2.34403 -3.71419 0
M  V30 2765 H 272.177 -3.46186 -2.47053 0
M  V30 2766 N 270.492 0.636531 -1.44174 0
M  V30 2767 C 271.74 1.39343 -1.46383 0
M  V30 2768 C 272.061 1.94766 -0.0955715 0
M  V30 2769 O 271.331 1.75452 0.871395 0
M  V30 2770 H 269.911 0.517199 -0.538994 0
M  V30 2771 H 272.573 0.74957 -1.7991 0
M  V30 2772 H 271.669 2.22746 -2.18611 0
M  V30 2773 N 271.97 1.30982 0.876444 0
M  V30 2774 C 273.247 1.10942 1.61094 0
M  V30 2775 C 273.627 -0.338223 2.08373 0
M  V30 2776 O 272.975 -1.33122 1.85717 0
M  V30 2777 C 273.185 2.11789 2.77392 0
M  V30 2778 C 274.533 2.43965 3.47514 0
M  V30 2779 O 275.557 2.10166 2.87591 0
M  V30 2780 O 274.416 3.01817 4.55597 0
M  V30 2781 H 271.51 0.42667 0.708436 0
M  V30 2782 H 274.056 1.42438 0.922474 0
M  V30 2783 H 272.828 3.09194 2.39823 0
M  V30 2784 H 272.451 1.81161 3.5393 0
M  V30 2785 N 273.449 -1.08991 1.13837 0
M  V30 2786 C 274.379 -2.17771 0.842507 0
M  V30 2787 C 275.36 -1.6892 -0.20001 0
M  V30 2788 O 276.545 -1.94113 -0.0579731 0
M  V30 2789 C 273.675 -3.4589 0.312644 0
M  V30 2790 C 272.629 -4.08099 1.28992 0
M  V30 2791 C 271.955 -5.31098 0.619623 0
M  V30 2792 C 273.255 -4.50077 2.65005 0
M  V30 2793 H 274.949 -2.42777 1.75213 0
M  V30 2794 H 272.495 -1.16682 0.843875 0
M  V30 2795 H 274.448 -4.21297 0.0933043 0
M  V30 2796 H 273.172 -3.20419 -0.632382 0
M  V30 2797 H 271.831 -3.34717 1.49533 0
M  V30 2798 H 271.479 -5.0191 -0.33102 0
M  V30 2799 H 271.179 -5.73674 1.27167 0
M  V30 2800 H 272.703 -6.09224 0.409669 0
M  V30 2801 H 274.117 -5.16688 2.48407 0
M  V30 2802 H 272.514 -5.03553 3.26427 0
M  V30 2803 H 273.584 -3.62257 3.22332 0
M  V30 2804 N 274.927 -0.932562 -1.27047 0
M  V30 2805 C 275.857 -0.452902 -2.29066 0
M  V30 2806 C 276.838 0.489338 -1.62909 0
M  V30 2807 O 278.023 0.393046 -1.90181 0
M  V30 2808 C 275.153 0.290698 -3.46081 0
M  V30 2809 C 274.107 -0.564168 -4.24265 0
M  V30 2810 C 273.433 0.308886 -5.33807 0
M  V30 2811 C 274.733 -1.83112 -4.89149 0
M  V30 2812 H 276.427 -1.30552 -2.69437 0
M  V30 2813 H 273.973 -0.629201 -1.29526 0
M  V30 2814 H 275.926 0.637233 -4.16554 0
M  V30 2815 H 274.65 1.17738 -3.0464 0
M  V30 2816 H 273.309 -0.893477 -3.55545 0
M  V30 2817 H 272.957 1.19467 -4.88607 0
M  V30 2818 H 272.657 -0.259633 -5.87026 0
M  V30 2819 H 274.181 0.650884 -6.07121 0
M  V30 2820 H 275.595 -1.55236 -5.51883 0
M  V30 2821 H 273.992 -2.34353 -5.52448 0
M  V30 2822 H 275.062 -2.54772 -4.12576 0
M  V30 2823 N 276.405 1.4127 -0.698611 0
M  V30 2824 C 277.315 2.34573 -0.0357891 0
M  V30 2825 C 278.331 1.56393 0.762701 0
M  V30 2826 O 279.507 1.8886 0.699564 0
M  V30 2827 C 276.572 3.35159 0.887089 0
M  V30 2828 C 275.633 4.29225 0.0804634 0
M  V30 2829 C 274.866 5.25006 0.959387 0
M  V30 2830 O 275.089 5.26314 2.19886 0
M  V30 2831 O 274.023 6.00519 0.407439 0
M  V30 2832 H 277.849 2.92838 -0.804957 0
M  V30 2833 H 275.434 1.42175 -0.458966 0
M  V30 2834 H 277.316 3.9689 1.41621 0
M  V30 2835 H 275.991 2.79333 1.6357 0
M  V30 2836 H 274.898 3.70833 -0.493328 0
M  V30 2837 H 276.231 4.88157 -0.629547 0
M  V30 2838 N 277.883 0.443576 1.51229 0
M  V30 2839 C 278.793 -0.370721 2.31652 0
M  V30 2840 C 279.809 -1.02186 1.40833 0
M  V30 2841 O 280.985 -1.01586 1.73903 0
M  V30 2842 C 278.05 -1.45376 3.14749 0
M  V30 2843 C 277.111 -0.822099 4.21355 0
M  V30 2844 C 276.344 -1.85353 5.0048 0
M  V30 2845 O 276.567 -3.07656 4.80316 0
M  V30 2846 O 275.501 -1.4406 5.84406 0
M  V30 2847 H 279.327 0.286002 3.0235 0
M  V30 2848 H 276.912 0.20598 1.47973 0
M  V30 2849 H 278.794 -2.08173 3.66391 0
M  V30 2850 H 277.469 -2.09445 2.46809 0
M  V30 2851 H 276.376 -0.155909 3.73775 0
M  V30 2852 H 277.709 -0.224797 4.91686 0
M  V30 2853 N 279.361 -1.56624 0.175154 0
M  V30 2854 C 280.61 -1.96173 -0.468921 0
M  V30 2855 C 280.923 -1.06401 -1.64128 0
M  V30 2856 O 282.129 -1.35648 -2.35185 0
M  V30 2857 C 280.585 -3.48833 -0.885633 0
M  V30 2858 C 280.193 -4.47237 0.261343 0
M  V30 2859 C 281.937 -3.97194 -1.49791 0
M  V30 2860 C 279.844 -5.9114 -0.175214 0
M  V30 2861 H 278.774 -0.732455 -0.178958 0
M  V30 2862 H 281.425 -1.81591 0.263997 0
M  V30 2863 H 279.807 -3.58848 -1.67464 0
M  V30 2864 H 280.981 -4.4894 1.03871 0
M  V30 2865 H 279.296 -4.08956 0.783827 0
M  V30 2866 H 281.893 -5.02167 -1.83665 0
M  V30 2867 H 282.236 -3.40351 -2.39722 0
M  V30 2868 H 282.769 -3.90212 -0.773267 0
M  V30 2869 H 279.508 -6.51865 0.689414 0
M  V30 2870 H 279.028 -5.92735 -0.91786 0
M  V30 2871 H 280.707 -6.44044 -0.617792 0
M  V30 2872 N 280.839 0.0985539 -1.57292 0
M  V30 2873 C 282.069 0.815135 -1.8984 0
M  V30 2874 C 282.477 1.7297 -0.766679 0
M  V30 2875 O 281.82 1.81698 0.270483 0
M  V30 2876 C 281.882 1.6842 -3.17608 0
M  V30 2877 C 281.546 0.94182 -4.4719 0
M  V30 2878 C 282.543 0.273212 -5.19182 0
M  V30 2879 C 280.228 0.916927 -4.9386 0
M  V30 2880 C 282.222 -0.410361 -6.36078 0
M  V30 2881 C 279.909 0.229567 -6.10669 0
M  V30 2882 C 280.907 -0.432902 -6.81627 0
M  V30 2883 O 280.595 -1.10925 -7.9621 0
M  V30 2884 H 280.327 0.238501 -0.632529 0
M  V30 2885 H 282.881 0.0812659 -2.05239 0
M  V30 2886 H 281.111 2.46022 -2.98345 0
M  V30 2887 H 282.8 2.27704 -3.36015 0
M  V30 2888 H 283.566 0.283927 -4.84168 0
M  V30 2889 H 279.445 1.42201 -4.3852 0
M  V30 2890 H 282.989 -0.928013 -6.914 0
M  V30 2891 H 278.886 0.216686 -6.45136 0
M  V30 2892 H 279.654 -1.01579 -8.12172 0
M  V30 2893 N 282.317 1.53212 0.369288 0
M  V30 2894 C 283.733 1.42902 0.710712 0
M  V30 2895 C 283.933 0.565135 1.93413 0
M  V30 2896 O 282.989 0.0461484 2.52458 0
M  V30 2897 C 284.302 2.86042 0.927382 0
M  V30 2898 C 285.85 2.9565 1.02762 0
M  V30 2899 C 286.325 4.39843 1.27679 0
M  V30 2900 N 287.816 4.43256 1.34457 0
M  V30 2901 C 288.551 5.51929 1.55439 0
M  V30 2902 N 288.047 6.70655 1.73762 0
M  V30 2903 N 289.84 5.39502 1.57779 0
M  V30 2904 H 281.991 2.07888 -0.435457 0
M  V30 2905 H 284.254 0.938661 -0.132739 0
M  V30 2906 H 283.96 3.51557 0.100287 0
M  V30 2907 H 283.834 3.29472 1.83653 0
M  V30 2908 H 286.221 2.30291 1.84527 0
M  V30 2909 H 286.302 2.5562 0.0959504 0
M  V30 2910 H 285.946 5.05774 0.464175 0
M  V30 2911 H 285.876 4.77443 2.22162 0
M  V30 2912 H 288.367 3.5769 1.21926 0
M  V30 2913 H 288.68 7.49248 1.89335 0
M  V30 2914 H 287.025 6.73648 1.70948 0
M  V30 2915 H 290.216 4.45713 1.43029 0
M  V30 2916 H 290.389 6.2426 1.7379 0
M  V30 2917 N 283.795 -0.628877 1.44509 0
M  V30 2918 C 284.705 -1.7694 1.54044 0
M  V30 2919 C 285.721 -1.68705 0.425987 0
M  V30 2920 O 286.897 -1.89442 0.683656 0
M  V30 2921 C 283.962 -3.13332 1.48405 0
M  V30 2922 C 283.023 -3.33181 2.70719 0
M  V30 2923 C 282.256 -4.63067 2.6534 0
M  V30 2924 O 282.479 -5.44017 1.71469 0
M  V30 2925 O 281.413 -4.85167 3.56226 0
M  V30 2926 H 285.239 -1.71848 2.50403 0
M  V30 2927 H 282.824 -0.790378 1.26781 0
M  V30 2928 H 284.706 -3.94634 1.47791 0
M  V30 2929 H 283.381 -3.1896 0.551898 0
M  V30 2930 H 282.288 -2.51549 2.769 0
M  V30 2931 H 283.621 -3.32416 3.62988 0
M  V30 2932 N 285.273 -1.31445 -0.869486 0
M  V30 2933 C 286.203 -1.21727 -1.99261 0
M  V30 2934 C 287.184 -0.104359 -1.6978 0
M  V30 2935 O 288.369 -0.289038 -1.92037 0
M  V30 2936 C 285.499 -0.924317 -3.34774 0
M  V30 2937 C 284.453 -1.99685 -3.78563 0
M  V30 2938 C 283.779 -1.55658 -5.11541 0
M  V30 2939 C 285.079 -3.41003 -3.95619 0
M  V30 2940 H 286.773 -2.1569 -2.07649 0
M  V30 2941 H 284.319 -1.03839 -0.997675 0
M  V30 2942 H 286.272 -0.842934 -4.12883 0
M  V30 2943 H 284.996 0.0509793 -3.2656 0
M  V30 2944 H 283.655 -2.06813 -3.02694 0
M  V30 2945 H 283.303 -0.569132 -4.9977 0
M  V30 2946 H 283.003 -2.27409 -5.41811 0
M  V30 2947 H 284.527 -1.48928 -5.92159 0
M  V30 2948 H 285.941 -3.36547 -4.64122 0
M  V30 2949 H 284.338 -4.10975 -4.37286 0
M  V30 2950 H 285.408 -3.81754 -2.98985 0
M  V30 2951 N 286.751 1.08385 -1.14413 0
M  V30 2952 C 288.028 1.77429 -0.823297 0
M  V30 2953 C 288.408 1.9974 0.683163 0
M  V30 2954 O 287.756 1.60739 1.62405 0
M  V30 2955 C 287.966 3.09004 -1.62227 0
M  V30 2956 C 289.314 3.83532 -1.82177 0
M  V30 2957 O 290.338 3.18786 -1.58915 0
M  V30 2958 O 289.197 4.99792 -2.21067 0
M  V30 2959 H 286.291 0.769999 -0.301712 0
M  V30 2960 H 288.837 1.14846 -1.24934 0
M  V30 2961 H 287.609 2.88316 -2.64555 0
M  V30 2962 H 287.232 3.79316 -1.19187 0
M  V30 2963 N 288.23 0.939286 1.26551 0
M  V30 2964 C 289.193 0.451987 2.24699 0
M  V30 2965 C 290.193 -0.435869 1.5478 0
M  V30 2966 O 291.383 -0.235314 1.72603 0
M  V30 2967 C 288.515 -0.348801 3.39111 0
M  V30 2968 H 289.708 1.3193 2.69322 0
M  V30 2969 H 287.261 0.721072 1.38673 0
M  V30 2970 H 287.996 -1.23444 2.99887 0
M  V30 2971 H 287.781 0.287945 3.91041 0
M  V30 2972 H 289.271 -0.679726 4.12031 0
M  V30 2973 N 289.708 -1.40897 0.706093 0
M  V30 2974 C 291.119 -1.84023 0.315052 0
M  V30 2975 C 291.47 -1.5906 -1.14866 0
M  V30 2976 O 290.595 -1.06651 -1.88293 0
M  V30 2977 C 291.19 -3.34055 0.565038 0
M  V30 2978 C 289.749 -3.7571 0.227806 0
M  V30 2979 C 288.896 -2.64204 0.842122 0
M  V30 2980 H 291.847 -1.303 0.905963 0
M  V30 2981 H 291.868 -3.80107 -0.172843 0
M  V30 2982 H 291.38 -3.52192 1.63042 0
M  V30 2983 H 289.481 -3.63172 -0.832895 0
M  V30 2984 H 289.594 -4.74103 0.690174 0
M  V30 2985 H 287.958 -2.53255 0.270893 0
M  V30 2986 H 288.741 -2.85155 1.91158 0
M  V30 2987 N 291.186 -0.45159 -1.50991 0
M  V30 2988 C 292.435 0.111653 -2.01391 0
M  V30 2989 C 292.748 1.42529 -1.33959 0
M  V30 2990 O 293.954 2.07232 -1.75405 0
M  V30 2991 C 292.41 0.249514 -3.59034 0
M  V30 2992 C 292.018 -1.05453 -4.35412 0
M  V30 2993 C 293.762 0.765762 -4.17536 0
M  V30 2994 C 291.669 -0.881529 -5.84793 0
M  V30 2995 H 290.599 0.0455022 -0.752626 0
M  V30 2996 H 293.25 -0.583524 -1.73975 0
M  V30 2997 H 291.632 1.00803 -3.82955 0
M  V30 2998 H 292.806 -1.82248 -4.23229 0
M  V30 2999 H 291.121 -1.50039 -3.88429 0
M  V30 3000 H 293.718 0.911913 -5.26866 0
M  V30 3001 H 294.061 1.75201 -3.77638 0
M  V30 3002 H 294.594 0.0651744 -3.97747 0
M  V30 3003 H 291.333 -1.84057 -6.29129 0
M  V30 3004 H 290.853 -0.153625 -5.99603 0
M  V30 3005 H 292.532 -0.540363 -6.4474 0
M  V30 3006 N 292.664 1.56529 -0.183458 0
M  V30 3007 C 293.913 1.96419 0.458511 0
M  V30 3008 C 294.226 1.0727 1.63562 0
M  V30 3009 O 295.432 1.36893 2.34462 0
M  V30 3010 C 293.888 3.49298 0.867122 0
M  V30 3011 C 293.496 4.47092 -0.285057 0
M  V30 3012 C 295.24 3.97983 1.47683 0
M  V30 3013 C 293.147 5.91225 0.143862 0
M  V30 3014 H 292.077 0.733394 0.175071 0
M  V30 3015 H 294.728 1.81448 -0.273624 0
M  V30 3016 H 293.11 3.59731 1.65559 0
M  V30 3017 H 294.284 4.48383 -1.0625 0
M  V30 3018 H 292.599 4.08535 -0.805503 0
M  V30 3019 H 295.196 5.03134 1.80999 0
M  V30 3020 H 295.539 3.41618 2.37914 0
M  V30 3021 H 296.072 3.90617 0.752562 0
M  V30 3022 H 292.811 6.5149 -0.723974 0
M  V30 3023 H 292.331 5.93214 0.886413 0
M  V30 3024 H 294.01 6.44362 0.583628 0
M  V30 3025 N 294.142 -0.090211 1.57342 0
M  V30 3026 C 295.558 -0.444547 1.53284 0
M  V30 3027 C 295.758 -1.80238 0.900914 0
M  V30 3028 O 294.814 -2.4759 0.495513 0
M  V30 3029 C 296.127 -0.402543 2.97993 0
M  V30 3030 C 297.675 -0.48405 3.09234 0
M  V30 3031 C 298.15 -0.472144 4.5556 0
M  V30 3032 N 299.641 -0.532757 4.60126 0
M  V30 3033 C 300.376 -0.545462 5.708 0
M  V30 3034 N 299.872 -0.514082 6.9089 0
M  V30 3035 N 301.665 -0.59064 5.58988 0
M  V30 3036 H 293.816 0.799121 1.96794 0
M  V30 3037 H 296.079 0.297965 0.899956 0
M  V30 3038 H 295.785 0.528106 3.47712 0
M  V30 3039 H 295.659 -1.21969 3.56936 0
M  V30 3040 H 298.046 -1.40512 2.595 0
M  V30 3041 H 298.127 0.361328 2.53235 0
M  V30 3042 H 297.771 0.445 5.05947 0
M  V30 3043 H 297.701 -1.3348 5.09402 0
M  V30 3044 H 300.192 -0.562006 3.73698 0
M  V30 3045 H 300.505 -0.527195 7.71 0
M  V30 3046 H 298.85 -0.481054 6.93333 0
M  V30 3047 H 302.041 -0.61272 4.64073 0
M  V30 3048 H 302.214 -0.597073 6.45243 0
M  V30 3049 N 295.62 -1.53406 -0.361157 0
M  V30 3050 C 296.567 -1.80156 -1.44265 0
M  V30 3051 C 297.537 -0.646183 -1.53015 0
M  V30 3052 O 298.722 -0.888818 -1.68833 0
M  V30 3053 C 295.862 -2.00116 -2.81154 0
M  V30 3054 C 294.975 -3.27833 -2.81335 0
M  V30 3055 C 294.11 -3.37957 -4.09828 0
M  V30 3056 C 293.149 -4.59689 -4.04168 0
M  V30 3057 N 292.286 -4.66942 -5.24318 0
M  V30 3058 H 297.126 -2.72438 -1.20754 0
M  V30 3059 H 294.663 -1.34954 -0.585296 0
M  V30 3060 H 296.621 -2.09677 -3.60682 0
M  V30 3061 H 295.251 -1.11167 -3.03054 0
M  V30 3062 H 294.303 -3.27204 -1.94014 0
M  V30 3063 H 295.615 -4.17442 -2.73027 0
M  V30 3064 H 294.769 -3.46853 -4.97773 0
M  V30 3065 H 293.508 -2.46372 -4.20894 0
M  V30 3066 H 292.513 -4.50889 -3.14609 0
M  V30 3067 H 293.738 -5.5262 -3.947 0
M  V30 3068 H 291.684 -3.7826 -5.35962 0
M  V30 3069 H 291.601 -5.50462 -5.18197 0
M  V30 3070 H 292.869 -4.80127 -6.14084 0
M  V30 3071 N 297.098 0.621204 -1.44841 0
M  V30 3072 C 298.326 1.40752 -1.51646 0
M  V30 3073 C 298.741 1.88246 -0.144549 0
M  V30 3074 O 298.098 1.61422 0.851416 0
M  V30 3075 C 298.149 2.62119 -2.4895 0
M  V30 3076 O 297.87 2.16602 -3.80808 0
M  V30 3077 C 299.371 3.55135 -2.65319 0
M  V30 3078 H 296.591 0.431325 -0.514004 0
M  V30 3079 H 299.135 0.758835 -1.899 0
M  V30 3080 H 297.29 3.23058 -2.13805 0
M  V30 3081 H 297.704 2.95358 -4.33433 0
M  V30 3082 H 299.178 4.36874 -3.37409 0
M  V30 3083 H 299.655 4.04592 -1.70886 0
M  V30 3084 H 300.261 3.00058 -3.01405 0
M  V30 3085 N 298.576 1.31904 0.862503 0
M  V30 3086 C 299.822 1.22197 1.61851 0
M  V30 3087 C 300.155 -0.217641 1.92977 0
M  V30 3088 O 299.43 -1.15264 1.56666 0
M  V30 3089 C 299.713 2.07378 2.94391 0
M  V30 3090 C 299.566 3.59678 2.70096 0
M  V30 3091 C 300.885 1.92891 3.95577 0
M  V30 3092 H 298.004 0.445255 0.587296 0
M  V30 3093 H 300.646 1.6177 0.99651 0
M  V30 3094 H 298.796 1.73758 3.47477 0
M  V30 3095 H 300.468 4.03472 2.23625 0
M  V30 3096 H 298.711 3.82735 2.04197 0
M  V30 3097 H 299.382 4.14595 3.64438 0
M  V30 3098 H 301.858 2.22327 3.51724 0
M  V30 3099 H 300.734 2.54781 4.86187 0
M  V30 3100 H 300.995 0.894315 4.3296 0
M  V30 3101 N 300.054 -1.07777 1.14986 0
M  V30 3102 C 300.964 -2.18404 0.856546 0
M  V30 3103 C 301.98 -1.73211 -0.165485 0
M  V30 3104 O 303.156 -2.01399 0.00755219 0
M  V30 3105 C 300.221 -3.44977 0.34526 0
M  V30 3106 C 299.282 -4.0476 1.43065 0
M  V30 3107 C 298.515 -5.25291 0.943663 0
M  V30 3108 O 298.738 -5.70004 -0.212426 0
M  V30 3109 O 297.672 -5.76638 1.72547 0
M  V30 3110 H 301.498 -2.45978 1.78125 0
M  V30 3111 H 299.083 -1.17033 0.928631 0
M  V30 3112 H 300.965 -4.21348 0.0663671 0
M  V30 3113 H 299.64 -3.18965 -0.551631 0
M  V30 3114 H 298.547 -3.29949 1.76309 0
M  V30 3115 H 299.88 -4.35035 2.30229 0
M  V30 3116 N 301.532 -0.945985 -1.26051 0
M  V30 3117 C 302.778 -0.597002 -1.93814 0
M  V30 3118 C 303.111 0.862484 -1.73997 0
M  V30 3119 O 302.386 1.61769 -1.07986 0
M  V30 3120 C 302.669 -0.945937 -3.47454 0
M  V30 3121 C 302.522 -2.46052 -3.76535 0
M  V30 3122 C 303.841 -0.464785 -4.37639 0
M  V30 3123 H 300.96 -0.218366 -0.703907 0
M  V30 3124 H 303.602 -1.18107 -1.48831 0
M  V30 3125 H 301.752 -0.448902 -3.85898 0
M  V30 3126 H 303.424 -3.03065 -3.47778 0
M  V30 3127 H 301.667 -2.90194 -3.22444 0
M  V30 3128 H 302.338 -2.65517 -4.83947 0
M  V30 3129 H 304.814 -0.891016 -4.06448 0
M  V30 3130 H 303.69 -0.737712 -5.4392 0
M  V30 3131 H 303.951 0.635274 -4.37512 0
M  V30 3132 N 303.011 1.40521 -0.713556 0
M  V30 3133 C 303.974 2.29098 -0.0684347 0
M  V30 3134 C 304.974 1.45268 0.689472 0
M  V30 3135 O 306.164 1.66205 0.521677 0
M  V30 3136 C 303.296 3.28446 0.913024 0
M  V30 3137 H 304.489 2.87645 -0.84855 0
M  V30 3138 H 302.042 1.48809 -0.47809 0
M  V30 3139 H 302.777 2.74913 1.72027 0
M  V30 3140 H 302.562 3.90327 0.372472 0
M  V30 3141 H 304.052 3.94777 1.36165 0
M  V30 3142 N 304.489 0.459591 1.5075 0
M  V30 3143 C 305.399 -0.34613 2.32033 0
M  V30 3144 C 306.415 -1.00686 1.41909 0
M  V30 3145 O 307.591 -0.997361 1.7497 0
M  V30 3146 C 304.656 -1.42029 3.16273 0
M  V30 3147 C 303.717 -0.777362 4.22203 0
M  V30 3148 C 302.95 -1.80034 5.02418 0
M  V30 3149 O 303.173 -3.02544 4.83553 0
M  V30 3150 O 302.107 -1.37853 5.85901 0
M  V30 3151 H 305.933 0.318054 3.0203 0
M  V30 3152 H 303.518 0.221663 1.47746 0
M  V30 3153 H 305.4 -2.04275 3.68578 0
M  V30 3154 H 304.075 -2.06815 2.49016 0
M  V30 3155 H 302.982 -0.116256 3.73919 0
M  V30 3156 H 304.315 -0.172634 4.91897 0
M  V30 3157 N 305.967 -1.56429 0.191757 0
M  V30 3158 C 306.9 -2.14829 -0.76967 0
M  V30 3159 C 307.878 -1.08405 -1.2119 0
M  V30 3160 O 309.062 -1.36498 -1.30002 0
M  V30 3161 C 306.189 -2.70446 -2.03903 0
M  V30 3162 C 305.235 -3.89428 -1.7392 0
M  V30 3163 S 306.068 -5.28048 -0.890265 0
M  V30 3164 C 307.224 -5.87085 -2.16984 0
M  V30 3165 H 307.457 -2.96042 -0.273204 0
M  V30 3166 H 304.99 -1.54383 -0.0231975 0
M  V30 3167 H 306.948 -3.03134 -2.76803 0
M  V30 3168 H 305.609 -1.89281 -2.50662 0
M  V30 3169 H 304.802 -4.26742 -2.68155 0
M  V30 3170 H 304.404 -3.57732 -1.09103 0
M  V30 3171 H 306.696 -6.01244 -3.12269 0
M  V30 3172 H 307.639 -6.83747 -1.84108 0
M  V30 3173 H 308.047 -5.15663 -2.29678 0
M  V30 3174 N 307.445 0.0818655 -1.57387 0
M  V30 3175 C 308.694 0.781681 -1.85937 0
M  V30 3176 C 309.007 1.79246 -0.782957 0
M  V30 3177 O 310.213 2.54112 -0.955987 0
M  V30 3178 C 308.669 1.44109 -3.29789 0
M  V30 3179 C 308.277 0.469396 -4.45534 0
M  V30 3180 C 310.021 2.12386 -3.67549 0
M  V30 3181 C 307.928 1.13415 -5.80423 0
M  V30 3182 H 306.858 0.295682 -0.693605 0
M  V30 3183 H 309.509 0.0348051 -1.83467 0
M  V30 3184 H 307.891 2.23588 -3.2684 0
M  V30 3185 H 309.065 -0.294856 -4.59856 0
M  V30 3186 H 307.38 -0.108383 -4.16259 0
M  V30 3187 H 309.977 2.62878 -4.65617 0
M  V30 3188 H 310.32 2.91877 -2.96839 0
M  V30 3189 H 310.853 1.39751 -3.72444 0
M  V30 3190 H 307.592 0.379771 -6.54399 0
M  V30 3191 H 307.112 1.8695 -5.69921 0
M  V30 3192 H 308.791 1.65686 -6.25426 0
M  V30 3193 N 308.923 1.53595 0.353017 0
M  V30 3194 C 309.87 1.80919 1.43308 0
M  V30 3195 C 310.84 0.654288 1.5267 0
M  V30 3196 O 312.025 0.897759 1.6836 0
M  V30 3197 C 309.165 2.01605 2.80089 0
M  V30 3198 C 308.278 3.29321 2.79593 0
M  V30 3199 C 307.413 3.40125 4.0803 0
M  V30 3200 C 306.452 4.61826 4.01725 0
M  V30 3201 N 305.589 4.69716 5.21834 0
M  V30 3202 H 310.429 2.73074 1.19308 0
M  V30 3203 H 307.966 1.35263 0.578131 0
M  V30 3204 H 309.924 2.11586 3.59565 0
M  V30 3205 H 308.554 1.12772 3.0246 0
M  V30 3206 H 307.606 3.28229 1.92276 0
M  V30 3207 H 308.918 4.18884 2.70809 0
M  V30 3208 H 308.072 3.49488 4.95927 0
M  V30 3209 H 306.811 2.48601 4.19582 0
M  V30 3210 H 305.816 4.52552 3.12213 0
M  V30 3211 H 307.041 5.54705 3.91764 0
M  V30 3212 H 304.987 3.81097 5.33948 0
M  V30 3213 H 304.904 5.53202 5.1527 0
M  V30 3214 H 306.172 4.83376 6.11529 0
M  V30 3215 N 310.401 -0.613514 1.45168 0
M  V30 3216 C 311.631 -1.39743 1.52169 0
M  V30 3217 C 312.039 -1.88596 0.151086 0
M  V30 3218 O 311.382 -1.6251 -0.856521 0
M  V30 3219 C 311.444 -2.64035 2.43979 0
M  V30 3220 C 311.108 -2.36861 3.90827 0
M  V30 3221 C 312.105 -1.97591 4.80889 0
M  V30 3222 C 309.79 -2.49956 4.35692 0
M  V30 3223 C 311.784 -1.71768 6.1382 0
M  V30 3224 C 309.471 -2.23747 5.68665 0
M  V30 3225 C 310.469 -1.84714 6.57548 0
M  V30 3226 O 310.157 -1.58809 7.88058 0
M  V30 3227 H 309.889 -0.434382 0.517966 0
M  V30 3228 H 312.443 -0.75587 1.90986 0
M  V30 3229 H 310.673 -3.3089 2.00122 0
M  V30 3230 H 312.362 -3.26069 2.41731 0
M  V30 3231 H 313.128 -1.87015 4.47493 0
M  V30 3232 H 309.007 -2.79305 3.66756 0
M  V30 3233 H 312.551 -1.41227 6.83155 0
M  V30 3234 H 308.448 -2.33938 6.01617 0
M  V30 3235 H 309.216 -1.7291 8.00028 0
M  V30 3236 N 311.879 -1.3236 -0.855495 0
M  V30 3237 C 313.107 -1.2587 -1.64208 0
M  V30 3238 C 313.522 0.173457 -1.88002 0
M  V30 3239 O 312.879 1.11027 -1.44842 0
M  V30 3240 C 312.93 -2.01424 -3.00184 0
M  V30 3241 O 312.651 -3.39051 -2.77445 0
M  V30 3242 C 314.152 -2.01948 -3.94629 0
M  V30 3243 H 311.372 -0.434318 -0.511477 0
M  V30 3244 H 313.916 -1.74469 -1.0668 0
M  V30 3245 H 312.071 -1.56549 -3.5436 0
M  V30 3246 H 312.485 -3.77711 -3.63916 0
M  V30 3247 H 313.959 -2.59297 -4.87308 0
M  V30 3248 H 314.436 -1.00554 -4.27534 0
M  V30 3249 H 315.042 -2.46767 -3.4639 0
M  V30 3250 N 313.357 1.07166 -1.15556 0
M  V30 3251 C 314.597 1.81391 -0.94216 0
M  V30 3252 C 314.961 1.84788 0.521272 0
M  V30 3253 O 316.162 2.54904 0.85307 0
M  V30 3254 C 314.433 3.22431 -1.54185 0
M  V30 3255 S 315.992 4.13379 -1.47183 0
M  V30 3256 H 312.81 0.624963 -0.339031 0
M  V30 3257 H 315.412 1.28725 -1.4714 0
M  V30 3258 H 314.116 3.17548 -2.59984 0
M  V30 3259 H 313.647 3.80172 -1.01156 0
M  V30 3260 H 315.662 4.94007 -0.466004 0
M  V30 3261 N 314.835 0.952656 1.25548 0
M  V30 3262 C 315.783 0.462354 2.27958 0
M  V30 3263 C 316.777 -0.46634 1.62855 0
M  V30 3264 O 317.983 -0.343287 1.76696 0
M  V30 3265 H 314.358 0.13101 0.7405 0
M  V30 3266 H 316.329 1.33839 2.66702 0
M  V30 3267 C 315.078 -0.24628 3.46827 0
M  V30 3268 H 314.401 0.459192 3.97154 0
M  V30 3269 H 315.841 -0.553393 4.20373 0
M  V30 3270 C 314.3 -1.4681 3.0323 0
M  V30 3271 O 314.83 -2.56591 3.09069 0
M  V30 3272 N 313.036 -1.32874 2.58443 0
M  V30 3273 H 312.583 -0.435536 2.53891 0
M  V30 3274 H 312.541 -2.14742 2.29637 0
M  V30 3275 N 316.313 -1.40141 0.720998 0
M  V30 3276 C 317.559 -2.01084 0.263231 0
M  V30 3277 C 317.892 -1.57052 -1.14229 0
M  V30 3278 O 317.167 -0.793027 -1.77599 0
M  V30 3279 C 317.45 -3.58401 0.349344 0
M  V30 3280 C 317.303 -4.12491 1.79363 0
M  V30 3281 C 318.622 -4.39231 -0.276351 0
M  V30 3282 H 315.741 -0.730572 0.0971228 0
M  V30 3283 H 318.383 -1.66543 0.914518 0
M  V30 3284 H 316.533 -3.87958 -0.205165 0
M  V30 3285 H 318.205 -3.93711 2.40394 0
M  V30 3286 H 316.448 -3.66576 2.31958 0
M  V30 3287 H 317.119 -5.21646 1.80524 0
M  V30 3288 H 319.595 -4.15637 0.196184 0
M  V30 3289 H 318.471 -5.48586 -0.185681 0
M  V30 3290 H 318.732 -4.20643 -1.36059 0
M  V30 3291 N 317.792 -0.46758 -1.50504 0
M  V30 3292 C 319.038 0.0808869 -2.03239 0
M  V30 3293 C 319.393 1.37721 -1.34353 0
M  V30 3294 O 318.686 1.86016 -0.459194 0
M  V30 3295 C 318.88 0.323995 -3.55928 0
M  V30 3296 C 318.709 -0.947215 -4.39611 0
M  V30 3297 C 317.479 -1.48951 -4.82848 0
M  V30 3298 C 319.677 -1.84166 -4.80195 0
M  V30 3299 N 317.659 -2.71011 -5.50842 0
M  V30 3300 C 319.03 -2.90815 -5.47564 0
M  V30 3301 C 321.085 -1.85246 -4.62156 0
M  V30 3302 C 319.788 -3.98529 -5.98805 0
M  V30 3303 C 321.814 -2.91914 -5.14335 0
M  V30 3304 C 321.176 -3.97282 -5.81676 0
M  V30 3305 H 317.275 -0.0103394 -0.781932 0
M  V30 3306 H 319.859 -0.635003 -1.84054 0
M  V30 3307 H 318.03 1.00892 -3.75067 0
M  V30 3308 H 319.762 0.866492 -3.95315 0
M  V30 3309 H 316.517 -1.03918 -4.62058 0
M  V30 3310 H 316.941 -3.32988 -5.89447 0
M  V30 3311 H 321.583 -1.05103 -4.09528 0
M  V30 3312 H 319.301 -4.79491 -6.50472 0
M  V30 3313 H 322.887 -2.93729 -5.0221 0
M  V30 3314 H 321.767 -4.78462 -6.21324 0
M  V30 3315 N 319.27 1.56325 -0.20005 0
M  V30 3316 C 320.22 2.15939 0.731743 0
M  V30 3317 C 321.204 1.10154 1.17281 0
M  V30 3318 O 322.396 1.36203 1.13038 0
M  V30 3319 C 319.525 2.82614 1.94895 0
M  V30 3320 C 318.611 3.95596 1.52855 0
M  V30 3321 N 319.002 4.99118 0.819418 0
M  V30 3322 C 317.3 4.07288 1.81748 0
M  V30 3323 C 318.001 5.78513 0.608053 0
M  V30 3324 N 316.977 5.31117 1.15828 0
M  V30 3325 H 320.779 2.9334 0.181285 0
M  V30 3326 H 318.293 1.624 -0.000452172 0
M  V30 3327 H 320.29 3.23718 2.62702 0
M  V30 3328 H 318.95 2.06702 2.50408 0
M  V30 3329 H 319.961 5.15723 0.47436 0
M  V30 3330 H 316.638 3.42509 2.38734 0
M  V30 3331 H 318.028 6.71885 0.0451619 0
M  V30 3332 N 320.748 -0.0735177 1.57428 0
M  V30 3333 C 321.711 -1.07192 2.02589 0
M  V30 3334 C 322.711 -1.31695 0.922661 0
M  V30 3335 O 323.901 -1.27445 1.18758 0
M  V30 3336 C 321.033 -2.41599 2.40506 0
M  V30 3337 H 322.226 -0.682727 2.92025 0
M  V30 3338 H 319.779 -0.319193 1.53006 0
M  V30 3339 H 320.514 -2.85354 1.5409 0
M  V30 3340 H 320.299 -2.25156 3.21009 0
M  V30 3341 H 321.789 -3.13367 2.76027 0
M  V30 3342 N 322.226 -1.5378 -0.344866 0
M  V30 3343 C 323.189 -1.80981 -1.40637 0
M  V30 3344 C 324.189 -0.680816 -1.45676 0
M  V30 3345 O 325.379 -0.949095 -1.46075 0
M  V30 3346 C 322.511 -1.95063 -2.79577 0
M  V30 3347 H 323.704 -2.75803 -1.17783 0
M  V30 3348 H 321.257 -1.45173 -0.579181 0
M  V30 3349 H 321.992 -1.02379 -3.07716 0
M  V30 3350 H 321.777 -2.77198 -2.77315 0
M  V30 3351 H 323.267 -2.17629 -3.56409 0
M  V30 3352 N 323.704 0.605807 -1.45491 0
M  V30 3353 C 324.651 1.7164 -1.54299 0
M  V30 3354 C 325.621 1.61486 -0.388761 0
M  V30 3355 O 326.806 1.81039 -0.602445 0
M  V30 3356 C 323.946 3.09953 -1.51734 0
M  V30 3357 C 323.059 3.309 -2.77721 0
M  V30 3358 C 322.194 4.59329 -2.66816 0
M  V30 3359 C 321.233 4.7354 -3.87848 0
M  V30 3360 N 320.37 5.9327 -3.75467 0
M  V30 3361 H 325.21 1.63449 -2.49176 0
M  V30 3362 H 322.747 0.796957 -1.23641 0
M  V30 3363 H 324.705 3.89977 -1.48235 0
M  V30 3364 H 323.335 3.17098 -0.604068 0
M  V30 3365 H 322.387 2.44639 -2.913 0
M  V30 3366 H 323.699 3.37274 -3.67488 0
M  V30 3367 H 322.853 5.4755 -2.61292 0
M  V30 3368 H 321.592 4.55355 -1.74651 0
M  V30 3369 H 320.597 3.83741 -3.93729 0
M  V30 3370 H 321.822 4.79309 -4.81082 0
M  V30 3371 H 319.768 5.90338 -2.86072 0
M  V30 3372 H 319.685 6.00811 -4.5887 0
M  V30 3373 H 320.953 6.83984 -3.73879 0
M  V30 3374 N 325.182 1.32811 0.848464 0
M  V30 3375 C 326.428 1.23907 1.60546 0
M  V30 3376 C 326.761 -0.197161 1.93197 0
M  V30 3377 O 326.036 -1.13596 1.5788 0
M  V30 3378 C 326.319 2.10489 2.92175 0
M  V30 3379 C 326.172 3.62522 2.66266 0
M  V30 3380 C 327.491 1.97075 3.93509 0
M  V30 3381 H 324.61 0.451459 0.58254 0
M  V30 3382 H 327.252 1.62818 0.979296 0
M  V30 3383 H 325.402 1.77434 3.45614 0
M  V30 3384 H 327.074 4.05821 2.19334 0
M  V30 3385 H 325.317 3.84879 2.00126 0
M  V30 3386 H 325.988 4.18437 3.6002 0
M  V30 3387 H 328.464 2.26045 3.49346 0
M  V30 3388 H 327.34 2.59923 4.83457 0
M  V30 3389 H 327.601 0.940186 4.31987 0
M  V30 3390 N 326.66 -1.06551 1.16123 0
M  V30 3391 C 327.888 -1.83005 0.965237 0
M  V30 3392 C 328.303 -1.82423 -0.486542 0
M  V30 3393 O 327.66 -1.24152 -1.33763 0
M  V30 3394 C 327.711 -3.29733 1.48183 0
M  V30 3395 O 327.432 -3.30416 2.87674 0
M  V30 3396 C 328.933 -4.22926 1.32848 0
M  V30 3397 H 326.153 -0.577118 0.342309 0
M  V30 3398 H 328.697 -1.3445 1.54089 0
M  V30 3399 H 326.852 -3.75609 0.948517 0
M  V30 3400 H 327.266 -4.22149 3.11272 0
M  V30 3401 H 328.74 -5.23916 1.73827 0
M  V30 3402 H 329.217 -4.38346 0.273692 0
M  V30 3403 H 329.823 -3.82894 1.85127 0
M  V30 3404 N 328.138 -0.959301 -1.25041 0
M  V30 3405 C 329.385 -0.616611 -1.92884 0
M  V30 3406 C 329.713 0.847036 -1.75087 0
M  V30 3407 O 328.968 1.62374 -1.09239 0
M  V30 3408 C 329.267 -0.927136 -3.45165 0
M  V30 3409 C 328.933 -2.37757 -3.83122 0
M  V30 3410 C 327.595 -2.77402 -3.93194 0
M  V30 3411 C 329.947 -3.31929 -4.01836 0
M  V30 3412 C 327.275 -4.10277 -4.19392 0
M  V30 3413 C 329.627 -4.64423 -4.29528 0
M  V30 3414 C 328.291 -5.03857 -4.37818 0
M  V30 3415 H 327.561 -0.225634 -0.705812 0
M  V30 3416 H 330.208 -1.20921 -1.48493 0
M  V30 3417 H 328.513 -0.252195 -3.90987 0
M  V30 3418 H 330.21 -0.6405 -3.95852 0
M  V30 3419 H 326.8 -2.06013 -3.75841 0
M  V30 3420 H 330.984 -3.02488 -3.93465 0
M  V30 3421 H 326.24 -4.40467 -4.24027 0
M  V30 3422 H 330.414 -5.37369 -4.42953 0
M  V30 3423 H 328.041 -6.06843 -4.57871 0
M  V30 3424 N 329.616 1.39756 -0.72842 0
M  V30 3425 C 330.579 2.29012 -0.0927297 0
M  V30 3426 C 331.579 1.45992 0.674025 0
M  V30 3427 O 332.769 1.66749 0.50402 0
M  V30 3428 C 329.901 3.29396 0.878137 0
M  V30 3429 H 331.094 2.86729 -0.879011 0
M  V30 3430 H 328.647 1.48293 -0.493847 0
M  V30 3431 H 329.382 2.76722 1.69101 0
M  V30 3432 H 329.167 3.907 0.331051 0
M  V30 3433 H 330.657 3.96199 1.3197 0
M  V30 3434 N 331.094 0.475555 1.50254 0
M  V30 3435 C 332.042 -0.330276 2.30243 0
M  V30 3436 C 333.036 -0.986306 1.37726 0
M  V30 3437 O 334.242 -0.9169 1.54897 0
M  V30 3438 H 330.617 -0.125353 0.741479 0
M  V30 3439 H 332.588 0.364702 2.96163 0
M  V30 3440 C 331.337 -1.39704 3.18399 0
M  V30 3441 H 330.66 -0.901621 3.89501 0
M  V30 3442 H 332.1 -1.93336 3.77355 0
M  V30 3443 C 330.559 -2.4014 2.36293 0
M  V30 3444 O 331.089 -3.45504 2.04914 0
M  V30 3445 N 329.295 -2.1197 1.98789 0
M  V30 3446 H 328.842 -1.2631 2.24507 0
M  V30 3447 H 328.8 -2.79403 1.44157 0
M  V30 3448 N 332.573 -1.56217 0.208337 0
M  V30 3449 C 333.483 -2.23316 -0.718836 0
M  V30 3450 C 334.499 -1.23648 -1.22422 0
M  V30 3451 O 335.675 -1.56423 -1.26861 0
M  V30 3452 C 332.74 -2.88968 -1.91568 0
M  V30 3453 C 331.801 -4.03943 -1.45357 0
M  V30 3454 C 331.034 -4.66455 -2.59337 0
M  V30 3455 O 331.257 -4.27919 -3.77149 0
M  V30 3456 O 330.191 -5.55686 -2.31293 0
M  V30 3457 H 334.017 -3.03182 -0.177315 0
M  V30 3458 H 331.602 -1.49384 -0.0215402 0
M  V30 3459 H 333.484 -3.30455 -2.61491 0
M  V30 3460 H 332.159 -2.12071 -2.44556 0
M  V30 3461 H 331.066 -3.67052 -0.722746 0
M  V30 3462 H 332.399 -4.82543 -0.970219 0
M  V30 3463 N 334.051 0.0651679 -1.57465 0
M  V30 3464 C 335.3 0.761916 -1.86756 0
M  V30 3465 C 335.613 1.78406 -0.801925 0
M  V30 3466 O 336.819 2.53084 -0.982885 0
M  V30 3467 C 335.275 1.40603 -3.31299 0
M  V30 3468 C 334.883 0.422115 -4.46007 0
M  V30 3469 C 336.627 2.08476 -3.69781 0
M  V30 3470 C 334.534 1.07252 -5.81593 0
M  V30 3471 H 333.464 0.288308 -0.696702 0
M  V30 3472 H 336.115 0.015344 -1.83494 0
M  V30 3473 H 334.497 2.20109 -3.29193 0
M  V30 3474 H 335.671 -0.343613 -4.59517 0
M  V30 3475 H 333.986 -0.152527 -4.16121 0
M  V30 3476 H 336.583 2.57925 -4.68379 0
M  V30 3477 H 336.926 2.88712 -2.99919 0
M  V30 3478 H 337.459 1.35792 -3.73905 0
M  V30 3479 H 334.198 0.310342 -6.54765 0
M  V30 3480 H 333.718 1.80895 -5.71872 0
M  V30 3481 H 335.397 1.59043 -6.27148 0
M  V30 3482 N 335.529 1.53961 0.336706 0
M  V30 3483 C 336.777 1.71197 1.07405 0
M  V30 3484 C 337.098 0.481475 1.88962 0
M  V30 3485 O 336.368 -0.504585 1.8929 0
M  V30 3486 H 334.948 0.631185 0.399517 0
M  V30 3487 H 337.61 1.91232 0.376323 0
M  V30 3488 H 336.706 2.58587 1.74755 0
M  V30 3489 N 337.007 -0.598083 1.45811 0
M  V30 3490 C 337.955 -1.72932 1.55555 0
M  V30 3491 C 338.949 -1.63984 0.424921 0
M  V30 3492 O 340.155 -1.69663 0.601205 0
M  V30 3493 H 336.53 -0.571489 0.488779 0
M  V30 3494 H 338.501 -1.61842 2.50699 0
M  V30 3495 C 337.25 -3.11318 1.54843 0
M  V30 3496 H 336.573 -3.18867 2.41172 0
M  V30 3497 H 338.013 -3.90274 1.65717 0
M  V30 3498 C 336.472 -3.3578 0.274427 0
M  V30 3499 O 337.002 -3.9654 -0.641778 0
M  V30 3500 N 335.208 -2.90119 0.167139 0
M  V30 3501 H 334.755 -2.40855 0.913596 0
M  V30 3502 H 334.713 -3.0686 -0.684435 0
M  V30 3503 N 338.485 -1.33259 -0.841409 0
M  V30 3504 C 339.734 -1.23921 -1.59143 0
M  V30 3505 C 340.047 0.1941 -1.94635 0
M  V30 3506 O 341.253 0.409474 -2.68394 0
M  V30 3507 C 339.709 -2.17119 -2.87032 0
M  V30 3508 C 339.317 -3.65606 -2.58914 0
M  V30 3509 C 341.061 -2.16648 -3.65053 0
M  V30 3510 C 338.968 -4.50726 -3.82884 0
M  V30 3511 H 337.898 -0.460264 -0.597221 0
M  V30 3512 H 340.549 -1.58307 -0.927959 0
M  V30 3513 H 338.931 -1.75663 -3.54906 0
M  V30 3514 H 340.105 -4.15487 -1.99267 0
M  V30 3515 H 338.42 -3.68341 -1.942 0
M  V30 3516 H 341.017 -2.77474 -4.57069 0
M  V30 3517 H 341.36 -1.16088 -3.99787 0
M  V30 3518 H 341.893 -2.56453 -3.041 0
M  V30 3519 H 338.632 -5.52151 -3.53283 0
M  V30 3520 H 338.152 -4.0559 -4.41879 0
M  V30 3521 H 339.831 -4.64401 -4.50489 0
M  V30 3522 N 339.963 1.05934 -1.16686 0
M  V30 3523 C 340.926 2.11669 -0.879144 0
M  V30 3524 C 341.926 1.60294 0.127445 0
M  V30 3525 O 343.116 1.7389 -0.103865 0
M  V30 3526 C 340.248 3.39438 -0.315425 0
M  V30 3527 H 341.441 2.38626 -1.81653 0
M  V30 3528 H 338.994 1.22058 -0.976299 0
M  V30 3529 H 339.729 3.18132 0.629468 0
M  V30 3530 H 339.514 3.78034 -1.04079 0
M  V30 3531 H 341.004 4.17391 -0.132189 0
M  V30 3532 N 341.441 0.965919 1.2453 0
M  V30 3533 C 342.388 0.49402 2.25451 0
M  V30 3534 C 343.358 -0.45948 1.59618 0
M  V30 3535 O 344.543 -0.370238 1.87173 0
M  V30 3536 C 341.683 -0.211359 3.44452 0
M  V30 3537 C 340.796 0.7807 4.24887 0
M  V30 3538 C 339.931 0.0516105 5.31175 0
M  V30 3539 C 338.97 1.03385 6.03306 0
M  V30 3540 N 338.107 0.334887 7.01301 0
M  V30 3541 H 342.947 1.35946 2.65184 0
M  V30 3542 H 340.484 0.681515 1.3036 0
M  V30 3543 H 342.442 -0.637 4.12308 0
M  V30 3544 H 341.072 -1.04077 3.05562 0
M  V30 3545 H 340.124 1.32479 3.56586 0
M  V30 3546 H 341.436 1.52978 4.74762 0
M  V30 3547 H 340.59 -0.432114 6.05159 0
M  V30 3548 H 339.329 -0.730179 4.82203 0
M  V30 3549 H 338.334 1.52847 5.28127 0
M  V30 3550 H 339.559 1.81606 6.54367 0
M  V30 3551 H 337.505 -0.427959 6.54603 0
M  V30 3552 H 337.422 1.02287 7.49048 0
M  V30 3553 H 338.69 -0.126928 7.79397 0
M  V30 3554 N 342.919 -1.39368 0.735821 0
M  V30 3555 C 343.882 -2.2896 0.104874 0
M  V30 3556 C 344.882 -1.46347 -0.666274 0
M  V30 3557 O 346.072 -1.67014 -0.49517 0
M  V30 3558 C 343.204 -3.29857 -0.860656 0
M  V30 3559 H 344.397 -2.86259 0.894205 0
M  V30 3560 H 341.95 -1.48029 0.501704 0
M  V30 3561 H 342.685 -2.77615 -1.67631 0
M  V30 3562 H 342.47 -3.9087 -0.310327 0
M  V30 3563 H 343.96 -3.96893 -1.29867 0
M  V30 3564 N 344.397 -0.483516 -1.5 0
M  V30 3565 C 345.643 0.0672592 -2.02688 0
M  V30 3566 C 345.976 1.38247 -1.36387 0
M  V30 3567 O 345.251 1.88131 -0.493675 0
M  V30 3568 C 345.534 0.238109 -3.59312 0
M  V30 3569 C 345.387 -1.099 -4.36168 0
M  V30 3570 C 346.706 0.986916 -4.28892 0
M  V30 3571 H 343.825 0.0229696 -0.736642 0
M  V30 3572 H 346.467 -0.631527 -1.79197 0
M  V30 3573 H 344.617 0.8333 -3.79458 0
M  V30 3574 H 346.289 -1.73172 -4.27562 0
M  V30 3575 H 344.532 -1.69261 -3.99416 0
M  V30 3576 H 345.203 -0.932954 -5.44059 0
M  V30 3577 H 347.679 0.482302 -4.13295 0
M  V30 3578 H 346.555 1.07527 -5.38265 0
M  V30 3579 H 346.816 2.0265 -3.92919 0
M  V30 3580 N 345.875 1.56104 -0.216619 0
M  V30 3581 C 347.123 1.97781 0.415593 0
M  V30 3582 C 347.444 1.10536 1.60645 0
M  V30 3583 O 346.714 0.181303 1.95059 0
M  V30 3584 H 345.294 0.730415 0.156534 0
M  V30 3585 H 347.956 1.92445 -0.308366 0
M  V30 3586 H 347.052 3.03072 0.74525 0
M  V30 3587 N 347.353 -0.0568162 1.57498 0
M  V30 3588 C 348.599 -0.75422 1.88253 0
M  V30 3589 C 348.932 -1.76461 0.810865 0
M  V30 3590 O 348.207 -1.93691 -0.177259 0
M  V30 3591 C 348.49 -1.44878 3.2967 0
M  V30 3592 C 348.343 -0.453789 4.47505 0
M  V30 3593 C 349.662 -2.38994 3.69554 0
M  V30 3594 H 346.781 -0.272724 0.684683 0
M  V30 3595 H 349.423 -0.0172113 1.89992 0
M  V30 3596 H 347.573 -2.077 3.28318 0
M  V30 3597 H 349.245 0.170371 4.60985 0
M  V30 3598 H 347.488 0.229552 4.33192 0
M  V30 3599 H 348.159 -0.977699 5.43273 0
M  V30 3600 H 350.635 -1.86239 3.72095 0
M  V30 3601 H 349.511 -2.84587 4.69363 0
M  V30 3602 H 349.772 -3.24461 3.00296 0
M  V30 3603 N 348.832 -1.54138 -0.328536 0
M  V30 3604 C 350.109 -1.62749 -1.08499 0
M  V30 3605 C 350.489 -0.458198 -2.06067 0
M  V30 3606 O 349.837 0.548046 -2.2183 0
M  V30 3607 C 350.047 -2.99519 -1.79135 0
M  V30 3608 C 351.395 -3.55394 -2.32337 0
M  V30 3609 O 352.419 -3.01792 -1.89209 0
M  V30 3610 O 351.278 -4.49186 -3.11279 0
M  V30 3611 H 348.372 -0.65886 -0.499832 0
M  V30 3612 H 350.918 -1.66484 -0.328826 0
M  V30 3613 H 349.69 -3.76061 -1.08139 0
M  V30 3614 H 349.313 -2.99441 -2.61574 0
M  V30 3615 N 350.31 0.590341 -1.46126 0
M  V30 3616 C 351.558 1.34616 -1.50742 0
M  V30 3617 C 351.879 1.94363 -0.157486 0
M  V30 3618 O 351.149 1.78136 0.815136 0
M  V30 3619 H 349.729 0.499789 -0.555175 0
M  V30 3620 H 352.391 0.691953 -1.82203 0
M  V30 3621 H 351.487 2.15678 -2.25587 0
M  V30 3622 N 351.788 1.33704 0.83433 0
M  V30 3623 C 353.204 1.13137 1.12571 0
M  V30 3624 C 353.404 -0.0747261 2.01361 0
M  V30 3625 O 352.46 -0.753647 2.4099 0
M  V30 3626 C 353.773 2.42105 1.78342 0
M  V30 3627 C 355.321 2.48054 1.90888 0
M  V30 3628 C 355.796 3.76995 2.60075 0
M  V30 3629 N 357.287 3.78092 2.67584 0
M  V30 3630 C 358.022 4.74574 3.21818 0
M  V30 3631 N 357.518 5.81434 3.76705 0
M  V30 3632 N 359.311 4.62044 3.20112 0
M  V30 3633 H 351.462 2.11 0.243489 0
M  V30 3634 H 353.725 0.932532 0.17055 0
M  V30 3635 H 353.431 3.30391 1.20561 0
M  V30 3636 H 353.305 2.54594 2.7832 0
M  V30 3637 H 355.692 1.60215 2.47821 0
M  V30 3638 H 355.773 2.39502 0.898459 0
M  V30 3639 H 355.417 4.65219 2.03799 0
M  V30 3640 H 355.347 3.82825 3.61597 0
M  V30 3641 H 357.838 3.00865 2.28667 0
M  V30 3642 H 358.151 6.51084 4.16305 0
M  V30 3643 H 356.496 5.85163 3.7498 0
M  V30 3644 H 359.687 3.77716 2.76493 0
M  V30 3645 H 359.86 5.37406 3.62076 0
M  V30 3646 N 353.266 -1.05314 1.17247 0
M  V30 3647 C 354.176 -2.16538 0.90268 0
M  V30 3648 C 355.192 -1.73523 -0.128707 0
M  V30 3649 O 356.368 -2.01337 0.0502701 0
M  V30 3650 C 353.433 -3.44167 0.418356 0
M  V30 3651 C 352.494 -4.01635 1.51618 0
M  V30 3652 C 351.727 -5.23171 1.05487 0
M  V30 3653 O 351.95 -5.70327 -0.0914715 0
M  V30 3654 O 350.884 -5.72848 1.8474 0
M  V30 3655 H 354.71 -2.42145 1.83302 0
M  V30 3656 H 352.295 -1.15037 0.953246 0
M  V30 3657 H 354.177 -4.21112 0.155726 0
M  V30 3658 H 352.852 -3.20063 -0.48385 0
M  V30 3659 H 351.759 -3.26135 1.83268 0
M  V30 3660 H 353.092 -4.30053 2.39405 0
M  V30 3661 N 354.744 -0.972509 -1.24016 0
M  V30 3662 C 355.99 -0.637978 -1.92504 0
M  V30 3663 C 356.323 0.825383 -1.75787 0
M  V30 3664 O 355.598 1.59442 -1.11393 0
M  V30 3665 C 355.881 -1.01942 -3.45369 0
M  V30 3666 C 355.734 -2.53983 -3.71231 0
M  V30 3667 C 357.053 -0.55751 -4.36555 0
M  V30 3668 H 354.172 -0.233248 -0.699117 0
M  V30 3669 H 356.814 -1.21238 -1.46292 0
M  V30 3670 H 354.964 -0.530656 -3.84859 0
M  V30 3671 H 356.636 -3.10374 -3.41271 0
M  V30 3672 H 354.879 -2.96968 -3.16216 0
M  V30 3673 H 355.55 -2.75723 -4.78206 0
M  V30 3674 H 358.026 -0.977029 -4.04467 0
M  V30 3675 H 356.902 -0.85292 -5.42233 0
M  V30 3676 H 357.163 0.542328 -4.38761 0
M  V30 3677 N 356.222 1.38976 -0.743202 0
M  V30 3678 C 357.155 2.28128 -0.0572165 0
M  V30 3679 C 358.133 1.44827 0.739182 0
M  V30 3680 O 359.317 1.74207 0.720009 0
M  V30 3681 C 356.444 3.25796 0.926001 0
M  V30 3682 C 355.49 4.25947 0.217099 0
M  V30 3683 S 356.323 5.24604 -1.07477 0
M  V30 3684 C 357.479 6.25829 -0.0943545 0
M  V30 3685 H 357.712 2.85961 -0.813246 0
M  V30 3686 H 355.245 1.44822 -0.535341 0
M  V30 3687 H 357.203 3.82583 1.48797 0
M  V30 3688 H 355.864 2.66966 1.65493 0
M  V30 3689 H 355.057 4.94746 0.961372 0
M  V30 3690 H 354.659 3.73002 -0.273059 0
M  V30 3691 H 356.951 6.73411 0.743239 0
M  V30 3692 H 357.894 7.0412 -0.749713 0
M  V30 3693 H 358.302 5.63797 0.281706 0
M  V30 3694 N 357.7 0.491464 1.49741 0
M  V30 3695 C 358.977 -0.118984 1.95238 0
M  V30 3696 C 359.357 -1.55044 1.43264 0
M  V30 3697 O 358.705 -2.19287 0.642287 0
M  V30 3698 C 358.915 -0.0414187 3.48975 0
M  V30 3699 C 360.263 -0.220133 4.24029 0
M  V30 3700 O 361.287 -0.117055 3.56008 0
M  V30 3701 O 360.146 -0.430567 5.44801 0
M  V30 3702 H 357.24 -0.100536 0.820866 0
M  V30 3703 H 359.786 0.553322 1.60426 0
M  V30 3704 H 358.558 0.957214 3.79412 0
M  V30 3705 H 358.181 -0.754292 3.9038 0
M  V30 3706 N 359.178 -1.55987 0.224894 0
M  V30 3707 C 360.424 -1.98684 -0.406502 0
M  V30 3708 C 360.757 -1.11248 -1.59177 0
M  V30 3709 O 360.032 -0.170909 -1.93748 0
M  V30 3710 C 360.315 -3.50218 -0.837808 0
M  V30 3711 C 360.168 -4.48426 0.351332 0
M  V30 3712 C 361.487 -4.06243 -1.69278 0
M  V30 3713 H 358.606 -0.722337 -0.146283 0
M  V30 3714 H 361.248 -1.87255 0.321799 0
M  V30 3715 H 359.398 -3.60089 -1.45837 0
M  V30 3716 H 361.07 -4.50562 0.989526 0
M  V30 3717 H 359.313 -4.22159 0.998207 0
M  V30 3718 H 359.984 -5.52 0.00655905 0
M  V30 3719 H 362.46 -3.99337 -1.16914 0
M  V30 3720 H 361.336 -5.12581 -1.96346 0
M  V30 3721 H 361.597 -3.53332 -2.65723 0
M  V30 3722 N 360.656 0.0484629 -1.57525 0
M  V30 3723 C 361.905 0.742065 -1.87553 0
M  V30 3724 C 362.218 1.77545 -0.820802 0
M  V30 3725 O 363.424 2.52027 -1.00967 0
M  V30 3726 C 361.88 1.37081 -3.32771 0
M  V30 3727 C 361.488 0.374786 -4.4643 0
M  V30 3728 C 363.232 2.04542 -3.71972 0
M  V30 3729 C 361.139 1.01077 -5.82698 0
M  V30 3730 H 360.069 0.280903 -0.699721 0
M  V30 3731 H 362.72 -0.00411877 -1.835 0
M  V30 3732 H 361.102 2.16605 -3.31509 0
M  V30 3733 H 362.276 -0.392331 -4.59127 0
M  V30 3734 H 360.591 -0.196653 -4.15935 0
M  V30 3735 H 363.188 2.52943 -4.71088 0
M  V30 3736 H 363.531 2.85515 -3.02964 0
M  V30 3737 H 364.064 1.31819 -3.75325 0
M  V30 3738 H 360.803 0.240878 -6.55057 0
M  V30 3739 H 360.323 1.74819 -5.73758 0
M  V30 3740 H 362.002 1.52383 -6.28799 0
M  V30 3741 N 362.134 1.5431 0.320358 0
M  V30 3742 C 363.374 1.74395 1.0661 0
M  V30 3743 C 363.738 0.508602 1.85141 0
M  V30 3744 O 364.939 0.586856 2.62316 0
M  V30 3745 C 363.21 2.98619 1.96371 0
M  V30 3746 S 364.769 3.39621 2.77854 0
M  V30 3747 H 361.587 0.613204 0.359863 0
M  V30 3748 H 364.189 1.9249 0.341727 0
M  V30 3749 H 362.893 3.86673 1.3752 0
M  V30 3750 H 362.424 2.83055 2.73209 0
M  V30 3751 H 364.439 2.95172 3.98858 0
M  V30 3752 N 363.613 -0.582584 1.46437 0
M  V30 3753 C 364.545 -1.70618 1.53043 0
M  V30 3754 C 365.558 -1.57322 0.418769 0
M  V30 3755 O 366.747 -1.64744 0.687136 0
M  V30 3756 C 363.847 -3.08869 1.39474 0
M  V30 3757 C 363.02 -3.48166 2.64762 0
M  V30 3758 C 362.079 -4.65478 2.4539 0
M  V30 3759 O 361.105 -4.71333 3.19114 0
M  V30 3760 N 362.307 -5.60365 1.51564 0
M  V30 3761 H 365.072 -1.65405 2.49923 0
M  V30 3762 H 362.633 -0.768567 1.42494 0
M  V30 3763 H 364.625 -3.85143 1.24287 0
M  V30 3764 H 363.195 -3.08449 0.507758 0
M  V30 3765 H 362.415 -2.61598 2.9489 0
M  V30 3766 H 363.703 -3.71188 3.4799 0
M  V30 3767 H 363.101 -5.5837 0.907705 0
M  V30 3768 H 361.658 -6.36068 1.4234 0
M  V30 3769 N 365.091 -1.34144 -0.827227 0
M  V30 3770 C 366.368 -1.16844 -1.56865 0
M  V30 3771 C 366.748 0.260654 -2.09485 0
M  V30 3772 O 366.096 1.26138 -1.9053 0
M  V30 3773 C 366.306 -2.21939 -2.6934 0
M  V30 3774 C 367.654 -2.56695 -3.3822 0
M  V30 3775 O 368.678 -2.20695 -2.79593 0
M  V30 3776 O 367.537 -3.18518 -4.44082 0
M  V30 3777 H 364.631 -0.452669 -0.692112 0
M  V30 3778 H 367.177 -1.45763 -0.868973 0
M  V30 3779 H 365.949 -3.17882 -2.28182 0
M  V30 3780 H 365.572 -1.94172 -3.46962 0
M  V30 3781 N 366.569 1.04691 -1.17803 0
M  V30 3782 C 367.519 2.10856 -0.867391 0
M  V30 3783 C 368.503 1.601 0.160206 0
M  V30 3784 O 369.695 1.76948 -0.042947 0
M  V30 3785 C 366.824 3.411 -0.388012 0
M  V30 3786 C 365.91 3.9864 -1.44732 0
M  V30 3787 N 366.301 4.30075 -2.66212 0
M  V30 3788 C 364.599 4.26439 -1.30637 0
M  V30 3789 C 365.3 4.76033 -3.34317 0
M  V30 3790 N 364.276 4.76462 -2.61696 0
M  V30 3791 H 368.078 2.33029 -1.79094 0
M  V30 3792 H 365.592 1.22386 -1.0675 0
M  V30 3793 H 367.589 4.16641 -0.146994 0
M  V30 3794 H 366.249 3.20357 0.529271 0
M  V30 3795 H 367.26 4.19917 -3.03134 0
M  V30 3796 H 363.937 4.15056 -0.451129 0
M  V30 3797 H 365.327 5.09427 -4.38103 0
M  V30 3798 N 368.047 0.979072 1.23499 0
M  V30 3799 C 368.994 0.517904 2.24914 0
M  V30 3800 C 369.964 -0.442525 1.60097 0
M  V30 3801 O 371.149 -0.350365 1.87556 0
M  V30 3802 C 368.289 -0.174813 3.44657 0
M  V30 3803 C 367.402 0.825721 4.24035 0
M  V30 3804 C 366.537 0.107946 5.3109 0
M  V30 3805 C 365.576 1.09778 6.02175 0
M  V30 3806 N 364.713 0.40925 7.00906 0
M  V30 3807 H 369.553 1.38751 2.63727 0
M  V30 3808 H 367.09 0.695303 1.2963 0
M  V30 3809 H 369.048 -0.593233 4.12961 0
M  V30 3810 H 367.678 -1.0083 3.06648 0
M  V30 3811 H 366.73 1.36253 3.55161 0
M  V30 3812 H 368.042 1.58005 4.73113 0
M  V30 3813 H 367.196 -0.367904 6.05583 0
M  V30 3814 H 365.935 -0.678994 4.8295 0
M  V30 3815 H 364.94 1.5844 5.26476 0
M  V30 3816 H 366.165 1.88536 6.52404 0
M  V30 3817 H 364.111 -0.358506 6.5502 0
M  V30 3818 H 364.028 1.10226 7.47921 0
M  V30 3819 H 365.296 -0.0442557 7.79487 0
M  V30 3820 N 369.525 -1.3858 0.750561 0
M  V30 3821 C 370.455 -2.33102 0.136237 0
M  V30 3822 C 371.436 -1.54713 -0.706965 0
M  V30 3823 O 372.621 -1.83043 -0.648769 0
M  V30 3824 C 369.751 -3.38882 -0.760017 0
M  V30 3825 C 368.705 -4.27995 -0.0197785 0
M  V30 3826 C 368.031 -5.24605 -1.03408 0
M  V30 3827 C 369.331 -5.09554 1.14684 0
M  V30 3828 H 371.025 -2.84726 0.925822 0
M  V30 3829 H 368.571 -1.36898 0.446654 0
M  V30 3830 H 370.524 -4.0397 -1.19943 0
M  V30 3831 H 369.248 -2.85734 -1.58189 0
M  V30 3832 H 367.907 -3.64409 0.400184 0
M  V30 3833 H 367.555 -4.67746 -1.84994 0
M  V30 3834 H 367.255 -5.85081 -0.543464 0
M  V30 3835 H 368.779 -5.9257 -1.47288 0
M  V30 3836 H 370.193 -5.67899 0.785118 0
M  V30 3837 H 368.59 -5.7925 1.56812 0
M  V30 3838 H 369.66 -4.4347 1.96118 0
M  V30 3839 N 371.003 -0.499398 -1.49478 0
M  V30 3840 C 371.951 0.293604 -2.3074 0
M  V30 3841 C 372.945 0.96427 -1.39277 0
M  V30 3842 O 374.151 0.892141 -1.56336 0
M  V30 3843 H 370.526 0.113541 -0.743379 0
M  V30 3844 H 372.497 -0.411772 -2.95545 0
M  V30 3845 C 371.246 1.3462 -3.20582 0
M  V30 3846 H 370.569 0.83954 -3.90886 0
M  V30 3847 H 372.009 1.87308 -3.80384 0
M  V30 3848 C 370.468 2.36351 -2.40083 0
M  V30 3849 O 370.998 3.422 -2.10385 0
M  V30 3850 N 369.204 2.0878 -2.02137 0
M  V30 3851 H 368.751 1.22723 -2.26488 0
M  V30 3852 H 368.709 2.77075 -1.48583 0
M  V30 3853 N 372.481 1.55866 -0.233164 0
M  V30 3854 C 373.411 2.23783 0.666599 0
M  V30 3855 C 374.392 1.21343 1.19205 0
M  V30 3856 O 375.577 1.4996 1.23392 0
M  V30 3857 C 372.707 2.92671 1.86978 0
M  V30 3858 C 371.661 4.01682 1.47768 0
M  V30 3859 C 370.987 4.57926 2.76058 0
M  V30 3860 C 372.287 5.18126 0.658993 0
M  V30 3861 H 373.981 2.99232 0.100306 0
M  V30 3862 H 371.527 1.43924 0.046804 0
M  V30 3863 H 373.48 3.3888 2.50476 0
M  V30 3864 H 372.204 2.14688 2.46123 0
M  V30 3865 H 370.863 3.56222 0.866106 0
M  V30 3866 H 370.511 3.76659 3.33372 0
M  V30 3867 H 370.211 5.31505 2.50552 0
M  V30 3868 H 371.735 5.06859 3.40479 0
M  V30 3869 H 373.149 5.60644 1.19795 0
M  V30 3870 H 371.546 5.98009 0.500552 0
M  V30 3871 H 372.616 4.83763 -0.331856 0
M  V30 3872 N 373.959 -0.0401083 1.57549 0
M  V30 3873 C 375.184 -0.748931 1.93406 0
M  V30 3874 C 375.609 -1.68686 0.832274 0
M  V30 3875 O 374.967 -1.80047 -0.212818 0
M  V30 3876 C 375.015 -1.4916 3.28304 0
M  V30 3877 O 374.119 -2.6042 3.19774 0
M  V30 3878 H 373.46 -0.202212 0.63246 0
M  V30 3879 H 375.99 0.00112086 2.046 0
M  V30 3880 H 376 -1.86395 3.62934 0
M  V30 3881 H 374.675 -0.80364 4.08062 0
M  V30 3882 H 373.252 -2.25808 2.96758 0
M  V30 3883 N 375.437 -1.54477 -0.31217 0
M  V30 3884 C 376.853 -1.45442 -0.657185 0
M  V30 3885 C 377.053 -0.63653 -1.91182 0
M  V30 3886 O 376.109 -0.139815 -2.52113 0
M  V30 3887 C 377.422 -2.89287 -0.82058 0
M  V30 3888 C 378.97 -2.9926 -0.917188 0
M  V30 3889 C 379.445 -4.44279 -1.11267 0
M  V30 3890 N 380.936 -4.4794 -1.17914 0
M  V30 3891 C 381.671 -5.57318 -1.34848 0
M  V30 3892 N 381.167 -6.76642 -1.48752 0
M  V30 3893 N 382.96 -5.44986 -1.37647 0
M  V30 3894 H 375.111 -2.06129 0.512313 0
M  V30 3895 H 377.374 -0.933088 0.167485 0
M  V30 3896 H 377.08 -3.51687 0.0302604 0
M  V30 3897 H 376.954 -3.36061 -1.71298 0
M  V30 3898 H 379.341 -2.36981 -1.75852 0
M  V30 3899 H 379.422 -2.558 -0.00101257 0
M  V30 3900 H 379.066 -5.07149 -0.27614 0
M  V30 3901 H 378.996 -4.85359 -2.04289 0
M  V30 3902 H 381.487 -3.61969 -1.08567 0
M  V30 3903 H 381.8 -7.55758 -1.61397 0
M  V30 3904 H 380.145 -6.79529 -1.45828 0
M  V30 3905 H 383.336 -4.50715 -1.26388 0
M  V30 3906 H 383.509 -6.3028 -1.50501 0
M  V30 3907 N 376.915 0.57481 -1.46744 0
M  V30 3908 C 378.145 1.35659 -1.55821 0
M  V30 3909 C 378.553 1.88129 -0.201036 0
M  V30 3910 O 377.896 1.64723 0.813134 0
M  V30 3911 C 377.958 2.57473 -2.50894 0
M  V30 3912 C 377.622 2.26415 -3.9697 0
M  V30 3913 C 378.619 1.84771 -4.85958 0
M  V30 3914 C 376.304 2.38316 -4.42166 0
M  V30 3915 C 378.298 1.55434 -6.18158 0
M  V30 3916 C 375.985 2.08591 -5.74398 0
M  V30 3917 C 376.983 1.67216 -6.62214 0
M  V30 3918 O 376.671 1.37859 -7.91991 0
M  V30 3919 H 376.403 0.420496 -0.529301 0
M  V30 3920 H 378.957 0.704967 -1.92923 0
M  V30 3921 H 377.187 3.25468 -2.08824 0
M  V30 3922 H 378.876 3.19546 -2.50291 0
M  V30 3923 H 379.642 1.75085 -4.52295 0
M  V30 3924 H 375.521 2.69483 -3.74032 0
M  V30 3925 H 379.065 1.23065 -6.86659 0
M  V30 3926 H 374.962 2.17905 -6.07608 0
M  V30 3927 H 375.73 1.51638 -8.04331 0
M  V30 3928 N 378.394 1.34581 0.820102 0
M  V30 3929 C 379.624 1.29991 1.6058 0
M  V30 3930 C 380.032 -0.127588 1.88769 0
M  V30 3931 O 379.375 -1.08595 1.48165 0
M  V30 3932 C 379.437 2.02548 2.9701 0
M  V30 3933 C 379.101 3.51794 2.91701 0
M  V30 3934 C 380.098 4.46647 2.66087 0
M  V30 3935 C 377.783 3.94249 3.11245 0
M  V30 3936 C 379.777 5.81929 2.60071 0
M  V30 3937 C 377.464 5.2963 3.04853 0
M  V30 3938 C 378.462 6.23282 2.793 0
M  V30 3939 O 378.15 7.56181 2.72847 0
M  V30 3940 H 377.882 0.448539 0.505756 0
M  V30 3941 H 380.436 1.77811 1.02822 0
M  V30 3942 H 378.666 1.49345 3.56697 0
M  V30 3943 H 380.355 1.91211 3.58041 0
M  V30 3944 H 381.121 4.15168 2.5072 0
M  V30 3945 H 377 3.21749 3.30149 0
M  V30 3946 H 380.544 6.54999 2.40046 0
M  V30 3947 H 376.441 5.60727 3.19774 0
M  V30 3948 H 377.209 7.6595 2.88553 0
M  V30 3949 N 379.872 -1.04064 1.18357 0
M  V30 3950 C 380.805 -2.11618 0.854 0
M  V30 3951 C 381.783 -1.61555 -0.184043 0
M  V30 3952 O 382.967 -1.88395 -0.0630048 0
M  V30 3953 C 380.094 -3.37574 0.27597 0
M  V30 3954 C 379.14 -4.06485 1.2912 0
M  V30 3955 S 379.973 -4.53543 2.84709 0
M  V30 3956 C 381.129 -5.82732 2.28417 0
M  V30 3957 H 381.362 -2.39247 1.76488 0
M  V30 3958 H 378.895 -1.16832 1.00944 0
M  V30 3959 H 380.853 -4.10468 -0.051026 0
M  V30 3960 H 379.514 -3.0806 -0.613028 0
M  V30 3961 H 378.707 -4.97024 0.835633 0
M  V30 3962 H 378.309 -3.39708 1.56443 0
M  V30 3963 H 380.601 -6.56677 1.66677 0
M  V30 3964 H 381.544 -6.33052 3.17256 0
M  V30 3965 H 381.952 -5.37838 1.71436 0
M  V30 3966 N 381.35 -0.985608 -1.22978 0
M  V30 3967 C 382.766 -0.695104 -1.43668 0
M  V30 3968 C 382.966 0.736866 -1.87543 0
M  V30 3969 O 382.022 1.50868 -2.02473 0
M  V30 3970 C 383.335 -1.69447 -2.48412 0
M  V30 3971 C 384.883 -1.70909 -2.62219 0
M  V30 3972 C 385.358 -2.6969 -3.70178 0
M  V30 3973 N 386.849 -2.6824 -3.77626 0
M  V30 3974 C 387.584 -3.41339 -4.60733 0
M  V30 3975 N 387.08 -4.24015 -5.4789 0
M  V30 3976 N 388.873 -3.30079 -4.54977 0
M  V30 3977 H 381.024 -1.91054 -0.928016 0
M  V30 3978 H 383.287 -0.823553 -0.469536 0
M  V30 3979 H 382.993 -2.7188 -2.23102 0
M  V30 3980 H 382.867 -1.48147 -3.46889 0
M  V30 3981 H 385.254 -0.691785 -2.86877 0
M  V30 3982 H 385.335 -1.96276 -1.6404 0
M  V30 3983 H 384.979 -3.71566 -3.46268 0
M  V30 3984 H 384.909 -2.41595 -4.67909 0
M  V30 3985 H 387.4 -2.08243 -3.15346 0
M  V30 3986 H 387.713 -4.76636 -6.08308 0
M  V30 3987 H 386.058 -4.28104 -5.47496 0
M  V30 3988 H 389.249 -2.64937 -3.85909 0
M  V30 3989 H 389.422 -3.87308 -5.19516 0
M  V30 3990 N 382.828 1.3818 -0.7579 0
M  V30 3991 C 384.239 1.82726 -0.383134 0
M  V30 3992 C 384.59 1.63214 1.08884 0
M  V30 3993 O 383.715 1.13566 1.84205 0
M  V30 3994 C 384.31 3.31728 -0.688631 0
M  V30 3995 C 382.869 3.74606 -0.367091 0
M  V30 3996 C 382.016 2.60896 -0.939599 0
M  V30 3997 H 384.967 1.26847 -0.953699 0
M  V30 3998 H 384.988 3.80487 0.0316492 0
M  V30 3999 H 384.5 3.45898 -1.76001 0
M  V30 4000 H 382.601 3.66013 0.697532 0
M  V30 4001 H 382.714 4.71215 -0.865658 0
M  V30 4002 H 381.078 2.52075 -0.3647 0
M  V30 4003 H 381.861 2.77864 -2.0161 0
M  V30 4004 N 384.306 0.507319 1.49211 0
M  V30 4005 C 385.554 -0.0348839 2.0207 0
M  V30 4006 C 385.875 -1.36898 1.38866 0
M  V30 4007 O 385.145 -1.88133 0.546151 0
M  V30 4008 H 383.725 -0.0158812 0.746831 0
M  V30 4009 H 386.387 0.665998 1.83168 0
M  V30 4010 H 385.483 -0.159917 3.1169 0
M  V30 4011 N 385.784 -1.5574 0.241426 0
M  V30 4012 C 387.031 -1.9881 -0.384836 0
M  V30 4013 C 387.359 -1.12947 -1.58346 0
M  V30 4014 O 386.614 -0.178993 -1.9488 0
M  V30 4015 C 386.913 -3.47308 -0.843317 0
M  V30 4016 C 386.579 -4.50223 0.246946 0
M  V30 4017 C 385.241 -4.78088 0.546399 0
M  V30 4018 C 387.593 -5.11841 0.983282 0
M  V30 4019 C 384.921 -5.64846 1.58636 0
M  V30 4020 C 387.273 -5.99727 2.01272 0
M  V30 4021 C 385.937 -6.25927 2.31888 0
M  V30 4022 H 385.207 -0.727496 -0.140821 0
M  V30 4023 H 387.854 -1.8831 0.348106 0
M  V30 4024 H 386.159 -3.55112 -1.65537 0
M  V30 4025 H 387.856 -3.78017 -1.33806 0
M  V30 4026 H 384.446 -4.286 0.00340639 0
M  V30 4027 H 388.63 -4.90366 0.765182 0
M  V30 4028 H 383.886 -5.83403 1.82896 0
M  V30 4029 H 388.06 -6.46517 2.58823 0
M  V30 4030 H 385.687 -6.92949 3.12611 0
M  V30 4031 N 387.262 0.0317525 -1.57568 0
M  V30 4032 C 388.225 1.01783 -2.0536 0
M  V30 4033 C 389.225 1.29203 -0.957253 0
M  V30 4034 O 390.415 1.24251 -1.22095 0
M  V30 4035 C 387.547 2.35137 -2.46827 0
M  V30 4036 H 388.74 0.605062 -2.93733 0
M  V30 4037 H 386.293 0.278514 -1.53799 0
M  V30 4038 H 387.028 2.81168 -1.61602 0
M  V30 4039 H 386.813 2.16566 -3.26866 0
M  V30 4040 H 388.303 3.05938 -2.84239 0
M  V30 4041 N 388.74 1.54641 0.303973 0
M  V30 4042 C 389.987 1.7378 1.03955 0
M  V30 4043 C 390.315 0.521986 1.87365 0
M  V30 4044 O 389.57 -0.496099 1.89308 0
M  V30 4045 C 389.869 2.97753 1.97681 0
M  V30 4046 C 389.535 4.31671 1.30271 0
M  V30 4047 C 388.197 4.68075 1.11619 0
M  V30 4048 C 390.549 5.147 0.82055 0
M  V30 4049 C 387.877 5.8509 0.434304 0
M  V30 4050 C 390.229 6.32416 0.152395 0
M  V30 4051 C 388.893 6.67484 -0.0461067 0
M  V30 4052 H 388.163 0.635908 0.380398 0
M  V30 4053 H 390.81 1.88896 0.314718 0
M  V30 4054 H 389.115 2.77406 2.76682 0
M  V30 4055 H 390.812 3.09756 2.54661 0
M  V30 4056 H 387.402 4.03041 1.45795 0
M  V30 4057 H 391.586 4.87077 0.952374 0
M  V30 4058 H 386.842 6.10806 0.269495 0
M  V30 4059 H 391.016 6.96023 -0.229126 0
M  V30 4060 H 388.643 7.58011 -0.576494 0
M  V30 4061 N 390.218 -0.567019 1.47046 0
M  V30 4062 C 391.466 -1.322 1.52864 0
M  V30 4063 C 391.787 -1.94088 0.188388 0
M  V30 4064 O 391.057 -1.7941 -0.786693 0
M  V30 4065 H 389.637 -0.490894 0.563056 0
M  V30 4066 H 392.299 -0.662879 1.83281 0
M  V30 4067 H 391.395 -2.12062 2.2899 0
M  V30 4068 N 391.696 -1.35014 -0.812953 0
M  V30 4069 C 392.944 -1.27678 -1.56661 0
M  V30 4070 C 393.265 0.150359 -1.94419 0
M  V30 4071 O 392.535 1.08532 -1.63088 0
M  V30 4072 H 391.115 -0.469602 -0.580933 0
M  V30 4073 H 393.777 -1.69043 -0.970076 0
M  V30 4074 H 392.873 -1.88833 -2.48492 0
M  V30 4075 N 393.175 1.03435 -1.18907 0
M  V30 4076 C 394.4 1.80919 -1.01406 0
M  V30 4077 C 394.825 1.83055 0.432721 0
M  V30 4078 O 394.183 1.25252 1.31079 0
M  V30 4079 C 394.231 3.24091 -1.58105 0
M  V30 4080 O 393.335 4.04434 -0.806669 0
M  V30 4081 H 392.676 0.558709 -0.358803 0
M  V30 4082 H 395.206 1.30223 -1.57807 0
M  V30 4083 H 395.216 3.74853 -1.61087 0
M  V30 4084 H 393.891 3.21851 -2.6341 0
M  V30 4085 H 392.468 3.63091 -0.849666 0
M  V30 4086 N 394.653 0.992116 1.22453 0
M  V30 4087 C 395.893 0.675727 1.92907 0
M  V30 4088 C 396.257 -0.777762 1.75542 0
M  V30 4089 O 397.458 -1.20553 2.40251 0
M  V30 4090 C 395.729 1.0696 3.4102 0
M  V30 4091 S 397.288 0.871456 4.30059 0
M  V30 4092 H 394.106 0.247089 0.666684 0
M  V30 4093 H 396.708 1.27423 1.48269 0
M  V30 4094 H 395.412 2.12383 3.51172 0
M  V30 4095 H 394.943 0.462858 3.90668 0
M  V30 4096 H 396.958 -0.238436 4.95627 0
M  V30 4097 N 396.131 -1.37776 0.765217 0
M  V30 4098 C 397.061 -2.32945 0.160953 0
M  V30 4099 C 398.042 -1.55454 -0.690516 0
M  V30 4100 O 399.227 -1.83721 -0.629318 0
M  V30 4101 C 396.357 -3.39669 -0.724031 0
M  V30 4102 C 395.311 -4.27992 0.0256173 0
M  V30 4103 C 394.637 -5.25673 -0.978383 0
M  V30 4104 C 395.937 -5.08309 1.20082 0
M  V30 4105 H 397.631 -2.83728 0.955969 0
M  V30 4106 H 395.177 -1.36416 0.461149 0
M  V30 4107 H 397.13 -4.05219 -1.15652 0
M  V30 4108 H 395.854 -2.87396 -1.5515 0
M  V30 4109 H 394.513 -3.63964 0.438812 0
M  V30 4110 H 394.161 -4.69682 -1.80022 0
M  V30 4111 H 393.861 -5.85625 -0.481378 0
M  V30 4112 H 395.385 -5.94098 -1.40995 0
M  V30 4113 H 396.799 -5.67034 0.845307 0
M  V30 4114 H 395.196 -5.77554 1.62947 0
M  V30 4115 H 396.266 -4.41365 2.00811 0
M  V30 4116 N 397.609 -0.515225 -1.4894 0
M  V30 4117 C 399.02 -0.0710067 -1.86565 0
M  V30 4118 C 399.371 1.34733 -1.42623 0
M  V30 4119 O 398.496 2.00653 -0.810379 0
M  V30 4120 C 399.091 -0.122083 -3.3858 0
M  V30 4121 C 397.65 0.266863 -3.75453 0
M  V30 4122 C 396.797 -0.488376 -2.72966 0
M  V30 4123 H 399.748 -0.727266 -1.41055 0
M  V30 4124 H 399.769 0.669818 -3.74558 0
M  V30 4125 H 399.281 -1.15448 -3.70531 0
M  V30 4126 H 397.382 1.30196 -3.49113 0
M  V30 4127 H 397.495 -0.0624811 -4.79059 0
M  V30 4128 H 395.859 0.0635622 -2.54621 0
M  V30 4129 H 396.642 -1.52113 -3.07761 0
M  V30 4130 N 399.087 1.5561 -0.249682 0
M  V30 4131 C 400.034 2.21496 0.648694 0
M  V30 4132 C 401.004 1.17977 1.16921 0
M  V30 4133 O 402.189 1.46434 1.22318 0
M  V30 4134 C 399.329 2.92039 1.83868 0
M  V30 4135 C 398.442 4.10219 1.35442 0
M  V30 4136 C 397.577 4.6847 2.50419 0
M  V30 4137 C 396.616 5.78893 1.98869 0
M  V30 4138 N 395.753 6.31315 3.07223 0
M  V30 4139 H 400.593 2.97892 0.0801582 0
M  V30 4140 H 398.13 1.47074 0.0278031 0
M  V30 4141 H 400.088 3.31138 2.53778 0
M  V30 4142 H 398.718 2.18111 2.37965 0
M  V30 4143 H 397.77 3.76413 0.54928 0
M  V30 4144 H 399.082 4.89927 0.936649 0
M  V30 4145 H 398.236 5.10158 3.28366 0
M  V30 4146 H 396.975 3.87984 2.95499 0
M  V30 4147 H 395.98 5.3668 1.19393 0
M  V30 4148 H 397.205 6.61232 1.54755 0
M  V30 4149 H 395.151 5.53733 3.51732 0
M  V30 4150 H 395.068 7.06224 2.69784 0
M  V30 4151 H 396.336 6.77662 3.8522 0
M  V30 4152 N 400.565 -0.0233959 1.57583 0
M  V30 4153 C 401.842 -0.748794 1.807 0
M  V30 4154 C 402.222 -1.9327 0.849106 0
M  V30 4155 O 401.57 -2.28247 -0.107468 0
M  V30 4156 C 401.78 -1.17651 3.28571 0
M  V30 4157 C 403.128 -1.59008 3.93702 0
M  V30 4158 O 404.152 -1.27094 3.32755 0
M  V30 4159 O 403.011 -2.18264 5.01022 0
M  V30 4160 H 400.105 -0.362578 0.743281 0
M  V30 4161 H 402.651 0.000261958 1.697 0
M  V30 4162 H 401.423 -0.331603 3.89892 0
M  V30 4163 H 401.046 -1.98541 3.44481 0
M  V30 4164 N 402.043 -1.548 -0.295768 0
M  V30 4165 C 403.289 -1.74588 -1.03184 0
M  V30 4166 C 403.622 -0.532962 -1.86744 0
M  V30 4167 O 402.897 0.469872 -1.88739 0
M  V30 4168 C 403.18 -3.03791 -1.93347 0
M  V30 4169 C 403.033 -4.35392 -1.12933 0
M  V30 4170 C 404.352 -3.28892 -2.92435 0
M  V30 4171 H 401.471 -0.635221 -0.373715 0
M  V30 4172 H 404.113 -1.87519 -0.30606 0
M  V30 4173 H 402.263 -2.92898 -2.55232 0
M  V30 4174 H 403.935 -4.58211 -0.532943 0
M  V30 4175 H 402.178 -4.31642 -0.432168 0
M  V30 4176 H 402.849 -5.22074 -1.79284 0
M  V30 4177 H 405.325 -3.39429 -2.4068 0
M  V30 4178 H 404.201 -4.20603 -3.52682 0
M  V30 4179 H 404.462 -2.47437 -3.6637 0
M  V30 4180 N 403.521 0.559213 -1.47345 0
M  V30 4181 C 404.937 0.884943 -1.32819 0
M  V30 4182 C 405.137 1.98988 -0.317173 0
M  V30 4183 O 404.193 2.51031 0.272011 0
M  V30 4184 C 405.506 1.28007 -2.72093 0
M  V30 4185 C 407.054 1.39161 -2.80363 0
M  V30 4186 C 407.529 1.82031 -4.20272 0
M  V30 4187 N 409.02 1.89185 -4.22804 0
M  V30 4188 C 409.755 2.2368 -5.27973 0
M  V30 4189 N 409.251 2.56802 -6.43447 0
M  V30 4190 N 411.044 2.24436 -5.15349 0
M  V30 4191 H 403.195 -0.170304 -2.11716 0
M  V30 4192 H 405.458 -0.0135247 -0.947904 0
M  V30 4193 H 405.164 0.542027 -3.47498 0
M  V30 4194 H 405.038 2.23665 -3.03733 0
M  V30 4195 H 407.425 2.12048 -2.05231 0
M  V30 4196 H 407.506 0.41696 -2.52379 0
M  V30 4197 H 407.15 1.09715 -4.95908 0
M  V30 4198 H 407.08 2.80495 -4.45679 0
M  V30 4199 H 409.571 1.65982 -3.39497 0
M  V30 4200 H 409.884 2.82144 -7.19454 0
M  V30 4201 H 408.229 2.54387 -6.46771 0
M  V30 4202 H 411.42 1.97998 -4.24163 0
M  V30 4203 H 411.593 2.50989 -5.97418 0
M  V30 4204 N 404.999 1.35443 0.805782 0
M  V30 4205 C 405.962 1.28301 1.89925 0
M  V30 4206 C 406.962 0.194285 1.59622 0
M  V30 4207 O 408.152 0.448036 1.6834 0
M  V30 4208 C 405.284 0.984997 3.2636 0
M  V30 4209 H 406.477 2.2553 1.97677 0
M  V30 4210 H 404.03 1.19979 1.00173 0
M  V30 4211 H 404.765 0.016603 3.24296 0
M  V30 4212 H 404.55 1.77269 3.4974 0
M  V30 4213 H 406.04 0.960651 4.064 0
M  V30 4214 N 406.477 -1.02803 1.19454 0
M  V30 4215 C 407.407 -2.12999 0.956758 0
M  V30 4216 C 408.388 -1.69743 -0.110188 0
M  V30 4217 O 409.573 -1.94148 0.0450038 0
M  V30 4218 C 406.703 -3.43746 0.495553 0
M  V30 4219 C 405.657 -4.00688 1.50443 0
M  V30 4220 C 404.983 -5.27067 0.900275 0
M  V30 4221 C 406.283 -4.35397 2.8849 0
M  V30 4222 H 407.977 -2.33148 1.87836 0
M  V30 4223 H 405.523 -1.12045 0.904539 0
M  V30 4224 H 407.476 -4.2021 0.316493 0
M  V30 4225 H 406.2 -3.23321 -0.461646 0
M  V30 4226 H 404.859 -3.2632 1.67065 0
M  V30 4227 H 404.507 -5.02959 -0.064503 0
M  V30 4228 H 404.207 -5.66127 1.57397 0
M  V30 4229 H 405.731 -6.06196 0.73203 0
M  V30 4230 H 407.145 -5.02795 2.75446 0
M  V30 4231 H 405.542 -4.85541 3.52661 0
M  V30 4232 H 406.612 -3.44662 3.41081 0
M  V30 4233 N 407.956 -0.998596 -1.21925 0
M  V30 4234 C 409.184 -0.696286 -1.94832 0
M  V30 4235 C 409.599 0.740032 -1.73692 0
M  V30 4236 O 408.956 1.5 -1.03953 0
M  V30 4237 C 409.007 -0.999833 -3.47398 0
M  V30 4238 O 408.728 -2.37972 -3.67833 0
M  V30 4239 C 410.229 -0.716025 -4.37479 0
M  V30 4240 H 407.449 -0.257111 -0.619786 0
M  V30 4241 H 409.993 -1.33491 -1.54921 0
M  V30 4242 H 408.148 -0.406918 -3.85257 0
M  V30 4243 H 408.562 -2.48338 -4.61983 0
M  V30 4244 H 410.036 -0.978642 -5.43256 0
M  V30 4245 H 410.513 0.349968 -4.37803 0
M  V30 4246 H 411.119 -1.29025 -4.05256 0
M  V30 4247 N 409.434 1.37368 -0.772513 0
M  V30 4248 C 410.664 2.03647 -0.348082 0
M  V30 4249 C 411.072 1.58392 1.03482 0
M  V30 4250 O 410.415 0.760921 1.672 0
M  V30 4251 C 410.477 3.58131 -0.313404 0
M  V30 4252 C 410.141 4.2652 -1.64102 0
M  V30 4253 C 411.138 4.50587 -2.5936 0
M  V30 4254 C 408.823 4.64335 -1.91567 0
M  V30 4255 C 410.817 5.11526 -3.80289 0
M  V30 4256 C 408.504 5.24996 -3.12766 0
M  V30 4257 C 409.502 5.48529 -4.06946 0
M  V30 4258 O 409.19 6.07921 -5.26011 0
M  V30 4259 H 408.922 0.660538 -0.143753 0
M  V30 4260 H 411.476 1.76669 -1.04772 0
M  V30 4261 H 409.706 3.84159 0.442617 0
M  V30 4262 H 411.395 4.05813 0.0840613 0
M  V30 4263 H 412.161 4.21784 -2.39423 0
M  V30 4264 H 408.04 4.45353 -1.19088 0
M  V30 4265 H 411.584 5.29811 -4.53813 0
M  V30 4266 H 407.481 5.53223 -3.32588 0
M  V30 4267 H 408.249 6.26398 -5.26847 0
M  V30 4268 N 410.912 0.523116 1.48665 0
M  V30 4269 C 412.328 0.180511 1.58576 0
M  V30 4270 C 412.528 -1.31597 1.52592 0
M  V30 4271 O 411.584 -2.0937 1.4114 0
M  V30 4272 C 412.897 0.776949 2.90489 0
M  V30 4273 C 414.445 0.745058 3.04003 0
M  V30 4274 C 414.92 1.31995 4.38567 0
M  V30 4275 N 416.411 1.28162 4.45117 0
M  V30 4276 C 417.146 1.6964 5.47731 0
M  V30 4277 N 416.642 2.18816 6.57337 0
M  V30 4278 N 418.435 1.6092 5.38573 0
M  V30 4279 H 410.586 1.4958 1.50797 0
M  V30 4280 H 412.849 0.621772 0.715614 0
M  V30 4281 H 412.555 1.82732 3.00503 0
M  V30 4282 H 412.429 0.25007 3.7637 0
M  V30 4283 H 414.816 -0.296532 2.93606 0
M  V30 4284 H 414.897 1.30933 2.1975 0
M  V30 4285 H 414.541 2.36043 4.49718 0
M  V30 4286 H 414.471 0.731418 5.21496 0
M  V30 4287 H 416.962 0.92155 3.66491 0
M  V30 4288 H 417.275 2.48478 7.31764 0
M  V30 4289 H 415.62 2.22805 6.58318 0
M  V30 4290 H 418.811 1.22304 4.5184 0
M  V30 4291 H 418.984 1.93567 6.18414 0
M  V30 4292 N 412.39 -1.55475 0.257931 0
M  V30 4293 C 413.353 -2.20551 -0.623706 0
M  V30 4294 C 414.353 -1.17809 -1.09443 0
M  V30 4295 O 415.543 -1.42823 -0.997362 0
M  V30 4296 C 412.675 -2.85784 -1.8585 0
M  V30 4297 H 413.868 -2.99848 -0.0557743 0
M  V30 4298 H 411.421 -1.56298 0.0084422 0
M  V30 4299 H 412.156 -2.10453 -2.46739 0
M  V30 4300 H 411.941 -3.61057 -1.52907 0
M  V30 4301 H 413.431 -3.35553 -2.48584 0
M  V30 4302 N 413.868 0.0150385 -1.57593 0
M  V30 4303 C 415.093 0.718067 -1.94573 0
M  V30 4304 C 415.518 1.6734 -0.859005 0
M  V30 4305 O 414.876 1.80362 0.184147 0
M  V30 4306 C 414.924 1.43918 -3.30636 0
M  V30 4307 O 414.028 2.55299 -3.23876 0
M  V30 4308 H 413.369 0.192125 -0.635597 0
M  V30 4309 H 415.899 -0.0336708 -2.04572 0
M  V30 4310 H 415.909 1.80598 -3.65853 0
M  V30 4311 H 414.584 0.738619 -4.09289 0
M  V30 4312 H 413.161 2.21058 -3.00312 0
M  V30 4313 N 415.346 1.54954 0.287554 0
M  V30 4314 C 416.278 1.83224 1.37701 0
M  V30 4315 C 417.291 0.715898 1.46215 0
M  V30 4316 O 418.48 0.993565 1.48292 0
M  V30 4317 C 415.58 1.96723 2.75959 0
M  V30 4318 C 414.753 3.27253 2.90215 0
M  V30 4319 C 413.812 3.30998 4.09056 0
M  V30 4320 O 412.838 4.04457 4.00503 0
M  V30 4321 N 414.04 2.57353 5.20336 0
M  V30 4322 H 416.805 2.77254 1.138 0
M  V30 4323 H 414.366 1.54694 0.477652 0
M  V30 4324 H 416.358 1.96615 3.5373 0
M  V30 4325 H 414.928 1.09626 2.92747 0
M  V30 4326 H 414.148 3.40022 1.99447 0
M  V30 4327 H 415.436 4.13365 2.96659 0
M  V30 4328 H 414.834 1.97327 5.30169 0
M  V30 4329 H 413.391 2.62984 5.96391 0
M  V30 4330 N 416.824 -0.551391 1.4764 0
M  V30 4331 C 417.754 -1.66757 1.63445 0
M  V30 4332 C 418.735 -1.63077 0.483742 0
M  V30 4333 O 419.92 -1.80607 0.71377 0
M  V30 4334 C 417.05 -3.05387 1.65396 0
M  V30 4335 C 416.004 -3.23918 2.79752 0
M  V30 4336 C 415.33 -4.63393 2.66779 0
M  V30 4337 C 416.63 -3.08735 4.21284 0
M  V30 4338 H 418.324 -1.53786 2.56886 0
M  V30 4339 H 415.87 -0.738415 1.23626 0
M  V30 4340 H 417.823 -3.83325 1.75043 0
M  V30 4341 H 416.547 -3.19332 0.685195 0
M  V30 4342 H 415.206 -2.48391 2.69625 0
M  V30 4343 H 414.854 -4.74144 1.67918 0
M  V30 4344 H 414.554 -4.7674 3.43501 0
M  V30 4345 H 416.078 -5.43458 2.78364 0
M  V30 4346 H 417.492 -3.76484 4.32357 0
M  V30 4347 H 415.889 -3.33588 4.98838 0
M  V30 4348 H 416.959 -2.0541 4.39243 0
M  V30 4349 N 418.302 -1.35869 -0.798587 0
M  V30 4350 C 419.579 -1.20145 -1.54352 0
M  V30 4351 C 419.959 0.216161 -2.0999 0
M  V30 4352 O 419.307 1.22068 -1.93162 0
M  V30 4353 C 419.517 -2.27602 -2.64572 0
M  V30 4354 C 420.865 -2.63811 -3.32699 0
M  V30 4355 O 421.889 -2.26576 -2.74849 0
M  V30 4356 O 420.748 -3.27866 -4.37226 0
M  V30 4357 H 417.842 -0.467248 -0.682355 0
M  V30 4358 H 420.388 -1.47574 -0.837859 0
M  V30 4359 H 419.16 -3.2265 -2.21388 0
M  V30 4360 H 418.783 -2.01488 -3.42766 0
M  V30 4361 N 419.78 1.02168 -1.19998 0
M  V30 4362 C 421.026 1.75945 -1.00852 0
M  V30 4363 C 421.359 1.88702 0.458828 0
M  V30 4364 O 420.634 1.40911 1.34069 0
M  V30 4365 C 420.917 3.18154 -1.68671 0
M  V30 4366 C 420.77 3.13224 -3.22817 0
M  V30 4367 C 422.089 4.16711 -1.41561 0
M  V30 4368 H 419.208 0.638673 -0.367785 0
M  V30 4369 H 421.85 1.19222 -1.4794 0
M  V30 4370 H 420 3.66586 -1.28636 0
M  V30 4371 H 421.672 2.72635 -3.72112 0
M  V30 4372 H 419.915 2.50751 -3.53986 0
M  V30 4373 H 420.586 4.13728 -3.65422 0
M  V30 4374 H 423.062 3.76913 -1.76284 0
M  V30 4375 H 421.938 5.14391 -1.91553 0
M  V30 4376 H 422.199 4.40774 -0.342193 0
M  V30 4377 N 421.258 1.00505 1.21394 0
M  V30 4378 C 422.168 0.574806 2.27449 0
M  V30 4379 C 423.184 -0.382206 1.6975 0
M  V30 4380 O 424.36 -0.246027 1.99892 0
M  V30 4381 C 421.425 -0.0917414 3.46579 0
M  V30 4382 C 420.486 0.909758 4.1955 0
M  V30 4383 C 419.719 0.274924 5.32991 0
M  V30 4384 O 419.942 -0.928254 5.62796 0
M  V30 4385 O 418.876 0.985877 5.93771 0
M  V30 4386 H 422.702 1.45744 2.66444 0
M  V30 4387 H 420.287 0.773923 1.27792 0
M  V30 4388 H 422.169 -0.464551 4.18832 0
M  V30 4389 H 420.844 -0.948755 3.09484 0
M  V30 4390 H 419.751 1.33372 3.49518 0
M  V30 4391 H 421.084 1.73636 4.60555 0
M  V30 4392 N 422.737 -1.36956 0.779787 0
M  V30 4393 C 423.687 -2.27539 0.144892 0
M  V30 4394 C 424.671 -1.46493 -0.665488 0
M  V30 4395 O 425.863 -1.68968 -0.527141 0
M  V30 4396 C 422.992 -3.35512 -0.727082 0
M  V30 4397 C 422.078 -4.24001 0.0915642 0
M  V30 4398 N 422.469 -4.92757 1.14125 0
M  V30 4399 C 420.767 -4.45807 -0.131141 0
M  V30 4400 C 421.468 -5.58138 1.6388 0
M  V30 4401 N 420.444 -5.35241 0.94962 0
M  V30 4402 H 424.246 -2.78176 0.948446 0
M  V30 4403 H 421.76 -1.50169 0.618315 0
M  V30 4404 H 423.757 -3.99324 -1.19776 0
M  V30 4405 H 422.417 -2.86431 -1.52929 0
M  V30 4406 H 423.428 -4.94984 1.52353 0
M  V30 4407 H 420.105 -4.07582 -0.904621 0
M  V30 4408 H 421.495 -6.23071 2.51461 0
M  V30 4409 N 424.215 -0.530993 -1.48385 0
M  V30 4410 C 425.626 -0.0907905 -1.86479 0
M  V30 4411 C 425.977 1.33213 -1.44044 0
M  V30 4412 O 425.102 1.99783 -0.831615 0
M  V30 4413 C 425.697 -0.157987 -3.38431 0
M  V30 4414 C 424.256 0.227026 -3.75715 0
M  V30 4415 C 423.403 -0.5173 -2.72432 0
M  V30 4416 H 426.354 -0.742186 -1.40276 0
M  V30 4417 H 426.375 0.630053 -3.75247 0
M  V30 4418 H 425.887 -1.19372 -3.69286 0
M  V30 4419 H 423.988 1.26486 -3.50474 0
M  V30 4420 H 424.101 -0.113288 -4.78966 0
M  V30 4421 H 422.465 0.0365527 -2.54674 0
M  V30 4422 H 423.248 -1.55368 -3.0613 0
M  V30 4423 N 425.693 1.55336 -0.266172 0
M  V30 4424 C 426.626 2.18256 0.666296 0
M  V30 4425 C 427.604 1.14064 1.1588 0
M  V30 4426 O 428.788 1.42546 1.23341 0
M  V30 4427 C 425.915 2.79867 1.90768 0
M  V30 4428 C 424.961 3.97283 1.55141 0
M  V30 4429 S 425.794 5.31694 0.637313 0
M  V30 4430 C 426.95 5.96769 1.88727 0
M  V30 4431 H 427.183 2.97008 0.131647 0
M  V30 4432 H 424.716 1.54317 -0.0504869 0
M  V30 4433 H 426.674 3.15996 2.62025 0
M  V30 4434 H 425.335 2.01025 2.41346 0
M  V30 4435 H 424.528 4.3905 2.4749 0
M  V30 4436 H 424.13 3.6253 0.919113 0
M  V30 4437 H 426.422 6.15458 2.83227 0
M  V30 4438 H 427.365 6.91752 1.51276 0
M  V30 4439 H 427.773 5.26034 2.04814 0
M  V30 4440 N 427.171 -0.0066808 1.57599 0
M  V30 4441 C 428.101 -0.999296 2.11036 0
M  V30 4442 C 429.082 -1.36278 1.01795 0
M  V30 4443 O 430.267 -1.4477 1.29442 0
M  V30 4444 C 427.397 -2.29328 2.60818 0
M  V30 4445 C 426.351 -2.07159 3.74525 0
M  V30 4446 C 425.677 -3.42512 4.10596 0
M  V30 4447 C 426.977 -1.43959 5.02069 0
M  V30 4448 H 428.671 -0.554382 2.94223 0
M  V30 4449 H 426.217 -0.265221 1.41536 0
M  V30 4450 H 428.17 -2.99117 2.96828 0
M  V30 4451 H 426.894 -2.7592 1.74745 0
M  V30 4452 H 425.553 -1.39797 3.38899 0
M  V30 4453 H 425.201 -3.86795 3.21556 0
M  V30 4454 H 424.901 -3.28498 4.87199 0
M  V30 4455 H 426.425 -4.13628 4.4916 0
M  V30 4456 H 427.839 -2.03696 5.35893 0
M  V30 4457 H 426.236 -1.40452 5.83432 0
M  V30 4458 H 427.306 -0.407992 4.83181 0
M  V30 4459 N 428.649 -1.55105 -0.279332 0
M  V30 4460 C 429.897 -1.75066 -1.00977 0
M  V30 4461 C 430.218 -0.551276 -1.87045 0
M  V30 4462 O 429.488 0.433984 -1.91032 0
M  V30 4463 H 428.068 -0.645578 -0.375816 0
M  V30 4464 H 430.73 -1.92497 -0.305089 0
M  V30 4465 H 429.826 -2.64894 -1.65038 0
M  V30 4466 N 430.127 0.543554 -1.4793 0
M  V30 4467 C 431.352 1.32995 -1.59145 0
M  V30 4468 C 431.777 1.86472 -0.246956 0
M  V30 4469 O 431.135 1.63696 0.779324 0
M  V30 4470 C 431.183 2.46623 -2.63077 0
M  V30 4471 O 430.287 3.49261 -2.19295 0
M  V30 4472 H 429.628 0.394472 -0.534124 0
M  V30 4473 H 432.158 0.655489 -1.93816 0
M  V30 4474 H 432.168 2.93001 -2.83926 0
M  V30 4475 H 430.843 2.07059 -3.60693 0
M  V30 4476 H 429.42 3.09094 -2.08603 0
M  V30 4477 N 431.605 1.3629 0.791371 0
M  V30 4478 C 432.535 1.33137 1.91825 0
M  V30 4479 C 433.516 0.203168 1.68882 0
M  V30 4480 O 434.701 0.400509 1.90025 0
M  V30 4481 C 431.831 1.11793 3.28816 0
M  V30 4482 C 430.785 2.21417 3.66277 0
M  V30 4483 C 430.111 1.85218 5.01596 0
M  V30 4484 C 431.411 3.63489 3.75064 0
M  V30 4485 H 433.105 2.2743 1.9472 0
M  V30 4486 H 430.651 1.09479 0.935437 0
M  V30 4487 H 432.604 1.08222 4.07266 0
M  V30 4488 H 431.328 0.139501 3.26302 0
M  V30 4489 H 429.987 2.2411 2.90121 0
M  V30 4490 H 429.635 0.859544 4.95602 0
M  V30 4491 H 429.335 2.58611 5.27631 0
M  V30 4492 H 430.859 1.832 5.82469 0
M  V30 4493 H 432.273 3.63034 4.43711 0
M  V30 4494 H 430.67 4.35771 4.12582 0
M  V30 4495 H 431.74 3.98536 2.76219 0
M  V30 4496 N 433.083 -1.0153 1.20538 0
M  V30 4497 C 434.016 -2.09759 0.898695 0
M  V30 4498 C 434.994 -1.61909 -0.149733 0
M  V30 4499 O 436.178 -1.88486 -0.0230293 0
M  V30 4500 C 433.305 -3.36913 0.347512 0
M  V30 4501 C 432.351 -4.03655 1.37713 0
M  V30 4502 S 433.184 -4.47402 2.94265 0
M  V30 4503 C 434.34 -5.77756 2.40726 0
M  V30 4504 H 434.573 -2.3545 1.81523 0
M  V30 4505 H 432.106 -1.14665 1.03399 0
M  V30 4506 H 434.064 -4.10484 0.0360518 0
M  V30 4507 H 432.725 -3.09291 -0.547546 0
M  V30 4508 H 431.918 -4.9514 0.940872 0
M  V30 4509 H 431.52 -3.36313 1.63614 0
M  V30 4510 H 433.812 -6.52994 1.80569 0
M  V30 4511 H 434.755 -6.2618 3.30612 0
M  V30 4512 H 435.163 -5.34081 1.82806 0
M  V30 4513 N 434.561 -1.01147 -1.20859 0
M  V30 4514 C 435.977 -0.725422 -1.42161 0
M  V30 4515 C 436.177 0.696919 -1.89064 0
M  V30 4516 O 435.233 1.46539 -2.05627 0
M  V30 4517 C 436.546 -1.74678 -2.44761 0
M  V30 4518 C 438.094 -1.76433 -2.58535 0
M  V30 4519 C 438.569 -2.77481 -3.64374 0
M  V30 4520 N 440.06 -2.76189 -3.71852 0
M  V30 4521 C 440.795 -3.51035 -4.53389 0
M  V30 4522 N 440.291 -4.35541 -5.38773 0
M  V30 4523 N 442.084 -3.39655 -4.47873 0
M  V30 4524 H 434.235 -1.92979 -0.887282 0
M  V30 4525 H 436.498 -0.833327 -0.451962 0
M  V30 4526 H 436.204 -2.76551 -2.17285 0
M  V30 4527 H 436.078 -1.55472 -3.43669 0
M  V30 4528 H 438.465 -0.75248 -2.85345 0
M  V30 4529 H 438.546 -1.99712 -1.5984 0
M  V30 4530 H 438.19 -3.78827 -3.38308 0
M  V30 4531 H 438.12 -2.51466 -4.6268 0
M  V30 4532 H 440.611 -2.14885 -3.10858 0
M  V30 4533 H 440.924 -4.89432 -5.98061 0
M  V30 4534 H 439.269 -4.39621 -5.38292 0
M  V30 4535 H 442.46 -2.73063 -3.80203 0
M  V30 4536 H 442.633 -3.9824 -5.11184 0
M  V30 4537 N 436.039 1.36541 -0.78704 0
M  V30 4538 C 437.264 2.0409 -0.369053 0
M  V30 4539 C 437.689 1.58957 1.00569 0
M  V30 4540 O 437.047 0.756926 1.64743 0
M  V30 4541 C 437.095 3.57924 -0.438466 0
M  V30 4542 O 436.199 4.08642 0.555479 0
M  V30 4543 H 435.54 0.645142 -0.157122 0
M  V30 4544 H 438.07 1.74545 -1.06749 0
M  V30 4545 H 438.08 4.06887 -0.301218 0
M  V30 4546 H 436.755 3.90127 -1.44132 0
M  V30 4547 H 435.332 3.70958 0.380088 0
M  V30 4548 N 437.518 0.538854 1.48102 0
M  V30 4549 C 438.466 -0.232325 2.31437 0
M  V30 4550 C 439.46 -0.927004 1.41785 0
M  V30 4551 O 440.666 -0.850378 1.58646 0
M  V30 4552 H 437.041 -0.0937916 0.746128 0
M  V30 4553 H 439.012 0.489986 2.9435 0
M  V30 4554 C 437.761 -1.26074 3.24038 0
M  V30 4555 H 437.084 -0.735609 3.92974 0
M  V30 4556 H 438.524 -1.77157 3.85216 0
M  V30 4557 C 436.983 -2.29902 2.46265 0
M  V30 4558 O 437.513 -3.36502 2.19384 0
M  V30 4559 N 435.719 -2.03348 2.07601 0
M  V30 4560 H 435.266 -1.16675 2.29662 0
M  V30 4561 H 435.224 -2.73038 1.55877 0
M  V30 4562 N 438.996 -1.55193 0.274407 0
M  V30 4563 C 440.221 -2.04446 -0.348824 0
M  V30 4564 C 440.646 -1.15149 -1.48735 0
M  V30 4565 O 440.004 -0.149952 -1.80679 0
M  V30 4566 C 440.052 -3.51431 -0.808009 0
M  V30 4567 O 439.156 -3.65225 -1.91531 0
M  V30 4568 H 438.497 -0.66006 -0.0722276 0
M  V30 4569 H 441.027 -2.00481 0.408498 0
M  V30 4570 H 441.037 -3.92781 -1.10395 0
M  V30 4571 H 439.712 -4.15892 0.0249865 0
M  V30 4572 H 438.289 -3.35778 -1.62196 0
M  V30 4573 N 440.474 -0.00167713 -1.576 0
M  V30 4574 C 441.422 1.0074 -2.09652 0
M  V30 4575 C 442.416 1.35483 -1.01689 0
M  V30 4576 O 443.622 1.34028 -1.20152 0
M  V30 4577 H 439.997 0.342537 -0.669457 0
M  V30 4578 H 441.968 0.542841 -2.93421 0
M  V30 4579 C 440.717 2.2899 -2.61647 0
M  V30 4580 H 440.04 2.03124 -3.44355 0
M  V30 4581 H 441.48 2.9787 -3.01744 0
M  V30 4582 C 439.939 3.00085 -1.53136 0
M  V30 4583 O 440.469 3.91135 -0.91524 0
M  V30 4584 N 438.675 2.6194 -1.25841 0
M  V30 4585 H 438.222 1.8798 -1.76129 0
M  V30 4586 H 438.18 3.09822 -0.534576 0
M  V30 4587 N 441.952 1.55251 0.271103 0
M  V30 4588 C 442.884 1.84675 1.35749 0
M  V30 4589 C 443.897 0.731366 1.45447 0
M  V30 4590 O 445.086 1.00924 1.4723 0
M  V30 4591 C 442.186 1.99638 2.73857 0
M  V30 4592 C 441.359 3.30312 2.86727 0
M  V30 4593 C 440.418 3.35318 4.05522 0
M  V30 4594 O 439.444 4.08682 3.96191 0
M  V30 4595 N 440.646 2.62857 5.17577 0
M  V30 4596 H 443.411 2.78445 1.10853 0
M  V30 4597 H 440.972 1.55191 0.461218 0
M  V30 4598 H 442.964 2.00355 3.51625 0
M  V30 4599 H 441.534 1.12725 2.91568 0
M  V30 4600 H 440.754 3.42118 1.95829 0
M  V30 4601 H 442.042 4.16488 2.92258 0
M  V30 4602 H 441.44 2.02939 5.28046 0
M  V30 4603 H 439.997 2.69295 5.93568 0
M  V30 4604 N 443.43 -0.535701 1.48216 0
M  V30 4605 C 444.676 -1.29375 1.56173 0
M  V30 4606 C 445.009 -1.92804 0.232429 0
M  V30 4607 O 444.284 -1.78992 -0.761048 0
M  V30 4608 C 444.567 -2.38747 2.69577 0
M  V30 4609 C 444.42 -1.80046 4.12193 0
M  V30 4610 C 445.739 -3.40551 2.78771 0
M  V30 4611 H 442.858 -0.469027 0.568491 0
M  V30 4612 H 445.5 -0.597358 1.80365 0
M  V30 4613 H 443.65 -2.98147 2.4908 0
M  V30 4614 H 445.322 -1.24742 4.44114 0
M  V30 4615 H 443.565 -1.10609 4.19462 0
M  V30 4616 H 444.236 -2.59212 4.87353 0
M  V30 4617 H 446.712 -2.91099 2.97322 0
M  V30 4618 H 445.588 -4.1448 3.59857 0
M  V30 4619 H 445.849 -4.00746 1.86696 0
M  V30 4620 N 444.908 -1.36708 -0.784132 0
M  V30 4621 C 445.84 -1.27333 -1.90575 0
M  V30 4622 C 446.853 -0.191706 -1.61667 0
M  V30 4623 O 448.042 -0.446854 -1.72816 0
M  V30 4624 C 445.142 -0.943177 -3.25511 0
M  V30 4625 C 444.315 -2.12776 -3.82158 0
M  V30 4626 C 443.374 -1.76983 -4.95544 0
M  V30 4627 O 442.4 -2.49134 -5.11782 0
M  V30 4628 N 443.602 -0.706624 -5.76183 0
M  V30 4629 H 446.367 -2.23974 -1.99138 0
M  V30 4630 H 443.928 -1.30171 -0.962656 0
M  V30 4631 H 445.92 -0.684799 -3.98864 0
M  V30 4632 H 444.49 -0.0657333 -3.12531 0
M  V30 4633 H 443.71 -2.54863 -3.0073 0
M  V30 4634 H 444.998 -2.91904 -4.16737 0
M  V30 4635 H 444.396 -0.107643 -5.65598 0
M  V30 4636 H 442.953 -0.50808 -6.49817 0
M  V30 4637 N 446.386 1.0089 -1.21074 0
M  V30 4638 C 447.333 2.09588 -0.966512 0
M  V30 4639 C 448.303 1.65761 0.106089 0
M  V30 4640 O 449.488 1.90758 -0.0402287 0
M  V30 4641 C 446.628 3.40958 -0.533058 0
M  V30 4642 C 445.741 3.9822 -1.67467 0
M  V30 4643 C 444.876 5.17682 -1.19076 0
M  V30 4644 C 443.915 5.67043 -2.30496 0
M  V30 4645 N 443.052 6.77759 -1.83267 0
M  V30 4646 H 447.892 2.29815 -1.89708 0
M  V30 4647 H 445.429 1.12689 -0.945489 0
M  V30 4648 H 447.387 4.1637 -0.263019 0
M  V30 4649 H 446.017 3.20781 0.360505 0
M  V30 4650 H 445.069 3.1983 -2.05944 0
M  V30 4651 H 446.381 4.3085 -2.51336 0
M  V30 4652 H 445.535 6.00326 -0.877151 0
M  V30 4653 H 444.274 4.86635 -0.322066 0
M  V30 4654 H 443.279 4.82999 -2.62664 0
M  V30 4655 H 444.504 6.00121 -3.17855 0
M  V30 4656 H 442.45 6.48527 -0.987356 0
M  V30 4657 H 442.367 7.09624 -2.60711 0
M  V30 4658 H 443.635 7.63949 -1.54928 0
M  V30 4659 N 447.864 1.01787 1.20321 0
M  V30 4660 C 448.827 0.593972 2.2137 0
M  V30 4661 C 449.827 -0.336553 1.57239 0
M  V30 4662 O 451.017 -0.125069 1.7375 0
M  V30 4663 C 448.149 -0.132433 3.40643 0
M  V30 4664 H 449.342 1.48791 2.60387 0
M  V30 4665 H 446.895 0.807803 1.33807 0
M  V30 4666 H 447.63 -1.04123 3.0713 0
M  V30 4667 H 447.415 0.53605 3.88418 0
M  V30 4668 H 448.905 -0.416314 4.1552 0
M  V30 4669 N 449.342 -1.36122 0.79427 0
M  V30 4670 C 450.589 -1.99111 0.368905 0
M  V30 4671 C 450.917 -1.63032 -1.0607 0
M  V30 4672 O 450.172 -0.879303 -1.74833 0
M  V30 4673 C 450.471 -3.5409 0.48527 0
M  V30 4674 C 450.137 -4.10003 1.87638 0
M  V30 4675 C 448.799 -4.24986 2.257 0
M  V30 4676 C 451.151 -4.40423 2.78706 0
M  V30 4677 C 448.479 -4.67701 3.54221 0
M  V30 4678 C 450.831 -4.84573 4.0666 0
M  V30 4679 C 449.495 -4.97761 4.44737 0
M  V30 4680 H 448.765 -0.7286 0.134992 0
M  V30 4681 H 451.412 -1.62534 1.01267 0
M  V30 4682 H 449.717 -3.91052 -0.241984 0
M  V30 4683 H 451.414 -4.00766 0.137109 0
M  V30 4684 H 448.004 -3.98784 1.57064 0
M  V30 4685 H 452.188 -4.28412 2.50553 0
M  V30 4686 H 447.444 -4.761 3.83587 0
M  V30 4687 H 451.618 -5.07074 4.77336 0
M  V30 4688 H 449.245 -5.30618 5.44379 0
M  V30 4689 N 450.82 -0.546701 -1.47814 0
M  V30 4690 C 452.097 0.0464413 -1.95545 0
M  V30 4691 C 452.477 1.4962 -1.48919 0
M  V30 4692 O 451.825 2.16752 -0.723232 0
M  V30 4693 C 452.035 -0.0881298 -3.48889 0
M  V30 4694 C 453.383 0.0626059 -4.24554 0
M  V30 4695 O 454.407 -0.0151555 -3.56197 0
M  V30 4696 O 453.266 0.228071 -5.46024 0
M  V30 4697 H 450.36 0.0700004 -0.824032 0
M  V30 4698 H 452.906 -0.612482 -1.58262 0
M  V30 4699 H 451.678 -1.09737 -3.75597 0
M  V30 4700 H 451.301 0.608886 -3.9291 0
M  V30 4701 N 452.299 1.55045 -0.282633 0
M  V30 4702 C 453.229 2.2579 0.595066 0
M  V30 4703 C 454.21 1.25074 1.15284 0
M  V30 4704 O 455.395 1.5381 1.18559 0
M  V30 4705 C 452.525 2.98472 1.77572 0
M  V30 4706 C 451.479 4.0618 1.34914 0
M  V30 4707 C 450.805 4.66477 2.6135 0
M  V30 4708 C 452.105 5.1996 0.493821 0
M  V30 4709 H 453.799 2.994 0.00505653 0
M  V30 4710 H 451.345 1.44 0.000992001 0
M  V30 4711 H 453.298 3.46677 2.39568 0
M  V30 4712 H 452.022 2.2241 2.39168 0
M  V30 4713 H 450.681 3.58797 0.752338 0
M  V30 4714 H 450.329 3.87074 3.2122 0
M  V30 4715 H 450.029 5.39207 2.33516 0
M  V30 4716 H 451.553 5.17435 3.24181 0
M  V30 4717 H 452.967 5.64172 1.01898 0
M  V30 4718 H 451.364 5.99299 0.310047 0
M  V30 4719 H 452.434 4.82462 -0.485593 0
M  V30 4720 N 453.777 0.010035 1.57597 0
M  V30 4721 C 455.026 -0.671945 1.90178 0
M  V30 4722 C 455.339 -1.74376 0.886131 0
M  V30 4723 O 456.545 -2.48107 1.10252 0
M  V30 4724 C 455.001 -1.24636 3.3763 0
M  V30 4725 C 454.609 -0.208838 4.47513 0
M  V30 4726 C 456.353 -1.90595 3.79307 0
M  V30 4727 C 454.26 -0.793814 5.86048 0
M  V30 4728 H 453.19 -0.25474 0.709665 0
M  V30 4729 H 455.841 0.0722206 1.83358 0
M  V30 4730 H 454.223 -2.04152 3.3932 0
M  V30 4731 H 455.397 0.562463 4.57354 0
M  V30 4732 H 453.712 0.350889 4.14919 0
M  V30 4733 H 456.309 -2.35284 4.80151 0
M  V30 4734 H 456.652 -2.74074 3.13352 0
M  V30 4735 H 457.185 -1.17798 3.79958 0
M  V30 4736 H 453.924 0.00240855 6.555 0
M  V30 4737 H 453.444 -1.53404 5.79851 0
M  V30 4738 H 455.123 -1.2894 6.34022 0
M  V30 4739 N 455.255 -1.55392 -0.262866 0
M  V30 4740 C 456.483 -1.80513 -1.01108 0
M  V30 4741 C 456.898 -0.583533 -1.79556 0
M  V30 4742 O 456.255 0.447585 -1.76926 0
M  V30 4743 C 456.306 -3.03648 -1.96164 0
M  V30 4744 O 456.027 -4.2109 -1.20893 0
M  V30 4745 C 457.528 -3.41448 -2.82715 0
M  V30 4746 H 454.748 -0.601079 -0.298236 0
M  V30 4747 H 457.292 -2.02425 -0.290582 0
M  V30 4748 H 455.447 -2.83832 -2.63663 0
M  V30 4749 H 455.861 -4.90771 -1.85051 0
M  V30 4750 H 457.335 -4.30751 -3.45192 0
M  V30 4751 H 457.812 -2.61308 -3.53008 0
M  V30 4752 H 458.418 -3.63559 -2.20693 0
M  V30 4753 N 456.733 0.527833 -1.48498 0
M  V30 4754 C 457.958 1.313 -1.60546 0
M  V30 4755 C 458.383 1.86199 -0.26672 0
M  V30 4756 O 457.741 1.64513 0.761918 0
M  V30 4757 C 457.789 2.43818 -2.65678 0
M  V30 4758 O 456.893 3.46916 -2.22987 0
M  V30 4759 H 456.234 0.388784 -0.538277 0
M  V30 4760 H 458.764 0.634896 -1.945 0
M  V30 4761 H 458.774 2.89973 -2.87018 0
M  V30 4762 H 457.449 2.03222 -3.62869 0
M  V30 4763 H 456.026 3.06864 -2.11869 0
M  V30 4764 N 458.211 1.37122 0.776871 0
M  V30 4765 C 459.161 1.28989 1.88005 0
M  V30 4766 C 460.145 0.178765 1.59904 0
M  V30 4767 O 461.337 0.412705 1.72121 0
M  V30 4768 C 458.466 1.09402 3.25402 0
M  V30 4769 C 457.552 2.25036 3.59471 0
M  V30 4770 N 457.943 3.50407 3.64759 0
M  V30 4771 C 456.241 2.17078 3.89607 0
M  V30 4772 C 456.942 4.26628 3.95428 0
M  V30 4773 N 455.918 3.55709 4.11062 0
M  V30 4774 H 459.72 2.2394 1.90337 0
M  V30 4775 H 457.234 1.30021 0.973052 0
M  V30 4776 H 459.231 1.01661 4.04315 0
M  V30 4777 H 457.891 0.153632 3.24336 0
M  V30 4778 H 458.902 3.8438 3.47091 0
M  V30 4779 H 455.579 1.31067 3.96393 0
M  V30 4780 H 456.969 5.35107 4.06338 0
M  V30 4781 N 459.689 -1.00246 1.21608 0
M  V30 4782 C 460.966 -1.71336 0.943568 0
M  V30 4783 C 461.346 -2.03972 -0.543943 0
M  V30 4784 O 460.694 -1.71545 -1.50946 0
M  V30 4785 C 460.904 -2.97094 1.83128 0
M  V30 4786 C 462.252 -3.70071 2.08165 0
M  V30 4787 O 463.276 -3.07081 1.80498 0
M  V30 4788 O 462.135 -4.83376 2.54971 0
M  V30 4789 H 459.229 -0.747386 0.354039 0
M  V30 4790 H 461.775 -1.05967 1.32549 0
M  V30 4791 H 460.547 -2.69407 2.83788 0
M  V30 4792 H 460.17 -3.70204 1.45034 0
M  V30 4793 N 461.167 -1.02423 -1.1978 0
M  V30 4794 C 462.395 -0.737456 -1.93311 0
M  V30 4795 C 462.81 0.703023 -1.75223 0
M  V30 4796 O 462.167 1.47761 -1.07112 0
M  V30 4797 C 462.218 -1.0733 -3.45199 0
M  V30 4798 O 461.939 -2.4572 -3.62702 0
M  V30 4799 C 463.44 -0.80866 -4.35862 0
M  V30 4800 H 460.66 -0.2702 -0.614193 0
M  V30 4801 H 463.204 -1.36747 -1.52054 0
M  V30 4802 H 461.359 -0.488545 -3.84307 0
M  V30 4803 H 461.773 -2.58081 -4.56612 0
M  V30 4804 H 463.247 -1.09365 -5.41057 0
M  V30 4805 H 463.724 0.257025 -4.38447 0
M  V30 4806 H 464.33 -1.37592 -4.02428 0
M  V30 4807 N 462.645 1.35699 -0.801477 0
M  V30 4808 C 464.061 1.52065 -0.484596 0
M  V30 4809 C 464.261 1.75215 0.995084 0
M  V30 4810 O 463.317 1.79061 1.78026 0
M  V30 4811 C 464.63 2.69908 -1.32552 0
M  V30 4812 C 466.178 2.83784 -1.32044 0
M  V30 4813 C 466.653 4.04646 -2.14536 0
M  V30 4814 N 468.144 4.11814 -2.12046 0
M  V30 4815 C 468.879 5.04437 -2.72636 0
M  V30 4816 N 468.375 6.02426 -3.42133 0
M  V30 4817 N 470.168 4.97144 -2.62305 0
M  V30 4818 H 462.319 1.18928 -1.75983 0
M  V30 4819 H 464.582 0.581455 -0.748741 0
M  V30 4820 H 464.288 2.59363 -2.37537 0
M  V30 4821 H 464.162 3.64376 -0.975181 0
M  V30 4822 H 466.549 2.93783 -0.27846 0
M  V30 4823 H 466.63 1.90188 -1.71062 0
M  V30 4824 H 466.274 3.95407 -3.18772 0
M  V30 4825 H 466.204 4.97413 -1.72882 0
M  V30 4826 H 468.695 3.41664 -1.61476 0
M  V30 4827 H 469.008 6.69688 -3.85666 0
M  V30 4828 H 467.353 6.02615 -3.46237 0
M  V30 4829 H 470.544 4.19546 -2.07603 0
M  V30 4830 H 470.717 5.69138 -3.09815 0
M  V30 4831 N 464.123 0.554532 1.47522 0
M  V30 4832 C 465.07 -0.19466 2.29978 0
M  V30 4833 C 466.04 -0.910882 1.38896 0
M  V30 4834 O 467.225 -0.907102 1.67858 0
M  V30 4835 C 464.365 -1.22035 3.22802 0
M  V30 4836 C 463.478 -0.510474 4.28973 0
M  V30 4837 C 462.613 -1.52123 5.08952 0
M  V30 4838 C 461.652 -0.796173 6.069 0
M  V30 4839 N 460.789 -1.75363 6.79847 0
M  V30 4840 H 465.629 0.51461 2.93523 0
M  V30 4841 H 463.166 0.265607 1.44682 0
M  V30 4842 H 465.124 -1.8276 3.7504 0
M  V30 4843 H 463.754 -1.89769 2.61127 0
M  V30 4844 H 462.806 0.211234 3.79813 0
M  V30 4845 H 464.118 0.0576503 4.98767 0
M  V30 4846 H 463.272 -2.20207 5.65326 0
M  V30 4847 H 462.011 -2.12327 4.39054 0
M  V30 4848 H 461.016 -0.101388 5.49707 0
M  V30 4849 H 462.241 -0.199911 6.78806 0
M  V30 4850 H 460.187 -2.3443 6.12682 0
M  V30 4851 H 460.104 -1.23759 7.45801 0
M  V30 4852 H 461.372 -2.4257 7.40797 0
M  V30 4853 N 465.601 -1.54893 0.290851 0
M  V30 4854 C 466.847 -2.0023 -0.321867 0
M  V30 4855 C 467.18 -1.179 -1.54316 0
M  V30 4856 O 466.455 -0.25293 -1.92848 0
M  V30 4857 C 466.738 -3.53456 -0.688515 0
M  V30 4858 C 466.591 -4.46532 0.541209 0
M  V30 4859 C 467.91 -4.13057 -1.51895 0
M  V30 4860 H 465.029 -0.727891 -0.115515 0
M  V30 4861 H 467.671 -1.85722 0.400931 0
M  V30 4862 H 465.821 -3.6595 -1.30433 0
M  V30 4863 H 467.493 -4.4596 1.17973 0
M  V30 4864 H 465.736 -4.17545 1.17636 0
M  V30 4865 H 466.407 -5.51475 0.240675 0
M  V30 4866 H 468.883 -4.03937 -0.99872 0
M  V30 4867 H 467.759 -5.20448 -1.74429 0
M  V30 4868 H 468.02 -3.64284 -2.50498 0
M  V30 4869 N 467.08 -0.0183926 -1.57589 0
M  V30 4870 C 468.328 0.661253 -1.90976 0
M  V30 4871 C 468.649 1.73281 -0.894353 0
M  V30 4872 O 467.919 1.9579 0.0656788 0
M  V30 4873 H 466.499 0.247233 -0.704901 0
M  V30 4874 H 469.161 -0.0636639 -1.94796 0
M  V30 4875 H 468.257 1.12083 -2.9128 0
M  V30 4876 N 468.558 1.5553 0.254621 0
M  V30 4877 C 469.488 1.9268 1.31897 0
M  V30 4878 C 470.469 0.790797 1.506 0
M  V30 4879 O 471.654 1.05045 1.63337 0
M  V30 4880 C 468.784 2.21477 2.67517 0
M  V30 4881 C 467.738 3.37256 2.63519 0
M  V30 4882 C 467.064 3.51576 4.02862 0
M  V30 4883 C 468.364 4.73157 2.21179 0
M  V30 4884 H 470.058 2.81832 1.01051 0
M  V30 4885 H 467.604 1.35599 0.484662 0
M  V30 4886 H 469.557 2.46055 3.42104 0
M  V30 4887 H 468.281 1.29144 2.99982 0
M  V30 4888 H 466.94 3.12675 1.9139 0
M  V30 4889 H 466.588 2.56676 4.32581 0
M  V30 4890 H 466.288 4.2943 4.01078 0
M  V30 4891 H 467.812 3.78467 4.79161 0
M  V30 4892 H 469.226 4.97158 2.85494 0
M  V30 4893 H 467.623 5.54058 2.30521 0
M  V30 4894 H 468.693 4.70739 1.16332 0
M  V30 4895 N 470.036 -0.519951 1.48776 0
M  V30 4896 C 470.966 -1.63253 1.66945 0
M  V30 4897 C 471.947 -1.62014 0.518224 0
M  V30 4898 O 473.132 -1.79053 0.751919 0
M  V30 4899 C 470.262 -3.0181 1.71836 0
M  V30 4900 C 469.216 -3.17911 2.8656 0
M  V30 4901 C 468.542 -4.5763 2.76548 0
M  V30 4902 C 469.842 -2.99729 4.27738 0
M  V30 4903 H 471.536 -1.48302 2.6009 0
M  V30 4904 H 469.082 -0.712026 1.25165 0
M  V30 4905 H 471.035 -3.79525 1.83135 0
M  V30 4906 H 469.759 -3.17806 0.752775 0
M  V30 4907 H 468.418 -2.42616 2.74833 0
M  V30 4908 H 468.066 -4.70476 1.77937 0
M  V30 4909 H 467.766 -4.69346 3.53536 0
M  V30 4910 H 469.29 -5.37431 2.89828 0
M  V30 4911 H 470.704 -3.67228 4.40246 0
M  V30 4912 H 469.101 -3.22932 5.05801 0
M  V30 4913 H 470.171 -1.96047 4.43502 0
M  V30 4914 N 471.514 -1.37532 -0.769588 0
M  V30 4915 C 472.762 -1.32597 -1.5252 0
M  V30 4916 C 473.083 0.0884294 -1.94799 0
M  V30 4917 O 472.353 1.03289 -1.66458 0
M  V30 4918 H 470.933 -0.487846 -0.565699 0
M  V30 4919 H 473.595 -1.72044 -0.915806 0
M  V30 4920 H 472.691 -1.96643 -2.42359 0
M  V30 4921 N 472.992 0.995999 -1.22138 0
M  V30 4922 C 473.922 2.10387 -1.01289 0
M  V30 4923 C 474.903 1.69975 0.0651454 0
M  V30 4924 O 476.088 1.9396 -0.0964628 0
M  V30 4925 C 473.218 3.42312 -0.586517 0
M  V30 4926 C 472.172 3.96558 -1.61014 0
M  V30 4927 C 471.498 5.24494 -1.0397 0
M  V30 4928 C 472.798 4.27595 -2.99933 0
M  V30 4929 H 474.492 2.28086 -1.93951 0
M  V30 4930 H 472.038 1.09607 -0.933928 0
M  V30 4931 H 473.991 4.19223 -0.427793 0
M  V30 4932 H 472.715 3.24431 0.375761 0
M  V30 4933 H 471.374 3.21776 -1.75658 0
M  V30 4934 H 471.022 5.02953 -0.0688703 0
M  V30 4935 H 470.722 5.61755 -1.72352 0
M  V30 4936 H 472.246 6.04042 -0.892494 0
M  V30 4937 H 473.66 4.95315 -2.8868 0
M  V30 4938 H 472.057 4.76021 -3.6541 0
M  V30 4939 H 473.127 3.35498 -3.50099 0
M  V30 4940 N 474.47 1.03057 1.19235 0
M  V30 4941 C 475.695 0.74757 1.93458 0
M  V30 4942 C 476.12 -0.687648 1.7508 0
M  V30 4943 O 475.478 -1.47499 1.05422 0
M  V30 4944 C 475.526 1.10604 3.43219 0
M  V30 4945 O 474.63 0.225671 4.11782 0
M  V30 4946 H 473.971 0.276047 0.603899 0
M  V30 4947 H 476.501 1.3777 1.51263 0
M  V30 4948 H 476.511 1.06366 3.93891 0
M  V30 4949 H 475.186 2.15165 3.55917 0
M  V30 4950 H 473.763 0.326795 3.71465 0
M  V30 4951 N 475.948 -1.35272 0.808662 0
M  V30 4952 C 477.195 -1.98709 0.390003 0
M  V30 4953 C 477.523 -1.64148 -1.04335 0
M  V30 4954 O 476.778 -0.897797 -1.73891 0
M  V30 4955 C 477.077 -3.53556 0.522798 0
M  V30 4956 C 476.743 -4.0799 1.91977 0
M  V30 4957 C 475.405 -4.22568 2.30195 0
M  V30 4958 C 477.757 -4.37442 2.83361 0
M  V30 4959 C 475.085 -4.63918 3.59162 0
M  V30 4960 C 477.437 -4.80232 4.11776 0
M  V30 4961 C 476.101 -4.93016 4.49991 0
M  V30 4962 H 475.371 -0.727127 0.142712 0
M  V30 4963 H 478.018 -1.6145 1.02985 0
M  V30 4964 H 476.323 -3.91287 -0.200494 0
M  V30 4965 H 478.02 -4.00598 0.179608 0
M  V30 4966 H 474.61 -3.97096 1.61284 0
M  V30 4967 H 478.794 -4.25731 2.55083 0
M  V30 4968 H 474.05 -4.72005 3.88615 0
M  V30 4969 H 478.224 -5.01982 4.82687 0
M  V30 4970 H 475.851 -5.24814 5.49976 0
M  V30 4971 N 477.426 -0.562348 -1.47226 0
M  V30 4972 C 478.373 0.182461 -2.30078 0
M  V30 4973 C 479.343 0.903503 -1.39377 0
M  V30 4974 O 480.528 0.898188 -1.68337 0
M  V30 4975 C 477.668 1.20322 -3.23445 0
M  V30 4976 C 476.781 0.487717 -4.29238 0
M  V30 4977 C 475.916 1.49422 -5.09752 0
M  V30 4978 C 474.955 0.763976 -6.07314 0
M  V30 4979 N 474.092 1.71755 -6.80768 0
M  V30 4980 H 478.932 -0.530169 -2.93246 0
M  V30 4981 H 476.469 -0.273276 -1.44539 0
M  V30 4982 H 478.427 1.80768 -3.76004 0
M  V30 4983 H 477.057 1.88382 -2.6213 0
M  V30 4984 H 476.109 -0.231374 -3.79696 0
M  V30 4985 H 477.421 -0.0841003 -4.98729 0
M  V30 4986 H 476.575 2.17206 -5.66486 0
M  V30 4987 H 475.314 2.09995 -4.40174 0
M  V30 4988 H 474.319 0.0722344 -5.49753 0
M  V30 4989 H 475.544 0.16391 -6.78902 0
M  V30 4990 H 473.49 2.31177 -6.13916 0
M  V30 4991 H 473.407 1.19802 -7.46447 0
M  V30 4992 H 474.675 2.38638 -7.42073 0
M  V30 4993 N 478.904 1.54736 -0.299062 0
M  V30 4994 C 479.867 2.22127 0.565012 0
M  V30 4995 C 480.867 1.20669 1.06281 0
M  V30 4996 O 482.057 1.45417 0.959145 0
M  V30 4997 C 479.189 2.90611 1.78208 0
M  V30 4998 H 480.382 2.99891 -0.0237448 0
M  V30 4999 H 477.935 1.5622 -0.0498788 0
M  V30 5000 H 478.67 2.16921 2.41072 0
M  V30 5001 H 478.455 3.64984 1.43281 0
M  V30 5002 H 479.945 3.42026 2.396 0
M  V30 5003 N 480.382 0.0267497 1.57577 0
M  V30 5004 C 481.63 -0.651116 1.91324 0
M  V30 5005 C 481.951 -1.72804 0.90353 0
M  V30 5006 O 481.221 -1.95822 -0.0552946 0
M  V30 5007 H 479.801 -0.243491 0.706202 0
M  V30 5008 H 482.463 0.0739935 1.94759 0
M  V30 5009 H 481.559 -1.10536 2.9187 0
M  V30 5010 N 481.861 -1.55662 -0.24637 0
M  V30 5011 C 483.089 -1.81575 -0.991876 0
M  V30 5012 C 483.504 -0.602545 -1.78927 0
M  V30 5013 O 482.861 0.428795 -1.77391 0
M  V30 5014 C 482.912 -3.05711 -1.92933 0
M  V30 5015 O 482.633 -4.22348 -1.1642 0
M  V30 5016 C 484.134 -3.44428 -2.79078 0
M  V30 5017 H 481.354 -0.604209 -0.291844 0
M  V30 5018 H 483.898 -2.02722 -0.269095 0
M  V30 5019 H 482.053 -2.86612 -2.60638 0
M  V30 5020 H 482.467 -4.92706 -1.79835 0
M  V30 5021 H 483.941 -4.34388 -3.40603 0
M  V30 5022 H 484.418 -2.65037 -3.50217 0
M  V30 5023 H 485.024 -3.65879 -2.16824 0
M  V30 5024 N 483.339 0.512053 -1.4905 0
M  V30 5025 C 484.616 1.27337 -1.48474 0
M  V30 5026 C 484.996 2.1009 -0.206301 0
M  V30 5027 O 484.344 2.136 0.811609 0
M  V30 5028 C 484.554 2.13954 -2.75726 0
M  V30 5029 C 485.902 2.73507 -3.24776 0
M  V30 5030 O 486.926 2.24229 -2.76767 0
M  V30 5031 O 485.785 3.63186 -4.08361 0
M  V30 5032 H 482.879 0.575652 -0.593762 0
M  V30 5033 H 485.425 0.527232 -1.61302 0
M  V30 5034 H 484.197 1.52709 -3.60272 0
M  V30 5035 H 483.82 2.95782 -2.65705 0
M  V30 5036 N 484.817 1.37938 0.762283 0
M  V30 5037 C 486.094 1.24196 1.51112 0
M  V30 5038 C 486.474 -0.160409 2.1049 0
M  V30 5039 O 485.822 -1.16904 1.96331 0
M  V30 5040 C 486.032 2.34537 2.58445 0
M  V30 5041 C 487.38 2.7254 3.25588 0
M  V30 5042 O 488.404 2.33783 2.68745 0
M  V30 5043 O 487.263 3.39343 4.28379 0
M  V30 5044 H 484.357 0.485175 0.669727 0
M  V30 5045 H 486.903 1.49743 0.798438 0
M  V30 5046 H 485.675 3.28406 2.12756 0
M  V30 5047 H 485.298 2.10505 3.37303 0
M  V30 5048 N 486.295 -0.989507 1.22664 0
M  V30 5049 C 487.225 -2.09847 1.02404 0
M  V30 5050 C 488.206 -1.70007 -0.0561303 0
M  V30 5051 O 489.391 -1.93906 0.106748 0
M  V30 5052 C 486.521 -3.41996 0.604663 0
M  V30 5053 C 485.475 -3.95699 1.63115 0
M  V30 5054 C 484.801 -5.23936 1.0675 0
M  V30 5055 C 486.101 -4.25999 3.02196 0
M  V30 5056 H 487.795 -2.27054 1.95158 0
M  V30 5057 H 485.341 -1.09111 0.939727 0
M  V30 5058 H 487.294 -4.1899 0.45002 0
M  V30 5059 H 486.018 -3.24626 -0.35855 0
M  V30 5060 H 484.677 -3.2084 1.77362 0
M  V30 5061 H 484.325 -5.02909 0.0955422 0
M  V30 5062 H 484.025 -5.60833 1.75328 0
M  V30 5063 H 485.549 -6.0356 0.924516 0
M  V30 5064 H 486.963 -4.93777 2.91303 0
M  V30 5065 H 485.36 -4.74076 3.67929 0
M  V30 5066 H 486.43 -3.33636 3.51873 0
M  V30 5067 N 487.773 -1.03688 -1.18687 0
M  V30 5068 C 489.189 -0.755413 -1.4059 0
M  V30 5069 C 489.389 0.656659 -1.905 0
M  V30 5070 O 488.445 1.42144 -2.08689 0
M  V30 5071 C 489.758 -1.7983 -2.41001 0
M  V30 5072 C 491.306 -1.81877 -2.54735 0
M  V30 5073 C 491.781 -2.85148 -3.58406 0
M  V30 5074 N 493.272 -2.84015 -3.6591 0
M  V30 5075 C 494.007 -3.60573 -4.45841 0
M  V30 5076 N 493.503 -4.46871 -5.29413 0
M  V30 5077 N 495.296 -3.49079 -4.40568 0
M  V30 5078 H 487.447 -1.94818 -0.846148 0
M  V30 5079 H 489.71 -0.842727 -0.434184 0
M  V30 5080 H 489.416 -2.81097 -2.1137 0
M  V30 5081 H 489.29 -1.62727 -3.40294 0
M  V30 5082 H 491.677 -0.812836 -2.83685 0
M  V30 5083 H 491.758 -2.03057 -1.55568 0
M  V30 5084 H 491.402 -3.85918 -3.30197 0
M  V30 5085 H 491.332 -2.61224 -4.57241 0
M  V30 5086 H 493.823 -2.21431 -3.0623 0
M  V30 5087 H 494.136 -5.02007 -5.87545 0
M  V30 5088 H 492.481 -4.5094 -5.28846 0
M  V30 5089 H 495.672 -2.81066 -3.74325 0
M  V30 5090 H 495.845 -4.08994 -5.02621 0
M  V30 5091 N 489.251 1.34841 -0.815825 0
M  V30 5092 C 490.161 2.33425 -0.234462 0
M  V30 5093 C 491.177 1.62295 0.627413 0
M  V30 5094 O 492.353 1.94109 0.536987 0
M  V30 5095 C 489.418 3.41471 0.599849 0
M  V30 5096 C 488.479 4.28362 -0.283596 0
M  V30 5097 C 487.712 5.31248 0.51099 0
M  V30 5098 O 487.935 5.43056 1.7449 0
M  V30 5099 O 486.869 6.01812 -0.10297 0
M  V30 5100 H 490.695 2.84962 -1.05024 0
M  V30 5101 H 488.28 1.37774 -0.577809 0
M  V30 5102 H 490.162 4.07464 1.07475 0
M  V30 5103 H 488.837 2.9219 1.39308 0
M  V30 5104 H 487.744 3.65318 -0.805836 0
M  V30 5105 H 489.077 4.81066 -1.041 0
M  V30 5106 N 490.729 0.570148 1.46925 0
M  V30 5107 C 491.954 0.0542592 2.07329 0
M  V30 5108 C 492.379 -1.23582 1.41806 0
M  V30 5109 O 491.737 -1.74341 0.497479 0
M  V30 5110 C 491.785 -0.111175 3.60429 0
M  V30 5111 O 490.889 -1.17071 3.95434 0
M  V30 5112 H 490.23 0.0571425 0.661537 0
M  V30 5113 H 492.76 0.789516 1.88753 0
M  V30 5114 H 492.77 -0.321315 4.06733 0
M  V30 5115 H 491.445 0.831012 4.07513 0
M  V30 5116 H 490.022 -0.940029 3.60857 0
M  V30 5117 N 492.207 -1.54576 0.307264 0
M  V30 5118 C 493.618 -1.8579 -0.184121 0
M  V30 5119 C 493.969 -1.22914 -1.52927 0
M  V30 5120 O 493.094 -0.529126 -2.09831 0
M  V30 5121 C 493.689 -3.37081 -0.340862 0
M  V30 5122 C 492.248 -3.68304 -0.776465 0
M  V30 5123 C 491.395 -2.77076 0.111503 0
M  V30 5124 H 494.346 -1.49656 0.528078 0
M  V30 5125 H 494.367 -3.61922 -1.17443 0
M  V30 5126 H 493.879 -3.82815 0.638309 0
M  V30 5127 H 491.98 -3.28092 -1.76596 0
M  V30 5128 H 492.093 -4.75434 -0.591512 0
M  V30 5129 H 490.457 -2.51374 -0.410256 0
M  V30 5130 H 491.24 -3.25632 1.08714 0
M  V30 5131 N 493.685 -0.035106 -1.57561 0
M  V30 5132 C 494.615 0.942993 -2.13612 0
M  V30 5133 C 495.596 1.33531 -1.05373 0
M  V30 5134 O 496.781 1.41287 -1.33235 0
M  V30 5135 C 493.911 2.22332 -2.66807 0
M  V30 5136 C 492.865 1.97156 -3.79886 0
M  V30 5137 C 492.191 3.31506 -4.19533 0
M  V30 5138 C 493.491 1.30596 -5.05709 0
M  V30 5139 H 495.185 0.476179 -2.95589 0
M  V30 5140 H 492.731 0.227602 -1.4219 0
M  V30 5141 H 494.684 2.91142 -3.04654 0
M  V30 5142 H 493.408 2.7119 -1.81999 0
M  V30 5143 H 492.067 1.30763 -3.42486 0
M  V30 5144 H 491.715 3.78134 -3.31698 0
M  V30 5145 H 491.415 3.15465 -4.95738 0
M  V30 5146 H 492.939 4.01574 -4.59968 0
M  V30 5147 H 494.353 1.89416 -5.41105 0
M  V30 5148 H 492.75 1.24934 -5.86951 0
M  V30 5149 H 493.82 0.279742 -4.84092 0
M  V30 5150 N 495.163 1.55791 0.238111 0
M  V30 5151 C 496.409 1.78297 0.966337 0
M  V30 5152 C 496.742 0.601903 1.84637 0
M  V30 5153 O 496.017 -0.399499 1.90353 0
M  V30 5154 C 496.3 3.10758 1.81939 0
M  V30 5155 C 496.153 4.39283 0.966958 0
M  V30 5156 C 497.472 3.39519 2.80027 0
M  V30 5157 H 494.591 0.648654 0.349882 0
M  V30 5158 H 497.233 1.88525 0.236253 0
M  V30 5159 H 495.383 3.02168 2.44185 0
M  V30 5160 H 497.055 4.59873 0.362514 0
M  V30 5161 H 495.298 4.32948 0.271669 0
M  V30 5162 H 495.969 5.28368 1.59784 0
M  V30 5163 H 498.445 3.48128 2.27917 0
M  V30 5164 H 497.321 4.33402 3.36829 0
M  V30 5165 H 497.582 2.60864 3.56934 0
M  V30 5166 N 496.642 -0.504142 1.49319 0
M  V30 5167 C 497.552 -1.63248 1.68486 0
M  V30 5168 C 498.568 -1.64488 0.567432 0
M  V30 5169 O 499.744 -1.82966 0.841749 0
M  V30 5170 C 496.809 -2.99627 1.74426 0
M  V30 5171 C 495.87 -3.09039 2.97982 0
M  V30 5172 C 495.103 -4.38913 3.0363 0
M  V30 5173 O 495.326 -5.27528 2.16958 0
M  V30 5174 O 494.26 -4.53231 3.96062 0
M  V30 5175 H 498.086 -1.50008 2.64067 0
M  V30 5176 H 495.671 -0.680086 1.33023 0
M  V30 5177 H 497.553 -3.80689 1.80705 0
M  V30 5178 H 496.228 -3.13136 0.820233 0
M  V30 5179 H 495.135 -2.27177 2.97223 0
M  V30 5180 H 496.468 -3.00456 3.89855 0
M  V30 5181 N 498.12 -1.38341 -0.754957 0
M  V30 5182 C 499.05 -1.38176 -1.88227 0
M  V30 5183 C 500.031 -0.247873 -1.68284 0
M  V30 5184 O 501.216 -0.45075 -1.88896 0
M  V30 5185 C 498.346 -1.20471 -3.25736 0
M  V30 5186 C 497.3 -2.3105 -3.60278 0
M  V30 5187 C 496.626 -1.98452 -4.96509 0
M  V30 5188 C 497.926 -3.73305 -3.65295 0
M  V30 5189 H 499.62 -2.32512 -1.88622 0
M  V30 5190 H 497.166 -1.1192 -0.906082 0
M  V30 5191 H 499.119 -1.18982 -4.04254 0
M  V30 5192 H 497.843 -0.225965 -3.25817 0
M  V30 5193 H 496.502 -2.31723 -2.84078 0
M  V30 5194 H 496.15 -0.990641 -4.93148 0
M  V30 5195 H 495.85 -2.7251 -5.20588 0
M  V30 5196 H 497.374 -1.98578 -5.77407 0
M  V30 5197 H 498.788 -3.7467 -4.3393 0
M  V30 5198 H 497.185 -4.46557 -4.00883 0
M  V30 5199 H 498.255 -4.05719 -2.65556 0
M  V30 5200 N 499.598 0.982988 -1.23187 0
M  V30 5201 C 500.561 2.05649 -1.01198 0
M  V30 5202 C 501.561 1.6078 0.0252464 0
M  V30 5203 O 502.751 1.72878 -0.214243 0
M  V30 5204 C 499.883 3.36744 -0.530656 0
M  V30 5205 H 501.076 2.2659 -1.96461 0
M  V30 5206 H 498.629 1.15602 -1.05195 0
M  V30 5207 H 499.364 3.21492 0.425873 0
M  V30 5208 H 499.149 3.7065 -1.2791 0
M  V30 5209 H 500.639 4.15705 -0.397366 0
M  V30 5210 N 501.076 1.04316 1.18135 0
M  V30 5211 C 501.986 0.646876 2.25505 0
M  V30 5212 C 503.002 -0.328008 1.7088 0
M  V30 5213 O 504.178 -0.182309 2.00573 0
M  V30 5214 C 501.243 0.0185664 3.46695 0
M  V30 5215 C 500.304 1.04277 4.16443 0
M  V30 5216 C 499.537 0.444352 5.31847 0
M  V30 5217 O 499.76 -0.748735 5.65465 0
M  V30 5218 O 498.694 1.17428 5.90334 0
M  V30 5219 H 502.52 1.54147 2.61672 0
M  V30 5220 H 500.105 0.814188 1.25265 0
M  V30 5221 H 501.987 -0.331068 4.20097 0
M  V30 5222 H 500.662 -0.849814 3.12346 0
M  V30 5223 H 499.569 1.44425 3.45098 0
M  V30 5224 H 500.902 1.882 4.54798 0
M  V30 5225 N 502.554 -1.34406 0.822964 0
M  V30 5226 C 503.487 -2.27407 0.190124 0
M  V30 5227 C 504.465 -1.4889 -0.653486 0
M  V30 5228 O 505.649 -1.78109 -0.617216 0
M  V30 5229 C 502.776 -3.3064 -0.734477 0
M  V30 5230 C 501.822 -4.26488 0.0316099 0
M  V30 5231 S 502.655 -5.17445 1.3788 0
M  V30 5232 C 503.811 -6.24214 0.45907 0
M  V30 5233 H 504.044 -2.80733 0.978586 0
M  V30 5234 H 501.577 -1.41455 0.618866 0
M  V30 5235 H 503.535 -3.90607 -1.26238 0
M  V30 5236 H 502.196 -2.76161 -1.49646 0
M  V30 5237 H 501.389 -4.9951 -0.671285 0
M  V30 5238 H 500.991 -3.70775 0.490066 0
M  V30 5239 H 503.283 -6.76599 -0.349357 0
M  V30 5240 H 504.226 -6.98551 1.15896 0
M  V30 5241 H 504.634 -5.6448 0.0474825 0
M  V30 5242 N 504.032 -0.577932 -1.46621 0
M  V30 5243 C 504.962 0.145917 -2.33044 0
M  V30 5244 C 505.943 0.888412 -1.45056 0
M  V30 5245 O 507.128 0.864812 -1.73881 0
M  V30 5246 C 504.258 1.16322 -3.27241 0
M  V30 5247 C 503.212 0.535868 -4.24632 0
M  V30 5248 C 502.538 1.65929 -5.08303 0
M  V30 5249 C 503.838 -0.523861 -5.19666 0
M  V30 5250 H 505.532 -0.575636 -2.93814 0
M  V30 5251 H 503.078 -0.278272 -1.41286 0
M  V30 5252 H 505.031 1.67793 -3.86553 0
M  V30 5253 H 503.755 1.91498 -2.64567 0
M  V30 5254 H 502.414 0.0422759 -3.66576 0
M  V30 5255 H 502.062 2.40061 -4.42018 0
M  V30 5256 H 501.762 1.2452 -5.74255 0
M  V30 5257 H 503.286 2.17686 -5.70478 0
M  V30 5258 H 504.7 -0.0944059 -5.73222 0
M  V30 5259 H 503.097 -0.858 -5.93935 0
M  V30 5260 H 504.167 -1.41197 -4.63887 0
M  V30 5261 N 505.51 1.54411 -0.315457 0
M  V30 5262 C 506.759 1.99599 0.290395 0
M  V30 5263 C 507.072 1.20746 1.53882 0
M  V30 5264 O 508.278 1.56272 2.22017 0
M  V30 5265 C 506.734 3.5539 0.56797 0
M  V30 5266 C 506.342 4.43068 -0.662945 0
M  V30 5267 C 508.086 4.09067 1.13422 0
M  V30 5268 C 505.993 5.90317 -0.357722 0
M  V30 5269 H 504.923 0.745592 0.112286 0
M  V30 5270 H 507.574 1.78477 -0.426418 0
M  V30 5271 H 505.956 3.72468 1.34476 0
M  V30 5272 H 507.13 4.37765 -1.43869 0
M  V30 5273 H 505.445 4.00238 -1.14884 0
M  V30 5274 H 508.042 5.16663 1.37707 0
M  V30 5275 H 508.385 3.60552 2.08106 0
M  V30 5276 H 508.918 3.95589 0.418805 0
M  V30 5277 H 505.657 6.4301 -1.27351 0
M  V30 5278 H 505.177 5.98592 0.380472 0
M  V30 5279 H 506.856 6.4699 0.0354284 0
M  V30 5280 N 506.988 0.0434614 1.5754 0
M  V30 5281 C 508.236 -0.630786 1.92004 0
M  V30 5282 C 508.557 -1.71836 0.921807 0
M  V30 5283 O 507.827 -1.9587 -0.034522 0
M  V30 5284 H 506.407 -0.235988 0.708745 0
M  V30 5285 H 509.069 0.0946462 1.9467 0
M  V30 5286 H 508.165 -1.07434 2.93026 0
M  V30 5287 N 508.466 -1.55915 -0.229846 0
M  V30 5288 C 509.413 -1.91734 -1.28478 0
M  V30 5289 C 510.383 -0.773539 -1.46988 0
M  V30 5290 O 511.568 -1.02871 -1.60693 0
M  V30 5291 C 508.708 -2.23224 -2.63182 0
M  V30 5292 C 507.821 -3.50497 -2.52539 0
M  V30 5293 C 506.956 -3.71474 -3.79711 0
M  V30 5294 C 505.995 -4.92289 -3.63755 0
M  V30 5295 N 505.132 -5.09698 -4.82858 0
M  V30 5296 H 509.972 -2.81692 -0.972308 0
M  V30 5297 H 507.509 -1.39429 -0.468815 0
M  V30 5298 H 509.467 -2.3949 -3.41614 0
M  V30 5299 H 508.097 -1.36451 -2.92542 0
M  V30 5300 H 507.149 -3.4247 -1.65585 0
M  V30 5301 H 508.461 -4.39079 -2.36666 0
M  V30 5302 H 507.615 -3.87791 -4.66586 0
M  V30 5303 H 506.354 -2.81157 -3.985 0
M  V30 5304 H 505.359 -4.7593 -2.75264 0
M  V30 5305 H 506.584 -5.84083 -3.46445 0
M  V30 5306 H 504.53 -4.22322 -5.01976 0
M  V30 5307 H 504.447 -5.92399 -4.69681 0
M  V30 5308 H 505.715 -5.30443 -5.71183 0
M  V30 5309 N 509.944 0.496216 -1.49584 0
M  V30 5310 C 511.192 1.24756 -1.58998 0
M  V30 5311 C 511.513 1.92968 -0.280775 0
M  V30 5312 O 510.783 1.82959 0.700198 0
M  V30 5313 H 509.363 0.463471 -0.585836 0
M  V30 5314 H 512.025 0.574678 -1.86235 0
M  V30 5315 H 511.121 2.00895 -2.38847 0
M  V30 5316 N 511.423 1.38739 0.74761 0
M  V30 5317 C 512.653 1.3832 1.53464 0
M  V30 5318 C 513.061 -0.0273464 1.8918 0
M  V30 5319 O 512.404 -1.00588 1.53713 0
M  V30 5320 C 512.466 2.18007 2.85855 0
M  V30 5321 C 512.13 3.66762 2.72644 0
M  V30 5322 C 513.127 4.60124 2.42037 0
M  V30 5323 C 510.812 4.10193 2.89909 0
M  V30 5324 C 512.806 5.94897 2.28859 0
M  V30 5325 C 510.493 5.45045 2.7635 0
M  V30 5326 C 511.491 6.37211 2.45869 0
M  V30 5327 O 511.179 7.69581 2.3238 0
M  V30 5328 H 510.911 0.474718 0.481268 0
M  V30 5329 H 513.465 1.83012 0.932518 0
M  V30 5330 H 511.695 1.68043 3.48279 0
M  V30 5331 H 513.384 2.09921 3.47402 0
M  V30 5332 H 514.15 4.27874 2.28361 0
M  V30 5333 H 510.029 3.38797 3.1263 0
M  V30 5334 H 513.573 6.66802 2.04989 0
M  V30 5335 H 509.47 5.76889 2.89601 0
M  V30 5336 H 510.238 7.80169 2.47546 0
M  V30 5337 N 512.901 -0.976442 1.23707 0
M  V30 5338 C 513.811 -2.10359 1.03856 0
M  V30 5339 C 514.827 -1.73991 -0.0180919 0
M  V30 5340 O 516.003 -2.0061 0.178211 0
M  V30 5341 C 513.068 -3.40809 0.636387 0
M  V30 5342 C 512.129 -3.91179 1.76854 0
M  V30 5343 C 511.362 -5.15404 1.38546 0
M  V30 5344 O 511.585 -5.69754 0.27142 0
M  V30 5345 O 510.519 -5.5994 2.20797 0
M  V30 5346 H 514.345 -2.29997 1.98331 0
M  V30 5347 H 511.93 -1.08742 1.02448 0
M  V30 5348 H 513.812 -4.19269 0.423223 0
M  V30 5349 H 512.487 -3.22493 -0.279322 0
M  V30 5350 H 511.394 -3.13819 2.03638 0
M  V30 5351 H 512.727 -4.13958 2.6627 0
M  V30 5352 N 514.379 -1.04941 -1.1758 0
M  V30 5353 C 515.309 -0.669172 -2.23706 0
M  V30 5354 C 516.29 0.331835 -1.66832 0
M  V30 5355 O 517.475 0.209988 -1.93061 0
M  V30 5356 C 514.605 -0.0404889 -3.47276 0
M  V30 5357 C 513.559 -0.965983 -4.16957 0
M  V30 5358 C 512.885 -0.201312 -5.34321 0
M  V30 5359 C 514.185 -2.28902 -4.69469 0
M  V30 5360 H 515.879 -1.55639 -2.55767 0
M  V30 5361 H 513.425 -0.749793 -1.22939 0
M  V30 5362 H 515.378 0.237298 -4.20731 0
M  V30 5363 H 514.102 0.881658 -3.14475 0
M  V30 5364 H 512.761 -1.22829 -3.45411 0
M  V30 5365 H 512.409 0.723519 -4.97769 0
M  V30 5366 H 512.109 -0.817968 -5.81879 0
M  V30 5367 H 513.633 0.0692499 -6.10561 0
M  V30 5368 H 515.047 -2.07132 -5.34574 0
M  V30 5369 H 513.444 -2.85942 -5.27596 0
M  V30 5370 H 514.514 -2.92937 -3.86414 0
M  V30 5371 N 515.857 1.33968 -0.830081 0
M  V30 5372 C 517.273 1.51003 -0.516742 0
M  V30 5373 C 517.473 1.77286 0.957694 0
M  V30 5374 O 516.529 1.82797 1.74188 0
M  V30 5375 C 517.842 2.67036 -1.38247 0
M  V30 5376 C 519.39 2.80919 -1.38034 0
M  V30 5377 C 519.865 4.00004 -2.23071 0
M  V30 5378 N 521.356 4.07224 -2.20733 0
M  V30 5379 C 522.091 4.98541 -2.83275 0
M  V30 5380 N 521.587 5.95033 -3.54835 0
M  V30 5381 N 523.38 4.91469 -2.72791 0
M  V30 5382 H 515.531 1.15168 -1.78466 0
M  V30 5383 H 517.794 0.565443 -0.760906 0
M  V30 5384 H 517.5 2.54266 -2.42985 0
M  V30 5385 H 517.374 3.62226 -1.05225 0
M  V30 5386 H 519.761 2.93127 -0.340713 0
M  V30 5387 H 519.842 1.86517 -1.75057 0
M  V30 5388 H 519.486 3.88557 -3.27087 0
M  V30 5389 H 519.416 4.93634 -1.83394 0
M  V30 5390 H 521.907 3.38162 -1.68687 0
M  V30 5391 H 522.22 6.61357 -3.99784 0
M  V30 5392 H 520.565 5.95135 -3.58942 0
M  V30 5393 H 523.756 4.15048 -2.16456 0
M  V30 5394 H 523.929 5.62439 -3.21818 0
M  V30 5395 N 517.335 0.585699 1.46312 0
M  V30 5396 C 518.584 0.0701192 2.01578 0
M  V30 5397 C 518.897 -1.29889 1.46247 0
M  V30 5398 O 520.103 -1.90598 1.93351 0
M  V30 5399 C 518.559 0.0747499 3.59822 0
M  V30 5400 C 518.167 1.44226 4.24149 0
M  V30 5401 C 519.911 -0.38673 4.22735 0
M  V30 5402 C 517.818 1.40446 5.74481 0
M  V30 5403 H 516.748 0.0224441 0.753666 0
M  V30 5404 H 519.399 0.737789 1.68015 0
M  V30 5405 H 517.781 -0.659144 3.90476 0
M  V30 5406 H 518.955 2.19612 4.05101 0
M  V30 5407 H 517.27 1.84401 3.73343 0
M  V30 5408 H 519.867 -0.433853 5.32937 0
M  V30 5409 H 520.21 -1.40489 3.91878 0
M  V30 5410 H 520.743 0.293195 3.96718 0
M  V30 5411 H 517.482 2.39952 6.10003 0
M  V30 5412 H 517.002 0.692845 5.95785 0
M  V30 5413 H 518.681 1.11865 6.37256 0
M  V30 5414 N 518.813 -1.54241 0.323641 0
M  V30 5415 C 520.06 -2.0057 -0.27891 0
M  V30 5416 C 520.388 -1.21181 -1.52136 0
M  V30 5417 O 519.643 -0.282043 -1.93657 0
M  V30 5418 C 519.942 -3.5129 -0.658031 0
M  V30 5419 C 519.608 -4.48281 0.485252 0
M  V30 5420 C 518.27 -4.74519 0.799055 0
M  V30 5421 C 520.622 -5.05909 1.25322 0
M  V30 5422 C 517.95 -5.55643 1.88354 0
M  V30 5423 C 520.302 -5.88215 2.32779 0
M  V30 5424 C 518.966 -6.12755 2.64741 0
M  V30 5425 H 518.236 -0.733938 -0.10206 0
M  V30 5426 H 520.883 -1.862 0.447435 0
M  V30 5427 H 519.188 -3.63388 -1.4648 0
M  V30 5428 H 520.885 -3.84578 -1.1358 0
M  V30 5429 H 517.475 -4.27979 0.230593 0
M  V30 5430 H 521.659 -4.8562 1.02404 0
M  V30 5431 H 516.915 -5.72888 2.13564 0
M  V30 5432 H 521.089 -6.31888 2.92729 0
M  V30 5433 H 518.716 -6.75404 3.48904 0
M  V30 5434 N 520.291 -0.0518155 -1.57515 0
M  V30 5435 C 521.568 0.661727 -1.84067 0
M  V30 5436 C 521.948 1.88999 -0.940351 0
M  V30 5437 O 521.296 2.285 -0.00155404 0
M  V30 5438 C 521.506 1.01841 -3.3381 0
M  V30 5439 C 522.854 1.40043 -4.00841 0
M  V30 5440 O 523.878 1.11073 -3.38439 0
M  V30 5441 O 522.737 1.94111 -5.10865 0
M  V30 5442 H 519.831 0.326702 -0.759733 0
M  V30 5443 H 522.377 -0.0812277 -1.69505 0
M  V30 5444 H 521.149 0.145202 -3.91031 0
M  V30 5445 H 520.772 1.81879 -3.53562 0
M  V30 5446 N 521.769 1.56035 0.221574 0
M  V30 5447 C 523.185 1.49026 0.571271 0
M  V30 5448 C 523.385 0.746912 1.87146 0
M  V30 5449 O 522.441 0.286566 2.50869 0
M  V30 5450 C 523.754 2.93579 0.650522 0
M  V30 5451 C 525.302 3.04099 0.741151 0
M  V30 5452 C 525.777 4.5001 0.851747 0
M  V30 5453 N 527.268 4.54053 0.915968 0
M  V30 5454 C 528.003 5.64232 1.02125 0
M  V30 5455 N 527.499 6.84164 1.09049 0
M  V30 5456 N 529.292 5.52084 1.05639 0
M  V30 5457 H 521.443 2.02791 -0.63162 0
M  V30 5458 H 523.706 0.921736 -0.221602 0
M  V30 5459 H 523.412 3.50912 -0.235253 0
M  V30 5460 H 523.286 3.45476 1.51413 0
M  V30 5461 H 525.673 2.4683 1.61737 0
M  V30 5462 H 525.754 2.55371 -0.148128 0
M  V30 5463 H 525.398 5.07896 -0.0200117 0
M  V30 5464 H 525.328 4.96444 1.75644 0
M  V30 5465 H 527.819 3.67683 0.872782 0
M  V30 5466 H 528.132 7.63883 1.1706 0
M  V30 5467 H 526.477 6.86875 1.05962 0
M  V30 5468 H 529.668 4.57317 0.998953 0
M  V30 5469 H 529.841 6.37983 1.13498 0
M  V30 5470 N 523.247 -0.488276 1.49845 0
M  V30 5471 C 524.195 -1.60917 1.67954 0
M  V30 5472 C 525.189 -1.6038 0.54539 0
M  V30 5473 O 526.395 -1.64736 0.7254 0
M  V30 5474 H 522.77 -0.533658 0.529824 0
M  V30 5475 H 524.741 -1.428 2.62013 0
M  V30 5476 C 523.49 -2.98975 1.77509 0
M  V30 5477 H 522.813 -3.00099 2.6416 0
M  V30 5478 H 524.253 -3.76906 1.9421 0
M  V30 5479 C 522.712 -3.3282 0.522745 0
M  V30 5480 O 523.242 -4.00208 -0.345866 0
M  V30 5481 N 521.448 -2.8808 0.381882 0
M  V30 5482 H 520.995 -2.33415 1.08974 0
M  V30 5483 H 520.953 -3.11091 -0.454929 0
M  V30 5484 N 524.725 -1.39134 -0.740242 0
M  V30 5485 C 525.971 -1.36273 -1.50192 0
M  V30 5486 C 526.304 0.0430136 -1.94152 0
M  V30 5487 O 525.579 1.00691 -1.66408 0
M  V30 5488 C 525.862 -2.33041 -2.74525 0
M  V30 5489 C 525.715 -3.82535 -2.36617 0
M  V30 5490 C 527.034 -2.27723 -3.76604 0
M  V30 5491 H 524.153 -0.496323 -0.544823 0
M  V30 5492 H 526.795 -1.70085 -0.846815 0
M  V30 5493 H 524.945 -2.04337 -3.30422 0
M  V30 5494 H 526.617 -4.21967 -1.86391 0
M  V30 5495 H 524.86 -3.99565 -1.68909 0
M  V30 5496 H 525.531 -4.45723 -3.2563 0
M  V30 5497 H 528.007 -2.53091 -3.30279 0
M  V30 5498 H 526.883 -2.97519 -4.61274 0
M  V30 5499 H 527.144 -1.28049 -4.2315 0
M  V30 5500 N 526.204 0.969867 -1.24223 0
M  V30 5501 C 527.114 2.09806 -1.0497 0
M  V30 5502 C 528.13 1.73998 0.00886455 0
M  V30 5503 O 529.306 2.00513 -0.188848 0
M  V30 5504 C 526.371 3.40467 -0.654452 0
M  V30 5505 C 525.432 3.90236 -1.78926 0
M  V30 5506 C 524.665 5.14662 -1.41277 0
M  V30 5507 O 524.888 5.69602 -0.301632 0
M  V30 5508 O 523.822 5.58761 -2.23763 0
M  V30 5509 H 527.648 2.28942 -1.99548 0
M  V30 5510 H 525.233 1.08197 -1.03023 0
M  V30 5511 H 527.115 4.19039 -0.445452 0
M  V30 5512 H 525.79 3.22636 0.262216 0
M  V30 5513 H 524.697 3.12735 -2.05299 0
M  V30 5514 H 526.03 4.1254 -2.68462 0
M  V30 5515 N 527.682 1.05563 1.17022 0
M  V30 5516 C 528.912 0.787307 1.91011 0
M  V30 5517 C 529.32 -0.661256 1.77268 0
M  V30 5518 O 528.663 -1.46379 1.10991 0
M  V30 5519 C 528.725 1.09313 3.42478 0
M  V30 5520 C 528.389 2.53863 3.80004 0
M  V30 5521 C 529.386 3.52081 3.82538 0
M  V30 5522 C 527.071 2.88969 4.10855 0
M  V30 5523 C 529.065 4.83449 4.15399 0
M  V30 5524 C 526.752 4.2054 4.43384 0
M  V30 5525 C 527.75 5.17589 4.45635 0
M  V30 5526 O 527.438 6.46799 4.77395 0
M  V30 5527 H 527.17 0.285463 0.61277 0
M  V30 5528 H 529.724 1.41051 1.49311 0
M  V30 5529 H 527.954 0.412833 3.8449 0
M  V30 5530 H 529.643 0.810224 3.97731 0
M  V30 5531 H 530.409 3.26299 3.58823 0
M  V30 5532 H 526.288 2.1409 4.08272 0
M  V30 5533 H 529.832 5.59194 4.1707 0
M  V30 5534 H 525.729 4.46083 4.66563 0
M  V30 5535 H 526.497 6.51677 4.95237 0
M  V30 5536 N 529.16 -1.33526 0.837174 0
M  V30 5537 C 530.123 -2.27551 0.274421 0
M  V30 5538 C 531.123 -1.50886 -0.555881 0
M  V30 5539 O 532.313 -1.70227 -0.369918 0
M  V30 5540 C 529.445 -3.35332 -0.613605 0
M  V30 5541 H 530.638 -2.78837 1.10408 0
M  V30 5542 H 528.191 -1.439 0.610126 0
M  V30 5543 H 528.926 -2.89285 -1.46577 0
M  V30 5544 H 528.711 -3.92095 -0.0195341 0
M  V30 5545 H 530.201 -4.05433 -1.00068 0
M  V30 5546 N 530.638 -0.59345 -1.46 0
M  V30 5547 C 532.054 -0.255965 -1.57534 0
M  V30 5548 C 532.254 1.24167 -1.58697 0
M  V30 5549 O 531.31 2.02398 -1.50968 0
M  V30 5550 C 532.623 -0.91466 -2.86451 0
M  V30 5551 C 534.171 -0.889253 -3.00102 0
M  V30 5552 C 534.646 -1.52769 -4.3177 0
M  V30 5553 N 536.137 -1.49253 -4.38495 0
M  V30 5554 C 536.872 -1.9558 -5.39014 0
M  V30 5555 N 536.368 -2.49929 -6.46148 0
M  V30 5556 N 538.161 -1.86432 -5.30282 0
M  V30 5557 H 530.312 -1.56604 -1.43489 0
M  V30 5558 H 532.575 -0.655207 -0.685133 0
M  V30 5559 H 532.281 -1.96861 -2.91442 0
M  V30 5560 H 532.155 -0.429356 -3.74748 0
M  V30 5561 H 534.542 0.156111 -2.94687 0
M  V30 5562 H 534.623 -1.41268 -2.13253 0
M  V30 5563 H 534.267 -2.57231 -4.37944 0
M  V30 5564 H 534.197 -0.979398 -5.17412 0
M  V30 5565 H 536.688 -1.09536 -3.61677 0
M  V30 5566 H 537.001 -2.83109 -7.19075 0
M  V30 5567 H 535.346 -2.53961 -6.46938 0
M  V30 5568 H 538.537 -1.43722 -4.4549 0
M  V30 5569 H 538.71 -2.22852 -6.08474 0
M  V30 5570 N 532.116 1.54067 -0.331816 0
M  V30 5571 C 533.362 2.01012 0.268667 0
M  V30 5572 C 533.695 1.2195 1.51136 0
M  V30 5573 O 532.97 0.303972 1.9211 0
M  V30 5574 C 533.253 3.55158 0.59456 0
M  V30 5575 C 533.106 4.4494 -0.659409 0
M  V30 5576 C 534.425 4.16939 1.4089 0
M  V30 5577 H 531.544 0.730698 0.0961756 0
M  V30 5578 H 534.186 1.84593 -0.450031 0
M  V30 5579 H 532.336 3.6928 1.20685 0
M  V30 5580 H 534.008 4.42675 -1.29756 0
M  V30 5581 H 532.251 4.1428 -1.28665 0
M  V30 5582 H 532.922 5.50643 -0.386804 0
M  V30 5583 H 535.398 4.06443 0.891272 0
M  V30 5584 H 534.274 5.24889 1.60569 0
M  V30 5585 H 534.535 3.70798 2.40752 0
M  V30 5586 N 533.594 0.0601682 1.57485 0
M  V30 5587 C 534.544 -0.920969 2.08572 0
M  V30 5588 C 535.528 -1.26617 0.992827 0
M  V30 5589 O 536.72 -1.24708 1.25606 0
M  V30 5590 C 533.849 -2.19267 2.64153 0
M  V30 5591 C 532.935 -1.87447 3.80427 0
M  V30 5592 N 533.326 -1.26025 4.89848 0
M  V30 5593 C 531.624 -2.17265 3.89502 0
M  V30 5594 C 532.325 -1.12036 5.70809 0
M  V30 5595 N 531.301 -1.62624 5.18705 0
M  V30 5596 H 535.103 -0.441561 2.90564 0
M  V30 5597 H 532.617 -0.144043 1.6176 0
M  V30 5598 H 534.614 -2.90462 2.99061 0
M  V30 5599 H 533.274 -2.67806 1.83603 0
M  V30 5600 H 534.285 -0.931336 5.09457 0
M  V30 5601 H 530.962 -2.68262 3.19909 0
M  V30 5602 H 532.352 -0.642783 6.68818 0
M  V30 5603 N 535.072 -1.5615 -0.213296 0
M  V30 5604 C 536.32 -1.79191 -0.934612 0
M  V30 5605 C 536.641 -0.630112 -1.84539 0
M  V30 5606 O 535.911 0.35257 -1.92701 0
M  V30 5607 H 534.491 -0.660937 -0.348097 0
M  V30 5608 H 537.153 -1.93618 -0.22317 0
M  V30 5609 H 536.249 -2.71656 -1.53654 0
M  V30 5610 N 536.55 0.480323 -1.50102 0
M  V30 5611 C 537.513 1.56181 -1.6775 0
M  V30 5612 C 538.513 1.51156 -0.548503 0
M  V30 5613 O 539.703 1.5394 -0.815363 0
M  V30 5614 C 536.835 2.95823 -1.69415 0
M  V30 5615 H 538.028 1.41855 -2.6423 0
M  V30 5616 H 535.581 0.70605 -1.39444 0
M  V30 5617 H 536.316 3.15604 -0.745948 0
M  V30 5618 H 536.101 3.00878 -2.51425 0
M  V30 5619 H 537.591 3.74359 -1.85054 0
M  V30 5620 N 538.028 1.39524 0.732853 0
M  V30 5621 C 538.976 1.38563 1.86824 0
M  V30 5622 C 539.97 0.268467 1.67259 0
M  V30 5623 O 541.176 0.438613 1.74574 0
M  V30 5624 H 537.551 0.432737 0.615014 0
M  V30 5625 H 539.522 2.34328 1.84751 0
M  V30 5626 C 538.271 1.2481 3.24527 0
M  V30 5627 H 537.594 2.10044 3.40179 0
M  V30 5628 H 539.034 1.28194 4.04156 0
M  V30 5629 C 537.493 -0.0432825 3.36872 0
M  V30 5630 O 538.023 -1.01268 3.88726 0
M  V30 5631 N 536.229 -0.107055 2.90403 0
M  V30 5632 H 535.776 0.682512 2.48394 0
M  V30 5633 H 535.734 -0.970618 2.99042 0
M  V30 5634 N 539.506 -0.963266 1.24736 0
M  V30 5635 C 540.453 -2.05857 1.04363 0
M  V30 5636 C 541.423 -1.6604 -0.0444951 0
M  V30 5637 O 542.608 -1.90477 0.110999 0
M  V30 5638 C 539.748 -3.38745 0.659235 0
M  V30 5639 C 538.861 -3.9173 1.82131 0
M  V30 5640 C 537.996 -5.12906 1.38208 0
M  V30 5641 C 537.035 -5.58098 2.51382 0
M  V30 5642 N 536.172 -6.7049 2.08295 0
M  V30 5643 H 541.012 -2.22616 1.98107 0
M  V30 5644 H 538.549 -1.09103 0.986661 0
M  V30 5645 H 540.507 -4.15107 0.417371 0
M  V30 5646 H 539.137 -3.21898 -0.241201 0
M  V30 5647 H 538.189 -3.11966 2.17672 0
M  V30 5648 H 539.501 -4.21225 2.67153 0
M  V30 5649 H 538.655 -5.96657 1.09935 0
M  V30 5650 H 537.394 -4.85105 0.502456 0
M  V30 5651 H 536.399 -4.72917 2.80409 0
M  V30 5652 H 537.624 -5.87911 3.39909 0
M  V30 5653 H 535.57 -6.44416 1.22737 0
M  V30 5654 H 535.487 -6.99458 2.86869 0
M  V30 5655 H 536.755 -7.57672 1.83175 0
M  V30 5656 N 540.985 -1.06182 -1.16461 0
M  V30 5657 C 541.895 -0.682671 -2.24448 0
M  V30 5658 C 542.911 0.30078 -1.71381 0
M  V30 5659 O 544.087 0.150376 -2.00838 0
M  V30 5660 C 541.152 -0.0737202 -3.46622 0
M  V30 5661 C 540.213 -1.10889 -4.14731 0
M  V30 5662 C 539.446 -0.528908 -5.31073 0
M  V30 5663 O 539.669 0.65868 -5.66584 0
M  V30 5664 O 538.603 -1.26805 -5.88391 0
M  V30 5665 H 542.429 -1.58291 -2.59187 0
M  V30 5666 H 540.014 -0.834013 -1.23954 0
M  V30 5667 H 541.896 0.264192 -4.20571 0
M  V30 5668 H 540.571 0.800015 -3.13658 0
M  V30 5669 H 539.478 -1.49896 -3.42756 0
M  V30 5670 H 540.811 -1.95412 -4.51747 0
M  V30 5671 N 542.463 1.3308 -0.844243 0
M  V30 5672 C 543.693 2.01515 -0.455541 0
M  V30 5673 C 544.101 1.63655 0.949406 0
M  V30 5674 O 543.444 0.84848 1.62931 0
M  V30 5675 C 543.506 3.55967 -0.502801 0
M  V30 5676 C 543.17 4.17222 -1.86481 0
M  V30 5677 C 544.167 4.36205 -2.8288 0
M  V30 5678 C 541.852 4.53528 -2.15911 0
M  V30 5679 C 543.846 4.90649 -4.06869 0
M  V30 5680 C 541.533 5.07679 -3.40155 0
M  V30 5681 C 542.531 5.26186 -4.35451 0
M  V30 5682 O 542.219 5.79183 -5.57496 0
M  V30 5683 H 541.951 0.65199 -0.178565 0
M  V30 5684 H 544.505 1.70867 -1.1399 0
M  V30 5685 H 542.735 3.85965 0.23836 0
M  V30 5686 H 544.424 4.05688 -0.131169 0
M  V30 5687 H 545.19 4.085 -2.61444 0
M  V30 5688 H 541.069 4.38414 -1.42528 0
M  V30 5689 H 544.613 5.0501 -4.81259 0
M  V30 5690 H 540.51 5.34815 -3.61446 0
M  V30 5691 H 541.278 5.97591 -5.5931 0
M  V30 5692 N 543.941 0.601185 1.45683 0
M  V30 5693 C 545.19 0.0914953 2.01492 0
M  V30 5694 C 545.503 -1.28331 1.47616 0
M  V30 5695 O 546.709 -1.88537 1.95362 0
M  V30 5696 C 545.165 0.11291 3.59723 0
M  V30 5697 C 544.773 1.48717 4.22596 0
M  V30 5698 C 546.517 -0.341871 4.23121 0
M  V30 5699 C 544.424 1.46531 5.7296 0
M  V30 5700 H 543.354 0.0304365 0.753385 0
M  V30 5701 H 546.005 0.755568 1.67223 0
M  V30 5702 H 544.387 -0.617692 3.91153 0
M  V30 5703 H 545.561 2.23897 4.02749 0
M  V30 5704 H 543.876 1.88351 3.71366 0
M  V30 5705 H 546.473 -0.377304 5.33367 0
M  V30 5706 H 546.816 -1.36325 3.93346 0
M  V30 5707 H 547.349 0.335256 3.96385 0
M  V30 5708 H 544.088 2.46408 6.07423 0
M  V30 5709 H 543.608 0.755997 5.95017 0
M  V30 5710 H 545.287 1.18618 6.36034 0
M  V30 5711 N 545.419 -1.53889 0.339982 0
M  V30 5712 C 546.329 -2.28604 -0.526988 0
M  V30 5713 C 547.345 -1.33578 -1.11503 0
M  V30 5714 O 548.521 -1.66612 -1.13148 0
M  V30 5715 C 545.586 -3.04164 -1.66389 0
M  V30 5716 C 544.647 -4.14809 -1.10599 0
M  V30 5717 C 543.88 -4.86756 -2.18871 0
M  V30 5718 O 544.103 -4.58343 -3.39526 0
M  V30 5719 O 543.037 -5.73289 -1.83366 0
M  V30 5720 H 546.863 -3.03594 0.0802707 0
M  V30 5721 H 544.448 -1.4903 0.105141 0
M  V30 5722 H 546.33 -3.51427 -2.32544 0
M  V30 5723 H 545.005 -2.32035 -2.25703 0
M  V30 5724 H 543.912 -3.71857 -0.409067 0
M  V30 5725 H 545.245 -4.89029 -0.557771 0
M  V30 5726 N 546.897 -0.0685191 -1.57451 0
M  V30 5727 C 548.122 0.613919 -1.98106 0
M  V30 5728 C 548.547 1.62551 -0.946501 0
M  V30 5729 O 547.905 1.81085 0.0882824 0
M  V30 5730 C 547.953 1.26189 -3.378 0
M  V30 5731 O 547.057 2.37773 -3.36954 0
M  V30 5732 H 546.398 0.158163 -0.644888 0
M  V30 5733 H 548.928 -0.142063 -2.04106 0
M  V30 5734 H 548.938 1.60951 -3.74912 0
M  V30 5735 H 547.613 0.520625 -4.12629 0
M  V30 5736 H 546.19 2.04829 -3.11608 0
M  V30 5737 N 548.375 1.56261 0.205012 0
M  V30 5738 C 549.322 1.93754 1.25411 0
M  V30 5739 C 550.292 0.796826 1.45739 0
M  V30 5740 O 551.477 1.05414 1.59036 0
M  V30 5741 C 548.617 2.27383 2.59598 0
M  V30 5742 C 547.73 3.5447 2.46931 0
M  V30 5743 C 546.865 3.77468 3.73753 0
M  V30 5744 C 545.904 4.98014 3.55877 0
M  V30 5745 N 545.041 5.17316 4.74688 0
M  V30 5746 H 549.881 2.83203 0.92737 0
M  V30 5747 H 547.418 1.40158 0.446574 0
M  V30 5748 H 549.376 2.44895 3.37761 0
M  V30 5749 H 548.006 1.41088 2.90335 0
M  V30 5750 H 547.058 3.45061 1.60116 0
M  V30 5751 H 548.37 4.42789 2.29651 0
M  V30 5752 H 547.524 3.95165 4.60358 0
M  V30 5753 H 546.263 2.87461 3.93976 0
M  V30 5754 H 545.268 4.80249 2.67657 0
M  V30 5755 H 546.493 5.8952 3.37109 0
M  V30 5756 H 544.439 4.30255 4.95194 0
M  V30 5757 H 544.356 5.99796 4.60197 0
M  V30 5758 H 545.624 5.39463 5.62672 0
M  V30 5759 N 549.853 -0.472356 1.50355 0
M  V30 5760 C 551.102 -1.2213 1.60522 0
M  V30 5761 C 551.415 -1.9312 0.310466 0
M  V30 5762 O 552.621 -2.69936 0.291029 0
M  V30 5763 C 551.077 -2.21909 2.83345 0
M  V30 5764 C 550.685 -1.56727 4.19691 0
M  V30 5765 C 552.429 -2.97453 3.02856 0
M  V30 5766 C 550.336 -2.54785 5.33703 0
M  V30 5767 H 549.266 -0.459543 0.597776 0
M  V30 5768 H 551.917 -0.491922 1.76783 0
M  V30 5769 H 550.299 -2.98133 2.60639 0
M  V30 5770 H 551.473 -0.863007 4.52646 0
M  V30 5771 H 549.788 -0.934685 4.05774 0
M  V30 5772 H 552.385 -3.70838 3.85205 0
M  V30 5773 H 552.728 -3.56764 2.14534 0
M  V30 5774 H 553.261 -2.28342 3.25737 0
M  V30 5775 H 550 -2.00214 6.24175 0
M  V30 5776 H 549.52 -3.23367 5.05167 0
M  V30 5777 H 551.199 -3.16639 5.64224 0
M  V30 5778 N 551.331 -1.39911 -0.725443 0
M  V30 5779 C 552.742 -1.33599 -1.30415 0
M  V30 5780 C 553.093 -0.00481792 -1.96199 0
M  V30 5781 O 552.218 0.897275 -1.96921 0
M  V30 5782 C 552.813 -2.41965 -2.37146 0
M  V30 5783 C 551.372 -2.39144 -2.90667 0
M  V30 5784 C 550.519 -2.23355 -1.64341 0
M  V30 5785 H 553.47 -1.4986 -0.522267 0
M  V30 5786 H 553.491 -2.09304 -3.17761 0
M  V30 5787 H 553.003 -3.38837 -1.89238 0
M  V30 5788 H 551.104 -1.4594 -3.4283 0
M  V30 5789 H 551.217 -3.34362 -3.43131 0
M  V30 5790 H 549.581 -1.70696 -1.89037 0
M  V30 5791 H 550.364 -3.2221 -1.18471 0
M  V30 5792 N 552.809 0.956637 -1.25245 0
M  V30 5793 C 553.759 2.03841 -1.02141 0
M  V30 5794 C 554.743 1.60848 0.0410058 0
M  V30 5795 O 555.935 1.76142 -0.174084 0
M  V30 5796 C 553.064 3.37282 -0.639963 0
M  V30 5797 C 552.15 3.86805 -1.73903 0
M  V30 5798 N 552.541 4.09143 -2.97381 0
M  V30 5799 C 550.839 4.15574 -1.61909 0
M  V30 5800 C 551.54 4.49923 -3.68707 0
M  V30 5801 N 550.516 4.55737 -2.96318 0
M  V30 5802 H 554.318 2.19102 -1.95886 0
M  V30 5803 H 551.832 1.1413 -1.15534 0
M  V30 5804 H 553.829 4.14403 -0.455643 0
M  V30 5805 H 552.489 3.23401 0.29018 0
M  V30 5806 H 553.5 3.96275 -3.33447 0
M  V30 5807 H 550.177 4.10566 -0.757764 0
M  V30 5808 H 551.567 4.75526 -4.74684 0
M  V30 5809 N 554.287 1.06798 1.15896 0
M  V30 5810 C 555.533 0.788934 1.86825 0
M  V30 5811 C 555.866 -0.683084 1.8179 0
M  V30 5812 O 555.141 -1.50086 1.23711 0
M  V30 5813 C 555.424 1.29065 3.36176 0
M  V30 5814 C 555.277 2.8268 3.49874 0
M  V30 5815 C 556.596 0.902655 4.30744 0
M  V30 5816 H 553.715 0.288066 0.678371 0
M  V30 5817 H 556.357 1.32479 1.36195 0
M  V30 5818 H 554.507 0.834806 3.79425 0
M  V30 5819 H 556.179 3.36511 3.15528 0
M  V30 5820 H 554.422 3.21157 2.91617 0
M  V30 5821 H 555.093 3.12852 4.54783 0
M  V30 5822 H 557.569 1.29535 3.95424 0
M  V30 5823 H 556.445 1.28111 5.3374 0
M  V30 5824 H 556.706 -0.191951 4.41683 0
M  V30 5825 N 555.766 -1.3263 0.851289 0
M  V30 5826 C 556.991 -2.02097 0.466006 0
M  V30 5827 C 557.416 -1.63574 -0.928709 0
M  V30 5828 O 556.774 -0.834665 -1.60944 0
M  V30 5829 C 556.822 -3.55425 0.608737 0
M  V30 5830 O 555.926 -4.10827 -0.359878 0
M  V30 5831 H 555.267 -0.636911 0.187724 0
M  V30 5832 H 557.797 -1.69253 1.14955 0
M  V30 5833 H 557.807 -4.04986 0.495006 0
M  V30 5834 H 556.482 -3.82806 1.62581 0
M  V30 5835 H 555.059 -3.72349 -0.202666 0
M  V30 5836 N 557.244 -0.608902 -1.45362 0
M  V30 5837 C 558.469 -0.10921 -2.07112 0
M  V30 5838 C 558.894 1.19779 -1.45033 0
M  V30 5839 O 558.252 1.72961 -0.543527 0
M  V30 5840 C 558.3 0.0155745 -3.60597 0
M  V30 5841 O 557.404 1.06546 -3.98399 0
M  V30 5842 H 556.745 -0.0746619 -0.659789 0
M  V30 5843 H 559.275 -0.839283 -1.86594 0
M  V30 5844 H 559.285 0.213364 -4.07442 0
M  V30 5845 H 557.96 -0.938765 -4.05167 0
M  V30 5846 H 556.537 0.844024 -3.63223 0
M  V30 5847 N 558.722 1.53707 -0.348139 0
M  V30 5848 C 559.652 2.28111 0.498766 0
M  V30 5849 C 560.633 1.29851 1.09876 0
M  V30 5850 O 561.818 1.587 1.11928 0
M  V30 5851 C 558.948 3.05735 1.64753 0
M  V30 5852 C 557.902 4.11537 1.17565 0
M  V30 5853 C 557.228 4.77142 2.4133 0
M  V30 5854 C 558.528 5.21587 0.272844 0
M  V30 5855 H 560.222 2.99152 -0.121934 0
M  V30 5856 H 557.768 1.43875 -0.0600842 0
M  V30 5857 H 559.721 3.56526 2.24649 0
M  V30 5858 H 558.445 2.32354 2.2952 0
M  V30 5859 H 557.104 3.61665 0.599483 0
M  V30 5860 H 556.752 4.0035 3.04514 0
M  V30 5861 H 556.452 5.48626 2.10436 0
M  V30 5862 H 557.976 5.30719 3.01943 0
M  V30 5863 H 559.39 5.67986 0.778779 0
M  V30 5864 H 557.787 6.00074 0.0555849 0
M  V30 5865 H 558.857 4.79969 -0.689785 0
M  V30 5866 N 560.2 0.0768682 1.57412 0
M  V30 5867 C 561.13 -0.886026 2.16037 0
M  V30 5868 C 562.111 -1.30691 1.08876 0
M  V30 5869 O 563.296 -1.37705 1.36934 0
M  V30 5870 C 560.426 -2.1518 2.72608 0
M  V30 5871 C 559.38 -1.87015 3.8498 0
M  V30 5872 C 558.706 -3.20266 4.28175 0
M  V30 5873 C 560.006 -1.17143 5.08994 0
M  V30 5874 H 561.7 -0.397642 2.96748 0
M  V30 5875 H 559.246 -0.189823 1.42743 0
M  V30 5876 H 561.199 -2.82962 3.12266 0
M  V30 5877 H 559.923 -2.66269 1.89125 0
M  V30 5878 H 558.582 -1.21636 3.45833 0
M  V30 5879 H 558.23 -3.69207 3.41607 0
M  V30 5880 H 557.93 -3.0221 5.03927 0
M  V30 5881 H 559.454 -3.89237 4.70454 0
M  V30 5882 H 560.868 -1.75003 5.45937 0
M  V30 5883 H 559.265 -1.09328 5.90057 0
M  V30 5884 H 560.335 -0.151295 4.84664 0
M  V30 5885 N 561.678 -1.56367 -0.196722 0
M  V30 5886 C 562.924 -1.80796 -0.918725 0
M  V30 5887 C 563.257 -0.650645 -1.82976 0
M  V30 5888 O 562.532 0.348889 -1.91345 0
M  V30 5889 C 562.815 -3.15472 -1.73636 0
M  V30 5890 C 562.668 -4.41693 -0.85015 0
M  V30 5891 C 563.987 -3.46824 -2.70927 0
M  V30 5892 H 561.106 -0.657702 -0.332561 0
M  V30 5893 H 563.748 -1.89086 -0.186186 0
M  V30 5894 H 561.898 -3.08536 -2.36088 0
M  V30 5895 H 563.57 -4.60673 -0.240459 0
M  V30 5896 H 561.813 -4.33517 -0.156785 0
M  V30 5897 H 562.484 -5.32419 -1.45719 0
M  V30 5898 H 564.96 -3.54049 -2.18607 0
M  V30 5899 H 563.836 -4.4218 -3.25219 0
M  V30 5900 H 564.097 -2.70236 -3.49893 0
M  V30 5901 N 563.156 0.464375 -1.50603 0
M  V30 5902 C 564.381 1.24372 -1.65971 0
M  V30 5903 C 564.806 1.84901 -0.345453 0
M  V30 5904 O 564.164 1.67596 0.691457 0
M  V30 5905 C 564.212 2.32331 -2.7578 0
M  V30 5906 O 563.316 3.37146 -2.375 0
M  V30 5907 H 562.657 0.365604 -0.554283 0
M  V30 5908 H 565.187 0.55183 -1.97018 0
M  V30 5909 H 565.197 2.77539 -2.99059 0
M  V30 5910 H 563.872 1.87648 -3.71162 0
M  V30 5911 H 562.449 2.97602 -2.24694 0
M  V30 5912 N 564.634 1.40294 0.718013 0
M  V30 5913 C 565.911 1.2894 1.47084 0
M  V30 5914 C 566.291 -0.0933625 2.10893 0
M  V30 5915 O 565.639 -1.10598 1.99951 0
M  V30 5916 C 565.849 2.4264 2.50852 0
M  V30 5917 C 567.197 2.8276 3.16752 0
M  V30 5918 O 568.221 2.42215 2.61171 0
M  V30 5919 O 567.08 3.528 4.17366 0
M  V30 5920 H 564.174 0.506236 0.653952 0
M  V30 5921 H 566.72 1.52208 0.750394 0
M  V30 5922 H 565.492 3.35009 2.022 0
M  V30 5923 H 565.115 2.21129 3.30435 0
M  V30 5924 N 566.112 -0.949982 1.2575 0
M  V30 5925 C 567.042 -2.06483 1.09028 0
M  V30 5926 C 568.023 -1.701 -0.00201532 0
M  V30 5927 O 569.208 -1.93469 0.168383 0
M  V30 5928 C 566.338 -3.39899 0.71316 0
M  V30 5929 C 565.292 -3.90309 1.75621 0
M  V30 5930 C 564.618 -5.20274 1.23365 0
M  V30 5931 C 565.918 -4.16169 3.15596 0
M  V30 5932 H 567.612 -2.20731 2.02283 0
M  V30 5933 H 565.158 -1.06066 0.973964 0
M  V30 5934 H 567.111 -4.17346 0.58309 0
M  V30 5935 H 565.835 -3.25602 -0.255091 0
M  V30 5936 H 564.494 -3.15035 1.8748 0
M  V30 5937 H 564.142 -5.02351 0.255491 0
M  V30 5938 H 563.842 -5.54971 1.93082 0
M  V30 5939 H 565.366 -6.00314 1.11607 0
M  V30 5940 H 566.78 -4.84259 3.06864 0
M  V30 5941 H 565.177 -4.62131 3.82825 0
M  V30 5942 H 566.247 -3.22273 3.6231 0
M  V30 5943 N 567.59 -1.07411 -1.15328 0
M  V30 5944 C 568.867 -0.710732 -1.82231 0
M  V30 5945 C 569.247 0.806732 -1.95077 0
M  V30 5946 O 568.595 1.72139 -1.50268 0
M  V30 5947 C 568.805 -1.42586 -3.18544 0
M  V30 5948 C 570.153 -1.57836 -3.94174 0
M  V30 5949 O 571.177 -1.38669 -3.281 0
M  V30 5950 O 570.036 -1.8938 -5.12638 0
M  V30 5951 H 567.13 -0.25297 -0.78736 0
M  V30 5952 H 569.676 -1.17508 -1.22434 0
M  V30 5953 H 568.448 -2.46008 -3.04296 0
M  V30 5954 H 568.071 -0.952332 -3.86026 0
M  V30 5955 N 569.068 1.32177 -0.85831 0
M  V30 5956 C 569.978 2.32561 -0.308606 0
M  V30 5957 C 570.994 1.64209 0.575462 0
M  V30 5958 O 572.17 1.95719 0.474961 0
M  V30 5959 C 569.235 3.43207 0.490909 0
M  V30 5960 C 568.296 4.27243 -0.419733 0
M  V30 5961 C 567.529 5.32605 0.341719 0
M  V30 5962 O 567.752 5.48332 1.57125 0
M  V30 5963 O 566.686 6.0118 -0.294379 0
M  V30 5964 H 570.512 2.81477 -1.14037 0
M  V30 5965 H 568.097 1.35866 -0.621349 0
M  V30 5966 H 569.979 4.10677 0.944574 0
M  V30 5967 H 568.654 2.96474 1.29941 0
M  V30 5968 H 567.561 3.62569 -0.921652 0
M  V30 5969 H 568.894 4.7751 -1.19352 0
M  V30 5970 N 570.547 0.616602 1.45037 0
M  V30 5971 C 571.793 0.115501 2.02471 0
M  V30 5972 C 572.126 -1.25406 1.4828 0
M  V30 5973 O 571.401 -1.82922 0.661051 0
M  V30 5974 C 571.684 0.0863588 3.59996 0
M  V30 5975 C 571.537 1.48723 4.24501 0
M  V30 5976 C 572.856 -0.596762 4.36035 0
M  V30 5977 H 569.975 0.0434461 0.735718 0
M  V30 5978 H 572.617 0.7903 1.72784 0
M  V30 5979 H 570.767 -0.488277 3.85419 0
M  V30 5980 H 572.439 2.10964 4.10234 0
M  V30 5981 H 570.682 2.04534 3.82555 0
M  V30 5982 H 571.353 1.419 5.3345 0
M  V30 5983 H 573.829 -0.10824 4.15959 0
M  V30 5984 H 572.705 -0.586289 5.4576 0
M  V30 5985 H 572.966 -1.66451 4.09569 0
M  V30 5986 N 572.025 -1.5352 0.356285 0
M  V30 5987 C 573.271 -2.01414 -0.236653 0
M  V30 5988 C 573.604 -1.24339 -1.49176 0
M  V30 5989 O 572.879 -0.334496 -1.91602 0
M  V30 5990 C 573.162 -3.56059 -0.537982 0
M  V30 5991 C 573.015 -4.43835 0.730112 0
M  V30 5992 C 574.334 -4.19127 -1.34239 0
M  V30 5993 H 571.453 -0.732135 -0.0845386 0
M  V30 5994 H 574.095 -1.83854 0.479341 0
M  V30 5995 H 572.245 -3.71153 -1.14795 0
M  V30 5996 H 573.917 -4.40555 1.36782 0
M  V30 5997 H 572.16 -4.1218 1.3524 0
M  V30 5998 H 572.831 -5.49958 0.474358 0
M  V30 5999 H 575.307 -4.07809 -0.826498 0
M  V30 6000 H 574.183 -5.27378 -1.52198 0
M  V30 6001 H 574.444 -3.74581 -2.34822 0
M  V30 6002 N 573.503 -0.0852151 -1.57369 0
M  V30 6003 C 574.466 0.8627 -2.12344 0
M  V30 6004 C 575.466 1.21746 -1.05046 0
M  V30 6005 O 576.656 1.14852 -1.30976 0
M  V30 6006 C 573.788 2.1618 -2.63589 0
M  V30 6007 H 574.981 0.385511 -2.97412 0
M  V30 6008 H 572.534 0.163663 -1.55441 0
M  V30 6009 H 573.269 2.68406 -1.82013 0
M  V30 6010 H 573.054 1.91723 -3.4203 0
M  V30 6011 H 574.544 2.84011 -3.06149 0
M  V30 6012 N 574.981 1.5647 0.188427 0
M  V30 6013 C 576.206 1.85486 0.927891 0
M  V30 6014 C 576.631 0.669575 1.75779 0
M  V30 6015 O 575.989 -0.381573 1.77239 0
M  V30 6016 C 576.037 3.12784 1.7944 0
M  V30 6017 O 575.141 2.93805 2.894 0
M  V30 6018 H 574.482 0.610585 0.260925 0
M  V30 6019 H 577.012 2.037 0.191729 0
M  V30 6020 H 577.022 3.43749 2.19774 0
M  V30 6021 H 575.697 3.98671 1.18468 0
M  V30 6022 H 574.274 2.74153 2.52774 0
M  V30 6023 N 576.459 -0.456382 1.50847 0
M  V30 6024 C 577.684 -1.2349 1.66628 0
M  V30 6025 C 578.109 -1.84715 0.355254 0
M  V30 6026 O 577.467 -1.67961 -0.682559 0
M  V30 6027 C 577.515 -2.30865 2.77009 0
M  V30 6028 O 576.619 -3.35882 2.39285 0
M  V30 6029 H 575.96 -0.36266 0.556214 0
M  V30 6030 H 578.49 -0.541374 1.97308 0
M  V30 6031 H 578.5 -2.75949 3.00526 0
M  V30 6032 H 577.175 -1.85677 3.72152 0
M  V30 6033 H 575.752 -2.96406 2.26269 0
M  V30 6034 N 577.937 -1.40673 -0.710563 0
M  V30 6035 C 579.214 -1.29718 -1.46398 0
M  V30 6036 C 579.594 0.082177 -2.1094 0
M  V30 6037 O 578.942 1.09536 -2.00534 0
M  V30 6038 C 579.152 -2.43967 -2.49562 0
M  V30 6039 C 580.5 -2.84436 -3.15248 0
M  V30 6040 O 581.524 -2.43597 -2.59883 0
M  V30 6041 O 580.383 -3.55008 -4.1549 0
M  V30 6042 H 577.477 -0.509697 -0.651258 0
M  V30 6043 H 580.023 -1.52603 -0.742312 0
M  V30 6044 H 578.795 -3.36076 -2.0042 0
M  V30 6045 H 578.418 -2.22879 -3.29258 0
M  V30 6046 N 579.415 0.9433 -1.26252 0
M  V30 6047 C 580.661 1.69175 -1.11837 0
M  V30 6048 C 580.994 1.91238 0.337891 0
M  V30 6049 O 580.269 1.49152 1.24836 0
M  V30 6050 C 580.552 3.06783 -1.88563 0
M  V30 6051 C 580.405 2.9206 -3.42083 0
M  V30 6052 C 581.724 4.06865 -1.67776 0
M  V30 6053 H 578.843 0.61399 -0.407658 0
M  V30 6054 H 581.485 1.09572 -1.55222 0
M  V30 6055 H 579.635 3.57663 -1.51689 0
M  V30 6056 H 581.307 2.48419 -3.88698 0
M  V30 6057 H 579.55 2.27731 -3.69217 0
M  V30 6058 H 580.221 3.89651 -3.90994 0
M  V30 6059 H 582.697 3.64939 -1.99897 0
M  V30 6060 H 581.573 5.01168 -2.23879 0
M  V30 6061 H 581.834 4.37705 -0.621816 0
M  V30 6062 N 580.893 1.08022 1.14757 0
M  V30 6063 C 581.823 0.728248 2.21853 0
M  V30 6064 C 582.804 -0.287486 1.67653 0
M  V30 6065 O 583.989 -0.158727 1.9355 0
M  V30 6066 C 581.119 0.132549 3.47047 0
M  V30 6067 C 580.073 1.07619 4.14249 0
M  V30 6068 C 579.399 0.342907 5.33599 0
M  V30 6069 C 580.699 2.41268 4.63235 0
M  V30 6070 H 582.393 1.62365 2.51551 0
M  V30 6071 H 579.939 0.782125 1.20908 0
M  V30 6072 H 581.892 -0.125665 4.21213 0
M  V30 6073 H 580.616 -0.797971 3.16702 0
M  V30 6074 H 579.275 1.31944 3.42033 0
M  V30 6075 H 578.923 -0.59129 4.99513 0
M  V30 6076 H 578.623 0.971955 5.79506 0
M  V30 6077 H 580.147 0.0926538 6.1053 0
M  V30 6078 H 581.561 2.21232 5.28894 0
M  V30 6079 H 579.958 2.9983 5.19829 0
M  V30 6080 H 581.028 3.03079 3.78512 0
M  V30 6081 N 582.371 -1.3172 0.865308 0
M  V30 6082 C 583.617 -1.97168 0.474633 0
M  V30 6083 C 583.95 -1.68263 -0.969604 0
M  V30 6084 O 583.225 -0.976588 -1.68205 0
M  V30 6085 C 583.508 -3.52689 0.726808 0
M  V30 6086 C 583.361 -3.91185 2.22024 0
M  V30 6087 C 584.68 -4.39689 0.190201 0
M  V30 6088 H 581.799 -0.716185 0.17392 0
M  V30 6089 H 584.441 -1.55925 1.08569 0
M  V30 6090 H 582.591 -3.8795 0.206705 0
M  V30 6091 H 584.263 -3.66049 2.80724 0
M  V30 6092 H 582.506 -3.3996 2.69462 0
M  V30 6093 H 583.177 -4.99604 2.34735 0
M  V30 6094 H 585.653 -4.11225 0.635103 0
M  V30 6095 H 584.529 -5.47469 0.396132 0
M  V30 6096 H 584.79 -4.32683 -0.907625 0
M  V30 6097 N 583.85 -0.624285 -1.44708 0
M  V30 6098 C 584.779 0.0717025 -2.3339 0
M  V30 6099 C 585.76 0.841814 -1.47809 0
M  V30 6100 O 586.946 0.809056 -1.76544 0
M  V30 6101 C 584.076 1.05852 -3.30776 0
M  V30 6102 C 583.029 0.400503 -4.26122 0
M  V30 6103 C 582.356 1.49674 -5.13324 0
M  V30 6104 C 583.656 -0.688924 -5.17737 0
M  V30 6105 H 585.35 -0.668819 -2.91834 0
M  V30 6106 H 582.896 -0.32308 -1.40329 0
M  V30 6107 H 584.849 1.5541 -3.91696 0
M  V30 6108 H 583.572 1.82984 -2.70526 0
M  V30 6109 H 582.231 -0.0743687 -3.66525 0
M  V30 6110 H 581.88 2.25877 -4.49431 0
M  V30 6111 H 581.58 1.06188 -5.77926 0
M  V30 6112 H 583.104 1.99427 -5.77115 0
M  V30 6113 H 584.518 -0.276724 -5.72632 0
M  V30 6114 H 582.915 -1.04652 -5.90904 0
M  V30 6115 H 583.985 -1.55884 -4.5916 0
M  V30 6116 N 585.328 1.53329 -0.364422 0
M  V30 6117 C 586.576 2.00842 0.225189 0
M  V30 6118 C 586.897 1.25345 1.49378 0
M  V30 6119 O 586.167 0.366396 1.92443 0
M  V30 6120 H 584.747 0.742009 0.0862027 0
M  V30 6121 H 587.409 1.8863 -0.490389 0
M  V30 6122 H 586.505 3.08795 0.452987 0
M  V30 6123 N 586.806 0.0935595 1.57322 0
M  V30 6124 C 587.754 -0.883457 2.15169 0
M  V30 6125 C 588.748 -1.29324 1.09415 0
M  V30 6126 O 589.954 -1.26795 1.27762 0
M  V30 6127 H 586.329 -0.302923 0.688289 0
M  V30 6128 H 588.3 -0.370845 2.96087 0
M  V30 6129 C 587.049 -2.13345 2.74552 0
M  V30 6130 H 586.372 -1.82702 3.55612 0
M  V30 6131 H 587.812 -2.7977 3.18598 0
M  V30 6132 C 586.271 -2.90646 1.70371 0
M  V30 6133 O 586.801 -3.85133 1.14173 0
M  V30 6134 N 585.007 -2.54157 1.40899 0
M  V30 6135 H 584.554 -1.77391 1.86789 0
M  V30 6136 H 584.512 -3.06178 0.714301 0
M  V30 6137 N 588.284 -1.56567 -0.180126 0
M  V30 6138 C 589.532 -1.81133 -0.896392 0
M  V30 6139 C 589.853 -0.669114 -1.83161 0
M  V30 6140 O 589.123 0.311616 -1.93406 0
M  V30 6141 H 587.703 -0.668172 -0.333999 0
M  V30 6142 H 590.365 -1.94048 -0.182051 0
M  V30 6143 H 589.461 -2.74854 -1.47857 0
M  V30 6144 N 589.762 0.448376 -1.51087 0
M  V30 6145 C 591.039 1.20926 -1.53741 0
M  V30 6146 C 591.419 2.09025 -0.295222 0
M  V30 6147 O 590.767 2.16851 0.720283 0
M  V30 6148 C 590.977 2.02067 -2.84552 0
M  V30 6149 C 592.325 2.59486 -3.36084 0
M  V30 6150 O 593.349 2.12289 -2.86028 0
M  V30 6151 O 592.208 3.45539 -4.23397 0
M  V30 6152 H 589.302 0.549951 -0.617643 0
M  V30 6153 H 591.848 0.458344 -1.63393 0
M  V30 6154 H 590.62 1.37291 -3.66425 0
M  V30 6155 H 590.243 2.84246 -2.78011 0
M  V30 6156 N 591.24 1.41047 0.703093 0
M  V30 6157 C 592.15 1.44645 1.84703 0
M  V30 6158 C 593.166 0.337778 1.7069 0
M  V30 6159 O 594.342 0.584327 1.92737 0
M  V30 6160 C 591.407 1.31928 3.20618 0
M  V30 6161 C 590.468 2.53047 3.46794 0
M  V30 6162 C 589.701 2.40927 4.76224 0
M  V30 6163 O 589.924 1.42978 5.5219 0
M  V30 6164 O 588.858 3.30543 5.03016 0
M  V30 6165 H 592.684 2.41139 1.84624 0
M  V30 6166 H 590.269 1.22504 0.855167 0
M  V30 6167 H 592.151 1.27092 4.01778 0
M  V30 6168 H 590.826 0.385469 3.21397 0
M  V30 6169 H 589.733 2.6346 2.65593 0
M  V30 6170 H 591.066 3.45231 3.50822 0
M  V30 6171 N 592.718 -0.936591 1.26751 0
M  V30 6172 C 593.648 -2.05315 1.11212 0
M  V30 6173 C 594.629 -1.70092 0.0160262 0
M  V30 6174 O 595.814 -1.93279 0.188894 0
M  V30 6175 C 592.944 -3.39123 0.749171 0
M  V30 6176 C 591.898 -3.88425 1.79751 0
M  V30 6177 C 591.224 -5.18936 1.28876 0
M  V30 6178 C 592.524 -4.12798 3.19992 0
M  V30 6179 H 594.218 -2.18573 2.04613 0
M  V30 6180 H 591.764 -1.05027 0.985159 0
M  V30 6181 H 593.717 -4.16704 0.627323 0
M  V30 6182 H 592.441 -3.25855 -0.220543 0
M  V30 6183 H 591.1 -3.13028 1.90811 0
M  V30 6184 H 590.748 -5.02051 0.308757 0
M  V30 6185 H 590.448 -5.52892 1.98958 0
M  V30 6186 H 591.972 -5.99096 1.17967 0
M  V30 6187 H 593.386 -4.80977 3.11983 0
M  V30 6188 H 591.783 -4.58044 3.87705 0
M  V30 6189 H 592.853 -3.18412 3.65707 0
M  V30 6190 N 594.196 -1.08629 -1.14182 0
M  V30 6191 C 595.443 -0.817345 -1.85272 0
M  V30 6192 C 595.771 0.656917 -1.83071 0
M  V30 6193 O 595.026 1.49897 -1.25815 0
M  V30 6194 C 595.325 -1.28734 -3.3341 0
M  V30 6195 C 594.991 -2.76981 -3.55798 0
M  V30 6196 C 593.653 -3.17469 -3.61617 0
M  V30 6197 C 596.005 -3.72605 -3.64438 0
M  V30 6198 C 593.333 -4.52371 -3.736 0
M  V30 6199 C 595.685 -5.07286 -3.77947 0
M  V30 6200 C 594.349 -5.47376 -3.82016 0
M  V30 6201 H 593.619 -0.299088 -0.677958 0
M  V30 6202 H 596.266 -1.35962 -1.34857 0
M  V30 6203 H 594.571 -0.664702 -3.8612 0
M  V30 6204 H 596.268 -1.05598 -3.86846 0
M  V30 6205 H 592.858 -2.44644 -3.51919 0
M  V30 6206 H 597.042 -3.42443 -3.5923 0
M  V30 6207 H 592.298 -4.82882 -3.75013 0
M  V30 6208 H 596.472 -5.81243 -3.83575 0
M  V30 6209 H 594.099 -6.51906 -3.91054 0
M  V30 6210 N 595.674 1.31259 -0.872281 0
M  V30 6211 C 596.92 1.96913 -0.485083 0
M  V30 6212 C 597.253 1.68774 0.960667 0
M  V30 6213 O 596.528 0.985495 1.67685 0
M  V30 6214 C 596.811 3.52299 -0.745502 0
M  V30 6215 C 596.664 3.90002 -2.24095 0
M  V30 6216 C 597.983 4.39582 -0.213516 0
M  V30 6217 H 595.102 0.715252 -0.177716 0
M  V30 6218 H 597.744 1.55347 -1.09395 0
M  V30 6219 H 595.894 3.87835 -0.227276 0
M  V30 6220 H 597.566 3.64555 -2.82661 0
M  V30 6221 H 595.809 3.38526 -2.71261 0
M  V30 6222 H 596.48 4.98352 -2.37381 0
M  V30 6223 H 598.956 4.10882 -0.656902 0
M  V30 6224 H 597.832 5.47251 -0.42516 0
M  V30 6225 H 598.093 4.33158 0.884666 0
M  V30 6226 N 597.152 0.631951 1.44375 0
M  V30 6227 C 598.429 0.067646 1.95483 0
M  V30 6228 C 598.809 -1.40683 1.57389 0
M  V30 6229 O 598.157 -2.12167 0.848375 0
M  V30 6230 C 598.367 0.291392 3.47781 0
M  V30 6231 C 599.715 0.185028 4.24197 0
M  V30 6232 O 600.739 0.222803 3.55503 0
M  V30 6233 O 599.598 0.0906642 5.46425 0
M  V30 6234 H 596.692 -0.0218379 0.826712 0
M  V30 6235 H 599.238 0.703711 1.54421 0
M  V30 6236 H 598.01 1.31449 3.68561 0
M  V30 6237 H 597.633 -0.378772 3.95792 0
M  V30 6238 N 598.631 -1.53133 0.372548 0
M  V30 6239 C 599.561 -2.28876 -0.462412 0
M  V30 6240 C 600.542 -1.31583 -1.07796 0
M  V30 6241 O 601.727 -1.60461 -1.09389 0
M  V30 6242 C 598.857 -3.08317 -1.59868 0
M  V30 6243 C 597.811 -4.13355 -1.11003 0
M  V30 6244 C 597.137 -4.8092 -2.33708 0
M  V30 6245 C 598.437 -5.21955 -0.18983 0
M  V30 6246 H 600.131 -2.9892 0.169511 0
M  V30 6247 H 597.677 -1.43761 0.0829658 0
M  V30 6248 H 599.63 -3.60055 -2.18949 0
M  V30 6249 H 598.354 -2.35976 -2.25794 0
M  V30 6250 H 597.013 -3.62573 -0.541869 0
M  V30 6251 H 596.661 -4.05144 -2.98106 0
M  V30 6252 H 596.361 -5.51904 -2.01682 0
M  V30 6253 H 597.885 -5.35455 -2.93462 0
M  V30 6254 H 599.299 -5.69153 -0.688319 0
M  V30 6255 H 597.696 -6.00087 0.0398887 0
M  V30 6256 H 598.766 -4.78811 0.766057 0
M  V30 6257 N 600.109 -0.101901 -1.5727 0
M  V30 6258 C 601.355 0.561027 -1.94885 0
M  V30 6259 C 601.688 1.6741 -0.984258 0
M  V30 6260 O 600.963 1.94491 -0.0184767 0
M  V30 6261 C 601.246 1.10982 -3.42571 0
M  V30 6262 C 601.099 0.00133418 -4.498 0
M  V30 6263 C 602.418 2.00608 -3.9172 0
M  V30 6264 H 599.537 0.202467 -0.708644 0
M  V30 6265 H 602.179 -0.173992 -1.89202 0
M  V30 6266 H 600.329 1.73621 -3.47546 0
M  V30 6267 H 602.001 -0.63322 -4.56933 0
M  V30 6268 H 600.244 -0.664143 -4.28686 0
M  V30 6269 H 600.915 0.426253 -5.50352 0
M  V30 6270 H 603.391 1.47864 -3.88941 0
M  V30 6271 H 602.267 2.3593 -4.95609 0
M  V30 6272 H 602.528 2.92608 -3.3141 0
M  V30 6273 N 601.587 1.56661 0.17182 0
M  V30 6274 C 602.535 1.97289 1.23207 0
M  V30 6275 C 603.529 0.861566 1.45854 0
M  V30 6276 O 604.735 1.04668 1.4644 0
M  V30 6277 H 601.11 0.627681 0.41415 0
M  V30 6278 H 603.081 2.85662 0.862542 0
M  V30 6279 C 601.83 2.34849 2.564 0
M  V30 6280 H 601.153 3.19903 2.39797 0
M  V30 6281 H 602.593 2.67121 3.29276 0
M  V30 6282 C 601.052 1.19172 3.15119 0
M  V30 6283 O 601.582 0.479113 3.98833 0
M  V30 6284 N 599.788 0.962415 2.74201 0
M  V30 6285 H 599.335 1.54365 2.06226 0
M  V30 6286 H 599.293 0.190272 3.13824 0
M  V30 6287 N 603.065 -0.440357 1.51323 0
M  V30 6288 C 604.012 -1.53429 1.72419 0
M  V30 6289 C 604.982 -1.56165 0.565826 0
M  V30 6290 O 606.167 -1.73222 0.799917 0
M  V30 6291 C 603.307 -2.91169 1.85242 0
M  V30 6292 C 602.42 -2.97985 3.12777 0
M  V30 6293 C 601.555 -4.26829 3.16212 0
M  V30 6294 C 600.594 -4.27501 4.38074 0
M  V30 6295 N 599.731 -5.47866 4.39076 0
M  V30 6296 H 604.571 -1.34743 2.65797 0
M  V30 6297 H 602.108 -0.654608 1.31732 0
M  V30 6298 H 604.066 -3.71087 1.90658 0
M  V30 6299 H 602.696 -3.0842 0.952744 0
M  V30 6300 H 601.748 -2.10749 3.16685 0
M  V30 6301 H 603.06 -2.94342 4.02696 0
M  V30 6302 H 602.214 -5.15118 3.20527 0
M  V30 6303 H 600.953 -4.33124 2.24176 0
M  V30 6304 H 599.958 -3.37606 4.33938 0
M  V30 6305 H 601.183 -4.22873 5.31371 0
M  V30 6306 H 599.129 -5.54887 3.49909 0
M  V30 6307 H 599.046 -5.46091 5.22801 0
M  V30 6308 H 600.314 -6.38195 4.4758 0
M  V30 6309 N 604.543 -1.41418 -0.695603 0
M  V30 6310 C 605.771 -1.4413 -1.48439 0
M  V30 6311 C 606.186 -0.0465698 -1.88743 0
M  V30 6312 O 605.543 0.934117 -1.56782 0
M  V30 6313 C 605.594 -2.34998 -2.74696 0
M  V30 6314 O 605.315 -3.69043 -2.36091 0
M  V30 6315 C 606.816 -2.46513 -3.68438 0
M  V30 6316 H 604.036 -0.490905 -0.457442 0
M  V30 6317 H 606.58 -1.85702 -0.856454 0
M  V30 6318 H 604.735 -1.96735 -3.33728 0
M  V30 6319 H 605.149 -4.17505 -3.17474 0
M  V30 6320 H 606.623 -3.1426 -4.53811 0
M  V30 6321 H 607.1 -1.49638 -4.12922 0
M  V30 6322 H 607.706 -2.85412 -3.1531 0
M  V30 6323 N 606.021 0.929856 -1.27246 0
M  V30 6324 C 607.432 1.49223 -1.12203 0
M  V30 6325 C 607.783 1.93989 0.293731 0
M  V30 6326 O 606.908 1.80978 1.18642 0
M  V30 6327 C 607.503 2.71198 -2.0307 0
M  V30 6328 C 606.062 3.23666 -1.92139 0
M  V30 6329 C 605.209 1.96409 -1.95752 0
M  V30 6330 H 608.16 0.744181 -1.4017 0
M  V30 6331 H 608.181 3.45905 -1.58524 0
M  V30 6332 H 607.693 2.38585 -3.06102 0
M  V30 6333 H 605.794 3.61042 -0.920834 0
M  V30 6334 H 605.907 3.90006 -2.78267 0
M  V30 6335 H 604.271 2.12806 -1.39949 0
M  V30 6336 H 605.054 1.66113 -3.00436 0
M  V30 6337 N 607.499 1.09233 1.13605 0
M  V30 6338 C 608.724 0.849067 1.89224 0
M  V30 6339 C 609.149 -0.593875 1.78479 0
M  V30 6340 O 608.507 -1.41703 1.13092 0
M  V30 6341 C 608.555 1.28642 3.36873 0
M  V30 6342 O 607.659 0.44363 4.10007 0
M  V30 6343 H 607 0.30767 0.588417 0
M  V30 6344 H 609.53 1.45595 1.43748 0
M  V30 6345 H 609.54 1.27096 3.87699 0
M  V30 6346 H 608.215 2.33729 3.44011 0
M  V30 6347 H 606.792 0.523241 3.69211 0
M  V30 6348 N 608.977 -1.30795 0.87923 0
M  V30 6349 C 610.225 -1.95974 0.493809 0
M  V30 6350 C 610.546 -1.69787 -0.959021 0
M  V30 6351 O 609.816 -1.01832 -1.67353 0
M  V30 6352 H 608.396 -0.725083 0.179622 0
M  V30 6353 H 611.058 -1.59432 1.12105 0
M  V30 6354 H 610.154 -3.05058 0.659263 0
M  V30 6355 N 610.455 -0.639598 -1.44038 0
M  V30 6356 C 611.402 0.0602458 -2.30721 0
M  V30 6357 C 612.372 0.828352 -1.43971 0
M  V30 6358 O 613.557 0.807693 -1.72861 0
M  V30 6359 C 610.697 1.03008 -3.29368 0
M  V30 6360 C 609.81 0.259502 -4.3122 0
M  V30 6361 C 608.945 1.22191 -5.16955 0
M  V30 6362 C 607.984 0.440978 -6.10509 0
M  V30 6363 N 607.121 1.35428 -6.88915 0
M  V30 6364 H 611.961 -0.684867 -2.90023 0
M  V30 6365 H 609.498 -0.349509 -1.42888 0
M  V30 6366 H 611.456 1.60583 -3.85057 0
M  V30 6367 H 610.086 1.74222 -2.71747 0
M  V30 6368 H 609.138 -0.432317 -3.77935 0
M  V30 6369 H 610.45 -0.348347 -4.97582 0
M  V30 6370 H 609.604 1.86873 -5.77203 0
M  V30 6371 H 608.343 1.86367 -4.50687 0
M  V30 6372 H 607.348 -0.219279 -5.49363 0
M  V30 6373 H 608.573 -0.196192 -6.78817 0
M  V30 6374 H 606.519 1.9831 -6.25307 0
M  V30 6375 H 606.436 0.800657 -7.51748 0
M  V30 6376 H 607.704 1.98967 -7.53679 0
M  V30 6377 N 611.933 1.52934 -0.380664 0
M  V30 6378 C 612.88 2.26197 0.458641 0
M  V30 6379 C 613.85 1.27462 1.06502 0
M  V30 6380 O 615.035 1.56274 1.09467 0
M  V30 6381 C 612.175 3.06571 1.58456 0
M  V30 6382 C 611.288 4.20222 1.00189 0
M  V30 6383 C 610.423 4.88007 2.09815 0
M  V30 6384 C 609.462 5.93665 1.49092 0
M  V30 6385 N 608.599 6.55081 2.52613 0
M  V30 6386 H 613.439 2.975 -0.172595 0
M  V30 6387 H 610.976 1.4678 -0.0969426 0
M  V30 6388 H 612.934 3.51455 2.24801 0
M  V30 6389 H 611.564 2.37494 2.18624 0
M  V30 6390 H 610.616 3.79714 0.228292 0
M  V30 6391 H 611.928 4.96102 0.518064 0
M  V30 6392 H 611.082 5.36151 2.83948 0
M  V30 6393 H 609.821 4.11632 2.61555 0
M  V30 6394 H 608.826 5.44868 0.7348 0
M  V30 6395 H 610.051 6.71969 0.981582 0
M  V30 6396 H 607.997 5.8155 3.03538 0
M  V30 6397 H 607.914 7.26548 2.08961 0
M  V30 6398 H 609.182 7.07871 3.26402 0
M  V30 6399 N 613.412 0.11024 1.57214 0
M  V30 6400 C 614.342 -0.840002 2.17867 0
M  V30 6401 C 615.323 -1.28352 1.11624 0
M  V30 6402 O 616.508 -1.3477 1.39824 0
M  V30 6403 C 613.638 -2.09349 2.77111 0
M  V30 6404 C 612.592 -1.78807 3.8886 0
M  V30 6405 C 611.918 -3.11112 4.34872 0
M  V30 6406 C 613.218 -1.0632 5.11364 0
M  V30 6407 H 614.912 -0.334608 2.97524 0
M  V30 6408 H 612.458 -0.159502 1.43114 0
M  V30 6409 H 614.411 -2.76275 3.18198 0
M  V30 6410 H 613.135 -2.62198 1.9473 0
M  V30 6411 H 611.794 -1.14273 3.48335 0
M  V30 6412 H 611.442 -3.61877 3.49362 0
M  V30 6413 H 611.142 -2.91453 5.10224 0
M  V30 6414 H 612.666 -3.79171 4.78604 0
M  V30 6415 H 614.08 -1.63383 5.49526 0
M  V30 6416 H 612.477 -0.967876 5.92243 0
M  V30 6417 H 613.547 -0.0484569 4.84876 0
M  V30 6418 N 614.89 -1.56749 -0.16351 0
M  V30 6419 C 616.136 -1.82704 -0.880168 0
M  V30 6420 C 616.469 -0.689311 -1.81555 0
M  V30 6421 O 615.744 0.308224 -1.92042 0
M  V30 6422 C 616.027 -3.19084 -1.66905 0
M  V30 6423 C 615.88 -4.43397 -0.756269 0
M  V30 6424 C 617.199 -3.52493 -2.63509 0
M  V30 6425 H 614.318 -0.664608 -0.318535 0
M  V30 6426 H 616.96 -1.89438 -0.146036 0
M  V30 6427 H 615.11 -3.13475 -2.2949 0
M  V30 6428 H 616.782 -4.61079 -0.14269 0
M  V30 6429 H 615.025 -4.33752 -0.0647944 0
M  V30 6430 H 615.696 -5.3539 -1.34393 0
M  V30 6431 H 618.172 -3.58606 -2.11047 0
M  V30 6432 H 617.048 -4.48979 -3.15767 0
M  V30 6433 H 617.309 -2.77597 -3.44082 0
M  V30 6434 N 616.368 0.432326 -1.51554 0
M  V30 6435 C 617.645 1.19288 -1.55015 0
M  V30 6436 C 618.025 2.08701 -0.317375 0
M  V30 6437 O 617.373 2.17602 0.697243 0
M  V30 6438 C 617.583 1.99037 -2.86679 0
M  V30 6439 C 618.931 2.55907 -3.38817 0
M  V30 6440 O 619.955 2.09243 -2.88263 0
M  V30 6441 O 618.814 3.41029 -4.27038 0
M  V30 6442 H 615.908 0.543369 -0.623441 0
M  V30 6443 H 618.454 0.440988 -1.6387 0
M  V30 6444 H 617.226 1.33397 -3.6786 0
M  V30 6445 H 616.849 2.81281 -2.8101 0
M  V30 6446 N 617.846 1.41785 0.688094 0
M  V30 6447 C 618.776 1.47 1.8142 0
M  V30 6448 C 619.757 0.327881 1.6691 0
M  V30 6449 O 620.942 0.540362 1.86531 0
M  V30 6450 C 618.072 1.35876 3.19617 0
M  V30 6451 C 617.026 2.47976 3.48844 0
M  V30 6452 C 616.352 2.21915 4.86475 0
M  V30 6453 C 617.652 3.90309 3.47068 0
M  V30 6454 H 619.346 2.41247 1.77314 0
M  V30 6455 H 616.892 1.16116 0.851651 0
M  V30 6456 H 618.845 1.38134 3.98117 0
M  V30 6457 H 617.569 0.38116 3.24368 0
M  V30 6458 H 616.228 2.45013 2.72698 0
M  V30 6459 H 615.876 1.2248 4.8786 0
M  V30 6460 H 615.576 2.97037 5.06994 0
M  V30 6461 H 617.1 2.25901 5.67275 0
M  V30 6462 H 618.514 3.94947 4.1556 0
M  V30 6463 H 616.911 4.65175 3.7912 0
M  V30 6464 H 617.981 4.17927 2.45896 0
M  V30 6465 N 619.324 -0.923095 1.27737 0
M  V30 6466 C 620.57 -1.67375 1.14514 0
M  V30 6467 C 620.903 -1.91751 -0.307424 0
M  V30 6468 O 620.178 -1.51119 -1.22447 0
M  V30 6469 C 620.461 -3.03745 1.9342 0
M  V30 6470 C 620.314 -2.86581 3.46686 0
M  V30 6471 C 621.633 -4.04144 1.74228 0
M  V30 6472 H 618.752 -0.607427 0.417374 0
M  V30 6473 H 621.394 -1.07089 1.56946 0
M  V30 6474 H 619.544 -3.55204 1.5736 0
M  V30 6475 H 621.216 -2.42203 3.92601 0
M  V30 6476 H 619.459 -2.21829 3.72793 0
M  V30 6477 H 620.13 -3.83381 3.97143 0
M  V30 6478 H 622.606 -3.61712 2.05678 0
M  V30 6479 H 621.482 -4.97543 2.31824 0
M  V30 6480 H 621.743 -4.36661 0.691373 0
M  V30 6481 N 620.802 -1.09834 -1.13024 0
M  V30 6482 C 622.05 -0.835297 -1.8403 0
M  V30 6483 C 622.371 0.640944 -1.84165 0
M  V30 6484 O 621.641 1.46517 -1.30037 0
M  V30 6485 H 620.221 -0.306018 -0.681441 0
M  V30 6486 H 622.883 -1.38734 -1.36891 0
M  V30 6487 H 621.979 -1.19258 -2.88416 0
M  V30 6488 N 622.28 1.30327 -0.886154 0
M  V30 6489 C 623.527 1.96097 -0.505192 0
M  V30 6490 C 623.855 1.69952 0.945868 0
M  V30 6491 O 623.11 0.997653 1.68361 0
M  V30 6492 C 623.409 3.49906 -0.728042 0
M  V30 6493 C 623.075 3.96103 -2.15437 0
M  V30 6494 C 621.737 4.08428 -2.5444 0
M  V30 6495 C 624.089 4.20177 -3.08384 0
M  V30 6496 C 621.417 4.42189 -3.85598 0
M  V30 6497 C 623.769 4.55407 -4.39075 0
M  V30 6498 C 622.433 4.65941 -4.7797 0
M  V30 6499 H 621.703 0.71757 -0.184863 0
M  V30 6500 H 624.35 1.55171 -1.12223 0
M  V30 6501 H 622.655 3.9179 -0.027978 0
M  V30 6502 H 624.352 3.98869 -0.412862 0
M  V30 6503 H 620.942 3.87017 -1.84162 0
M  V30 6504 H 625.126 4.10134 -2.7947 0
M  V30 6505 H 620.382 4.48544 -4.15473 0
M  V30 6506 H 624.556 4.72986 -5.11133 0
M  V30 6507 H 622.183 4.91856 -5.79639 0
M  V30 6508 N 623.758 0.647228 1.43697 0
M  V30 6509 C 624.691 -0.097646 2.27991 0
M  V30 6510 C 625.669 -0.83571 1.3948 0
M  V30 6511 O 626.853 -0.836509 1.68922 0
M  V30 6512 C 623.98 -1.14484 3.18765 0
M  V30 6513 C 623.026 -0.505503 4.23494 0
M  V30 6514 S 623.859 0.716471 5.30685 0
M  V30 6515 C 625.015 -0.330339 6.25028 0
M  V30 6516 H 625.248 0.617417 2.90818 0
M  V30 6517 H 622.781 0.435881 1.4812 0
M  V30 6518 H 624.739 -1.74403 3.7161 0
M  V30 6519 H 623.4 -1.83219 2.55127 0
M  V30 6520 H 622.593 -1.29473 4.87086 0
M  V30 6521 H 622.195 0.0194377 3.73995 0
M  V30 6522 H 624.487 -1.19828 6.66819 0
M  V30 6523 H 625.43 0.270409 7.07583 0
M  V30 6524 H 625.838 -0.663459 5.60588 0
M  V30 6525 N 625.236 -1.5273 0.388769 0
M  V30 6526 C 626.647 -1.86505 -0.0853788 0
M  V30 6527 C 626.998 -1.30847 -1.46197 0
M  V30 6528 O 626.123 -0.639609 -2.06732 0
M  V30 6529 C 626.718 -3.38414 -0.161703 0
M  V30 6530 C 625.277 -3.71902 -0.580144 0
M  V30 6531 C 624.424 -2.76095 0.258218 0
M  V30 6532 H 627.375 -1.46647 0.606665 0
M  V30 6533 H 627.396 -3.67638 -0.980936 0
M  V30 6534 H 626.908 -3.78893 0.840333 0
M  V30 6535 H 625.009 -3.36992 -1.58957 0
M  V30 6536 H 625.122 -4.77902 -0.338663 0
M  V30 6537 H 623.486 -2.53195 -0.276432 0
M  V30 6538 H 624.269 -3.19411 1.25822 0
M  V30 6539 N 626.714 -0.118576 -1.57153 0
M  V30 6540 C 627.664 0.842924 -2.11846 0
M  V30 6541 C 628.648 1.22845 -1.03914 0
M  V30 6542 O 629.84 1.19961 -1.30148 0
M  V30 6543 C 626.969 2.09312 -2.72109 0
M  V30 6544 C 626.055 1.73198 -3.87122 0
M  V30 6545 N 626.446 1.07758 -4.94188 0
M  V30 6546 C 624.744 2.02659 -3.97298 0
M  V30 6547 C 625.445 0.907741 -5.74574 0
M  V30 6548 N 624.421 1.4326 -5.24383 0
M  V30 6549 H 628.223 0.333416 -2.92003 0
M  V30 6550 H 625.737 0.0839073 -1.62183 0
M  V30 6551 H 627.734 2.79162 -3.09635 0
M  V30 6552 H 626.394 2.60807 -1.93416 0
M  V30 6553 H 627.405 0.741613 -5.12563 0
M  V30 6554 H 624.082 2.56204 -3.29645 0
M  V30 6555 H 625.472 0.394112 -6.70743 0
M  V30 6556 N 628.193 1.56834 0.155195 0
M  V30 6557 C 629.421 1.87049 0.884326 0
M  V30 6558 C 629.836 0.705839 1.7511 0
M  V30 6559 O 629.193 -0.324641 1.79589 0
M  V30 6560 C 629.244 3.1644 1.74781 0
M  V30 6561 O 628.965 4.28417 0.915978 0
M  V30 6562 C 630.466 3.60113 2.58522 0
M  V30 6563 H 627.686 0.620196 0.25612 0
M  V30 6564 H 630.23 2.03946 0.150445 0
M  V30 6565 H 628.385 3.01321 2.43484 0
M  V30 6566 H 628.799 5.02353 1.50803 0
M  V30 6567 H 630.273 4.53508 3.14698 0
M  V30 6568 H 630.75 2.85005 3.34169 0
M  V30 6569 H 631.356 3.77898 1.95124 0
M  V30 6570 N 629.671 -0.424282 1.51781 0
M  V30 6571 C 630.899 -1.1947 1.68921 0
M  V30 6572 C 631.314 -1.84683 0.39213 0
M  V30 6573 O 630.671 -1.71261 -0.630554 0
M  V30 6574 C 630.722 -2.26909 2.81416 0
M  V30 6575 O 630.443 -1.64361 4.061 0
M  V30 6576 C 631.944 -3.16945 3.09937 0
M  V30 6577 H 629.164 -0.359591 0.566511 0
M  V30 6578 H 631.708 -0.501139 1.98265 0
M  V30 6579 H 629.863 -2.91959 2.54635 0
M  V30 6580 H 630.277 -2.35468 4.68674 0
M  V30 6581 H 631.751 -3.88437 3.922 0
M  V30 6582 H 632.228 -3.78451 2.22871 0
M  V30 6583 H 632.834 -2.57581 3.38426 0
M  V30 6584 N 631.149 -1.42148 -0.680565 0
M  V30 6585 C 632.377 -1.45696 -1.46902 0
M  V30 6586 C 632.792 -0.0665858 -1.88683 0
M  V30 6587 O 632.149 0.917436 -1.57764 0
M  V30 6588 C 632.2 -2.37898 -2.72188 0
M  V30 6589 O 631.921 -3.71526 -2.32163 0
M  V30 6590 C 633.422 -2.50407 -3.65802 0
M  V30 6591 H 630.642 -0.495729 -0.45221 0
M  V30 6592 H 633.186 -1.866 -0.836709 0
M  V30 6593 H 631.341 -2.00263 -3.31622 0
M  V30 6594 H 631.755 -4.20849 -3.13027 0
M  V30 6595 H 633.229 -3.19056 -4.50452 0
M  V30 6596 H 633.706 -1.5401 -4.11312 0
M  V30 6597 H 634.312 -2.8874 -3.12265 0
M  V30 6598 N 632.627 0.916307 -1.28225 0
M  V30 6599 C 633.59 1.99996 -1.11957 0
M  V30 6600 C 634.59 1.60688 -0.0600152 0
M  V30 6601 O 635.78 1.71499 -0.30558 0
M  V30 6602 C 632.912 3.33458 -0.708411 0
M  V30 6603 H 634.105 2.15858 -2.08196 0
M  V30 6604 H 631.658 1.09863 -1.11175 0
M  V30 6605 H 632.393 3.23297 0.254859 0
M  V30 6606 H 632.178 3.63349 -1.47377 0
M  V30 6607 H 633.668 4.13014 -0.617164 0
M  V30 6608 N 634.105 1.10431 1.1244 0
M  V30 6609 C 635.037 0.710945 2.17895 0
M  V30 6610 C 636.05 -0.252315 1.60833 0
M  V30 6611 O 637.239 -0.03679 1.78462 0
M  V30 6612 C 634.339 0.0284262 3.38888 0
M  V30 6613 C 633.512 1.01585 4.2544 0
M  V30 6614 C 632.571 0.364826 5.24934 0
M  V30 6615 O 631.597 1.01561 5.60066 0
M  V30 6616 N 632.799 -0.87674 5.73841 0
M  V30 6617 H 635.564 1.61826 2.52255 0
M  V30 6618 H 633.125 0.993132 1.27861 0
M  V30 6619 H 635.117 -0.418568 4.0253 0
M  V30 6620 H 633.687 -0.781294 3.02679 0
M  V30 6621 H 632.907 1.64111 3.58415 0
M  V30 6622 H 634.195 1.68425 4.80115 0
M  V30 6623 H 633.593 -1.42483 5.47462 0
M  V30 6624 H 632.15 -1.26688 6.39369 0
M  V30 6625 N 635.583 -1.29855 0.893053 0
M  V30 6626 C 636.546 -2.26183 0.370687 0
M  V30 6627 C 637.546 -1.53108 -0.491385 0
M  V30 6628 O 638.736 -1.71643 -0.297386 0
M  V30 6629 C 635.868 -3.37633 -0.470827 0
M  V30 6630 H 637.061 -2.73903 1.22135 0
M  V30 6631 H 634.614 -1.41183 0.67061 0
M  V30 6632 H 635.349 -2.95241 -1.34175 0
M  V30 6633 H 635.134 -3.91825 0.146784 0
M  V30 6634 H 636.624 -4.09313 -0.827825 0
M  V30 6635 N 637.061 -0.65484 -1.43351 0
M  V30 6636 C 637.971 0.0363603 -2.34572 0
M  V30 6637 C 638.987 0.810432 -1.53974 0
M  V30 6638 O 640.163 0.757308 -1.86619 0
M  V30 6639 C 637.228 0.989733 -3.32273 0
M  V30 6640 C 636.289 0.212414 -4.28774 0
M  V30 6641 C 635.522 1.12038 -5.21808 0
M  V30 6642 O 635.745 2.35967 -5.19303 0
M  V30 6643 O 634.679 0.59191 -5.98982 0
M  V30 6644 H 638.505 -0.714527 -2.95175 0
M  V30 6645 H 636.09 -0.415029 -1.4352 0
M  V30 6646 H 637.972 1.53759 -3.92347 0
M  V30 6647 H 636.647 1.72082 -2.74171 0
M  V30 6648 H 635.554 -0.379062 -3.72175 0
M  V30 6649 H 636.887 -0.479138 -4.89862 0
M  V30 6650 N 638.539 1.52521 -0.396863 0
M  V30 6651 C 639.787 2.01274 0.182536 0
M  V30 6652 C 640.108 1.28485 1.46685 0
M  V30 6653 O 639.378 0.407134 1.91623 0
M  V30 6654 H 637.958 0.743671 0.0704442 0
M  V30 6655 H 640.62 1.87547 -0.530289 0
M  V30 6656 H 639.716 3.09687 0.387385 0
M  V30 6657 N 640.017 0.126909 1.57088 0
M  V30 6658 C 641.266 -0.529024 1.94639 0
M  V30 6659 C 641.579 -1.67323 1.01304 0
M  V30 6660 O 642.785 -2.39245 1.28352 0
M  V30 6661 C 641.241 -0.992483 3.45945 0
M  V30 6662 C 640.849 0.123691 4.47829 0
M  V30 6663 C 642.593 -1.61934 3.924 0
M  V30 6664 C 640.5 -0.356911 5.90322 0
M  V30 6665 H 639.43 -0.201397 0.726605 0
M  V30 6666 H 642.081 0.208032 1.82317 0
M  V30 6667 H 640.463 -1.7842 3.53528 0
M  V30 6668 H 641.637 0.900168 4.51922 0
M  V30 6669 H 639.952 0.657699 4.11173 0
M  V30 6670 H 642.549 -1.9902 4.96281 0
M  V30 6671 H 642.892 -2.50075 3.32819 0
M  V30 6672 H 643.425 -0.892894 3.8765 0
M  V30 6673 H 640.164 0.488636 6.53676 0
M  V30 6674 H 639.684 -1.0997 5.89633 0
M  V30 6675 H 641.363 -0.815547 6.41839 0
M  V30 6676 N 641.495 -1.56914 -0.146875 0
M  V30 6677 C 642.735 -1.85163 -0.86568 0
M  V30 6678 C 643.099 -0.711215 -1.78342 0
M  V30 6679 O 644.3 -0.874754 -2.54168 0
M  V30 6680 C 642.571 -3.18593 -1.61967 0
M  V30 6681 S 644.13 -3.68397 -2.38388 0
M  V30 6682 H 640.948 -0.6494 -0.289483 0
M  V30 6683 H 643.55 -1.95096 -0.125679 0
M  V30 6684 H 642.254 -3.99562 -0.93694 0
M  V30 6685 H 641.785 -3.11666 -2.40058 0
M  V30 6686 H 643.8 -3.37672 -3.63582 0
M  V30 6687 N 642.974 0.416227 -1.52004 0
M  V30 6688 C 644.22 1.16233 -1.66917 0
M  V30 6689 C 644.575 1.8839 -0.390763 0
M  V30 6690 O 643.868 1.81479 0.614478 0
M  V30 6691 C 644.062 2.18923 -2.82502 0
M  V30 6692 C 643.891 1.56849 -4.2146 0
M  V30 6693 C 642.661 1.34426 -4.87091 0
M  V30 6694 C 644.859 1.03322 -5.03815 0
M  V30 6695 N 642.841 0.681703 -6.10103 0
M  V30 6696 C 644.212 0.497165 -6.18003 0
M  V30 6697 C 646.267 0.926997 -4.89194 0
M  V30 6698 C 644.97 -0.134687 -7.19174 0
M  V30 6699 C 646.996 0.309009 -5.90592 0
M  V30 6700 C 646.358 -0.216399 -7.04068 0
M  V30 6701 H 642.457 0.412252 -0.664509 0
M  V30 6702 H 645.041 0.455758 -1.89291 0
M  V30 6703 H 643.212 2.86946 -2.61756 0
M  V30 6704 H 644.944 2.85844 -2.86488 0
M  V30 6705 H 641.699 1.61183 -4.45328 0
M  V30 6706 H 642.123 0.367256 -6.76003 0
M  V30 6707 H 646.765 1.31904 -4.01698 0
M  V30 6708 H 644.483 -0.538811 -8.06302 0
M  V30 6709 H 648.069 0.228438 -5.81351 0
M  V30 6710 H 646.949 -0.687064 -7.81184 0
M  V30 6711 O 644.491 1.51403 0.562082 0
M  V30 6712 H 645.182 1.50679 1.21719 0
M  V30 END ATOM
M  V30 BEGIN BOND
M  V30 END BOND
M  V30 END CTAB
M  END
$$$$
