drugbank_target|Q9X1K9 4-hydroxy-tetrahydrodipicolinate synthase (DB02370)
 OpenBabel12092119543D

  0  0  0     0  0            999 V3000
M  V30 BEGIN CTAB
M  V30 COUNTS 4623 4657 0 0 0
M  V30 BEGIN ATOM
M  V30 1 H -0.908 1.98254 -0.117106 0
M  V30 2 N 0 1.576 0 0
M  V30 3 C 0.933 2.03868 1.02534 0
M  V30 4 C 1.911 0.928543 1.3348 0
M  V30 5 O 3.095 1.19667 1.45644 0
M  V30 6 C 0.222 2.43627 2.35294 0
M  V30 7 C -0.732 3.65373 2.2001 0
M  V30 8 S 0.101 5.13292 1.52614 0
M  V30 9 C 1.257 5.56322 2.86805 0
M  V30 10 H 1.49 2.90518 0.631377 0
M  V30 11 H -0.977 1.52953 0.210867 0
M  V30 12 H 0.981 2.67203 3.11629 0
M  V30 13 H -0.358 1.57376 2.7183 0
M  V30 14 H -1.165 3.90944 3.18086 0
M  V30 15 H -1.563 3.418 1.51819 0
M  V30 16 H 0.729 5.58782 3.83104 0
M  V30 17 H 1.672 6.56266 2.65933 0
M  V30 18 H 2.08 4.83886 2.90714 0
M  V30 19 N 1.4781 -0.272755 1.55222 0
M  V30 20 C 2.7251 -1.00433 1.7584 0
M  V30 21 C 3.0531 -1.86275 0.559629 0
M  V30 22 O 2.3081 -1.90269 -0.457857 0
M  V30 23 C 2.6071 -1.91642 3.01675 0
M  V30 24 C 2.2731 -1.21548 4.34208 0
M  V30 25 C 0.9351 -1.02166 4.70229 0
M  V30 26 C 3.2871 -0.716684 5.16249 0
M  V30 27 C 0.6151 -0.316334 5.85847 0
M  V30 28 C 2.9671 -0.0249476 6.32595 0
M  V30 29 C 1.6311 0.180579 6.67256 0
M  V30 30 H 0.9011 -0.367509 0.643443 0
M  V30 31 H 3.5481 -0.276596 1.89492 0
M  V30 32 H 1.8531 -2.71037 2.82924 0
M  V30 33 H 3.5501 -2.48369 3.14824 0
M  V30 34 H 0.1401 -1.37645 4.05896 0
M  V30 35 H 4.3241 -0.854047 4.88896 0
M  V30 36 H -0.4199 -0.146378 6.11225 0
M  V30 37 H 3.7541 0.369311 6.9542 0
M  V30 38 H 1.3811 0.729098 7.56696 0
M  V30 39 N 2.9562 -1.48159 -0.537278 0
M  V30 40 C 4.3722 -1.34118 -0.865129 0
M  V30 41 C 4.5722 -0.346678 -1.98495 0
M  V30 42 O 3.6282 0.234715 -2.51407 0
M  V30 43 C 4.9412 -2.73963 -1.23954 0
M  V30 44 C 6.4892 -2.82397 -1.34984 0
M  V30 45 C 6.9642 -4.22928 -1.75772 0
M  V30 46 N 8.4552 -4.25566 -1.82887 0
M  V30 47 C 9.1902 -5.31235 -2.15817 0
M  V30 48 N 8.6862 -6.47189 -2.47222 0
M  V30 49 N 10.4792 -5.18624 -2.16761 0
M  V30 50 H 2.6302 -2.1144 0.201715 0
M  V30 51 H 4.8932 -0.947598 0.0275949 0
M  V30 52 H 4.5992 -3.48264 -0.490381 0
M  V30 53 H 4.4732 -3.0702 -2.19132 0
M  V30 54 H 6.8602 -2.08356 -2.08978 0
M  V30 55 H 6.9412 -2.5297 -0.379448 0
M  V30 56 H 6.5852 -4.97482 -1.02341 0
M  V30 57 H 6.5152 -4.49794 -2.73848 0
M  V30 58 H 9.0062 -3.41924 -1.60924 0
M  V30 59 H 9.3192 -7.23564 -2.71433 0
M  V30 60 H 7.6642 -6.50476 -2.44757 0
M  V30 61 H 10.8552 -4.27056 -1.91679 0
M  V30 62 H 11.0282 -6.01078 -2.42093 0
M  V30 63 N 4.4343 0.785586 -1.36625 0
M  V30 64 C 5.6823 1.54057 -1.30808 0
M  V30 65 C 6.0033 1.94683 0.111157 0
M  V30 66 O 5.2733 1.65241 1.05224 0
M  V30 67 H 3.8533 0.571354 -0.481211 0
M  V30 68 H 6.5153 0.935821 -1.70963 0
M  V30 69 H 5.6113 2.44637 -1.93801 0
M  V30 70 N 5.9124 1.20967 1.01018 0
M  V30 71 C 7.1584 1.02526 1.74975 0
M  V30 72 C 7.4914 -0.4408 1.89131 0
M  V30 73 O 6.7664 -1.32718 1.42184 0
M  V30 74 C 7.0494 1.71699 3.1653 0
M  V30 75 C 6.9024 3.25791 3.10129 0
M  V30 76 C 8.2214 1.45531 4.15342 0
M  V30 77 H 5.3404 0.373863 0.635134 0
M  V30 78 H 7.9824 1.49071 1.17805 0
M  V30 79 H 6.1324 1.32128 3.65341 0
M  V30 80 H 7.8044 3.74697 2.69072 0
M  V30 81 H 6.0474 3.56363 2.47362 0
M  V30 82 H 6.7184 3.69353 4.10222 0
M  V30 83 H 9.1944 1.79872 3.75213 0
M  V30 84 H 8.0704 1.96453 5.1254 0
M  V30 85 H 8.3314 0.384237 4.40427 0
M  V30 86 N 7.3905 -1.2043 1.01659 0
M  V30 87 C 8.6385 -1.89423 0.704522 0
M  V30 88 C 8.9595 -1.79231 -0.768197 0
M  V30 89 O 8.2295 -1.1947 -1.55254 0
M  V30 90 H 6.8095 -0.701178 0.257602 0
M  V30 91 H 9.4715 -1.4626 1.28818 0
M  V30 92 H 8.5675 -2.96052 0.987916 0
M  V30 93 N 8.8686 -0.792821 -1.36206 0
M  V30 94 C 10.0966 -0.378825 -2.03402 0
M  V30 95 C 10.5116 1.00586 -1.59774 0
M  V30 96 O 9.8686 1.64574 -0.788764 0
M  V30 97 C 9.9196 -0.43683 -3.58851 0
M  V30 98 O 9.6406 -1.76691 -4.00889 0
M  V30 99 C 11.1416 -0.0138943 -4.43298 0
M  V30 100 H 8.3616 -0.155673 -0.652692 0
M  V30 101 H 10.9056 -1.07261 -1.74113 0
M  V30 102 H 9.0606 0.208575 -3.86838 0
M  V30 103 H 9.4746 -1.72011 -4.95492 0
M  V30 104 H 10.9486 -0.105615 -5.51899 0
M  V30 105 H 11.4256 1.03915 -4.2673 0
M  V30 106 H 12.0316 -0.63192 -4.20579 0
M  V30 107 N 10.3467 1.47872 -0.545128 0
M  V30 108 C 11.3097 2.28337 0.198717 0
M  V30 109 C 12.3097 1.36255 0.853888 0
M  V30 110 O 13.4997 1.59003 0.711606 0
M  V30 111 C 10.6317 3.15585 1.28915 0
M  V30 112 H 11.8247 2.95567 -0.507941 0
M  V30 113 H 9.3777 1.53362 -0.301616 0
M  V30 114 H 10.1127 2.53019 2.02859 0
M  V30 115 H 9.8977 3.83337 0.824309 0
M  V30 116 H 11.3877 3.76243 1.81194 0
M  V30 117 N 11.8248 0.280983 1.55075 0
M  V30 118 C 13.0738 -0.334784 1.98902 0
M  V30 119 C 13.3868 -1.56534 1.17288 0
M  V30 120 O 14.5928 -2.25443 1.51287 0
M  V30 121 C 13.0488 -0.646994 3.54037 0
M  V30 122 C 12.6568 0.564085 4.44435 0
M  V30 123 C 14.4008 -1.22506 4.06439 0
M  V30 124 C 12.3078 0.226137 5.90967 0
M  V30 125 H 11.2378 -0.128866 0.742906 0
M  V30 126 H 13.8888 0.386556 1.79382 0
M  V30 127 H 12.2708 -1.42739 3.6938 0
M  V30 128 H 13.4448 1.34082 4.40861 0
M  V30 129 H 11.7598 1.0594 4.02698 0
M  V30 130 H 14.3568 -1.49182 5.13468 0
M  V30 131 H 14.6998 -2.16085 3.55827 0
M  V30 132 H 15.2328 -0.50682 3.94558 0
M  V30 133 H 11.9718 1.12996 6.45687 0
M  V30 134 H 11.4918 -0.513717 5.97596 0
M  V30 135 H 13.1708 -0.179539 6.46751 0
M  V30 136 N 13.3029 -1.57598 0.00835791 0
M  V30 137 C 14.5489 -1.91211 -0.675732 0
M  V30 138 C 14.8819 -0.883139 -1.72958 0
M  V30 139 O 14.1569 0.097016 -1.94258 0
M  V30 140 C 14.4399 -3.35379 -1.31123 0
M  V30 141 C 14.2929 -4.48999 -0.268356 0
M  V30 142 C 15.6119 -3.7912 -2.23508 0
M  V30 143 H 12.7309 -0.695374 -0.244179 0
M  V30 144 H 15.3729 -1.89901 0.0613655 0
M  V30 145 H 13.5229 -3.36626 -1.93946 0
M  V30 146 H 15.1949 -4.59887 0.360844 0
M  V30 147 H 13.4379 -4.31873 0.408482 0
M  V30 148 H 14.1089 -5.46851 -0.752218 0
M  V30 149 H 16.5849 -3.79477 -1.70693 0
M  V30 150 H 15.4609 -4.80729 -2.64936 0
M  V30 151 H 15.7219 -3.13455 -3.11766 0
M  V30 152 N 14.781 0.264519 -1.55364 0
M  V30 153 C 16.009 1.013 -1.80405 0
M  V30 154 C 16.424 1.79618 -0.581622 0
M  V30 155 O 15.781 1.76879 0.449468 0
M  V30 156 C 15.832 1.96487 -3.03439 0
M  V30 157 O 15.553 1.21341 -4.20961 0
M  V30 158 C 17.054 2.83079 -3.41147 0
M  V30 159 H 14.274 0.298875 -0.600762 0
M  V30 160 H 16.818 0.292736 -2.02394 0
M  V30 161 H 14.973 2.63965 -2.83551 0
M  V30 162 H 15.387 1.85573 -4.90574 0
M  V30 163 H 16.861 3.4565 -4.30384 0
M  V30 164 H 17.338 3.53286 -2.60932 0
M  V30 165 H 17.944 2.2108 -3.63323 0
M  V30 166 N 16.2591 1.48442 0.529413 0
M  V30 167 C 17.6701 1.5002 1.11134 0
M  V30 168 C 18.0211 0.27031 1.94329 0
M  V30 169 O 17.1461 -0.622507 2.07253 0
M  V30 170 C 17.7411 2.71834 2.02217 0
M  V30 171 C 16.3001 2.76283 2.55627 0
M  V30 172 C 15.4471 2.43542 1.326 0
M  V30 173 H 18.3981 1.5555 0.314641 0
M  V30 174 H 18.4191 2.50384 2.8651 0
M  V30 175 H 17.9311 3.61331 1.41639 0
M  V30 176 H 16.0321 1.90995 3.19924 0
M  V30 177 H 16.1451 3.77725 2.94721 0
M  V30 178 H 14.5091 1.94709 1.64196 0
M  V30 179 H 15.2921 3.3528 0.737734 0
M  V30 180 N 17.7372 -0.778329 1.37039 0
M  V30 181 C 18.9842 -1.53665 1.31884 0
M  V30 182 C 19.3122 -1.9425 -0.0986303 0
M  V30 183 O 18.5672 -1.63832 -1.07041 0
M  V30 184 C 18.8662 -2.81845 2.19768 0
M  V30 185 C 18.5322 -2.60345 3.68146 0
M  V30 186 C 17.1942 -2.5419 4.08584 0
M  V30 187 C 19.5462 -2.40923 4.62175 0
M  V30 188 C 16.8742 -2.26594 5.41177 0
M  V30 189 C 19.2262 -2.14852 5.94997 0
M  V30 190 C 17.8902 -2.07137 6.34547 0
M  V30 191 H 17.1602 -0.562299 0.482598 0
M  V30 192 H 19.8072 -0.897069 1.69189 0
M  V30 193 H 18.1122 -3.50328 1.75436 0
M  V30 194 H 19.8092 -3.39692 2.13097 0
M  V30 195 H 16.3992 -2.65996 3.36072 0
M  V30 196 H 20.5832 -2.44673 4.31797 0
M  V30 197 H 15.8392 -2.19111 5.70789 0
M  V30 198 H 20.0132 -1.98822 6.67415 0
M  V30 199 H 17.6402 -1.85518 7.37216 0
M  V30 200 N 19.2153 -1.21501 -1.00376 0
M  V30 201 C 20.1623 -0.975387 -2.09177 0
M  V30 202 C 21.1323 0.0990615 -1.65804 0
M  V30 203 O 22.3173 -0.0483147 -1.90739 0
M  V30 204 C 19.4573 -0.547507 -3.40729 0
M  V30 205 C 18.5703 -1.69153 -3.97506 0
M  V30 206 C 17.7053 -1.2127 -5.17172 0
M  V30 207 C 16.7443 -2.32897 -5.66061 0
M  V30 208 N 15.8813 -1.86138 -6.76976 0
M  V30 209 H 20.7213 -1.9068 -2.29009 0
M  V30 210 H 18.2583 -0.950257 -1.12288 0
M  V30 211 H 20.2163 -0.280667 -4.16255 0
M  V30 212 H 18.8463 0.346904 -3.20931 0
M  V30 213 H 17.8983 -2.07298 -3.18954 0
M  V30 214 H 19.2103 -2.5316 -4.29781 0
M  V30 215 H 18.3643 -0.902591 -5.99948 0
M  V30 216 H 17.1033 -0.342692 -4.86495 0
M  V30 217 H 16.1083 -2.64709 -4.81881 0
M  V30 218 H 17.3333 -3.20396 -5.98768 0
M  V30 219 H 15.2793 -1.01484 -6.48103 0
M  V30 220 H 15.1963 -2.63717 -7.08512 0
M  V30 221 H 16.4643 -1.58165 -7.63285 0
M  V30 222 N 20.6934 1.19889 -1.02296 0
M  V30 223 C 21.6414 2.24938 -0.592081 0
M  V30 224 C 22.6354 1.65257 0.372357 0
M  V30 225 O 23.8414 1.78371 0.241583 0
M  V30 226 H 20.2164 0.731787 -0.173182 0
M  V30 227 H 22.1874 2.58603 -1.48885 0
M  V30 228 C 20.9364 3.47668 0.047351 0
M  V30 229 H 20.2594 3.93875 -0.685772 0
M  V30 230 H 21.6994 4.22852 0.311862 0
M  V30 231 C 20.1584 3.11136 1.29212 0
M  V30 232 O 20.6884 3.2325 2.38479 0
M  V30 233 N 18.8944 2.65625 1.17863 0
M  V30 234 H 18.4414 2.55968 0.289493 0
M  V30 235 H 18.3994 2.41553 2.01245 0
M  V30 236 N 22.1715 0.800033 1.35784 0
M  V30 237 C 23.4195 0.376597 1.9856 0
M  V30 238 C 23.7405 -1.05812 1.63795 0
M  V30 239 O 23.0105 -1.73103 0.917171 0
M  V30 240 H 21.5905 0.136261 0.734467 0
M  V30 241 H 24.2525 1.02442 1.65806 0
M  V30 242 H 23.3485 0.477002 3.08433 0
M  V30 243 N 23.6496 -1.47581 0.552962 0
M  V30 244 C 24.5596 -2.33743 -0.200353 0
M  V30 245 C 25.5756 -1.47928 -0.916151 0
M  V30 246 O 26.7516 -1.80865 -0.885993 0
M  V30 247 C 23.8166 -3.24536 -1.21973 0
M  V30 248 C 22.8776 -4.26238 -0.511819 0
M  V30 249 C 22.1106 -5.12693 -1.48263 0
M  V30 250 O 22.3336 -5.01525 -2.71714 0
M  V30 251 O 21.2676 -5.93375 -1.00945 0
M  V30 252 H 25.0936 -2.9945 0.506304 0
M  V30 253 H 22.6786 -1.46071 0.313622 0
M  V30 254 H 24.5606 -3.80631 -1.80827 0
M  V30 255 H 23.2356 -2.61462 -1.90839 0
M  V30 256 H 22.1426 -3.73914 0.117799 0
M  V30 257 H 23.4756 -4.92014 0.135308 0
M  V30 258 N 25.1277 -0.289203 -1.54924 0
M  V30 259 C 26.0577 0.58549 -2.2604 0
M  V30 260 C 27.0387 1.14753 -1.25562 0
M  V30 261 O 28.2237 1.17906 -1.54311 0
M  V30 262 C 25.3537 1.76305 -2.99222 0
M  V30 263 C 24.3077 1.33191 -4.06748 0
M  V30 264 C 23.6337 2.5937 -4.6758 0
M  V30 265 C 24.9337 0.471775 -5.20165 0
M  V30 266 H 26.6277 -0.00763532 -2.99399 0
M  V30 267 H 24.1737 -0.00511229 -1.43999 0
M  V30 268 H 26.1267 2.38097 -3.47689 0
M  V30 269 H 24.8507 2.38223 -2.23422 0
M  V30 270 H 23.5097 0.737121 -3.59113 0
M  V30 271 H 23.1577 3.19576 -3.88433 0
M  V30 272 H 22.8577 2.31228 -5.40192 0
M  V30 273 H 24.3817 3.21985 -5.18804 0
M  V30 274 H 25.7957 0.995056 -5.64599 0
M  V30 275 H 24.1927 0.284639 -5.99425 0
M  V30 276 H 25.2627 -0.506041 -4.82252 0
M  V30 277 N 26.6058 1.57591 -0.0167156 0
M  V30 278 C 27.8828 1.82547 0.702564 0
M  V30 279 C 28.2628 0.898018 1.91047 0
M  V30 280 O 27.6108 -0.0493456 2.28447 0
M  V30 281 C 27.8208 3.31459 1.09251 0
M  V30 282 C 29.1688 3.97622 1.48937 0
M  V30 283 O 30.1928 3.35881 1.18584 0
M  V30 284 O 29.0518 5.06415 2.05442 0
M  V30 285 H 26.1458 0.752268 0.343544 0
M  V30 286 H 28.6918 1.69644 -0.0434495 0
M  V30 287 H 27.4638 3.9061 0.23227 0
M  V30 288 H 27.0868 3.49422 1.89709 0
M  V30 289 N 28.0839 -0.256276 1.55502 0
M  V30 290 C 29.0139 -1.32102 1.92539 0
M  V30 291 C 29.9949 -1.50684 0.789194 0
M  V30 292 O 31.1799 -1.63449 1.04872 0
M  V30 293 C 28.3099 -2.67752 2.21192 0
M  V30 294 C 27.2639 -2.63878 3.36975 0
M  V30 295 C 26.5899 -4.03236 3.51147 0
M  V30 296 C 27.8899 -2.21682 4.72921 0
M  V30 297 H 29.5839 -1.01351 2.81724 0
M  V30 298 H 27.1299 -0.486105 1.35547 0
M  V30 299 H 29.0829 -3.42365 2.45691 0
M  V30 300 H 27.8069 -3.0012 1.28824 0
M  V30 301 H 26.4659 -1.91722 3.12471 0
M  V30 302 H 26.1139 -4.32854 2.56216 0
M  V30 303 H 25.8139 -4.01535 4.29003 0
M  V30 304 H 27.3379 -4.79563 3.77957 0
M  V30 305 H 28.7519 -2.86023 4.96854 0
M  V30 306 H 27.1489 -2.3111 5.53812 0
M  V30 307 H 28.2189 -1.16833 4.70615 0
M  V30 308 N 29.562 -1.4872 -0.521534 0
M  V30 309 C 30.472 -1.66569 -1.65203 0
M  V30 310 C 31.488 -0.548197 -1.65139 0
M  V30 311 O 32.664 -0.820339 -1.83936 0
M  V30 312 C 29.729 -1.70917 -3.01642 0
M  V30 313 C 28.79 -2.94356 -3.12495 0
M  V30 314 C 28.023 -2.98487 -4.42426 0
M  V30 315 O 28.246 -2.10786 -5.30024 0
M  V30 316 O 27.18 -3.90746 -4.57822 0
M  V30 317 H 31.006 -2.62298 -1.5308 0
M  V30 318 H 28.591 -1.3222 -0.695565 0
M  V30 319 H 30.473 -1.7625 -3.82771 0
M  V30 320 H 29.148 -0.783633 -3.14071 0
M  V30 321 H 28.055 -2.94552 -2.3063 0
M  V30 322 H 29.388 -3.86322 -3.04986 0
M  V30 323 N 31.0401 0.771051 -1.3745 0
M  V30 324 C 32.2651 1.56529 -1.36065 0
M  V30 325 C 32.6901 1.88029 0.0515859 0
M  V30 326 O 32.0481 1.49282 1.02882 0
M  V30 327 C 32.0961 2.85187 -2.20683 0
M  V30 328 O 31.2001 3.79593 -1.61193 0
M  V30 329 H 30.5411 0.47411 -0.464883 0
M  V30 330 H 33.0711 0.954269 -1.80983 0
M  V30 331 H 33.0811 3.34283 -2.33921 0
M  V30 332 H 31.7561 2.61588 -3.23334 0
M  V30 333 H 30.3331 3.38239 -1.56999 0
M  V30 334 N 32.5182 1.22032 0.997298 0
M  V30 335 C 33.7482 1.06686 1.76923 0
M  V30 336 C 34.1562 -0.385838 1.85224 0
M  V30 337 O 33.4992 -1.27929 1.31833 0
M  V30 338 C 33.5612 1.59802 3.22031 0
M  V30 339 C 33.2252 3.08362 3.37286 0
M  V30 340 C 34.2222 4.05835 3.24952 0
M  V30 341 C 31.9072 3.47727 3.6248 0
M  V30 342 C 33.9012 5.4066 3.37588 0
M  V30 343 C 31.5882 4.82701 3.74757 0
M  V30 344 C 32.5862 5.78977 3.62319 0
M  V30 345 O 32.2742 7.11502 3.74193 0
M  V30 346 H 32.0062 0.374767 0.562606 0
M  V30 347 H 34.5602 1.61991 1.26286 0
M  V30 348 H 32.7902 0.989003 3.73839 0
M  V30 349 H 34.4792 1.40184 3.80924 0
M  V30 350 H 35.2452 3.76766 3.05405 0
M  V30 351 H 31.1242 2.73317 3.7124 0
M  V30 352 H 34.6682 6.15788 3.27796 0
M  V30 353 H 30.5652 5.11453 3.9381 0
M  V30 354 H 31.3332 7.19019 3.91093 0
M  V30 355 N 33.9963 -1.19345 1.0293 0
M  V30 356 C 34.9063 -2.26245 0.620515 0
M  V30 357 C 35.9223 -1.70486 -0.347928 0
M  V30 358 O 37.0983 -2.00347 -0.205704 0
M  V30 359 C 34.1633 -3.46693 -0.0218957 0
M  V30 360 C 33.2243 -4.17632 0.994102 0
M  V30 361 C 32.4573 -5.32329 0.382253 0
M  V30 362 O 32.6803 -5.64552 -0.814676 0
M  V30 363 O 31.6143 -5.91664 1.10531 0
M  V30 364 H 35.4403 -2.63453 1.51083 0
M  V30 365 H 33.0253 -1.26207 0.799513 0
M  V30 366 H 34.9073 -4.19683 -0.380072 0
M  V30 367 H 33.5823 -3.11333 -0.886209 0
M  V30 368 H 32.4893 -3.4676 1.40387 0
M  V30 369 H 33.8223 -4.56964 1.8288 0
M  V30 370 N 35.4744 -0.807222 -1.35358 0
M  V30 371 C 36.8904 -0.491038 -1.51858 0
M  V30 372 C 37.0904 0.987648 -1.75635 0
M  V30 373 O 36.1464 1.77265 -1.79815 0
M  V30 374 C 37.4594 -1.33695 -2.69344 0
M  V30 375 C 39.0074 -1.33246 -2.83222 0
M  V30 376 C 39.4824 -2.1625 -4.03733 0
M  V30 377 N 40.9734 -2.1379 -4.10911 0
M  V30 378 C 41.7084 -2.74772 -5.03277 0
M  V30 379 N 41.2044 -3.44684 -6.0097 0
M  V30 380 N 42.9974 -2.6441 -4.96028 0
M  V30 381 H 35.1484 -1.76485 -1.18181 0
M  V30 382 H 37.4114 -0.751199 -0.578276 0
M  V30 383 H 37.1174 -2.38634 -2.58354 0
M  V30 384 H 36.9914 -0.990618 -3.6396 0
M  V30 385 H 39.3784 -0.290911 -2.93663 0
M  V30 386 H 39.4594 -1.71866 -1.89461 0
M  V30 387 H 39.1034 -3.20445 -3.94052 0
M  V30 388 H 39.0334 -1.74989 -4.96675 0
M  V30 389 H 41.5244 -1.62923 -3.40976 0
M  V30 390 H 41.8374 -3.88501 -6.68047 0
M  V30 391 H 40.1824 -3.48788 -6.01142 0
M  V30 392 H 43.3734 -2.0938 -4.18662 0
M  V30 393 H 43.5464 -3.12225 -5.6782 0
M  V30 394 N 36.9525 1.47285 -0.560781 0
M  V30 395 C 37.8825 2.32857 0.173105 0
M  V30 396 C 38.8635 1.44009 0.905281 0
M  V30 397 O 40.0485 1.7286 0.885046 0
M  V30 398 C 37.1785 3.25861 1.20133 0
M  V30 399 C 36.1325 4.23978 0.585388 0
M  V30 400 C 35.4585 5.06332 1.7185 0
M  V30 401 C 36.7585 5.20242 -0.463178 0
M  V30 402 H 38.4525 2.94466 -0.541307 0
M  V30 403 H 35.9985 1.41601 -0.261764 0
M  V30 404 H 37.9515 3.84569 1.72293 0
M  V30 405 H 36.6755 2.62315 1.94573 0
M  V30 406 H 35.3345 3.66501 0.085054 0
M  V30 407 H 34.9825 4.39186 2.45203 0
M  V30 408 H 34.6825 5.72762 1.31213 0
M  V30 409 H 36.2065 5.67899 2.24329 0
M  V30 410 H 37.6205 5.73293 -0.027502 0
M  V30 411 H 36.0175 5.94896 -0.788627 0
M  V30 412 H 37.0875 4.65504 -1.35773 0
M  V30 413 N 38.4306 0.297415 1.54768 0
M  V30 414 C 39.6766 -0.313376 2.00364 0
M  V30 415 C 40.0096 -1.53815 1.18553 0
M  V30 416 O 39.2846 -1.92739 0.261103 0
M  V30 417 C 39.5676 -0.673525 3.53745 0
M  V30 418 C 39.4206 0.560133 4.46299 0
M  V30 419 C 40.7396 -1.50143 4.13697 0
M  V30 420 H 37.8586 -0.112428 0.728374 0
M  V30 421 H 40.5006 0.4088 1.8555 0
M  V30 422 H 38.6506 -1.28881 3.665 0
M  V30 423 H 40.3226 1.19863 4.45455 0
M  V30 424 H 38.5656 1.19405 4.17043 0
M  V30 425 H 39.2366 0.26405 5.51368 0
M  V30 426 H 41.7126 -0.981588 4.04356 0
M  V30 427 H 40.5886 -1.72221 5.21182 0
M  V30 428 H 40.8496 -2.48952 3.65343 0
M  V30 429 N 39.9087 -1.5758 0.0250728 0
M  V30 430 C 41.3247 -1.56124 -0.331282 0
M  V30 431 C 41.5247 -1.03029 -1.73169 0
M  V30 432 O 40.5807 -0.675215 -2.43305 0
M  V30 433 C 41.8937 -3.00139 -0.183584 0
M  V30 434 C 43.4417 -3.11946 -0.256654 0
M  V30 435 C 43.9167 -4.57793 -0.137792 0
M  V30 436 N 45.4077 -4.6279 -0.194904 0
M  V30 437 C 46.1427 -5.7326 -0.126655 0
M  V30 438 N 45.6387 -6.928 -0.00755288 0
M  V30 439 N 47.4317 -5.61811 -0.180348 0
M  V30 440 H 39.5827 -1.90424 0.94087 0
M  V30 441 H 41.8457 -0.875761 0.362968 0
M  V30 442 H 41.5517 -3.4292 0.780927 0
M  V30 443 H 41.4257 -3.64899 -0.955448 0
M  V30 444 H 43.8127 -2.69079 -1.21162 0
M  V30 445 H 43.8937 -2.49915 0.545517 0
M  V30 446 H 43.5377 -5.01339 0.813739 0
M  V30 447 H 43.4677 -5.17798 -0.958775 0
M  V30 448 H 45.9587 -3.76807 -0.287267 0
M  V30 449 H 46.2717 -7.72791 0.0379428 0
M  V30 450 H 44.6167 -6.94995 0.0271731 0
M  V30 451 H 47.8077 -4.6731 -0.271767 0
M  V30 452 H 47.9807 -6.47882 -0.123697 0
M  V30 453 N 41.3868 0.248026 -1.55636 0
M  V30 454 C 42.6168 0.992367 -1.81206 0
M  V30 455 C 43.0248 1.7949 -0.598324 0
M  V30 456 O 42.3678 1.78292 0.442434 0
M  V30 457 C 42.4298 1.97926 -3.00109 0
M  V30 458 C 42.0938 1.36377 -4.36177 0
M  V30 459 C 43.0908 0.76682 -5.14214 0
M  V30 460 C 40.7758 1.38347 -4.82872 0
M  V30 461 C 42.7698 0.197778 -6.37093 0
M  V30 462 C 40.4568 0.810574 -6.057 0
M  V30 463 C 41.4548 0.218754 -6.8265 0
M  V30 464 O 41.1428 -0.345298 -8.03158 0
M  V30 465 H 40.8748 0.297704 -0.606917 0
M  V30 466 H 43.4288 0.276517 -2.0353 0
M  V30 467 H 41.6588 2.73339 -2.73538 0
M  V30 468 H 43.3478 2.58694 -3.12781 0
M  V30 469 H 44.1138 0.744114 -4.79258 0
M  V30 470 H 39.9928 1.8335 -4.2297 0
M  V30 471 H 43.5368 -0.264788 -6.97097 0
M  V30 472 H 39.4338 0.830604 -6.40134 0
M  V30 473 H 40.2018 -0.237055 -8.18157 0
M  V30 474 N 42.8649 1.48995 0.513639 0
M  V30 475 C 43.7969 1.60836 1.63293 0
M  V30 476 C 44.8099 0.491701 1.55197 0
M  V30 477 O 45.9989 0.763238 1.6136 0
M  V30 478 C 43.0989 1.53731 3.02027 0
M  V30 479 C 42.2719 2.80715 3.35437 0
M  V30 480 C 41.3309 2.66837 4.53525 0
M  V30 481 O 40.3569 3.40753 4.55934 0
M  V30 482 N 41.5589 1.77539 5.52684 0
M  V30 483 H 44.3239 2.57366 1.53566 0
M  V30 484 H 41.8849 1.45925 0.701259 0
M  V30 485 H 43.8769 1.42118 3.78926 0
M  V30 486 H 42.4469 0.651092 3.05744 0
M  V30 487 H 41.6669 3.06772 2.47557 0
M  V30 488 H 42.9549 3.64927 3.54551 0
M  V30 489 H 42.3529 1.16719 5.53528 0
M  V30 490 H 40.9099 1.71856 6.28736 0
M  V30 491 N 44.343 -0.763751 1.37857 0
M  V30 492 C 45.273 -1.89103 1.36975 0
M  V30 493 C 46.254 -1.68439 0.237152 0
M  V30 494 O 47.439 -1.8918 0.438713 0
M  V30 495 C 44.569 -3.26496 1.18395 0
M  V30 496 C 43.523 -3.61741 2.28751 0
M  V30 497 C 42.849 -4.97762 1.95286 0
M  V30 498 C 44.149 -3.67665 3.70972 0
M  V30 499 H 45.843 -1.90099 2.31307 0
M  V30 500 H 43.389 -0.91319 1.11341 0
M  V30 501 H 45.342 -4.05003 1.16406 0
M  V30 502 H 44.066 -3.25955 0.205215 0
M  V30 503 H 42.725 -2.85547 2.29909 0
M  V30 504 H 42.373 -4.93769 0.959221 0
M  V30 505 H 42.073 -5.22313 2.69189 0
M  V30 506 H 43.597 -5.7866 1.94898 0
M  V30 507 H 45.011 -4.36307 3.719 0
M  V30 508 H 43.408 -4.03718 4.43995 0
M  V30 509 H 44.478 -2.68134 4.0402 0
M  V30 510 N 45.8211 -1.22559 -0.990812 0
M  V30 511 C 46.7311 -1.01394 -2.11557 0
M  V30 512 C 47.7471 0.0383962 -1.73958 0
M  V30 513 O 48.9231 -0.154787 -2.00804 0
M  V30 514 C 45.9881 -0.596569 -3.41529 0
M  V30 515 C 45.0491 -1.72276 -3.93217 0
M  V30 516 C 44.2821 -1.32521 -5.16985 0
M  V30 517 O 44.5051 -0.204909 -5.70032 0
M  V30 518 O 43.4391 -2.14247 -5.62478 0
M  V30 519 H 47.2651 -1.95633 -2.32296 0
M  V30 520 H 44.8501 -1.01172 -1.0993 0
M  V30 521 H 46.7321 -0.374263 -4.19735 0
M  V30 522 H 45.4071 0.316939 -3.22145 0
M  V30 523 H 44.3141 -1.99961 -3.16174 0
M  V30 524 H 45.6471 -2.61421 -4.17037 0
M  V30 525 N 47.2992 1.18797 -1.03562 0
M  V30 526 C 48.2472 2.24297 -0.615905 0
M  V30 527 C 49.2412 1.65643 0.354808 0
M  V30 528 O 50.4472 1.78618 0.22265 0
M  V30 529 H 46.8222 0.729909 -0.180934 0
M  V30 530 H 48.7932 2.5701 -1.5162 0
M  V30 531 C 47.5422 3.47698 0.0104735 0
M  V30 532 H 46.8652 3.93125 -0.727509 0
M  V30 533 H 48.3052 4.23159 0.266995 0
M  V30 534 C 46.7642 3.12489 1.25905 0
M  V30 535 O 47.2942 3.25761 2.35038 0
M  V30 536 N 45.5002 2.6686 1.15039 0
M  V30 537 H 45.0472 2.56261 0.262328 0
M  V30 538 H 45.0052 2.43674 1.98672 0
M  V30 539 N 48.7773 0.814389 1.34928 0
M  V30 540 C 50.0253 0.397636 1.9815 0
M  V30 541 C 50.3463 -1.04069 1.64908 0
M  V30 542 O 49.6163 -1.72121 0.93548 0
M  V30 543 H 48.1963 0.144043 0.732981 0
M  V30 544 H 50.8583 1.04195 1.6471 0
M  V30 545 H 49.9543 0.509688 3.0791 0
M  V30 546 N 50.2554 -1.46986 0.568584 0
M  V30 547 C 51.5014 -2.02741 0.0488709 0
M  V30 548 C 51.8344 -1.44077 -1.30214 0
M  V30 549 O 51.1094 -0.600552 -1.84996 0
M  V30 550 C 51.3924 -3.60086 -0.032047 0
M  V30 551 C 51.2454 -4.29162 1.34686 0
M  V30 552 C 52.5644 -4.33838 -0.739798 0
M  V30 553 H 49.6834 -0.736749 0.0192338 0
M  V30 554 H 52.3254 -1.75289 0.733065 0
M  V30 555 H 50.4754 -3.83606 -0.61473 0
M  V30 556 H 52.1474 -4.16948 1.97362 0
M  V30 557 H 50.3904 -3.89073 1.91846 0
M  V30 558 H 51.0614 -5.37826 1.24285 0
M  V30 559 H 53.5374 -4.15378 -0.244939 0
M  V30 560 H 52.4134 -5.43537 -0.765406 0
M  V30 561 H 52.6744 -4.03875 -1.79827 0
M  V30 562 N 51.7335 -0.305618 -1.54608 0
M  V30 563 C 52.6815 0.584119 -2.25146 0
M  V30 564 C 53.6755 1.13326 -1.25911 0
M  V30 565 O 54.8815 1.08337 -1.43747 0
M  V30 566 H 51.2565 0.206983 -0.722954 0
M  V30 567 H 53.2275 -0.033291 -2.98381 0
M  V30 568 C 51.9765 1.74225 -3.009 0
M  V30 569 H 51.2995 1.32892 -3.77067 0
M  V30 570 H 52.7395 2.34077 -3.53531 0
M  V30 571 C 51.1985 2.64914 -2.0814 0
M  V30 572 O 51.7285 3.66137 -1.65246 0
M  V30 573 N 49.9345 2.3275 -1.74 0
M  V30 574 H 49.4815 1.50479 -2.09078 0
M  V30 575 H 49.4395 2.93694 -1.12211 0
M  V30 576 N 53.2116 1.57565 -0.0334293 0
M  V30 577 C 54.1746 2.09393 0.932048 0
M  V30 578 C 55.1746 1.00986 1.25134 0
M  V30 579 O 56.3646 1.27129 1.19096 0
M  V30 580 C 53.4966 2.56338 2.2473 0
M  V30 581 H 54.6896 2.95984 0.483085 0
M  V30 582 H 52.2426 1.54819 0.21468 0
M  V30 583 H 52.9776 1.7309 2.74245 0
M  V30 584 H 52.7626 3.35542 2.02865 0
M  V30 585 H 54.2526 2.96646 2.93923 0
M  V30 586 N 54.6897 -0.239769 1.55765 0
M  V30 587 C 55.6197 -1.30052 1.9393 0
M  V30 588 C 56.6007 -1.49839 0.805132 0
M  V30 589 O 57.7857 -1.62328 1.06599 0
M  V30 590 C 54.9157 -2.65391 2.2402 0
M  V30 591 C 53.8697 -2.60289 3.39755 0
M  V30 592 C 53.1957 -3.99489 3.55405 0
M  V30 593 C 54.4957 -2.16654 4.75246 0
M  V30 594 H 56.1897 -0.983573 2.82783 0
M  V30 595 H 53.7357 -0.471701 1.36055 0
M  V30 596 H 55.6887 -3.3974 2.49308 0
M  V30 597 H 54.4127 -2.98736 1.32 0
M  V30 598 H 53.0717 -1.88398 3.14487 0
M  V30 599 H 52.7197 -4.30112 2.60793 0
M  V30 600 H 52.4197 -3.96962 4.33238 0
M  V30 601 H 53.9437 -4.75528 3.83022 0
M  V30 602 H 55.3577 -2.80737 4.99859 0
M  V30 603 H 53.7547 -2.25223 5.56232 0
M  V30 604 H 54.8247 -1.11835 4.71827 0
M  V30 605 N 56.1678 -1.49265 -0.50573 0
M  V30 606 C 57.4168 -1.57761 -1.25675 0
M  V30 607 C 57.7298 -0.267371 -1.93764 0
M  V30 608 O 58.9358 -0.230827 -2.70517 0
M  V30 609 C 57.3918 -2.78332 -2.28165 0
M  V30 610 C 56.9998 -4.16096 -1.66037 0
M  V30 611 C 58.7438 -2.96155 -3.04125 0
M  V30 612 C 56.6508 -5.27895 -2.6661 0
M  V30 613 H 55.5808 -0.587391 -0.472745 0
M  V30 614 H 58.2318 -1.75644 -0.53118 0
M  V30 615 H 56.6138 -2.53934 -3.03865 0
M  V30 616 H 57.7878 -4.50612 -0.963622 0
M  V30 617 H 56.1028 -4.03591 -1.02484 0
M  V30 618 H 58.6998 -3.76849 -3.79327 0
M  V30 619 H 59.0428 -2.06534 -3.61455 0
M  V30 620 H 59.5758 -3.2057 -2.35541 0
M  V30 621 H 56.3148 -6.1956 -2.14068 0
M  V30 622 H 55.8348 -4.97839 -3.34539 0
M  V30 623 H 57.5138 -5.57031 -3.29129 0
M  V30 624 N 57.6459 0.756429 -1.3826 0
M  V30 625 C 58.8919 1.51772 -1.34511 0
M  V30 626 C 59.2249 1.94089 0.0656691 0
M  V30 627 O 58.4999 1.65221 1.02626 0
M  V30 628 C 58.7829 2.77226 -2.29821 0
M  V30 629 C 58.6359 2.41065 -3.79747 0
M  V30 630 C 59.9549 3.79236 -2.23312 0
M  V30 631 H 57.0739 0.550578 -0.489931 0
M  V30 632 H 59.7159 0.866607 -1.69086 0
M  V30 633 H 57.8659 3.32784 -2.00467 0
M  V30 634 H 59.5379 1.91303 -4.19763 0
M  V30 635 H 57.7809 1.7356 -3.97567 0
M  V30 636 H 58.4519 3.3081 -4.41892 0
M  V30 637 H 60.9279 3.3321 -2.49219 0
M  V30 638 H 59.8039 4.64714 -2.92116 0
M  V30 639 H 60.0649 4.24615 -1.23102 0
M  V30 640 N 59.124 1.23083 0.984299 0
M  V30 641 C 60.054 1.03292 2.09411 0
M  V30 642 C 61.035 -0.048923 1.7003 0
M  V30 643 O 62.22 0.114967 1.93859 0
M  V30 644 C 59.35 0.619155 3.41736 0
M  V30 645 C 58.304 1.64791 3.95004 0
M  V30 646 C 57.63 1.0897 5.23478 0
M  V30 647 C 58.93 3.03999 4.24714 0
M  V30 648 H 60.624 1.96119 2.26225 0
M  V30 649 H 58.17 0.944344 1.08711 0
M  V30 650 H 60.123 0.467777 4.18796 0
M  V30 651 H 58.847 -0.344786 3.24775 0
M  V30 652 H 57.506 1.78721 3.20085 0
M  V30 653 H 57.154 0.11686 5.02864 0
M  V30 654 H 56.854 1.77704 5.60085 0
M  V30 655 H 58.378 0.950093 6.03163 0
M  V30 656 H 59.792 2.93393 4.92538 0
M  V30 657 H 58.189 3.69936 4.72512 0
M  V30 658 H 59.259 3.53285 3.32142 0
M  V30 659 N 60.6021 -1.18246 1.0419 0
M  V30 660 C 61.8501 -1.87886 0.744543 0
M  V30 661 C 62.1711 -1.8082 -0.730006 0
M  V30 662 O 61.4411 -1.22736 -1.52685 0
M  V30 663 H 60.0211 -0.695556 0.272417 0
M  V30 664 H 62.6831 -1.43494 1.31892 0
M  V30 665 H 61.7791 -2.9389 1.05049 0
M  V30 666 N 62.0802 -0.821533 -1.34494 0
M  V30 667 C 63.3082 -0.421884 -2.02553 0
M  V30 668 C 63.7232 0.971745 -1.61872 0
M  V30 669 O 63.0802 1.62864 -0.823496 0
M  V30 670 C 63.1312 -0.51285 -3.57844 0
M  V30 671 O 62.8522 -1.85155 -3.97051 0
M  V30 672 C 64.3532 -0.107921 -4.43169 0
M  V30 673 H 61.5732 -0.169482 -0.649243 0
M  V30 674 H 64.1172 -1.1093 -1.71798 0
M  V30 675 H 62.2722 0.126474 -3.87193 0
M  V30 676 H 62.6862 -1.82482 -4.91732 0
M  V30 677 H 64.1602 -0.222657 -5.51551 0
M  V30 678 H 64.6372 0.948401 -4.28838 0
M  V30 679 H 65.2432 -0.720989 -4.19144 0
M  V30 680 N 63.5583 1.46682 -0.576371 0
M  V30 681 C 64.7863 2.06798 -0.0649635 0
M  V30 682 C 65.2013 1.42612 1.23723 0
M  V30 683 O 64.5583 0.529203 1.74659 0
M  V30 684 C 64.6093 3.6132 0.114202 0
M  V30 685 O 64.3303 4.23104 -1.13644 0
M  V30 686 C 65.8313 4.38349 0.66069 0
M  V30 687 H 63.0513 0.668778 -0.0545616 0
M  V30 688 H 65.5953 1.88404 -0.795237 0
M  V30 689 H 63.7503 3.79162 0.794673 0
M  V30 690 H 64.1643 5.15894 -0.946253 0
M  V30 691 H 65.6383 5.47081 0.73526 0
M  V30 692 H 66.1153 4.05953 1.67627 0
M  V30 693 H 66.7213 4.25297 0.0152951 0
M  V30 694 N 65.0364 0.313813 1.54444 0
M  V30 695 C 66.2844 -0.291099 1.99993 0
M  V30 696 C 66.6054 -1.53418 1.20366 0
M  V30 697 O 65.8754 -1.93544 0.302927 0
M  V30 698 H 64.4554 -0.110552 0.738774 0
M  V30 699 H 67.1174 0.428106 1.9014 0
M  V30 700 H 66.2134 -0.554268 3.07139 0
M  V30 701 N 66.5145 -1.57545 0.0417849 0
M  V30 702 C 67.4245 -2.14451 -0.951213 0
M  V30 703 C 68.4405 -1.09992 -1.34825 0
M  V30 704 O 69.6165 -1.42114 -1.42708 0
M  V30 705 C 66.6815 -2.67063 -2.21084 0
M  V30 706 C 65.7425 -3.86284 -1.87304 0
M  V30 707 C 64.9755 -4.36378 -3.07261 0
M  V30 708 O 65.1985 -3.85587 -4.20332 0
M  V30 709 O 64.1325 -5.28077 -2.88822 0
M  V30 710 H 67.9585 -2.99601 -0.497287 0
M  V30 711 H 65.5435 -1.48317 -0.179567 0
M  V30 712 H 67.4255 -3.00914 -2.95006 0
M  V30 713 H 66.1005 -1.84989 -2.65633 0
M  V30 714 H 65.0075 -3.57338 -1.10727 0
M  V30 715 H 66.3405 -4.6956 -1.47562 0
M  V30 716 N 67.9926 0.231505 -1.5589 0
M  V30 717 C 69.2176 0.978689 -1.82856 0
M  V30 718 C 69.6426 1.77559 -0.620846 0
M  V30 719 O 69.0006 1.76119 0.430305 0
M  V30 720 C 69.0486 1.87997 -3.07716 0
M  V30 721 O 68.1526 2.97393 -2.85712 0
M  V30 722 H 67.4936 0.277663 -0.603158 0
M  V30 723 H 70.0236 0.24783 -2.03093 0
M  V30 724 H 70.0336 2.2917 -3.37558 0
M  V30 725 H 68.7086 1.29417 -3.95252 0
M  V30 726 H 67.2856 2.60238 -2.67078 0
M  V30 727 N 69.4707 1.49531 0.497807 0
M  V30 728 C 70.8817 1.52344 1.07927 0
M  V30 729 C 71.2327 0.311469 1.93712 0
M  V30 730 O 70.3577 -0.578405 2.08527 0
M  V30 731 C 70.9527 2.76062 1.96405 0
M  V30 732 C 69.5117 2.81643 2.49709 0
M  V30 733 C 68.6587 2.46299 1.27404 0
M  V30 734 H 71.6097 1.56182 0.281576 0
M  V30 735 H 71.6307 2.56405 2.81135 0
M  V30 736 H 71.1427 3.64254 1.33943 0
M  V30 737 H 69.2437 1.97739 3.15801 0
M  V30 738 H 69.3567 3.83891 2.86643 0
M  V30 739 H 67.7207 1.98148 1.60029 0
M  V30 740 H 68.5037 3.36769 0.66645 0
M  V30 741 N 70.9488 -0.749086 1.3866 0
M  V30 742 C 72.1768 -1.53834 1.38358 0
M  V30 743 C 72.5918 -1.88783 -0.0255219 0
M  V30 744 O 71.9488 -1.53101 -0.993292 0
M  V30 745 C 71.9998 -2.83468 2.2434 0
M  V30 746 O 71.7208 -2.50008 3.5976 0
M  V30 747 C 73.2218 -3.7758 2.32267 0
M  V30 748 H 70.4418 -0.47585 0.473083 0
M  V30 749 H 72.9858 -0.926726 1.82297 0
M  V30 750 H 71.1408 -3.40995 1.83851 0
M  V30 751 H 71.5548 -3.33182 4.05081 0
M  V30 752 H 73.0288 -4.65478 2.96706 0
M  V30 753 H 73.5058 -4.18334 1.33765 0
M  V30 754 H 74.1118 -3.25976 2.73166 0
M  V30 755 N 72.4269 -1.23603 -0.977757 0
M  V30 756 C 73.6729 -1.07129 -1.72195 0
M  V30 757 C 74.0059 0.390501 -1.90233 0
M  V30 758 O 73.2809 1.28902 -1.45653 0
M  V30 759 C 73.5639 -1.80031 -3.11867 0
M  V30 760 C 73.4169 -3.33899 -3.01383 0
M  V30 761 C 74.7359 -1.56492 -4.11337 0
M  V30 762 H 71.8549 -0.390571 -0.624999 0
M  V30 763 H 74.4969 -1.52142 -1.13811 0
M  V30 764 H 72.6469 -1.41768 -3.6171 0
M  V30 765 H 74.3189 -3.81699 -2.59043 0
M  V30 766 H 72.5619 -3.62796 -2.37827 0
M  V30 767 H 73.2329 -3.801 -4.00285 0
M  V30 768 H 75.7089 -1.89757 -3.70313 0
M  V30 769 H 74.5849 -2.09973 -5.07151 0
M  V30 770 H 74.8459 -0.500874 -4.39254 0
M  V30 771 N 73.905 1.17692 -1.04816 0
M  V30 772 C 74.853 2.23632 -0.63966 0
M  V30 773 C 75.847 1.6601 0.337219 0
M  V30 774 O 77.053 1.78844 0.203693 0
M  V30 775 H 73.428 0.727949 -0.188665 0
M  V30 776 H 75.399 2.55387 -1.54337 0
M  V30 777 C 74.148 3.4769 -0.0264051 0
M  V30 778 H 73.471 3.92331 -0.769164 0
M  V30 779 H 74.911 4.23418 0.222098 0
M  V30 780 C 73.37 3.13807 1.22584 0
M  V30 781 O 73.9 3.28236 2.31569 0
M  V30 782 N 72.106 2.68065 1.12202 0
M  V30 783 H 71.653 2.56525 0.235133 0
M  V30 784 H 71.611 2.45767 1.96076 0
M  V30 785 N 75.3831 0.828654 1.34056 0
M  V30 786 C 76.2931 0.256725 2.33191 0
M  V30 787 C 77.3091 -0.611898 1.62886 0
M  V30 788 O 78.4851 -0.51844 1.94613 0
M  V30 789 C 75.5501 -0.567238 3.42028 0
M  V30 790 C 74.6111 0.324458 4.28072 0
M  V30 791 C 73.8441 -0.460274 5.31712 0
M  V30 792 O 74.0671 -1.693 5.44696 0
M  V30 793 O 73.0011 0.160391 6.01686 0
M  V30 794 H 76.8271 1.07739 2.83947 0
M  V30 795 H 74.4121 0.59093 1.37217 0
M  V30 796 H 76.2941 -1.03582 4.08471 0
M  V30 797 H 74.9691 -1.36513 2.93506 0
M  V30 798 H 73.8761 0.840659 3.64532 0
M  V30 799 H 75.2091 1.08685 4.8005 0
M  V30 800 N 76.8612 -1.46375 0.584142 0
M  V30 801 C 78.1382 -1.956 0.0033388 0
M  V30 802 C 78.5182 -1.52679 -1.45782 0
M  V30 803 O 77.8662 -0.77816 -2.14842 0
M  V30 804 C 78.0762 -3.48551 0.176891 0
M  V30 805 C 79.4242 -4.24576 0.0454609 0
M  V30 806 O 80.4482 -3.56043 0.105801 0
M  V30 807 O 79.3072 -5.46427 -0.0890376 0
M  V30 808 H 76.4012 -0.825547 -0.0490066 0
M  V30 809 H 78.9472 -1.56652 0.65256 0
M  V30 810 H 77.7192 -3.72683 1.1926 0
M  V30 811 H 77.3422 -3.94332 -0.508695 0
M  V30 812 N 78.3393 -0.321999 -1.54275 0
M  V30 813 C 79.2493 0.553631 -2.27974 0
M  V30 814 C 80.2653 1.13054 -1.32268 0
M  V30 815 O 81.4413 1.15084 -1.6528 0
M  V30 816 C 78.5063 1.69927 -3.02201 0
M  V30 817 C 77.5673 1.15433 -4.1349 0
M  V30 818 C 76.8003 2.24537 -4.84168 0
M  V30 819 O 77.0233 3.44852 -4.5435 0
M  V30 820 O 75.9573 1.90044 -5.7111 0
M  V30 821 H 79.7833 -0.0448345 -3.03667 0
M  V30 822 H 77.3683 -0.0877418 -1.49142 0
M  V30 823 H 79.2503 2.3663 -3.48689 0
M  V30 824 H 77.9253 2.28395 -2.29385 0
M  V30 825 H 76.8323 0.452436 -3.71354 0
M  V30 826 H 78.1653 0.614805 -4.88345 0
M  V30 827 N 79.8174 1.5752 -0.0501392 0
M  V30 828 C 81.2334 1.56631 0.306402 0
M  V30 829 C 81.4334 1.0577 1.71508 0
M  V30 830 O 80.4894 0.713837 2.422 0
M  V30 831 C 81.8024 3.00393 0.135811 0
M  V30 832 C 83.3504 3.12315 0.206993 0
M  V30 833 C 83.8254 4.57954 0.064944 0
M  V30 834 N 85.3164 4.63041 0.121254 0
M  V30 835 C 86.0514 5.73389 0.0354381 0
M  V30 836 N 85.5474 6.92724 -0.102666 0
M  V30 837 N 87.3404 5.62026 0.090946 0
M  V30 838 H 79.4914 1.88903 -0.971046 0
M  V30 839 H 81.7544 0.869876 -0.376855 0
M  V30 840 H 81.4604 3.41635 -0.835384 0
M  V30 841 H 81.3344 3.66373 0.897275 0
M  V30 842 H 83.7214 2.70973 1.16866 0
M  V30 843 H 83.8024 2.49016 -0.585208 0
M  V30 844 H 83.4464 4.99981 -0.893394 0
M  V30 845 H 83.3764 5.19258 0.876277 0
M  V30 846 H 85.8674 3.77216 0.227284 0
M  V30 847 H 86.1804 7.72633 -0.160882 0
M  V30 848 H 84.5254 6.94864 -0.137737 0
M  V30 849 H 87.7164 4.67684 0.197388 0
M  V30 850 H 87.8894 6.47997 0.0206089 0
M  V30 851 N 81.2955 -0.223234 1.56011 0
M  V30 852 C 82.2055 -1.29766 1.95443 0
M  V30 853 C 83.2215 -1.51373 0.858028 0
M  V30 854 O 84.3975 -1.64536 1.16146 0
M  V30 855 C 81.4625 -2.62772 2.26167 0
M  V30 856 C 80.5235 -2.49482 3.49367 0
M  V30 857 C 79.7565 -3.76145 3.78616 0
M  V30 858 O 79.9795 -4.79087 3.09568 0
M  V30 859 O 78.9135 -3.73358 4.72109 0
M  V30 860 H 82.7395 -0.99309 2.87004 0
M  V30 861 H 80.3245 -0.425958 1.43199 0
M  V30 862 H 82.2065 -3.41327 2.47131 0
M  V30 863 H 80.8815 -2.92913 1.37781 0
M  V30 864 H 79.7885 -1.69133 3.33684 0
M  V30 865 H 81.1215 -2.2428 4.38131 0
M  V30 866 N 82.7736 -1.49793 -0.48987 0
M  V30 867 C 83.7206 -1.67281 -1.59014 0
M  V30 868 C 84.6906 -0.514177 -1.57941 0
M  V30 869 O 85.8756 -0.742533 -1.75759 0
M  V30 870 C 83.0156 -1.75569 -2.97102 0
M  V30 871 C 82.1286 -3.0281 -3.08107 0
M  V30 872 C 81.2636 -3.02008 -4.36995 0
M  V30 873 C 80.3026 -4.23782 -4.41673 0
M  V30 874 N 79.4396 -4.20826 -5.62005 0
M  V30 875 H 84.2796 -2.61224 -1.43409 0
M  V30 876 H 81.8166 -1.29508 -0.697565 0
M  V30 877 H 83.7746 -1.78354 -3.77155 0
M  V30 878 H 82.4046 -0.850827 -3.11385 0
M  V30 879 H 81.4566 -3.09584 -2.21047 0
M  V30 880 H 82.7686 -3.92801 -3.07423 0
M  V30 881 H 81.9226 -3.03418 -5.25378 0
M  V30 882 H 80.6616 -2.09815 -4.4026 0
M  V30 883 H 79.6666 -4.22604 -3.5169 0
M  V30 884 H 80.8916 -5.17181 -4.40115 0
M  V30 885 H 78.8376 -3.31476 -5.66091 0
M  V30 886 H 78.7546 -5.04564 -5.62984 0
M  V30 887 H 80.0226 -4.26355 -6.52565 0
M  V30 888 N 84.2517 0.741722 -1.39055 0
M  V30 889 C 85.1817 1.869 -1.39966 0
M  V30 890 C 86.1627 1.6804 -0.26392 0
M  V30 891 O 87.3477 1.88458 -0.468755 0
M  V30 892 C 84.4777 3.24572 -1.23574 0
M  V30 893 C 83.4317 3.58056 -2.34477 0
M  V30 894 C 82.7577 4.94593 -2.0318 0
M  V30 895 C 84.0577 3.61716 -3.76774 0
M  V30 896 H 85.7517 1.86395 -2.34302 0
M  V30 897 H 83.2977 0.895361 -1.1278 0
M  V30 898 H 85.2507 4.031 -1.22834 0
M  V30 899 H 83.9747 3.25587 -0.257045 0
M  V30 900 H 82.6337 2.81854 -2.34423 0
M  V30 901 H 82.2817 4.92181 -1.03765 0
M  V30 902 H 81.9817 5.17964 -2.77465 0
M  V30 903 H 83.5057 5.75486 -2.04079 0
M  V30 904 H 84.9197 4.30335 -3.78794 0
M  V30 905 H 83.3167 3.96603 -4.50362 0
M  V30 906 H 84.3867 2.61672 -4.08235 0
M  V30 907 N 85.7298 1.2412 0.971189 0
M  V30 908 C 86.9758 1.08041 1.71625 0
M  V30 909 C 87.3088 -0.380407 1.90438 0
M  V30 910 O 86.5838 -1.28127 1.46334 0
M  V30 911 C 86.8668 1.81682 3.10908 0
M  V30 912 C 86.7198 3.35493 2.99608 0
M  V30 913 C 88.0388 1.58671 4.10501 0
M  V30 914 H 85.1578 0.39388 0.622919 0
M  V30 915 H 87.7998 1.52743 1.13003 0
M  V30 916 H 85.9498 1.43684 3.60953 0
M  V30 917 H 87.6218 3.83068 2.57015 0
M  V30 918 H 85.8648 3.64052 2.35899 0
M  V30 919 H 86.5358 3.82217 3.98264 0
M  V30 920 H 89.0118 1.91719 3.69301 0
M  V30 921 H 87.8878 2.1266 5.06031 0
M  V30 922 H 88.1488 0.524161 4.38982 0
M  V30 923 N 87.2079 -1.17134 1.05439 0
M  V30 924 C 88.4329 -1.91913 0.786396 0
M  V30 925 C 88.8579 -1.7643 -0.652234 0
M  V30 926 O 88.2159 -1.08372 -1.45345 0
M  V30 927 C 88.2639 -3.40921 1.17497 0
M  V30 928 O 87.3679 -4.11244 0.308589 0
M  V30 929 H 86.7089 -0.598215 0.288158 0
M  V30 930 H 89.2389 -1.48457 1.4079 0
M  V30 931 H 89.2489 -3.91668 1.14281 0
M  V30 932 H 87.9239 -3.5151 2.22292 0
M  V30 933 H 86.5009 -3.70731 0.40157 0
M  V30 934 N 88.686 -0.835752 -1.33615 0
M  V30 935 C 90.102 -0.523139 -1.50783 0
M  V30 936 C 90.302 0.950171 -1.77691 0
M  V30 937 O 89.358 1.73411 -1.83534 0
M  V30 938 C 90.671 -1.39378 -2.66448 0
M  V30 939 C 92.219 -1.39223 -2.80332 0
M  V30 940 C 92.694 -2.24765 -3.99055 0
M  V30 941 N 94.185 -2.22458 -4.06284 0
M  V30 942 C 94.92 -2.85386 -4.97336 0
M  V30 943 N 94.416 -3.57354 -5.93523 0
M  V30 944 N 96.209 -2.74872 -4.90308 0
M  V30 945 H 88.36 -1.78952 -1.14411 0
M  V30 946 H 90.623 -0.763297 -0.562212 0
M  V30 947 H 90.329 -2.44061 -2.53234 0
M  V30 948 H 90.203 -1.0676 -3.61776 0
M  V30 949 H 92.59 -0.353136 -2.92979 0
M  V30 950 H 92.671 -1.75846 -1.85773 0
M  V30 951 H 92.315 -3.28732 -3.87167 0
M  V30 952 H 92.245 -1.85485 -4.92852 0
M  V30 953 H 94.736 -1.70119 -3.37443 0
M  V30 954 H 95.049 -4.02584 -6.59656 0
M  V30 955 H 93.394 -3.61461 -5.93608 0
M  V30 956 H 96.585 -2.18213 -4.14126 0
M  V30 957 H 96.758 -3.24199 -5.61069 0
M  V30 958 N 90.1641 1.46063 -0.591896 0
M  V30 959 C 91.3921 2.06717 -0.0868936 0
M  V30 960 C 91.8071 1.43916 1.22203 0
M  V30 961 O 91.1641 0.547698 1.74088 0
M  V30 962 C 91.2151 3.6142 0.0758725 0
M  V30 963 O 90.9361 4.21874 -1.18126 0
M  V30 964 C 92.4371 4.39025 0.61416 0
M  V30 965 H 89.6571 0.668162 -0.0616518 0
M  V30 966 H 92.2011 1.8755 -0.815175 0
M  V30 967 H 90.3561 3.79983 0.754413 0
M  V30 968 H 90.7701 5.14861 -1.00092 0
M  V30 969 H 92.2441 5.4783 0.677193 0
M  V30 970 H 92.7211 4.07708 1.63312 0
M  V30 971 H 93.3271 4.2529 -0.0298142 0
M  V30 972 N 91.6422 0.330177 1.54103 0
M  V30 973 C 92.5722 -0.525353 2.27513 0
M  V30 974 C 93.5532 -1.11383 1.2856 0
M  V30 975 O 94.7382 -1.13773 1.57383 0
M  V30 976 C 91.8682 -1.6831 3.03791 0
M  V30 977 C 90.8222 -1.2236 4.10137 0
M  V30 978 C 90.1482 -2.46882 4.74293 0
M  V30 979 C 91.4482 -0.333697 5.21233 0
M  V30 980 H 93.1422 0.087013 2.99274 0
M  V30 981 H 90.6882 0.0432893 1.43935 0
M  V30 982 H 92.6412 -2.28795 3.5388 0
M  V30 983 H 91.3652 -2.32216 2.29659 0
M  V30 984 H 90.0242 -0.64165 3.60941 0
M  V30 985 H 89.6722 -3.09165 3.96769 0
M  V30 986 H 89.3722 -2.16825 5.46133 0
M  V30 987 H 90.8962 -3.08117 5.27159 0
M  V30 988 H 92.3102 -0.845013 5.67038 0
M  V30 989 H 90.7072 -0.125612 5.99969 0
M  V30 990 H 91.7772 0.633724 4.80741 0
M  V30 991 N 93.1203 -1.57491 0.0584922 0
M  V30 992 C 94.0303 -2.15448 -0.928414 0
M  V30 993 C 95.0463 -1.11416 -1.3365 0
M  V30 994 O 96.2223 -1.4362 -1.41193 0
M  V30 995 C 93.2873 -2.69393 -2.18239 0
M  V30 996 C 92.3483 -3.88249 -1.83196 0
M  V30 997 C 91.5813 -4.39613 -3.02616 0
M  V30 998 O 91.8043 -3.90023 -4.16219 0
M  V30 999 O 90.7383 -5.31111 -2.83204 0
M  V30 1000 H 94.5643 -3.00112 -0.465483 0
M  V30 1001 H 92.1493 -1.48499 -0.163826 0
M  V30 1002 H 94.0313 -3.04026 -2.91798 0
M  V30 1003 H 92.7063 -1.87796 -2.63656 0
M  V30 1004 H 91.6133 -3.58492 -1.06931 0
M  V30 1005 H 92.9463 -4.71098 -1.42573 0
M  V30 1006 N 94.5984 0.214957 -1.56127 0
M  V30 1007 C 95.8474 0.936451 -1.78643 0
M  V30 1008 C 96.1604 1.85237 -0.628229 0
M  V30 1009 O 97.3664 2.613 -0.737186 0
M  V30 1010 C 95.8224 1.7154 -3.16389 0
M  V30 1011 C 95.4304 0.845299 -4.39953 0
M  V30 1012 C 97.1744 2.42772 -3.48227 0
M  V30 1013 C 95.0814 1.62198 -5.68723 0
M  V30 1014 H 94.0114 0.353401 -0.666051 0
M  V30 1015 H 96.6624 0.190169 -1.82512 0
M  V30 1016 H 95.0444 2.50484 -3.06715 0
M  V30 1017 H 96.2184 0.0959353 -4.607 0
M  V30 1018 H 94.5334 0.244789 -4.1568 0
M  V30 1019 H 97.1304 3.01394 -4.41663 0
M  V30 1020 H 97.4734 3.15984 -2.71035 0
M  V30 1021 H 98.0064 1.70813 -3.5926 0
M  V30 1022 H 94.7454 0.933011 -6.48826 0
M  V30 1023 H 94.2654 2.34579 -5.52026 0
M  V30 1024 H 95.9444 2.18095 -6.09133 0
M  V30 1025 N 96.0765 1.50051 0.48192 0
M  V30 1026 C 97.3225 1.60736 1.2366 0
M  V30 1027 C 97.6555 0.301786 1.91841 0
M  V30 1028 O 96.9305 -0.696025 1.8162 0
M  V30 1029 C 97.2135 2.78009 2.28874 0
M  V30 1030 C 97.0665 4.18416 1.65069 0
M  V30 1031 C 98.3855 2.90867 3.30279 0
M  V30 1032 H 95.5045 0.585031 0.448228 0
M  V30 1033 H 98.1465 1.82402 0.531946 0
M  V30 1034 H 96.2965 2.59667 2.88973 0
M  V30 1035 H 97.9685 4.48322 1.0865 0
M  V30 1036 H 96.2115 4.23177 0.954148 0
M  V30 1037 H 96.8825 4.96381 2.41474 0
M  V30 1038 H 99.3585 3.07623 2.80191 0
M  V30 1039 H 98.2345 3.74566 4.01238 0
M  V30 1040 H 98.4955 2.01021 3.93755 0
M  V30 1041 N 97.5546 -0.734337 1.39446 0
M  V30 1042 C 98.8316 -1.48579 1.27215 0
M  V30 1043 C 99.2116 -2.1077 -0.117968 0
M  V30 1044 O 98.5596 -1.98646 -1.12924 0
M  V30 1045 C 98.7696 -2.53667 2.39696 0
M  V30 1046 C 100.118 -3.20031 2.79044 0
M  V30 1047 O 101.142 -2.6398 2.39151 0
M  V30 1048 O 100.001 -4.21455 3.47905 0
M  V30 1049 H 97.0946 -0.659816 0.49857 0
M  V30 1050 H 99.6406 -0.768106 1.51322 0
M  V30 1051 H 98.4126 -2.06096 3.32626 0
M  V30 1052 H 98.0356 -3.32994 2.17258 0
M  V30 1053 N 99.0327 -1.24633 -0.964593 0
M  V30 1054 C 100.281 -1.08573 -1.70459 0
M  V30 1055 C 100.602 0.375655 -1.91347 0
M  V30 1056 O 99.8717 1.26779 -1.49345 0
M  V30 1057 H 98.4517 -0.398784 -0.631649 0
M  V30 1058 H 101.114 -1.56601 -1.16026 0
M  V30 1059 H 100.21 -1.58623 -2.68785 0
M  V30 1060 N 100.511 1.16574 -1.06058 0
M  V30 1061 C 101.458 2.20883 -0.669263 0
M  V30 1062 C 102.428 1.62729 0.332918 0
M  V30 1063 O 103.613 1.895 0.222346 0
M  V30 1064 C 100.753 3.45049 -0.0593572 0
M  V30 1065 C 99.8658 4.17458 -1.11143 0
M  V30 1066 C 99.0008 5.29135 -0.467916 0
M  V30 1067 C 98.0398 5.93343 -1.50369 0
M  V30 1068 N 97.1768 6.96516 -0.883706 0
M  V30 1069 H 102.017 2.53709 -1.5632 0
M  V30 1070 H 99.5538 1.24616 -0.781625 0
M  V30 1071 H 101.512 4.16033 0.311771 0
M  V30 1072 H 100.142 3.12781 0.797992 0
M  V30 1073 H 99.1938 3.45101 -1.60029 0
M  V30 1074 H 100.506 4.61307 -1.89731 0
M  V30 1075 H 99.6598 6.06684 -0.0436871 0
M  V30 1076 H 98.3988 4.86443 0.349864 0
M  V30 1077 H 97.4038 5.14517 -1.93784 0
M  V30 1078 H 98.6288 6.38114 -2.32352 0
M  V30 1079 H 96.5748 6.55943 -0.086595 0
M  V30 1080 H 96.4918 7.38723 -1.607 0
M  V30 1081 H 97.7598 7.77993 -0.484543 0
M  V30 1082 N 101.989 0.842826 1.3317 0
M  V30 1083 C 103.238 0.436738 1.96915 0
M  V30 1084 C 103.551 -1.01025 1.67491 0
M  V30 1085 O 104.757 -1.5212 2.24881 0
M  V30 1086 C 103.213 0.730021 3.52418 0
M  V30 1087 C 102.821 2.19195 3.90714 0
M  V30 1088 C 104.565 0.391076 4.22695 0
M  V30 1089 C 102.472 2.42907 5.39212 0
M  V30 1090 H 101.402 0.15958 0.736919 0
M  V30 1091 H 104.053 1.03196 1.51733 0
M  V30 1092 H 102.435 0.0643755 3.95948 0
M  V30 1093 H 103.609 2.8984 3.58231 0
M  V30 1094 H 101.924 2.49425 3.33431 0
M  V30 1095 H 104.521 0.545817 5.31907 0
M  V30 1096 H 104.864 -0.666294 4.10933 0
M  V30 1097 H 105.397 1.01212 3.84709 0
M  V30 1098 H 102.136 3.47224 5.55982 0
M  V30 1099 H 101.656 1.76827 5.73142 0
M  V30 1100 H 103.335 2.2626 6.06148 0
M  V30 1101 N 103.467 -1.45747 0.599634 0
M  V30 1102 C 104.878 -1.85853 0.177681 0
M  V30 1103 C 105.229 -1.50102 -1.26348 0
M  V30 1104 O 104.354 -0.923905 -1.95686 0
M  V30 1105 C 104.949 -3.37326 0.315688 0
M  V30 1106 C 103.508 -3.76365 -0.0515144 0
M  V30 1107 C 102.655 -2.69722 0.643822 0
M  V30 1108 H 105.606 -1.36661 0.806814 0
M  V30 1109 H 105.627 -3.77778 -0.454321 0
M  V30 1110 H 105.139 -3.63315 1.36468 0
M  V30 1111 H 103.24 -3.55993 -1.09999 0
M  V30 1112 H 103.353 -4.77916 0.336594 0
M  V30 1113 H 101.717 -2.54567 0.0822881 0
M  V30 1114 H 102.5 -2.98549 1.6948 0
M  V30 1115 N 104.945 -0.338344 -1.53925 0
M  V30 1116 C 106.191 0.260143 -2.01125 0
M  V30 1117 C 106.524 1.50617 -1.22589 0
M  V30 1118 O 105.799 1.91979 -0.312113 0
M  V30 1119 C 106.082 0.579499 -3.55407 0
M  V30 1120 C 105.935 -0.678264 -4.44657 0
M  V30 1121 C 107.254 1.39122 -4.17532 0
M  V30 1122 H 104.373 0.0930772 -0.731099 0
M  V30 1123 H 107.015 -0.457852 -1.84401 0
M  V30 1124 H 105.165 1.19118 -3.69788 0
M  V30 1125 H 106.837 -1.31631 -4.42121 0
M  V30 1126 H 105.08 -1.3042 -4.13731 0
M  V30 1127 H 105.751 -0.410143 -5.50474 0
M  V30 1128 H 108.227 0.874035 -4.06817 0
M  V30 1129 H 107.103 1.58342 -5.25565 0
M  V30 1130 H 107.364 2.39178 -3.71815 0
M  V30 1131 N 106.423 1.57458 -0.0668435 0
M  V30 1132 C 107.672 1.92477 0.602947 0
M  V30 1133 C 107.985 0.948419 1.71068 0
M  V30 1134 O 109.191 1.19124 2.43971 0
M  V30 1135 C 107.647 3.41903 1.12383 0
M  V30 1136 C 107.255 4.47975 0.04737 0
M  V30 1137 C 108.999 3.85931 1.76797 0
M  V30 1138 C 106.906 5.88529 0.582022 0
M  V30 1139 H 105.836 0.718387 0.22899 0
M  V30 1140 H 108.487 1.82978 -0.138276 0
M  V30 1141 H 106.869 3.46459 1.91787 0
M  V30 1142 H 108.043 4.55029 -0.726978 0
M  V30 1143 H 106.358 4.13384 -0.500243 0
M  V30 1144 H 108.955 4.88322 2.17821 0
M  V30 1145 H 109.298 3.23029 2.62599 0
M  V30 1146 H 109.831 3.83958 1.04024 0
M  V30 1147 H 106.57 6.55065 -0.238721 0
M  V30 1148 H 106.09 5.85004 1.324 0
M  V30 1149 H 107.769 6.38258 1.05999 0
M  V30 1150 N 107.901 -0.206675 1.56239 0
M  V30 1151 C 109.147 -0.930218 1.80208 0
M  V30 1152 C 109.48 -1.83387 0.638981 0
M  V30 1153 O 108.755 -1.91119 -0.361066 0
M  V30 1154 C 109.038 -1.75641 3.1436 0
M  V30 1155 C 108.891 -0.878257 4.41142 0
M  V30 1156 C 110.21 -2.73129 3.45092 0
M  V30 1157 H 107.329 -0.336742 0.655571 0
M  V30 1158 H 109.971 -0.198222 1.88963 0
M  V30 1159 H 108.121 -2.38048 3.07027 0
M  V30 1160 H 109.793 -0.269787 4.6051 0
M  V30 1161 H 108.036 -0.184385 4.33408 0
M  V30 1162 H 108.707 -1.49106 5.3148 0
M  V30 1163 H 111.183 -2.20856 3.52649 0
M  V30 1164 H 110.059 -3.28028 4.40101 0
M  V30 1165 H 110.32 -3.51606 2.68003 0
M  V30 1166 N 109.379 -1.50304 -0.473955 0
M  V30 1167 C 110.627 -1.60832 -1.22382 0
M  V30 1168 C 110.948 -0.30939 -1.9253 0
M  V30 1169 O 110.218 0.67296 -1.83978 0
M  V30 1170 H 108.798 -0.592652 -0.454723 0
M  V30 1171 H 111.46 -1.87068 -0.546968 0
M  V30 1172 H 110.556 -2.41803 -1.97327 0
M  V30 1173 N 110.857 0.726932 -1.39834 0
M  V30 1174 C 111.82 1.82269 -1.38962 0
M  V30 1175 C 112.82 1.58248 -0.285334 0
M  V30 1176 O 114.01 1.65499 -0.54366 0
M  V30 1177 C 111.142 3.20186 -1.17019 0
M  V30 1178 H 112.335 1.84443 -2.36476 0
M  V30 1179 H 109.888 0.931416 -1.25516 0
M  V30 1180 H 110.623 3.23669 -0.202204 0
M  V30 1181 H 110.408 3.3902 -1.96998 0
M  V30 1182 H 111.898 4.00235 -1.1917 0
M  V30 1183 N 112.336 1.25143 0.95797 0
M  V30 1184 C 113.584 1.09476 1.69881 0
M  V30 1185 C 113.905 -0.365502 1.91544 0
M  V30 1186 O 113.175 -1.25985 1.50015 0
M  V30 1187 H 111.755 0.402128 0.629525 0
M  V30 1188 H 114.417 1.57214 1.15194 0
M  V30 1189 H 113.513 1.60046 2.6794 0
M  V30 1190 N 113.814 -1.1601 1.06675 0
M  V30 1191 C 115.042 -1.90527 0.806667 0
M  V30 1192 C 115.457 -1.77643 -0.639396 0
M  V30 1193 O 114.814 -1.12369 -1.43803 0
M  V30 1194 C 114.865 -3.41106 1.19705 0
M  V30 1195 O 114.586 -3.53608 2.58636 0
M  V30 1196 C 116.087 -4.32663 0.965266 0
M  V30 1197 H 113.307 -0.604053 0.292166 0
M  V30 1198 H 115.851 -1.47026 1.4214 0
M  V30 1199 H 114.006 -3.82296 0.626774 0
M  V30 1200 H 114.42 -4.47011 2.74375 0
M  V30 1201 H 115.894 -5.36763 1.288 0
M  V30 1202 H 116.371 -4.39089 -0.0987936 0
M  V30 1203 H 116.977 -3.97206 1.52011 0
M  V30 1204 N 115.292 -0.849877 -1.32721 0
M  V30 1205 C 116.24 -0.279745 -2.30912 0
M  V30 1206 C 117.234 0.594278 -1.58634 0
M  V30 1207 O 118.44 0.482613 -1.73409 0
M  V30 1208 H 114.815 -0.0717521 -0.748569 0
M  V30 1209 H 116.786 -1.12222 -2.76494 0
M  V30 1210 C 115.535 0.521108 -3.43773 0
M  V30 1211 H 114.858 -0.142141 -3.99547 0
M  V30 1212 H 116.298 0.885693 -4.14646 0
M  V30 1213 C 114.757 1.70442 -2.90605 0
M  V30 1214 O 115.287 2.8034 -2.87702 0
M  V30 1215 N 113.493 1.52991 -2.47067 0
M  V30 1216 H 113.04 0.635914 -2.49628 0
M  V30 1217 H 112.998 2.32311 -2.11847 0
M  V30 1218 N 116.77 1.45427 -0.607355 0
M  V30 1219 C 117.995 2.07124 -0.107006 0
M  V30 1220 C 118.42 1.44906 1.19933 0
M  V30 1221 O 117.778 0.541687 1.73019 0
M  V30 1222 C 117.826 3.60595 0.0194119 0
M  V30 1223 O 116.93 3.98285 1.0697 0
M  V30 1224 H 116.271 0.659868 -0.0739597 0
M  V30 1225 H 118.801 1.86683 -0.837297 0
M  V30 1226 H 118.811 4.07419 0.2177 0
M  V30 1227 H 117.486 4.05266 -0.934453 0
M  V30 1228 H 116.063 3.63133 0.847889 0
M  V30 1229 N 118.248 0.346503 1.53744 0
M  V30 1230 C 119.476 -0.25041 2.05379 0
M  V30 1231 C 119.891 -1.43979 1.22129 0
M  V30 1232 O 119.248 -1.80677 0.257321 0
M  V30 1233 C 119.299 -0.662575 3.55376 0
M  V30 1234 O 119.02 0.479515 4.35468 0
M  V30 1235 C 120.521 -1.31989 4.23195 0
M  V30 1236 H 117.741 -0.0478198 0.669294 0
M  V30 1237 H 120.285 0.499346 1.9831 0
M  V30 1238 H 118.44 -1.36227 3.62658 0
M  V30 1239 H 118.854 0.15037 5.24284 0
M  V30 1240 H 120.328 -1.55902 5.29527 0
M  V30 1241 H 120.805 -2.27436 3.75725 0
M  V30 1242 H 121.411 -0.662154 4.20114 0
M  V30 1243 N 119.726 -1.57421 0.075193 0
M  V30 1244 C 120.636 -2.1642 -0.905511 0
M  V30 1245 C 121.652 -1.12828 -1.32461 0
M  V30 1246 O 122.828 -1.45109 -1.39661 0
M  V30 1247 C 119.893 -2.71693 -2.15369 0
M  V30 1248 C 118.954 -3.90171 -1.79068 0
M  V30 1249 C 118.187 -4.42798 -2.97936 0
M  V30 1250 O 118.41 -3.94416 -4.12058 0
M  V30 1251 O 117.344 -5.34085 -2.77555 0
M  V30 1252 H 121.17 -3.00588 -0.433626 0
M  V30 1253 H 118.755 -1.48664 -0.148067 0
M  V30 1254 H 120.637 -3.07104 -2.88557 0
M  V30 1255 H 119.312 -1.90582 -2.61649 0
M  V30 1256 H 118.219 -3.59606 -1.03122 0
M  V30 1257 H 119.552 -4.72584 -1.37569 0
M  V30 1258 N 121.204 0.198386 -1.56346 0
M  V30 1259 C 122.151 1.24589 -1.94284 0
M  V30 1260 C 123.121 1.454 -0.802997 0
M  V30 1261 O 124.306 1.58588 -1.06087 0
M  V30 1262 C 121.446 2.58631 -2.28482 0
M  V30 1263 C 120.559 2.45426 -3.55514 0
M  V30 1264 C 119.694 3.7215 -3.79049 0
M  V30 1265 C 118.733 3.53763 -4.99518 0
M  V30 1266 N 117.87 4.72491 -5.19323 0
M  V30 1267 H 122.71 0.915356 -2.83593 0
M  V30 1268 H 120.247 0.440629 -1.40346 0
M  V30 1269 H 122.205 3.3672 -2.46324 0
M  V30 1270 H 120.835 2.89734 -1.42317 0
M  V30 1271 H 119.887 1.58652 -3.45737 0
M  V30 1272 H 121.199 2.27772 -4.43758 0
M  V30 1273 H 120.353 4.58679 -3.97113 0
M  V30 1274 H 119.092 3.92754 -2.89129 0
M  V30 1275 H 118.097 2.65619 -4.8138 0
M  V30 1276 H 119.322 3.34607 -5.90944 0
M  V30 1277 H 117.268 4.93365 -4.3235 0
M  V30 1278 H 117.185 4.5765 -6.01741 0
M  V30 1279 H 118.453 5.6038 -5.41843 0
M  V30 1280 N 122.682 1.50554 0.465978 0
M  V30 1281 C 123.91 1.65563 1.24083 0
M  V30 1282 C 124.325 0.341051 1.85694 0
M  V30 1283 O 123.682 -0.677543 1.69457 0
M  V30 1284 C 123.733 2.75051 2.34583 0
M  V30 1285 O 123.454 4.01413 1.75497 0
M  V30 1286 C 124.955 3.01078 3.25372 0
M  V30 1287 H 122.175 0.55638 0.375077 0
M  V30 1288 H 124.719 1.96807 0.555624 0
M  V30 1289 H 122.874 2.46486 2.9887 0
M  V30 1290 H 123.288 4.62002 2.48303 0
M  V30 1291 H 124.762 3.81339 3.99105 0
M  V30 1292 H 125.239 2.12349 3.84453 0
M  V30 1293 H 125.845 3.31194 2.66816 0
M  V30 1294 N 124.16 -0.719506 1.40217 0
M  V30 1295 C 125.09 -1.8465 1.42922 0
M  V30 1296 C 126.071 -1.67599 0.29062 0
M  V30 1297 O 127.256 -1.87688 0.498677 0
M  V30 1298 C 124.386 -3.22565 1.28722 0
M  V30 1299 C 123.34 -3.54281 2.40144 0
M  V30 1300 C 122.666 -4.91298 2.11023 0
M  V30 1301 C 123.966 -3.55676 3.82481 0
M  V30 1302 H 125.66 -1.82644 2.37237 0
M  V30 1303 H 123.206 -0.877305 1.1419 0
M  V30 1304 H 125.159 -4.01095 1.29232 0
M  V30 1305 H 123.883 -3.25137 0.308811 0
M  V30 1306 H 122.542 -2.78088 2.38877 0
M  V30 1307 H 122.19 -4.90468 1.11582 0
M  V30 1308 H 121.89 -5.13485 2.8567 0
M  V30 1309 H 123.414 -5.72166 2.13209 0
M  V30 1310 H 124.828 -4.24254 3.85592 0
M  V30 1311 H 123.225 -3.89388 4.56614 0
M  V30 1312 H 124.295 -2.55144 4.12346 0
M  V30 1313 N 125.638 -1.25649 -0.95132 0
M  V30 1314 C 126.585 -1.06323 -2.04851 0
M  V30 1315 C 127.555 0.0286491 -1.66075 0
M  V30 1316 O 128.74 -0.12917 -1.90362 0
M  V30 1317 C 125.88 -0.691529 -3.381 0
M  V30 1318 C 124.993 -1.85861 -3.89974 0
M  V30 1319 C 124.128 -1.43096 -5.11563 0
M  V30 1320 C 123.167 -2.56696 -5.55674 0
M  V30 1321 N 122.304 -2.14684 -6.68472 0
M  V30 1322 H 127.144 -2.00222 -2.20715 0
M  V30 1323 H 124.681 -0.997027 -1.08156 0
M  V30 1324 H 126.639 -0.456963 -4.1469 0
M  V30 1325 H 125.269 0.210474 -3.22113 0
M  V30 1326 H 124.321 -2.20639 -3.09875 0
M  V30 1327 H 125.633 -2.71161 -4.18657 0
M  V30 1328 H 124.787 -1.15624 -5.9558 0
M  V30 1329 H 123.526 -0.548722 -4.84603 0
M  V30 1330 H 122.531 -2.84909 -4.7022 0
M  V30 1331 H 123.756 -3.45503 -5.8464 0
M  V30 1332 H 121.702 -1.28881 -6.43215 0
M  V30 1333 H 121.619 -2.9353 -6.96689 0
M  V30 1334 H 122.887 -1.90397 -7.5589 0
M  V30 1335 N 127.117 1.15442 -1.07289 0
M  V30 1336 C 128.047 2.22312 -0.714107 0
M  V30 1337 C 129.028 1.67467 0.298155 0
M  V30 1338 O 130.213 1.93445 0.171048 0
M  V30 1339 C 127.343 3.47124 -0.110448 0
M  V30 1340 C 126.297 4.14926 -1.04979 0
M  V30 1341 C 125.623 5.33807 -0.308924 0
M  V30 1342 C 126.923 4.64762 -2.38314 0
M  V30 1343 H 128.617 2.5258 -1.6076 0
M  V30 1344 H 126.163 1.21404 -0.77441 0
M  V30 1345 H 128.116 4.21124 0.152482 0
M  V30 1346 H 126.84 3.16187 0.81812 0
M  V30 1347 H 125.499 3.42866 -1.29764 0
M  V30 1348 H 125.147 4.99126 0.623084 0
M  V30 1349 H 124.847 5.80113 -0.935036 0
M  V30 1350 H 126.371 6.10576 -0.0537771 0
M  V30 1351 H 127.785 5.30292 -2.1786 0
M  V30 1352 H 126.182 5.21728 -2.96514 0
M  V30 1353 H 127.252 3.80434 -3.00663 0
M  V30 1354 N 128.595 0.856903 1.32268 0
M  V30 1355 C 129.841 0.462069 1.97466 0
M  V30 1356 C 130.174 -0.980298 1.67642 0
M  V30 1357 O 129.449 -1.68824 0.965858 0
M  V30 1358 C 129.732 0.704336 3.53145 0
M  V30 1359 C 129.585 2.19529 3.9259 0
M  V30 1360 C 130.904 0.1622 4.39801 0
M  V30 1361 H 128.023 0.169357 0.717278 0
M  V30 1362 H 130.665 1.07574 1.56614 0
M  V30 1363 H 128.815 0.181999 3.88073 0
M  V30 1364 H 130.487 2.78387 3.67829 0
M  V30 1365 H 128.73 2.67292 3.41668 0
M  V30 1366 H 129.401 2.31549 5.01088 0
M  V30 1367 H 131.877 0.608905 4.11621 0
M  V30 1368 H 130.753 0.361265 5.4771 0
M  V30 1369 H 131.014 -0.935158 4.32096 0
M  V30 1370 N 130.073 -1.45103 0.615059 0
M  V30 1371 C 131.02 -2.30586 -0.0993978 0
M  V30 1372 C 131.99 -1.42544 -0.852669 0
M  V30 1373 O 133.175 -1.71465 -0.836917 0
M  V30 1374 C 130.315 -3.27572 -1.08583 0
M  V30 1375 C 129.428 -4.30717 -0.332656 0
M  V30 1376 C 128.563 -5.14807 -1.30947 0
M  V30 1377 C 127.602 -6.09673 -0.544538 0
M  V30 1378 N 126.739 -6.86517 -1.47101 0
M  V30 1379 H 131.579 -2.91144 0.635542 0
M  V30 1380 H 129.116 -1.4346 0.325206 0
M  V30 1381 H 131.074 -3.82276 -1.67095 0
M  V30 1382 H 129.704 -2.68751 -1.78809 0
M  V30 1383 H 128.756 -3.78615 0.368107 0
M  V30 1384 H 130.068 -4.98102 0.263842 0
M  V30 1385 H 129.222 -5.73948 -1.96643 0
M  V30 1386 H 127.961 -4.47458 -1.9399 0
M  V30 1387 H 126.966 -5.49656 0.126003 0
M  V30 1388 H 128.191 -6.79052 0.080947 0
M  V30 1389 H 126.137 -6.21851 -2.08895 0
M  V30 1390 H 126.054 -7.50281 -0.928137 0
M  V30 1391 H 127.322 -7.50194 -2.11731 0
M  V30 1392 N 131.551 -0.354651 -1.53558 0
M  V30 1393 C 132.483 0.5315 -2.22952 0
M  V30 1394 C 133.496 1.05503 -1.23988 0
M  V30 1395 O 134.685 0.963279 -1.50277 0
M  V30 1396 C 131.785 1.74538 -2.90499 0
M  V30 1397 C 130.958 1.35524 -4.15875 0
M  V30 1398 C 130.017 2.42999 -4.66731 0
M  V30 1399 O 129.043 2.05844 -5.30676 0
M  V30 1400 N 130.245 3.74423 -4.43608 0
M  V30 1401 H 133.01 -0.0628615 -2.99634 0
M  V30 1402 H 130.571 -0.179302 -1.60904 0
M  V30 1403 H 132.563 2.45892 -3.21433 0
M  V30 1404 H 131.133 2.24686 -2.17336 0
M  V30 1405 H 130.353 0.471998 -3.91364 0
M  V30 1406 H 131.641 1.07071 -4.97406 0
M  V30 1407 H 131.039 4.07391 -3.92491 0
M  V30 1408 H 129.596 4.41913 -4.7912 0
M  V30 1409 N 133.029 1.57378 -0.0835403 0
M  V30 1410 C 133.992 2.12252 0.864959 0
M  V30 1411 C 134.992 1.04916 1.21858 0
M  V30 1412 O 136.182 1.30853 1.14991 0
M  V30 1413 C 133.314 2.63358 2.16461 0
M  V30 1414 H 134.507 2.97371 0.388676 0
M  V30 1415 H 132.06 1.55423 0.165317 0
M  V30 1416 H 132.795 1.81727 2.686 0
M  V30 1417 H 132.58 3.41826 1.92087 0
M  V30 1418 H 134.07 3.05847 2.84337 0
M  V30 1419 N 134.507 -0.190092 1.56449 0
M  V30 1420 C 135.417 -1.25591 1.98152 0
M  V30 1421 C 136.433 -1.49519 0.889944 0
M  V30 1422 O 137.609 -1.62036 1.19609 0
M  V30 1423 C 134.674 -2.57916 2.3169 0
M  V30 1424 C 133.735 -2.42015 3.5458 0
M  V30 1425 C 132.968 -3.6803 3.8651 0
M  V30 1426 O 133.191 -4.72413 3.1966 0
M  V30 1427 O 132.125 -3.6326 4.79923 0
M  V30 1428 H 135.951 -0.931988 2.89046 0
M  V30 1429 H 133.536 -0.395488 1.4407 0
M  V30 1430 H 135.418 -3.36008 2.54316 0
M  V30 1431 H 134.093 -2.89925 1.43963 0
M  V30 1432 H 133 -1.62017 3.37196 0
M  V30 1433 H 134.333 -2.14937 4.4279 0
M  V30 1434 N 135.985 -1.50799 -0.457987 0
M  V30 1435 C 136.932 -1.70617 -1.5543 0
M  V30 1436 C 137.902 -0.547562 -1.56815 0
M  V30 1437 O 139.087 -0.779647 -1.74144 0
M  V30 1438 C 136.227 -1.81831 -2.93311 0
M  V30 1439 C 135.34 -3.09278 -3.01615 0
M  V30 1440 C 134.475 -3.11209 -4.30491 0
M  V30 1441 C 133.514 -4.33055 -4.32585 0
M  V30 1442 N 132.651 -4.32652 -5.52952 0
M  V30 1443 H 137.491 -2.64207 -1.37836 0
M  V30 1444 H 135.028 -1.30959 -0.669937 0
M  V30 1445 H 136.986 -1.86314 -3.73287 0
M  V30 1446 H 135.616 -0.916685 -3.0951 0
M  V30 1447 H 134.668 -3.14203 -2.1443 0
M  V30 1448 H 135.98 -3.99233 -2.99022 0
M  V30 1449 H 135.134 -3.14494 -5.18824 0
M  V30 1450 H 133.873 -2.19106 -4.35711 0
M  V30 1451 H 132.878 -4.29969 -3.42647 0
M  V30 1452 H 134.103 -5.264 -4.29046 0
M  V30 1453 H 132.049 -3.43409 -5.58933 0
M  V30 1454 H 131.966 -5.16392 -5.52155 0
M  V30 1455 H 133.234 -4.40101 -6.43375 0
M  V30 1456 N 137.463 0.71206 -1.40597 0
M  V30 1457 C 138.393 1.83889 -1.43899 0
M  V30 1458 C 139.374 1.67442 -0.299504 0
M  V30 1459 O 140.559 1.87421 -0.508624 0
M  V30 1460 C 137.689 3.21877 -1.30431 0
M  V30 1461 C 136.643 3.53002 -2.42019 0
M  V30 1462 C 135.969 4.90172 -2.13626 0
M  V30 1463 C 137.269 3.53643 -3.84362 0
M  V30 1464 H 138.963 1.81383 -2.38203 0
M  V30 1465 H 136.509 0.871237 -1.14654 0
M  V30 1466 H 138.462 4.00404 -1.31357 0
M  V30 1467 H 137.186 3.24968 -0.326049 0
M  V30 1468 H 135.845 2.76818 -2.40349 0
M  V30 1469 H 135.493 4.89869 -1.14182 0
M  V30 1470 H 135.193 5.11962 -2.88389 0
M  V30 1471 H 136.717 5.71028 -2.1624 0
M  V30 1472 H 138.131 4.22203 -3.87837 0
M  V30 1473 H 136.528 3.86961 -4.58673 0
M  V30 1474 H 137.598 2.52954 -4.13693 0
M  V30 1475 N 138.941 1.26152 0.944643 0
M  V30 1476 C 140.189 1.11271 1.6871 0
M  V30 1477 C 140.51 -0.345166 1.91921 0
M  V30 1478 O 139.78 -1.24387 1.51343 0
M  V30 1479 H 138.36 0.408783 0.625224 0
M  V30 1480 H 141.022 1.58427 1.1352 0
M  V30 1481 H 140.118 1.62879 2.66227 0
M  V30 1482 N 140.419 -1.14872 1.07899 0
M  V30 1483 C 141.382 -2.17986 0.708161 0
M  V30 1484 C 142.382 -1.58775 -0.25442 0
M  V30 1485 O 143.572 -1.74166 -0.034645 0
M  V30 1486 C 140.704 -3.40871 0.0446929 0
M  V30 1487 H 141.897 -2.52306 1.62116 0
M  V30 1488 H 139.45 -1.2943 0.876218 0
M  V30 1489 H 140.185 -3.12124 -0.880281 0
M  V30 1490 H 139.97 -3.8511 0.737091 0
M  V30 1491 H 141.46 -4.17121 -0.19991 0
M  V30 1492 N 141.898 -0.863906 -1.31812 0
M  V30 1493 C 142.846 -0.30422 -2.30602 0
M  V30 1494 C 143.84 0.577419 -1.59255 0
M  V30 1495 O 145.046 0.464194 -1.73912 0
M  V30 1496 H 141.421 -0.0796877 -0.747766 0
M  V30 1497 H 143.392 -1.15148 -2.75288 0
M  V30 1498 C 142.141 0.484617 -3.44306 0
M  V30 1499 H 141.464 -0.18451 -3.99374 0
M  V30 1500 H 142.904 0.841664 -4.15562 0
M  V30 1501 C 141.363 1.6735 -2.92396 0
M  V30 1502 O 141.893 2.77273 -2.90659 0
M  V30 1503 N 140.099 1.50362 -2.48676 0
M  V30 1504 H 139.646 0.609402 -2.50288 0
M  V30 1505 H 139.604 2.30051 -2.14299 0
M  V30 1506 N 143.376 1.44774 -0.622745 0
M  V30 1507 C 144.624 2.01721 -0.123655 0
M  V30 1508 C 144.945 1.49172 1.25589 0
M  V30 1509 O 144.215 0.691974 1.83272 0
M  V30 1510 H 142.795 0.745777 -0.0427225 0
M  V30 1511 H 145.457 1.77382 -0.807559 0
M  V30 1512 H 144.553 3.11984 -0.0849534 0
M  V30 1513 N 144.854 0.36279 1.53368 0
M  V30 1514 C 146.1 -0.228113 2.01513 0
M  V30 1515 C 146.433 -1.48648 1.2497 0
M  V30 1516 O 145.708 -1.91459 0.342616 0
M  V30 1517 C 145.991 -0.522884 3.56284 0
M  V30 1518 C 145.844 0.74892 4.43521 0
M  V30 1519 C 147.163 -1.32461 4.19693 0
M  V30 1520 H 144.282 -0.0814343 0.732487 0
M  V30 1521 H 146.924 0.48713 1.83649 0
M  V30 1522 H 145.074 -1.1322 3.71636 0
M  V30 1523 H 146.746 1.38648 4.39971 0
M  V30 1524 H 144.989 1.36986 4.11603 0
M  V30 1525 H 145.66 0.497667 5.49752 0
M  V30 1526 H 148.136 -0.809203 4.08156 0
M  V30 1527 H 147.012 -1.49961 5.28018 0
M  V30 1528 H 147.273 -2.33232 3.75573 0
M  V30 1529 N 146.332 -1.57332 0.0918853 0
M  V30 1530 C 147.262 -2.16872 -0.865371 0
M  V30 1531 C 148.243 -1.10118 -1.29646 0
M  V30 1532 O 149.428 -1.38242 -1.36392 0
M  V30 1533 C 146.558 -2.74649 -2.12569 0
M  V30 1534 C 145.512 -3.86747 -1.83333 0
M  V30 1535 C 144.838 -4.31212 -3.16166 0
M  V30 1536 C 146.138 -5.10089 -1.1228 0
M  V30 1537 H 147.832 -2.97114 -0.369307 0
M  V30 1538 H 145.378 -1.42918 -0.176194 0
M  V30 1539 H 147.331 -3.14952 -2.7997 0
M  V30 1540 H 146.055 -1.91657 -2.64452 0
M  V30 1541 H 144.714 -3.46978 -1.18331 0
M  V30 1542 H 144.362 -3.45115 -3.6593 0
M  V30 1543 H 144.062 -5.06788 -2.97388 0
M  V30 1544 H 145.586 -4.74146 -3.84731 0
M  V30 1545 H 147 -5.47582 -1.69785 0
M  V30 1546 H 145.397 -5.91073 -1.03693 0
M  V30 1547 H 146.467 -4.84786 -0.105041 0
M  V30 1548 N 147.81 0.181792 -1.56548 0
M  V30 1549 C 149.056 0.901431 -1.81665 0
M  V30 1550 C 149.389 1.82347 -0.668075 0
M  V30 1551 O 148.664 1.91669 0.330615 0
M  V30 1552 C 148.947 1.70618 -3.17115 0
M  V30 1553 C 148.8 0.807964 -4.42484 0
M  V30 1554 C 150.119 2.67605 -3.49393 0
M  V30 1555 H 147.238 0.32627 -0.660846 0
M  V30 1556 H 149.88 0.168134 -1.89255 0
M  V30 1557 H 148.03 2.33133 -3.10775 0
M  V30 1558 H 149.702 0.19649 -4.60881 0
M  V30 1559 H 147.945 0.115411 -4.33646 0
M  V30 1560 H 148.616 1.40632 -5.33785 0
M  V30 1561 H 151.092 2.15218 -3.56118 0
M  V30 1562 H 149.968 3.20985 -4.45264 0
M  V30 1563 H 150.229 3.47298 -2.73563 0
M  V30 1564 N 149.288 1.51039 0.449983 0
M  V30 1565 C 150.534 1.63322 1.20223 0
M  V30 1566 C 150.867 0.34241 1.91158 0
M  V30 1567 O 150.142 -0.657344 1.83055 0
M  V30 1568 C 150.425 2.82801 2.22925 0
M  V30 1569 C 150.278 4.21823 1.56157 0
M  V30 1570 C 151.597 2.97807 3.24035 0
M  V30 1571 H 148.716 0.594407 0.435718 0
M  V30 1572 H 151.358 1.83489 0.493136 0
M  V30 1573 H 149.508 2.65738 2.834 0
M  V30 1574 H 151.18 4.50526 0.991162 0
M  V30 1575 H 149.423 4.25105 0.864172 0
M  V30 1576 H 150.094 5.01391 2.30891 0
M  V30 1577 H 152.57 3.13497 2.73603 0
M  V30 1578 H 151.446 3.82992 3.93202 0
M  V30 1579 H 151.707 2.09328 3.89402 0
M  V30 1580 N 150.766 -0.704594 1.40972 0
M  V30 1581 C 151.994 -1.49354 1.43182 0
M  V30 1582 C 152.409 -1.88768 0.0345508 0
M  V30 1583 O 151.766 -1.56184 -0.944081 0
M  V30 1584 C 151.817 -2.76187 2.33244 0
M  V30 1585 O 151.538 -2.38436 3.67532 0
M  V30 1586 C 153.039 -3.7 2.44162 0
M  V30 1587 H 150.259 -0.460559 0.487982 0
M  V30 1588 H 152.803 -0.868261 1.85153 0
M  V30 1589 H 150.958 -3.34974 1.94606 0
M  V30 1590 H 151.372 -3.20126 4.15475 0
M  V30 1591 H 152.846 -4.55803 3.11364 0
M  V30 1592 H 153.323 -4.13867 1.47006 0
M  V30 1593 H 153.929 -3.17121 2.83398 0
M  V30 1594 N 152.244 -1.26651 -0.937939 0
M  V30 1595 C 153.655 -1.1125 -1.49934 0
M  V30 1596 C 154.006 0.306077 -1.93798 0
M  V30 1597 O 153.131 1.19792 -1.80219 0
M  V30 1598 C 153.726 -2.01339 -2.72485 0
M  V30 1599 C 152.285 -1.90074 -3.24883 0
M  V30 1600 C 151.432 -1.94498 -1.97651 0
M  V30 1601 H 154.383 -1.39693 -0.753091 0
M  V30 1602 H 154.404 -1.56319 -3.46907 0
M  V30 1603 H 153.916 -3.04577 -2.40529 0
M  V30 1604 H 152.017 -0.897827 -3.61621 0
M  V30 1605 H 152.13 -2.75778 -3.9177 0
M  V30 1606 H 150.494 -1.38591 -2.13693 0
M  V30 1607 H 151.277 -2.99372 -1.68022 0
M  V30 1608 N 153.722 1.14298 -1.08507 0
M  V30 1609 C 154.952 1.88945 -0.835663 0
M  V30 1610 C 155.36 1.78894 0.615928 0
M  V30 1611 O 154.703 1.1468 1.43506 0
M  V30 1612 C 154.765 3.39585 -1.17994 0
M  V30 1613 C 154.429 3.7342 -2.63451 0
M  V30 1614 C 155.426 3.73454 -3.61702 0
M  V30 1615 C 153.111 4.03368 -2.99332 0
M  V30 1616 C 155.105 4.02961 -4.93864 0
M  V30 1617 C 152.792 4.32538 -4.31687 0
M  V30 1618 C 153.79 4.32318 -5.28763 0
M  V30 1619 O 153.478 4.6078 -6.58739 0
M  V30 1620 H 153.21 0.605307 -0.300965 0
M  V30 1621 H 155.764 1.45673 -1.44806 0
M  V30 1622 H 153.994 3.83315 -0.51055 0
M  V30 1623 H 155.683 3.9554 -0.911182 0
M  V30 1624 H 156.449 3.50403 -3.35325 0
M  V30 1625 H 152.328 4.02692 -2.24411 0
M  V30 1626 H 155.872 4.02704 -5.69627 0
M  V30 1627 H 151.769 4.55059 -4.57812 0
M  V30 1628 H 152.537 4.78492 -6.64069 0
M  V30 1629 N 155.201 0.870884 1.31352 0
M  V30 1630 C 156.431 0.496049 2.00557 0
M  V30 1631 C 156.839 -0.916241 1.65534 0
M  V30 1632 O 156.182 -1.61188 0.881134 0
M  V30 1633 C 156.244 0.574418 3.54881 0
M  V30 1634 C 155.908 1.94849 4.1338 0
M  V30 1635 C 156.905 2.91611 4.30417 0
M  V30 1636 C 154.59 2.25005 4.49086 0
M  V30 1637 C 156.584 4.16672 4.82352 0
M  V30 1638 C 154.271 3.50315 5.00722 0
M  V30 1639 C 155.269 4.45964 5.17306 0
M  V30 1640 O 154.957 5.69052 5.67833 0
M  V30 1641 H 154.689 0.191664 0.64826 0
M  V30 1642 H 157.243 1.17409 1.68536 0
M  V30 1643 H 155.473 -0.160549 3.86367 0
M  V30 1644 H 157.162 0.212879 4.05341 0
M  V30 1645 H 157.928 2.69622 4.03149 0
M  V30 1646 H 153.807 1.51332 4.35453 0
M  V30 1647 H 157.351 4.91336 4.95211 0
M  V30 1648 H 153.248 3.72147 5.27424 0
M  V30 1649 H 154.016 5.71236 5.86201 0
M  V30 1650 N 156.679 -1.44442 0.630414 0
M  V30 1651 C 157.627 -2.32437 -0.0871428 0
M  V30 1652 C 158.621 -1.47304 -0.836525 0
M  V30 1653 O 159.827 -1.63653 -0.749506 0
M  V30 1654 H 156.202 -0.750533 -0.0469495 0
M  V30 1655 H 158.173 -2.90709 0.673096 0
M  V30 1656 C 156.922 -3.31288 -1.05563 0
M  V30 1657 H 156.245 -3.96805 -0.488426 0
M  V30 1658 H 157.685 -3.9554 -1.52721 0
M  V30 1659 C 156.144 -2.6016 -2.14052 0
M  V30 1660 O 156.674 -2.39997 -3.22124 0
M  V30 1661 N 154.88 -2.19911 -1.89967 0
M  V30 1662 H 154.427 -2.36509 -1.02085 0
M  V30 1663 H 154.385 -1.72646 -2.62756 0
M  V30 1664 N 158.157 -0.370918 -1.53173 0
M  V30 1665 C 159.104 0.473035 -2.259 0
M  V30 1666 C 160.074 1.07311 -1.26781 0
M  V30 1667 O 161.259 1.1046 -1.55574 0
M  V30 1668 C 158.399 1.60405 -3.05556 0
M  V30 1669 C 157.512 1.02863 -4.19575 0
M  V30 1670 C 156.647 2.12918 -4.86661 0
M  V30 1671 C 155.686 1.52869 -5.92704 0
M  V30 1672 N 154.823 2.56779 -6.53459 0
M  V30 1673 H 159.663 -0.153649 -2.97604 0
M  V30 1674 H 157.2 -0.0875946 -1.46839 0
M  V30 1675 H 159.158 2.27034 -3.50016 0
M  V30 1676 H 157.788 2.20131 -2.36097 0
M  V30 1677 H 156.84 0.252465 -3.79561 0
M  V30 1678 H 158.152 0.549642 -4.95762 0
M  V30 1679 H 157.306 2.87356 -5.34333 0
M  V30 1680 H 156.045 2.6417 -4.09958 0
M  V30 1681 H 155.05 0.769479 -5.44389 0
M  V30 1682 H 156.275 1.02435 -6.7133 0
M  V30 1683 H 154.221 3.07235 -5.79606 0
M  V30 1684 H 154.138 2.13583 -7.25202 0
M  V30 1685 H 155.406 3.30903 -7.05779 0
M  V30 1686 N 159.635 1.57281 -0.100228 0
M  V30 1687 C 161.046 1.81725 0.428107 0
M  V30 1688 C 161.397 1.01619 1.67833 0
M  V30 1689 O 160.522 0.247098 2.14985 0
M  V30 1690 C 161.117 3.29617 0.78347 0
M  V30 1691 C 159.676 3.54808 1.25653 0
M  V30 1692 C 158.823 2.76118 0.255752 0
M  V30 1693 H 161.774 1.55324 -0.325608 0
M  V30 1694 H 161.795 3.4322 1.64256 0
M  V30 1695 H 161.307 3.87893 -0.12665 0
M  V30 1696 H 159.408 3.01868 2.18418 0
M  V30 1697 H 159.521 4.63443 1.21482 0
M  V30 1698 H 157.885 2.43745 0.738956 0
M  V30 1699 H 158.668 3.37145 -0.647136 0
M  V30 1700 N 161.113 -0.173488 1.56642 0
M  V30 1701 C 162.341 -0.906095 1.86004 0
M  V30 1702 C 162.756 -1.75921 0.685355 0
M  V30 1703 O 162.113 -1.79198 -0.345578 0
M  V30 1704 C 162.164 -1.78462 3.14378 0
M  V30 1705 O 161.885 -0.965914 4.27319 0
M  V30 1706 C 163.386 -2.62707 3.57071 0
M  V30 1707 H 160.606 -0.263341 0.617165 0
M  V30 1708 H 163.15 -0.174236 2.03756 0
M  V30 1709 H 161.305 -2.46984 2.98459 0
M  V30 1710 H 161.719 -1.56655 5.00559 0
M  V30 1711 H 163.193 -3.19969 4.49804 0
M  V30 1712 H 163.67 -3.37472 2.81086 0
M  V30 1713 H 164.276 -1.99521 3.75595 0
M  V30 1714 N 162.591 -1.51276 -0.441967 0
M  V30 1715 C 163.523 -1.68444 -1.55433 0
M  V30 1716 C 164.536 -0.565187 -1.52674 0
M  V30 1717 O 165.725 -0.839356 -1.57534 0
M  V30 1718 C 162.825 -1.67966 -2.94348 0
M  V30 1719 C 161.998 -2.964 -3.21661 0
M  V30 1720 C 161.057 -2.88171 -4.40277 0
M  V30 1721 O 160.083 -3.62119 -4.39157 0
M  V30 1722 N 161.285 -2.03706 -5.43584 0
M  V30 1723 H 164.05 -2.644 -1.41112 0
M  V30 1724 H 161.611 -1.49104 -0.630838 0
M  V30 1725 H 163.603 -1.60035 -3.71713 0
M  V30 1726 H 162.173 -0.796225 -3.0229 0
M  V30 1727 H 161.393 -3.18234 -2.32638 0
M  V30 1728 H 162.681 -3.81427 -3.36736 0
M  V30 1729 H 162.079 -1.42995 -5.47329 0
M  V30 1730 H 160.636 -2.01658 -6.1982 0
M  V30 1731 N 164.069 0.697108 -1.41344 0
M  V30 1732 C 164.979 1.84088 -1.45427 0
M  V30 1733 C 165.995 1.70545 -0.34501 0
M  V30 1734 O 167.171 1.92488 -0.592492 0
M  V30 1735 C 164.236 3.20056 -1.33286 0
M  V30 1736 C 163.297 3.45718 -2.54514 0
M  V30 1737 C 162.53 4.75199 -2.42944 0
M  V30 1738 O 162.753 5.51579 -1.45318 0
M  V30 1739 O 161.687 5.0161 -3.32672 0
M  V30 1740 H 165.513 1.836 -2.41919 0
M  V30 1741 H 163.098 0.849966 -1.22866 0
M  V30 1742 H 164.98 4.01236 -1.28794 0
M  V30 1743 H 163.655 3.2123 -0.39909 0
M  V30 1744 H 162.562 2.64474 -2.64583 0
M  V30 1745 H 163.895 3.49356 -3.46715 0
M  V30 1746 N 165.547 1.27147 0.931209 0
M  V30 1747 C 166.795 1.13055 1.6752 0
M  V30 1748 C 167.116 -0.324791 1.92276 0
M  V30 1749 O 166.386 -1.22775 1.52654 0
M  V30 1750 H 164.966 0.415391 0.620854 0
M  V30 1751 H 167.628 1.59623 1.11833 0
M  V30 1752 H 166.724 1.65694 2.64485 0
M  V30 1753 N 167.025 -1.13721 1.09112 0
M  V30 1754 C 167.955 -2.21148 0.749385 0
M  V30 1755 C 168.936 -1.6792 -0.271475 0
M  V30 1756 O 170.121 -1.93693 -0.140251 0
M  V30 1757 C 167.251 -3.46905 0.165659 0
M  V30 1758 C 166.205 -4.13203 1.11567 0
M  V30 1759 C 165.531 -5.33248 0.393809 0
M  V30 1760 C 166.831 -4.60912 2.45678 0
M  V30 1761 H 168.525 -2.4999 1.64758 0
M  V30 1762 H 166.071 -1.20156 0.793626 0
M  V30 1763 H 168.024 -4.21313 -0.085466 0
M  V30 1764 H 166.748 -3.17449 -0.767714 0
M  V30 1765 H 165.407 -3.40758 1.35202 0
M  V30 1766 H 165.055 -5.00054 -0.543599 0
M  V30 1767 H 164.755 -5.78552 1.02721 0
M  V30 1768 H 166.279 -6.10413 0.150908 0
M  V30 1769 H 167.693 -5.26759 2.26269 0
M  V30 1770 H 166.09 -5.16944 3.04776 0
M  V30 1771 H 167.16 -3.75603 3.06677 0
M  V30 1772 N 168.503 -0.877838 -1.30888 0
M  V30 1773 C 169.733 -0.506678 -2.00291 0
M  V30 1774 C 170.141 0.907449 -1.66018 0
M  V30 1775 O 169.484 1.60719 -0.88967 0
M  V30 1776 C 169.546 -0.59323 -3.54572 0
M  V30 1777 C 169.21 -1.97038 -4.12341 0
M  V30 1778 C 170.207 -2.93889 -4.28865 0
M  V30 1779 C 167.892 -2.27383 -4.47886 0
M  V30 1780 C 169.886 -4.19224 -4.80136 0
M  V30 1781 C 167.573 -3.52965 -4.98857 0
M  V30 1782 C 168.571 -4.48701 -5.14934 0
M  V30 1783 O 168.259 -5.72056 -5.64808 0
M  V30 1784 H 167.991 -0.1951 -0.647234 0
M  V30 1785 H 170.545 -1.18301 -1.6791 0
M  V30 1786 H 168.775 0.140057 -3.86446 0
M  V30 1787 H 170.464 -0.234372 -4.05223 0
M  V30 1788 H 171.23 -2.71756 -4.01714 0
M  V30 1789 H 167.109 -1.53639 -4.34645 0
M  V30 1790 H 170.653 -4.93956 -4.92599 0
M  V30 1791 H 166.55 -3.74939 -5.25443 0
M  V30 1792 H 167.318 -5.74337 -5.83163 0
M  V30 1793 N 169.982 1.44106 -0.638065 0
M  V30 1794 C 170.914 2.28976 0.101205 0
M  V30 1795 C 171.927 1.4167 0.802088 0
M  V30 1796 O 173.116 1.65755 0.662375 0
M  V30 1797 C 170.216 3.18217 1.16581 0
M  V30 1798 C 169.389 4.33978 0.546066 0
M  V30 1799 C 168.448 5.04202 1.50554 0
M  V30 1800 O 167.474 5.59986 1.01999 0
M  V30 1801 N 168.676 5.06296 2.8398 0
M  V30 1802 H 171.441 2.93064 -0.627186 0
M  V30 1803 H 169.002 1.54629 -0.479731 0
M  V30 1804 H 170.994 3.62061 1.80815 0
M  V30 1805 H 169.564 2.55833 1.79634 0
M  V30 1806 H 168.784 3.93239 -0.275046 0
M  V30 1807 H 170.072 5.08675 0.112793 0
M  V30 1808 H 169.47 4.62319 3.26002 0
M  V30 1809 H 168.027 5.53907 3.43556 0
M  V30 1810 N 171.46 0.379036 1.52974 0
M  V30 1811 C 172.41 -0.477772 2.22938 0
M  V30 1812 C 173.394 -1.03792 1.22948 0
M  V30 1813 O 174.586 -0.965725 1.48333 0
M  V30 1814 C 171.715 -1.60994 3.03209 0
M  V30 1815 C 170.801 -1.06203 4.10587 0
M  V30 1816 N 171.192 -0.238214 5.05239 0
M  V30 1817 C 169.49 -1.33554 4.25534 0
M  V30 1818 C 170.191 0.0633235 5.81666 0
M  V30 1819 N 169.167 -0.537901 5.40932 0
M  V30 1820 H 172.969 0.158295 2.93473 0
M  V30 1821 H 170.483 0.187778 1.61311 0
M  V30 1822 H 172.48 -2.23607 3.5186 0
M  V30 1823 H 171.14 -2.24893 2.34207 0
M  V30 1824 H 172.151 0.123695 5.17752 0
M  V30 1825 H 168.828 -1.97632 3.6776 0
M  V30 1826 H 170.218 0.730161 6.67921 0
M  V30 1827 N 172.938 -1.57226 0.108567 0
M  V30 1828 C 174.168 -1.9889 -0.559142 0
M  V30 1829 C 174.576 -0.986889 -1.61422 0
M  V30 1830 O 173.919 0.0298705 -1.83676 0
M  V30 1831 C 173.981 -3.36952 -1.25315 0
M  V30 1832 C 173.645 -4.55679 -0.347248 0
M  V30 1833 C 174.642 -5.18281 0.409996 0
M  V30 1834 C 172.327 -5.0162 -0.261367 0
M  V30 1835 C 174.321 -6.25203 1.24096 0
M  V30 1836 C 172.008 -6.08405 0.573238 0
M  V30 1837 C 173.006 -6.70063 1.32304 0
M  V30 1838 O 172.694 -7.74788 2.14381 0
M  V30 1839 H 172.426 -0.658343 -0.153492 0
M  V30 1840 H 174.98 -2.04532 0.188584 0
M  V30 1841 H 173.21 -3.28032 -2.04773 0
M  V30 1842 H 174.899 -3.62974 -1.81673 0
M  V30 1843 H 175.665 -4.8371 0.353457 0
M  V30 1844 H 171.544 -4.53381 -0.834656 0
M  V30 1845 H 175.088 -6.73259 1.82669 0
M  V30 1846 H 170.985 -6.42406 0.631208 0
M  V30 1847 H 171.753 -7.91837 2.07209 0
M  V30 1848 N 174.416 0.165178 -1.56732 0
M  V30 1849 C 175.363 1.2044 -1.96883 0
M  V30 1850 C 176.333 1.43664 -0.833657 0
M  V30 1851 O 177.518 1.56302 -1.09427 0
M  V30 1852 C 174.658 2.53727 -2.33916 0
M  V30 1853 C 173.771 2.3783 -3.6064 0
M  V30 1854 C 172.906 3.64026 -3.86857 0
M  V30 1855 C 171.945 3.43088 -5.06909 0
M  V30 1856 N 171.082 4.61369 -5.29229 0
M  V30 1857 H 175.922 0.854996 -2.85471 0
M  V30 1858 H 173.459 0.41076 -1.41249 0
M  V30 1859 H 175.417 3.31419 -2.53411 0
M  V30 1860 H 174.047 2.8665 -1.48431 0
M  V30 1861 H 173.099 1.51282 -3.49024 0
M  V30 1862 H 174.411 2.18308 -4.4849 0
M  V30 1863 H 173.565 4.50152 -4.06753 0
M  V30 1864 H 172.304 3.86533 -2.97394 0
M  V30 1865 H 171.309 2.55349 -4.86906 0
M  V30 1866 H 172.534 3.21997 -5.97909 0
M  V30 1867 H 170.48 4.84084 -4.42718 0
M  V30 1868 H 170.397 4.44783 -6.11313 0
M  V30 1869 H 171.665 5.48761 -5.53608 0
M  V30 1870 N 175.894 1.51508 0.433938 0
M  V30 1871 C 177.124 1.67914 1.20369 0
M  V30 1872 C 177.532 0.377461 1.85397 0
M  V30 1873 O 176.875 -0.654255 1.71654 0
M  V30 1874 C 176.937 2.74045 2.32679 0
M  V30 1875 C 176.601 4.16543 1.87991 0
M  V30 1876 C 177.598 5.01211 1.38145 0
M  V30 1877 C 175.283 4.6266 1.95579 0
M  V30 1878 C 177.277 6.30056 0.964774 0
M  V30 1879 C 174.964 5.91501 1.53523 0
M  V30 1880 C 175.962 6.75027 1.04055 0
M  V30 1881 O 175.65 8.01459 0.625964 0
M  V30 1882 H 175.382 0.566578 0.368735 0
M  V30 1883 H 177.936 1.98709 0.51999 0
M  V30 1884 H 176.166 2.38572 3.04336 0
M  V30 1885 H 177.855 2.79295 2.94532 0
M  V30 1886 H 178.621 4.66783 1.31675 0
M  V30 1887 H 174.5 3.97767 2.33029 0
M  V30 1888 H 178.044 6.95202 0.57796 0
M  V30 1889 H 173.941 6.25442 1.59665 0
M  V30 1890 H 174.709 8.15043 0.751509 0
M  V30 1891 N 177.372 -0.689602 1.41712 0
M  V30 1892 C 178.621 -1.44534 1.40686 0
M  V30 1893 C 178.934 -1.95588 0.0213352 0
M  V30 1894 O 180.14 -2.71271 -0.111534 0
M  V30 1895 C 178.596 -2.61387 2.47396 0
M  V30 1896 C 178.204 -2.17094 3.91885 0
M  V30 1897 C 179.948 -3.38986 2.55517 0
M  V30 1898 C 177.855 -3.3094 4.90135 0
M  V30 1899 H 176.785 -0.542925 0.52321 0
M  V30 1900 H 179.436 -0.748054 1.6756 0
M  V30 1901 H 177.818 -3.33412 2.13664 0
M  V30 1902 H 178.992 -1.52318 4.34897 0
M  V30 1903 H 177.307 -1.52473 3.8748 0
M  V30 1904 H 179.904 -4.23747 3.26102 0
M  V30 1905 H 180.247 -3.84578 1.59391 0
M  V30 1906 H 180.78 -2.74021 2.8837 0
M  V30 1907 H 177.519 -2.90355 5.87685 0
M  V30 1908 H 177.039 -3.94546 4.51767 0
M  V30 1909 H 178.718 -3.9663 5.11169 0
M  V30 1910 N 178.85 -1.27639 -0.924453 0
M  V30 1911 C 180.075 -1.17101 -1.71179 0
M  V30 1912 C 180.5 0.268134 -1.86179 0
M  V30 1913 O 179.858 1.19415 -1.36418 0
M  V30 1914 C 179.906 -1.86313 -3.08739 0
M  V30 1915 O 179.01 -1.16331 -3.95652 0
M  V30 1916 H 178.351 -0.407091 -0.524569 0
M  V30 1917 H 180.881 -1.68767 -1.15666 0
M  V30 1918 H 180.891 -1.938 -3.59034 0
M  V30 1919 H 179.566 -2.91001 -2.97138 0
M  V30 1920 H 178.143 -1.16935 -3.54091 0
M  V30 1921 N 180.328 1.1314 -1.09713 0
M  V30 1922 C 181.238 2.22242 -0.751367 0
M  V30 1923 C 182.254 1.72224 0.247938 0
M  V30 1924 O 183.43 2.01205 0.0885463 0
M  V30 1925 C 180.495 3.46231 -0.180274 0
M  V30 1926 C 179.556 4.11125 -1.2359 0
M  V30 1927 C 178.789 5.29195 -0.691966 0
M  V30 1928 O 179.012 5.68342 0.48414 0
M  V30 1929 O 177.946 5.84214 -1.44838 0
M  V30 1930 H 181.772 2.54197 -1.66186 0
M  V30 1931 H 179.357 1.21331 -0.871735 0
M  V30 1932 H 181.239 4.21185 0.134739 0
M  V30 1933 H 179.914 3.1597 0.703185 0
M  V30 1934 H 178.821 3.37985 -1.60366 0
M  V30 1935 H 180.154 4.45524 -2.09211 0
M  V30 1936 N 181.806 0.884767 1.30421 0
M  V30 1937 C 183.222 0.57874 1.48737 0
M  V30 1938 C 183.422 -0.883567 1.81095 0
M  V30 1939 O 182.478 -1.6648 1.89844 0
M  V30 1940 C 183.791 1.49171 2.61091 0
M  V30 1941 C 185.339 1.49532 2.74971 0
M  V30 1942 C 185.814 2.39421 3.90438 0
M  V30 1943 N 187.305 2.37383 3.97748 0
M  V30 1944 C 188.04 3.03647 4.86401 0
M  V30 1945 N 187.536 3.79136 5.79852 0
M  V30 1946 N 189.329 2.9288 4.79768 0
M  V30 1947 H 181.48 1.83075 1.0769 0
M  V30 1948 H 183.743 0.783637 0.533495 0
M  V30 1949 H 183.449 2.53291 2.44001 0
M  V30 1950 H 183.323 1.20113 3.57565 0
M  V30 1951 H 185.71 0.46163 2.91467 0
M  V30 1952 H 185.791 1.8262 1.79119 0
M  V30 1953 H 185.435 3.42874 3.74699 0
M  V30 1954 H 185.365 2.03649 4.85628 0
M  V30 1955 H 187.856 1.82525 3.30897 0
M  V30 1956 H 188.169 4.26789 6.4426 0
M  V30 1957 H 186.514 3.83243 5.79784 0
M  V30 1958 H 189.705 2.33433 4.05742 0
M  V30 1959 H 189.878 3.448 5.4865 0
M  V30 1960 N 183.284 -1.43765 0.645699 0
M  V30 1961 C 184.512 -2.06253 0.163556 0
M  V30 1962 C 184.927 -1.48352 -1.16778 0
M  V30 1963 O 184.284 -0.611932 -1.71935 0
M  V30 1964 C 184.335 -3.61453 0.0583186 0
M  V30 1965 O 184.056 -4.172 1.33702 0
M  V30 1966 C 185.557 -4.41002 -0.450795 0
M  V30 1967 H 182.777 -0.665413 0.0864077 0
M  V30 1968 H 185.321 -1.84396 0.884222 0
M  V30 1969 H 183.476 -3.82522 -0.612865 0
M  V30 1970 H 183.89 -5.10791 1.19131 0
M  V30 1971 H 185.364 -5.49966 -0.473403 0
M  V30 1972 H 185.841 -4.13488 -1.48068 0
M  V30 1973 H 186.447 -4.24886 0.187637 0
M  V30 1974 N 184.763 -0.387143 -1.52771 0
M  V30 1975 C 186.04 0.253197 -1.93954 0
M  V30 1976 C 186.42 1.64545 -1.32243 0
M  V30 1977 O 185.768 2.23191 -0.489699 0
M  V30 1978 C 185.978 0.281722 -3.47861 0
M  V30 1979 C 187.326 0.511715 -4.21505 0
M  V30 1980 O 188.35 0.362023 -3.54356 0
M  V30 1981 O 187.209 0.804847 -5.40541 0
M  V30 1982 H 184.303 0.156845 -0.811991 0
M  V30 1983 H 186.849 -0.441494 -1.63856 0
M  V30 1984 H 185.621 -0.693571 -3.85104 0
M  V30 1985 H 185.244 1.02142 -3.84256 0
M  V30 1986 N 186.241 1.57166 -0.116904 0
M  V30 1987 C 187.171 2.18222 0.830759 0
M  V30 1988 C 188.152 1.12167 1.27877 0
M  V30 1989 O 189.337 1.40394 1.34176 0
M  V30 1990 C 186.467 2.77996 2.08172 0
M  V30 1991 C 185.421 3.89614 1.77157 0
M  V30 1992 C 184.747 4.36187 3.09265 0
M  V30 1993 C 186.047 5.1181 1.04151 0
M  V30 1994 H 187.741 2.97664 0.321992 0
M  V30 1995 H 185.287 1.4318 0.153434 0
M  V30 1996 H 187.24 3.19366 2.74924 0
M  V30 1997 H 185.964 1.9584 2.6137 0
M  V30 1998 H 184.623 3.48816 1.12796 0
M  V30 1999 H 184.271 3.50893 3.60393 0
M  V30 2000 H 183.971 5.11455 2.89288 0
M  V30 2001 H 185.495 4.80207 3.77139 0
M  V30 2002 H 186.909 5.50214 1.61052 0
M  V30 2003 H 185.306 5.92648 0.942762 0
M  V30 2004 H 186.376 4.84892 0.0279022 0
M  V30 2005 N 187.719 -0.156864 1.56817 0
M  V30 2006 C 188.967 -0.869404 1.82444 0
M  V30 2007 C 189.288 -1.82147 0.69623 0
M  V30 2008 O 188.558 -1.93847 -0.28287 0
M  V30 2009 H 187.138 -0.324043 0.673056 0
M  V30 2010 H 189.8 -0.153224 1.94297 0
M  V30 2011 H 188.896 -1.43761 2.77019 0
M  V30 2012 N 189.197 -1.51736 -0.425897 0
M  V30 2013 C 190.446 -1.64201 -1.17136 0
M  V30 2014 C 190.759 -0.369705 -1.92074 0
M  V30 2015 O 191.965 -0.373898 -2.68913 0
M  V30 2016 C 190.421 -2.90035 -2.13091 0
M  V30 2017 C 190.029 -4.24312 -1.43747 0
M  V30 2018 C 191.773 -3.1186 -2.87999 0
M  V30 2019 C 189.68 -5.41285 -2.38253 0
M  V30 2020 H 188.61 -0.611624 -0.440944 0
M  V30 2021 H 191.261 -1.78212 -0.437328 0
M  V30 2022 H 189.643 -2.69684 -2.89977 0
M  V30 2023 H 190.817 -4.55086 -0.723408 0
M  V30 2024 H 189.132 -4.08456 -0.809465 0
M  V30 2025 H 191.729 -3.96427 -3.58817 0
M  V30 2026 H 192.072 -2.25403 -3.49999 0
M  V30 2027 H 192.605 -3.32605 -2.18217 0
M  V30 2028 H 189.344 -6.30037 -1.80925 0
M  V30 2029 H 188.864 -5.14872 -3.0768 0
M  V30 2030 H 190.543 -5.73694 -2.99139 0
M  V30 2031 N 190.675 0.682077 -1.42076 0
M  V30 2032 C 191.921 1.44428 -1.42367 0
M  V30 2033 C 192.254 1.94164 -0.0373056 0
M  V30 2034 O 191.529 1.70429 0.937239 0
M  V30 2035 C 191.812 2.64654 -2.44194 0
M  V30 2036 C 191.665 2.20596 -3.91991 0
M  V30 2037 C 192.984 3.66865 -2.431 0
M  V30 2038 H 190.103 0.523834 -0.518428 0
M  V30 2039 H 192.745 0.77576 -1.73442 0
M  V30 2040 H 190.895 3.2169 -2.17826 0
M  V30 2041 H 192.567 1.68783 -4.29313 0
M  V30 2042 H 190.81 1.52242 -4.06208 0
M  V30 2043 H 191.481 3.06921 -4.58807 0
M  V30 2044 H 193.957 3.19531 -2.66532 0
M  V30 2045 H 192.833 4.48577 -3.16339 0
M  V30 2046 H 193.094 4.17493 -1.45437 0
M  V30 2047 N 192.153 1.28127 0.917671 0
M  V30 2048 C 193.399 1.15223 1.66888 0
M  V30 2049 C 193.732 -0.299293 1.9188 0
M  V30 2050 O 193.007 -1.21805 1.51637 0
M  V30 2051 C 193.29 1.94706 3.02922 0
M  V30 2052 C 193.143 3.47898 2.85109 0
M  V30 2053 C 194.462 1.75939 4.03402 0
M  V30 2054 H 191.581 0.419946 0.605652 0
M  V30 2055 H 194.223 1.57398 1.06423 0
M  V30 2056 H 192.373 1.58864 3.54534 0
M  V30 2057 H 194.045 3.93624 2.40537 0
M  V30 2058 H 192.288 3.7373 2.20246 0
M  V30 2059 H 192.959 3.98765 3.81694 0
M  V30 2060 H 195.435 2.07209 3.60837 0
M  V30 2061 H 194.311 2.33931 4.96556 0
M  V30 2062 H 194.572 0.709877 4.36364 0
M  V30 2063 N 193.631 -1.12557 1.10312 0
M  V30 2064 C 194.861 -1.87592 0.865617 0
M  V30 2065 C 195.269 -1.79851 -0.587389 0
M  V30 2066 O 194.612 -1.16949 -1.41664 0
M  V30 2067 C 194.674 -3.37665 1.23381 0
M  V30 2068 C 194.338 -3.69181 2.69359 0
M  V30 2069 C 195.335 -3.67652 3.67597 0
M  V30 2070 C 193.02 -3.98555 3.05711 0
M  V30 2071 C 195.014 -3.95053 5.00212 0
M  V30 2072 C 192.701 -4.25616 4.38514 0
M  V30 2073 C 193.699 -4.23851 5.35574 0
M  V30 2074 O 193.387 -4.50242 6.65986 0
M  V30 2075 H 193.119 -0.600442 0.310557 0
M  V30 2076 H 195.673 -1.4335 1.47105 0
M  V30 2077 H 193.903 -3.82454 0.571467 0
M  V30 2078 H 195.592 -3.94041 0.973994 0
M  V30 2079 H 196.358 -3.45024 3.40857 0
M  V30 2080 H 192.237 -3.99071 2.30789 0
M  V30 2081 H 195.781 -3.93591 5.75962 0
M  V30 2082 H 191.678 -4.47718 4.64994 0
M  V30 2083 H 192.446 -4.67867 6.71597 0
M  V30 2084 N 195.109 -0.891671 -1.2995 0
M  V30 2085 C 196.057 -0.353066 -2.29905 0
M  V30 2086 C 197.051 0.543509 -1.60444 0
M  V30 2087 O 198.257 0.4272 -1.74857 0
M  V30 2088 H 194.632 -0.095531 -0.745907 0
M  V30 2089 H 196.603 -1.20961 -2.72784 0
M  V30 2090 C 195.352 0.411475 -3.45257 0
M  V30 2091 H 194.675 -0.269182 -3.98893 0
M  V30 2092 H 196.115 0.753328 -4.17254 0
M  V30 2093 C 194.574 1.6111 -2.9588 0
M  V30 2094 O 195.104 2.71045 -2.96475 0
M  V30 2095 N 193.31 1.45054 -2.51809 0
M  V30 2096 H 192.857 0.556175 -2.51524 0
M  V30 2097 H 192.815 2.25453 -2.1913 0
M  V30 2098 N 196.587 1.43421 -0.653314 0
M  V30 2099 C 197.833 2.02111 -0.166992 0
M  V30 2100 C 198.166 1.51423 1.21592 0
M  V30 2101 O 197.441 0.707389 1.8118 0
M  V30 2102 C 197.724 3.5966 -0.177948 0
M  V30 2103 C 197.577 4.20579 -1.59478 0
M  V30 2104 C 198.896 4.37413 0.4856 0
M  V30 2105 H 196.015 0.734374 -0.0621557 0
M  V30 2106 H 198.657 1.70717 -0.834016 0
M  V30 2107 H 196.807 3.86537 0.390032 0
M  V30 2108 H 198.479 4.04732 -2.21336 0
M  V30 2109 H 196.722 3.77226 -2.14204 0
M  V30 2110 H 197.393 5.29665 -1.5543 0
M  V30 2111 H 199.869 4.161 0.00234528 0
M  V30 2112 H 198.745 5.47075 0.447207 0
M  V30 2113 H 199.006 4.13672 1.55974 0
M  V30 2114 N 198.065 0.39524 1.52563 0
M  V30 2115 C 199.476 -0.0774719 1.86539 0
M  V30 2116 C 199.827 -1.45641 1.31466 0
M  V30 2117 O 198.952 -2.06459 0.648367 0
M  V30 2118 C 199.547 -0.147356 3.38479 0
M  V30 2119 C 198.106 -0.564373 3.72145 0
M  V30 2120 C 197.253 0.269919 2.75983 0
M  V30 2121 H 200.204 0.612876 1.46388 0
M  V30 2122 H 200.225 -0.965343 3.68051 0
M  V30 2123 H 199.737 0.856387 3.78534 0
M  V30 2124 H 197.838 -1.57527 3.37663 0
M  V30 2125 H 197.951 -0.318402 4.78041 0
M  V30 2126 H 196.315 -0.265696 2.5331 0
M  V30 2127 H 197.098 1.27175 3.18875 0
M  V30 2128 N 199.544 -1.57102 0.125237 0
M  V30 2129 C 200.792 -1.95021 -0.530198 0
M  V30 2130 C 201.113 -1.00982 -1.66816 0
M  V30 2131 O 200.383 -0.0672693 -1.95784 0
M  V30 2132 H 198.963 -0.720046 -0.198853 0
M  V30 2133 H 201.625 -1.93916 0.19564 0
M  V30 2134 H 200.721 -2.98211 -0.920681 0
M  V30 2135 N 201.022 0.148545 -1.56898 0
M  V30 2136 C 202.438 0.501131 -1.51528 0
M  V30 2137 C 202.638 1.83458 -0.833399 0
M  V30 2138 O 201.694 2.49259 -0.40328 0
M  V30 2139 C 203.007 0.512864 -2.96294 0
M  V30 2140 C 204.555 0.598487 -3.07225 0
M  V30 2141 C 205.03 0.640897 -4.53494 0
M  V30 2142 N 206.521 0.703163 -4.57832 0
M  V30 2143 C 207.256 0.756935 -5.68382 0
M  V30 2144 N 206.752 0.770147 -6.88506 0
M  V30 2145 N 208.545 0.797698 -5.56411 0
M  V30 2146 H 200.696 -0.725532 -1.99624 0
M  V30 2147 H 202.959 -0.264358 -0.910395 0
M  V30 2148 H 202.665 -0.398691 -3.49433 0
M  V30 2149 H 202.539 1.35133 -3.52163 0
M  V30 2150 H 204.926 1.50046 -2.54106 0
M  V30 2151 H 205.007 -0.267093 -2.54402 0
M  V30 2152 H 204.651 -0.256915 -5.0725 0
M  V30 2153 H 204.581 1.52295 -5.04097 0
M  V30 2154 H 207.072 0.700314 -3.71354 0
M  V30 2155 H 207.385 0.812983 -7.68512 0
M  V30 2156 H 205.73 0.738049 -6.9107 0
M  V30 2157 H 208.921 0.784535 -4.61479 0
M  V30 2158 H 209.094 0.83614 -6.42583 0
M  V30 2159 N 202.5 1.5196 0.417844 0
M  V30 2160 C 203.728 1.69426 1.18753 0
M  V30 2161 C 204.143 0.399955 1.84515 0
M  V30 2162 O 203.5 -0.623288 1.71527 0
M  V30 2163 C 203.551 2.82375 2.25714 0
M  V30 2164 O 203.272 4.06793 1.62638 0
M  V30 2165 C 204.773 3.11277 3.15628 0
M  V30 2166 H 201.993 0.568031 0.357186 0
M  V30 2167 H 204.537 1.98475 0.49273 0
M  V30 2168 H 202.692 2.5587 2.90877 0
M  V30 2169 H 203.106 4.69667 2.3348 0
M  V30 2170 H 204.58 3.93843 3.86771 0
M  V30 2171 H 205.057 2.24473 3.77503 0
M  V30 2172 H 205.663 3.39515 2.56144 0
M  V30 2173 N 203.978 -0.674533 1.42435 0
M  V30 2174 C 205.226 -1.43175 1.42637 0
M  V30 2175 C 205.547 -1.94951 0.0438992 0
M  V30 2176 O 204.817 -1.7308 -0.917607 0
M  V30 2177 H 203.397 -0.531307 0.525092 0
M  V30 2178 H 206.059 -0.797006 1.77859 0
M  V30 2179 H 205.155 -2.28463 2.12629 0
M  V30 2180 N 205.456 -1.28612 -0.910864 0
M  V30 2181 C 206.702 -1.16106 -1.66274 0
M  V30 2182 C 207.035 0.289113 -1.92036 0
M  V30 2183 O 206.31 1.21 -1.52281 0
M  V30 2184 C 206.593 -1.96309 -3.01885 0
M  V30 2185 C 206.446 -3.49405 -2.8326 0
M  V30 2186 C 207.765 -1.78076 -4.02463 0
M  V30 2187 H 204.884 -0.423152 -0.603417 0
M  V30 2188 H 207.526 -1.57961 -1.05586 0
M  V30 2189 H 205.676 -1.60742 -3.53687 0
M  V30 2190 H 207.348 -3.94894 -2.38446 0
M  V30 2191 H 205.591 -3.74893 -2.18261 0
M  V30 2192 H 206.262 -4.00784 -3.79574 0
M  V30 2193 H 208.738 -2.0912 -3.59733 0
M  V30 2194 H 207.614 -2.36561 -4.95308 0
M  V30 2195 H 207.875 -0.733008 -4.35981 0
M  V30 2196 N 206.934 1.1197 -1.10907 0
M  V30 2197 C 207.882 2.19927 -0.757303 0
M  V30 2198 C 208.876 1.67564 0.248747 0
M  V30 2199 O 210.082 1.79672 0.108605 0
M  V30 2200 H 206.457 0.716925 -0.226987 0
M  V30 2201 H 208.428 2.46847 -1.67658 0
M  V30 2202 C 207.177 3.47061 -0.210671 0
M  V30 2203 H 206.5 3.87703 -0.976049 0
M  V30 2204 H 207.94 4.24 -0.0026584 0
M  V30 2205 C 206.399 3.19864 1.05777 0
M  V30 2206 O 206.929 3.40049 2.13845 0
M  V30 2207 N 205.135 2.73636 0.978349 0
M  V30 2208 H 204.682 2.5741 0.0988246 0
M  V30 2209 H 204.64 2.55815 1.82773 0
M  V30 2210 N 208.412 0.89855 1.29475 0
M  V30 2211 C 209.658 0.524658 1.95896 0
M  V30 2212 C 209.991 -0.926468 1.70676 0
M  V30 2213 O 209.266 -1.65665 1.01908 0
M  V30 2214 C 209.549 0.81633 3.50725 0
M  V30 2215 C 209.402 2.31907 3.85408 0
M  V30 2216 C 210.721 0.302038 4.39062 0
M  V30 2217 H 207.84 0.19209 0.711527 0
M  V30 2218 H 210.482 1.12502 1.53112 0
M  V30 2219 H 208.632 0.305369 3.87298 0
M  V30 2220 H 210.304 2.89949 3.58786 0
M  V30 2221 H 208.547 2.78027 3.32992 0
M  V30 2222 H 209.218 2.47373 4.93468 0
M  V30 2223 H 211.694 0.739551 4.09475 0
M  V30 2224 H 210.57 0.535331 5.46283 0
M  V30 2225 H 210.831 -0.797216 4.34853 0
M  V30 2226 N 209.89 -1.43072 0.660911 0
M  V30 2227 C 210.82 -2.33497 -0.0122829 0
M  V30 2228 C 211.801 -1.49903 -0.803925 0
M  V30 2229 O 212.986 -1.78546 -0.763864 0
M  V30 2230 C 210.116 -3.33363 -0.973994 0
M  V30 2231 C 209.07 -4.27003 -0.291928 0
M  V30 2232 C 208.396 -5.16967 -1.36562 0
M  V30 2233 C 209.696 -5.15816 0.820462 0
M  V30 2234 H 211.39 -2.90038 0.742873 0
M  V30 2235 H 208.936 -1.39461 0.358688 0
M  V30 2236 H 210.889 -3.95524 -1.45392 0
M  V30 2237 H 209.613 -2.75095 -1.7604 0
M  V30 2238 H 208.272 -3.66217 0.167623 0
M  V30 2239 H 207.92 -4.55034 -2.14366 0
M  V30 2240 H 207.62 -5.80441 -0.914454 0
M  V30 2241 H 209.144 -5.82003 -1.84675 0
M  V30 2242 H 210.558 -5.71742 0.422366 0
M  V30 2243 H 208.955 -5.8805 1.19656 0
M  V30 2244 H 210.025 -4.55045 1.67518 0
M  V30 2245 N 211.368 -0.403325 -1.52352 0
M  V30 2246 C 212.779 0.0675782 -1.86578 0
M  V30 2247 C 213.13 1.44941 -1.32236 0
M  V30 2248 O 212.255 2.06112 -0.659307 0
M  V30 2249 C 212.85 0.129404 -3.38553 0
M  V30 2250 C 211.409 0.544629 -3.72439 0
M  V30 2251 C 210.556 -0.284551 -2.75836 0
M  V30 2252 H 213.507 -0.620631 -1.46061 0
M  V30 2253 H 213.528 0.94581 -3.68558 0
M  V30 2254 H 213.04 -0.87645 -3.78074 0
M  V30 2255 H 211.141 1.55734 -3.38493 0
M  V30 2256 H 211.254 0.293046 -4.78203 0
M  V30 2257 H 209.618 0.252258 -2.53448 0
M  V30 2258 H 210.401 -1.28865 -3.18196 0
M  V30 2259 N 212.846 1.57033 -0.133567 0
M  V30 2260 C 213.756 2.19632 0.824564 0
M  V30 2261 C 214.772 1.17666 1.28182 0
M  V30 2262 O 215.948 1.50193 1.3418 0
M  V30 2263 C 213.013 2.79499 2.05137 0
M  V30 2264 C 212.074 3.96548 1.64464 0
M  V30 2265 C 211.307 4.5355 2.81297 0
M  V30 2266 O 211.53 4.09438 3.97136 0
M  V30 2267 O 210.464 5.44018 2.57542 0
M  V30 2268 H 214.29 3.01991 0.321766 0
M  V30 2269 H 211.875 1.49112 0.0927889 0
M  V30 2270 H 213.757 3.17602 2.7696 0
M  V30 2271 H 212.432 2.00162 2.54395 0
M  V30 2272 H 211.339 3.63186 0.897048 0
M  V30 2273 H 212.672 4.77364 1.19934 0
M  V30 2274 N 214.325 -0.140222 1.56975 0
M  V30 2275 C 215.553 -0.866437 1.87884 0
M  V30 2276 C 215.968 -1.74428 0.722517 0
M  V30 2277 O 215.325 -1.79891 -0.30749 0
M  V30 2278 C 215.376 -1.71753 3.18093 0
M  V30 2279 O 215.097 -0.875056 4.29272 0
M  V30 2280 C 216.598 -2.55074 3.62563 0
M  V30 2281 H 213.818 -0.25019 0.622612 0
M  V30 2282 H 216.362 -0.130977 2.0408 0
M  V30 2283 H 214.517 -2.40598 3.03631 0
M  V30 2284 H 214.931 -1.46002 5.03769 0
M  V30 2285 H 216.405 -3.10356 4.5649 0
M  V30 2286 H 216.882 -3.31434 2.88181 0
M  V30 2287 H 217.488 -1.91509 3.79743 0
M  V30 2288 N 215.803 -1.52179 -0.40978 0
M  V30 2289 C 216.766 -1.74853 -1.48186 0
M  V30 2290 C 217.766 -0.618417 -1.48433 0
M  V30 2291 O 218.956 -0.886286 -1.49969 0
M  V30 2292 C 216.088 -1.8303 -2.87598 0
M  V30 2293 H 217.281 -2.70559 -1.29374 0
M  V30 2294 H 214.834 -1.42586 -0.640233 0
M  V30 2295 H 215.569 -0.89236 -3.11781 0
M  V30 2296 H 215.354 -2.65187 -2.88822 0
M  V30 2297 H 216.844 -2.02316 -3.65319 0
M  V30 2298 N 217.281 0.66697 -1.42791 0
M  V30 2299 C 218.244 1.76211 -1.46568 0
M  V30 2300 C 219.244 1.56896 -0.352196 0
M  V30 2301 O 220.434 1.63044 -0.613364 0
M  V30 2302 C 217.566 3.14935 -1.30494 0
M  V30 2303 H 218.759 1.74247 -2.44086 0
M  V30 2304 H 216.312 0.877342 -1.29354 0
M  V30 2305 H 217.047 3.2252 -0.339301 0
M  V30 2306 H 216.832 3.30359 -2.11199 0
M  V30 2307 H 218.322 3.94821 -1.36038 0
M  V30 2308 N 218.759 1.29093 0.90403 0
M  V30 2309 C 220.175 1.07011 1.1841 0
M  V30 2310 C 220.375 -0.181358 2.00682 0
M  V30 2311 O 219.431 -0.880331 2.36657 0
M  V30 2312 C 220.744 2.32311 1.90924 0
M  V30 2313 C 222.292 2.37587 2.03768 0
M  V30 2314 C 222.767 3.62679 2.79693 0
M  V30 2315 N 224.258 3.63376 2.87249 0
M  V30 2316 C 224.993 4.56848 3.46522 0
M  V30 2317 N 224.489 5.60648 4.06996 0
M  V30 2318 N 226.282 4.44426 3.44154 0
M  V30 2319 H 218.433 2.09412 0.354993 0
M  V30 2320 H 220.696 0.922181 0.219742 0
M  V30 2321 H 220.402 3.23536 1.37905 0
M  V30 2322 H 220.276 2.39483 2.91424 0
M  V30 2323 H 222.663 1.46853 2.55965 0
M  V30 2324 H 222.744 2.34403 1.02415 0
M  V30 2325 H 222.388 4.53762 2.28173 0
M  V30 2326 H 222.318 3.63119 3.81381 0
M  V30 2327 H 224.809 2.88321 2.44293 0
M  V30 2328 H 225.122 6.28101 4.50232 0
M  V30 2329 H 223.467 5.64463 4.05471 0
M  V30 2330 H 226.658 3.62529 2.96126 0
M  V30 2331 H 226.831 5.17457 3.90054 0
M  V30 2332 N 220.237 -1.11381 1.11499 0
M  V30 2333 C 221.486 -1.82494 0.858993 0
M  V30 2334 C 221.799 -1.85605 -0.617278 0
M  V30 2335 O 223.005 -2.52824 -0.989552 0
M  V30 2336 C 221.461 -3.27745 1.48699 0
M  V30 2337 C 221.069 -3.32961 2.99735 0
M  V30 2338 C 222.813 -4.03754 1.31085 0
M  V30 2339 C 220.72 -4.72612 3.55516 0
M  V30 2340 H 219.65 -0.683802 0.317696 0
M  V30 2341 H 222.301 -1.25331 1.34031 0
M  V30 2342 H 220.683 -3.84844 0.933339 0
M  V30 2343 H 221.857 -2.85741 3.61509 0
M  V30 2344 H 220.172 -2.70433 3.16631 0
M  V30 2345 H 222.769 -5.06891 1.70192 0
M  V30 2346 H 223.112 -4.15527 0.253496 0
M  V30 2347 H 223.645 -3.53043 1.83318 0
M  V30 2348 H 220.384 -4.66036 4.60967 0
M  V30 2349 H 219.904 -5.2024 2.98513 0
M  V30 2350 H 221.583 -5.4157 3.53992 0
M  V30 2351 N 221.715 -0.905404 -1.28997 0
M  V30 2352 C 222.678 -0.392253 -2.25819 0
M  V30 2353 C 223.678 0.476753 -1.5357 0
M  V30 2354 O 224.868 0.280994 -1.71919 0
M  V30 2355 C 222 0.438588 -3.38067 0
M  V30 2356 H 223.193 -1.24743 -2.72725 0
M  V30 2357 H 220.746 -0.684051 -1.40536 0
M  V30 2358 H 221.481 1.31352 -2.96508 0
M  V30 2359 H 221.266 -0.184167 -3.91667 0
M  V30 2360 H 222.756 0.78873 -4.10084 0
M  V30 2361 N 223.193 1.4272 -0.668489 0
M  V30 2362 C 224.156 2.292 0.00448567 0
M  V30 2363 C 225.156 1.43001 0.735339 0
M  V30 2364 O 226.346 1.64461 0.57429 0
M  V30 2365 C 223.478 3.25375 1.01705 0
M  V30 2366 H 224.671 2.90199 -0.756608 0
M  V30 2367 H 222.224 1.50254 -0.430506 0
M  V30 2368 H 222.959 2.69301 1.80686 0
M  V30 2369 H 222.744 3.88944 0.496463 0
M  V30 2370 H 224.234 3.90245 1.48655 0
M  V30 2371 N 224.671 0.411399 1.52136 0
M  V30 2372 C 225.948 -0.222308 1.94333 0
M  V30 2373 C 226.328 -1.6242 1.34844 0
M  V30 2374 O 225.676 -2.22384 0.525145 0
M  V30 2375 C 225.886 -0.226345 3.48265 0
M  V30 2376 C 227.234 -0.444592 4.22266 0
M  V30 2377 O 228.258 -0.305602 3.54887 0
M  V30 2378 O 227.117 -0.718749 5.41753 0
M  V30 2379 H 224.211 -0.143907 0.814383 0
M  V30 2380 H 226.757 0.467506 1.63133 0
M  V30 2381 H 225.529 0.75475 3.83952 0
M  V30 2382 H 225.152 -0.960163 3.85832 0
M  V30 2383 N 226.149 -1.5696 0.141893 0
M  V30 2384 C 227.079 -2.19516 -0.795936 0
M  V30 2385 C 228.06 -1.14187 -1.26077 0
M  V30 2386 O 229.245 -1.42511 -1.31925 0
M  V30 2387 C 226.375 -2.81272 -2.03723 0
M  V30 2388 C 225.329 -3.92384 -1.70936 0
M  V30 2389 C 224.655 -4.41052 -3.02287 0
M  V30 2390 C 225.955 -5.13403 -0.959954 0
M  V30 2391 H 227.649 -2.98138 -0.274596 0
M  V30 2392 H 225.195 -1.43406 -0.130636 0
M  V30 2393 H 227.148 -3.237 -2.69808 0
M  V30 2394 H 225.872 -1.99973 -2.58221 0
M  V30 2395 H 224.531 -3.50566 -1.07232 0
M  V30 2396 H 224.179 -3.56582 -3.54765 0
M  V30 2397 H 223.879 -5.15993 -2.81114 0
M  V30 2398 H 225.403 -4.86146 -3.69451 0
M  V30 2399 H 226.817 -5.52706 -1.52279 0
M  V30 2400 H 225.214 -5.94073 -0.848357 0
M  V30 2401 H 226.284 -4.84875 0.0492434 0
M  V30 2402 N 227.627 0.131896 -1.57047 0
M  V30 2403 C 228.574 1.16236 -1.99393 0
M  V30 2404 C 229.544 1.41863 -0.863943 0
M  V30 2405 O 230.729 1.53946 -1.12718 0
M  V30 2406 C 227.869 2.48708 -2.39245 0
M  V30 2407 C 226.982 2.30127 -3.65603 0
M  V30 2408 C 226.117 3.55738 -3.94492 0
M  V30 2409 C 225.156 3.32259 -5.14073 0
M  V30 2410 N 224.293 4.50039 -5.38896 0
M  V30 2411 H 229.133 0.794251 -2.87221 0
M  V30 2412 H 226.67 0.380707 -1.42088 0
M  V30 2413 H 228.628 3.25969 -2.60384 0
M  V30 2414 H 227.258 2.83437 -1.54478 0
M  V30 2415 H 226.31 1.43845 -3.52154 0
M  V30 2416 H 227.622 2.08746 -4.5302 0
M  V30 2417 H 226.776 4.41423 -4.1621 0
M  V30 2418 H 225.515 3.80138 -3.05526 0
M  V30 2419 H 224.52 2.44963 -4.92212 0
M  V30 2420 H 225.745 3.09242 -6.04604 0
M  V30 2421 H 223.691 4.74584 -4.52886 0
M  V30 2422 H 223.608 4.31716 -6.2061 0
M  V30 2423 H 224.876 5.36895 -5.65123 0
M  V30 2424 N 229.106 1.52395 0.401703 0
M  V30 2425 C 230.054 1.7689 1.51039 0
M  V30 2426 C 231.048 0.636298 1.56996 0
M  V30 2427 O 232.254 0.818507 1.60314 0
M  V30 2428 H 228.629 0.559502 0.502456 0
M  V30 2429 H 230.6 2.69757 1.27568 0
M  V30 2430 C 229.349 1.94331 2.88324 0
M  V30 2431 H 228.672 2.80905 2.84486 0
M  V30 2432 H 230.112 2.15466 3.65172 0
M  V30 2433 C 228.571 0.712396 3.29282 0
M  V30 2434 O 229.101 -0.116218 4.01532 0
M  V30 2435 N 227.307 0.546154 2.85422 0
M  V30 2436 H 226.854 1.22156 2.26794 0
M  V30 2437 H 226.812 -0.276113 3.13185 0
M  V30 2438 N 230.584 -0.659388 1.43143 0
M  V30 2439 C 231.83 -1.42145 1.44647 0
M  V30 2440 C 232.163 -1.9408 0.0681907 0
M  V30 2441 O 231.438 -1.71899 -0.910007 0
M  V30 2442 C 231.721 -2.60735 2.48373 0
M  V30 2443 C 231.574 -2.14332 3.95451 0
M  V30 2444 C 232.893 -3.62951 2.48906 0
M  V30 2445 H 230.012 -0.51552 0.526696 0
M  V30 2446 H 232.654 -0.748069 1.74654 0
M  V30 2447 H 230.804 -3.18184 2.22916 0
M  V30 2448 H 232.476 -1.61932 4.31944 0
M  V30 2449 H 230.719 -1.4576 4.08578 0
M  V30 2450 H 231.39 -2.99583 4.63631 0
M  V30 2451 H 233.866 -3.1525 2.71582 0
M  V30 2452 H 232.742 -4.43487 3.23435 0
M  V30 2453 H 233.003 -4.15126 1.52061 0
M  V30 2454 N 232.062 -1.29571 -0.897171 0
M  V30 2455 C 233.308 -1.17863 -1.65034 0
M  V30 2456 C 233.641 0.268729 -1.92332 0
M  V30 2457 O 232.916 1.19378 -1.53555 0
M  V30 2458 C 233.199 -1.995 -2.99786 0
M  V30 2459 C 233.052 -3.5239 -2.79538 0
M  V30 2460 C 234.371 -1.82335 -4.00552 0
M  V30 2461 H 231.49 -0.429528 -0.598895 0
M  V30 2462 H 234.132 -1.59072 -1.03905 0
M  V30 2463 H 232.282 -1.64485 -3.51962 0
M  V30 2464 H 233.954 -3.97401 -2.34244 0
M  V30 2465 H 232.197 -3.77187 -2.14273 0
M  V30 2466 H 232.868 -4.04787 -3.75302 0
M  V30 2467 H 235.344 -2.12924 -3.57495 0
M  V30 2468 H 234.22 -2.41801 -4.92771 0
M  V30 2469 H 234.481 -0.779209 -4.35179 0
M  V30 2470 N 233.54 1.10788 -1.12088 0
M  V30 2471 C 234.788 1.8231 -0.872205 0
M  V30 2472 C 235.109 1.85419 0.603709 0
M  V30 2473 O 234.379 1.32963 1.43867 0
M  V30 2474 H 232.959 0.675137 -0.319686 0
M  V30 2475 H 235.621 1.34068 -1.41463 0
M  V30 2476 H 234.717 2.85955 -1.25045 0
M  V30 2477 N 235.018 0.912232 1.28515 0
M  V30 2478 C 236.267 0.540504 1.94323 0
M  V30 2479 C 236.58 -0.920044 1.72611 0
M  V30 2480 O 237.786 -1.39986 2.32629 0
M  V30 2481 C 236.242 0.915803 3.48053 0
M  V30 2482 C 235.85 2.39598 3.78546 0
M  V30 2483 C 237.594 0.614588 4.20027 0
M  V30 2484 C 235.501 2.71148 5.25578 0
M  V30 2485 H 234.431 0.198418 0.727424 0
M  V30 2486 H 237.082 1.11094 1.46049 0
M  V30 2487 H 235.464 0.274168 3.9505 0
M  V30 2488 H 236.638 3.08422 3.42364 0
M  V30 2489 H 234.953 2.66749 3.1974 0
M  V30 2490 H 237.55 0.827002 5.28266 0
M  V30 2491 H 237.893 -0.447531 4.13887 0
M  V30 2492 H 238.426 1.21462 3.78803 0
M  V30 2493 H 235.165 3.76207 5.36794 0
M  V30 2494 H 234.685 2.0696 5.62963 0
M  V30 2495 H 236.364 2.58072 5.93302 0
M  V30 2496 N 236.496 -1.42363 0.676048 0
M  V30 2497 C 237.443 -2.308 -0.00150904 0
M  V30 2498 C 238.413 -1.46032 -0.791444 0
M  V30 2499 O 239.598 -1.74861 -0.76344 0
M  V30 2500 C 236.738 -3.31883 -0.945919 0
M  V30 2501 C 235.851 -4.31741 -0.149675 0
M  V30 2502 C 234.986 -5.19898 -1.08995 0
M  V30 2503 C 234.025 -6.11434 -0.285465 0
M  V30 2504 N 233.162 -6.92138 -1.17851 0
M  V30 2505 H 238.002 -2.88187 0.758455 0
M  V30 2506 H 235.539 -1.41952 0.38576 0
M  V30 2507 H 237.497 -3.89019 -1.50731 0
M  V30 2508 H 236.127 -2.76093 -1.6725 0
M  V30 2509 H 235.179 -3.76713 0.528359 0
M  V30 2510 H 236.491 -4.96534 0.474866 0
M  V30 2511 H 235.645 -5.81772 -1.72123 0
M  V30 2512 H 234.384 -4.55284 -1.74837 0
M  V30 2513 H 233.389 -5.48627 0.359018 0
M  V30 2514 H 234.614 -6.78097 0.368883 0
M  V30 2515 H 232.56 -6.30152 -1.82332 0
M  V30 2516 H 232.477 -7.53542 -0.609082 0
M  V30 2517 H 233.745 -7.58499 -1.79722 0
M  V30 2518 N 237.974 -0.419461 -1.51915 0
M  V30 2519 C 238.884 0.407528 -2.31033 0
M  V30 2520 C 239.9 1.04413 -1.3919 0
M  V30 2521 O 241.076 1.0434 -1.72265 0
M  V30 2522 C 238.141 1.50365 -3.12396 0
M  V30 2523 C 237.202 0.889029 -4.19994 0
M  V30 2524 C 236.435 1.93291 -4.97468 0
M  V30 2525 O 236.658 3.15259 -4.75361 0
M  V30 2526 O 235.592 1.53339 -5.8204 0
M  V30 2527 H 239.418 -0.237865 -3.02767 0
M  V30 2528 H 237.003 -0.182413 -1.48282 0
M  V30 2529 H 238.885 2.13975 -3.63032 0
M  V30 2530 H 237.56 2.13345 -2.43445 0
M  V30 2531 H 236.467 0.215353 -3.7348 0
M  V30 2532 H 237.8 0.302991 -4.91267 0
M  V30 2533 N 239.452 1.56882 -0.150215 0
M  V30 2534 C 240.415 2.1573 0.774157 0
M  V30 2535 C 241.415 1.0999 1.17298 0
M  V30 2536 O 242.605 1.35613 1.09338 0
M  V30 2537 C 239.737 2.72302 2.05096 0
M  V30 2538 H 240.93 2.98752 0.262201 0
M  V30 2539 H 238.483 1.55985 0.099248 0
M  V30 2540 H 239.218 1.92956 2.6065 0
M  V30 2541 H 239.003 3.49665 1.77416 0
M  V30 2542 H 240.493 3.17632 2.71109 0
M  V30 2543 N 240.93 -0.123565 1.57115 0
M  V30 2544 C 241.878 -1.17082 2.00984 0
M  V30 2545 C 242.872 -1.43136 0.906009 0
M  V30 2546 O 244.078 -1.43152 1.09121 0
M  V30 2547 H 240.453 -0.394653 0.64012 0
M  V30 2548 H 242.424 -0.774292 2.88179 0
M  V30 2549 C 241.173 -2.49057 2.42623 0
M  V30 2550 H 240.496 -2.29846 3.27125 0
M  V30 2551 H 241.936 -3.20906 2.7712 0
M  V30 2552 C 240.395 -3.11305 1.28805 0
M  V30 2553 O 240.925 -3.97171 0.60153 0
M  V30 2554 N 239.131 -2.71111 1.04628 0
M  V30 2555 H 238.678 -2.01382 1.60634 0
M  V30 2556 H 238.636 -3.1309 0.286685 0
M  V30 2557 N 242.408 -1.52605 -0.393616 0
M  V30 2558 C 243.819 -1.59417 -0.971761 0
M  V30 2559 C 244.17 -0.444173 -1.91106 0
M  V30 2560 O 243.295 0.433382 -2.12016 0
M  V30 2561 C 243.89 -2.88936 -1.76921 0
M  V30 2562 C 242.449 -2.98175 -2.29714 0
M  V30 2563 C 241.596 -2.54491 -1.10135 0
M  V30 2564 H 244.547 -1.57751 -0.173317 0
M  V30 2565 H 244.568 -2.75163 -2.62804 0
M  V30 2566 H 244.08 -3.72616 -1.08532 0
M  V30 2567 H 242.181 -2.19024 -3.01429 0
M  V30 2568 H 242.294 -4.02726 -2.59517 0
M  V30 2569 H 240.658 -2.08702 -1.45999 0
M  V30 2570 H 241.441 -3.4056 -0.432874 0
M  V30 2571 N 243.887 0.651787 -1.4349 0
M  V30 2572 C 245.164 1.40909 -1.35661 0
M  V30 2573 C 245.544 2.11099 -0.00511733 0
M  V30 2574 O 244.892 2.04892 1.0115 0
M  V30 2575 C 245.102 2.3926 -2.54078 0
M  V30 2576 C 246.45 3.03217 -2.97228 0
M  V30 2577 O 247.474 2.49588 -2.54135 0
M  V30 2578 O 246.333 4.00455 -3.71885 0
M  V30 2579 H 243.427 0.629625 -0.536191 0
M  V30 2580 H 245.973 0.678575 -1.55542 0
M  V30 2581 H 244.745 1.86352 -3.44076 0
M  V30 2582 H 244.368 3.1976 -2.36303 0
M  V30 2583 N 245.365 1.30045 0.890287 0
M  V30 2584 C 246.614 1.17929 1.63633 0
M  V30 2585 C 246.927 -0.266204 1.9378 0
M  V30 2586 O 248.133 -0.508804 2.6669 0
M  V30 2587 C 246.589 2.06317 2.94892 0
M  V30 2588 C 246.197 3.55745 2.72305 0
M  V30 2589 C 247.941 2.0295 3.72843 0
M  V30 2590 C 245.848 4.36205 3.99348 0
M  V30 2591 H 244.778 0.437782 0.613892 0
M  V30 2592 H 247.429 1.54754 0.986075 0
M  V30 2593 H 245.811 1.6237 3.61182 0
M  V30 2594 H 246.985 4.07805 2.1455 0
M  V30 2595 H 245.3 3.6088 2.07737 0
M  V30 2596 H 247.897 2.60319 4.67053 0
M  V30 2597 H 248.24 1.0117 4.0382 0
M  V30 2598 H 248.773 2.4499 3.13408 0
M  V30 2599 H 245.512 5.38659 3.73533 0
M  V30 2600 H 245.032 3.8891 4.56628 0
M  V30 2601 H 246.711 4.47362 4.67415 0
M  V30 2602 N 246.843 -1.10192 1.12674 0
M  V30 2603 C 248.12 -1.78717 0.794965 0
M  V30 2604 C 248.5 -1.98628 -0.714853 0
M  V30 2605 O 247.848 -1.58135 -1.64941 0
M  V30 2606 C 248.058 -3.11546 1.5729 0
M  V30 2607 C 249.406 -3.86382 1.76052 0
M  V30 2608 O 250.43 -3.21274 1.53823 0
M  V30 2609 O 249.289 -5.03246 2.13087 0
M  V30 2610 H 246.383 -0.774702 0.289423 0
M  V30 2611 H 248.929 -1.16819 1.23091 0
M  V30 2612 H 247.701 -2.92489 2.59935 0
M  V30 2613 H 247.324 -3.81164 1.13137 0
M  V30 2614 N 248.321 -0.919034 -1.28029 0
M  V30 2615 C 249.253 -0.368762 -2.26214 0
M  V30 2616 C 250.266 0.495716 -1.55069 0
M  V30 2617 O 251.455 0.30974 -1.75792 0
M  V30 2618 C 248.555 0.491049 -3.35324 0
M  V30 2619 C 247.728 -0.352133 -4.3598 0
M  V30 2620 C 246.787 0.443622 -5.24327 0
M  V30 2621 O 245.813 -0.14566 -5.69014 0
M  V30 2622 N 247.015 1.74545 -5.53637 0
M  V30 2623 H 249.78 -1.21273 -2.74068 0
M  V30 2624 H 247.341 -0.785541 -1.41566 0
M  V30 2625 H 249.333 1.03026 -3.91366 0
M  V30 2626 H 247.903 1.23574 -2.87138 0
M  V30 2627 H 247.123 -1.07269 -3.79324 0
M  V30 2628 H 248.411 -0.928883 -5.00249 0
M  V30 2629 H 247.809 2.24666 -5.19174 0
M  V30 2630 H 246.366 2.23138 -6.12416 0
M  V30 2631 N 249.799 1.42003 -0.683588 0
M  V30 2632 C 251.048 2.00638 -0.206681 0
M  V30 2633 C 251.361 1.5472 1.19671 0
M  V30 2634 O 252.567 2.05833 1.77045 0
M  V30 2635 C 251.023 3.58487 -0.318632 0
M  V30 2636 C 250.631 4.1339 -1.72663 0
M  V30 2637 C 252.375 4.24384 0.0991141 0
M  V30 2638 C 250.282 5.63633 -1.79087 0
M  V30 2639 H 249.212 0.750408 -0.0735107 0
M  V30 2640 H 251.863 1.62624 -0.850048 0
M  V30 2641 H 250.245 3.94047 0.392781 0
M  V30 2642 H 251.419 3.89273 -2.46583 0
M  V30 2643 H 249.734 3.59976 -2.09299 0
M  V30 2644 H 252.331 5.34652 0.0713833 0
M  V30 2645 H 252.674 4.00505 1.13586 0
M  V30 2646 H 253.207 3.93816 -0.561599 0
M  V30 2647 H 249.946 5.92323 -2.80774 0
M  V30 2648 H 249.466 5.89714 -1.09535 0
M  V30 2649 H 251.145 6.28201 -1.5483 0
M  V30 2650 N 251.277 0.427512 1.51691 0
M  V30 2651 C 252.554 -0.201684 1.94557 0
M  V30 2652 C 252.934 -1.60981 1.36559 0
M  V30 2653 O 252.282 -2.21814 0.548702 0
M  V30 2654 C 252.492 -0.189394 3.48486 0
M  V30 2655 C 253.84 -0.39978 4.22714 0
M  V30 2656 O 254.864 -0.267945 3.55191 0
M  V30 2657 O 253.723 -0.661249 5.42485 0
M  V30 2658 H 250.817 -0.135261 0.815864 0
M  V30 2659 H 253.363 0.484782 1.62628 0
M  V30 2660 H 252.135 0.795431 3.8313 0
M  V30 2661 H 251.758 -0.919187 3.86829 0
M  V30 2662 N 252.755 -1.56801 0.158532 0
M  V30 2663 C 254.171 -1.5837 -0.197774 0
M  V30 2664 C 254.371 -1.17334 -1.63814 0
M  V30 2665 O 253.427 -0.878988 -2.36707 0
M  V30 2666 C 254.74 -3.00615 0.0714459 0
M  V30 2667 C 256.288 -3.12999 0.00864533 0
M  V30 2668 C 256.763 -4.57313 0.250685 0
M  V30 2669 N 258.254 -4.62777 0.198014 0
M  V30 2670 C 258.989 -5.72271 0.359642 0
M  V30 2671 N 258.485 -6.90371 0.579625 0
M  V30 2672 N 260.278 -5.61318 0.296438 0
M  V30 2673 H 252.429 -1.81765 1.09887 0
M  V30 2674 H 254.692 -0.841849 0.435884 0
M  V30 2675 H 254.398 -3.35068 1.06874 0
M  V30 2676 H 254.272 -3.71683 -0.642757 0
M  V30 2677 H 256.659 -2.7838 -0.979217 0
M  V30 2678 H 256.74 -2.44393 0.755359 0
M  V30 2679 H 256.384 -4.92639 1.2357 0
M  V30 2680 H 256.314 -5.24061 -0.516489 0
M  V30 2681 H 258.805 -3.77885 0.0331115 0
M  V30 2682 H 259.118 -7.69689 0.69275 0
M  V30 2683 H 257.463 -6.92264 0.616087 0
M  V30 2684 H 260.654 -4.67932 0.125258 0
M  V30 2685 H 260.827 -6.46599 0.425831 0
M  V30 2686 N 254.233 0.115231 -1.57178 0
M  V30 2687 C 255.461 0.836437 -1.89239 0
M  V30 2688 C 255.876 1.73256 -0.750175 0
M  V30 2689 O 255.233 1.80357 0.278832 0
M  V30 2690 C 255.284 1.66671 -3.20785 0
M  V30 2691 O 255.005 0.806652 -4.3061 0
M  V30 2692 C 256.506 2.49274 -3.66575 0
M  V30 2693 H 253.726 0.240253 -0.626514 0
M  V30 2694 H 256.27 0.0984932 -2.04263 0
M  V30 2695 H 254.425 2.35737 -3.0742 0
M  V30 2696 H 254.839 1.37969 -5.06028 0
M  V30 2697 H 256.313 3.03055 -4.6137 0
M  V30 2698 H 256.79 3.26807 -2.93417 0
M  V30 2699 H 257.396 1.85443 -3.82741 0
M  V30 2700 N 255.711 1.52812 0.385517 0
M  V30 2701 C 256.957 1.68275 1.13188 0
M  V30 2702 C 257.29 0.423179 1.89533 0
M  V30 2703 O 256.565 -0.579113 1.85679 0
M  V30 2704 C 256.848 2.92001 2.1073 0
M  V30 2705 C 256.701 4.28067 1.38125 0
M  V30 2706 C 258.02 3.11283 3.11113 0
M  V30 2707 H 255.139 0.612352 0.410115 0
M  V30 2708 H 257.781 1.85415 0.414869 0
M  V30 2709 H 255.931 2.77519 2.71874 0
M  V30 2710 H 257.603 4.54324 0.799187 0
M  V30 2711 H 255.846 4.28388 0.683092 0
M  V30 2712 H 256.517 5.10733 2.09417 0
M  V30 2713 H 258.993 3.2482 2.6006 0
M  V30 2714 H 257.869 3.99325 3.76605 0
M  V30 2715 H 258.13 2.25656 3.80173 0
M  V30 2716 N 257.189 -0.644168 1.43834 0
M  V30 2717 C 258.414 -1.43642 1.49605 0
M  V30 2718 C 258.839 -1.8773 0.117913 0
M  V30 2719 O 258.197 -1.57938 -0.890239 0
M  V30 2720 C 258.245 -2.6416 2.45463 0
M  V30 2721 O 257.349 -3.63538 1.94714 0
M  V30 2722 H 256.69 -0.430329 0.50568 0
M  V30 2723 H 259.22 -0.787448 1.8884 0
M  V30 2724 H 259.23 -3.11864 2.63068 0
M  V30 2725 H 257.905 -2.31414 3.45572 0
M  V30 2726 H 256.482 -3.2273 1.86814 0
M  V30 2727 N 258.668 -1.30515 -0.883378 0
M  V30 2728 C 259.598 -1.19607 -2.00541 0
M  V30 2729 C 260.579 -0.086346 -1.69881 0
M  V30 2730 O 261.764 -0.268654 -1.92333 0
M  V30 2731 C 258.894 -0.888758 -3.35736 0
M  V30 2732 C 257.848 -1.95659 -3.8066 0
M  V30 2733 C 257.174 -1.50224 -5.13164 0
M  V30 2734 C 258.474 -3.36788 -3.99213 0
M  V30 2735 H 260.168 -2.13476 -2.09925 0
M  V30 2736 H 257.714 -1.02775 -1.00863 0
M  V30 2737 H 259.667 -0.799094 -4.13754 0
M  V30 2738 H 258.391 0.0856125 -3.26488 0
M  V30 2739 H 257.05 -2.03591 -3.04871 0
M  V30 2740 H 256.698 -0.516092 -5.00345 0
M  V30 2741 H 256.398 -2.2165 -5.44192 0
M  V30 2742 H 257.922 -1.42639 -5.93706 0
M  V30 2743 H 259.336 -3.31605 -4.67665 0
M  V30 2744 H 257.733 -4.06314 -4.41621 0
M  V30 2745 H 258.803 -3.78561 -3.03017 0
M  V30 2746 N 260.146 1.09593 -1.13257 0
M  V30 2747 C 261.374 1.855 -0.916378 0
M  V30 2748 C 261.789 1.81069 0.534738 0
M  V30 2749 O 261.146 1.20562 1.37007 0
M  V30 2750 C 261.197 3.33546 -1.39388 0
M  V30 2751 O 260.918 3.37927 -2.78813 0
M  V30 2752 C 262.419 4.26299 -1.21588 0
M  V30 2753 H 259.639 0.585991 -0.326887 0
M  V30 2754 H 262.183 1.38488 -1.5047 0
M  V30 2755 H 260.338 3.77992 -0.848597 0
M  V30 2756 H 260.752 4.30254 -2.9997 0
M  V30 2757 H 262.226 5.28341 -1.59876 0
M  V30 2758 H 262.703 4.38918 -0.157376 0
M  V30 2759 H 263.309 3.87668 -1.7491 0
M  V30 2760 N 261.624 0.925811 1.2754 0
M  V30 2761 C 262.571 0.422045 2.26908 0
M  V30 2762 C 263.541 -0.510029 1.58076 0
M  V30 2763 O 264.726 -0.429599 1.85901 0
M  V30 2764 C 261.866 -0.320837 3.43605 0
M  V30 2765 C 260.979 0.64513 4.27156 0
M  V30 2766 C 260.114 -0.117405 5.3107 0
M  V30 2767 C 259.153 0.841391 6.0629 0
M  V30 2768 N 258.29 0.111604 7.02011 0
M  V30 2769 H 263.13 1.27441 2.69375 0
M  V30 2770 H 260.667 0.639697 1.32462 0
M  V30 2771 H 262.625 -0.76785 4.10073 0
M  V30 2772 H 261.255 -1.13745 3.02096 0
M  V30 2773 H 260.307 1.21067 3.6062 0
M  V30 2774 H 261.619 1.37797 4.79389 0
M  V30 2775 H 260.773 -0.624422 6.03478 0
M  V30 2776 H 259.512 -0.883219 4.79636 0
M  V30 2777 H 258.517 1.35967 5.32722 0
M  V30 2778 H 259.742 1.60696 6.59813 0
M  V30 2779 H 257.688 -0.635999 6.5291 0
M  V30 2780 H 257.605 0.784044 7.51923 0
M  V30 2781 H 258.873 -0.374823 7.78598 0
M  V30 2782 N 263.102 -1.41638 0.69111 0
M  V30 2783 C 264.034 -2.29194 -0.0161523 0
M  V30 2784 C 265.047 -1.44549 -0.748955 0
M  V30 2785 O 266.236 -1.681 -0.6004 0
M  V30 2786 C 263.336 -3.22325 -1.0469 0
M  V30 2787 C 262.509 -4.35706 -0.384621 0
M  V30 2788 C 261.568 -5.09443 -1.31737 0
M  V30 2789 O 260.594 -5.63386 -0.811451 0
M  V30 2790 N 261.796 -5.16487 -2.64993 0
M  V30 2791 H 264.561 -2.90534 0.735523 0
M  V30 2792 H 262.122 -1.52742 0.53679 0
M  V30 2793 H 264.114 -3.68522 -1.67252 0
M  V30 2794 H 262.684 -2.62323 -1.70015 0
M  V30 2795 H 261.904 -3.91948 0.420804 0
M  V30 2796 H 263.192 -5.08743 0.0760765 0
M  V30 2797 H 262.59 -4.741 -3.08619 0
M  V30 2798 H 261.147 -5.66276 -3.22761 0
M  V30 2799 N 264.58 -0.43555 -1.51462 0
M  V30 2800 C 265.543 0.365137 -2.26273 0
M  V30 2801 C 266.543 0.951227 -1.29647 0
M  V30 2802 O 267.733 0.825958 -1.53374 0
M  V30 2803 C 264.865 1.51645 -3.05314 0
M  V30 2804 H 266.058 -0.290474 -2.9849 0
M  V30 2805 H 263.611 -0.188676 -1.55157 0
M  V30 2806 H 264.346 2.20816 -2.3751 0
M  V30 2807 H 264.131 1.10238 -3.76284 0
M  V30 2808 H 265.621 2.08218 -3.61987 0
M  V30 2809 N 266.058 1.56714 -0.166846 0
M  V30 2810 C 267.474 1.58473 0.189372 0
M  V30 2811 C 267.674 1.18201 1.63189 0
M  V30 2812 O 266.73 0.891528 2.36237 0
M  V30 2813 C 268.043 3.00573 -0.0873872 0
M  V30 2814 C 269.591 3.1299 -0.0252443 0
M  V30 2815 C 270.066 4.57174 -0.274934 0
M  V30 2816 N 271.557 4.62665 -0.222553 0
M  V30 2817 C 272.292 5.72072 -0.389985 0
M  V30 2818 N 271.788 6.90054 -0.616229 0
M  V30 2819 N 273.581 5.61153 -0.326202 0
M  V30 2820 H 265.732 1.8118 -1.10849 0
M  V30 2821 H 267.995 0.839525 -0.440342 0
M  V30 2822 H 267.701 3.34497 -1.0865 0
M  V30 2823 H 267.575 3.72019 0.623037 0
M  V30 2824 H 269.962 2.78895 0.96444 0
M  V30 2825 H 270.043 2.43989 -0.768309 0
M  V30 2826 H 269.687 4.91976 -1.26181 0
M  V30 2827 H 269.617 5.24328 0.48869 0
M  V30 2828 H 272.108 3.77863 -0.0531512 0
M  V30 2829 H 272.421 7.69311 -0.733559 0
M  V30 2830 H 270.766 6.91927 -0.652791 0
M  V30 2831 H 273.957 4.67859 -0.150072 0
M  V30 2832 H 274.13 6.46364 -0.460116 0
M  V30 2833 N 267.536 -0.106894 1.57237 0
M  V30 2834 C 268.761 -0.830287 1.90055 0
M  V30 2835 C 269.186 -1.72064 0.75998 0
M  V30 2836 O 268.544 -1.78982 -0.288991 0
M  V30 2837 C 268.592 -1.6295 3.21683 0
M  V30 2838 O 267.696 -2.73748 3.08441 0
M  V30 2839 H 267.037 -0.228855 0.623315 0
M  V30 2840 H 269.567 -0.085658 2.04421 0
M  V30 2841 H 269.577 -2.01621 3.54701 0
M  V30 2842 H 268.252 -0.975989 4.04286 0
M  V30 2843 H 266.829 -2.38192 2.86913 0
M  V30 2844 N 269.014 -1.53014 -0.377408 0
M  V30 2845 C 270.291 -1.59215 -1.13622 0
M  V30 2846 C 270.671 -0.392407 -2.07421 0
M  V30 2847 O 270.019 0.618342 -2.19975 0
M  V30 2848 C 270.229 -2.93669 -1.88573 0
M  V30 2849 C 271.577 -3.47822 -2.43526 0
M  V30 2850 O 272.601 -2.9562 -1.98715 0
M  V30 2851 O 271.46 -4.39055 -3.25412 0
M  V30 2852 H 268.554 -0.642625 -0.52054 0
M  V30 2853 H 271.1 -1.65353 -0.381625 0
M  V30 2854 H 269.872 -3.7243 -1.20048 0
M  V30 2855 H 269.495 -2.90968 -2.70968 0
M  V30 2856 N 270.492 0.636531 -1.44174 0
M  V30 2857 C 271.739 1.39619 -1.46672 0
M  V30 2858 C 272.067 1.94257 -0.0972691 0
M  V30 2859 O 271.322 1.73768 0.900175 0
M  V30 2860 C 271.621 2.58309 -2.47005 0
M  V30 2861 C 271.287 2.21992 -3.92467 0
M  V30 2862 C 269.949 2.118 -4.32081 0
M  V30 2863 C 272.301 1.9321 -4.84065 0
M  V30 2864 C 269.629 1.71007 -5.61225 0
M  V30 2865 C 271.981 1.53911 -6.13591 0
M  V30 2866 C 270.645 1.42257 -6.52165 0
M  V30 2867 H 269.915 0.510902 -0.536712 0
M  V30 2868 H 272.562 0.722328 -1.77355 0
M  V30 2869 H 270.867 3.30903 -2.09786 0
M  V30 2870 H 272.564 3.16533 -2.46186 0
M  V30 2871 H 269.154 2.30841 -3.61124 0
M  V30 2872 H 273.338 1.99997 -4.54219 0
M  V30 2873 H 268.594 1.60583 -5.89935 0
M  V30 2874 H 272.768 1.30677 -6.8403 0
M  V30 2875 H 270.395 1.10419 -7.52138 0
M  V30 2876 N 271.97 1.30982 0.876444 0
M  V30 2877 C 272.903 1.12414 1.98591 0
M  V30 2878 C 273.881 0.0294078 1.62573 0
M  V30 2879 O 275.065 0.184598 1.87594 0
M  V30 2880 C 272.192 0.716276 3.3104 0
M  V30 2881 C 271.238 1.81311 3.86042 0
M  V30 2882 S 272.071 3.41727 4.1229 0
M  V30 2883 C 273.227 3.02863 5.47745 0
M  V30 2884 H 273.46 2.06338 2.14037 0
M  V30 2885 H 270.993 1.15393 1.02586 0
M  V30 2886 H 272.951 0.487697 4.07593 0
M  V30 2887 H 271.612 -0.203749 3.13438 0
M  V30 2888 H 270.805 1.48021 4.81774 0
M  V30 2889 H 270.407 1.99641 3.16259 0
M  V30 2890 H 272.699 2.51353 6.29148 0
M  V30 2891 H 273.642 3.97533 5.8598 0
M  V30 2892 H 274.05 2.40487 5.10711 0
M  V30 2893 N 273.449 -1.08991 1.13837 0
M  V30 2894 C 274.695 -1.81526 0.90422 0
M  V30 2895 C 275.028 -1.85706 -0.568066 0
M  V30 2896 O 274.303 -1.32855 -1.42056 0
M  V30 2897 C 274.586 -3.27447 1.49835 0
M  V30 2898 C 274.439 -3.31512 3.04006 0
M  V30 2899 C 275.758 -4.24256 1.17025 0
M  V30 2900 H 272.877 -0.659029 0.329923 0
M  V30 2901 H 275.519 -1.27644 1.40737 0
M  V30 2902 H 273.669 -3.73462 1.07044 0
M  V30 2903 H 275.341 -2.93867 3.55584 0
M  V30 2904 H 273.584 -2.70963 3.38765 0
M  V30 2905 H 274.255 -4.34329 3.40679 0
M  V30 2906 H 276.731 -3.86549 1.54009 0
M  V30 2907 H 275.607 -5.24684 1.61237 0
M  V30 2908 H 275.868 -4.42019 0.0846274 0
M  V30 2909 N 274.927 -0.932562 -1.27047 0
M  V30 2910 C 276.173 -0.585913 -1.94778 0
M  V30 2911 C 276.528 0.864142 -1.71902 0
M  V30 2912 O 275.821 1.60894 -1.04037 0
M  V30 2913 C 276.015 -0.853713 -3.47054 0
M  V30 2914 C 275.844 -2.32825 -3.84737 0
M  V30 2915 C 274.614 -2.98184 -4.07939 0
M  V30 2916 C 276.812 -3.30612 -3.93954 0
M  V30 2917 N 274.794 -4.3574 -4.3244 0
M  V30 2918 C 276.165 -4.53395 -4.22887 0
M  V30 2919 C 278.22 -3.25755 -3.76548 0
M  V30 2920 C 276.923 -5.71927 -4.36224 0
M  V30 2921 C 278.949 -4.43604 -3.91113 0
M  V30 2922 C 278.311 -5.65166 -4.20437 0
M  V30 2923 H 274.41 -0.264617 -0.735868 0
M  V30 2924 H 276.994 -1.20019 -1.53309 0
M  V30 2925 H 275.165 -0.268557 -3.8747 0
M  V30 2926 H 276.897 -0.469202 -4.01971 0
M  V30 2927 H 273.652 -2.48835 -4.02961 0
M  V30 2928 H 274.076 -5.06915 -4.48738 0
M  V30 2929 H 278.718 -2.32835 -3.52913 0
M  V30 2930 H 276.436 -6.65308 -4.58683 0
M  V30 2931 H 280.022 -4.41368 -3.79059 0
M  V30 2932 H 278.902 -6.54836 -4.31462 0
M  V30 2933 N 276.405 1.4127 -0.698611 0
M  V30 2934 C 277.63 2.06024 -0.238512 0
M  V30 2935 C 278.055 1.5224 1.10475 0
M  V30 2936 O 277.413 0.650623 1.69223 0
M  V30 2937 C 277.461 3.59988 -0.209952 0
M  V30 2938 O 276.565 4.04282 0.814235 0
M  V30 2939 H 275.906 0.653829 -0.115775 0
M  V30 2940 H 278.436 1.8098 -0.954326 0
M  V30 2941 H 278.446 4.07979 -0.0418436 0
M  V30 2942 H 277.121 3.98503 -1.1903 0
M  V30 2943 H 275.698 3.6779 0.615234 0
M  V30 2944 N 277.883 0.443576 1.51229 0
M  V30 2945 C 279.131 -0.120557 2.0174 0
M  V30 2946 C 279.452 -1.42665 1.32935 0
M  V30 2947 O 278.722 -1.9028 0.465866 0
M  V30 2948 H 277.302 -0.0475426 0.745486 0
M  V30 2949 H 279.964 0.587711 1.85828 0
M  V30 2950 H 279.06 -0.291972 3.10731 0
M  V30 2951 N 279.361 -1.56624 0.175154 0
M  V30 2952 C 280.309 -2.19468 -0.770495 0
M  V30 2953 C 281.303 -1.15985 -1.23466 0
M  V30 2954 O 282.509 -1.34176 -1.19987 0
M  V30 2955 H 278.884 -0.703095 -0.266761 0
M  V30 2956 H 280.855 -2.97613 -0.216542 0
M  V30 2957 C 279.604 -2.85264 -1.98796 0
M  V30 2958 H 278.927 -3.64623 -1.63983 0
M  V30 2959 H 280.367 -3.327 -2.62843 0
M  V30 2960 C 278.826 -1.85239 -2.81404 0
M  V30 2961 O 279.356 -1.34024 -3.78682 0
M  V30 2962 N 277.562 -1.53911 -2.46495 0
M  V30 2963 H 277.109 -1.95751 -1.67449 0
M  V30 2964 H 277.067 -0.872382 -3.02054 0
M  V30 2965 N 280.839 0.0985539 -1.57292 0
M  V30 2966 C 282.116 0.834155 -1.76921 0
M  V30 2967 C 282.496 1.97101 -0.755928 0
M  V30 2968 O 281.844 2.27474 0.216245 0
M  V30 2969 C 282.054 1.33194 -3.22584 0
M  V30 2970 C 283.402 1.77611 -3.85668 0
M  V30 2971 O 284.426 1.42825 -3.26312 0
M  V30 2972 O 283.285 2.4192 -4.90038 0
M  V30 2973 H 280.379 0.397628 -0.725135 0
M  V30 2974 H 282.925 0.0807044 -1.69508 0
M  V30 2975 H 281.697 0.517248 -3.87866 0
M  V30 2976 H 281.32 2.1475 -3.34616 0
M  V30 2977 N 282.317 1.53212 0.369288 0
M  V30 2978 C 283.594 1.59815 1.12776 0
M  V30 2979 C 283.974 0.403402 2.0721 0
M  V30 2980 O 283.322 -0.606667 2.20299 0
M  V30 2981 C 283.532 2.94664 1.87013 0
M  V30 2982 C 284.88 3.49109 2.41677 0
M  V30 2983 O 285.904 2.96669 1.97144 0
M  V30 2984 O 284.763 4.40775 3.23079 0
M  V30 2985 H 281.857 0.645376 0.517125 0
M  V30 2986 H 284.403 1.65553 0.37285 0
M  V30 2987 H 283.175 3.73061 1.18071 0
M  V30 2988 H 282.798 2.92401 2.69421 0
M  V30 2989 N 283.795 -0.628877 1.44509 0
M  V30 2990 C 285.211 -0.947305 1.28446 0
M  V30 2991 C 285.411 -2.00275 0.221872 0
M  V30 2992 O 284.467 -2.49447 -0.391471 0
M  V30 2993 C 285.78 -1.40843 2.65676 0
M  V30 2994 C 287.328 -1.52379 2.73404 0
M  V30 2995 C 287.803 -2.01875 4.11109 0
M  V30 2996 N 289.294 -2.09142 4.13296 0
M  V30 2997 C 290.029 -2.48615 5.16699 0
M  V30 2998 N 289.525 -2.87209 6.30462 0
M  V30 2999 N 291.318 -2.48768 5.04054 0
M  V30 3000 H 283.469 0.0690977 2.12288 0
M  V30 3001 H 285.732 -0.0317164 0.947469 0
M  V30 3002 H 285.438 -0.707206 3.44516 0
M  V30 3003 H 285.312 -2.37902 2.92716 0
M  V30 3004 H 287.699 -2.21598 1.9488 0
M  V30 3005 H 287.78 -0.536898 2.50102 0
M  V30 3006 H 287.424 -1.3325 4.90109 0
M  V30 3007 H 287.354 -3.0144 4.31789 0
M  V30 3008 H 289.845 -1.81991 3.31191 0
M  V30 3009 H 290.158 -3.16149 7.05174 0
M  V30 3010 H 288.503 -2.84955 6.33897 0
M  V30 3011 H 291.694 -2.18009 4.14234 0
M  V30 3012 H 291.867 -2.79207 5.84763 0
M  V30 3013 N 285.273 -1.31445 -0.869486 0
M  V30 3014 C 286.501 -1.24122 -1.65534 0
M  V30 3015 C 286.916 0.193387 -1.87807 0
M  V30 3016 O 286.273 1.12557 -1.43656 0
M  V30 3017 C 286.324 -1.98229 -3.02304 0
M  V30 3018 O 286.045 -3.3609 -2.81026 0
M  V30 3019 C 287.546 -1.97751 -3.96749 0
M  V30 3020 H 284.766 -0.428868 -0.516055 0
M  V30 3021 H 287.31 -1.73328 -1.08525 0
M  V30 3022 H 285.465 -1.52782 -3.56001 0
M  V30 3023 H 285.879 -3.7383 -3.67902 0
M  V30 3024 H 287.353 -2.54114 -4.90031 0
M  V30 3025 H 287.83 -0.960137 -4.28577 0
M  V30 3026 H 288.436 -2.43079 -3.48988 0
M  V30 3027 N 286.751 1.08385 -1.14413 0
M  V30 3028 C 287.998 1.80776 -0.912482 0
M  V30 3029 C 288.326 1.86236 0.560934 0
M  V30 3030 O 287.581 1.33431 1.43159 0
M  V30 3031 C 287.88 3.26273 -1.45879 0
M  V30 3032 C 287.546 3.4093 -2.95089 0
M  V30 3033 C 286.208 3.44638 -3.35824 0
M  V30 3034 C 288.56 3.44591 -3.91033 0
M  V30 3035 C 285.888 3.49597 -4.71167 0
M  V30 3036 C 288.24 3.51086 -5.26233 0
M  V30 3037 C 286.904 3.53067 -5.6648 0
M  V30 3038 H 286.174 0.661507 -0.333901 0
M  V30 3039 H 288.821 1.27613 -1.42784 0
M  V30 3040 H 287.126 3.82146 -0.864376 0
M  V30 3041 H 288.823 3.80839 -1.2555 0
M  V30 3042 H 285.413 3.38736 -2.62594 0
M  V30 3043 H 289.597 3.40957 -3.60641 0
M  V30 3044 H 284.853 3.49424 -5.0171 0
M  V30 3045 H 289.027 3.52864 -6.00383 0
M  V30 3046 H 286.654 3.56662 -6.71339 0
M  V30 3047 N 288.23 0.939286 1.26551 0
M  V30 3048 C 289.46 0.601663 1.97645 0
M  V30 3049 C 289.868 -0.827206 1.70159 0
M  V30 3050 O 289.211 -1.56291 0.965338 0
M  V30 3051 C 289.273 0.761725 3.51337 0
M  V30 3052 C 288.937 2.16487 4.0247 0
M  V30 3053 C 289.934 3.14016 4.14355 0
M  V30 3054 C 287.619 2.48494 4.36527 0
M  V30 3055 C 289.613 4.41654 4.59587 0
M  V30 3056 C 287.3 3.76364 4.81449 0
M  V30 3057 C 288.298 4.72758 4.92939 0
M  V30 3058 O 287.986 5.98352 5.36871 0
M  V30 3059 H 287.718 0.225758 0.637189 0
M  V30 3060 H 290.272 1.26178 1.62075 0
M  V30 3061 H 288.502 0.0444808 3.86674 0
M  V30 3062 H 290.191 0.427442 4.03643 0
M  V30 3063 H 290.957 2.90613 3.8829 0
M  V30 3064 H 286.836 1.74202 4.26819 0
M  V30 3065 H 290.38 5.16896 4.68471 0
M  V30 3066 H 286.277 3.99582 5.06956 0
M  V30 3067 H 287.045 6.01507 5.55096 0
M  V30 3068 N 289.708 -1.40897 0.706093 0
M  V30 3069 C 290.638 -2.33418 0.0620085 0
M  V30 3070 C 291.619 -1.52385 -0.755827 0
M  V30 3071 O 292.804 -1.80886 -0.706674 0
M  V30 3072 C 289.934 -3.36293 -0.867445 0
M  V30 3073 C 288.888 -4.27716 -0.155932 0
M  V30 3074 C 288.214 -5.2105 -1.20046 0
M  V30 3075 C 289.514 -5.12944 0.984149 0
M  V30 3076 H 291.208 -2.87527 0.83477 0
M  V30 3077 H 288.754 -1.38249 0.402875 0
M  V30 3078 H 290.707 -3.99949 -1.32735 0
M  V30 3079 H 289.431 -2.80556 -1.67199 0
M  V30 3080 H 288.09 -3.65498 0.284047 0
M  V30 3081 H 287.738 -4.61624 -1.99781 0
M  V30 3082 H 287.438 -5.83056 -0.729328 0
M  V30 3083 H 288.962 -5.87584 -1.66066 0
M  V30 3084 H 290.376 -5.70109 0.604048 0
M  V30 3085 H 288.773 -5.83945 1.38304 0
M  V30 3086 H 289.843 -4.49485 1.81911 0
M  V30 3087 N 291.186 -0.45159 -1.50991 0
M  V30 3088 C 292.116 0.342898 -2.30969 0
M  V30 3089 C 293.097 1.00815 -1.37005 0
M  V30 3090 O 294.282 1.00907 -1.65926 0
M  V30 3091 C 291.412 1.43637 -3.16205 0
M  V30 3092 C 290.366 0.893818 -4.18563 0
M  V30 3093 C 289.692 2.08411 -4.92411 0
M  V30 3094 C 290.992 -0.0815568 -5.22236 0
M  V30 3095 H 292.686 -0.324556 -2.97636 0
M  V30 3096 H 290.232 -0.157531 -1.43136 0
M  V30 3097 H 292.185 1.9995 -3.70942 0
M  V30 3098 H 290.909 2.13232 -2.47386 0
M  V30 3099 H 289.568 0.352798 -3.64898 0
M  V30 3100 H 289.216 2.76658 -4.20082 0
M  V30 3101 H 288.916 1.72741 -5.61636 0
M  V30 3102 H 290.44 2.65251 -5.49976 0
M  V30 3103 H 291.854 0.391742 -5.7196 0
M  V30 3104 H 290.251 -0.351551 -5.99069 0
M  V30 3105 H 291.321 -1.01374 -4.74185 0
M  V30 3106 N 292.664 1.56529 -0.183458 0
M  V30 3107 C 293.904 1.99141 0.460667 0
M  V30 3108 C 294.268 1.06736 1.59597 0
M  V30 3109 O 295.469 1.38538 2.30349 0
M  V30 3110 C 293.74 3.45358 0.919939 0
M  V30 3111 S 295.299 4.09999 1.56354 0
M  V30 3112 H 292.117 0.695479 0.147748 0
M  V30 3113 H 294.719 1.93429 -0.283782 0
M  V30 3114 H 293.423 4.10315 0.0834208 0
M  V30 3115 H 292.954 3.54862 1.69814 0
M  V30 3116 H 294.969 4.06046 2.85203 0
M  V30 3117 N 294.142 -0.090211 1.57342 0
M  V30 3118 C 295.105 -1.09335 2.01441 0
M  V30 3119 C 296.105 -1.32666 0.908641 0
M  V30 3120 O 297.295 -1.28697 1.174 0
M  V30 3121 C 294.427 -2.44136 2.3793 0
M  V30 3122 H 295.62 -0.713662 2.91285 0
M  V30 3123 H 293.173 -0.335404 1.52659 0
M  V30 3124 H 293.908 -2.86972 1.51055 0
M  V30 3125 H 293.693 -2.28548 3.18603 0
M  V30 3126 H 295.183 -3.16277 2.72688 0
M  V30 3127 N 295.62 -1.53406 -0.361157 0
M  V30 3128 C 296.868 -1.69467 -1.10115 0
M  V30 3129 C 297.189 -0.451352 -1.89705 0
M  V30 3130 O 296.459 0.534636 -1.88463 0
M  V30 3131 H 295.039 -0.624749 -0.409508 0
M  V30 3132 H 297.701 -1.90609 -0.406699 0
M  V30 3133 H 296.797 -2.55774 -1.78847 0
M  V30 3134 N 297.098 0.621204 -1.44841 0
M  V30 3135 C 298.346 1.37783 -1.47852 0
M  V30 3136 C 298.667 1.94653 -0.116224 0
M  V30 3137 O 297.937 1.76367 0.852737 0
M  V30 3138 H 296.517 0.511453 -0.544449 0
M  V30 3139 H 299.179 0.730446 -1.80694 0
M  V30 3140 H 298.275 2.20414 -2.20961 0
M  V30 3141 N 298.576 1.31904 0.862503 0
M  V30 3142 C 299.853 1.12644 1.59908 0
M  V30 3143 C 300.233 -0.316104 2.0872 0
M  V30 3144 O 299.581 -1.31145 1.87118 0
M  V30 3145 C 299.791 2.1472 2.7513 0
M  V30 3146 C 301.139 2.47637 3.44907 0
M  V30 3147 O 302.163 2.13205 2.85346 0
M  V30 3148 O 301.022 3.06632 4.52371 0
M  V30 3149 H 298.116 0.43416 0.703871 0
M  V30 3150 H 300.662 1.43408 0.907314 0
M  V30 3151 H 299.434 3.1172 2.3653 0
M  V30 3152 H 299.057 1.84905 3.51989 0
M  V30 3153 N 300.054 -1.07777 1.14986 0
M  V30 3154 C 301.302 -1.79934 0.920235 0
M  V30 3155 C 301.623 -1.86955 -0.554336 0
M  V30 3156 O 300.893 -1.36731 -1.40291 0
M  V30 3157 H 299.473 -0.666424 0.337473 0
M  V30 3158 H 302.135 -1.3027 1.44968 0
M  V30 3159 H 301.231 -2.82539 1.32583 0
M  V30 3160 N 301.532 -0.945985 -1.26051 0
M  V30 3161 C 302.778 -0.597002 -1.93814 0
M  V30 3162 C 303.111 0.862484 -1.73997 0
M  V30 3163 O 302.386 1.61769 -1.07986 0
M  V30 3164 C 302.669 -0.945937 -3.47454 0
M  V30 3165 C 302.522 -2.46052 -3.76535 0
M  V30 3166 C 303.841 -0.464785 -4.37639 0
M  V30 3167 H 300.96 -0.218366 -0.703907 0
M  V30 3168 H 303.602 -1.18107 -1.48831 0
M  V30 3169 H 301.752 -0.448902 -3.85898 0
M  V30 3170 H 303.424 -3.03065 -3.47778 0
M  V30 3171 H 301.667 -2.90194 -3.22444 0
M  V30 3172 H 302.338 -2.65517 -4.83947 0
M  V30 3173 H 304.814 -0.891016 -4.06448 0
M  V30 3174 H 303.69 -0.737712 -5.4392 0
M  V30 3175 H 303.951 0.635274 -4.37512 0
M  V30 3176 N 303.011 1.40521 -0.713556 0
M  V30 3177 C 304.26 2.00155 -0.249192 0
M  V30 3178 C 304.573 1.57224 1.16362 0
M  V30 3179 O 305.779 2.09542 1.72639 0
M  V30 3180 C 304.235 3.5773 -0.3946 0
M  V30 3181 C 303.843 4.09635 -1.81392 0
M  V30 3182 C 305.587 4.24499 0.00907364 0
M  V30 3183 C 303.494 5.59707 -1.91003 0
M  V30 3184 H 302.424 0.74868 -0.0894114 0
M  V30 3185 H 305.075 1.60784 -0.884352 0
M  V30 3186 H 303.457 3.94792 0.30911 0
M  V30 3187 H 304.631 3.83955 -2.54785 0
M  V30 3188 H 302.946 3.55456 -2.16888 0
M  V30 3189 H 305.543 5.34683 -0.0420404 0
M  V30 3190 H 305.886 4.02824 1.05065 0
M  V30 3191 H 306.419 3.92536 -0.645007 0
M  V30 3192 H 303.158 5.86234 -2.93275 0
M  V30 3193 H 302.678 5.87258 -1.22019 0
M  V30 3194 H 304.357 6.24776 -1.6812 0
M  V30 3195 N 304.489 0.459591 1.5075 0
M  V30 3196 C 305.714 -0.0996819 2.0716 0
M  V30 3197 C 306.139 -1.33761 1.32249 0
M  V30 3198 O 305.497 -1.77551 0.366786 0
M  V30 3199 C 305.545 -0.378226 3.58611 0
M  V30 3200 O 304.649 -1.46081 3.85661 0
M  V30 3201 H 303.99 0.00791392 0.663953 0
M  V30 3202 H 306.52 0.647329 1.9409 0
M  V30 3203 H 306.53 -0.622135 4.03229 0
M  V30 3204 H 305.205 0.526439 4.12555 0
M  V30 3205 H 303.782 -1.20511 3.5289 0
M  V30 3206 N 305.967 -1.56429 0.191757 0
M  V30 3207 C 307.213 -1.97777 -0.448554 0
M  V30 3208 C 307.546 -1.07847 -1.61501 0
M  V30 3209 O 306.821 -0.129774 -1.94067 0
M  V30 3210 C 307.104 -3.48362 -0.911906 0
M  V30 3211 C 306.957 -4.4907 0.256136 0
M  V30 3212 C 308.276 -4.02561 -1.77857 0
M  V30 3213 H 305.395 -0.719071 -0.161572 0
M  V30 3214 H 308.037 -1.87896 0.282007 0
M  V30 3215 H 306.187 -3.56914 -1.53442 0
M  V30 3216 H 307.859 -4.5256 0.893733 0
M  V30 3217 H 306.102 -4.24181 0.908436 0
M  V30 3218 H 306.773 -5.51889 -0.11053 0
M  V30 3219 H 309.249 -3.96767 -1.25359 0
M  V30 3220 H 308.125 -5.08301 -2.07174 0
M  V30 3221 H 308.386 -3.47616 -2.73158 0
M  V30 3222 N 307.445 0.0818655 -1.57387 0
M  V30 3223 C 308.691 0.784074 -1.8703 0
M  V30 3224 C 309.024 1.77729 -0.782689 0
M  V30 3225 O 308.299 1.93384 0.208051 0
M  V30 3226 C 308.582 1.50105 -3.27323 0
M  V30 3227 C 308.435 0.524925 -4.46727 0
M  V30 3228 C 309.754 2.44843 -3.65705 0
M  V30 3229 H 306.873 0.283582 -0.680257 0
M  V30 3230 H 309.515 0.0474352 -1.89941 0
M  V30 3231 H 307.665 2.12897 -3.24972 0
M  V30 3232 H 309.337 -0.0970111 -4.61198 0
M  V30 3233 H 307.58 -0.160606 -4.33503 0
M  V30 3234 H 308.251 1.064 -5.41648 0
M  V30 3235 H 310.727 1.92135 -3.69085 0
M  V30 3236 H 309.603 2.92018 -4.64776 0
M  V30 3237 H 309.864 3.29197 -2.95096 0
M  V30 3238 N 308.923 1.53595 0.353017 0
M  V30 3239 C 310.148 1.7462 1.11904 0
M  V30 3240 C 310.573 0.479721 1.8188 0
M  V30 3241 O 309.931 -0.567066 1.72204 0
M  V30 3242 C 309.979 2.92029 2.11545 0
M  V30 3243 O 309.083 2.61516 3.18878 0
M  V30 3244 H 308.424 0.579531 0.324099 0
M  V30 3245 H 310.954 2.00525 0.406301 0
M  V30 3246 H 310.964 3.18551 2.5493 0
M  V30 3247 H 309.639 3.83888 1.60008 0
M  V30 3248 H 308.216 2.45852 2.80377 0
M  V30 3249 N 310.401 -0.613514 1.45168 0
M  V30 3250 C 311.349 -1.74572 1.53712 0
M  V30 3251 C 312.343 -1.64426 0.407505 0
M  V30 3252 O 313.549 -1.70291 0.583176 0
M  V30 3253 H 309.924 -0.576641 0.48269 0
M  V30 3254 H 311.895 -1.64492 2.48968 0
M  V30 3255 C 310.644 -3.12943 1.51532 0
M  V30 3256 H 309.967 -3.21407 2.37776 0
M  V30 3257 H 311.407 -3.9201 1.61569 0
M  V30 3258 C 309.866 -3.36053 0.238798 0
M  V30 3259 O 310.396 -3.95837 -0.6838 0
M  V30 3260 N 308.602 -2.9028 0.136359 0
M  V30 3261 H 308.149 -2.41811 0.887999 0
M  V30 3262 H 308.107 -3.06116 -0.716944 0
M  V30 3263 N 311.879 -1.3236 -0.855495 0
M  V30 3264 C 313.125 -1.23054 -1.612 0
M  V30 3265 C 313.458 0.207404 -1.93089 0
M  V30 3266 O 312.733 1.14432 -1.57275 0
M  V30 3267 C 313.016 -2.08937 -2.93287 0
M  V30 3268 C 312.869 -3.61105 -2.68185 0
M  V30 3269 C 314.188 -1.94986 -3.94549 0
M  V30 3270 H 311.307 -0.448364 -0.584926 0
M  V30 3271 H 313.949 -1.62297 -0.987917 0
M  V30 3272 H 312.099 -1.75599 -3.46551 0
M  V30 3273 H 313.771 -4.04652 -2.21483 0
M  V30 3274 H 312.014 -3.83813 -2.02164 0
M  V30 3275 H 312.685 -4.16522 -3.62234 0
M  V30 3276 H 315.161 -2.24189 -3.5054 0
M  V30 3277 H 314.037 -2.57356 -4.84829 0
M  V30 3278 H 314.298 -0.917263 -4.3248 0
M  V30 3279 N 313.357 1.07166 -1.15556 0
M  V30 3280 C 314.32 2.12589 -0.856644 0
M  V30 3281 C 315.32 1.6015 0.14444 0
M  V30 3282 O 316.51 1.7399 -0.0854163 0
M  V30 3283 C 313.642 3.39753 -0.279405 0
M  V30 3284 H 314.835 2.40539 -1.79112 0
M  V30 3285 H 312.388 1.23086 -0.963298 0
M  V30 3286 H 313.123 3.17447 0.663174 0
M  V30 3287 H 312.908 3.79117 -1.00063 0
M  V30 3288 H 314.398 4.17507 -0.0879113 0
M  V30 3289 N 314.835 0.952656 1.25548 0
M  V30 3290 C 316.246 0.647392 1.75116 0
M  V30 3291 C 316.597 -0.837274 1.77438 0
M  V30 3292 O 315.722 -1.65525 1.39393 0
M  V30 3293 C 316.317 1.16845 3.18014 0
M  V30 3294 C 314.876 0.913382 3.6515 0
M  V30 3295 C 314.023 1.31265 2.44264 0
M  V30 3296 H 316.974 1.12968 1.11462 0
M  V30 3297 H 316.995 0.527606 3.76824 0
M  V30 3298 H 316.507 2.24902 3.16292 0
M  V30 3299 H 314.608 -0.152316 3.72289 0
M  V30 3300 H 314.721 1.54845 4.53387 0
M  V30 3301 H 313.085 0.731028 2.43984 0
M  V30 3302 H 313.868 2.40239 2.45234 0
M  V30 3303 N 316.313 -1.40141 0.720998 0
M  V30 3304 C 317.26 -2.30688 0.071919 0
M  V30 3305 C 318.23 -1.48476 -0.744584 0
M  V30 3306 O 319.415 -1.77201 -0.707423 0
M  V30 3307 C 316.555 -3.34724 -0.839855 0
M  V30 3308 C 315.668 -4.31998 -0.0122438 0
M  V30 3309 C 314.803 -5.23102 -0.923995 0
M  V30 3310 C 313.842 -6.12033 -0.0907969 0
M  V30 3311 N 312.979 -6.95537 -0.957718 0
M  V30 3312 H 317.819 -2.85628 0.849755 0
M  V30 3313 H 315.356 -1.40653 0.430726 0
M  V30 3314 H 317.314 -3.93618 -1.38279 0
M  V30 3315 H 315.944 -2.81274 -1.58381 0
M  V30 3316 H 314.996 -3.74841 0.64794 0
M  V30 3317 H 316.308 -4.94772 0.632595 0
M  V30 3318 H 315.462 -5.86953 -1.53527 0
M  V30 3319 H 314.201 -4.60615 -1.60264 0
M  V30 3320 H 313.206 -5.47207 0.533377 0
M  V30 3321 H 314.431 -6.76581 0.584428 0
M  V30 3322 H 312.377 -6.35633 -1.62192 0
M  V30 3323 H 312.294 -7.55099 -0.36904 0
M  V30 3324 H 313.562 -7.63832 -1.555 0
M  V30 3325 N 317.792 -0.46758 -1.50504 0
M  V30 3326 C 318.724 0.364655 -2.26281 0
M  V30 3327 C 319.737 0.960151 -1.31472 0
M  V30 3328 O 320.926 0.849153 -1.57008 0
M  V30 3329 C 318.026 1.52509 -3.02645 0
M  V30 3330 C 317.199 1.04302 -4.24782 0
M  V30 3331 C 316.258 2.07709 -4.8347 0
M  V30 3332 O 315.284 1.65913 -5.44483 0
M  V30 3333 N 316.486 3.40485 -4.70159 0
M  V30 3334 H 319.251 -0.28495 -2.98342 0
M  V30 3335 H 316.812 -0.298163 -1.59131 0
M  V30 3336 H 318.804 2.21371 -3.38787 0
M  V30 3337 H 317.374 2.07945 -2.33404 0
M  V30 3338 H 316.594 0.180393 -3.93787 0
M  V30 3339 H 317.882 0.698798 -5.03978 0
M  V30 3340 H 317.28 3.77155 -4.21629 0
M  V30 3341 H 315.837 4.05156 -5.1058 0
M  V30 3342 N 319.27 1.56325 -0.20005 0
M  V30 3343 C 320.203 2.15234 0.758267 0
M  V30 3344 C 321.181 1.09046 1.20614 0
M  V30 3345 O 322.365 1.37186 1.29276 0
M  V30 3346 C 319.492 2.71524 2.02466 0
M  V30 3347 C 318.538 3.90345 1.71852 0
M  V30 3348 S 319.371 5.28513 0.862249 0
M  V30 3349 C 320.527 5.88227 2.13868 0
M  V30 3350 H 320.76 2.96183 0.2575 0
M  V30 3351 H 318.293 1.54393 0.0150099 0
M  V30 3352 H 320.251 3.04598 2.75191 0
M  V30 3353 H 318.912 1.90607 2.49655 0
M  V30 3354 H 318.105 4.28158 2.65888 0
M  V30 3355 H 317.707 3.58306 1.07205 0
M  V30 3356 H 319.999 6.02891 3.09076 0
M  V30 3357 H 320.942 6.84714 1.80479 0
M  V30 3358 H 321.35 5.16874 2.2694 0
M  V30 3359 N 320.748 -0.0735177 1.57428 0
M  V30 3360 C 321.994 -0.774145 1.87443 0
M  V30 3361 C 322.327 -1.77311 0.792103 0
M  V30 3362 O 321.602 -1.93492 -0.197793 0
M  V30 3363 C 321.885 -1.48367 3.28115 0
M  V30 3364 C 321.738 -0.501227 4.46999 0
M  V30 3365 C 323.057 -2.429 3.66998 0
M  V30 3366 H 320.176 -0.279971 0.681752 0
M  V30 3367 H 322.818 -0.0373616 1.89963 0
M  V30 3368 H 320.968 -2.11171 3.26097 0
M  V30 3369 H 322.64 0.121468 4.6114 0
M  V30 3370 H 320.883 0.183593 4.33411 0
M  V30 3371 H 321.554 -1.03526 5.42205 0
M  V30 3372 H 324.03 -1.90175 3.70098 0
M  V30 3373 H 322.906 -2.89549 4.66318 0
M  V30 3374 H 323.167 -3.27628 2.96837 0
M  V30 3375 N 322.226 -1.5378 -0.344866 0
M  V30 3376 C 323.136 -1.84667 -1.4469 0
M  V30 3377 C 324.152 -0.736704 -1.57635 0
M  V30 3378 O 325.328 -1.02888 -1.73136 0
M  V30 3379 C 322.393 -2.04869 -2.79696 0
M  V30 3380 C 321.454 -3.28731 -2.76106 0
M  V30 3381 C 320.687 -3.4796 -4.04673 0
M  V30 3382 O 320.91 -2.71052 -5.01883 0
M  V30 3383 O 319.844 -4.41383 -4.09224 0
M  V30 3384 H 323.67 -2.78334 -1.21506 0
M  V30 3385 H 321.255 -1.39418 -0.536921 0
M  V30 3386 H 323.137 -2.19609 -3.59652 0
M  V30 3387 H 321.812 -1.14391 -3.02814 0
M  V30 3388 H 320.719 -3.19396 -1.94774 0
M  V30 3389 H 322.052 -4.19198 -2.57941 0
M  V30 3390 N 323.704 0.605807 -1.45491 0
M  V30 3391 C 324.634 1.72709 -1.57143 0
M  V30 3392 C 325.615 1.6476 -0.422884 0
M  V30 3393 O 326.8 1.83132 -0.646247 0
M  V30 3394 C 323.93 3.11316 -1.53948 0
M  V30 3395 C 322.884 3.34077 -2.67537 0
M  V30 3396 C 322.21 4.72975 -2.49397 0
M  V30 3397 C 323.51 3.24158 -4.09535 0
M  V30 3398 H 325.204 1.63214 -2.51001 0
M  V30 3399 H 322.75 0.78379 -1.208 0
M  V30 3400 H 324.703 3.89557 -1.60696 0
M  V30 3401 H 323.427 3.21655 -0.566205 0
M  V30 3402 H 322.086 2.58227 -2.6022 0
M  V30 3403 H 321.734 4.8005 -1.50205 0
M  V30 3404 H 321.434 4.8916 -3.25571 0
M  V30 3405 H 322.958 5.53414 -2.58002 0
M  V30 3406 H 324.372 3.92271 -4.18086 0
M  V30 3407 H 322.769 3.51872 -4.86113 0
M  V30 3408 H 323.839 2.2157 -4.31317 0
M  V30 3409 N 325.182 1.32811 0.848464 0
M  V30 3410 C 326.422 1.25046 1.61687 0
M  V30 3411 C 326.786 -0.183464 1.91121 0
M  V30 3412 O 327.987 -0.384937 2.66029 0
M  V30 3413 C 326.258 2.09201 2.89775 0
M  V30 3414 S 327.817 2.18526 3.80515 0
M  V30 3415 H 324.635 0.445023 0.554505 0
M  V30 3416 H 327.237 1.67733 1.00429 0
M  V30 3417 H 325.941 3.12433 2.66108 0
M  V30 3418 H 325.472 1.67315 3.56047 0
M  V30 3419 H 327.487 1.3393 4.77784 0
M  V30 3420 N 326.66 -1.06551 1.16123 0
M  V30 3421 C 327.623 -2.12132 0.867906 0
M  V30 3422 C 328.623 -1.60224 -0.135944 0
M  V30 3423 O 329.813 -1.73943 0.0946422 0
M  V30 3424 C 326.945 -3.396 0.297419 0
M  V30 3425 H 328.138 -2.39586 1.80385 0
M  V30 3426 H 325.691 -1.22574 0.969812 0
M  V30 3427 H 326.426 -3.17794 -0.64633 0
M  V30 3428 H 326.211 -3.78581 1.02073 0
M  V30 3429 H 327.701 -4.17455 0.110052 0
M  V30 3430 N 328.138 -0.959301 -1.25041 0
M  V30 3431 C 329.048 -0.489994 -2.29426 0
M  V30 3432 C 330.064 0.444944 -1.68215 0
M  V30 3433 O 331.24 0.320046 -1.98841 0
M  V30 3434 C 328.305 0.220309 -3.45999 0
M  V30 3435 C 327.366 -0.753418 -4.22637 0
M  V30 3436 C 326.599 -0.076918 -5.33645 0
M  V30 3437 O 326.822 1.13649 -5.58963 0
M  V30 3438 O 325.756 -0.764824 -5.97021 0
M  V30 3439 H 329.582 -1.35755 -2.71669 0
M  V30 3440 H 327.167 -0.725961 -1.30576 0
M  V30 3441 H 329.049 0.619677 -4.16819 0
M  V30 3442 H 327.724 1.06296 -3.0575 0
M  V30 3443 H 326.631 -1.20308 -3.54227 0
M  V30 3444 H 327.964 -1.56423 -4.66683 0
M  V30 3445 N 329.616 1.39756 -0.72842 0
M  V30 3446 C 330.846 2.04651 -0.283117 0
M  V30 3447 C 331.254 1.5502 1.08469 0
M  V30 3448 O 330.597 0.707343 1.69536 0
M  V30 3449 C 330.659 3.58947 -0.199309 0
M  V30 3450 C 330.323 4.31525 -1.5045 0
M  V30 3451 C 331.32 4.5861 -2.44894 0
M  V30 3452 C 329.005 4.70195 -1.76698 0
M  V30 3453 C 330.999 5.23366 -3.63822 0
M  V30 3454 C 328.686 5.3468 -2.95906 0
M  V30 3455 C 329.684 5.61198 -3.89289 0
M  V30 3456 O 329.372 6.24347 -5.06404 0
M  V30 3457 H 329.104 0.664777 -0.122666 0
M  V30 3458 H 331.658 1.79913 -0.990987 0
M  V30 3459 H 329.888 3.82556 0.56461 0
M  V30 3460 H 331.577 4.0534 0.213125 0
M  V30 3461 H 332.343 4.29187 -2.25883 0
M  V30 3462 H 328.222 4.48916 -1.04859 0
M  V30 3463 H 331.766 5.4398 -4.36728 0
M  V30 3464 H 327.663 5.63524 -3.14819 0
M  V30 3465 H 328.431 6.42842 -5.06652 0
M  V30 3466 N 331.094 0.475555 1.50254 0
M  V30 3467 C 332.341 -0.0778919 2.0235 0
M  V30 3468 C 332.669 -1.39319 1.35722 0
M  V30 3469 O 331.924 -1.89888 0.473395 0
M  V30 3470 C 332.223 -0.305114 3.56095 0
M  V30 3471 C 331.889 0.92903 4.41225 0
M  V30 3472 C 330.551 1.26739 4.6421 0
M  V30 3473 C 332.903 1.75054 4.90923 0
M  V30 3474 C 330.231 2.42724 5.34137 0
M  V30 3475 C 332.583 2.9017 5.62125 0
M  V30 3476 C 331.247 3.24416 5.83362 0
M  V30 3477 H 330.517 -0.0285027 0.740452 0
M  V30 3478 H 333.164 0.630543 1.80821 0
M  V30 3479 H 331.469 -1.09584 3.76163 0
M  V30 3480 H 333.166 -0.747377 3.93974 0
M  V30 3481 H 329.756 0.655428 4.23559 0
M  V30 3482 H 333.94 1.50231 4.73016 0
M  V30 3483 H 329.196 2.69525 5.48786 0
M  V30 3484 H 333.37 3.54169 5.99614 0
M  V30 3485 H 330.997 4.14396 6.37323 0
M  V30 3486 N 332.573 -1.56217 0.208337 0
M  V30 3487 C 333.798 -2.02782 -0.435222 0
M  V30 3488 C 334.223 -1.08738 -1.53485 0
M  V30 3489 O 333.581 -0.0731855 -1.81152 0
M  V30 3490 C 333.629 -3.47687 -0.956335 0
M  V30 3491 O 332.733 -3.56773 -2.06849 0
M  V30 3492 H 332.074 -0.656403 -0.100158 0
M  V30 3493 H 334.604 -2.02033 0.3231 0
M  V30 3494 H 334.614 -3.87745 -1.26955 0
M  V30 3495 H 333.289 -4.15624 -0.15143 0
M  V30 3496 H 331.866 -3.28597 -1.76292 0
M  V30 3497 N 334.051 0.0651679 -1.57465 0
M  V30 3498 C 335.299 0.761555 -1.87202 0
M  V30 3499 C 335.62 1.77778 -0.801243 0
M  V30 3500 O 334.89 1.95166 0.16937 0
M  V30 3501 H 333.47 0.284251 -0.690804 0
M  V30 3502 H 336.132 0.0396827 -1.9486 0
M  V30 3503 H 335.228 1.27365 -2.84929 0
M  V30 3504 N 335.529 1.53961 0.336706 0
M  V30 3505 C 336.477 1.83136 1.43401 0
M  V30 3506 C 337.471 0.702313 1.54156 0
M  V30 3507 O 338.677 0.885765 1.56698 0
M  V30 3508 H 335.052 0.580309 0.478273 0
M  V30 3509 H 337.023 2.74925 1.16012 0
M  V30 3510 C 335.772 2.06385 2.79822 0
M  V30 3511 H 335.095 2.92718 2.72316 0
M  V30 3512 H 336.535 2.30761 3.55704 0
M  V30 3513 C 334.994 0.851414 3.25964 0
M  V30 3514 O 335.524 0.0541904 4.01663 0
M  V30 3515 N 333.73 0.66672 2.82848 0
M  V30 3516 H 333.277 1.31665 2.21409 0
M  V30 3517 H 333.235 -0.143032 3.14074 0
M  V30 3518 N 337.007 -0.598083 1.45811 0
M  V30 3519 C 337.937 -1.71873 1.58057 0
M  V30 3520 C 338.918 -1.64533 0.431615 0
M  V30 3521 O 340.103 -1.82787 0.65595 0
M  V30 3522 C 337.233 -3.10495 1.55597 0
M  V30 3523 C 336.187 -3.32654 2.69305 0
M  V30 3524 C 335.513 -4.71646 2.51902 0
M  V30 3525 C 336.813 -3.21981 4.11248 0
M  V30 3526 H 338.507 -1.61881 2.51863 0
M  V30 3527 H 336.053 -0.777372 1.21214 0
M  V30 3528 H 338.006 -3.88699 1.6276 0
M  V30 3529 H 336.73 -3.2135 0.583255 0
M  V30 3530 H 335.389 -2.56843 2.61586 0
M  V30 3531 H 335.037 -4.79246 1.52748 0
M  V30 3532 H 334.737 -4.87426 3.2816 0
M  V30 3533 H 336.261 -5.52038 2.60933 0
M  V30 3534 H 337.675 -3.90049 4.20161 0
M  V30 3535 H 336.072 -3.49289 4.87972 0
M  V30 3536 H 337.142 -2.1928 4.32486 0
M  V30 3537 N 338.485 -1.33259 -0.841409 0
M  V30 3538 C 339.395 -1.25332 -1.98316 0
M  V30 3539 C 340.411 -0.164364 -1.73222 0
M  V30 3540 O 341.587 -0.387486 -1.97637 0
M  V30 3541 C 338.652 -0.990078 -3.32262 0
M  V30 3542 C 337.713 -2.16879 -3.70489 0
M  V30 3543 C 336.946 -1.91801 -4.98044 0
M  V30 3544 O 337.169 -0.867075 -5.63771 0
M  V30 3545 O 336.103 -2.78267 -5.33714 0
M  V30 3546 H 339.929 -2.21344 -2.07944 0
M  V30 3547 H 337.514 -1.1328 -0.974058 0
M  V30 3548 H 339.396 -0.860321 -4.12524 0
M  V30 3549 H 338.071 -0.0602155 -3.23644 0
M  V30 3550 H 336.978 -2.35407 -2.90748 0
M  V30 3551 H 338.311 -3.0819 -3.8377 0
M  V30 3552 N 339.963 1.05934 -1.16686 0
M  V30 3553 C 340.91 2.13499 -0.876748 0
M  V30 3554 C 341.88 1.65162 0.176299 0
M  V30 3555 O 343.065 1.90757 0.0407143 0
M  V30 3556 C 340.205 3.42912 -0.387967 0
M  V30 3557 C 339.318 4.04964 -1.50426 0
M  V30 3558 C 338.453 5.22266 -0.970125 0
M  V30 3559 C 337.492 5.76309 -2.06238 0
M  V30 3560 N 336.629 6.84922 -1.54356 0
M  V30 3561 H 341.469 2.37654 -1.7979 0
M  V30 3562 H 339.006 1.16598 -0.896843 0
M  V30 3563 H 340.964 4.17111 -0.086186 0
M  V30 3564 H 339.594 3.18963 0.496235 0
M  V30 3565 H 338.646 3.28277 -1.92193 0
M  V30 3566 H 339.958 4.41122 -2.32836 0
M  V30 3567 H 339.112 6.03506 -0.621743 0
M  V30 3568 H 337.851 4.87564 -0.115377 0
M  V30 3569 H 336.856 4.93704 -2.41942 0
M  V30 3570 H 338.081 6.13062 -2.92115 0
M  V30 3571 H 336.027 6.52131 -0.711406 0
M  V30 3572 H 335.944 7.20043 -2.30379 0
M  V30 3573 H 337.212 7.69832 -1.22387 0
M  V30 3574 N 341.441 0.965919 1.2453 0
M  V30 3575 C 342.666 0.643971 1.97149 0
M  V30 3576 C 343.091 -0.779487 1.71189 0
M  V30 3577 O 342.449 -1.5288 0.974553 0
M  V30 3578 C 342.497 0.922557 3.48599 0
M  V30 3579 O 341.601 0.00707672 4.12399 0
M  V30 3580 H 340.942 0.243647 0.617683 0
M  V30 3581 H 343.472 1.29558 1.58353 0
M  V30 3582 H 343.482 0.853373 3.98976 0
M  V30 3583 H 342.157 1.95996 3.66822 0
M  V30 3584 H 340.734 0.12943 3.72675 0
M  V30 3585 N 342.919 -1.39368 0.735821 0
M  V30 3586 C 344.335 -1.54204 0.411492 0
M  V30 3587 C 344.535 -1.70268 -1.07755 0
M  V30 3588 O 343.591 -1.70364 -1.86366 0
M  V30 3589 C 344.904 -2.75925 1.19523 0
M  V30 3590 C 346.452 -2.89761 1.18354 0
M  V30 3591 C 346.927 -4.14421 1.94986 0
M  V30 3592 N 348.418 -4.21462 1.92156 0
M  V30 3593 C 349.153 -5.16871 2.48258 0
M  V30 3594 N 348.649 -6.18063 3.13001 0
M  V30 3595 N 350.442 -5.09093 2.38287 0
M  V30 3596 H 342.593 -1.27189 1.70108 0
M  V30 3597 H 344.856 -0.616517 0.720147 0
M  V30 3598 H 344.562 -2.70401 2.24892 0
M  V30 3599 H 344.436 -3.68614 0.800222 0
M  V30 3600 H 346.823 -2.94777 0.137975 0
M  V30 3601 H 346.904 -1.98133 1.61793 0
M  V30 3602 H 346.548 -4.10166 2.99543 0
M  V30 3603 H 346.478 -5.05095 1.48953 0
M  V30 3604 H 348.969 -3.48979 1.44991 0
M  V30 3605 H 349.282 -6.87326 3.53275 0
M  V30 3606 H 347.627 -6.18448 3.17091 0
M  V30 3607 H 350.818 -4.28973 1.8735 0
M  V30 3608 H 350.991 -5.83272 2.82308 0
M  V30 3609 N 344.397 -0.483516 -1.5 0
M  V30 3610 C 345.307 0.309172 -2.32554 0
M  V30 3611 C 346.323 0.984159 -1.43493 0
M  V30 3612 O 347.499 0.969399 -1.76535 0
M  V30 3613 C 344.564 1.36979 -3.18493 0
M  V30 3614 C 343.625 0.710095 -4.23387 0
M  V30 3615 C 342.858 1.72018 -5.05218 0
M  V30 3616 O 343.081 2.94813 -4.88305 0
M  V30 3617 O 342.015 1.28515 -5.8802 0
M  V30 3618 H 345.841 -0.366064 -3.01486 0
M  V30 3619 H 343.426 -0.24514 -1.47375 0
M  V30 3620 H 345.308 1.98385 -3.71781 0
M  V30 3621 H 343.983 2.02828 -2.52275 0
M  V30 3622 H 342.89 0.0567539 -3.74057 0
M  V30 3623 H 344.223 0.0943557 -4.9211 0
M  V30 3624 N 345.875 1.56104 -0.216619 0
M  V30 3625 C 347.121 1.98466 0.417033 0
M  V30 3626 C 347.454 1.10403 1.59765 0
M  V30 3627 O 346.729 0.160632 1.93836 0
M  V30 3628 C 347.012 3.49769 0.85637 0
M  V30 3629 C 346.865 4.48606 -0.327546 0
M  V30 3630 C 348.184 4.05339 1.7143 0
M  V30 3631 H 345.303 0.721551 0.150112 0
M  V30 3632 H 347.945 1.87423 -0.311864 0
M  V30 3633 H 346.095 3.5931 1.47745 0
M  V30 3634 H 347.767 4.5108 -0.965618 0
M  V30 3635 H 346.01 4.22682 -0.975805 0
M  V30 3636 H 346.681 5.51995 0.0227149 0
M  V30 3637 H 349.157 3.98712 1.19031 0
M  V30 3638 H 348.033 5.11533 1.99061 0
M  V30 3639 H 348.294 3.51918 2.67593 0
M  V30 3640 N 347.353 -0.0568162 1.57498 0
M  V30 3641 C 348.303 -1.07315 2.01166 0
M  V30 3642 C 349.287 -1.33632 0.896171 0
M  V30 3643 O 350.479 -1.33682 1.16009 0
M  V30 3644 C 347.608 -2.38257 2.47161 0
M  V30 3645 C 346.694 -2.1515 3.65474 0
M  V30 3646 N 347.085 -1.62014 4.7915 0
M  V30 3647 C 345.383 -2.45559 3.72313 0
M  V30 3648 C 346.084 -1.54069 5.60926 0
M  V30 3649 N 345.06 -2.00652 5.05213 0
M  V30 3650 H 348.862 -0.655878 2.86488 0
M  V30 3651 H 346.376 -0.263635 1.60246 0
M  V30 3652 H 348.373 -3.11845 2.76691 0
M  V30 3653 H 347.033 -2.80687 1.63232 0
M  V30 3654 H 348.044 -1.30667 5.01145 0
M  V30 3655 H 344.721 -2.91253 2.99129 0
M  V30 3656 H 346.111 -1.13712 6.62208 0
M  V30 3657 N 348.832 -1.54138 -0.328536 0
M  V30 3658 C 350.248 -1.44736 -0.672574 0
M  V30 3659 C 350.448 -0.616217 -1.91846 0
M  V30 3660 O 349.504 -0.113067 -2.52247 0
M  V30 3661 C 350.817 -2.884 -0.851217 0
M  V30 3662 C 352.365 -2.98271 -0.948877 0
M  V30 3663 C 352.84 -4.43074 -1.15973 0
M  V30 3664 N 354.331 -4.46665 -1.22658 0
M  V30 3665 C 355.066 -5.55857 -1.40751 0
M  V30 3666 N 354.562 -6.75026 -1.5592 0
M  V30 3667 N 356.355 -5.43495 -1.4342 0
M  V30 3668 H 348.506 -2.06661 0.490421 0
M  V30 3669 H 350.769 -0.934812 0.157579 0
M  V30 3670 H 350.475 -3.51699 -0.00704236 0
M  V30 3671 H 350.349 -3.34225 -1.74853 0
M  V30 3672 H 352.736 -2.35102 -1.78356 0
M  V30 3673 H 352.817 -2.55785 -0.0281435 0
M  V30 3674 H 352.461 -5.06827 -0.329915 0
M  V30 3675 H 352.391 -4.83165 -2.09426 0
M  V30 3676 H 354.882 -3.60797 -1.124 0
M  V30 3677 H 355.195 -7.54004 -1.69404 0
M  V30 3678 H 353.54 -6.77944 -1.53027 0
M  V30 3679 H 356.731 -4.49349 -1.31162 0
M  V30 3680 H 356.904 -6.28649 -1.57178 0
M  V30 3681 N 350.31 0.590341 -1.46126 0
M  V30 3682 C 351.257 1.69994 -1.56111 0
M  V30 3683 C 352.227 1.61065 -0.405867 0
M  V30 3684 O 353.412 1.8039 -0.621613 0
M  V30 3685 C 350.552 3.08326 -1.55013 0
M  V30 3686 C 349.665 3.27936 -2.81215 0
M  V30 3687 C 348.8 4.56473 -2.71673 0
M  V30 3688 C 347.839 4.694 -3.92849 0
M  V30 3689 N 346.976 5.89254 -3.81738 0
M  V30 3690 H 351.816 1.60797 -2.50895 0
M  V30 3691 H 349.353 0.783799 -1.24479 0
M  V30 3692 H 351.311 3.88383 -1.52362 0
M  V30 3693 H 349.941 3.16439 -0.637667 0
M  V30 3694 H 348.993 2.41536 -2.93879 0
M  V30 3695 H 350.305 3.33357 -3.71045 0
M  V30 3696 H 349.459 5.44748 -2.67085 0
M  V30 3697 H 348.198 4.53477 -1.7947 0
M  V30 3698 H 347.203 3.79544 -3.97777 0
M  V30 3699 H 348.428 4.7418 -4.86138 0
M  V30 3700 H 346.374 5.87271 -2.92317 0
M  V30 3701 H 346.291 5.95911 -4.65217 0
M  V30 3702 H 347.559 6.79981 -3.81112 0
M  V30 3703 N 351.788 1.33704 0.83433 0
M  V30 3704 C 352.718 1.26967 1.95963 0
M  V30 3705 C 353.699 0.149337 1.69443 0
M  V30 3706 O 354.884 0.339852 1.91203 0
M  V30 3707 C 352.014 1.01275 3.32206 0
M  V30 3708 C 350.968 2.09652 3.73136 0
M  V30 3709 C 350.294 1.69166 5.07235 0
M  V30 3710 C 351.594 3.51372 3.86439 0
M  V30 3711 H 353.288 2.2112 2.01857 0
M  V30 3712 H 350.834 1.06447 0.969793 0
M  V30 3713 H 352.787 0.952106 4.10503 0
M  V30 3714 H 351.511 0.0356203 3.26581 0
M  V30 3715 H 350.17 2.14766 2.97104 0
M  V30 3716 H 349.818 0.701437 4.98085 0
M  V30 3717 H 349.518 2.41694 5.35591 0
M  V30 3718 H 351.042 1.64576 5.88003 0
M  V30 3719 H 352.456 3.48734 4.55036 0
M  V30 3720 H 350.853 4.22425 4.26236 0
M  V30 3721 H 351.923 3.89546 2.88759 0
M  V30 3722 N 353.266 -1.05314 1.17247 0
M  V30 3723 C 354.682 -1.30452 0.919473 0
M  V30 3724 C 354.882 -1.9703 -0.42209 0
M  V30 3725 O 353.938 -2.24311 -1.15935 0
M  V30 3726 C 355.251 -2.17551 2.07586 0
M  V30 3727 C 356.799 -2.30937 2.11275 0
M  V30 3728 C 357.274 -3.21396 3.26296 0
M  V30 3729 N 358.765 -3.28981 3.26076 0
M  V30 3730 C 359.5 -3.99095 4.11716 0
M  V30 3731 N 358.996 -4.71648 5.07465 0
M  V30 3732 N 360.789 -3.95247 3.9967 0
M  V30 3733 H 352.94 -0.604988 2.03602 0
M  V30 3734 H 355.203 -0.329368 0.888944 0
M  V30 3735 H 354.909 -1.75921 3.0454 0
M  V30 3736 H 354.783 -3.18182 2.02584 0
M  V30 3737 H 357.17 -2.71809 1.14907 0
M  V30 3738 H 357.251 -1.2994 2.20339 0
M  V30 3739 H 356.895 -2.81238 4.22927 0
M  V30 3740 H 356.825 -4.22395 3.14467 0
M  V30 3741 H 359.316 -2.77286 2.5675 0
M  V30 3742 H 359.629 -5.22705 5.6921 0
M  V30 3743 H 357.974 -4.70594 5.11435 0
M  V30 3744 H 361.165 -3.37691 3.24164 0
M  V30 3745 H 361.338 -4.4962 4.66632 0
M  V30 3746 N 354.744 -0.972509 -1.24016 0
M  V30 3747 C 356.155 -0.67517 -1.74064 0
M  V30 3748 C 356.506 0.808939 -1.78747 0
M  V30 3749 O 355.631 1.63286 -1.42009 0
M  V30 3750 C 356.226 -1.21889 -3.16115 0
M  V30 3751 C 354.785 -0.971358 -3.6365 0
M  V30 3752 C 353.932 -1.35134 -2.42145 0
M  V30 3753 H 356.883 -1.14727 -1.09651 0
M  V30 3754 H 356.904 -0.587489 -3.75937 0
M  V30 3755 H 356.416 -2.29906 -3.12674 0
M  V30 3756 H 354.517 0.0930686 -3.72484 0
M  V30 3757 H 354.63 -1.62039 -4.50866 0
M  V30 3758 H 352.994 -0.769751 -2.4279 0
M  V30 3759 H 353.777 -2.4411 -2.41381 0
M  V30 3760 N 356.222 1.38976 -0.743202 0
M  V30 3761 C 357.152 2.33171 -0.123873 0
M  V30 3762 C 358.133 1.54336 0.71516 0
M  V30 3763 O 359.318 1.82696 0.658467 0
M  V30 3764 C 356.448 3.38474 0.777978 0
M  V30 3765 C 355.402 4.27979 0.0424758 0
M  V30 3766 C 354.728 5.2405 1.06189 0
M  V30 3767 C 356.028 5.10155 -1.1198 0
M  V30 3768 H 357.722 2.85213 -0.910709 0
M  V30 3769 H 355.268 1.37133 -0.439388 0
M  V30 3770 H 357.221 4.03328 1.22084 0
M  V30 3771 H 355.945 2.84891 1.59702 0
M  V30 3772 H 354.604 3.64616 -0.380853 0
M  V30 3773 H 354.252 4.66758 1.87472 0
M  V30 3774 H 353.952 5.84785 0.574485 0
M  V30 3775 H 355.476 5.9178 1.50428 0
M  V30 3776 H 356.89 5.68307 -0.75499 0
M  V30 3777 H 355.287 5.80073 -1.53738 0
M  V30 3778 H 356.357 4.44504 -1.93764 0
M  V30 3779 N 357.7 0.491464 1.49741 0
M  V30 3780 C 358.633 -0.338464 2.25676 0
M  V30 3781 C 359.611 -0.978676 1.29849 0
M  V30 3782 O 360.795 -1.01064 1.59117 0
M  V30 3783 C 357.922 -1.47588 3.04853 0
M  V30 3784 C 356.968 -0.951 4.15762 0
M  V30 3785 S 357.801 0.150626 5.35288 0
M  V30 3786 C 358.957 -0.990178 6.18018 0
M  V30 3787 H 359.19 0.306068 2.9572 0
M  V30 3788 H 356.723 0.276622 1.51902 0
M  V30 3789 H 358.681 -2.12764 3.51058 0
M  V30 3790 H 357.342 -2.09199 2.34296 0
M  V30 3791 H 356.535 -1.80311 4.70642 0
M  V30 3792 H 356.137 -0.376607 3.72099 0
M  V30 3793 H 358.429 -1.89748 6.50386 0
M  V30 3794 H 359.372 -0.480205 7.0647 0
M  V30 3795 H 359.78 -1.25321 5.50413 0
M  V30 3796 N 359.178 -1.55987 0.224894 0
M  V30 3797 C 360.125 -2.20436 -0.68385 0
M  V30 3798 C 361.095 -1.16102 -1.18783 0
M  V30 3799 O 362.28 -1.4447 -1.24632 0
M  V30 3800 C 359.42 -2.89076 -1.88491 0
M  V30 3801 C 358.533 -4.08012 -1.41951 0
M  V30 3802 C 357.668 -4.64426 -2.5784 0
M  V30 3803 C 356.707 -5.75656 -2.08053 0
M  V30 3804 N 355.844 -6.26347 -3.17227 0
M  V30 3805 H 360.684 -2.97727 -0.12754 0
M  V30 3806 H 358.221 -1.47011 -0.0511978 0
M  V30 3807 H 360.179 -3.27059 -2.59014 0
M  V30 3808 H 358.809 -2.14298 -2.41405 0
M  V30 3809 H 357.861 -3.75492 -0.609095 0
M  V30 3810 H 359.173 -4.88375 -1.01447 0
M  V30 3811 H 358.327 -5.04869 -3.3644 0
M  V30 3812 H 357.066 -3.83233 -3.01635 0
M  V30 3813 H 356.071 -5.34712 -1.27916 0
M  V30 3814 H 357.296 -6.58686 -1.65255 0
M  V30 3815 H 355.242 -5.48067 -3.60497 0
M  V30 3816 H 355.159 -7.01843 -2.80986 0
M  V30 3817 H 356.427 -6.71447 -3.95953 0
M  V30 3818 N 360.656 0.0484629 -1.57525 0
M  V30 3819 C 361.619 1.03956 -2.04269 0
M  V30 3820 C 362.619 1.30211 -0.943496 0
M  V30 3821 O 363.809 1.25539 -1.20771 0
M  V30 3822 C 360.941 2.37742 -2.44319 0
M  V30 3823 H 362.134 0.636182 -2.93075 0
M  V30 3824 H 359.687 0.294811 -1.53494 0
M  V30 3825 H 360.422 2.82866 -1.5861 0
M  V30 3826 H 360.207 2.20021 -3.24551 0
M  V30 3827 H 361.697 3.08936 -2.80978 0
M  V30 3828 N 362.134 1.5431 0.320358 0
M  V30 3829 C 363.064 1.86912 1.3995 0
M  V30 3830 C 364.045 0.726211 1.53819 0
M  V30 3831 O 365.23 0.980233 1.67646 0
M  V30 3832 C 362.36 2.09932 2.7667 0
M  V30 3833 C 361.314 3.25776 2.77586 0
M  V30 3834 C 360.64 3.34173 4.17412 0
M  V30 3835 C 361.94 4.6335 2.41048 0
M  V30 3836 H 363.634 2.77292 1.12914 0
M  V30 3837 H 361.18 1.33421 0.541738 0
M  V30 3838 H 363.133 2.31324 3.52232 0
M  V30 3839 H 361.857 1.16304 3.0519 0
M  V30 3840 H 360.516 3.04276 2.04479 0
M  V30 3841 H 360.164 2.38098 4.43078 0
M  V30 3842 H 359.864 4.12033 4.18931 0
M  V30 3843 H 361.388 3.57803 4.94782 0
M  V30 3844 H 362.802 4.84602 3.06324 0
M  V30 3845 H 361.199 5.43782 2.53813 0
M  V30 3846 H 362.269 4.65381 1.36193 0
M  V30 3847 N 363.613 -0.582584 1.46437 0
M  V30 3848 C 364.86 -1.34079 1.51753 0
M  V30 3849 C 365.188 -1.93762 0.169299 0
M  V30 3850 O 364.443 -1.76989 -0.835062 0
M  V30 3851 C 364.742 -2.48964 2.56421 0
M  V30 3852 C 364.408 -2.07273 4.00436 0
M  V30 3853 C 363.07 -1.95618 4.39644 0
M  V30 3854 C 365.422 -1.75111 4.90903 0
M  V30 3855 C 362.75 -1.5006 5.67185 0
M  V30 3856 C 365.102 -1.31032 6.18881 0
M  V30 3857 C 363.766 -1.17954 6.56996 0
M  V30 3858 H 363.036 -0.49063 0.555304 0
M  V30 3859 H 365.683 -0.656007 1.79913 0
M  V30 3860 H 363.988 -3.22889 2.21923 0
M  V30 3861 H 365.685 -3.07178 2.57765 0
M  V30 3862 H 362.275 -2.17279 3.69443 0
M  V30 3863 H 366.459 -1.83001 4.61329 0
M  V30 3864 H 361.715 -1.38577 5.95488 0
M  V30 3865 H 365.889 -1.052 6.88408 0
M  V30 3866 H 363.516 -0.824279 7.55718 0
M  V30 3867 N 365.091 -1.34144 -0.827227 0
M  V30 3868 C 366.337 -1.26446 -1.58554 0
M  V30 3869 C 366.67 0.1664 -1.93486 0
M  V30 3870 O 365.945 1.1107 -1.59667 0
M  V30 3871 C 366.228 -2.15111 -2.8879 0
M  V30 3872 C 366.081 -3.66712 -2.60465 0
M  V30 3873 C 367.4 -2.03311 -3.90324 0
M  V30 3874 H 364.519 -0.46067 -0.575284 0
M  V30 3875 H 367.161 -1.64356 -0.953269 0
M  V30 3876 H 365.311 -1.8291 -3.42748 0
M  V30 3877 H 366.983 -4.09259 -2.1285 0
M  V30 3878 H 365.226 -3.88014 -1.93978 0
M  V30 3879 H 365.897 -4.24112 -3.53317 0
M  V30 3880 H 368.373 -2.31574 -3.45706 0
M  V30 3881 H 367.249 -2.67582 -4.79261 0
M  V30 3882 H 367.51 -1.00879 -4.30437 0
M  V30 3883 N 366.569 1.04691 -1.17803 0
M  V30 3884 C 367.479 2.16057 -0.914151 0
M  V30 3885 C 368.495 1.73589 0.119503 0
M  V30 3886 O 369.671 2.01308 -0.0609468 0
M  V30 3887 C 366.736 3.4394 -0.436603 0
M  V30 3888 C 365.797 4.00825 -1.53746 0
M  V30 3889 C 365.03 5.22604 -1.0826 0
M  V30 3890 O 365.253 5.70367 0.0612244 0
M  V30 3891 O 364.187 5.7186 -1.87775 0
M  V30 3892 H 368.013 2.41169 -1.84584 0
M  V30 3893 H 365.598 1.1453 -0.959334 0
M  V30 3894 H 367.48 4.21024 -0.178057 0
M  V30 3895 H 366.155 3.20316 0.466869 0
M  V30 3896 H 365.062 3.25158 -1.84995 0
M  V30 3897 H 366.395 4.28778 -2.41683 0
M  V30 3898 N 368.047 0.979072 1.23499 0
M  V30 3899 C 369.275 0.665202 1.95915 0
M  V30 3900 C 369.69 -0.767571 1.72493 0
M  V30 3901 O 369.047 -1.51635 1.01554 0
M  V30 3902 C 369.098 0.944438 3.48945 0
M  V30 3903 O 368.819 2.3209 3.71572 0
M  V30 3904 C 370.32 0.646336 4.38563 0
M  V30 3905 H 367.54 0.247218 0.623798 0
M  V30 3906 H 370.084 1.31009 1.57025 0
M  V30 3907 H 368.239 0.345575 3.85856 0
M  V30 3908 H 368.653 2.40957 4.65876 0
M  V30 3909 H 370.127 0.892091 5.44744 0
M  V30 3910 H 370.604 -0.419575 4.37191 0
M  V30 3911 H 371.21 1.22562 4.07258 0
M  V30 3912 N 369.525 -1.3858 0.750561 0
M  V30 3913 C 370.473 -2.32339 0.110162 0
M  V30 3914 C 371.467 -1.53864 -0.708674 0
M  V30 3915 O 372.673 -1.69417 -0.608112 0
M  V30 3916 H 369.048 -0.751812 0.0168275 0
M  V30 3917 H 371.019 -2.83959 0.917053 0
M  V30 3918 C 369.768 -3.39043 -0.771067 0
M  V30 3919 H 369.091 -3.99517 -0.150374 0
M  V30 3920 H 370.531 -4.07061 -1.1865 0
M  V30 3921 C 368.99 -2.77365 -1.91234 0
M  V30 3922 O 369.52 -2.66434 -3.00626 0
M  V30 3923 N 367.726 -2.35219 -1.70646 0
M  V30 3924 H 367.273 -2.4431 -0.81673 0
M  V30 3925 H 367.231 -1.94294 -2.47178 0
M  V30 3926 N 371.003 -0.499398 -1.49478 0
M  V30 3927 C 372.414 -0.051215 -1.8663 0
M  V30 3928 C 372.765 1.36238 -1.41186 0
M  V30 3929 O 371.89 2.01502 -0.789051 0
M  V30 3930 C 372.485 -0.0861651 -3.3869 0
M  V30 3931 C 371.044 0.30667 -3.75149 0
M  V30 3932 C 370.191 -0.459397 -2.73468 0
M  V30 3933 H 373.142 -0.712264 -1.41818 0
M  V30 3934 H 373.163 0.709507 -3.73826 0
M  V30 3935 H 372.675 -1.11512 -3.71735 0
M  V30 3936 H 370.776 1.33892 -3.47712 0
M  V30 3937 H 370.889 -0.0116669 -4.79099 0
M  V30 3938 H 369.253 0.0905645 -2.54539 0
M  V30 3939 H 370.036 -1.4884 -3.09357 0
M  V30 3940 N 372.481 1.55866 -0.233164 0
M  V30 3941 C 373.73 1.97779 0.39579 0
M  V30 3942 C 374.043 1.12419 1.60066 0
M  V30 3943 O 375.249 1.44283 2.29988 0
M  V30 3944 C 373.705 3.5188 0.755556 0
M  V30 3945 C 373.313 4.45959 -0.427152 0
M  V30 3946 C 375.057 4.02479 1.34946 0
M  V30 3947 C 372.964 5.91383 -0.0443043 0
M  V30 3948 H 371.894 0.738592 0.15165 0
M  V30 3949 H 374.545 1.80486 -0.331212 0
M  V30 3950 H 372.927 3.64816 1.5403 0
M  V30 3951 H 374.101 4.44776 -1.20462 0
M  V30 3952 H 372.416 4.05765 -0.935068 0
M  V30 3953 H 375.013 5.08637 1.649 0
M  V30 3954 H 375.356 3.49014 2.26925 0
M  V30 3955 H 375.889 3.92813 0.62791 0
M  V30 3956 H 372.628 6.48857 -0.930874 0
M  V30 3957 H 372.148 5.95734 0.697238 0
M  V30 3958 H 373.827 6.45893 0.378334 0
M  V30 3959 N 373.959 -0.0401083 1.57549 0
M  V30 3960 C 375.37 -0.588097 1.77196 0
M  V30 3961 C 375.721 -1.76209 0.862832 0
M  V30 3962 O 374.846 -2.16331 0.0548389 0
M  V30 3963 C 375.441 -1.07363 3.21339 0
M  V30 3964 C 374 -1.56723 3.42221 0
M  V30 3965 C 373.147 -0.50041 2.72747 0
M  V30 3966 H 376.098 0.186119 1.57605 0
M  V30 3967 H 376.119 -1.94143 3.27244 0
M  V30 3968 H 375.631 -0.218975 3.87482 0
M  V30 3969 H 373.732 -2.4441 2.81237 0
M  V30 3970 H 373.845 -1.62234 4.50796 0
M  V30 3971 H 372.209 -0.952894 2.36203 0
M  V30 3972 H 372.992 0.344599 3.41566 0
M  V30 3973 N 375.437 -1.54477 -0.31217 0
M  V30 3974 C 376.683 -1.73483 -1.0503 0
M  V30 3975 C 377.016 -0.513125 -1.87298 0
M  V30 3976 O 376.291 0.489864 -1.8823 0
M  V30 3977 C 376.574 -3.01723 -1.96558 0
M  V30 3978 C 376.427 -4.3417 -1.17545 0
M  V30 3979 C 377.746 -3.25772 -2.95907 0
M  V30 3980 H 374.865 -0.631222 -0.380432 0
M  V30 3981 H 377.507 -1.87184 -0.325932 0
M  V30 3982 H 375.657 -2.90174 -2.58324 0
M  V30 3983 H 377.329 -4.5762 -0.581513 0
M  V30 3984 H 375.572 -4.31159 -0.477925 0
M  V30 3985 H 376.243 -5.20143 -1.84811 0
M  V30 3986 H 378.719 -3.36857 -2.44267 0
M  V30 3987 H 377.595 -4.16838 -3.57123 0
M  V30 3988 H 377.856 -2.43537 -3.68974 0
M  V30 3989 N 376.915 0.57481 -1.46744 0
M  V30 3990 C 377.862 1.68329 -1.57905 0
M  V30 3991 C 378.832 1.60625 -0.422927 0
M  V30 3992 O 380.017 1.79721 -0.640711 0
M  V30 3993 C 377.157 3.06665 -1.58274 0
M  V30 3994 C 376.27 3.24935 -2.84678 0
M  V30 3995 C 375.405 4.53566 -2.76499 0
M  V30 3996 C 374.444 4.65207 -3.97806 0
M  V30 3997 N 373.581 5.85172 -3.87967 0
M  V30 3998 H 378.421 1.58127 -2.52587 0
M  V30 3999 H 375.958 0.770552 -1.25303 0
M  V30 4000 H 377.916 3.86745 -1.56473 0
M  V30 4001 H 376.546 3.15745 -0.671194 0
M  V30 4002 H 375.598 2.38405 -2.96424 0
M  V30 4003 H 376.91 3.29403 -3.7456 0
M  V30 4004 H 376.064 5.41885 -2.72848 0
M  V30 4005 H 374.803 4.51548 -1.8427 0
M  V30 4006 H 373.808 3.75304 -4.0178 0
M  V30 4007 H 375.033 4.68997 -4.9114 0
M  V30 4008 H 372.979 5.84137 -2.98529 0
M  V30 4009 H 372.896 5.90943 -4.71511 0
M  V30 4010 H 374.164 6.759 -3.88303 0
M  V30 4011 N 378.394 1.34581 0.820102 0
M  V30 4012 C 379.357 1.2628 1.91275 0
M  V30 4013 C 380.357 0.177344 1.59819 0
M  V30 4014 O 381.547 0.430156 1.68806 0
M  V30 4015 C 378.679 0.950327 3.27386 0
M  V30 4016 H 379.872 2.23421 2.00057 0
M  V30 4017 H 377.425 1.1891 1.0144 0
M  V30 4018 H 378.16 -0.0177938 3.24295 0
M  V30 4019 H 377.945 1.73549 3.51601 0
M  V30 4020 H 379.435 0.917492 4.07396 0
M  V30 4021 N 379.872 -1.04064 1.18357 0
M  V30 4022 C 380.835 -2.10243 0.912707 0
M  V30 4023 C 381.835 -1.60477 -0.101928 0
M  V30 4024 O 383.025 -1.73703 0.131517 0
M  V30 4025 C 380.157 -3.38893 0.369387 0
M  V30 4026 H 381.35 -2.35706 1.85426 0
M  V30 4027 H 378.903 -1.20489 0.995594 0
M  V30 4028 H 379.638 -3.19094 -0.578776 0
M  V30 4029 H 379.423 -3.76331 1.1008 0
M  V30 4030 H 380.913 -4.17128 0.198575 0
M  V30 4031 N 381.35 -0.985608 -1.22978 0
M  V30 4032 C 382.28 -0.549649 -2.26939 0
M  V30 4033 C 383.261 0.419803 -1.64838 0
M  V30 4034 O 384.446 0.31203 -1.91677 0
M  V30 4035 C 381.576 0.143652 -3.47003 0
M  V30 4036 C 380.53 -0.743606 -4.21491 0
M  V30 4037 C 379.856 0.0822027 -5.34637 0
M  V30 4038 C 381.156 -2.03694 -4.80943 0
M  V30 4039 H 382.85 -1.41862 -2.63658 0
M  V30 4040 H 380.396 -0.683571 -1.26741 0
M  V30 4041 H 382.349 0.459985 -4.18882 0
M  V30 4042 H 381.073 1.04711 -3.09359 0
M  V30 4043 H 379.732 -1.04347 -3.51436 0
M  V30 4044 H 379.38 0.986359 -4.93234 0
M  V30 4045 H 379.08 -0.508377 -5.85397 0
M  V30 4046 H 380.604 0.392797 -6.09335 0
M  V30 4047 H 382.018 -1.78504 -5.44802 0
M  V30 4048 H 380.415 -2.57573 -5.42011 0
M  V30 4049 H 381.485 -2.72042 -4.01399 0
M  V30 4050 N 382.828 1.3818 -0.7579 0
M  V30 4051 C 383.776 2.32277 -0.122482 0
M  V30 4052 C 384.77 1.54238 0.700505 0
M  V30 4053 O 385.976 1.69737 0.599119 0
M  V30 4054 H 382.351 0.751712 -0.0208143 0
M  V30 4055 H 384.322 2.83469 -0.932099 0
M  V30 4056 C 383.071 3.39447 0.753076 0
M  V30 4057 H 382.394 3.99591 0.129184 0
M  V30 4058 H 383.834 4.07684 1.16489 0
M  V30 4059 C 382.293 2.78375 1.8976 0
M  V30 4060 O 382.823 2.68025 2.99208 0
M  V30 4061 N 381.029 2.36121 1.69397 0
M  V30 4062 H 380.576 2.4474 0.803762 0
M  V30 4063 H 380.534 1.95602 2.46145 0
M  V30 4064 N 384.306 0.507319 1.49211 0
M  V30 4065 C 385.236 -0.256939 2.32082 0
M  V30 4066 C 386.217 -0.956609 1.40652 0
M  V30 4067 O 387.402 -0.946788 1.69557 0
M  V30 4068 C 384.532 -1.31802 3.21318 0
M  V30 4069 C 383.486 -0.737855 4.21592 0
M  V30 4070 C 382.812 -1.89992 4.99807 0
M  V30 4071 C 384.112 0.275325 5.21574 0
M  V30 4072 H 385.806 0.434798 2.96226 0
M  V30 4073 H 383.352 0.210546 1.42452 0
M  V30 4074 H 385.305 -1.86045 3.78107 0
M  V30 4075 H 384.029 -2.03903 2.5513 0
M  V30 4076 H 382.688 -0.217126 3.65956 0
M  V30 4077 H 382.336 -2.60877 4.30061 0
M  V30 4078 H 382.036 -1.51777 5.6766 0
M  V30 4079 H 383.56 -2.44657 5.59442 0
M  V30 4080 H 384.974 -0.179193 5.7302 0
M  V30 4081 H 383.371 0.573649 5.97352 0
M  V30 4082 H 384.441 1.18903 4.70096 0
M  V30 4083 N 385.784 -1.5574 0.241426 0
M  V30 4084 C 386.717 -2.17168 -0.700935 0
M  V30 4085 C 387.695 -1.12206 -1.1768 0
M  V30 4086 O 388.879 -1.40565 -1.25593 0
M  V30 4087 C 386.006 -2.76796 -1.95196 0
M  V30 4088 C 385.052 -3.94764 -1.61442 0
M  V30 4089 S 385.885 -5.30613 -0.72182 0
M  V30 4090 C 387.041 -5.93691 -1.98197 0
M  V30 4091 H 387.274 -2.96761 -0.178882 0
M  V30 4092 H 384.807 -1.54378 0.0259299 0
M  V30 4093 H 386.765 -3.11787 -2.67019 0
M  V30 4094 H 385.426 -1.9716 -2.44514 0
M  V30 4095 H 384.619 -4.35057 -2.54443 0
M  V30 4096 H 384.221 -3.61022 -0.976672 0
M  V30 4097 H 386.513 -6.10874 -2.92983 0
M  V30 4098 H 387.456 -6.89258 -1.62262 0
M  V30 4099 H 387.864 -5.22709 -2.13156 0
M  V30 4100 N 387.262 0.0317525 -1.57568 0
M  V30 4101 C 388.51 0.721676 -1.88776 0
M  V30 4102 C 388.831 1.76039 -0.838772 0
M  V30 4103 O 388.101 1.95482 0.127935 0
M  V30 4104 H 386.681 0.269534 -0.696678 0
M  V30 4105 H 389.343 -0.00165879 -1.949 0
M  V30 4106 H 388.439 1.21293 -2.87566 0
M  V30 4107 N 388.74 1.54641 0.303973 0
M  V30 4108 C 389.987 1.7378 1.03955 0
M  V30 4109 C 390.315 0.521986 1.87365 0
M  V30 4110 O 389.57 -0.496099 1.89308 0
M  V30 4111 C 389.869 2.97753 1.97681 0
M  V30 4112 C 389.535 4.31671 1.30271 0
M  V30 4113 C 388.197 4.68075 1.11619 0
M  V30 4114 C 390.549 5.147 0.82055 0
M  V30 4115 C 387.877 5.8509 0.434304 0
M  V30 4116 C 390.229 6.32416 0.152395 0
M  V30 4117 C 388.893 6.67484 -0.0461067 0
M  V30 4118 H 388.163 0.635908 0.380398 0
M  V30 4119 H 390.81 1.88896 0.314718 0
M  V30 4120 H 389.115 2.77406 2.76682 0
M  V30 4121 H 390.812 3.09756 2.54661 0
M  V30 4122 H 387.402 4.03041 1.45795 0
M  V30 4123 H 391.586 4.87077 0.952374 0
M  V30 4124 H 386.842 6.10806 0.269495 0
M  V30 4125 H 391.016 6.96023 -0.229126 0
M  V30 4126 H 388.643 7.58011 -0.576494 0
M  V30 4127 N 390.218 -0.567019 1.47046 0
M  V30 4128 C 391.467 -1.32091 1.5243 0
M  V30 4129 C 391.78 -1.94704 0.187021 0
M  V30 4130 O 392.986 -2.7124 0.118771 0
M  V30 4131 C 391.442 -2.39479 2.68659 0
M  V30 4132 C 391.05 -1.831 4.08874 0
M  V30 4133 C 392.794 -3.16111 2.83327 0
M  V30 4134 C 390.701 -2.8821 5.16419 0
M  V30 4135 H 389.631 -0.496629 0.56734 0
M  V30 4136 H 392.282 -0.603354 1.73297 0
M  V30 4137 H 390.664 -3.14105 2.41152 0
M  V30 4138 H 391.838 -1.14913 4.46242 0
M  V30 4139 H 390.153 -1.19085 3.99008 0
M  V30 4140 H 392.75 -3.94585 3.60842 0
M  V30 4141 H 393.093 -3.69686 1.91411 0
M  V30 4142 H 393.626 -2.48595 3.10556 0
M  V30 4143 H 390.365 -2.39504 6.10179 0
M  V30 4144 H 389.885 -3.54839 4.8358 0
M  V30 4145 H 391.564 -3.51881 5.42945 0
M  V30 4146 N 391.696 -1.35014 -0.812953 0
M  V30 4147 C 392.606 -1.2951 -1.95613 0
M  V30 4148 C 393.622 -0.20107 -1.72834 0
M  V30 4149 O 394.798 -0.42932 -1.96771 0
M  V30 4150 C 391.863 -1.06033 -3.30088 0
M  V30 4151 C 390.924 -2.24688 -3.65805 0
M  V30 4152 C 390.157 -2.02322 -4.93864 0
M  V30 4153 O 390.38 -0.986464 -5.61805 0
M  V30 4154 O 389.314 -2.89525 -5.27692 0
M  V30 4155 H 393.14 -2.25705 -2.03202 0
M  V30 4156 H 390.725 -1.15321 -0.949811 0
M  V30 4157 H 392.607 -0.94763 -4.10607 0
M  V30 4158 H 391.282 -0.128852 -3.23443 0
M  V30 4159 H 390.189 -2.41521 -2.85689 0
M  V30 4160 H 391.522 -3.16261 -3.77147 0
M  V30 4161 N 393.175 1.03435 -1.18907 0
M  V30 4162 C 394.123 2.13703 -0.918353 0
M  V30 4163 C 395.117 1.68947 0.123767 0
M  V30 4164 O 396.323 1.79983 -0.0249701 0
M  V30 4165 H 392.698 0.698112 -0.279542 0
M  V30 4166 H 394.669 2.33731 -1.85506 0
M  V30 4167 C 393.418 3.44542 -0.467532 0
M  V30 4168 H 392.741 3.79394 -1.26095 0
M  V30 4169 H 394.181 4.22812 -0.317164 0
M  V30 4170 C 392.64 3.26829 0.817588 0
M  V30 4171 O 393.17 3.54975 1.88031 0
M  V30 4172 N 391.376 2.80139 0.772677 0
M  V30 4173 H 390.923 2.57434 -0.0923883 0
M  V30 4174 H 390.881 2.68668 1.63294 0
M  V30 4175 N 394.653 0.992116 1.22453 0
M  V30 4176 C 395.563 0.55065 2.28046 0
M  V30 4177 C 396.579 -0.400189 1.69335 0
M  V30 4178 O 397.755 -0.267215 1.99619 0
M  V30 4179 C 394.82 -0.128496 3.46462 0
M  V30 4180 C 393.881 0.865208 4.20491 0
M  V30 4181 C 393.114 0.218377 5.33253 0
M  V30 4182 O 393.337 -0.987894 5.6178 0
M  V30 4183 O 392.271 0.922845 5.94783 0
M  V30 4184 H 396.097 1.4291 2.67975 0
M  V30 4185 H 393.682 0.760326 1.28606 0
M  V30 4186 H 395.564 -0.508947 4.18315 0
M  V30 4187 H 394.239 -0.981526 3.0846 0
M  V30 4188 H 393.146 1.29658 3.50913 0
M  V30 4189 H 394.479 1.68741 4.62371 0
M  V30 4190 N 396.131 -1.37776 0.765217 0
M  V30 4191 C 397.061 -2.32945 0.160953 0
M  V30 4192 C 398.042 -1.55454 -0.690516 0
M  V30 4193 O 399.227 -1.83721 -0.629318 0
M  V30 4194 C 396.357 -3.39669 -0.724031 0
M  V30 4195 C 395.311 -4.27992 0.0256173 0
M  V30 4196 C 394.637 -5.25673 -0.978383 0
M  V30 4197 C 395.937 -5.08309 1.20082 0
M  V30 4198 H 397.631 -2.83728 0.955969 0
M  V30 4199 H 395.177 -1.36416 0.461149 0
M  V30 4200 H 397.13 -4.05219 -1.15652 0
M  V30 4201 H 395.854 -2.87396 -1.5515 0
M  V30 4202 H 394.513 -3.63964 0.438812 0
M  V30 4203 H 394.161 -4.69682 -1.80022 0
M  V30 4204 H 393.861 -5.85625 -0.481378 0
M  V30 4205 H 395.385 -5.94098 -1.40995 0
M  V30 4206 H 396.799 -5.67034 0.845307 0
M  V30 4207 H 395.196 -5.77554 1.62947 0
M  V30 4208 H 396.266 -4.41365 2.00811 0
M  V30 4209 N 397.609 -0.515225 -1.4894 0
M  V30 4210 C 399.025 -0.172099 -1.58669 0
M  V30 4211 C 399.225 1.32405 -1.51892 0
M  V30 4212 O 398.281 2.10116 -1.40027 0
M  V30 4213 C 399.594 -0.761533 -2.90897 0
M  V30 4214 C 401.142 -0.728926 -3.04394 0
M  V30 4215 C 401.617 -1.29667 -4.39261 0
M  V30 4216 N 403.108 -1.25799 -4.4579 0
M  V30 4217 C 403.843 -1.66733 -5.48623 0
M  V30 4218 N 403.339 -2.15327 -6.58488 0
M  V30 4219 N 405.132 -1.58061 -5.39419 0
M  V30 4220 H 397.283 -1.48778 -1.51588 0
M  V30 4221 H 399.546 -0.617968 -0.718901 0
M  V30 4222 H 399.252 -1.81136 -3.01468 0
M  V30 4223 H 399.126 -0.230106 -3.76497 0
M  V30 4224 H 401.513 0.312098 -2.93445 0
M  V30 4225 H 401.594 -1.29766 -2.20442 0
M  V30 4226 H 401.238 -2.33655 -4.50963 0
M  V30 4227 H 401.168 -0.703752 -5.21876 0
M  V30 4228 H 403.659 -0.902102 -3.66975 0
M  V30 4229 H 403.972 -2.44594 -7.33071 0
M  V30 4230 H 402.317 -2.19311 -6.59491 0
M  V30 4231 H 405.508 -1.19906 -4.52482 0
M  V30 4232 H 405.681 -1.90284 -6.19432 0
M  V30 4233 N 399.087 1.5561 -0.249682 0
M  V30 4234 C 400.017 2.24477 0.642826 0
M  V30 4235 C 400.998 1.22601 1.17911 0
M  V30 4236 O 402.183 1.5126 1.21795 0
M  V30 4237 C 399.313 2.94638 1.83863 0
M  V30 4238 C 398.267 4.03227 1.435 0
M  V30 4239 C 397.593 4.60828 2.71186 0
M  V30 4240 C 398.893 5.18796 0.604002 0
M  V30 4241 H 400.587 2.99321 0.0685625 0
M  V30 4242 H 398.133 1.43965 0.0315363 0
M  V30 4243 H 400.086 3.41517 2.46868 0
M  V30 4244 H 398.81 2.17287 2.43832 0
M  V30 4245 H 397.469 3.57121 0.828275 0
M  V30 4246 H 397.117 3.80174 3.29358 0
M  V30 4247 H 396.817 5.34132 2.44901 0
M  V30 4248 H 398.341 5.10442 3.35084 0
M  V30 4249 H 399.755 5.61883 1.13842 0
M  V30 4250 H 398.152 5.98506 0.437097 0
M  V30 4251 H 399.222 4.83384 -0.383147 0
M  V30 4252 N 400.565 -0.0233959 1.57583 0
M  V30 4253 C 401.976 -0.56927 1.77809 0
M  V30 4254 C 402.327 -1.75284 0.881472 0
M  V30 4255 O 401.452 -2.1626 0.0777805 0
M  V30 4256 C 402.047 -1.03949 3.22459 0
M  V30 4257 C 400.606 -1.53084 3.43864 0
M  V30 4258 C 399.753 -0.471454 2.73263 0
M  V30 4259 H 402.704 0.202825 1.57399 0
M  V30 4260 H 402.725 -1.90661 3.29285 0
M  V30 4261 H 402.237 -0.177865 3.87692 0
M  V30 4262 H 400.338 -2.41414 2.83814 0
M  V30 4263 H 400.451 -1.57443 4.52491 0
M  V30 4264 H 398.815 -0.927788 2.37201 0
M  V30 4265 H 399.598 0.380808 3.41181 0
M  V30 4266 N 402.043 -1.548 -0.295768 0
M  V30 4267 C 402.973 -1.89115 -1.36959 0
M  V30 4268 C 403.954 -0.75059 -1.52644 0
M  V30 4269 O 405.139 -1.00678 -1.66065 0
M  V30 4270 C 402.269 -2.14307 -2.73295 0
M  V30 4271 C 401.223 -3.30151 -2.72368 0
M  V30 4272 C 400.549 -3.40772 -4.12042 0
M  V30 4273 C 401.849 -4.67126 -2.33646 0
M  V30 4274 H 403.543 -2.79053 -1.08488 0
M  V30 4275 H 401.089 -1.34266 -0.520443 0
M  V30 4276 H 403.042 -2.36898 -3.48507 0
M  V30 4277 H 401.766 -1.21145 -3.03301 0
M  V30 4278 H 400.425 -3.0749 -1.99613 0
M  V30 4279 H 400.073 -2.45117 -4.39234 0
M  V30 4280 H 399.773 -4.18645 -4.12322 0
M  V30 4281 H 401.297 -3.6563 -4.89027 0
M  V30 4282 H 402.711 -4.89414 -2.98575 0
M  V30 4283 H 401.108 -5.47751 -2.45129 0
M  V30 4284 H 402.178 -4.67489 -1.28772 0
M  V30 4285 N 403.521 0.559213 -1.47345 0
M  V30 4286 C 404.767 1.31843 -1.54095 0
M  V30 4287 C 405.1 1.93149 -0.201726 0
M  V30 4288 O 404.375 1.77759 0.789428 0
M  V30 4289 C 404.658 2.43006 -2.65744 0
M  V30 4290 C 404.511 1.86581 -4.09277 0
M  V30 4291 C 405.83 3.44943 -2.73318 0
M  V30 4292 H 402.949 0.478012 -0.560957 0
M  V30 4293 H 405.591 0.625977 -1.79392 0
M  V30 4294 H 403.741 3.02072 -2.44305 0
M  V30 4295 H 405.413 1.31792 -4.42073 0
M  V30 4296 H 403.656 1.17268 -4.17649 0
M  V30 4297 H 404.327 2.66933 -4.83168 0
M  V30 4298 H 406.803 2.95793 -2.92653 0
M  V30 4299 H 405.679 4.20153 -3.53218 0
M  V30 4300 H 405.94 4.03665 -1.80296 0
M  V30 4301 N 404.999 1.35443 0.805782 0
M  V30 4302 C 406.41 1.25768 1.37983 0
M  V30 4303 C 406.761 -0.10958 1.95894 0
M  V30 4304 O 405.886 -1.01056 1.91355 0
M  V30 4305 C 406.481 2.27727 2.5085 0
M  V30 4306 C 405.04 2.2179 3.04115 0
M  V30 4307 C 404.187 2.13393 1.77084 0
M  V30 4308 H 407.138 1.4656 0.608752 0
M  V30 4309 H 407.159 1.90422 3.29424 0
M  V30 4310 H 406.671 3.27227 2.08671 0
M  V30 4311 H 404.772 1.25703 3.50756 0
M  V30 4312 H 404.885 3.13788 3.62042 0
M  V30 4313 H 403.249 1.59384 1.98668 0
M  V30 4314 H 404.032 3.14755 1.37056 0
M  V30 4315 N 406.477 -1.02803 1.19454 0
M  V30 4316 C 407.44 -2.09264 0.934955 0
M  V30 4317 C 408.44 -1.60576 -0.0849015 0
M  V30 4318 O 409.63 -1.73554 0.149933 0
M  V30 4319 C 406.762 -3.38482 0.40531 0
M  V30 4320 H 407.955 -2.33726 1.87916 0
M  V30 4321 H 405.508 -1.19426 1.00832 0
M  V30 4322 H 406.243 -3.19689 -0.544899 0
M  V30 4323 H 406.028 -3.75142 1.14065 0
M  V30 4324 H 407.518 -4.16894 0.242806 0
M  V30 4325 N 407.956 -0.998596 -1.21925 0
M  V30 4326 C 409.181 -0.696015 -1.95372 0
M  V30 4327 C 409.606 0.733826 -1.73195 0
M  V30 4328 O 408.964 1.50242 -1.01474 0
M  V30 4329 C 409.012 -1.01466 -3.4603 0
M  V30 4330 O 408.116 -0.116415 -4.12236 0
M  V30 4331 H 407.457 -0.259938 -0.611006 0
M  V30 4332 H 409.987 -1.33711 -1.54863 0
M  V30 4333 H 409.997 -0.958855 -3.96573 0
M  V30 4334 H 408.672 -2.05653 -3.61497 0
M  V30 4335 H 407.249 -0.228193 -3.72201 0
M  V30 4336 N 409.434 1.37368 -0.772513 0
M  V30 4337 C 410.344 2.34053 -0.160081 0
M  V30 4338 C 411.36 1.60216 0.678728 0
M  V30 4339 O 412.536 1.92303 0.59847 0
M  V30 4340 C 409.601 3.3939 0.708182 0
M  V30 4341 C 408.662 4.29048 -0.147172 0
M  V30 4342 C 407.895 5.29354 0.679744 0
M  V30 4343 O 408.118 5.3723 1.91678 0
M  V30 4344 O 407.052 6.01835 0.0885444 0
M  V30 4345 H 410.878 2.88159 -0.959053 0
M  V30 4346 H 408.463 1.39543 -0.533685 0
M  V30 4347 H 410.345 4.03839 1.20384 0
M  V30 4348 H 409.02 2.8761 1.48533 0
M  V30 4349 H 407.927 3.67697 -0.689205 0
M  V30 4350 H 409.26 4.84134 -0.887423 0
M  V30 4351 N 410.912 0.523116 1.48665 0
M  V30 4352 C 411.859 -0.243398 2.29513 0
M  V30 4353 C 412.829 -0.940139 1.36933 0
M  V30 4354 O 414.014 -0.942503 1.65896 0
M  V30 4355 C 411.154 -1.28855 3.20141 0
M  V30 4356 C 410.267 -0.60135 4.27794 0
M  V30 4357 C 409.402 -1.62884 5.05611 0
M  V30 4358 C 408.441 -0.924726 6.05075 0
M  V30 4359 N 407.578 -1.89744 6.75975 0
M  V30 4360 H 412.418 0.452234 2.94549 0
M  V30 4361 H 409.955 0.234858 1.45213 0
M  V30 4362 H 411.913 -1.90674 3.71079 0
M  V30 4363 H 410.543 -1.95266 2.57043 0
M  V30 4364 H 409.595 0.130623 3.80176 0
M  V30 4365 H 410.907 -0.0481585 4.98777 0
M  V30 4366 H 410.061 -2.32149 5.60528 0
M  V30 4367 H 408.8 -2.21592 4.34452 0
M  V30 4368 H 407.805 -0.217966 5.49368 0
M  V30 4369 H 409.03 -0.343851 6.78229 0
M  V30 4370 H 406.976 -2.47373 6.07571 0
M  V30 4371 H 406.893 -1.3955 7.43009 0
M  V30 4372 H 408.161 -2.58229 7.35485 0
M  V30 4373 N 412.39 -1.55475 0.257931 0
M  V30 4374 C 413.618 -2.03609 -0.367559 0
M  V30 4375 C 414.033 -1.13687 -1.50734 0
M  V30 4376 O 413.39 -0.153479 -1.81853 0
M  V30 4377 C 413.441 -3.51001 -0.864908 0
M  V30 4378 O 413.162 -4.37499 0.229465 0
M  V30 4379 C 414.663 -4.14946 -1.55997 0
M  V30 4380 H 411.883 -0.665459 -0.0860521 0
M  V30 4381 H 414.427 -2.00843 0.385014 0
M  V30 4382 H 412.582 -3.54266 -1.56762 0
M  V30 4383 H 412.996 -5.24286 -0.14998 0
M  V30 4384 H 414.47 -5.19735 -1.85956 0
M  V30 4385 H 414.947 -3.6209 -2.4857 0
M  V30 4386 H 415.553 -4.15635 -0.901543 0
M  V30 4387 N 413.868 0.0150385 -1.57593 0
M  V30 4388 C 415.114 0.704043 -1.90187 0
M  V30 4389 C 415.447 1.74249 -0.857366 0
M  V30 4390 O 414.722 1.94092 0.125843 0
M  V30 4391 C 415.005 1.36087 -3.33395 0
M  V30 4392 C 414.858 0.334981 -4.48551 0
M  V30 4393 C 416.177 2.29112 -3.7576 0
M  V30 4394 H 413.296 0.254475 -0.691673 0
M  V30 4395 H 415.938 -0.0331678 -1.89971 0
M  V30 4396 H 414.088 1.98922 -3.3371 0
M  V30 4397 H 415.76 -0.292534 -4.60372 0
M  V30 4398 H 414.003 -0.344325 -4.32431 0
M  V30 4399 H 414.674 0.833316 -5.45674 0
M  V30 4400 H 417.15 1.76308 -3.76902 0
M  V30 4401 H 416.026 2.72043 -4.76743 0
M  V30 4402 H 416.287 3.16385 -3.08793 0
M  V30 4403 N 415.346 1.54954 0.287554 0
M  V30 4404 C 416.256 1.8991 1.37736 0
M  V30 4405 C 417.272 0.794701 1.54792 0
M  V30 4406 O 418.448 1.09243 1.69198 0
M  V30 4407 C 415.513 2.15108 2.71899 0
M  V30 4408 C 414.574 3.38752 2.63715 0
M  V30 4409 C 413.807 3.62739 3.91479 0
M  V30 4410 O 414.03 2.89492 4.91478 0
M  V30 4411 O 412.964 4.56267 3.92561 0
M  V30 4412 H 416.79 2.82652 1.11092 0
M  V30 4413 H 414.375 1.41315 0.484807 0
M  V30 4414 H 416.257 2.32806 3.51254 0
M  V30 4415 H 414.932 1.25551 2.9836 0
M  V30 4416 H 413.839 3.26405 1.82786 0
M  V30 4417 H 415.172 4.28483 2.42205 0
M  V30 4418 N 416.824 -0.551391 1.4764 0
M  V30 4419 C 417.754 -1.66757 1.63445 0
M  V30 4420 C 418.735 -1.63077 0.483742 0
M  V30 4421 O 419.92 -1.80607 0.71377 0
M  V30 4422 C 417.05 -3.05387 1.65396 0
M  V30 4423 C 416.004 -3.23918 2.79752 0
M  V30 4424 C 415.33 -4.63393 2.66779 0
M  V30 4425 C 416.63 -3.08735 4.21284 0
M  V30 4426 H 418.324 -1.53786 2.56886 0
M  V30 4427 H 415.87 -0.738415 1.23626 0
M  V30 4428 H 417.823 -3.83325 1.75043 0
M  V30 4429 H 416.547 -3.19332 0.685195 0
M  V30 4430 H 415.206 -2.48391 2.69625 0
M  V30 4431 H 414.854 -4.74144 1.67918 0
M  V30 4432 H 414.554 -4.7674 3.43501 0
M  V30 4433 H 416.078 -5.43458 2.78364 0
M  V30 4434 H 417.492 -3.76484 4.32357 0
M  V30 4435 H 415.889 -3.33588 4.98838 0
M  V30 4436 H 416.959 -2.0541 4.39243 0
M  V30 4437 N 418.302 -1.35869 -0.798587 0
M  V30 4438 C 419.232 -1.32118 -1.92528 0
M  V30 4439 C 420.213 -0.194209 -1.68988 0
M  V30 4440 O 421.398 -0.390426 -1.90235 0
M  V30 4441 C 418.528 -1.10047 -3.29404 0
M  V30 4442 C 417.482 -2.19471 -3.67446 0
M  V30 4443 C 416.808 -1.82555 -5.02571 0
M  V30 4444 C 418.108 -3.61495 -3.76987 0
M  V30 4445 H 419.802 -2.26394 -1.95924 0
M  V30 4446 H 417.348 -1.08981 -0.94123 0
M  V30 4447 H 419.301 -1.06061 -4.07835 0
M  V30 4448 H 418.025 -0.122195 -3.26371 0
M  V30 4449 H 416.684 -2.22568 -2.91306 0
M  V30 4450 H 416.332 -0.833249 -4.9605 0
M  V30 4451 H 416.032 -2.5581 -5.28995 0
M  V30 4452 H 417.556 -1.80108 -5.83432 0
M  V30 4453 H 418.97 -3.60676 -4.4563 0
M  V30 4454 H 417.367 -4.33577 -4.14887 0
M  V30 4455 H 418.437 -3.97065 -2.78329 0
M  V30 4456 N 419.78 1.02168 -1.19998 0
M  V30 4457 C 421.196 1.27969 -0.953737 0
M  V30 4458 C 421.396 1.98079 0.369703 0
M  V30 4459 O 420.452 2.27306 1.09947 0
M  V30 4460 C 421.765 2.11971 -2.13281 0
M  V30 4461 C 423.313 2.25255 -2.17323 0
M  V30 4462 C 423.788 3.12632 -3.34702 0
M  V30 4463 N 425.279 3.2022 -3.34684 0
M  V30 4464 C 426.014 3.88039 -4.22153 0
M  V30 4465 N 425.51 4.58027 -5.19791 0
M  V30 4466 N 427.303 3.84511 -4.10009 0
M  V30 4467 H 419.454 0.550794 -2.05134 0
M  V30 4468 H 421.717 0.305683 -0.897364 0
M  V30 4469 H 421.423 1.67785 -3.09097 0
M  V30 4470 H 421.297 3.12699 -2.10949 0
M  V30 4471 H 423.684 2.68667 -1.22073 0
M  V30 4472 H 423.765 1.24053 -2.23706 0
M  V30 4473 H 423.409 2.69926 -4.30235 0
M  V30 4474 H 423.339 4.13909 -3.25556 0
M  V30 4475 H 425.83 2.70382 -2.64012 0
M  V30 4476 H 426.143 5.07429 -5.82868 0
M  V30 4477 H 424.488 4.56869 -5.23733 0
M  V30 4478 H 427.679 3.28978 -3.33003 0
M  V30 4479 H 427.852 4.3709 -4.78389 0
M  V30 4480 N 421.258 1.00505 1.21394 0
M  V30 4481 C 422.206 0.558623 2.25792 0
M  V30 4482 C 423.2 -0.396848 1.64686 0
M  V30 4483 O 424.406 -0.268035 1.77993 0
M  V30 4484 H 420.781 0.1623 0.734277 0
M  V30 4485 H 422.752 1.4503 2.60785 0
M  V30 4486 C 421.501 -0.0989574 3.47559 0
M  V30 4487 H 420.824 0.627225 3.94849 0
M  V30 4488 H 422.264 -0.3746 4.22342 0
M  V30 4489 C 420.723 -1.33817 3.09184 0
M  V30 4490 O 421.253 -2.43252 3.19674 0
M  V30 4491 N 419.459 -1.21793 2.63846 0
M  V30 4492 H 419.006 -0.32746 2.5551 0
M  V30 4493 H 418.964 -2.04809 2.38539 0
M  V30 4494 N 422.737 -1.36956 0.779787 0
M  V30 4495 C 423.983 -1.99787 0.348281 0
M  V30 4496 C 424.316 -1.61756 -1.07465 0
M  V30 4497 O 423.591 -0.867639 -1.74075 0
M  V30 4498 C 423.874 -3.56597 0.50104 0
M  V30 4499 C 423.727 -4.04513 1.96697 0
M  V30 4500 C 425.046 -4.40008 -0.0898097 0
M  V30 4501 H 422.165 -0.725796 0.128022 0
M  V30 4502 H 424.807 -1.62514 0.984331 0
M  V30 4503 H 422.957 -3.88479 -0.0404347 0
M  V30 4504 H 424.629 -3.83161 2.56876 0
M  V30 4505 H 422.872 -3.56408 2.47297 0
M  V30 4506 H 423.543 -5.1352 2.02486 0
M  V30 4507 H 426.019 -4.14431 0.372293 0
M  V30 4508 H 424.895 -5.4888 0.0471605 0
M  V30 4509 H 425.156 -4.26035 -1.18096 0
M  V30 4510 N 424.215 -0.530993 -1.48385 0
M  V30 4511 C 425.145 0.219985 -2.32461 0
M  V30 4512 C 426.126 0.934111 -1.42156 0
M  V30 4513 O 427.311 0.919694 -1.71042 0
M  V30 4514 C 424.441 1.26674 -3.23375 0
M  V30 4515 C 423.395 0.67069 -4.22712 0
M  V30 4516 C 422.721 1.82017 -5.02766 0
M  V30 4517 C 424.021 -0.358268 -5.2107 0
M  V30 4518 H 425.715 -0.48187 -2.95497 0
M  V30 4519 H 423.261 -0.233182 -1.42099 0
M  V30 4520 H 425.214 1.80006 -3.81019 0
M  V30 4521 H 423.938 1.99818 -2.58341 0
M  V30 4522 H 422.597 0.158878 -3.66256 0
M  V30 4523 H 422.245 2.54002 -4.34157 0
M  V30 4524 H 421.945 1.42727 -5.70003 0
M  V30 4525 H 423.469 2.35725 -5.63264 0
M  V30 4526 H 424.883 0.0880081 -5.73232 0
M  V30 4527 H 423.28 -0.66861 -5.96364 0
M  V30 4528 H 424.35 -1.26367 -4.68145 0
M  V30 4529 N 425.693 1.55336 -0.266172 0
M  V30 4530 C 426.64 2.22172 0.625165 0
M  V30 4531 C 427.61 1.19211 1.15663 0
M  V30 4532 O 428.795 1.47723 1.20758 0
M  V30 4533 C 425.935 2.93972 1.8076 0
M  V30 4534 C 425.048 4.11632 1.31084 0
M  V30 4535 C 424.183 4.71099 2.45436 0
M  V30 4536 C 423.222 5.8097 1.92718 0
M  V30 4537 N 422.359 6.34538 3.00509 0
M  V30 4538 H 427.199 2.9796 0.0485582 0
M  V30 4539 H 424.736 1.47095 0.0122024 0
M  V30 4540 H 426.694 3.33811 2.50251 0
M  V30 4541 H 425.324 2.20623 2.35638 0
M  V30 4542 H 424.376 3.76975 0.509326 0
M  V30 4543 H 425.688 4.90893 0.884633 0
M  V30 4544 H 424.842 5.13612 3.22936 0
M  V30 4545 H 423.581 3.91096 2.91368 0
M  V30 4546 H 422.586 5.37916 1.13695 0
M  V30 4547 H 423.811 6.62836 1.47733 0
M  V30 4548 H 421.757 5.57433 3.45839 0
M  V30 4549 H 421.674 7.09046 2.62279 0
M  V30 4550 H 422.942 6.81709 3.78011 0
M  V30 4551 N 427.171 -0.0066808 1.57599 0
M  V30 4552 C 428.081 -1.01671 2.11424 0
M  V30 4553 C 429.097 -1.38143 1.05795 0
M  V30 4554 O 430.273 -1.47011 1.37658 0
M  V30 4555 C 427.338 -2.29192 2.60139 0
M  V30 4556 C 426.399 -1.99094 3.80342 0
M  V30 4557 C 425.632 -3.20535 4.26724 0
M  V30 4558 O 425.855 -4.3199 3.72479 0
M  V30 4559 O 424.789 -3.04924 5.18946 0
M  V30 4560 H 428.615 -0.589181 2.9793 0
M  V30 4561 H 426.2 -0.225091 1.47695 0
M  V30 4562 H 428.082 -3.0412 2.917 0
M  V30 4563 H 426.757 -2.71195 1.76733 0
M  V30 4564 H 425.664 -1.21663 3.53764 0
M  V30 4565 H 426.997 -1.61931 4.648 0
M  V30 4566 N 428.649 -1.55105 -0.279332 0
M  V30 4567 C 429.874 -1.7976 -1.03446 0
M  V30 4568 C 430.299 -0.565952 -1.79384 0
M  V30 4569 O 429.657 0.484259 -1.74713 0
M  V30 4570 C 429.705 -3.0179 -1.97371 0
M  V30 4571 O 428.809 -2.76432 -3.06038 0
M  V30 4572 H 428.15 -0.594334 -0.29608 0
M  V30 4573 H 430.68 -2.02235 -0.310165 0
M  V30 4574 H 430.69 -3.30351 -2.39441 0
M  V30 4575 H 429.365 -3.91085 -1.4151 0
M  V30 4576 H 427.942 -2.58949 -2.68328 0
M  V30 4577 N 430.127 0.543554 -1.4793 0
M  V30 4578 C 431.375 1.29752 -1.54948 0
M  V30 4579 C 431.696 1.93764 -0.219242 0
M  V30 4580 O 430.966 1.80639 0.75805 0
M  V30 4581 H 429.546 0.481874 -0.570795 0
M  V30 4582 H 432.208 0.633636 -1.84312 0
M  V30 4583 H 431.304 2.08392 -2.32334 0
M  V30 4584 N 431.605 1.3629 0.791371 0
M  V30 4585 C 432.535 1.33137 1.91825 0
M  V30 4586 C 433.516 0.203168 1.68882 0
M  V30 4587 O 434.701 0.400509 1.90025 0
M  V30 4588 C 431.831 1.11793 3.28816 0
M  V30 4589 C 430.785 2.21417 3.66277 0
M  V30 4590 C 430.111 1.85218 5.01596 0
M  V30 4591 C 431.411 3.63489 3.75064 0
M  V30 4592 H 433.105 2.2743 1.9472 0
M  V30 4593 H 430.651 1.09479 0.935437 0
M  V30 4594 H 432.604 1.08222 4.07266 0
M  V30 4595 H 431.328 0.139501 3.26302 0
M  V30 4596 H 429.987 2.2411 2.90121 0
M  V30 4597 H 429.635 0.859544 4.95602 0
M  V30 4598 H 429.335 2.58611 5.27631 0
M  V30 4599 H 430.859 1.832 5.82469 0
M  V30 4600 H 432.273 3.63034 4.43711 0
M  V30 4601 H 430.67 4.35771 4.12582 0
M  V30 4602 H 431.74 3.98536 2.76219 0
M  V30 4603 N 433.083 -1.0153 1.20538 0
M  V30 4604 C 434.013 -2.11972 0.979295 0
M  V30 4605 C 434.994 -1.6985 -0.0921787 0
M  V30 4606 O 436.179 -1.94089 0.0655932 0
M  V30 4607 C 433.309 -3.43201 0.531984 0
M  V30 4608 C 432.263 -3.9907 1.54685 0
M  V30 4609 C 431.589 -5.26082 0.956127 0
M  V30 4610 C 432.889 -4.32313 2.93092 0
M  V30 4611 H 434.583 -2.31143 1.90298 0
M  V30 4612 H 432.129 -1.11079 0.916372 0
M  V30 4613 H 434.082 -4.1985 0.361044 0
M  V30 4614 H 432.806 -3.23792 -0.427327 0
M  V30 4615 H 431.465 -3.2453 1.70517 0
M  V30 4616 H 431.113 -5.02999 -0.0111538 0
M  V30 4617 H 430.813 -5.64426 1.63393 0
M  V30 4618 H 432.337 -6.05386 0.796284 0
M  V30 4619 H 433.751 -4.99845 2.80763 0
M  V30 4620 H 432.148 -4.81774 3.57791 0
M  V30 4621 H 433.218 -3.41025 3.44717 0
M  V30 4622 O 434.6 -1.13875 -1.14519 0
M  V30 4623 H 435.291 -0.85746 -1.73687 0
M  V30 END ATOM
M  V30 BEGIN BOND
M  V30 END BOND
M  V30 END CTAB
M  END
$$$$
