drugbank_target|Q8I6U8 Glycophorin-binding protein (DB11638)
 OpenBabel12092121103D

  0  0  0     0  0            999 V3000
M  V30 BEGIN CTAB
M  V30 COUNTS 13203 13313 0 0 0
M  V30 BEGIN ATOM
M  V30 1 H -0.908 1.98254 -0.117106 0
M  V30 2 N 0 1.576 0 0
M  V30 3 C 0.933 2.03868 1.02534 0
M  V30 4 C 1.911 0.928543 1.3348 0
M  V30 5 O 3.095 1.19667 1.45644 0
M  V30 6 C 0.222 2.43627 2.35294 0
M  V30 7 C -0.732 3.65373 2.2001 0
M  V30 8 S 0.101 5.13292 1.52614 0
M  V30 9 C 1.257 5.56322 2.86805 0
M  V30 10 H 1.49 2.90518 0.631377 0
M  V30 11 H -0.977 1.52953 0.210867 0
M  V30 12 H 0.981 2.67203 3.11629 0
M  V30 13 H -0.358 1.57376 2.7183 0
M  V30 14 H -1.165 3.90944 3.18086 0
M  V30 15 H -1.563 3.418 1.51819 0
M  V30 16 H 0.729 5.58782 3.83104 0
M  V30 17 H 1.672 6.56266 2.65933 0
M  V30 18 H 2.08 4.83886 2.90714 0
M  V30 19 N 1.4781 -0.272755 1.55222 0
M  V30 20 C 2.8941 -0.619959 1.47067 0
M  V30 21 C 3.0941 -1.895 0.684978 0
M  V30 22 O 2.1501 -2.51675 0.203931 0
M  V30 23 C 3.4631 -0.746693 2.91282 0
M  V30 24 C 5.0111 -0.840731 3.01497 0
M  V30 25 C 5.4861 -0.99924 4.46967 0
M  V30 26 N 6.9771 -1.06476 4.50796 0
M  V30 27 C 7.7121 -1.20621 5.6057 0
M  V30 28 N 7.2081 -1.31483 6.80209 0
M  V30 29 N 9.0011 -1.23733 5.48312 0
M  V30 30 H 1.1521 0.564606 2.04758 0
M  V30 31 H 3.4151 0.191177 0.928523 0
M  V30 32 H 3.1211 0.119753 3.51496 0
M  V30 33 H 2.9951 -1.6269 3.40311 0
M  V30 34 H 5.3821 -1.69764 2.41379 0
M  V30 35 H 5.4631 0.0640874 2.5572 0
M  V30 36 H 5.1071 -0.146984 5.07687 0
M  V30 37 H 5.0371 -1.91871 4.90401 0
M  V30 38 H 7.5281 -0.993196 3.64615 0
M  V30 39 H 7.8411 -1.42111 7.59621 0
M  V30 40 H 6.1861 -1.28487 6.8302 0
M  V30 41 H 9.3771 -1.14877 4.53785 0
M  V30 42 H 9.5501 -1.34412 6.33906 0
M  V30 43 N 2.9562 -1.48159 -0.537278 0
M  V30 44 C 3.8862 -1.65029 -1.6519 0
M  V30 45 C 4.8672 -0.499281 -1.62607 0
M  V30 46 O 6.0522 -0.730972 -1.79918 0
M  V30 47 C 3.1822 -1.68303 -3.03795 0
M  V30 48 C 2.1362 -2.8283 -3.21234 0
M  V30 49 C 1.4622 -2.71189 -4.60826 0
M  V30 50 C 2.7622 -4.24211 -3.04701 0
M  V30 51 H 4.4562 -2.58341 -1.51328 0
M  V30 52 H 2.0022 -1.24325 -0.726585 0
M  V30 53 H 3.9552 -1.78693 -3.81637 0
M  V30 54 H 2.6792 -0.715635 -3.18663 0
M  V30 55 H 1.3382 -2.71983 -2.45807 0
M  V30 56 H 0.9862 -1.72435 -4.7252 0
M  V30 57 H 0.6862 -3.48035 -4.7344 0
M  V30 58 H 2.2102 -2.83537 -5.40777 0
M  V30 59 H 3.6242 -4.3593 -3.72341 0
M  V30 60 H 2.0212 -5.01998 -3.28813 0
M  V30 61 H 3.0912 -4.41184 -2.01209 0
M  V30 62 N 4.4343 0.785586 -1.36625 0
M  V30 63 C 5.6593 1.57963 -1.34397 0
M  V30 64 C 6.0843 1.87964 0.071526 0
M  V30 65 O 5.4423 1.48182 1.0446 0
M  V30 66 C 5.4903 2.87511 -2.17646 0
M  V30 67 O 4.5943 3.81281 -1.57158 0
M  V30 68 H 3.9353 0.479014 -0.459828 0
M  V30 69 H 6.4653 0.973411 -1.79961 0
M  V30 70 H 6.4753 3.36745 -2.30362 0
M  V30 71 H 5.1503 2.65002 -3.20541 0
M  V30 72 H 3.7273 3.39885 -1.53403 0
M  V30 73 N 5.9124 1.20967 1.01018 0
M  V30 74 C 6.8594 0.964281 2.09691 0
M  V30 75 C 7.8294 -0.107853 1.65749 0
M  V30 76 O 9.0144 0.0381987 1.90762 0
M  V30 77 C 6.1544 0.52943 3.41015 0
M  V30 78 C 5.2674 1.67043 3.98398 0
M  V30 79 C 4.4024 1.18525 5.17808 0
M  V30 80 C 3.4414 2.29892 5.67288 0
M  V30 81 N 2.5784 1.82546 6.77954 0
M  V30 82 H 7.4184 1.89463 2.30017 0
M  V30 83 H 4.9554 0.944289 1.1279 0
M  V30 84 H 6.9134 0.258588 4.16398 0
M  V30 85 H 5.5434 -0.363919 3.20742 0
M  V30 86 H 4.5954 2.05603 3.20049 0
M  V30 87 H 5.9074 2.50877 4.31117 0
M  V30 88 H 5.0614 0.870762 6.00419 0
M  V30 89 H 3.8004 0.316887 4.86669 0
M  V30 90 H 2.8054 2.6215 4.83278 0
M  V30 91 H 4.0304 3.17216 6.00459 0
M  V30 92 H 1.9764 0.980454 6.48632 0
M  V30 93 H 1.8934 2.59956 7.09901 0
M  V30 94 H 3.1614 1.54115 7.64113 0
M  V30 95 N 7.3905 -1.2043 1.01659 0
M  V30 96 C 8.6365 -1.90079 0.706963 0
M  V30 97 C 8.9695 -1.78648 -0.761474 0
M  V30 98 O 8.2445 -1.17069 -1.55323 0
M  V30 99 C 8.5275 -3.41469 1.14327 0
M  V30 100 C 8.3805 -3.61833 2.67201 0
M  V30 101 C 9.6995 -4.34261 0.714529 0
M  V30 102 H 6.8185 -0.690254 0.2583 0
M  V30 103 H 9.4605 -1.41826 1.26433 0
M  V30 104 H 7.6105 -3.82696 0.669056 0
M  V30 105 H 9.2825 -3.2986 3.22475 0
M  V30 106 H 7.5255 -3.05304 3.08175 0
M  V30 107 H 8.1965 -4.67955 2.92783 0
M  V30 108 H 10.6725 -4.00682 1.12221 0
M  V30 109 H 9.5485 -5.38806 1.04784 0
M  V30 110 H 9.8095 -4.40431 -0.383799 0
M  V30 111 N 8.8686 -0.792821 -1.36206 0
M  V30 112 C 10.0936 -0.377701 -2.03932 0
M  V30 113 C 10.5186 0.998947 -1.59382 0
M  V30 114 O 9.8766 1.64421 -0.763903 0
M  V30 115 C 9.9246 -0.453635 -3.57735 0
M  V30 116 O 9.0286 0.538151 -4.08874 0
M  V30 117 H 8.3696 -0.159855 -0.644471 0
M  V30 118 H 10.8996 -1.07488 -1.7409 0
M  V30 119 H 10.9096 -0.318464 -4.06755 0
M  V30 120 H 9.5846 -1.45784 -3.89512 0
M  V30 121 H 8.1616 0.364359 -3.71116 0
M  V30 122 N 10.3467 1.47872 -0.545128 0
M  V30 123 C 11.6237 1.9554 0.0485222 0
M  V30 124 C 12.0037 1.4876 1.49779 0
M  V30 125 O 11.3517 0.720925 2.16829 0
M  V30 126 C 11.5617 3.48898 -0.084417 0
M  V30 127 C 12.9097 4.24547 0.0671239 0
M  V30 128 O 13.9337 3.56198 -0.0113649 0
M  V30 129 O 12.7927 5.45999 0.233882 0
M  V30 130 H 9.8867 0.823957 0.0708773 0
M  V30 131 H 12.4327 1.58327 -0.610798 0
M  V30 132 H 11.2047 3.75714 -1.09337 0
M  V30 133 H 10.8277 3.92845 0.613066 0
M  V30 134 N 11.8248 0.280983 1.55075 0
M  V30 135 C 13.0738 -0.334784 1.98902 0
M  V30 136 C 13.3868 -1.56534 1.17288 0
M  V30 137 O 14.5928 -2.25443 1.51287 0
M  V30 138 C 13.0488 -0.646994 3.54037 0
M  V30 139 C 12.6568 0.564085 4.44435 0
M  V30 140 C 14.4008 -1.22506 4.06439 0
M  V30 141 C 12.3078 0.226137 5.90967 0
M  V30 142 H 11.2378 -0.128866 0.742906 0
M  V30 143 H 13.8888 0.386556 1.79382 0
M  V30 144 H 12.2708 -1.42739 3.6938 0
M  V30 145 H 13.4448 1.34082 4.40861 0
M  V30 146 H 11.7598 1.0594 4.02698 0
M  V30 147 H 14.3568 -1.49182 5.13468 0
M  V30 148 H 14.6998 -2.16085 3.55827 0
M  V30 149 H 15.2328 -0.50682 3.94558 0
M  V30 150 H 11.9718 1.12996 6.45687 0
M  V30 151 H 11.4918 -0.513717 5.97596 0
M  V30 152 H 13.1708 -0.179539 6.46751 0
M  V30 153 N 13.3029 -1.57598 0.00835791 0
M  V30 154 C 14.2499 -2.08945 -0.980346 0
M  V30 155 C 15.2199 -0.986738 -1.33614 0
M  V30 156 O 16.4049 -1.25968 -1.43306 0
M  V30 157 C 13.5449 -2.60425 -2.26435 0
M  V30 158 C 12.6579 -3.84628 -1.96685 0
M  V30 159 C 11.7929 -4.24579 -3.19228 0
M  V30 160 C 10.8319 -5.41596 -2.85202 0
M  V30 161 N 9.9689 -5.768 -4.00307 0
M  V30 162 H 14.8089 -2.93148 -0.535551 0
M  V30 163 H 12.3459 -1.44912 -0.252776 0
M  V30 164 H 14.3039 -2.88354 -3.01509 0
M  V30 165 H 12.9339 -1.79083 -2.68568 0
M  V30 166 H 11.9859 -3.63556 -1.11942 0
M  V30 167 H 13.2979 -4.69796 -1.67611 0
M  V30 168 H 12.4519 -4.53834 -4.02641 0
M  V30 169 H 11.1909 -3.38137 -3.51447 0
M  V30 170 H 10.1959 -5.12056 -2.00198 0
M  V30 171 H 11.4209 -6.29721 -2.54222 0
M  V30 172 H 9.3669 -4.93316 -4.32407 0
M  V30 173 H 9.2839 -6.5656 -3.74786 0
M  V30 174 H 10.5519 -6.10652 -4.84484 0
M  V30 175 N 14.781 0.264519 -1.55364 0
M  V30 176 C 16.006 1.01726 -1.80739 0
M  V30 177 C 16.431 1.78836 -0.583044 0
M  V30 178 O 15.789 1.75167 0.467566 0
M  V30 179 C 15.837 1.94482 -3.03659 0
M  V30 180 O 14.941 3.03386 -2.7934 0
M  V30 181 H 14.282 0.290395 -0.597132 0
M  V30 182 H 16.812 0.290854 -2.02522 0
M  V30 183 H 16.822 2.36278 -3.32621 0
M  V30 184 H 15.497 1.37772 -3.92418 0
M  V30 185 H 14.074 2.65844 -2.61498 0
M  V30 186 N 16.2591 1.48442 0.529413 0
M  V30 187 C 17.4871 1.60151 1.30994 0
M  V30 188 C 17.9021 0.261985 1.86973 0
M  V30 189 O 17.2591 -0.748805 1.66431 0
M  V30 190 C 17.3101 2.64854 2.46038 0
M  V30 191 O 17.0311 3.93608 1.92365 0
M  V30 192 C 18.5321 2.87007 3.37849 0
M  V30 193 H 15.7521 0.539971 0.398338 0
M  V30 194 H 18.2961 1.94273 0.638597 0
M  V30 195 H 16.4511 2.33589 3.09055 0
M  V30 196 H 16.8651 4.51055 2.67675 0
M  V30 197 H 18.3391 3.64068 4.14919 0
M  V30 198 H 18.8161 1.95852 3.93114 0
M  V30 199 H 19.4221 3.19579 2.80623 0
M  V30 200 N 17.7372 -0.778329 1.37039 0
M  V30 201 C 18.9852 -1.53361 1.31623 0
M  V30 202 C 19.3062 -1.94739 -0.100831 0
M  V30 203 O 18.5762 -1.65797 -1.04347 0
M  V30 204 H 17.1562 -0.568794 0.484234 0
M  V30 205 H 19.8182 -0.926742 1.71457 0
M  V30 206 H 18.9142 -2.43606 1.95096 0
M  V30 207 N 19.2153 -1.21501 -1.00376 0
M  V30 208 C 20.4613 -1.03452 -1.74429 0
M  V30 209 C 20.7943 0.430764 -1.89362 0
M  V30 210 O 20.0693 1.31962 -1.42886 0
M  V30 211 C 20.3523 -1.73375 -3.15615 0
M  V30 212 C 20.2053 -3.27431 -3.08397 0
M  V30 213 C 21.5243 -1.47732 -4.14564 0
M  V30 214 H 18.6433 -0.377226 -0.633143 0
M  V30 215 H 21.2853 -1.49693 -1.17013 0
M  V30 216 H 19.4353 -1.34064 -3.64636 0
M  V30 217 H 21.1073 -3.76119 -2.67081 0
M  V30 218 H 19.3503 -3.5767 -2.45468 0
M  V30 219 H 20.0213 -3.71524 -4.08258 0
M  V30 220 H 22.4973 -1.8186 -3.74254 0
M  V30 221 H 21.3733 -1.99169 -5.11491 0
M  V30 222 H 21.6343 -0.407589 -4.40217 0
M  V30 223 N 20.6934 1.19889 -1.02296 0
M  V30 224 C 21.9184 1.9393 -0.735237 0
M  V30 225 C 22.3434 1.74639 0.698782 0
M  V30 226 O 21.7014 1.04481 1.48167 0
M  V30 227 C 21.7494 3.43916 -1.08417 0
M  V30 228 O 20.8534 4.11917 -0.199446 0
M  V30 229 H 20.1944 0.605645 -0.272196 0
M  V30 230 H 22.7244 1.52137 -1.36804 0
M  V30 231 H 22.7344 3.9456 -1.03856 0
M  V30 232 H 21.4094 3.5728 -2.12894 0
M  V30 233 H 19.9864 3.71666 -0.303136 0
M  V30 234 N 22.1715 0.800033 1.35784 0
M  V30 235 C 23.1195 0.193851 2.31791 0
M  V30 236 C 24.1135 -0.652744 1.56319 0
M  V30 237 O 25.3195 -0.546641 1.71499 0
M  V30 238 H 21.6945 0.04392 0.750716 0
M  V30 239 H 23.6655 1.01883 2.80468 0
M  V30 240 C 22.4145 -0.648338 3.41602 0
M  V30 241 H 21.7375 -0.00624665 3.998 0
M  V30 242 H 23.1775 -1.03898 4.11073 0
M  V30 243 C 21.6365 -1.8111 2.84079 0
M  V30 244 O 22.1665 -2.90825 2.77099 0
M  V30 245 N 20.3725 -1.62056 2.41218 0
M  V30 246 H 19.9195 -0.728123 2.47095 0
M  V30 247 H 19.8775 -2.40013 2.03079 0
M  V30 248 N 23.6496 -1.47581 0.552962 0
M  V30 249 C 24.8796 -2.06575 0.0320091 0
M  V30 250 C 25.2876 -1.4067 -1.26525 0
M  V30 251 O 24.6306 -0.495808 -1.76883 0
M  V30 252 C 24.6926 -3.58705 -0.238913 0
M  V30 253 C 24.3566 -4.46625 0.968272 0
M  V30 254 C 25.3536 -4.85 1.87274 0
M  V30 255 C 23.0386 -4.88201 1.18175 0
M  V30 256 C 25.0326 -5.63745 2.9744 0
M  V30 257 C 22.7196 -5.66712 2.28651 0
M  V30 258 C 23.7176 -6.04394 3.18114 0
M  V30 259 O 23.4056 -6.81324 4.26676 0
M  V30 260 H 23.1376 -0.674763 0.0408689 0
M  V30 261 H 25.6916 -1.90634 0.764719 0
M  V30 262 H 23.9216 -3.72844 -1.02588 0
M  V30 263 H 25.6106 -3.99735 -0.704731 0
M  V30 264 H 26.3766 -4.53482 1.71984 0
M  V30 265 H 22.2556 -4.58339 0.494593 0
M  V30 266 H 25.7996 -5.93077 3.67296 0
M  V30 267 H 21.6966 -5.97642 2.43915 0
M  V30 268 H 22.4646 -6.99712 4.24671 0
M  V30 269 N 25.1277 -0.289203 -1.54924 0
M  V30 270 C 26.0747 0.592115 -2.23075 0
M  V30 271 C 27.0447 1.13881 -1.20915 0
M  V30 272 O 28.2297 1.18551 -1.495 0
M  V30 273 C 25.3697 1.76376 -2.96623 0
M  V30 274 C 24.4827 1.24959 -4.13533 0
M  V30 275 C 23.6177 2.38416 -4.74691 0
M  V30 276 C 22.6567 1.84072 -5.83767 0
M  V30 277 N 21.7937 2.91057 -6.38929 0
M  V30 278 H 26.6337 0.00432038 -2.98 0
M  V30 279 H 24.1707 -0.00963529 -1.47097 0
M  V30 280 H 26.1287 2.45268 -3.3749 0
M  V30 281 H 24.7587 2.32337 -2.24097 0
M  V30 282 H 23.8107 0.453307 -3.77689 0
M  V30 283 H 25.1227 0.811662 -4.92152 0
M  V30 284 H 24.2767 3.15276 -5.18349 0
M  V30 285 H 23.0157 2.8553 -3.95378 0
M  V30 286 H 22.0207 1.05697 -5.39545 0
M  V30 287 H 23.2457 1.37877 -6.64956 0
M  V30 288 H 21.1917 3.37526 -5.62505 0
M  V30 289 H 21.1087 2.51724 -7.12861 0
M  V30 290 H 22.3767 3.6785 -6.87246 0
M  V30 291 N 26.6058 1.57591 -0.0167156 0
M  V30 292 C 27.5538 2.10604 0.987353 0
M  V30 293 C 28.5478 1.02977 1.34507 0
M  V30 294 O 29.7538 1.21425 1.32875 0
M  V30 295 H 26.1288 0.672695 0.336134 0
M  V30 296 H 28.0998 2.93925 0.514817 0
M  V30 297 C 26.8488 2.6382 2.26483 0
M  V30 298 H 26.1718 3.46278 1.99829 0
M  V30 299 H 27.6118 3.04573 2.94977 0
M  V30 300 C 26.0708 1.55992 2.9861 0
M  V30 301 O 26.6008 0.952521 3.90243 0
M  V30 302 N 24.8068 1.28335 2.60727 0
M  V30 303 H 24.3538 1.77914 1.86291 0
M  V30 304 H 24.3118 0.564115 3.09298 0
M  V30 305 N 28.0839 -0.256276 1.55502 0
M  V30 306 C 29.3309 -0.985619 1.76895 0
M  V30 307 C 29.6589 -1.85671 0.579355 0
M  V30 308 O 28.9139 -1.90744 -0.437651 0
M  V30 309 C 29.2129 -1.88432 3.03691 0
M  V30 310 C 28.8789 -1.16936 4.35473 0
M  V30 311 C 27.5409 -0.97173 4.71286 0
M  V30 312 C 29.8929 -0.661889 5.1698 0
M  V30 313 C 27.2209 -0.254179 5.86149 0
M  V30 314 C 29.5729 0.042149 6.32586 0
M  V30 315 C 28.2369 0.25134 6.67027 0
M  V30 316 H 27.5069 -0.360663 0.647304 0
M  V30 317 H 30.1539 -0.256483 1.89775 0
M  V30 318 H 28.4589 -2.68021 2.85783 0
M  V30 319 H 30.1559 -2.45015 3.1744 0
M  V30 320 H 26.7459 -1.33332 4.07333 0
M  V30 321 H 30.9299 -0.802145 4.89775 0
M  V30 322 H 26.1859 -0.0815408 6.11346 0
M  V30 323 H 30.3599 0.443049 6.94989 0
M  V30 324 H 27.9869 0.809314 7.5588 0
M  V30 325 N 29.562 -1.4872 -0.521534 0
M  V30 326 C 30.51 -1.64328 -1.64618 0
M  V30 327 C 31.504 -0.50953 -1.61555 0
M  V30 328 O 32.71 -0.688525 -1.66311 0
M  V30 329 H 29.085 -0.517805 -0.545328 0
M  V30 330 H 31.056 -2.58767 -1.48601 0
M  V30 331 C 29.805 -1.70805 -3.02855 0
M  V30 332 H 29.128 -2.5741 -3.05909 0
M  V30 333 H 30.568 -1.85766 -3.81139 0
M  V30 334 C 29.027 -0.448479 -3.33902 0
M  V30 335 O 29.557 0.434928 -3.99339 0
M  V30 336 N 27.763 -0.317616 -2.88859 0
M  V30 337 H 27.31 -1.03748 -2.35784 0
M  V30 338 H 27.268 0.524113 -3.10001 0
M  V30 339 N 31.0401 0.771051 -1.3745 0
M  V30 340 C 32.2651 1.56529 -1.36065 0
M  V30 341 C 32.6901 1.88029 0.0515859 0
M  V30 342 O 32.0481 1.49282 1.02882 0
M  V30 343 C 32.0961 2.85187 -2.20683 0
M  V30 344 O 31.2001 3.79593 -1.61193 0
M  V30 345 H 30.5411 0.47411 -0.464883 0
M  V30 346 H 33.0711 0.954269 -1.80983 0
M  V30 347 H 33.0811 3.34283 -2.33921 0
M  V30 348 H 31.7561 2.61588 -3.23334 0
M  V30 349 H 30.3331 3.38239 -1.56999 0
M  V30 350 N 32.5182 1.22032 0.997298 0
M  V30 351 C 33.4652 0.986467 2.08656 0
M  V30 352 C 34.4352 -0.0902671 1.65855 0
M  V30 353 O 35.6202 0.0584294 1.90711 0
M  V30 354 C 32.7602 0.565569 3.40434 0
M  V30 355 C 31.8732 1.71259 3.96604 0
M  V30 356 C 31.0082 1.24011 5.16522 0
M  V30 357 C 30.0472 2.35896 5.64818 0
M  V30 358 N 29.1842 1.89726 6.7598 0
M  V30 359 H 34.0242 1.91892 2.27994 0
M  V30 360 H 31.5612 0.956199 1.11782 0
M  V30 361 H 33.5192 0.302738 4.161 0
M  V30 362 H 32.1492 -0.329879 3.2111 0
M  V30 363 H 31.2012 2.08986 3.17851 0
M  V30 364 H 32.5132 2.55436 4.28432 0
M  V30 365 H 31.6672 0.934395 5.99461 0
M  V30 366 H 30.4062 0.368487 4.86306 0
M  V30 367 H 29.4112 2.67261 4.8047 0
M  V30 368 H 30.6362 3.23567 5.97061 0
M  V30 369 H 28.5822 1.0492 6.47555 0
M  V30 370 H 28.4992 2.67471 7.07103 0
M  V30 371 H 29.7672 1.62211 7.62435 0
M  V30 372 N 33.9963 -1.19345 1.0293 0
M  V30 373 C 34.9443 -2.24621 0.604001 0
M  V30 374 C 35.9383 -1.65452 -0.363587 0
M  V30 375 O 37.1443 -1.78497 -0.23212 0
M  V30 376 H 33.5193 -0.730858 0.177061 0
M  V30 377 H 35.4903 -2.5781 1.50255 0
M  V30 378 C 34.2393 -3.47688 -0.0289127 0
M  V30 379 H 33.5623 -3.93505 0.706651 0
M  V30 380 H 35.0023 -4.23011 -0.289432 0
M  V30 381 C 33.4613 -3.11817 -1.2756 0
M  V30 382 O 33.9913 -3.2451 -2.36762 0
M  V30 383 N 32.1973 -2.66246 -1.16453 0
M  V30 384 H 31.7443 -2.56118 -0.275914 0
M  V30 385 H 31.7023 -2.42617 -1.99961 0
M  V30 386 N 35.4744 -0.807222 -1.35358 0
M  V30 387 C 36.6994 -0.399309 -2.0352 0
M  V30 388 C 37.1244 0.981986 -1.60433 0
M  V30 389 O 36.4824 1.63601 -0.781299 0
M  V30 390 C 36.5304 -0.491552 -3.57234 0
M  V30 391 O 35.6344 0.494754 -4.09421 0
M  V30 392 H 34.9754 -0.166682 -0.642739 0
M  V30 393 H 37.5054 -1.09328 -1.72941 0
M  V30 394 H 37.5154 -0.361588 -4.06395 0
M  V30 395 H 36.1904 -1.49907 -3.87944 0
M  V30 396 H 34.7674 0.324977 -3.71481 0
M  V30 397 N 36.9525 1.47285 -0.560781 0
M  V30 398 C 38.1775 2.07359 -0.0410566 0
M  V30 399 C 38.6025 1.41017 1.24483 0
M  V30 400 O 37.9605 0.486368 1.74654 0
M  V30 401 C 38.0085 3.6035 0.134123 0
M  V30 402 O 37.1125 3.94681 1.19587 0
M  V30 403 H 36.4535 0.661887 -0.0529291 0
M  V30 404 H 38.9835 1.89252 -0.777482 0
M  V30 405 H 38.9935 4.0652 0.347207 0
M  V30 406 H 37.6685 4.08034 -0.805047 0
M  V30 407 H 36.2455 3.60251 0.962987 0
M  V30 408 N 38.4306 0.297415 1.54768 0
M  V30 409 C 39.3776 -0.580276 2.23386 0
M  V30 410 C 40.3476 -1.13238 1.21517 0
M  V30 411 O 41.5326 -1.17757 1.50126 0
M  V30 412 C 38.6726 -1.74801 2.97555 0
M  V30 413 C 37.7856 -1.22764 4.1419 0
M  V30 414 C 36.9206 -2.35895 4.75949 0
M  V30 415 C 35.9596 -1.80974 5.84735 0
M  V30 416 N 35.0966 -2.87664 6.40464 0
M  V30 417 H 39.9366 0.0114833 2.97998 0
M  V30 418 H 37.4736 0.0174361 1.4709 0
M  V30 419 H 39.4316 -2.43475 3.38786 0
M  V30 420 H 38.0616 -2.31145 2.25326 0
M  V30 421 H 37.1136 -0.433271 3.77924 0
M  V30 422 H 38.4256 -0.785551 4.92575 0
M  V30 423 H 37.5796 -3.12523 5.20014 0
M  V30 424 H 36.3186 -2.83429 3.96887 0
M  V30 425 H 35.3236 -1.02834 5.40097 0
M  V30 426 H 36.5486 -1.34348 6.65678 0
M  V30 427 H 34.4946 -3.34538 5.64287 0
M  V30 428 H 34.4116 -2.4794 7.14186 0
M  V30 429 H 35.6796 -3.642 6.89187 0
M  V30 430 N 39.9087 -1.5758 0.0250728 0
M  V30 431 C 41.1387 -1.95646 -0.663783 0
M  V30 432 C 41.5467 -0.899935 -1.66427 0
M  V30 433 O 40.8897 0.127191 -1.83259 0
M  V30 434 C 40.9517 -3.29835 -1.43 0
M  V30 435 C 40.6157 -4.53197 -0.588305 0
M  V30 436 C 41.6127 -5.19726 0.13469 0
M  V30 437 C 39.2977 -4.99529 -0.526897 0
M  V30 438 C 41.2917 -6.30902 0.90781 0
M  V30 439 C 38.9787 -6.10589 0.24993 0
M  V30 440 C 39.9767 -6.76134 0.965994 0
M  V30 441 O 39.6647 -7.85062 1.7301 0
M  V30 442 H 39.3967 -0.649282 -0.188174 0
M  V30 443 H 41.9507 -2.05245 0.0799006 0
M  V30 444 H 40.1807 -3.16716 -2.21873 0
M  V30 445 H 41.8697 -3.52833 -2.00658 0
M  V30 446 H 42.6357 -4.84904 0.0965562 0
M  V30 447 H 38.5147 -4.48319 -1.07381 0
M  V30 448 H 42.0587 -6.81995 1.46724 0
M  V30 449 H 37.9557 -6.44849 0.289795 0
M  V30 450 H 38.7237 -8.01708 1.64944 0
M  V30 451 N 41.3868 0.248026 -1.55636 0
M  V30 452 C 42.6118 0.998028 -1.81808 0
M  V30 453 C 43.0368 1.78207 -0.601979 0
M  V30 454 O 42.3948 1.75653 0.448961 0
M  V30 455 C 42.4428 1.9125 -3.05705 0
M  V30 456 O 41.5468 3.00406 -2.82542 0
M  V30 457 H 40.8878 0.284045 -0.600179 0
M  V30 458 H 43.4178 0.269357 -2.02819 0
M  V30 459 H 43.4278 2.32737 -3.35108 0
M  V30 460 H 42.1028 1.33602 -3.93857 0
M  V30 461 H 40.6798 2.63056 -2.64303 0
M  V30 462 N 42.8649 1.48995 0.513639 0
M  V30 463 C 43.7949 1.67636 1.62544 0
M  V30 464 C 44.7759 0.525087 1.61793 0
M  V30 465 O 45.9609 0.759502 1.78732 0
M  V30 466 C 43.0909 1.73114 3.01079 0
M  V30 467 C 42.0449 2.87905 3.16693 0
M  V30 468 C 41.3709 2.78486 4.56453 0
M  V30 469 C 42.6709 4.29005 2.97913 0
M  V30 470 H 44.3649 2.60716 1.47198 0
M  V30 471 H 41.9109 1.25465 0.706714 0
M  V30 472 H 43.8639 1.84742 3.78746 0
M  V30 473 H 42.5879 0.766241 3.17484 0
M  V30 474 H 41.2469 2.75859 2.41448 0
M  V30 475 H 40.8949 1.7993 4.69717 0
M  V30 476 H 40.5949 3.55523 4.67843 0
M  V30 477 H 42.1189 2.92104 5.36197 0
M  V30 478 H 43.5329 4.41798 3.65359 0
M  V30 479 H 41.9299 5.07166 3.20785 0
M  V30 480 H 42.9999 4.44329 1.94165 0
M  V30 481 N 44.343 -0.763751 1.37857 0
M  V30 482 C 45.276 -1.88486 1.28639 0
M  V30 483 C 46.254 -1.61757 0.165363 0
M  V30 484 O 47.438 -1.85391 0.340948 0
M  V30 485 C 44.565 -3.23884 0.990811 0
M  V30 486 C 43.611 -3.69514 2.12983 0
M  V30 487 S 44.444 -3.82244 3.75033 0
M  V30 488 C 45.6 -5.20477 3.47641 0
M  V30 489 H 45.833 -1.96017 2.23527 0
M  V30 490 H 43.366 -0.925684 1.23574 0
M  V30 491 H 45.324 -4.02081 0.827101 0
M  V30 492 H 43.985 -3.14044 0.0592832 0
M  V30 493 H 43.178 -4.67696 1.87821 0
M  V30 494 H 42.78 -2.98441 2.25408 0
M  V30 495 H 45.072 -6.05905 3.03125 0
M  V30 496 H 46.015 -5.50655 4.4518 0
M  V30 497 H 46.423 -4.88793 2.82385 0
M  V30 498 N 45.8211 -1.22559 -0.990812 0
M  V30 499 C 46.7311 -1.01394 -2.11557 0
M  V30 500 C 47.7471 0.0383962 -1.73958 0
M  V30 501 O 48.9231 -0.154787 -2.00804 0
M  V30 502 C 45.9881 -0.596569 -3.41529 0
M  V30 503 C 45.0491 -1.72276 -3.93217 0
M  V30 504 C 44.2821 -1.32521 -5.16985 0
M  V30 505 O 44.5051 -0.204909 -5.70032 0
M  V30 506 O 43.4391 -2.14247 -5.62478 0
M  V30 507 H 47.2651 -1.95633 -2.32296 0
M  V30 508 H 44.8501 -1.01172 -1.0993 0
M  V30 509 H 46.7321 -0.374263 -4.19735 0
M  V30 510 H 45.4071 0.316939 -3.22145 0
M  V30 511 H 44.3141 -1.99961 -3.16174 0
M  V30 512 H 45.6471 -2.61421 -4.17037 0
M  V30 513 N 47.2992 1.18797 -1.03562 0
M  V30 514 C 48.5452 1.8893 -0.737113 0
M  V30 515 C 48.8782 1.79837 0.732956 0
M  V30 516 O 48.1532 1.19525 1.5344 0
M  V30 517 C 48.4362 3.39607 -1.19745 0
M  V30 518 C 48.2892 3.57537 -2.72924 0
M  V30 519 C 49.6082 4.33069 -0.783526 0
M  V30 520 H 46.7272 0.686057 -0.269249 0
M  V30 521 H 49.3692 1.39797 -1.28673 0
M  V30 522 H 47.5192 3.81583 -0.729855 0
M  V30 523 H 49.1912 3.24688 -3.27682 0
M  V30 524 H 47.4342 3.00363 -3.12993 0
M  V30 525 H 48.1052 4.63238 -3.00191 0
M  V30 526 H 50.5812 3.98846 -1.18581 0
M  V30 527 H 49.4572 5.3707 -1.13343 0
M  V30 528 H 49.7182 4.40986 0.313681 0
M  V30 529 N 48.7773 0.814389 1.34928 0
M  V30 530 C 50.0023 0.410097 2.03305 0
M  V30 531 C 50.4273 -0.973464 1.60951 0
M  V30 532 O 49.7853 -1.63185 0.789964 0
M  V30 533 C 49.8333 0.51049 3.56968 0
M  V30 534 O 48.9373 -0.473035 4.09678 0
M  V30 535 H 48.2783 0.170088 0.641846 0
M  V30 536 H 50.8083 1.10244 1.72358 0
M  V30 537 H 50.8183 0.383135 4.06197 0
M  V30 538 H 49.4933 1.51963 3.87144 0
M  V30 539 H 48.0703 -0.305272 3.71648 0
M  V30 540 N 50.2554 -1.46986 0.568584 0
M  V30 541 C 51.2024 -2.30153 -0.172707 0
M  V30 542 C 52.1724 -1.39759 -0.897586 0
M  V30 543 O 53.3574 -1.68716 -0.891044 0
M  V30 544 C 50.4974 -3.23952 -1.1895 0
M  V30 545 C 49.6104 -4.29441 -0.469517 0
M  V30 546 C 48.7454 -5.1038 -1.47259 0
M  V30 547 C 47.7844 -6.07632 -0.738225 0
M  V30 548 N 46.9214 -6.8149 -1.68868 0
M  V30 549 H 51.7614 -2.93019 0.542596 0
M  V30 550 H 49.2984 -1.44422 0.279401 0
M  V30 551 H 51.2564 -3.76767 -1.79173 0
M  V30 552 H 49.8864 -2.62926 -1.87269 0
M  V30 553 H 48.9384 -3.79594 0.247467 0
M  V30 554 H 50.2504 -4.98689 0.105241 0
M  V30 555 H 49.4044 -5.67402 -2.14803 0
M  V30 556 H 48.1434 -4.4106 -2.08128 0
M  V30 557 H 47.1484 -5.49778 -0.0489293 0
M  V30 558 H 48.3734 -6.78966 -0.135129 0
M  V30 559 H 46.3194 -6.14891 -2.28573 0
M  V30 560 H 46.2364 -7.46948 -1.16636 0
M  V30 561 H 47.5044 -7.43078 -2.3549 0
M  V30 562 N 51.7335 -0.305618 -1.54608 0
M  V30 563 C 52.6805 0.568421 -2.23691 0
M  V30 564 C 53.6505 1.12592 -1.22116 0
M  V30 565 O 54.8355 1.16959 -1.50749 0
M  V30 566 C 51.9755 1.7322 -2.98477 0
M  V30 567 C 51.0885 1.20566 -4.14835 0
M  V30 568 C 50.2235 2.33368 -4.77193 0
M  V30 569 C 49.2625 1.7787 -5.85686 0
M  V30 570 N 48.3995 2.84263 -6.4198 0
M  V30 571 H 53.2395 -0.0272867 -2.97988 0
M  V30 572 H 50.7765 -0.0252363 -1.47078 0
M  V30 573 H 52.7345 2.41675 -3.40072 0
M  V30 574 H 51.3645 2.29947 -2.26548 0
M  V30 575 H 50.4165 0.413223 -3.78149 0
M  V30 576 H 51.7285 0.759417 -4.92985 0
M  V30 577 H 50.8825 3.09761 -5.21664 0
M  V30 578 H 49.6215 2.8132 -3.98385 0
M  V30 579 H 48.6265 0.99968 -5.40635 0
M  V30 580 H 49.8515 1.30816 -6.66381 0
M  V30 581 H 47.7975 3.31541 -5.66053 0
M  V30 582 H 47.7145 2.44149 -7.15491 0
M  V30 583 H 48.9825 3.6054 -6.91109 0
M  V30 584 N 53.2116 1.57565 -0.0334293 0
M  V30 585 C 54.1596 2.1164 0.96496 0
M  V30 586 C 55.1536 1.04398 1.33407 0
M  V30 587 O 56.3596 1.22828 1.3158 0
M  V30 588 H 52.7346 0.676222 0.32898 0
M  V30 589 H 54.7056 2.94455 0.483614 0
M  V30 590 C 53.4546 2.66207 2.23672 0
M  V30 591 H 52.7776 3.48378 1.96145 0
M  V30 592 H 54.2176 3.07685 2.9173 0
M  V30 593 C 52.6766 1.59151 2.96939 0
M  V30 594 O 53.2066 0.993858 3.89211 0
M  V30 595 N 51.4126 1.31093 2.59351 0
M  V30 596 H 50.9596 1.7988 1.84393 0
M  V30 597 H 50.9176 0.596889 3.08682 0
M  V30 598 N 54.6897 -0.239769 1.55765 0
M  V30 599 C 55.5997 -1.31831 1.94056 0
M  V30 600 C 56.6157 -1.52275 0.841925 0
M  V30 601 O 57.7917 -1.65759 1.14394 0
M  V30 602 C 54.8567 -2.65156 2.23368 0
M  V30 603 C 53.9177 -2.53173 3.46701 0
M  V30 604 C 53.1507 -3.8014 3.74606 0
M  V30 605 O 53.3737 -4.82343 3.04469 0
M  V30 606 O 52.3077 -3.78344 4.68123 0
M  V30 607 H 56.1337 -1.02347 2.85935 0
M  V30 608 H 53.7187 -0.441123 1.42739 0
M  V30 609 H 55.6007 -3.43929 2.43497 0
M  V30 610 H 54.2757 -2.94358 1.34666 0
M  V30 611 H 53.1827 -1.72662 3.31871 0
M  V30 612 H 54.5157 -2.28915 4.35728 0
M  V30 613 N 56.1678 -1.49265 -0.50573 0
M  V30 614 C 57.1148 -1.65585 -1.6078 0
M  V30 615 C 58.0848 -0.497396 -1.58478 0
M  V30 616 O 59.2698 -0.72385 -1.76536 0
M  V30 617 C 56.4098 -1.72408 -2.98948 0
M  V30 618 C 55.5228 -2.99525 -3.11301 0
M  V30 619 C 54.6578 -2.97356 -4.40174 0
M  V30 620 C 53.6968 -4.19074 -4.46143 0
M  V30 621 N 52.8338 -4.14841 -5.66437 0
M  V30 622 H 57.6738 -2.59688 -1.46172 0
M  V30 623 H 55.2108 -1.28761 -0.711261 0
M  V30 624 H 57.1688 -1.74344 -3.79025 0
M  V30 625 H 55.7988 -0.817753 -3.1227 0
M  V30 626 H 54.8508 -3.07222 -2.24318 0
M  V30 627 H 56.1628 -3.89518 -3.11572 0
M  V30 628 H 55.3168 -2.97829 -5.28567 0
M  V30 629 H 54.0558 -2.05133 -4.42461 0
M  V30 630 H 53.0608 -4.1885 -3.56153 0
M  V30 631 H 54.2858 -5.12483 -4.45575 0
M  V30 632 H 52.2318 -3.25453 -5.69575 0
M  V30 633 H 52.1488 -4.98564 -5.68304 0
M  V30 634 H 53.4168 -4.1941 -6.57051 0
M  V30 635 N 57.6459 0.756429 -1.3826 0
M  V30 636 C 58.5929 1.87011 -1.35261 0
M  V30 637 C 59.5629 1.64695 -0.215616 0
M  V30 638 O 60.7479 1.864 -0.407399 0
M  V30 639 C 57.8879 3.24275 -1.18068 0
M  V30 640 C 57.0009 3.58442 -2.41129 0
M  V30 641 C 56.1359 4.84994 -2.16689 0
M  V30 642 C 55.1749 5.11939 -3.35537 0
M  V30 643 N 54.3119 6.29685 -3.10549 0
M  V30 644 H 59.1519 1.8891 -2.30472 0
M  V30 645 H 56.6889 0.923373 -1.14509 0
M  V30 646 H 58.6469 4.03479 -1.06116 0
M  V30 647 H 57.2769 3.21711 -0.264973 0
M  V30 648 H 56.3289 2.74103 -2.63764 0
M  V30 649 H 57.6409 3.74283 -3.29717 0
M  V30 650 H 56.7949 5.72135 -2.01857 0
M  V30 651 H 55.5339 4.71286 -1.25462 0
M  V30 652 H 54.5389 4.23268 -3.50891 0
M  V30 653 H 55.7639 5.27546 -4.27635 0
M  V30 654 H 53.7099 6.17306 -2.21967 0
M  V30 655 H 53.6269 6.46014 -3.92686 0
M  V30 656 H 54.8949 7.19722 -2.99367 0
M  V30 657 N 59.124 1.23083 0.984299 0
M  V30 658 C 60.072 1.00593 2.09723 0
M  V30 659 C 61.066 -0.0538014 1.69315 0
M  V30 660 O 62.272 0.0993719 1.79725 0
M  V30 661 H 58.647 0.30817 0.685956 0
M  V30 662 H 60.618 1.95012 2.2586 0
M  V30 663 C 59.367 0.609601 3.42314 0
M  V30 664 H 58.69 1.41675 3.73856 0
M  V30 665 H 60.13 0.491726 4.21139 0
M  V30 666 C 58.589 -0.681745 3.2993 0
M  V30 667 O 59.119 -1.73192 3.62446 0
M  V30 668 N 57.325 -0.656178 2.83095 0
M  V30 669 H 56.872 0.198759 2.56832 0
M  V30 670 H 56.83 -1.52044 2.75191 0
M  V30 671 N 60.6021 -1.18246 1.0419 0
M  V30 672 C 61.8271 -1.92736 0.765996 0
M  V30 673 C 62.2521 -1.75728 -0.67091 0
M  V30 674 O 61.6101 -1.06825 -1.46486 0
M  V30 675 C 61.6581 -3.42148 1.13875 0
M  V30 676 O 60.7621 -4.11548 0.264954 0
M  V30 677 H 60.1031 -0.601238 0.281797 0
M  V30 678 H 62.6331 -1.49942 1.39207 0
M  V30 679 H 62.6431 -3.92858 1.1012 0
M  V30 680 H 61.3181 -3.53848 2.18551 0
M  V30 681 H 59.8951 -3.71137 0.362226 0
M  V30 682 N 62.0802 -0.821533 -1.34494 0
M  V30 683 C 63.0102 -0.257138 -2.3208 0
M  V30 684 C 63.9912 0.625645 -1.58176 0
M  V30 685 O 65.1762 0.552811 -1.86166 0
M  V30 686 C 62.3062 0.582958 -3.42372 0
M  V30 687 C 61.2602 -0.202571 -4.2752 0
M  V30 688 C 60.5862 0.760179 -5.29269 0
M  V30 689 C 61.8862 -1.40998 -5.02908 0
M  V30 690 H 63.5802 -1.07247 -2.79532 0
M  V30 691 H 61.1262 -0.517163 -1.34393 0
M  V30 692 H 63.0792 0.987972 -4.09655 0
M  V30 693 H 61.8032 1.43133 -2.93565 0
M  V30 694 H 60.4622 -0.588936 -3.61838 0
M  V30 695 H 60.1102 1.60447 -4.76724 0
M  V30 696 H 59.8102 0.238809 -5.87115 0
M  V30 697 H 61.3342 1.16308 -5.9942 0
M  V30 698 H 62.7482 -1.07905 -5.63054 0
M  V30 699 H 61.1452 -1.86689 -5.70322 0
M  V30 700 H 62.2152 -2.1889 -4.32684 0
M  V30 701 N 63.5583 1.46682 -0.576371 0
M  V30 702 C 64.8063 2.02013 -0.0594163 0
M  V30 703 C 65.1273 1.45101 1.30271 0
M  V30 704 O 64.3973 0.633317 1.8538 0
M  V30 705 H 62.9773 0.746759 -0.0189745 0
M  V30 706 H 65.6393 1.79862 -0.750717 0
M  V30 707 H 64.7353 3.12097 0.014345 0
M  V30 708 N 65.0364 0.313813 1.54444 0
M  V30 709 C 65.9994 -0.54379 2.22656 0
M  V30 710 C 66.9994 -1.05124 1.21678 0
M  V30 711 O 68.1894 -0.945225 1.46325 0
M  V30 712 C 65.3214 -1.75427 2.92298 0
M  V30 713 H 66.5144 0.0523599 2.99854 0
M  V30 714 H 64.0674 0.0647834 1.56166 0
M  V30 715 H 64.8024 -2.38991 2.19211 0
M  V30 716 H 64.5874 -1.39791 3.66334 0
M  V30 717 H 66.0774 -2.36325 3.44297 0
M  V30 718 N 66.5145 -1.57545 0.0417849 0
M  V30 719 C 67.7615 -1.92317 -0.634082 0
M  V30 720 C 68.0895 -0.919334 -1.71402 0
M  V30 721 O 67.3445 0.0698253 -1.95575 0
M  V30 722 C 67.6435 -3.33794 -1.27735 0
M  V30 723 C 67.3095 -4.49716 -0.326543 0
M  V30 724 C 65.9715 -4.81156 -0.0648814 0
M  V30 725 C 68.3235 -5.20182 0.325623 0
M  V30 726 C 65.6515 -5.80414 0.856539 0
M  V30 727 C 68.0035 -6.20424 1.23518 0
M  V30 728 C 66.6675 -6.50298 1.5056 0
M  V30 729 H 65.9375 -0.703736 -0.232027 0
M  V30 730 H 68.5845 -1.91205 0.106259 0
M  V30 731 H 66.8895 -3.31228 -2.09274 0
M  V30 732 H 68.5865 -3.57975 -1.80707 0
M  V30 733 H 65.1765 -4.25176 -0.540665 0
M  V30 734 H 69.3605 -4.96112 0.136546 0
M  V30 735 H 64.6165 -6.019 1.07363 0
M  V30 736 H 68.7905 -6.74141 1.74664 0
M  V30 737 H 66.4175 -7.27025 2.22123 0
M  V30 738 N 67.9926 0.231505 -1.5589 0
M  V30 739 C 68.9426 1.29007 -1.87993 0
M  V30 740 C 69.9266 1.42764 -0.742102 0
M  V30 741 O 71.1186 1.45747 -1.00433 0
M  V30 742 C 68.2476 2.6425 -2.1915 0
M  V30 743 C 67.3336 2.54435 -3.39299 0
M  V30 744 N 67.7246 2.14262 -4.58176 0
M  V30 745 C 66.0226 2.85416 -3.42715 0
M  V30 746 C 66.7236 2.15455 -5.40328 0
M  V30 747 N 65.6996 2.55558 -4.79783 0
M  V30 748 H 69.5016 0.970213 -2.77424 0
M  V30 749 H 67.0156 0.440097 -1.56323 0
M  V30 750 H 69.0126 3.40665 -2.40319 0
M  V30 751 H 67.6726 2.9709 -1.31025 0
M  V30 752 H 68.6836 1.85554 -4.83518 0
M  V30 753 H 65.3606 3.22693 -2.64906 0
M  V30 754 H 66.7506 1.86605 -6.45467 0
M  V30 755 N 69.4707 1.49531 0.497807 0
M  V30 756 C 70.6957 1.63159 1.28039 0
M  V30 757 C 71.1207 0.30418 1.85624 0
M  V30 758 O 70.4787 -0.728618 1.66015 0
M  V30 759 C 70.5267 2.70537 2.38416 0
M  V30 760 O 69.6307 2.29931 3.42353 0
M  V30 761 H 68.9717 0.546001 0.377861 0
M  V30 762 H 71.5017 1.9574 0.59558 0
M  V30 763 H 71.5117 2.92802 2.84132 0
M  V30 764 H 70.1867 3.6689 1.95869 0
M  V30 765 H 68.7637 2.18009 3.02533 0
M  V30 766 N 70.9488 -0.749086 1.3866 0
M  V30 767 C 71.8958 -1.86291 1.36251 0
M  V30 768 C 72.8658 -1.64578 0.224347 0
M  V30 769 O 74.0508 -1.86181 0.417279 0
M  V30 770 C 71.1908 -3.23644 1.19786 0
M  V30 771 C 70.3038 -3.57158 2.43027 0
M  V30 772 C 69.4388 -4.83838 2.19258 0
M  V30 773 C 68.4778 -5.10152 3.38247 0
M  V30 774 N 67.6148 -6.28029 3.13884 0
M  V30 775 H 72.4548 -1.87685 2.3147 0
M  V30 776 H 69.9918 -0.917287 1.14997 0
M  V30 777 H 71.9498 -4.0291 1.08254 0
M  V30 778 H 70.5798 -3.21566 0.282031 0
M  V30 779 H 69.6318 -2.72701 2.65214 0
M  V30 780 H 70.9438 -3.7253 3.31697 0
M  V30 781 H 70.0978 -5.71057 2.04888 0
M  V30 782 H 68.8368 -4.70614 1.2796 0
M  V30 783 H 67.8418 -4.21401 3.53131 0
M  V30 784 H 69.0668 -5.25271 4.30427 0
M  V30 785 H 67.0128 -6.1612 2.25238 0
M  V30 786 H 66.9298 -6.43922 3.96106 0
M  V30 787 H 68.1978 -7.18124 3.03179 0
M  V30 788 N 72.4269 -1.23603 -0.977757 0
M  V30 789 C 73.3739 -1.01954 -2.07061 0
M  V30 790 C 74.3439 0.0638697 -1.65977 0
M  V30 791 O 75.5289 -0.0887624 -1.90593 0
M  V30 792 C 72.6689 -0.619658 -3.39491 0
M  V30 793 C 71.7819 -1.77547 -3.93829 0
M  V30 794 C 70.9169 -1.32212 -5.14484 0
M  V30 795 C 69.9559 -2.44852 -5.60994 0
M  V30 796 N 69.0929 -2.00456 -6.72876 0
M  V30 797 H 73.9329 -1.95495 -2.24913 0
M  V30 798 H 71.4699 -0.973861 -1.10247 0
M  V30 799 H 73.4279 -0.368898 -4.15566 0
M  V30 800 H 72.0579 0.278752 -3.21594 0
M  V30 801 H 71.1099 -2.14016 -3.14486 0
M  V30 802 H 72.4219 -2.62219 -4.24314 0
M  V30 803 H 71.5759 -1.02965 -5.97899 0
M  V30 804 H 70.3149 -0.445808 -4.85658 0
M  V30 805 H 69.3199 -2.74871 -4.76157 0
M  V30 806 H 70.5449 -3.33024 -5.91837 0
M  V30 807 H 68.4909 -1.15208 -6.45804 0
M  V30 808 H 68.4079 -2.78687 -7.02759 0
M  V30 809 H 69.6759 -1.7432 -7.59758 0
M  V30 810 N 73.905 1.17692 -1.04816 0
M  V30 811 C 75.154 1.87192 -0.751132 0
M  V30 812 C 75.467 1.8169 0.724441 0
M  V30 813 O 76.673 2.46625 1.13527 0
M  V30 814 C 75.129 3.35857 -1.29338 0
M  V30 815 C 74.737 3.4987 -2.79812 0
M  V30 816 C 76.481 4.10709 -1.07322 0
M  V30 817 C 74.388 4.92536 -3.27356 0
M  V30 818 H 73.318 0.701162 -0.277288 0
M  V30 819 H 75.969 1.32932 -1.26496 0
M  V30 820 H 74.351 3.89631 -0.707376 0
M  V30 821 H 75.525 3.06332 -3.44235 0
M  V30 822 H 73.84 2.88433 -3.00325 0
M  V30 823 H 76.437 5.15952 -1.4035 0
M  V30 824 H 76.78 4.16299 -0.0108001 0
M  V30 825 H 77.313 3.6313 -1.62423 0
M  V30 826 H 74.052 4.92119 -4.33012 0
M  V30 827 H 73.572 5.3676 -2.67673 0
M  V30 828 H 75.251 5.61288 -3.21815 0
M  V30 829 N 75.3831 0.828654 1.34056 0
M  V30 830 C 76.3131 0.269443 2.3194 0
M  V30 831 C 77.2941 -0.617247 1.58506 0
M  V30 832 O 78.4791 -0.542931 1.86456 0
M  V30 833 C 75.6091 -0.564793 3.42677 0
M  V30 834 C 74.5631 0.225241 4.27407 0
M  V30 835 C 73.8891 -0.7321 5.29664 0
M  V30 836 C 75.1891 1.43663 5.02154 0
M  V30 837 H 76.8831 1.08728 2.7896 0
M  V30 838 H 74.4291 0.524283 1.34117 0
M  V30 839 H 76.3821 -0.966233 4.10173 0
M  V30 840 H 75.1061 -1.41574 2.9432 0
M  V30 841 H 73.7651 0.608117 3.61521 0
M  V30 842 H 73.4131 -1.57916 4.77568 0
M  V30 843 H 73.1131 -0.20767 5.87233 0
M  V30 844 H 74.6371 -1.13128 6.00029 0
M  V30 845 H 76.0511 1.1089 5.62473 0
M  V30 846 H 74.4481 1.89711 5.69324 0
M  V30 847 H 75.5181 2.21181 4.31517 0
M  V30 848 N 76.8612 -1.46375 0.584142 0
M  V30 849 C 77.7912 -2.33103 -0.136037 0
M  V30 850 C 78.7722 -1.45431 -0.882255 0
M  V30 851 O 79.9572 -1.74246 -0.857434 0
M  V30 852 C 77.0872 -3.27731 -1.14933 0
M  V30 853 C 76.0412 -4.24855 -0.517862 0
M  V30 854 C 75.3672 -5.09001 -1.63773 0
M  V30 855 C 76.6672 -5.19439 0.545886 0
M  V30 856 H 78.3612 -2.93568 0.588086 0
M  V30 857 H 75.9072 -1.41166 0.284259 0
M  V30 858 H 77.8602 -3.87261 -1.66153 0
M  V30 859 H 76.5842 -2.65377 -1.90375 0
M  V30 860 H 75.2432 -3.6659 -0.0267361 0
M  V30 861 H 74.8912 -4.43031 -2.38185 0
M  V30 862 H 74.5912 -5.74777 -1.22085 0
M  V30 863 H 76.1152 -5.71396 -2.15266 0
M  V30 864 H 77.5292 -5.73177 0.118704 0
M  V30 865 H 75.9262 -5.93566 0.88317 0
M  V30 866 H 76.9962 -4.63285 1.43162 0
M  V30 867 N 78.3393 -0.321999 -1.54275 0
M  V30 868 C 79.5883 0.281931 -1.9972 0
M  V30 869 C 79.9013 1.53369 -1.21397 0
M  V30 870 O 81.1073 2.21352 -1.57211 0
M  V30 871 C 79.5633 0.5529 -3.55628 0
M  V30 872 C 79.1713 -0.681721 -4.42783 0
M  V30 873 C 80.9153 1.11687 -4.09544 0
M  V30 874 C 78.8223 -0.382742 -5.9016 0
M  V30 875 H 77.7523 0.109124 -0.746062 0
M  V30 876 H 80.4033 -0.43398 -1.78294 0
M  V30 877 H 78.7853 1.32896 -3.73035 0
M  V30 878 H 79.9593 -1.45723 -4.37151 0
M  V30 879 H 78.2743 -1.1658 -3.99748 0
M  V30 880 H 80.8713 1.35515 -5.17242 0
M  V30 881 H 81.2143 2.06575 -3.61431 0
M  V30 882 H 81.7473 0.402032 -3.95763 0
M  V30 883 H 78.4863 -1.30076 -6.42464 0
M  V30 884 H 78.0063 0.355094 -5.98748 0
M  V30 885 H 79.6853 0.00800157 -6.47 0
M  V30 886 N 79.8174 1.5752 -0.0501392 0
M  V30 887 C 81.0644 1.9265 0.623874 0
M  V30 888 C 81.3924 0.928411 1.70912 0
M  V30 889 O 80.6474 -0.0594525 1.9561 0
M  V30 890 C 80.9464 3.34467 1.25963 0
M  V30 891 C 80.6124 4.49883 0.302689 0
M  V30 892 C 79.2744 4.81184 0.0393636 0
M  V30 893 C 81.6264 5.20002 -0.353205 0
M  V30 894 C 78.9544 5.79951 -0.887308 0
M  V30 895 C 81.3064 6.1976 -1.26806 0
M  V30 896 C 79.9704 6.49491 -1.54007 0
M  V30 897 H 79.2404 0.704957 0.228292 0
M  V30 898 H 81.8874 1.91146 -0.116398 0
M  V30 899 H 80.1924 3.32333 2.07514 0
M  V30 900 H 81.8894 3.58928 1.78806 0
M  V30 901 H 78.4794 4.25457 0.518109 0
M  V30 902 H 82.6634 4.96033 -0.162854 0
M  V30 903 H 77.9194 6.01322 -1.10553 0
M  V30 904 H 82.0934 6.73205 -1.78236 0
M  V30 905 H 79.7204 7.25837 -2.25976 0
M  V30 906 N 81.2955 -0.223234 1.56011 0
M  V30 907 C 82.5435 -0.946003 1.78592 0
M  V30 908 C 82.8645 -1.84936 0.618349 0
M  V30 909 O 82.1345 -1.92473 -0.364833 0
M  V30 910 H 80.7145 -0.352298 0.658707 0
M  V30 911 H 83.3765 -0.235494 1.93472 0
M  V30 912 H 82.4725 -1.55381 2.70672 0
M  V30 913 N 82.7736 -1.49793 -0.48987 0
M  V30 914 C 84.0226 -1.59085 -1.23995 0
M  V30 915 C 84.3356 -0.287907 -1.9347 0
M  V30 916 O 85.5416 -0.259506 -2.70257 0
M  V30 917 C 83.9976 -2.80736 -2.252 0
M  V30 918 C 83.6056 -4.17833 -1.61614 0
M  V30 919 C 85.3496 -2.99364 -3.00967 0
M  V30 920 C 83.2566 -5.30693 -2.60996 0
M  V30 921 H 82.1866 -0.592372 -0.466488 0
M  V30 922 H 84.8376 -1.76197 -0.51252 0
M  V30 923 H 83.2196 -2.57142 -3.01154 0
M  V30 924 H 84.3936 -4.51608 -0.915774 0
M  V30 925 H 82.7086 -4.04656 -0.981977 0
M  V30 926 H 85.3056 -3.80851 -3.75308 0
M  V30 927 H 85.6486 -2.10356 -3.59244 0
M  V30 928 H 86.1816 -3.2305 -2.32128 0
M  V30 929 H 82.9206 -6.21796 -2.07485 0
M  V30 930 H 82.4406 -5.01359 -3.2924 0
M  V30 931 H 84.1196 -5.6049 -3.23202 0
M  V30 932 N 84.2517 0.741722 -1.39055 0
M  V30 933 C 85.5007 1.49656 -1.35225 0
M  V30 934 C 85.8137 1.95533 0.0512708 0
M  V30 935 O 87.0197 2.7067 0.212138 0
M  V30 936 C 85.4757 2.70389 -2.37525 0
M  V30 937 C 85.0837 2.31489 -3.83558 0
M  V30 938 C 86.8277 3.48236 -2.42759 0
M  V30 939 C 84.7347 3.48903 -4.77515 0
M  V30 940 H 83.6647 0.56197 -0.502699 0
M  V30 941 H 86.3157 0.809727 -1.64668 0
M  V30 942 H 84.6977 3.41113 -2.01142 0
M  V30 943 H 85.8717 1.68354 -4.28945 0
M  V30 944 H 84.1867 1.66749 -3.81554 0
M  V30 945 H 86.7837 4.35558 -3.1015 0
M  V30 946 H 87.1267 3.90229 -1.45008 0
M  V30 947 H 87.6597 2.84535 -2.78002 0
M  V30 948 H 84.3987 3.11966 -5.76504 0
M  V30 949 H 83.9187 4.11041 -4.36813 0
M  V30 950 H 85.5977 4.15328 -4.96096 0
M  V30 951 N 85.7298 1.2412 0.971189 0
M  V30 952 C 86.9598 1.10415 1.7462 0
M  V30 953 C 87.3678 -0.346462 1.86001 0
M  V30 954 O 86.7108 -1.25104 1.34517 0
M  V30 955 C 86.7728 1.66596 3.18568 0
M  V30 956 C 86.4368 3.15446 3.3067 0
M  V30 957 C 87.4338 4.12636 3.16271 0
M  V30 958 C 85.1188 3.55337 3.55022 0
M  V30 959 C 87.1128 5.47699 3.26044 0
M  V30 960 C 84.7998 4.90542 3.64434 0
M  V30 961 C 85.7978 5.86532 3.49956 0
M  V30 962 O 85.4858 7.19279 3.59017 0
M  V30 963 H 85.2178 0.386616 0.55453 0
M  V30 964 H 87.7718 1.64633 1.22821 0
M  V30 965 H 86.0018 1.06808 3.71657 0
M  V30 966 H 87.6908 1.48232 3.77865 0
M  V30 967 H 88.4568 3.8316 2.97344 0
M  V30 968 H 84.3358 2.8113 3.65359 0
M  V30 969 H 87.8798 6.22603 3.14661 0
M  V30 970 H 83.7768 5.19691 3.82873 0
M  V30 971 H 84.5448 7.27153 3.75754 0
M  V30 972 N 87.2079 -1.17134 1.05439 0
M  V30 973 C 88.4539 -1.87733 0.767077 0
M  V30 974 C 88.7869 -1.8098 -0.704253 0
M  V30 975 O 88.0619 -1.21951 -1.5152 0
M  V30 976 C 88.3449 -3.37659 1.25133 0
M  V30 977 C 88.1979 -3.53149 2.78578 0
M  V30 978 C 89.5169 -4.31768 0.852324 0
M  V30 979 H 86.6359 -0.681687 0.280129 0
M  V30 980 H 89.2779 -1.37732 1.30881 0
M  V30 981 H 87.4279 -3.80373 0.790469 0
M  V30 982 H 89.0999 -3.19434 3.32806 0
M  V30 983 H 87.3429 -2.95345 3.17732 0
M  V30 984 H 88.0139 -4.58403 3.07523 0
M  V30 985 H 90.4899 -3.96909 1.24911 0
M  V30 986 H 89.3659 -5.35199 1.21873 0
M  V30 987 H 89.6269 -4.41429 -0.243485 0
M  V30 988 N 88.686 -0.835752 -1.33615 0
M  V30 989 C 89.932 -0.430596 -1.98176 0
M  V30 990 C 90.265 1.00684 -1.66061 0
M  V30 991 O 89.54 1.70339 -0.938877 0
M  V30 992 C 89.823 -0.648065 -3.5422 0
M  V30 993 C 89.676 -2.13255 -3.96033 0
M  V30 994 C 90.995 -0.0922113 -4.40003 0
M  V30 995 H 88.114 -0.157924 -0.719881 0
M  V30 996 H 90.756 -1.05069 -1.58305 0
M  V30 997 H 88.906 -0.120237 -3.88314 0
M  V30 998 H 90.578 -2.725 -3.72211 0
M  V30 999 H 88.821 -2.61823 -3.45878 0
M  V30 1000 H 89.492 -2.23547 -5.04708 0
M  V30 1001 H 91.968 -0.543343 -4.12537 0
M  V30 1002 H 90.844 -0.274083 -5.48215 0
M  V30 1003 H 91.105 1.00378 -4.30554 0
M  V30 1004 N 90.1641 1.46063 -0.591896 0
M  V30 1005 C 91.0941 2.33172 0.123673 0
M  V30 1006 C 92.0751 1.45897 0.87453 0
M  V30 1007 O 93.2601 1.74698 0.848181 0
M  V30 1008 C 90.3901 3.28336 1.13194 0
M  V30 1009 C 89.3441 4.25124 0.495324 0
M  V30 1010 C 88.6701 5.09863 1.61071 0
M  V30 1011 C 89.9701 5.19143 -0.573425 0
M  V30 1012 H 91.6641 2.93252 -0.603646 0
M  V30 1013 H 89.2101 1.41014 -0.291741 0
M  V30 1014 H 91.1631 3.88137 1.64097 0
M  V30 1015 H 89.8871 2.66383 1.88965 0
M  V30 1016 H 88.5461 3.66599 0.00729452 0
M  V30 1017 H 88.1941 4.44288 2.35832 0
M  V30 1018 H 87.8941 5.75417 1.19035 0
M  V30 1019 H 89.4181 5.72529 2.12233 0
M  V30 1020 H 90.8321 5.73106 -0.1491 0
M  V30 1021 H 89.2291 5.93089 -0.914636 0
M  V30 1022 H 90.2991 4.62519 -1.45617 0
M  V30 1023 N 91.6422 0.330177 1.54103 0
M  V30 1024 C 92.5722 -0.525353 2.27513 0
M  V30 1025 C 93.5532 -1.11383 1.2856 0
M  V30 1026 O 94.7382 -1.13773 1.57383 0
M  V30 1027 C 91.8682 -1.6831 3.03791 0
M  V30 1028 C 90.8222 -1.2236 4.10137 0
M  V30 1029 C 90.1482 -2.46882 4.74293 0
M  V30 1030 C 91.4482 -0.333697 5.21233 0
M  V30 1031 H 93.1422 0.087013 2.99274 0
M  V30 1032 H 90.6882 0.0432893 1.43935 0
M  V30 1033 H 92.6412 -2.28795 3.5388 0
M  V30 1034 H 91.3652 -2.32216 2.29659 0
M  V30 1035 H 90.0242 -0.64165 3.60941 0
M  V30 1036 H 89.6722 -3.09165 3.96769 0
M  V30 1037 H 89.3722 -2.16825 5.46133 0
M  V30 1038 H 90.8962 -3.08117 5.27159 0
M  V30 1039 H 92.3102 -0.845013 5.67038 0
M  V30 1040 H 90.7072 -0.125612 5.99969 0
M  V30 1041 H 91.7772 0.633724 4.80741 0
M  V30 1042 N 93.1203 -1.57491 0.0584922 0
M  V30 1043 C 94.0683 -2.13148 -0.931168 0
M  V30 1044 C 95.0623 -1.06507 -1.31729 0
M  V30 1045 O 96.2683 -1.24906 -1.29609 0
M  V30 1046 H 92.6433 -0.68137 -0.31818 0
M  V30 1047 H 94.6143 -2.95187 -0.436707 0
M  V30 1048 C 93.3633 -2.69732 -2.19408 0
M  V30 1049 H 92.6863 -3.51454 -1.90578 0
M  V30 1050 H 94.1263 -3.12287 -2.86798 0
M  V30 1051 C 92.5853 -1.63855 -2.94369 0
M  V30 1052 O 93.1153 -1.05565 -3.87581 0
M  V30 1053 N 91.3213 -1.35202 -2.57233 0
M  V30 1054 H 90.8683 -1.82791 -1.81508 0
M  V30 1055 H 90.8263 -0.645922 -3.07693 0
M  V30 1056 N 94.5984 0.214957 -1.56127 0
M  V30 1057 C 95.5614 1.24997 -1.92116 0
M  V30 1058 C 96.5614 1.39467 -0.800344 0
M  V30 1059 O 97.7514 1.37619 -1.06802 0
M  V30 1060 C 94.8834 2.62271 -2.17777 0
M  V30 1061 H 96.0764 0.942875 -2.84693 0
M  V30 1062 H 93.6294 0.455654 -1.49511 0
M  V30 1063 H 94.3644 2.98068 -1.27773 0
M  V30 1064 H 94.1494 2.53143 -2.99434 0
M  V30 1065 H 95.6394 3.36946 -2.46693 0
M  V30 1066 N 96.0765 1.50051 0.48192 0
M  V30 1067 C 97.3065 1.63999 1.2565 0
M  V30 1068 C 97.7145 0.318288 1.86504 0
M  V30 1069 O 97.0575 -0.708534 1.69486 0
M  V30 1070 C 97.1195 2.66504 2.4128 0
M  V30 1071 C 96.7835 4.10352 2.01148 0
M  V30 1072 C 97.7805 4.96562 1.54021 0
M  V30 1073 C 95.4655 4.56203 2.10199 0
M  V30 1074 C 97.4595 6.26668 1.16473 0
M  V30 1075 C 95.1465 5.86318 1.72264 0
M  V30 1076 C 96.1445 6.71375 1.25477 0
M  V30 1077 O 95.8325 7.99062 0.880626 0
M  V30 1078 H 95.5645 0.55456 0.386574 0
M  V30 1079 H 98.1185 1.96954 0.582944 0
M  V30 1080 H 96.3485 2.28769 3.11772 0
M  V30 1081 H 98.0375 2.69783 3.03268 0
M  V30 1082 H 98.8035 4.62358 1.46458 0
M  V30 1083 H 94.6825 3.90152 2.45566 0
M  V30 1084 H 98.2265 6.93011 0.798841 0
M  V30 1085 H 94.1235 6.20046 1.79482 0
M  V30 1086 H 94.8915 8.12239 1.01043 0
M  V30 1087 N 97.5546 -0.734337 1.39446 0
M  V30 1088 C 98.8036 -1.48937 1.36017 0
M  V30 1089 C 99.1166 -1.95557 -0.0409005 0
M  V30 1090 O 100.323 -2.70779 -0.19778 0
M  V30 1091 C 98.7786 -2.69125 2.38955 0
M  V30 1092 C 98.3866 -2.29452 3.8478 0
M  V30 1093 C 100.131 -3.46944 2.44603 0
M  V30 1094 C 98.0376 -3.46366 4.79358 0
M  V30 1095 H 96.9676 -0.559296 0.505672 0
M  V30 1096 H 99.6186 -0.800983 1.65095 0
M  V30 1097 H 98.0006 -3.40041 2.02948 0
M  V30 1098 H 99.1746 -1.66077 4.29831 0
M  V30 1099 H 97.4896 -1.64723 3.82433 0
M  V30 1100 H 100.087 -4.33907 3.12456 0
M  V30 1101 H 100.43 -3.89454 1.47076 0
M  V30 1102 H 100.963 -2.83056 2.79507 0
M  V30 1103 H 97.7016 -3.08905 5.78151 0
M  V30 1104 H 97.2216 -4.08719 4.38986 0
M  V30 1105 H 98.9006 -4.12691 4.98292 0
M  V30 1106 N 99.0327 -1.24633 -0.964593 0
M  V30 1107 C 100.273 -1.09981 -1.72289 0
M  V30 1108 C 100.637 0.354792 -1.88693 0
M  V30 1109 O 101.838 0.62289 -2.61483 0
M  V30 1110 C 100.109 -1.82262 -3.07434 0
M  V30 1111 S 101.668 -1.83379 -3.98645 0
M  V30 1112 H 98.4857 -0.393292 -0.59232 0
M  V30 1113 H 101.088 -1.58009 -1.15123 0
M  V30 1114 H 99.7917 -2.87206 -2.93157 0
M  V30 1115 H 99.3227 -1.3458 -3.69664 0
M  V30 1116 H 101.338 -0.903691 -4.87901 0
M  V30 1117 N 100.511 1.16574 -1.06058 0
M  V30 1118 C 101.759 1.86677 -0.77434 0
M  V30 1119 C 102.08 1.81959 0.701147 0
M  V30 1120 O 101.35 1.2515 1.50713 0
M  V30 1121 H 99.9298 0.691134 -0.283449 0
M  V30 1122 H 102.592 1.41378 -1.34158 0
M  V30 1123 H 101.688 2.92181 -1.09711 0
M  V30 1124 N 101.989 0.842826 1.3317 0
M  V30 1125 C 103.266 0.362216 1.92217 0
M  V30 1126 C 103.646 -1.15289 1.76838 0
M  V30 1127 O 102.994 -1.96914 1.15919 0
M  V30 1128 C 103.204 0.813495 3.39387 0
M  V30 1129 C 104.552 0.823804 4.16532 0
M  V30 1130 O 105.576 0.757358 3.48055 0
M  V30 1131 O 104.435 0.915193 5.38782 0
M  V30 1132 H 101.529 0.103317 0.820521 0
M  V30 1133 H 104.075 0.928942 1.42017 0
M  V30 1134 H 102.847 1.85624 3.4447 0
M  V30 1135 H 102.47 0.223561 3.96971 0
M  V30 1136 N 103.467 -1.45747 0.599634 0
M  V30 1137 C 104.414 -2.30467 -0.123849 0
M  V30 1138 C 105.384 -1.41632 -0.86774 0
M  V30 1139 O 106.569 -1.70568 -0.855056 0
M  V30 1140 C 103.709 -3.26402 -1.12051 0
M  V30 1141 C 102.822 -4.3034 -0.37832 0
M  V30 1142 C 101.957 -5.13389 -1.364 0
M  V30 1143 C 100.996 -6.09061 -0.609171 0
M  V30 1144 N 100.133 -6.84918 -1.54374 0
M  V30 1145 H 104.973 -2.91802 0.604627 0
M  V30 1146 H 102.51 -1.43797 0.309972 0
M  V30 1147 H 104.468 -3.80482 -1.7114 0
M  V30 1148 H 103.098 -2.66839 -1.8165 0
M  V30 1149 H 102.15 -3.78984 0.327929 0
M  V30 1150 H 103.462 -4.98354 0.210997 0
M  V30 1151 H 102.616 -5.7183 -2.02719 0
M  V30 1152 H 101.355 -4.45376 -1.98725 0
M  V30 1153 H 100.36 -5.49758 0.0676979 0
M  V30 1154 H 101.585 -6.79099 0.00891991 0
M  V30 1155 H 99.531 -6.19601 -2.15478 0
M  V30 1156 H 99.448 -7.49254 -1.00766 0
M  V30 1157 H 100.716 -7.47906 -2.19676 0
M  V30 1158 N 104.945 -0.338344 -1.53925 0
M  V30 1159 C 106.175 0.260919 -2.04946 0
M  V30 1160 C 106.583 1.45174 -1.2133 0
M  V30 1161 O 105.926 1.82122 -0.240262 0
M  V30 1162 C 105.988 0.744596 -3.51704 0
M  V30 1163 C 105.652 -0.325883 -4.55837 0
M  V30 1164 C 106.649 -1.16687 -5.06636 0
M  V30 1165 C 104.334 -0.478317 -5.00017 0
M  V30 1166 C 106.328 -2.14588 -6.00192 0
M  V30 1167 C 104.015 -1.46073 -5.93385 0
M  V30 1168 C 105.013 -2.29297 -6.4336 0
M  V30 1169 O 104.701 -3.25867 -7.34892 0
M  V30 1170 H 104.433 0.0551207 -0.673749 0
M  V30 1171 H 106.987 -0.486984 -1.99544 0
M  V30 1172 H 105.217 1.54366 -3.54553 0
M  V30 1173 H 106.906 1.26383 -3.85723 0
M  V30 1174 H 107.672 -1.06016 -4.73271 0
M  V30 1175 H 103.551 0.159613 -4.60724 0
M  V30 1176 H 107.095 -2.79585 -6.39123 0
M  V30 1177 H 102.992 -1.56802 -6.26166 0
M  V30 1178 H 103.76 -3.21278 -7.5281 0
M  V30 1179 N 106.423 1.57458 -0.0668435 0
M  V30 1180 C 107.333 2.15937 0.916975 0
M  V30 1181 C 108.349 1.12123 1.33058 0
M  V30 1182 O 109.525 1.44366 1.40429 0
M  V30 1183 C 106.59 2.70547 2.16807 0
M  V30 1184 C 105.651 3.89215 1.81135 0
M  V30 1185 C 104.884 4.41211 3.0028 0
M  V30 1186 O 105.107 3.92225 4.14144 0
M  V30 1187 O 104.041 5.32605 2.80384 0
M  V30 1188 H 107.867 3.00354 0.449561 0
M  V30 1189 H 105.452 1.48584 0.155949 0
M  V30 1190 H 107.334 3.0557 2.90181 0
M  V30 1191 H 106.009 1.89192 2.62656 0
M  V30 1192 H 104.916 3.59054 1.05028 0
M  V30 1193 H 106.249 4.71848 1.40073 0
M  V30 1194 N 107.901 -0.206675 1.56239 0
M  V30 1195 C 108.848 -1.25617 1.93621 0
M  V30 1196 C 109.818 -1.45824 0.795274 0
M  V30 1197 O 111.003 -1.59148 1.05245 0
M  V30 1198 C 108.143 -2.59839 2.27107 0
M  V30 1199 C 107.256 -2.47308 3.54207 0
M  V30 1200 C 106.391 -3.74155 3.7707 0
M  V30 1201 C 105.43 -3.56407 4.97635 0
M  V30 1202 N 104.567 -4.75238 5.1681 0
M  V30 1203 H 109.407 -0.930383 2.83104 0
M  V30 1204 H 106.944 -0.448065 1.4011 0
M  V30 1205 H 108.902 -3.38021 2.44535 0
M  V30 1206 H 107.532 -2.90485 1.40778 0
M  V30 1207 H 106.584 -1.60483 3.4489 0
M  V30 1208 H 107.896 -2.30122 4.42544 0
M  V30 1209 H 107.05 -4.60778 3.94675 0
M  V30 1210 H 105.789 -3.94282 2.87042 0
M  V30 1211 H 104.794 -2.68168 4.79964 0
M  V30 1212 H 106.019 -3.37736 5.89161 0
M  V30 1213 H 103.965 -4.95651 4.29728 0
M  V30 1214 H 103.882 -4.60835 5.99306 0
M  V30 1215 H 105.15 -5.63246 5.38864 0
M  V30 1216 N 109.379 -1.50304 -0.473955 0
M  V30 1217 C 110.342 -1.6841 -1.55469 0
M  V30 1218 C 111.342 -0.554905 -1.50922 0
M  V30 1219 O 112.532 -0.821882 -1.53593 0
M  V30 1220 C 109.664 -1.70667 -2.95102 0
M  V30 1221 H 110.857 -2.64828 -1.40733 0
M  V30 1222 H 108.41 -1.39742 -0.700132 0
M  V30 1223 H 109.145 -0.75932 -3.15285 0
M  V30 1224 H 108.93 -2.52698 -2.9981 0
M  V30 1225 H 110.42 -1.8664 -3.73571 0
M  V30 1226 N 110.857 0.726932 -1.39834 0
M  V30 1227 C 112.103 1.48884 -1.377 0
M  V30 1228 C 112.436 1.94185 0.0244852 0
M  V30 1229 O 111.711 1.67361 0.990986 0
M  V30 1230 C 111.994 2.72288 -2.3565 0
M  V30 1231 C 111.847 2.32956 -3.84775 0
M  V30 1232 C 113.166 3.74414 -2.31306 0
M  V30 1233 H 110.285 0.540062 -0.5015 0
M  V30 1234 H 112.927 0.830547 -1.70886 0
M  V30 1235 H 111.077 3.28457 -2.07481 0
M  V30 1236 H 112.749 1.82356 -4.23726 0
M  V30 1237 H 110.992 1.65088 -4.01159 0
M  V30 1238 H 111.663 3.21362 -4.4881 0
M  V30 1239 H 114.139 3.27849 -2.56231 0
M  V30 1240 H 113.015 4.58414 -3.01907 0
M  V30 1241 H 113.276 4.21909 -1.32081 0
M  V30 1242 N 112.336 1.25143 0.95797 0
M  V30 1243 C 113.613 1.00472 1.67823 0
M  V30 1244 C 113.993 -0.470056 2.058 0
M  V30 1245 O 113.341 -1.44663 1.76875 0
M  V30 1246 C 113.551 1.9372 2.90299 0
M  V30 1247 C 114.899 2.21371 3.62326 0
M  V30 1248 O 115.923 1.91451 3.00375 0
M  V30 1249 O 114.782 2.72231 4.7387 0
M  V30 1250 H 111.876 0.380752 0.734137 0
M  V30 1251 H 114.422 1.36283 1.01119 0
M  V30 1252 H 113.194 2.93316 2.59001 0
M  V30 1253 H 112.817 1.58286 3.64735 0
M  V30 1254 N 113.814 -1.1601 1.06675 0
M  V30 1255 C 115.044 -1.90251 0.805497 0
M  V30 1256 C 115.452 -1.77891 -0.64431 0
M  V30 1257 O 114.795 -1.12383 -1.45313 0
M  V30 1258 C 114.857 -3.41419 1.12576 0
M  V30 1259 C 114.521 -3.77564 2.57477 0
M  V30 1260 C 115.518 -3.79161 3.55715 0
M  V30 1261 C 113.203 -4.08079 2.92877 0
M  V30 1262 C 115.197 -4.10767 4.8739 0
M  V30 1263 C 112.884 -4.39351 4.24751 0
M  V30 1264 C 113.882 -4.40675 5.21818 0
M  V30 1265 O 113.57 -4.71202 6.51325 0
M  V30 1266 H 113.302 -0.610018 0.291297 0
M  V30 1267 H 115.856 -1.47958 1.4247 0
M  V30 1268 H 114.086 -3.84079 0.449503 0
M  V30 1269 H 115.775 -3.9694 0.84814 0
M  V30 1270 H 116.541 -3.55693 3.29708 0
M  V30 1271 H 112.42 -4.06211 2.17976 0
M  V30 1272 H 115.964 -4.11715 5.63148 0
M  V30 1273 H 111.861 -4.62285 4.50514 0
M  V30 1274 H 112.629 -4.88996 6.56373 0
M  V30 1275 N 115.292 -0.849877 -1.32721 0
M  V30 1276 C 116.54 -0.450032 -1.97026 0
M  V30 1277 C 116.861 0.996604 -1.67609 0
M  V30 1278 O 116.131 1.6958 -0.980786 0
M  V30 1279 H 114.711 -0.163426 -0.728904 0
M  V30 1280 H 117.373 -1.08526 -1.6189 0
M  V30 1281 H 116.469 -0.591146 -3.0645 0
M  V30 1282 N 116.77 1.45427 -0.607355 0
M  V30 1283 C 118.017 2.02241 -0.102455 0
M  V30 1284 C 118.345 1.4758 1.26691 0
M  V30 1285 O 117.6 0.640468 1.84923 0
M  V30 1286 C 117.899 3.57398 -0.0129263 0
M  V30 1287 C 117.565 4.3121 -1.31792 0
M  V30 1288 C 116.227 4.51092 -1.67539 0
M  V30 1289 C 118.579 4.73401 -2.18039 0
M  V30 1290 C 115.907 5.10422 -2.89285 0
M  V30 1291 C 118.259 5.34078 -3.39034 0
M  V30 1292 C 116.923 5.52184 -3.75033 0
M  V30 1293 H 116.193 0.740051 -0.037491 0
M  V30 1294 H 118.84 1.74494 -0.788926 0
M  V30 1295 H 117.145 3.84421 0.756806 0
M  V30 1296 H 118.842 3.99061 0.393881 0
M  V30 1297 H 115.432 4.16047 -1.02968 0
M  V30 1298 H 119.616 4.57774 -1.91721 0
M  V30 1299 H 114.872 5.22629 -3.17283 0
M  V30 1300 H 119.046 5.65724 -4.06115 0
M  V30 1301 H 116.673 5.97925 -4.69457 0
M  V30 1302 N 118.248 0.346503 1.53744 0
M  V30 1303 C 119.664 -0.00530975 1.59599 0
M  V30 1304 C 119.864 -1.48465 1.36236 0
M  V30 1305 O 118.92 -2.24376 1.15808 0
M  V30 1306 C 120.233 0.433516 2.97559 0
M  V30 1307 C 121.781 0.386111 3.10609 0
M  V30 1308 C 122.256 0.800451 4.50951 0
M  V30 1309 N 123.747 0.754753 4.5701 0
M  V30 1310 C 124.482 1.04727 5.63755 0
M  V30 1311 N 123.978 1.4081 6.7834 0
M  V30 1312 N 125.771 0.971316 5.53644 0
M  V30 1313 H 117.922 1.31009 1.67184 0
M  V30 1314 H 120.185 0.534242 0.783128 0
M  V30 1315 H 119.891 1.46509 3.19731 0
M  V30 1316 H 119.765 -0.189753 3.76722 0
M  V30 1317 H 122.152 -0.636295 2.88158 0
M  V30 1318 H 122.233 1.04462 2.33498 0
M  V30 1319 H 121.877 1.82088 4.74137 0
M  V30 1320 H 121.807 0.119386 5.26465 0
M  V30 1321 H 124.298 0.488662 3.74727 0
M  V30 1322 H 124.611 1.61607 7.55714 0
M  V30 1323 H 122.956 1.44657 6.79779 0
M  V30 1324 H 126.147 0.688748 4.63005 0
M  V30 1325 H 126.32 1.20263 6.36742 0
M  V30 1326 N 119.726 -1.57421 0.075193 0
M  V30 1327 C 120.636 -2.1642 -0.905511 0
M  V30 1328 C 121.652 -1.12828 -1.32461 0
M  V30 1329 O 122.828 -1.45109 -1.39661 0
M  V30 1330 C 119.893 -2.71693 -2.15369 0
M  V30 1331 C 118.954 -3.90171 -1.79068 0
M  V30 1332 C 118.187 -4.42798 -2.97936 0
M  V30 1333 O 118.41 -3.94416 -4.12058 0
M  V30 1334 O 117.344 -5.34085 -2.77555 0
M  V30 1335 H 121.17 -3.00588 -0.433626 0
M  V30 1336 H 118.755 -1.48664 -0.148067 0
M  V30 1337 H 120.637 -3.07104 -2.88557 0
M  V30 1338 H 119.312 -1.90582 -2.61649 0
M  V30 1339 H 118.219 -3.59606 -1.03122 0
M  V30 1340 H 119.552 -4.72584 -1.37569 0
M  V30 1341 N 121.204 0.198386 -1.56346 0
M  V30 1342 C 122.429 0.939682 -1.84891 0
M  V30 1343 C 122.854 1.76202 -0.658369 0
M  V30 1344 O 122.212 1.76993 0.392851 0
M  V30 1345 C 122.26 1.81428 -3.11635 0
M  V30 1346 O 121.364 2.91265 -2.91956 0
M  V30 1347 H 120.705 0.264807 -0.608912 0
M  V30 1348 H 123.235 0.204695 -2.03573 0
M  V30 1349 H 123.245 2.21958 -3.42343 0
M  V30 1350 H 121.92 1.21004 -3.97908 0
M  V30 1351 H 120.497 2.54514 -2.72538 0
M  V30 1352 N 122.682 1.50554 0.465978 0
M  V30 1353 C 124.098 1.38093 0.800154 0
M  V30 1354 C 124.298 0.440988 1.96615 0
M  V30 1355 O 123.354 -0.114499 2.5224 0
M  V30 1356 C 124.667 2.79565 1.10742 0
M  V30 1357 C 126.215 2.88516 1.21357 0
M  V30 1358 C 126.69 4.30833 1.55393 0
M  V30 1359 N 128.181 4.33807 1.62375 0
M  V30 1360 C 128.916 5.40927 1.90225 0
M  V30 1361 N 128.412 6.58247 2.16062 0
M  V30 1362 N 130.205 5.28376 1.9177 0
M  V30 1363 H 122.356 2.10237 -0.302366 0
M  V30 1364 H 124.619 0.945203 -0.0727746 0
M  V30 1365 H 124.325 3.50208 0.323661 0
M  V30 1366 H 124.199 3.17125 2.04234 0
M  V30 1367 H 126.586 2.1809 1.98799 0
M  V30 1368 H 126.667 2.54492 0.258321 0
M  V30 1369 H 126.311 5.01799 0.784889 0
M  V30 1370 H 126.241 4.62347 2.52076 0
M  V30 1371 H 128.732 3.49212 1.44427 0
M  V30 1372 H 129.045 7.3569 2.36601 0
M  V30 1373 H 127.39 6.61413 2.13444 0
M  V30 1374 H 130.581 4.35715 1.71085 0
M  V30 1375 H 130.754 6.11944 2.13139 0
M  V30 1376 N 124.16 -0.719506 1.40217 0
M  V30 1377 C 125.409 -1.47486 1.37589 0
M  V30 1378 C 125.722 -1.9559 -0.0201568 0
M  V30 1379 O 126.928 -2.70973 -0.169049 0
M  V30 1380 C 125.384 -2.66575 2.41796 0
M  V30 1381 C 124.992 -2.25358 3.87192 0
M  V30 1382 C 126.736 -3.4433 2.48269 0
M  V30 1383 C 124.643 -3.41262 4.83005 0
M  V30 1384 H 123.573 -0.553901 0.511576 0
M  V30 1385 H 126.224 -0.783427 1.65936 0
M  V30 1386 H 124.606 -3.3787 2.06543 0
M  V30 1387 H 125.78 -1.61509 4.31569 0
M  V30 1388 H 124.095 -1.60657 3.84159 0
M  V30 1389 H 126.692 -4.30569 3.17041 0
M  V30 1390 H 127.035 -3.87872 1.51198 0
M  V30 1391 H 127.568 -2.80076 2.82493 0
M  V30 1392 H 124.307 -3.02755 5.81394 0
M  V30 1393 H 123.827 -4.0404 4.43297 0
M  V30 1394 H 125.506 -4.07383 5.02641 0
M  V30 1395 N 125.638 -1.25649 -0.95132 0
M  V30 1396 C 126.568 -1.08808 -2.06599 0
M  V30 1397 C 127.549 0.00382547 -1.701 0
M  V30 1398 O 128.734 -0.166325 -1.93486 0
M  V30 1399 C 125.864 -0.709542 -3.39975 0
M  V30 1400 C 124.818 -1.75206 -3.90496 0
M  V30 1401 C 124.144 -1.22811 -5.20405 0
M  V30 1402 C 125.444 -3.15153 -4.16504 0
M  V30 1403 H 127.138 -2.02048 -2.20946 0
M  V30 1404 H 124.684 -0.972835 -1.06169 0
M  V30 1405 H 126.637 -0.578649 -4.17408 0
M  V30 1406 H 125.361 0.258556 -3.25575 0
M  V30 1407 H 124.02 -1.87145 -3.15234 0
M  V30 1408 H 123.668 -0.250145 -5.02378 0
M  V30 1409 H 123.368 -1.92492 -5.55176 0
M  V30 1410 H 124.892 -1.10968 -6.00432 0
M  V30 1411 H 126.306 -3.06349 -4.84586 0
M  V30 1412 H 124.703 -3.82333 -4.62538 0
M  V30 1413 H 125.773 -3.61966 -3.22658 0
M  V30 1414 N 127.117 1.15442 -1.07289 0
M  V30 1415 C 128.08 2.18358 -0.696591 0
M  V30 1416 C 129.08 1.58637 0.262837 0
M  V30 1417 O 130.27 1.74145 0.0438809 0
M  V30 1418 C 127.402 3.4089 -0.0266151 0
M  V30 1419 H 128.595 2.53162 -1.60776 0
M  V30 1420 H 126.148 1.29893 -0.869342 0
M  V30 1421 H 126.883 3.11653 0.896822 0
M  V30 1422 H 126.668 3.85495 -0.716657 0
M  V30 1423 H 128.158 4.17009 0.222028 0
M  V30 1424 N 128.595 0.856903 1.32268 0
M  V30 1425 C 129.505 0.306131 2.32594 0
M  V30 1426 C 130.521 -0.577209 1.64147 0
M  V30 1427 O 131.697 -0.477043 1.95669 0
M  V30 1428 C 128.762 -0.494561 3.43154 0
M  V30 1429 C 127.823 0.415186 4.27288 0
M  V30 1430 C 127.056 -0.347387 5.32568 0
M  V30 1431 O 127.279 -1.57708 5.48165 0
M  V30 1432 O 126.213 0.287982 6.01211 0
M  V30 1433 H 130.039 1.13737 2.81598 0
M  V30 1434 H 127.624 0.619902 1.35932 0
M  V30 1435 H 129.506 -0.948944 4.10576 0
M  V30 1436 H 128.181 -1.30257 2.96336 0
M  V30 1437 H 127.088 0.917793 3.62667 0
M  V30 1438 H 128.421 1.18844 4.77637 0
M  V30 1439 N 130.073 -1.45103 0.615059 0
M  V30 1440 C 131.321 -2.01784 0.112955 0
M  V30 1441 C 131.642 -1.48504 -1.26378 0
M  V30 1442 O 130.912 -0.682245 -1.83636 0
M  V30 1443 H 129.492 -0.745993 0.0387668 0
M  V30 1444 H 132.154 -1.77808 0.798141 0
M  V30 1445 H 131.25 -3.12025 0.0684069 0
M  V30 1446 N 131.551 -0.354651 -1.53558 0
M  V30 1447 C 132.461 0.50515 -2.29097 0
M  V30 1448 C 133.477 1.10223 -1.34636 0
M  V30 1449 O 134.653 1.11553 -1.67684 0
M  V30 1450 C 131.718 1.63479 -3.05738 0
M  V30 1451 C 130.779 1.06636 -4.15845 0
M  V30 1452 C 130.012 2.14217 -4.88822 0
M  V30 1453 O 130.235 3.35137 -4.61562 0
M  V30 1454 O 129.169 1.77887 -5.75013 0
M  V30 1455 H 132.995 -0.109237 -3.03503 0
M  V30 1456 H 130.58 -0.119357 -1.48922 0
M  V30 1457 H 132.462 2.2918 -3.5363 0
M  V30 1458 H 131.137 2.23478 -2.34178 0
M  V30 1459 H 130.044 0.373565 -3.7223 0
M  V30 1460 H 131.377 0.511081 -4.89539 0
M  V30 1461 N 133.029 1.57378 -0.0835403 0
M  V30 1462 C 134.306 1.85363 0.624507 0
M  V30 1463 C 134.686 0.978239 1.87066 0
M  V30 1464 O 134.034 0.0475908 2.2845 0
M  V30 1465 C 134.244 3.35795 0.950947 0
M  V30 1466 C 135.592 4.03581 1.31939 0
M  V30 1467 O 136.616 3.40609 1.04232 0
M  V30 1468 O 135.475 5.14672 1.83779 0
M  V30 1469 H 132.569 0.766162 0.311329 0
M  V30 1470 H 135.115 1.69307 -0.115362 0
M  V30 1471 H 133.887 3.91244 0.0663899 0
M  V30 1472 H 133.51 3.57154 1.74719 0
M  V30 1473 N 134.507 -0.190092 1.56449 0
M  V30 1474 C 135.735 -0.925772 1.85033 0
M  V30 1475 C 136.15 -1.76638 0.666658 0
M  V30 1476 O 135.507 -1.78822 -0.364565 0
M  V30 1477 C 135.558 -1.81786 3.12468 0
M  V30 1478 O 135.279 -1.01118 4.26271 0
M  V30 1479 C 136.78 -2.6648 3.54265 0
M  V30 1480 H 134 -0.269872 0.614337 0
M  V30 1481 H 136.544 -0.195837 2.0356 0
M  V30 1482 H 134.699 -2.50136 2.95822 0
M  V30 1483 H 135.113 -1.61956 4.98869 0
M  V30 1484 H 136.587 -3.24722 4.46385 0
M  V30 1485 H 137.064 -3.40434 2.77491 0
M  V30 1486 H 137.67 -2.03493 3.73458 0
M  V30 1487 N 135.985 -1.50799 -0.457987 0
M  V30 1488 C 137.225 -1.64088 -1.21879 0
M  V30 1489 C 137.589 -0.339848 -1.88968 0
M  V30 1490 O 138.79 -0.348301 -2.66534 0
M  V30 1491 C 137.061 -2.79726 -2.2246 0
M  V30 1492 S 138.62 -3.13225 -3.07303 0
M  V30 1493 H 135.438 -0.578314 -0.41361 0
M  V30 1494 H 138.04 -1.88632 -0.513645 0
M  V30 1495 H 136.744 -3.72722 -1.71775 0
M  V30 1496 H 136.275 -2.57308 -2.97584 0
M  V30 1497 H 138.29 -2.58062 -4.23814 0
M  V30 1498 N 137.463 0.71206 -1.40597 0
M  V30 1499 C 138.426 1.80785 -1.40888 0
M  V30 1500 C 139.426 1.57937 -0.302103 0
M  V30 1501 O 140.616 1.64913 -0.561182 0
M  V30 1502 C 137.748 3.18927 -1.20409 0
M  V30 1503 H 138.941 1.81924 -2.38419 0
M  V30 1504 H 136.494 0.91805 -1.26497 0
M  V30 1505 H 137.229 3.23436 -0.236522 0
M  V30 1506 H 137.014 3.36911 -2.00582 0
M  V30 1507 H 138.504 3.98949 -1.23408 0
M  V30 1508 N 138.941 1.26152 0.944643 0
M  V30 1509 C 140.357 1.03189 1.21754 0
M  V30 1510 C 140.557 -0.245112 2.00004 0
M  V30 1511 O 139.613 -0.955176 2.33736 0
M  V30 1512 C 140.926 2.26119 1.98219 0
M  V30 1513 C 142.474 2.30984 2.11224 0
M  V30 1514 C 142.949 3.53597 2.91089 0
M  V30 1515 N 144.44 3.54053 2.98664 0
M  V30 1516 C 145.175 4.45593 3.60881 0
M  V30 1517 N 144.671 5.47416 4.24626 0
M  V30 1518 N 146.464 4.33252 3.58119 0
M  V30 1519 H 138.615 2.08177 0.421437 0
M  V30 1520 H 140.878 0.914723 0.248969 0
M  V30 1521 H 140.584 3.18984 1.48128 0
M  V30 1522 H 140.458 2.3009 2.98895 0
M  V30 1523 H 142.845 1.38635 2.60508 0
M  V30 1524 H 142.926 2.31026 1.09821 0
M  V30 1525 H 142.57 4.46273 2.42493 0
M  V30 1526 H 142.5 3.50802 3.92741 0
M  V30 1527 H 144.991 2.80403 2.53343 0
M  V30 1528 H 145.304 6.13459 4.69987 0
M  V30 1529 H 143.649 5.51278 4.23223 0
M  V30 1530 H 146.84 3.52924 3.0751 0
M  V30 1531 H 147.013 5.04786 4.06319 0
M  V30 1532 N 140.419 -1.14872 1.07899 0
M  V30 1533 C 141.366 -2.19791 0.704319 0
M  V30 1534 C 142.336 -1.63238 -0.306987 0
M  V30 1535 O 143.521 -1.8983 -0.192171 0
M  V30 1536 C 140.661 -3.44911 0.114244 0
M  V30 1537 C 139.774 -4.15637 1.1777 0
M  V30 1538 C 138.909 -5.28324 0.552037 0
M  V30 1539 C 137.948 -5.90875 1.59789 0
M  V30 1540 N 137.085 -6.95022 0.994404 0
M  V30 1541 H 141.925 -2.5119 1.60336 0
M  V30 1542 H 139.462 -1.23356 0.801352 0
M  V30 1543 H 141.42 -4.16477 -0.245544 0
M  V30 1544 H 140.05 -3.14011 -0.74813 0
M  V30 1545 H 139.102 -3.42512 1.65499 0
M  V30 1546 H 140.414 -4.5823 1.97046 0
M  V30 1547 H 139.568 -6.06538 0.1402 0
M  V30 1548 H 138.307 -4.86939 -0.272431 0
M  V30 1549 H 137.312 -5.11369 2.01945 0
M  V30 1550 H 138.537 -6.34337 2.42474 0
M  V30 1551 H 136.483 -6.55722 0.190939 0
M  V30 1552 H 136.4 -7.36073 1.72432 0
M  V30 1553 H 137.668 -7.77123 0.608253 0
M  V30 1554 N 141.898 -0.863906 -1.31812 0
M  V30 1555 C 142.808 -0.318461 -2.32428 0
M  V30 1556 C 143.824 0.568496 -1.64451 0
M  V30 1557 O 145 0.46666 -1.95919 0
M  V30 1558 C 142.065 0.476355 -3.43412 0
M  V30 1559 C 141.126 -0.43784 -4.27061 0
M  V30 1560 C 140.359 0.319138 -5.32745 0
M  V30 1561 O 140.582 1.54799 -5.48993 0
M  V30 1562 O 139.516 -0.319861 -6.01049 0
M  V30 1563 H 143.342 -1.15229 -2.80991 0
M  V30 1564 H 140.927 -0.627103 -1.35602 0
M  V30 1565 H 142.809 0.927156 -4.11074 0
M  V30 1566 H 141.484 1.28683 -2.97022 0
M  V30 1567 H 140.391 -0.937013 -3.62175 0
M  V30 1568 H 141.724 -1.21375 -4.77 0
M  V30 1569 N 143.376 1.44774 -0.622745 0
M  V30 1570 C 144.323 2.30635 0.0871679 0
M  V30 1571 C 145.293 1.42994 0.845097 0
M  V30 1572 O 146.478 1.71907 0.827812 0
M  V30 1573 C 143.618 3.28144 1.06844 0
M  V30 1574 C 142.731 4.30888 0.309809 0
M  V30 1575 C 141.866 5.15494 1.28215 0
M  V30 1576 C 140.905 6.09953 0.512198 0
M  V30 1577 N 140.042 6.87287 1.43458 0
M  V30 1578 H 144.882 2.90803 -0.650974 0
M  V30 1579 H 142.419 1.43286 -0.33281 0
M  V30 1580 H 144.377 3.83157 1.65066 0
M  V30 1581 H 143.007 2.69695 1.77382 0
M  V30 1582 H 142.059 3.78414 -0.388181 0
M  V30 1583 H 143.371 4.97955 -0.290254 0
M  V30 1584 H 142.525 5.74983 1.93596 0
M  V30 1585 H 141.264 4.48481 1.91614 0
M  V30 1586 H 140.269 5.49581 -0.155151 0
M  V30 1587 H 141.494 6.78999 -0.116958 0
M  V30 1588 H 139.44 6.2295 2.05594 0
M  V30 1589 H 139.357 7.50763 0.888335 0
M  V30 1590 H 140.625 7.51306 2.07749 0
M  V30 1591 N 144.854 0.36279 1.53368 0
M  V30 1592 C 146.082 -0.228613 2.05633 0
M  V30 1593 C 146.497 -1.42676 1.23649 0
M  V30 1594 O 145.854 -1.80394 0.27647 0
M  V30 1595 C 145.905 -0.624845 3.56059 0
M  V30 1596 O 145.626 0.525675 4.34935 0
M  V30 1597 C 147.127 -1.27493 4.24571 0
M  V30 1598 H 144.347 -0.0407183 0.669763 0
M  V30 1599 H 146.891 0.520352 1.97769 0
M  V30 1600 H 145.046 -1.32373 3.64083 0
M  V30 1601 H 145.46 0.205969 5.24095 0
M  V30 1602 H 146.934 -1.50277 5.31151 0
M  V30 1603 H 147.411 -2.23439 3.78116 0
M  V30 1604 H 148.017 -0.617558 4.20792 0
M  V30 1605 N 146.332 -1.57332 0.0918853 0
M  V30 1606 C 147.56 -1.98574 -0.581048 0
M  V30 1607 C 147.975 -0.970903 -1.61923 0
M  V30 1608 O 147.332 0.0399054 -1.82456 0
M  V30 1609 C 147.383 -3.39872 -1.23164 0
M  V30 1610 O 147.104 -4.37469 -0.234989 0
M  V30 1611 C 148.605 -3.96099 -1.99049 0
M  V30 1612 H 145.825 -0.65261 -0.156018 0
M  V30 1613 H 148.369 -2.0379 0.170225 0
M  V30 1614 H 146.524 -3.35679 -1.93386 0
M  V30 1615 H 146.938 -5.19751 -0.70418 0
M  V30 1616 H 148.412 -4.97127 -2.39934 0
M  V30 1617 H 148.889 -3.3374 -2.85507 0
M  V30 1618 H 149.495 -4.03755 -1.3365 0
M  V30 1619 N 147.81 0.181792 -1.56548 0
M  V30 1620 C 148.74 1.22765 -1.98623 0
M  V30 1621 C 149.721 1.46747 -0.860189 0
M  V30 1622 O 150.906 1.58259 -1.12551 0
M  V30 1623 C 148.036 2.56894 -2.33715 0
M  V30 1624 C 146.99 2.475 -3.49182 0
M  V30 1625 C 146.316 3.86023 -3.69986 0
M  V30 1626 C 147.616 1.98866 -4.82959 0
M  V30 1627 H 149.31 0.877942 -2.86239 0
M  V30 1628 H 146.856 0.42088 -1.37712 0
M  V30 1629 H 148.809 3.30253 -2.61746 0
M  V30 1630 H 147.533 2.93632 -1.42997 0
M  V30 1631 H 146.192 1.76596 -3.21262 0
M  V30 1632 H 145.84 4.20136 -2.76576 0
M  V30 1633 H 145.54 3.80609 -4.47672 0
M  V30 1634 H 147.064 4.60984 -4.00407 0
M  V30 1635 H 148.478 2.61992 -5.09934 0
M  V30 1636 H 146.875 2.04424 -5.64208 0
M  V30 1637 H 147.945 0.942465 -4.75653 0
M  V30 1638 N 149.288 1.51039 0.449983 0
M  V30 1639 C 150.704 1.38934 0.785462 0
M  V30 1640 C 150.904 0.461817 1.96136 0
M  V30 1641 O 149.96 -0.0877389 2.52348 0
M  V30 1642 C 151.273 2.80724 1.0777 0
M  V30 1643 C 152.821 2.89787 1.1829 0
M  V30 1644 C 153.296 4.32457 1.50815 0
M  V30 1645 N 154.787 4.35505 1.57764 0
M  V30 1646 C 155.522 5.42914 1.84477 0
M  V30 1647 N 155.018 6.60502 2.09068 0
M  V30 1648 N 156.811 5.3038 1.86155 0
M  V30 1649 H 148.962 2.09904 -0.324647 0
M  V30 1650 H 151.225 0.944378 -0.0827957 0
M  V30 1651 H 150.931 3.50531 0.286498 0
M  V30 1652 H 150.805 3.19273 2.00859 0
M  V30 1653 H 153.192 2.20186 1.96474 0
M  V30 1654 H 153.273 2.54752 0.231314 0
M  V30 1655 H 152.917 5.02603 0.731622 0
M  V30 1656 H 152.847 4.64995 2.47158 0
M  V30 1657 H 155.338 3.50724 1.40715 0
M  V30 1658 H 155.651 7.38158 2.28785 0
M  V30 1659 H 153.996 6.63639 2.06416 0
M  V30 1660 H 157.187 4.37505 1.66454 0
M  V30 1661 H 157.36 6.1417 2.06637 0
M  V30 1662 N 150.766 -0.704594 1.40972 0
M  V30 1663 C 151.713 -1.81862 1.42109 0
M  V30 1664 C 152.683 -1.63781 0.276593 0
M  V30 1665 O 153.868 -1.84759 0.4763 0
M  V30 1666 C 151.008 -3.19669 1.30022 0
M  V30 1667 C 150.121 -3.49246 2.54267 0
M  V30 1668 C 149.256 -4.76618 2.3454 0
M  V30 1669 C 148.295 -4.99133 3.54306 0
M  V30 1670 N 147.432 -6.17726 3.33706 0
M  V30 1671 H 152.272 -1.80226 2.37324 0
M  V30 1672 H 149.809 -0.880238 1.17857 0
M  V30 1673 H 151.767 -3.99263 1.21018 0
M  V30 1674 H 150.397 -3.20506 0.384192 0
M  V30 1675 H 149.449 -2.64125 2.73756 0
M  V30 1676 H 150.761 -3.61788 3.43381 0
M  V30 1677 H 149.915 -5.64249 2.22952 0
M  V30 1678 H 148.654 -4.66305 1.42867 0
M  V30 1679 H 147.659 -4.09953 3.66359 0
M  V30 1680 H 148.884 -5.11311 4.4692 0
M  V30 1681 H 146.83 -6.08642 2.44725 0
M  V30 1682 H 146.747 -6.30995 4.16391 0
M  V30 1683 H 148.015 -7.08115 3.25873 0
M  V30 1684 N 152.244 -1.26651 -0.937939 0
M  V30 1685 C 153.469 -1.15279 -1.72411 0
M  V30 1686 C 153.894 0.287866 -1.85884 0
M  V30 1687 O 153.252 1.20855 -1.35143 0
M  V30 1688 C 153.3 -1.83028 -3.10698 0
M  V30 1689 O 152.404 -1.12128 -3.96864 0
M  V30 1690 H 151.745 -0.401504 -0.528858 0
M  V30 1691 H 154.275 -1.67531 -1.1745 0
M  V30 1692 H 154.285 -1.89981 -3.6107 0
M  V30 1693 H 152.96 -2.87833 -3.00208 0
M  V30 1694 H 151.537 -1.13173 -3.55312 0
M  V30 1695 N 153.722 1.14298 -1.08507 0
M  V30 1696 C 154.669 2.19414 -0.715965 0
M  V30 1697 C 155.639 1.63399 0.298326 0
M  V30 1698 O 156.824 1.89929 0.182101 0
M  V30 1699 C 153.964 3.44845 -0.132534 0
M  V30 1700 C 153.077 4.15007 -1.19973 0
M  V30 1701 C 152.212 5.28024 -0.580048 0
M  V30 1702 C 151.251 5.9002 -1.62921 0
M  V30 1703 N 150.388 6.94485 -1.03125 0
M  V30 1704 H 155.228 2.50336 -1.61666 0
M  V30 1705 H 152.765 1.2293 -0.807882 0
M  V30 1706 H 154.723 4.16601 0.223454 0
M  V30 1707 H 153.353 3.14403 0.731467 0
M  V30 1708 H 152.405 3.41629 -1.67313 0
M  V30 1709 H 153.717 4.57178 -1.99473 0
M  V30 1710 H 152.871 6.06455 -0.172364 0
M  V30 1711 H 151.61 4.87076 0.246603 0
M  V30 1712 H 150.615 5.10291 -2.04654 0
M  V30 1713 H 151.84 6.33042 -2.45835 0
M  V30 1714 H 149.786 6.55612 -0.225711 0
M  V30 1715 H 149.703 7.35148 -1.76334 0
M  V30 1716 H 150.971 7.7679 -0.649458 0
M  V30 1717 N 155.201 0.870884 1.31352 0
M  V30 1718 C 156.133 0.28455 2.27427 0
M  V30 1719 C 157.146 -0.552927 1.53123 0
M  V30 1720 O 158.335 -0.374771 1.74521 0
M  V30 1721 C 155.435 -0.615164 3.3327 0
M  V30 1722 C 154.608 0.190079 4.36987 0
M  V30 1723 C 153.667 -0.637917 5.22319 0
M  V30 1724 O 152.693 -0.065626 5.69162 0
M  V30 1725 N 153.895 -1.94973 5.46778 0
M  V30 1726 H 156.66 1.11017 2.7838 0
M  V30 1727 H 154.221 0.732458 1.44384 0
M  V30 1728 H 156.213 -1.1748 3.87273 0
M  V30 1729 H 154.783 -1.34146 2.82354 0
M  V30 1730 H 154.003 0.931165 3.83044 0
M  V30 1731 H 155.291 0.742579 5.03352 0
M  V30 1732 H 154.689 -2.4378 5.10478 0
M  V30 1733 H 153.246 -2.45713 6.03712 0
M  V30 1734 N 156.679 -1.44442 0.630414 0
M  V30 1735 C 157.626 -2.30678 -0.0749355 0
M  V30 1736 C 158.596 -1.4344 -0.837502 0
M  V30 1737 O 159.781 -1.72343 -0.818684 0
M  V30 1738 C 156.921 -3.28706 -1.05103 0
M  V30 1739 C 156.034 -4.31046 -0.286954 0
M  V30 1740 C 155.169 -5.16167 -1.2548 0
M  V30 1741 C 154.208 -6.10216 -0.479843 0
M  V30 1742 N 153.345 -6.88039 -1.39811 0
M  V30 1743 H 158.185 -2.90454 0.666386 0
M  V30 1744 H 155.722 -1.43107 0.340404 0
M  V30 1745 H 157.68 -3.84027 -1.63031 0
M  V30 1746 H 156.31 -2.70632 -1.75949 0
M  V30 1747 H 155.362 -3.78203 0.408243 0
M  V30 1748 H 156.674 -4.97794 0.316657 0
M  V30 1749 H 155.828 -5.76002 -1.90544 0
M  V30 1750 H 154.567 -4.49491 -1.89233 0
M  V30 1751 H 153.572 -5.49491 0.184295 0
M  V30 1752 H 154.797 -6.78928 0.152965 0
M  V30 1753 H 152.743 -6.24032 -2.02287 0
M  V30 1754 H 152.66 -7.51223 -0.848508 0
M  V30 1755 H 153.928 -7.52397 -2.03762 0
M  V30 1756 N 158.157 -0.370918 -1.53173 0
M  V30 1757 C 159.385 0.217704 -2.05751 0
M  V30 1758 C 159.8 1.42018 -1.24404 0
M  V30 1759 O 159.157 1.80245 -0.286033 0
M  V30 1760 C 159.208 0.605954 -3.56385 0
M  V30 1761 O 158.929 -0.548734 -4.3465 0
M  V30 1762 C 160.43 1.2524 -4.25241 0
M  V30 1763 H 157.65 0.0371659 -0.66997 0
M  V30 1764 H 160.194 -0.530832 -1.9749 0
M  V30 1765 H 158.349 1.3044 -3.6478 0
M  V30 1766 H 158.763 -0.23376 -5.23979 0
M  V30 1767 H 160.237 1.47458 -5.3194 0
M  V30 1768 H 160.714 2.2143 -3.79296 0
M  V30 1769 H 161.32 0.595233 -4.21114 0
M  V30 1770 N 159.635 1.57281 -0.100228 0
M  V30 1771 C 160.86 1.99302 0.573881 0
M  V30 1772 C 161.285 0.979059 1.60611 0
M  V30 1773 O 160.643 -0.0517803 1.81226 0
M  V30 1774 C 160.691 3.40274 1.19358 0
M  V30 1775 O 159.795 3.41676 2.30935 0
M  V30 1776 H 159.136 0.647944 0.145138 0
M  V30 1777 H 161.666 2.03779 -0.183156 0
M  V30 1778 H 161.676 3.78078 1.53365 0
M  V30 1779 H 160.351 4.13594 0.437385 0
M  V30 1780 H 158.928 3.15672 1.98509 0
M  V30 1781 N 161.113 -0.173488 1.56642 0
M  V30 1782 C 162.341 -0.906095 1.86004 0
M  V30 1783 C 162.756 -1.75921 0.685355 0
M  V30 1784 O 162.113 -1.79198 -0.345578 0
M  V30 1785 C 162.164 -1.78462 3.14378 0
M  V30 1786 O 161.885 -0.965914 4.27319 0
M  V30 1787 C 163.386 -2.62707 3.57071 0
M  V30 1788 H 160.606 -0.263341 0.617165 0
M  V30 1789 H 163.15 -0.174236 2.03756 0
M  V30 1790 H 161.305 -2.46984 2.98459 0
M  V30 1791 H 161.719 -1.56655 5.00559 0
M  V30 1792 H 163.193 -3.19969 4.49804 0
M  V30 1793 H 163.67 -3.37472 2.81086 0
M  V30 1794 H 164.276 -1.99521 3.75595 0
M  V30 1795 N 162.591 -1.51276 -0.441967 0
M  V30 1796 C 164.007 -1.39349 -0.778083 0
M  V30 1797 C 164.207 -0.472212 -1.95889 0
M  V30 1798 O 163.263 0.0743551 -2.5239 0
M  V30 1799 C 164.576 -2.81292 -1.0628 0
M  V30 1800 C 166.124 -2.9041 -1.16751 0
M  V30 1801 C 166.599 -4.33251 -1.48519 0
M  V30 1802 N 168.09 -4.36336 -1.55453 0
M  V30 1803 C 168.825 -5.43885 -1.81596 0
M  V30 1804 N 168.321 -6.61601 -2.05562 0
M  V30 1805 N 170.114 -5.3136 -1.8334 0
M  V30 1806 H 162.265 -2.09729 0.335774 0
M  V30 1807 H 164.528 -0.943925 0.0878028 0
M  V30 1808 H 164.234 -3.50678 -0.267905 0
M  V30 1809 H 164.108 -3.20334 -1.99163 0
M  V30 1810 H 166.495 -2.21225 -1.95304 0
M  V30 1811 H 166.576 -2.54871 -0.217801 0
M  V30 1812 H 166.22 -5.02984 -0.704958 0
M  V30 1813 H 166.15 -4.66299 -2.44689 0
M  V30 1814 H 168.641 -3.51466 -1.38853 0
M  V30 1815 H 168.954 -7.39361 -2.24867 0
M  V30 1816 H 167.299 -6.64725 -2.02894 0
M  V30 1817 H 170.49 -4.38382 -1.64132 0
M  V30 1818 H 170.663 -6.15258 -2.03377 0
M  V30 1819 N 164.069 0.697108 -1.41344 0
M  V30 1820 C 165.297 1.48593 -1.43972 0
M  V30 1821 C 165.712 1.88747 -0.0445612 0
M  V30 1822 O 165.069 1.56682 0.935785 0
M  V30 1823 C 165.12 2.74946 -2.34706 0
M  V30 1824 O 164.841 2.36484 -3.68791 0
M  V30 1825 C 166.342 3.687 -2.46121 0
M  V30 1826 H 163.562 0.457964 -0.490418 0
M  V30 1827 H 166.106 0.858429 -1.8561 0
M  V30 1828 H 164.261 3.33937 -1.9638 0
M  V30 1829 H 164.675 3.17918 -4.17167 0
M  V30 1830 H 166.149 4.54145 -3.13777 0
M  V30 1831 H 166.626 4.13081 -1.49199 0
M  V30 1832 H 167.232 3.15613 -2.85076 0
M  V30 1833 N 165.547 1.27147 0.931209 0
M  V30 1834 C 166.793 1.13446 1.68101 0
M  V30 1835 C 167.126 -0.319628 1.91552 0
M  V30 1836 O 166.401 -1.23407 1.50336 0
M  V30 1837 C 166.684 1.91482 3.0497 0
M  V30 1838 C 166.537 3.44855 2.88782 0
M  V30 1839 C 167.856 1.71651 4.05246 0
M  V30 1840 H 164.975 0.413498 0.610072 0
M  V30 1841 H 167.617 1.56261 1.08086 0
M  V30 1842 H 165.767 1.55095 3.56199 0
M  V30 1843 H 167.439 3.9105 2.44698 0
M  V30 1844 H 165.682 3.71373 2.24198 0
M  V30 1845 H 166.353 3.94694 3.85902 0
M  V30 1846 H 168.829 2.0337 3.63015 0
M  V30 1847 H 167.705 2.28651 4.99009 0
M  V30 1848 H 167.966 0.663555 4.37092 0
M  V30 1849 N 167.025 -1.13721 1.09112 0
M  V30 1850 C 167.988 -2.17222 0.731241 0
M  V30 1851 C 168.988 -1.59035 -0.237566 0
M  V30 1852 O 170.178 -1.74192 -0.0161704 0
M  V30 1853 C 167.31 -3.40804 0.0808443 0
M  V30 1854 H 168.503 -2.50573 1.64783 0
M  V30 1855 H 166.056 -1.28493 0.889897 0
M  V30 1856 H 166.791 -3.1304 -0.847127 0
M  V30 1857 H 166.576 -3.84306 0.777896 0
M  V30 1858 H 168.066 -4.1731 -0.155657 0
M  V30 1859 N 168.503 -0.877838 -1.30888 0
M  V30 1860 C 169.731 -0.507414 -2.00581 0
M  V30 1861 C 170.146 0.902216 -1.65848 0
M  V30 1862 O 169.503 1.59225 -0.891831 0
M  V30 1863 C 169.554 -0.664162 -3.55347 0
M  V30 1864 O 169.275 -2.01829 -3.8884 0
M  V30 1865 C 170.776 -0.295787 -4.42312 0
M  V30 1866 H 167.996 -0.196866 -0.641471 0
M  V30 1867 H 170.54 -1.18117 -1.66939 0
M  V30 1868 H 168.695 -0.0378619 -3.87381 0
M  V30 1869 H 169.109 -2.03174 -4.8355 0
M  V30 1870 H 170.583 -0.456388 -5.5011 0
M  V30 1871 H 171.06 0.765663 -4.32475 0
M  V30 1872 H 171.666 -0.898113 -4.15709 0
M  V30 1873 N 169.982 1.44106 -0.638065 0
M  V30 1874 C 170.914 2.28976 0.101205 0
M  V30 1875 C 171.927 1.4167 0.802088 0
M  V30 1876 O 173.116 1.65755 0.662375 0
M  V30 1877 C 170.216 3.18217 1.16581 0
M  V30 1878 C 169.389 4.33978 0.546066 0
M  V30 1879 C 168.448 5.04202 1.50554 0
M  V30 1880 O 167.474 5.59986 1.01999 0
M  V30 1881 N 168.676 5.06296 2.8398 0
M  V30 1882 H 171.441 2.93064 -0.627186 0
M  V30 1883 H 169.002 1.54629 -0.479731 0
M  V30 1884 H 170.994 3.62061 1.80815 0
M  V30 1885 H 169.564 2.55833 1.79634 0
M  V30 1886 H 168.784 3.93239 -0.275046 0
M  V30 1887 H 170.072 5.08675 0.112793 0
M  V30 1888 H 169.47 4.62319 3.26002 0
M  V30 1889 H 168.027 5.53907 3.43556 0
M  V30 1890 N 171.46 0.379036 1.52974 0
M  V30 1891 C 172.688 -0.20679 2.05864 0
M  V30 1892 C 173.103 -1.41356 1.25155 0
M  V30 1893 O 172.46 -1.8009 0.295588 0
M  V30 1894 C 172.511 -0.587045 3.56702 0
M  V30 1895 O 172.232 0.571776 4.34353 0
M  V30 1896 C 173.733 -1.22983 4.25899 0
M  V30 1897 H 170.953 -0.0336123 0.670158 0
M  V30 1898 H 173.497 0.541298 1.97206 0
M  V30 1899 H 171.652 -1.28504 3.65466 0
M  V30 1900 H 172.066 0.261544 5.23847 0
M  V30 1901 H 173.54 -1.44635 5.32715 0
M  V30 1902 H 174.017 -2.19416 3.80465 0
M  V30 1903 H 174.623 -0.572892 4.21424 0
M  V30 1904 N 172.938 -1.57226 0.108567 0
M  V30 1905 C 173.885 -2.14756 -0.845481 0
M  V30 1906 C 174.855 -1.06971 -1.27068 0
M  V30 1907 O 176.04 -1.34827 -1.35005 0
M  V30 1908 C 173.18 -2.74298 -2.09415 0
M  V30 1909 C 172.293 -3.96358 -1.71826 0
M  V30 1910 C 171.428 -4.44021 -2.9158 0
M  V30 1911 C 170.467 -5.58637 -2.50181 0
M  V30 1912 N 169.604 -6.01091 -3.62814 0
M  V30 1913 H 174.444 -2.95961 -0.348035 0
M  V30 1914 H 171.981 -1.46226 -0.160106 0
M  V30 1915 H 173.939 -3.06945 -2.82561 0
M  V30 1916 H 172.569 -1.95801 -2.56636 0
M  V30 1917 H 171.621 -3.69939 -0.885947 0
M  V30 1918 H 172.933 -4.79504 -1.37394 0
M  V30 1919 H 172.087 -4.78522 -3.72963 0
M  V30 1920 H 170.826 -3.59803 -3.29231 0
M  V30 1921 H 169.831 -5.23751 -1.67228 0
M  V30 1922 H 171.056 -6.44613 -2.13659 0
M  V30 1923 H 169.002 -5.19817 -4.00158 0
M  V30 1924 H 168.919 -6.79066 -3.32273 0
M  V30 1925 H 170.187 -6.40227 -4.44668 0
M  V30 1926 N 174.416 0.165178 -1.56732 0
M  V30 1927 C 175.363 1.2044 -1.96883 0
M  V30 1928 C 176.333 1.43664 -0.833657 0
M  V30 1929 O 177.518 1.56302 -1.09427 0
M  V30 1930 C 174.658 2.53727 -2.33916 0
M  V30 1931 C 173.771 2.3783 -3.6064 0
M  V30 1932 C 172.906 3.64026 -3.86857 0
M  V30 1933 C 171.945 3.43088 -5.06909 0
M  V30 1934 N 171.082 4.61369 -5.29229 0
M  V30 1935 H 175.922 0.854996 -2.85471 0
M  V30 1936 H 173.459 0.41076 -1.41249 0
M  V30 1937 H 175.417 3.31419 -2.53411 0
M  V30 1938 H 174.047 2.8665 -1.48431 0
M  V30 1939 H 173.099 1.51282 -3.49024 0
M  V30 1940 H 174.411 2.18308 -4.4849 0
M  V30 1941 H 173.565 4.50152 -4.06753 0
M  V30 1942 H 172.304 3.86533 -2.97394 0
M  V30 1943 H 171.309 2.55349 -4.86906 0
M  V30 1944 H 172.534 3.21997 -5.97909 0
M  V30 1945 H 170.48 4.84084 -4.42718 0
M  V30 1946 H 170.397 4.44783 -6.11313 0
M  V30 1947 H 171.665 5.48761 -5.53608 0
M  V30 1948 N 175.894 1.51508 0.433938 0
M  V30 1949 C 177.171 1.54888 1.19453 0
M  V30 1950 C 177.551 0.315154 2.08734 0
M  V30 1951 O 176.899 -0.699558 2.17528 0
M  V30 1952 C 177.109 2.86467 1.99342 0
M  V30 1953 C 178.457 3.38545 2.56267 0
M  V30 1954 O 179.481 2.88041 2.0955 0
M  V30 1955 O 178.34 4.26675 3.41483 0
M  V30 1956 H 175.434 0.622863 0.544032 0
M  V30 1957 H 177.98 1.63823 0.442732 0
M  V30 1958 H 176.752 3.67718 1.33788 0
M  V30 1959 H 176.375 2.8071 2.8158 0
M  V30 1960 N 177.372 -0.689602 1.41712 0
M  V30 1961 C 178.282 -1.83314 1.46401 0
M  V30 1962 C 179.298 -1.7036 0.35405 0
M  V30 1963 O 180.474 -1.92171 0.602692 0
M  V30 1964 C 177.539 -3.19344 1.34982 0
M  V30 1965 C 176.6 -3.44363 2.56344 0
M  V30 1966 C 175.833 -4.73904 2.45461 0
M  V30 1967 O 176.056 -5.508 1.48241 0
M  V30 1968 O 174.99 -4.99839 3.35328 0
M  V30 1969 H 178.816 -1.82314 2.42889 0
M  V30 1970 H 176.401 -0.843438 1.23315 0
M  V30 1971 H 178.283 -4.00547 1.3092 0
M  V30 1972 H 176.958 -3.21014 0.41612 0
M  V30 1973 H 175.865 -2.63067 2.65982 0
M  V30 1974 H 177.198 -3.47512 3.48563 0
M  V30 1975 N 178.85 -1.27639 -0.924453 0
M  V30 1976 C 179.76 -1.12466 -2.05885 0
M  V30 1977 C 180.776 -0.053869 -1.73917 0
M  V30 1978 O 181.952 -0.261012 -1.99702 0
M  V30 1979 C 179.017 -0.776768 -3.37886 0
M  V30 1980 C 178.078 -1.92878 -3.83532 0
M  V30 1981 C 177.311 -1.59739 -5.09234 0
M  V30 1982 O 177.534 -0.506782 -5.68144 0
M  V30 1983 O 176.468 -2.43761 -5.50331 0
M  V30 1984 H 180.294 -2.07671 -2.21599 0
M  V30 1985 H 177.879 -1.06857 -1.04413 0
M  V30 1986 H 179.761 -0.596229 -4.17161 0
M  V30 1987 H 178.436 0.145732 -3.23372 0
M  V30 1988 H 177.343 -2.1644 -3.0513 0
M  V30 1989 H 178.676 -2.8316 -4.02593 0
M  V30 1990 N 180.328 1.1314 -1.09713 0
M  V30 1991 C 181.276 2.20717 -0.733934 0
M  V30 1992 C 182.27 1.6729 0.266506 0
M  V30 1993 O 183.476 1.79547 0.127656 0
M  V30 1994 H 179.851 0.719292 -0.21937 0
M  V30 1995 H 181.822 2.48611 -1.6503 0
M  V30 1996 C 180.571 3.47265 -0.173849 0
M  V30 1997 H 179.894 3.88716 -0.934873 0
M  V30 1998 H 181.334 4.23979 0.0423126 0
M  V30 1999 C 179.793 3.18724 1.09164 0
M  V30 2000 O 180.323 3.37762 2.17439 0
M  V30 2001 N 178.529 2.72583 1.00732 0
M  V30 2002 H 178.076 2.57291 0.126121 0
M  V30 2003 H 178.034 2.53862 1.85476 0
M  V30 2004 N 181.806 0.884767 1.30421 0
M  V30 2005 C 182.753 0.349642 2.28136 0
M  V30 2006 C 183.723 -0.560061 1.56373 0
M  V30 2007 O 184.908 -0.488524 1.8444 0
M  V30 2008 C 182.048 -0.42999 3.42411 0
M  V30 2009 C 181.161 0.508907 4.28992 0
M  V30 2010 C 180.296 -0.286301 5.30428 0
M  V30 2011 C 179.335 0.648079 6.08659 0
M  V30 2012 N 178.472 -0.111792 7.02011 0
M  V30 2013 H 183.312 1.18807 2.73293 0
M  V30 2014 H 180.849 0.597231 1.3443 0
M  V30 2015 H 182.807 -0.897923 4.07423 0
M  V30 2016 H 181.437 -1.23299 2.98324 0
M  V30 2017 H 180.489 1.09533 3.64289 0
M  V30 2018 H 181.801 1.22475 4.8353 0
M  V30 2019 H 180.955 -0.816098 6.01186 0
M  V30 2020 H 179.694 -1.03536 4.76583 0
M  V30 2021 H 178.699 1.18951 5.36778 0
M  V30 2022 H 179.924 1.39623 6.64592 0
M  V30 2023 H 177.87 -0.843395 6.50556 0
M  V30 2024 H 177.787 0.544429 7.54037 0
M  V30 2025 H 179.055 -0.622339 7.77012 0
M  V30 2026 N 183.284 -1.43765 0.645699 0
M  V30 2027 C 184.509 -2.06767 0.161883 0
M  V30 2028 C 184.934 -1.48034 -1.16049 0
M  V30 2029 O 184.292 -0.587369 -1.71522 0
M  V30 2030 C 184.34 -3.60519 0.0762003 0
M  V30 2031 O 183.444 -4.00982 -0.963721 0
M  V30 2032 H 182.785 -0.657675 0.091429 0
M  V30 2033 H 185.315 -1.84397 0.886499 0
M  V30 2034 H 185.325 -4.07853 -0.109604 0
M  V30 2035 H 184 -4.02646 1.04157 0
M  V30 2036 H 182.577 -3.65253 -0.751312 0
M  V30 2037 N 184.763 -0.387143 -1.52771 0
M  V30 2038 C 186.009 0.196025 -2.0185 0
M  V30 2039 C 186.342 1.46641 -1.27319 0
M  V30 2040 O 185.617 1.90889 -0.373032 0
M  V30 2041 C 185.9 0.466136 -3.5707 0
M  V30 2042 C 185.753 -0.819385 -4.42274 0
M  V30 2043 C 187.072 1.25768 -4.21747 0
M  V30 2044 H 184.191 0.0697708 -0.73369 0
M  V30 2045 H 186.833 -0.516286 -1.82851 0
M  V30 2046 H 184.983 1.07293 -3.7339 0
M  V30 2047 H 186.655 -1.4563 -4.37709 0
M  V30 2048 H 184.898 -1.43517 -4.09372 0
M  V30 2049 H 185.569 -0.585065 -5.48891 0
M  V30 2050 H 188.045 0.744167 -4.09391 0
M  V30 2051 H 186.921 1.41541 -5.30337 0
M  V30 2052 H 187.182 2.27228 -3.79236 0
M  V30 2053 N 186.241 1.57166 -0.116904 0
M  V30 2054 C 187.487 1.95412 0.542405 0
M  V30 2055 C 187.82 1.00019 1.66463 0
M  V30 2056 O 187.095 0.0370346 1.94465 0
M  V30 2057 C 187.378 3.43615 1.07708 0
M  V30 2058 C 187.231 4.49781 -0.0415868 0
M  V30 2059 C 188.55 3.93616 1.96861 0
M  V30 2060 H 185.669 0.710543 0.195696 0
M  V30 2061 H 188.311 1.89027 -0.192038 0
M  V30 2062 H 186.461 3.49187 1.70296 0
M  V30 2063 H 188.133 4.56308 -0.676793 0
M  V30 2064 H 186.376 4.28033 -0.705019 0
M  V30 2065 H 187.047 5.50733 0.373717 0
M  V30 2066 H 189.523 3.90335 1.44146 0
M  V30 2067 H 188.399 4.97838 2.3119 0
M  V30 2068 H 188.66 3.34188 2.89432 0
M  V30 2069 N 187.719 -0.156864 1.56817 0
M  V30 2070 C 188.947 -0.886316 1.86955 0
M  V30 2071 C 189.362 -1.75185 0.703975 0
M  V30 2072 O 188.719 -1.79555 -0.326552 0
M  V30 2073 C 188.77 -1.75117 3.16253 0
M  V30 2074 O 188.491 -0.920537 4.2832 0
M  V30 2075 C 189.992 -2.58905 3.59837 0
M  V30 2076 H 187.212 -0.25678 0.619923 0
M  V30 2077 H 189.756 -0.152615 2.0393 0
M  V30 2078 H 187.911 -2.43805 3.01062 0
M  V30 2079 H 188.325 -1.51337 5.02192 0
M  V30 2080 H 189.799 -3.1518 4.53172 0
M  V30 2081 H 190.276 -3.34472 2.84649 0
M  V30 2082 H 190.882 -1.95526 3.7769 0
M  V30 2083 N 189.197 -1.51736 -0.425897 0
M  V30 2084 C 190.107 -1.76738 -1.54275 0
M  V30 2085 C 191.123 -0.65211 -1.61318 0
M  V30 2086 O 192.299 -0.935654 -1.78346 0
M  V30 2087 C 189.364 -1.89755 -2.90162 0
M  V30 2088 C 188.425 -3.13633 -2.93143 0
M  V30 2089 C 187.658 -3.2602 -4.22548 0
M  V30 2090 O 187.881 -2.44067 -5.15546 0
M  V30 2091 O 186.815 -4.19071 -4.32046 0
M  V30 2092 H 190.641 -2.71502 -1.36089 0
M  V30 2093 H 188.226 -1.36376 -0.610069 0
M  V30 2094 H 190.108 -2.00236 -3.70788 0
M  V30 2095 H 188.783 -0.981785 -3.08452 0
M  V30 2096 H 187.69 -3.08622 -2.11431 0
M  V30 2097 H 189.023 -4.04936 -2.798 0
M  V30 2098 N 190.675 0.682077 -1.42076 0
M  V30 2099 C 191.585 1.82535 -1.47371 0
M  V30 2100 C 192.601 1.7017 -0.363079 0
M  V30 2101 O 193.777 1.91848 -0.612875 0
M  V30 2102 C 190.842 3.18624 -1.36674 0
M  V30 2103 C 189.903 3.42999 -2.58167 0
M  V30 2104 C 189.136 4.72595 -2.4797 0
M  V30 2105 O 189.359 5.50006 -1.5116 0
M  V30 2106 O 188.293 4.98054 -3.37974 0
M  V30 2107 H 192.119 1.81023 -2.43853 0
M  V30 2108 H 189.704 0.836887 -1.2376 0
M  V30 2109 H 191.586 3.99847 -1.33043 0
M  V30 2110 H 190.261 3.20789 -0.433138 0
M  V30 2111 H 189.168 2.61653 -2.67373 0
M  V30 2112 H 190.501 3.45659 -3.50401 0
M  V30 2113 N 192.153 1.28127 0.917671 0
M  V30 2114 C 193.085 1.07517 2.02417 0
M  V30 2115 C 194.098 0.0281099 1.62776 0
M  V30 2116 O 195.287 0.270748 1.76435 0
M  V30 2117 C 192.387 0.610957 3.33347 0
M  V30 2118 C 191.56 1.73255 4.01624 0
M  V30 2119 C 190.619 1.26238 5.10833 0
M  V30 2120 O 189.645 1.96389 5.34247 0
M  V30 2121 N 190.847 0.123448 5.80369 0
M  V30 2122 H 193.612 2.02806 2.20658 0
M  V30 2123 H 191.173 1.19827 1.08871 0
M  V30 2124 H 193.165 0.280101 4.0373 0
M  V30 2125 H 191.735 -0.24898 3.11607 0
M  V30 2126 H 190.955 2.23319 3.24842 0
M  V30 2127 H 192.243 2.48503 4.43986 0
M  V30 2128 H 191.641 -0.461847 5.63812 0
M  V30 2129 H 190.198 -0.148158 6.51632 0
M  V30 2130 N 193.631 -1.12557 1.10312 0
M  V30 2131 C 194.578 -2.18247 0.750781 0
M  V30 2132 C 195.548 -1.63853 -0.272293 0
M  V30 2133 O 196.733 -1.90195 -0.151862 0
M  V30 2134 C 193.873 -3.44591 0.187379 0
M  V30 2135 C 192.986 -4.13046 1.2656 0
M  V30 2136 C 192.121 -5.27034 0.663978 0
M  V30 2137 C 191.16 -5.87353 1.72287 0
M  V30 2138 N 190.297 -6.92757 1.1416 0
M  V30 2139 H 195.137 -2.47732 1.65628 0
M  V30 2140 H 192.674 -1.21629 0.827337 0
M  V30 2141 H 194.632 -4.16904 -0.157148 0
M  V30 2142 H 193.262 -3.15527 -0.681355 0
M  V30 2143 H 192.314 -3.38924 1.72727 0
M  V30 2144 H 193.626 -4.53947 2.06721 0
M  V30 2145 H 192.78 -6.06104 0.268824 0
M  V30 2146 H 191.519 -4.87407 -0.169082 0
M  V30 2147 H 190.524 -5.06971 2.12746 0
M  V30 2148 H 191.749 -6.29051 2.55875 0
M  V30 2149 H 189.695 -6.5517 0.329984 0
M  V30 2150 H 189.612 -7.3225 1.88007 0
M  V30 2151 H 190.88 -7.75658 0.772956 0
M  V30 2152 N 195.109 -0.891671 -1.2995 0
M  V30 2153 C 196.355 -0.514261 -1.96171 0
M  V30 2154 C 196.688 0.935506 -1.70182 0
M  V30 2155 O 195.963 1.66204 -1.01028 0
M  V30 2156 C 196.246 -0.797719 -3.51153 0
M  V30 2157 C 196.099 -2.2986 -3.86632 0
M  V30 2158 C 197.418 -0.278749 -4.39216 0
M  V30 2159 H 194.537 -0.188314 -0.712535 0
M  V30 2160 H 197.179 -1.11689 -1.53706 0
M  V30 2161 H 195.329 -0.284826 -3.87455 0
M  V30 2162 H 197.001 -2.88042 -3.60319 0
M  V30 2163 H 195.244 -2.76257 -3.34462 0
M  V30 2164 H 195.915 -2.44753 -4.94773 0
M  V30 2165 H 198.391 -0.717825 -4.09862 0
M  V30 2166 H 197.267 -0.506353 -5.46559 0
M  V30 2167 H 197.528 0.820266 -4.34424 0
M  V30 2168 N 196.587 1.43421 -0.653314 0
M  V30 2169 C 197.497 2.34568 0.0388565 0
M  V30 2170 C 198.513 1.53888 0.81207 0
M  V30 2171 O 199.689 1.86539 0.759294 0
M  V30 2172 C 196.754 3.32167 0.993269 0
M  V30 2173 C 195.815 4.28751 0.216977 0
M  V30 2174 C 195.048 5.21688 1.12593 0
M  V30 2175 O 195.271 5.19052 2.36519 0
M  V30 2176 O 194.205 5.98919 0.598284 0
M  V30 2177 H 198.031 2.95251 -0.711386 0
M  V30 2178 H 195.616 1.43564 -0.413502 0
M  V30 2179 H 197.498 3.92183 1.54176 0
M  V30 2180 H 196.173 2.73987 1.72374 0
M  V30 2181 H 195.08 3.72215 -0.375101 0
M  V30 2182 H 196.413 4.89913 -0.473924 0
M  V30 2183 N 198.065 0.39524 1.52563 0
M  V30 2184 C 199.29 -0.187456 2.06551 0
M  V30 2185 C 199.715 -1.39249 1.26457 0
M  V30 2186 O 199.073 -1.78947 0.291151 0
M  V30 2187 C 199.121 -0.529985 3.56684 0
M  V30 2188 O 198.225 -1.62307 3.79118 0
M  V30 2189 H 197.566 -0.0202537 0.663691 0
M  V30 2190 H 200.096 0.564426 1.96661 0
M  V30 2191 H 200.106 -0.792598 4.00227 0
M  V30 2192 H 198.781 0.350987 4.14416 0
M  V30 2193 H 197.358 -1.3537 3.47461 0
M  V30 2194 N 199.544 -1.57102 0.125237 0
M  V30 2195 C 200.821 -1.86953 -0.575142 0
M  V30 2196 C 201.201 -1.02749 -1.84407 0
M  V30 2197 O 200.549 -0.108144 -2.28244 0
M  V30 2198 C 200.759 -3.38198 -0.861583 0
M  V30 2199 C 202.107 -4.06937 -1.21192 0
M  V30 2200 O 203.131 -3.43252 -0.951645 0
M  V30 2201 O 201.99 -5.19364 -1.70068 0
M  V30 2202 H 199.084 -0.774147 -0.290906 0
M  V30 2203 H 201.63 -1.68942 0.160211 0
M  V30 2204 H 200.402 -3.91282 0.0373647 0
M  V30 2205 H 200.025 -3.61661 -1.65188 0
M  V30 2206 N 201.022 0.148545 -1.56898 0
M  V30 2207 C 202.247 0.880385 -1.87787 0
M  V30 2208 C 202.672 1.74018 -0.714093 0
M  V30 2209 O 202.03 1.78153 0.336343 0
M  V30 2210 C 202.078 1.71422 -3.17249 0
M  V30 2211 O 201.182 2.8183 -3.01074 0
M  V30 2212 H 200.523 0.245301 -0.617028 0
M  V30 2213 H 203.053 0.139826 -2.04122 0
M  V30 2214 H 203.063 2.10954 -3.49231 0
M  V30 2215 H 201.738 1.08284 -4.01556 0
M  V30 2216 H 200.315 2.45715 -2.80497 0
M  V30 2217 N 202.5 1.5196 0.417844 0
M  V30 2218 C 203.41 1.77554 1.53336 0
M  V30 2219 C 204.426 0.660655 1.6097 0
M  V30 2220 O 205.602 0.945099 1.77848 0
M  V30 2221 C 202.667 1.91291 2.89152 0
M  V30 2222 C 201.728 3.15183 2.91475 0
M  V30 2223 C 200.961 3.28256 4.20813 0
M  V30 2224 O 201.184 2.46798 5.14244 0
M  V30 2225 O 200.118 4.21356 4.29817 0
M  V30 2226 H 203.944 2.7222 1.34647 0
M  V30 2227 H 201.529 1.36698 0.602828 0
M  V30 2228 H 203.411 2.02199 3.69721 0
M  V30 2229 H 202.086 0.998129 3.07927 0
M  V30 2230 H 200.993 3.09739 2.09791 0
M  V30 2231 H 202.326 4.06414 2.77648 0
M  V30 2232 N 203.978 -0.674533 1.42435 0
M  V30 2233 C 204.925 -1.78807 1.45934 0
M  V30 2234 C 205.895 -1.63157 0.311271 0
M  V30 2235 O 207.08 -1.83707 0.515383 0
M  V30 2236 C 204.22 -3.16839 1.36773 0
M  V30 2237 C 203.333 -3.43774 2.61617 0
M  V30 2238 C 202.468 -4.71536 2.44597 0
M  V30 2239 C 201.507 -4.91505 3.64814 0
M  V30 2240 N 200.644 -6.10508 3.46734 0
M  V30 2241 H 205.484 -1.75151 2.41093 0
M  V30 2242 H 203.021 -0.85504 1.19697 0
M  V30 2243 H 204.979 -3.96606 1.29459 0
M  V30 2244 H 203.609 -3.19619 0.452089 0
M  V30 2245 H 202.661 -2.58259 2.79297 0
M  V30 2246 H 203.973 -3.54423 3.50978 0
M  V30 2247 H 203.127 -5.59393 2.3487 0
M  V30 2248 H 201.866 -4.6317 1.52726 0
M  V30 2249 H 200.871 -4.0209 3.74972 0
M  V30 2250 H 202.096 -5.01716 4.57665 0
M  V30 2251 H 200.042 -6.03315 2.5758 0
M  V30 2252 H 199.959 -6.2202 4.29682 0
M  V30 2253 H 201.227 -7.01044 3.40819 0
M  V30 2254 N 205.456 -1.28612 -0.910864 0
M  V30 2255 C 206.388 -1.08589 -2.01844 0
M  V30 2256 C 207.401 -0.0367419 -1.62759 0
M  V30 2257 O 208.59 -0.280101 -1.76289 0
M  V30 2258 C 205.69 -0.628626 -3.33019 0
M  V30 2259 C 204.863 -1.75382 -4.00699 0
M  V30 2260 C 203.922 -1.28945 -5.10156 0
M  V30 2261 O 202.948 -1.9922 -5.33198 0
M  V30 2262 N 204.15 -0.154224 -5.80295 0
M  V30 2263 H 206.915 -2.03973 -2.19579 0
M  V30 2264 H 204.476 -1.20403 -1.08234 0
M  V30 2265 H 206.468 -0.301508 -4.03575 0
M  V30 2266 H 205.038 0.232451 -3.11735 0
M  V30 2267 H 204.258 -2.25039 -3.23653 0
M  V30 2268 H 205.546 -2.50854 -4.42662 0
M  V30 2269 H 204.944 0.43194 -5.64049 0
M  V30 2270 H 203.501 0.113599 -6.51701 0
M  V30 2271 N 206.934 1.1197 -1.10907 0
M  V30 2272 C 207.881 2.17846 -0.762345 0
M  V30 2273 C 208.851 1.63995 0.263599 0
M  V30 2274 O 210.036 1.90273 0.141773 0
M  V30 2275 C 207.176 3.44487 -0.205651 0
M  V30 2276 C 206.289 4.12369 -1.28748 0
M  V30 2277 C 205.424 5.26674 -0.691919 0
M  V30 2278 C 204.463 5.86431 -1.75399 0
M  V30 2279 N 203.6 6.92142 -1.17833 0
M  V30 2280 H 208.44 2.46851 -1.6694 0
M  V30 2281 H 205.977 1.21188 -0.833776 0
M  V30 2282 H 207.935 4.16981 0.135037 0
M  V30 2283 H 206.565 3.15884 0.664613 0
M  V30 2284 H 205.617 3.38003 -1.74522 0
M  V30 2285 H 206.929 4.52844 -2.09125 0
M  V30 2286 H 206.083 6.05953 -0.300963 0
M  V30 2287 H 204.822 4.8749 0.143232 0
M  V30 2288 H 203.827 5.05835 -2.15432 0
M  V30 2289 H 205.052 6.27685 -2.59208 0
M  V30 2290 H 202.998 6.54985 -0.364725 0
M  V30 2291 H 202.915 7.31242 -1.91887 0
M  V30 2292 H 204.183 7.75237 -0.81408 0
M  V30 2293 N 208.412 0.89855 1.29475 0
M  V30 2294 C 209.828 0.594483 1.48115 0
M  V30 2295 C 210.028 -0.86431 1.82022 0
M  V30 2296 O 209.084 -1.64457 1.91599 0
M  V30 2297 C 210.397 1.51932 2.59494 0
M  V30 2298 C 211.945 1.5244 2.7337 0
M  V30 2299 C 212.42 2.43548 3.87877 0
M  V30 2300 N 213.911 2.41589 3.95208 0
M  V30 2301 C 214.646 3.08789 4.83153 0
M  V30 2302 N 214.142 3.85265 5.75798 0
M  V30 2303 N 215.935 2.97952 4.76635 0
M  V30 2304 H 208.086 1.84207 1.05742 0
M  V30 2305 H 210.349 0.789251 0.525154 0
M  V30 2306 H 210.055 2.55865 2.41301 0
M  V30 2307 H 209.929 1.23899 3.56271 0
M  V30 2308 H 212.316 0.492518 2.90961 0
M  V30 2309 H 212.397 1.8451 1.77172 0
M  V30 2310 H 212.041 3.46829 3.71041 0
M  V30 2311 H 211.971 2.08788 4.83441 0
M  V30 2312 H 214.462 1.86025 3.28943 0
M  V30 2313 H 214.775 4.33598 6.39697 0
M  V30 2314 H 213.12 3.89371 5.75687 0
M  V30 2315 H 216.311 2.37723 4.03244 0
M  V30 2316 H 216.484 3.50599 5.44962 0
M  V30 2317 N 209.89 -1.43072 0.660911 0
M  V30 2318 C 211.118 -2.06067 0.185422 0
M  V30 2319 C 211.533 -1.49582 -1.15198 0
M  V30 2320 O 210.89 -0.630134 -1.71276 0
M  V30 2321 C 210.941 -3.61371 0.0966523 0
M  V30 2322 O 210.662 -4.15758 1.38119 0
M  V30 2323 C 212.163 -4.41455 -0.403996 0
M  V30 2324 H 209.383 -0.664459 0.0934604 0
M  V30 2325 H 211.927 -1.83447 0.90373 0
M  V30 2326 H 210.082 -3.8315 -0.572259 0
M  V30 2327 H 210.496 -5.09499 1.24542 0
M  V30 2328 H 211.97 -5.50437 -0.415045 0
M  V30 2329 H 212.447 -4.15036 -1.43674 0
M  V30 2330 H 213.053 -4.24663 0.232691 0
M  V30 2331 N 211.368 -0.403325 -1.52352 0
M  V30 2332 C 212.315 0.425011 -2.26853 0
M  V30 2333 C 213.285 1.04598 -1.29029 0
M  V30 2334 O 214.47 1.07135 -1.57882 0
M  V30 2335 C 211.61 1.53888 -3.08889 0
M  V30 2336 C 210.723 0.939396 -4.21663 0
M  V30 2337 C 209.858 2.02547 -4.91068 0
M  V30 2338 C 208.897 1.40263 -5.95813 0
M  V30 2339 N 208.034 2.4286 -6.58759 0
M  V30 2340 H 212.874 -0.21674 -2.97211 0
M  V30 2341 H 210.411 -0.118722 -1.4662 0
M  V30 2342 H 212.369 2.19558 -3.54753 0
M  V30 2343 H 210.999 2.15074 -2.40714 0
M  V30 2344 H 210.051 0.171898 -3.80011 0
M  V30 2345 H 211.363 0.44436 -4.96817 0
M  V30 2346 H 210.517 2.75958 -5.40308 0
M  V30 2347 H 209.256 2.55415 -4.15469 0
M  V30 2348 H 208.261 0.653833 -5.45898 0
M  V30 2349 H 209.486 0.881719 -6.73352 0
M  V30 2350 H 207.432 2.94871 -5.85992 0
M  V30 2351 H 207.349 1.98152 -7.2957 0
M  V30 2352 H 208.617 3.15858 -7.12639 0
M  V30 2353 N 212.846 1.57033 -0.133567 0
M  V30 2354 C 213.793 2.16074 0.811208 0
M  V30 2355 C 214.763 1.08979 1.2535 0
M  V30 2356 O 215.948 1.36958 1.32843 0
M  V30 2357 C 213.088 2.77595 2.05024 0
M  V30 2358 C 212.201 3.99042 1.65498 0
M  V30 2359 C 211.336 4.48603 2.84479 0
M  V30 2360 C 210.375 5.62547 2.41262 0
M  V30 2361 N 209.512 6.06787 3.53206 0
M  V30 2362 H 214.352 2.96477 0.300906 0
M  V30 2363 H 211.889 1.46462 0.136822 0
M  V30 2364 H 213.847 3.11402 2.77642 0
M  V30 2365 H 212.477 1.99859 2.53488 0
M  V30 2366 H 211.529 3.71302 0.826981 0
M  V30 2367 H 212.841 4.81629 1.29748 0
M  V30 2368 H 211.995 4.84395 3.65303 0
M  V30 2369 H 210.734 3.64995 3.23465 0
M  V30 2370 H 209.739 5.26345 1.58874 0
M  V30 2371 H 210.964 6.47931 2.03377 0
M  V30 2372 H 208.91 5.26117 3.91838 0
M  V30 2373 H 208.827 6.84266 3.21427 0
M  V30 2374 H 210.095 6.4722 4.34427 0
M  V30 2375 N 214.325 -0.140222 1.56975 0
M  V30 2376 C 215.571 -0.852949 1.83991 0
M  V30 2377 C 215.904 -1.80512 0.716187 0
M  V30 2378 O 215.179 -1.92479 -0.279681 0
M  V30 2379 C 215.462 -1.6215 3.21527 0
M  V30 2380 C 215.315 -0.690363 4.4447 0
M  V30 2381 C 216.634 -2.58247 3.56366 0
M  V30 2382 H 213.753 -0.308634 0.669264 0
M  V30 2383 H 216.395 -0.117898 1.89634 0
M  V30 2384 H 214.545 -2.24812 3.16847 0
M  V30 2385 H 216.217 -0.0742264 4.6124 0
M  V30 2386 H 214.46 -0.000396433 4.338 0
M  V30 2387 H 215.131 -1.2643 5.37326 0
M  V30 2388 H 217.607 -2.05701 3.61699 0
M  V30 2389 H 216.483 -3.09067 4.53617 0
M  V30 2390 H 216.744 -3.39923 2.82674 0
M  V30 2391 N 215.803 -1.52179 -0.40978 0
M  V30 2392 C 217.049 -1.66453 -1.15851 0
M  V30 2393 C 217.382 -0.392972 -1.90182 0
M  V30 2394 O 216.657 0.608579 -1.84734 0
M  V30 2395 C 216.94 -2.88612 -2.15349 0
M  V30 2396 C 216.793 -4.25815 -1.44918 0
M  V30 2397 C 218.112 -3.06294 -3.16026 0
M  V30 2398 H 215.231 -0.60575 -0.419805 0
M  V30 2399 H 217.873 -1.84732 -0.444314 0
M  V30 2400 H 216.023 -2.73158 -2.76255 0
M  V30 2401 H 217.695 -4.52995 -0.871365 0
M  V30 2402 H 215.938 -4.27247 -0.751159 0
M  V30 2403 H 216.609 -5.07337 -2.17516 0
M  V30 2404 H 219.085 -3.20641 -2.65195 0
M  V30 2405 H 217.961 -3.93283 -3.8291 0
M  V30 2406 H 218.222 -2.19579 -3.83715 0
M  V30 2407 N 217.281 0.66697 -1.42791 0
M  V30 2408 C 218.228 1.7803 -1.4688 0
M  V30 2409 C 219.198 1.6299 -0.319919 0
M  V30 2410 O 220.383 1.83432 -0.525118 0
M  V30 2411 C 217.523 3.1611 -1.38451 0
M  V30 2412 C 216.636 3.42381 -2.63437 0
M  V30 2413 C 215.771 4.70232 -2.47094 0
M  V30 2414 C 214.81 4.89564 -3.67415 0
M  V30 2415 N 213.947 6.08661 -3.49966 0
M  V30 2416 H 218.787 1.7387 -2.42019 0
M  V30 2417 H 216.324 0.84868 -1.20149 0
M  V30 2418 H 218.282 3.95914 -1.31561 0
M  V30 2419 H 216.912 3.19374 -0.469033 0
M  V30 2420 H 215.964 2.56774 -2.80662 0
M  V30 2421 H 217.276 3.52557 -3.52853 0
M  V30 2422 H 216.43 5.5814 -2.37834 0
M  V30 2423 H 215.169 4.62353 -1.5518 0
M  V30 2424 H 214.174 4.00096 -3.77099 0
M  V30 2425 H 215.399 4.99282 -4.6032 0
M  V30 2426 H 213.345 6.0194 -2.60776 0
M  V30 2427 H 213.262 6.19733 -4.32975 0
M  V30 2428 H 214.53 6.99226 -3.44532 0
M  V30 2429 N 218.759 1.29093 0.90403 0
M  V30 2430 C 219.706 1.13853 2.00764 0
M  V30 2431 C 220.676 0.0330084 1.66067 0
M  V30 2432 O 221.861 0.199733 1.89752 0
M  V30 2433 C 219.001 0.816537 3.35301 0
M  V30 2434 C 218.114 2.00206 3.82807 0
M  V30 2435 C 217.249 1.61983 5.059 0
M  V30 2436 C 216.288 2.77143 5.45764 0
M  V30 2437 N 215.425 2.39346 6.60044 0
M  V30 2438 H 220.265 2.08276 2.13132 0
M  V30 2439 H 217.802 1.03648 1.04381 0
M  V30 2440 H 219.76 0.610557 4.12708 0
M  V30 2441 H 218.39 -0.090779 3.22672 0
M  V30 2442 H 217.442 2.31988 3.01473 0
M  V30 2443 H 218.754 2.86512 4.08304 0
M  V30 2444 H 217.908 1.37649 5.90879 0
M  V30 2445 H 216.647 0.728202 4.82233 0
M  V30 2446 H 215.652 3.02165 4.59322 0
M  V30 2447 H 216.877 3.66964 5.71414 0
M  V30 2448 H 214.823 1.52665 6.37989 0
M  V30 2449 H 214.74 3.19185 6.85315 0
M  V30 2450 H 216.008 2.1832 7.48303 0
M  V30 2451 N 220.237 -1.11381 1.11499 0
M  V30 2452 C 221.169 -2.17207 0.731704 0
M  V30 2453 C 222.182 -1.61066 -0.236957 0
M  V30 2454 O 223.371 -1.78489 -0.0197591 0
M  V30 2455 C 220.471 -3.38846 0.0607624 0
M  V30 2456 C 219.644 -4.24451 1.0564 0
M  V30 2457 C 218.703 -5.24562 0.4149 0
M  V30 2458 O 217.729 -5.59071 1.069 0
M  V30 2459 N 218.931 -5.74651 -0.821943 0
M  V30 2460 H 221.696 -2.50699 1.64225 0
M  V30 2461 H 219.257 -1.26908 1.00529 0
M  V30 2462 H 221.249 -4.02911 -0.380139 0
M  V30 2463 H 219.819 -3.03411 -0.752376 0
M  V30 2464 H 219.039 -3.56833 1.67524 0
M  V30 2465 H 220.327 -4.78486 1.72998 0
M  V30 2466 H 219.725 -5.48797 -1.37252 0
M  V30 2467 H 218.282 -6.40549 -1.20582 0
M  V30 2468 N 221.715 -0.905404 -1.28997 0
M  V30 2469 C 222.964 -0.530191 -1.94607 0
M  V30 2470 C 223.277 0.929185 -1.72121 0
M  V30 2471 O 224.483 1.41218 -2.31883 0
M  V30 2472 C 222.939 -0.897333 -3.48534 0
M  V30 2473 C 222.547 -2.37587 -3.79811 0
M  V30 2474 C 224.291 -0.592304 -4.20347 0
M  V30 2475 C 222.198 -2.68357 -5.27009 0
M  V30 2476 H 221.128 -0.194558 -0.728466 0
M  V30 2477 H 223.779 -1.10318 -1.46636 0
M  V30 2478 H 222.161 -0.253214 -3.9519 0
M  V30 2479 H 223.335 -3.06602 -3.43994 0
M  V30 2480 H 221.65 -2.6505 -3.2115 0
M  V30 2481 H 224.247 -0.798975 -5.28697 0
M  V30 2482 H 224.59 0.469474 -4.13644 0
M  V30 2483 H 225.123 -1.19452 -3.79442 0
M  V30 2484 H 221.862 -3.73355 -5.38782 0
M  V30 2485 H 221.382 -2.03971 -5.64053 0
M  V30 2486 H 223.061 -2.54922 -5.94663 0
M  V30 2487 N 223.193 1.4272 -0.668489 0
M  V30 2488 C 224.141 2.32586 0.0254857 0
M  V30 2489 C 225.135 1.49471 0.797176 0
M  V30 2490 O 226.341 1.65583 0.705853 0
M  V30 2491 H 222.716 0.751514 0.0270339 0
M  V30 2492 H 224.687 2.88823 -0.749936 0
M  V30 2493 C 223.436 3.3397 0.967427 0
M  V30 2494 H 222.759 3.97961 0.383048 0
M  V30 2495 H 224.199 3.9945 1.42181 0
M  V30 2496 C 222.658 2.65744 2.0708 0
M  V30 2497 O 223.188 2.48454 3.15648 0
M  V30 2498 N 221.394 2.2487 1.8407 0
M  V30 2499 H 220.941 2.39132 0.95778 0
M  V30 2500 H 220.899 1.79552 2.58086 0
M  V30 2501 N 224.671 0.411399 1.52136 0
M  V30 2502 C 225.92 -0.165009 2.01024 0
M  V30 2503 C 226.233 -1.4603 1.30133 0
M  V30 2504 O 227.439 -2.1181 1.69849 0
M  V30 2505 C 225.895 -0.344618 3.58246 0
M  V30 2506 C 225.503 0.938716 4.38055 0
M  V30 2507 C 227.247 -0.876195 4.15359 0
M  V30 2508 C 225.154 0.726172 5.86925 0
M  V30 2509 H 224.084 -0.0654407 0.751155 0
M  V30 2510 H 226.735 0.537192 1.75461 0
M  V30 2511 H 225.117 -1.10921 3.80148 0
M  V30 2512 H 226.291 1.70963 4.27912 0
M  V30 2513 H 224.606 1.39688 3.92271 0
M  V30 2514 H 227.203 -1.05128 5.24263 0
M  V30 2515 H 227.546 -1.85152 3.7286 0
M  V30 2516 H 228.079 -0.170607 3.97434 0
M  V30 2517 H 224.818 1.67312 6.33788 0
M  V30 2518 H 224.338 -0.00540283 5.998 0
M  V30 2519 H 226.017 0.369231 6.45946 0
M  V30 2520 N 226.149 -1.5696 0.141893 0
M  V30 2521 C 227.397 -1.95573 -0.509484 0
M  V30 2522 C 227.718 -1.02746 -1.65736 0
M  V30 2523 O 226.988 -0.0880311 -1.95702 0
M  V30 2524 H 225.568 -0.722115 -0.191205 0
M  V30 2525 H 228.23 -1.93697 0.216196 0
M  V30 2526 H 227.326 -2.99171 -0.889 0
M  V30 2527 N 227.627 0.131896 -1.57047 0
M  V30 2528 C 228.904 0.871495 -1.75112 0
M  V30 2529 C 229.284 1.9866 -0.713949 0
M  V30 2530 O 228.632 2.26965 0.264447 0
M  V30 2531 C 228.842 1.40007 -3.19686 0
M  V30 2532 C 230.19 1.85752 -3.81813 0
M  V30 2533 O 231.214 1.49715 -3.23209 0
M  V30 2534 O 230.073 2.5226 -4.84796 0
M  V30 2535 H 227.167 0.412919 -0.716538 0
M  V30 2536 H 229.713 0.116641 -1.69299 0
M  V30 2537 H 228.485 0.599404 -3.86682 0
M  V30 2538 H 228.108 2.218 -3.29986 0
M  V30 2539 N 229.106 1.52395 0.401703 0
M  V30 2540 C 230.334 1.70676 1.16949 0
M  V30 2541 C 230.749 0.419503 1.8408 0
M  V30 2542 O 230.106 -0.605061 1.72178 0
M  V30 2543 C 230.157 2.84753 2.22706 0
M  V30 2544 O 229.878 4.08495 1.58314 0
M  V30 2545 C 231.379 3.14608 3.12309 0
M  V30 2546 H 228.599 0.571787 0.351142 0
M  V30 2547 H 231.143 1.98987 0.471652 0
M  V30 2548 H 229.298 2.58941 2.88147 0
M  V30 2549 H 229.712 4.72117 2.28485 0
M  V30 2550 H 231.186 3.97923 3.82572 0
M  V30 2551 H 231.663 2.28464 3.75101 0
M  V30 2552 H 232.269 3.42212 2.52529 0
M  V30 2553 N 230.584 -0.659388 1.43143 0
M  V30 2554 C 231.494 -1.80167 1.50256 0
M  V30 2555 C 232.51 -1.69571 0.390106 0
M  V30 2556 O 233.686 -1.90849 0.643319 0
M  V30 2557 C 230.751 -3.16409 1.41725 0
M  V30 2558 C 229.812 -3.38848 2.63591 0
M  V30 2559 C 229.045 -4.68591 2.55458 0
M  V30 2560 O 229.268 -5.47532 1.59891 0
M  V30 2561 O 228.202 -4.92614 3.45854 0
M  V30 2562 H 232.028 -1.77121 2.46702 0
M  V30 2563 H 229.613 -0.817092 1.25076 0
M  V30 2564 H 231.495 -3.9768 1.39387 0
M  V30 2565 H 230.17 -3.20059 0.484118 0
M  V30 2566 H 229.077 -2.57366 2.71502 0
M  V30 2567 H 230.41 -3.4004 3.55856 0
M  V30 2568 N 232.062 -1.29571 -0.897171 0
M  V30 2569 C 233.01 -1.14802 -2.02295 0
M  V30 2570 C 234.004 -0.0629637 -1.69283 0
M  V30 2571 O 235.21 -0.222945 -1.78614 0
M  V30 2572 H 231.585 -0.354692 -0.663097 0
M  V30 2573 H 233.556 -2.10108 -2.11889 0
M  V30 2574 C 232.305 -0.843966 -3.37302 0
M  V30 2575 H 231.628 -1.67093 -3.63208 0
M  V30 2576 H 233.068 -0.780672 -4.16751 0
M  V30 2577 C 231.527 0.452843 -3.33843 0
M  V30 2578 O 232.057 1.47813 -3.73516 0
M  V30 2579 N 230.263 0.459601 -2.86943 0
M  V30 2580 H 229.81 -0.375213 -2.54853 0
M  V30 2581 H 229.768 1.32726 -2.85011 0
M  V30 2582 N 233.54 1.10788 -1.12088 0
M  V30 2583 C 234.472 2.16816 -0.743213 0
M  V30 2584 C 235.485 1.6119 0.228412 0
M  V30 2585 O 236.674 1.78497 0.0102931 0
M  V30 2586 C 233.774 3.38809 -0.0787313 0
M  V30 2587 C 232.947 4.23885 -1.0789 0
M  V30 2588 C 232.006 5.24334 -0.442713 0
M  V30 2589 O 231.032 5.58497 -1.09864 0
M  V30 2590 N 232.234 5.75079 0.791457 0
M  V30 2591 H 234.999 2.49825 -1.65552 0
M  V30 2592 H 232.56 1.26373 -1.012 0
M  V30 2593 H 234.552 4.03107 0.358766 0
M  V30 2594 H 233.122 3.03805 0.736275 0
M  V30 2595 H 232.342 3.55939 -1.69414 0
M  V30 2596 H 233.63 4.77562 -1.75533 0
M  V30 2597 H 233.028 5.49517 1.3434 0
M  V30 2598 H 231.585 6.4118 1.17183 0
M  V30 2599 N 235.018 0.912232 1.28515 0
M  V30 2600 C 235.965 0.397954 2.27343 0
M  V30 2601 C 236.935 -0.526766 1.57526 0
M  V30 2602 O 238.12 -0.449292 1.85435 0
M  V30 2603 C 235.26 -0.357263 3.43246 0
M  V30 2604 C 234.373 0.599788 4.27816 0
M  V30 2605 C 233.508 -0.173725 5.30916 0
M  V30 2606 C 232.547 0.777039 6.07148 0
M  V30 2607 N 231.684 0.0371398 7.0209 0
M  V30 2608 H 236.524 1.24577 2.70711 0
M  V30 2609 H 234.061 0.625612 1.33133 0
M  V30 2610 H 236.019 -0.8113 4.09236 0
M  V30 2611 H 234.649 -1.16943 3.00872 0
M  V30 2612 H 233.701 1.17235 3.61884 0
M  V30 2613 H 235.013 1.32704 4.80823 0
M  V30 2614 H 234.167 -0.688394 6.02782 0
M  V30 2615 H 232.906 -0.934041 4.78672 0
M  V30 2616 H 231.911 1.3031 5.34134 0
M  V30 2617 H 233.136 1.53689 6.61481 0
M  V30 2618 H 231.082 -0.705213 6.52198 0
M  V30 2619 H 230.999 0.704249 7.52713 0
M  V30 2620 H 232.267 -0.457383 7.78157 0
M  V30 2621 N 236.496 -1.42363 0.676048 0
M  V30 2622 C 237.406 -2.346 -0.00153389 0
M  V30 2623 C 238.422 -1.5516 -0.787485 0
M  V30 2624 O 239.598 -1.87723 -0.729521 0
M  V30 2625 C 236.663 -3.33705 -0.940298 0
M  V30 2626 C 235.724 -4.29042 -0.148739 0
M  V30 2627 C 234.957 -5.23413 -1.04279 0
M  V30 2628 O 235.18 -5.22749 -2.28232 0
M  V30 2629 O 234.114 -5.99795 -0.502925 0
M  V30 2630 H 237.94 -2.94082 0.758268 0
M  V30 2631 H 235.525 -1.42888 0.436289 0
M  V30 2632 H 237.407 -3.94586 -1.47917 0
M  V30 2633 H 236.082 -2.76695 -1.67993 0
M  V30 2634 H 234.989 -3.71571 0.43427 0
M  V30 2635 H 236.322 -4.89097 0.551805 0
M  V30 2636 N 237.974 -0.419461 -1.51915 0
M  V30 2637 C 239.222 0.152637 -2.01523 0
M  V30 2638 C 239.543 1.44762 -1.30649 0
M  V30 2639 O 238.813 1.90997 -0.435535 0
M  V30 2640 H 237.393 0.0593966 -0.744635 0
M  V30 2641 H 240.055 -0.558073 -1.86739 0
M  V30 2642 H 239.151 0.341369 -3.10227 0
M  V30 2643 N 239.452 1.56882 -0.150215 0
M  V30 2644 C 240.399 2.16922 0.788244 0
M  V30 2645 C 241.369 1.10303 1.24187 0
M  V30 2646 O 242.554 1.38359 1.31383 0
M  V30 2647 C 239.694 2.79754 2.02068 0
M  V30 2648 C 238.807 4.00775 1.61257 0
M  V30 2649 C 237.942 4.51595 2.79705 0
M  V30 2650 C 236.981 5.65074 2.35282 0
M  V30 2651 N 236.118 6.10499 3.4675 0
M  V30 2652 H 240.958 2.96779 0.269444 0
M  V30 2653 H 238.495 1.46599 0.12128 0
M  V30 2654 H 240.453 3.14329 2.74323 0
M  V30 2655 H 239.083 2.02536 2.51354 0
M  V30 2656 H 238.135 3.72158 0.787553 0
M  V30 2657 H 239.447 4.82978 1.24633 0
M  V30 2658 H 238.601 4.88242 3.60145 0
M  V30 2659 H 237.34 3.68406 3.19576 0
M  V30 2660 H 236.345 5.28 1.53283 0
M  V30 2661 H 237.57 6.50052 1.96493 0
M  V30 2662 H 235.516 5.30243 3.86236 0
M  V30 2663 H 235.433 6.87637 3.14152 0
M  V30 2664 H 236.701 6.51791 4.27537 0
M  V30 2665 N 240.93 -0.123565 1.57115 0
M  V30 2666 C 241.878 -1.17082 2.00984 0
M  V30 2667 C 242.872 -1.43136 0.906009 0
M  V30 2668 O 244.078 -1.43152 1.09121 0
M  V30 2669 H 240.453 -0.394653 0.64012 0
M  V30 2670 H 242.424 -0.774292 2.88179 0
M  V30 2671 C 241.173 -2.49057 2.42623 0
M  V30 2672 H 240.496 -2.29846 3.27125 0
M  V30 2673 H 241.936 -3.20906 2.7712 0
M  V30 2674 C 240.395 -3.11305 1.28805 0
M  V30 2675 O 240.925 -3.97171 0.60153 0
M  V30 2676 N 239.131 -2.71111 1.04628 0
M  V30 2677 H 238.678 -2.01382 1.60634 0
M  V30 2678 H 238.636 -3.1309 0.286685 0
M  V30 2679 N 242.408 -1.52605 -0.393616 0
M  V30 2680 C 243.654 -1.67672 -1.14079 0
M  V30 2681 C 243.987 -0.413121 -1.89755 0
M  V30 2682 O 243.262 0.588952 -1.85369 0
M  V30 2683 C 243.545 -2.9088 -2.12276 0
M  V30 2684 C 243.398 -4.27329 -1.40394 0
M  V30 2685 C 244.717 -3.09628 -3.12759 0
M  V30 2686 H 241.836 -0.610168 -0.413356 0
M  V30 2687 H 244.478 -1.85193 -0.424696 0
M  V30 2688 H 242.628 -2.76073 -2.73342 0
M  V30 2689 H 244.3 -4.53894 -0.82327 0
M  V30 2690 H 242.543 -4.2802 -0.705801 0
M  V30 2691 H 243.214 -5.09615 -2.12123 0
M  V30 2692 H 245.69 -3.23436 -2.61779 0
M  V30 2693 H 244.566 -3.97322 -3.78717 0
M  V30 2694 H 244.827 -2.23637 -3.81365 0
M  V30 2695 N 243.887 0.651787 -1.4349 0
M  V30 2696 C 244.834 1.76462 -1.4876 0
M  V30 2697 C 245.804 1.62641 -0.337189 0
M  V30 2698 O 246.989 1.82864 -0.544544 0
M  V30 2699 C 244.129 3.14623 -1.41796 0
M  V30 2700 C 243.242 3.39568 -2.67053 0
M  V30 2701 C 242.377 4.67585 -2.52068 0
M  V30 2702 C 241.416 4.85639 -3.72587 0
M  V30 2703 N 240.553 6.04915 -3.56402 0
M  V30 2704 H 245.393 1.71293 -2.43849 0
M  V30 2705 H 242.93 0.835889 -1.21043 0
M  V30 2706 H 244.888 3.94496 -1.35753 0
M  V30 2707 H 243.518 3.18859 -0.50288 0
M  V30 2708 H 242.57 2.53783 -2.8337 0
M  V30 2709 H 243.882 3.48795 -3.56572 0
M  V30 2710 H 243.036 5.55586 -2.4374 0
M  V30 2711 H 241.775 4.60681 -1.60075 0
M  V30 2712 H 240.78 3.96073 -3.81321 0
M  V30 2713 H 242.005 4.94372 -4.65589 0
M  V30 2714 H 239.951 5.9914 -2.67146 0
M  V30 2715 H 239.868 6.15106 -4.39524 0
M  V30 2716 H 241.136 6.95533 -3.51929 0
M  V30 2717 N 245.365 1.30045 0.890287 0
M  V30 2718 C 246.312 1.15976 1.99545 0
M  V30 2719 C 247.282 0.0506202 1.66023 0
M  V30 2720 O 248.467 0.219847 1.89529 0
M  V30 2721 C 245.607 0.852054 3.34416 0
M  V30 2722 C 244.72 2.04255 3.80662 0
M  V30 2723 C 243.855 1.6734 5.04154 0
M  V30 2724 C 242.894 2.82916 5.42794 0
M  V30 2725 N 242.031 2.46333 6.57468 0
M  V30 2726 H 246.871 2.10524 2.10911 0
M  V30 2727 H 244.408 1.04749 1.03276 0
M  V30 2728 H 246.366 0.654296 4.12037 0
M  V30 2729 H 244.996 -0.0565502 3.2275 0
M  V30 2730 H 244.048 2.35172 2.98995 0
M  V30 2731 H 245.36 2.90826 4.05242 0
M  V30 2732 H 244.514 1.43908 5.89386 0
M  V30 2733 H 243.253 0.779308 4.81433 0
M  V30 2734 H 242.258 3.0702 4.56091 0
M  V30 2735 H 243.483 3.73004 5.6749 0
M  V30 2736 H 241.429 1.59423 6.36334 0
M  V30 2737 H 241.346 3.26436 6.81891 0
M  V30 2738 H 242.614 2.26244 7.45945 0
M  V30 2739 N 246.843 -1.10192 1.12674 0
M  V30 2740 C 248.089 -1.82475 0.884915 0
M  V30 2741 C 248.422 -1.85093 -0.58773 0
M  V30 2742 O 247.697 -1.3134 -1.43457 0
M  V30 2743 C 247.98 -3.29018 1.46353 0
M  V30 2744 C 247.833 -3.34718 3.00473 0
M  V30 2745 C 249.152 -4.25473 1.12519 0
M  V30 2746 H 246.271 -0.662492 0.322915 0
M  V30 2747 H 248.913 -1.2913 1.39375 0
M  V30 2748 H 247.063 -3.74576 1.03077 0
M  V30 2749 H 248.735 -2.97622 3.52447 0
M  V30 2750 H 246.978 -2.74541 3.35872 0
M  V30 2751 H 247.649 -4.37918 3.36053 0
M  V30 2752 H 250.125 -3.88161 1.499 0
M  V30 2753 H 249.001 -5.26365 1.55663 0
M  V30 2754 H 249.262 -4.42084 0.0377407 0
M  V30 2755 N 248.321 -0.919034 -1.28029 0
M  V30 2756 C 249.57 -0.550802 -1.94034 0
M  V30 2757 C 249.883 0.910877 -1.73096 0
M  V30 2758 O 251.089 1.3875 -2.33368 0
M  V30 2759 C 249.545 -0.934249 -3.47563 0
M  V30 2760 C 249.153 -2.41602 -3.7727 0
M  V30 2761 C 250.897 -0.636854 -4.19696 0
M  V30 2762 C 248.804 -2.73932 -5.24133 0
M  V30 2763 H 247.734 -0.202273 -0.726362 0
M  V30 2764 H 250.385 -1.11867 -1.45458 0
M  V30 2765 H 248.767 -0.295115 -3.94899 0
M  V30 2766 H 249.941 -3.10233 -3.40723 0
M  V30 2767 H 248.256 -2.68441 -3.18321 0
M  V30 2768 H 250.853 -0.855005 -5.2782 0
M  V30 2769 H 251.196 0.425575 -4.14119 0
M  V30 2770 H 251.729 -1.23469 -3.78154 0
M  V30 2771 H 248.468 -3.79049 -5.34792 0
M  V30 2772 H 247.988 -2.09942 -5.61858 0
M  V30 2773 H 249.667 -2.61215 -5.91925 0
M  V30 2774 N 249.799 1.42003 -0.683588 0
M  V30 2775 C 250.746 2.30798 -0.0107309 0
M  V30 2776 C 251.716 1.4645 0.783688 0
M  V30 2777 O 252.901 1.75263 0.754156 0
M  V30 2778 C 250.041 3.3238 0.928306 0
M  V30 2779 C 249.154 4.31814 0.126776 0
M  V30 2780 C 248.289 5.20468 1.06236 0
M  V30 2781 C 247.328 6.11577 0.253035 0
M  V30 2782 N 246.465 6.92754 1.14179 0
M  V30 2783 H 251.305 2.8778 -0.773727 0
M  V30 2784 H 248.842 1.41745 -0.393283 0
M  V30 2785 H 250.8 3.89813 1.48666 0
M  V30 2786 H 249.43 2.76976 1.65783 0
M  V30 2787 H 248.482 3.76427 -0.54833 0
M  V30 2788 H 249.794 4.96276 -0.501192 0
M  V30 2789 H 248.948 5.82677 1.69035 0
M  V30 2790 H 247.687 4.56204 1.7242 0
M  V30 2791 H 246.692 5.48428 -0.388108 0
M  V30 2792 H 247.917 6.77892 -0.404839 0
M  V30 2793 H 245.863 6.3111 1.78987 0
M  V30 2794 H 245.78 7.53855 0.569111 0
M  V30 2795 H 247.048 7.59441 1.75697 0
M  V30 2796 N 251.277 0.427512 1.51691 0
M  V30 2797 C 252.224 -0.388867 2.275 0
M  V30 2798 C 253.194 -1.02532 1.30677 0
M  V30 2799 O 254.379 -1.0461 1.59566 0
M  V30 2800 C 251.519 -1.48954 3.11298 0
M  V30 2801 C 250.632 -0.872194 4.23104 0
M  V30 2802 C 249.767 -1.94709 4.94228 0
M  V30 2803 C 248.806 -1.30766 5.97969 0
M  V30 2804 N 247.943 -2.32349 6.62539 0
M  V30 2805 H 252.783 0.263997 2.96828 0
M  V30 2806 H 250.32 0.142033 1.46413 0
M  V30 2807 H 252.278 -2.13887 3.58201 0
M  V30 2808 H 250.908 -2.11217 2.44105 0
M  V30 2809 H 249.96 -0.111419 3.80237 0
M  V30 2810 H 251.272 -0.365264 4.97461 0
M  V30 2811 H 250.426 -2.67327 5.44629 0
M  V30 2812 H 249.165 -2.48773 4.1948 0
M  V30 2813 H 248.17 -0.566902 5.4687 0
M  V30 2814 H 249.395 -0.774483 6.74669 0
M  V30 2815 H 247.341 -2.85511 5.90609 0
M  V30 2816 H 247.258 -1.8652 7.3263 0
M  V30 2817 H 248.526 -3.04481 7.17574 0
M  V30 2818 N 252.755 -1.56801 0.158532 0
M  V30 2819 C 253.665 -2.20916 -0.789518 0
M  V30 2820 C 254.681 -1.1969 -1.26294 0
M  V30 2821 O 255.857 -1.52308 -1.31773 0
M  V30 2822 C 252.922 -2.82727 -2.00665 0
M  V30 2823 C 251.983 -3.99114 -1.58134 0
M  V30 2824 C 251.216 -4.57968 -2.74045 0
M  V30 2825 O 251.439 -4.15704 -3.90572 0
M  V30 2826 O 250.373 -5.48047 -2.48855 0
M  V30 2827 H 254.199 -3.02464 -0.273681 0
M  V30 2828 H 251.784 -1.4924 -0.0690548 0
M  V30 2829 H 253.666 -3.21968 -2.71872 0
M  V30 2830 H 252.341 -2.04184 -2.51179 0
M  V30 2831 H 251.248 -3.64567 -0.839155 0
M  V30 2832 H 252.581 -4.79212 -1.12325 0
M  V30 2833 N 254.233 0.115231 -1.57178 0
M  V30 2834 C 255.18 1.14115 -2.00615 0
M  V30 2835 C 256.15 1.40939 -0.878941 0
M  V30 2836 O 257.335 1.52741 -1.14345 0
M  V30 2837 C 254.475 2.46156 -2.4187 0
M  V30 2838 C 253.588 2.26236 -3.68024 0
M  V30 2839 C 252.723 3.51534 -3.98243 0
M  V30 2840 C 251.762 3.26787 -5.17568 0
M  V30 2841 N 250.899 4.44298 -5.43639 0
M  V30 2842 H 255.739 0.763743 -2.88047 0
M  V30 2843 H 253.276 0.365615 -1.42484 0
M  V30 2844 H 255.234 3.23189 -2.63827 0
M  V30 2845 H 253.864 2.81783 -1.57475 0
M  V30 2846 H 252.916 1.40102 -3.5366 0
M  V30 2847 H 254.228 2.03929 -4.55208 0
M  V30 2848 H 253.382 4.36984 -4.20868 0
M  V30 2849 H 252.121 3.76876 -3.09541 0
M  V30 2850 H 251.126 2.39729 -4.94783 0
M  V30 2851 H 252.351 3.02812 -6.0785 0
M  V30 2852 H 250.297 4.69754 -4.57895 0
M  V30 2853 H 250.214 4.25109 -6.25154 0
M  V30 2854 H 251.482 5.3087 -5.70786 0
M  V30 2855 N 255.711 1.52812 0.385517 0
M  V30 2856 C 256.658 1.77838 1.47113 0
M  V30 2857 C 257.628 0.621757 1.54024 0
M  V30 2858 O 258.813 0.861846 1.70226 0
M  V30 2859 C 255.953 1.95618 2.84302 0
M  V30 2860 C 255.066 3.23316 2.86515 0
M  V30 2861 C 254.201 3.31394 4.15152 0
M  V30 2862 C 253.24 4.53201 4.1143 0
M  V30 2863 N 252.377 4.58542 5.3168 0
M  V30 2864 H 257.217 2.70482 1.25073 0
M  V30 2865 H 254.754 1.34006 0.606692 0
M  V30 2866 H 256.712 2.03912 3.63972 0
M  V30 2867 H 255.342 1.06331 3.04784 0
M  V30 2868 H 254.394 3.24076 1.99195 0
M  V30 2869 H 255.706 4.13045 2.79634 0
M  V30 2870 H 254.86 3.3889 5.03228 0
M  V30 2871 H 253.599 2.39645 4.24761 0
M  V30 2872 H 252.604 4.45827 3.21742 0
M  V30 2873 H 253.829 5.46271 4.03442 0
M  V30 2874 H 251.775 3.69686 5.41912 0
M  V30 2875 H 251.692 5.42148 5.26889 0
M  V30 2876 H 252.96 4.70296 6.21644 0
M  V30 2877 N 257.189 -0.644168 1.43834 0
M  V30 2878 C 258.136 -1.75671 1.49694 0
M  V30 2879 C 259.106 -1.6246 0.345809 0
M  V30 2880 O 260.291 -1.82573 0.554234 0
M  V30 2881 C 257.431 -3.13867 1.43463 0
M  V30 2882 C 256.544 -3.38147 2.6885 0
M  V30 2883 C 255.679 -4.66241 2.54544 0
M  V30 2884 C 254.718 -4.83657 3.75157 0
M  V30 2885 N 253.855 -6.03016 3.59605 0
M  V30 2886 H 258.695 -1.69998 2.44754 0
M  V30 2887 H 256.232 -0.829458 1.21484 0
M  V30 2888 H 258.19 -3.9377 1.37843 0
M  V30 2889 H 256.82 -3.18588 0.519783 0
M  V30 2890 H 255.872 -2.52276 2.84712 0
M  V30 2891 H 257.184 -3.46899 3.58417 0
M  V30 2892 H 256.338 -5.54285 2.46683 0
M  V30 2893 H 255.077 -4.59826 1.62516 0
M  V30 2894 H 254.082 -3.94046 3.83416 0
M  V30 2895 H 255.307 -4.91896 4.68204 0
M  V30 2896 H 253.253 -5.97715 2.7032 0
M  V30 2897 H 253.17 -6.12766 4.42779 0
M  V30 2898 H 254.438 -6.93657 3.55613 0
M  V30 2899 N 258.668 -1.30515 -0.883378 0
M  V30 2900 C 259.578 -1.18959 -2.02203 0
M  V30 2901 C 260.594 -0.109172 -1.73657 0
M  V30 2902 O 261.77 -0.324413 -1.9877 0
M  V30 2903 C 258.835 -0.883871 -3.35244 0
M  V30 2904 C 257.896 -2.04982 -3.77201 0
M  V30 2905 C 257.129 -1.75859 -5.03894 0
M  V30 2906 O 257.352 -0.687276 -5.66244 0
M  V30 2907 O 256.286 -2.61146 -5.42297 0
M  V30 2908 H 260.112 -2.14616 -2.1488 0
M  V30 2909 H 257.697 -1.10124 -1.0096 0
M  V30 2910 H 259.579 -0.728644 -4.15053 0
M  V30 2911 H 258.254 0.0427798 -3.23672 0
M  V30 2912 H 257.161 -2.26038 -2.9809 0
M  V30 2913 H 258.494 -2.95825 -3.93381 0
M  V30 2914 N 260.146 1.09593 -1.13257 0
M  V30 2915 C 261.056 2.19739 -0.821691 0
M  V30 2916 C 262.072 1.72926 0.19302 0
M  V30 2917 O 263.248 2.01385 0.0244895 0
M  V30 2918 C 260.313 3.45482 -0.290333 0
M  V30 2919 C 259.374 4.06985 -1.36607 0
M  V30 2920 C 258.607 5.26726 -0.859975 0
M  V30 2921 O 258.83 5.69594 0.303082 0
M  V30 2922 O 257.764 5.7931 -1.63351 0
M  V30 2923 H 261.59 2.48781 -1.74189 0
M  V30 2924 H 259.175 1.18496 -0.909894 0
M  V30 2925 H 261.057 4.214 0.000674022 0
M  V30 2926 H 259.732 3.18047 0.602306 0
M  V30 2927 H 258.639 3.32712 -1.71037 0
M  V30 2928 H 259.972 4.38643 -2.23279 0
M  V30 2929 N 261.624 0.925811 1.2754 0
M  V30 2930 C 262.849 0.580924 1.99098 0
M  V30 2931 C 263.274 -0.833555 1.68622 0
M  V30 2932 O 262.632 -1.55903 0.925422 0
M  V30 2933 C 262.68 0.811186 3.51358 0
M  V30 2934 O 261.784 -0.124129 4.12213 0
M  V30 2935 H 261.125 0.223873 0.625122 0
M  V30 2936 H 263.655 1.24455 1.62395 0
M  V30 2937 H 263.665 0.72601 4.01489 0
M  V30 2938 H 262.34 1.84227 3.72872 0
M  V30 2939 H 260.917 0.0108006 3.72898 0
M  V30 2940 N 263.102 -1.41638 0.69111 0
M  V30 2941 C 264.35 -2.00902 0.219758 0
M  V30 2942 C 264.671 -1.54994 -1.18329 0
M  V30 2943 O 263.941 -0.778628 -1.79762 0
M  V30 2944 H 262.521 -0.74289 0.0782558 0
M  V30 2945 H 265.183 -1.73327 0.891271 0
M  V30 2946 H 264.279 -3.11224 0.233708 0
M  V30 2947 N 264.58 -0.43555 -1.51462 0
M  V30 2948 C 265.527 0.376797 -2.27703 0
M  V30 2949 C 266.497 1.01838 -1.31219 0
M  V30 2950 O 267.682 1.03762 -1.60119 0
M  V30 2951 C 264.822 1.47301 -3.12084 0
M  V30 2952 C 263.935 0.849744 -4.2356 0
M  V30 2953 C 263.07 1.92086 -4.95254 0
M  V30 2954 C 262.109 1.27593 -5.98654 0
M  V30 2955 N 261.246 2.28833 -6.63762 0
M  V30 2956 H 266.086 -0.279734 -2.96684 0
M  V30 2957 H 263.623 -0.149795 -1.46335 0
M  V30 2958 H 265.581 2.11984 -3.59331 0
M  V30 2959 H 264.211 2.0992 -2.45221 0
M  V30 2960 H 263.263 0.0912529 -3.80291 0
M  V30 2961 H 264.575 0.338878 -4.97648 0
M  V30 2962 H 263.729 2.64435 -5.46039 0
M  V30 2963 H 262.468 2.46545 -4.20793 0
M  V30 2964 H 261.473 0.537893 -5.47162 0
M  V30 2965 H 262.698 0.738693 -6.7507 0
M  V30 2966 H 260.644 2.82375 -5.92115 0
M  V30 2967 H 260.561 1.82632 -7.33608 0
M  V30 2968 H 261.829 3.00671 -7.19178 0
M  V30 2969 N 266.058 1.56714 -0.166846 0
M  V30 2970 C 267.469 1.83378 0.350646 0
M  V30 2971 C 267.82 1.08646 1.63372 0
M  V30 2972 O 266.945 0.338058 2.13743 0
M  V30 2973 C 267.54 3.32643 0.642963 0
M  V30 2974 C 266.099 3.59818 1.10491 0
M  V30 2975 C 265.246 2.76954 0.138411 0
M  V30 2976 H 268.197 1.53803 -0.391193 0
M  V30 2977 H 268.218 3.49878 1.49551 0
M  V30 2978 H 267.73 3.87007 -0.291055 0
M  V30 2979 H 265.831 3.1086 2.05418 0
M  V30 2980 H 265.944 4.68178 1.01716 0
M  V30 2981 H 264.308 2.4666 0.634911 0
M  V30 2982 H 265.091 3.34097 -0.789549 0
M  V30 2983 N 267.536 -0.106894 1.57237 0
M  V30 2984 C 268.446 -1.14911 2.0453 0
M  V30 2985 C 269.462 -1.44592 0.96795 0
M  V30 2986 O 270.638 -1.55468 1.2803 0
M  V30 2987 C 267.703 -2.45272 2.45036 0
M  V30 2988 C 266.764 -2.22879 3.66911 0
M  V30 2989 C 265.997 -3.47024 4.05475 0
M  V30 2990 O 266.22 -4.54804 3.44252 0
M  V30 2991 O 265.154 -3.3731 4.98504 0
M  V30 2992 H 268.98 -0.777461 2.9358 0
M  V30 2993 H 266.565 -0.318563 1.45964 0
M  V30 2994 H 268.447 -3.22055 2.71769 0
M  V30 2995 H 267.122 -2.81886 1.59129 0
M  V30 2996 H 266.029 -1.43915 3.45311 0
M  V30 2997 H 267.362 -1.91163 4.53561 0
M  V30 2998 N 269.014 -1.53014 -0.377408 0
M  V30 2999 C 269.924 -1.81557 -1.48574 0
M  V30 3000 C 270.94 -0.703102 -1.59162 0
M  V30 3001 O 272.116 -0.99192 -1.75279 0
M  V30 3002 C 269.181 -1.9889 -2.83978 0
M  V30 3003 C 268.242 -3.22801 -2.83016 0
M  V30 3004 C 267.475 -3.39298 -4.11962 0
M  V30 3005 O 267.698 -2.60345 -5.0752 0
M  V30 3006 O 266.632 -4.32604 -4.18494 0
M  V30 3007 H 270.458 -2.75695 -1.27382 0
M  V30 3008 H 268.043 -1.38248 -0.566373 0
M  V30 3009 H 269.925 -2.11931 -3.6423 0
M  V30 3010 H 268.6 -1.07942 -3.05172 0
M  V30 3011 H 267.507 -3.15193 -2.01505 0
M  V30 3012 H 268.84 -4.13632 -2.66775 0
M  V30 3013 N 270.492 0.636531 -1.44174 0
M  V30 3014 C 271.44 1.76995 -1.50915 0
M  V30 3015 C 272.434 1.65053 -0.381295 0
M  V30 3016 O 273.64 1.71197 -0.55601 0
M  V30 3017 H 270.015 0.584247 -0.473455 0
M  V30 3018 H 271.986 1.68432 -2.4632 0
M  V30 3019 C 270.735 3.15314 -1.46534 0
M  V30 3020 H 270.058 3.25149 -2.32633 0
M  V30 3021 H 271.498 3.9453 -1.55312 0
M  V30 3022 C 269.957 3.3639 -0.185305 0
M  V30 3023 O 270.487 3.94699 0.746688 0
M  V30 3024 N 268.693 2.9046 -0.0901606 0
M  V30 3025 H 268.24 2.43193 -0.849416 0
M  V30 3026 H 268.198 3.04937 0.765553 0
M  V30 3027 N 271.97 1.30982 0.876444 0
M  V30 3028 C 272.917 1.18085 1.98304 0
M  V30 3029 C 273.887 0.0682263 1.6596 0
M  V30 3030 O 275.072 0.239937 1.89285 0
M  V30 3031 C 272.212 0.887475 3.33493 0
M  V30 3032 C 271.325 2.08281 3.78475 0
M  V30 3033 C 270.46 1.72678 5.0235 0
M  V30 3034 C 269.499 2.88657 5.39762 0
M  V30 3035 N 268.636 2.53292 6.54819 0
M  V30 3036 H 273.476 2.1275 2.08666 0
M  V30 3037 H 271.013 1.05839 1.02159 0
M  V30 3038 H 272.971 0.697961 4.1132 0
M  V30 3039 H 271.601 -0.022315 3.22792 0
M  V30 3040 H 270.653 2.3833 2.96484 0
M  V30 3041 H 271.965 2.95108 4.02135 0
M  V30 3042 H 271.119 1.50151 5.87826 0
M  V30 3043 H 269.858 0.830327 4.8058 0
M  V30 3044 H 268.863 3.1184 4.52809 0
M  V30 3045 H 270.088 3.79002 5.63502 0
M  V30 3046 H 268.034 1.66163 6.34607 0
M  V30 3047 H 267.951 3.3365 6.7839 0
M  V30 3048 H 269.219 2.34143 7.43503 0
M  V30 3049 N 273.449 -1.08991 1.13837 0
M  V30 3050 C 274.399 -2.1393 0.788535 0
M  V30 3051 C 275.383 -1.59396 -0.219516 0
M  V30 3052 O 276.575 -1.76985 -0.0227557 0
M  V30 3053 C 273.704 -3.42305 0.261147 0
M  V30 3054 C 272.79 -4.03736 1.29837 0
M  V30 3055 N 273.181 -4.39659 2.50067 0
M  V30 3056 C 271.479 -4.30993 1.1472 0
M  V30 3057 C 272.18 -4.88113 3.16419 0
M  V30 3058 N 271.156 -4.85846 2.43832 0
M  V30 3059 H 274.958 -2.39516 1.70322 0
M  V30 3060 H 272.472 -1.26263 1.02134 0
M  V30 3061 H 274.469 -4.16899 -0.0077405 0
M  V30 3062 H 273.129 -3.18172 -0.647805 0
M  V30 3063 H 274.14 -4.30878 2.8734 0
M  V30 3064 H 270.817 -4.16444 0.296773 0
M  V30 3065 H 272.207 -5.25336 4.18894 0
M  V30 3066 N 274.927 -0.932562 -1.27047 0
M  V30 3067 C 275.89 -0.440064 -2.24936 0
M  V30 3068 C 276.89 0.444071 -1.54547 0
M  V30 3069 O 278.08 0.244465 -1.72476 0
M  V30 3070 C 275.212 0.36678 -3.38921 0
M  V30 3071 H 276.405 -1.305 -2.70018 0
M  V30 3072 H 273.958 -0.713707 -1.39054 0
M  V30 3073 H 274.693 1.25033 -2.99228 0
M  V30 3074 H 274.478 -0.267204 -3.91188 0
M  V30 3075 H 275.968 0.701567 -4.11665 0
M  V30 3076 N 276.405 1.4127 -0.698611 0
M  V30 3077 C 277.353 2.32588 -0.023855 0
M  V30 3078 C 278.347 1.51128 0.765292 0
M  V30 3079 O 279.553 1.67043 0.670571 0
M  V30 3080 H 275.928 0.751918 0.0110871 0
M  V30 3081 H 277.899 2.87167 -0.811031 0
M  V30 3082 C 276.648 3.35947 0.896369 0
M  V30 3083 H 275.971 3.98684 0.298548 0
M  V30 3084 H 277.411 4.02376 1.33676 0
M  V30 3085 C 275.87 2.70076 2.01396 0
M  V30 3086 O 276.4 2.55093 3.10307 0
M  V30 3087 N 274.606 2.28724 1.79259 0
M  V30 3088 H 274.153 2.4111 0.906841 0
M  V30 3089 H 274.111 1.84986 2.54219 0
M  V30 3090 N 277.883 0.443576 1.51229 0
M  V30 3091 C 278.793 -0.370721 2.31652 0
M  V30 3092 C 279.809 -1.02186 1.40833 0
M  V30 3093 O 280.985 -1.01586 1.73903 0
M  V30 3094 C 278.05 -1.45376 3.14749 0
M  V30 3095 C 277.111 -0.822099 4.21355 0
M  V30 3096 C 276.344 -1.85353 5.0048 0
M  V30 3097 O 276.567 -3.07656 4.80316 0
M  V30 3098 O 275.501 -1.4406 5.84406 0
M  V30 3099 H 279.327 0.286002 3.0235 0
M  V30 3100 H 276.912 0.20598 1.47973 0
M  V30 3101 H 278.794 -2.08173 3.66391 0
M  V30 3102 H 277.469 -2.09445 2.46809 0
M  V30 3103 H 276.376 -0.155909 3.73775 0
M  V30 3104 H 277.709 -0.224797 4.91686 0
M  V30 3105 N 279.361 -1.56624 0.175154 0
M  V30 3106 C 280.324 -2.16934 -0.739738 0
M  V30 3107 C 281.324 -1.11842 -1.15533 0
M  V30 3108 O 282.514 -1.37335 -1.07167 0
M  V30 3109 C 279.646 -2.75531 -2.00738 0
M  V30 3110 H 280.839 -2.99131 -0.214639 0
M  V30 3111 H 278.392 -1.56123 -0.0744197 0
M  V30 3112 H 279.127 -1.97078 -2.57548 0
M  V30 3113 H 278.912 -3.52444 -1.71831 0
M  V30 3114 H 280.402 -3.21904 -2.66021 0
M  V30 3115 N 280.839 0.0985539 -1.57292 0
M  V30 3116 C 282.064 0.820196 -1.90493 0
M  V30 3117 C 282.489 1.71658 -0.769094 0
M  V30 3118 O 281.847 1.79133 0.279495 0
M  V30 3119 C 281.895 1.61242 -3.22542 0
M  V30 3120 O 280.999 2.72108 -3.09888 0
M  V30 3121 H 280.34 0.225547 -0.62452 0
M  V30 3122 H 282.87 0.0748159 -2.04463 0
M  V30 3123 H 282.88 1.99737 -3.55766 0
M  V30 3124 H 281.555 0.954535 -4.04798 0
M  V30 3125 H 280.132 2.36667 -2.88172 0
M  V30 3126 N 282.317 1.53212 0.369288 0
M  V30 3127 C 283.264 1.79388 1.45219 0
M  V30 3128 C 284.234 0.638059 1.53356 0
M  V30 3129 O 285.419 0.879852 1.69302 0
M  V30 3130 C 282.559 1.98623 2.82211 0
M  V30 3131 C 281.672 3.26337 2.8307 0
M  V30 3132 C 280.807 3.35779 4.11614 0
M  V30 3133 C 279.846 4.5754 4.06601 0
M  V30 3134 N 278.983 4.64155 5.26787 0
M  V30 3135 H 283.823 2.71794 1.22198 0
M  V30 3136 H 281.36 1.34642 0.592444 0
M  V30 3137 H 283.318 2.07761 3.61789 0
M  V30 3138 H 281.948 1.09558 3.03639 0
M  V30 3139 H 281 3.26171 1.95747 0
M  V30 3140 H 282.312 4.15988 2.75237 0
M  V30 3141 H 281.466 3.44208 4.99606 0
M  V30 3142 H 280.205 2.44137 4.22195 0
M  V30 3143 H 279.21 4.49215 3.16996 0
M  V30 3144 H 280.435 5.50519 3.97625 0
M  V30 3145 H 278.381 3.75413 5.3796 0
M  V30 3146 H 278.298 5.47706 5.21109 0
M  V30 3147 H 279.566 4.76863 6.16621 0
M  V30 3148 N 283.795 -0.628877 1.44509 0
M  V30 3149 C 284.742 -1.74074 1.51549 0
M  V30 3150 C 285.712 -1.62084 0.363021 0
M  V30 3151 O 286.897 -1.81975 0.573567 0
M  V30 3152 C 284.037 -3.12328 1.46784 0
M  V30 3153 C 283.15 -3.35277 2.72422 0
M  V30 3154 C 282.285 -4.63515 2.59475 0
M  V30 3155 C 281.324 -4.7965 3.80266 0
M  V30 3156 N 280.461 -5.99168 3.65981 0
M  V30 3157 H 285.301 -1.67392 2.46544 0
M  V30 3158 H 282.838 -0.816527 1.22357 0
M  V30 3159 H 284.796 -3.92286 1.42012 0
M  V30 3160 H 283.426 -3.18018 0.553544 0
M  V30 3161 H 282.478 -2.49242 2.87372 0
M  V30 3162 H 283.79 -3.43078 3.62076 0
M  V30 3163 H 282.944 -5.51638 2.52548 0
M  V30 3164 H 281.683 -4.58076 1.67384 0
M  V30 3165 H 280.688 -3.89957 3.87574 0
M  V30 3166 H 281.913 -4.86902 4.73395 0
M  V30 3167 H 279.859 -5.94814 2.76644 0
M  V30 3168 H 279.776 -6.08035 4.49254 0
M  V30 3169 H 281.044 -6.89846 3.6295 0
M  V30 3170 N 285.273 -1.31445 -0.869486 0
M  V30 3171 C 286.205 -1.14955 -1.98287 0
M  V30 3172 C 287.218 -0.0885037 -1.62559 0
M  V30 3173 O 288.407 -0.336044 -1.75308 0
M  V30 3174 C 285.507 -0.734255 -3.3085 0
M  V30 3175 C 284.68 -1.88042 -3.94917 0
M  V30 3176 C 283.739 -1.4511 -5.05796 0
M  V30 3177 O 282.765 -2.16082 -5.2659 0
M  V30 3178 N 283.967 -0.338763 -5.79511 0
M  V30 3179 H 286.732 -2.10856 -2.12979 0
M  V30 3180 H 284.293 -1.23786 -1.04349 0
M  V30 3181 H 286.285 -0.42975 -4.02412 0
M  V30 3182 H 284.855 0.133158 -3.12316 0
M  V30 3183 H 284.075 -2.35222 -3.1633 0
M  V30 3184 H 285.363 -2.6481 -4.34457 0
M  V30 3185 H 284.761 0.252274 -5.65137 0
M  V30 3186 H 283.318 -0.0937925 -6.51733 0
M  V30 3187 N 286.751 1.08385 -1.14413 0
M  V30 3188 C 287.661 2.18856 -0.844951 0
M  V30 3189 C 288.677 1.73121 0.174668 0
M  V30 3190 O 289.853 2.014 0.00312857 0
M  V30 3191 C 286.918 3.45155 -0.32696 0
M  V30 3192 C 285.979 4.05513 -1.40916 0
M  V30 3193 C 285.212 5.25784 -0.915793 0
M  V30 3194 O 285.435 5.69884 0.242651 0
M  V30 3195 O 284.369 5.77545 -1.69487 0
M  V30 3196 H 288.195 2.46919 -1.76818 0
M  V30 3197 H 285.78 1.17524 -0.922411 0
M  V30 3198 H 287.662 4.21377 -0.0440211 0
M  V30 3199 H 286.337 3.18668 0.568539 0
M  V30 3200 H 285.244 3.30879 -1.74556 0
M  V30 3201 H 286.577 4.3625 -2.27919 0
M  V30 3202 N 288.23 0.939286 1.26551 0
M  V30 3203 C 289.641 0.628782 1.75793 0
M  V30 3204 C 289.992 -0.856046 1.7654 0
M  V30 3205 O 289.117 -1.66994 1.3763 0
M  V30 3206 C 289.712 1.13465 3.19235 0
M  V30 3207 C 288.271 0.874601 3.66098 0
M  V30 3208 C 287.418 1.28667 2.45642 0
M  V30 3209 H 290.369 1.1178 1.12654 0
M  V30 3210 H 290.39 0.487609 3.77363 0
M  V30 3211 H 289.902 2.21535 3.1866 0
M  V30 3212 H 288.003 -0.191793 3.72106 0
M  V30 3213 H 288.116 1.50028 4.55004 0
M  V30 3214 H 286.48 0.705109 2.44745 0
M  V30 3215 H 287.263 2.37625 2.47769 0
M  V30 3216 N 289.708 -1.40897 0.706093 0
M  V30 3217 C 290.655 -2.30751 0.0474474 0
M  V30 3218 C 291.625 -1.47678 -0.76029 0
M  V30 3219 O 292.81 -1.76441 -0.726177 0
M  V30 3220 C 289.95 -3.33815 -0.875309 0
M  V30 3221 C 289.063 -4.31961 -0.0580623 0
M  V30 3222 C 288.198 -5.22093 -0.979425 0
M  V30 3223 C 287.237 -6.11902 -0.155706 0
M  V30 3224 N 286.374 -6.94482 -1.03144 0
M  V30 3225 H 291.214 -2.86513 0.819413 0
M  V30 3226 H 288.751 -1.41102 0.415783 0
M  V30 3227 H 290.709 -3.92129 -1.42446 0
M  V30 3228 H 289.339 -2.79579 -1.61356 0
M  V30 3229 H 288.391 -3.75507 0.608147 0
M  V30 3230 H 289.703 -4.95415 0.580082 0
M  V30 3231 H 288.857 -5.85292 -1.59744 0
M  V30 3232 H 287.596 -4.5889 -1.65141 0
M  V30 3233 H 286.601 -5.47742 0.475309 0
M  V30 3234 H 287.826 -6.77162 0.512635 0
M  V30 3235 H 285.772 -6.33877 -1.68924 0
M  V30 3236 H 285.689 -7.54665 -0.449108 0
M  V30 3237 H 286.957 -7.6214 -1.63593 0
M  V30 3238 N 291.186 -0.45159 -1.50991 0
M  V30 3239 C 292.149 0.341117 -2.26647 0
M  V30 3240 C 293.149 0.937422 -1.30649 0
M  V30 3241 O 294.339 0.809644 -1.54241 0
M  V30 3242 C 291.471 1.48398 -3.06905 0
M  V30 3243 H 292.664 -0.322117 -2.98165 0
M  V30 3244 H 290.217 -0.205122 -1.54948 0
M  V30 3245 H 290.952 2.18284 -2.39838 0
M  V30 3246 H 290.737 1.06241 -3.77432 0
M  V30 3247 H 292.227 2.04367 -3.64176 0
M  V30 3248 N 292.664 1.56529 -0.183458 0
M  V30 3249 C 293.889 2.02064 0.467428 0
M  V30 3250 C 294.314 1.06282 1.55196 0
M  V30 3251 O 293.672 0.0443565 1.81246 0
M  V30 3252 C 293.72 3.46122 1.01153 0
M  V30 3253 O 292.824 3.53437 2.12499 0
M  V30 3254 H 292.165 0.654726 0.110588 0
M  V30 3255 H 294.695 2.02521 -0.290917 0
M  V30 3256 H 294.705 3.85676 1.33108 0
M  V30 3257 H 293.38 4.15331 0.217533 0
M  V30 3258 H 291.957 3.2575 1.81497 0
M  V30 3259 N 294.142 -0.090211 1.57342 0
M  V30 3260 C 295.089 -1.10909 2.02405 0
M  V30 3261 C 296.059 -1.39523 0.901252 0
M  V30 3262 O 297.244 -1.50903 1.1676 0
M  V30 3263 C 294.384 -2.42277 2.45755 0
M  V30 3264 C 293.497 -2.20352 3.71576 0
M  V30 3265 C 292.632 -3.45154 4.03785 0
M  V30 3266 C 291.671 -3.18512 5.22701 0
M  V30 3267 N 290.808 -4.35593 5.50639 0
M  V30 3268 H 295.648 -0.71782 2.89225 0
M  V30 3269 H 293.185 -0.342901 1.43048 0
M  V30 3270 H 295.143 -3.18951 2.68935 0
M  V30 3271 H 293.773 -2.79242 1.61938 0
M  V30 3272 H 292.825 -1.34458 3.55844 0
M  V30 3273 H 294.137 -1.96661 4.58395 0
M  V30 3274 H 293.291 -4.30233 4.27767 0
M  V30 3275 H 292.03 -3.71904 3.15498 0
M  V30 3276 H 291.035 -2.31827 4.98534 0
M  V30 3277 H 292.26 -2.93103 6.12591 0
M  V30 3278 H 290.206 -4.6241 4.6531 0
M  V30 3279 H 290.123 -4.1511 6.31838 0
M  V30 3280 H 291.391 -5.21723 5.7916 0
M  V30 3281 N 295.62 -1.53406 -0.361157 0
M  V30 3282 C 296.866 -1.70054 -1.10496 0
M  V30 3283 C 297.199 -0.453278 -1.88836 0
M  V30 3284 O 296.474 0.5495 -1.86576 0
M  V30 3285 C 296.757 -2.95317 -2.06058 0
M  V30 3286 C 296.61 -4.3021 -1.31298 0
M  V30 3287 C 297.929 -3.16193 -3.06121 0
M  V30 3288 H 295.048 -0.618799 -0.400321 0
M  V30 3289 H 297.69 -1.86052 -0.385318 0
M  V30 3290 H 295.84 -2.81809 -2.67425 0
M  V30 3291 H 297.512 -4.55538 -0.726807 0
M  V30 3292 H 295.755 -4.29421 -0.614853 0
M  V30 3293 H 296.426 -5.14 -2.01265 0
M  V30 3294 H 298.902 -3.28916 -2.5486 0
M  V30 3295 H 297.778 -4.05266 -3.70204 0
M  V30 3296 H 298.039 -2.31676 -3.76535 0
M  V30 3297 N 297.098 0.621204 -1.44841 0
M  V30 3298 C 298.323 1.41244 -1.51871 0
M  V30 3299 C 298.748 1.87519 -0.147764 0
M  V30 3300 O 298.106 1.59334 0.865 0
M  V30 3301 C 298.154 2.60221 -2.49634 0
M  V30 3302 O 297.258 3.60395 -2.00473 0
M  V30 3303 H 296.599 0.42223 -0.512463 0
M  V30 3304 H 299.129 0.757305 -1.90069 0
M  V30 3305 H 299.139 3.0764 -2.67996 0
M  V30 3306 H 297.814 2.25887 -3.4921 0
M  V30 3307 H 296.391 3.19717 -1.91925 0
M  V30 3308 N 298.576 1.31904 0.862503 0
M  V30 3309 C 299.508 1.16005 1.97675 0
M  V30 3310 C 300.521 0.0971234 1.6251 0
M  V30 3311 O 301.71 0.345337 1.75128 0
M  V30 3312 C 298.81 0.751791 3.30456 0
M  V30 3313 C 297.983 1.90133 3.93914 0
M  V30 3314 C 297.042 1.4779 5.05019 0
M  V30 3315 O 296.068 2.18872 5.25437 0
M  V30 3316 N 297.27 0.369491 5.79323 0
M  V30 3317 H 300.035 2.11982 2.11857 0
M  V30 3318 H 297.596 1.24337 1.03691 0
M  V30 3319 H 299.588 0.451084 4.02178 0
M  V30 3320 H 298.158 -0.116593 3.12382 0
M  V30 3321 H 297.378 2.36896 3.15078 0
M  V30 3322 H 298.666 2.67111 4.33047 0
M  V30 3323 H 298.064 -0.222299 5.65263 0
M  V30 3324 H 296.621 0.128354 6.51674 0
M  V30 3325 N 300.054 -1.07777 1.14986 0
M  V30 3326 C 301.001 -2.14867 0.842672 0
M  V30 3327 C 301.971 -1.6486 -0.202552 0
M  V30 3328 O 303.156 -1.90668 -0.0710568 0
M  V30 3329 C 300.296 -3.43486 0.333363 0
M  V30 3330 C 299.409 -4.07306 1.43965 0
M  V30 3331 C 298.544 -5.23744 0.886914 0
M  V30 3332 C 297.583 -5.79517 1.97043 0
M  V30 3333 N 296.72 -6.87291 1.4344 0
M  V30 3334 H 301.56 -2.40485 1.75986 0
M  V30 3335 H 299.097 -1.1801 0.878179 0
M  V30 3336 H 301.055 -4.17195 0.0198163 0
M  V30 3337 H 299.685 -3.18133 -0.546916 0
M  V30 3338 H 298.737 -3.31293 1.86946 0
M  V30 3339 H 300.049 -4.44771 2.25788 0
M  V30 3340 H 299.203 -6.04419 0.525651 0
M  V30 3341 H 297.942 -4.87685 0.0377957 0
M  V30 3342 H 296.947 -4.97491 2.34057 0
M  V30 3343 H 298.172 -6.17632 2.82325 0
M  V30 3344 H 296.118 -6.5318 0.607567 0
M  V30 3345 H 296.035 -7.23617 2.18895 0
M  V30 3346 H 297.303 -7.71682 1.10124 0
M  V30 3347 N 301.532 -0.945985 -1.26051 0
M  V30 3348 C 302.943 -0.638096 -1.75457 0
M  V30 3349 C 303.294 0.846672 -1.76991 0
M  V30 3350 O 302.419 1.66262 -1.38513 0
M  V30 3351 C 303.014 -1.15157 -3.18629 0
M  V30 3352 C 301.573 -0.894004 -3.65629 0
M  V30 3353 C 300.72 -1.29967 -2.44957 0
M  V30 3354 H 303.671 -1.12376 -1.1206 0
M  V30 3355 H 303.692 -0.507615 -3.77099 0
M  V30 3356 H 303.204 -2.23222 -3.1748 0
M  V30 3357 H 301.305 0.172057 -3.72203 0
M  V30 3358 H 301.418 -1.52439 -4.54202 0
M  V30 3359 H 299.782 -0.718078 -2.44368 0
M  V30 3360 H 300.565 -2.38935 -2.46505 0
M  V30 3361 N 303.011 1.40521 -0.713556 0
M  V30 3362 C 304.236 2.05759 -0.26035 0
M  V30 3363 C 304.661 1.53403 1.08854 0
M  V30 3364 O 304.019 0.668535 1.68524 0
M  V30 3365 C 304.067 3.59745 -0.248122 0
M  V30 3366 O 303.171 4.05123 0.77131 0
M  V30 3367 H 302.512 0.652564 -0.122703 0
M  V30 3368 H 305.042 1.79958 -0.973467 0
M  V30 3369 H 305.052 4.07911 -0.0851129 0
M  V30 3370 H 303.727 3.97218 -1.2325 0
M  V30 3371 H 302.304 3.68422 0.57619 0
M  V30 3372 N 304.489 0.459591 1.5075 0
M  V30 3373 C 305.717 -0.0973749 2.06671 0
M  V30 3374 C 306.132 -1.34524 1.32472 0
M  V30 3375 O 305.489 -1.7827 0.390634 0
M  V30 3376 C 305.54 -0.39714 3.59312 0
M  V30 3377 O 305.261 0.801214 4.30711 0
M  V30 3378 C 306.762 -1.00234 4.31819 0
M  V30 3379 H 303.982 0.00195854 0.670997 0
M  V30 3380 H 306.526 0.645072 1.94059 0
M  V30 3381 H 304.681 -1.08951 3.71764 0
M  V30 3382 H 305.095 0.538857 5.21725 0
M  V30 3383 H 306.569 -1.16193 5.39632 0
M  V30 3384 H 307.046 -1.98939 3.91561 0
M  V30 3385 H 307.652 -0.348699 4.23868 0
M  V30 3386 N 305.967 -1.56429 0.191757 0
M  V30 3387 C 307.192 -2.02309 -0.456706 0
M  V30 3388 C 307.617 -1.07103 -1.5463 0
M  V30 3389 O 306.975 -0.0539677 -1.8122 0
M  V30 3390 C 307.023 -3.46654 -0.993159 0
M  V30 3391 O 306.127 -3.54559 -2.10622 0
M  V30 3392 H 305.468 -0.655303 -0.107114 0
M  V30 3393 H 307.998 -2.02364 0.301653 0
M  V30 3394 H 308.008 -3.86377 -1.31061 0
M  V30 3395 H 306.683 -4.1544 -0.195504 0
M  V30 3396 H 305.26 -3.26708 -1.79767 0
M  V30 3397 N 307.445 0.0818655 -1.57387 0
M  V30 3398 C 308.673 0.796108 -1.9097 0
M  V30 3399 C 309.088 1.71626 -0.786757 0
M  V30 3400 O 308.445 1.80908 0.240513 0
M  V30 3401 C 308.496 1.59829 -3.24248 0
M  V30 3402 O 308.217 0.715131 -4.32224 0
M  V30 3403 C 309.718 2.41442 -3.7178 0
M  V30 3404 H 306.938 0.22691 -0.631469 0
M  V30 3405 H 309.482 0.0551439 -2.04426 0
M  V30 3406 H 307.637 2.29163 -3.12351 0
M  V30 3407 H 308.051 1.27205 -5.08841 0
M  V30 3408 H 309.525 2.932 -4.67694 0
M  V30 3409 H 310.002 3.2051 -3.00283 0
M  V30 3410 H 310.608 1.77283 -3.86589 0
M  V30 3411 N 308.923 1.53595 0.353017 0
M  V30 3412 C 310.339 1.43648 0.695516 0
M  V30 3413 C 310.539 0.585617 1.92802 0
M  V30 3414 O 309.595 0.0729223 2.52395 0
M  V30 3415 C 310.908 2.8701 0.896991 0
M  V30 3416 C 312.456 2.96723 0.996209 0
M  V30 3417 C 312.931 4.41173 1.23007 0
M  V30 3418 N 314.422 4.44657 1.29749 0
M  V30 3419 C 315.157 5.53547 1.49577 0
M  V30 3420 N 314.653 6.72461 1.66639 0
M  V30 3421 N 316.446 5.41145 1.52048 0
M  V30 3422 H 308.597 2.07415 -0.457481 0
M  V30 3423 H 310.86 0.9372 -0.142687 0
M  V30 3424 H 310.566 3.51644 0.0629938 0
M  V30 3425 H 310.44 3.31401 1.80148 0
M  V30 3426 H 312.827 2.32235 1.82074 0
M  V30 3427 H 312.908 2.55707 0.0688331 0
M  V30 3428 H 312.552 5.06238 0.410505 0
M  V30 3429 H 312.482 4.79772 2.17086 0
M  V30 3430 H 314.973 3.58963 1.18126 0
M  V30 3431 H 315.286 7.51214 1.81378 0
M  V30 3432 H 313.631 6.75423 1.63794 0
M  V30 3433 H 316.822 4.47205 1.38294 0
M  V30 3434 H 316.995 6.26068 1.67159 0
M  V30 3435 N 310.401 -0.613514 1.45168 0
M  V30 3436 C 311.626 -1.40437 1.52618 0
M  V30 3437 C 312.051 -1.87438 0.157707 0
M  V30 3438 O 311.409 -1.59791 -0.856537 0
M  V30 3439 C 311.457 -2.58894 2.51011 0
M  V30 3440 O 310.561 -3.59326 2.02382 0
M  V30 3441 H 309.902 -0.419506 0.514695 0
M  V30 3442 H 312.432 -0.747215 1.90467 0
M  V30 3443 H 312.442 -3.06214 2.69624 0
M  V30 3444 H 311.117 -2.24032 3.50403 0
M  V30 3445 H 309.694 -3.18695 1.93618 0
M  V30 3446 N 311.879 -1.3236 -0.855495 0
M  V30 3447 C 312.827 -1.2118 -1.9854 0
M  V30 3448 C 313.821 -0.116788 -1.68997 0
M  V30 3449 O 315.027 -0.279657 -1.77814 0
M  V30 3450 H 311.402 -0.375608 -0.651477 0
M  V30 3451 H 313.373 -2.16743 -2.05098 0
M  V30 3452 C 312.122 -0.950849 -3.34446 0
M  V30 3453 H 311.445 -1.78563 -3.57708 0
M  V30 3454 H 312.885 -0.912863 -4.14057 0
M  V30 3455 C 311.344 0.346404 -3.35114 0
M  V30 3456 O 311.874 1.35855 -3.7803 0
M  V30 3457 N 310.08 0.36808 -2.88259 0
M  V30 3458 H 309.627 -0.456102 -2.5353 0
M  V30 3459 H 309.585 1.23591 -2.89089 0
M  V30 3460 N 313.357 1.07166 -1.15556 0
M  V30 3461 C 314.305 2.16517 -0.8499 0
M  V30 3462 C 315.299 1.68468 0.177454 0
M  V30 3463 O 316.505 1.79971 0.0323026 0
M  V30 3464 H 312.88 0.706652 -0.25719 0
M  V30 3465 H 314.851 2.39514 -1.77976 0
M  V30 3466 C 313.6 3.45855 -0.357682 0
M  V30 3467 H 312.923 3.83214 -1.13961 0
M  V30 3468 H 314.363 4.23607 -0.182489 0
M  V30 3469 C 312.822 3.24062 0.921152 0
M  V30 3470 O 313.352 3.48813 1.9923 0
M  V30 3471 N 311.558 2.77539 0.86141 0
M  V30 3472 H 311.105 2.57598 -0.0104408 0
M  V30 3473 H 311.063 2.63337 1.71758 0
M  V30 3474 N 314.835 0.952656 1.25548 0
M  V30 3475 C 315.745 0.47782 2.29682 0
M  V30 3476 C 316.761 -0.453859 1.67977 0
M  V30 3477 O 317.937 -0.330587 1.98668 0
M  V30 3478 C 315.002 -0.238655 3.45878 0
M  V30 3479 C 314.063 0.730994 4.23031 0
M  V30 3480 C 313.296 0.0486165 5.33678 0
M  V30 3481 O 313.519 -1.16612 5.58353 0
M  V30 3482 O 312.453 0.733152 5.97418 0
M  V30 3483 H 316.279 1.34312 2.72386 0
M  V30 3484 H 313.864 0.719026 1.30959 0
M  V30 3485 H 315.746 -0.641774 4.16484 0
M  V30 3486 H 314.421 -1.07916 3.05181 0
M  V30 3487 H 313.328 1.18428 3.5486 0
M  V30 3488 H 314.661 1.53946 4.67506 0
M  V30 3489 N 316.313 -1.40141 0.720998 0
M  V30 3490 C 317.559 -2.01084 0.263231 0
M  V30 3491 C 317.892 -1.57052 -1.14229 0
M  V30 3492 O 317.167 -0.793027 -1.77599 0
M  V30 3493 C 317.45 -3.58401 0.349344 0
M  V30 3494 C 317.303 -4.12491 1.79363 0
M  V30 3495 C 318.622 -4.39231 -0.276351 0
M  V30 3496 H 315.741 -0.730572 0.0971228 0
M  V30 3497 H 318.383 -1.66543 0.914518 0
M  V30 3498 H 316.533 -3.87958 -0.205165 0
M  V30 3499 H 318.205 -3.93711 2.40394 0
M  V30 3500 H 316.448 -3.66576 2.31958 0
M  V30 3501 H 317.119 -5.21646 1.80524 0
M  V30 3502 H 319.595 -4.15637 0.196184 0
M  V30 3503 H 318.471 -5.48586 -0.185681 0
M  V30 3504 H 318.732 -4.20643 -1.36059 0
M  V30 3505 N 317.792 -0.46758 -1.50504 0
M  V30 3506 C 318.739 0.328413 -2.28452 0
M  V30 3507 C 319.709 0.990313 -1.33349 0
M  V30 3508 O 320.894 1.00343 -1.62284 0
M  V30 3509 C 318.034 1.40648 -3.15138 0
M  V30 3510 C 317.147 0.759709 -4.25267 0
M  V30 3511 C 316.282 1.81537 -4.99217 0
M  V30 3512 C 315.321 1.14866 -6.01226 0
M  V30 3513 N 314.458 2.14702 -6.68467 0
M  V30 3514 H 319.298 -0.342603 -2.96024 0
M  V30 3515 H 316.835 -0.180801 -1.45985 0
M  V30 3516 H 318.793 2.04315 -3.63746 0
M  V30 3517 H 317.423 2.04671 -2.49619 0
M  V30 3518 H 316.475 0.0105671 -3.80399 0
M  V30 3519 H 317.787 0.233243 -4.98254 0
M  V30 3520 H 316.941 2.52793 -5.51526 0
M  V30 3521 H 315.68 2.37564 -4.25928 0
M  V30 3522 H 314.685 0.42171 -5.4818 0
M  V30 3523 H 315.91 0.595334 -6.76485 0
M  V30 3524 H 313.856 2.69752 -5.97972 0
M  V30 3525 H 313.773 1.6703 -7.37317 0
M  V30 3526 H 315.041 2.85348 -7.25394 0
M  V30 3527 N 319.27 1.56325 -0.20005 0
M  V30 3528 C 320.519 1.96895 0.437652 0
M  V30 3529 C 320.832 1.08999 1.62415 0
M  V30 3530 O 322.038 1.39372 2.32997 0
M  V30 3531 C 320.494 3.50198 0.830025 0
M  V30 3532 C 320.102 4.46765 -0.332461 0
M  V30 3533 C 321.846 3.99526 1.43453 0
M  V30 3534 C 319.753 5.91344 0.0811468 0
M  V30 3535 H 318.683 0.735209 0.167282 0
M  V30 3536 H 321.334 1.81148 -0.292853 0
M  V30 3537 H 319.716 3.61467 1.61734 0
M  V30 3538 H 320.89 4.47231 -1.11 0
M  V30 3539 H 319.205 4.07657 -0.848789 0
M  V30 3540 H 321.802 5.05025 1.75652 0
M  V30 3541 H 322.145 3.44122 2.34277 0
M  V30 3542 H 322.678 3.91393 0.71109 0
M  V30 3543 H 319.417 6.50685 -0.793033 0
M  V30 3544 H 318.937 5.94121 0.823445 0
M  V30 3545 H 320.616 6.44945 0.515252 0
M  V30 3546 N 320.748 -0.0735177 1.57428 0
M  V30 3547 C 322.164 -0.428264 1.53747 0
M  V30 3548 C 322.364 -1.79272 0.91998 0
M  V30 3549 O 321.42 -2.47051 0.521745 0
M  V30 3550 C 322.733 -0.370914 2.98404 0
M  V30 3551 C 324.281 -0.451224 3.0973 0
M  V30 3552 C 324.756 -0.4238 4.56035 0
M  V30 3553 N 326.247 -0.483925 4.60665 0
M  V30 3554 C 326.982 -0.484891 5.71346 0
M  V30 3555 N 326.478 -0.440775 6.91396 0
M  V30 3556 N 328.271 -0.531319 5.59583 0
M  V30 3557 H 320.422 0.819949 1.95935 0
M  V30 3558 H 322.685 0.307493 0.896745 0
M  V30 3559 H 322.391 0.564956 3.47133 0
M  V30 3560 H 322.265 -1.18176 3.5821 0
M  V30 3561 H 324.652 -1.37752 2.60976 0
M  V30 3562 H 324.733 0.388167 2.52838 0
M  V30 3563 H 324.377 0.498638 5.05446 0
M  V30 3564 H 324.307 -1.2807 5.10789 0
M  V30 3565 H 326.798 -0.522338 3.74273 0
M  V30 3566 H 327.111 -0.44539 7.71515 0
M  V30 3567 H 325.456 -0.40749 6.93804 0
M  V30 3568 H 328.647 -0.563464 4.64696 0
M  V30 3569 H 328.82 -0.528603 6.4584 0
M  V30 3570 N 322.226 -1.5378 -0.344866 0
M  V30 3571 C 323.189 -1.80981 -1.40637 0
M  V30 3572 C 324.189 -0.680816 -1.45676 0
M  V30 3573 O 325.379 -0.949095 -1.46075 0
M  V30 3574 C 322.511 -1.95063 -2.79577 0
M  V30 3575 H 323.704 -2.75803 -1.17783 0
M  V30 3576 H 321.257 -1.45173 -0.579181 0
M  V30 3577 H 321.992 -1.02379 -3.07716 0
M  V30 3578 H 321.777 -2.77198 -2.77315 0
M  V30 3579 H 323.267 -2.17629 -3.56409 0
M  V30 3580 N 323.704 0.605807 -1.45491 0
M  V30 3581 C 324.667 1.69836 -1.5391 0
M  V30 3582 C 325.667 1.55261 -0.418424 0
M  V30 3583 O 326.857 1.60296 -0.681965 0
M  V30 3584 C 323.989 3.09117 -1.43734 0
M  V30 3585 H 325.182 1.63738 -2.51257 0
M  V30 3586 H 322.735 0.821689 -1.32959 0
M  V30 3587 H 323.47 3.20791 -0.475788 0
M  V30 3588 H 323.255 3.21104 -2.25021 0
M  V30 3589 H 324.745 3.88696 -1.52661 0
M  V30 3590 N 325.182 1.32811 0.848464 0
M  V30 3591 C 326.407 1.26882 1.6406 0
M  V30 3592 C 326.832 -0.15913 1.87426 0
M  V30 3593 O 326.19 -1.11258 1.43148 0
M  V30 3594 C 326.238 2.03997 2.97351 0
M  V30 3595 O 325.342 1.39201 3.88197 0
M  V30 3596 H 324.683 0.436982 0.499943 0
M  V30 3597 H 327.213 1.75224 1.0563 0
M  V30 3598 H 327.223 2.14403 3.47124 0
M  V30 3599 H 325.898 3.0783 2.79666 0
M  V30 3600 H 324.475 1.37381 3.46671 0
M  V30 3601 N 326.66 -1.06551 1.16123 0
M  V30 3602 C 327.608 -2.16063 0.861371 0
M  V30 3603 C 328.602 -1.6856 -0.168517 0
M  V30 3604 O 329.808 -1.79986 -0.0227579 0
M  V30 3605 H 326.183 -0.705278 0.260934 0
M  V30 3606 H 328.154 -2.38567 1.79244 0
M  V30 3607 C 326.903 -3.45661 0.376018 0
M  V30 3608 H 326.226 -3.82604 1.15992 0
M  V30 3609 H 327.666 -4.23504 0.204951 0
M  V30 3610 C 326.125 -3.24546 -0.903954 0
M  V30 3611 O 326.655 -3.49865 -1.97377 0
M  V30 3612 N 324.861 -2.77992 -0.846679 0
M  V30 3613 H 324.408 -2.57589 0.0241017 0
M  V30 3614 H 324.366 -2.64244 -1.70359 0
M  V30 3615 N 328.138 -0.959301 -1.25041 0
M  V30 3616 C 329.07 -0.440543 -2.24926 0
M  V30 3617 C 330.083 0.446131 -1.56568 0
M  V30 3618 O 331.272 0.253657 -1.76689 0
M  V30 3619 C 328.372 0.38412 -3.36716 0
M  V30 3620 C 327.545 -0.490658 -4.34639 0
M  V30 3621 C 326.604 0.276587 -5.25473 0
M  V30 3622 O 325.63 -0.326614 -5.68262 0
M  V30 3623 N 326.832 1.56844 -5.5891 0
M  V30 3624 H 329.597 -1.29931 -2.70071 0
M  V30 3625 H 327.158 -0.830181 -1.38995 0
M  V30 3626 H 329.15 0.905228 -3.94446 0
M  V30 3627 H 327.72 1.14377 -2.90924 0
M  V30 3628 H 326.94 -1.19282 -3.7572 0
M  V30 3629 H 328.228 -1.08756 -4.97041 0
M  V30 3630 H 327.626 2.08036 -5.26059 0
M  V30 3631 H 326.183 2.03541 -6.19205 0
M  V30 3632 N 329.616 1.39756 -0.72842 0
M  V30 3633 C 330.526 2.34444 -0.0855374 0
M  V30 3634 C 331.542 1.57976 0.729356 0
M  V30 3635 O 332.718 1.90301 0.659346 0
M  V30 3636 C 329.783 3.36965 0.815798 0
M  V30 3637 C 328.844 4.29299 -0.0105996 0
M  V30 3638 C 328.077 5.26923 0.84781 0
M  V30 3639 O 328.3 5.30859 2.08673 0
M  V30 3640 O 327.234 6.01249 0.279969 0
M  V30 3641 H 331.06 2.91065 -0.866892 0
M  V30 3642 H 328.645 1.4117 -0.48902 0
M  V30 3643 H 330.527 3.99804 1.33171 0
M  V30 3644 H 329.202 2.82739 1.57608 0
M  V30 3645 H 328.109 3.69703 -0.571877 0
M  V30 3646 H 329.442 4.86712 -0.73295 0
M  V30 3647 N 331.094 0.475555 1.50254 0
M  V30 3648 C 332.322 -0.0754493 2.06762 0
M  V30 3649 C 332.737 -1.33111 1.33891 0
M  V30 3650 O 332.094 -1.77846 0.40952 0
M  V30 3651 C 332.145 -0.359008 3.59713 0
M  V30 3652 O 331.866 0.846851 4.29837 0
M  V30 3653 C 333.367 -0.956484 4.32858 0
M  V30 3654 H 330.587 0.00907525 0.670939 0
M  V30 3655 H 333.131 0.665618 1.93364 0
M  V30 3656 H 331.286 -1.05001 3.72899 0
M  V30 3657 H 331.7 0.594162 5.21124 0
M  V30 3658 H 333.174 -1.10463 5.40834 0
M  V30 3659 H 333.651 -1.94775 3.93649 0
M  V30 3660 H 334.257 -0.303723 4.24214 0
M  V30 3661 N 332.573 -1.56217 0.208337 0
M  V30 3662 C 333.503 -2.22694 -0.702116 0
M  V30 3663 C 334.484 -1.19432 -1.2112 0
M  V30 3664 O 335.669 -1.47978 -1.25762 0
M  V30 3665 C 332.799 -2.8966 -1.9161 0
M  V30 3666 C 331.753 -3.9928 -1.5414 0
M  V30 3667 C 331.079 -4.53476 -2.83308 0
M  V30 3668 C 332.379 -5.17012 -0.741339 0
M  V30 3669 H 334.073 -2.99034 -0.147898 0
M  V30 3670 H 331.619 -1.43831 -0.0696951 0
M  V30 3671 H 333.572 -3.34852 -2.55836 0
M  V30 3672 H 332.296 -2.10746 -2.49507 0
M  V30 3673 H 330.955 -3.54799 -0.922668 0
M  V30 3674 H 330.603 -3.71308 -3.39322 0
M  V30 3675 H 330.303 -5.27451 -2.58976 0
M  V30 3676 H 331.827 -5.01378 -3.485 0
M  V30 3677 H 333.241 -5.58667 -1.28699 0
M  V30 3678 H 331.638 -5.97137 -0.595627 0
M  V30 3679 H 332.708 -4.8423 0.254851 0
M  V30 3680 N 334.051 0.0651679 -1.57465 0
M  V30 3681 C 335.279 0.775808 -1.91804 0
M  V30 3682 C 335.694 1.70782 -0.804916 0
M  V30 3683 O 335.051 1.81153 0.221311 0
M  V30 3684 C 335.102 1.56381 -3.25925 0
M  V30 3685 O 334.823 0.669248 -4.32958 0
M  V30 3686 C 336.324 2.37485 -3.7432 0
M  V30 3687 H 333.544 0.2202 -0.63384 0
M  V30 3688 H 336.088 0.0334587 -2.04473 0
M  V30 3689 H 334.243 2.25837 -3.14764 0
M  V30 3690 H 334.657 1.21801 -5.10162 0
M  V30 3691 H 336.131 2.88223 -4.70778 0
M  V30 3692 H 336.608 3.17307 -3.03666 0
M  V30 3693 H 337.214 1.73173 -3.88447 0
M  V30 3694 N 335.529 1.53961 0.336706 0
M  V30 3695 C 336.754 1.75797 1.10046 0
M  V30 3696 C 337.179 0.498985 1.81361 0
M  V30 3697 O 336.537 -0.548769 1.72795 0
M  V30 3698 C 336.585 2.94257 2.08436 0
M  V30 3699 O 335.689 2.64883 3.16087 0
M  V30 3700 H 335.03 0.582936 0.317934 0
M  V30 3701 H 337.56 2.00945 0.38501 0
M  V30 3702 H 337.57 3.21237 2.51537 0
M  V30 3703 H 336.245 3.85564 1.55927 0
M  V30 3704 H 334.822 2.48812 2.77753 0
M  V30 3705 N 337.007 -0.598083 1.45811 0
M  V30 3706 C 337.97 -1.69018 1.54808 0
M  V30 3707 C 338.97 -1.55037 0.426652 0
M  V30 3708 O 340.16 -1.59932 0.690456 0
M  V30 3709 C 337.292 -3.0835 1.45371 0
M  V30 3710 H 338.485 -1.62403 2.52121 0
M  V30 3711 H 336.038 -0.814626 1.33392 0
M  V30 3712 H 336.773 -3.20534 0.492793 0
M  V30 3713 H 336.558 -3.19907 2.26721 0
M  V30 3714 H 338.048 -3.8788 1.54721 0
M  V30 3715 N 338.485 -1.33259 -0.841409 0
M  V30 3716 C 339.762 -1.15174 -1.58096 0
M  V30 3717 C 340.142 0.282858 -2.09196 0
M  V30 3718 O 339.49 1.28151 -1.89181 0
M  V30 3719 C 339.7 -2.1907 -2.71679 0
M  V30 3720 C 341.048 -2.53093 -3.40924 0
M  V30 3721 O 342.072 -2.17717 -2.81918 0
M  V30 3722 O 340.931 -3.1379 -4.47435 0
M  V30 3723 H 338.025 -0.445303 -0.696875 0
M  V30 3724 H 340.571 -1.44833 -0.884385 0
M  V30 3725 H 339.343 -3.15443 -2.31541 0
M  V30 3726 H 338.966 -1.90481 -3.49002 0
M  V30 3727 N 339.963 1.05934 -1.16686 0
M  V30 3728 C 341.374 1.60263 -0.957745 0
M  V30 3729 C 341.725 1.89789 0.49745 0
M  V30 3730 O 340.85 1.67401 1.37135 0
M  V30 3731 C 341.445 2.91172 -1.73218 0
M  V30 3732 C 340.004 3.42188 -1.56794 0
M  V30 3733 C 339.151 2.16028 -1.73859 0
M  V30 3734 H 342.102 0.888392 -1.31504 0
M  V30 3735 H 342.123 3.60744 -1.21014 0
M  V30 3736 H 341.635 2.6965 -2.79124 0
M  V30 3737 H 339.736 3.68762 -0.533437 0
M  V30 3738 H 339.849 4.17273 -2.35414 0
M  V30 3739 H 338.213 2.26426 -1.16633 0
M  V30 3740 H 338.996 1.96985 -2.81161 0
M  V30 3741 N 341.441 0.965919 1.2453 0
M  V30 3742 C 342.351 0.502154 2.29163 0
M  V30 3743 C 343.367 -0.436017 1.68448 0
M  V30 3744 O 344.543 -0.309497 1.99008 0
M  V30 3745 C 341.608 -0.201956 3.46111 0
M  V30 3746 C 340.669 0.775821 4.22232 0
M  V30 3747 C 339.902 0.105217 5.33596 0
M  V30 3748 O 340.125 -1.10683 5.59558 0
M  V30 3749 O 339.059 0.796475 5.96607 0
M  V30 3750 H 342.885 1.37194 2.70946 0
M  V30 3751 H 340.47 0.732875 1.30189 0
M  V30 3752 H 342.352 -0.597564 4.17142 0
M  V30 3753 H 341.027 -1.04673 3.06309 0
M  V30 3754 H 339.934 1.22185 3.53584 0
M  V30 3755 H 341.267 1.58896 4.65846 0
M  V30 3756 N 342.919 -1.39368 0.735821 0
M  V30 3757 C 344.167 -2.00101 0.283562 0
M  V30 3758 C 344.488 -1.5868 -1.13338 0
M  V30 3759 O 343.758 -0.835423 -1.77193 0
M  V30 3760 H 342.338 -0.740024 0.101851 0
M  V30 3761 H 345 -1.70404 0.945962 0
M  V30 3762 H 344.096 -3.10323 0.332604 0
M  V30 3763 N 344.397 -0.483516 -1.5 0
M  V30 3764 C 345.329 0.340634 -2.26655 0
M  V30 3765 C 346.342 0.946152 -1.32483 0
M  V30 3766 O 347.531 0.832453 -1.579 0
M  V30 3767 C 344.631 1.4929 -3.04246 0
M  V30 3768 C 343.804 0.997903 -4.25865 0
M  V30 3769 C 342.863 2.02569 -4.85646 0
M  V30 3770 O 341.889 1.60128 -5.46212 0
M  V30 3771 N 343.091 3.3548 -4.73744 0
M  V30 3772 H 345.856 -0.316577 -2.98023 0
M  V30 3773 H 343.417 -0.315024 -1.58806 0
M  V30 3774 H 345.409 2.17766 -3.41116 0
M  V30 3775 H 343.979 2.05458 -2.35597 0
M  V30 3776 H 343.199 0.138617 -3.93956 0
M  V30 3777 H 344.487 0.645305 -5.04691 0
M  V30 3778 H 343.885 3.72661 -4.25605 0
M  V30 3779 H 342.442 3.99718 -5.14848 0
M  V30 3780 N 345.875 1.56104 -0.216619 0
M  V30 3781 C 347.124 1.97348 0.416744 0
M  V30 3782 C 347.437 1.10715 1.6125 0
M  V30 3783 O 348.643 1.41836 2.31506 0
M  V30 3784 C 347.099 3.51059 0.792835 0
M  V30 3785 C 346.707 4.46387 -0.379828 0
M  V30 3786 C 348.451 4.01026 1.39208 0
M  V30 3787 C 346.358 5.91397 0.0184223 0
M  V30 3788 H 345.288 0.736942 0.159475 0
M  V30 3789 H 347.939 1.80827 -0.31205 0
M  V30 3790 H 346.321 3.63162 1.57891 0
M  V30 3791 H 347.495 4.46029 -1.15737 0
M  V30 3792 H 345.81 4.06734 -0.891979 0
M  V30 3793 H 348.407 5.0686 1.70286 0
M  V30 3794 H 348.75 3.46587 2.30614 0
M  V30 3795 H 349.283 3.92125 0.669537 0
M  V30 3796 H 346.022 6.49807 -0.862002 0
M  V30 3797 H 345.542 5.94961 0.760384 0
M  V30 3798 H 347.221 6.45455 0.446818 0
M  V30 3799 N 347.353 -0.0568162 1.57498 0
M  V30 3800 C 348.286 -1.09817 2.00039 0
M  V30 3801 C 349.264 -1.3674 0.879819 0
M  V30 3802 O 350.448 -1.49863 1.14338 0
M  V30 3803 C 347.575 -2.43924 2.34986 0
M  V30 3804 C 346.621 -2.33039 3.57204 0
M  V30 3805 S 347.454 -1.7102 5.07457 0
M  V30 3806 C 348.61 -3.06674 5.45621 0
M  V30 3807 H 348.843 -0.735701 2.88053 0
M  V30 3808 H 346.376 -0.265871 1.52094 0
M  V30 3809 H 348.334 -3.2106 2.55795 0
M  V30 3810 H 346.995 -2.77327 1.47474 0
M  V30 3811 H 346.188 -3.31973 3.79223 0
M  V30 3812 H 345.79 -1.64043 3.36104 0
M  V30 3813 H 348.082 -4.03 5.44608 0
M  V30 3814 H 349.025 -2.8942 6.46252 0
M  V30 3815 H 349.433 -3.07969 4.73091 0
M  V30 3816 N 348.832 -1.54138 -0.328536 0
M  V30 3817 C 350.248 -1.44736 -0.672574 0
M  V30 3818 C 350.448 -0.616217 -1.91846 0
M  V30 3819 O 349.504 -0.113067 -2.52247 0
M  V30 3820 C 350.817 -2.884 -0.851217 0
M  V30 3821 C 352.365 -2.98271 -0.948877 0
M  V30 3822 C 352.84 -4.43074 -1.15973 0
M  V30 3823 N 354.331 -4.46665 -1.22658 0
M  V30 3824 C 355.066 -5.55857 -1.40751 0
M  V30 3825 N 354.562 -6.75026 -1.5592 0
M  V30 3826 N 356.355 -5.43495 -1.4342 0
M  V30 3827 H 348.506 -2.06661 0.490421 0
M  V30 3828 H 350.769 -0.934812 0.157579 0
M  V30 3829 H 350.475 -3.51699 -0.00704236 0
M  V30 3830 H 350.349 -3.34225 -1.74853 0
M  V30 3831 H 352.736 -2.35102 -1.78356 0
M  V30 3832 H 352.817 -2.55785 -0.0281435 0
M  V30 3833 H 352.461 -5.06827 -0.329915 0
M  V30 3834 H 352.391 -4.83165 -2.09426 0
M  V30 3835 H 354.882 -3.60797 -1.124 0
M  V30 3836 H 355.195 -7.54004 -1.69404 0
M  V30 3837 H 353.54 -6.77944 -1.53027 0
M  V30 3838 H 356.731 -4.49349 -1.31162 0
M  V30 3839 H 356.904 -6.28649 -1.57178 0
M  V30 3840 N 350.31 0.590341 -1.46126 0
M  V30 3841 C 351.22 1.72793 -1.58681 0
M  V30 3842 C 352.236 1.67516 -0.470566 0
M  V30 3843 O 353.412 1.87562 -0.733642 0
M  V30 3844 C 350.477 3.09287 -1.5666 0
M  V30 3845 C 349.538 3.25886 -2.79458 0
M  V30 3846 C 348.771 4.55869 -2.77524 0
M  V30 3847 O 348.994 5.3928 -1.85832 0
M  V30 3848 O 347.928 4.75552 -3.68964 0
M  V30 3849 H 351.754 1.65149 -2.54872 0
M  V30 3850 H 349.339 0.756486 -1.28832 0
M  V30 3851 H 351.221 3.90577 -1.58202 0
M  V30 3852 H 349.896 3.17385 -0.636271 0
M  V30 3853 H 348.803 2.44119 -2.83472 0
M  V30 3854 H 350.136 3.22675 -3.71674 0
M  V30 3855 N 351.788 1.33704 0.83433 0
M  V30 3856 C 353.018 1.28281 1.6195 0
M  V30 3857 C 353.426 -0.147603 1.88623 0
M  V30 3858 O 352.769 -1.1016 1.47005 0
M  V30 3859 C 352.831 1.99386 2.99141 0
M  V30 3860 C 352.495 3.48681 2.95416 0
M  V30 3861 C 353.492 4.438 2.70809 0
M  V30 3862 C 351.177 3.90925 3.15409 0
M  V30 3863 C 353.171 5.79138 2.66229 0
M  V30 3864 C 350.858 5.26366 3.10454 0
M  V30 3865 C 351.856 6.20284 2.85895 0
M  V30 3866 O 351.544 7.53245 2.80852 0
M  V30 3867 H 351.276 0.44315 0.510484 0
M  V30 3868 H 353.83 1.76711 1.04702 0
M  V30 3869 H 352.06 1.45554 3.58261 0
M  V30 3870 H 353.749 1.87403 3.60049 0
M  V30 3871 H 354.515 4.12485 2.5511 0
M  V30 3872 H 350.394 3.18229 3.33543 0
M  V30 3873 H 353.938 6.52416 2.4698 0
M  V30 3874 H 349.835 5.57304 3.25703 0
M  V30 3875 H 350.603 7.62846 2.96661 0
M  V30 3876 N 353.266 -1.05314 1.17247 0
M  V30 3877 C 354.229 -2.112 0.890357 0
M  V30 3878 C 355.229 -1.60359 -0.118943 0
M  V30 3879 O 356.419 -1.73833 0.113086 0
M  V30 3880 C 353.551 -3.39266 0.333422 0
M  V30 3881 H 354.744 -2.37659 1.82916 0
M  V30 3882 H 352.297 -1.21538 0.982758 0
M  V30 3883 H 353.032 -3.18462 -0.612587 0
M  V30 3884 H 352.817 -3.77477 1.06082 0
M  V30 3885 H 354.307 -4.17315 0.154322 0
M  V30 3886 N 354.744 -0.972509 -1.24016 0
M  V30 3887 C 355.707 -0.511403 -2.23422 0
M  V30 3888 C 356.707 0.394679 -1.55881 0
M  V30 3889 O 357.897 0.189469 -1.73167 0
M  V30 3890 C 355.029 0.258769 -3.39916 0
M  V30 3891 H 356.222 -1.39024 -2.6573 0
M  V30 3892 H 353.775 -0.757585 -1.36713 0
M  V30 3893 H 354.51 1.1545 -3.03054 0
M  V30 3894 H 354.295 -0.391522 -3.9014 0
M  V30 3895 H 355.785 0.570244 -4.13688 0
M  V30 3896 N 356.222 1.38976 -0.743202 0
M  V30 3897 C 357.499 1.94351 -0.220705 0
M  V30 3898 C 357.879 1.67935 1.2791 0
M  V30 3899 O 357.227 1.01211 2.04862 0
M  V30 3900 C 357.437 3.44426 -0.563171 0
M  V30 3901 C 358.785 4.2144 -0.517046 0
M  V30 3902 O 359.809 3.52661 -0.500846 0
M  V30 3903 O 358.668 5.44032 -0.518806 0
M  V30 3904 H 355.762 0.825879 -0.043047 0
M  V30 3905 H 358.308 1.48429 -0.822618 0
M  V30 3906 H 357.08 3.5712 -1.59941 0
M  V30 3907 H 356.703 3.97543 0.0672883 0
M  V30 3908 N 357.7 0.491464 1.49741 0
M  V30 3909 C 359.111 0.0413169 1.86654 0
M  V30 3910 C 359.462 -1.36985 1.40462 0
M  V30 3911 O 358.587 -2.01917 0.778354 0
M  V30 3912 C 359.182 0.0682023 3.38731 0
M  V30 3913 C 357.741 -0.32656 3.74981 0
M  V30 3914 C 356.888 0.444888 2.73708 0
M  V30 3915 H 359.839 0.704733 1.42194 0
M  V30 3916 H 359.86 -0.729322 3.73445 0
M  V30 3917 H 359.372 1.09539 3.72321 0
M  V30 3918 H 357.473 -1.35734 3.46997 0
M  V30 3919 H 357.586 -0.013741 4.79098 0
M  V30 3920 H 355.95 -0.104062 2.54487 0
M  V30 3921 H 356.733 1.47197 3.10142 0
M  V30 3922 N 359.178 -1.55987 0.224894 0
M  V30 3923 C 360.088 -2.24066 -0.69511 0
M  V30 3924 C 361.104 -1.24939 -1.21104 0
M  V30 3925 O 362.28 -1.5776 -1.25195 0
M  V30 3926 C 359.345 -2.90983 -1.88493 0
M  V30 3927 C 358.406 -4.05462 -1.41064 0
M  V30 3928 C 357.639 -4.69179 -2.54375 0
M  V30 3929 O 357.862 -4.31895 -3.72589 0
M  V30 3930 O 356.796 -5.58108 -2.25386 0
M  V30 3931 H 360.622 -3.03353 -0.145149 0
M  V30 3932 H 358.207 -1.49399 -0.00569476 0
M  V30 3933 H 360.089 -3.33209 -2.57972 0
M  V30 3934 H 358.764 -2.14653 -2.42293 0
M  V30 3935 H 357.671 -3.67798 -0.683774 0
M  V30 3936 H 359.004 -4.83545 -0.918985 0
M  V30 3937 N 360.656 0.0484629 -1.57525 0
M  V30 3938 C 361.886 0.754326 -1.92337 0
M  V30 3939 C 362.294 1.70443 -0.82132 0
M  V30 3940 O 361.637 1.82466 0.21254 0
M  V30 3941 C 361.699 1.58231 -3.22805 0
M  V30 3942 C 361.363 0.799074 -4.4996 0
M  V30 3943 C 362.36 0.1079 -5.19788 0
M  V30 3944 C 360.045 0.759345 -4.96527 0
M  V30 3945 C 362.039 -0.612516 -6.3445 0
M  V30 3946 C 359.726 0.0351713 -6.1109 0
M  V30 3947 C 360.724 -0.649537 -6.79904 0
M  V30 3948 O 360.412 -1.36199 -7.92278 0
M  V30 3949 H 360.144 0.218257 -0.639797 0
M  V30 3950 H 362.698 0.0159295 -2.05394 0
M  V30 3951 H 360.928 2.36406 -3.06021 0
M  V30 3952 H 362.617 2.16898 -3.43089 0
M  V30 3953 H 363.383 0.129748 -4.84826 0
M  V30 3954 H 359.262 1.28177 -4.42822 0
M  V30 3955 H 362.806 -1.14751 -6.88097 0
M  V30 3956 H 358.703 0.0113314 -6.45499 0
M  V30 3957 H 359.471 -1.27366 -8.0853 0
M  V30 3958 N 362.134 1.5431 0.320358 0
M  V30 3959 C 363.55 1.45091 0.664889 0
M  V30 3960 C 363.75 0.626382 1.91517 0
M  V30 3961 O 362.806 0.126443 2.52183 0
M  V30 3962 C 364.119 2.88848 0.83591 0
M  V30 3963 C 365.667 2.9877 0.933046 0
M  V30 3964 C 366.142 4.43683 1.13621 0
M  V30 3965 N 367.633 4.47309 1.20287 0
M  V30 3966 C 368.368 5.56595 1.37801 0
M  V30 3967 N 367.864 6.75844 1.52338 0
M  V30 3968 N 369.657 5.44248 1.40535 0
M  V30 3969 H 361.808 2.06398 -0.501374 0
M  V30 3970 H 364.071 0.933963 -0.162534 0
M  V30 3971 H 363.777 3.51698 -0.0116092 0
M  V30 3972 H 363.651 3.35148 1.73078 0
M  V30 3973 H 366.038 2.36045 1.77107 0
M  V30 3974 H 366.119 2.55796 0.0145782 0
M  V30 3975 H 365.763 5.06995 0.303032 0
M  V30 3976 H 365.693 4.84269 2.0686 0
M  V30 3977 H 368.184 3.61388 1.10485 0
M  V30 3978 H 368.497 7.54892 1.65403 0
M  V30 3979 H 366.842 6.78746 1.4943 0
M  V30 3980 H 370.033 4.50038 1.28777 0
M  V30 3981 H 370.206 6.29473 1.53842 0
M  V30 3982 N 363.613 -0.582584 1.46437 0
M  V30 3983 C 364.56 -1.69164 1.5701 0
M  V30 3984 C 365.53 -1.60847 0.414403 0
M  V30 3985 O 366.715 -1.80058 0.631171 0
M  V30 3986 C 363.855 -3.075 1.56646 0
M  V30 3987 C 362.968 -3.2644 2.82951 0
M  V30 3988 C 362.103 -4.55026 2.7409 0
M  V30 3989 C 361.142 -4.6731 3.95333 0
M  V30 3990 N 360.279 -5.87221 3.84858 0
M  V30 3991 H 365.119 -1.59464 2.51744 0
M  V30 3992 H 362.656 -0.777186 1.24893 0
M  V30 3993 H 364.614 -3.8757 1.5442 0
M  V30 3994 H 363.244 -3.16096 0.654439 0
M  V30 3995 H 362.296 -2.39974 2.95155 0
M  V30 3996 H 363.608 -3.31385 3.72808 0
M  V30 3997 H 362.762 -5.43324 2.6997 0
M  V30 3998 H 361.501 -4.52519 1.81873 0
M  V30 3999 H 360.506 -3.77429 3.99784 0
M  V30 4000 H 361.731 -4.71595 4.88646 0
M  V30 4001 H 359.677 -5.85712 2.95427 0
M  V30 4002 H 359.594 -5.93435 4.6837 0
M  V30 4003 H 360.862 -6.7795 3.84713 0
M  V30 4004 N 365.091 -1.34144 -0.827227 0
M  V30 4005 C 366.041 -1.21923 -1.92663 0
M  V30 4006 C 367.025 -0.119294 -1.60457 0
M  V30 4007 O 368.217 -0.348539 -1.73534 0
M  V30 4008 C 365.346 -0.972492 -3.29238 0
M  V30 4009 C 364.432 -2.1154 -3.67576 0
M  V30 4010 N 364.823 -3.36627 -3.77512 0
M  V30 4011 C 363.121 -2.02468 -3.97395 0
M  V30 4012 C 363.822 -4.11658 -4.1099 0
M  V30 4013 N 362.798 -3.40207 -4.23981 0
M  V30 4014 H 366.6 -2.16721 -1.98517 0
M  V30 4015 H 364.114 -1.2632 -1.02064 0
M  V30 4016 H 366.111 -0.865847 -4.0781 0
M  V30 4017 H 364.771 -0.0331509 -3.24683 0
M  V30 4018 H 365.782 -3.71234 -3.61118 0
M  V30 4019 H 362.459 -1.16265 -4.00985 0
M  V30 4020 H 363.849 -5.19657 -4.25918 0
M  V30 4021 N 366.569 1.04691 -1.17803 0
M  V30 4022 C 367.499 2.14494 -0.92275 0
M  V30 4023 C 368.48 1.69546 0.137179 0
M  V30 4024 O 369.665 1.94195 -0.0141108 0
M  V30 4025 C 366.795 3.44491 -0.440803 0
M  V30 4026 C 365.749 4.03031 -1.4405 0
M  V30 4027 C 365.075 5.28432 -0.81631 0
M  V30 4028 C 366.375 4.39932 -2.81527 0
M  V30 4029 H 368.069 2.36107 -1.84103 0
M  V30 4030 H 365.615 1.1347 -0.886599 0
M  V30 4031 H 367.568 4.2066 -0.249602 0
M  V30 4032 H 366.292 3.22546 0.513025 0
M  V30 4033 H 364.951 3.28937 -1.61853 0
M  V30 4034 H 364.599 5.02792 0.144511 0
M  V30 4035 H 364.299 5.68559 -1.48371 0
M  V30 4036 H 365.823 6.07284 -0.635496 0
M  V30 4037 H 367.237 5.07113 -2.67412 0
M  V30 4038 H 365.634 4.9109 -3.44892 0
M  V30 4039 H 366.704 3.50045 -3.35554 0
M  V30 4040 N 368.047 0.979072 1.23499 0
M  V30 4041 C 368.957 0.526431 2.28617 0
M  V30 4042 C 369.973 -0.418126 1.68901 0
M  V30 4043 O 371.149 -0.288372 1.99325 0
M  V30 4044 C 368.214 -0.165235 3.46306 0
M  V30 4045 C 367.275 0.82056 4.21385 0
M  V30 4046 C 366.508 0.161807 5.33455 0
M  V30 4047 O 366.731 -1.04742 5.60701 0
M  V30 4048 O 365.665 0.859708 5.95729 0
M  V30 4049 H 369.491 1.4006 2.69475 0
M  V30 4050 H 367.076 0.746643 1.29405 0
M  V30 4051 H 368.958 -0.553287 4.17752 0
M  V30 4052 H 367.633 -1.01419 3.07402 0
M  V30 4053 H 366.54 1.25929 3.52268 0
M  V30 4054 H 367.873 1.63828 4.64135 0
M  V30 4055 N 369.525 -1.3858 0.750561 0
M  V30 4056 C 370.774 -1.99424 0.302172 0
M  V30 4057 C 371.087 -1.60254 -1.12152 0
M  V30 4058 O 372.293 -2.14046 -1.67023 0
M  V30 4059 C 370.749 -3.56558 0.489307 0
M  V30 4060 C 370.357 -4.04682 1.92189 0
M  V30 4061 C 372.101 -4.24374 0.103478 0
M  V30 4062 C 370.008 -5.54446 2.05775 0
M  V30 4063 H 368.938 -0.746046 0.10923 0
M  V30 4064 H 371.589 -1.58383 0.92667 0
M  V30 4065 H 369.971 -3.95472 -0.204329 0
M  V30 4066 H 371.145 -3.77065 2.64875 0
M  V30 4067 H 369.46 -3.4958 2.26236 0
M  V30 4068 H 372.057 -5.34384 0.183787 0
M  V30 4069 H 372.4 -4.05468 -0.943481 0
M  V30 4070 H 372.933 -3.90688 0.748854 0
M  V30 4071 H 369.672 -5.78252 3.08714 0
M  V30 4072 H 369.192 -5.83816 1.37546 0
M  V30 4073 H 370.871 -6.20099 1.84626 0
M  V30 4074 N 371.003 -0.499398 -1.49478 0
M  V30 4075 C 372.25 0.0456899 -2.02448 0
M  V30 4076 C 372.578 1.37142 -1.37921 0
M  V30 4077 O 371.833 1.89111 -0.503544 0
M  V30 4078 C 372.132 0.248424 -3.56536 0
M  V30 4079 C 371.798 -0.999107 -4.39692 0
M  V30 4080 C 370.46 -1.34108 -4.62135 0
M  V30 4081 C 372.812 -1.82842 -4.88076 0
M  V30 4082 C 370.14 -2.51191 -5.30208 0
M  V30 4083 C 372.492 -2.99076 -5.57437 0
M  V30 4084 C 371.156 -3.33655 -5.78127 0
M  V30 4085 H 370.426 0.0167191 -0.740811 0
M  V30 4086 H 373.073 -0.65923 -1.79795 0
M  V30 4087 H 371.378 1.03586 -3.77859 0
M  V30 4088 H 373.075 0.684605 -3.95113 0
M  V30 4089 H 369.665 -0.722729 -4.22463 0
M  V30 4090 H 373.849 -1.57737 -4.70566 0
M  V30 4091 H 369.105 -2.78221 -5.44429 0
M  V30 4092 H 373.279 -3.63664 -5.93904 0
M  V30 4093 H 370.906 -4.24483 -6.30649 0
M  V30 4094 N 372.481 1.55866 -0.233164 0
M  V30 4095 C 373.711 2.02704 0.399325 0
M  V30 4096 C 374.119 1.11204 1.53069 0
M  V30 4097 O 373.462 0.116182 1.83332 0
M  V30 4098 C 373.524 3.45844 0.981429 0
M  V30 4099 C 373.188 4.56997 -0.0159561 0
M  V30 4100 C 374.185 5.13384 -0.820552 0
M  V30 4101 C 371.87 5.0211 -0.138072 0
M  V30 4102 C 373.864 6.13365 -1.73386 0
M  V30 4103 C 371.551 6.01926 -1.0549 0
M  V30 4104 C 372.549 6.57431 -1.85132 0
M  V30 4105 O 372.237 7.55302 -2.75272 0
M  V30 4106 H 371.969 0.668459 0.100692 0
M  V30 4107 H 374.523 2.02387 -0.35052 0
M  V30 4108 H 372.753 3.43267 1.78058 0
M  V30 4109 H 374.442 3.76262 1.52255 0
M  V30 4110 H 375.208 4.79372 -0.736721 0
M  V30 4111 H 371.087 4.5858 0.471737 0
M  V30 4112 H 374.631 6.56614 -2.35592 0
M  V30 4113 H 370.528 6.35359 -1.1397 0
M  V30 4114 H 371.296 7.72867 -2.69477 0
M  V30 4115 N 373.959 -0.0401083 1.57549 0
M  V30 4116 C 374.906 -1.04413 2.05831 0
M  V30 4117 C 375.876 -1.36585 0.945184 0
M  V30 4118 O 377.061 -1.47112 1.21502 0
M  V30 4119 C 374.201 -2.34336 2.53339 0
M  V30 4120 C 373.314 -2.08419 3.78398 0
M  V30 4121 C 372.449 -3.32133 4.14561 0
M  V30 4122 C 371.488 -3.01721 5.3257 0
M  V30 4123 N 370.625 -4.17855 5.64218 0
M  V30 4124 H 375.465 -0.625442 2.91363 0
M  V30 4125 H 373.002 -0.297218 1.44066 0
M  V30 4126 H 374.96 -3.10234 2.78946 0
M  V30 4127 H 373.59 -2.73948 1.7074 0
M  V30 4128 H 372.642 -1.23069 3.59942 0
M  V30 4129 H 373.954 -1.81978 4.64419 0
M  V30 4130 H 373.108 -4.16406 4.41238 0
M  V30 4131 H 371.847 -3.61678 3.2717 0
M  V30 4132 H 370.852 -2.15849 5.05657 0
M  V30 4133 H 372.077 -2.73466 6.21605 0
M  V30 4134 H 370.023 -4.47372 4.79786 0
M  V30 4135 H 369.94 -3.94798 6.44725 0
M  V30 4136 H 371.208 -5.03033 5.95465 0
M  V30 4137 N 375.437 -1.54477 -0.31217 0
M  V30 4138 C 376.686 -1.72438 -1.04633 0
M  V30 4139 C 376.999 -0.511163 -1.88803 0
M  V30 4140 O 378.205 -0.572341 -2.65399 0
M  V30 4141 C 376.661 -3.05043 -1.9099 0
M  V30 4142 C 376.269 -4.33806 -1.11877 0
M  V30 4143 C 378.013 -3.32364 -2.64073 0
M  V30 4144 C 375.92 -5.57467 -1.97445 0
M  V30 4145 H 374.85 -0.642647 -0.394361 0
M  V30 4146 H 377.501 -1.80966 -0.303929 0
M  V30 4147 H 375.883 -2.90451 -2.69173 0
M  V30 4148 H 377.057 -4.59199 -0.383843 0
M  V30 4149 H 375.372 -4.13336 -0.504252 0
M  V30 4150 H 377.969 -4.21951 -3.28423 0
M  V30 4151 H 378.312 -2.50745 -3.32314 0
M  V30 4152 H 378.845 -3.47875 -1.92944 0
M  V30 4153 H 375.584 -6.41722 -1.33692 0
M  V30 4154 H 375.104 -5.36277 -2.6864 0
M  V30 4155 H 376.783 -5.94303 -2.5576 0
M  V30 4156 N 376.915 0.57481 -1.46744 0
M  V30 4157 C 377.845 1.69337 -1.60771 0
M  V30 4158 C 378.826 1.63825 -0.457736 0
M  V30 4159 O 380.011 1.8172 -0.684947 0
M  V30 4160 C 377.141 3.0798 -1.60517 0
M  V30 4161 C 376.095 3.28327 -2.74564 0
M  V30 4162 C 375.421 4.67578 -2.59373 0
M  V30 4163 C 376.721 3.15398 -4.16319 0
M  V30 4164 H 378.415 1.57853 -2.54407 0
M  V30 4165 H 375.961 0.75799 -1.22436 0
M  V30 4166 H 377.914 3.86061 -1.68923 0
M  V30 4167 H 376.638 3.20381 -0.634305 0
M  V30 4168 H 375.297 2.52649 -2.65639 0
M  V30 4169 H 374.945 4.76755 -1.60353 0
M  V30 4170 H 374.645 4.82144 -3.35873 0
M  V30 4171 H 376.169 5.47817 -2.69682 0
M  V30 4172 H 377.583 3.83315 -4.26313 0
M  V30 4173 H 375.98 3.41482 -4.93468 0
M  V30 4174 H 377.05 2.12372 -4.3592 0
M  V30 4175 N 378.394 1.34581 0.820102 0
M  V30 4176 C 379.622 1.3018 1.60813 0
M  V30 4177 C 380.037 -0.123551 1.88395 0
M  V30 4178 O 379.394 -1.07148 1.47735 0
M  V30 4179 C 379.445 2.09312 2.94739 0
M  V30 4180 O 379.166 3.46288 2.68358 0
M  V30 4181 C 380.667 2.1234 3.89136 0
M  V30 4182 H 377.887 0.447726 0.499782 0
M  V30 4183 H 380.431 1.77237 1.02017 0
M  V30 4184 H 378.586 1.65889 3.50085 0
M  V30 4185 H 379 3.87227 3.53774 0
M  V30 4186 H 380.474 2.72126 4.80262 0
M  V30 4187 H 380.951 1.11854 4.24718 0
M  V30 4188 H 381.557 2.55864 3.39726 0
M  V30 4189 N 379.872 -1.04064 1.18357 0
M  V30 4190 C 380.82 -2.14187 0.907007 0
M  V30 4191 C 381.814 -1.68879 -0.132725 0
M  V30 4192 O 383.02 -1.79993 0.0154248 0
M  V30 4193 H 379.395 -0.699585 0.275835 0
M  V30 4194 H 381.366 -2.34711 1.84264 0
M  V30 4195 C 380.115 -3.44785 0.449254 0
M  V30 4196 H 379.438 -3.80058 1.24081 0
M  V30 4197 H 380.878 -4.22974 0.294737 0
M  V30 4198 C 379.337 -3.26391 -0.834909 0
M  V30 4199 O 379.867 -3.53973 -1.89911 0
M  V30 4200 N 378.073 -2.79726 -0.787523 0
M  V30 4201 H 377.62 -2.5748 0.0787347 0
M  V30 4202 H 377.578 -2.67798 -1.64716 0
M  V30 4203 N 381.35 -0.985608 -1.22978 0
M  V30 4204 C 382.578 -0.675582 -1.95559 0
M  V30 4205 C 382.993 0.758413 -1.72897 0
M  V30 4206 O 382.35 1.51094 -1.02357 0
M  V30 4207 C 382.401 -0.96293 -3.48439 0
M  V30 4208 O 382.122 -2.34057 -3.70336 0
M  V30 4209 C 383.623 -0.669585 -4.38214 0
M  V30 4210 H 380.843 -0.250523 -0.622478 0
M  V30 4211 H 383.387 -1.3184 -1.56328 0
M  V30 4212 H 381.542 -0.366033 -3.85667 0
M  V30 4213 H 381.956 -2.43424 -4.64591 0
M  V30 4214 H 383.43 -0.920967 -5.44263 0
M  V30 4215 H 383.907 0.396383 -4.37408 0
M  V30 4216 H 384.513 -1.2472 -4.06602 0
M  V30 4217 N 382.828 1.3818 -0.7579 0
M  V30 4218 C 384.105 1.94106 -0.241306 0
M  V30 4219 C 384.485 1.69282 1.26122 0
M  V30 4220 O 383.833 1.03378 2.03777 0
M  V30 4221 C 384.043 3.43809 -0.59967 0
M  V30 4222 C 385.391 4.20868 -0.561717 0
M  V30 4223 O 386.415 3.5211 -0.538222 0
M  V30 4224 O 385.274 5.43451 -0.576478 0
M  V30 4225 H 382.368 0.825376 -0.0518042 0
M  V30 4226 H 384.914 1.47548 -0.838315 0
M  V30 4227 H 383.686 3.55403 -1.6372 0
M  V30 4228 H 383.309 3.97592 0.0251197 0
M  V30 4229 N 384.306 0.507319 1.49211 0
M  V30 4230 C 385.717 0.0611118 1.866 0
M  V30 4231 C 386.068 -1.35488 1.41907 0
M  V30 4232 O 385.193 -2.0108 0.799726 0
M  V30 4233 C 385.788 0.104125 3.3864 0
M  V30 4234 C 384.347 -0.28677 3.75306 0
M  V30 4235 C 383.494 0.473893 2.73221 0
M  V30 4236 H 386.445 0.719775 1.41439 0
M  V30 4237 H 386.466 -0.689672 3.74198 0
M  V30 4238 H 385.978 1.13482 3.71138 0
M  V30 4239 H 384.079 -1.32046 3.48417 0
M  V30 4240 H 384.192 0.0370745 4.79086 0
M  V30 4241 H 382.556 -0.0770644 2.54583 0
M  V30 4242 H 383.339 1.50478 3.08563 0
M  V30 4243 N 385.784 -1.5574 0.241426 0
M  V30 4244 C 386.732 -2.22538 -0.676718 0
M  V30 4245 C 387.726 -1.21117 -1.18436 0
M  V30 4246 O 388.932 -1.39144 -1.14188 0
M  V30 4247 H 385.307 -0.713776 -0.236701 0
M  V30 4248 H 387.278 -2.98264 -0.0901187 0
M  V30 4249 C 386.027 -2.93439 -1.86518 0
M  V30 4250 H 385.35 -3.7125 -1.4837 0
M  V30 4251 H 386.79 -3.43549 -2.48495 0
M  V30 4252 C 385.249 -1.97008 -2.73294 0
M  V30 4253 O 385.779 -1.49965 -3.72657 0
M  V30 4254 N 383.985 -1.64227 -2.39745 0
M  V30 4255 H 383.532 -2.02677 -1.58996 0
M  V30 4256 H 383.49 -0.999708 -2.98083 0
M  V30 4257 N 387.262 0.0317525 -1.57568 0
M  V30 4258 C 388.539 0.758366 -1.803 0
M  V30 4259 C 388.919 1.93718 -0.838845 0
M  V30 4260 O 388.267 2.28187 0.119571 0
M  V30 4261 C 388.477 1.19392 -3.27943 0
M  V30 4262 C 389.825 1.61094 -3.92854 0
M  V30 4263 O 390.849 1.28857 -3.32076 0
M  V30 4264 O 389.708 2.20918 -4.99858 0
M  V30 4265 H 386.802 0.366514 -0.741348 0
M  V30 4266 H 389.348 0.00873765 -1.69698 0
M  V30 4267 H 388.12 0.352275 -3.89711 0
M  V30 4268 H 387.743 2.00365 -3.43424 0
M  V30 4269 N 388.74 1.54641 0.303973 0
M  V30 4270 C 389.65 1.88439 1.39743 0
M  V30 4271 C 390.666 0.778239 1.55626 0
M  V30 4272 O 391.842 1.07442 1.70347 0
M  V30 4273 C 388.907 2.12212 2.74166 0
M  V30 4274 C 387.968 3.35936 2.67293 0
M  V30 4275 C 387.201 3.58566 3.95305 0
M  V30 4276 O 387.424 2.84263 4.9452 0
M  V30 4277 O 386.358 4.52078 3.97378 0
M  V30 4278 H 390.184 2.81458 1.14083 0
M  V30 4279 H 387.769 1.40793 0.499768 0
M  V30 4280 H 389.651 2.29067 3.53704 0
M  V30 4281 H 388.326 1.22379 2.99675 0
M  V30 4282 H 387.233 3.24448 1.86237 0
M  V30 4283 H 388.566 4.2589 2.46736 0
M  V30 4284 N 390.218 -0.567019 1.47046 0
M  V30 4285 C 391.464 -1.32658 1.53394 0
M  V30 4286 C 391.797 -1.93254 0.19148 0
M  V30 4287 O 391.072 -1.77338 -0.798844 0
M  V30 4288 C 391.355 -2.44412 2.64452 0
M  V30 4289 C 391.208 -1.88749 4.08282 0
M  V30 4290 C 392.527 -3.46387 2.71485 0
M  V30 4291 H 389.646 -0.48098 0.558415 0
M  V30 4292 H 392.288 -0.635481 1.79058 0
M  V30 4293 H 390.438 -3.03363 2.427 0
M  V30 4294 H 392.11 -1.34134 4.41368 0
M  V30 4295 H 390.353 -1.19481 4.17021 0
M  V30 4296 H 391.024 -2.69491 4.81745 0
M  V30 4297 H 393.5 -2.9734 2.91081 0
M  V30 4298 H 392.376 -4.2202 3.50985 0
M  V30 4299 H 392.637 -4.04616 1.78153 0
M  V30 4300 N 391.696 -1.35014 -0.812953 0
M  V30 4301 C 392.606 -1.2951 -1.95613 0
M  V30 4302 C 393.622 -0.20107 -1.72834 0
M  V30 4303 O 394.798 -0.42932 -1.96771 0
M  V30 4304 C 391.863 -1.06033 -3.30088 0
M  V30 4305 C 390.924 -2.24688 -3.65805 0
M  V30 4306 C 390.157 -2.02322 -4.93864 0
M  V30 4307 O 390.38 -0.986464 -5.61805 0
M  V30 4308 O 389.314 -2.89525 -5.27692 0
M  V30 4309 H 393.14 -2.25705 -2.03202 0
M  V30 4310 H 390.725 -1.15321 -0.949811 0
M  V30 4311 H 392.607 -0.94763 -4.10607 0
M  V30 4312 H 391.282 -0.128852 -3.23443 0
M  V30 4313 H 390.189 -2.41521 -2.85689 0
M  V30 4314 H 391.522 -3.16261 -3.77147 0
M  V30 4315 N 393.175 1.03435 -1.18907 0
M  V30 4316 C 394.591 1.28973 -0.940111 0
M  V30 4317 C 394.791 1.97676 0.390691 0
M  V30 4318 O 393.847 2.26127 1.12352 0
M  V30 4319 C 395.16 2.14221 -2.11021 0
M  V30 4320 C 396.708 2.27547 -2.14922 0
M  V30 4321 C 397.183 3.16164 -3.31367 0
M  V30 4322 N 398.674 3.23752 -3.31269 0
M  V30 4323 C 399.409 3.92495 -4.18014 0
M  V30 4324 N 398.905 4.63515 -5.14904 0
M  V30 4325 N 400.698 3.88838 -4.05908 0
M  V30 4326 H 392.849 0.57252 -2.04538 0
M  V30 4327 H 395.112 0.315184 -0.894071 0
M  V30 4328 H 394.818 1.71054 -3.073 0
M  V30 4329 H 394.692 3.14919 -2.0762 0
M  V30 4330 H 397.079 2.69947 -1.19217 0
M  V30 4331 H 397.16 1.26418 -2.22378 0
M  V30 4332 H 396.804 2.74474 -4.27348 0
M  V30 4333 H 396.734 4.17339 -3.21148 0
M  V30 4334 H 399.225 2.73167 -2.61129 0
M  V30 4335 H 399.538 5.13583 -5.77453 0
M  V30 4336 H 397.883 4.62398 -5.18857 0
M  V30 4337 H 401.074 3.32491 -3.29495 0
M  V30 4338 H 401.247 4.4214 -4.73726 0
M  V30 4339 N 394.653 0.992116 1.22453 0
M  V30 4340 C 396.069 0.702713 1.43297 0
M  V30 4341 C 396.269 -0.726909 1.87932 0
M  V30 4342 O 395.325 -1.49792 2.0327 0
M  V30 4343 C 396.638 1.70762 2.47509 0
M  V30 4344 C 398.186 1.72298 2.61309 0
M  V30 4345 C 398.661 2.71649 3.68742 0
M  V30 4346 N 400.152 2.70239 3.76199 0
M  V30 4347 C 400.887 3.43778 4.58917 0
M  V30 4348 N 400.383 4.26914 5.45633 0
M  V30 4349 N 402.176 3.32487 4.5322 0
M  V30 4350 H 394.327 1.91543 0.917871 0
M  V30 4351 H 396.59 0.826031 0.465162 0
M  V30 4352 H 396.296 2.73059 2.21657 0
M  V30 4353 H 396.17 1.49985 3.46099 0
M  V30 4354 H 398.557 0.706989 2.86506 0
M  V30 4355 H 398.638 1.97143 1.62997 0
M  V30 4356 H 398.282 3.73397 3.44292 0
M  V30 4357 H 398.212 2.44074 4.66622 0
M  V30 4358 H 400.703 2.09912 3.14237 0
M  V30 4359 H 401.016 4.79855 6.05771 0
M  V30 4360 H 399.361 4.31002 5.45218 0
M  V30 4361 H 402.552 2.6698 3.84499 0
M  V30 4362 H 402.725 3.90058 5.17454 0
M  V30 4363 N 396.131 -1.37776 0.765217 0
M  V30 4364 C 397.079 -2.32209 0.134798 0
M  V30 4365 C 398.073 -1.54607 -0.692315 0
M  V30 4366 O 399.279 -1.70052 -0.590109 0
M  V30 4367 H 395.654 -0.751591 0.0248005 0
M  V30 4368 H 397.625 -2.8297 0.947119 0
M  V30 4369 C 396.374 -3.39841 -0.735063 0
M  V30 4370 H 395.697 -3.99654 -0.107991 0
M  V30 4371 H 397.137 -4.08296 -1.14326 0
M  V30 4372 C 395.596 -2.79378 -1.88281 0
M  V30 4373 O 396.126 -2.69608 -2.97783 0
M  V30 4374 N 394.332 -2.37016 -1.68142 0
M  V30 4375 H 393.879 -2.45162 -0.790772 0
M  V30 4376 H 393.837 -1.96905 -2.45104 0
M  V30 4377 N 397.609 -0.515225 -1.4894 0
M  V30 4378 C 398.572 0.244681 -2.2789 0
M  V30 4379 C 399.572 0.881166 -1.34507 0
M  V30 4380 O 400.762 0.743497 -1.57537 0
M  V30 4381 C 397.894 1.35247 -3.12923 0
M  V30 4382 H 399.087 -0.448289 -2.96531 0
M  V30 4383 H 396.64 -0.270656 -1.53939 0
M  V30 4384 H 397.375 2.07916 -2.48881 0
M  V30 4385 H 397.16 0.901374 -3.81599 0
M  V30 4386 H 398.65 1.88737 -3.72516 0
M  V30 4387 N 399.087 1.5561 -0.249682 0
M  V30 4388 C 400.364 1.90932 0.424761 0
M  V30 4389 C 400.744 1.17078 1.75658 0
M  V30 4390 O 400.092 0.289176 2.26663 0
M  V30 4391 C 400.302 3.43975 0.590109 0
M  V30 4392 C 401.65 4.15281 0.884714 0
M  V30 4393 O 402.674 3.49729 0.67587 0
M  V30 4394 O 401.533 5.31236 1.28259 0
M  V30 4395 H 398.627 0.794815 0.228468 0
M  V30 4396 H 401.173 1.67135 -0.293954 0
M  V30 4397 H 399.945 3.89748 -0.34818 0
M  V30 4398 H 399.568 3.73644 1.35926 0
M  V30 4399 N 400.565 -0.0233959 1.57583 0
M  V30 4400 C 401.513 -1.04063 2.08023 0
M  V30 4401 C 402.507 -1.37084 0.995204 0
M  V30 4402 O 403.713 -1.35923 1.18004 0
M  V30 4403 H 400.088 -0.353144 0.663922 0
M  V30 4404 H 402.059 -0.589453 2.9252 0
M  V30 4405 C 400.808 -2.33123 2.57971 0
M  V30 4406 H 400.131 -2.08577 3.4108 0
M  V30 4407 H 401.571 -3.02632 2.96967 0
M  V30 4408 C 400.03 -3.02483 1.48342 0
M  V30 4409 O 400.56 -3.92541 0.852898 0
M  V30 4410 N 398.766 -2.63909 1.21658 0
M  V30 4411 H 398.313 -1.90758 1.73116 0
M  V30 4412 H 398.271 -3.10633 0.485218 0
M  V30 4413 N 402.043 -1.548 -0.295768 0
M  V30 4414 C 402.99 -1.86113 -1.36494 0
M  V30 4415 C 403.96 -0.7105 -1.50137 0
M  V30 4416 O 405.145 -0.959626 -1.64912 0
M  V30 4417 C 402.285 -2.11861 -2.72413 0
M  V30 4418 C 401.398 -3.39471 -2.67177 0
M  V30 4419 C 400.533 -3.55035 -3.95125 0
M  V30 4420 C 399.572 -4.76418 -3.84308 0
M  V30 4421 N 398.709 -4.8876 -5.04042 0
M  V30 4422 H 403.549 -2.77314 -1.09091 0
M  V30 4423 H 401.086 -1.37315 -0.52753 0
M  V30 4424 H 403.044 -2.24786 -3.51464 0
M  V30 4425 H 401.674 -1.2392 -2.98066 0
M  V30 4426 H 400.726 -3.35139 -1.79962 0
M  V30 4427 H 402.038 -4.28646 -2.55076 0
M  V30 4428 H 401.192 -3.67653 -4.82614 0
M  V30 4429 H 399.931 -2.64002 -4.10066 0
M  V30 4430 H 398.936 -4.63827 -2.95202 0
M  V30 4431 H 400.161 -5.68863 -3.70906 0
M  V30 4432 H 398.107 -4.00652 -5.19436 0
M  V30 4433 H 398.024 -5.71945 -4.94384 0
M  V30 4434 H 399.292 -5.0574 -5.93167 0
M  V30 4435 N 403.521 0.559213 -1.47345 0
M  V30 4436 C 404.431 1.69388 -1.62311 0
M  V30 4437 C 405.447 1.6648 -0.505993 0
M  V30 4438 O 406.623 1.85964 -0.773262 0
M  V30 4439 C 403.688 3.05894 -1.63185 0
M  V30 4440 C 402.749 3.19885 -2.86307 0
M  V30 4441 C 401.982 4.49879 -2.87131 0
M  V30 4442 O 402.205 5.35217 -1.97229 0
M  V30 4443 O 401.139 4.67618 -3.78968 0
M  V30 4444 H 404.965 1.59706 -2.58317 0
M  V30 4445 H 402.55 0.728989 -1.30407 0
M  V30 4446 H 404.432 3.87133 -1.66451 0
M  V30 4447 H 403.107 3.15964 -0.70345 0
M  V30 4448 H 402.014 2.38052 -2.88587 0
M  V30 4449 H 403.347 3.14718 -3.78435 0
M  V30 4450 N 404.999 1.35443 0.805782 0
M  V30 4451 C 406.276 1.19325 1.54987 0
M  V30 4452 C 406.656 -0.227294 2.09873 0
M  V30 4453 O 406.004 -1.2309 1.92512 0
M  V30 4454 C 406.214 2.26196 2.65775 0
M  V30 4455 C 407.562 2.62043 3.34094 0
M  V30 4456 O 408.586 2.25115 2.76046 0
M  V30 4457 O 407.445 3.25542 4.38958 0
M  V30 4458 H 404.539 0.463623 0.684823 0
M  V30 4459 H 407.085 1.47127 0.845674 0
M  V30 4460 H 405.857 3.21471 2.23096 0
M  V30 4461 H 405.48 1.99667 3.43829 0
M  V30 4462 N 406.477 -1.02803 1.19454 0
M  V30 4463 C 407.407 -2.12999 0.956758 0
M  V30 4464 C 408.388 -1.69743 -0.110188 0
M  V30 4465 O 409.573 -1.94148 0.0450038 0
M  V30 4466 C 406.703 -3.43746 0.495553 0
M  V30 4467 C 405.657 -4.00688 1.50443 0
M  V30 4468 C 404.983 -5.27067 0.900275 0
M  V30 4469 C 406.283 -4.35397 2.8849 0
M  V30 4470 H 407.977 -2.33148 1.87836 0
M  V30 4471 H 405.523 -1.12045 0.904539 0
M  V30 4472 H 407.476 -4.2021 0.316493 0
M  V30 4473 H 406.2 -3.23321 -0.461646 0
M  V30 4474 H 404.859 -3.2632 1.67065 0
M  V30 4475 H 404.507 -5.02959 -0.064503 0
M  V30 4476 H 404.207 -5.66127 1.57397 0
M  V30 4477 H 405.731 -6.06196 0.73203 0
M  V30 4478 H 407.145 -5.02795 2.75446 0
M  V30 4479 H 405.542 -4.85541 3.52661 0
M  V30 4480 H 406.612 -3.44662 3.41081 0
M  V30 4481 N 407.956 -0.998596 -1.21925 0
M  V30 4482 C 409.184 -0.696286 -1.94832 0
M  V30 4483 C 409.599 0.740032 -1.73692 0
M  V30 4484 O 408.956 1.5 -1.03953 0
M  V30 4485 C 409.007 -0.999833 -3.47398 0
M  V30 4486 O 408.728 -2.37972 -3.67833 0
M  V30 4487 C 410.229 -0.716025 -4.37479 0
M  V30 4488 H 407.449 -0.257111 -0.619786 0
M  V30 4489 H 409.993 -1.33491 -1.54921 0
M  V30 4490 H 408.148 -0.406918 -3.85257 0
M  V30 4491 H 408.562 -2.48338 -4.61983 0
M  V30 4492 H 410.036 -0.978642 -5.43256 0
M  V30 4493 H 410.513 0.349968 -4.37803 0
M  V30 4494 H 411.119 -1.29025 -4.05256 0
M  V30 4495 N 409.434 1.37368 -0.772513 0
M  V30 4496 C 410.659 2.0447 -0.347386 0
M  V30 4497 C 411.084 1.57882 1.0225 0
M  V30 4498 O 410.442 0.73941 1.65537 0
M  V30 4499 C 410.49 3.58369 -0.400479 0
M  V30 4500 O 409.594 4.0803 0.598789 0
M  V30 4501 H 408.935 0.646773 -0.15027 0
M  V30 4502 H 411.465 1.75667 -1.04892 0
M  V30 4503 H 411.475 4.07183 -0.258045 0
M  V30 4504 H 410.15 3.91633 -1.39986 0
M  V30 4505 H 408.727 3.70534 0.419411 0
M  V30 4506 N 410.912 0.523116 1.48665 0
M  V30 4507 C 411.875 -0.232592 2.28017 0
M  V30 4508 C 412.875 -0.874021 1.34972 0
M  V30 4509 O 414.065 -0.735132 1.57929 0
M  V30 4510 C 411.197 -1.33586 3.13636 0
M  V30 4511 H 412.39 0.464008 2.96289 0
M  V30 4512 H 409.943 0.278816 1.53793 0
M  V30 4513 H 410.678 -2.06593 2.4998 0
M  V30 4514 H 410.463 -0.881125 3.82071 0
M  V30 4515 H 411.953 -1.86759 3.73511 0
M  V30 4516 N 412.39 -1.55475 0.257931 0
M  V30 4517 C 413.667 -1.91155 -0.414629 0
M  V30 4518 C 414.047 -1.18008 -1.75035 0
M  V30 4519 O 413.395 -0.301193 -2.26506 0
M  V30 4520 C 413.605 -3.44283 -0.571859 0
M  V30 4521 C 414.953 -4.15744 -0.862678 0
M  V30 4522 O 415.977 -3.50083 -0.657314 0
M  V30 4523 O 414.836 -5.31909 -1.2544 0
M  V30 4524 H 411.93 -0.796016 -0.22425 0
M  V30 4525 H 414.476 -1.66976 0.302814 0
M  V30 4526 H 413.248 -3.89558 0.368844 0
M  V30 4527 H 412.871 -3.7436 -1.33943 0
M  V30 4528 N 413.868 0.0150385 -1.57593 0
M  V30 4529 C 415.279 0.559832 -1.78109 0
M  V30 4530 C 415.63 1.74814 -0.890756 0
M  V30 4531 O 414.755 2.16216 -0.0892482 0
M  V30 4532 C 415.35 1.02238 -3.23006 0
M  V30 4533 C 413.909 1.51258 -3.44671 0
M  V30 4534 C 413.056 0.456955 -2.73509 0
M  V30 4535 H 416.007 -0.211169 -1.57289 0
M  V30 4536 H 416.028 1.88912 -3.30292 0
M  V30 4537 H 415.54 0.157302 -3.87781 0
M  V30 4538 H 413.641 2.39905 -2.8509 0
M  V30 4539 H 413.754 1.55042 -4.5332 0
M  V30 4540 H 412.118 0.915196 -2.37689 0
M  V30 4541 H 412.901 -0.398896 -3.40975 0
M  V30 4542 N 415.346 1.54954 0.287554 0
M  V30 4543 C 416.256 1.8991 1.37736 0
M  V30 4544 C 417.272 0.794701 1.54792 0
M  V30 4545 O 418.448 1.09243 1.69198 0
M  V30 4546 C 415.513 2.15108 2.71899 0
M  V30 4547 C 414.574 3.38752 2.63715 0
M  V30 4548 C 413.807 3.62739 3.91479 0
M  V30 4549 O 414.03 2.89492 4.91478 0
M  V30 4550 O 412.964 4.56267 3.92561 0
M  V30 4551 H 416.79 2.82652 1.11092 0
M  V30 4552 H 414.375 1.41315 0.484807 0
M  V30 4553 H 416.257 2.32806 3.51254 0
M  V30 4554 H 414.932 1.25551 2.9836 0
M  V30 4555 H 413.839 3.26405 1.82786 0
M  V30 4556 H 415.172 4.28483 2.42205 0
M  V30 4557 N 416.824 -0.551391 1.4764 0
M  V30 4558 C 418.072 -1.30572 1.54258 0
M  V30 4559 C 418.393 -1.93877 0.208963 0
M  V30 4560 O 417.663 -1.80234 -0.767619 0
M  V30 4561 H 416.243 -0.484894 0.568231 0
M  V30 4562 H 418.905 -0.643402 1.83974 0
M  V30 4563 H 418.001 -2.09621 2.31226 0
M  V30 4564 N 418.302 -1.35869 -0.798587 0
M  V30 4565 C 419.234 -1.25305 -1.91915 0
M  V30 4566 C 420.247 -0.174548 -1.61862 0
M  V30 4567 O 421.436 -0.428499 -1.73281 0
M  V30 4568 C 418.536 -0.9086 -3.26493 0
M  V30 4569 C 417.709 -2.08711 -3.84394 0
M  V30 4570 C 416.768 -1.71717 -4.97393 0
M  V30 4571 O 415.794 -2.43692 -5.14396 0
M  V30 4572 N 416.996 -0.645473 -5.769 0
M  V30 4573 H 419.761 -2.21849 -2.01502 0
M  V30 4574 H 417.322 -1.29143 -0.976408 0
M  V30 4575 H 419.314 -0.642455 -3.99568 0
M  V30 4576 H 417.884 -0.0325815 -3.12583 0
M  V30 4577 H 417.104 -2.51659 -3.03416 0
M  V30 4578 H 418.392 -2.87468 -4.19809 0
M  V30 4579 H 417.79 -0.047648 -5.6568 0
M  V30 4580 H 416.347 -0.43913 -6.50319 0
M  V30 4581 N 419.78 1.02168 -1.19998 0
M  V30 4582 C 421.029 1.75091 -1.0013 0
M  V30 4583 C 421.342 1.89923 0.467835 0
M  V30 4584 O 422.548 2.59888 0.785515 0
M  V30 4585 C 421.004 3.14892 -1.74273 0
M  V30 4586 C 420.612 3.0809 -3.25245 0
M  V30 4587 C 422.356 3.9206 -1.62755 0
M  V30 4588 C 420.263 4.42867 -3.91948 0
M  V30 4589 H 419.193 0.656394 -0.37103 0
M  V30 4590 H 421.844 1.14284 -1.43567 0
M  V30 4591 H 420.226 3.7621 -1.2362 0
M  V30 4592 H 421.4 2.5611 -3.83072 0
M  V30 4593 H 419.715 2.44416 -3.3712 0
M  V30 4594 H 422.312 4.91764 -2.09934 0
M  V30 4595 H 422.655 4.12199 -0.582894 0
M  V30 4596 H 423.188 3.37359 -2.10793 0
M  V30 4597 H 419.927 4.27931 -4.96543 0
M  V30 4598 H 419.447 4.94874 -3.3891 0
M  V30 4599 H 421.126 5.11728 -3.95909 0
M  V30 4600 N 421.258 1.00505 1.21394 0
M  V30 4601 C 422.191 0.51032 2.22421 0
M  V30 4602 C 423.169 -0.436 1.56645 0
M  V30 4603 O 424.353 -0.358709 1.85055 0
M  V30 4604 C 421.48 -0.258733 3.3771 0
M  V30 4605 C 420.526 0.635395 4.2174 0
M  V30 4606 S 421.359 2.09783 4.92698 0
M  V30 4607 C 422.515 1.33862 6.11418 0
M  V30 4608 H 422.748 1.36637 2.64041 0
M  V30 4609 H 420.281 0.812991 1.31262 0
M  V30 4610 H 422.239 -0.696372 4.0455 0
M  V30 4611 H 420.9 -1.0902 2.94573 0
M  V30 4612 H 420.093 0.0430189 5.03982 0
M  V30 4613 H 419.695 1.01031 3.60095 0
M  V30 4614 H 421.987 0.612541 6.74725 0
M  V30 4615 H 422.93 2.13675 6.75092 0
M  V30 4616 H 423.338 0.846568 5.58116 0
M  V30 4617 N 422.737 -1.36956 0.779787 0
M  V30 4618 C 424.153 -1.52817 0.460342 0
M  V30 4619 C 424.353 -1.7361 -1.02283 0
M  V30 4620 O 423.409 -1.76207 -1.80852 0
M  V30 4621 C 424.722 -2.71983 1.28241 0
M  V30 4622 C 426.27 -2.85849 1.27512 0
M  V30 4623 C 426.745 -4.08008 2.08072 0
M  V30 4624 N 428.236 -4.15135 2.05467 0
M  V30 4625 C 428.971 -5.08711 2.64577 0
M  V30 4626 N 428.467 -6.07792 3.32506 0
M  V30 4627 N 430.26 -5.01254 2.54363 0
M  V30 4628 H 422.411 -1.21713 1.74068 0
M  V30 4629 H 424.674 -0.593294 0.739396 0
M  V30 4630 H 424.38 -2.63109 2.33381 0
M  V30 4631 H 424.254 -3.65882 0.917088 0
M  V30 4632 H 426.641 -2.94189 0.231686 0
M  V30 4633 H 426.722 -1.92886 1.68014 0
M  V30 4634 H 426.366 -4.00429 3.12441 0
M  V30 4635 H 426.296 -5.001 1.64947 0
M  V30 4636 H 428.787 -3.44189 1.5602 0
M  V30 4637 H 429.1 -6.75739 3.74963 0
M  V30 4638 H 427.445 -6.08047 3.36606 0
M  V30 4639 H 430.636 -4.22795 2.00902 0
M  V30 4640 H 430.809 -5.73995 3.00722 0
M  V30 4641 N 424.215 -0.530993 -1.48385 0
M  V30 4642 C 425.125 0.23503 -2.3342 0
M  V30 4643 C 426.141 0.93801 -1.46552 0
M  V30 4644 O 427.317 0.912745 -1.7953 0
M  V30 4645 C 424.382 1.26778 -3.22689 0
M  V30 4646 C 423.443 0.575038 -4.25431 0
M  V30 4647 C 422.676 1.55858 -5.10435 0
M  V30 4648 O 422.899 2.79129 -4.97437 0
M  V30 4649 O 421.833 1.09742 -5.91811 0
M  V30 4650 H 425.659 -0.461794 -3.00169 0
M  V30 4651 H 423.244 -0.291903 -1.46521 0
M  V30 4652 H 425.126 1.86457 -3.77904 0
M  V30 4653 H 423.801 1.94699 -2.586 0
M  V30 4654 H 422.708 -0.0622782 -3.74048 0
M  V30 4655 H 424.041 -0.062253 -4.92161 0
M  V30 4656 N 425.693 1.55336 -0.266172 0
M  V30 4657 C 426.923 2.03506 0.356239 0
M  V30 4658 C 427.331 1.14426 1.50676 0
M  V30 4659 O 426.674 0.155043 1.83045 0
M  V30 4660 C 426.736 3.47848 0.90785 0
M  V30 4661 C 426.4 4.56861 -0.112888 0
M  V30 4662 C 427.397 5.11528 -0.929264 0
M  V30 4663 C 425.082 5.01704 -0.244546 0
M  V30 4664 C 427.076 6.09549 -1.86357 0
M  V30 4665 C 424.763 5.99553 -1.18234 0
M  V30 4666 C 425.761 6.53356 -1.99036 0
M  V30 4667 O 425.449 7.49293 -2.91231 0
M  V30 4668 H 425.181 0.670444 0.08649 0
M  V30 4669 H 427.735 2.01598 -0.39337 0
M  V30 4670 H 425.965 3.46967 1.70737 0
M  V30 4671 H 427.654 3.79407 1.44239 0
M  V30 4672 H 428.42 4.77701 -0.838237 0
M  V30 4673 H 424.299 4.59477 0.374359 0
M  V30 4674 H 427.843 6.51469 -2.49467 0
M  V30 4675 H 423.74 6.32799 -1.27421 0
M  V30 4676 H 424.508 7.66978 -2.8581 0
M  V30 4677 N 427.171 -0.0066808 1.57599 0
M  V30 4678 C 428.134 -0.985035 2.06953 0
M  V30 4679 C 429.134 -1.27663 0.977687 0
M  V30 4680 O 430.324 -1.22293 1.24057 0
M  V30 4681 C 427.456 -2.3118 2.50536 0
M  V30 4682 H 428.649 -0.558255 2.94658 0
M  V30 4683 H 426.202 -0.254011 1.54222 0
M  V30 4684 H 426.937 -2.78561 1.66054 0
M  V30 4685 H 426.722 -2.11338 3.3027 0
M  V30 4686 H 428.212 -3.01377 2.8907 0
M  V30 4687 N 428.649 -1.55105 -0.279332 0
M  V30 4688 C 429.874 -1.7976 -1.03446 0
M  V30 4689 C 430.299 -0.565952 -1.79384 0
M  V30 4690 O 429.657 0.484259 -1.74713 0
M  V30 4691 C 429.705 -3.0179 -1.97371 0
M  V30 4692 O 428.809 -2.76432 -3.06038 0
M  V30 4693 H 428.15 -0.594334 -0.29608 0
M  V30 4694 H 430.68 -2.02235 -0.310165 0
M  V30 4695 H 430.69 -3.30351 -2.39441 0
M  V30 4696 H 429.365 -3.91085 -1.4151 0
M  V30 4697 H 427.942 -2.58949 -2.68328 0
M  V30 4698 N 430.127 0.543554 -1.4793 0
M  V30 4699 C 431.404 1.30458 -1.4574 0
M  V30 4700 C 431.784 2.1048 -0.161692 0
M  V30 4701 O 431.132 2.11831 0.856734 0
M  V30 4702 C 431.342 2.19754 -2.71126 0
M  V30 4703 C 432.69 2.80334 -3.18901 0
M  V30 4704 O 433.714 2.30049 -2.71948 0
M  V30 4705 O 432.573 3.71766 -4.00565 0
M  V30 4706 H 429.667 0.588117 -0.581418 0
M  V30 4707 H 432.213 0.561328 -1.60147 0
M  V30 4708 H 430.985 1.60316 -3.56952 0
M  V30 4709 H 430.608 3.01351 -2.59371 0
M  V30 4710 N 431.605 1.3629 0.791371 0
M  V30 4711 C 433.016 1.27225 1.36641 0
M  V30 4712 C 433.367 -0.0887968 1.95999 0
M  V30 4713 O 432.492 -0.990207 1.92416 0
M  V30 4714 C 433.087 2.30375 2.48421 0
M  V30 4715 C 431.646 2.25004 3.01746 0
M  V30 4716 C 430.793 2.15259 1.7481 0
M  V30 4717 H 433.744 1.47198 0.593173 0
M  V30 4718 H 433.765 1.93905 3.27385 0
M  V30 4719 H 433.277 3.29422 2.05189 0
M  V30 4720 H 431.378 1.29417 3.49403 0
M  V30 4721 H 431.491 3.1761 3.58693 0
M  V30 4722 H 429.855 1.61482 1.96966 0
M  V30 4723 H 430.638 3.16191 1.33709 0
M  V30 4724 N 433.083 -1.0153 1.20538 0
M  V30 4725 C 433.993 -2.13557 0.971113 0
M  V30 4726 C 435.009 -1.73845 -0.0734366 0
M  V30 4727 O 436.185 -2.01075 0.114299 0
M  V30 4728 C 433.25 -3.42661 0.527639 0
M  V30 4729 C 432.311 -3.96608 1.64319 0
M  V30 4730 C 431.544 -5.1955 1.22078 0
M  V30 4731 O 431.767 -5.70329 0.0900198 0
M  V30 4732 O 430.701 -5.66681 2.02871 0
M  V30 4733 H 434.527 -2.3619 1.90913 0
M  V30 4734 H 432.112 -1.11946 0.989362 0
M  V30 4735 H 433.994 -4.20404 0.289621 0
M  V30 4736 H 432.669 -3.21441 -0.381779 0
M  V30 4737 H 431.576 -3.20139 1.93551 0
M  V30 4738 H 432.909 -4.22219 2.52966 0
M  V30 4739 N 434.561 -1.01147 -1.20859 0
M  V30 4740 C 435.791 -0.715872 -1.93801 0
M  V30 4741 C 436.199 0.726592 -1.74692 0
M  V30 4742 O 435.542 1.50397 -1.05482 0
M  V30 4743 C 435.604 -0.965269 -3.46299 0
M  V30 4744 C 435.268 -2.39584 -3.89164 0
M  V30 4745 C 436.265 -3.3764 -3.95342 0
M  V30 4746 C 433.95 -2.73522 -4.21297 0
M  V30 4747 C 435.944 -4.67698 -4.33056 0
M  V30 4748 C 433.631 -4.03794 -4.58687 0
M  V30 4749 C 434.629 -5.00693 -4.64538 0
M  V30 4750 O 434.317 -6.28635 -5.01072 0
M  V30 4751 H 434.049 -0.262524 -0.622942 0
M  V30 4752 H 436.603 -1.35413 -1.54443 0
M  V30 4753 H 434.833 -0.269847 -3.85757 0
M  V30 4754 H 436.522 -0.662051 -4.00464 0
M  V30 4755 H 437.288 -3.12757 -3.70686 0
M  V30 4756 H 433.167 -1.9879 -4.15937 0
M  V30 4757 H 436.711 -5.4333 -4.37537 0
M  V30 4758 H 432.608 -4.28459 -4.82797 0
M  V30 4759 H 433.376 -6.32847 -5.19083 0
M  V30 4760 N 436.039 1.36541 -0.78704 0
M  V30 4761 C 437.455 1.52571 -0.46844 0
M  V30 4762 C 437.655 1.7415 1.01361 0
M  V30 4763 O 436.711 1.77163 1.79915 0
M  V30 4764 C 438.024 2.71299 -1.29682 0
M  V30 4765 C 439.572 2.85169 -1.29027 0
M  V30 4766 C 440.047 4.06898 -2.10233 0
M  V30 4767 N 441.538 4.1404 -2.07666 0
M  V30 4768 C 442.273 5.07301 -2.67271 0
M  V30 4769 N 441.769 6.06021 -3.35724 0
M  V30 4770 N 443.562 4.99898 -2.57018 0
M  V30 4771 H 435.713 1.20788 -1.74711 0
M  V30 4772 H 437.976 0.589364 -0.742532 0
M  V30 4773 H 437.682 2.61868 -2.34773 0
M  V30 4774 H 437.556 3.6539 -0.936479 0
M  V30 4775 H 439.943 2.94062 -0.247284 0
M  V30 4776 H 440.024 1.91992 -1.69035 0
M  V30 4777 H 439.668 3.98766 -3.1456 0
M  V30 4778 H 439.598 4.99218 -1.67597 0
M  V30 4779 H 442.089 3.43357 -1.57843 0
M  V30 4780 H 442.402 6.73741 -3.78541 0
M  V30 4781 H 440.747 6.06253 -3.39826 0
M  V30 4782 H 443.938 4.21724 -2.03142 0
M  V30 4783 H 444.111 5.72392 -3.03761 0
M  V30 4784 N 437.518 0.538854 1.48102 0
M  V30 4785 C 438.465 -0.219042 2.29758 0
M  V30 4786 C 439.435 -0.925562 1.37922 0
M  V30 4787 O 440.62 -0.924855 1.66886 0
M  V30 4788 C 437.76 -1.25452 3.2149 0
M  V30 4789 C 436.873 -0.555943 4.28408 0
M  V30 4790 C 436.008 -1.57512 5.0731 0
M  V30 4791 C 435.047 -0.860498 6.06021 0
M  V30 4792 N 434.184 -1.82564 6.77949 0
M  V30 4793 H 439.024 0.483449 2.94052 0
M  V30 4794 H 436.561 0.250247 1.44956 0
M  V30 4795 H 438.519 -1.86727 3.7308 0
M  V30 4796 H 437.149 -1.92528 2.591 0
M  V30 4797 H 436.201 0.170938 3.80016 0
M  V30 4798 H 437.513 0.00474616 4.988 0
M  V30 4799 H 436.667 -2.26191 5.62959 0
M  V30 4800 H 435.406 -2.16972 4.36778 0
M  V30 4801 H 434.411 -0.159686 5.49568 0
M  V30 4802 H 435.636 -0.271897 6.78555 0
M  V30 4803 H 433.582 -2.40915 6.10161 0
M  V30 4804 H 433.499 -1.31662 7.44447 0
M  V30 4805 H 434.767 -2.50414 7.38182 0
M  V30 4806 N 438.996 -1.55193 0.274407 0
M  V30 4807 C 439.946 -2.19184 -0.627882 0
M  V30 4808 C 440.93 -1.15625 -1.11892 0
M  V30 4809 O 442.122 -1.41441 -1.06411 0
M  V30 4810 C 439.251 -2.91591 -1.81189 0
M  V30 4811 C 438.337 -4.02438 -1.33807 0
M  V30 4812 N 438.728 -5.0246 -0.580349 0
M  V30 4813 C 437.026 -4.15496 -1.62109 0
M  V30 4814 C 437.727 -5.80756 -0.331344 0
M  V30 4815 N 436.703 -5.36038 -0.903556 0
M  V30 4816 H 440.505 -2.93871 -0.0411216 0
M  V30 4817 H 438.019 -1.62213 0.0779348 0
M  V30 4818 H 440.016 -3.35883 -2.46957 0
M  V30 4819 H 438.676 -2.18414 -2.40261 0
M  V30 4820 H 439.687 -5.17399 -0.227762 0
M  V30 4821 H 436.364 -3.53509 -2.22121 0
M  V30 4822 H 437.754 -6.71335 0.275454 0
M  V30 4823 N 440.474 -0.00167713 -1.576 0
M  V30 4824 C 441.404 0.988091 -2.11563 0
M  V30 4825 C 442.385 1.35736 -1.02517 0
M  V30 4826 O 443.57 1.44082 -1.30208 0
M  V30 4827 C 440.7 2.27941 -2.62031 0
M  V30 4828 C 439.654 2.0517 -3.75619 0
M  V30 4829 C 438.98 3.4033 -4.12407 0
M  V30 4830 C 440.28 1.41294 -5.02825 0
M  V30 4831 H 441.974 0.538771 -2.94513 0
M  V30 4832 H 439.52 0.257712 -1.41675 0
M  V30 4833 H 441.473 2.97539 -2.9841 0
M  V30 4834 H 440.197 2.74989 -1.76205 0
M  V30 4835 H 438.856 1.37998 -3.39635 0
M  V30 4836 H 438.504 3.85085 -3.23603 0
M  V30 4837 H 438.204 3.25909 -4.88935 0
M  V30 4838 H 439.728 4.1124 -4.51347 0
M  V30 4839 H 441.142 2.00851 -5.36965 0
M  V30 4840 H 439.539 1.37356 -5.84169 0
M  V30 4841 H 440.609 0.382362 -4.8339 0
M  V30 4842 N 441.952 1.55251 0.271103 0
M  V30 4843 C 442.862 1.9136 1.35714 0
M  V30 4844 C 443.878 0.811075 1.5394 0
M  V30 4845 O 445.054 1.11031 1.6803 0
M  V30 4846 C 442.119 2.1798 2.69603 0
M  V30 4847 C 441.18 3.4153 2.60107 0
M  V30 4848 C 440.413 3.66871 3.8761 0
M  V30 4849 O 440.636 2.94689 4.8838 0
M  V30 4850 O 439.57 4.60405 3.87699 0
M  V30 4851 H 443.396 2.83815 1.08088 0
M  V30 4852 H 440.981 1.41821 0.469792 0
M  V30 4853 H 442.863 2.36518 3.48765 0
M  V30 4854 H 441.538 1.28708 2.97012 0
M  V30 4855 H 440.445 3.28325 1.79314 0
M  V30 4856 H 441.778 4.31027 2.37647 0
M  V30 4857 N 443.43 -0.535701 1.48216 0
M  V30 4858 C 444.679 -1.28828 1.55197 0
M  V30 4859 C 444.992 -1.94263 0.228278 0
M  V30 4860 O 446.198 -2.70927 0.176278 0
M  V30 4861 C 444.654 -2.33727 2.73678 0
M  V30 4862 C 444.262 -1.74386 4.12666 0
M  V30 4863 C 446.006 -3.1003 2.89968 0
M  V30 4864 C 443.913 -2.77192 5.22416 0
M  V30 4865 H 442.843 -0.484484 0.577747 0
M  V30 4866 H 445.494 -0.56646 1.74538 0
M  V30 4867 H 443.876 -3.08919 2.4776 0
M  V30 4868 H 445.05 -1.05421 4.48579 0
M  V30 4869 H 443.365 -1.10595 4.01445 0
M  V30 4870 H 445.962 -3.86842 3.6913 0
M  V30 4871 H 446.305 -3.65542 1.9921 0
M  V30 4872 H 446.838 -2.41952 3.15759 0
M  V30 4873 H 443.577 -2.26507 6.15122 0
M  V30 4874 H 443.097 -3.44502 4.90998 0
M  V30 4875 H 444.776 -3.40285 5.50286 0
M  V30 4876 N 444.908 -1.36708 -0.784132 0
M  V30 4877 C 446.155 -1.31231 -1.54222 0
M  V30 4878 C 446.483 0.106864 -1.94206 0
M  V30 4879 O 445.738 1.07734 -1.63376 0
M  V30 4880 C 446.037 -2.18571 -2.82774 0
M  V30 4881 C 445.703 -3.67039 -2.61903 0
M  V30 4882 C 444.365 -4.07503 -2.55919 0
M  V30 4883 C 446.717 -4.61149 -2.4288 0
M  V30 4884 C 444.045 -5.40211 -2.28886 0
M  V30 4885 C 446.397 -5.94081 -2.17373 0
M  V30 4886 C 445.061 -6.33664 -2.09825 0
M  V30 4887 H 444.331 -0.48021 -0.56434 0
M  V30 4888 H 446.978 -1.68807 -0.904233 0
M  V30 4889 H 445.283 -1.73949 -3.51068 0
M  V30 4890 H 446.98 -2.11655 -3.40592 0
M  V30 4891 H 443.57 -3.34941 -2.67418 0
M  V30 4892 H 447.754 -4.30756 -2.46501 0
M  V30 4893 H 443.01 -5.69855 -2.21529 0
M  V30 4894 H 447.184 -6.66566 -2.01649 0
M  V30 4895 H 444.811 -7.36423 -1.88641 0
M  V30 4896 N 446.386 1.0089 -1.21074 0
M  V30 4897 C 447.616 1.77933 -1.04993 0
M  V30 4898 C 448.024 1.84847 0.403495 0
M  V30 4899 O 447.367 1.30606 1.29181 0
M  V30 4900 C 447.429 3.23541 -1.56722 0
M  V30 4901 C 447.093 3.40214 -3.05129 0
M  V30 4902 C 448.09 3.2881 -4.02716 0
M  V30 4903 C 445.775 3.65781 -3.44252 0
M  V30 4904 C 447.769 3.42732 -5.37414 0
M  V30 4905 C 445.456 3.79346 -4.79103 0
M  V30 4906 C 446.454 3.67827 -5.75493 0
M  V30 4907 O 446.142 3.80965 -7.07899 0
M  V30 4908 H 445.874 0.566157 -0.369381 0
M  V30 4909 H 448.428 1.27826 -1.60779 0
M  V30 4910 H 446.658 3.74766 -0.953285 0
M  V30 4911 H 448.347 3.82245 -1.36543 0
M  V30 4912 H 449.113 3.08986 -3.73835 0
M  V30 4913 H 444.992 3.73831 -2.69762 0
M  V30 4914 H 448.536 3.33658 -6.12632 0
M  V30 4915 H 444.433 3.98672 -5.07672 0
M  V30 4916 H 445.201 3.97937 -7.15254 0
M  V30 4917 N 447.864 1.01787 1.20321 0
M  V30 4918 C 448.811 0.589197 2.23153 0
M  V30 4919 C 449.781 -0.391367 1.61423 0
M  V30 4920 O 450.966 -0.290518 1.88575 0
M  V30 4921 C 448.106 -0.0650747 3.45039 0
M  V30 4922 C 447.219 0.960207 4.21194 0
M  V30 4923 C 446.354 0.276854 5.30478 0
M  V30 4924 C 445.393 1.2888 5.98378 0
M  V30 4925 N 444.53 0.632031 6.99249 0
M  V30 4926 H 449.37 1.47071 2.59179 0
M  V30 4927 H 446.907 0.736192 1.27352 0
M  V30 4928 H 448.865 -0.461552 4.14639 0
M  V30 4929 H 447.495 -0.910233 3.09701 0
M  V30 4930 H 446.547 1.47484 3.50646 0
M  V30 4931 H 447.859 1.72977 4.67847 0
M  V30 4932 H 447.013 -0.175056 6.06447 0
M  V30 4933 H 445.752 -0.525004 4.84866 0
M  V30 4934 H 444.757 1.75109 5.21169 0
M  V30 4935 H 445.982 2.09196 6.46076 0
M  V30 4936 H 443.928 -0.149935 6.55829 0
M  V30 4937 H 443.845 1.33964 7.44036 0
M  V30 4938 H 445.113 0.203755 7.79234 0
M  V30 4939 N 449.342 -1.36122 0.79427 0
M  V30 4940 C 450.591 -1.98361 0.365464 0
M  V30 4941 C 450.904 -1.6374 -1.06997 0
M  V30 4942 O 452.11 -2.19251 -1.60129 0
M  V30 4943 C 450.566 -3.54821 0.602496 0
M  V30 4944 C 450.174 -3.98362 2.04967 0
M  V30 4945 C 451.918 -4.2383 0.238437 0
M  V30 4946 C 449.825 -5.47619 2.2331 0
M  V30 4947 H 448.755 -0.742193 0.13291 0
M  V30 4948 H 451.406 -1.55354 0.976589 0
M  V30 4949 H 449.788 -3.95922 -0.078409 0
M  V30 4950 H 450.962 -3.68447 2.76737 0
M  V30 4951 H 449.277 -3.42206 2.37243 0
M  V30 4952 H 451.874 -5.33529 0.353705 0
M  V30 4953 H 452.217 -4.08264 -0.814006 0
M  V30 4954 H 452.75 -3.88108 0.872769 0
M  V30 4955 H 449.489 -5.68138 3.26955 0
M  V30 4956 H 449.009 -5.79145 1.5605 0
M  V30 4957 H 450.688 -6.13911 2.0426 0
M  V30 4958 N 450.82 -0.546701 -1.47814 0
M  V30 4959 C 451.75 0.195317 -2.32682 0
M  V30 4960 C 452.731 0.918981 -1.43139 0
M  V30 4961 O 453.916 0.901501 -1.72008 0
M  V30 4962 C 451.046 1.23237 -3.247 0
M  V30 4963 C 450 0.625818 -4.234 0
M  V30 4964 C 449.326 1.76674 -5.04669 0
M  V30 4965 C 450.626 -0.413515 -5.2066 0
M  V30 4966 H 452.32 -0.513184 -2.94969 0
M  V30 4967 H 449.866 -0.248241 -1.41844 0
M  V30 4968 H 451.819 1.75955 -3.82907 0
M  V30 4969 H 450.543 1.97067 -2.60446 0
M  V30 4970 H 449.202 0.120023 -3.66403 0
M  V30 4971 H 448.85 2.49383 -4.36826 0
M  V30 4972 H 448.55 1.36673 -5.71484 0
M  V30 4973 H 450.074 2.29738 -5.65732 0
M  V30 4974 H 451.488 0.0272042 -5.73294 0
M  V30 4975 H 449.885 -0.731825 -5.95621 0
M  V30 4976 H 450.955 -1.31325 -4.66778 0
M  V30 4977 N 452.299 1.55045 -0.282633 0
M  V30 4978 C 453.527 2.04168 0.33512 0
M  V30 4979 C 453.942 1.16071 1.48906 0
M  V30 4980 O 453.299 0.182391 1.81586 0
M  V30 4981 C 453.35 3.52332 0.808957 0
M  V30 4982 O 453.071 4.37078 -0.299038 0
M  V30 4983 C 454.572 4.17375 1.49375 0
M  V30 4984 H 451.792 0.666744 0.0754543 0
M  V30 4985 H 454.336 2.00205 -0.416918 0
M  V30 4986 H 452.491 3.56715 1.51106 0
M  V30 4987 H 452.905 5.24458 0.0665514 0
M  V30 4988 H 454.379 5.22627 1.77664 0
M  V30 4989 H 454.856 3.65999 2.42778 0
M  V30 4990 H 455.462 4.17016 0.835305 0
M  V30 4991 N 453.777 0.010035 1.57597 0
M  V30 4992 C 454.725 -0.996272 2.10184 0
M  V30 4993 C 455.719 -1.34942 1.02406 0
M  V30 4994 O 456.925 -1.33389 1.20861 0
M  V30 4995 H 453.3 -0.338982 0.671264 0
M  V30 4996 H 455.271 -0.527272 2.93705 0
M  V30 4997 C 454.02 -2.27599 2.62857 0
M  V30 4998 H 453.343 -2.01295 3.45428 0
M  V30 4999 H 454.783 -2.96265 3.0332 0
M  V30 5000 C 453.242 -2.99269 1.54725 0
M  V30 5001 O 453.772 -3.90644 0.93597 0
M  V30 5002 N 451.978 -2.61269 1.27228 0
M  V30 5003 H 451.525 -1.87043 1.77123 0
M  V30 5004 H 451.483 -3.09534 0.550999 0
M  V30 5005 N 455.255 -1.55392 -0.262866 0
M  V30 5006 C 456.483 -1.80513 -1.01108 0
M  V30 5007 C 456.898 -0.583533 -1.79556 0
M  V30 5008 O 456.255 0.447585 -1.76926 0
M  V30 5009 C 456.306 -3.03648 -1.96164 0
M  V30 5010 O 456.027 -4.2109 -1.20893 0
M  V30 5011 C 457.528 -3.41448 -2.82715 0
M  V30 5012 H 454.748 -0.601079 -0.298236 0
M  V30 5013 H 457.292 -2.02425 -0.290582 0
M  V30 5014 H 455.447 -2.83832 -2.63663 0
M  V30 5015 H 455.861 -4.90771 -1.85051 0
M  V30 5016 H 457.335 -4.30751 -3.45192 0
M  V30 5017 H 457.812 -2.61308 -3.53008 0
M  V30 5018 H 458.418 -3.63559 -2.20693 0
M  V30 5019 N 456.733 0.527833 -1.48498 0
M  V30 5020 C 458.01 1.28905 -1.47115 0
M  V30 5021 C 458.39 2.10297 -0.184007 0
M  V30 5022 O 457.738 2.12728 0.834218 0
M  V30 5023 C 457.948 2.16866 -2.73441 0
M  V30 5024 C 459.296 2.76936 -3.21857 0
M  V30 5025 O 460.32 2.27152 -2.74373 0
M  V30 5026 O 459.179 3.67496 -4.04486 0
M  V30 5027 H 456.273 0.581918 -0.587623 0
M  V30 5028 H 458.819 0.544311 -1.60734 0
M  V30 5029 H 457.591 1.56521 -3.58632 0
M  V30 5030 H 457.214 2.98583 -2.62553 0
M  V30 5031 N 458.211 1.37122 0.776871 0
M  V30 5032 C 459.622 1.28667 1.35284 0
M  V30 5033 C 459.973 -0.0680035 1.96082 0
M  V30 5034 O 459.098 -0.969743 1.93455 0
M  V30 5035 C 459.693 2.32997 2.45963 0
M  V30 5036 C 458.252 2.28191 2.99342 0
M  V30 5037 C 457.399 2.17101 1.72517 0
M  V30 5038 H 460.35 1.47819 0.577527 0
M  V30 5039 H 460.371 1.97366 3.2531 0
M  V30 5040 H 459.883 3.3158 2.01684 0
M  V30 5041 H 457.984 1.33115 3.4801 0
M  V30 5042 H 458.097 3.21397 3.55304 0
M  V30 5043 H 456.461 1.63562 1.95242 0
M  V30 5044 H 457.244 3.17591 1.30348 0
M  V30 5045 N 459.689 -1.00246 1.21608 0
M  V30 5046 C 460.637 -2.11193 0.97469 0
M  V30 5047 C 461.631 -1.69216 -0.0789303 0
M  V30 5048 O 462.837 -1.79853 0.0726806 0
M  V30 5049 H 459.212 -0.690455 0.297953 0
M  V30 5050 H 461.183 -2.2873 1.91638 0
M  V30 5051 C 459.932 -3.43182 0.558717 0
M  V30 5052 H 459.255 -3.75918 1.3611 0
M  V30 5053 H 460.695 -4.21823 0.429154 0
M  V30 5054 C 459.154 -3.28882 -0.730648 0
M  V30 5055 O 459.684 -3.59835 -1.78554 0
M  V30 5056 N 457.89 -2.8209 -0.698131 0
M  V30 5057 H 457.437 -2.57099 0.16061 0
M  V30 5058 H 457.395 -2.72903 -1.56113 0
M  V30 5059 N 461.167 -1.02423 -1.1978 0
M  V30 5060 C 462.444 -0.632802 -1.85081 0
M  V30 5061 C 462.824 0.888745 -1.9148 0
M  V30 5062 O 462.172 1.78357 -1.42832 0
M  V30 5063 C 462.382 -1.28947 -3.24305 0
M  V30 5064 C 463.73 -1.40976 -4.00513 0
M  V30 5065 O 464.754 -1.24628 -3.33686 0
M  V30 5066 O 463.613 -1.67467 -5.20209 0
M  V30 5067 H 460.707 -0.219348 -0.79738 0
M  V30 5068 H 463.253 -1.12209 -1.27307 0
M  V30 5069 H 462.025 -2.3288 -3.14456 0
M  V30 5070 H 461.648 -0.787748 -3.89718 0
M  V30 5071 N 462.645 1.35699 -0.801477 0
M  V30 5072 C 463.922 1.9324 -0.302937 0
M  V30 5073 C 464.302 1.73209 1.20672 0
M  V30 5074 O 463.65 1.09809 2.00385 0
M  V30 5075 C 463.86 3.41728 -0.708747 0
M  V30 5076 C 465.208 4.18868 -0.695328 0
M  V30 5077 O 466.232 3.5022 -0.649971 0
M  V30 5078 O 465.091 5.41342 -0.749081 0
M  V30 5079 H 462.185 0.82331 -0.0780367 0
M  V30 5080 H 464.731 1.44806 -0.884832 0
M  V30 5081 H 463.503 3.50015 -1.74944 0
M  V30 5082 H 463.126 3.97471 -0.101384 0
M  V30 5083 N 464.123 0.554532 1.47522 0
M  V30 5084 C 465.369 0.0295227 2.02779 0
M  V30 5085 C 465.702 -1.31582 1.42828 0
M  V30 5086 O 464.977 -1.85561 0.582872 0
M  V30 5087 C 465.26 -0.0664057 3.60039 0
M  V30 5088 C 465.113 1.30585 4.30427 0
M  V30 5089 C 466.432 -0.781162 4.33112 0
M  V30 5090 H 463.551 0.0122027 0.736899 0
M  V30 5091 H 466.193 0.716305 1.7598 0
M  V30 5092 H 464.343 -0.651307 3.83002 0
M  V30 5093 H 466.015 1.93374 4.18813 0
M  V30 5094 H 464.258 1.88125 3.90886 0
M  V30 5095 H 464.929 1.19147 5.38988 0
M  V30 5096 H 467.405 -0.284565 4.15126 0
M  V30 5097 H 466.281 -0.817237 5.42782 0
M  V30 5098 H 466.542 -1.83672 4.0214 0
M  V30 5099 N 465.601 -1.54893 0.290851 0
M  V30 5100 C 466.511 -2.26812 -0.59945 0
M  V30 5101 C 467.527 -1.29963 -1.15696 0
M  V30 5102 O 468.703 -1.62928 -1.18391 0
M  V30 5103 C 465.768 -2.98716 -1.75982 0
M  V30 5104 C 464.829 -4.1108 -1.2374 0
M  V30 5105 C 464.062 -4.79546 -2.34246 0
M  V30 5106 O 464.285 -4.47309 -3.53936 0
M  V30 5107 O 463.219 -5.67165 -2.01512 0
M  V30 5108 H 467.045 -3.03696 -0.0163561 0
M  V30 5109 H 464.63 -1.49289 0.0576755 0
M  V30 5110 H 466.512 -3.43851 -2.43607 0
M  V30 5111 H 465.187 -2.24737 -2.3297 0
M  V30 5112 H 464.094 -3.70367 -0.527163 0
M  V30 5113 H 465.427 -4.87007 -0.71307 0
M  V30 5114 N 467.08 -0.0183926 -1.57589 0
M  V30 5115 C 468.496 0.337897 -1.55982 0
M  V30 5116 C 468.696 1.73604 -1.02294 0
M  V30 5117 O 467.752 2.43589 -0.664895 0
M  V30 5118 C 469.065 0.196305 -3.00059 0
M  V30 5119 C 470.613 0.269875 -3.11834 0
M  V30 5120 C 471.088 0.157197 -4.5773 0
M  V30 5121 N 472.579 0.214521 -4.62703 0
M  V30 5122 C 473.314 0.150955 -5.73201 0
M  V30 5123 N 472.81 0.0369212 -6.9279 0
M  V30 5124 N 474.603 0.204162 -5.61729 0
M  V30 5125 H 466.754 -0.93279 -1.90821 0
M  V30 5126 H 469.017 -0.359253 -0.877292 0
M  V30 5127 H 468.723 -0.766383 -3.43248 0
M  V30 5128 H 468.597 0.970908 -3.6449 0
M  V30 5129 H 470.984 1.22302 -2.68563 0
M  V30 5130 H 471.065 -0.534918 -2.50144 0
M  V30 5131 H 470.709 -0.792479 -5.01679 0
M  V30 5132 H 470.639 0.980717 -5.17387 0
M  V30 5133 H 473.13 0.303238 -3.76681 0
M  V30 5134 H 473.443 -0.00518321 -7.728 0
M  V30 5135 H 471.788 0.0022886 -6.95 0
M  V30 5136 H 474.979 0.291575 -4.67191 0
M  V30 5137 H 475.152 0.15116 -6.47824 0
M  V30 5138 N 468.558 1.5553 0.254621 0
M  V30 5139 C 469.974 1.4778 0.602753 0
M  V30 5140 C 470.174 0.707047 1.88688 0
M  V30 5141 O 469.23 0.233288 2.5142 0
M  V30 5142 C 470.543 2.92133 0.712648 0
M  V30 5143 C 472.091 3.02458 0.805488 0
M  V30 5144 C 472.566 4.48102 0.947009 0
M  V30 5145 N 474.057 4.52008 1.01207 0
M  V30 5146 C 474.792 5.61939 1.1407 0
M  V30 5147 N 474.288 6.81697 1.23536 0
M  V30 5148 N 476.081 5.49719 1.17325 0
M  V30 5149 H 468.232 2.04085 -0.588463 0
M  V30 5150 H 470.495 0.926229 -0.202001 0
M  V30 5151 H 470.201 3.51332 -0.160766 0
M  V30 5152 H 470.075 3.42187 1.58707 0
M  V30 5153 H 472.462 2.43344 1.66936 0
M  V30 5154 H 472.543 2.55627 -0.0939266 0
M  V30 5155 H 472.187 5.07824 0.087725 0
M  V30 5156 H 472.117 4.92607 1.86135 0
M  V30 5157 H 474.608 3.65749 0.950577 0
M  V30 5158 H 474.921 7.61228 1.33236 0
M  V30 5159 H 473.266 6.84473 1.20508 0
M  V30 5160 H 476.457 4.55095 1.09573 0
M  V30 5161 H 476.63 6.35432 1.27005 0
M  V30 5162 N 470.036 -0.519951 1.48776 0
M  V30 5163 C 470.984 -1.64443 1.64503 0
M  V30 5164 C 471.978 -1.61501 0.511248 0
M  V30 5165 O 473.184 -1.66238 0.690294 0
M  V30 5166 H 469.559 -0.544776 0.518385 0
M  V30 5167 H 471.53 -1.48325 2.58925 0
M  V30 5168 C 470.279 -3.02673 1.71127 0
M  V30 5169 H 469.602 -3.05635 2.57735 0
M  V30 5170 H 471.042 -3.80941 1.86172 0
M  V30 5171 C 469.501 -3.33854 0.452032 0
M  V30 5172 O 470.031 -3.99385 -0.430678 0
M  V30 5173 N 468.237 -2.88825 0.32069 0
M  V30 5174 H 467.784 -2.35674 1.03998 0
M  V30 5175 H 467.742 -3.10056 -0.520814 0
M  V30 5176 N 471.514 -1.37532 -0.769588 0
M  V30 5177 C 472.477 -1.33292 -1.86456 0
M  V30 5178 C 473.477 -0.236537 -1.59051 0
M  V30 5179 O 474.667 -0.492511 -1.67093 0
M  V30 5180 C 471.799 -1.07118 -3.23633 0
M  V30 5181 H 472.992 -2.30692 -1.91628 0
M  V30 5182 H 470.545 -1.22593 -0.969572 0
M  V30 5183 H 471.28 -0.102578 -3.24138 0
M  V30 5184 H 471.065 -1.86479 -3.44917 0
M  V30 5185 H 472.555 -1.06806 -4.03711 0
M  V30 5186 N 472.992 0.995999 -1.22138 0
M  V30 5187 C 474.269 1.70834 -0.952642 0
M  V30 5188 C 474.649 2.04257 0.533119 0
M  V30 5189 O 473.997 1.72343 1.50034 0
M  V30 5190 C 474.207 2.96119 -1.84701 0
M  V30 5191 C 475.555 3.68962 -2.10124 0
M  V30 5192 O 476.579 3.0612 -1.82124 0
M  V30 5193 O 475.438 4.82017 -2.57531 0
M  V30 5194 H 472.532 0.745498 -0.357997 0
M  V30 5195 H 475.078 1.05262 -1.33109 0
M  V30 5196 H 473.85 2.67898 -2.85213 0
M  V30 5197 H 473.473 3.6943 -1.46995 0
M  V30 5198 N 474.47 1.03057 1.19235 0
M  V30 5199 C 475.418 0.606391 2.24557 0
M  V30 5200 C 476.412 -0.361826 1.65491 0
M  V30 5201 O 477.618 -0.23022 1.78522 0
M  V30 5202 H 473.993 0.177838 0.730669 0
M  V30 5203 H 475.964 1.50529 2.5765 0
M  V30 5204 C 474.713 -0.0252127 3.47691 0
M  V30 5205 H 474.036 0.710838 3.9343 0
M  V30 5206 H 475.476 -0.284931 4.23042 0
M  V30 5207 C 473.935 -1.27229 3.11953 0
M  V30 5208 O 474.465 -2.36416 3.24762 0
M  V30 5209 N 472.671 -1.16169 2.6637 0
M  V30 5210 H 472.218 -0.273189 2.56147 0
M  V30 5211 H 472.176 -1.99703 2.42829 0
M  V30 5212 N 475.948 -1.35272 0.808662 0
M  V30 5213 C 476.895 -2.29764 0.218482 0
M  V30 5214 C 477.865 -1.52911 -0.648652 0
M  V30 5215 O 479.05 -1.81341 -0.593297 0
M  V30 5216 C 476.19 -3.39388 -0.625282 0
M  V30 5217 C 475.303 -4.31202 0.262516 0
M  V30 5218 C 474.438 -5.27919 -0.589451 0
M  V30 5219 C 473.477 -6.11371 0.298617 0
M  V30 5220 N 472.614 -7.0022 -0.513443 0
M  V30 5221 H 477.454 -2.79645 1.02968 0
M  V30 5222 H 474.991 -1.37629 0.519303 0
M  V30 5223 H 476.949 -4.01615 -1.12966 0
M  V30 5224 H 475.579 -2.90777 -1.40173 0
M  V30 5225 H 474.631 -3.69962 0.885013 0
M  V30 5226 H 475.943 -4.89748 0.945971 0
M  V30 5227 H 475.097 -5.95529 -1.15888 0
M  V30 5228 H 473.836 -4.69875 -1.30647 0
M  V30 5229 H 472.841 -5.42707 0.880301 0
M  V30 5230 H 474.066 -6.71494 1.01352 0
M  V30 5231 H 472.012 -6.44662 -1.21439 0
M  V30 5232 H 471.929 -7.55917 0.111922 0
M  V30 5233 H 473.197 -7.72175 -1.06608 0
M  V30 5234 N 477.426 -0.562348 -1.47226 0
M  V30 5235 C 478.336 0.185466 -2.33866 0
M  V30 5236 C 479.352 0.906713 -1.48508 0
M  V30 5237 O 480.528 0.874458 -1.81425 0
M  V30 5238 C 477.593 1.19904 -3.25306 0
M  V30 5239 C 476.654 0.484669 -4.26555 0
M  V30 5240 C 475.887 1.44996 -5.13626 0
M  V30 5241 O 476.11 2.68515 -5.03245 0
M  V30 5242 O 475.044 0.971642 -5.94006 0
M  V30 5243 H 478.87 -0.525361 -2.99121 0
M  V30 5244 H 476.455 -0.322916 -1.45868 0
M  V30 5245 H 478.337 1.78399 -3.81774 0
M  V30 5246 H 477.012 1.8917 -2.62672 0
M  V30 5247 H 475.919 -0.141605 -3.73832 0
M  V30 5248 H 477.252 -0.166634 -4.91918 0
M  V30 5249 N 478.904 1.54736 -0.299062 0
M  V30 5250 C 480.181 1.92187 0.363802 0
M  V30 5251 C 480.561 1.22607 1.71845 0
M  V30 5252 O 479.909 0.361141 2.25628 0
M  V30 5253 C 480.119 3.45678 0.480377 0
M  V30 5254 C 481.467 4.17885 0.752147 0
M  V30 5255 O 482.491 3.51702 0.564264 0
M  V30 5256 O 481.35 5.35048 1.11294 0
M  V30 5257 H 478.444 0.801681 0.203066 0
M  V30 5258 H 480.99 1.66115 -0.346978 0
M  V30 5259 H 479.762 3.88443 -0.471999 0
M  V30 5260 H 479.385 3.77779 1.2397 0
M  V30 5261 N 480.382 0.0267497 1.57577 0
M  V30 5262 C 481.312 -0.954308 2.13108 0
M  V30 5263 C 482.293 -1.34088 1.04663 0
M  V30 5264 O 483.478 -1.41992 1.32484 0
M  V30 5265 C 480.608 -2.23744 2.65624 0
M  V30 5266 C 479.562 -1.99168 3.78835 0
M  V30 5267 C 478.888 -3.33726 4.17769 0
M  V30 5268 C 480.188 -1.33277 5.0501 0
M  V30 5269 H 481.882 -0.491848 2.95332 0
M  V30 5270 H 479.428 -0.23514 1.42067 0
M  V30 5271 H 481.381 -2.92754 3.03106 0
M  V30 5272 H 480.105 -2.72151 1.80558 0
M  V30 5273 H 478.764 -1.32577 3.41788 0
M  V30 5274 H 478.412 -3.79888 3.29688 0
M  V30 5275 H 478.112 -3.18089 4.94058 0
M  V30 5276 H 479.636 -4.04008 4.57832 0
M  V30 5277 H 481.05 -1.92283 5.40093 0
M  V30 5278 H 479.447 -1.28045 5.8628 0
M  V30 5279 H 480.517 -0.305411 4.83937 0
M  V30 5280 N 481.861 -1.55662 -0.24637 0
M  V30 5281 C 483.089 -1.81575 -0.991876 0
M  V30 5282 C 483.504 -0.602545 -1.78927 0
M  V30 5283 O 482.861 0.428795 -1.77391 0
M  V30 5284 C 482.912 -3.05711 -1.92933 0
M  V30 5285 O 482.633 -4.22348 -1.1642 0
M  V30 5286 C 484.134 -3.44428 -2.79078 0
M  V30 5287 H 481.354 -0.604209 -0.291844 0
M  V30 5288 H 483.898 -2.02722 -0.269095 0
M  V30 5289 H 482.053 -2.86612 -2.60638 0
M  V30 5290 H 482.467 -4.92706 -1.79835 0
M  V30 5291 H 483.941 -4.34388 -3.40603 0
M  V30 5292 H 484.418 -2.65037 -3.50217 0
M  V30 5293 H 485.024 -3.65879 -2.16824 0
M  V30 5294 N 483.339 0.512053 -1.4905 0
M  V30 5295 C 484.564 1.2959 -1.6193 0
M  V30 5296 C 484.989 1.85906 -0.286454 0
M  V30 5297 O 484.347 1.65312 0.744426 0
M  V30 5298 C 484.395 2.40987 -2.68249 0
M  V30 5299 O 483.499 3.44531 -2.26654 0
M  V30 5300 H 482.84 0.383053 -0.542371 0
M  V30 5301 H 485.37 0.614231 -1.95162 0
M  V30 5302 H 485.38 2.86913 -2.90078 0
M  V30 5303 H 484.055 1.99361 -3.65004 0
M  V30 5304 H 482.632 3.046 -2.15112 0
M  V30 5305 N 484.817 1.37938 0.762283 0
M  V30 5306 C 485.78 1.34279 1.85747 0
M  V30 5307 C 486.78 0.244969 1.58923 0
M  V30 5308 O 487.97 0.501365 1.66829 0
M  V30 5309 C 485.102 1.08833 3.23061 0
M  V30 5310 H 486.295 2.31705 1.90401 0
M  V30 5311 H 483.848 1.23105 0.963057 0
M  V30 5312 H 484.583 0.119767 3.24079 0
M  V30 5313 H 484.368 1.88306 3.43923 0
M  V30 5314 H 485.858 1.08946 4.03138 0
M  V30 5315 N 486.295 -0.989507 1.22664 0
M  V30 5316 C 487.572 -1.70326 0.961688 0
M  V30 5317 C 487.952 -2.04537 -0.522279 0
M  V30 5318 O 487.3 -1.73136 -1.49118 0
M  V30 5319 C 487.51 -2.95135 1.86269 0
M  V30 5320 C 488.858 -3.67842 2.12078 0
M  V30 5321 O 489.882 -3.0515 1.83745 0
M  V30 5322 O 488.741 -4.80644 2.60083 0
M  V30 5323 H 485.835 -0.743589 0.361946 0
M  V30 5324 H 488.381 -1.04555 1.33665 0
M  V30 5325 H 487.153 -2.66382 2.8663 0
M  V30 5326 H 486.776 -3.68645 1.48952 0
M  V30 5327 N 487.773 -1.03688 -1.18687 0
M  V30 5328 C 489.184 -0.766488 -1.70241 0
M  V30 5329 C 489.535 0.713052 -1.82784 0
M  V30 5330 O 488.66 1.55529 -1.50465 0
M  V30 5331 C 489.255 -1.38475 -3.09209 0
M  V30 5332 C 487.814 -1.16276 -3.5799 0
M  V30 5333 C 486.961 -1.4778 -2.34641 0
M  V30 5334 H 489.912 -1.20378 -1.03415 0
M  V30 5335 H 489.933 -0.785939 -3.72295 0
M  V30 5336 H 489.445 -2.46157 -3.00048 0
M  V30 5337 H 487.546 -0.104508 -3.72453 0
M  V30 5338 H 487.659 -1.8571 -4.41643 0
M  V30 5339 H 486.023 -0.897366 -2.38368 0
M  V30 5340 H 486.806 -2.56562 -2.28102 0
M  V30 5341 N 489.251 1.34841 -0.815825 0
M  V30 5342 C 490.161 2.33425 -0.234462 0
M  V30 5343 C 491.177 1.62295 0.627413 0
M  V30 5344 O 492.353 1.94109 0.536987 0
M  V30 5345 C 489.418 3.41471 0.599849 0
M  V30 5346 C 488.479 4.28362 -0.283596 0
M  V30 5347 C 487.712 5.31248 0.51099 0
M  V30 5348 O 487.935 5.43056 1.7449 0
M  V30 5349 O 486.869 6.01812 -0.10297 0
M  V30 5350 H 490.695 2.84962 -1.05024 0
M  V30 5351 H 488.28 1.37774 -0.577809 0
M  V30 5352 H 490.162 4.07464 1.07475 0
M  V30 5353 H 488.837 2.9219 1.39308 0
M  V30 5354 H 487.744 3.65318 -0.805836 0
M  V30 5355 H 489.077 4.81066 -1.041 0
M  V30 5356 N 490.729 0.570148 1.46925 0
M  V30 5357 C 491.977 0.0508523 2.02036 0
M  V30 5358 C 492.298 -1.30885 1.44548 0
M  V30 5359 O 491.568 -1.85647 0.625453 0
M  V30 5360 H 490.148 0.0158088 0.746833 0
M  V30 5361 H 492.81 0.743086 1.80178 0
M  V30 5362 H 491.906 -0.027575 3.12088 0
M  V30 5363 N 492.207 -1.54576 0.307264 0
M  V30 5364 C 493.139 -2.21212 -0.599807 0
M  V30 5365 C 494.152 -1.20685 -1.09266 0
M  V30 5366 O 495.341 -1.47244 -1.00903 0
M  V30 5367 C 492.441 -2.84994 -1.83389 0
M  V30 5368 C 491.614 -4.11511 -1.48248 0
M  V30 5369 C 490.673 -4.59038 -2.57237 0
M  V30 5370 O 489.699 -5.24095 -2.22065 0
M  V30 5371 N 490.901 -4.31884 -3.87887 0
M  V30 5372 H 493.666 -2.99686 -0.0293075 0
M  V30 5373 H 491.227 -1.61379 0.129738 0
M  V30 5374 H 493.219 -3.1372 -2.5566 0
M  V30 5375 H 491.789 -2.10324 -2.31263 0
M  V30 5376 H 491.009 -3.89728 -0.592122 0
M  V30 5377 H 492.297 -4.93879 -1.22316 0
M  V30 5378 H 491.695 -3.79778 -4.19268 0
M  V30 5379 H 490.252 -4.65304 -4.56438 0
M  V30 5380 N 493.685 -0.035106 -1.57561 0
M  V30 5381 C 494.934 0.641604 -1.91223 0
M  V30 5382 C 495.247 1.72944 -0.913761 0
M  V30 5383 O 496.453 2.46321 -1.14185 0
M  V30 5384 C 494.909 1.19249 -3.3957 0
M  V30 5385 C 494.517 0.137616 -4.47789 0
M  V30 5386 C 496.261 1.84537 -3.82291 0
M  V30 5387 C 494.168 0.700478 -5.87237 0
M  V30 5388 H 493.098 0.243417 -0.713627 0
M  V30 5389 H 495.749 -0.101382 -1.8322 0
M  V30 5390 H 494.131 1.98728 -3.42525 0
M  V30 5391 H 495.305 -0.635153 -4.56402 0
M  V30 5392 H 493.62 -0.416855 -4.14308 0
M  V30 5393 H 496.217 2.27616 -4.83834 0
M  V30 5394 H 496.56 2.69054 -3.17672 0
M  V30 5395 H 497.093 1.11739 -3.81784 0
M  V30 5396 H 493.832 -0.106693 -6.55413 0
M  V30 5397 H 493.352 1.4416 -5.82218 0
M  V30 5398 H 495.031 1.18837 -6.35993 0
M  V30 5399 N 495.163 1.55791 0.238111 0
M  V30 5400 C 496.096 1.86036 1.32158 0
M  V30 5401 C 497.074 0.716216 1.45976 0
M  V30 5402 O 498.258 0.962882 1.62052 0
M  V30 5403 C 495.385 2.05281 2.69402 0
M  V30 5404 C 494.431 3.27939 2.72687 0
M  V30 5405 S 495.264 4.84342 2.28413 0
M  V30 5406 C 496.42 5.06604 3.67565 0
M  V30 5407 H 496.653 2.77644 1.06306 0
M  V30 5408 H 494.186 1.48012 0.439537 0
M  V30 5409 H 496.144 2.17053 3.48423 0
M  V30 5410 H 494.805 1.14499 2.92487 0
M  V30 5411 H 493.998 3.38398 3.73501 0
M  V30 5412 H 493.6 3.14938 2.01717 0
M  V30 5413 H 495.892 4.94486 4.6313 0
M  V30 5414 H 496.835 6.08554 3.62033 0
M  V30 5415 H 497.243 4.34409 3.60485 0
M  V30 5416 N 496.642 -0.504142 1.49319 0
M  V30 5417 C 498.058 -0.835039 1.36012 0
M  V30 5418 C 498.258 -1.97674 0.390808 0
M  V30 5419 O 497.314 -2.51867 -0.178655 0
M  V30 5420 C 498.627 -1.17821 2.76656 0
M  V30 5421 C 500.175 -1.2866 2.85334 0
M  V30 5422 C 500.65 -1.66307 4.26739 0
M  V30 5423 N 502.141 -1.73362 4.29534 0
M  V30 5424 C 502.876 -2.0393 5.35911 0
M  V30 5425 N 502.372 -2.32744 6.52535 0
M  V30 5426 N 504.165 -2.05155 5.23324 0
M  V30 5427 H 496.316 0.248764 2.10938 0
M  V30 5428 H 498.579 0.0486962 0.946748 0
M  V30 5429 H 498.285 -0.412682 3.4927 0
M  V30 5430 H 498.159 -2.12239 3.11825 0
M  V30 5431 H 500.546 -2.04285 2.1296 0
M  V30 5432 H 500.627 -0.323004 2.53752 0
M  V30 5433 H 500.271 -0.91234 4.99639 0
M  V30 5434 H 500.201 -2.63761 4.55782 0
M  V30 5435 H 502.692 -1.53268 3.45424 0
M  V30 5436 H 503.005 -2.55248 7.2943 0
M  V30 5437 H 501.35 -2.30207 6.55767 0
M  V30 5438 H 504.541 -1.82119 4.3122 0
M  V30 5439 H 504.714 -2.28644 6.06322 0
M  V30 5440 N 498.12 -1.38341 -0.754957 0
M  V30 5441 C 499.03 -1.3769 -1.89944 0
M  V30 5442 C 500.046 -0.274194 -1.71826 0
M  V30 5443 O 501.222 -0.512391 -1.94773 0
M  V30 5444 C 498.287 -1.19938 -3.25293 0
M  V30 5445 C 497.348 -2.40001 -3.55946 0
M  V30 5446 C 496.581 -2.23087 -4.84838 0
M  V30 5447 O 496.804 -1.22386 -5.57116 0
M  V30 5448 O 495.738 -3.11646 -5.14937 0
M  V30 5449 H 499.564 -2.3412 -1.93446 0
M  V30 5450 H 497.149 -1.19246 -0.900044 0
M  V30 5451 H 499.031 -1.12093 -4.06218 0
M  V30 5452 H 497.706 -0.265919 -3.22606 0
M  V30 5453 H 496.613 -2.53421 -2.75188 0
M  V30 5454 H 497.946 -3.31973 -3.63394 0
M  V30 5455 N 499.598 0.982988 -1.23187 0
M  V30 5456 C 500.828 1.75666 -1.08743 0
M  V30 5457 C 501.236 1.85662 0.364195 0
M  V30 5458 O 500.579 1.33317 1.26382 0
M  V30 5459 C 500.641 3.20144 -1.63549 0
M  V30 5460 C 500.305 3.33665 -3.12277 0
M  V30 5461 C 501.302 3.20194 -4.096 0
M  V30 5462 C 498.987 3.58397 -3.51933 0
M  V30 5463 C 500.981 3.31256 -5.44563 0
M  V30 5464 C 498.668 3.69098 -4.87042 0
M  V30 5465 C 499.666 3.55537 -5.83166 0
M  V30 5466 O 499.354 3.65864 -7.1582 0
M  V30 5467 H 499.086 0.558194 -0.381307 0
M  V30 5468 H 501.64 1.24387 -1.63454 0
M  V30 5469 H 499.87 3.72659 -1.03256 0
M  V30 5470 H 501.559 3.79262 -1.4462 0
M  V30 5471 H 502.325 3.00987 -3.80305 0
M  V30 5472 H 498.204 3.68025 -2.77631 0
M  V30 5473 H 501.748 3.20588 -6.19572 0
M  V30 5474 H 497.645 3.87814 -5.16014 0
M  V30 5475 H 498.413 3.82675 -7.23534 0
M  V30 5476 N 501.076 1.04316 1.18135 0
M  V30 5477 C 502.039 0.640794 2.2006 0
M  V30 5478 C 503.039 -0.303124 1.57917 0
M  V30 5479 O 504.229 -0.0881855 1.73977 0
M  V30 5480 C 501.361 -0.060148 3.40847 0
M  V30 5481 H 502.554 1.54281 2.57172 0
M  V30 5482 H 500.107 0.836004 1.32063 0
M  V30 5483 H 500.842 -0.975845 3.0927 0
M  V30 5484 H 500.627 0.618319 3.87194 0
M  V30 5485 H 502.117 -0.328082 4.16309 0
M  V30 5486 N 502.554 -1.34406 0.822964 0
M  V30 5487 C 503.517 -2.2783 0.250271 0
M  V30 5488 C 504.517 -1.50288 -0.571854 0
M  V30 5489 O 505.707 -1.69825 -0.387952 0
M  V30 5490 C 502.839 -3.34663 -0.649137 0
M  V30 5491 H 504.032 -2.79992 1.07444 0
M  V30 5492 H 501.585 -1.44539 0.594829 0
M  V30 5493 H 502.32 -2.87714 -1.49637 0
M  V30 5494 H 502.105 -3.92052 -0.0611199 0
M  V30 5495 H 503.595 -4.04349 -1.04363 0
M  V30 5496 N 504.032 -0.577932 -1.46621 0
M  V30 5497 C 505.309 0.00495287 -1.95599 0
M  V30 5498 C 505.689 1.46428 -1.5206 0
M  V30 5499 O 505.037 2.1517 -0.769046 0
M  V30 5500 C 505.247 -0.162114 -3.48623 0
M  V30 5501 C 506.595 -0.0274623 -4.24591 0
M  V30 5502 O 507.619 -0.0907067 -3.56084 0
M  V30 5503 O 506.478 0.1122 -5.46385 0
M  V30 5504 H 503.572 0.0525057 -0.825332 0
M  V30 5505 H 506.118 -0.645914 -1.56927 0
M  V30 5506 H 504.89 -1.17679 -3.73185 0
M  V30 5507 H 504.513 0.525407 -3.94113 0
M  V30 5508 N 505.51 1.54411 -0.315457 0
M  V30 5509 C 506.921 1.85885 0.174265 0
M  V30 5510 C 507.272 1.23723 1.52273 0
M  V30 5511 O 506.397 0.540246 2.09548 0
M  V30 5512 C 506.992 3.37257 0.322981 0
M  V30 5513 C 505.551 3.68711 0.756922 0
M  V30 5514 C 504.698 2.77013 -0.126195 0
M  V30 5515 H 507.649 1.49374 -0.536007 0
M  V30 5516 H 507.67 3.62539 1.15522 0
M  V30 5517 H 507.182 3.82471 -0.658602 0
M  V30 5518 H 505.283 3.29024 1.74854 0
M  V30 5519 H 505.396 4.75741 0.566291 0
M  V30 5520 H 503.76 2.51588 0.39692 0
M  V30 5521 H 504.543 3.25051 -1.1044 0
M  V30 5522 N 506.988 0.0434614 1.5754 0
M  V30 5523 C 507.898 -0.94893 2.14552 0
M  V30 5524 C 508.914 -1.34707 1.10136 0
M  V30 5525 O 510.09 -1.42557 1.42266 0
M  V30 5526 C 507.155 -2.208 2.67298 0
M  V30 5527 C 506.216 -1.86893 3.86484 0
M  V30 5528 C 505.449 -3.06797 4.36705 0
M  V30 5529 O 505.672 -4.19921 3.86034 0
M  V30 5530 O 504.606 -2.8826 5.28384 0
M  V30 5531 H 508.432 -0.494099 2.99654 0
M  V30 5532 H 506.017 -0.177989 1.48336 0
M  V30 5533 H 507.899 -2.94686 3.01228 0
M  V30 5534 H 506.574 -2.65436 1.85272 0
M  V30 5535 H 505.481 -1.10347 3.57455 0
M  V30 5536 H 506.814 -1.47062 4.69716 0
M  V30 5537 N 508.466 -1.55915 -0.229846 0
M  V30 5538 C 509.696 -1.82352 -0.971152 0
M  V30 5539 C 510.104 -0.619231 -1.7878 0
M  V30 5540 O 509.447 0.421597 -1.78797 0
M  V30 5541 C 509.509 -3.02399 -1.9441 0
M  V30 5542 C 509.173 -4.37739 -1.31277 0
M  V30 5543 C 510.17 -5.15074 -0.706757 0
M  V30 5544 C 507.855 -4.84454 -1.32702 0
M  V30 5545 C 509.849 -6.37281 -0.123413 0
M  V30 5546 C 507.536 -6.06605 -0.739831 0
M  V30 5547 C 508.534 -6.82858 -0.139071 0
M  V30 5548 O 508.222 -8.027 0.439007 0
M  V30 5549 H 507.954 -0.61035 -0.290601 0
M  V30 5550 H 510.508 -2.03839 -0.252746 0
M  V30 5551 H 508.738 -2.76709 -2.70128 0
M  V30 5552 H 510.427 -3.15779 -2.55026 0
M  V30 5553 H 511.193 -4.80093 -0.688131 0
M  V30 5554 H 507.072 -4.25081 -1.78402 0
M  V30 5555 H 510.616 -6.96741 0.346124 0
M  V30 5556 H 506.513 -6.4106 -0.755841 0
M  V30 5557 H 507.281 -8.17824 0.332521 0
M  V30 5558 N 509.944 0.496216 -1.49584 0
M  V30 5559 C 511.36 0.827814 -1.36453 0
M  V30 5560 C 511.56 1.97464 -0.401285 0
M  V30 5561 O 510.616 2.51958 0.165296 0
M  V30 5562 C 511.929 1.16352 -2.77277 0
M  V30 5563 C 513.477 1.27145 -2.86013 0
M  V30 5564 C 513.952 1.64042 -4.27615 0
M  V30 5565 N 515.443 1.71082 -4.30448 0
M  V30 5566 C 516.178 2.01085 -5.36984 0
M  V30 5567 N 515.674 2.2928 -6.5376 0
M  V30 5568 N 517.467 2.02376 -5.24405 0
M  V30 5569 H 509.618 -0.259947 -2.10803 0
M  V30 5570 H 511.881 -0.0537163 -0.946477 0
M  V30 5571 H 511.587 0.394153 -3.49484 0
M  V30 5572 H 511.461 2.10582 -3.12946 0
M  V30 5573 H 513.848 2.03152 -2.1404 0
M  V30 5574 H 513.929 0.309542 -2.5392 0
M  V30 5575 H 513.573 0.88583 -5.00115 0
M  V30 5576 H 513.503 2.6134 -4.57175 0
M  V30 5577 H 515.994 1.51434 -3.46232 0
M  V30 5578 H 516.307 2.51376 -7.30774 0
M  V30 5579 H 514.652 2.26726 -6.56978 0
M  V30 5580 H 517.843 1.79829 -4.32179 0
M  V30 5581 H 518.016 2.25425 -6.07526 0
M  V30 5582 N 511.423 1.38739 0.74761 0
M  V30 5583 C 512.37 1.36449 1.86146 0
M  V30 5584 C 513.34 0.226098 1.64554 0
M  V30 5585 O 514.525 0.41926 1.86137 0
M  V30 5586 C 511.665 1.2013 3.23516 0
M  V30 5587 C 510.778 2.43407 3.56899 0
M  V30 5588 C 509.913 2.19773 4.83605 0
M  V30 5589 C 508.952 3.3879 5.09792 0
M  V30 5590 N 508.089 3.14553 6.27695 0
M  V30 5591 H 512.929 2.3167 1.87438 0
M  V30 5592 H 510.466 1.15094 0.916063 0
M  V30 5593 H 512.424 1.08683 4.02795 0
M  V30 5594 H 511.054 0.285453 3.21535 0
M  V30 5595 H 510.106 2.65504 2.72418 0
M  V30 5596 H 511.418 3.32094 3.72176 0
M  V30 5597 H 510.572 2.05496 5.70838 0
M  V30 5598 H 509.311 1.28461 4.70478 0
M  V30 5599 H 508.316 3.53579 4.21025 0
M  V30 5600 H 509.541 4.30986 5.24812 0
M  V30 5601 H 507.487 2.25893 6.1588 0
M  V30 5602 H 507.404 3.96791 6.435 0
M  V30 5603 H 508.672 3.03943 7.17801 0
M  V30 5604 N 512.901 -0.976442 1.23707 0
M  V30 5605 C 513.851 -2.0544 0.988851 0
M  V30 5606 C 514.835 -1.60762 -0.0665901 0
M  V30 5607 O 516.027 -1.76396 0.14604 0
M  V30 5608 C 513.156 -3.38258 0.586223 0
M  V30 5609 C 512.242 -3.89523 1.67728 0
M  V30 5610 N 512.633 -4.13823 2.90834 0
M  V30 5611 C 510.931 -4.18097 1.55277 0
M  V30 5612 C 511.632 -4.55731 3.61502 0
M  V30 5613 N 510.608 -4.60394 2.8903 0
M  V30 5614 H 514.41 -2.22191 1.92376 0
M  V30 5615 H 511.924 -1.15954 1.13704 0
M  V30 5616 H 513.921 -4.15075 0.389658 0
M  V30 5617 H 512.581 -3.22898 -0.341594 0
M  V30 5618 H 513.592 -4.01529 3.271 0
M  V30 5619 H 510.269 -4.11719 0.692351 0
M  V30 5620 H 511.659 -4.83018 4.67059 0
M  V30 5621 N 514.379 -1.04941 -1.1758 0
M  V30 5622 C 515.309 -0.669172 -2.23706 0
M  V30 5623 C 516.29 0.331835 -1.66832 0
M  V30 5624 O 517.475 0.209988 -1.93061 0
M  V30 5625 C 514.605 -0.0404889 -3.47276 0
M  V30 5626 C 513.559 -0.965983 -4.16957 0
M  V30 5627 C 512.885 -0.201312 -5.34321 0
M  V30 5628 C 514.185 -2.28902 -4.69469 0
M  V30 5629 H 515.879 -1.55639 -2.55767 0
M  V30 5630 H 513.425 -0.749793 -1.22939 0
M  V30 5631 H 515.378 0.237298 -4.20731 0
M  V30 5632 H 514.102 0.881658 -3.14475 0
M  V30 5633 H 512.761 -1.22829 -3.45411 0
M  V30 5634 H 512.409 0.723519 -4.97769 0
M  V30 5635 H 512.109 -0.817968 -5.81879 0
M  V30 5636 H 513.633 0.0692499 -6.10561 0
M  V30 5637 H 515.047 -2.07132 -5.34574 0
M  V30 5638 H 513.444 -2.85942 -5.27596 0
M  V30 5639 H 514.514 -2.92937 -3.86414 0
M  V30 5640 N 515.857 1.33968 -0.830081 0
M  V30 5641 C 516.767 2.33164 -0.259207 0
M  V30 5642 C 517.783 1.62951 0.610164 0
M  V30 5643 O 518.959 1.94668 0.516369 0
M  V30 5644 C 516.024 3.42088 0.563598 0
M  V30 5645 C 515.085 4.28037 -0.329014 0
M  V30 5646 C 514.318 5.3176 0.454616 0
M  V30 5647 O 514.541 5.44876 1.6872 0
M  V30 5648 O 513.475 6.01669 -0.166794 0
M  V30 5649 H 517.301 2.83832 -1.08041 0
M  V30 5650 H 514.886 1.37154 -0.59239 0
M  V30 5651 H 516.768 4.08581 1.03147 0
M  V30 5652 H 515.443 2.93651 1.36201 0
M  V30 5653 H 514.35 3.64443 -0.844538 0
M  V30 5654 H 515.683 4.79934 -1.09196 0
M  V30 5655 N 517.335 0.585699 1.46312 0
M  V30 5656 C 518.581 0.0725284 2.0267 0
M  V30 5657 C 518.914 -1.28523 1.45586 0
M  V30 5658 O 518.189 -1.84283 0.622101 0
M  V30 5659 C 518.472 0.0099788 3.60099 0
M  V30 5660 C 518.325 1.39685 4.27561 0
M  V30 5661 C 519.644 -0.689117 4.34671 0
M  V30 5662 H 516.763 0.0278307 0.736474 0
M  V30 5663 H 519.405 0.753472 1.74421 0
M  V30 5664 H 517.555 -0.56992 3.84297 0
M  V30 5665 H 519.227 2.02215 4.14617 0
M  V30 5666 H 517.47 1.96374 3.86807 0
M  V30 5667 H 518.141 1.30553 5.36339 0
M  V30 5668 H 520.617 -0.196446 4.15636 0
M  V30 5669 H 519.493 -0.701921 5.44393 0
M  V30 5670 H 519.754 -1.75101 4.05946 0
M  V30 5671 N 518.813 -1.54241 0.323641 0
M  V30 5672 C 520.06 -2.0057 -0.27891 0
M  V30 5673 C 520.388 -1.21181 -1.52136 0
M  V30 5674 O 519.643 -0.282043 -1.93657 0
M  V30 5675 C 519.942 -3.5129 -0.658031 0
M  V30 5676 C 519.608 -4.48281 0.485252 0
M  V30 5677 C 518.27 -4.74519 0.799055 0
M  V30 5678 C 520.622 -5.05909 1.25322 0
M  V30 5679 C 517.95 -5.55643 1.88354 0
M  V30 5680 C 520.302 -5.88215 2.32779 0
M  V30 5681 C 518.966 -6.12755 2.64741 0
M  V30 5682 H 518.236 -0.733938 -0.10206 0
M  V30 5683 H 520.883 -1.862 0.447435 0
M  V30 5684 H 519.188 -3.63388 -1.4648 0
M  V30 5685 H 520.885 -3.84578 -1.1358 0
M  V30 5686 H 517.475 -4.27979 0.230593 0
M  V30 5687 H 521.659 -4.8562 1.02404 0
M  V30 5688 H 516.915 -5.72888 2.13564 0
M  V30 5689 H 521.089 -6.31888 2.92729 0
M  V30 5690 H 518.716 -6.75404 3.48904 0
M  V30 5691 N 520.291 -0.0518155 -1.57515 0
M  V30 5692 C 521.241 0.932017 -2.0808 0
M  V30 5693 C 522.225 1.27141 -0.986098 0
M  V30 5694 O 523.417 1.25373 -1.24943 0
M  V30 5695 C 520.546 2.20665 -2.62986 0
M  V30 5696 C 519.632 1.89462 -3.79427 0
M  V30 5697 N 520.023 1.28621 -4.89173 0
M  V30 5698 C 518.321 2.19327 -3.88345 0
M  V30 5699 C 519.022 1.15062 -5.70207 0
M  V30 5700 N 517.998 1.65372 -5.17835 0
M  V30 5701 H 521.8 0.456964 -2.90326 0
M  V30 5702 H 519.314 0.152619 -1.61681 0
M  V30 5703 H 521.311 2.92044 -2.97516 0
M  V30 5704 H 519.971 2.68776 -1.8218 0
M  V30 5705 H 520.982 0.958341 -5.08956 0
M  V30 5706 H 517.659 2.69955 -3.18482 0
M  V30 5707 H 519.049 0.678243 -6.68468 0
M  V30 5708 N 521.769 1.56035 0.221574 0
M  V30 5709 C 522.716 1.92413 1.27459 0
M  V30 5710 C 523.686 0.781323 1.46576 0
M  V30 5711 O 524.871 1.03721 1.60145 0
M  V30 5712 C 522.011 2.24617 2.61995 0
M  V30 5713 C 521.124 3.51831 2.50677 0
M  V30 5714 C 520.259 3.73482 3.77736 0
M  V30 5715 C 519.298 4.94211 3.6114 0
M  V30 5716 N 518.435 5.12252 4.80148 0
M  V30 5717 H 523.275 2.82203 0.957355 0
M  V30 5718 H 520.812 1.39676 0.461415 0
M  V30 5719 H 522.77 2.41298 3.40339 0
M  V30 5720 H 521.4 1.38 2.91815 0
M  V30 5721 H 520.452 3.43343 1.63767 0
M  V30 5722 H 521.764 4.40328 2.34334 0
M  V30 5723 H 520.918 3.9026 4.64523 0
M  V30 5724 H 519.657 2.83266 3.97003 0
M  V30 5725 H 518.662 4.77384 2.72736 0
M  V30 5726 H 519.887 5.85912 3.43343 0
M  V30 5727 H 517.833 4.24978 4.99729 0
M  V30 5728 H 517.75 5.94881 4.66532 0
M  V30 5729 H 519.018 5.33465 5.68362 0
M  V30 5730 N 523.247 -0.488276 1.49845 0
M  V30 5731 C 524.496 -1.23826 1.59217 0
M  V30 5732 C 524.809 -1.93439 0.289966 0
M  V30 5733 O 526.015 -2.70229 0.262382 0
M  V30 5734 C 524.471 -2.24902 2.80976 0
M  V30 5735 C 524.079 -1.6117 4.18005 0
M  V30 5736 C 525.823 -3.00648 2.99685 0
M  V30 5737 C 523.73 -2.60431 5.3097 0
M  V30 5738 H 522.66 -0.465858 0.592868 0
M  V30 5739 H 525.311 -0.510645 1.76252 0
M  V30 5740 H 523.693 -3.0088 2.57463 0
M  V30 5741 H 524.867 -0.910968 4.51706 0
M  V30 5742 H 523.182 -0.97767 4.0476 0
M  V30 5743 H 525.779 -3.74903 3.81251 0
M  V30 5744 H 526.122 -3.5902 2.10738 0
M  V30 5745 H 526.655 -2.31784 3.23297 0
M  V30 5746 H 523.394 -2.06823 6.22017 0
M  V30 5747 H 522.914 -3.28707 5.01709 0
M  V30 5748 H 524.593 -3.22606 5.60834 0
M  V30 5749 N 524.725 -1.39134 -0.740242 0
M  V30 5750 C 525.655 -1.40165 -1.86751 0
M  V30 5751 C 526.636 -0.265708 -1.68012 0
M  V30 5752 O 527.821 -0.47076 -1.88408 0
M  V30 5753 C 524.951 -1.2392 -3.2444 0
M  V30 5754 C 523.905 -2.34858 -3.57807 0
M  V30 5755 C 523.231 -2.03707 -4.94376 0
M  V30 5756 C 524.531 -3.77159 -3.61315 0
M  V30 5757 H 526.225 -2.345 -1.86145 0
M  V30 5758 H 523.771 -1.12875 -0.89416 0
M  V30 5759 H 525.724 -1.23263 -4.02969 0
M  V30 5760 H 524.448 -0.26051 -3.25559 0
M  V30 5761 H 523.107 -2.34723 -2.81604 0
M  V30 5762 H 522.755 -1.04289 -4.9207 0
M  V30 5763 H 522.455 -2.78016 -5.17669 0
M  V30 5764 H 523.979 -2.04691 -5.75268 0
M  V30 5765 H 525.393 -3.79252 -4.29931 0
M  V30 5766 H 523.79 -4.50784 -3.96124 0
M  V30 5767 H 524.86 -4.08513 -2.61238 0
M  V30 5768 N 526.204 0.969867 -1.24223 0
M  V30 5769 C 527.432 1.74756 -1.10761 0
M  V30 5770 C 527.847 1.85713 0.340041 0
M  V30 5771 O 527.204 1.34389 1.23474 0
M  V30 5772 C 527.255 3.16915 -1.73917 0
M  V30 5773 O 526.976 3.06511 -3.13021 0
M  V30 5774 C 528.477 4.11032 -1.66036 0
M  V30 5775 H 525.697 0.548092 -0.387087 0
M  V30 5776 H 528.241 1.2178 -1.64286 0
M  V30 5777 H 526.396 3.66884 -1.244 0
M  V30 5778 H 526.81 3.96079 -3.43834 0
M  V30 5779 H 528.284 5.08446 -2.14911 0
M  V30 5780 H 528.761 4.34785 -0.621159 0
M  V30 5781 H 529.367 3.66972 -2.14969 0
M  V30 5782 N 527.682 1.05563 1.17022 0
M  V30 5783 C 528.63 0.653887 2.2322 0
M  V30 5784 C 529.624 -0.326642 1.66221 0
M  V30 5785 O 530.83 -0.192301 1.7897 0
M  V30 5786 H 527.205 0.193297 0.726733 0
M  V30 5787 H 529.176 1.5596 2.54399 0
M  V30 5788 C 527.925 0.0485434 3.47666 0
M  V30 5789 H 527.248 0.79413 3.91834 0
M  V30 5790 H 528.688 -0.195133 4.23551 0
M  V30 5791 C 527.147 -1.20583 3.14581 0
M  V30 5792 O 527.677 -2.29475 3.29703 0
M  V30 5793 N 525.883 -1.10493 2.68774 0
M  V30 5794 H 525.43 -0.218795 2.56669 0
M  V30 5795 H 525.388 -1.94507 2.47011 0
M  V30 5796 N 529.16 -1.33526 0.837174 0
M  V30 5797 C 530.388 -2.02047 0.445494 0
M  V30 5798 C 530.803 -1.62995 -0.952788 0
M  V30 5799 O 530.16 -0.842447 -1.61892 0
M  V30 5800 C 530.211 -3.57221 0.554577 0
M  V30 5801 O 529.932 -3.94863 1.89776 0
M  V30 5802 C 531.433 -4.43012 0.159634 0
M  V30 5803 H 528.653 -0.647221 0.177048 0
M  V30 5804 H 531.197 -1.70492 1.12928 0
M  V30 5805 H 529.352 -3.87315 -0.0812781 0
M  V30 5806 H 529.766 -4.89569 1.88208 0
M  V30 5807 H 531.24 -5.51253 0.28701 0
M  V30 5808 H 531.717 -4.29916 -0.898289 0
M  V30 5809 H 532.323 -4.18274 0.769855 0
M  V30 5810 N 530.638 -0.59345 -1.46 0
M  V30 5811 C 531.915 -0.0157933 -1.95594 0
M  V30 5812 C 532.295 1.44807 -1.53604 0
M  V30 5813 O 531.643 2.14342 -0.791824 0
M  V30 5814 C 531.853 -0.199081 -3.48432 0
M  V30 5815 C 533.201 -0.0724943 -4.24538 0
M  V30 5816 O 534.225 -0.128469 -3.55968 0
M  V30 5817 O 533.084 0.0542426 -5.46473 0
M  V30 5818 H 530.178 0.043749 -0.825842 0
M  V30 5819 H 532.724 -0.662522 -1.56233 0
M  V30 5820 H 531.496 -1.21631 -3.71916 0
M  V30 5821 H 531.119 0.483576 -3.94648 0
M  V30 5822 N 532.116 1.54067 -0.331816 0
M  V30 5823 C 533.527 1.86059 0.15454 0
M  V30 5824 C 533.878 1.25331 1.50952 0
M  V30 5825 O 533.003 0.562441 2.08963 0
M  V30 5826 C 533.598 3.37581 0.287192 0
M  V30 5827 C 532.157 3.69493 0.717773 0
M  V30 5828 C 531.304 2.76863 -0.155569 0
M  V30 5829 H 534.255 1.48797 -0.55182 0
M  V30 5830 H 534.276 3.63744 1.11671 0
M  V30 5831 H 533.788 3.81751 -0.699131 0
M  V30 5832 H 531.889 3.3086 1.71354 0
M  V30 5833 H 532.002 4.76315 0.5158 0
M  V30 5834 H 530.366 2.51995 0.370213 0
M  V30 5835 H 531.149 3.23861 -1.13881 0
M  V30 5836 N 533.594 0.0601682 1.57485 0
M  V30 5837 C 534.542 -0.928899 2.13247 0
M  V30 5838 C 535.536 -1.31616 1.06647 0
M  V30 5839 O 536.742 -1.29476 1.25043 0
M  V30 5840 H 533.117 -0.317455 0.681708 0
M  V30 5841 H 535.088 -0.433566 2.95233 0
M  V30 5842 C 533.837 -2.19121 2.69965 0
M  V30 5843 H 533.16 -1.90204 3.51657 0
M  V30 5844 H 534.6 -2.86465 3.12592 0
M  V30 5845 C 533.059 -2.94195 1.64168 0
M  V30 5846 O 533.589 -3.87468 1.05978 0
M  V30 5847 N 531.795 -2.57089 1.35476 0
M  V30 5848 H 531.342 -1.81314 1.82984 0
M  V30 5849 H 531.3 -3.07624 0.649196 0
M  V30 5850 N 535.072 -1.5615 -0.213296 0
M  V30 5851 C 536.349 -1.70349 -0.961281 0
M  V30 5852 C 536.729 -0.609791 -2.02101 0
M  V30 5853 O 536.077 0.381987 -2.25285 0
M  V30 5854 C 536.287 -3.11982 -1.56424 0
M  V30 5855 C 537.635 -3.71649 -2.05334 0
M  V30 5856 O 538.659 -3.14995 -1.66302 0
M  V30 5857 O 537.518 -4.71038 -2.77102 0
M  V30 5858 H 534.612 -0.694121 -0.449582 0
M  V30 5859 H 537.158 -1.68464 -0.204426 0
M  V30 5860 H 535.93 -3.83046 -0.799457 0
M  V30 5861 H 535.553 -3.18019 -2.38641 0
M  V30 5862 N 536.55 0.480323 -1.50102 0
M  V30 5863 C 537.46 1.60547 -1.71061 0
M  V30 5864 C 538.476 1.63564 -0.593529 0
M  V30 5865 O 539.652 1.81604 -0.870751 0
M  V30 5866 C 536.717 2.96814 -1.79171 0
M  V30 5867 C 535.778 3.04259 -3.02861 0
M  V30 5868 C 535.011 4.34027 -3.10574 0
M  V30 5869 O 535.234 5.24009 -2.25323 0
M  V30 5870 O 534.168 4.46873 -4.03223 0
M  V30 5871 H 537.994 1.45788 -2.6642 0
M  V30 5872 H 535.579 0.658838 -1.34088 0
M  V30 5873 H 537.461 3.77765 -1.86738 0
M  V30 5874 H 536.136 3.11791 -0.869947 0
M  V30 5875 H 535.043 2.22419 -3.008 0
M  V30 5876 H 536.376 2.94216 -3.94586 0
M  V30 5877 N 538.028 1.39524 0.732853 0
M  V30 5878 C 539.274 1.37068 1.49467 0
M  V30 5879 C 539.607 -0.0327166 1.94172 0
M  V30 5880 O 538.882 -0.998071 1.66939 0
M  V30 5881 C 539.165 2.34494 2.73285 0
M  V30 5882 C 539.018 3.83784 2.34585 0
M  V30 5883 C 540.337 2.29717 3.75391 0
M  V30 5884 H 537.456 0.499206 0.542183 0
M  V30 5885 H 540.098 1.70532 0.837783 0
M  V30 5886 H 538.248 2.06087 3.29333 0
M  V30 5887 H 539.92 4.22949 1.84151 0
M  V30 5888 H 538.163 4.00455 1.66787 0
M  V30 5889 H 538.834 4.47444 3.23262 0
M  V30 5890 H 541.31 2.54839 3.28932 0
M  V30 5891 H 540.186 2.99962 4.59689 0
M  V30 5892 H 540.447 1.30291 4.22465 0
M  V30 5893 N 539.506 -0.963266 1.24736 0
M  V30 5894 C 540.416 -2.09246 1.06082 0
M  V30 5895 C 541.432 -1.74 0.000363101 0
M  V30 5896 O 542.608 -2.0041 0.199479 0
M  V30 5897 C 539.673 -3.40115 0.672498 0
M  V30 5898 C 538.734 -3.89282 1.80993 0
M  V30 5899 C 537.967 -5.13905 1.44004 0
M  V30 5900 O 538.19 -5.69434 0.331835 0
M  V30 5901 O 537.124 -5.57566 2.26723 0
M  V30 5902 H 540.95 -2.27881 2.00759 0
M  V30 5903 H 538.535 -1.07649 1.03595 0
M  V30 5904 H 540.417 -4.18797 0.467668 0
M  V30 5905 H 539.092 -3.22771 -0.245102 0
M  V30 5906 H 537.999 -3.11642 2.06955 0
M  V30 5907 H 539.332 -4.1111 2.70646 0
M  V30 5908 N 540.985 -1.06182 -1.16461 0
M  V30 5909 C 542.401 -0.785065 -1.38956 0
M  V30 5910 C 542.601 0.616103 -1.9185 0
M  V30 5911 O 541.657 1.37686 -2.11657 0
M  V30 5912 C 542.97 -1.84902 -2.37132 0
M  V30 5913 C 544.518 -1.8724 -2.50819 0
M  V30 5914 C 544.993 -2.92686 -3.52277 0
M  V30 5915 N 546.484 -2.91712 -3.59803 0
M  V30 5916 C 547.219 -3.69949 -4.38093 0
M  V30 5917 N 546.715 -4.58 -5.19815 0
M  V30 5918 N 548.508 -3.58346 -4.33064 0
M  V30 5919 H 540.659 -1.96569 -0.804634 0
M  V30 5920 H 542.922 -0.851747 -0.416211 0
M  V30 5921 H 542.628 -2.85518 -2.0536 0
M  V30 5922 H 542.502 -1.69908 -3.36766 0
M  V30 5923 H 544.889 -0.872827 -2.81897 0
M  V30 5924 H 544.97 -2.06311 -1.51226 0
M  V30 5925 H 544.614 -3.92835 -3.21937 0
M  V30 5926 H 544.544 -2.70864 -4.51598 0
M  V30 5927 H 547.035 -2.27876 -3.01464 0
M  V30 5928 H 547.348 -5.14357 -5.76764 0
M  V30 5929 H 545.693 -4.62056 -5.19162 0
M  V30 5930 H 548.884 -2.88943 -3.68279 0
M  V30 5931 H 549.057 -4.19563 -4.93833 0
M  V30 5932 N 542.463 1.3308 -0.844243 0
M  V30 5933 C 543.879 1.50447 -0.532729 0
M  V30 5934 C 544.079 1.78292 0.938837 0
M  V30 5935 O 543.135 1.84635 1.72239 0
M  V30 5936 C 544.448 2.65555 -1.41072 0
M  V30 5937 C 545.996 2.7944 -1.41005 0
M  V30 5938 C 546.471 3.97616 -2.27301 0
M  V30 5939 N 547.962 4.0486 -2.2504 0
M  V30 5940 C 548.697 4.95508 -2.88547 0
M  V30 5941 N 548.193 5.91236 -3.61126 0
M  V30 5942 N 549.986 4.88548 -2.77989 0
M  V30 5943 H 542.137 1.13269 -1.79677 0
M  V30 5944 H 544.4 0.55734 -0.766861 0
M  V30 5945 H 544.106 2.51675 -2.45668 0
M  V30 5946 H 543.98 3.61089 -1.09061 0
M  V30 5947 H 546.367 2.92749 -0.371784 0
M  V30 5948 H 546.448 1.8465 -1.77026 0
M  V30 5949 H 546.092 3.85066 -3.3119 0
M  V30 5950 H 546.022 4.91661 -1.88619 0
M  V30 5951 H 548.513 3.36353 -1.72264 0
M  V30 5952 H 548.826 6.57079 -4.06776 0
M  V30 5953 H 547.171 5.91295 -3.65234 0
M  V30 5954 H 550.362 4.12729 -2.20846 0
M  V30 5955 H 550.535 5.58994 -3.27765 0
M  V30 5956 N 543.941 0.601185 1.45683 0
M  V30 5957 C 544.889 -0.133955 2.32214 0
M  V30 5958 C 545.883 -0.866034 1.45589 0
M  V30 5959 O 547.089 -0.782326 1.6211 0
M  V30 5960 H 543.464 -0.0620613 0.749435 0
M  V30 5961 H 545.435 0.614389 2.92007 0
M  V30 5962 C 544.184 -1.12216 3.29094 0
M  V30 5963 H 543.507 -0.568273 3.95741 0
M  V30 5964 H 544.947 -1.60659 3.92383 0
M  V30 5965 C 543.406 -2.19251 2.55794 0
M  V30 5966 O 543.936 -3.26894 2.33459 0
M  V30 5967 N 542.142 -1.9436 2.16039 0
M  V30 5968 H 541.689 -1.06829 2.34404 0
M  V30 5969 H 541.647 -2.66181 1.67318 0
M  V30 5970 N 545.419 -1.53889 0.339982 0
M  V30 5971 C 546.382 -2.23547 -0.50592 0
M  V30 5972 C 547.382 -1.23445 -1.03044 0
M  V30 5973 O 548.572 -1.47909 -0.920253 0
M  V30 5974 C 545.704 -2.95234 -1.7044 0
M  V30 5975 H 546.897 -2.99722 0.103247 0
M  V30 5976 H 544.45 -1.56033 0.0912804 0
M  V30 5977 H 545.185 -2.23236 -2.35236 0
M  V30 5978 H 544.97 -3.68654 -1.33553 0
M  V30 5979 H 546.46 -3.48258 -2.30447 0
M  V30 5980 N 546.897 -0.0685191 -1.57451 0
M  V30 5981 C 548.174 0.642167 -1.84758 0
M  V30 5982 C 548.554 1.87991 -0.960344 0
M  V30 5983 O 547.902 2.28485 -0.0257894 0
M  V30 5984 C 548.112 0.982946 -3.34872 0
M  V30 5985 C 549.46 1.35784 -4.02303 0
M  V30 5986 O 550.484 1.07477 -3.39598 0
M  V30 5987 O 549.343 1.88681 -5.12895 0
M  V30 5988 H 546.437 0.318625 -0.763156 0
M  V30 5989 H 548.983 -0.0992015 -1.6941 0
M  V30 5990 H 547.755 0.10372 -3.91163 0
M  V30 5991 H 547.378 1.78119 -3.55471 0
M  V30 5992 N 548.375 1.56261 0.205012 0
M  V30 5993 C 549.323 1.94631 1.27364 0
M  V30 5994 C 550.317 0.830434 1.47649 0
M  V30 5995 O 551.523 1.01538 1.48627 0
M  V30 5996 H 547.898 0.618755 0.427371 0
M  V30 5997 H 549.869 2.83768 0.922941 0
M  V30 5998 C 548.618 2.29358 2.61324 0
M  V30 5999 H 547.941 3.14744 2.46528 0
M  V30 6000 H 549.381 2.60076 3.34868 0
M  V30 6001 C 547.84 1.12461 3.17575 0
M  V30 6002 O 548.37 0.394407 3.99759 0
M  V30 6003 N 546.576 0.904036 2.7618 0
M  V30 6004 H 546.123 1.49956 2.09454 0
M  V30 6005 H 546.081 0.123662 3.14157 0
M  V30 6006 N 549.853 -0.472356 1.50355 0
M  V30 6007 C 550.8 -1.57051 1.69126 0
M  V30 6008 C 551.77 -1.5733 0.532574 0
M  V30 6009 O 552.955 -1.7488 0.762994 0
M  V30 6010 C 550.095 -2.95033 1.79024 0
M  V30 6011 C 549.208 -3.04552 3.06386 0
M  V30 6012 C 548.343 -4.33441 3.07087 0
M  V30 6013 C 547.382 -4.36697 4.28908 0
M  V30 6014 N 546.519 -5.57056 4.27356 0
M  V30 6015 H 551.359 -1.40351 2.62879 0
M  V30 6016 H 548.896 -0.682403 1.30314 0
M  V30 6017 H 550.854 -3.75048 1.82744 0
M  V30 6018 H 549.484 -3.10371 0.887109 0
M  V30 6019 H 548.536 -2.17419 3.12143 0
M  V30 6020 H 549.848 -3.02818 3.96362 0
M  V30 6021 H 549.002 -5.21801 3.09529 0
M  V30 6022 H 547.741 -4.37782 2.14939 0
M  V30 6023 H 546.746 -3.46734 4.2668 0
M  V30 6024 H 547.971 -4.34049 5.22282 0
M  V30 6025 H 545.917 -5.62184 3.3806 0
M  V30 6026 H 545.834 -5.57058 5.111 0
M  V30 6027 H 547.102 -6.47545 4.33942 0
M  V30 6028 N 551.331 -1.39911 -0.725443 0
M  V30 6029 C 552.241 -1.41688 -1.8698 0
M  V30 6030 C 553.257 -0.310579 -1.71206 0
M  V30 6031 O 554.433 -0.55359 -1.93642 0
M  V30 6032 C 551.498 -1.26811 -3.22676 0
M  V30 6033 C 550.559 -2.47497 -3.50776 0
M  V30 6034 C 549.792 -2.3332 -4.79997 0
M  V30 6035 O 550.015 -1.34175 -5.54394 0
M  V30 6036 O 548.949 -3.22498 -5.08211 0
M  V30 6037 H 552.775 -2.38171 -1.88436 0
M  V30 6038 H 550.36 -1.21128 -0.874548 0
M  V30 6039 H 552.242 -1.20684 -4.03749 0
M  V30 6040 H 550.917 -0.334289 -3.21969 0
M  V30 6041 H 549.824 -2.59201 -2.69751 0
M  V30 6042 H 551.157 -3.39606 -3.5627 0
M  V30 6043 N 552.809 0.956637 -1.25245 0
M  V30 6044 C 554.086 1.67716 -1.00651 0
M  V30 6045 C 554.466 2.0585 0.467866 0
M  V30 6046 O 553.814 1.77029 1.44475 0
M  V30 6047 C 554.024 2.90093 -1.94028 0
M  V30 6048 C 555.372 3.6209 -2.21756 0
M  V30 6049 O 556.396 3.00171 -1.9177 0
M  V30 6050 O 555.255 4.7358 -2.72735 0
M  V30 6051 H 552.349 0.733731 -0.381533 0
M  V30 6052 H 554.895 1.00974 -1.3639 0
M  V30 6053 H 553.667 2.58689 -2.93591 0
M  V30 6054 H 553.29 3.64566 -1.58674 0
M  V30 6055 N 554.287 1.06798 1.15896 0
M  V30 6056 C 555.217 0.704677 2.22613 0
M  V30 6057 C 556.198 -0.305252 1.67339 0
M  V30 6058 O 557.383 -0.179247 1.93371 0
M  V30 6059 C 554.513 0.0957325 3.47168 0
M  V30 6060 C 553.467 1.0322 4.15367 0
M  V30 6061 C 552.793 0.286293 5.33933 0
M  V30 6062 C 554.093 2.36341 4.65768 0
M  V30 6063 H 555.787 1.59688 2.53259 0
M  V30 6064 H 553.333 0.769257 1.21731 0
M  V30 6065 H 555.286 -0.170333 4.21056 0
M  V30 6066 H 554.01 -0.831516 3.15838 0
M  V30 6067 H 552.669 1.28309 3.43413 0
M  V30 6068 H 552.317 -0.644237 4.98857 0
M  V30 6069 H 552.017 0.910436 5.80504 0
M  V30 6070 H 553.541 0.0278938 6.10594 0
M  V30 6071 H 554.955 2.1561 5.31211 0
M  V30 6072 H 553.352 2.94299 5.2298 0
M  V30 6073 H 554.422 2.99047 3.81705 0
M  V30 6074 N 555.766 -1.3263 0.851289 0
M  V30 6075 C 556.994 -2.01563 0.466899 0
M  V30 6076 C 557.409 -1.63996 -0.935447 0
M  V30 6077 O 556.766 -0.85957 -1.6099 0
M  V30 6078 C 556.817 -3.56613 0.592433 0
M  V30 6079 O 556.538 -3.92828 1.93954 0
M  V30 6080 C 558.039 -4.42818 0.206612 0
M  V30 6081 H 555.259 -0.645307 0.183902 0
M  V30 6082 H 557.803 -1.69285 1.1473 0
M  V30 6083 H 555.958 -3.87379 -0.0401936 0
M  V30 6084 H 556.372 -4.87545 1.9339 0
M  V30 6085 H 557.846 -5.50918 0.345462 0
M  V30 6086 H 558.323 -4.30844 -0.85264 0
M  V30 6087 H 558.929 -4.17434 0.814176 0
M  V30 6088 N 557.244 -0.608902 -1.45362 0
M  V30 6089 C 558.469 -0.10921 -2.07112 0
M  V30 6090 C 558.894 1.19779 -1.45033 0
M  V30 6091 O 558.252 1.72961 -0.543527 0
M  V30 6092 C 558.3 0.0155745 -3.60597 0
M  V30 6093 O 557.404 1.06546 -3.98399 0
M  V30 6094 H 556.745 -0.0746619 -0.659789 0
M  V30 6095 H 559.275 -0.839283 -1.86594 0
M  V30 6096 H 559.285 0.213364 -4.07442 0
M  V30 6097 H 557.96 -0.938765 -4.05167 0
M  V30 6098 H 556.537 0.844024 -3.63223 0
M  V30 6099 N 558.722 1.53707 -0.348139 0
M  V30 6100 C 559.685 2.23812 0.494058 0
M  V30 6101 C 560.685 1.23989 1.02388 0
M  V30 6102 O 561.875 1.48395 0.912396 0
M  V30 6103 C 559.007 2.96133 1.68872 0
M  V30 6104 H 560.2 2.99663 -0.119141 0
M  V30 6105 H 557.753 1.55983 -0.0995539 0
M  V30 6106 H 558.488 2.24481 2.34049 0
M  V30 6107 H 558.273 3.69357 1.31596 0
M  V30 6108 H 559.763 3.49475 2.28597 0
M  V30 6109 N 560.2 0.0768682 1.57412 0
M  V30 6110 C 561.477 -0.632359 1.85096 0
M  V30 6111 C 561.857 -1.87479 0.9703 0
M  V30 6112 O 561.205 -2.28469 0.0379062 0
M  V30 6113 C 561.415 -0.965174 3.35388 0
M  V30 6114 C 562.763 -1.33648 4.03018 0
M  V30 6115 O 563.787 -1.05675 3.40164 0
M  V30 6116 O 562.646 -1.85959 5.13889 0
M  V30 6117 H 559.74 -0.314574 0.764835 0
M  V30 6118 H 562.286 0.108184 1.69355 0
M  V30 6119 H 561.058 -0.0829745 3.91212 0
M  V30 6120 H 560.681 -1.76231 3.5641 0
M  V30 6121 N 561.678 -1.56367 -0.196722 0
M  V30 6122 C 563.089 -1.70462 -0.761545 0
M  V30 6123 C 563.44 -0.683161 -1.83922 0
M  V30 6124 O 562.565 0.160753 -2.15802 0
M  V30 6125 C 563.16 -3.09057 -1.38814 0
M  V30 6126 C 561.719 -3.24922 -1.90007 0
M  V30 6127 C 560.866 -2.66412 -0.769399 0
M  V30 6128 H 563.817 -1.58675 0.0283263 0
M  V30 6129 H 563.838 -3.06296 -2.2575 0
M  V30 6130 H 563.35 -3.83378 -0.603559 0
M  V30 6131 H 561.451 -2.55514 -2.71189 0
M  V30 6132 H 561.564 -4.3241 -2.06297 0
M  V30 6133 H 559.928 -2.25546 -1.18326 0
M  V30 6134 H 560.711 -3.433 0.00291773 0
M  V30 6135 N 563.156 0.464375 -1.50603 0
M  V30 6136 C 564.066 1.58723 -1.72754 0
M  V30 6137 C 565.082 1.62925 -0.610844 0
M  V30 6138 O 566.258 1.8067 -0.889963 0
M  V30 6139 C 563.323 2.94897 -1.82309 0
M  V30 6140 C 562.384 3.0103 -3.06071 0
M  V30 6141 C 561.617 4.30708 -3.1516 0
M  V30 6142 O 561.84 5.2159 -2.30868 0
M  V30 6143 O 560.774 4.42571 -4.0794 0
M  V30 6144 H 564.6 1.42954 -2.67951 0
M  V30 6145 H 562.185 0.644579 -1.3478 0
M  V30 6146 H 564.067 3.75764 -1.90735 0
M  V30 6147 H 562.742 3.10851 -0.902967 0
M  V30 6148 H 561.649 2.19217 -3.03142 0
M  V30 6149 H 562.982 2.90014 -3.97684 0
M  V30 6150 N 564.634 1.40294 0.718013 0
M  V30 6151 C 565.882 1.38167 1.47494 0
M  V30 6152 C 566.203 -0.01607 1.94993 0
M  V30 6153 O 565.473 -0.970396 1.70177 0
M  V30 6154 H 564.053 0.508505 0.547203 0
M  V30 6155 H 566.715 1.75324 0.851322 0
M  V30 6156 H 565.811 2.05503 2.34894 0
M  V30 6157 N 566.112 -0.949982 1.2575 0
M  V30 6158 C 567.044 -2.05088 1.02331 0
M  V30 6159 C 568.057 -1.62795 -0.0133247 0
M  V30 6160 O 569.246 -1.77067 0.225759 0
M  V30 6161 C 566.346 -3.34794 0.525924 0
M  V30 6162 C 565.519 -4.05903 1.62978 0
M  V30 6163 C 564.578 -5.1388 1.13196 0
M  V30 6164 O 563.604 -5.39072 1.82729 0
M  V30 6165 N 564.806 -5.80495 -0.0242926 0
M  V30 6166 H 567.571 -2.25747 1.97125 0
M  V30 6167 H 565.132 -1.11886 1.17018 0
M  V30 6168 H 567.124 -4.04312 0.177263 0
M  V30 6169 H 565.694 -3.10872 -0.328202 0
M  V30 6170 H 564.914 -3.3042 2.1498 0
M  V30 6171 H 566.202 -4.50166 2.37124 0
M  V30 6172 H 565.6 -5.62454 -0.605184 0
M  V30 6173 H 564.157 -6.51043 -0.313947 0
M  V30 6174 N 567.59 -1.07411 -1.15328 0
M  V30 6175 C 568.839 -0.792643 -1.85473 0
M  V30 6176 C 569.152 0.683789 -1.83259 0
M  V30 6177 O 570.358 1.08005 -2.49093 0
M  V30 6178 C 568.814 -1.36787 -3.32892 0
M  V30 6179 C 568.422 -2.87536 -3.43551 0
M  V30 6180 C 570.166 -1.16444 -4.08217 0
M  V30 6181 C 568.073 -3.38247 -4.85122 0
M  V30 6182 H 567.003 -0.292838 -0.694811 0
M  V30 6183 H 569.654 -1.29426 -1.30082 0
M  V30 6184 H 568.036 -0.793993 -3.87958 0
M  V30 6185 H 569.21 -3.50973 -2.98588 0
M  V30 6186 H 567.525 -3.06676 -2.81672 0
M  V30 6187 H 570.122 -1.51808 -5.12697 0
M  V30 6188 H 570.465 -0.10353 -4.16171 0
M  V30 6189 H 570.998 -1.70472 -3.59422 0
M  V30 6190 H 567.737 -4.43866 -4.82351 0
M  V30 6191 H 567.257 -2.79564 -5.30664 0
M  V30 6192 H 568.936 -3.34238 -5.5398 0
M  V30 6193 N 569.068 1.32177 -0.85831 0
M  V30 6194 C 570.001 2.26823 -0.25035 0
M  V30 6195 C 570.979 1.50571 0.61378 0
M  V30 6196 O 572.163 1.79682 0.569777 0
M  V30 6197 C 569.29 3.32472 0.646556 0
M  V30 6198 C 568.336 4.26255 -0.144675 0
M  V30 6199 S 569.169 5.13608 -1.5155 0
M  V30 6200 C 570.325 6.22778 -0.624408 0
M  V30 6201 H 570.558 2.7804 -1.05267 0
M  V30 6202 H 568.091 1.39764 -0.656152 0
M  V30 6203 H 570.049 3.93817 1.15837 0
M  V30 6204 H 568.71 2.80031 1.42272 0
M  V30 6205 H 567.903 5.01114 0.538613 0
M  V30 6206 H 567.505 3.69346 -0.588198 0
M  V30 6207 H 569.797 6.77287 0.169846 0
M  V30 6208 H 570.74 6.95233 -1.34376 0
M  V30 6209 H 571.148 5.64156 -0.197128 0
M  V30 6210 N 570.547 0.616602 1.45037 0
M  V30 6211 C 571.963 0.280994 1.57107 0
M  V30 6212 C 572.163 -1.21627 1.60653 0
M  V30 6213 O 571.219 -1.9997 1.54169 0
M  V30 6214 C 572.532 0.960116 2.8496 0
M  V30 6215 C 574.08 0.936884 2.98649 0
M  V30 6216 C 574.555 1.59619 4.29285 0
M  V30 6217 N 576.046 1.5621 4.36065 0
M  V30 6218 C 576.781 2.04131 5.35834 0
M  V30 6219 N 576.277 2.60177 6.4209 0
M  V30 6220 N 578.07 1.94845 5.27249 0
M  V30 6221 H 570.221 1.58867 1.40979 0
M  V30 6222 H 572.484 0.666024 0.674623 0
M  V30 6223 H 572.19 2.01473 2.88273 0
M  V30 6224 H 572.064 0.488921 3.74018 0
M  V30 6225 H 574.451 -0.109209 2.94898 0
M  V30 6226 H 574.532 1.44643 2.10979 0
M  V30 6227 H 574.176 2.64166 4.33796 0
M  V30 6228 H 574.106 1.06159 5.15789 0
M  V30 6229 H 576.597 1.15276 3.59889 0
M  V30 6230 H 576.91 2.94513 7.1448 0
M  V30 6231 H 575.255 2.64221 6.42816 0
M  V30 6232 H 578.446 1.50792 4.43147 0
M  V30 6233 H 578.619 2.32504 6.04852 0
M  V30 6234 N 572.025 -1.5352 0.356285 0
M  V30 6235 C 572.935 -2.29151 -0.502712 0
M  V30 6236 C 573.951 -1.34753 -1.1008 0
M  V30 6237 O 575.127 -1.67803 -1.11374 0
M  V30 6238 C 572.192 -3.05911 -1.63154 0
M  V30 6239 C 571.253 -4.15958 -1.06194 0
M  V30 6240 C 570.486 -4.8905 -2.13696 0
M  V30 6241 O 570.709 -4.61919 -3.34645 0
M  V30 6242 O 569.643 -5.75202 -1.77275 0
M  V30 6243 H 573.469 -3.03492 0.112466 0
M  V30 6244 H 571.054 -1.4891 0.120942 0
M  V30 6245 H 572.936 -3.53874 -2.28804 0
M  V30 6246 H 571.611 -2.34415 -2.23229 0
M  V30 6247 H 570.518 -3.7227 -0.369603 0
M  V30 6248 H 571.851 -4.89593 -0.505872 0
M  V30 6249 N 573.503 -0.0852151 -1.57369 0
M  V30 6250 C 574.733 0.588605 -1.98038 0
M  V30 6251 C 575.141 1.62869 -0.962817 0
M  V30 6252 O 574.484 1.83611 0.057134 0
M  V30 6253 C 574.546 1.30303 -3.35054 0
M  V30 6254 C 574.21 0.414855 -4.55113 0
M  V30 6255 C 575.207 -0.333011 -5.18832 0
M  V30 6256 C 572.892 0.335804 -5.01176 0
M  V30 6257 C 574.886 -1.14801 -6.26976 0
M  V30 6258 C 572.573 -0.482857 -6.09189 0
M  V30 6259 C 573.571 -1.22342 -6.71953 0
M  V30 6260 O 573.259 -2.02855 -7.77885 0
M  V30 6261 H 572.991 0.163249 -0.655992 0
M  V30 6262 H 575.545 -0.1582 -2.0479 0
M  V30 6263 H 573.775 2.0962 -3.24956 0
M  V30 6264 H 575.464 1.87041 -3.60237 0
M  V30 6265 H 576.23 -0.281611 -4.84182 0
M  V30 6266 H 572.109 0.901869 -4.52092 0
M  V30 6267 H 575.653 -1.72654 -6.75897 0
M  V30 6268 H 571.55 -0.535773 -6.43273 0
M  V30 6269 H 572.318 -1.95432 -7.94826 0
M  V30 6270 N 574.981 1.5647 0.188427 0
M  V30 6271 C 575.944 1.9421 1.21718 0
M  V30 6272 C 576.944 0.823901 1.38089 0
M  V30 6273 O 578.134 1.09122 1.35787 0
M  V30 6274 C 575.266 2.22197 2.58537 0
M  V30 6275 H 576.459 2.86252 0.894418 0
M  V30 6276 H 574.012 1.50263 0.430211 0
M  V30 6277 H 574.747 1.32814 2.95856 0
M  V30 6278 H 574.532 3.03688 2.48025 0
M  V30 6279 H 576.022 2.52376 3.3271 0
M  V30 6280 N 576.459 -0.456382 1.50847 0
M  V30 6281 C 577.422 -1.53493 1.70213 0
M  V30 6282 C 578.422 -1.50264 0.572481 0
M  V30 6283 O 579.612 -1.52623 0.839751 0
M  V30 6284 C 576.744 -2.93091 1.741 0
M  V30 6285 H 577.937 -1.37633 2.66453 0
M  V30 6286 H 575.49 -0.683776 1.4055 0
M  V30 6287 H 576.225 -3.14378 0.796063 0
M  V30 6288 H 576.01 -2.9684 2.5618 0
M  V30 6289 H 577.5 -3.71368 1.90987 0
M  V30 6290 N 577.937 -1.40673 -0.710563 0
M  V30 6291 C 579.214 -1.29718 -1.46398 0
M  V30 6292 C 579.594 0.082177 -2.1094 0
M  V30 6293 O 578.942 1.09536 -2.00534 0
M  V30 6294 C 579.152 -2.43967 -2.49562 0
M  V30 6295 C 580.5 -2.84436 -3.15248 0
M  V30 6296 O 581.524 -2.43597 -2.59883 0
M  V30 6297 O 580.383 -3.55008 -4.1549 0
M  V30 6298 H 577.477 -0.509697 -0.651258 0
M  V30 6299 H 580.023 -1.52603 -0.742312 0
M  V30 6300 H 578.795 -3.36076 -2.0042 0
M  V30 6301 H 578.418 -2.22879 -3.29258 0
M  V30 6302 N 579.415 0.9433 -1.26252 0
M  V30 6303 C 580.826 1.50404 -1.10614 0
M  V30 6304 C 581.177 1.93666 0.31429 0
M  V30 6305 O 580.302 1.79709 1.20555 0
M  V30 6306 C 580.897 2.73336 -2.00182 0
M  V30 6307 C 579.456 3.25686 -1.88695 0
M  V30 6308 C 578.603 1.98474 -1.93658 0
M  V30 6309 H 581.554 0.759006 -1.39373 0
M  V30 6310 H 581.575 3.47567 -1.54847 0
M  V30 6311 H 581.087 2.41818 -3.03555 0
M  V30 6312 H 579.188 3.61998 -0.882489 0
M  V30 6313 H 579.301 3.92935 -2.74115 0
M  V30 6314 H 577.665 2.14278 -1.37684 0
M  V30 6315 H 578.448 1.6929 -2.98657 0
M  V30 6316 N 580.893 1.08022 1.14757 0
M  V30 6317 C 581.803 0.718292 2.23333 0
M  V30 6318 C 582.819 -0.273477 1.71837 0
M  V30 6319 O 583.995 -0.118406 2.01052 0
M  V30 6320 C 581.06 0.128855 3.4646 0
M  V30 6321 C 580.121 1.17473 4.12915 0
M  V30 6322 C 579.354 0.61333 5.30164 0
M  V30 6323 O 579.577 -0.568458 5.6756 0
M  V30 6324 O 578.511 1.3615 5.86299 0
M  V30 6325 H 582.337 1.62394 2.56636 0
M  V30 6326 H 579.922 0.853628 1.22611 0
M  V30 6327 H 581.804 -0.197249 4.20938 0
M  V30 6328 H 580.479 -0.750014 3.14891 0
M  V30 6329 H 579.386 1.5533 3.40328 0
M  V30 6330 H 580.719 2.02574 4.48581 0
M  V30 6331 N 582.371 -1.3172 0.865308 0
M  V30 6332 C 583.601 -2.00765 0.487543 0
M  V30 6333 C 584.009 -1.65145 -0.92325 0
M  V30 6334 O 583.352 -0.874294 -1.61561 0
M  V30 6335 C 583.414 -3.55122 0.559369 0
M  V30 6336 C 583.078 -4.14202 1.93095 0
M  V30 6337 C 584.075 -4.3165 2.89784 0
M  V30 6338 C 581.76 -4.50036 2.23099 0
M  V30 6339 C 583.754 -4.84114 4.14623 0
M  V30 6340 C 581.441 -5.02203 3.48189 0
M  V30 6341 C 582.439 -5.19192 4.43767 0
M  V30 6342 O 582.127 -5.70241 5.6664 0
M  V30 6343 H 581.859 -0.649066 0.188915 0
M  V30 6344 H 584.413 -1.69032 1.16694 0
M  V30 6345 H 582.643 -3.86295 -0.176926 0
M  V30 6346 H 584.332 -4.05428 0.195694 0
M  V30 6347 H 585.098 -4.04288 2.6791 0
M  V30 6348 H 580.977 -4.36091 1.49485 0
M  V30 6349 H 584.521 -4.9729 4.89233 0
M  V30 6350 H 580.418 -5.28997 3.69908 0
M  V30 6351 H 581.186 -5.88617 5.68746 0
M  V30 6352 N 583.85 -0.624285 -1.44708 0
M  V30 6353 C 585.266 -0.289322 -1.56956 0
M  V30 6354 C 585.466 1.20773 -1.61295 0
M  V30 6355 O 584.522 1.9915 -1.55227 0
M  V30 6356 C 585.835 -0.975215 -2.84447 0
M  V30 6357 C 587.383 -0.952709 -2.98148 0
M  V30 6358 C 587.858 -1.61893 -4.28433 0
M  V30 6359 N 589.349 -1.5852 -4.35231 0
M  V30 6360 C 590.084 -2.06969 -5.34744 0
M  V30 6361 N 589.58 -2.63579 -6.40701 0
M  V30 6362 N 591.373 -1.97638 -5.26209 0
M  V30 6363 H 583.524 -1.59612 -1.40135 0
M  V30 6364 H 585.787 -0.669592 -0.671081 0
M  V30 6365 H 585.493 -2.02999 -2.87201 0
M  V30 6366 H 585.367 -0.508749 -3.73753 0
M  V30 6367 H 587.754 0.093568 -2.94952 0
M  V30 6368 H 587.835 -1.4576 -2.10209 0
M  V30 6369 H 587.479 -2.66463 -4.32389 0
M  V30 6370 H 587.409 -1.08893 -5.15218 0
M  V30 6371 H 589.899 -1.17183 -3.59272 0
M  V30 6372 H 590.213 -2.98298 -7.12908 0
M  V30 6373 H 588.558 -2.67626 -6.41406 0
M  V30 6374 H 591.749 -1.5314 -4.42341 0
M  V30 6375 H 591.922 -2.35708 -6.03611 0
M  V30 6376 N 585.328 1.53329 -0.364422 0
M  V30 6377 C 586.275 2.25698 0.482607 0
M  V30 6378 C 587.245 1.26325 1.07848 0
M  V30 6379 O 588.43 1.55104 1.11119 0
M  V30 6380 C 585.57 3.04873 1.61699 0
M  V30 6381 C 584.683 4.19135 1.0464 0
M  V30 6382 C 583.818 4.85754 2.14979 0
M  V30 6383 C 582.857 5.9205 1.5538 0
M  V30 6384 N 581.994 6.52365 2.59547 0
M  V30 6385 H 586.834 2.97666 -0.141032 0
M  V30 6386 H 584.371 1.46875 -0.0813692 0
M  V30 6387 H 586.329 3.49051 2.28516 0
M  V30 6388 H 584.959 2.35162 2.2113 0
M  V30 6389 H 584.011 3.79451 0.268553 0
M  V30 6390 H 585.323 4.95525 0.570653 0
M  V30 6391 H 584.477 5.3311 2.89619 0
M  V30 6392 H 583.216 4.08834 2.65906 0
M  V30 6393 H 582.221 5.44058 0.792549 0
M  V30 6394 H 583.446 6.7089 1.0528 0
M  V30 6395 H 581.392 5.78298 3.09689 0
M  V30 6396 H 581.309 7.2429 2.16655 0
M  V30 6397 H 582.577 7.0437 3.33892 0
M  V30 6398 N 586.806 0.0935595 1.57322 0
M  V30 6399 C 587.756 -0.876521 2.10478 0
M  V30 6400 C 588.74 -1.24482 1.01946 0
M  V30 6401 O 589.932 -1.22016 1.28223 0
M  V30 6402 C 587.061 -2.13615 2.68745 0
M  V30 6403 C 586.147 -1.79335 3.84317 0
M  V30 6404 N 586.538 -1.15606 4.92411 0
M  V30 6405 C 584.836 -2.08954 3.94023 0
M  V30 6406 C 585.537 -0.999036 5.73057 0
M  V30 6407 N 584.513 -1.51585 5.22037 0
M  V30 6408 H 588.315 -0.379829 2.91435 0
M  V30 6409 H 585.829 -0.109699 1.62029 0
M  V30 6410 H 587.826 -2.84053 3.05155 0
M  V30 6411 H 586.486 -2.63851 1.89242 0
M  V30 6412 H 587.497 -0.823063 5.11318 0
M  V30 6413 H 584.174 -2.61416 3.25527 0
M  V30 6414 H 585.564 -0.500772 6.70031 0
M  V30 6415 N 588.284 -1.56567 -0.180126 0
M  V30 6416 C 589.214 -1.98753 -1.22553 0
M  V30 6417 C 590.195 -0.86175 -1.46656 0
M  V30 6418 O 591.38 -1.12719 -1.58139 0
M  V30 6419 C 588.51 -2.33988 -2.56645 0
M  V30 6420 C 587.464 -3.49445 -2.47128 0
M  V30 6421 C 586.79 -3.70397 -3.8563 0
M  V30 6422 C 588.09 -4.83171 -1.98352 0
M  V30 6423 H 589.784 -2.86332 -0.874896 0
M  V30 6424 H 587.33 -1.37757 -0.419414 0
M  V30 6425 H 589.283 -2.62097 -3.29974 0
M  V30 6426 H 588.007 -1.43309 -2.93479 0
M  V30 6427 H 586.666 -3.2145 -1.76254 0
M  V30 6428 H 586.314 -2.77023 -4.19842 0
M  V30 6429 H 586.014 -4.48077 -3.80132 0
M  V30 6430 H 587.538 -4.00897 -4.60558 0
M  V30 6431 H 588.952 -5.10213 -2.61449 0
M  V30 6432 H 587.349 -5.64425 -2.03823 0
M  V30 6433 H 588.419 -4.75753 -0.937402 0
M  V30 6434 N 589.762 0.448376 -1.51087 0
M  V30 6435 C 590.672 1.56882 -1.74428 0
M  V30 6436 C 591.688 1.62268 -0.62809 0
M  V30 6437 O 592.864 1.79716 -0.909075 0
M  V30 6438 C 589.929 2.92947 -1.85426 0
M  V30 6439 C 588.99 2.97766 -3.09247 0
M  V30 6440 C 588.223 4.27341 -3.19711 0
M  V30 6441 O 588.446 5.19112 -2.36387 0
M  V30 6442 O 587.38 4.38219 -4.12611 0
M  V30 6443 H 591.206 1.40104 -2.69452 0
M  V30 6444 H 588.791 0.630247 -1.35456 0
M  V30 6445 H 590.673 3.73719 -1.94709 0
M  V30 6446 H 589.348 3.09876 -0.935887 0
M  V30 6447 H 588.255 2.15989 -3.0545 0
M  V30 6448 H 589.588 2.8578 -4.00738 0
M  V30 6449 N 591.24 1.41047 0.703093 0
M  V30 6450 C 592.486 1.40207 1.46526 0
M  V30 6451 C 592.819 0.00847763 1.94198 0
M  V30 6452 O 592.094 -0.962437 1.69019 0
M  V30 6453 C 592.377 2.40238 2.6825 0
M  V30 6454 C 592.23 3.88674 2.26391 0
M  V30 6455 C 593.549 2.37627 3.70434 0
M  V30 6456 H 590.668 0.510594 0.531472 0
M  V30 6457 H 593.31 1.72271 0.801422 0
M  V30 6458 H 591.46 2.13026 3.24888 0
M  V30 6459 H 593.132 4.2676 1.75138 0
M  V30 6460 H 591.375 4.03903 1.58255 0
M  V30 6461 H 592.046 4.542 3.13698 0
M  V30 6462 H 594.522 2.61759 3.23452 0
M  V30 6463 H 593.398 3.09645 4.53223 0
M  V30 6464 H 593.659 1.39223 4.19606 0
M  V30 6465 N 592.718 -0.936591 1.26751 0
M  V30 6466 C 593.965 -1.68331 1.12566 0
M  V30 6467 C 594.293 -1.91677 -0.330168 0
M  V30 6468 O 593.548 -1.49859 -1.2586 0
M  V30 6469 C 593.847 -3.06099 1.84494 0
M  V30 6470 C 593.513 -3.02493 3.34378 0
M  V30 6471 C 592.175 -3.01217 3.75262 0
M  V30 6472 C 594.527 -2.94453 4.30055 0
M  V30 6473 C 591.855 -2.89672 5.10203 0
M  V30 6474 C 594.207 -2.84449 5.65041 0
M  V30 6475 C 592.871 -2.81518 6.0523 0
M  V30 6476 H 592.141 -0.615965 0.411907 0
M  V30 6477 H 594.788 -1.09292 1.5725 0
M  V30 6478 H 593.093 -3.6879 1.32292 0
M  V30 6479 H 594.79 -3.62733 1.70955 0
M  V30 6480 H 591.38 -3.04269 3.01858 0
M  V30 6481 H 595.564 -2.94544 3.99447 0
M  V30 6482 H 590.82 -2.85783 5.40498 0
M  V30 6483 H 594.994 -2.77192 6.38856 0
M  V30 6484 H 592.621 -2.72329 7.09747 0
M  V30 6485 N 594.196 -1.08629 -1.14182 0
M  V30 6486 C 595.146 -0.687882 -2.17376 0
M  V30 6487 C 596.13 0.293632 -1.58198 0
M  V30 6488 O 597.322 0.105292 -1.76687 0
M  V30 6489 C 594.451 -0.101184 -3.43151 0
M  V30 6490 C 593.537 -1.10862 -4.09354 0
M  V30 6491 N 593.928 -2.29285 -4.50846 0
M  V30 6492 C 592.226 -0.944897 -4.35876 0
M  V30 6493 C 592.927 -2.93305 -5.02342 0
M  V30 6494 N 591.903 -2.20903 -4.96692 0
M  V30 6495 H 595.705 -1.58963 -2.472 0
M  V30 6496 H 593.219 -0.961329 -1.3089 0
M  V30 6497 H 595.216 0.202209 -4.16409 0
M  V30 6498 H 593.876 0.795522 -3.14804 0
M  V30 6499 H 594.887 -2.66927 -4.43813 0
M  V30 6500 H 591.564 -0.102186 -4.17375 0
M  V30 6501 H 592.954 -3.93932 -5.44304 0
M  V30 6502 N 595.674 1.31259 -0.872281 0
M  V30 6503 C 596.621 2.28459 -0.327857 0
M  V30 6504 C 597.591 1.55831 0.574957 0
M  V30 6505 O 598.776 1.83965 0.506101 0
M  V30 6506 C 595.916 3.41985 0.462644 0
M  V30 6507 C 595.029 4.29458 -0.467949 0
M  V30 6508 C 594.164 5.30131 0.336903 0
M  V30 6509 C 593.203 6.0925 -0.58997 0
M  V30 6510 N 592.34 7.01872 0.178775 0
M  V30 6511 H 597.18 2.74414 -1.16193 0
M  V30 6512 H 594.717 1.34994 -0.584376 0
M  V30 6513 H 596.675 4.06547 0.936759 0
M  V30 6514 H 595.305 2.97134 1.2614 0
M  V30 6515 H 594.357 3.65318 -1.06052 0
M  V30 6516 H 595.669 4.84677 -1.17856 0
M  V30 6517 H 594.823 6.0038 0.873427 0
M  V30 6518 H 593.562 4.75573 1.08079 0
M  V30 6519 H 592.567 5.37889 -1.13823 0
M  V30 6520 H 593.792 6.65894 -1.33275 0
M  V30 6521 H 591.738 6.49721 0.905435 0
M  V30 6522 H 591.655 7.54522 -0.472452 0
M  V30 6523 H 592.923 7.76382 0.696454 0
M  V30 6524 N 597.152 0.631951 1.44375 0
M  V30 6525 C 598.401 0.134214 2.01253 0
M  V30 6526 C 598.714 -1.25171 1.50305 0
M  V30 6527 O 599.92 -1.8435 1.99317 0
M  V30 6528 C 598.376 0.189187 3.59402 0
M  V30 6529 C 597.984 1.57647 4.19346 0
M  V30 6530 C 599.728 -0.252044 4.23751 0
M  V30 6531 C 597.635 1.58651 5.69722 0
M  V30 6532 H 596.565 0.0464101 0.75257 0
M  V30 6533 H 599.216 0.790868 1.65582 0
M  V30 6534 H 597.598 -0.534584 3.92375 0
M  V30 6535 H 598.772 2.32389 3.97909 0
M  V30 6536 H 597.087 1.96186 3.67288 0
M  V30 6537 H 599.684 -0.264084 5.34047 0
M  V30 6538 H 600.027 -1.27951 3.96149 0
M  V30 6539 H 600.56 0.41926 3.95584 0
M  V30 6540 H 597.299 2.59237 6.0206 0
M  V30 6541 H 596.819 0.882039 5.93279 0
M  V30 6542 H 598.498 1.32082 6.33375 0
M  V30 6543 N 598.631 -1.53133 0.372548 0
M  V30 6544 C 599.561 -2.28876 -0.462412 0
M  V30 6545 C 600.542 -1.31583 -1.07796 0
M  V30 6546 O 601.727 -1.60461 -1.09389 0
M  V30 6547 C 598.857 -3.08317 -1.59868 0
M  V30 6548 C 597.811 -4.13355 -1.11003 0
M  V30 6549 C 597.137 -4.8092 -2.33708 0
M  V30 6550 C 598.437 -5.21955 -0.18983 0
M  V30 6551 H 600.131 -2.9892 0.169511 0
M  V30 6552 H 597.677 -1.43761 0.0829658 0
M  V30 6553 H 599.63 -3.60055 -2.18949 0
M  V30 6554 H 598.354 -2.35976 -2.25794 0
M  V30 6555 H 597.013 -3.62573 -0.541869 0
M  V30 6556 H 596.661 -4.05144 -2.98106 0
M  V30 6557 H 596.361 -5.51904 -2.01682 0
M  V30 6558 H 597.885 -5.35455 -2.93462 0
M  V30 6559 H 599.299 -5.69153 -0.688319 0
M  V30 6560 H 597.696 -6.00087 0.0398887 0
M  V30 6561 H 598.766 -4.78811 0.766057 0
M  V30 6562 N 600.109 -0.101901 -1.5727 0
M  V30 6563 C 601.337 0.568392 -1.98939 0
M  V30 6564 C 601.752 1.61301 -0.981194 0
M  V30 6565 O 601.109 1.82478 0.0282869 0
M  V30 6566 C 601.16 1.20997 -3.40649 0
M  V30 6567 O 600.881 0.207129 -4.3761 0
M  V30 6568 C 602.382 1.96523 -3.97358 0
M  V30 6569 H 599.602 0.15186 -0.65359 0
M  V30 6570 H 602.146 -0.183198 -2.03678 0
M  V30 6571 H 600.301 1.91245 -3.36904 0
M  V30 6572 H 600.715 0.671071 -5.20189 0
M  V30 6573 H 602.189 2.36764 -4.98645 0
M  V30 6574 H 602.666 2.83376 -3.35552 0
M  V30 6575 H 603.272 1.31076 -4.04598 0
M  V30 6576 N 601.587 1.56661 0.17182 0
M  V30 6577 C 602.535 1.97289 1.23207 0
M  V30 6578 C 603.529 0.861566 1.45854 0
M  V30 6579 O 604.735 1.04668 1.4644 0
M  V30 6580 H 601.11 0.627681 0.41415 0
M  V30 6581 H 603.081 2.85662 0.862542 0
M  V30 6582 C 601.83 2.34849 2.564 0
M  V30 6583 H 601.153 3.19903 2.39797 0
M  V30 6584 H 602.593 2.67121 3.29276 0
M  V30 6585 C 601.052 1.19172 3.15119 0
M  V30 6586 O 601.582 0.479113 3.98833 0
M  V30 6587 N 599.788 0.962415 2.74201 0
M  V30 6588 H 599.335 1.54365 2.06226 0
M  V30 6589 H 599.293 0.190272 3.13824 0
M  V30 6590 N 603.065 -0.440357 1.51323 0
M  V30 6591 C 604.293 -1.21255 1.67645 0
M  V30 6592 C 604.708 -1.85088 0.37252 0
M  V30 6593 O 604.065 -1.70582 -0.648683 0
M  V30 6594 C 604.116 -2.29881 2.78993 0
M  V30 6595 O 603.837 -1.68659 4.04334 0
M  V30 6596 C 605.338 -3.20214 3.06558 0
M  V30 6597 H 602.558 -0.36558 0.562666 0
M  V30 6598 H 605.102 -0.52214 1.97722 0
M  V30 6599 H 603.257 -2.94643 2.51524 0
M  V30 6600 H 603.671 -2.40426 4.6615 0
M  V30 6601 H 605.145 -3.92575 3.88058 0
M  V30 6602 H 605.622 -3.80794 2.18844 0
M  V30 6603 H 606.228 -2.61156 3.35675 0
M  V30 6604 N 604.543 -1.41418 -0.695603 0
M  V30 6605 C 605.82 -1.31264 -1.45014 0
M  V30 6606 C 606.2 0.0597994 -2.11015 0
M  V30 6607 O 605.548 1.07403 -2.01685 0
M  V30 6608 C 605.758 -2.466 -2.4696 0
M  V30 6609 C 607.106 -2.87763 -3.12214 0
M  V30 6610 O 608.13 -2.46339 -2.57285 0
M  V30 6611 O 606.989 -3.59395 -4.11701 0
M  V30 6612 H 604.083 -0.516576 -0.645816 0
M  V30 6613 H 606.629 -1.53382 -0.726084 0
M  V30 6614 H 605.401 -3.38183 -1.96845 0
M  V30 6615 H 605.024 -2.26358 -3.26876 0
M  V30 6616 N 606.021 0.929856 -1.27246 0
M  V30 6617 C 607.432 1.49223 -1.12203 0
M  V30 6618 C 607.783 1.93989 0.293731 0
M  V30 6619 O 606.908 1.80978 1.18642 0
M  V30 6620 C 607.503 2.71198 -2.0307 0
M  V30 6621 C 606.062 3.23666 -1.92139 0
M  V30 6622 C 605.209 1.96409 -1.95752 0
M  V30 6623 H 608.16 0.744181 -1.4017 0
M  V30 6624 H 608.181 3.45905 -1.58524 0
M  V30 6625 H 607.693 2.38585 -3.06102 0
M  V30 6626 H 605.794 3.61042 -0.920834 0
M  V30 6627 H 605.907 3.90006 -2.78267 0
M  V30 6628 H 604.271 2.12806 -1.39949 0
M  V30 6629 H 605.054 1.66113 -3.00436 0
M  V30 6630 N 607.499 1.09233 1.13605 0
M  V30 6631 C 608.447 0.724572 2.21027 0
M  V30 6632 C 609.441 -0.273595 1.67176 0
M  V30 6633 O 610.647 -0.135266 1.79491 0
M  V30 6634 H 607.022 0.216319 0.720215 0
M  V30 6635 H 608.993 1.63975 2.49309 0
M  V30 6636 C 607.742 0.159126 3.47336 0
M  V30 6637 H 607.065 0.918387 3.89109 0
M  V30 6638 H 608.505 -0.0602851 4.23957 0
M  V30 6639 C 606.964 -1.10514 3.18258 0
M  V30 6640 O 607.494 -2.18869 3.36837 0
M  V30 6641 N 605.7 -1.01886 2.72154 0
M  V30 6642 H 605.247 -0.137027 2.57235 0
M  V30 6643 H 605.205 -1.8655 2.53074 0
M  V30 6644 N 608.977 -1.30795 0.87923 0
M  V30 6645 C 610.254 -1.91145 0.415086 0
M  V30 6646 C 610.634 -1.7995 -1.10368 0
M  V30 6647 O 609.982 -1.21305 -1.93642 0
M  V30 6648 C 610.192 -3.37014 0.906778 0
M  V30 6649 C 611.54 -4.14101 0.938358 0
M  V30 6650 O 612.564 -3.45834 0.853053 0
M  V30 6651 O 611.423 -5.36054 1.06342 0
M  V30 6652 H 608.517 -0.81736 0.125905 0
M  V30 6653 H 611.063 -1.39401 0.967753 0
M  V30 6654 H 609.835 -3.3922 1.95053 0
M  V30 6655 H 609.458 -3.96204 0.332948 0
M  V30 6656 N 610.455 -0.639598 -1.44038 0
M  V30 6657 C 611.365 0.0612377 -2.3452 0
M  V30 6658 C 612.381 0.826717 -1.53106 0
M  V30 6659 O 613.557 0.777059 -1.85806 0
M  V30 6660 C 610.622 1.02492 -3.31204 0
M  V30 6661 C 609.683 0.25788 -4.28525 0
M  V30 6662 C 608.916 1.17566 -5.2059 0
M  V30 6663 O 609.139 2.41461 -5.16771 0
M  V30 6664 O 608.073 0.655407 -5.98321 0
M  V30 6665 H 611.899 -0.68318 -2.95916 0
M  V30 6666 H 609.484 -0.399784 -1.43952 0
M  V30 6667 H 611.366 1.57911 -3.90694 0
M  V30 6668 H 610.041 1.7498 -2.7233 0
M  V30 6669 H 608.948 -0.339566 -3.72556 0
M  V30 6670 H 610.281 -0.427154 -4.90343 0
M  V30 6671 N 611.933 1.52934 -0.380664 0
M  V30 6672 C 613.179 2.01765 0.20458 0
M  V30 6673 C 613.512 1.26696 1.47179 0
M  V30 6674 O 612.787 0.364936 1.91046 0
M  V30 6675 C 613.07 3.56869 0.481269 0
M  V30 6676 C 612.923 4.42617 -0.800629 0
M  V30 6677 C 614.242 4.2121 1.27554 0
M  V30 6678 H 611.361 0.733388 0.0728803 0
M  V30 6679 H 614.003 1.83068 -0.50853 0
M  V30 6680 H 612.153 3.72932 1.08875 0
M  V30 6681 H 613.825 4.38323 -1.43773 0
M  V30 6682 H 612.068 4.09977 -1.4178 0
M  V30 6683 H 612.739 5.49134 -0.561791 0
M  V30 6684 H 615.215 4.09072 0.761514 0
M  V30 6685 H 614.091 5.29732 1.43788 0
M  V30 6686 H 614.352 3.78269 2.28833 0
M  V30 6687 N 613.412 0.11024 1.57214 0
M  V30 6688 C 614.322 -0.857077 2.18383 0
M  V30 6689 C 615.338 -1.29915 1.1575 0
M  V30 6690 O 616.514 -1.36394 1.48184 0
M  V30 6691 C 613.579 -2.09264 2.76423 0
M  V30 6692 C 612.64 -1.70333 3.94063 0
M  V30 6693 C 611.873 -2.87999 4.49324 0
M  V30 6694 O 612.096 -4.0317 4.03497 0
M  V30 6695 O 611.03 -2.6559 5.40135 0
M  V30 6696 H 614.856 -0.366561 3.0148 0
M  V30 6697 H 612.441 -0.114914 1.48957 0
M  V30 6698 H 614.323 -2.81644 3.13456 0
M  V30 6699 H 612.998 -2.57339 1.96363 0
M  V30 6700 H 611.905 -0.950864 3.61814 0
M  V30 6701 H 613.238 -1.27007 4.75531 0
M  V30 6702 N 614.89 -1.56749 -0.16351 0
M  V30 6703 C 616.306 -1.51043 -0.515567 0
M  V30 6704 C 616.506 -0.815855 -1.84245 0
M  V30 6705 O 615.562 -0.379477 -2.49632 0
M  V30 6706 C 616.875 -2.95791 -0.541114 0
M  V30 6707 C 618.423 -3.0664 -0.627776 0
M  V30 6708 C 618.898 -4.52861 -0.684141 0
M  V30 6709 N 620.389 -4.5714 -0.746818 0
M  V30 6710 C 621.124 -5.67634 -0.811137 0
M  V30 6711 N 620.62 -6.8774 -0.835811 0
M  V30 6712 N 622.413 -5.55624 -0.850756 0
M  V30 6713 H 614.564 -2.00307 0.70645 0
M  V30 6714 H 616.827 -0.912876 0.255659 0
M  V30 6715 H 616.533 -3.49797 0.365329 0
M  V30 6716 H 616.407 -3.50858 -1.38487 0
M  V30 6717 H 618.794 -2.52663 -1.52464 0
M  V30 6718 H 618.875 -2.54645 0.242805 0
M  V30 6719 H 618.519 -5.07472 0.2085 0
M  V30 6720 H 618.449 -5.02621 -1.57098 0
M  V30 6721 H 620.94 -3.70669 -0.735717 0
M  V30 6722 H 621.253 -7.67701 -0.886279 0
M  V30 6723 H 619.598 -6.90334 -0.803958 0
M  V30 6724 H 622.789 -4.60709 -0.828535 0
M  V30 6725 H 622.962 -6.41756 -0.897418 0
M  V30 6726 N 616.368 0.432326 -1.51554 0
M  V30 6727 C 617.784 0.769195 -1.39841 0
M  V30 6728 C 617.984 1.95584 -0.484675 0
M  V30 6729 O 617.04 2.52433 0.0582829 0
M  V30 6730 C 618.353 1.04487 -2.81963 0
M  V30 6731 C 619.901 1.149 -2.91148 0
M  V30 6732 C 620.376 1.45758 -4.34187 0
M  V30 6733 N 621.867 1.52671 -4.37317 0
M  V30 6734 C 622.602 1.78129 -5.4503 0
M  V30 6735 N 622.098 2.01345 -6.62897 0
M  V30 6736 N 623.891 1.79953 -5.32516 0
M  V30 6737 H 616.042 -0.349122 -2.09511 0
M  V30 6738 H 618.305 -0.0938113 -0.943347 0
M  V30 6739 H 618.011 0.24557 -3.50842 0
M  V30 6740 H 617.885 1.97119 -3.21596 0
M  V30 6741 H 620.272 1.93891 -2.22464 0
M  V30 6742 H 620.353 0.201568 -2.55005 0
M  V30 6743 H 619.997 0.672917 -5.03423 0
M  V30 6744 H 619.927 2.41715 -4.67848 0
M  V30 6745 H 622.418 1.36612 -3.52343 0
M  V30 6746 H 622.731 2.20155 -7.40778 0
M  V30 6747 H 621.076 1.98657 -6.66003 0
M  V30 6748 H 624.267 1.61337 -4.39418 0
M  V30 6749 H 624.44 1.99455 -6.1654 0
M  V30 6750 N 617.846 1.41785 0.688094 0
M  V30 6751 C 618.794 1.44436 1.82321 0
M  V30 6752 C 619.788 0.321544 1.6632 0
M  V30 6753 O 620.994 0.493931 1.73091 0
M  V30 6754 H 617.369 0.452084 0.600936 0
M  V30 6755 H 619.34 2.40087 1.77202 0
M  V30 6756 C 618.089 1.35071 3.20392 0
M  V30 6757 H 617.412 2.2076 3.33324 0
M  V30 6758 H 618.852 1.40988 3.99873 0
M  V30 6759 C 617.311 0.0639127 3.36839 0
M  V30 6760 O 617.841 -0.888495 3.91751 0
M  V30 6761 N 616.047 -0.0146114 2.90596 0
M  V30 6762 H 615.594 0.761191 2.46097 0
M  V30 6763 H 615.552 -0.874988 3.01979 0
M  V30 6764 N 619.324 -0.923095 1.27737 0
M  V30 6765 C 620.287 -2.00587 1.10894 0
M  V30 6766 C 621.287 -1.60718 0.0514927 0
M  V30 6767 O 622.477 -1.71658 0.296481 0
M  V30 6768 C 619.609 -3.33829 0.690717 0
M  V30 6769 H 620.802 -2.16959 2.07048 0
M  V30 6770 H 618.355 -1.10451 1.1059 0
M  V30 6771 H 619.09 -3.23157 -0.272 0
M  V30 6772 H 618.875 -3.64125 1.45448 0
M  V30 6773 H 620.365 -4.13336 0.595252 0
M  V30 6774 N 620.802 -1.09834 -1.13024 0
M  V30 6775 C 622.079 -0.749225 -1.80682 0
M  V30 6776 C 622.459 0.765171 -1.96744 0
M  V30 6777 O 621.807 1.68912 -1.53886 0
M  V30 6778 C 622.017 -1.49311 -3.15448 0
M  V30 6779 C 623.365 -1.66162 -3.90737 0
M  V30 6780 O 624.389 -1.45597 -3.25085 0
M  V30 6781 O 623.248 -2.00211 -5.08505 0
M  V30 6782 H 620.342 -0.269614 -0.781817 0
M  V30 6783 H 622.888 -1.20078 -1.19914 0
M  V30 6784 H 621.66 -2.52407 -2.99009 0
M  V30 6785 H 621.283 -1.034 -3.8392 0
M  V30 6786 N 622.28 1.30327 -0.886154 0
M  V30 6787 C 623.228 2.30052 -0.343317 0
M  V30 6788 C 624.222 1.60212 0.550305 0
M  V30 6789 O 625.428 1.74674 0.434609 0
M  V30 6790 H 621.803 0.746306 -0.0923681 0
M  V30 6791 H 623.774 2.73294 -1.19804 0
M  V30 6792 C 622.523 3.45079 0.426107 0
M  V30 6793 H 621.846 3.99003 -0.25227 0
M  V30 6794 H 623.286 4.16931 0.771009 0
M  V30 6795 C 621.745 2.95195 1.62363 0
M  V30 6796 O 622.275 2.95323 2.723 0
M  V30 6797 N 620.481 2.51192 1.4612 0
M  V30 6798 H 620.028 2.51286 0.566832 0
M  V30 6799 H 619.986 2.18173 2.2638 0
M  V30 6800 N 623.758 0.647228 1.43697 0
M  V30 6801 C 624.705 -0.0480092 2.3075 0
M  V30 6802 C 625.675 -0.820705 1.44408 0
M  V30 6803 O 626.86 -0.798515 1.73287 0
M  V30 6804 C 624 -1.01259 3.2991 0
M  V30 6805 C 623.113 -0.236629 4.31351 0
M  V30 6806 C 622.248 -1.19447 5.17596 0
M  V30 6807 C 621.287 -0.408595 6.10735 0
M  V30 6808 N 620.424 -1.31772 6.89623 0
M  V30 6809 H 625.264 0.700238 2.89656 0
M  V30 6810 H 622.801 0.357082 1.427 0
M  V30 6811 H 624.759 -1.58538 3.85903 0
M  V30 6812 H 623.389 -1.72778 2.72667 0
M  V30 6813 H 622.441 0.452353 3.77701 0
M  V30 6814 H 623.753 0.374731 4.9739 0
M  V30 6815 H 622.907 -1.83809 5.78186 0
M  V30 6816 H 621.646 -1.83975 4.51669 0
M  V30 6817 H 620.651 0.24841 5.49239 0
M  V30 6818 H 621.876 0.232188 6.78703 0
M  V30 6819 H 619.822 -1.94991 6.2635 0
M  V30 6820 H 619.739 -0.760779 7.52162 0
M  V30 6821 H 621.007 -1.94967 7.54724 0
M  V30 6822 N 625.236 -1.5273 0.388769 0
M  V30 6823 C 626.146 -2.30165 -0.453993 0
M  V30 6824 C 627.162 -1.37058 -1.07197 0
M  V30 6825 O 628.338 -1.70127 -1.0779 0
M  V30 6826 C 625.403 -3.09303 -1.56628 0
M  V30 6827 C 624.464 -4.18117 -0.973467 0
M  V30 6828 C 623.697 -4.93472 -2.03275 0
M  V30 6829 O 623.92 -4.68913 -3.24772 0
M  V30 6830 O 622.854 -5.78833 -1.65034 0
M  V30 6831 H 626.68 -3.03185 0.176816 0
M  V30 6832 H 624.265 -1.4862 0.152501 0
M  V30 6833 H 626.147 -3.58648 -2.21246 0
M  V30 6834 H 624.822 -2.39098 -2.18206 0
M  V30 6835 H 623.729 -3.7297 -0.290556 0
M  V30 6836 H 625.062 -4.90556 -0.401908 0
M  V30 6837 N 626.714 -0.118576 -1.57153 0
M  V30 6838 C 627.644 0.828436 -2.1831 0
M  V30 6839 C 628.625 1.27758 -1.12303 0
M  V30 6840 O 629.81 1.34026 -1.40537 0
M  V30 6841 C 626.94 2.07876 -2.78217 0
M  V30 6842 C 625.894 1.76742 -3.89803 0
M  V30 6843 C 625.22 3.08801 -4.36516 0
M  V30 6844 C 626.52 1.03606 -5.11921 0
M  V30 6845 H 628.214 0.318824 -2.97698 0
M  V30 6846 H 625.76 0.151911 -1.43196 0
M  V30 6847 H 627.713 2.74584 -3.19659 0
M  V30 6848 H 626.437 2.61161 -1.96118 0
M  V30 6849 H 625.096 1.12424 -3.48936 0
M  V30 6850 H 624.744 3.6002 -3.51276 0
M  V30 6851 H 624.444 2.88743 -5.11763 0
M  V30 6852 H 625.968 3.76627 -4.80608 0
M  V30 6853 H 627.382 1.60467 -5.50385 0
M  V30 6854 H 625.779 0.936454 -5.92748 0
M  V30 6855 H 626.849 0.0227421 -4.84895 0
M  V30 6856 N 628.193 1.56834 0.155195 0
M  V30 6857 C 629.421 1.87049 0.884326 0
M  V30 6858 C 629.836 0.705839 1.7511 0
M  V30 6859 O 629.193 -0.324641 1.79589 0
M  V30 6860 C 629.244 3.1644 1.74781 0
M  V30 6861 O 628.965 4.28417 0.915978 0
M  V30 6862 C 630.466 3.60113 2.58522 0
M  V30 6863 H 627.686 0.620196 0.25612 0
M  V30 6864 H 630.23 2.03946 0.150445 0
M  V30 6865 H 628.385 3.01321 2.43484 0
M  V30 6866 H 628.799 5.02353 1.50803 0
M  V30 6867 H 630.273 4.53508 3.14698 0
M  V30 6868 H 630.75 2.85005 3.34169 0
M  V30 6869 H 631.356 3.77898 1.95124 0
M  V30 6870 N 629.671 -0.424282 1.51781 0
M  V30 6871 C 630.896 -1.19928 1.6921 0
M  V30 6872 C 631.321 -1.8392 0.394355 0
M  V30 6873 O 630.679 -1.69371 -0.646778 0
M  V30 6874 C 630.727 -2.24937 2.81843 0
M  V30 6875 O 629.831 -3.3073 2.46356 0
M  V30 6876 H 629.172 -0.35078 0.563781 0
M  V30 6877 H 631.702 -0.499401 1.98412 0
M  V30 6878 H 631.712 -2.69512 3.06312 0
M  V30 6879 H 630.387 -1.77742 3.76006 0
M  V30 6880 H 628.964 -2.9154 2.32505 0
M  V30 6881 N 631.149 -1.42148 -0.680565 0
M  V30 6882 C 632.374 -1.45901 -1.47403 0
M  V30 6883 C 632.799 -0.0700985 -1.87969 0
M  V30 6884 O 632.157 0.930145 -1.55621 0
M  V30 6885 C 632.205 -2.38661 -2.70321 0
M  V30 6886 O 631.309 -1.85399 -3.68376 0
M  V30 6887 H 630.65 -0.494565 -0.443059 0
M  V30 6888 H 633.18 -1.86774 -0.835251 0
M  V30 6889 H 633.19 -2.55046 -3.18458 0
M  V30 6890 H 631.865 -3.39571 -2.40134 0
M  V30 6891 H 630.442 -1.78541 -3.2738 0
M  V30 6892 N 632.627 0.916307 -1.28225 0
M  V30 6893 C 633.904 1.64429 -1.05936 0
M  V30 6894 C 634.284 2.07234 0.402139 0
M  V30 6895 O 633.632 1.81535 1.3877 0
M  V30 6896 C 633.842 2.83773 -2.03159 0
M  V30 6897 C 635.19 3.54852 -2.33164 0
M  V30 6898 O 636.214 2.93918 -2.01223 0
M  V30 6899 O 635.073 4.64663 -2.87664 0
M  V30 6900 H 632.167 0.721221 -0.404683 0
M  V30 6901 H 634.713 0.965838 -1.39534 0
M  V30 6902 H 633.485 2.49217 -3.01673 0
M  V30 6903 H 633.108 3.59333 -1.70192 0
M  V30 6904 N 634.105 1.10431 1.1244 0
M  V30 6905 C 635.516 0.864439 1.65482 0
M  V30 6906 C 635.867 -0.60527 1.8663 0
M  V30 6907 O 634.992 -1.46492 1.59276 0
M  V30 6908 C 635.587 1.56267 3.0061 0
M  V30 6909 C 634.146 1.3695 3.50602 0
M  V30 6910 C 633.293 1.61209 2.25626 0
M  V30 6911 H 636.244 1.26203 0.962209 0
M  V30 6912 H 636.265 1.00166 3.67079 0
M  V30 6913 H 635.777 2.63231 2.85186 0
M  V30 6914 H 633.878 0.321481 3.71211 0
M  V30 6915 H 633.991 2.11143 4.30064 0
M  V30 6916 H 632.355 1.03482 2.32731 0
M  V30 6917 H 633.138 2.69425 2.12756 0
M  V30 6918 N 635.583 -1.29855 0.893053 0
M  V30 6919 C 636.493 -2.31661 0.370157 0
M  V30 6920 C 637.509 -1.65677 -0.531723 0
M  V30 6921 O 638.685 -1.9691 -0.422902 0
M  V30 6922 C 635.75 -3.44388 -0.399741 0
M  V30 6923 C 634.811 -4.2598 0.532861 0
M  V30 6924 C 634.044 -5.33324 -0.200388 0
M  V30 6925 O 634.267 -5.52305 -1.42531 0
M  V30 6926 O 633.201 -6.00188 0.453668 0
M  V30 6927 H 637.027 -2.78354 1.2146 0
M  V30 6928 H 634.612 -1.34171 0.657153 0
M  V30 6929 H 636.494 -4.13037 -0.835358 0
M  V30 6930 H 635.169 -2.99815 -1.22035 0
M  V30 6931 H 634.076 -3.59998 1.01746 0
M  V30 6932 H 635.409 -4.74178 1.3197 0
M  V30 6933 N 637.061 -0.65484 -1.43351 0
M  V30 6934 C 638.309 -0.168559 -2.01396 0
M  V30 6935 C 638.63 1.22235 -1.51933 0
M  V30 6936 O 637.9 1.81685 -0.732627 0
M  V30 6937 H 636.48 -0.0593244 -0.744641 0
M  V30 6938 H 639.142 -0.846871 -1.75539 0
M  V30 6939 H 638.238 -0.154428 -3.11718 0
M  V30 6940 N 638.539 1.52521 -0.396863 0
M  V30 6941 C 639.471 2.24333 0.469814 0
M  V30 6942 C 640.484 1.2685 1.02043 0
M  V30 6943 O 641.673 1.52876 0.92147 0
M  V30 6944 C 638.773 2.95202 1.66461 0
M  V30 6945 C 637.946 4.19454 1.24003 0
M  V30 6946 C 637.005 4.73255 2.30036 0
M  V30 6947 O 636.031 5.36151 1.91131 0
M  V30 6948 N 637.233 4.53765 3.62047 0
M  V30 6949 H 639.998 2.99347 -0.145468 0
M  V30 6950 H 637.559 1.60348 -0.223606 0
M  V30 6951 H 639.551 3.28092 2.36934 0
M  V30 6952 H 638.121 2.2345 2.18607 0
M  V30 6953 H 637.341 3.92517 0.363892 0
M  V30 6954 H 638.629 5.0017 0.933135 0
M  V30 6955 H 638.027 4.03576 3.96412 0
M  V30 6956 H 636.584 4.91124 4.28533 0
M  V30 6957 N 640.017 0.126909 1.57088 0
M  V30 6958 C 641.266 -0.529024 1.94639 0
M  V30 6959 C 641.579 -1.67323 1.01304 0
M  V30 6960 O 642.785 -2.39245 1.28352 0
M  V30 6961 C 641.241 -0.992483 3.45945 0
M  V30 6962 C 640.849 0.123691 4.47829 0
M  V30 6963 C 642.593 -1.61934 3.924 0
M  V30 6964 C 640.5 -0.356911 5.90322 0
M  V30 6965 H 639.43 -0.201397 0.726605 0
M  V30 6966 H 642.081 0.208032 1.82317 0
M  V30 6967 H 640.463 -1.7842 3.53528 0
M  V30 6968 H 641.637 0.900168 4.51922 0
M  V30 6969 H 639.952 0.657699 4.11173 0
M  V30 6970 H 642.549 -1.9902 4.96281 0
M  V30 6971 H 642.892 -2.50075 3.32819 0
M  V30 6972 H 643.425 -0.892894 3.8765 0
M  V30 6973 H 640.164 0.488636 6.53676 0
M  V30 6974 H 639.684 -1.0997 5.89633 0
M  V30 6975 H 641.363 -0.815547 6.41839 0
M  V30 6976 N 641.495 -1.56914 -0.146875 0
M  V30 6977 C 642.428 -1.93425 -1.21087 0
M  V30 6978 C 643.406 -0.800106 -1.41552 0
M  V30 6979 O 644.59 -1.05572 -1.56162 0
M  V30 6980 C 641.717 -2.20639 -2.56975 0
M  V30 6981 C 640.763 -3.43279 -2.53104 0
M  V30 6982 S 641.596 -4.96836 -1.99786 0
M  V30 6983 C 642.752 -5.27172 -3.37403 0
M  V30 6984 H 642.985 -2.8337 -0.899378 0
M  V30 6985 H 640.518 -1.50322 -0.352494 0
M  V30 6986 H 642.476 -2.36998 -3.35175 0
M  V30 6987 H 641.137 -1.31357 -2.85314 0
M  V30 6988 H 640.33 -3.59599 -3.53136 0
M  V30 6989 H 639.932 -3.26163 -1.83012 0
M  V30 6990 H 642.224 -5.20647 -4.33513 0
M  V30 6991 H 643.167 -6.28626 -3.25937 0
M  V30 6992 H 643.575 -4.54687 -3.34544 0
M  V30 6993 N 642.974 0.416227 -1.52004 0
M  V30 6994 C 644.39 0.754319 -1.40649 0
M  V30 6995 C 644.59 1.95059 -0.505392 0
M  V30 6996 O 643.646 2.5248 0.0315057 0
M  V30 6997 C 644.959 1.0149 -2.83055 0
M  V30 6998 C 646.507 1.11805 -2.9235 0
M  V30 6999 C 646.982 1.41144 -4.35709 0
M  V30 7000 N 648.473 1.48024 -4.38911 0
M  V30 7001 C 649.208 1.72338 -5.46889 0
M  V30 7002 N 648.704 1.94303 -6.64995 0
M  V30 7003 N 650.497 1.74294 -5.34395 0
M  V30 7004 H 642.648 -0.371324 -2.09129 0
M  V30 7005 H 644.911 -0.103811 -0.942299 0
M  V30 7006 H 644.617 0.208345 -3.51082 0
M  V30 7007 H 644.491 1.93697 -3.23668 0
M  V30 7008 H 646.878 1.91521 -2.24508 0
M  V30 7009 H 646.959 0.17451 -2.55204 0
M  V30 7010 H 646.603 0.619484 -5.04108 0
M  V30 7011 H 646.533 2.36739 -4.70385 0
M  V30 7012 H 649.024 1.32868 -3.53772 0
M  V30 7013 H 649.337 2.12286 -7.43071 0
M  V30 7014 H 647.682 1.91582 -6.68073 0
M  V30 7015 H 650.873 1.56667 -4.41104 0
M  V30 7016 H 651.046 1.92904 -6.18621 0
M  V30 7017 N 644.452 1.42507 0.673017 0
M  V30 7018 C 645.362 1.4853 1.81593 0
M  V30 7019 C 646.378 0.373907 1.69935 0
M  V30 7020 O 647.554 0.625078 1.91454 0
M  V30 7021 C 644.619 1.387 3.17747 0
M  V30 7022 C 643.68 2.60346 3.41348 0
M  V30 7023 C 642.913 2.50975 4.71007 0
M  V30 7024 O 643.136 1.54659 5.49033 0
M  V30 7025 O 642.07 3.41138 4.95892 0
M  V30 7026 H 645.896 2.45001 1.79467 0
M  V30 7027 H 643.481 1.2429 0.82899 0
M  V30 7028 H 645.363 1.35586 3.98992 0
M  V30 7029 H 644.038 0.453555 3.20507 0
M  V30 7030 H 642.945 2.69034 2.59945 0
M  V30 7031 H 644.278 3.52595 3.43421 0
M  V30 7032 N 645.93 -0.909495 1.28709 0
M  V30 7033 C 647.16 -1.69027 1.188 0
M  V30 7034 C 647.568 -1.87469 -0.255329 0
M  V30 7035 O 646.911 -1.40458 -1.18394 0
M  V30 7036 C 646.973 -3.10064 1.81936 0
M  V30 7037 C 646.637 -3.14891 3.31199 0
M  V30 7038 C 647.634 -2.95768 4.27571 0
M  V30 7039 C 645.319 -3.37269 3.7223 0
M  V30 7040 C 647.313 -2.98942 5.6295 0
M  V30 7041 C 645 -3.40074 5.07733 0
M  V30 7042 C 645.998 -3.20932 6.02903 0
M  V30 7043 O 645.686 -3.23507 7.35934 0
M  V30 7044 H 645.418 -0.535014 0.413203 0
M  V30 7045 H 647.972 -1.14645 1.70428 0
M  V30 7046 H 646.202 -3.66005 1.24808 0
M  V30 7047 H 647.891 -3.70185 1.66486 0
M  V30 7048 H 648.657 -2.78302 3.97206 0
M  V30 7049 H 644.536 -3.51212 2.98615 0
M  V30 7050 H 648.08 -2.83919 6.37209 0
M  V30 7051 H 643.977 -3.5707 5.37747 0
M  V30 7052 H 644.745 -3.3984 7.44615 0
M  V30 7053 N 647.408 -1.11026 -1.11852 0
M  V30 7054 C 648.371 -0.768006 -2.1595 0
M  V30 7055 C 649.371 0.210538 -1.59416 0
M  V30 7056 O 650.561 -0.0133978 -1.74195 0
M  V30 7057 C 647.693 -0.138678 -3.40618 0
M  V30 7058 H 648.886 -1.69012 -2.4774 0
M  V30 7059 H 646.439 -0.911578 -1.26964 0
M  V30 7060 H 647.174 0.793872 -3.14433 0
M  V30 7061 H 646.959 -0.843012 -3.8293 0
M  V30 7062 H 648.449 0.0848039 -4.17514 0
M  V30 7063 N 648.886 1.2938 -0.899927 0
M  V30 7064 C 649.849 2.25983 -0.382677 0
M  V30 7065 C 650.849 1.53366 0.483259 0
M  V30 7066 O 652.039 1.71798 0.28828 0
M  V30 7067 C 649.171 3.37878 0.452915 0
M  V30 7068 H 650.364 2.73252 -1.23586 0
M  V30 7069 H 647.917 1.40825 -0.678088 0
M  V30 7070 H 648.652 2.95949 1.32608 0
M  V30 7071 H 648.437 3.91742 -0.167562 0
M  V30 7072 H 649.927 4.09746 0.806107 0
M  V30 7073 N 650.364 0.662433 1.43002 0
M  V30 7074 C 651.641 0.109096 1.95296 0
M  V30 7075 C 652.021 -1.37313 1.60338 0
M  V30 7076 O 651.369 -2.1032 0.893187 0
M  V30 7077 C 651.579 0.365096 3.47085 0
M  V30 7078 C 652.927 0.274964 4.23709 0
M  V30 7079 O 653.951 0.29816 3.5495 0
M  V30 7080 O 652.81 0.206549 5.4611 0
M  V30 7081 H 649.904 -0.00429724 0.826989 0
M  V30 7082 H 652.45 0.736308 1.52894 0
M  V30 7083 H 651.222 1.39237 3.65689 0
M  V30 7084 H 650.845 -0.294733 3.96506 0
M  V30 7085 N 651.842 -1.52309 0.404946 0
M  V30 7086 C 653.253 -1.86585 -0.0655926 0
M  V30 7087 C 653.604 -1.3239 -1.44801 0
M  V30 7088 O 652.729 -0.6615 -2.06042 0
M  V30 7089 C 653.324 -3.38566 -0.125801 0
M  V30 7090 C 651.883 -3.72497 -0.540666 0
M  V30 7091 C 651.03 -2.75806 0.287487 0
M  V30 7092 H 653.981 -1.45995 0.622185 0
M  V30 7093 H 654.002 -3.68658 -0.941888 0
M  V30 7094 H 653.514 -3.77981 0.880473 0
M  V30 7095 H 651.615 -3.38659 -1.55373 0
M  V30 7096 H 651.728 -4.78234 -0.287956 0
M  V30 7097 H 650.092 -2.53474 -0.249561 0
M  V30 7098 H 650.875 -3.18059 1.29203 0
M  V30 7099 N 653.32 -0.135238 -1.57019 0
M  V30 7100 C 654.23 0.822226 -2.19719 0
M  V30 7101 C 655.246 1.28057 -1.17802 0
M  V30 7102 O 656.422 1.3402 -1.50335 0
M  V30 7103 C 653.487 2.0484 -2.79717 0
M  V30 7104 C 652.548 1.64042 -3.96723 0
M  V30 7105 C 651.781 2.80814 -4.53849 0
M  V30 7106 O 652.004 3.967 -4.0986 0
M  V30 7107 O 650.938 2.56963 -5.44292 0
M  V30 7108 H 654.764 0.318552 -3.02025 0
M  V30 7109 H 652.349 0.0912021 -1.49121 0
M  V30 7110 H 654.231 2.76622 -3.17897 0
M  V30 7111 H 652.906 2.54182 -2.00432 0
M  V30 7112 H 651.813 0.893182 -3.63281 0
M  V30 7113 H 653.146 1.19426 -4.77492 0
M  V30 7114 N 654.798 1.5699 0.138552 0
M  V30 7115 C 656.028 1.87704 0.863184 0
M  V30 7116 C 656.436 0.722411 1.74865 0
M  V30 7117 O 655.779 -0.316636 1.80951 0
M  V30 7118 C 655.841 3.13219 1.76449 0
M  V30 7119 C 655.505 4.44648 1.05532 0
M  V30 7120 C 656.502 5.18318 0.405252 0
M  V30 7121 C 654.187 4.91367 1.04231 0
M  V30 7122 C 656.181 6.36916 -0.24835 0
M  V30 7123 C 653.868 6.09887 0.384904 0
M  V30 7124 C 654.866 6.82508 -0.259292 0
M  V30 7125 O 654.554 7.98775 -0.906258 0
M  V30 7126 H 654.286 0.626255 0.254521 0
M  V30 7127 H 656.84 2.04966 0.133472 0
M  V30 7128 H 655.07 2.91988 2.53535 0
M  V30 7129 H 656.759 3.30111 2.36181 0
M  V30 7130 H 657.525 4.83289 0.407053 0
M  V30 7131 H 653.404 4.34759 1.53315 0
M  V30 7132 H 656.948 6.93538 -0.751755 0
M  V30 7133 H 652.845 6.44376 0.380799 0
M  V30 7134 H 653.613 8.14494 -0.80877 0
M  V30 7135 N 656.276 -0.40816 1.52223 0
M  V30 7136 C 657.692 -0.74685 1.41047 0
M  V30 7137 C 657.892 -1.94788 0.51573 0
M  V30 7138 O 656.948 -2.52494 -0.0181156 0
M  V30 7139 C 658.261 -0.999878 2.83589 0
M  V30 7140 C 659.809 -1.10253 2.92939 0
M  V30 7141 C 660.284 -1.38832 4.36451 0
M  V30 7142 N 661.775 -1.45694 4.3969 0
M  V30 7143 C 662.51 -1.69435 5.47795 0
M  V30 7144 N 662.006 -1.90774 6.66016 0
M  V30 7145 N 663.799 -1.71458 5.35312 0
M  V30 7146 H 655.95 0.382409 2.08929 0
M  V30 7147 H 658.213 0.108807 0.941735 0
M  V30 7148 H 657.919 -0.189723 3.51188 0
M  V30 7149 H 657.793 -1.91978 3.24691 0
M  V30 7150 H 660.18 -1.90328 2.2552 0
M  V30 7151 H 660.261 -0.160973 2.55293 0
M  V30 7152 H 659.905 -0.592741 5.04429 0
M  V30 7153 H 659.835 -2.34241 4.71634 0
M  V30 7154 H 662.326 -1.3099 3.54472 0
M  V30 7155 H 662.639 -2.08342 7.44186 0
M  V30 7156 H 660.984 -1.88037 6.69079 0
M  V30 7157 H 664.175 -1.54326 4.41929 0
M  V30 7158 H 664.348 -1.89621 6.19635 0
M  V30 7159 N 657.755 -1.42862 -0.66545 0
M  V30 7160 C 658.702 -1.4707 -1.77874 0
M  V30 7161 C 659.672 -0.321654 -1.62956 0
M  V30 7162 O 660.857 -0.52707 -1.83376 0
M  V30 7163 C 657.997 -1.38788 -3.15962 0
M  V30 7164 C 657.11 -2.63801 -3.42101 0
M  V30 7165 C 656.245 -2.47594 -4.69969 0
M  V30 7166 C 655.284 -3.67936 -4.89172 0
M  V30 7167 N 654.421 -3.50614 -6.08288 0
M  V30 7168 H 659.261 -2.42204 -1.73613 0
M  V30 7169 H 656.798 -1.20239 -0.847401 0
M  V30 7170 H 658.756 -1.31982 -3.95773 0
M  V30 7171 H 657.386 -0.472431 -3.19324 0
M  V30 7172 H 656.438 -2.80935 -2.56475 0
M  V30 7173 H 657.75 -3.53228 -3.52181 0
M  V30 7174 H 656.904 -2.38427 -5.57886 0
M  V30 7175 H 655.643 -1.55672 -4.62188 0
M  V30 7176 H 654.648 -3.77525 -3.99694 0
M  V30 7177 H 655.873 -4.60851 -4.98792 0
M  V30 7178 H 653.819 -2.61417 -6.01662 0
M  V30 7179 H 653.736 -4.33634 -6.19272 0
M  V30 7180 H 655.004 -3.45276 -6.98859 0
M  V30 7181 N 659.233 0.902656 -1.29189 0
M  V30 7182 C 660.183 1.99326 -1.10695 0
M  V30 7183 C 661.167 1.60877 -0.0272521 0
M  V30 7184 O 662.359 1.75245 -0.248635 0
M  V30 7185 C 659.488 3.34265 -0.78244 0
M  V30 7186 C 658.574 3.79081 -1.90153 0
M  V30 7187 N 658.965 3.96162 -3.14466 0
M  V30 7188 C 657.263 4.08333 -1.79389 0
M  V30 7189 C 657.964 4.3388 -3.87458 0
M  V30 7190 N 656.94 4.42759 -3.15381 0
M  V30 7191 H 660.742 2.10597 -2.05003 0
M  V30 7192 H 658.256 1.09127 -1.20271 0
M  V30 7193 H 660.253 4.12097 -0.630996 0
M  V30 7194 H 658.913 3.2434 0.152754 0
M  V30 7195 H 659.924 3.81775 -3.49954 0
M  V30 7196 H 656.601 4.06982 -0.931217 0
M  V30 7197 H 657.991 4.54965 -4.94425 0
M  V30 7198 N 660.711 1.11618 1.11262 0
M  V30 7199 C 661.641 0.79846 2.19424 0
M  V30 7200 C 662.622 -0.234003 1.68483 0
M  V30 7201 O 663.807 -0.0970704 1.93957 0
M  V30 7202 C 660.937 0.242892 3.4645 0
M  V30 7203 C 659.891 1.20744 4.10615 0
M  V30 7204 C 659.217 0.512494 5.32238 0
M  V30 7205 C 660.517 2.55884 4.55325 0
M  V30 7206 H 662.211 1.70286 2.46258 0
M  V30 7207 H 659.757 0.820195 1.18359 0
M  V30 7208 H 661.71 0.00840447 4.21399 0
M  V30 7209 H 660.434 -0.696811 3.1908 0
M  V30 7210 H 659.093 1.42759 3.37662 0
M  V30 7211 H 658.741 -0.432075 5.01141 0
M  V30 7212 H 658.441 1.15583 5.7612 0
M  V30 7213 H 659.965 0.286842 6.09926 0
M  V30 7214 H 661.379 2.37946 5.21588 0
M  V30 7215 H 659.776 3.16216 5.10027 0
M  V30 7216 H 660.846 3.14968 3.68678 0
M  V30 7217 N 662.189 -1.289 0.906776 0
M  V30 7218 C 663.099 -2.31256 0.394707 0
M  V30 7219 C 664.115 -1.66231 -0.514121 0
M  V30 7220 O 665.291 -1.97347 -0.401994 0
M  V30 7221 C 662.356 -3.44792 -0.363191 0
M  V30 7222 C 661.417 -4.25391 0.578012 0
M  V30 7223 C 660.65 -5.33506 -0.143811 0
M  V30 7224 O 660.873 -5.53786 -1.36665 0
M  V30 7225 O 659.807 -5.99673 0.5173 0
M  V30 7226 H 663.633 -2.77051 1.24405 0
M  V30 7227 H 661.218 -1.33466 0.671346 0
M  V30 7228 H 663.1 -4.139 -0.791503 0
M  V30 7229 H 661.775 -3.01093 -1.18848 0
M  V30 7230 H 660.682 -3.58899 1.05558 0
M  V30 7231 H 662.015 -4.72752 1.36992 0
M  V30 7232 N 663.667 -0.670007 -1.42649 0
M  V30 7233 C 664.913 -0.190568 -2.01903 0
M  V30 7234 C 665.246 1.19817 -1.52832 0
M  V30 7235 O 664.521 1.80342 -0.728485 0
M  V30 7236 C 664.804 -0.21991 -3.59428 0
M  V30 7237 C 664.657 -1.64376 -4.18689 0
M  V30 7238 C 665.976 0.434519 -4.3795 0
M  V30 7239 H 663.095 -0.0707219 -0.733599 0
M  V30 7240 H 665.737 -0.853883 -1.69732 0
M  V30 7241 H 663.887 0.344894 -3.86966 0
M  V30 7242 H 665.559 -2.26044 -4.02122 0
M  V30 7243 H 663.802 -2.18591 -3.747 0
M  V30 7244 H 664.473 -1.61601 -5.27815 0
M  V30 7245 H 666.949 -0.0462156 -4.16074 0
M  V30 7246 H 665.825 0.38333 -5.4756 0
M  V30 7247 H 666.086 1.51135 -4.15464 0
M  V30 7248 N 665.145 1.52092 -0.413018 0
M  V30 7249 C 666.392 2.01855 0.161497 0
M  V30 7250 C 666.72 1.29845 1.44812 0
M  V30 7251 O 665.975 0.394471 1.91683 0
M  V30 7252 C 666.274 3.54529 0.4521 0
M  V30 7253 C 665.94 4.4469 -0.745788 0
M  V30 7254 C 664.602 4.69053 -1.07435 0
M  V30 7255 C 666.954 4.97742 -1.54604 0
M  V30 7256 C 664.282 5.43717 -2.20429 0
M  V30 7257 C 666.634 5.73642 -2.66678 0
M  V30 7258 C 665.298 5.96277 -3.00016 0
M  V30 7259 H 664.568 0.73864 0.0590961 0
M  V30 7260 H 667.215 1.83274 -0.555234 0
M  V30 7261 H 665.52 3.7131 1.25045 0
M  V30 7262 H 667.217 3.90546 0.909647 0
M  V30 7263 H 663.807 4.25907 -0.479725 0
M  V30 7264 H 667.991 4.78824 -1.30543 0
M  V30 7265 H 663.247 5.59462 -2.46602 0
M  V30 7266 H 667.421 6.13746 -3.29072 0
M  V30 7267 H 665.048 6.53913 -3.87688 0
M  V30 7268 N 666.623 0.143563 1.56945 0
M  V30 7269 C 667.573 -0.809115 2.1316 0
M  V30 7270 C 668.557 -1.21176 1.05855 0
M  V30 7271 O 669.749 -1.17875 1.3204 0
M  V30 7272 C 666.878 -2.04957 2.75405 0
M  V30 7273 C 665.964 -1.67018 3.89828 0
M  V30 7274 N 666.355 -0.998822 4.9584 0
M  V30 7275 C 664.653 -1.96313 4.00471 0
M  V30 7276 C 665.354 -0.816217 5.75945 0
M  V30 7277 N 664.33 -1.349 5.26596 0
M  V30 7278 H 668.132 -0.286919 2.92496 0
M  V30 7279 H 665.646 -0.0580948 1.62296 0
M  V30 7280 H 667.643 -2.74201 3.14037 0
M  V30 7281 H 666.303 -2.57697 1.97541 0
M  V30 7282 H 667.314 -0.659975 5.13678 0
M  V30 7283 H 663.991 -2.50927 3.33679 0
M  V30 7284 H 665.381 -0.287353 6.71285 0
M  V30 7285 N 668.101 -1.57061 -0.130224 0
M  V30 7286 C 669.048 -1.99517 -1.16024 0
M  V30 7287 C 670.018 -0.865452 -1.41771 0
M  V30 7288 O 671.203 -1.12882 -1.53826 0
M  V30 7289 C 668.343 -2.3951 -2.48453 0
M  V30 7290 C 667.456 -3.65848 -2.29737 0
M  V30 7291 C 666.591 -3.9487 -3.55318 0
M  V30 7292 C 665.63 -5.14426 -3.31711 0
M  V30 7293 N 664.767 -5.39375 -4.49466 0
M  V30 7294 H 669.607 -2.87305 -0.791194 0
M  V30 7295 H 667.144 -1.42129 -0.379195 0
M  V30 7296 H 669.102 -2.60731 -3.25692 0
M  V30 7297 H 667.732 -1.54779 -2.83272 0
M  V30 7298 H 666.784 -3.52307 -1.4347 0
M  V30 7299 H 668.096 -4.53241 -2.08263 0
M  V30 7300 H 667.25 -4.16679 -4.4098 0
M  V30 7301 H 665.989 -3.05931 -3.79813 0
M  V30 7302 H 664.994 -4.92473 -2.44439 0
M  V30 7303 H 666.219 -6.04933 -3.08598 0
M  V30 7304 H 664.165 -4.53391 -4.74102 0
M  V30 7305 H 664.082 -6.21069 -4.31055 0
M  V30 7306 H 665.35 -5.65694 -5.36293 0
M  V30 7307 N 669.579 0.400081 -1.52437 0
M  V30 7308 C 670.828 1.14332 -1.66166 0
M  V30 7309 C 671.141 1.91419 -0.402253 0
M  V30 7310 O 672.347 2.6824 -0.419487 0
M  V30 7311 C 670.803 2.08137 -2.9361 0
M  V30 7312 C 670.411 1.36524 -4.26691 0
M  V30 7313 C 672.155 2.82664 -3.16703 0
M  V30 7314 C 670.062 2.29031 -5.45251 0
M  V30 7315 H 668.992 0.430499 -0.61902 0
M  V30 7316 H 671.643 0.407017 -1.78929 0
M  V30 7317 H 670.025 2.85358 -2.74567 0
M  V30 7318 H 671.199 0.646061 -4.56249 0
M  V30 7319 H 669.514 0.74002 -4.09771 0
M  V30 7320 H 672.111 3.52037 -4.0246 0
M  V30 7321 H 672.454 3.46122 -2.31312 0
M  V30 7322 H 672.987 2.12541 -3.36261 0
M  V30 7323 H 669.726 1.70206 -6.33017 0
M  V30 7324 H 669.246 2.98896 -5.2002 0
M  V30 7325 H 670.925 2.89359 -5.78689 0
M  V30 7326 N 671.057 1.43213 0.657864 0
M  V30 7327 C 671.987 1.50815 1.78262 0
M  V30 7328 C 672.968 0.363211 1.66177 0
M  V30 7329 O 674.153 0.579806 1.85343 0
M  V30 7330 C 671.283 1.42625 3.16663 0
M  V30 7331 C 670.237 2.5532 3.43505 0
M  V30 7332 C 669.563 2.32184 4.81658 0
M  V30 7333 C 670.863 3.97583 3.38711 0
M  V30 7334 H 672.557 2.44954 1.72157 0
M  V30 7335 H 670.103 1.17896 0.82683 0
M  V30 7336 H 672.056 1.46548 3.95097 0
M  V30 7337 H 670.78 0.449877 3.23487 0
M  V30 7338 H 669.439 2.50742 2.6744 0
M  V30 7339 H 669.087 1.32801 4.85153 0
M  V30 7340 H 668.787 3.07724 5.00579 0
M  V30 7341 H 670.311 2.37883 5.62356 0
M  V30 7342 H 671.725 4.03673 4.07089 0
M  V30 7343 H 670.122 4.73112 3.69168 0
M  V30 7344 H 671.192 4.23049 2.36976 0
M  V30 7345 N 672.536 -0.895792 1.29666 0
M  V30 7346 C 673.764 -1.68001 1.20761 0
M  V30 7347 C 674.179 -1.87379 -0.231187 0
M  V30 7348 O 673.536 -1.41359 -1.15429 0
M  V30 7349 C 673.587 -3.06236 1.92098 0
M  V30 7350 O 673.308 -2.8774 3.30359 0
M  V30 7351 C 674.809 -4.00652 1.89717 0
M  V30 7352 H 672.029 -0.524591 0.418384 0
M  V30 7353 H 674.573 -1.11995 1.71106 0
M  V30 7354 H 672.728 -3.59007 1.45578 0
M  V30 7355 H 673.142 -3.75359 3.66342 0
M  V30 7356 H 674.616 -4.95051 2.44189 0
M  V30 7357 H 675.093 -4.30424 0.873595 0
M  V30 7358 H 675.699 -3.53815 2.35998 0
M  V30 7359 N 674.014 -1.12206 -1.10668 0
M  V30 7360 C 674.962 -0.782918 -2.19028 0
M  V30 7361 C 675.956 0.229175 -1.67843 0
M  V30 7362 O 677.162 0.0876295 -1.79787 0
M  V30 7363 H 673.537 -0.235339 -0.714227 0
M  V30 7364 H 675.508 -1.70527 -2.44874 0
M  V30 7365 C 674.257 -0.25116 -3.46792 0
M  V30 7366 H 673.58 -1.02123 -3.86537 0
M  V30 7367 H 675.02 -0.0521409 -4.23968 0
M  V30 7368 C 673.479 1.02037 -3.21076 0
M  V30 7369 O 674.009 2.09862 -3.42522 0
M  V30 7370 N 672.215 0.946348 -2.74759 0
M  V30 7371 H 671.762 0.068777 -2.57508 0
M  V30 7372 H 671.72 1.79775 -2.57931 0
M  V30 7373 N 675.492 1.28418 -0.913599 0
M  V30 7374 C 676.72 1.99106 -0.562536 0
M  V30 7375 C 677.135 1.68273 0.856137 0
M  V30 7376 O 676.492 0.935401 1.56705 0
M  V30 7377 C 676.543 3.5338 -0.761903 0
M  V30 7378 O 676.264 3.83127 -2.12475 0
M  V30 7379 C 677.765 4.41328 -0.417651 0
M  V30 7380 H 674.985 0.635798 -0.214481 0
M  V30 7381 H 677.529 1.63618 -1.22676 0
M  V30 7382 H 675.684 3.8713 -0.144676 0
M  V30 7383 H 676.098 4.77763 -2.16431 0
M  V30 7384 H 677.572 5.48642 -0.607919 0
M  V30 7385 H 678.049 4.34422 0.646108 0
M  V30 7386 H 678.655 4.13074 -1.01241 0
M  V30 7387 N 676.97 0.677563 1.42291 0
M  V30 7388 C 678.247 0.129803 1.95169 0
M  V30 7389 C 678.627 -1.35605 1.61786 0
M  V30 7390 O 677.975 -2.09361 0.915444 0
M  V30 7391 C 678.185 0.401889 3.46678 0
M  V30 7392 C 679.533 0.319889 4.23393 0
M  V30 7393 O 680.557 0.33579 3.54614 0
M  V30 7394 O 679.416 0.264459 5.4586 0
M  V30 7395 H 676.51 0.00447433 0.826988 0
M  V30 7396 H 679.056 0.752483 1.52105 0
M  V30 7397 H 677.828 1.43108 3.64192 0
M  V30 7398 H 677.451 -0.252662 3.96796 0
M  V30 7399 N 678.448 -1.51871 0.421078 0
M  V30 7400 C 679.859 -1.86644 -0.0457991 0
M  V30 7401 C 680.21 -1.33919 -1.43388 0
M  V30 7402 O 679.335 -0.683316 -2.05328 0
M  V30 7403 C 679.93 -3.38681 -0.0898844 0
M  V30 7404 C 678.489 -3.73049 -0.501127 0
M  V30 7405 C 677.636 -2.75485 0.316723 0
M  V30 7406 H 680.587 -1.45327 0.637635 0
M  V30 7407 H 680.608 -3.69636 -0.902734 0
M  V30 7408 H 680.12 -3.77025 0.920513 0
M  V30 7409 H 678.221 -3.40288 -1.51773 0
M  V30 7410 H 678.334 -4.78512 -0.237217 0
M  V30 7411 H 676.698 -2.53725 -0.222663 0
M  V30 7412 H 677.481 -3.16671 1.32569 0
M  V30 7413 N 679.926 -0.151884 -1.56866 0
M  V30 7414 C 680.874 0.80299 -2.183 0
M  V30 7415 C 681.868 1.25174 -1.14139 0
M  V30 7416 O 683.074 1.21966 -1.3238 0
M  V30 7417 H 679.449 0.277169 -0.699057 0
M  V30 7418 H 681.42 0.260699 -2.97259 0
M  V30 7419 C 680.169 2.03009 -2.82281 0
M  V30 7420 H 679.492 1.69377 -3.62148 0
M  V30 7421 H 680.932 2.67753 -3.28762 0
M  V30 7422 C 679.391 2.84123 -1.81041 0
M  V30 7423 O 679.921 3.8063 -1.28388 0
M  V30 7424 N 678.127 2.48753 -1.50234 0
M  V30 7425 H 677.674 1.70337 -1.93244 0
M  V30 7426 H 677.632 3.03316 -0.827445 0
M  V30 7427 N 681.404 1.57128 0.121893 0
M  V30 7428 C 682.681 1.75664 0.860327 0
M  V30 7429 C 683.061 0.726585 1.98202 0
M  V30 7430 O 682.409 -0.24999 2.27128 0
M  V30 7431 C 682.619 3.20571 1.37968 0
M  V30 7432 C 683.967 3.82988 1.83317 0
M  V30 7433 O 684.991 3.24156 1.47654 0
M  V30 7434 O 683.85 4.86393 2.49168 0
M  V30 7435 H 680.944 0.719153 0.408348 0
M  V30 7436 H 683.49 1.6937 0.105859 0
M  V30 7437 H 682.262 3.87056 0.57477 0
M  V30 7438 H 681.885 3.31392 2.19694 0
M  V30 7439 N 682.882 -0.391992 1.52647 0
M  V30 7440 C 683.792 -1.503 1.80131 0
M  V30 7441 C 684.808 -1.59825 0.687882 0
M  V30 7442 O 685.984 -1.76218 0.975149 0
M  V30 7443 C 683.049 -2.85863 1.96171 0
M  V30 7444 C 682.11 -2.86084 3.20085 0
M  V30 7445 C 681.343 -4.15181 3.35351 0
M  V30 7446 O 681.566 -5.09981 2.55491 0
M  V30 7447 O 680.5 -4.22603 4.28591 0
M  V30 7448 H 684.326 -1.30007 2.74466 0
M  V30 7449 H 681.911 -0.579539 1.37701 0
M  V30 7450 H 683.793 -3.66236 2.08445 0
M  V30 7451 H 682.468 -3.06189 1.05025 0
M  V30 7452 H 681.375 -2.04504 3.13256 0
M  V30 7453 H 682.708 -2.7071 4.11068 0
M  V30 7454 N 684.36 -1.4356 -0.65026 0
M  V30 7455 C 685.606 -1.45549 -1.41221 0
M  V30 7456 C 685.939 -0.0805472 -1.94033 0
M  V30 7457 O 685.214 0.899043 -1.72475 0
M  V30 7458 C 685.497 -2.50028 -2.59148 0
M  V30 7459 C 685.35 -3.96808 -2.1181 0
M  V30 7460 C 686.669 -2.51212 -3.61359 0
M  V30 7461 H 683.788 -0.529967 -0.512156 0
M  V30 7462 H 686.43 -1.75127 -0.736933 0
M  V30 7463 H 684.58 -2.24937 -3.16758 0
M  V30 7464 H 686.252 -4.32966 -1.59178 0
M  V30 7465 H 684.495 -4.09498 -1.43156 0
M  V30 7466 H 685.166 -4.6553 -2.96625 0
M  V30 7467 H 687.642 -2.73583 -3.13515 0
M  V30 7468 H 686.518 -3.26252 -4.41419 0
M  V30 7469 H 686.779 -1.54701 -4.1415 0
M  V30 7470 N 685.838 0.888903 -1.30139 0
M  V30 7471 C 686.748 2.02705 -1.18101 0
M  V30 7472 C 687.764 1.73702 -0.101809 0
M  V30 7473 O 688.94 1.98906 -0.315984 0
M  V30 7474 C 686.005 3.35616 -0.869651 0
M  V30 7475 C 685.066 3.78067 -2.03381 0
M  V30 7476 C 684.299 5.04635 -1.73721 0
M  V30 7477 O 684.522 5.66531 -0.663267 0
M  V30 7478 O 683.456 5.43399 -2.58845 0
M  V30 7479 H 687.282 2.15788 -2.13704 0
M  V30 7480 H 684.867 1.01426 -1.09695 0
M  V30 7481 H 686.749 4.15358 -0.711043 0
M  V30 7482 H 685.424 3.23651 0.0565002 0
M  V30 7483 H 684.331 2.99046 -2.24772 0
M  V30 7484 H 685.664 3.94631 -2.94155 0
M  V30 7485 N 687.317 1.12792 1.10072 0
M  V30 7486 C 688.733 0.864745 1.34143 0
M  V30 7487 C 688.933 -0.503201 1.95116 0
M  V30 7488 O 687.989 -1.25111 2.19325 0
M  V30 7489 C 689.302 1.98413 2.25949 0
M  V30 7490 C 690.85 2.01545 2.39476 0
M  V30 7491 C 691.325 3.12727 3.34613 0
M  V30 7492 N 692.816 3.12194 3.42183 0
M  V30 7493 C 693.551 3.94862 4.15779 0
M  V30 7494 N 693.047 4.87528 4.92228 0
M  V30 7495 N 694.84 3.82985 4.11435 0
M  V30 7496 H 686.991 2.00926 0.68866 0
M  V30 7497 H 689.254 0.874564 0.365844 0
M  V30 7498 H 688.96 2.97005 1.88364 0
M  V30 7499 H 688.834 1.89254 3.26287 0
M  V30 7500 H 691.221 1.0357 2.76328 0
M  V30 7501 H 691.302 2.14777 1.3894 0
M  V30 7502 H 690.946 4.10936 2.98486 0
M  V30 7503 H 690.876 2.96732 4.35037 0
M  V30 7504 H 693.367 2.45065 2.87666 0
M  V30 7505 H 693.68 5.47109 5.45794 0
M  V30 7506 H 692.025 4.91539 4.9134 0
M  V30 7507 H 695.216 3.09923 3.50807 0
M  V30 7508 H 695.389 4.47641 4.68531 0
M  V30 7509 N 688.795 -1.27931 0.920396 0
M  V30 7510 C 690.211 -1.47085 0.619537 0
M  V30 7511 C 690.411 -1.83463 -0.833291 0
M  V30 7512 O 689.467 -1.94363 -1.61181 0
M  V30 7513 C 690.78 -2.56878 1.56314 0
M  V30 7514 C 692.328 -2.70743 1.57058 0
M  V30 7515 C 692.803 -3.83687 2.50097 0
M  V30 7516 N 694.294 -3.9105 2.48262 0
M  V30 7517 C 695.029 -4.77842 3.16945 0
M  V30 7518 N 694.525 -5.69176 3.94982 0
M  V30 7519 N 696.318 -4.71509 3.06 0
M  V30 7520 H 688.469 -1.02601 1.85975 0
M  V30 7521 H 690.732 -0.511682 0.798051 0
M  V30 7522 H 690.438 -2.36923 2.59923 0
M  V30 7523 H 690.312 -3.54117 1.29928 0
M  V30 7524 H 692.699 -2.90083 0.541832 0
M  V30 7525 H 692.78 -1.74015 1.8749 0
M  V30 7526 H 692.424 -3.65101 3.53077 0
M  V30 7527 H 692.354 -4.79827 2.16964 0
M  V30 7528 H 694.845 -3.25738 1.91581 0
M  V30 7529 H 695.158 -6.32245 4.44394 0
M  V30 7530 H 693.503 -5.68995 3.99086 0
M  V30 7531 H 696.694 -3.99151 2.44533 0
M  V30 7532 H 696.867 -5.38933 3.59799 0
M  V30 7533 N 690.273 -0.685099 -1.4193 0
M  V30 7534 C 691.221 -0.00165985 -2.326 0
M  V30 7535 C 692.215 0.779678 -1.50391 0
M  V30 7536 O 693.421 0.68648 -1.66395 0
M  V30 7537 H 689.796 0.0182616 -0.751778 0
M  V30 7538 H 691.767 -0.783592 -2.87928 0
M  V30 7539 C 690.516 0.928385 -3.35077 0
M  V30 7540 H 689.839 0.336578 -3.98381 0
M  V30 7541 H 691.279 1.37509 -4.01083 0
M  V30 7542 C 689.738 2.03964 -2.68142 0
M  V30 7543 O 690.268 3.12727 -2.5212 0
M  V30 7544 N 688.474 1.81433 -2.27003 0
M  V30 7545 H 688.021 0.929807 -2.40234 0
M  V30 7546 H 687.979 2.55973 -1.82552 0
M  V30 7547 N 691.751 1.51645 -0.429126 0
M  V30 7548 C 692.714 2.26116 0.374726 0
M  V30 7549 C 693.714 1.29242 0.956714 0
M  V30 7550 O 694.904 1.53022 0.832452 0
M  V30 7551 C 692.036 3.04669 1.52937 0
M  V30 7552 H 693.229 2.9861 -0.277818 0
M  V30 7553 H 690.782 1.55236 -0.182097 0
M  V30 7554 H 691.517 2.36571 2.21821 0
M  V30 7555 H 691.302 3.75814 1.11833 0
M  V30 7556 H 692.792 3.61102 2.09751 0
M  V30 7557 N 693.229 0.160201 1.56784 0
M  V30 7558 C 694.506 -0.533355 1.88188 0
M  V30 7559 C 694.886 -1.82072 1.06831 0
M  V30 7560 O 694.234 -2.27946 0.158959 0
M  V30 7561 C 694.444 -0.786034 3.40033 0
M  V30 7562 C 695.792 -1.12097 4.09536 0
M  V30 7563 O 696.816 -0.874949 3.45287 0
M  V30 7564 O 695.675 -1.58457 5.23023 0
M  V30 7565 H 692.769 -0.273589 0.780434 0
M  V30 7566 H 695.315 0.197803 1.68543 0
M  V30 7567 H 694.087 0.124515 3.91102 0
M  V30 7568 H 693.71 -1.57091 3.65251 0
M  V30 7569 N 694.707 -1.5719 -0.113559 0
M  V30 7570 C 695.655 -2.01725 -1.158 0
M  V30 7571 C 696.649 -0.915105 -1.42556 0
M  V30 7572 O 697.855 -1.10031 -1.42454 0
M  V30 7573 H 694.23 -0.64262 -0.390569 0
M  V30 7574 H 696.201 -2.88666 -0.755926 0
M  V30 7575 C 694.95 -2.44203 -2.47507 0
M  V30 7576 H 694.273 -3.28582 -2.27758 0
M  V30 7577 H 695.713 -2.79158 -3.19135 0
M  V30 7578 C 694.172 -1.30785 -3.10478 0
M  V30 7579 O 694.702 -0.626807 -3.9678 0
M  V30 7580 N 692.908 -1.06352 -2.7044 0
M  V30 7581 H 692.455 -1.61913 -2.00355 0
M  V30 7582 H 692.413 -0.306614 -3.12901 0
M  V30 7583 N 696.185 0.383891 -1.52853 0
M  V30 7584 C 697.132 1.46924 -1.77995 0
M  V30 7585 C 698.102 1.53958 -0.623396 0
M  V30 7586 O 699.287 1.70134 -0.863657 0
M  V30 7587 C 696.427 2.84093 -1.95921 0
M  V30 7588 C 695.54 2.86171 -3.23621 0
M  V30 7589 C 694.675 4.14799 -3.31836 0
M  V30 7590 C 693.714 4.10948 -4.53639 0
M  V30 7591 N 692.851 5.31192 -4.59107 0
M  V30 7592 H 697.691 1.24786 -2.70615 0
M  V30 7593 H 695.228 0.605265 -1.34071 0
M  V30 7594 H 697.186 3.63755 -2.04299 0
M  V30 7595 H 695.816 3.04671 -1.06656 0
M  V30 7596 H 694.868 1.9885 -3.24288 0
M  V30 7597 H 696.18 2.79194 -4.13343 0
M  V30 7598 H 695.334 5.02867 -3.39425 0
M  V30 7599 H 694.073 4.24505 -2.40097 0
M  V30 7600 H 693.078 3.21268 -4.46169 0
M  V30 7601 H 694.303 4.0286 -5.467 0
M  V30 7602 H 692.249 5.41518 -3.70262 0
M  V30 7603 H 692.166 5.26311 -5.42708 0
M  V30 7604 H 693.434 6.21143 -4.70958 0
M  V30 7605 N 697.663 1.43903 0.642637 0
M  V30 7606 C 698.573 1.52349 1.78401 0
M  V30 7607 C 699.589 0.409869 1.69104 0
M  V30 7608 O 700.765 0.665548 1.90085 0
M  V30 7609 C 697.83 1.45408 3.14734 0
M  V30 7610 C 696.891 2.67528 3.35749 0
M  V30 7611 C 696.124 2.60909 4.65577 0
M  V30 7612 O 696.347 1.6627 5.45628 0
M  V30 7613 O 695.281 3.5158 4.88544 0
M  V30 7614 H 699.107 2.48752 1.7423 0
M  V30 7615 H 696.692 1.26021 0.802439 0
M  V30 7616 H 698.574 1.44019 3.96026 0
M  V30 7617 H 697.249 0.521437 3.19473 0
M  V30 7618 H 696.156 2.74487 2.5418 0
M  V30 7619 H 697.489 3.598 3.35864 0
M  V30 7620 N 699.141 -0.881989 1.30609 0
M  V30 7621 C 700.418 -1.61563 1.10258 0
M  V30 7622 C 700.798 -2.08228 -0.347053 0
M  V30 7623 O 700.146 -1.85151 -1.33908 0
M  V30 7624 C 700.356 -2.78287 2.10612 0
M  V30 7625 C 701.704 -3.48545 2.4249 0
M  V30 7626 O 702.728 -2.88479 2.08945 0
M  V30 7627 O 701.587 -4.56873 2.99883 0
M  V30 7628 H 698.681 -0.710238 0.423663 0
M  V30 7629 H 701.227 -0.928503 1.42045 0
M  V30 7630 H 699.999 -2.41131 3.08174 0
M  V30 7631 H 699.622 -3.54695 1.79659 0
M  V30 7632 N 700.619 -1.13374 -1.09472 0
M  V30 7633 C 701.549 -0.833268 -2.18126 0
M  V30 7634 C 702.53 0.207169 -1.68834 0
M  V30 7635 O 703.715 0.0662012 -1.94087 0
M  V30 7636 C 700.845 -0.297979 -3.46019 0
M  V30 7637 C 699.799 -1.27261 -4.08642 0
M  V30 7638 C 699.125 -0.597104 -5.31356 0
M  V30 7639 C 700.425 -2.63095 -4.51197 0
M  V30 7640 H 702.119 -1.74182 -2.43518 0
M  V30 7641 H 699.665 -0.838921 -1.17039 0
M  V30 7642 H 701.618 -0.0754444 -4.21332 0
M  V30 7643 H 700.342 0.645959 -3.20148 0
M  V30 7644 H 699.001 -1.48113 -3.35348 0
M  V30 7645 H 698.649 0.352293 -5.01765 0
M  V30 7646 H 698.349 -1.24734 -5.74208 0
M  V30 7647 H 699.873 -0.38384 -6.09392 0
M  V30 7648 H 701.287 -2.46214 -5.17737 0
M  V30 7649 H 699.684 -3.2429 -5.04932 0
M  V30 7650 H 700.754 -3.20793 -3.6362 0
M  V30 7651 N 702.098 1.27442 -0.927168 0
M  V30 7652 C 703.326 1.98498 -0.583622 0
M  V30 7653 C 703.741 1.69171 0.838241 0
M  V30 7654 O 703.098 0.951969 1.55704 0
M  V30 7655 C 703.149 3.52552 -0.799341 0
M  V30 7656 O 702.87 3.80851 -2.16527 0
M  V30 7657 C 704.371 4.4086 -0.464436 0
M  V30 7658 H 701.591 0.633487 -0.221213 0
M  V30 7659 H 704.135 1.62308 -1.24404 0
M  V30 7660 H 702.29 3.86955 -0.185728 0
M  V30 7661 H 702.704 4.75441 -2.21487 0
M  V30 7662 H 704.178 5.47967 -0.666075 0
M  V30 7663 H 704.655 4.35082 0.599995 0
M  V30 7664 H 705.261 4.11977 -1.05617 0
M  V30 7665 N 703.576 0.692616 1.41565 0
M  V30 7666 C 704.801 0.229776 2.06123 0
M  V30 7667 C 705.226 -1.11119 1.5177 0
M  V30 7668 O 704.584 -1.69498 0.643444 0
M  V30 7669 C 704.632 0.19469 3.60074 0
M  V30 7670 O 703.736 -0.831366 4.03933 0
M  V30 7671 H 703.077 0.113002 0.654314 0
M  V30 7672 H 705.607 0.946645 1.81383 0
M  V30 7673 H 705.617 0.0245487 4.07993 0
M  V30 7674 H 704.292 1.17339 3.99004 0
M  V30 7675 H 702.869 -0.630819 3.67526 0
M  V30 7676 N 705.054 -1.51416 0.437162 0
M  V30 7677 C 706.017 -2.26312 -0.362729 0
M  V30 7678 C 707.017 -1.29748 -0.949847 0
M  V30 7679 O 708.207 -1.53462 -0.824325 0
M  V30 7680 C 705.339 -3.05475 -1.5132 0
M  V30 7681 H 706.532 -2.98459 0.29365 0
M  V30 7682 H 704.085 -1.55137 0.190327 0
M  V30 7683 H 704.82 -2.37744 -2.20563 0
M  V30 7684 H 704.605 -3.76401 -1.09838 0
M  V30 7685 H 706.095 -3.62209 -2.07833 0
M  V30 7686 N 706.532 -0.168513 -1.56696 0
M  V30 7687 C 707.809 0.523367 -1.88468 0
M  V30 7688 C 708.189 1.81503 -1.07796 0
M  V30 7689 O 707.537 2.27859 -0.171045 0
M  V30 7690 C 707.747 0.767991 -3.40445 0
M  V30 7691 C 709.095 1.09924 -4.10124 0
M  V30 7692 O 710.119 0.856625 -3.45746 0
M  V30 7693 O 708.978 1.55681 -5.23856 0
M  V30 7694 H 706.072 0.269447 -0.781874 0
M  V30 7695 H 708.618 -0.206739 -1.68436 0
M  V30 7696 H 707.39 -0.145254 -3.9103 0
M  V30 7697 H 707.013 1.55151 -3.66079 0
M  V30 7698 N 708.01 1.57248 0.105221 0
M  V30 7699 C 709.421 1.74612 0.660865 0
M  V30 7700 C 709.772 0.789231 1.79626 0
M  V30 7701 O 708.897 -0.0346611 2.16372 0
M  V30 7702 C 709.492 3.16624 1.20559 0
M  V30 7703 C 708.051 3.35447 1.7074 0
M  V30 7704 C 707.198 2.70445 0.612764 0
M  V30 7705 H 710.149 1.5824 -0.12079 0
M  V30 7706 H 710.17 3.18937 2.07508 0
M  V30 7707 H 709.682 3.86245 0.379012 0
M  V30 7708 H 707.783 2.7089 2.5583 0
M  V30 7709 H 707.896 4.43702 1.80736 0
M  V30 7710 H 706.26 2.32061 1.04975 0
M  V30 7711 H 707.043 3.42699 -0.203066 0
M  V30 7712 N 709.488 -0.375779 1.53054 0
M  V30 7713 C 710.398 -1.48381 1.81715 0
M  V30 7714 C 711.414 -1.59087 0.704795 0
M  V30 7715 O 712.59 -1.75174 0.993785 0
M  V30 7716 C 709.655 -2.83767 1.99192 0
M  V30 7717 C 708.716 -2.82673 3.23102 0
M  V30 7718 C 707.949 -4.11601 3.39736 0
M  V30 7719 O 708.172 -5.07243 2.60885 0
M  V30 7720 O 707.106 -4.18034 4.33049 0
M  V30 7721 H 710.932 -1.27089 2.7583 0
M  V30 7722 H 708.517 -0.564902 1.38308 0
M  V30 7723 H 710.399 -3.64004 2.12318 0
M  V30 7724 H 709.074 -3.05057 1.08267 0
M  V30 7725 H 707.981 -2.0117 3.15407 0
M  V30 7726 H 709.314 -2.66335 4.13916 0
M  V30 7727 N 710.966 -1.44241 -0.634997 0
M  V30 7728 C 712.214 -1.46531 -1.39187 0
M  V30 7729 C 712.535 -0.0976441 -1.94755 0
M  V30 7730 O 711.805 0.869528 -1.75545 0
M  V30 7731 H 710.385 -0.539544 -0.516625 0
M  V30 7732 H 713.047 -1.79989 -0.747655 0
M  V30 7733 H 712.143 -2.18848 -2.22513 0
M  V30 7734 N 712.444 0.87505 -1.31075 0
M  V30 7735 C 713.376 1.98773 -1.14114 0
M  V30 7736 C 714.389 1.62595 -0.0816119 0
M  V30 7737 O 715.578 1.75449 -0.32861 0
M  V30 7738 C 712.678 3.31159 -0.720224 0
M  V30 7739 C 711.851 3.9571 -1.86366 0
M  V30 7740 C 710.91 5.06407 -1.42965 0
M  V30 7741 O 709.936 5.27501 -2.13848 0
M  V30 7742 N 711.138 5.79649 -0.314194 0
M  V30 7743 H 713.903 2.1387 -2.09951 0
M  V30 7744 H 711.464 1.04873 -1.23342 0
M  V30 7745 H 713.456 4.0259 -0.412687 0
M  V30 7746 H 712.026 3.12257 0.146396 0
M  V30 7747 H 711.246 3.17324 -2.33879 0
M  V30 7748 H 712.534 4.35576 -2.62966 0
M  V30 7749 H 711.932 5.65025 0.276228 0
M  V30 7750 H 710.489 6.51766 -0.0661641 0
M  V30 7751 N 713.922 1.13953 1.08869 0
M  V30 7752 C 715.171 0.899431 1.80536 0
M  V30 7753 C 715.484 -0.575781 1.86933 0
M  V30 7754 O 716.69 -0.932988 2.54966 0
M  V30 7755 C 715.146 1.55963 3.24351 0
M  V30 7756 C 714.754 3.07077 3.26202 0
M  V30 7757 C 716.498 1.40046 4.00733 0
M  V30 7758 C 714.405 3.65955 4.64576 0
M  V30 7759 H 713.335 0.332849 0.676556 0
M  V30 7760 H 715.986 1.3679 1.22314 0
M  V30 7761 H 714.368 1.01883 3.82669 0
M  V30 7762 H 715.542 3.67785 2.77617 0
M  V30 7763 H 713.857 3.22576 2.63312 0
M  V30 7764 H 716.454 1.81441 5.02974 0
M  V30 7765 H 716.797 0.345993 4.1486 0
M  V30 7766 H 717.33 1.91137 3.48872 0
M  V30 7767 H 714.069 4.71234 4.55652 0
M  V30 7768 H 713.589 3.10027 5.13462 0
M  V30 7769 H 715.268 3.65968 5.33551 0
M  V30 7770 N 715.4 -1.26948 0.933913 0
M  V30 7771 C 716.333 -2.24977 0.382169 0
M  V30 7772 C 717.311 -1.53893 -0.524949 0
M  V30 7773 O 718.495 -1.82699 -0.464048 0
M  V30 7774 C 715.622 -3.35676 -0.451615 0
M  V30 7775 C 714.668 -4.24686 0.392947 0
M  V30 7776 S 715.501 -5.03898 1.81237 0
M  V30 7777 C 716.657 -6.18078 0.986443 0
M  V30 7778 H 716.89 -2.71429 1.21299 0
M  V30 7779 H 714.423 -1.35701 0.736523 0
M  V30 7780 H 716.381 -3.99901 -0.926797 0
M  V30 7781 H 715.042 -2.8785 -1.25703 0
M  V30 7782 H 714.235 -5.03402 -0.245533 0
M  V30 7783 H 713.837 -3.65288 0.802537 0
M  V30 7784 H 716.129 -6.77125 0.225321 0
M  V30 7785 H 717.072 -6.86216 1.74682 0
M  V30 7786 H 717.48 -5.62047 0.525711 0
M  V30 7787 N 716.879 -0.700114 -1.41195 0
M  V30 7788 C 718.295 -0.372114 -1.55201 0
M  V30 7789 C 718.495 1.12053 -1.6747 0
M  V30 7790 O 717.551 1.90642 -1.65566 0
M  V30 7791 C 718.864 -1.12462 -2.78878 0
M  V30 7792 C 720.412 -1.10941 -2.92679 0
M  V30 7793 C 720.887 -1.84376 -4.19249 0
M  V30 7794 N 722.378 -1.81368 -4.26216 0
M  V30 7795 C 723.113 -2.35024 -5.23021 0
M  V30 7796 N 722.609 -2.9717 -6.25829 0
M  V30 7797 N 724.402 -2.25254 -5.14992 0
M  V30 7798 H 716.553 -1.66816 -1.31477 0
M  V30 7799 H 718.816 -0.704223 -0.634644 0
M  V30 7800 H 718.522 -2.17937 -2.76037 0
M  V30 7801 H 718.396 -0.706152 -3.70531 0
M  V30 7802 H 720.783 -0.062911 -2.95033 0
M  V30 7803 H 720.864 -1.56698 -2.02187 0
M  V30 7804 H 720.508 -2.89008 -4.17656 0
M  V30 7805 H 720.438 -1.3605 -5.08722 0
M  V30 7806 H 722.929 -1.36062 -3.52556 0
M  V30 7807 H 723.242 -3.35668 -6.96094 0
M  V30 7808 H 721.587 -3.01249 -6.26318 0
M  V30 7809 H 724.778 -1.76372 -4.33602 0
M  V30 7810 H 724.951 -2.67373 -5.90268 0
M  V30 7811 N 718.357 1.51182 -0.445186 0
M  V30 7812 C 719.267 2.31692 0.368255 0
M  V30 7813 C 720.283 1.40942 1.02036 0
M  V30 7814 O 721.459 1.74011 1.01401 0
M  V30 7815 C 718.524 3.14903 1.45041 0
M  V30 7816 C 717.585 4.21442 0.817615 0
M  V30 7817 C 716.818 5.00677 1.8482 0
M  V30 7818 O 717.041 4.80644 3.07145 0
M  V30 7819 O 715.975 5.84559 1.43438 0
M  V30 7820 H 719.801 3.0232 -0.289219 0
M  V30 7821 H 717.386 1.47951 -0.207555 0
M  V30 7822 H 719.268 3.66612 2.07783 0
M  V30 7823 H 717.943 2.47031 2.09182 0
M  V30 7824 H 716.85 3.73791 0.151931 0
M  V30 7825 H 718.183 4.9171 0.219564 0
M  V30 7826 N 719.835 0.176821 1.56605 0
M  V30 7827 C 721.065 -0.472142 2.01133 0
M  V30 7828 C 721.473 -1.56979 1.05614 0
M  V30 7829 O 720.816 -1.83632 0.0500137 0
M  V30 7830 C 720.878 -1.10547 3.42081 0
M  V30 7831 C 720.542 -0.148806 4.56758 0
M  V30 7832 C 721.539 0.634939 5.16008 0
M  V30 7833 C 719.224 -0.0430325 5.02282 0
M  V30 7834 C 721.218 1.5116 6.19217 0
M  V30 7835 C 718.905 0.83721 6.05338 0
M  V30 7836 C 719.903 1.61311 6.63677 0
M  V30 7837 O 719.591 2.47863 7.64735 0
M  V30 7838 H 719.323 -0.124725 0.664394 0
M  V30 7839 H 721.877 0.277329 2.03519 0
M  V30 7840 H 720.107 -1.90318 3.36625 0
M  V30 7841 H 721.796 -1.6572 3.70529 0
M  V30 7842 H 722.562 0.563424 4.81716 0
M  V30 7843 H 718.441 -0.636753 4.56581 0
M  V30 7844 H 721.985 2.11767 6.64681 0
M  V30 7845 H 717.882 0.909908 6.39055 0
M  V30 7846 H 718.65 2.4144 7.8208 0
M  V30 7847 N 721.313 -1.57302 -0.09688 0
M  V30 7848 C 722.276 -2.00976 -1.10188 0
M  V30 7849 C 723.276 -0.903009 -1.3305 0
M  V30 7850 O 724.466 -1.16853 -1.29194 0
M  V30 7851 C 721.598 -2.36893 -2.45142 0
M  V30 7852 H 722.791 -2.9098 -0.726003 0
M  V30 7853 H 720.344 -1.52515 -0.341872 0
M  V30 7854 H 721.079 -1.49837 -2.8761 0
M  V30 7855 H 720.864 -3.17632 -2.29897 0
M  V30 7856 H 722.354 -2.71345 -3.1743 0
M  V30 7857 N 722.791 0.367657 -1.53252 0
M  V30 7858 C 723.754 1.43308 -1.78873 0
M  V30 7859 C 724.754 1.46671 -0.659115 0
M  V30 7860 O 725.944 1.47468 -0.927306 0
M  V30 7861 C 723.076 2.82442 -1.90892 0
M  V30 7862 H 724.269 1.21864 -2.74024 0
M  V30 7863 H 721.822 0.600668 -1.44297 0
M  V30 7864 H 722.557 3.09202 -0.978 0
M  V30 7865 H 722.342 2.81399 -2.73051 0
M  V30 7866 H 723.832 3.59601 -2.12314 0
M  V30 7867 N 724.269 1.44576 0.627338 0
M  V30 7868 C 725.546 1.38033 1.38586 0
M  V30 7869 C 725.926 0.0409468 2.1106 0
M  V30 7870 O 725.274 -0.976582 2.0658 0
M  V30 7871 C 725.484 2.58102 2.34913 0
M  V30 7872 C 726.832 3.02332 2.98129 0
M  V30 7873 O 727.856 2.58334 2.45238 0
M  V30 7874 O 726.715 3.78628 3.94085 0
M  V30 7875 H 723.809 0.546801 0.620434 0
M  V30 7876 H 726.355 1.56672 0.652077 0
M  V30 7877 H 725.127 3.4719 1.80485 0
M  V30 7878 H 724.75 2.41696 3.15703 0
M  V30 7879 N 725.747 -0.868086 1.31537 0
M  V30 7880 C 727.158 -1.437 1.19195 0
M  V30 7881 C 727.509 -1.95169 -0.200842 0
M  V30 7882 O 726.634 -1.86432 -1.09872 0
M  V30 7883 C 727.229 -2.612 2.15778 0
M  V30 7884 C 725.788 -3.1413 2.07363 0
M  V30 7885 C 724.935 -1.86845 2.049 0
M  V30 7886 H 727.886 -0.676457 1.43561 0
M  V30 7887 H 727.907 -3.37948 1.74847 0
M  V30 7888 H 727.419 -2.23709 3.17137 0
M  V30 7889 H 725.52 -3.56238 1.09204 0
M  V30 7890 H 725.633 -3.76285 2.96557 0
M  V30 7891 H 723.997 -2.05886 1.49943 0
M  V30 7892 H 724.78 -1.51589 3.08019 0
M  V30 7893 N 727.225 -1.14528 -1.08264 0
M  V30 7894 C 728.135 -0.84728 -2.18765 0
M  V30 7895 C 729.151 0.172826 -1.7314 0
M  V30 7896 O 730.327 0.000985336 -2.014 0
M  V30 7897 C 727.392 -0.330633 -3.4512 0
M  V30 7898 C 726.453 -1.41348 -4.05363 0
M  V30 7899 C 725.686 -0.921387 -5.25686 0
M  V30 7900 O 725.909 0.236587 -5.69909 0
M  V30 7901 O 724.843 -1.70101 -5.77364 0
M  V30 7902 H 728.669 -1.7708 -2.46731 0
M  V30 7903 H 726.254 -0.923661 -1.17426 0
M  V30 7904 H 728.136 -0.0485053 -4.21372 0
M  V30 7905 H 726.811 0.565147 -3.18728 0
M  V30 7906 H 725.718 -1.74908 -3.30693 0
M  V30 7907 H 727.051 -2.28383 -4.36007 0
M  V30 7908 N 728.703 1.26451 -0.940633 0
M  V30 7909 C 729.933 1.97581 -0.603766 0
M  V30 7910 C 730.341 1.70246 0.825395 0
M  V30 7911 O 729.684 0.967001 1.56188 0
M  V30 7912 C 729.746 3.51256 -0.765463 0
M  V30 7913 C 729.41 4.0224 -2.16915 0
M  V30 7914 C 730.407 4.1402 -3.14457 0
M  V30 7915 C 728.092 4.36263 -2.48958 0
M  V30 7916 C 730.086 4.59117 -4.42143 0
M  V30 7917 C 727.773 4.81048 -3.76877 0
M  V30 7918 C 728.771 4.92436 -4.73282 0
M  V30 7919 O 728.459 5.36234 -5.98923 0
M  V30 7920 H 728.191 0.636948 -0.226436 0
M  V30 7921 H 730.745 1.61941 -1.2635 0
M  V30 7922 H 728.975 3.86669 -0.0485956 0
M  V30 7923 H 730.664 4.03597 -0.431738 0
M  V30 7924 H 731.43 3.87981 -2.91026 0
M  V30 7925 H 727.309 4.26634 -1.74656 0
M  V30 7926 H 730.853 4.6792 -5.17394 0
M  V30 7927 H 726.75 5.06531 -4.00121 0
M  V30 7928 H 727.518 5.54456 -6.02097 0
M  V30 7929 N 730.181 0.707592 1.40822 0
M  V30 7930 C 731.597 0.38034 1.55002 0
M  V30 7931 C 731.797 -1.11163 1.68062 0
M  V30 7932 O 730.853 -1.89761 1.66574 0
M  V30 7933 C 732.166 1.1394 2.78277 0
M  V30 7934 C 733.714 1.12492 2.92087 0
M  V30 7935 C 734.189 1.86597 4.18265 0
M  V30 7936 N 735.68 1.83626 4.25248 0
M  V30 7937 C 736.415 2.37794 5.21768 0
M  V30 7938 N 735.911 3.00485 6.24244 0
M  V30 7939 N 737.704 2.27982 5.13791 0
M  V30 7940 H 729.855 1.67511 1.3059 0
M  V30 7941 H 732.118 0.707579 0.630901 0
M  V30 7942 H 731.824 2.19398 2.74877 0
M  V30 7943 H 731.698 0.725793 3.70151 0
M  V30 7944 H 734.085 0.0785564 2.94995 0
M  V30 7945 H 734.166 1.57768 2.01353 0
M  V30 7946 H 733.81 2.91219 4.16118 0
M  V30 7947 H 733.74 1.38746 5.07993 0
M  V30 7948 H 736.231 1.3793 3.51829 0
M  V30 7949 H 736.544 3.39355 6.94304 0
M  V30 7950 H 734.889 3.04567 6.24711 0
M  V30 7951 H 738.08 1.78669 4.3266 0
M  V30 7952 H 738.253 2.70499 5.88841 0
M  V30 7953 N 731.66 -1.50943 0.453197 0
M  V30 7954 C 732.607 -2.28128 -0.350197 0
M  V30 7955 C 733.577 -1.32398 -1.00299 0
M  V30 7956 O 734.762 -1.61319 -1.01887 0
M  V30 7957 C 731.902 -3.13782 -1.43649 0
M  V30 7958 C 731.015 -4.24523 -0.800255 0
M  V30 7959 C 730.15 -4.97462 -1.86293 0
M  V30 7960 C 729.189 -6.00102 -1.20598 0
M  V30 7961 N 728.326 -6.66387 -2.21071 0
M  V30 7962 H 733.166 -2.96337 0.31434 0
M  V30 7963 H 730.703 -1.46151 0.166863 0
M  V30 7964 H 732.661 -3.6178 -2.07776 0
M  V30 7965 H 731.291 -2.47655 -2.07044 0
M  V30 7966 H 730.343 -3.80371 -0.0468651 0
M  V30 7967 H 731.655 -4.98009 -0.280777 0
M  V30 7968 H 730.809 -5.49088 -2.58044 0
M  V30 7969 H 729.548 -4.23642 -2.41617 0
M  V30 7970 H 728.553 -5.47753 -0.474 0
M  V30 7971 H 729.778 -6.75887 -0.659859 0
M  V30 7972 H 727.724 -5.9537 -2.75446 0
M  V30 7973 H 727.641 -7.3569 -1.74058 0
M  V30 7974 H 728.909 -7.22638 -2.92257 0
M  V30 7975 N 733.138 -0.185124 -1.56509 0
M  V30 7976 C 734.088 0.752315 -2.15231 0
M  V30 7977 C 735.072 1.18327 -1.0903 0
M  V30 7978 O 736.264 1.14333 -1.35119 0
M  V30 7979 C 733.393 1.97583 -2.80742 0
M  V30 7980 C 732.479 1.56623 -3.94119 0
M  V30 7981 N 732.87 0.867008 -4.98314 0
M  V30 7982 C 731.168 1.85626 -4.05535 0
M  V30 7983 C 731.869 0.663228 -5.77907 0
M  V30 7984 N 730.845 1.20891 -5.29987 0
M  V30 7985 H 734.647 0.209267 -2.93154 0
M  V30 7986 H 732.161 0.0150444 -1.62393 0
M  V30 7987 H 734.158 2.65779 -3.21197 0
M  V30 7988 H 732.818 2.52369 -2.04303 0
M  V30 7989 H 733.829 0.52355 -5.15247 0
M  V30 7990 H 730.506 2.41992 -3.40215 0
M  V30 7991 H 731.896 0.109273 -6.71811 0
M  V30 7992 N 734.616 1.57351 0.0885366 0
M  V30 7993 C 735.546 2.05561 1.10757 0
M  V30 7994 C 736.527 0.945789 1.41382 0
M  V30 7995 O 737.712 1.21747 1.51299 0
M  V30 7996 C 734.842 2.48554 2.42566 0
M  V30 7997 C 733.796 3.63259 2.26334 0
M  V30 7998 C 733.122 3.9225 3.63378 0
M  V30 7999 C 734.422 4.93913 1.69844 0
M  V30 8000 H 736.116 2.90946 0.706468 0
M  V30 8001 H 733.662 1.39968 0.338385 0
M  V30 8002 H 735.615 2.8089 3.14132 0
M  V30 8003 H 734.339 1.60176 2.84625 0
M  V30 8004 H 732.998 3.31179 1.57213 0
M  V30 8005 H 732.646 3.0103 4.02976 0
M  V30 8006 H 732.346 4.69478 3.53362 0
M  V30 8007 H 733.87 4.27067 4.36401 0
M  V30 8008 H 735.284 5.24588 2.31258 0
M  V30 8009 H 733.681 5.75349 1.70569 0
M  V30 8010 H 734.751 4.80409 0.65843 0
M  V30 8011 N 736.094 -0.359525 1.53444 0
M  V30 8012 C 737.004 -1.46445 1.83278 0
M  V30 8013 C 738.02 -1.5833 0.721629 0
M  V30 8014 O 739.196 -1.7411 1.01231 0
M  V30 8015 C 736.261 -2.81638 2.02191 0
M  V30 8016 C 735.322 -2.7923 3.26082 0
M  V30 8017 C 734.555 -4.07974 3.44082 0
M  V30 8018 O 734.778 -5.04447 2.66251 0
M  V30 8019 O 733.712 -4.13417 4.37458 0
M  V30 8020 H 737.538 -1.24156 2.77162 0
M  V30 8021 H 735.123 -0.550201 1.389 0
M  V30 8022 H 737.005 -3.61732 2.16167 0
M  V30 8023 H 735.68 -3.03892 1.11496 0
M  V30 8024 H 734.587 -1.97813 3.17523 0
M  V30 8025 H 735.92 -2.6193 4.16718 0
M  V30 8026 N 737.572 -1.44907 -0.619662 0
M  V30 8027 C 738.818 -1.48512 -1.38102 0
M  V30 8028 C 739.151 -0.121686 -1.93818 0
M  V30 8029 O 738.426 0.862256 -1.74343 0
M  V30 8030 C 738.709 -2.55469 -2.53787 0
M  V30 8031 C 738.562 -4.01212 -2.03345 0
M  V30 8032 C 739.881 -2.58821 -3.55949 0
M  V30 8033 H 737 -0.540712 -0.500799 0
M  V30 8034 H 739.642 -1.7665 -0.69962 0
M  V30 8035 H 737.792 -2.31606 -3.11915 0
M  V30 8036 H 739.464 -4.36245 -1.49959 0
M  V30 8037 H 737.707 -4.12443 -1.34438 0
M  V30 8038 H 738.378 -4.71717 -2.86683 0
M  V30 8039 H 740.854 -2.80172 -3.07641 0
M  V30 8040 H 739.73 -3.35542 -4.34399 0
M  V30 8041 H 739.991 -1.63451 -4.10775 0
M  V30 8042 N 739.05 0.861098 -1.31996 0
M  V30 8043 C 740.297 1.61481 -1.22188 0
M  V30 8044 C 740.625 1.93276 0.217853 0
M  V30 8045 O 739.88 1.56942 1.16909 0
M  V30 8046 C 740.179 2.94822 -2.02027 0
M  V30 8047 C 739.845 2.82483 -3.51446 0
M  V30 8048 C 738.507 2.78825 -3.92186 0
M  V30 8049 C 740.859 2.68878 -4.46491 0
M  V30 8050 C 738.187 2.59433 -5.26224 0
M  V30 8051 C 740.539 2.51022 -5.80664 0
M  V30 8052 C 739.203 2.45753 -6.20614 0
M  V30 8053 H 738.473 0.590902 -0.447119 0
M  V30 8054 H 741.12 0.999376 -1.63355 0
M  V30 8055 H 739.425 3.6045 -1.53569 0
M  V30 8056 H 741.122 3.52149 -1.91812 0
M  V30 8057 H 737.712 2.86152 -3.19085 0
M  V30 8058 H 741.896 2.70754 -4.1594 0
M  V30 8059 H 737.152 2.53784 -5.5624 0
M  V30 8060 H 741.326 2.39473 -6.53931 0
M  V30 8061 H 738.953 2.30485 -7.24417 0
M  V30 8062 N 740.528 1.15101 1.07655 0
M  V30 8063 C 741.478 0.813448 2.12995 0
M  V30 8064 C 742.462 -0.200899 1.59641 0
M  V30 8065 O 743.654 -0.00209918 1.77 0
M  V30 8066 C 740.783 0.301078 3.41977 0
M  V30 8067 C 739.869 1.3454 4.02194 0
M  V30 8068 N 740.26 2.55181 4.36711 0
M  V30 8069 C 738.558 1.19742 4.29625 0
M  V30 8070 C 739.259 3.22094 4.84387 0
M  V30 8071 N 738.235 2.49486 4.82968 0
M  V30 8072 H 742.037 1.73105 2.37511 0
M  V30 8073 H 739.551 1.03601 1.25063 0
M  V30 8074 H 741.548 0.040914 4.1688 0
M  V30 8075 H 740.208 -0.610629 3.18907 0
M  V30 8076 H 741.219 2.92349 4.27496 0
M  V30 8077 H 737.896 0.345353 4.16069 0
M  V30 8078 H 739.286 4.24996 5.20411 0
M  V30 8079 N 742.006 -1.2595 0.947325 0
M  V30 8080 C 742.953 -2.26159 0.460497 0
M  V30 8081 C 743.923 -1.58919 -0.483125 0
M  V30 8082 O 745.108 -1.86603 -0.397983 0
M  V30 8083 C 742.248 -3.441 -0.26247 0
M  V30 8084 C 741.361 -4.25999 0.717539 0
M  V30 8085 C 740.496 -5.31193 -0.0272486 0
M  V30 8086 C 739.535 -6.04774 0.944177 0
M  V30 8087 N 738.672 -7.01721 0.230741 0
M  V30 8088 H 743.512 -2.67173 1.31995 0
M  V30 8089 H 741.049 -1.31358 0.662088 0
M  V30 8090 H 743.007 -4.11317 -0.698137 0
M  V30 8091 H 741.637 -3.03983 -1.08602 0
M  V30 8092 H 740.689 -3.58513 1.27171 0
M  V30 8093 H 742.001 -4.76981 1.45913 0
M  V30 8094 H 741.155 -6.04451 -0.521903 0
M  V30 8095 H 739.894 -4.81066 -0.801682 0
M  V30 8096 H 738.899 -5.30338 1.4499 0
M  V30 8097 H 740.124 -6.56991 1.71872 0
M  V30 8098 H 738.07 -6.53895 -0.525088 0
M  V30 8099 H 737.987 -7.50484 0.911556 0
M  V30 8100 H 739.255 -7.79122 -0.242616 0
M  V30 8101 N 743.484 -0.715051 -1.40445 0
M  V30 8102 C 744.733 -0.251322 -2.00128 0
M  V30 8103 C 745.046 1.16194 -1.57347 0
M  V30 8104 O 746.252 1.72416 -2.09726 0
M  V30 8105 C 744.708 -0.398407 -3.57688 0
M  V30 8106 C 744.316 -1.81828 -4.09442 0
M  V30 8107 C 746.06 0.00455625 -4.245 0
M  V30 8108 C 743.967 -1.91598 -5.59503 0
M  V30 8109 H 742.897 -0.0902081 -0.748584 0
M  V30 8110 H 745.548 -0.886062 -1.6069 0
M  V30 8111 H 743.93 0.304908 -3.94824 0
M  V30 8112 H 745.104 -2.55193 -3.83684 0
M  V30 8113 H 743.419 -2.17266 -3.55225 0
M  V30 8114 H 746.016 -0.0477303 -5.34679 0
M  V30 8115 H 746.359 1.04636 -4.02935 0
M  V30 8116 H 746.892 -0.649184 -3.92467 0
M  V30 8117 H 743.631 -2.93898 -5.85922 0
M  V30 8118 H 743.151 -1.22644 -5.87127 0
M  V30 8119 H 744.83 -1.68785 -6.24596 0
M  V30 8120 N 744.962 1.50701 -0.461195 0
M  V30 8121 C 745.892 2.31182 0.328184 0
M  V30 8122 C 746.873 1.37644 0.999408 0
M  V30 8123 O 748.058 1.66565 0.99848 0
M  V30 8124 C 745.188 3.17113 1.41621 0
M  V30 8125 C 744.142 4.19124 0.867148 0
M  V30 8126 C 743.468 4.93728 2.05272 0
M  V30 8127 C 744.768 5.22174 -0.114808 0
M  V30 8128 H 746.462 2.97423 -0.343501 0
M  V30 8129 H 744.008 1.43033 -0.166641 0
M  V30 8130 H 745.961 3.72208 1.97584 0
M  V30 8131 H 744.685 2.48739 2.11652 0
M  V30 8132 H 743.344 3.65116 0.329557 0
M  V30 8133 H 742.992 4.21835 2.73978 0
M  V30 8134 H 742.692 5.62724 1.69161 0
M  V30 8135 H 744.216 5.51654 2.61744 0
M  V30 8136 H 745.63 5.72198 0.355316 0
M  V30 8137 H 744.027 5.98833 -0.389689 0
M  V30 8138 H 745.097 4.7353 -1.04391 0
M  V30 8139 N 746.441 0.193421 1.56409 0
M  V30 8140 C 747.669 -0.451438 2.01915 0
M  V30 8141 C 748.084 -1.55306 1.07357 0
M  V30 8142 O 747.441 -1.82333 0.0781512 0
M  V30 8143 C 747.492 -1.00931 3.47124 0
M  V30 8144 O 747.213 0.0483623 4.38073 0
M  V30 8145 C 748.714 -1.73021 4.0814 0
M  V30 8146 H 745.934 -0.113495 0.661332 0
M  V30 8147 H 748.478 0.301636 2.02263 0
M  V30 8148 H 746.633 -1.71277 3.47481 0
M  V30 8149 H 747.047 -0.366644 5.23217 0
M  V30 8150 H 748.521 -2.07289 5.11601 0
M  V30 8151 H 748.998 -2.6333 3.51502 0
M  V30 8152 H 749.604 -1.07264 4.11551 0
M  V30 8153 N 747.919 -1.57396 -0.0801906 0
M  V30 8154 C 748.867 -2.04136 -1.11495 0
M  V30 8155 C 749.861 -0.945137 -1.40583 0
M  V30 8156 O 751.067 -1.13028 -1.40088 0
M  V30 8157 H 747.442 -0.65076 -0.37685 0
M  V30 8158 H 749.413 -2.90205 -0.694526 0
M  V30 8159 C 748.162 -2.49399 -2.42272 0
M  V30 8160 H 747.485 -3.33339 -2.20737 0
M  V30 8161 H 748.925 -2.85864 -3.13142 0
M  V30 8162 C 747.384 -1.37341 -3.07635 0
M  V30 8163 O 747.914 -0.710829 -3.95361 0
M  V30 8164 N 746.12 -1.12064 -2.68123 0
M  V30 8165 H 745.667 -1.66126 -1.96875 0
M  V30 8166 H 745.625 -0.372916 -3.12181 0
M  V30 8167 N 749.397 0.351382 -1.53633 0
M  V30 8168 C 750.625 1.11275 -1.74429 0
M  V30 8169 C 751.04 1.82602 -0.479798 0
M  V30 8170 O 750.397 1.74074 0.548125 0
M  V30 8171 C 750.448 2.13223 -2.91921 0
M  V30 8172 O 750.169 1.44798 -4.13479 0
M  V30 8173 C 751.67 3.01797 -3.24706 0
M  V30 8174 H 748.89 0.332153 -0.583023 0
M  V30 8175 H 751.434 0.405974 -2.0043 0
M  V30 8176 H 749.589 2.79477 -2.68274 0
M  V30 8177 H 750.003 2.12839 -4.79374 0
M  V30 8178 H 751.477 3.69282 -4.10286 0
M  V30 8179 H 751.954 3.67387 -2.40673 0
M  V30 8180 H 752.56 2.41141 -3.5033 0
M  V30 8181 N 750.875 1.45233 0.611969 0
M  V30 8182 C 752.152 1.39495 1.37115 0
M  V30 8183 C 752.532 0.0633303 2.11005 0
M  V30 8184 O 751.88 -0.954617 2.07604 0
M  V30 8185 C 752.09 2.60579 2.32163 0
M  V30 8186 C 753.438 3.05477 2.94905 0
M  V30 8187 O 754.462 2.60921 2.42485 0
M  V30 8188 O 753.321 3.82787 3.90047 0
M  V30 8189 H 750.415 0.55335 0.614599 0
M  V30 8190 H 752.961 1.57355 0.635423 0
M  V30 8191 H 751.733 3.49085 1.76793 0
M  V30 8192 H 751.356 2.45031 3.13122 0
M  V30 8193 N 752.353 -0.854086 1.3245 0
M  V30 8194 C 753.764 -1.42427 1.20712 0
M  V30 8195 C 754.115 -1.95371 -0.18013 0
M  V30 8196 O 753.24 -1.87587 -1.07889 0
M  V30 8197 C 753.835 -2.58897 2.18536 0
M  V30 8198 C 752.394 -3.11913 2.10683 0
M  V30 8199 C 751.541 -1.84661 2.06871 0
M  V30 8200 H 754.492 -0.661192 1.4427 0
M  V30 8201 H 754.513 -3.36074 1.78422 0
M  V30 8202 H 754.025 -2.20333 3.19492 0
M  V30 8203 H 752.126 -3.55059 1.12977 0
M  V30 8204 H 752.239 -3.73119 3.00532 0
M  V30 8205 H 750.603 -2.04285 1.52118 0
M  V30 8206 H 751.386 -1.48314 3.09609 0
M  V30 8207 N 753.831 -1.1567 -1.07043 0
M  V30 8208 C 754.779 -0.852204 -2.16426 0
M  V30 8209 C 755.773 0.175661 -1.68487 0
M  V30 8210 O 756.979 0.0303874 -1.79974 0
M  V30 8211 H 753.354 -0.257942 -0.706378 0
M  V30 8212 H 755.325 -1.78231 -2.39324 0
M  V30 8213 C 754.074 -0.361362 -3.45817 0
M  V30 8214 H 753.397 -1.14369 -3.83092 0
M  V30 8215 H 754.837 -0.186997 -4.23587 0
M  V30 8216 C 753.296 0.917703 -3.2416 0
M  V30 8217 O 753.826 1.98858 -3.49025 0
M  V30 8218 N 752.032 0.858456 -2.77631 0
M  V30 8219 H 751.579 -0.0131821 -2.57597 0
M  V30 8220 H 751.537 1.71478 -2.6352 0
M  V30 8221 N 755.309 1.25446 -0.953992 0
M  V30 8222 C 756.586 1.884 -0.525823 0
M  V30 8223 C 756.966 1.86079 0.996891 0
M  V30 8224 O 756.314 1.32389 1.8624 0
M  V30 8225 C 756.524 3.31154 -1.10172 0
M  V30 8226 C 757.872 4.07926 -1.17819 0
M  V30 8227 O 758.896 3.40273 -1.05323 0
M  V30 8228 O 757.755 5.28942 -1.37415 0
M  V30 8229 H 754.849 0.808629 -0.173345 0
M  V30 8230 H 757.395 1.33522 -1.04738 0
M  V30 8231 H 756.167 3.27271 -2.14499 0
M  V30 8232 H 755.79 3.93588 -0.56338 0
M  V30 8233 N 756.787 0.722489 1.40064 0
M  V30 8234 C 757.697 0.0755984 2.34478 0
M  V30 8235 C 758.713 -0.736046 1.57665 0
M  V30 8236 O 759.889 -0.667407 1.9002 0
M  V30 8237 C 756.954 -0.830075 3.36616 0
M  V30 8238 C 756.015 -0.00759884 4.29299 0
M  V30 8239 C 755.248 -0.870139 5.26559 0
M  V30 8240 O 755.471 -2.10921 5.2997 0
M  V30 8241 O 754.405 -0.305454 6.01124 0
M  V30 8242 H 758.231 0.854545 2.9143 0
M  V30 8243 H 755.816 0.483032 1.41376 0
M  V30 8244 H 757.698 -1.34864 3.99236 0
M  V30 8245 H 756.373 -1.58805 2.82069 0
M  V30 8246 H 755.28 0.556199 3.69942 0
M  V30 8247 H 756.613 0.712312 4.87018 0
M  V30 8248 N 758.265 -1.50454 0.469181 0
M  V30 8249 C 759.511 -2.02615 -0.0865971 0
M  V30 8250 C 759.844 -1.35062 -1.39542 0
M  V30 8251 O 759.119 -0.475701 -1.88593 0
M  V30 8252 C 759.402 -3.59068 -0.272385 0
M  V30 8253 C 759.255 -4.37196 1.05733 0
M  V30 8254 C 760.574 -4.2793 -1.0278 0
M  V30 8255 H 757.693 -0.736389 -0.0299977 0
M  V30 8256 H 760.335 -1.79792 0.614399 0
M  V30 8257 H 758.485 -3.78646 -0.869471 0
M  V30 8258 H 760.157 -4.29195 1.69084 0
M  V30 8259 H 758.4 -4.01013 1.65442 0
M  V30 8260 H 759.071 -5.44924 0.880997 0
M  V30 8261 H 761.547 -4.12816 -0.521718 0
M  V30 8262 H 760.423 -5.37214 -1.12659 0
M  V30 8263 H 760.684 -3.90968 -2.0639 0
M  V30 8264 N 759.743 -0.201713 -1.56304 0
M  V30 8265 C 760.653 0.728296 -2.23009 0
M  V30 8266 C 761.669 1.22945 -1.23128 0
M  V30 8267 O 762.845 1.27523 -1.55884 0
M  V30 8268 C 759.91 1.92792 -2.88153 0
M  V30 8269 C 758.971 1.47068 -4.03323 0
M  V30 8270 C 758.204 2.61312 -4.65351 0
M  V30 8271 O 758.427 3.7896 -4.26317 0
M  V30 8272 O 757.361 2.33646 -5.54701 0
M  V30 8273 H 761.187 0.190166 -3.03104 0
M  V30 8274 H 758.772 0.0278725 -1.49374 0
M  V30 8275 H 760.654 2.6289 -3.29343 0
M  V30 8276 H 759.329 2.45452 -2.11033 0
M  V30 8277 H 758.236 0.738299 -3.66742 0
M  V30 8278 H 759.569 0.990666 -4.82127 0
M  V30 8279 N 761.222 1.57436 0.0718424 0
M  V30 8280 C 762.638 1.53792 0.426628 0
M  V30 8281 C 762.838 0.921887 1.79174 0
M  V30 8282 O 761.894 0.524374 2.46995 0
M  V30 8283 C 763.207 2.98443 0.367739 0
M  V30 8284 C 764.755 3.09778 0.447928 0
M  V30 8285 C 765.23 4.5608 0.418946 0
M  V30 8286 N 766.721 4.60716 0.479022 0
M  V30 8287 C 767.456 5.71397 0.47881 0
M  V30 8288 N 766.952 6.91443 0.433417 0
M  V30 8289 N 768.745 5.59639 0.525364 0
M  V30 8290 H 760.896 1.95848 -0.822033 0
M  V30 8291 H 763.159 0.896418 -0.308447 0
M  V30 8292 H 762.865 3.47072 -0.56865 0
M  V30 8293 H 762.739 3.58335 1.17795 0
M  V30 8294 H 765.126 2.61122 1.37474 0
M  V30 8295 H 765.207 2.52796 -0.390857 0
M  V30 8296 H 764.851 5.05393 -0.504016 0
M  V30 8297 H 764.781 5.10925 1.27526 0
M  V30 8298 H 767.272 3.74328 0.518355 0
M  V30 8299 H 767.585 7.71562 0.43718 0
M  V30 8300 H 765.93 6.93847 0.400106 0
M  V30 8301 H 769.121 4.64756 0.558519 0
M  V30 8302 H 769.294 6.45896 0.52173 0
M  V30 8303 N 762.7 -0.34323 1.53817 0
M  V30 8304 C 764.116 -0.686355 1.44088 0
M  V30 8305 C 764.316 -1.92426 0.597882 0
M  V30 8306 O 763.372 -2.52343 0.0889918 0
M  V30 8307 C 764.685 -0.878698 2.87575 0
M  V30 8308 C 766.233 -0.977296 2.97352 0
M  V30 8309 C 766.708 -1.20195 4.41947 0
M  V30 8310 N 768.199 -1.26915 4.45474 0
M  V30 8311 C 768.934 -1.46049 5.54488 0
M  V30 8312 N 768.43 -1.62354 6.73508 0
M  V30 8313 N 770.223 -1.48599 5.42102 0
M  V30 8314 H 762.374 0.470679 2.07119 0
M  V30 8315 H 764.637 0.148652 0.936273 0
M  V30 8316 H 764.343 -0.040602 3.51677 0
M  V30 8317 H 764.217 -1.78034 3.32541 0
M  V30 8318 H 766.604 -1.80591 2.3339 0
M  V30 8319 H 766.685 -0.0525498 2.55746 0
M  V30 8320 H 766.329 -0.378262 5.06489 0
M  V30 8321 H 766.259 -2.14027 4.81145 0
M  V30 8322 H 768.75 -1.15837 3.59708 0
M  V30 8323 H 769.063 -1.76591 7.52353 0
M  V30 8324 H 767.408 -1.5949 6.76453 0
M  V30 8325 H 770.599 -1.35443 4.48077 0
M  V30 8326 H 770.772 -1.6317 6.2712 0
M  V30 8327 N 764.178 -1.45556 -0.604258 0
M  V30 8328 C 765.126 -1.5482 -1.7359 0
M  V30 8329 C 766.12 -0.417966 -1.64163 0
M  V30 8330 O 767.326 -0.594007 -1.69916 0
M  V30 8331 H 763.701 -0.486352 -0.573556 0
M  V30 8332 H 765.672 -2.5001 -1.62903 0
M  V30 8333 C 764.421 -1.53521 -3.11972 0
M  V30 8334 H 763.744 -2.39818 -3.19886 0
M  V30 8335 H 765.184 -1.64061 -3.90973 0
M  V30 8336 C 763.643 -0.260191 -3.35894 0
M  V30 8337 O 764.173 0.658582 -3.96265 0
M  V30 8338 N 762.379 -0.154839 -2.90187 0
M  V30 8339 H 761.926 -0.903378 -2.4124 0
M  V30 8340 H 761.884 0.697437 -3.06567 0
M  V30 8341 N 765.656 0.84705 -1.32902 0
M  V30 8342 C 766.619 1.9378 -1.224 0
M  V30 8343 C 767.619 1.60144 -0.145108 0
M  V30 8344 O 768.809 1.69638 -0.396058 0
M  V30 8345 C 765.941 3.29234 -0.884174 0
M  V30 8346 H 767.134 2.04518 -2.19345 0
M  V30 8347 H 764.687 1.03816 -1.16842 0
M  V30 8348 H 765.422 3.24193 0.0831277 0
M  V30 8349 H 765.207 3.55026 -1.6643 0
M  V30 8350 H 766.697 4.09162 -0.835226 0
M  V30 8351 N 767.134 1.16236 1.06428 0
M  V30 8352 C 768.411 0.853294 1.76006 0
M  V30 8353 C 768.791 -0.649162 2.00871 0
M  V30 8354 O 768.139 -1.59653 1.63472 0
M  V30 8355 C 768.349 1.67448 3.06206 0
M  V30 8356 C 769.697 1.8866 3.80385 0
M  V30 8357 O 770.721 1.64303 3.16043 0
M  V30 8358 O 769.58 2.29518 4.95968 0
M  V30 8359 H 766.674 0.314737 0.764767 0
M  V30 8360 H 769.22 1.26865 1.12709 0
M  V30 8361 H 767.992 2.69411 2.83784 0
M  V30 8362 H 767.615 1.25608 3.77238 0
M  V30 8363 N 768.612 -1.24939 0.960631 0
M  V30 8364 C 769.56 -2.27659 0.47686 0
M  V30 8365 C 770.554 -1.63148 -0.455961 0
M  V30 8366 O 771.76 -1.76911 -0.332029 0
M  V30 8367 H 768.135 -0.739651 0.135723 0
M  V30 8368 H 770.106 -2.65844 1.35534 0
M  V30 8369 C 768.855 -3.46976 -0.224191 0
M  V30 8370 H 768.178 -3.96854 0.484471 0
M  V30 8371 H 769.618 -4.20717 -0.526615 0
M  V30 8372 C 768.077 -3.04159 -1.44876 0
M  V30 8373 O 768.607 -3.10697 -2.54618 0
M  V30 8374 N 766.813 -2.59284 -1.31226 0
M  V30 8375 H 766.36 -2.54164 -0.419361 0
M  V30 8376 H 766.318 -2.31 -2.13275 0
M  V30 8377 N 770.09 -0.729906 -1.39679 0
M  V30 8378 C 771.037 -0.0866063 -2.30637 0
M  V30 8379 C 772.007 0.735115 -1.48947 0
M  V30 8380 O 773.192 0.696125 -1.77648 0
M  V30 8381 C 770.332 0.818524 -3.35252 0
M  V30 8382 C 769.445 -0.0152635 -4.31997 0
M  V30 8383 C 768.58 0.890669 -5.2368 0
M  V30 8384 C 767.619 0.0518246 -6.12078 0
M  V30 8385 N 766.756 0.913411 -6.96133 0
M  V30 8386 H 771.596 -0.867925 -2.85081 0
M  V30 8387 H 769.133 -0.439673 -1.40376 0
M  V30 8388 H 771.091 1.3577 -3.9449 0
M  V30 8389 H 769.721 1.56587 -2.82277 0
M  V30 8390 H 768.773 -0.671794 -3.74421 0
M  V30 8391 H 770.085 -0.664086 -4.9436 0
M  V30 8392 H 769.239 1.49787 -5.87919 0
M  V30 8393 H 767.978 1.57328 -4.61627 0
M  V30 8394 H 766.983 -0.568209 -5.46856 0
M  V30 8395 H 768.208 -0.627497 -6.76195 0
M  V30 8396 H 766.154 1.58141 -6.36653 0
M  V30 8397 H 766.071 0.320952 -7.55318 0
M  V30 8398 H 767.339 1.50633 -7.64807 0
M  V30 8399 N 771.568 1.50203 -0.477153 0
M  V30 8400 C 772.478 2.32421 0.319027 0
M  V30 8401 C 773.494 1.43075 0.990233 0
M  V30 8402 O 774.67 1.76123 0.976873 0
M  V30 8403 C 771.735 3.17909 1.38328 0
M  V30 8404 C 770.796 4.23082 0.728036 0
M  V30 8405 C 770.029 5.04484 1.74158 0
M  V30 8406 O 770.252 4.8705 2.96881 0
M  V30 8407 O 769.186 5.8747 1.31006 0
M  V30 8408 H 773.012 3.01638 -0.353281 0
M  V30 8409 H 770.597 1.47478 -0.238891 0
M  V30 8410 H 772.479 3.70937 1.9996 0
M  V30 8411 H 771.154 2.51413 2.03895 0
M  V30 8412 H 770.061 3.7403 0.07261 0
M  V30 8413 H 771.394 4.92065 0.115216 0
M  V30 8414 N 773.046 0.209999 1.56195 0
M  V30 8415 C 774.323 -0.473214 1.89789 0
M  V30 8416 C 774.703 -1.78581 1.1257 0
M  V30 8417 O 774.051 -2.27325 0.231398 0
M  V30 8418 C 774.261 -0.677458 3.42362 0
M  V30 8419 C 775.609 -0.990114 4.12895 0
M  V30 8420 O 776.633 -0.764655 3.47896 0
M  V30 8421 O 775.492 -1.41737 5.278 0
M  V30 8422 H 772.586 -0.248622 0.788743 0
M  V30 8423 H 775.132 0.251324 1.67829 0
M  V30 8424 H 773.904 0.248878 3.90508 0
M  V30 8425 H 773.527 -1.45391 3.70064 0
M  V30 8426 N 774.524 -1.57472 -0.0634922 0
M  V30 8427 C 775.454 -2.07297 -1.07473 0
M  V30 8428 C 776.435 -0.968162 -1.39859 0
M  V30 8429 O 777.62 -1.24139 -1.49343 0
M  V30 8430 C 774.75 -2.52381 -2.38581 0
M  V30 8431 C 773.704 -3.66813 -2.20526 0
M  V30 8432 C 773.03 -3.97982 -3.57092 0
M  V30 8433 C 774.33 -4.96553 -1.61965 0
M  V30 8434 H 776.024 -2.92033 -0.660092 0
M  V30 8435 H 773.57 -1.40488 -0.316074 0
M  V30 8436 H 775.523 -2.85852 -3.09624 0
M  V30 8437 H 774.247 -1.64684 -2.8204 0
M  V30 8438 H 772.906 -3.33639 -1.51924 0
M  V30 8439 H 772.554 -3.07403 -3.98136 0
M  V30 8440 H 772.254 -4.7504 -3.45848 0
M  V30 8441 H 773.778 -4.33956 -4.29552 0
M  V30 8442 H 775.192 -5.28201 -2.22883 0
M  V30 8443 H 773.589 -5.7799 -1.61394 0
M  V30 8444 H 774.659 -4.81396 -0.581918 0
M  V30 8445 N 776.003 0.335068 -1.53997 0
M  V30 8446 C 777.231 1.09418 -1.756 0
M  V30 8447 C 777.646 1.82083 -0.499138 0
M  V30 8448 O 777.003 1.74646 0.529631 0
M  V30 8449 C 777.054 2.10115 -2.94166 0
M  V30 8450 O 776.775 1.40404 -4.14992 0
M  V30 8451 C 778.276 2.98336 -3.27888 0
M  V30 8452 H 775.496 0.32595 -0.586513 0
M  V30 8453 H 778.04 0.384693 -2.00849 0
M  V30 8454 H 776.195 2.76616 -2.71224 0
M  V30 8455 H 776.609 2.07743 -4.81605 0
M  V30 8456 H 778.083 3.6491 -4.1418 0
M  V30 8457 H 778.56 3.64814 -2.44556 0
M  V30 8458 H 779.166 2.37412 -3.52868 0
M  V30 8459 N 777.481 1.45874 0.596531 0
M  V30 8460 C 778.706 1.54247 1.38646 0
M  V30 8461 C 779.131 0.179571 1.87241 0
M  V30 8462 O 778.489 -0.837831 1.6078 0
M  V30 8463 C 778.537 2.54015 2.55946 0
M  V30 8464 O 777.641 2.06561 3.5694 0
M  V30 8465 H 776.982 0.519555 0.413471 0
M  V30 8466 H 779.512 1.91327 0.724936 0
M  V30 8467 H 779.522 2.73179 3.03047 0
M  V30 8468 H 778.197 3.52994 2.19928 0
M  V30 8469 H 776.774 1.97324 3.16414 0
M  V30 8470 N 778.959 -0.83999 1.33349 0
M  V30 8471 C 779.922 -1.93128 1.23426 0
M  V30 8472 C 780.922 -1.60065 0.153599 0
M  V30 8473 O 782.112 -1.69425 0.405049 0
M  V30 8474 C 779.244 -3.28761 0.901622 0
M  V30 8475 H 780.437 -2.03352 2.20427 0
M  V30 8476 H 777.99 -1.03194 1.17391 0
M  V30 8477 H 778.725 -3.24233 -0.0659337 0
M  V30 8478 H 778.51 -3.54138 1.68311 0
M  V30 8479 H 780 -4.08714 0.856913 0
M  V30 8480 N 780.437 -1.16799 -1.0581 0
M  V30 8481 C 781.714 -0.862616 -1.75551 0
M  V30 8482 C 782.094 0.6385 -2.01212 0
M  V30 8483 O 781.442 1.58784 -1.64317 0
M  V30 8484 C 781.652 -1.6907 -3.05314 0
M  V30 8485 C 783 -1.90675 -3.79379 0
M  V30 8486 O 784.024 -1.65976 -3.15167 0
M  V30 8487 O 782.883 -2.32145 -4.94743 0
M  V30 8488 H 779.977 -0.318789 -0.763088 0
M  V30 8489 H 782.523 -1.27461 -1.12034 0
M  V30 8490 H 781.295 -2.70912 -2.82352 0
M  V30 8491 H 780.918 -1.27606 -3.76567 0
M  V30 8492 N 781.915 1.24427 -0.967243 0
M  V30 8493 C 783.326 1.74349 -0.667785 0
M  V30 8494 C 783.677 1.78403 0.816509 0
M  V30 8495 O 782.802 1.41315 1.63887 0
M  V30 8496 C 783.397 3.16628 -1.20548 0
M  V30 8497 C 781.956 3.64059 -0.955934 0
M  V30 8498 C 781.103 2.42715 -1.34106 0
M  V30 8499 H 784.054 1.10136 -1.14262 0
M  V30 8500 H 784.075 3.76183 -0.571547 0
M  V30 8501 H 783.587 3.13646 -2.28578 0
M  V30 8502 H 781.688 3.72441 0.108858 0
M  V30 8503 H 781.801 4.51549 -1.60126 0
M  V30 8504 H 780.165 2.43114 -0.759452 0
M  V30 8505 H 780.948 2.42414 -2.43085 0
M  V30 8506 N 783.393 0.737304 1.3929 0
M  V30 8507 C 784.303 0.100464 2.34385 0
M  V30 8508 C 785.319 -0.719282 1.58437 0
M  V30 8509 O 786.495 -0.647216 1.90717 0
M  V30 8510 C 783.56 -0.794325 3.37478 0
M  V30 8511 C 782.621 0.0379345 4.29283 0
M  V30 8512 C 781.854 -0.814241 5.27452 0
M  V30 8513 O 782.077 -2.05288 5.32177 0
M  V30 8514 O 781.011 -0.241679 6.01415 0
M  V30 8515 H 784.837 0.885407 2.90507 0
M  V30 8516 H 782.422 0.497999 1.40856 0
M  V30 8517 H 784.304 -1.30622 4.00644 0
M  V30 8518 H 782.979 -1.55804 2.83737 0
M  V30 8519 H 781.886 0.595405 3.69331 0
M  V30 8520 H 783.219 0.763926 4.86236 0
M  V30 8521 N 784.871 -1.49948 0.485112 0
M  V30 8522 C 786.119 -2.01996 -0.0648775 0
M  V30 8523 C 786.44 -1.36819 -1.38945 0
M  V30 8524 O 785.71 -0.518163 -1.88923 0
M  V30 8525 H 784.29 -0.746513 -0.0269662 0
M  V30 8526 H 786.952 -1.84136 0.638733 0
M  V30 8527 H 786.048 -3.11418 -0.20617 0
M  V30 8528 N 786.349 -0.21828 -1.56081 0
M  V30 8529 C 787.281 0.725447 -2.17416 0
M  V30 8530 C 788.294 1.15995 -1.14233 0
M  V30 8531 O 789.483 1.09166 -1.41227 0
M  V30 8532 C 786.583 1.99401 -2.7403 0
M  V30 8533 C 785.756 1.7156 -4.02351 0
M  V30 8534 C 784.815 2.8309 -4.43561 0
M  V30 8535 O 783.841 2.51701 -5.10525 0
M  V30 8536 N 785.043 4.11972 -4.08973 0
M  V30 8537 H 787.808 0.200801 -2.99027 0
M  V30 8538 H 785.369 -0.0371514 -1.61857 0
M  V30 8539 H 787.361 2.73198 -2.98571 0
M  V30 8540 H 785.931 2.42923 -1.96742 0
M  V30 8541 H 785.151 0.814233 -3.85699 0
M  V30 8542 H 786.439 1.50385 -4.86068 0
M  V30 8543 H 785.837 4.40319 -3.55156 0
M  V30 8544 H 784.394 4.82323 -4.38415 0
M  V30 8545 N 787.827 1.57504 0.0551401 0
M  V30 8546 C 789.076 1.87237 0.750009 0
M  V30 8547 C 789.389 0.813268 1.77891 0
M  V30 8548 O 790.595 0.99898 2.52453 0
M  V30 8549 C 789.051 3.32187 1.38491 0
M  V30 8550 C 788.659 4.46267 0.393707 0
M  V30 8551 C 790.403 3.71101 2.06117 0
M  V30 8552 C 788.31 5.82265 1.03547 0
M  V30 8553 H 787.24 0.698524 0.283866 0
M  V30 8554 H 789.891 1.835 0.00365997 0
M  V30 8555 H 788.273 3.30588 2.18008 0
M  V30 8556 H 789.447 4.59289 -0.372865 0
M  V30 8557 H 787.762 4.16015 -0.17902 0
M  V30 8558 H 790.359 4.70012 2.54937 0
M  V30 8559 H 790.702 3.01751 2.86796 0
M  V30 8560 H 791.235 3.74762 1.33409 0
M  V30 8561 H 787.974 6.54949 0.268644 0
M  V30 8562 H 787.494 5.73012 1.7725 0
M  V30 8563 H 789.173 6.28148 1.55047 0
M  V30 8564 N 789.305 -0.326896 1.54172 0
M  V30 8565 C 790.238 -1.42591 1.78166 0
M  V30 8566 C 791.216 -1.49837 0.631484 0
M  V30 8567 O 792.4 -1.67298 0.868544 0
M  V30 8568 C 789.527 -2.8071 1.89524 0
M  V30 8569 C 788.573 -2.91012 3.11792 0
M  V30 8570 S 789.406 -2.55763 4.70474 0
M  V30 8571 C 790.562 -3.9596 4.84733 0
M  V30 8572 H 790.795 -1.22024 2.71104 0
M  V30 8573 H 788.328 -0.523539 1.45253 0
M  V30 8574 H 790.286 -3.60276 1.96753 0
M  V30 8575 H 788.947 -2.98562 0.975696 0
M  V30 8576 H 788.14 -3.92258 3.16464 0
M  V30 8577 H 787.742 -2.19414 3.02876 0
M  V30 8578 H 790.034 -4.90676 4.67166 0
M  V30 8579 H 790.977 -3.96273 5.86833 0
M  V30 8580 H 791.385 -3.8476 4.13062 0
M  V30 8581 N 790.784 -1.46188 -0.588786 0
M  V30 8582 C 792.2 -1.31009 -0.911524 0
M  V30 8583 C 792.4 -0.277017 -1.99587 0
M  V30 8584 O 791.456 0.322532 -2.50432 0
M  V30 8585 C 792.769 -2.69459 -1.33463 0
M  V30 8586 C 794.317 -2.77502 -1.44782 0
M  V30 8587 C 794.792 -4.1652 -1.90461 0
M  V30 8588 N 796.283 -4.18907 -1.97665 0
M  V30 8589 C 797.018 -5.23359 -2.34271 0
M  V30 8590 N 796.514 -6.38143 -2.69714 0
M  V30 8591 N 798.307 -5.10723 -2.34774 0
M  V30 8592 H 790.458 -2.12016 0.127614 0
M  V30 8593 H 792.721 -0.947984 -0.00557599 0
M  V30 8594 H 792.427 -3.46336 -0.611929 0
M  V30 8595 H 792.301 -2.99165 -2.2974 0
M  V30 8596 H 794.688 -2.00917 -2.1614 0
M  V30 8597 H 794.769 -2.51488 -0.467724 0
M  V30 8598 H 794.413 -4.93597 -1.19684 0
M  V30 8599 H 794.343 -4.39937 -2.89418 0
M  V30 8600 H 796.834 -3.36084 -1.72789 0
M  V30 8601 H 797.147 -7.13624 -2.96582 0
M  V30 8602 H 795.492 -6.41514 -2.67366 0
M  V30 8603 H 798.683 -4.20088 -2.06503 0
M  V30 8604 H 798.856 -5.9224 -2.62975 0
M  V30 8605 N 792.262 0.832906 -1.33792 0
M  V30 8606 C 793.172 1.97514 -1.26592 0
M  V30 8607 C 794.188 1.73114 -0.175391 0
M  V30 8608 O 795.364 1.97387 -0.400062 0
M  V30 8609 C 792.429 3.31625 -1.01121 0
M  V30 8610 C 791.49 3.69101 -2.19233 0
M  V30 8611 C 790.723 4.96813 -1.94968 0
M  V30 8612 O 790.946 5.63208 -0.902955 0
M  V30 8613 O 789.88 5.31932 -2.8166 0
M  V30 8614 H 793.706 2.0653 -2.22664 0
M  V30 8615 H 791.291 0.966826 -1.13898 0
M  V30 8616 H 793.173 4.11968 -0.886571 0
M  V30 8617 H 791.848 3.23599 -0.080822 0
M  V30 8618 H 790.755 2.89243 -2.37253 0
M  V30 8619 H 792.088 3.818 -3.10628 0
M  V30 8620 N 793.74 1.17359 1.05189 0
M  V30 8621 C 794.97 0.985099 1.81602 0
M  V30 8622 C 795.378 -0.469872 1.83273 0
M  V30 8623 O 794.721 -1.33806 1.25864 0
M  V30 8624 C 794.783 1.44956 3.2898 0
M  V30 8625 C 794.447 2.92666 3.50993 0
M  V30 8626 C 795.444 3.906 3.43115 0
M  V30 8627 C 793.129 3.30841 3.77954 0
M  V30 8628 C 795.123 5.24709 3.61883 0
M  V30 8629 C 792.81 4.65116 3.96371 0
M  V30 8630 C 793.808 5.61859 3.88335 0
M  V30 8631 O 793.496 6.93704 4.06238 0
M  V30 8632 H 793.228 0.348731 0.579105 0
M  V30 8633 H 795.782 1.56066 1.33539 0
M  V30 8634 H 794.012 0.817559 3.77959 0
M  V30 8635 H 795.701 1.22674 3.86919 0
M  V30 8636 H 796.467 3.62453 3.22262 0
M  V30 8637 H 792.346 2.5611 3.83313 0
M  V30 8638 H 795.89 6.00205 3.55527 0
M  V30 8639 H 791.787 4.92969 4.16715 0
M  V30 8640 H 792.555 7.00443 4.23463 0
M  V30 8641 N 795.218 -1.23913 0.973828 0
M  V30 8642 C 796.181 -2.23367 0.51378 0
M  V30 8643 C 797.181 -1.55923 -0.39302 0
M  V30 8644 O 798.371 -1.73187 -0.187626 0
M  V30 8645 C 795.503 -3.39944 -0.255152 0
M  V30 8646 H 796.696 -2.65581 1.39307 0
M  V30 8647 H 794.249 -1.36632 0.759039 0
M  V30 8648 H 794.984 -3.03177 -1.15127 0
M  V30 8649 H 794.769 -3.90098 0.395673 0
M  V30 8650 H 796.259 -4.13749 -0.565842 0
M  V30 8651 N 796.696 -0.74468 -1.38897 0
M  V30 8652 C 797.659 -0.11945 -2.28889 0
M  V30 8653 C 798.659 0.656942 -1.46768 0
M  V30 8654 O 799.849 0.484525 -1.67326 0
M  V30 8655 C 796.981 0.839635 -3.30398 0
M  V30 8656 H 798.174 -0.912414 -2.85683 0
M  V30 8657 H 795.727 -0.511119 -1.47707 0
M  V30 8658 H 796.462 1.6586 -2.78677 0
M  V30 8659 H 796.247 0.285432 -3.9106 0
M  V30 8660 H 797.737 1.27337 -3.97712 0
M  V30 8661 N 798.174 1.49689 -0.493057 0
M  V30 8662 C 799.451 1.9525 0.116907 0
M  V30 8663 C 799.831 1.43429 1.54892 0
M  V30 8664 O 799.179 0.644621 2.19219 0
M  V30 8665 C 799.389 3.4898 0.037705 0
M  V30 8666 C 800.737 4.24052 0.215621 0
M  V30 8667 O 801.761 3.5602 0.113266 0
M  V30 8668 O 800.62 5.44847 0.42477 0
M  V30 8669 H 797.714 0.820973 0.099662 0
M  V30 8670 H 800.26 1.60367 -0.555029 0
M  V30 8671 H 799.032 3.79309 -0.961251 0
M  V30 8672 H 798.655 3.9046 0.750137 0
M  V30 8673 N 799.652 0.226554 1.55963 0
M  V30 8674 C 801.063 -0.280381 1.84583 0
M  V30 8675 C 801.414 -1.59105 1.14804 0
M  V30 8676 O 800.539 -2.12297 0.419414 0
M  V30 8677 C 801.134 -0.515499 3.34855 0
M  V30 8678 C 799.693 -0.966733 3.63774 0
M  V30 8679 C 798.84 -0.0325753 2.77281 0
M  V30 8680 H 801.791 0.449626 1.52197 0
M  V30 8681 H 801.812 -1.36085 3.55332 0
M  V30 8682 H 801.324 0.438594 3.85614 0
M  V30 8683 H 799.425 -1.93401 3.18476 0
M  V30 8684 H 799.538 -0.837679 4.7172 0
M  V30 8685 H 797.902 -0.540279 2.48904 0
M  V30 8686 H 798.685 0.916524 3.30839 0
M  V30 8687 N 801.13 -1.57531 -0.0467866 0
M  V30 8688 C 802.04 -2.08768 -1.07018 0
M  V30 8689 C 803.056 -1.02245 -1.40791 0
M  V30 8690 O 804.232 -1.33873 -1.50466 0
M  V30 8691 C 801.297 -2.54221 -2.35738 0
M  V30 8692 C 800.358 -3.75152 -2.08709 0
M  V30 8693 C 799.591 -4.18428 -3.31291 0
M  V30 8694 O 799.814 -3.61365 -4.4133 0
M  V30 8695 O 798.748 -5.11018 -3.18032 0
M  V30 8696 H 802.574 -2.96334 -0.664812 0
M  V30 8697 H 800.159 -1.47074 -0.262605 0
M  V30 8698 H 802.041 -2.83866 -3.11445 0
M  V30 8699 H 800.716 -1.69774 -2.75605 0
M  V30 8700 H 799.623 -3.50553 -1.30627 0
M  V30 8701 H 800.956 -4.60528 -1.73708 0
M  V30 8702 N 802.608 0.318715 -1.54344 0
M  V30 8703 C 803.838 1.07394 -1.76494 0
M  V30 8704 C 804.246 1.82031 -0.515881 0
M  V30 8705 O 803.589 1.7609 0.52325 0
M  V30 8706 C 803.651 2.11401 -2.90775 0
M  V30 8707 C 803.315 1.56118 -4.29507 0
M  V30 8708 C 804.312 1.00043 -5.10184 0
M  V30 8709 C 801.997 1.60215 -4.76063 0
M  V30 8710 C 803.991 0.487993 -6.35529 0
M  V30 8711 C 801.678 1.08584 -6.01376 0
M  V30 8712 C 802.676 0.529714 -6.80943 0
M  V30 8713 O 802.364 0.0211823 -8.03897 0
M  V30 8714 H 802.096 0.325061 -0.592715 0
M  V30 8715 H 804.65 0.36901 -2.02058 0
M  V30 8716 H 802.88 2.85524 -2.60793 0
M  V30 8717 H 804.569 2.72683 -3.00664 0
M  V30 8718 H 805.335 0.961811 -4.75367 0
M  V30 8719 H 801.214 2.02441 -4.14172 0
M  V30 8720 H 804.758 0.0532608 -6.9758 0
M  V30 8721 H 800.655 1.12155 -6.35682 0
M  V30 8722 H 801.423 0.136151 -8.18387 0
M  V30 8723 N 804.086 1.46499 0.581025 0
M  V30 8724 C 805.502 1.31491 0.904563 0
M  V30 8725 C 805.702 0.287598 1.99437 0
M  V30 8726 O 804.758 -0.309247 2.50599 0
M  V30 8727 C 806.071 2.70163 1.32032 0
M  V30 8728 C 807.619 2.78266 1.43308 0
M  V30 8729 C 808.094 4.17524 1.8825 0
M  V30 8730 N 809.585 4.19949 1.9544 0
M  V30 8731 C 810.32 5.24594 2.31493 0
M  V30 8732 N 809.816 6.39564 2.66326 0
M  V30 8733 N 811.609 5.11961 2.32062 0
M  V30 8734 H 803.76 2.11946 -0.138856 0
M  V30 8735 H 806.023 0.948 0.000548528 0
M  V30 8736 H 805.729 3.46655 0.593554 0
M  V30 8737 H 805.603 3.00379 2.2815 0
M  V30 8738 H 807.99 2.02061 2.15071 0
M  V30 8739 H 808.071 2.51732 0.45438 0
M  V30 8740 H 807.715 4.94225 1.17065 0
M  V30 8741 H 807.645 4.41466 2.87081 0
M  V30 8742 H 810.136 3.36996 1.71004 0
M  V30 8743 H 810.449 7.15187 2.92793 0
M  V30 8744 H 808.794 6.42923 2.6396 0
M  V30 8745 H 811.985 4.21177 2.04272 0
M  V30 8746 H 812.158 5.93626 2.5983 0
M  V30 8747 N 805.565 -0.825799 1.34232 0
M  V30 8748 C 806.512 -1.93651 1.2557 0
M  V30 8749 C 807.482 -1.65578 0.131536 0
M  V30 8750 O 808.667 -1.88231 0.312027 0
M  V30 8751 C 805.807 -3.29862 1.01415 0
M  V30 8752 C 804.92 -3.70247 2.22579 0
M  V30 8753 C 804.055 -4.95392 1.91731 0
M  V30 8754 C 803.094 -5.28349 3.09053 0
M  V30 8755 N 802.231 -6.44671 2.78107 0
M  V30 8756 H 807.071 -2.00392 2.20561 0
M  V30 8757 H 804.608 -0.980441 1.09662 0
M  V30 8758 H 806.566 -4.08356 0.854485 0
M  V30 8759 H 805.196 -3.22642 0.100936 0
M  V30 8760 H 804.248 -2.87169 2.49476 0
M  V30 8761 H 805.56 -3.90575 3.10246 0
M  V30 8762 H 804.714 -5.81665 1.72484 0
M  V30 8763 H 803.453 -4.77059 1.0132 0
M  V30 8764 H 802.458 -4.40574 3.289 0
M  V30 8765 H 803.683 -5.48622 4.00239 0
M  V30 8766 H 801.629 -6.278 1.9027 0
M  V30 8767 H 801.546 -6.65158 3.59306 0
M  V30 8768 H 802.814 -7.34022 2.62358 0
M  V30 8769 N 807.043 -1.17915 -1.04565 0
M  V30 8770 C 807.993 -0.869634 -2.10764 0
M  V30 8771 C 808.977 0.158502 -1.60117 0
M  V30 8772 O 810.169 -0.04483 -1.76943 0
M  V30 8773 C 807.298 -0.391642 -3.41059 0
M  V30 8774 C 806.384 -1.45156 -3.98485 0
M  V30 8775 N 806.775 -2.6667 -4.29792 0
M  V30 8776 C 805.073 -1.3109 -4.263 0
M  V30 8777 C 805.774 -3.34823 -4.75677 0
M  V30 8778 N 804.75 -2.62203 -4.76183 0
M  V30 8779 H 808.552 -1.79342 -2.32838 0
M  V30 8780 H 806.066 -1.0688 -1.22272 0
M  V30 8781 H 808.063 -0.151428 -4.16625 0
M  V30 8782 H 806.723 0.525862 -3.20413 0
M  V30 8783 H 807.734 -3.0358 -4.19594 0
M  V30 8784 H 804.411 -0.455545 -4.15007 0
M  V30 8785 H 805.801 -4.38645 -5.0896 0
M  V30 8786 N 808.521 1.23394 -0.980386 0
M  V30 8787 C 809.451 2.2717 -0.540024 0
M  V30 8788 C 810.432 1.64659 0.426787 0
M  V30 8789 O 811.617 1.91543 0.320153 0
M  V30 8790 C 808.747 3.46939 0.15836 0
M  V30 8791 C 807.701 4.21802 -0.725732 0
M  V30 8792 C 807.027 5.34597 0.104866 0
M  V30 8793 C 808.327 4.81802 -2.01654 0
M  V30 8794 H 810.021 2.64257 -1.40743 0
M  V30 8795 H 807.567 1.2703 -0.678193 0
M  V30 8796 H 809.52 4.18683 0.477737 0
M  V30 8797 H 808.244 3.08912 1.06022 0
M  V30 8798 H 806.903 3.51875 -1.02857 0
M  V30 8799 H 806.551 4.92812 1.00726 0
M  V30 8800 H 806.251 5.85607 -0.483557 0
M  V30 8801 H 807.775 6.09163 0.418624 0
M  V30 8802 H 809.189 5.45554 -1.76193 0
M  V30 8803 H 807.586 5.43098 -2.55273 0
M  V30 8804 H 808.656 4.02549 -2.70338 0
M  V30 8805 N 809.999 0.752036 1.385 0
M  V30 8806 C 810.909 0.125318 2.34265 0
M  V30 8807 C 811.925 -0.702437 1.59191 0
M  V30 8808 O 813.101 -0.626951 1.91393 0
M  V30 8809 C 810.166 -0.758486 3.38301 0
M  V30 8810 C 809.227 0.0834636 4.29219 0
M  V30 8811 C 808.46 -0.758252 5.28286 0
M  V30 8812 O 808.683 -1.99632 5.34325 0
M  V30 8813 O 807.617 -0.177878 6.01637 0
M  V30 8814 H 811.443 0.91617 2.89551 0
M  V30 8815 H 809.028 0.512911 1.4032 0
M  V30 8816 H 810.91 -1.26365 4.02007 0
M  V30 8817 H 809.585 -1.52786 2.85374 0
M  V30 8818 H 808.492 0.634545 3.68679 0
M  V30 8819 H 809.825 0.815455 4.85398 0
M  V30 8820 N 811.477 -1.49425 0.500989 0
M  V30 8821 C 812.726 -2.01649 -0.04538 0
M  V30 8822 C 813.039 -1.38572 -1.38047 0
M  V30 8823 O 814.245 -1.82124 -2.01353 0
M  V30 8824 C 812.701 -3.5966 -0.131337 0
M  V30 8825 C 812.309 -4.3171 1.19711 0
M  V30 8826 C 814.053 -4.19828 -0.628071 0
M  V30 8827 C 811.96 -5.81579 1.07332 0
M  V30 8828 H 810.89 -0.753715 -0.0207329 0
M  V30 8829 H 813.541 -1.71962 0.640407 0
M  V30 8830 H 811.923 -3.86063 -0.881574 0
M  V30 8831 H 813.097 -4.17008 1.96064 0
M  V30 8832 H 811.412 -3.83286 1.62729 0
M  V30 8833 H 814.009 -5.2958 -0.738198 0
M  V30 8834 H 814.352 -3.83194 -1.6269 0
M  V30 8835 H 814.885 -3.97746 0.0656314 0
M  V30 8836 H 811.624 -6.22738 2.04642 0
M  V30 8837 H 811.144 -5.98774 0.350679 0
M  V30 8838 H 812.823 -6.42614 0.752047 0
M  V30 8839 N 812.955 -0.234822 -1.55841 0
M  V30 8840 C 814.202 0.39326 -1.98645 0
M  V30 8841 C 814.53 1.58823 -1.12274 0
M  V30 8842 O 813.785 1.94954 -0.170731 0
M  V30 8843 C 814.084 0.858032 -3.46947 0
M  V30 8844 C 813.75 -0.227858 -4.50324 0
M  V30 8845 C 812.412 -0.526128 -4.78315 0
M  V30 8846 C 814.764 -0.961576 -5.12253 0
M  V30 8847 C 812.092 -1.5624 -5.65514 0
M  V30 8848 C 814.444 -1.98728 -6.00575 0
M  V30 8849 C 813.108 -2.29233 -6.26904 0
M  V30 8850 H 812.378 0.143904 -0.726892 0
M  V30 8851 H 815.025 -0.34012 -1.88455 0
M  V30 8852 H 813.33 1.67041 -3.54408 0
M  V30 8853 H 815.027 1.35407 -3.77447 0
M  V30 8854 H 811.617 0.0147624 -4.28597 0
M  V30 8855 H 815.801 -0.744388 -4.90686 0
M  V30 8856 H 811.057 -1.80422 -5.84173 0
M  V30 8857 H 815.231 -2.5608 -6.47608 0
M  V30 8858 H 812.858 -3.09671 -6.94268 0
M  V30 8859 N 814.433 1.57553 0.0384317 0
M  V30 8860 C 815.383 2.02404 1.0496 0
M  V30 8861 C 816.367 0.911705 1.32577 0
M  V30 8862 O 817.559 1.17561 1.32319 0
M  V30 8863 C 814.688 2.49924 2.35357 0
M  V30 8864 C 813.774 3.6796 2.1087 0
M  V30 8865 N 814.165 4.81009 1.56411 0
M  V30 8866 C 812.463 3.75153 2.41197 0
M  V30 8867 C 813.164 5.62686 1.47512 0
M  V30 8868 N 812.14 5.0752 1.94742 0
M  V30 8869 H 815.942 2.87234 0.622399 0
M  V30 8870 H 813.456 1.60543 0.244916 0
M  V30 8871 H 815.453 2.80312 3.08595 0
M  V30 8872 H 814.113 1.66496 2.78763 0
M  V30 8873 H 815.124 5.02636 1.2481 0
M  V30 8874 H 811.801 3.02507 2.87742 0
M  V30 8875 H 813.191 6.6349 1.05976 0
M  V30 8876 N 815.911 -0.310526 1.54511 0
M  V30 8877 C 816.858 -1.38264 1.84802 0
M  V30 8878 C 817.828 -1.50808 0.696141 0
M  V30 8879 O 819.013 -1.6582 0.943846 0
M  V30 8880 C 816.153 -2.74422 2.09252 0
M  V30 8881 C 815.266 -2.70405 3.36906 0
M  V30 8882 C 814.401 -3.98495 3.51248 0
M  V30 8883 C 813.44 -3.88836 4.72729 0
M  V30 8884 N 812.577 -5.08683 4.83928 0
M  V30 8885 H 817.417 -1.11732 2.76261 0
M  V30 8886 H 814.954 -0.540609 1.36806 0
M  V30 8887 H 816.912 -3.53593 2.21422 0
M  V30 8888 H 815.542 -2.99235 1.2107 0
M  V30 8889 H 814.594 -1.83151 3.33406 0
M  V30 8890 H 815.906 -2.59155 4.26193 0
M  V30 8891 H 815.06 -4.861 3.63031 0
M  V30 8892 H 813.799 -4.12567 2.60077 0
M  V30 8893 H 812.804 -2.99615 4.60989 0
M  V30 8894 H 814.029 -3.76318 5.65298 0
M  V30 8895 H 811.975 -5.23236 3.95677 0
M  V30 8896 H 811.892 -4.99819 5.67201 0
M  V30 8897 H 813.16 -5.97966 5.00057 0
M  V30 8898 N 817.389 -1.46805 -0.573248 0
M  V30 8899 C 818.638 -1.51868 -1.32736 0
M  V30 8900 C 818.951 -0.178765 -1.94781 0
M  V30 8901 O 820.157 -0.107272 -2.71288 0
M  V30 8902 C 818.613 -2.67641 -2.40616 0
M  V30 8903 C 818.221 -4.08094 -1.84832 0
M  V30 8904 C 819.965 -2.81984 -3.17309 0
M  V30 8905 C 817.872 -5.15193 -2.90397 0
M  V30 8906 H 816.802 -0.56523 -0.49903 0
M  V30 8907 H 819.453 -1.7304 -0.610695 0
M  V30 8908 H 817.835 -2.39818 -3.15124 0
M  V30 8909 H 819.009 -4.45751 -1.16803 0
M  V30 8910 H 817.324 -3.985 -1.20775 0
M  V30 8911 H 819.921 -3.59166 -3.96111 0
M  V30 8912 H 820.264 -1.89842 -3.70494 0
M  V30 8913 H 820.797 -3.095 -2.4991 0
M  V30 8914 H 817.536 -6.09158 -2.42088 0
M  V30 8915 H 817.056 -4.82071 -3.56886 0
M  V30 8916 H 818.735 -5.41448 -3.54179 0
M  V30 8917 N 818.867 0.818669 -1.34668 0
M  V30 8918 C 819.797 1.94468 -1.29245 0
M  V30 8919 C 820.778 1.69257 -0.169101 0
M  V30 8920 O 821.963 1.90794 -0.362143 0
M  V30 8921 C 819.093 3.31001 -1.05145 0
M  V30 8922 C 818.047 3.70663 -2.13992 0
M  V30 8923 C 817.373 5.05226 -1.75074 0
M  V30 8924 C 818.673 3.82312 -3.55858 0
M  V30 8925 H 820.367 1.99263 -2.2346 0
M  V30 8926 H 817.913 0.957304 -1.07572 0
M  V30 8927 H 819.866 4.09364 -0.999949 0
M  V30 8928 H 818.59 3.26517 -0.0737312 0
M  V30 8929 H 817.249 2.94578 -2.18219 0
M  V30 8930 H 816.897 4.97233 -0.759518 0
M  V30 8931 H 816.597 5.32734 -2.47928 0
M  V30 8932 H 818.121 5.86042 -1.71427 0
M  V30 8933 H 819.535 4.50935 -3.5402 0
M  V30 8934 H 817.932 4.21278 -4.2737 0
M  V30 8935 H 819.002 2.84193 -3.9289 0
M  V30 8936 N 820.346 1.18468 1.03938 0
M  V30 8937 C 821.574 1.00576 1.80809 0
M  V30 8938 C 821.989 -0.445786 1.83462 0
M  V30 8939 O 821.346 -1.30964 1.27101 0
M  V30 8940 C 821.397 1.55491 3.26351 0
M  V30 8941 O 821.118 2.94963 3.23926 0
M  V30 8942 C 822.619 1.42236 4.19862 0
M  V30 8943 H 819.839 0.35508 0.56935 0
M  V30 8944 H 822.383 1.57046 1.30984 0
M  V30 8945 H 820.538 1.03195 3.73403 0
M  V30 8946 H 820.952 3.20598 4.15111 0
M  V30 8947 H 822.426 1.85455 5.19914 0
M  V30 8948 H 822.903 0.371267 4.37628 0
M  V30 8949 H 823.509 1.9361 3.78675 0
M  V30 8950 N 821.824 -1.22873 0.986916 0
M  V30 8951 C 822.772 -2.26597 0.525043 0
M  V30 8952 C 823.766 -1.64079 -0.421252 0
M  V30 8953 O 824.972 -1.77576 -0.294429 0
M  V30 8954 H 821.347 -0.736606 0.151381 0
M  V30 8955 H 823.318 -2.62909 1.41142 0
M  V30 8956 C 822.067 -3.47374 -0.150542 0
M  V30 8957 H 821.39 -3.95737 0.568541 0
M  V30 8958 H 822.83 -4.21739 -0.437256 0
M  V30 8959 C 821.289 -3.07163 -1.38392 0
M  V30 8960 O 821.819 -3.16028 -2.47971 0
M  V30 8961 N 820.025 -2.62009 -1.25697 0
M  V30 8962 H 819.572 -2.54996 -0.365355 0
M  V30 8963 H 819.53 -2.35472 -2.08327 0
M  V30 8964 N 823.302 -0.75937 -1.38099 0
M  V30 8965 C 824.53 -0.329111 -2.04266 0
M  V30 8966 C 824.945 1.04453 -1.57274 0
M  V30 8967 O 824.302 1.66449 -0.748397 0
M  V30 8968 C 824.353 -0.349192 -3.5981 0
M  V30 8969 O 824.074 -1.66863 -4.05078 0
M  V30 8970 C 825.575 0.0942106 -4.432 0
M  V30 8971 H 822.795 -0.13971 -0.656294 0
M  V30 8972 H 825.339 -1.02984 -1.76677 0
M  V30 8973 H 823.494 0.302846 -3.86214 0
M  V30 8974 H 823.908 -1.59877 -4.9954 0
M  V30 8975 H 825.382 0.0290004 -5.51992 0
M  V30 8976 H 825.859 1.1429 -4.24069 0
M  V30 8977 H 826.465 -0.529171 -4.21995 0
M  V30 8978 N 824.78 1.49157 -0.508906 0
M  V30 8979 C 826.057 1.95363 0.0961913 0
M  V30 8980 C 826.437 1.45064 1.53362 0
M  V30 8981 O 825.785 0.667835 2.18523 0
M  V30 8982 C 825.995 3.49 0.000688881 0
M  V30 8983 C 827.343 4.24257 0.170632 0
M  V30 8984 O 828.367 3.5612 0.0754994 0
M  V30 8985 O 827.226 5.45267 0.366957 0
M  V30 8986 H 824.32 0.821984 0.0909489 0
M  V30 8987 H 826.866 1.59769 -0.572007 0
M  V30 8988 H 825.638 3.78269 -1.00143 0
M  V30 8989 H 825.261 3.91233 0.708682 0
M  V30 8990 N 826.258 0.243083 1.55714 0
M  V30 8991 C 827.669 -0.260788 1.8487 0
M  V30 8992 C 828.02 -1.57879 1.16485 0
M  V30 8993 O 827.145 -2.1184 0.441908 0
M  V30 8994 C 827.74 -0.479954 3.35383 0
M  V30 8995 C 826.299 -0.928096 3.64778 0
M  V30 8996 C 825.446 -0.00316416 2.773 0
M  V30 8997 H 828.397 0.465743 1.51712 0
M  V30 8998 H 828.418 -1.32308 3.56756 0
M  V30 8999 H 827.93 0.479468 3.85127 0
M  V30 9000 H 826.031 -1.90012 3.20509 0
M  V30 9001 H 826.144 -0.7876 4.72582 0
M  V30 9002 H 824.508 -0.513849 2.49463 0
M  V30 9003 H 825.291 0.951562 3.29849 0
M  V30 9004 N 827.736 -1.57571 -0.0300757 0
M  V30 9005 C 828.684 -2.0758 -1.04944 0
M  V30 9006 C 829.678 -0.989384 -1.37505 0
M  V30 9007 O 830.884 -1.17427 -1.36422 0
M  V30 9008 H 827.259 -0.662419 -0.355956 0
M  V30 9009 H 829.23 -2.92268 -0.601848 0
M  V30 9010 C 827.979 -2.5698 -2.34215 0
M  V30 9011 H 827.302 -3.40193 -2.10021 0
M  V30 9012 H 828.742 -2.95682 -3.03888 0
M  V30 9013 C 827.201 -1.47059 -3.03109 0
M  V30 9014 O 827.731 -0.83625 -3.92899 0
M  V30 9015 N 825.937 -1.20538 -2.64422 0
M  V30 9016 H 825.484 -1.72305 -1.9149 0
M  V30 9017 H 825.442 -0.472045 -3.10836 0
M  V30 9018 N 829.214 0.302327 -1.54673 0
M  V30 9019 C 830.491 1.05721 -1.64567 0
M  V30 9020 C 830.871 2.0526 -0.493108 0
M  V30 9021 O 830.219 2.22729 0.510315 0
M  V30 9022 C 830.429 1.74025 -3.02517 0
M  V30 9023 C 831.777 2.26271 -3.59286 0
M  V30 9024 O 832.801 1.8406 -3.0496 0
M  V30 9025 O 831.66 3.0361 -4.54404 0
M  V30 9026 H 828.754 0.488577 -0.667249 0
M  V30 9027 H 831.3 0.300521 -1.67018 0
M  V30 9028 H 830.072 1.0174 -3.77842 0
M  V30 9029 H 829.695 2.56454 -3.03838 0
M  V30 9030 N 830.692 1.47107 0.565454 0
M  V30 9031 C 831.602 1.61591 1.70075 0
M  V30 9032 C 832.618 0.498931 1.66693 0
M  V30 9033 O 833.794 0.765372 1.8629 0
M  V30 9034 C 830.859 1.61887 3.06583 0
M  V30 9035 C 829.92 2.84949 3.21096 0
M  V30 9036 C 829.153 2.85221 4.51093 0
M  V30 9037 O 829.376 1.94959 5.36048 0
M  V30 9038 O 828.31 3.76982 4.69221 0
M  V30 9039 H 832.136 2.57638 1.60799 0
M  V30 9040 H 829.721 1.30097 0.73451 0
M  V30 9041 H 831.603 1.64809 3.87835 0
M  V30 9042 H 830.278 0.69005 3.16259 0
M  V30 9043 H 829.185 2.87575 2.39273 0
M  V30 9044 H 830.518 3.77098 3.1632 0
M  V30 9045 N 832.17 -0.811516 1.35101 0
M  V30 9046 C 833.416 -1.57068 1.28287 0
M  V30 9047 C 833.749 -1.93667 -0.143808 0
M  V30 9048 O 833.024 -1.60953 -1.09199 0
M  V30 9049 C 833.307 -2.86259 2.18466 0
M  V30 9050 C 833.16 -2.56168 3.69727 0
M  V30 9051 C 834.479 -3.87924 2.07852 0
M  V30 9052 H 831.598 -0.569869 0.467353 0
M  V30 9053 H 834.24 -0.934023 1.65457 0
M  V30 9054 H 832.39 -3.4059 1.86898 0
M  V30 9055 H 834.062 -2.08059 4.11715 0
M  V30 9056 H 832.305 -1.89436 3.90252 0
M  V30 9057 H 832.976 -3.48344 4.28206 0
M  V30 9058 H 835.452 -3.4298 2.35593 0
M  V30 9059 H 834.328 -4.76106 2.73157 0
M  V30 9060 H 834.589 -4.2923 1.05896 0
M  V30 9061 N 833.648 -1.19017 -1.03309 0
M  V30 9062 C 834.558 -0.939303 -2.14975 0
M  V30 9063 C 835.574 0.0992359 -1.73717 0
M  V30 9064 O 836.75 -0.0844362 -2.01223 0
M  V30 9065 C 833.815 -0.476712 -3.43407 0
M  V30 9066 C 832.876 -1.58413 -3.99003 0
M  V30 9067 C 832.109 -1.14352 -5.21305 0
M  V30 9068 O 832.332 -0.00534408 -5.704 0
M  V30 9069 O 831.266 -1.94436 -5.6963 0
M  V30 9070 H 835.092 -1.87386 -2.38998 0
M  V30 9071 H 832.677 -0.972635 -1.13403 0
M  V30 9072 H 834.559 -0.22718 -4.20787 0
M  V30 9073 H 833.234 0.429455 -3.20839 0
M  V30 9074 H 832.141 -1.88777 -3.22977 0
M  V30 9075 H 833.474 -2.4667 -4.25928 0
M  V30 9076 N 835.127 1.22348 -0.993418 0
M  V30 9077 C 836.543 1.43222 -0.704238 0
M  V30 9078 C 836.743 1.88009 0.724909 0
M  V30 9079 O 835.799 2.03429 1.49575 0
M  V30 9080 C 837.112 2.47328 -1.71025 0
M  V30 9081 C 838.66 2.61126 -1.72576 0
M  V30 9082 C 839.135 3.68453 -2.72041 0
M  V30 9083 N 840.626 3.75911 -2.70639 0
M  V30 9084 C 841.361 4.58551 -3.44266 0
M  V30 9085 N 840.857 5.45179 -4.27495 0
M  V30 9086 N 842.65 4.52866 -3.32969 0
M  V30 9087 H 834.801 0.915832 -1.91641 0
M  V30 9088 H 837.064 0.464283 -0.826526 0
M  V30 9089 H 836.77 2.21366 -2.73295 0
M  V30 9090 H 836.644 3.45939 -1.50353 0
M  V30 9091 H 839.031 2.86431 -0.710037 0
M  V30 9092 H 839.112 1.62787 -1.97317 0
M  V30 9093 H 838.756 3.43895 -3.73763 0
M  V30 9094 H 838.686 4.66362 -2.4457 0
M  V30 9095 H 841.177 3.14014 -2.10247 0
M  V30 9096 H 841.49 6.0526 -4.80499 0
M  V30 9097 H 839.835 5.44759 -4.31582 0
M  V30 9098 H 843.026 3.84215 -2.67389 0
M  V30 9099 H 843.199 5.17039 -3.90608 0
M  V30 9100 N 836.605 0.766683 1.37694 0
M  V30 9101 C 838.021 0.445739 1.53249 0
M  V30 9102 C 838.221 -1.03935 1.72626 0
M  V30 9103 O 837.277 -1.82525 1.74473 0
M  V30 9104 C 838.59 1.2564 2.73194 0
M  V30 9105 C 840.138 1.24779 2.87053 0
M  V30 9106 C 840.613 2.04169 4.09974 0
M  V30 9107 N 842.104 2.01497 4.17077 0
M  V30 9108 C 842.839 2.5971 5.11212 0
M  V30 9109 N 842.335 3.26691 6.10938 0
M  V30 9110 N 844.128 2.49568 5.03659 0
M  V30 9111 H 836.279 1.72899 1.23368 0
M  V30 9112 H 838.542 0.733701 0.600322 0
M  V30 9113 H 838.248 2.30859 2.65324 0
M  V30 9114 H 838.122 0.882133 3.6674 0
M  V30 9115 H 840.509 0.203603 2.94397 0
M  V30 9116 H 840.59 1.66166 1.9448 0
M  V30 9117 H 840.234 3.08606 4.03392 0
M  V30 9118 H 840.164 1.60167 5.01651 0
M  V30 9119 H 842.655 1.52728 3.45662 0
M  V30 9120 H 842.968 3.68497 6.79286 0
M  V30 9121 H 841.313 3.30789 6.11231 0
M  V30 9122 H 844.504 1.96859 4.24693 0
M  V30 9123 H 844.677 2.95231 5.76839 0
M  V30 9124 N 838.083 -1.48885 0.516809 0
M  V30 9125 C 839.031 -2.31066 -0.266656 0
M  V30 9126 C 840.025 -1.40393 -0.94795 0
M  V30 9127 O 841.231 -1.57366 -0.873836 0
M  V30 9128 H 837.606 -0.744654 -0.104858 0
M  V30 9129 H 839.577 -2.95045 0.446236 0
M  V30 9130 C 838.326 -3.22131 -1.3087 0
M  V30 9131 H 837.649 -3.91839 -0.793865 0
M  V30 9132 H 839.089 -3.82544 -1.82856 0
M  V30 9133 C 837.548 -2.42825 -2.33533 0
M  V30 9134 O 838.078 -2.14364 -3.39722 0
M  V30 9135 N 836.284 -2.04559 -2.06407 0
M  V30 9136 H 835.831 -2.27905 -1.20071 0
M  V30 9137 H 835.789 -1.51807 -2.75322 0
M  V30 9138 N 839.561 -0.251338 -1.55583 0
M  V30 9139 C 840.524 0.63305 -2.20284 0
M  V30 9140 C 841.524 1.09941 -1.17344 0
M  V30 9141 O 842.714 1.00341 -1.42399 0
M  V30 9142 C 839.846 1.8706 -2.84993 0
M  V30 9143 H 841.039 0.0684846 -2.99822 0
M  V30 9144 H 838.592 -0.00181653 -1.563 0
M  V30 9145 H 839.327 2.47629 -2.09405 0
M  V30 9146 H 839.112 1.54436 -3.60405 0
M  V30 9147 H 840.602 2.50004 -3.34496 0
M  V30 9148 N 841.039 1.57585 0.0217189 0
M  V30 9149 C 842.316 1.80779 0.74687 0
M  V30 9150 C 842.696 0.851163 1.9318 0
M  V30 9151 O 842.044 -0.105039 2.28258 0
M  V30 9152 C 842.254 3.28696 1.17302 0
M  V30 9153 C 843.602 3.93871 1.58589 0
M  V30 9154 O 844.626 3.3289 1.2674 0
M  V30 9155 O 843.485 5.01254 2.1773 0
M  V30 9156 H 840.579 0.743666 0.361786 0
M  V30 9157 H 843.125 1.697 -0.00206785 0
M  V30 9158 H 841.897 3.89927 0.327453 0
M  V30 9159 H 841.52 3.44692 1.98174 0
M  V30 9160 N 842.517 -0.29412 1.54831 0
M  V30 9161 C 843.465 -1.38296 1.87021 0
M  V30 9162 C 844.459 -1.5216 0.744557 0
M  V30 9163 O 845.665 -1.54196 0.92864 0
M  V30 9164 H 842.04 -0.462088 0.593278 0
M  V30 9165 H 844.011 -1.08386 2.7802 0
M  V30 9166 C 842.76 -2.74024 2.14023 0
M  V30 9167 H 842.083 -2.6414 3.00117 0
M  V30 9168 H 843.523 -3.49205 2.40482 0
M  V30 9169 C 841.982 -3.23492 0.940982 0
M  V30 9170 O 842.512 -4.01361 0.164937 0
M  V30 9171 N 840.718 -2.80902 0.744467 0
M  V30 9172 H 840.265 -2.17694 1.37721 0
M  V30 9173 H 840.223 -3.14349 -0.0563652 0
M  V30 9174 N 843.995 -1.47404 -0.557645 0
M  V30 9175 C 844.942 -1.59859 -1.66475 0
M  V30 9176 C 845.912 -0.441644 -1.60121 0
M  V30 9177 O 847.097 -0.661641 -1.78961 0
M  V30 9178 C 844.237 -1.61843 -3.04797 0
M  V30 9179 C 843.35 -2.8845 -3.2159 0
M  V30 9180 C 842.485 -2.81773 -4.50308 0
M  V30 9181 C 841.524 -4.03208 -4.60532 0
M  V30 9182 N 840.661 -3.94769 -5.80604 0
M  V30 9183 H 845.501 -2.54415 -1.55168 0
M  V30 9184 H 843.038 -1.26194 -0.755876 0
M  V30 9185 H 844.996 -1.60976 -3.84893 0
M  V30 9186 H 843.626 -0.707997 -3.1494 0
M  V30 9187 H 842.678 -2.99186 -2.34929 0
M  V30 9188 H 843.99 -3.78379 -3.25009 0
M  V30 9189 H 843.144 -2.79153 -5.38663 0
M  V30 9190 H 841.883 -1.89527 -4.49367 0
M  V30 9191 H 840.888 -4.06133 -3.70589 0
M  V30 9192 H 842.113 -4.9658 -4.63233 0
M  V30 9193 H 840.059 -3.05326 -5.80613 0
M  V30 9194 H 839.976 -4.78375 -5.854 0
M  V30 9195 H 841.244 -3.96165 -6.71322 0
M  V30 9196 N 845.473 0.80434 -1.35529 0
M  V30 9197 C 846.383 1.94784 -1.30753 0
M  V30 9198 C 847.399 1.72703 -0.212071 0
M  V30 9199 O 848.575 1.96494 -0.441841 0
M  V30 9200 C 845.64 3.29406 -1.08133 0
M  V30 9201 C 844.701 3.64367 -2.27013 0
M  V30 9202 C 843.934 4.92566 -2.05463 0
M  V30 9203 O 844.157 5.61166 -1.02222 0
M  V30 9204 O 843.091 5.25838 -2.92879 0
M  V30 9205 H 846.917 2.01761 -2.26994 0
M  V30 9206 H 844.502 0.942448 -1.15924 0
M  V30 9207 H 846.384 4.09995 -0.973756 0
M  V30 9208 H 845.059 3.23355 -0.149444 0
M  V30 9209 H 843.966 2.84146 -2.43335 0
M  V30 9210 H 845.299 3.75125 -3.18656 0
M  V30 9211 N 846.951 1.19563 1.02676 0
M  V30 9212 C 848.228 0.908857 1.73203 0
M  V30 9213 C 848.608 -0.584928 2.02834 0
M  V30 9214 O 847.956 -1.54372 1.68469 0
M  V30 9215 C 848.166 1.77105 3.00724 0
M  V30 9216 C 849.514 2.00667 3.7419 0
M  V30 9217 O 850.538 1.74274 3.10656 0
M  V30 9218 O 849.397 2.4518 4.88415 0
M  V30 9219 H 846.491 0.338909 0.754367 0
M  V30 9220 H 849.037 1.30387 1.08616 0
M  V30 9221 H 847.809 2.78303 2.7507 0
M  V30 9222 H 847.432 1.37546 3.73051 0
M  V30 9223 N 848.429 -1.21819 0.999893 0
M  V30 9224 C 849.359 -2.26282 0.576096 0
M  V30 9225 C 850.34 -1.65317 -0.400537 0
M  V30 9226 O 851.525 -1.92028 -0.28964 0
M  V30 9227 C 848.655 -3.47147 -0.103145 0
M  V30 9228 C 847.609 -4.20594 0.792745 0
M  V30 9229 C 846.935 -5.34696 -0.0198026 0
M  V30 9230 C 848.235 -4.78533 2.09293 0
M  V30 9231 H 849.929 -2.61984 1.4493 0
M  V30 9232 H 847.475 -1.25935 0.698316 0
M  V30 9233 H 849.428 -4.1939 -0.411068 0
M  V30 9234 H 848.152 -3.1056 -1.01094 0
M  V30 9235 H 846.811 -3.50194 1.08442 0
M  V30 9236 H 846.459 -4.94352 -0.928729 0
M  V30 9237 H 846.159 -5.84764 0.576661 0
M  V30 9238 H 847.683 -6.09752 -0.321659 0
M  V30 9239 H 849.097 -5.42682 1.8485 0
M  V30 9240 H 847.494 -5.38968 2.63881 0
M  V30 9241 H 848.564 -3.98197 2.76708 0
M  V30 9242 N 849.908 -0.773975 -1.37286 0
M  V30 9243 C 851.136 -0.350758 -2.03905 0
M  V30 9244 C 851.551 1.02779 -1.58373 0
M  V30 9245 O 850.908 1.65646 -0.766009 0
M  V30 9246 C 850.959 -0.387335 -3.59419 0
M  V30 9247 O 850.68 -1.7115 -4.03286 0
M  V30 9248 C 852.181 0.047198 -4.43275 0
M  V30 9249 H 849.401 -0.146663 -0.654775 0
M  V30 9250 H 851.945 -1.04852 -1.75574 0
M  V30 9251 H 850.1 0.261865 -3.86514 0
M  V30 9252 H 850.514 -1.65166 -4.97816 0
M  V30 9253 H 851.988 -0.0295474 -5.51992 0
M  V30 9254 H 852.465 1.09786 -4.25257 0
M  V30 9255 H 853.071 -0.573899 -4.2141 0
M  V30 9256 N 851.386 1.48609 -0.524698 0
M  V30 9257 C 852.611 2.07398 0.00952139 0
M  V30 9258 C 853.036 1.37939 1.27884 0
M  V30 9259 O 852.394 0.443633 1.75788 0
M  V30 9260 C 852.442 3.59916 0.221956 0
M  V30 9261 O 851.546 3.91647 1.29175 0
M  V30 9262 H 850.887 0.662981 -0.0367729 0
M  V30 9263 H 853.417 1.91092 -0.7311 0
M  V30 9264 H 853.427 4.05552 0.446236 0
M  V30 9265 H 852.102 4.09876 -0.705306 0
M  V30 9266 H 850.679 3.57796 1.05055 0
M  V30 9267 N 852.864 0.259585 1.55447 0
M  V30 9268 C 853.827 -0.621359 2.20617 0
M  V30 9269 C 854.827 -1.09317 1.17925 0
M  V30 9270 O 856.017 -0.995842 1.42929 0
M  V30 9271 C 853.149 -1.85546 2.85982 0
M  V30 9272 H 854.342 -0.0525833 2.99854 0
M  V30 9273 H 851.895 0.0101055 1.56297 0
M  V30 9274 H 852.63 -2.46515 2.10715 0
M  V30 9275 H 852.415 -1.52523 3.61219 0
M  V30 9276 H 853.905 -2.48227 3.35817 0
M  V30 9277 N 854.342 -1.57594 -0.0133615 0
M  V30 9278 C 855.619 -1.81173 -0.737273 0
M  V30 9279 C 855.999 -0.861395 -1.92726 0
M  V30 9280 O 855.347 0.0929324 -2.28311 0
M  V30 9281 C 855.557 -3.29314 -1.15557 0
M  V30 9282 C 856.905 -3.94707 -1.56498 0
M  V30 9283 O 857.929 -3.33557 -1.24973 0
M  V30 9284 O 856.788 -5.02402 -2.15069 0
M  V30 9285 H 853.882 -0.745575 -0.357837 0
M  V30 9286 H 856.428 -1.69696 0.0110674 0
M  V30 9287 H 855.2 -3.90096 -0.30677 0
M  V30 9288 H 854.823 -3.45739 -1.96343 0
M  V30 9289 N 855.82 0.285905 -1.54985 0
M  V30 9290 C 857.231 0.857869 -1.65824 0
M  V30 9291 C 857.582 1.87531 -0.576763 0
M  V30 9292 O 856.707 2.14528 0.284016 0
M  V30 9293 C 857.302 1.56277 -3.00604 0
M  V30 9294 C 855.861 2.08294 -3.13513 0
M  V30 9295 C 855.008 0.920633 -2.61571 0
M  V30 9296 H 857.959 0.0625463 -1.58577 0
M  V30 9297 H 857.98 2.42912 -2.92872 0
M  V30 9298 H 857.492 0.822017 -3.79295 0
M  V30 9299 H 855.593 2.8537 -2.39572 0
M  V30 9300 H 855.706 2.3071 -4.19892 0
M  V30 9301 H 854.07 1.31043 -2.18403 0
M  V30 9302 H 854.853 0.193594 -3.42754 0
M  V30 9303 N 857.298 1.47698 0.54982 0
M  V30 9304 C 858.208 1.63386 1.68351 0
M  V30 9305 C 859.224 0.516583 1.66155 0
M  V30 9306 O 860.4 0.785088 1.85468 0
M  V30 9307 C 857.465 1.6513 3.04849 0
M  V30 9308 C 856.526 2.88338 3.18056 0
M  V30 9309 C 855.759 2.8999 4.48042 0
M  V30 9310 O 855.982 2.00633 5.3395 0
M  V30 9311 O 854.916 3.81938 4.65196 0
M  V30 9312 H 858.742 2.59329 1.58057 0
M  V30 9313 H 856.327 1.30869 0.72067 0
M  V30 9314 H 858.209 1.68913 3.86065 0
M  V30 9315 H 856.884 0.723555 3.1551 0
M  V30 9316 H 855.791 2.90097 2.36209 0
M  V30 9317 H 857.124 3.80431 3.12302 0
M  V30 9318 N 858.776 -0.797141 1.35954 0
M  V30 9319 C 860.024 -1.55161 1.29497 0
M  V30 9320 C 860.345 -1.94582 -0.127659 0
M  V30 9321 O 859.615 -1.64343 -1.06622 0
M  V30 9322 H 858.195 -0.575413 0.47635 0
M  V30 9323 H 860.857 -0.950282 1.70164 0
M  V30 9324 H 859.953 -2.46272 1.9172 0
M  V30 9325 N 860.254 -1.20106 -1.0204 0
M  V30 9326 C 861.186 -0.904236 -2.10609 0
M  V30 9327 C 862.199 0.106487 -1.62451 0
M  V30 9328 O 863.388 -0.124035 -1.78069 0
M  V30 9329 C 860.488 -0.333423 -3.37256 0
M  V30 9330 C 859.661 -1.39476 -4.14566 0
M  V30 9331 C 858.72 -0.835961 -5.19517 0
M  V30 9332 O 857.746 -1.51573 -5.48648 0
M  V30 9333 N 858.948 0.356531 -5.79404 0
M  V30 9334 H 861.713 -1.8388 -2.36661 0
M  V30 9335 H 859.274 -1.10422 -1.184 0
M  V30 9336 H 861.266 0.0544571 -4.04663 0
M  V30 9337 H 859.836 0.505608 -3.08484 0
M  V30 9338 H 859.056 -1.95714 -3.42184 0
M  V30 9339 H 860.344 -2.10967 -4.63001 0
M  V30 9340 H 859.742 0.926143 -5.58067 0
M  V30 9341 H 858.299 0.686093 -6.48179 0
M  V30 9342 N 861.732 1.21287 -1.00634 0
M  V30 9343 C 862.981 1.89706 -0.685178 0
M  V30 9344 C 863.294 1.79044 0.787566 0
M  V30 9345 O 864.5 2.42502 1.22086 0
M  V30 9346 C 862.956 3.40176 -1.17508 0
M  V30 9347 C 862.564 3.59446 -2.674 0
M  V30 9348 C 864.308 4.14213 -0.928869 0
M  V30 9349 C 862.215 5.03688 -3.09923 0
M  V30 9350 H 861.145 0.710434 -0.252586 0
M  V30 9351 H 863.796 1.37277 -1.21768 0
M  V30 9352 H 862.178 3.91867 -0.570622 0
M  V30 9353 H 863.352 3.18188 -3.33306 0
M  V30 9354 H 861.667 2.98764 -2.9005 0
M  V30 9355 H 864.264 5.20546 -1.22212 0
M  V30 9356 H 864.607 4.16082 0.134859 0
M  V30 9357 H 865.14 3.68591 -1.49619 0
M  V30 9358 H 861.879 5.06968 -4.15529 0
M  V30 9359 H 861.399 5.45796 -2.4873 0
M  V30 9360 H 863.078 5.72204 -3.0198 0
M  V30 9361 N 863.21 0.781244 1.36873 0
M  V30 9362 C 864.143 0.120106 2.27884 0
M  V30 9363 C 865.121 -0.698961 1.4681 0
M  V30 9364 O 866.305 -0.671694 1.76126 0
M  V30 9365 C 863.432 -0.835804 3.28226 0
M  V30 9366 C 862.478 -0.0995527 4.26384 0
M  V30 9367 S 863.311 1.21903 5.2144 0
M  V30 9368 C 864.467 0.266904 6.25331 0
M  V30 9369 H 864.7 0.891796 2.83609 0
M  V30 9370 H 862.233 0.575075 1.43291 0
M  V30 9371 H 864.191 -1.3819 3.86541 0
M  V30 9372 H 862.852 -1.58068 2.71428 0
M  V30 9373 H 862.045 -0.82457 4.97209 0
M  V30 9374 H 861.647 0.375818 3.72107 0
M  V30 9375 H 863.939 -0.55725 6.75204 0
M  V30 9376 H 864.882 0.943603 7.01785 0
M  V30 9377 H 865.29 -0.126121 5.64359 0
M  V30 9378 N 864.689 -1.48329 0.532571 0
M  V30 9379 C 866.105 -1.58458 0.190605 0
M  V30 9380 C 866.305 -1.53427 -1.30623 0
M  V30 9381 O 865.361 -1.4247 -2.08467 0
M  V30 9382 C 866.674 -2.89989 0.79543 0
M  V30 9383 C 868.222 -3.03523 0.7644 0
M  V30 9384 C 868.697 -4.37718 1.34785 0
M  V30 9385 N 870.188 -4.44292 1.30993 0
M  V30 9386 C 870.923 -5.4664 1.73124 0
M  V30 9387 N 870.419 -6.5593 2.22997 0
M  V30 9388 N 872.212 -5.37538 1.64346 0
M  V30 9389 H 864.363 -1.49842 1.50537 0
M  V30 9390 H 866.626 -0.71164 0.626316 0
M  V30 9391 H 866.332 -2.99333 1.84642 0
M  V30 9392 H 866.206 -3.76203 0.27403 0
M  V30 9393 H 868.593 -2.93789 -0.277831 0
M  V30 9394 H 868.674 -2.18912 1.3233 0
M  V30 9395 H 868.318 -4.48206 2.38902 0
M  V30 9396 H 868.248 -5.21019 0.764609 0
M  V30 9397 H 870.739 -3.65897 0.944868 0
M  V30 9398 H 871.052 -7.30167 2.53133 0
M  V30 9399 H 869.397 -6.56886 2.26992 0
M  V30 9400 H 872.588 -4.51052 1.25178 0
M  V30 9401 H 872.761 -6.17169 1.97501 0
M  V30 9402 N 866.167 -0.267825 -1.55308 0
M  V30 9403 C 867.077 0.633055 -2.25897 0
M  V30 9404 C 868.093 1.17613 -1.28231 0
M  V30 9405 O 869.269 1.20797 -1.61153 0
M  V30 9406 C 866.334 1.80397 -2.96071 0
M  V30 9407 C 865.395 1.29829 -4.09198 0
M  V30 9408 C 864.628 2.4134 -4.76016 0
M  V30 9409 O 864.851 3.60537 -4.42006 0
M  V30 9410 O 863.785 2.09909 -5.64111 0
M  V30 9411 H 867.611 0.0614381 -3.03638 0
M  V30 9412 H 865.196 -0.0355072 -1.49358 0
M  V30 9413 H 867.078 2.48685 -3.40197 0
M  V30 9414 H 865.753 2.36281 -2.21253 0
M  V30 9415 H 864.66 0.582086 -3.69544 0
M  V30 9416 H 865.993 0.785288 -4.85895 0
M  V30 9417 N 867.645 1.57599 0.00500368 0
M  V30 9418 C 868.875 1.94344 0.700998 0
M  V30 9419 C 869.283 0.868011 1.68114 0
M  V30 9420 O 868.626 -0.16214 1.82983 0
M  V30 9421 C 868.688 3.27046 1.49268 0
M  V30 9422 C 868.352 4.51992 0.674684 0
M  V30 9423 C 869.349 5.19888 -0.0354833 0
M  V30 9424 C 867.034 4.98432 0.622129 0
M  V30 9425 C 869.028 6.3252 -0.787246 0
M  V30 9426 C 866.715 6.10954 -0.133362 0
M  V30 9427 C 867.713 6.77855 -0.836788 0
M  V30 9428 O 867.401 7.88221 -1.57996 0
M  V30 9429 H 867.133 0.645572 0.20053 0
M  V30 9430 H 869.687 2.0536 -0.040718 0
M  V30 9431 H 867.917 3.12424 2.27877 0
M  V30 9432 H 869.606 3.4894 2.07355 0
M  V30 9433 H 870.372 4.85 -0.00400159 0
M  V30 9434 H 866.251 4.46189 1.15917 0
M  V30 9435 H 869.795 6.84671 -1.33683 0
M  V30 9436 H 865.692 6.45285 -0.166682 0
M  V30 9437 H 866.46 8.0471 -1.49615 0
M  V30 9438 N 869.123 -0.277682 1.55134 0
M  V30 9439 C 870.086 -1.32635 1.86924 0
M  V30 9440 C 871.086 -1.42578 0.743507 0
M  V30 9441 O 872.276 -1.4181 1.01171 0
M  V30 9442 C 869.408 -2.70832 2.07034 0
M  V30 9443 H 870.601 -1.0568 2.80663 0
M  V30 9444 H 868.154 -0.515517 1.47554 0
M  V30 9445 H 868.889 -3.02974 1.15661 0
M  V30 9446 H 868.674 -2.65001 2.88993 0
M  V30 9447 H 870.164 -3.46611 2.32918 0
M  V30 9448 N 870.601 -1.47988 -0.541979 0
M  V30 9449 C 871.564 -1.61148 -1.62984 0
M  V30 9450 C 872.564 -0.48553 -1.53295 0
M  V30 9451 O 873.754 -0.751012 -1.5718 0
M  V30 9452 C 870.886 -1.57038 -3.02576 0
M  V30 9453 H 872.079 -2.58138 -1.52659 0
M  V30 9454 H 869.632 -1.36405 -0.763106 0
M  V30 9455 H 870.367 -0.614807 -3.18419 0
M  V30 9456 H 870.152 -2.38769 -3.11018 0
M  V30 9457 H 871.642 -1.69416 -3.81691 0
M  V30 9458 N 872.079 0.78992 -1.36375 0
M  V30 9459 C 873.356 1.53584 -1.21126 0
M  V30 9460 C 873.736 2.10124 0.202785 0
M  V30 9461 O 873.084 1.93936 1.20835 0
M  V30 9462 C 873.294 2.63117 -2.29282 0
M  V30 9463 C 874.642 3.31013 -2.65924 0
M  V30 9464 O 875.666 2.734 -2.28321 0
M  V30 9465 O 874.525 4.35129 -3.30643 0
M  V30 9466 H 871.619 0.679366 -0.471583 0
M  V30 9467 H 874.165 0.828446 -1.48104 0
M  V30 9468 H 872.937 2.19329 -3.24053 0
M  V30 9469 H 872.56 3.41476 -2.03666 0
M  V30 9470 N 873.557 1.20646 1.01402 0
M  V30 9471 C 874.968 1.01823 1.56489 0
M  V30 9472 C 875.319 -0.42463 1.9155 0
M  V30 9473 O 874.444 -1.30644 1.72514 0
M  V30 9474 C 875.039 1.84208 2.84347 0
M  V30 9475 C 873.598 1.69743 3.35953 0
M  V30 9476 C 872.745 1.8198 2.09233 0
M  V30 9477 H 875.696 1.348 0.837539 0
M  V30 9478 H 875.717 1.34698 3.55861 0
M  V30 9479 H 875.229 2.89215 2.58798 0
M  V30 9480 H 873.33 0.673833 3.66456 0
M  V30 9481 H 873.443 2.51173 4.07981 0
M  V30 9482 H 871.807 1.25193 2.21808 0
M  V30 9483 H 872.59 2.88477 1.86107 0
M  V30 9484 N 875.035 -1.20752 1.01276 0
M  V30 9485 C 875.945 -2.27079 0.589277 0
M  V30 9486 C 876.961 -1.6999 -0.371389 0
M  V30 9487 O 878.137 -2.00044 -0.233294 0
M  V30 9488 C 875.202 -3.4663 -0.0696715 0
M  V30 9489 C 874.263 -4.18962 0.936454 0
M  V30 9490 C 873.496 -5.32806 0.308856 0
M  V30 9491 O 873.719 -5.63376 -0.8924 0
M  V30 9492 O 872.653 -5.93131 1.02367 0
M  V30 9493 H 876.479 -2.6551 1.47438 0
M  V30 9494 H 874.064 -1.27297 0.782045 0
M  V30 9495 H 875.946 -4.19119 -0.437873 0
M  V30 9496 H 874.621 -3.10082 -0.929029 0
M  V30 9497 H 873.528 -3.48661 1.35595 0
M  V30 9498 H 874.861 -4.59441 1.76565 0
M  V30 9499 N 876.513 -0.788492 -1.36457 0
M  V30 9500 C 877.743 -0.371825 -2.03227 0
M  V30 9501 C 878.151 1.01627 -1.59589 0
M  V30 9502 O 877.494 1.663 -0.780382 0
M  V30 9503 C 877.556 -0.355179 -3.57741 0
M  V30 9504 C 877.22 -1.69069 -4.24576 0
M  V30 9505 C 878.217 -2.64601 -4.47529 0
M  V30 9506 C 875.902 -1.96973 -4.62068 0
M  V30 9507 C 877.896 -3.86232 -5.07054 0
M  V30 9508 C 875.583 -3.18872 -5.2131 0
M  V30 9509 C 876.581 -4.1332 -5.43742 0
M  V30 9510 O 876.269 -5.3307 -6.0174 0
M  V30 9511 H 876.001 -0.151452 -0.658816 0
M  V30 9512 H 878.555 -1.06827 -1.75434 0
M  V30 9513 H 876.785 0.397753 -3.84649 0
M  V30 9514 H 878.474 0.0366955 -4.05883 0
M  V30 9515 H 879.24 -2.44329 -4.18961 0
M  V30 9516 H 875.119 -1.24277 -4.43933 0
M  V30 9517 H 878.663 -4.59965 -5.24478 0
M  V30 9518 H 874.56 -3.39022 -5.49304 0
M  V30 9519 H 875.328 -5.34121 -6.20207 0
M  V30 9520 N 877.991 1.48044 -0.54043 0
M  V30 9521 C 879.407 1.58354 -0.199006 0
M  V30 9522 C 879.607 1.54118 1.29807 0
M  V30 9523 O 878.663 1.43573 2.07709 0
M  V30 9524 C 879.976 2.89563 -0.810797 0
M  V30 9525 C 881.524 3.03113 -0.780486 0
M  V30 9526 C 881.999 4.36997 -1.37104 0
M  V30 9527 N 883.49 4.43591 -1.33347 0
M  V30 9528 C 884.225 5.45714 -1.76021 0
M  V30 9529 N 883.721 6.54738 -2.26473 0
M  V30 9530 N 885.514 5.36659 -1.67194 0
M  V30 9531 H 877.665 1.49041 -1.51329 0
M  V30 9532 H 879.928 0.708309 -0.630081 0
M  V30 9533 H 879.634 2.9835 -1.86227 0
M  V30 9534 H 879.508 3.76053 -0.293977 0
M  V30 9535 H 881.895 2.93932 0.262246 0
M  V30 9536 H 881.976 2.18207 -1.33489 0
M  V30 9537 H 881.62 4.46932 -2.41276 0
M  V30 9538 H 881.55 5.20607 -0.792229 0
M  V30 9539 H 884.041 3.65391 -0.964259 0
M  V30 9540 H 884.354 7.28814 -2.57002 0
M  V30 9541 H 882.699 6.55673 -2.30473 0
M  V30 9542 H 885.89 4.50382 -1.27569 0
M  V30 9543 H 886.063 6.16113 -2.00771 0
M  V30 9544 N 879.47 0.276058 1.55163 0
M  V30 9545 C 880.417 -0.611006 2.22565 0
M  V30 9546 C 881.387 -1.14902 1.19945 0
M  V30 9547 O 882.572 -1.19815 1.48489 0
M  V30 9548 C 879.712 -1.78885 2.95117 0
M  V30 9549 C 878.825 -1.2846 4.12458 0
M  V30 9550 C 877.96 -2.42432 4.72652 0
M  V30 9551 C 876.999 -1.89015 5.82185 0
M  V30 9552 N 876.136 -2.96463 6.36439 0
M  V30 9553 H 880.976 -0.0295849 2.97985 0
M  V30 9554 H 878.513 -0.00283607 1.471 0
M  V30 9555 H 880.471 -2.48121 3.35398 0
M  V30 9556 H 879.101 -2.34229 2.22119 0
M  V30 9557 H 878.153 -0.485312 3.77292 0
M  V30 9558 H 879.465 -0.853358 4.91446 0
M  V30 9559 H 878.619 -3.19659 5.15658 0
M  V30 9560 H 877.358 -2.88872 3.92943 0
M  V30 9561 H 876.363 -1.10267 5.38629 0
M  V30 9562 H 877.588 -1.43509 6.63763 0
M  V30 9563 H 875.534 -3.42283 5.59623 0
M  V30 9564 H 875.451 -2.57759 7.10701 0
M  V30 9565 H 876.719 -3.73663 6.84103 0
M  V30 9566 N 880.948 -1.576 0.00335426 0
M  V30 9567 C 881.898 -2.05116 -0.995562 0
M  V30 9568 C 882.882 -0.946535 -1.30113 0
M  V30 9569 O 884.074 -1.21028 -1.29156 0
M  V30 9570 C 881.203 -2.56077 -2.28648 0
M  V30 9571 C 880.289 -3.73422 -2.0104 0
M  V30 9572 N 880.68 -4.84986 -1.43603 0
M  V30 9573 C 878.978 -3.81416 -2.31166 0
M  V30 9574 C 879.679 -5.66399 -1.32542 0
M  V30 9575 N 878.655 -5.12505 -1.81218 0
M  V30 9576 H 882.457 -2.88783 -0.546025 0
M  V30 9577 H 879.971 -1.61135 -0.202265 0
M  V30 9578 H 881.968 -2.88395 -3.01055 0
M  V30 9579 H 880.628 -1.73829 -2.74251 0
M  V30 9580 H 881.639 -5.05768 -1.11439 0
M  V30 9581 H 878.316 -3.1003 -2.7962 0
M  V30 9582 H 879.706 -6.66066 -0.88348 0
M  V30 9583 N 882.426 0.269451 -1.5528 0
M  V30 9584 C 883.356 1.33729 -1.91413 0
M  V30 9585 C 884.337 1.51348 -0.776391 0
M  V30 9586 O 885.522 1.64332 -1.03482 0
M  V30 9587 C 882.652 2.69618 -2.18914 0
M  V30 9588 C 881.606 2.66725 -3.34726 0
M  V30 9589 C 880.932 4.06199 -3.47716 0
M  V30 9590 C 882.232 2.25684 -4.71025 0
M  V30 9591 H 883.926 1.03736 -2.80854 0
M  V30 9592 H 881.472 0.497579 -1.3513 0
M  V30 9593 H 883.425 3.44436 -2.42779 0
M  V30 9594 H 882.149 3.01201 -1.26275 0
M  V30 9595 H 880.808 1.94365 -3.10834 0
M  V30 9596 H 880.456 4.3501 -2.52537 0
M  V30 9597 H 880.156 4.05157 -4.25583 0
M  V30 9598 H 881.68 4.8275 -3.73877 0
M  V30 9599 H 883.094 2.90225 -4.94411 0
M  V30 9600 H 881.491 2.35797 -5.51833 0
M  V30 9601 H 882.561 1.20819 -4.69607 0
M  V30 9602 N 883.904 1.48273 0.534124 0
M  V30 9603 C 884.814 1.65162 1.66609 0
M  V30 9604 C 885.83 0.534177 1.65598 0
M  V30 9605 O 887.006 0.804715 1.84625 0
M  V30 9606 C 884.071 1.68354 3.03081 0
M  V30 9607 C 883.132 2.91696 3.1498 0
M  V30 9608 C 882.365 2.94725 4.44941 0
M  V30 9609 O 882.588 2.06285 5.31792 0
M  V30 9610 O 881.522 3.8685 4.61119 0
M  V30 9611 H 885.348 2.60991 1.55298 0
M  V30 9612 H 882.933 1.31626 0.706749 0
M  V30 9613 H 884.815 1.72998 3.84252 0
M  V30 9614 H 883.49 0.756978 3.14725 0
M  V30 9615 H 882.397 2.92586 2.33119 0
M  V30 9616 H 883.73 3.83722 3.0825 0
M  V30 9617 N 885.382 -0.782676 1.36792 0
M  V30 9618 C 886.631 -1.53605 1.30723 0
M  V30 9619 C 886.944 -1.95294 -0.109296 0
M  V30 9620 O 888.15 -2.69921 -0.292398 0
M  V30 9621 C 886.606 -2.77321 2.29393 0
M  V30 9622 C 886.214 -2.42774 3.76517 0
M  V30 9623 C 887.958 -3.55289 2.32314 0
M  V30 9624 C 885.865 -3.62926 4.66947 0
M  V30 9625 H 884.795 -0.576646 0.485794 0
M  V30 9626 H 887.446 -0.858255 1.62192 0
M  V30 9627 H 885.828 -3.46934 1.90927 0
M  V30 9628 H 887.002 -1.81014 4.23758 0
M  V30 9629 H 885.317 -1.78002 3.76436 0
M  V30 9630 H 887.914 -4.44573 2.97083 0
M  V30 9631 H 888.257 -3.94361 1.3336 0
M  V30 9632 H 888.79 -2.92662 2.69432 0
M  V30 9633 H 885.529 -3.28944 5.66989 0
M  V30 9634 H 885.049 -4.23828 4.24418 0
M  V30 9635 H 886.728 -4.29873 4.83548 0
M  V30 9636 N 886.86 -1.21182 -1.00761 0
M  V30 9637 C 888.107 -1.02746 -1.74498 0
M  V30 9638 C 888.435 0.439344 -1.89473 0
M  V30 9639 O 887.69 1.34232 -1.42409 0
M  V30 9640 C 887.989 -1.6667 -3.16158 0
M  V30 9641 C 887.655 -3.16515 -3.21137 0
M  V30 9642 C 886.317 -3.57405 -3.22203 0
M  V30 9643 C 888.669 -4.12495 -3.18587 0
M  V30 9644 C 885.997 -4.92786 -3.18401 0
M  V30 9645 C 888.349 -5.47833 -3.16326 0
M  V30 9646 C 887.013 -5.88124 -3.157 0
M  V30 9647 H 886.283 -0.375974 -0.638533 0
M  V30 9648 H 888.93 -1.50736 -1.18114 0
M  V30 9649 H 887.235 -1.10966 -3.75758 0
M  V30 9650 H 888.932 -1.49911 -3.71924 0
M  V30 9651 H 885.522 -2.83947 -3.21048 0
M  V30 9652 H 889.706 -3.81932 -3.16925 0
M  V30 9653 H 884.962 -5.23253 -3.16253 0
M  V30 9654 H 889.136 -6.21942 -3.13306 0
M  V30 9655 H 886.763 -6.92995 -3.12508 0
M  V30 9656 N 888.338 1.20213 -1.01915 0
M  V30 9657 C 889.568 1.93341 -0.728197 0
M  V30 9658 C 889.976 1.75151 0.715454 0
M  V30 9659 O 889.319 1.06437 1.49722 0
M  V30 9660 C 889.381 3.45677 -0.9873 0
M  V30 9661 C 889.045 3.8763 -2.42057 0
M  V30 9662 C 890.042 3.93184 -3.40151 0
M  V30 9663 C 887.727 4.19547 -2.76199 0
M  V30 9664 C 889.721 4.30069 -4.70446 0
M  V30 9665 C 887.408 4.56106 -4.06707 0
M  V30 9666 C 888.406 4.6134 -5.03641 0
M  V30 9667 O 888.094 4.97059 -6.31813 0
M  V30 9668 H 887.826 0.621258 -0.266485 0
M  V30 9669 H 890.38 1.53577 -1.36393 0
M  V30 9670 H 888.61 3.85578 -0.294405 0
M  V30 9671 H 890.299 4.00035 -0.687536 0
M  V30 9672 H 891.065 3.68687 -3.15111 0
M  V30 9673 H 886.944 4.14663 -2.01434 0
M  V30 9674 H 890.488 4.34069 -5.46105 0
M  V30 9675 H 886.385 4.80059 -4.31525 0
M  V30 9676 H 887.153 5.15043 -6.36139 0
M  V30 9677 N 889.816 0.795718 1.36037 0
M  V30 9678 C 890.763 0.196548 2.29962 0
M  V30 9679 C 891.733 -0.663213 1.52285 0
M  V30 9680 O 892.918 -0.610574 1.80767 0
M  V30 9681 C 890.058 -0.657639 3.38776 0
M  V30 9682 C 889.171 0.221358 4.31433 0
M  V30 9683 C 888.306 -0.6398 5.27333 0
M  V30 9684 C 887.345 0.240265 6.11628 0
M  V30 9685 N 886.482 -0.580237 6.99698 0
M  V30 9686 H 891.322 1.00295 2.80615 0
M  V30 9687 H 888.859 0.506147 1.38118 0
M  V30 9688 H 890.817 -1.16793 4.00519 0
M  V30 9689 H 889.447 -1.42941 2.89426 0
M  V30 9690 H 888.499 0.84967 3.70789 0
M  V30 9691 H 889.811 0.899195 4.90628 0
M  V30 9692 H 888.965 -1.21566 5.94396 0
M  V30 9693 H 887.704 -1.35124 4.68607 0
M  V30 9694 H 886.709 0.828474 5.43522 0
M  V30 9695 H 887.934 0.949403 6.72431 0
M  V30 9696 H 885.88 -1.27585 6.43473 0
M  V30 9697 H 885.797 0.0397853 7.5599 0
M  V30 9698 H 887.065 -1.13972 7.71123 0
M  V30 9699 N 891.294 -1.47756 0.548274 0
M  V30 9700 C 892.543 -2.01691 0.0187961 0
M  V30 9701 C 892.856 -1.42894 -1.33569 0
M  V30 9702 O 894.062 -1.88438 -1.95457 0
M  V30 9703 C 892.518 -3.59896 -0.016847 0
M  V30 9704 C 892.126 -4.27683 1.33385 0
M  V30 9705 C 893.87 -4.21614 -0.494188 0
M  V30 9706 C 891.777 -5.7787 1.2578 0
M  V30 9707 H 890.707 -0.753993 0.00325648 0
M  V30 9708 H 893.358 -1.69838 0.694792 0
M  V30 9709 H 891.74 -3.88672 -0.758304 0
M  V30 9710 H 892.914 -4.10559 2.09232 0
M  V30 9711 H 891.229 -3.77915 1.7484 0
M  V30 9712 H 893.826 -5.3166 -0.569342 0
M  V30 9713 H 894.169 -3.88176 -1.50417 0
M  V30 9714 H 894.702 -3.97336 0.192138 0
M  V30 9715 H 891.441 -6.15912 2.2435 0
M  V30 9716 H 890.961 -5.97355 0.540997 0
M  V30 9717 H 892.64 -6.39897 0.956109 0
M  V30 9718 N 892.772 -0.284283 -1.55015 0
M  V30 9719 C 893.702 0.592663 -2.25853 0
M  V30 9720 C 894.683 1.15151 -1.25197 0
M  V30 9721 O 895.868 1.18395 -1.53936 0
M  V30 9722 C 892.998 1.77254 -2.98661 0
M  V30 9723 C 891.952 1.34482 -4.06323 0
M  V30 9724 C 891.278 2.60853 -4.66754 0
M  V30 9725 C 892.578 0.488288 -5.20013 0
M  V30 9726 H 894.272 0.00187041 -2.994 0
M  V30 9727 H 891.818 -0.000540402 -1.44 0
M  V30 9728 H 893.771 2.39199 -3.46932 0
M  V30 9729 H 892.495 2.38931 -2.22664 0
M  V30 9730 H 891.154 0.748519 -3.58877 0
M  V30 9731 H 890.802 3.20808 -3.87416 0
M  V30 9732 H 890.502 2.32942 -5.39455 0
M  V30 9733 H 892.026 3.23631 -5.1778 0
M  V30 9734 H 893.44 1.01298 -5.6428 0
M  V30 9735 H 891.837 0.303669 -5.99331 0
M  V30 9736 H 892.907 -0.490727 -4.8241 0
M  V30 9737 N 894.251 1.57596 -0.0117121 0
M  V30 9738 C 895.479 1.9536 0.681334 0
M  V30 9739 C 895.894 0.887255 1.66653 0
M  V30 9740 O 895.251 -0.132692 1.82017 0
M  V30 9741 C 895.302 3.33165 1.40298 0
M  V30 9742 O 895.023 4.35707 0.45728 0
M  V30 9743 C 896.524 3.85458 2.18946 0
M  V30 9744 H 893.744 0.643826 0.189023 0
M  V30 9745 H 896.288 2.04392 -0.066311 0
M  V30 9746 H 894.443 3.25404 2.10216 0
M  V30 9747 H 894.857 5.15495 0.96773 0
M  V30 9748 H 896.331 4.84275 2.64918 0
M  V30 9749 H 896.808 3.18781 3.02118 0
M  V30 9750 H 897.414 3.96431 1.5402 0
M  V30 9751 N 895.729 -0.261212 1.5542 0
M  V30 9752 C 896.677 -1.34298 1.89913 0
M  V30 9753 C 897.671 -1.50547 0.776665 0
M  V30 9754 O 898.877 -1.52191 0.961139 0
M  V30 9755 H 895.252 -0.4494 0.602946 0
M  V30 9756 H 897.223 -1.02464 2.80256 0
M  V30 9757 C 895.972 -2.69423 2.19788 0
M  V30 9758 H 895.295 -2.57715 3.05652 0
M  V30 9759 H 896.735 -3.44026 2.47835 0
M  V30 9760 C 895.194 -3.21423 1.00939 0
M  V30 9761 O 895.724 -4.00921 0.250034 0
M  V30 9762 N 893.93 -2.7926 0.803883 0
M  V30 9763 H 893.477 -2.14724 1.42308 0
M  V30 9764 H 893.435 -3.14398 0.0103257 0
M  V30 9765 N 897.207 -1.48554 -0.526253 0
M  V30 9766 C 898.435 -1.60429 -1.30652 0
M  V30 9767 C 898.85 -0.265963 -1.86917 0
M  V30 9768 O 898.207 0.745262 -1.6659 0
M  V30 9769 C 898.258 -2.65377 -2.45473 0
M  V30 9770 O 897.979 -3.94017 -1.91527 0
M  V30 9771 C 899.48 -2.87726 -3.37237 0
M  V30 9772 H 896.7 -0.540817 -0.397187 0
M  V30 9773 H 899.244 -1.94409 -0.634461 0
M  V30 9774 H 897.399 -2.34246 -3.08557 0
M  V30 9775 H 897.813 -4.51623 -2.66715 0
M  V30 9776 H 899.287 -3.64951 -4.14144 0
M  V30 9777 H 899.764 -1.96688 -3.92696 0
M  V30 9778 H 900.37 -3.20176 -2.79942 0
M  V30 9779 N 898.685 0.775411 -1.37205 0
M  V30 9780 C 899.962 1.5229 -1.22748 0
M  V30 9781 C 900.342 2.10327 0.180487 0
M  V30 9782 O 899.69 1.95206 1.18772 0
M  V30 9783 C 899.9 2.60671 -2.3206 0
M  V30 9784 C 901.248 3.28173 -2.6942 0
M  V30 9785 O 902.272 2.70963 -2.31208 0
M  V30 9786 O 901.131 4.31598 -3.3524 0
M  V30 9787 H 898.225 0.674326 -0.478762 0
M  V30 9788 H 900.771 0.812691 -1.48975 0
M  V30 9789 H 899.543 2.1588 -3.26361 0
M  V30 9790 H 899.166 3.39296 -2.07277 0
M  V30 9791 N 900.163 1.21714 1.00117 0
M  V30 9792 C 901.574 1.03477 1.55401 0
M  V30 9793 C 901.925 -0.40429 1.91989 0
M  V30 9794 O 901.05 -1.28807 1.7389 0
M  V30 9795 C 901.645 1.87213 2.82377 0
M  V30 9796 C 900.204 1.73297 3.34133 0
M  V30 9797 C 899.351 1.84189 2.07291 0
M  V30 9798 H 902.302 1.3568 0.823195 0
M  V30 9799 H 902.323 1.38465 3.54412 0
M  V30 9800 H 901.835 2.91944 2.55715 0
M  V30 9801 H 899.936 0.712662 3.65721 0
M  V30 9802 H 900.049 2.55486 4.05294 0
M  V30 9803 H 898.413 1.27538 2.20468 0
M  V30 9804 H 899.196 2.90435 1.83037 0
M  V30 9805 N 901.641 -1.19671 1.02551 0
M  V30 9806 C 902.589 -2.24812 0.596867 0
M  V30 9807 C 903.583 -1.65336 -0.368839 0
M  V30 9808 O 904.789 -1.78422 -0.237786 0
M  V30 9809 H 901.164 -0.731417 0.174739 0
M  V30 9810 H 903.135 -2.58286 1.49435 0
M  V30 9811 C 901.884 -3.47677 -0.0399514 0
M  V30 9812 H 901.207 -3.93728 0.694153 0
M  V30 9813 H 902.647 -4.22917 -0.302861 0
M  V30 9814 C 901.106 -3.11411 -1.2855 0
M  V30 9815 O 901.636 -3.23757 -2.37791 0
M  V30 9816 N 899.842 -2.65875 -1.17297 0
M  V30 9817 H 899.389 -2.56029 -0.284045 0
M  V30 9818 H 899.347 -2.41981 -2.00731 0
M  V30 9819 N 903.119 -0.802921 -1.35613 0
M  V30 9820 C 904.396 -0.304993 -1.93208 0
M  V30 9821 C 904.776 1.20488 -1.73337 0
M  V30 9822 O 904.124 2.00268 -1.10022 0
M  V30 9823 C 904.334 -0.712383 -3.41652 0
M  V30 9824 C 905.682 -0.699785 -4.18794 0
M  V30 9825 O 906.706 -0.653698 -3.5015 0
M  V30 9826 O 905.565 -0.754842 -5.41262 0
M  V30 9827 H 902.659 -0.0789127 -0.823226 0
M  V30 9828 H 905.205 -0.886372 -1.44712 0
M  V30 9829 H 903.977 -1.75316 -3.49829 0
M  V30 9830 H 903.6 -0.105614 -3.9746 0
M  V30 9831 N 904.597 1.47463 -0.556102 0
M  V30 9832 C 905.507 2.33785 0.195378 0
M  V30 9833 C 906.523 1.48123 0.913 0
M  V30 9834 O 907.699 1.81053 0.882141 0
M  V30 9835 C 904.764 3.24795 1.21282 0
M  V30 9836 C 903.825 4.26346 0.502747 0
M  V30 9837 C 903.058 5.13007 1.47172 0
M  V30 9838 O 903.281 5.02103 2.70646 0
M  V30 9839 O 902.215 5.93588 0.996814 0
M  V30 9840 H 906.041 2.99341 -0.512676 0
M  V30 9841 H 903.626 1.46004 -0.31673 0
M  V30 9842 H 905.508 3.81015 1.80016 0
M  V30 9843 H 904.183 2.61868 1.90282 0
M  V30 9844 H 903.09 3.73889 -0.125757 0
M  V30 9845 H 904.423 4.91984 -0.145779 0
M  V30 9846 N 906.075 0.2925 1.54862 0
M  V30 9847 C 907.321 -0.319736 2.00264 0
M  V30 9848 C 907.654 -1.5419 1.18064 0
M  V30 9849 O 906.929 -1.92821 0.254983 0
M  V30 9850 C 907.212 -0.684753 3.5353 0
M  V30 9851 C 907.065 0.545961 4.46474 0
M  V30 9852 C 908.384 -1.51456 4.13218 0
M  V30 9853 H 905.503 -0.11474 0.728014 0
M  V30 9854 H 908.145 0.402907 1.85679 0
M  V30 9855 H 906.295 -1.30044 3.66089 0
M  V30 9856 H 907.967 1.18448 4.45834 0
M  V30 9857 H 906.21 1.1808 4.1742 0
M  V30 9858 H 906.881 0.246544 5.51449 0
M  V30 9859 H 909.357 -0.994421 4.04043 0
M  V30 9860 H 908.233 -1.73875 5.20633 0
M  V30 9861 H 908.494 -2.5011 3.64551 0
M  V30 9862 N 907.553 -1.57587 0.0200696 0
M  V30 9863 C 908.463 -2.13119 -0.980676 0
M  V30 9864 C 909.479 -1.08124 -1.36328 0
M  V30 9865 O 910.655 -1.40134 -1.44653 0
M  V30 9866 C 907.72 -2.63991 -2.24743 0
M  V30 9867 C 906.781 -3.83667 -1.9261 0
M  V30 9868 C 906.014 -4.32103 -3.13246 0
M  V30 9869 O 906.237 -3.79758 -4.25606 0
M  V30 9870 O 905.171 -5.24047 -2.96072 0
M  V30 9871 H 908.997 -2.98887 -0.538528 0
M  V30 9872 H 906.582 -1.48055 -0.19999 0
M  V30 9873 H 908.464 -2.9682 -2.99125 0
M  V30 9874 H 907.139 -1.81311 -2.68157 0
M  V30 9875 H 906.046 -3.55778 -1.15641 0
M  V30 9876 H 907.379 -4.67482 -1.54019 0
M  V30 9877 N 909.032 0.252966 -1.55557 0
M  V30 9878 C 910.448 0.60118 -1.47844 0
M  V30 9879 C 910.648 1.88612 -0.709055 0
M  V30 9880 O 909.704 2.51395 -0.235964 0
M  V30 9881 C 911.017 0.709539 -2.92209 0
M  V30 9882 C 912.565 0.802269 -3.02544 0
M  V30 9883 C 913.04 0.94224 -4.48203 0
M  V30 9884 N 914.531 1.00726 -4.52116 0
M  V30 9885 C 915.266 1.13472 -5.6206 0
M  V30 9886 N 914.762 1.22811 -6.81828 0
M  V30 9887 N 916.555 1.1674 -5.49844 0
M  V30 9888 H 908.706 -0.590635 -2.04023 0
M  V30 9889 H 910.969 -0.202986 -0.926013 0
M  V30 9890 H 910.675 -0.164505 -3.51315 0
M  V30 9891 H 910.549 1.58343 -3.42356 0
M  V30 9892 H 912.936 1.66677 -2.43522 0
M  V30 9893 H 913.017 -0.0966469 -2.55617 0
M  V30 9894 H 912.661 0.0823209 -5.07833 0
M  V30 9895 H 912.591 1.85611 -4.92805 0
M  V30 9896 H 915.082 0.946684 -3.6585 0
M  V30 9897 H 915.395 1.32426 -7.61369 0
M  V30 9898 H 913.74 1.19779 -6.84601 0
M  V30 9899 H 916.931 1.09089 -4.55211 0
M  V30 9900 H 917.104 1.26329 -6.35567 0
M  V30 9901 N 910.51 1.48831 0.518367 0
M  V30 9902 C 911.926 1.35209 0.847979 0
M  V30 9903 C 912.126 0.371927 1.98038 0
M  V30 9904 O 911.182 -0.202681 2.51685 0
M  V30 9905 C 912.495 2.7552 1.20455 0
M  V30 9906 C 914.043 2.84094 1.31377 0
M  V30 9907 C 914.518 4.25132 1.70372 0
M  V30 9908 N 916.009 4.27861 1.77453 0
M  V30 9909 C 916.744 5.3394 2.09035 0
M  V30 9910 N 916.24 6.50285 2.3896 0
M  V30 9911 N 918.033 5.21343 2.10139 0
M  V30 9912 H 910.184 2.11166 -0.228624 0
M  V30 9913 H 912.447 0.94717 -0.0396599 0
M  V30 9914 H 912.153 3.48861 0.445991 0
M  V30 9915 H 912.027 3.09785 2.15204 0
M  V30 9916 H 914.414 2.11001 2.06307 0
M  V30 9917 H 914.495 2.53433 0.347203 0
M  V30 9918 H 914.139 4.98745 0.959975 0
M  V30 9919 H 914.069 4.53245 2.68098 0
M  V30 9920 H 916.56 3.43945 1.56557 0
M  V30 9921 H 916.873 7.26961 2.62196 0
M  V30 9922 H 915.218 6.5354 2.36454 0
M  V30 9923 H 918.409 4.29462 1.86225 0
M  V30 9924 H 918.582 6.04112 2.34419 0
M  V30 9925 N 911.988 -0.768124 1.37614 0
M  V30 9926 C 912.936 -1.9029 1.33763 0
M  V30 9927 C 913.93 -1.67888 0.225814 0
M  V30 9928 O 915.136 -1.75634 0.394043 0
M  V30 9929 H 911.511 -0.625828 0.416945 0
M  V30 9930 H 913.482 -1.90654 2.29551 0
M  V30 9931 C 912.231 -3.27598 1.16511 0
M  V30 9932 H 911.554 -3.45414 2.01318 0
M  V30 9933 H 912.994 -4.07288 1.17867 0
M  V30 9934 C 911.453 -3.36653 -0.129001 0
M  V30 9935 O 911.983 -3.86023 -1.11128 0
M  V30 9936 N 910.189 -2.90036 -0.180926 0
M  V30 9937 H 909.736 -2.5005 0.619076 0
M  V30 9938 H 909.694 -2.96475 -1.04641 0
M  V30 9939 N 913.466 -1.22244 -0.994698 0
M  V30 9940 C 914.429 -0.992308 -2.06606 0
M  V30 9941 C 915.429 0.0405872 -1.60749 0
M  V30 9942 O 916.619 -0.197737 -1.73074 0
M  V30 9943 C 913.751 -0.498499 -3.37236 0
M  V30 9944 H 914.944 -1.9429 -2.28455 0
M  V30 9945 H 912.497 -1.04087 -1.166 0
M  V30 9946 H 913.232 0.456531 -3.21071 0
M  V30 9947 H 913.017 -1.24367 -3.71854 0
M  V30 9948 H 914.507 -0.35768 -4.16065 0
M  V30 9949 N 914.944 1.19125 -1.03184 0
M  V30 9950 C 916.221 1.84674 -0.644574 0
M  V30 9951 C 916.601 1.92042 0.876534 0
M  V30 9952 O 915.949 1.43965 1.77444 0
M  V30 9953 C 916.159 3.23477 -1.3101 0
M  V30 9954 C 917.507 3.99608 -1.43524 0
M  V30 9955 O 918.531 3.32886 -1.2675 0
M  V30 9956 O 917.39 5.19132 -1.70776 0
M  V30 9957 H 914.484 0.795968 -0.22442 0
M  V30 9958 H 917.03 1.2659 -1.13018 0
M  V30 9959 H 915.802 3.12967 -2.34878 0
M  V30 9960 H 915.425 3.89209 -0.812547 0
M  V30 9961 N 916.422 0.810101 1.35185 0
M  V30 9962 C 917.37 0.211071 2.3164 0
M  V30 9963 C 918.364 -0.641109 1.568 0
M  V30 9964 O 919.57 -0.533881 1.719 0
M  V30 9965 H 915.945 0.0494978 0.750369 0
M  V30 9966 H 917.916 1.03964 2.79703 0
M  V30 9967 C 916.665 -0.622933 3.42074 0
M  V30 9968 H 915.988 0.0234648 3.99793 0
M  V30 9969 H 917.428 -1.0084 4.11834 0
M  V30 9970 C 915.887 -1.78994 2.85417 0
M  V30 9971 O 916.417 -2.88758 2.79252 0
M  V30 9972 N 914.623 -1.60259 2.42416 0
M  V30 9973 H 914.17 -0.70974 2.4763 0
M  V30 9974 H 914.128 -2.38498 2.04857 0
M  V30 9975 N 917.9 -1.47166 0.563914 0
M  V30 9976 C 918.847 -2.30097 -0.180013 0
M  V30 9977 C 919.817 -1.39473 -0.902019 0
M  V30 9978 O 921.002 -1.68432 -0.896396 0
M  V30 9979 C 918.142 -3.23573 -1.19978 0
M  V30 9980 C 917.255 -4.2929 -0.483149 0
M  V30 9981 C 916.39 -5.0991 -1.48879 0
M  V30 9982 C 915.429 -6.07395 -0.757513 0
M  V30 9983 N 914.566 -6.8095 -1.71031 0
M  V30 9984 H 919.406 -2.93189 0.53329 0
M  V30 9985 H 916.943 -1.4451 0.274814 0
M  V30 9986 H 918.901 -3.76196 -1.80368 0
M  V30 9987 H 917.531 -2.6233 -1.88103 0
M  V30 9988 H 916.583 -3.79671 0.235414 0
M  V30 9989 H 917.895 -4.9872 0.0894075 0
M  V30 9990 H 917.049 -5.66717 -2.16603 0
M  V30 9991 H 915.788 -4.40397 -2.09527 0
M  V30 9992 H 914.793 -5.4976 -0.0663841 0
M  V30 9993 H 916.018 -6.78919 -0.156685 0
M  V30 9994 H 913.964 -6.14162 -2.30524 0
M  V30 9995 H 913.881 -7.46574 -1.19007 0
M  V30 9996 H 915.149 -7.42326 -2.37849 0
M  V30 9997 N 919.378 -0.300708 -1.54705 0
M  V30 9998 C 920.288 0.584996 -2.27189 0
M  V30 9999 C 921.304 1.14866 -1.30697 0
M  V30 10000 O 922.48 1.17351 -1.63679 0
M  V30 10001 C 919.545 1.74076 -2.99831 0
M  V30 10002 C 918.606 1.2112 -4.1186 0
M  V30 10003 C 917.839 2.31188 -4.81028 0
M  V30 10004 O 918.062 3.5108 -4.49554 0
M  V30 10005 O 916.996 1.97897 -5.68437 0
M  V30 10006 H 920.822 -0.00298177 -3.037 0
M  V30 10007 H 918.407 -0.0671802 -1.49249 0
M  V30 10008 H 920.289 2.41413 -3.45395 0
M  V30 10009 H 918.964 2.31535 -2.26215 0
M  V30 10010 H 917.871 0.50357 -3.70695 0
M  V30 10011 H 919.204 0.682046 -4.87452 0
M  V30 10012 N 920.856 1.57574 -0.0284266 0
M  V30 10013 C 921.766 2.13637 0.96936 0
M  V30 10014 C 922.782 1.08845 1.35752 0
M  V30 10015 O 923.958 1.40899 1.43908 0
M  V30 10016 C 921.023 2.65179 2.2334 0
M  V30 10017 C 920.084 3.84683 1.90572 0
M  V30 10018 C 919.317 4.33758 3.1095 0
M  V30 10019 O 919.54 3.82009 4.23586 0
M  V30 10020 O 918.474 5.2561 2.93288 0
M  V30 10021 H 922.3 2.99169 0.52267 0
M  V30 10022 H 919.885 1.48159 0.192135 0
M  V30 10023 H 921.767 2.98402 2.97547 0
M  V30 10024 H 920.442 1.82731 2.67191 0
M  V30 10025 H 919.349 3.56386 1.13753 0
M  V30 10026 H 920.682 4.68292 1.51538 0
M  V30 10027 N 922.334 -0.244713 1.55689 0
M  V30 10028 C 923.264 -1.30667 1.93516 0
M  V30 10029 C 924.245 -1.50094 0.800371 0
M  V30 10030 O 925.43 -1.62665 1.06083 0
M  V30 10031 C 922.56 -2.66101 2.23176 0
M  V30 10032 C 921.514 -2.61366 3.38927 0
M  V30 10033 C 920.84 -4.00616 3.54134 0
M  V30 10034 C 922.14 -2.18161 4.74555 0
M  V30 10035 H 923.834 -0.992546 2.82469 0
M  V30 10036 H 921.38 -0.476018 1.35905 0
M  V30 10037 H 923.333 -3.4053 2.48228 0
M  V30 10038 H 922.057 -2.99154 1.31051 0
M  V30 10039 H 920.716 -1.89395 3.13887 0
M  V30 10040 H 920.364 -4.30938 2.59426 0
M  V30 10041 H 920.064 -3.98335 4.31975 0
M  V30 10042 H 921.588 -4.76741 3.8151 0
M  V30 10043 H 923.002 -2.82323 4.98965 0
M  V30 10044 H 921.399 -2.26988 5.55515 0
M  V30 10045 H 922.469 -1.13333 4.7147 0
M  V30 10046 N 923.813 -1.49104 -0.510467 0
M  V30 10047 C 925.041 -1.61806 -1.28944 0
M  V30 10048 C 925.456 -0.285774 -1.86625 0
M  V30 10049 O 924.813 0.727551 -1.67371 0
M  V30 10050 C 924.864 -2.67966 -2.42645 0
M  V30 10051 O 924.585 -3.96026 -1.87337 0
M  V30 10052 C 926.086 -2.91286 -3.34166 0
M  V30 10053 H 923.306 -0.544999 -0.391429 0
M  V30 10054 H 925.85 -1.95071 -0.613805 0
M  V30 10055 H 924.005 -2.37505 -3.06056 0
M  V30 10056 H 924.419 -4.54427 -2.61909 0
M  V30 10057 H 925.893 -3.69323 -4.1025 0
M  V30 10058 H 926.37 -2.00842 -3.90588 0
M  V30 10059 H 926.976 -3.23127 -2.76531 0
M  V30 10060 N 925.291 0.760815 -1.38019 0
M  V30 10061 C 926.516 1.55513 -1.37224 0
M  V30 10062 C 926.941 1.88062 0.037611 0
M  V30 10063 O 926.299 1.50042 1.0177 0
M  V30 10064 C 926.347 2.83539 -2.22796 0
M  V30 10065 O 925.451 3.78384 -1.64009 0
M  V30 10066 H 924.792 0.470642 -0.468393 0
M  V30 10067 H 927.322 0.940792 -1.81687 0
M  V30 10068 H 927.332 3.32535 -2.36399 0
M  V30 10069 H 926.007 2.59178 -3.25269 0
M  V30 10070 H 924.584 3.37063 -1.59508 0
M  V30 10071 N 926.769 1.22769 0.988202 0
M  V30 10072 C 927.994 1.08239 1.76915 0
M  V30 10073 C 928.419 -0.362519 1.84574 0
M  V30 10074 O 927.777 -1.26202 1.30165 0
M  V30 10075 C 927.825 1.70363 3.17819 0
M  V30 10076 O 926.929 0.960484 4.01059 0
M  V30 10077 H 926.27 0.379872 0.544604 0
M  V30 10078 H 928.8 1.62663 1.24104 0
M  V30 10079 H 928.81 1.7528 3.6843 0
M  V30 10080 H 927.485 2.75505 3.1156 0
M  V30 10081 H 926.062 0.987667 3.59582 0
M  V30 10082 N 928.247 -1.18576 1.03814 0
M  V30 10083 C 929.524 -1.8433 0.654358 0
M  V30 10084 C 929.904 -1.92504 -0.866338 0
M  V30 10085 O 929.252 -1.44904 -1.76678 0
M  V30 10086 C 929.462 -3.22778 1.32723 0
M  V30 10087 C 930.81 -3.98841 1.45641 0
M  V30 10088 O 931.834 -3.32209 1.28514 0
M  V30 10089 O 930.693 -5.18219 1.73526 0
M  V30 10090 H 927.787 -0.794766 0.228638 0
M  V30 10091 H 930.333 -1.25989 1.13687 0
M  V30 10092 H 929.105 -3.11717 2.36534 0
M  V30 10093 H 928.728 -3.88772 0.833176 0
M  V30 10094 N 929.725 -0.817259 -1.34754 0
M  V30 10095 C 931.136 -0.462215 -1.80888 0
M  V30 10096 C 931.487 1.01685 -1.67794 0
M  V30 10097 O 930.612 1.79094 -1.21468 0
M  V30 10098 C 931.207 -0.832204 -3.2842 0
M  V30 10099 C 929.766 -0.52961 -3.72655 0
M  V30 10100 C 928.913 -1.05214 -2.56564 0
M  V30 10101 H 931.864 -1.00795 -1.22581 0
M  V30 10102 H 931.885 -0.133804 -3.80265 0
M  V30 10103 H 931.397 -1.90873 -3.37919 0
M  V30 10104 H 929.498 0.537743 -3.68699 0
M  V30 10105 H 929.611 -1.06971 -4.67005 0
M  V30 10106 H 927.975 -0.473949 -2.50251 0
M  V30 10107 H 928.758 -2.135 -2.68836 0
M  V30 10108 N 931.203 1.46865 -0.571711 0
M  V30 10109 C 932.113 2.33979 0.170571 0
M  V30 10110 C 933.129 1.49083 0.897239 0
M  V30 10111 O 934.305 1.81979 0.862888 0
M  V30 10112 C 931.37 3.26063 1.17831 0
M  V30 10113 C 930.431 4.26855 0.457499 0
M  V30 10114 C 929.664 5.14539 1.41722 0
M  V30 10115 O 929.887 5.04945 2.65305 0
M  V30 10116 O 928.821 5.94612 0.9338 0
M  V30 10117 H 932.647 2.98781 -0.544396 0
M  V30 10118 H 930.232 1.4566 -0.332198 0
M  V30 10119 H 932.114 3.82903 1.75965 0
M  V30 10120 H 930.789 2.63871 1.87493 0
M  V30 10121 H 929.696 3.73734 -0.165406 0
M  V30 10122 H 931.029 4.91802 -0.197953 0
M  V30 10123 N 932.681 0.308908 1.54543 0
M  V30 10124 C 933.929 -0.297447 1.99899 0
M  V30 10125 C 934.25 -1.53799 1.19878 0
M  V30 10126 O 933.52 -1.93639 0.29678 0
M  V30 10127 H 932.1 -0.112897 0.738419 0
M  V30 10128 H 934.762 0.422067 1.90275 0
M  V30 10129 H 933.858 -0.564016 3.06961 0
M  V30 10130 N 934.159 -1.57557 0.0367827 0
M  V30 10131 C 935.091 -2.07597 -0.971395 0
M  V30 10132 C 936.104 -1.0009 -1.28397 0
M  V30 10133 O 937.293 -1.27692 -1.24728 0
M  V30 10134 C 934.393 -2.492 -2.2968 0
M  V30 10135 C 933.566 -3.79875 -2.16826 0
M  V30 10136 C 932.625 -4.07946 -3.32366 0
M  V30 10137 O 931.651 -4.78083 -3.0891 0
M  V30 10138 N 932.853 -3.58722 -4.56397 0
M  V30 10139 H 935.618 -2.94714 -0.544389 0
M  V30 10140 H 933.179 -1.61205 -0.1498 0
M  V30 10141 H 935.171 -2.65065 -3.05815 0
M  V30 10142 H 933.741 -1.67407 -2.63995 0
M  V30 10143 H 932.961 -3.73732 -1.2537 0
M  V30 10144 H 934.249 -4.65476 -2.0545 0
M  V30 10145 H 933.647 -3.01994 -4.78347 0
M  V30 10146 H 932.204 -3.79852 -5.29675 0
M  V30 10147 N 935.637 0.236453 -1.55816 0
M  V30 10148 C 936.886 0.960981 -1.77336 0
M  V30 10149 C 937.199 1.86085 -0.602641 0
M  V30 10150 O 938.405 2.62291 -0.701106 0
M  V30 10151 C 936.861 1.75884 -3.13995 0
M  V30 10152 C 936.469 0.905849 -4.38746 0
M  V30 10153 C 938.213 2.47548 -3.44848 0
M  V30 10154 C 936.12 1.7002 -5.66434 0
M  V30 10155 H 935.05 0.362547 -0.661117 0
M  V30 10156 H 937.701 0.215303 -1.82233 0
M  V30 10157 H 936.083 2.54687 -3.03234 0
M  V30 10158 H 937.257 0.159415 -4.60524 0
M  V30 10159 H 935.572 0.30205 -4.15303 0
M  V30 10160 H 938.169 3.07452 -4.37467 0
M  V30 10161 H 938.512 3.19689 -2.66655 0
M  V30 10162 H 939.045 1.75747 -3.56872 0
M  V30 10163 H 935.784 1.02234 -6.47479 0
M  V30 10164 H 935.304 2.42164 -5.48741 0
M  V30 10165 H 936.983 2.26469 -6.0607 0
M  V30 10166 N 937.115 1.49373 0.502552 0
M  V30 10167 C 938.048 1.60529 1.6219 0
M  V30 10168 C 939.026 0.454431 1.56121 0
M  V30 10169 O 940.21 0.669768 1.762 0
M  V30 10170 C 937.337 1.55879 3.00698 0
M  V30 10171 C 936.383 2.76143 3.25034 0
M  V30 10172 S 937.216 4.37831 3.08325 0
M  V30 10173 C 938.372 4.35824 4.49231 0
M  V30 10174 H 938.605 2.55219 1.52482 0
M  V30 10175 H 936.138 1.38244 0.687594 0
M  V30 10176 H 938.096 1.53882 3.80566 0
M  V30 10177 H 936.757 0.624791 3.07823 0
M  V30 10178 H 935.95 2.69104 4.26144 0
M  V30 10179 H 935.552 2.75544 2.52886 0
M  V30 10180 H 937.844 4.07447 5.41288 0
M  V30 10181 H 938.787 5.37206 4.6132 0
M  V30 10182 H 939.195 3.65923 4.29838 0
M  V30 10183 N 938.594 -0.753485 1.38421 0
M  V30 10184 C 940.01 -1.05656 1.1962 0
M  V30 10185 C 940.21 -2.0145 0.0449443 0
M  V30 10186 O 939.266 -2.45039 -0.609253 0
M  V30 10187 C 940.579 -1.63655 2.52265 0
M  V30 10188 C 942.127 -1.75825 2.58949 0
M  V30 10189 C 942.602 -2.37236 3.91769 0
M  V30 10190 N 944.093 -2.44666 3.9331 0
M  V30 10191 C 944.828 -2.93077 4.92842 0
M  V30 10192 N 944.324 -3.41523 6.02772 0
M  V30 10193 N 946.117 -2.92118 4.80232 0
M  V30 10194 H 938.268 -0.117799 2.12073 0
M  V30 10195 H 940.531 -0.114889 0.941012 0
M  V30 10196 H 940.237 -1.00734 3.36965 0
M  V30 10197 H 940.111 -2.62715 2.70667 0
M  V30 10198 H 942.498 -2.37873 1.74644 0
M  V30 10199 H 942.579 -0.754693 2.44414 0
M  V30 10200 H 942.223 -1.75822 4.76497 0
M  V30 10201 H 942.153 -3.38233 4.03616 0
M  V30 10202 H 944.644 -2.10403 3.1391 0
M  V30 10203 H 944.957 -3.76919 6.74649 0
M  V30 10204 H 943.302 -3.3958 6.06391 0
M  V30 10205 H 946.493 -2.53582 3.93464 0
M  V30 10206 H 946.666 -3.29535 5.57952 0
M  V30 10207 N 940.072 -1.23292 -0.981677 0
M  V30 10208 C 940.982 -1.02964 -2.10798 0
M  V30 10209 C 941.998 0.0254674 -1.73981 0
M  V30 10210 O 943.174 -0.169706 -2.00684 0
M  V30 10211 C 940.239 -0.621934 -3.41076 0
M  V30 10212 C 939.3 -1.75194 -3.91926 0
M  V30 10213 C 938.533 -1.36359 -5.15986 0
M  V30 10214 O 938.756 -0.247265 -5.69864 0
M  V30 10215 O 937.69 -2.18421 -5.60871 0
M  V30 10216 H 941.516 -1.97354 -2.30836 0
M  V30 10217 H 939.101 -1.01986 -1.09175 0
M  V30 10218 H 940.983 -0.405446 -4.19445 0
M  V30 10219 H 939.658 0.29299 -3.22371 0
M  V30 10220 H 938.565 -2.02305 -3.1468 0
M  V30 10221 H 939.898 -2.64513 -4.15083 0
M  V30 10222 N 941.55 1.18024 -1.04442 0
M  V30 10223 C 942.78 1.91753 -0.769044 0
M  V30 10224 C 943.188 1.76629 0.678141 0
M  V30 10225 O 942.531 1.09589 1.47431 0
M  V30 10226 C 942.593 3.43505 -1.0604 0
M  V30 10227 C 942.257 3.82409 -2.50225 0
M  V30 10228 C 943.254 3.8588 -3.48414 0
M  V30 10229 C 940.939 4.13594 -2.85036 0
M  V30 10230 C 942.933 4.19993 -4.79463 0
M  V30 10231 C 940.62 4.47377 -4.1629 0
M  V30 10232 C 941.618 4.50553 -5.13314 0
M  V30 10233 O 941.306 4.83546 -6.42214 0
M  V30 10234 H 941.038 0.615466 -0.279603 0
M  V30 10235 H 943.592 1.5065 -1.3962 0
M  V30 10236 H 941.822 3.84866 -0.376125 0
M  V30 10237 H 943.511 3.98486 -0.772235 0
M  V30 10238 H 944.277 3.6192 -3.2286 0
M  V30 10239 H 940.156 4.10297 -2.10185 0
M  V30 10240 H 943.7 4.22387 -5.55189 0
M  V30 10241 H 939.597 4.70798 -4.4161 0
M  V30 10242 H 940.365 5.01433 -6.46921 0
M  V30 10243 N 943.028 0.824394 1.34319 0
M  V30 10244 C 943.991 0.252696 2.27803 0
M  V30 10245 C 944.991 -0.570254 1.50349 0
M  V30 10246 O 946.181 -0.386145 1.69866 0
M  V30 10247 C 943.313 -0.645575 3.34731 0
M  V30 10248 H 944.506 1.07742 2.79878 0
M  V30 10249 H 942.059 0.596367 1.44475 0
M  V30 10250 H 942.794 -1.4933 2.87873 0
M  V30 10251 H 942.579 -0.0569478 3.92059 0
M  V30 10252 H 944.069 -1.03933 4.0446 0
M  V30 10253 N 944.506 -1.46559 0.579492 0
M  V30 10254 C 945.469 -2.28739 -0.145371 0
M  V30 10255 C 946.469 -1.38211 -0.821854 0
M  V30 10256 O 947.659 -1.6062 -0.674302 0
M  V30 10257 C 944.791 -3.18507 -1.21515 0
M  V30 10258 H 945.984 -2.94301 0.576786 0
M  V30 10259 H 943.537 -1.52616 0.337327 0
M  V30 10260 H 944.272 -2.57685 -1.96899 0
M  V30 10261 H 944.057 -3.85157 -0.734616 0
M  V30 10262 H 945.547 -3.80369 -1.72363 0
M  V30 10263 N 945.984 -0.3171 -1.54377 0
M  V30 10264 C 947.261 0.341348 -1.92598 0
M  V30 10265 C 947.641 1.70402 -1.24605 0
M  V30 10266 O 946.989 2.25191 -0.387448 0
M  V30 10267 C 947.199 0.440003 -3.46215 0
M  V30 10268 C 948.547 0.703327 -4.18734 0
M  V30 10269 O 949.571 0.523181 -3.52337 0
M  V30 10270 O 948.43 1.05042 -5.3631 0
M  V30 10271 H 945.524 0.193696 -0.803997 0
M  V30 10272 H 948.07 -0.366341 -1.65699 0
M  V30 10273 H 946.842 -0.517299 -3.87866 0
M  V30 10274 H 946.465 1.19553 -3.792 0
M  V30 10275 N 947.462 1.57535 -0.0451378 0
M  V30 10276 C 948.873 1.80116 0.491426 0
M  V30 10277 C 949.224 0.956846 1.71286 0
M  V30 10278 O 948.349 0.17173 2.15718 0
M  V30 10279 C 948.944 3.26674 0.898315 0
M  V30 10280 C 947.503 3.50194 1.37989 0
M  V30 10281 C 946.65 2.75054 0.352202 0
M  V30 10282 H 949.601 1.56368 -0.271065 0
M  V30 10283 H 949.622 3.37263 1.76164 0
M  V30 10284 H 949.134 3.88099 0.009141 0
M  V30 10285 H 947.235 2.94041 2.28846 0
M  V30 10286 H 947.348 4.58909 1.37622 0
M  V30 10287 H 945.712 2.4101 0.823784 0
M  V30 10288 H 946.495 3.39203 -0.528782 0
M  V30 10289 N 948.94 -0.228186 1.55939 0
M  V30 10290 C 949.85 -1.30386 1.9503 0
M  V30 10291 C 950.866 -1.51645 0.853218 0
M  V30 10292 O 952.042 -1.64904 1.15623 0
M  V30 10293 C 949.107 -2.63489 2.25332 0
M  V30 10294 C 948.168 -2.5059 3.48573 0
M  V30 10295 C 947.401 -3.77345 3.7742 0
M  V30 10296 O 947.624 -4.80067 3.08045 0
M  V30 10297 O 946.558 -3.74855 4.70922 0
M  V30 10298 H 950.384 -1.0022 2.86687 0
M  V30 10299 H 947.969 -0.430503 1.43063 0
M  V30 10300 H 949.851 -3.4211 2.46046 0
M  V30 10301 H 948.526 -2.93349 1.3685 0
M  V30 10302 H 947.433 -1.70191 3.33145 0
M  V30 10303 H 948.766 -2.2567 4.37417 0
M  V30 10304 N 950.418 -1.49637 -0.494624 0
M  V30 10305 C 951.648 -1.62928 -1.27036 0
M  V30 10306 C 952.056 -0.302464 -1.86767 0
M  V30 10307 O 951.399 0.722878 -1.68879 0
M  V30 10308 C 951.461 -2.64449 -2.43531 0
M  V30 10309 C 951.125 -4.08632 -2.0462 0
M  V30 10310 C 952.122 -4.95238 -1.58225 0
M  V30 10311 C 949.807 -4.54405 -2.1406 0
M  V30 10312 C 951.801 -6.25658 -1.21782 0
M  V30 10313 C 949.488 -5.84836 -1.77228 0
M  V30 10314 C 950.486 -6.70287 -1.31165 0
M  V30 10315 O 950.174 -7.98287 -0.948339 0
M  V30 10316 H 949.906 -0.551263 -0.391261 0
M  V30 10317 H 952.46 -1.96453 -0.599621 0
M  V30 10318 H 950.69 -2.26117 -3.137 0
M  V30 10319 H 952.379 -2.67203 -3.05545 0
M  V30 10320 H 953.145 -4.611 -1.50373 0
M  V30 10321 H 949.024 -3.88056 -2.48865 0
M  V30 10322 H 952.568 -6.92309 -0.857566 0
M  V30 10323 H 948.465 -6.18502 -1.84732 0
M  V30 10324 H 949.233 -8.11353 -1.07925 0
M  V30 10325 N 951.896 0.746133 -1.38819 0
M  V30 10326 C 953.312 1.0502 -1.20179 0
M  V30 10327 C 953.512 2.01423 -0.0556271 0
M  V30 10328 O 952.568 2.45359 0.59625 0
M  V30 10329 C 953.881 1.62315 -2.53129 0
M  V30 10330 C 955.429 1.74449 -2.59878 0
M  V30 10331 C 955.904 2.35155 -3.93022 0
M  V30 10332 N 957.395 2.42577 -3.94602 0
M  V30 10333 C 958.13 2.9046 -4.94389 0
M  V30 10334 N 957.626 3.38322 -6.04574 0
M  V30 10335 N 959.419 2.89568 -4.81775 0
M  V30 10336 H 951.57 0.106551 -2.12133 0
M  V30 10337 H 953.833 0.109897 -0.941609 0
M  V30 10338 H 953.539 0.98946 -3.37495 0
M  V30 10339 H 953.413 2.61276 -2.72057 0
M  V30 10340 H 955.8 2.36943 -1.75903 0
M  V30 10341 H 955.881 0.741721 -2.4481 0
M  V30 10342 H 955.525 1.73292 -4.77422 0
M  V30 10343 H 955.455 3.36088 -4.05404 0
M  V30 10344 H 957.946 2.08735 -3.15021 0
M  V30 10345 H 958.259 3.73336 -6.76639 0
M  V30 10346 H 956.604 3.3636 -6.08184 0
M  V30 10347 H 959.795 2.51492 -3.94803 0
M  V30 10348 H 959.968 3.26571 -5.59692 0
M  V30 10349 N 953.375 1.23811 0.975125 0
M  V30 10350 C 954.322 1.02394 2.06843 0
M  V30 10351 C 955.292 -0.060337 1.6599 0
M  V30 10352 O 956.477 0.0928187 1.90574 0
M  V30 10353 C 953.617 0.626882 3.39359 0
M  V30 10354 C 952.73 1.78385 3.9345 0
M  V30 10355 C 951.865 1.33307 5.14201 0
M  V30 10356 C 950.904 2.46045 5.60471 0
M  V30 10357 N 950.041 2.01888 6.72448 0
M  V30 10358 H 954.881 1.95973 2.24496 0
M  V30 10359 H 952.418 0.976206 1.10039 0
M  V30 10360 H 954.376 0.377742 4.15486 0
M  V30 10361 H 953.006 -0.271907 3.21653 0
M  V30 10362 H 952.058 2.14685 3.14029 0
M  V30 10363 H 953.37 2.63122 4.23755 0
M  V30 10364 H 952.524 1.04237 5.97678 0
M  V30 10365 H 951.263 0.456143 4.85562 0
M  V30 10366 H 950.268 2.75884 4.75571 0
M  V30 10367 H 951.493 3.34283 5.91127 0
M  V30 10368 H 949.439 1.16583 6.45558 0
M  V30 10369 H 949.356 2.80182 7.02164 0
M  V30 10370 H 950.624 1.75937 7.59386 0
M  V30 10371 N 954.853 -1.17469 1.05066 0
M  V30 10372 C 955.803 -2.19388 0.620713 0
M  V30 10373 C 956.787 -1.5722 -0.34214 0
M  V30 10374 O 957.979 -1.76279 -0.159574 0
M  V30 10375 C 955.108 -3.433 -0.00438518 0
M  V30 10376 C 954.194 -4.12569 0.982218 0
M  V30 10377 N 954.585 -4.57683 2.15313 0
M  V30 10378 C 952.883 -4.38575 0.810416 0
M  V30 10379 C 953.584 -5.11124 2.77719 0
M  V30 10380 N 952.56 -5.0325 2.05525 0
M  V30 10381 H 956.362 -2.51971 1.51287 0
M  V30 10382 H 953.876 -1.33784 0.920625 0
M  V30 10383 H 955.873 -4.15591 -0.330161 0
M  V30 10384 H 954.533 -3.12209 -0.89195 0
M  V30 10385 H 955.544 -4.51812 2.53154 0
M  V30 10386 H 952.221 -4.17492 -0.0262078 0
M  V30 10387 H 953.611 -5.56161 3.77008 0
M  V30 10388 N 956.331 -0.831506 -1.3388 0
M  V30 10389 C 957.261 -0.274378 -2.31882 0
M  V30 10390 C 958.242 0.613872 -1.58637 0
M  V30 10391 O 959.427 0.538961 -1.86571 0
M  V30 10392 C 956.557 0.557498 -3.42796 0
M  V30 10393 C 955.511 -0.234337 -4.27358 0
M  V30 10394 C 954.837 0.720825 -5.29819 0
M  V30 10395 C 956.137 -1.44732 -5.01847 0
M  V30 10396 H 957.831 -1.09322 -2.78728 0
M  V30 10397 H 955.377 -0.527136 -1.34005 0
M  V30 10398 H 957.33 0.957501 -4.10378 0
M  V30 10399 H 956.054 1.40947 -2.94621 0
M  V30 10400 H 954.713 -0.61581 -3.61391 0
M  V30 10401 H 954.361 1.569 -4.77903 0
M  V30 10402 H 954.061 0.195171 -5.87276 0
M  V30 10403 H 955.585 1.1185 -6.00268 0
M  V30 10404 H 956.999 -1.12087 -5.62236 0
M  V30 10405 H 955.396 -1.90923 -5.68919 0
M  V30 10406 H 956.466 -2.22099 -4.31045 0
M  V30 10407 N 957.809 1.4625 -0.587256 0
M  V30 10408 C 958.719 2.34147 0.145744 0
M  V30 10409 C 959.735 1.50026 0.881376 0
M  V30 10410 O 960.911 1.82884 0.843539 0
M  V30 10411 C 957.976 3.27294 1.14366 0
M  V30 10412 C 957.037 4.27317 0.412199 0
M  V30 10413 C 956.27 5.16013 1.36257 0
M  V30 10414 O 956.493 5.0773 2.59934 0
M  V30 10415 O 955.427 5.95569 0.870681 0
M  V30 10416 H 959.253 2.98187 -0.576055 0
M  V30 10417 H 956.838 1.45299 -0.347628 0
M  V30 10418 H 958.72 3.84747 1.71894 0
M  V30 10419 H 957.395 2.65845 1.84684 0
M  V30 10420 H 956.302 3.73538 -0.205036 0
M  V30 10421 H 957.635 4.91564 -0.250104 0
M  V30 10422 N 959.287 0.325282 1.54207 0
M  V30 10423 C 960.536 -0.27768 1.99779 0
M  V30 10424 C 960.849 -1.5311 1.21723 0
M  V30 10425 O 962.055 -2.21017 1.57682 0
M  V30 10426 C 960.511 -0.545329 3.55745 0
M  V30 10427 C 960.119 0.691143 4.42637 0
M  V30 10428 C 961.863 -1.10815 4.09781 0
M  V30 10429 C 959.77 0.395302 5.90077 0
M  V30 10430 H 958.7 -0.107536 0.746292 0
M  V30 10431 H 961.351 0.437773 1.78202 0
M  V30 10432 H 959.733 -1.32101 3.73317 0
M  V30 10433 H 960.907 1.46653 4.3684 0
M  V30 10434 H 959.222 1.1743 3.99499 0
M  V30 10435 H 961.819 -1.34414 5.1753 0
M  V30 10436 H 962.162 -2.05806 3.6187 0
M  V30 10437 H 962.695 -0.393608 3.95848 0
M  V30 10438 H 959.434 1.31443 6.42186 0
M  V30 10439 H 958.954 -0.34235 5.98822 0
M  V30 10440 H 960.633 0.00576877 6.47 0
M  V30 10441 N 960.765 -1.57509 0.0534917 0
M  V30 10442 C 962.012 -1.92782 -0.619772 0
M  V30 10443 C 962.34 -0.932046 -1.70714 0
M  V30 10444 O 961.595 0.0552891 -1.95622 0
M  V30 10445 C 961.894 -3.34734 -1.25251 0
M  V30 10446 C 961.56 -4.49946 -0.293113 0
M  V30 10447 C 960.222 -4.81191 -0.0291223 0
M  V30 10448 C 962.574 -5.19925 0.364271 0
M  V30 10449 C 959.902 -5.79761 0.899649 0
M  V30 10450 C 962.254 -6.19489 1.28125 0
M  V30 10451 C 960.918 -6.49161 1.55389 0
M  V30 10452 H 960.188 -0.705441 -0.226791 0
M  V30 10453 H 962.835 -1.91121 0.120466 0
M  V30 10454 H 961.14 -3.32774 -2.06807 0
M  V30 10455 H 962.837 -3.59308 -1.78042 0
M  V30 10456 H 959.427 -4.25566 -0.509053 0
M  V30 10457 H 963.611 -4.95997 0.173411 0
M  V30 10458 H 958.867 -6.01085 1.11833 0
M  V30 10459 H 963.041 -6.72824 1.79669 0
M  V30 10460 H 960.668 -7.25354 2.2752 0
M  V30 10461 N 962.243 0.219913 -1.56058 0
M  V30 10462 C 963.193 1.27606 -1.88946 0
M  V30 10463 C 964.177 1.42209 -0.752691 0
M  V30 10464 O 965.369 1.44996 -1.01514 0
M  V30 10465 C 962.498 2.62614 -2.21108 0
M  V30 10466 C 961.584 2.51906 -3.4118 0
M  V30 10467 N 961.975 2.10851 -4.59756 0
M  V30 10468 C 960.273 2.82861 -3.44827 0
M  V30 10469 C 960.974 2.11434 -5.41914 0
M  V30 10470 N 959.95 2.51985 -4.81669 0
M  V30 10471 H 963.752 0.94957 -2.78137 0
M  V30 10472 H 961.266 0.428468 -1.56646 0
M  V30 10473 H 963.263 3.38869 -2.42844 0
M  V30 10474 H 961.923 2.96108 -1.3323 0
M  V30 10475 H 962.934 1.81956 -4.84884 0
M  V30 10476 H 959.611 3.20716 -2.67297 0
M  V30 10477 H 961.001 1.81803 -6.46836 0
M  V30 10478 N 963.721 1.49897 0.486681 0
M  V30 10479 C 964.668 1.67619 1.58658 0
M  V30 10480 C 965.638 0.517537 1.57831 0
M  V30 10481 O 966.823 0.746272 1.756 0
M  V30 10482 C 963.963 1.762 2.96728 0
M  V30 10483 C 963.076 3.03465 3.07462 0
M  V30 10484 C 962.211 3.02937 4.36351 0
M  V30 10485 C 961.25 4.24721 4.4077 0
M  V30 10486 N 960.387 4.22021 5.61108 0
M  V30 10487 H 965.227 2.61528 1.42853 0
M  V30 10488 H 962.764 1.29657 0.694807 0
M  V30 10489 H 964.722 1.79156 3.76774 0
M  V30 10490 H 963.352 0.857452 3.11203 0
M  V30 10491 H 962.404 3.10054 2.20387 0
M  V30 10492 H 963.716 3.93454 3.06586 0
M  V30 10493 H 962.87 3.04536 5.24731 0
M  V30 10494 H 961.609 2.10751 4.39813 0
M  V30 10495 H 960.614 4.23352 3.5079 0
M  V30 10496 H 961.839 5.18116 4.39013 0
M  V30 10497 H 959.785 3.3268 5.65385 0
M  V30 10498 H 959.702 5.05761 5.61909 0
M  V30 10499 H 960.97 4.27743 6.51656 0
M  V30 10500 N 965.199 -0.738761 1.39212 0
M  V30 10501 C 966.448 -1.49368 1.35543 0
M  V30 10502 C 966.761 -1.95543 -0.0471091 0
M  V30 10503 O 967.967 -2.70714 -0.206376 0
M  V30 10504 C 966.423 -2.69882 2.381 0
M  V30 10505 C 966.031 -2.30672 3.8405 0
M  V30 10506 C 967.775 -3.47718 2.435 0
M  V30 10507 C 965.682 -3.47886 4.78256 0
M  V30 10508 H 964.612 -0.560898 0.503894 0
M  V30 10509 H 967.263 -0.806221 1.6484 0
M  V30 10510 H 965.645 -3.40684 2.01867 0
M  V30 10511 H 966.819 -1.67441 4.29302 0
M  V30 10512 H 965.134 -1.65936 3.81909 0
M  V30 10513 H 967.731 -4.34897 3.11077 0
M  V30 10514 H 968.074 -3.89919 1.45838 0
M  V30 10515 H 968.607 -2.83942 2.78606 0
M  V30 10516 H 965.346 -3.10739 5.77167 0
M  V30 10517 H 964.866 -4.10111 4.37686 0
M  V30 10518 H 966.545 -4.14271 4.96979 0
M  V30 10519 N 966.677 -1.24326 -0.968545 0
M  V30 10520 C 967.607 -1.05951 -2.08079 0
M  V30 10521 C 968.588 0.0272666 -1.70078 0
M  V30 10522 O 969.773 -0.139644 -1.93697 0
M  V30 10523 C 966.903 -0.662623 -3.4092 0
M  V30 10524 C 965.857 -1.69807 -3.92873 0
M  V30 10525 C 965.183 -1.15628 -5.22048 0
M  V30 10526 C 966.483 -3.09383 -4.20808 0
M  V30 10527 H 968.177 -1.98984 -2.23709 0
M  V30 10528 H 965.723 -0.958112 -1.075 0
M  V30 10529 H 967.676 -0.521071 -4.18166 0
M  V30 10530 H 966.4 0.303399 -3.25188 0
M  V30 10531 H 965.059 -1.82783 -3.17783 0
M  V30 10532 H 964.707 -0.180888 -5.02675 0
M  V30 10533 H 964.407 -1.84822 -5.57776 0
M  V30 10534 H 965.931 -1.02683 -6.01904 0
M  V30 10535 H 967.345 -2.99642 -4.88761 0
M  V30 10536 H 965.742 -3.75923 -4.67763 0
M  V30 10537 H 966.812 -3.57486 -3.27616 0
M  V30 10538 N 968.156 1.1691 -1.05688 0
M  V30 10539 C 969.384 1.91204 -0.790485 0
M  V30 10540 C 969.799 1.77095 0.654434 0
M  V30 10541 O 969.156 1.11146 1.44751 0
M  V30 10542 C 969.207 3.42108 -1.16808 0
M  V30 10543 O 968.928 3.55788 -2.55629 0
M  V30 10544 C 970.429 4.33466 -0.92855 0
M  V30 10545 H 967.649 0.606508 -0.287035 0
M  V30 10546 H 970.193 1.48225 -1.40888 0
M  V30 10547 H 968.348 3.82814 -0.59434 0
M  V30 10548 H 968.762 4.49321 -2.70575 0
M  V30 10549 H 970.236 5.37836 -1.24245 0
M  V30 10550 H 970.713 4.38989 0.136016 0
M  V30 10551 H 971.319 3.98481 -1.48638 0
M  V30 10552 N 969.634 0.838594 1.33437 0
M  V30 10553 C 970.582 0.260158 2.31141 0
M  V30 10554 C 971.576 -0.607706 1.58124 0
M  V30 10555 O 972.782 -0.497298 1.72994 0
M  V30 10556 H 969.157 0.0654031 0.74915 0
M  V30 10557 H 971.128 1.09874 2.77435 0
M  V30 10558 C 969.877 -0.550234 3.43319 0
M  V30 10559 H 969.2 0.108262 3.99653 0
M  V30 10560 H 970.64 -0.920815 4.1388 0
M  V30 10561 C 969.099 -1.729 2.89149 0
M  V30 10562 O 969.629 -2.82769 2.85315 0
M  V30 10563 N 967.835 -1.5508 2.45761 0
M  V30 10564 H 967.382 -0.657055 2.49079 0
M  V30 10565 H 967.34 -2.34099 2.0987 0
M  V30 10566 N 971.112 -1.45937 0.595003 0
M  V30 10567 C 972.34 -2.06698 0.091293 0
M  V30 10568 C 972.755 -1.44176 -1.21897 0
M  V30 10569 O 972.112 -0.551402 -1.73971 0
M  V30 10570 C 972.163 -3.61436 -0.0681801 0
M  V30 10571 O 971.884 -4.21622 1.19023 0
M  V30 10572 C 973.385 -4.39155 -0.604814 0
M  V30 10573 H 970.605 -0.668029 0.0630737 0
M  V30 10574 H 973.149 -1.87376 0.819165 0
M  V30 10575 H 971.304 -3.80143 -0.746324 0
M  V30 10576 H 971.718 -5.14647 1.01187 0
M  V30 10577 H 973.192 -5.47973 -0.665532 0
M  V30 10578 H 973.669 -4.08055 -1.62444 0
M  V30 10579 H 974.275 -4.25282 0.0388658 0
M  V30 10580 N 972.59 -0.333456 -1.54032 0
M  V30 10581 C 973.867 0.320902 -1.9295 0
M  V30 10582 C 974.247 1.69071 -1.26405 0
M  V30 10583 O 973.595 2.24768 -0.411311 0
M  V30 10584 C 973.805 0.403257 -3.46662 0
M  V30 10585 C 975.153 0.658875 -4.19457 0
M  V30 10586 O 976.177 0.485781 -3.52872 0
M  V30 10587 O 975.036 0.993475 -5.37394 0
M  V30 10588 H 972.13 0.185158 -0.806006 0
M  V30 10589 H 974.676 -0.383895 -1.65301 0
M  V30 10590 H 973.448 -0.558409 -3.87295 0
M  V30 10591 H 973.071 1.15524 -3.80447 0
M  V30 10592 N 974.068 1.57479 -0.061844 0
M  V30 10593 C 975.479 1.80627 0.472295 0
M  V30 10594 C 975.83 0.97496 1.70261 0
M  V30 10595 O 974.955 0.1946 2.15523 0
M  V30 10596 C 975.55 3.27608 0.863616 0
M  V30 10597 C 974.109 3.51638 1.34267 0
M  V30 10598 C 973.256 2.75412 0.323009 0
M  V30 10599 H 976.207 1.56072 -0.287634 0
M  V30 10600 H 976.228 3.39113 1.72577 0
M  V30 10601 H 975.74 3.88087 -0.0320226 0
M  V30 10602 H 973.841 2.96452 2.25714 0
M  V30 10603 H 973.954 4.60342 1.32747 0
M  V30 10604 H 972.318 2.4187 0.798175 0
M  V30 10605 H 973.101 3.38623 -0.564729 0
M  V30 10606 N 975.546 -0.211634 1.56173 0
M  V30 10607 C 976.494 -1.28188 1.94089 0
M  V30 10608 C 977.488 -1.47999 0.824167 0
M  V30 10609 O 978.694 -1.49056 1.00907 0
M  V30 10610 H 975.069 -0.42999 0.616938 0
M  V30 10611 H 977.04 -0.934962 2.83374 0
M  V30 10612 C 975.789 -2.62294 2.28248 0
M  V30 10613 H 975.112 -2.4786 3.13696 0
M  V30 10614 H 976.552 -3.35967 2.58655 0
M  V30 10615 C 975.011 -3.18049 1.11113 0
M  V30 10616 O 975.541 -3.99923 0.377458 0
M  V30 10617 N 973.747 -2.76561 0.892321 0
M  V30 10618 H 973.294 -2.10088 1.49067 0
M  V30 10619 H 973.252 -3.14206 0.110344 0
M  V30 10620 N 977.024 -1.50153 -0.478725 0
M  V30 10621 C 978.301 -1.51274 -1.23999 0
M  V30 10622 C 978.681 -0.253048 -2.09578 0
M  V30 10623 O 978.029 0.763827 -2.15355 0
M  V30 10624 C 978.239 -2.80423 -2.07759 0
M  V30 10625 C 979.587 -3.30788 -2.66204 0
M  V30 10626 O 980.611 -2.81693 -2.18008 0
M  V30 10627 O 979.47 -4.1635 -3.53999 0
M  V30 10628 H 976.564 -0.606438 -0.562283 0
M  V30 10629 H 979.11 -1.62436 -0.491171 0
M  V30 10630 H 977.882 -3.63584 -1.44645 0
M  V30 10631 H 977.505 -2.72228 -2.89789 0
M  V30 10632 N 978.502 0.731368 -1.39602 0
M  V30 10633 C 979.412 1.87579 -1.40894 0
M  V30 10634 C 980.428 1.71336 -0.303319 0
M  V30 10635 O 981.604 1.93875 -0.545377 0
M  V30 10636 C 978.669 3.23211 -1.25442 0
M  V30 10637 C 977.73 3.51822 -2.46008 0
M  V30 10638 C 976.963 4.80982 -2.31284 0
M  V30 10639 O 977.186 5.54958 -1.31824 0
M  V30 10640 O 976.12 5.09574 -3.20341 0
M  V30 10641 H 979.946 1.89444 -2.3737 0
M  V30 10642 H 977.531 0.879675 -1.20756 0
M  V30 10643 H 979.413 4.04257 -1.18972 0
M  V30 10644 H 978.088 3.22108 -0.320637 0
M  V30 10645 H 976.995 2.70847 -2.58055 0
M  V30 10646 H 978.328 3.57707 -3.38093 0
M  V30 10647 N 979.98 1.24838 0.961938 0
M  V30 10648 C 981.226 1.09313 1.70817 0
M  V30 10649 C 981.559 -0.366244 1.90715 0
M  V30 10650 O 980.834 -1.27036 1.47282 0
M  V30 10651 C 981.117 1.83988 3.09549 0
M  V30 10652 C 980.97 3.3771 2.97106 0
M  V30 10653 C 982.289 1.61718 4.09311 0
M  V30 10654 H 979.408 0.398498 0.619974 0
M  V30 10655 H 982.05 1.53579 1.11864 0
M  V30 10656 H 980.2 1.46363 3.59875 0
M  V30 10657 H 981.872 3.84967 2.54161 0
M  V30 10658 H 980.115 3.65795 2.33187 0
M  V30 10659 H 980.786 3.85166 3.95412 0
M  V30 10660 H 983.262 1.94458 3.67866 0
M  V30 10661 H 982.138 2.16415 5.04436 0
M  V30 10662 H 982.399 0.55677 4.3858 0
M  V30 10663 N 981.458 -1.16348 1.06306 0
M  V30 10664 C 982.368 -2.24375 0.685059 0
M  V30 10665 C 983.384 -1.71413 -0.298956 0
M  V30 10666 O 984.56 -2.00854 -0.148239 0
M  V30 10667 C 981.625 -3.46614 0.0774088 0
M  V30 10668 C 980.686 -4.14613 1.11331 0
M  V30 10669 C 979.919 -5.31016 0.534559 0
M  V30 10670 O 980.142 -5.66654 -0.65265 0
M  V30 10671 O 979.076 -5.88256 1.27431 0
M  V30 10672 H 982.902 -2.59018 1.58566 0
M  V30 10673 H 980.487 -1.23865 0.835332 0
M  V30 10674 H 982.369 -4.20599 -0.259716 0
M  V30 10675 H 981.044 -3.13743 -0.796677 0
M  V30 10676 H 979.951 -3.42597 1.50261 0
M  V30 10677 H 981.284 -4.51538 1.95893 0
M  V30 10678 N 982.937 -0.845659 -1.3299 0
M  V30 10679 C 984.353 -0.53433 -1.5039 0
M  V30 10680 C 984.553 0.936939 -1.78392 0
M  V30 10681 O 983.609 1.72043 -1.84818 0
M  V30 10682 C 984.922 -1.41354 -2.65404 0
M  V30 10683 C 986.47 -1.41303 -2.79289 0
M  V30 10684 C 986.945 -2.27724 -3.97373 0
M  V30 10685 N 988.436 -2.25471 -4.0462 0
M  V30 10686 C 989.171 -2.89074 -4.95201 0
M  V30 10687 N 988.667 -3.61755 -5.90851 0
M  V30 10688 N 990.46 -2.78508 -4.88251 0
M  V30 10689 H 982.611 -1.79798 -1.13078 0
M  V30 10690 H 984.874 -0.767454 -0.556524 0
M  V30 10691 H 984.58 -2.45936 -2.51413 0
M  V30 10692 H 984.454 -1.09445 -3.60973 0
M  V30 10693 H 986.841 -0.374899 -2.92709 0
M  V30 10694 H 986.922 -1.77222 -1.84461 0
M  V30 10695 H 986.566 -3.316 -3.84713 0
M  V30 10696 H 986.496 -1.89142 -4.9146 0
M  V30 10697 H 988.987 -1.72622 -3.3617 0
M  V30 10698 H 989.3 -4.07475 -6.56646 0
M  V30 10699 H 987.645 -3.65863 -5.90906 0
M  V30 10700 H 990.836 -2.21285 -4.12493 0
M  V30 10701 H 991.009 -3.2836 -5.58645 0
M  V30 10702 N 984.415 1.45619 -0.602734 0
M  V30 10703 C 985.831 1.57368 -0.26599 0
M  V30 10704 C 986.031 1.59485 1.23154 0
M  V30 10705 O 985.087 1.52254 2.01432 0
M  V30 10706 C 986.4 2.85863 -0.932881 0
M  V30 10707 C 987.948 2.9953 -0.908344 0
M  V30 10708 C 988.423 4.30789 -1.55515 0
M  V30 10709 N 989.914 4.37536 -1.52042 0
M  V30 10710 C 990.649 5.37758 -1.99008 0
M  V30 10711 N 990.145 6.44544 -2.54038 0
M  V30 10712 N 991.938 5.29085 -1.89805 0
M  V30 10713 H 984.089 1.42489 -1.57514 0
M  V30 10714 H 986.352 0.680948 -0.659556 0
M  V30 10715 H 986.058 2.90183 -1.98713 0
M  V30 10716 H 985.932 3.74467 -0.453209 0
M  V30 10717 H 988.319 2.9478 0.137344 0
M  V30 10718 H 988.4 2.12349 -1.42623 0
M  V30 10719 H 988.044 4.36297 -2.60014 0
M  V30 10720 H 987.974 5.16778 -1.01232 0
M  V30 10721 H 990.465 3.60972 -1.11837 0
M  V30 10722 H 990.778 7.17258 -2.87682 0
M  V30 10723 H 989.123 6.45308 -2.58075 0
M  V30 10724 H 992.314 4.44566 -1.46556 0
M  V30 10725 H 992.487 6.07043 -2.26722 0
M  V30 10726 N 985.893 0.34162 1.53853 0
M  V30 10727 C 986.841 -0.531412 2.26448 0
M  V30 10728 C 987.835 -1.10357 1.28521 0
M  V30 10729 O 989.041 -1.04953 1.46236 0
M  V30 10730 H 985.416 -0.190054 0.727588 0
M  V30 10731 H 987.387 0.102922 2.98222 0
M  V30 10732 C 986.136 -1.67154 3.04885 0
M  V30 10733 H 985.459 -1.24055 3.80066 0
M  V30 10734 H 986.899 -2.25762 3.58898 0
M  V30 10735 C 985.358 -2.59984 2.14266 0
M  V30 10736 O 985.888 -3.62181 1.73746 0
M  V30 10737 N 984.094 -2.28625 1.79385 0
M  V30 10738 H 983.641 -1.45559 2.12533 0
M  V30 10739 H 983.599 -2.90995 1.19035 0
M  V30 10740 N 987.371 -1.57444 0.0701946 0
M  V30 10741 C 988.334 -2.11511 -0.882923 0
M  V30 10742 C 989.334 -1.03879 -1.22743 0
M  V30 10743 O 990.524 -1.29874 -1.16097 0
M  V30 10744 C 987.656 -2.61514 -2.18686 0
M  V30 10745 H 988.849 -2.9703 -0.413873 0
M  V30 10746 H 986.402 -1.55278 -0.178488 0
M  V30 10747 H 987.137 -1.79443 -2.70131 0
M  V30 10748 H 986.922 -3.40185 -1.94978 0
M  V30 10749 H 988.412 -3.03425 -2.86919 0
M  V30 10750 N 988.849 0.203349 -1.56283 0
M  V30 10751 C 990.126 0.950415 -1.70958 0
M  V30 10752 C 990.506 2.01708 -0.622647 0
M  V30 10753 O 989.854 2.25523 0.367635 0
M  V30 10754 C 990.064 1.54434 -3.12971 0
M  V30 10755 C 991.412 2.02964 -3.72949 0
M  V30 10756 O 992.436 1.64293 -3.16048 0
M  V30 10757 O 991.295 2.74097 -4.72793 0
M  V30 10758 H 988.389 0.445154 -0.69697 0
M  V30 10759 H 990.935 0.193695 -1.68591 0
M  V30 10760 H 989.707 0.77505 -3.83547 0
M  V30 10761 H 989.33 2.36611 -3.19532 0
M  V30 10762 N 990.327 1.50405 0.470755 0
M  V30 10763 C 991.275 1.6982 1.58946 0
M  V30 10764 C 992.269 0.56407 1.59733 0
M  V30 10765 O 993.475 0.744576 1.63878 0
M  V30 10766 H 989.85 0.536016 0.527438 0
M  V30 10767 H 991.821 2.63662 1.39732 0
M  V30 10768 C 990.57 1.80986 2.96883 0
M  V30 10769 H 989.893 2.67645 2.96996 0
M  V30 10770 H 991.333 1.98596 3.74614 0
M  V30 10771 C 989.792 0.561551 3.32187 0
M  V30 10772 O 990.322 -0.299136 4.00585 0
M  V30 10773 N 988.528 0.415476 2.87615 0
M  V30 10774 H 988.075 1.11691 2.32127 0
M  V30 10775 H 988.033 -0.418592 3.11601 0
M  V30 10776 N 991.805 -0.723954 1.39988 0
M  V30 10777 C 992.752 -1.83803 1.39589 0
M  V30 10778 C 993.722 -1.64146 0.253996 0
M  V30 10779 O 994.907 -1.85398 0.450793 0
M  V30 10780 C 992.047 -3.21431 1.25604 0
M  V30 10781 C 991.16 -3.52717 2.49429 0
M  V30 10782 C 990.295 -4.79805 2.27949 0
M  V30 10783 C 989.334 -5.03968 3.47394 0
M  V30 10784 N 988.471 -6.22266 3.25161 0
M  V30 10785 H 993.311 -1.83479 2.34818 0
M  V30 10786 H 990.848 -0.896396 1.16633 0
M  V30 10787 H 992.806 -4.00892 1.15504 0
M  V30 10788 H 991.436 -3.21005 0.339986 0
M  V30 10789 H 990.488 -2.67872 2.7009 0
M  V30 10790 H 991.8 -3.66486 3.38363 0
M  V30 10791 H 990.954 -5.67268 2.15155 0
M  V30 10792 H 989.693 -4.68229 1.36428 0
M  V30 10793 H 988.698 -4.14963 3.60674 0
M  V30 10794 H 989.923 -5.17422 4.39831 0
M  V30 10795 H 987.869 -6.11957 2.36314 0
M  V30 10796 H 987.786 -6.36673 4.07656 0
M  V30 10797 H 989.054 -7.12539 3.16083 0
M  V30 10798 N 993.283 -1.25346 -0.955304 0
M  V30 10799 C 994.193 -1.07412 -2.08566 0
M  V30 10800 C 995.209 -0.0114424 -1.73996 0
M  V30 10801 O 996.385 -0.212236 -2.00279 0
M  V30 10802 C 993.45 -0.694141 -3.3968 0
M  V30 10803 C 992.511 -1.83468 -3.88121 0
M  V30 10804 C 991.744 -1.47274 -5.12978 0
M  V30 10805 O 991.967 -0.368086 -5.69211 0
M  V30 10806 O 990.901 -2.30269 -5.56111 0
M  V30 10807 H 994.727 -2.02206 -2.26598 0
M  V30 10808 H 992.312 -1.04279 -1.06988 0
M  V30 10809 H 994.194 -0.494325 -4.18491 0
M  V30 10810 H 992.869 0.224545 -3.2292 0
M  V30 10811 H 991.776 -2.08935 -3.10318 0
M  V30 10812 H 993.109 -2.73258 -4.09379 0
M  V30 10813 N 994.761 1.15782 -1.06922 0
M  V30 10814 C 996.038 1.8253 -0.703 0
M  V30 10815 C 996.418 1.94733 0.814994 0
M  V30 10816 O 995.766 1.49537 1.72774 0
M  V30 10817 C 995.976 3.19145 -1.41234 0
M  V30 10818 C 997.324 3.94839 -1.56164 0
M  V30 10819 O 998.348 3.28685 -1.37277 0
M  V30 10820 O 997.207 5.13436 -1.87205 0
M  V30 10821 H 994.301 0.788425 -0.24963 0
M  V30 10822 H 996.847 1.22931 -1.16988 0
M  V30 10823 H 995.619 3.05336 -2.44715 0
M  V30 10824 H 995.242 3.86427 -0.935959 0
M  V30 10825 N 996.239 0.8527 1.3254 0
M  V30 10826 C 997.169 0.311234 2.31416 0
M  V30 10827 C 998.15 -0.588557 1.59593 0
M  V30 10828 O 999.335 -0.509211 1.87405 0
M  V30 10829 C 996.465 -0.502892 3.4364 0
M  V30 10830 C 995.419 0.302296 4.26931 0
M  V30 10831 C 994.745 -0.636445 5.30899 0
M  V30 10832 C 996.045 1.52697 4.99481 0
M  V30 10833 H 997.739 1.13742 2.76953 0
M  V30 10834 H 995.285 0.548389 1.33149 0
M  V30 10835 H 997.238 -0.892092 4.11849 0
M  V30 10836 H 995.962 -1.36242 2.96826 0
M  V30 10837 H 994.621 0.673226 3.60365 0
M  V30 10838 H 994.269 -1.49277 4.80339 0
M  V30 10839 H 993.969 -0.101716 5.87512 0
M  V30 10840 H 995.493 -1.02286 6.01972 0
M  V30 10841 H 996.907 1.21017 5.60382 0
M  V30 10842 H 995.304 1.9995 5.65809 0
M  V30 10843 H 996.374 2.28929 4.27457 0
M  V30 10844 N 997.718 -1.45297 0.610449 0
M  V30 10845 C 998.946 -2.0659 0.113211 0
M  V30 10846 C 999.361 -1.4546 -1.20361 0
M  V30 10847 O 998.718 -0.569823 -1.73376 0
M  V30 10848 C 998.769 -3.61488 -0.0298411 0
M  V30 10849 O 998.49 -4.20336 1.23488 0
M  V30 10850 C 999.991 -4.39772 -0.558202 0
M  V30 10851 H 997.211 -0.667322 0.0701555 0
M  V30 10852 H 999.755 -1.86497 0.838993 0
M  V30 10853 H 997.91 -3.80913 -0.705963 0
M  V30 10854 H 998.324 -5.13545 1.0664 0
M  V30 10855 H 999.798 -5.48648 -0.607375 0
M  V30 10856 H 1000.27 -4.09755 -1.58107 0
M  V30 10857 H 1000.88 -4.25217 0.0839704 0
M  V30 10858 N 999.196 -0.349774 -1.5367 0
M  V30 10859 C 1000.42 0.248692 -2.05904 0
M  V30 10860 C 1000.85 1.42942 -1.22267 0
M  V30 10861 O 1000.2 1.79732 -0.237899 0
M  V30 10862 C 1000.25 0.635639 -3.54953 0
M  V30 10863 O 999.356 1.7349 -3.74132 0
M  V30 10864 H 998.697 0.0399477 -0.662797 0
M  V30 10865 H 1001.23 -0.505795 -1.9825 0
M  V30 10866 H 1001.24 0.911064 -3.97698 0
M  V30 10867 H 999.912 -0.227805 -4.15276 0
M  V30 10868 H 998.489 1.45626 -3.43289 0
M  V30 10869 N 1000.67 1.57404 -0.0785433 0
M  V30 10870 C 1001.64 2.11977 0.871693 0
M  V30 10871 C 1002.64 1.04529 1.2219 0
M  V30 10872 O 1003.83 1.30488 1.15406 0
M  V30 10873 C 1000.96 2.6267 2.17296 0
M  V30 10874 H 1002.15 2.97246 0.398115 0
M  V30 10875 H 999.705 1.5537 0.170251 0
M  V30 10876 H 1000.44 1.80873 2.69175 0
M  V30 10877 H 1000.22 3.41214 1.93171 0
M  V30 10878 H 1001.71 3.04943 2.85306 0
M  V30 10879 N 1002.15 -0.195058 1.56388 0
M  V30 10880 C 1003.43 -0.941335 1.71459 0
M  V30 10881 C 1003.81 -2.01375 0.633336 0
M  V30 10882 O 1003.16 -2.25715 -0.35567 0
M  V30 10883 C 1003.37 -1.52772 3.13786 0
M  V30 10884 C 1004.71 -2.00983 3.7402 0
M  V30 10885 O 1005.74 -1.62614 3.16915 0
M  V30 10886 O 1004.6 -2.71586 4.7424 0
M  V30 10887 H 1001.69 -0.441451 0.699321 0
M  V30 10888 H 1004.24 -0.184752 1.68691 0
M  V30 10889 H 1003.01 -0.754699 3.83953 0
M  V30 10890 H 1002.63 -2.34914 3.20782 0
M  V30 10891 N 1003.63 -1.50653 -0.462772 0
M  V30 10892 C 1005.04 -1.54821 -1.04342 0
M  V30 10893 C 1005.39 -0.356595 -1.92932 0
M  V30 10894 O 1004.52 0.529579 -2.0982 0
M  V30 10895 C 1005.11 -2.80571 -1.89909 0
M  V30 10896 C 1003.67 -2.87394 -2.43067 0
M  V30 10897 C 1002.82 -2.49206 -1.21621 0
M  V30 10898 H 1005.77 -1.56797 -0.245048 0
M  V30 10899 H 1005.79 -2.62897 -2.75074 0
M  V30 10900 H 1005.3 -3.67281 -1.25405 0
M  V30 10901 H 1003.4 -2.05055 -3.111 0
M  V30 10902 H 1003.52 -3.90477 -2.77605 0
M  V30 10903 H 1001.88 -2.01829 -1.55361 0
M  V30 10904 H 1002.66 -3.38233 -0.587669 0
M  V30 10905 N 1005.11 0.71652 -1.4037 0
M  V30 10906 C 1006.02 1.86074 -1.42876 0
M  V30 10907 C 1007.03 1.71005 -0.321475 0
M  V30 10908 O 1008.21 1.93286 -0.565909 0
M  V30 10909 C 1005.28 3.21862 -1.28863 0
M  V30 10910 C 1004.34 3.49193 -2.49726 0
M  V30 10911 C 1003.57 4.78502 -2.36372 0
M  V30 10912 O 1003.79 5.53529 -1.37703 0
M  V30 10913 O 1002.73 5.06147 -3.25728 0
M  V30 10914 H 1006.55 1.86916 -2.39366 0
M  V30 10915 H 1004.14 0.866818 -1.21683 0
M  V30 10916 H 1006.02 4.02972 -1.23253 0
M  V30 10917 H 1004.69 3.2175 -0.354783 0
M  V30 10918 H 1003.6 2.68095 -2.60913 0
M  V30 10919 H 1004.93 3.54101 -3.41868 0
M  V30 10920 N 1006.59 1.25851 0.948643 0
M  V30 10921 C 1007.83 1.10735 1.69062 0
M  V30 10922 C 1008.16 -0.351257 1.9181 0
M  V30 10923 O 1007.43 -1.24867 1.50947 0
M  V30 10924 H 1006.01 0.406796 0.626519 0
M  V30 10925 H 1008.67 1.58066 1.14022 0
M  V30 10926 H 1007.76 1.62033 2.66743 0
M  V30 10927 N 1008.06 -1.15214 1.07534 0
M  V30 10928 C 1009 -2.19634 0.655261 0
M  V30 10929 C 1010.01 -1.60139 -0.293165 0
M  V30 10930 O 1011.2 -1.78311 -0.0821957 0
M  V30 10931 C 1008.3 -3.38851 -0.0578281 0
M  V30 10932 C 1007.47 -4.27888 0.90725 0
M  V30 10933 C 1006.53 -5.25692 0.231115 0
M  V30 10934 O 1005.56 -5.62469 0.872746 0
M  V30 10935 N 1006.76 -5.71424 -1.0225 0
M  V30 10936 H 1009.52 -2.56292 1.55353 0
M  V30 10937 H 1007.08 -1.30347 0.960271 0
M  V30 10938 H 1009.08 -4.01334 -0.520874 0
M  V30 10939 H 1007.65 -3.00593 -0.858071 0
M  V30 10940 H 1006.87 -3.62475 1.54937 0
M  V30 10941 H 1008.15 -4.84246 1.56151 0
M  V30 10942 H 1007.55 -5.43659 -1.56369 0
M  V30 10943 H 1006.11 -6.35938 -1.42919 0
M  V30 10944 N 1009.54 -0.859717 -1.32086 0
M  V30 10945 C 1010.79 -0.461779 -1.96343 0
M  V30 10946 C 1011.1 0.988837 -1.68764 0
M  V30 10947 O 1012.31 1.49244 -2.268 0
M  V30 10948 C 1010.77 -0.77484 -3.5146 0
M  V30 10949 C 1010.37 -2.24153 -3.87891 0
M  V30 10950 C 1012.12 -0.444873 -4.22162 0
M  V30 10951 C 1010.03 -2.49754 -5.36075 0
M  V30 10952 H 1008.96 -0.168951 -0.734828 0
M  V30 10953 H 1011.61 -1.0512 -1.50406 0
M  V30 10954 H 1009.99 -0.114792 -3.95834 0
M  V30 10955 H 1011.16 -2.94378 -3.54511 0
M  V30 10956 H 1009.48 -2.53651 -3.30227 0
M  V30 10957 H 1012.07 -0.613508 -5.31169 0
M  V30 10958 H 1012.42 0.61391 -4.11749 0
M  V30 10959 H 1012.95 -1.06103 -3.83389 0
M  V30 10960 H 1009.69 -3.54276 -5.51515 0
M  V30 10961 H 1009.21 -1.84112 -5.70844 0
M  V30 10962 H 1010.89 -2.3396 -6.03218 0
M  V30 10963 N 1011.02 1.44971 -0.618145 0
M  V30 10964 C 1011.95 2.27748 0.143561 0
M  V30 10965 C 1012.93 1.37768 0.863642 0
M  V30 10966 O 1014.12 1.67203 0.870373 0
M  V30 10967 C 1011.24 3.16394 1.20883 0
M  V30 10968 C 1010.29 4.22389 0.590724 0
M  V30 10969 S 1011.12 5.32021 -0.609406 0
M  V30 10970 C 1012.28 6.24235 0.456199 0
M  V30 10971 H 1012.51 2.92003 -0.558699 0
M  V30 10972 H 1010.04 1.48968 -0.40595 0
M  V30 10973 H 1012 3.6802 1.81855 0
M  V30 10974 H 1010.66 2.51384 1.88322 0
M  V30 10975 H 1009.86 4.84379 1.3926 0
M  V30 10976 H 1009.46 3.73958 0.055917 0
M  V30 10977 H 1011.75 6.64269 1.33238 0
M  V30 10978 H 1012.69 7.07985 -0.127794 0
M  V30 10979 H 1013.1 5.59137 0.776269 0
M  V30 10980 N 1012.5 0.357919 1.53482 0
M  V30 10981 C 1013.91 0.00655107 1.59599 0
M  V30 10982 C 1014.11 -1.47449 1.37336 0
M  V30 10983 O 1013.17 -2.2351 1.17472 0
M  V30 10984 C 1014.48 0.455617 2.97228 0
M  V30 10985 C 1016.03 0.409183 3.10314 0
M  V30 10986 C 1016.51 0.833941 4.50344 0
M  V30 10987 N 1018 0.788695 4.56436 0
M  V30 10988 C 1018.73 1.08914 5.62961 0
M  V30 10989 N 1018.23 1.45847 6.77274 0
M  V30 10990 N 1020.02 1.01243 5.52907 0
M  V30 10991 H 1012.17 1.32248 1.66206 0
M  V30 10992 H 1014.44 0.540047 0.779136 0
M  V30 10993 H 1014.14 1.48881 3.18634 0
M  V30 10994 H 1014.02 -0.161751 3.76853 0
M  V30 10995 H 1016.4 -0.614863 2.88623 0
M  V30 10996 H 1016.48 1.06195 2.32715 0
M  V30 10997 H 1016.13 1.85607 4.72771 0
M  V30 10998 H 1016.06 0.158507 5.26361 0
M  V30 10999 H 1018.55 0.516497 3.74354 0
M  V30 11000 H 1018.86 1.67218 7.54492 0
M  V30 11001 H 1017.21 1.49705 6.78685 0
M  V30 11002 H 1020.4 0.723137 4.62481 0
M  V30 11003 H 1020.57 1.24991 6.35831 0
M  V30 11004 N 1013.98 -1.5736 0.0868897 0
M  V30 11005 C 1014.89 -2.17087 -0.889402 0
M  V30 11006 C 1015.9 -1.13809 -1.31619 0
M  V30 11007 O 1017.08 -1.46143 -1.38579 0
M  V30 11008 C 1014.14 -2.73286 -2.13344 0
M  V30 11009 C 1013.2 -3.91491 -1.76164 0
M  V30 11010 C 1012.44 -4.45 -2.94637 0
M  V30 11011 O 1012.66 -3.97467 -4.09116 0
M  V30 11012 O 1011.59 -5.36133 -2.73579 0
M  V30 11013 H 1015.42 -3.00902 -0.411275 0
M  V30 11014 H 1013.01 -1.4877 -0.137015 0
M  V30 11015 H 1014.89 -3.0924 -2.86266 0
M  V30 11016 H 1013.56 -1.92521 -2.60225 0
M  V30 11017 H 1012.47 -3.60363 -1.00447 0
M  V30 11018 H 1013.8 -4.73593 -1.34053 0
M  V30 11019 N 1015.45 0.186762 -1.56489 0
M  V30 11020 C 1016.68 0.920495 -1.84961 0
M  V30 11021 C 1017.09 1.77004 -0.668297 0
M  V30 11022 O 1016.44 1.79891 0.37213 0
M  V30 11023 C 1016.5 1.85997 -3.07645 0
M  V30 11024 C 1016.16 1.19156 -4.41193 0
M  V30 11025 C 1017.16 0.564446 -5.16827 0
M  V30 11026 C 1014.84 1.19292 -4.87929 0
M  V30 11027 C 1016.84 -0.0523768 -6.37378 0
M  V30 11028 C 1014.52 0.572266 -6.08415 0
M  V30 11029 C 1015.52 -0.049294 -6.82982 0
M  V30 11030 O 1015.21 -0.660201 -8.01184 0
M  V30 11031 H 1014.94 0.273659 -0.618132 0
M  V30 11032 H 1017.5 0.196437 -2.04459 0
M  V30 11033 H 1015.73 2.62394 -2.84053 0
M  V30 11034 H 1017.42 2.46221 -3.22692 0
M  V30 11035 H 1018.18 0.555474 -4.81809 0
M  V30 11036 H 1014.06 1.66611 -4.29839 0
M  V30 11037 H 1017.6 -0.538133 -6.95521 0
M  V30 11038 H 1013.5 0.578769 -6.429 0
M  V30 11039 H 1014.27 -0.557926 -8.16596 0
M  V30 11040 N 1016.93 1.50896 0.454776 0
M  V30 11041 C 1017.9 1.70377 1.53312 0
M  V30 11042 C 1018.9 0.57408 1.50203 0
M  V30 11043 O 1020.09 0.841374 1.52534 0
M  V30 11044 C 1017.22 1.74411 2.92905 0
M  V30 11045 H 1018.41 2.66599 1.37349 0
M  V30 11046 H 1015.96 1.40622 0.68228 0
M  V30 11047 H 1016.7 0.799408 3.14293 0
M  V30 11048 H 1016.48 2.56496 2.96568 0
M  V30 11049 H 1017.97 1.91382 3.71164 0
M  V30 11050 N 1018.41 -0.709066 1.40748 0
M  V30 11051 C 1019.37 -1.80485 1.41272 0
M  V30 11052 C 1020.37 -1.57872 0.305463 0
M  V30 11053 O 1021.56 -1.64793 0.564691 0
M  V30 11054 C 1018.7 -3.1867 1.21087 0
M  V30 11055 H 1019.89 -1.81417 2.38805 0
M  V30 11056 H 1017.44 -0.915356 1.26692 0
M  V30 11057 H 1018.18 -3.23385 0.243406 0
M  V30 11058 H 1017.96 -3.36484 2.01299 0
M  V30 11059 H 1019.45 -3.98685 1.24257 0
M  V30 11060 N 1019.89 -1.26353 -0.941956 0
M  V30 11061 C 1021.17 -1.02601 -1.6653 0
M  V30 11062 C 1021.55 0.44381 -2.06382 0
M  V30 11063 O 1020.89 1.42399 -1.78703 0
M  V30 11064 C 1021.1 -1.97401 -2.87809 0
M  V30 11065 C 1022.45 -2.25967 -3.59478 0
M  V30 11066 O 1023.48 -1.95261 -2.97912 0
M  V30 11067 O 1022.34 -2.78244 -4.70364 0
M  V30 11068 H 1019.43 -0.39007 -0.729228 0
M  V30 11069 H 1021.98 -1.37559 -0.993754 0
M  V30 11070 H 1020.75 -2.9659 -2.55245 0
M  V30 11071 H 1020.37 -1.62918 -3.62689 0
M  V30 11072 N 1021.37 1.14642 -1.08144 0
M  V30 11073 C 1022.78 1.6719 -0.830923 0
M  V30 11074 C 1023.13 1.85373 0.642749 0
M  V30 11075 O 1022.25 1.56293 1.49671 0
M  V30 11076 C 1022.85 3.03697 -1.50179 0
M  V30 11077 C 1021.41 3.5329 -1.29858 0
M  V30 11078 C 1020.56 2.28828 -1.5663 0
M  V30 11079 H 1023.51 0.987441 -1.24239 0
M  V30 11080 H 1023.53 3.69023 -0.9275 0
M  V30 11081 H 1023.04 2.90431 -2.57432 0
M  V30 11082 H 1021.14 3.71783 -0.246626 0
M  V30 11083 H 1021.25 4.34231 -2.02436 0
M  V30 11084 H 1019.62 2.34769 -0.987716 0
M  V30 11085 H 1020.4 2.18141 -2.65084 0
M  V30 11086 N 1022.85 0.866709 1.31628 0
M  V30 11087 C 1023.76 0.323408 2.3236 0
M  V30 11088 C 1024.77 -0.564995 1.64572 0
M  V30 11089 O 1025.95 -0.462489 1.96018 0
M  V30 11090 C 1023.01 -0.469045 3.43513 0
M  V30 11091 C 1022.07 0.446928 4.26967 0
M  V30 11092 C 1021.31 -0.307799 5.32812 0
M  V30 11093 O 1021.53 -1.5363 5.49321 0
M  V30 11094 O 1020.46 0.332653 6.0098 0
M  V30 11095 H 1024.29 1.15827 2.80745 0
M  V30 11096 H 1021.87 0.629987 1.35468 0
M  V30 11097 H 1023.76 -0.918405 4.1127 0
M  V30 11098 H 1022.43 -1.28051 2.97296 0
M  V30 11099 H 1021.34 0.944719 3.61975 0
M  V30 11100 H 1022.67 1.2239 4.76741 0
M  V30 11101 N 1024.32 -1.44642 0.625825 0
M  V30 11102 C 1025.55 -2.06159 0.13492 0
M  V30 11103 C 1025.96 -1.46801 -1.19357 0
M  V30 11104 O 1025.3 -0.583345 -1.74192 0
M  V30 11105 C 1025.37 -3.5945 -0.0598481 0
M  V30 11106 C 1025.03 -4.41244 1.18965 0
M  V30 11107 C 1026.03 -4.75064 2.11212 0
M  V30 11108 C 1023.71 -4.81705 1.42359 0
M  V30 11109 C 1025.71 -5.48221 3.25165 0
M  V30 11110 C 1023.39 -5.54612 2.5661 0
M  V30 11111 C 1024.39 -5.87789 3.4784 0
M  V30 11112 O 1024.08 -6.59213 4.60101 0
M  V30 11113 H 1023.81 -0.671888 0.0744464 0
M  V30 11114 H 1026.37 -1.86586 0.858775 0
M  V30 11115 H 1024.6 -3.77493 -0.838792 0
M  V30 11116 H 1026.28 -4.02751 -0.504639 0
M  V30 11117 H 1027.05 -4.44348 1.94371 0
M  V30 11118 H 1022.93 -4.55305 0.722401 0
M  V30 11119 H 1026.47 -5.74035 3.96396 0
M  V30 11120 H 1022.37 -5.84743 2.73396 0
M  V30 11121 H 1023.14 -6.77678 4.59015 0
M  V30 11122 N 1025.8 -0.366053 -1.5329 0
M  V30 11123 C 1027.22 -0.0150149 -1.59593 0
M  V30 11124 C 1027.42 1.46719 -1.38116 0
M  V30 11125 O 1026.47 2.22884 -1.18656 0
M  V30 11126 C 1027.79 -0.471374 -2.96982 0
M  V30 11127 C 1029.33 -0.425634 -3.10092 0
M  V30 11128 C 1029.81 -0.857812 -4.49895 0
M  V30 11129 N 1031.3 -0.81289 -4.56011 0
M  V30 11130 C 1032.04 -1.11898 -5.62376 0
M  V30 11131 N 1031.53 -1.49436 -6.76491 0
M  V30 11132 N 1033.32 -1.04174 -5.52362 0
M  V30 11133 H 1025.48 -1.33127 -1.65502 0
M  V30 11134 H 1027.74 -0.544172 -0.776261 0
M  V30 11135 H 1027.44 -1.50569 -3.1784 0
M  V30 11136 H 1027.32 0.141764 -3.76934 0
M  V30 11137 H 1029.71 0.599548 -2.88945 0
M  V30 11138 H 1029.79 -1.07427 -2.32149 0
M  V30 11139 H 1029.43 -1.88111 -4.7178 0
M  V30 11140 H 1029.36 -0.186419 -5.2627 0
M  V30 11141 H 1031.85 -0.536343 -3.74075 0
M  V30 11142 H 1032.16 -1.71217 -7.53594 0
M  V30 11143 H 1030.51 -1.53302 -6.77882 0
M  V30 11144 H 1033.7 -0.747654 -4.62091 0
M  V30 11145 H 1033.87 -1.28362 -6.35159 0
M  V30 11146 N 1027.28 1.57312 -0.0952337 0
M  V30 11147 C 1028.23 2.14032 0.863657 0
M  V30 11148 C 1029.2 1.0589 1.27971 0
M  V30 11149 O 1030.38 1.33678 1.36143 0
M  V30 11150 C 1027.52 2.72513 2.11733 0
M  V30 11151 C 1026.63 3.94887 1.7518 0
M  V30 11152 C 1025.77 4.41533 2.95334 0
M  V30 11153 C 1024.81 5.56496 2.54908 0
M  V30 11154 N 1023.95 5.97993 3.67897 0
M  V30 11155 H 1028.79 2.95655 0.373115 0
M  V30 11156 H 1026.32 1.46085 0.172497 0
M  V30 11157 H 1028.28 3.04539 2.85153 0
M  V30 11158 H 1026.91 1.93618 2.58287 0
M  V30 11159 H 1025.96 3.69175 0.917279 0
M  V30 11160 H 1027.27 4.78322 1.41455 0
M  V30 11161 H 1026.43 4.75343 3.77007 0
M  V30 11162 H 1025.17 3.56999 3.3227 0
M  V30 11163 H 1024.17 5.22314 1.71662 0
M  V30 11164 H 1025.4 6.42779 2.19117 0
M  V30 11165 H 1023.34 5.16405 4.04551 0
M  V30 11166 H 1023.26 6.76225 3.38018 0
M  V30 11167 H 1024.53 6.36434 4.5008 0
M  V30 11168 N 1028.76 -0.17846 1.56586 0
M  V30 11169 C 1029.71 -1.22552 1.92263 0
M  V30 11170 C 1030.69 -1.40163 0.790131 0
M  V30 11171 O 1031.88 -1.42254 1.05322 0
M  V30 11172 C 1029.01 -2.5666 2.27993 0
M  V30 11173 C 1028.1 -2.42772 3.47739 0
M  V30 11174 N 1028.49 -1.98588 4.65185 0
M  V30 11175 C 1026.79 -2.73619 3.52205 0
M  V30 11176 C 1027.49 -1.96991 5.47329 0
M  V30 11177 N 1026.46 -2.39126 4.8818 0
M  V30 11178 H 1030.27 -0.875493 2.80557 0
M  V30 11179 H 1027.78 -0.386785 1.57727 0
M  V30 11180 H 1029.78 -3.32312 2.51743 0
M  V30 11181 H 1028.44 -2.92472 1.41034 0
M  V30 11182 H 1029.45 -1.69036 4.89538 0
M  V30 11183 H 1026.13 -3.13516 2.75706 0
M  V30 11184 H 1027.52 -1.64589 6.51429 0
M  V30 11185 N 1030.24 -1.51135 -0.446768 0
M  V30 11186 C 1031.17 -1.74709 -1.54916 0
M  V30 11187 C 1032.15 -0.596628 -1.59293 0
M  V30 11188 O 1033.33 -0.838356 -1.75172 0
M  V30 11189 C 1030.46 -1.86353 -2.9307 0
M  V30 11190 C 1029.42 -3.01725 -3.03556 0
M  V30 11191 C 1028.74 -2.9854 -4.43597 0
M  V30 11192 C 1030.04 -4.41848 -2.7851 0
M  V30 11193 H 1031.74 -2.67014 -1.3544 0
M  V30 11194 H 1029.28 -1.28489 -0.650131 0
M  V30 11195 H 1031.23 -2.01428 -3.70141 0
M  V30 11196 H 1029.96 -0.906887 -3.13756 0
M  V30 11197 H 1028.62 -2.86339 -2.28922 0
M  V30 11198 H 1028.27 -2.00673 -4.61237 0
M  V30 11199 H 1027.97 -3.76008 -4.51544 0
M  V30 11200 H 1029.49 -3.15696 -5.22655 0
M  V30 11201 H 1030.9 -4.57633 -3.45319 0
M  V30 11202 H 1029.3 -5.2095 -2.97877 0
M  V30 11203 H 1030.37 -4.52536 -1.74182 0
M  V30 11204 N 1031.71 0.701592 -1.41122 0
M  V30 11205 C 1032.62 1.84548 -1.44841 0
M  V30 11206 C 1033.64 1.70654 -0.339594 0
M  V30 11207 O 1034.82 1.92675 -0.586378 0
M  V30 11208 C 1031.88 3.20477 -1.3227 0
M  V30 11209 C 1030.94 3.46524 -2.53415 0
M  V30 11210 C 1030.17 4.75968 -2.41434 0
M  V30 11211 O 1030.4 5.52037 -1.43566 0
M  V30 11212 O 1029.33 5.02664 -3.31078 0
M  V30 11213 H 1033.16 1.84367 -2.41335 0
M  V30 11214 H 1030.74 0.853863 -1.22595 0
M  V30 11215 H 1032.62 4.01642 -1.2752 0
M  V30 11216 H 1031.3 3.21355 -0.388889 0
M  V30 11217 H 1030.21 2.65313 -2.63742 0
M  V30 11218 H 1031.54 3.50455 -3.45604 0
M  V30 11219 N 1033.19 1.2685 0.935242 0
M  V30 11220 C 1034.44 1.12132 1.67658 0
M  V30 11221 C 1034.75 -0.333839 1.9273 0
M  V30 11222 O 1035.96 -0.601801 2.64746 0
M  V30 11223 C 1034.42 1.95873 3.0193 0
M  V30 11224 C 1034.02 3.46 2.84584 0
M  V30 11225 C 1035.77 1.89781 3.79715 0
M  V30 11226 C 1033.67 4.21966 4.14365 0
M  V30 11227 H 1032.6 0.416035 0.628833 0
M  V30 11228 H 1035.26 1.51209 1.03962 0
M  V30 11229 H 1033.64 1.49633 3.66641 0
M  V30 11230 H 1034.81 4.00049 2.28687 0
M  V30 11231 H 1033.13 3.53391 2.20236 0
M  V30 11232 H 1035.72 2.43819 4.75875 0
M  V30 11233 H 1036.07 0.869797 4.07112 0
M  V30 11234 H 1036.6 2.33875 3.21788 0
M  V30 11235 H 1033.34 5.2526 3.9215 0
M  V30 11236 H 1032.86 3.72696 4.69955 0
M  V30 11237 H 1034.54 4.30734 4.82781 0
M  V30 11238 N 1034.67 -1.14067 1.0875 0
M  V30 11239 C 1035.92 -1.85185 0.819317 0
M  V30 11240 C 1036.25 -1.8314 -0.654969 0
M  V30 11241 O 1035.5 -1.25974 -1.49763 0
M  V30 11242 C 1035.8 -3.33273 1.29089 0
M  V30 11243 C 1035.47 -3.55504 2.77359 0
M  V30 11244 C 1034.13 -3.61279 3.17853 0
M  V30 11245 C 1036.48 -3.64041 3.72992 0
M  V30 11246 C 1033.81 -3.73119 4.52768 0
M  V30 11247 C 1036.16 -3.77407 5.07687 0
M  V30 11248 C 1034.82 -3.81433 5.47782 0
M  V30 11249 H 1034.09 -0.67764 0.299809 0
M  V30 11250 H 1036.74 -1.34713 1.36106 0
M  V30 11251 H 1035.05 -3.86049 0.668811 0
M  V30 11252 H 1036.74 -3.86734 1.06009 0
M  V30 11253 H 1033.33 -3.51659 2.45019 0
M  V30 11254 H 1037.52 -3.58866 3.42825 0
M  V30 11255 H 1032.77 -3.74499 4.83281 0
M  V30 11256 H 1036.95 -3.82956 5.81651 0
M  V30 11257 H 1034.57 -3.9036 6.52321 0
M  V30 11258 N 1036.15 -0.873678 -1.31166 0
M  V30 11259 C 1037.38 -0.500317 -2.0045 0
M  V30 11260 C 1037.79 0.912716 -1.65729 0
M  V30 11261 O 1037.13 1.61001 -0.884563 0
M  V30 11262 C 1037.19 -0.58197 -3.54758 0
M  V30 11263 C 1036.86 -1.95728 -4.12964 0
M  V30 11264 C 1037.85 -2.92526 -4.29796 0
M  V30 11265 C 1035.54 -2.2596 -4.48606 0
M  V30 11266 C 1037.53 -4.17697 -4.81464 0
M  V30 11267 C 1035.22 -3.5138 -4.99976 0
M  V30 11268 C 1036.22 -4.47064 -5.16356 0
M  V30 11269 O 1035.9 -5.70259 -5.66621 0
M  V30 11270 H 1035.64 -0.193044 -0.64785 0
M  V30 11271 H 1038.19 -1.17768 -1.68285 0
M  V30 11272 H 1036.42 0.152326 -3.864 0
M  V30 11273 H 1038.11 -0.221506 -4.05295 0
M  V30 11274 H 1038.88 -2.70479 -4.02574 0
M  V30 11275 H 1034.75 -1.52258 -4.3513 0
M  V30 11276 H 1038.3 -4.92389 -4.94165 0
M  V30 11277 H 1034.2 -3.73269 -5.26631 0
M  V30 11278 H 1034.96 -5.72483 -5.84983 0
M  V30 11279 N 1037.63 1.44308 -0.633487 0
M  V30 11280 C 1038.57 2.30694 0.0700257 0
M  V30 11281 C 1039.54 1.43618 0.834447 0
M  V30 11282 O 1040.73 1.72517 0.815014 0
M  V30 11283 C 1037.87 3.28929 1.04403 0
M  V30 11284 C 1036.98 4.31106 0.277779 0
M  V30 11285 C 1036.12 5.16433 1.24381 0
M  V30 11286 C 1035.16 6.10317 0.466855 0
M  V30 11287 N 1034.29 6.88335 1.38347 0
M  V30 11288 H 1039.13 2.90311 -0.672567 0
M  V30 11289 H 1036.67 1.43034 -0.343449 0
M  V30 11290 H 1038.63 3.84373 1.62214 0
M  V30 11291 H 1037.26 2.71006 1.75372 0
M  V30 11292 H 1036.31 3.78115 -0.416292 0
M  V30 11293 H 1037.62 4.97725 -0.327251 0
M  V30 11294 H 1036.78 5.76406 1.89318 0
M  V30 11295 H 1035.51 4.49893 1.88276 0
M  V30 11296 H 1034.52 5.49451 -0.195989 0
M  V30 11297 H 1035.74 6.78894 -0.167414 0
M  V30 11298 H 1033.69 6.24461 2.00959 0
M  V30 11299 H 1033.61 7.51402 0.832517 0
M  V30 11300 H 1034.88 7.52829 2.0216 0
M  V30 11301 N 1039.1 0.374177 1.53094 0
M  V30 11302 C 1040.35 -0.213981 2.00562 0
M  V30 11303 C 1040.67 -1.4916 1.26533 0
M  V30 11304 O 1041.87 -2.15889 1.64634 0
M  V30 11305 C 1040.33 -0.431876 3.57299 0
M  V30 11306 C 1039.94 0.831615 4.40214 0
M  V30 11307 C 1041.68 -0.977222 4.13099 0
M  V30 11308 C 1039.59 0.582831 5.88521 0
M  V30 11309 H 1038.52 -0.0837386 0.749336 0
M  V30 11310 H 1041.17 0.494245 1.76719 0
M  V30 11311 H 1039.55 -1.20158 3.7733 0
M  V30 11312 H 1040.72 1.60477 4.31953 0
M  V30 11313 H 1039.04 1.30081 3.9556 0
M  V30 11314 H 1041.64 -1.17881 5.21544 0
M  V30 11315 H 1041.98 -1.94189 3.68234 0
M  V30 11316 H 1042.51 -0.267473 3.969 0
M  V30 11317 H 1039.25 1.51807 6.37679 0
M  V30 11318 H 1038.77 -0.151666 5.99608 0
M  V30 11319 H 1040.45 0.211604 6.46654 0
M  V30 11320 N 1040.58 -1.57259 0.103575 0
M  V30 11321 C 1041.51 -2.17509 -0.84923 0
M  V30 11322 C 1042.49 -1.11079 -1.28824 0
M  V30 11323 O 1043.68 -1.39252 -1.35361 0
M  V30 11324 C 1040.81 -2.76221 -2.10522 0
M  V30 11325 C 1039.76 -3.88098 -1.80454 0
M  V30 11326 C 1039.09 -4.33549 -3.12952 0
M  V30 11327 C 1040.39 -5.10909 -1.08486 0
M  V30 11328 H 1042.08 -2.9738 -0.347217 0
M  V30 11329 H 1039.63 -1.43045 -0.165568 0
M  V30 11330 H 1041.58 -3.17024 -2.77621 0
M  V30 11331 H 1040.31 -1.93617 -2.63021 0
M  V30 11332 H 1038.96 -3.47847 -1.15749 0
M  V30 11333 H 1038.61 -3.47825 -3.63355 0
M  V30 11334 H 1038.31 -5.08984 -2.93614 0
M  V30 11335 H 1039.84 -4.76992 -3.81196 0
M  V30 11336 H 1041.25 -5.48828 -1.65711 0
M  V30 11337 H 1039.65 -5.91828 -0.992973 0
M  V30 11338 H 1040.72 -4.84851 -0.0690108 0
M  V30 11339 N 1042.06 0.170153 -1.56679 0
M  V30 11340 C 1043.29 0.902134 -1.86197 0
M  V30 11341 C 1043.7 1.75775 -0.689098 0
M  V30 11342 O 1043.06 1.79271 0.341763 0
M  V30 11343 C 1043.11 1.77792 -3.14757 0
M  V30 11344 O 1042.83 0.956817 -4.27524 0
M  V30 11345 C 1044.33 2.61947 -3.57629 0
M  V30 11346 H 1041.55 0.262026 -0.617724 0
M  V30 11347 H 1044.1 0.169899 -2.03793 0
M  V30 11348 H 1042.25 2.46348 -2.98984 0
M  V30 11349 H 1042.67 1.5559 -5.00891 0
M  V30 11350 H 1044.14 3.19011 -4.50484 0
M  V30 11351 H 1044.62 3.36873 -2.81803 0
M  V30 11352 H 1045.22 1.98721 -3.76019 0
M  V30 11353 N 1043.54 1.5137 0.438746 0
M  V30 11354 C 1044.49 1.73154 1.55308 0
M  V30 11355 C 1045.48 0.597825 1.58501 0
M  V30 11356 O 1046.69 0.77917 1.62262 0
M  V30 11357 H 1043.06 0.547083 0.51595 0
M  V30 11358 H 1045.03 2.66566 1.34108 0
M  V30 11359 C 1043.78 1.87242 2.92977 0
M  V30 11360 H 1043.1 2.73884 2.91252 0
M  V30 11361 H 1044.54 2.06497 3.70317 0
M  V30 11362 C 1043 0.631887 3.30921 0
M  V30 11363 O 1043.53 -0.214099 4.01129 0
M  V30 11364 N 1041.74 0.47639 2.86669 0
M  V30 11365 H 1041.29 1.16589 2.29706 0
M  V30 11366 H 1041.24 -0.352403 3.12419 0
M  V30 11367 N 1045.02 -0.694098 1.41492 0
M  V30 11368 C 1046.24 -1.48286 1.44288 0
M  V30 11369 C 1046.66 -1.88737 0.0485783 0
M  V30 11370 O 1046.02 -1.56881 -0.932449 0
M  V30 11371 C 1046.07 -2.74446 2.3529 0
M  V30 11372 O 1045.79 -2.35698 3.69294 0
M  V30 11373 C 1047.29 -3.68175 2.46905 0
M  V30 11374 H 1044.51 -0.45692 0.491391 0
M  V30 11375 H 1047.05 -0.854477 1.85793 0
M  V30 11376 H 1045.21 -3.33518 1.9709 0
M  V30 11377 H 1045.62 -3.17029 4.17843 0
M  V30 11378 H 1047.1 -4.53476 3.14743 0
M  V30 11379 H 1047.57 -4.12763 1.50078 0
M  V30 11380 H 1048.18 -3.15006 2.85747 0
M  V30 11381 N 1046.49 -1.27344 -0.928501 0
M  V30 11382 C 1047.77 -1.04362 -1.65433 0
M  V30 11383 C 1048.15 0.421896 -2.06841 0
M  V30 11384 O 1047.5 1.40496 -1.80203 0
M  V30 11385 C 1047.71 -2.00442 -2.85699 0
M  V30 11386 C 1049.06 -2.29767 -3.57061 0
M  V30 11387 O 1050.08 -1.98409 -2.95825 0
M  V30 11388 O 1048.94 -2.83217 -4.67387 0
M  V30 11389 H 1046.03 -0.397783 -0.72505 0
M  V30 11390 H 1048.58 -1.38606 -0.979109 0
M  V30 11391 H 1047.35 -2.99281 -2.52085 0
M  V30 11392 H 1046.98 -1.66755 -3.60941 0
M  V30 11393 N 1047.97 1.13488 -1.09353 0
M  V30 11394 C 1049.38 1.66299 -0.848609 0
M  V30 11395 C 1049.73 1.86044 0.623051 0
M  V30 11396 O 1048.86 1.57871 1.48005 0
M  V30 11397 C 1049.45 3.02087 -1.53391 0
M  V30 11398 C 1048.01 3.51893 -1.33598 0
M  V30 11399 C 1047.16 2.27154 -1.59048 0
M  V30 11400 H 1050.11 0.974208 -1.25279 0
M  V30 11401 H 1050.13 3.68018 -0.966587 0
M  V30 11402 H 1049.64 2.87684 -2.60498 0
M  V30 11403 H 1047.75 3.715 -0.286045 0
M  V30 11404 H 1047.86 4.32059 -2.0703 0
M  V30 11405 H 1046.22 2.33708 -1.01256 0
M  V30 11406 H 1047.01 2.15317 -2.67383 0
M  V30 11407 N 1049.45 0.880621 1.30701 0
M  V30 11408 C 1050.4 0.333562 2.30196 0
M  V30 11409 C 1051.39 -0.557092 1.59978 0
M  V30 11410 O 1052.6 -0.442009 1.74489 0
M  V30 11411 H 1048.97 0.0892036 0.746691 0
M  V30 11412 H 1050.95 1.18644 2.73799 0
M  V30 11413 C 1049.69 -0.440731 3.44895 0
M  V30 11414 H 1049.02 0.235353 3.99107 0
M  V30 11415 H 1050.46 -0.788676 4.166 0
M  V30 11416 C 1048.92 -1.63613 2.94504 0
M  V30 11417 O 1049.45 -2.73549 2.94166 0
M  V30 11418 N 1047.65 -1.47183 2.5057 0
M  V30 11419 H 1047.2 -0.577479 2.51044 0
M  V30 11420 H 1047.16 -2.27303 2.17211 0
M  V30 11421 N 1050.93 -1.4397 0.641131 0
M  V30 11422 C 1052.21 -1.95436 0.0800918 0
M  V30 11423 C 1052.59 -1.58282 -1.39678 0
M  V30 11424 O 1051.93 -0.861867 -2.11623 0
M  V30 11425 C 1052.14 -3.47589 0.313531 0
M  V30 11426 C 1053.49 -4.2407 0.212034 0
M  V30 11427 O 1054.52 -3.55353 0.245434 0
M  V30 11428 O 1053.38 -5.46356 0.125455 0
M  V30 11429 H 1050.47 -0.826834 -0.0165735 0
M  V30 11430 H 1053.02 -1.5397 0.71353 0
M  V30 11431 H 1051.79 -3.67716 1.33793 0
M  V30 11432 H 1051.41 -3.96025 -0.353563 0
M  V30 11433 N 1052.41 -0.382291 -1.52893 0
M  V30 11434 C 1053.32 0.463745 -2.29971 0
M  V30 11435 C 1054.33 1.07777 -1.36602 0
M  V30 11436 O 1055.51 1.0851 -1.69669 0
M  V30 11437 C 1052.57 1.57938 -3.08637 0
M  V30 11438 C 1051.64 0.991182 -4.17701 0
M  V30 11439 C 1050.87 2.05365 -4.92606 0
M  V30 11440 O 1051.09 3.26757 -4.67532 0
M  V30 11441 O 1050.03 1.67487 -5.78128 0
M  V30 11442 H 1053.85 -0.163962 -3.03257 0
M  V30 11443 H 1051.44 -0.146199 -1.48683 0
M  V30 11444 H 1053.32 2.22765 -3.57706 0
M  V30 11445 H 1051.99 2.19218 -2.3817 0
M  V30 11446 H 1050.9 0.306364 -3.72843 0
M  V30 11447 H 1052.23 0.422699 -4.90382 0
M  V30 11448 N 1053.89 1.57202 -0.111913 0
M  V30 11449 C 1055.13 1.95239 0.548607 0
M  V30 11450 C 1055.46 0.994897 1.6678 0
M  V30 11451 O 1054.74 0.0308603 1.94476 0
M  V30 11452 C 1055.02 3.43271 1.08798 0
M  V30 11453 C 1054.88 4.49792 -0.0273064 0
M  V30 11454 C 1056.19 3.92989 1.98109 0
M  V30 11455 H 1053.31 0.709919 0.197951 0
M  V30 11456 H 1055.96 1.89087 -0.186036 0
M  V30 11457 H 1054.11 3.48644 1.71404 0
M  V30 11458 H 1055.78 4.56521 -0.662302 0
M  V30 11459 H 1054.02 4.28254 -0.691426 0
M  V30 11460 H 1054.69 5.50612 0.391201 0
M  V30 11461 H 1057.17 3.89875 1.45385 0
M  V30 11462 H 1056.04 4.97101 2.32769 0
M  V30 11463 H 1056.3 3.33267 2.90492 0
M  V30 11464 N 1055.36 -0.161842 1.56767 0
M  V30 11465 C 1056.27 -1.21996 2.00385 0
M  V30 11466 C 1057.29 -1.4789 0.916768 0
M  V30 11467 O 1058.47 -1.59852 1.22513 0
M  V30 11468 C 1055.53 -2.53695 2.36305 0
M  V30 11469 C 1054.59 -2.3558 3.58888 0
M  V30 11470 C 1053.82 -3.60998 3.93085 0
M  V30 11471 O 1054.05 -4.6657 3.28129 0
M  V30 11472 O 1052.98 -3.54544 4.86397 0
M  V30 11473 H 1056.81 -0.879701 2.9068 0
M  V30 11474 H 1054.39 -0.369437 1.4476 0
M  V30 11475 H 1056.27 -3.31366 2.60335 0
M  V30 11476 H 1054.95 -2.87281 1.49169 0
M  V30 11477 H 1053.86 -1.55908 3.40064 0
M  V30 11478 H 1055.19 -2.06915 4.46595 0
M  V30 11479 N 1056.84 -1.516 -0.430713 0
M  V30 11480 C 1058.26 -1.39923 -0.767706 0
M  V30 11481 C 1058.46 -0.486756 -1.95532 0
M  V30 11482 O 1057.51 0.0555965 -2.52439 0
M  V30 11483 C 1058.83 -2.82074 -1.04187 0
M  V30 11484 C 1060.37 -2.9127 -1.1459 0
M  V30 11485 C 1060.85 -4.34342 -1.45295 0
M  V30 11486 N 1062.34 -4.37479 -1.52206 0
M  V30 11487 C 1063.08 -5.45219 -1.77549 0
M  V30 11488 N 1062.57 -6.6311 -2.0064 0
M  V30 11489 N 1064.36 -5.32707 -1.79386 0
M  V30 11490 H 1056.52 -2.09474 0.351351 0
M  V30 11491 H 1058.78 -0.943247 0.0948151 0
M  V30 11492 H 1058.48 -3.50868 -0.241837 0
M  V30 11493 H 1058.36 -3.21805 -1.96777 0
M  V30 11494 H 1060.75 -2.2267 -1.93655 0
M  V30 11495 H 1060.83 -2.55026 -0.198854 0
M  V30 11496 H 1060.47 -5.03494 -0.667559 0
M  V30 11497 H 1060.4 -4.68105 -2.41217 0
M  V30 11498 H 1062.89 -3.52488 -1.36237 0
M  V30 11499 H 1063.2 -7.41012 -2.19366 0
M  V30 11500 H 1061.55 -6.66214 -1.97948 0
M  V30 11501 H 1064.74 -4.39589 -1.60869 0
M  V30 11502 H 1064.91 -6.16752 -1.98799 0
M  V30 11503 N 1058.32 0.686584 -1.41858 0
M  V30 11504 C 1059.74 0.998283 -1.24525 0
M  V30 11505 C 1059.94 2.01006 -0.141007 0
M  V30 11506 O 1058.99 2.47667 0.491648 0
M  V30 11507 C 1060.3 1.51432 -2.59786 0
M  V30 11508 C 1061.85 1.6327 -2.67043 0
M  V30 11509 C 1062.33 2.18274 -4.02642 0
M  V30 11510 N 1063.82 2.25622 -4.04535 0
M  V30 11511 C 1064.55 2.69229 -5.06264 0
M  V30 11512 N 1064.05 3.12375 -6.1838 0
M  V30 11513 N 1065.84 2.68873 -4.93623 0
M  V30 11514 H 1057.99 0.0164825 -2.12394 0
M  V30 11515 H 1060.26 0.0698613 -0.945422 0
M  V30 11516 H 1059.96 0.845426 -3.41388 0
M  V30 11517 H 1059.84 2.49502 -2.82894 0
M  V30 11518 H 1062.22 2.29269 -1.85794 0
M  V30 11519 H 1062.3 0.637221 -2.47736 0
M  V30 11520 H 1061.95 1.52887 -4.84343 0
M  V30 11521 H 1061.88 3.18591 -4.19294 0
M  V30 11522 H 1064.37 1.95186 -3.23591 0
M  V30 11523 H 1064.68 3.44301 -6.91864 0
M  V30 11524 H 1063.03 3.10262 -6.21902 0
M  V30 11525 H 1066.22 2.34521 -4.05114 0
M  V30 11526 H 1066.39 3.02539 -5.7304 0
M  V30 11527 N 1059.8 1.27835 0.921735 0
M  V30 11528 C 1060.75 1.1092 2.04449 0
M  V30 11529 C 1061.74 0.0306469 1.69372 0
M  V30 11530 O 1062.95 0.188818 1.79007 0
M  V30 11531 H 1059.32 0.341973 0.669745 0
M  V30 11532 H 1061.29 2.06026 2.1586 0
M  V30 11533 C 1060.04 0.779443 3.38851 0
M  V30 11534 H 1059.36 1.60131 3.66331 0
M  V30 11535 H 1060.8 0.700999 4.18165 0
M  V30 11536 C 1059.26 -0.51647 3.32918 0
M  V30 11537 O 1059.79 -1.54914 3.70627 0
M  V30 11538 N 1058 -0.514276 2.86013 0
M  V30 11539 H 1057.55 0.32651 2.55522 0
M  V30 11540 H 1057.5 -1.38141 2.82426 0
M  V30 11541 N 1061.28 -1.12907 1.09954 0
M  V30 11542 C 1062.24 -2.16673 0.747364 0
M  V30 11543 C 1063.24 -1.59208 -0.225741 0
M  V30 11544 O 1064.43 -1.742 -0.00322482 0
M  V30 11545 C 1061.56 -3.40735 0.106169 0
M  V30 11546 H 1062.75 -2.49341 1.6664 0
M  V30 11547 H 1060.31 -1.27828 0.899421 0
M  V30 11548 H 1061.04 -3.13661 -0.82384 0
M  V30 11549 H 1060.83 -3.83717 0.806434 0
M  V30 11550 H 1062.32 -4.17414 -0.12464 0
M  V30 11551 N 1062.75 -0.88754 -1.30232 0
M  V30 11552 C 1064.03 -0.427249 -1.90877 0
M  V30 11553 C 1064.41 1.0922 -1.80649 0
M  V30 11554 O 1063.76 1.92866 -1.22536 0
M  V30 11555 C 1063.97 -0.928219 -3.3643 0
M  V30 11556 C 1065.32 -0.964706 -4.13496 0
M  V30 11557 O 1066.34 -0.875057 -3.45284 0
M  V30 11558 O 1065.2 -1.09754 -5.35366 0
M  V30 11559 H 1062.29 -0.131107 -0.816541 0
M  V30 11560 H 1064.84 -0.976609 -1.38782 0
M  V30 11561 H 1063.61 -1.97209 -3.37971 0
M  V30 11562 H 1063.23 -0.358169 -3.95983 0
M  V30 11563 N 1064.23 1.43628 -0.648757 0
M  V30 11564 C 1065.18 2.32529 0.057536 0
M  V30 11565 C 1066.17 1.48358 0.817699 0
M  V30 11566 O 1067.38 1.64595 0.728605 0
M  V30 11567 H 1063.76 0.75107 0.037388 0
M  V30 11568 H 1065.73 2.89829 -0.710062 0
M  V30 11569 C 1064.48 3.32605 1.01336 0
M  V30 11570 H 1063.8 3.97395 0.437855 0
M  V30 11571 H 1065.24 3.97453 1.47672 0
M  V30 11572 C 1063.7 2.62865 2.10722 0
M  V30 11573 O 1064.23 2.4408 3.19042 0
M  V30 11574 N 1062.43 2.22312 1.87152 0
M  V30 11575 H 1061.98 2.3779 0.990644 0
M  V30 11576 H 1061.94 1.75979 2.60536 0
M  V30 11577 N 1065.71 0.390394 1.52688 0
M  V30 11578 C 1066.66 -0.444229 2.26485 0
M  V30 11579 C 1067.63 -1.05688 1.28138 0
M  V30 11580 O 1068.81 -1.0847 1.56968 0
M  V30 11581 C 1065.95 -1.56501 3.07574 0
M  V30 11582 C 1065.07 -0.975111 4.20851 0
M  V30 11583 C 1064.2 -2.06704 4.89333 0
M  V30 11584 C 1063.24 -1.45309 5.94602 0
M  V30 11585 N 1062.38 -2.48437 6.56676 0
M  V30 11586 H 1067.22 0.191535 2.97384 0
M  V30 11587 H 1064.75 0.106287 1.46716 0
M  V30 11588 H 1066.71 -2.22558 3.52879 0
M  V30 11589 H 1065.34 -2.17107 2.38881 0
M  V30 11590 H 1064.39 -0.204109 3.79852 0
M  V30 11591 H 1065.71 -0.486465 4.96422 0
M  V30 11592 H 1064.86 -2.80528 5.37949 0
M  V30 11593 H 1063.6 -2.58928 4.13289 0
M  V30 11594 H 1062.6 -0.700091 5.45324 0
M  V30 11595 H 1063.83 -0.938775 6.7258 0
M  V30 11596 H 1061.77 -2.99829 5.83471 0
M  V30 11597 H 1061.69 -2.04331 7.27863 0
M  V30 11598 H 1062.96 -3.21888 7.09935 0
M  V30 11599 N 1067.19 -1.57141 0.120249 0
M  V30 11600 C 1068.1 -2.18925 -0.843155 0
M  V30 11601 C 1069.11 -1.16575 -1.29175 0
M  V30 11602 O 1070.29 -1.4905 -1.35448 0
M  V30 11603 C 1067.36 -2.7775 -2.075 0
M  V30 11604 C 1066.42 -3.95139 -1.6782 0
M  V30 11605 C 1065.65 -4.51149 -2.85132 0
M  V30 11606 O 1065.87 -4.06056 -4.00593 0
M  V30 11607 O 1064.81 -5.41815 -2.62145 0
M  V30 11608 H 1068.63 -3.01707 -0.347357 0
M  V30 11609 H 1066.22 -1.49028 -0.105427 0
M  V30 11610 H 1068.1 -3.15243 -2.79643 0
M  V30 11611 H 1066.77 -1.97998 -2.56083 0
M  V30 11612 H 1065.68 -3.62412 -0.927807 0
M  V30 11613 H 1067.01 -4.7633 -1.23977 0
M  V30 11614 N 1068.67 0.153526 -1.5685 0
M  V30 11615 C 1069.94 0.895545 -1.73895 0
M  V30 11616 C 1070.32 1.99625 -0.686504 0
M  V30 11617 O 1069.67 2.26579 0.2957 0
M  V30 11618 C 1069.88 1.44399 -3.17726 0
M  V30 11619 C 1071.23 1.90996 -3.79217 0
M  V30 11620 O 1072.25 1.54155 -3.21115 0
M  V30 11621 O 1071.11 2.58917 -4.81274 0
M  V30 11622 H 1068.21 0.422755 -0.710779 0
M  V30 11623 H 1070.75 0.139961 -1.69122 0
M  V30 11624 H 1069.52 0.652635 -3.85819 0
M  V30 11625 H 1069.15 2.26326 -3.26898 0
M  V30 11626 N 1070.14 1.51827 0.422667 0
M  V30 11627 C 1071.07 1.77152 1.52117 0
M  V30 11628 C 1072.06 0.621895 1.58324 0
M  V30 11629 O 1073.24 0.866118 1.73816 0
M  V30 11630 C 1070.37 1.90991 2.90068 0
M  V30 11631 C 1069.32 3.06516 2.98717 0
M  V30 11632 C 1068.65 3.05559 4.38791 0
M  V30 11633 C 1069.95 4.46223 2.71445 0
M  V30 11634 H 1071.64 2.69135 1.31175 0
M  V30 11635 H 1069.19 1.29507 0.629607 0
M  V30 11636 H 1071.14 2.07291 3.6689 0
M  V30 11637 H 1069.87 0.956688 3.12274 0
M  V30 11638 H 1068.53 2.89945 2.24338 0
M  V30 11639 H 1068.17 2.07985 4.57986 0
M  V30 11640 H 1067.87 3.83144 4.45505 0
M  V30 11641 H 1069.4 3.23971 5.17566 0
M  V30 11642 H 1070.81 4.63069 3.37994 0
M  V30 11643 H 1069.21 5.25623 2.89552 0
M  V30 11644 H 1070.28 4.5525 1.6696 0
M  V30 11645 N 1071.62 -0.679052 1.4222 0
M  V30 11646 C 1072.85 -1.46747 1.45852 0
M  V30 11647 C 1073.27 -1.88675 0.0685937 0
M  V30 11648 O 1072.62 -1.57861 -0.915757 0
M  V30 11649 C 1072.67 -2.71935 2.38188 0
M  V30 11650 O 1072.39 -2.31768 3.71773 0
M  V30 11651 C 1073.9 -3.65536 2.50796 0
M  V30 11652 H 1071.12 -0.451682 0.49621 0
M  V30 11653 H 1073.66 -0.834723 1.86689 0
M  V30 11654 H 1071.81 -3.31409 2.00616 0
M  V30 11655 H 1072.23 -3.12579 4.21182 0
M  V30 11656 H 1073.7 -4.50113 3.19535 0
M  V30 11657 H 1074.18 -4.11148 1.54447 0
M  V30 11658 H 1074.79 -3.11957 2.89072 0
M  V30 11659 N 1073.1 -1.28322 -0.914942 0
M  V30 11660 C 1074.33 -1.1837 -1.70304 0
M  V30 11661 C 1074.75 0.254291 -1.86373 0
M  V30 11662 O 1074.11 1.18398 -1.37301 0
M  V30 11663 C 1074.16 -1.88603 -3.07346 0
M  V30 11664 O 1073.26 -1.19268 -3.94777 0
M  V30 11665 H 1072.6 -0.410978 -0.52153 0
M  V30 11666 H 1075.13 -1.69622 -1.14409 0
M  V30 11667 H 1075.14 -1.96463 -3.57584 0
M  V30 11668 H 1073.82 -2.93201 -2.94967 0
M  V30 11669 H 1072.39 -1.19563 -3.53212 0
M  V30 11670 N 1074.58 1.12322 -1.10551 0
M  V30 11671 C 1075.54 2.16273 -0.758844 0
M  V30 11672 C 1076.54 1.59325 0.217294 0
M  V30 11673 O 1077.73 1.74199 -0.00601346 0
M  V30 11674 C 1074.86 3.40674 -0.124238 0
M  V30 11675 H 1076.06 2.48454 -1.6796 0
M  V30 11676 H 1073.61 1.2735 -0.906188 0
M  V30 11677 H 1074.34 3.14094 0.807194 0
M  V30 11678 H 1074.13 3.83284 -0.826772 0
M  V30 11679 H 1075.62 4.17474 0.102502 0
M  V30 11680 N 1076.06 0.894434 1.2976 0
M  V30 11681 C 1077.33 0.437365 1.90648 0
M  V30 11682 C 1077.71 -1.08261 1.81226 0
M  V30 11683 O 1077.06 -1.92213 1.23557 0
M  V30 11684 C 1077.27 0.946047 3.35933 0
M  V30 11685 C 1078.62 0.986621 4.12978 0
M  V30 11686 O 1079.64 0.893356 3.44815 0
M  V30 11687 O 1078.5 1.12591 5.34776 0
M  V30 11688 H 1075.6 0.135436 0.815835 0
M  V30 11689 H 1078.14 0.983955 1.38262 0
M  V30 11690 H 1076.91 1.98998 3.3692 0
M  V30 11691 H 1076.54 0.379164 3.95788 0
M  V30 11692 N 1077.53 -1.43282 0.656365 0
M  V30 11693 C 1078.95 -1.85012 0.250475 0
M  V30 11694 C 1079.3 -1.54944 -1.20361 0
M  V30 11695 O 1078.42 -0.999983 -1.9191 0
M  V30 11696 C 1079.02 -3.35827 0.447815 0
M  V30 11697 C 1077.58 -3.76277 0.0962151 0
M  V30 11698 C 1076.72 -2.66988 0.749168 0
M  V30 11699 H 1079.67 -1.3339 0.85982 0
M  V30 11700 H 1079.69 -3.7927 -0.305726 0
M  V30 11701 H 1079.21 -3.5768 1.5062 0
M  V30 11702 H 1077.31 -3.60035 -0.959449 0
M  V30 11703 H 1077.42 -4.76227 0.523875 0
M  V30 11704 H 1075.78 -2.54048 0.18212 0
M  V30 11705 H 1076.57 -2.91669 1.81064 0
M  V30 11706 N 1079.01 -0.398486 -1.52479 0
M  V30 11707 C 1079.92 0.439328 -2.3045 0
M  V30 11708 C 1080.94 1.06322 -1.37738 0
M  V30 11709 O 1082.12 1.06704 -1.7081 0
M  V30 11710 C 1079.18 1.54655 -3.10294 0
M  V30 11711 C 1078.24 0.946824 -4.18729 0
M  V30 11712 C 1077.47 2.00129 -4.94757 0
M  V30 11713 O 1077.7 3.2178 -4.70971 0
M  V30 11714 O 1076.63 1.61345 -5.79872 0
M  V30 11715 H 1080.46 -0.196118 -3.03066 0
M  V30 11716 H 1078.04 -0.161961 -1.4852 0
M  V30 11717 H 1079.92 2.18958 -3.60049 0
M  V30 11718 H 1078.6 2.1668 -2.40482 0
M  V30 11719 H 1077.51 0.266802 -3.73147 0
M  V30 11720 H 1078.84 0.370664 -4.90802 0
M  V30 11721 N 1080.49 1.57075 -0.12858 0
M  V30 11722 C 1081.74 1.95134 0.526046 0
M  V30 11723 C 1082.06 1.01337 1.66601 0
M  V30 11724 O 1081.33 0.0714361 1.9577 0
M  V30 11725 H 1079.91 0.720468 0.19732 0
M  V30 11726 H 1082.57 1.93874 -0.199767 0
M  V30 11727 H 1081.67 2.98406 0.914332 0
M  V30 11728 N 1081.97 -0.145205 1.5693 0
M  V30 11729 C 1082.9 -1.20438 1.95006 0
M  V30 11730 C 1083.91 -1.39085 0.846114 0
M  V30 11731 O 1085.1 -1.38625 1.12452 0
M  V30 11732 C 1082.2 -2.56892 2.21043 0
M  V30 11733 C 1081.38 -2.59197 3.52329 0
M  V30 11734 C 1080.44 -3.77204 3.66884 0
M  V30 11735 O 1079.46 -3.61995 4.39259 0
M  V30 11736 N 1080.66 -4.9473 3.03682 0
M  V30 11737 H 1083.43 -0.880709 2.86467 0
M  V30 11738 H 1080.99 -0.334751 1.58401 0
M  V30 11739 H 1082.98 -3.34349 2.2802 0
M  V30 11740 H 1081.55 -2.81544 1.35838 0
M  V30 11741 H 1080.77 -1.67644 3.56776 0
M  V30 11742 H 1082.06 -2.57771 4.3867 0
M  V30 11743 H 1081.46 -5.09989 2.44801 0
M  V30 11744 H 1080.01 -5.69956 3.16218 0
M  V30 11745 N 1083.45 -1.52049 -0.414609 0
M  V30 11746 C 1084.7 -1.65067 -1.15912 0
M  V30 11747 C 1085.01 -0.383969 -1.91794 0
M  V30 11748 O 1086.22 -0.393872 -2.68628 0
M  V30 11749 C 1084.67 -2.91611 -2.1093 0
M  V30 11750 C 1084.28 -4.25369 -1.4059 0
M  V30 11751 C 1086.02 -3.13992 -2.85674 0
M  V30 11752 C 1083.93 -5.43041 -2.34223 0
M  V30 11753 H 1082.86 -0.614884 -0.436387 0
M  V30 11754 H 1085.51 -1.78533 -0.424072 0
M  V30 11755 H 1083.89 -2.71831 -2.87965 0
M  V30 11756 H 1085.07 -4.55611 -0.689568 0
M  V30 11757 H 1083.38 -4.09047 -0.779088 0
M  V30 11758 H 1085.98 -3.99082 -3.55861 0
M  V30 11759 H 1086.32 -2.27998 -3.48314 0
M  V30 11760 H 1086.86 -3.34217 -2.1574 0
M  V30 11761 H 1083.59 -6.31364 -1.76238 0
M  V30 11762 H 1083.11 -5.17144 -3.03845 0
M  V30 11763 H 1084.79 -5.75901 -2.94868 0
M  V30 11764 N 1084.93 0.6715 -1.42579 0
M  V30 11765 C 1085.86 1.79625 -1.40749 0
M  V30 11766 C 1086.84 1.6032 -0.271312 0
M  V30 11767 O 1088.02 1.82749 -0.46205 0
M  V30 11768 C 1085.15 3.16672 -1.20153 0
M  V30 11769 C 1084.19 3.54718 -2.36807 0
M  V30 11770 S 1085.03 3.56771 -3.99343 0
M  V30 11771 C 1086.18 4.96505 -3.81095 0
M  V30 11772 H 1086.42 1.80903 -2.35926 0
M  V30 11773 H 1083.95 0.842469 -1.2939 0
M  V30 11774 H 1085.91 3.95776 -1.08956 0
M  V30 11775 H 1084.57 3.12976 -0.265545 0
M  V30 11776 H 1083.76 4.54341 -2.18152 0
M  V30 11777 H 1083.36 2.82982 -2.44535 0
M  V30 11778 H 1085.65 5.84674 -3.4229 0
M  V30 11779 H 1086.6 5.20207 -4.80406 0
M  V30 11780 H 1087.01 4.69178 -3.13898 0
M  V30 11781 N 1086.4 1.28806 0.908124 0
M  V30 11782 C 1087.82 1.06634 1.18749 0
M  V30 11783 C 1088.02 -0.187729 2.00624 0
M  V30 11784 O 1087.08 -0.88784 2.36376 0
M  V30 11785 C 1088.39 2.31703 1.91661 0
M  V30 11786 C 1089.94 2.36939 2.04521 0
M  V30 11787 C 1090.41 3.61789 2.80843 0
M  V30 11788 N 1091.9 3.62462 2.88402 0
M  V30 11789 C 1092.64 4.55746 3.47971 0
M  V30 11790 N 1092.13 5.59353 4.08774 0
M  V30 11791 N 1093.93 4.43331 3.45564 0
M  V30 11792 H 1086.08 2.09299 0.36164 0
M  V30 11793 H 1088.34 0.921479 0.222668 0
M  V30 11794 H 1088.05 3.23096 1.38931 0
M  V30 11795 H 1087.92 2.38556 2.92183 0
M  V30 11796 H 1090.31 1.4604 2.5643 0
M  V30 11797 H 1090.39 2.34077 1.03159 0
M  V30 11798 H 1090.03 4.53035 2.29612 0
M  V30 11799 H 1089.96 3.61907 3.82532 0
M  V30 11800 H 1092.45 2.87544 2.45208 0
M  V30 11801 H 1092.77 6.26668 4.52224 0
M  V30 11802 H 1091.11 5.63173 4.07261 0
M  V30 11803 H 1094.3 3.61587 2.97276 0
M  V30 11804 H 1094.48 5.16216 3.91695 0
M  V30 11805 N 1087.88 -1.11734 1.11145 0
M  V30 11806 C 1088.79 -2.21267 0.779607 0
M  V30 11807 C 1089.81 -1.72526 -0.225986 0
M  V30 11808 O 1090.98 -2.01302 -0.0629166 0
M  V30 11809 C 1088.05 -3.45973 0.22435 0
M  V30 11810 C 1087.11 -4.09518 1.28816 0
M  V30 11811 C 1086.34 -5.28271 0.7593 0
M  V30 11812 O 1086.57 -5.68912 -0.411725 0
M  V30 11813 O 1085.5 -5.82322 1.52266 0
M  V30 11814 H 1089.33 -2.5206 1.6941 0
M  V30 11815 H 1086.91 -1.20211 0.887115 0
M  V30 11816 H 1088.79 -4.21322 -0.0810921 0
M  V30 11817 H 1087.47 -3.1684 -0.662891 0
M  V30 11818 H 1086.37 -3.35915 1.64657 0
M  V30 11819 H 1087.71 -4.42824 2.14868 0
M  V30 11820 N 1089.36 -0.901303 -1.29284 0
M  V30 11821 C 1090.59 -0.542723 -1.99344 0
M  V30 11822 C 1091 0.877357 -1.67628 0
M  V30 11823 O 1090.34 1.59088 -0.918515 0
M  V30 11824 C 1090.4 -0.657088 -3.53444 0
M  V30 11825 C 1090.07 -2.04444 -4.0872 0
M  V30 11826 C 1091.06 -3.01577 -4.23494 0
M  V30 11827 C 1088.75 -2.35425 -4.43712 0
M  V30 11828 C 1090.74 -4.27816 -4.72496 0
M  V30 11829 C 1088.43 -3.61906 -4.9241 0
M  V30 11830 C 1089.43 -4.57916 -5.06757 0
M  V30 11831 O 1089.12 -5.8215 -5.54397 0
M  V30 11832 H 1088.85 -0.206742 -0.64361 0
M  V30 11833 H 1091.4 -1.21311 -1.65749 0
M  V30 11834 H 1089.63 0.0703305 -3.86636 0
M  V30 11835 H 1091.32 -0.307425 -4.04734 0
M  V30 11836 H 1092.09 -2.78957 -3.96747 0
M  V30 11837 H 1087.97 -1.61454 -4.31803 0
M  V30 11838 H 1091.51 -5.0276 -4.83609 0
M  V30 11839 H 1087.41 -3.84356 -5.18595 0
M  V30 11840 H 1088.17 -5.84762 -5.72709 0
M  V30 11841 N 1090.84 1.42931 -0.663954 0
M  V30 11842 C 1091.8 2.29197 0.0117626 0
M  V30 11843 C 1092.8 1.42767 0.739875 0
M  V30 11844 O 1093.99 1.64278 0.579509 0
M  V30 11845 C 1091.12 3.2505 1.02738 0
M  V30 11846 H 1092.32 2.90438 -0.747391 0
M  V30 11847 H 1089.87 1.5039 -0.425733 0
M  V30 11848 H 1090.6 2.68726 1.8154 0
M  V30 11849 H 1090.39 3.88785 0.508809 0
M  V30 11850 H 1091.88 3.89771 1.49893 0
M  V30 11851 N 1092.32 0.406567 1.52266 0
M  V30 11852 C 1093.54 -0.172101 2.06685 0
M  V30 11853 C 1093.97 -1.38306 1.27488 0
M  V30 11854 O 1093.32 -1.78726 0.304441 0
M  V30 11855 C 1093.37 -0.503463 3.57068 0
M  V30 11856 O 1092.48 -1.59485 3.80314 0
M  V30 11857 H 1091.82 -0.0153209 0.663823 0
M  V30 11858 H 1094.35 0.579025 1.96236 0
M  V30 11859 H 1094.36 -0.762833 4.00805 0
M  V30 11860 H 1093.03 0.381775 4.14144 0
M  V30 11861 H 1091.61 -1.32784 3.48458 0
M  V30 11862 N 1093.79 -1.57004 0.136909 0
M  V30 11863 C 1095.07 -1.87375 -0.561233 0
M  V30 11864 C 1095.45 -1.04117 -1.83638 0
M  V30 11865 O 1094.8 -0.125103 -2.28157 0
M  V30 11866 C 1095.01 -3.38829 -0.836426 0
M  V30 11867 C 1096.36 -4.07826 -1.18164 0
M  V30 11868 O 1097.38 -3.4395 -0.92611 0
M  V30 11869 O 1096.24 -5.20614 -1.66204 0
M  V30 11870 H 1093.33 -0.776287 -0.285145 0
M  V30 11871 H 1095.88 -1.68818 0.172761 0
M  V30 11872 H 1094.65 -3.91244 0.066442 0
M  V30 11873 H 1094.28 -3.62879 -1.62496 0
M  V30 11874 N 1095.27 0.136881 -1.57004 0
M  V30 11875 C 1096.68 0.695911 -1.73245 0
M  V30 11876 C 1097.03 1.8118 -0.75288 0
M  V30 11877 O 1096.16 2.16258 0.0782477 0
M  V30 11878 C 1096.75 1.26914 -3.14131 0
M  V30 11879 C 1095.31 1.77463 -3.31939 0
M  V30 11880 C 1094.46 0.667128 -2.69156 0
M  V30 11881 H 1097.41 -0.0888841 -1.58451 0
M  V30 11882 H 1097.43 2.13892 -3.14691 0
M  V30 11883 H 1096.94 0.456754 -3.85403 0
M  V30 11884 H 1095.05 2.61236 -2.65681 0
M  V30 11885 H 1095.16 1.89638 -4.39971 0
M  V30 11886 H 1093.52 1.09629 -2.29899 0
M  V30 11887 H 1094.31 -0.13398 -3.43038 0
M  V30 11888 N 1096.75 1.52266 0.40654 0
M  V30 11889 C 1097.66 1.78688 1.52012 0
M  V30 11890 C 1098.68 0.6726 1.60475 0
M  V30 11891 O 1099.85 0.95829 1.77141 0
M  V30 11892 C 1096.92 1.93434 2.87722 0
M  V30 11893 C 1095.98 3.17341 2.89125 0
M  V30 11894 C 1095.21 3.31374 4.18362 0
M  V30 11895 O 1095.43 2.50613 5.12396 0
M  V30 11896 O 1094.37 4.24539 4.26674 0
M  V30 11897 H 1098.19 2.73213 1.3262 0
M  V30 11898 H 1095.78 1.37142 0.592653 0
M  V30 11899 H 1097.66 2.04941 3.68208 0
M  V30 11900 H 1096.34 1.02099 3.07177 0
M  V30 11901 H 1095.24 3.1129 2.07483 0
M  V30 11902 H 1096.58 4.08466 2.7462 0
M  V30 11903 N 1098.23 -0.663929 1.42933 0
M  V30 11904 C 1099.46 -1.44981 1.47187 0
M  V30 11905 C 1099.87 -1.89009 0.0850091 0
M  V30 11906 O 1099.21 -1.59413 -0.912855 0
M  V30 11907 C 1099.27 -2.72409 2.34592 0
M  V30 11908 C 1098.94 -2.5039 3.82301 0
M  V30 11909 C 1099.93 -2.14295 4.73681 0
M  V30 11910 C 1097.62 -2.65047 4.2668 0
M  V30 11911 C 1099.61 -1.93139 6.07434 0
M  V30 11912 C 1097.3 -2.43506 5.60489 0
M  V30 11913 C 1098.3 -2.07607 6.50683 0
M  V30 11914 O 1097.98 -1.86284 7.82019 0
M  V30 11915 H 1097.72 -0.452238 0.502451 0
M  V30 11916 H 1100.27 -0.822228 1.88225 0
M  V30 11917 H 1098.5 -3.37689 1.88422 0
M  V30 11918 H 1100.19 -3.34327 2.30174 0
M  V30 11919 H 1100.96 -2.02557 4.40676 0
M  V30 11920 H 1096.83 -2.91966 3.56759 0
M  V30 11921 H 1100.38 -1.65042 6.77796 0
M  V30 11922 H 1096.28 -2.54844 5.93064 0
M  V30 11923 H 1097.04 -2.00795 7.93488 0
M  V30 11924 N 1099.71 -1.29285 -0.901281 0
M  V30 11925 C 1101.12 -1.07263 -1.18182 0
M  V30 11926 C 1101.32 0.177087 -2.0072 0
M  V30 11927 O 1100.38 0.875292 -2.36844 0
M  V30 11928 C 1101.69 -2.32717 -1.9043 0
M  V30 11929 C 1103.24 -2.3802 -2.03262 0
M  V30 11930 C 1103.71 -3.63273 -2.7892 0
M  V30 11931 N 1105.21 -3.63986 -2.86475 0
M  V30 11932 C 1105.94 -4.57585 -3.45549 0
M  V30 11933 N 1105.44 -5.61513 -4.05801 0
M  V30 11934 N 1107.23 -4.45157 -3.43208 0
M  V30 11935 H 1099.38 -2.09487 -0.350536 0
M  V30 11936 H 1101.64 -0.922647 -0.217778 0
M  V30 11937 H 1101.35 -3.23828 -1.37216 0
M  V30 11938 H 1101.22 -2.40102 -2.90913 0
M  V30 11939 H 1103.61 -1.47398 -2.55652 0
M  V30 11940 H 1103.69 -2.3462 -1.01916 0
M  V30 11941 H 1103.34 -4.54246 -2.27206 0
M  V30 11942 H 1103.27 -3.6393 -3.80608 0
M  V30 11943 H 1105.76 -2.8884 -2.43679 0
M  V30 11944 H 1106.07 -6.29058 -4.48894 0
M  V30 11945 H 1104.41 -5.65325 -4.04268 0
M  V30 11946 H 1107.61 -3.63158 -2.95354 0
M  V30 11947 H 1107.78 -5.18286 -3.88952 0
M  V30 11948 N 1101.18 1.11143 -1.11736 0
M  V30 11949 C 1102.13 2.17274 -0.778513 0
M  V30 11950 C 1103.1 1.64186 0.251405 0
M  V30 11951 O 1104.29 1.90373 0.127629 0
M  V30 11952 C 1101.43 3.44324 -0.231246 0
M  V30 11953 C 1100.54 4.114 -1.31809 0
M  V30 11954 C 1099.67 5.26146 -0.73104 0
M  V30 11955 C 1098.71 5.85112 -1.79752 0
M  V30 11956 N 1097.85 6.91247 -1.22973 0
M  V30 11957 H 1102.69 2.45603 -1.68769 0
M  V30 11958 H 1100.23 1.20565 -0.842759 0
M  V30 11959 H 1102.19 4.1707 0.104045 0
M  V30 11960 H 1100.82 3.16369 0.641119 0
M  V30 11961 H 1099.87 3.36697 -1.77029 0
M  V30 11962 H 1101.18 4.51278 -2.12485 0
M  V30 11963 H 1100.33 6.05713 -0.345987 0
M  V30 11964 H 1099.07 4.87583 0.107 0
M  V30 11965 H 1098.08 5.0422 -2.19185 0
M  V30 11966 H 1099.3 6.25741 -2.63865 0
M  V30 11967 H 1097.25 6.54696 -0.41339 0
M  V30 11968 H 1097.17 7.29796 -1.97316 0
M  V30 11969 H 1098.43 7.74611 -0.87167 0
M  V30 11970 N 1102.66 0.908147 1.28804 0
M  V30 11971 C 1103.61 0.363504 2.25084 0
M  V30 11972 C 1104.6 -0.52121 1.52224 0
M  V30 11973 O 1105.79 -0.361848 1.73262 0
M  V30 11974 C 1102.92 -0.400353 3.40958 0
M  V30 11975 C 1102 0.499761 4.21145 0
M  V30 11976 N 1102.39 1.61082 4.79464 0
M  V30 11977 C 1100.69 0.299108 4.44996 0
M  V30 11978 C 1101.39 2.16906 5.39747 0
M  V30 11979 N 1100.37 1.46103 5.23598 0
M  V30 11980 H 1104.17 1.21212 2.6774 0
M  V30 11981 H 1101.69 0.760159 1.43511 0
M  V30 11982 H 1103.68 -0.807343 4.09008 0
M  V30 11983 H 1102.34 -1.24613 2.99836 0
M  V30 11984 H 1103.35 1.99347 4.77997 0
M  V30 11985 H 1100.03 -0.507611 4.14403 0
M  V30 11986 H 1101.42 3.10338 5.95936 0
M  V30 11987 N 1104.14 -1.42577 0.671525 0
M  V30 11988 C 1105.07 -2.33499 0.00506984 0
M  V30 11989 C 1106.05 -1.50497 -0.792763 0
M  V30 11990 O 1107.24 -1.79109 -0.750574 0
M  V30 11991 C 1104.37 -3.34077 -0.949194 0
M  V30 11992 C 1103.32 -4.27208 -0.260187 0
M  V30 11993 C 1102.65 -5.17968 -1.32716 0
M  V30 11994 C 1103.95 -5.15192 0.858772 0
M  V30 11995 H 1105.64 -2.89477 0.764407 0
M  V30 11996 H 1103.19 -1.39191 0.369043 0
M  V30 11997 H 1105.14 -3.96594 -1.42448 0
M  V30 11998 H 1103.86 -2.76396 -1.73991 0
M  V30 11999 H 1102.52 -3.66082 0.194834 0
M  V30 12000 H 1102.17 -4.56615 -2.10979 0
M  V30 12001 H 1101.87 -5.81104 -0.871293 0
M  V30 12002 H 1103.39 -5.83359 -1.80345 0
M  V30 12003 H 1104.81 -5.71412 0.464844 0
M  V30 12004 H 1103.21 -5.87144 1.24023 0
M  V30 12005 H 1104.28 -4.53787 1.70895 0
M  V30 12006 N 1105.62 -0.414636 -1.52048 0
M  V30 12007 C 1106.53 0.414861 -2.30903 0
M  V30 12008 C 1107.54 1.04855 -1.38858 0
M  V30 12009 O 1108.72 1.04886 -1.71933 0
M  V30 12010 C 1105.79 1.51356 -3.11917 0
M  V30 12011 C 1104.85 0.902359 -4.19709 0
M  V30 12012 C 1104.08 1.9487 -4.96852 0
M  V30 12013 O 1104.3 3.16766 -4.74358 0
M  V30 12014 O 1103.24 1.55186 -5.8155 0
M  V30 12015 H 1107.06 -0.228251 -3.02841 0
M  V30 12016 H 1104.65 -0.177704 -1.48339 0
M  V30 12017 H 1106.53 2.15127 -3.62351 0
M  V30 12018 H 1105.2 2.14117 -2.42767 0
M  V30 12019 H 1104.11 0.22721 -3.73409 0
M  V30 12020 H 1105.44 0.318587 -4.91168 0
M  V30 12021 N 1107.1 1.56929 -0.145233 0
M  V30 12022 C 1108.35 1.95243 0.506273 0
M  V30 12023 C 1108.66 1.0325 1.66129 0
M  V30 12024 O 1109.86 1.31135 2.37731 0
M  V30 12025 C 1108.32 3.47079 0.952042 0
M  V30 12026 C 1107.93 4.47654 -0.175947 0
M  V30 12027 C 1109.67 3.94263 1.57344 0
M  V30 12028 C 1107.58 5.90698 0.287993 0
M  V30 12029 H 1106.51 0.728906 0.192903 0
M  V30 12030 H 1109.16 1.82062 -0.229295 0
M  V30 12031 H 1107.54 3.55587 1.74282 0
M  V30 12032 H 1108.72 4.50841 -0.952848 0
M  V30 12033 H 1107.03 4.10377 -0.70564 0
M  V30 12034 H 1109.63 4.9857 1.93214 0
M  V30 12035 H 1109.97 3.35714 2.46174 0
M  V30 12036 H 1110.5 3.88665 0.847593 0
M  V30 12037 H 1107.24 6.53061 -0.564889 0
M  V30 12038 H 1106.76 5.90876 1.03081 0
M  V30 12039 H 1108.44 6.42747 0.740586 0
M  V30 12040 N 1108.58 -0.128553 1.57075 0
M  V30 12041 C 1109.82 -0.83801 1.84347 0
M  V30 12042 C 1110.15 -1.80325 0.728906 0
M  V30 12043 O 1109.41 -1.93678 -0.280571 0
M  V30 12044 C 1109.7 -1.63027 3.18052 0
M  V30 12045 C 1109.37 -0.810171 4.43562 0
M  V30 12046 C 1108.03 -0.583984 4.77643 0
M  V30 12047 C 1110.38 -0.237896 5.20657 0
M  V30 12048 C 1107.71 0.224887 5.86269 0
M  V30 12049 C 1110.06 0.558114 6.30133 0
M  V30 12050 C 1108.73 0.794706 6.62752 0
M  V30 12051 H 1108 -0.30665 0.674572 0
M  V30 12052 H 1110.65 -0.100797 1.91235 0
M  V30 12053 H 1108.95 -2.43812 3.06697 0
M  V30 12054 H 1110.65 -2.183 3.36372 0
M  V30 12055 H 1107.24 -0.996547 4.16854 0
M  V30 12056 H 1111.42 -0.399881 4.94686 0
M  V30 12057 H 1106.68 0.417507 6.09973 0
M  V30 12058 H 1110.85 1.00859 6.89058 0
M  V30 12059 H 1108.48 1.42331 7.46757 0
M  V30 12060 N 1110.05 -1.5248 -0.398459 0
M  V30 12061 C 1111.28 -1.70677 -1.16417 0
M  V30 12062 C 1111.69 -0.420629 -1.84465 0
M  V30 12063 O 1111.03 0.614013 -1.73135 0
M  V30 12064 C 1111.1 -2.79401 -2.2622 0
M  V30 12065 C 1110.76 -4.20817 -1.78218 0
M  V30 12066 C 1111.76 -5.04298 -1.26409 0
M  V30 12067 C 1109.44 -4.67098 -1.84728 0
M  V30 12068 C 1111.44 -6.32136 -0.817461 0
M  V30 12069 C 1109.12 -5.94923 -1.39676 0
M  V30 12070 C 1110.12 -6.77272 -0.882716 0
M  V30 12071 O 1109.81 -8.02702 -0.438739 0
M  V30 12072 H 1109.54 -0.57503 -0.355411 0
M  V30 12073 H 1112.1 -1.99868 -0.473471 0
M  V30 12074 H 1110.33 -2.4561 -2.98685 0
M  V30 12075 H 1112.01 -2.86093 -2.87933 0
M  V30 12076 H 1112.78 -4.6973 -1.20744 0
M  V30 12077 H 1108.66 -4.03097 -2.23682 0
M  V30 12078 H 1112.2 -6.96361 -0.415548 0
M  V30 12079 H 1108.1 -6.28998 -1.45024 0
M  V30 12080 H 1108.87 -8.16575 -0.561079 0
M  V30 12081 N 1111.53 0.65634 -1.43283 0
M  V30 12082 C 1112.48 1.76934 -1.48199 0
M  V30 12083 C 1113.45 1.62748 -0.332023 0
M  V30 12084 O 1114.63 1.83036 -0.538735 0
M  V30 12085 C 1111.77 3.15072 -1.40797 0
M  V30 12086 C 1110.89 3.40414 -2.65974 0
M  V30 12087 C 1110.02 4.68383 -2.50582 0
M  V30 12088 C 1109.06 4.8682 -3.71043 0
M  V30 12089 N 1108.2 6.06043 -3.5448 0
M  V30 12090 H 1113.04 1.72067 -2.43304 0
M  V30 12091 H 1110.57 0.839728 -1.20777 0
M  V30 12092 H 1112.53 3.94925 -1.345 0
M  V30 12093 H 1111.16 3.19017 -0.492754 0
M  V30 12094 H 1110.21 2.54681 -2.82563 0
M  V30 12095 H 1111.53 3.49925 -3.55463 0
M  V30 12096 H 1110.68 5.56357 -2.41975 0
M  V30 12097 H 1109.42 4.61187 -1.58612 0
M  V30 12098 H 1108.42 3.97282 -3.80062 0
M  V30 12099 H 1109.65 4.95847 -4.64017 0
M  V30 12100 H 1107.6 5.99985 -2.65242 0
M  V30 12101 H 1107.51 6.16498 -4.37568 0
M  V30 12102 H 1108.78 6.96647 -3.49719 0
M  V30 12103 N 1113.01 1.29761 0.894412 0
M  V30 12104 C 1114.26 1.17409 1.64006 0
M  V30 12105 C 1114.57 -0.272355 1.93695 0
M  V30 12106 O 1115.78 -0.517269 2.66527 0
M  V30 12107 C 1114.23 2.05379 2.95546 0
M  V30 12108 C 1113.84 3.54878 2.73433 0
M  V30 12109 C 1115.59 2.01765 3.73485 0
M  V30 12110 C 1113.49 4.34935 4.00731 0
M  V30 12111 H 1112.42 0.43583 0.615279 0
M  V30 12112 H 1115.07 1.5444 0.990983 0
M  V30 12113 H 1113.46 1.61222 3.61695 0
M  V30 12114 H 1114.63 4.07122 2.15844 0
M  V30 12115 H 1112.94 3.60218 2.08882 0
M  V30 12116 H 1115.54 2.58835 4.67877 0
M  V30 12117 H 1115.88 0.998876 4.04139 0
M  V30 12118 H 1116.42 2.43994 3.14184 0
M  V30 12119 H 1113.16 5.3747 3.75241 0
M  V30 12120 H 1112.68 3.87458 4.5786 0
M  V30 12121 H 1114.36 4.45875 4.68833 0
M  V30 12122 N 1114.49 -1.10549 1.12324 0
M  V30 12123 C 1115.42 -2.18911 0.812416 0
M  V30 12124 C 1116.4 -1.68628 -0.22327 0
M  V30 12125 O 1117.58 -1.94015 -0.0847184 0
M  V30 12126 C 1114.71 -3.46288 0.264947 0
M  V30 12127 C 1113.67 -4.09838 1.23356 0
M  V30 12128 C 1112.99 -5.31901 0.546374 0
M  V30 12129 C 1114.29 -4.53686 2.58778 0
M  V30 12130 H 1115.99 -2.45169 1.71851 0
M  V30 12131 H 1113.53 -1.17834 0.827715 0
M  V30 12132 H 1115.49 -4.21385 0.0352364 0
M  V30 12133 H 1114.21 -3.19517 -0.676479 0
M  V30 12134 H 1112.87 -3.36746 1.44906 0
M  V30 12135 H 1112.52 -5.01406 -0.400157 0
M  V30 12136 H 1112.22 -5.75372 1.19249 0
M  V30 12137 H 1113.74 -6.09731 0.325673 0
M  V30 12138 H 1115.16 -5.20063 2.41263 0
M  V30 12139 H 1113.55 -5.08003 3.19457 0
M  V30 12140 H 1114.62 -3.66665 3.17309 0
M  V30 12141 N 1115.97 -0.914965 -1.28321 0
M  V30 12142 C 1117.19 -0.564654 -1.99046 0
M  V30 12143 C 1117.61 0.854345 -1.68364 0
M  V30 12144 O 1116.97 1.56605 -0.937068 0
M  V30 12145 C 1117.02 -0.765663 -3.53299 0
M  V30 12146 O 1116.74 -2.12883 -3.829 0
M  V30 12147 C 1118.24 -0.422347 -4.41283 0
M  V30 12148 H 1115.46 -0.215158 -0.635569 0
M  V30 12149 H 1118 -1.2285 -1.63487 0
M  V30 12150 H 1116.16 -0.148795 -3.87114 0
M  V30 12151 H 1116.57 -2.1694 -4.77533 0
M  V30 12152 H 1118.05 -0.613757 -5.48577 0
M  V30 12153 H 1118.52 0.641484 -4.3449 0
M  V30 12154 H 1119.13 -1.01681 -4.12966 0
M  V30 12155 N 1117.44 1.42219 -0.679077 0
M  V30 12156 C 1118.39 2.32599 0.00820028 0
M  V30 12157 C 1119.39 1.50059 0.786046 0
M  V30 12158 O 1120.59 1.66103 0.693528 0
M  V30 12159 H 1116.97 0.751694 0.0214483 0
M  V30 12160 H 1118.94 2.88257 -0.77138 0
M  V30 12161 C 1117.69 3.3468 0.942581 0
M  V30 12162 H 1117.01 3.98234 0.353463 0
M  V30 12163 H 1118.45 4.00496 1.39208 0
M  V30 12164 C 1116.91 2.67275 2.05099 0
M  V30 12165 O 1117.44 2.50793 3.13793 0
M  V30 12166 N 1115.64 2.26232 1.82394 0
M  V30 12167 H 1115.19 2.39838 0.939983 0
M  V30 12168 H 1115.15 1.81465 2.56744 0
M  V30 12169 N 1118.92 0.422693 1.51826 0
M  V30 12170 C 1120.15 -0.147744 2.06372 0
M  V30 12171 C 1120.56 -1.37714 1.29152 0
M  V30 12172 O 1119.92 -1.7917 0.347046 0
M  V30 12173 C 1119.97 -0.484642 3.58237 0
M  V30 12174 O 1119.69 0.695944 4.32537 0
M  V30 12175 C 1121.19 -1.10734 4.29247 0
M  V30 12176 H 1118.41 -0.0144047 0.670845 0
M  V30 12177 H 1120.96 0.597558 1.95575 0
M  V30 12178 H 1119.11 -1.17984 3.68997 0
M  V30 12179 H 1119.53 0.411471 5.22884 0
M  V30 12180 H 1121 -1.29318 5.36639 0
M  V30 12181 H 1121.48 -2.08429 3.86593 0
M  V30 12182 H 1122.08 -0.451958 4.22892 0
M  V30 12183 N 1120.4 -1.5685 0.153553 0
M  V30 12184 C 1121.68 -1.8796 -0.541328 0
M  V30 12185 C 1122.06 -1.06059 -1.82523 0
M  V30 12186 O 1121.4 -0.149295 -2.28012 0
M  V30 12187 C 1121.61 -3.39697 -0.800442 0
M  V30 12188 C 1122.96 -4.09057 -1.13832 0
M  V30 12189 O 1123.99 -3.44913 -0.889578 0
M  V30 12190 O 1122.85 -5.22347 -1.60673 0
M  V30 12191 H 1119.94 -0.779268 -0.276895 0
M  V30 12192 H 1122.49 -1.68626 0.190657 0
M  V30 12193 H 1121.26 -3.91151 0.107935 0
M  V30 12194 H 1120.88 -3.64582 -1.58638 0
M  V30 12195 N 1121.88 0.120221 -1.57141 0
M  V30 12196 C 1123.29 0.677497 -1.73974 0
M  V30 12197 C 1123.64 1.80371 -0.772055 0
M  V30 12198 O 1122.76 2.16329 0.0553062 0
M  V30 12199 C 1123.36 1.23575 -3.1546 0
M  V30 12200 C 1121.92 1.73933 -3.33803 0
M  V30 12201 C 1121.07 0.638542 -2.69848 0
M  V30 12202 H 1124.02 -0.105685 -1.58348 0
M  V30 12203 H 1124.04 2.10542 -3.16942 0
M  V30 12204 H 1123.55 0.415851 -3.85866 0
M  V30 12205 H 1121.65 2.58404 -2.68437 0
M  V30 12206 H 1121.76 1.84961 -4.41957 0
M  V30 12207 H 1120.13 1.07185 -2.31049 0
M  V30 12208 H 1120.91 -0.170356 -3.42877 0
M  V30 12209 N 1123.36 1.52689 0.390367 0
M  V30 12210 C 1124.3 1.78007 1.4972 0
M  V30 12211 C 1125.3 0.647948 1.56518 0
M  V30 12212 O 1126.5 0.830398 1.59701 0
M  V30 12213 H 1122.88 0.56322 0.498284 0
M  V30 12214 H 1124.85 2.70698 1.25559 0
M  V30 12215 C 1123.6 1.96469 2.86872 0
M  V30 12216 H 1122.92 2.83012 2.82391 0
M  V30 12217 H 1124.36 2.18174 3.6356 0
M  V30 12218 C 1122.82 0.736847 3.28743 0
M  V30 12219 O 1123.35 -0.0863743 4.01607 0
M  V30 12220 N 1121.56 0.56735 2.85008 0
M  V30 12221 H 1121.1 1.23838 2.2588 0
M  V30 12222 H 1121.06 -0.252831 3.13382 0
M  V30 12223 N 1124.83 -0.648732 1.43629 0
M  V30 12224 C 1126.11 -1.4062 1.35961 0
M  V30 12225 C 1126.49 -2.11098 0.00961023 0
M  V30 12226 O 1125.84 -2.05107 -1.00714 0
M  V30 12227 C 1126.05 -2.38719 2.54586 0
M  V30 12228 C 1127.4 -3.02584 2.97873 0
M  V30 12229 O 1128.42 -2.49046 2.54665 0
M  V30 12230 O 1127.28 -3.99662 3.72736 0
M  V30 12231 H 1124.37 -0.628483 0.53753 0
M  V30 12232 H 1126.92 -0.675263 1.55687 0
M  V30 12233 H 1125.69 -1.85619 3.44472 0
M  V30 12234 H 1125.32 -3.19257 2.36983 0
M  V30 12235 N 1126.31 -1.30234 -0.887518 0
M  V30 12236 C 1127.59 -1.09572 -1.62029 0
M  V30 12237 C 1127.97 0.355877 -2.08079 0
M  V30 12238 O 1127.32 1.34692 -1.84582 0
M  V30 12239 C 1127.53 -2.0943 -2.79177 0
M  V30 12240 C 1128.88 -2.4101 -3.4957 0
M  V30 12241 O 1129.9 -2.0772 -2.89363 0
M  V30 12242 O 1128.76 -2.97943 -4.5814 0
M  V30 12243 H 1125.85 -0.420648 -0.712028 0
M  V30 12244 H 1128.4 -1.41651 -0.934517 0
M  V30 12245 H 1127.17 -3.07149 -2.42436 0
M  V30 12246 H 1126.79 -1.78154 -3.55453 0
M  V30 12247 N 1127.79 1.09952 -1.12909 0
M  V30 12248 C 1129.04 1.82286 -0.888797 0
M  V30 12249 C 1129.37 1.85218 0.58379 0
M  V30 12250 O 1128.64 1.31645 1.43177 0
M  V30 12251 C 1128.93 3.28706 -1.47053 0
M  V30 12252 C 1128.78 3.34078 -3.01184 0
M  V30 12253 C 1130.1 4.25233 -1.13424 0
M  V30 12254 H 1127.22 0.661803 -0.324324 0
M  V30 12255 H 1129.86 1.28833 -1.3965 0
M  V30 12256 H 1128.01 3.74356 -1.03874 0
M  V30 12257 H 1129.68 2.96871 -3.5308 0
M  V30 12258 H 1127.93 2.73825 -3.36455 0
M  V30 12259 H 1128.6 4.37202 -3.36984 0
M  V30 12260 H 1131.07 3.87841 -1.50726 0
M  V30 12261 H 1129.95 5.26033 -1.56783 0
M  V30 12262 H 1130.21 4.42075 -0.0471496 0
M  V30 12263 N 1129.27 0.921757 1.27833 0
M  V30 12264 C 1130.18 0.421668 2.30779 0
M  V30 12265 C 1131.19 -0.494686 1.6682 0
M  V30 12266 O 1132.37 -0.378935 1.97803 0
M  V30 12267 C 1129.44 -0.322928 3.45193 0
M  V30 12268 C 1128.5 0.627618 4.24687 0
M  V30 12269 C 1127.73 -0.0815385 5.33638 0
M  V30 12270 O 1127.95 -1.30193 5.55343 0
M  V30 12271 O 1126.89 0.58725 5.99028 0
M  V30 12272 H 1130.71 1.2763 2.7558 0
M  V30 12273 H 1128.3 0.686877 1.32674 0
M  V30 12274 H 1130.18 -0.743145 4.14796 0
M  V30 12275 H 1128.85 -1.15326 3.02459 0
M  V30 12276 H 1127.76 1.09739 3.57642 0
M  V30 12277 H 1129.09 1.425 4.71121 0
M  V30 12278 N 1130.75 -1.41857 0.686609 0
M  V30 12279 C 1132.16 -1.55549 0.357288 0
M  V30 12280 C 1132.36 -1.66394 -1.13646 0
M  V30 12281 O 1131.42 -1.63739 -1.92213 0
M  V30 12282 C 1132.73 -2.79938 1.09796 0
M  V30 12283 C 1134.28 -2.93724 1.08143 0
M  V30 12284 C 1134.75 -4.20989 1.80367 0
M  V30 12285 N 1136.25 -4.27927 1.77293 0
M  V30 12286 C 1136.98 -5.2524 2.30022 0
M  V30 12287 N 1136.48 -6.28636 2.91185 0
M  V30 12288 N 1138.27 -5.17118 2.20329 0
M  V30 12289 H 1130.42 -1.33063 1.65554 0
M  V30 12290 H 1132.68 -0.641335 0.698135 0
M  V30 12291 H 1132.39 -2.78104 2.15293 0
M  V30 12292 H 1132.26 -3.71188 0.670763 0
M  V30 12293 H 1134.65 -2.9508 0.0347554 0
M  V30 12294 H 1134.73 -2.03673 1.54761 0
M  V30 12295 H 1134.38 -4.20395 2.85009 0
M  V30 12296 H 1134.31 -5.09997 1.3119 0
M  V30 12297 H 1136.8 -3.53838 1.32692 0
M  V30 12298 H 1137.11 -6.99265 3.29011 0
M  V30 12299 H 1135.45 -6.29164 2.95259 0
M  V30 12300 H 1138.65 -4.35265 1.72226 0
M  V30 12301 H 1138.82 -5.92792 2.61728 0
M  V30 12302 N 1132.22 -0.430739 -1.51599 0
M  V30 12303 C 1133.64 -0.0826902 -1.59386 0
M  V30 12304 C 1133.84 1.40729 -1.44214 0
M  V30 12305 O 1132.9 2.1765 -1.28002 0
M  V30 12306 C 1134.21 -0.59691 -2.94716 0
M  V30 12307 C 1135.76 -0.556772 -3.08008 0
M  V30 12308 C 1136.23 -1.04786 -4.45852 0
M  V30 12309 N 1137.72 -1.00557 -4.52153 0
M  V30 12310 C 1138.46 -1.35649 -5.57124 0
M  V30 12311 N 1137.95 -1.77994 -6.69545 0
M  V30 12312 N 1139.75 -1.27508 -5.47447 0
M  V30 12313 H 1131.9 -1.40027 -1.59707 0
M  V30 12314 H 1134.16 -0.576606 -0.752482 0
M  V30 12315 H 1133.87 -1.63914 -3.11167 0
M  V30 12316 H 1133.74 -0.0182342 -3.77196 0
M  V30 12317 H 1136.13 0.476457 -2.91228 0
M  V30 12318 H 1136.21 -1.17177 -2.27383 0
M  V30 12319 H 1135.85 -2.07952 -4.63377 0
M  V30 12320 H 1135.78 -0.409461 -5.25006 0
M  V30 12321 H 1138.27 -0.694518 -3.71463 0
M  V30 12322 H 1138.59 -2.03026 -7.45654 0
M  V30 12323 H 1136.93 -1.81916 -6.70769 0
M  V30 12324 H 1140.12 -0.942969 -4.58504 0
M  V30 12325 H 1140.3 -1.55185 -6.29143 0
M  V30 12326 N 1133.7 1.56767 -0.161869 0
M  V30 12327 C 1134.65 2.18807 0.789074 0
M  V30 12328 C 1135.64 1.14934 1.24445 0
M  V30 12329 O 1136.85 1.33154 1.2112 0
M  V30 12330 H 1133.23 0.700808 0.272713 0
M  V30 12331 H 1135.2 2.97419 0.241766 0
M  V30 12332 C 1133.95 2.83568 2.01207 0
M  V30 12333 H 1133.27 3.63219 1.67068 0
M  V30 12334 H 1134.71 3.3046 2.65654 0
M  V30 12335 C 1133.17 1.82846 2.82964 0
M  V30 12336 O 1133.7 1.30809 3.79805 0
M  V30 12337 N 1131.9 1.51815 2.47791 0
M  V30 12338 H 1131.45 1.94325 1.69103 0
M  V30 12339 H 1131.41 0.846742 3.02783 0
M  V30 12340 N 1135.18 -0.111886 1.57202 0
M  V30 12341 C 1136.14 -1.12101 1.99915 0
M  V30 12342 C 1137.14 -1.33906 0.890272 0
M  V30 12343 O 1138.33 -1.30303 1.15615 0
M  V30 12344 C 1135.47 -2.47392 2.34543 0
M  V30 12345 H 1136.66 -0.753736 2.90274 0
M  V30 12346 H 1134.21 -0.35641 1.52182 0
M  V30 12347 H 1134.95 -2.89026 1.47086 0
M  V30 12348 H 1134.73 -2.32917 3.15423 0
M  V30 12349 H 1136.22 -3.20004 2.68304 0
M  V30 12350 N 1136.66 -1.52894 -0.382264 0
M  V30 12351 C 1137.94 -1.58853 -1.14127 0
M  V30 12352 C 1138.32 -0.38582 -2.07544 0
M  V30 12353 O 1137.66 0.625323 -2.19777 0
M  V30 12354 C 1137.87 -2.93068 -1.89504 0
M  V30 12355 C 1139.22 -3.47048 -2.44629 0
M  V30 12356 O 1140.25 -2.94987 -1.99652 0
M  V30 12357 O 1139.1 -4.3802 -3.26804 0
M  V30 12358 H 1136.2 -0.640969 -0.522578 0
M  V30 12359 H 1138.74 -1.65231 -0.386873 0
M  V30 12360 H 1137.52 -3.72047 -1.2123 0
M  V30 12361 H 1137.14 -2.90106 -2.7189 0
M  V30 12362 N 1138.14 0.641106 -1.43971 0
M  V30 12363 C 1139.09 1.77474 -1.50352 0
M  V30 12364 C 1140.08 1.65173 -0.376052 0
M  V30 12365 O 1141.29 1.71373 -0.550572 0
M  V30 12366 H 1137.66 0.585747 -0.471597 0
M  V30 12367 H 1139.63 1.69213 -2.45784 0
M  V30 12368 C 1138.38 3.15778 -1.45532 0
M  V30 12369 H 1137.7 3.25886 -2.316 0
M  V30 12370 H 1139.14 3.95022 -1.54058 0
M  V30 12371 C 1137.6 3.36447 -0.174624 0
M  V30 12372 O 1138.13 3.9446 0.759215 0
M  V30 12373 N 1136.34 2.90487 -0.0809383 0
M  V30 12374 H 1135.89 2.43461 -0.841691 0
M  V30 12375 H 1135.84 3.04693 0.775231 0
M  V30 12376 N 1139.62 1.30703 0.880598 0
M  V30 12377 C 1140.56 1.17455 1.98678 0
M  V30 12378 C 1141.53 0.0629569 1.65981 0
M  V30 12379 O 1142.72 0.233926 1.89361 0
M  V30 12380 C 1139.86 0.876882 3.33774 0
M  V30 12381 C 1138.97 2.07078 3.79134 0
M  V30 12382 C 1138.11 1.71082 5.02896 0
M  V30 12383 C 1137.14 2.86942 5.40676 0
M  V30 12384 N 1136.28 2.51212 6.55619 0
M  V30 12385 H 1141.12 2.12086 2.09341 0
M  V30 12386 H 1138.66 1.05514 1.02495 0
M  V30 12387 H 1140.62 0.684899 4.1154 0
M  V30 12388 H 1139.25 -0.0325633 3.22784 0
M  V30 12389 H 1138.3 2.37388 2.97239 0
M  V30 12390 H 1139.61 2.9383 4.0307 0
M  V30 12391 H 1138.76 1.48284 5.883 0
M  V30 12392 H 1137.5 0.815064 4.80841 0
M  V30 12393 H 1136.51 3.10401 4.53797 0
M  V30 12394 H 1137.73 3.77211 5.64703 0
M  V30 12395 H 1135.68 1.64147 6.35131 0
M  V30 12396 H 1135.6 3.31495 6.79446 0
M  V30 12397 H 1136.86 2.31781 7.44243 0
M  V30 12398 N 1141.09 -1.09351 1.1349 0
M  V30 12399 C 1142 -2.19564 0.826366 0
M  V30 12400 C 1143.02 -1.72967 -0.189339 0
M  V30 12401 O 1144.2 -2.0139 -0.0202033 0
M  V30 12402 C 1141.26 -3.4542 0.297685 0
M  V30 12403 C 1140.32 -4.06694 1.37473 0
M  V30 12404 C 1139.55 -5.26542 0.871183 0
M  V30 12405 O 1139.78 -5.69657 -0.290958 0
M  V30 12406 O 1138.71 -5.78961 1.64584 0
M  V30 12407 H 1142.54 -2.4841 1.74718 0
M  V30 12408 H 1140.12 -1.18302 0.912414 0
M  V30 12409 H 1142 -4.21399 0.00829479 0
M  V30 12410 H 1140.68 -3.18175 -0.595536 0
M  V30 12411 H 1139.59 -3.32347 1.71745 0
M  V30 12412 H 1140.92 -4.38166 2.24212 0
M  V30 12413 N 1142.57 -0.928524 -1.27343 0
M  V30 12414 C 1143.85 -0.487758 -1.89421 0
M  V30 12415 C 1144.23 1.03418 -1.84032 0
M  V30 12416 O 1143.58 1.8887 -1.2861 0
M  V30 12417 C 1143.79 -1.03478 -3.33307 0
M  V30 12418 C 1145.13 -1.09577 -4.10217 0
M  V30 12419 O 1146.16 -0.984463 -3.42326 0
M  V30 12420 O 1145.02 -1.2673 -5.31603 0
M  V30 12421 H 1142.11 -0.157018 -0.811957 0
M  V30 12422 H 1144.66 -1.02027 -1.35605 0
M  V30 12423 H 1143.43 -2.07861 -3.31526 0
M  V30 12424 H 1143.05 -0.483967 -3.94644 0
M  V30 12425 N 1144.05 1.41491 -0.694123 0
M  V30 12426 C 1144.98 2.33462 -0.0422169 0
M  V30 12427 C 1145.96 1.51739 0.76872 0
M  V30 12428 O 1147.15 1.8028 0.721985 0
M  V30 12429 C 1144.28 3.35545 0.895925 0
M  V30 12430 C 1143.23 4.27568 0.192188 0
M  V30 12431 C 1142.56 5.20014 1.24459 0
M  V30 12432 C 1143.86 5.1376 -0.940626 0
M  V30 12433 H 1145.55 2.88225 -0.810363 0
M  V30 12434 H 1143.1 1.38586 -0.39114 0
M  V30 12435 H 1145.05 3.9881 1.36121 0
M  V30 12436 H 1143.77 2.79129 1.69572 0
M  V30 12437 H 1142.43 3.65726 -0.25305 0
M  V30 12438 H 1142.08 4.59913 2.03687 0
M  V30 12439 H 1141.78 5.82417 0.778734 0
M  V30 12440 H 1143.3 5.86155 1.71041 0
M  V30 12441 H 1144.72 5.70601 -0.555692 0
M  V30 12442 H 1143.11 5.85097 -1.33349 0
M  V30 12443 H 1144.18 4.51011 -1.78093 0
M  V30 12444 N 1145.53 0.438773 1.51369 0
M  V30 12445 C 1146.76 -0.125847 2.06517 0
M  V30 12446 C 1147.17 -1.36336 1.30606 0
M  V30 12447 O 1146.53 -1.78792 0.36603 0
M  V30 12448 C 1146.58 -0.446619 3.5873 0
M  V30 12449 O 1146.3 0.741781 4.31775 0
M  V30 12450 C 1147.8 -1.06175 4.30397 0
M  V30 12451 H 1145.02 -0.00728868 0.67096 0
M  V30 12452 H 1147.56 0.618267 1.9493 0
M  V30 12453 H 1145.72 -1.14064 3.70227 0
M  V30 12454 H 1146.13 0.466907 5.22418 0
M  V30 12455 H 1147.61 -1.23619 5.3798 0
M  V30 12456 H 1148.08 -2.04317 3.88782 0
M  V30 12457 H 1148.69 -0.40708 4.23347 0
M  V30 12458 N 1147.01 -1.56678 0.170181 0
M  V30 12459 C 1148.23 -2.0166 -0.484543 0
M  V30 12460 C 1148.66 -1.04962 -1.56091 0
M  V30 12461 O 1148.01 -0.0289887 -1.81277 0
M  V30 12462 C 1148.06 -3.45252 -1.04084 0
M  V30 12463 O 1147.17 -3.51623 -2.15488 0
M  V30 12464 H 1146.51 -0.653765 -0.116135 0
M  V30 12465 H 1149.04 -2.02761 0.273737 0
M  V30 12466 H 1149.05 -3.84534 -1.36373 0
M  V30 12467 H 1147.72 -4.15131 -0.252738 0
M  V30 12468 H 1146.3 -3.242 -1.84252 0
M  V30 12469 N 1148.48 0.103547 -1.57259 0
M  V30 12470 C 1149.45 1.11039 -2.00507 0
M  V30 12471 C 1150.45 1.33432 -0.897361 0
M  V30 12472 O 1151.64 1.29688 -1.16304 0
M  V30 12473 C 1148.77 2.46144 -2.35851 0
M  V30 12474 H 1149.96 0.738332 -2.90669 0
M  V30 12475 H 1147.51 0.348334 -1.52369 0
M  V30 12476 H 1148.25 2.88242 -1.48617 0
M  V30 12477 H 1148.03 2.31241 -3.16654 0
M  V30 12478 H 1149.52 3.18577 -2.69997 0
M  V30 12479 N 1149.96 1.53094 0.37415 0
M  V30 12480 C 1151.24 1.59456 1.13283 0
M  V30 12481 C 1151.62 0.396821 2.07337 0
M  V30 12482 O 1150.97 -0.613659 2.20106 0
M  V30 12483 C 1151.18 2.94069 1.87948 0
M  V30 12484 C 1152.52 3.4834 2.42785 0
M  V30 12485 O 1153.55 2.96042 1.98085 0
M  V30 12486 O 1152.41 4.39747 3.24477 0
M  V30 12487 H 1149.5 0.643731 0.519171 0
M  V30 12488 H 1152.05 1.65434 0.378105 0
M  V30 12489 H 1150.82 3.72685 1.19255 0
M  V30 12490 H 1150.44 2.91544 2.70348 0
M  V30 12491 N 1151.44 -0.633461 1.44309 0
M  V30 12492 C 1152.85 -1.21504 1.41752 0
M  V30 12493 C 1153.2 -1.95758 0.131667 0
M  V30 12494 O 1152.33 -2.02311 -0.768072 0
M  V30 12495 C 1152.92 -2.21005 2.56792 0
M  V30 12496 C 1151.48 -2.74596 2.57438 0
M  V30 12497 C 1150.63 -1.49555 2.33513 0
M  V30 12498 H 1153.58 -0.424277 1.52923 0
M  V30 12499 H 1153.6 -3.03563 2.29412 0
M  V30 12500 H 1153.11 -1.66934 3.50364 0
M  V30 12501 H 1151.21 -3.32676 1.67801 0
M  V30 12502 H 1151.33 -3.20794 3.55849 0
M  V30 12503 H 1149.69 -1.77605 1.82561 0
M  V30 12504 H 1150.47 -0.973899 3.29196 0
M  V30 12505 N 1152.92 -1.31168 -0.873655 0
M  V30 12506 C 1153.83 -1.20458 -2.01313 0
M  V30 12507 C 1154.84 -0.122074 -1.73571 0
M  V30 12508 O 1156.02 -0.339176 -1.98523 0
M  V30 12509 C 1153.09 -0.90876 -3.34578 0
M  V30 12510 C 1152.15 -2.07779 -3.75668 0
M  V30 12511 C 1151.38 -1.79599 -5.02573 0
M  V30 12512 O 1151.6 -0.729338 -5.65718 0
M  V30 12513 O 1150.54 -2.65169 -5.40341 0
M  V30 12514 H 1154.36 -2.16207 -2.13279 0
M  V30 12515 H 1151.95 -1.10871 -1.00139 0
M  V30 12516 H 1153.83 -0.759469 -4.145 0
M  V30 12517 H 1152.5 0.0187249 -3.23695 0
M  V30 12518 H 1151.41 -2.28247 -2.96402 0
M  V30 12519 H 1152.74 -2.9874 -3.91172 0
M  V30 12520 N 1154.4 1.08748 -1.14068 0
M  V30 12521 C 1155.64 1.80707 -0.904947 0
M  V30 12522 C 1155.97 1.86478 0.570167 0
M  V30 12523 O 1155.24 1.35536 1.41445 0
M  V30 12524 H 1153.82 0.669261 -0.331811 0
M  V30 12525 H 1156.48 1.31494 -1.43859 0
M  V30 12526 H 1155.57 2.83653 -1.30182 0
M  V30 12527 N 1155.87 0.935264 1.26849 0
M  V30 12528 C 1156.81 0.397539 2.25726 0
M  V30 12529 C 1157.82 -0.475928 1.55688 0
M  V30 12530 O 1159.01 -0.287329 1.76172 0
M  V30 12531 C 1156.11 -0.448308 3.35922 0
M  V30 12532 C 1155.28 0.407624 4.35496 0
M  V30 12533 C 1154.34 -0.376815 5.24849 0
M  V30 12534 O 1153.37 0.218109 5.68782 0
M  V30 12535 N 1154.57 -1.67481 5.55815 0
M  V30 12536 H 1157.33 1.24753 2.72501 0
M  V30 12537 H 1154.89 0.803505 1.40554 0
M  V30 12538 H 1156.89 -0.980338 3.92647 0
M  V30 12539 H 1155.46 -1.19908 2.88688 0
M  V30 12540 H 1154.68 1.12091 3.77928 0
M  V30 12541 H 1155.96 0.992512 4.99026 0
M  V30 12542 H 1155.36 -2.18037 5.21993 0
M  V30 12543 H 1153.92 -2.15321 6.15207 0
M  V30 12544 N 1157.35 -1.41121 0.701616 0
M  V30 12545 C 1158.6 -2.00359 0.232214 0
M  V30 12546 C 1158.91 -1.56231 -1.17691 0
M  V30 12547 O 1160.12 -2.08071 -1.74409 0
M  V30 12548 C 1158.58 -3.58052 0.364257 0
M  V30 12549 C 1158.18 -4.11158 1.77913 0
M  V30 12550 C 1159.93 -4.24476 -0.0450628 0
M  V30 12551 C 1157.84 -5.61306 1.8625 0
M  V30 12552 H 1156.77 -0.749411 0.0830609 0
M  V30 12553 H 1159.42 -1.61528 0.870689 0
M  V30 12554 H 1157.8 -3.94515 -0.342569 0
M  V30 12555 H 1158.97 -3.86101 2.5152 0
M  V30 12556 H 1157.29 -3.57282 2.13866 0
M  V30 12557 H 1159.88 -5.347 -0.00329209 0
M  V30 12558 H 1160.23 -4.01919 -1.08477 0
M  V30 12559 H 1160.76 -3.93069 0.611704 0
M  V30 12560 H 1157.5 -5.88699 2.88294 0
M  V30 12561 H 1157.02 -5.88271 1.17036 0
M  V30 12562 H 1158.7 -6.26179 1.62817 0
M  V30 12563 N 1158.83 -0.446794 -1.51134 0
M  V30 12564 C 1159.76 0.405311 -2.24572 0
M  V30 12565 C 1160.74 1.01679 -1.26886 0
M  V30 12566 O 1161.93 1.05743 -1.56047 0
M  V30 12567 C 1159.05 1.56573 -3.00338 0
M  V30 12568 C 1158.1 1.07401 -4.12756 0
M  V30 12569 S 1158.93 0.00835038 -5.35499 0
M  V30 12570 C 1160.09 1.17321 -6.14806 0
M  V30 12571 H 1160.32 -0.218143 -2.96499 0
M  V30 12572 H 1157.85 -0.231405 -1.52656 0
M  V30 12573 H 1159.81 2.23092 -3.44587 0
M  V30 12574 H 1158.47 2.16062 -2.27982 0
M  V30 12575 H 1157.67 1.94204 -4.65082 0
M  V30 12576 H 1157.27 0.486906 -3.70817 0
M  V30 12577 H 1159.56 2.08972 -6.44466 0
M  V30 12578 H 1160.5 0.689723 -7.04733 0
M  V30 12579 H 1160.91 1.41605 -5.4645 0
M  V30 12580 N 1160.31 1.56586 -0.178487 0
M  V30 12581 C 1161.72 1.58609 0.17759 0
M  V30 12582 C 1161.92 1.19411 1.62306 0
M  V30 12583 O 1160.98 0.90906 2.35568 0
M  V30 12584 C 1162.29 3.005 -0.109722 0
M  V30 12585 C 1163.84 3.12962 -0.0485036 0
M  V30 12586 C 1164.32 4.56957 -0.308901 0
M  V30 12587 N 1165.81 4.62487 -0.25693 0
M  V30 12588 C 1166.54 5.71767 -0.432488 0
M  V30 12589 N 1166.04 6.89577 -0.667494 0
M  V30 12590 N 1167.83 5.60895 -0.367895 0
M  V30 12591 H 1159.98 1.80351 -1.12193 0
M  V30 12592 H 1162.25 0.83623 -0.446569 0
M  V30 12593 H 1161.95 3.3368 -1.11133 0
M  V30 12594 H 1161.83 3.72472 0.595373 0
M  V30 12595 H 1164.21 2.79604 0.943687 0
M  V30 12596 H 1164.29 2.43411 -0.78642 0
M  V30 12597 H 1163.94 4.91025 -1.29833 0
M  V30 12598 H 1163.87 5.24676 0.449711 0
M  V30 12599 H 1166.36 3.77813 -0.0812308 0
M  V30 12600 H 1166.67 7.68744 -0.79071 0
M  V30 12601 H 1165.02 6.91423 -0.704193 0
M  V30 12602 H 1168.21 4.67735 -0.184837 0
M  V30 12603 H 1168.38 6.46005 -0.508138 0
M  V30 12604 N 1161.79 -0.095206 1.57312 0
M  V30 12605 C 1162.7 -1.13388 2.05379 0
M  V30 12606 C 1163.71 -1.43868 0.978668 0
M  V30 12607 O 1164.89 -1.54512 1.29182 0
M  V30 12608 C 1161.95 -2.43444 2.46852 0
M  V30 12609 C 1161.01 -2.20146 3.68557 0
M  V30 12610 C 1160.25 -3.44001 4.08043 0
M  V30 12611 O 1160.47 -4.52233 3.47623 0
M  V30 12612 O 1159.4 -3.33596 5.00997 0
M  V30 12613 H 1163.23 -0.755622 2.9415 0
M  V30 12614 H 1160.82 -0.307707 1.46197 0
M  V30 12615 H 1162.7 -3.20027 2.74155 0
M  V30 12616 H 1161.37 -2.80696 1.61219 0
M  V30 12617 H 1160.28 -1.41345 3.46371 0
M  V30 12618 H 1161.61 -1.87787 4.54969 0
M  V30 12619 N 1163.26 -1.53291 -0.366026 0
M  V30 12620 C 1164.49 -1.73108 -1.1277 0
M  V30 12621 C 1164.9 -0.459662 -1.83531 0
M  V30 12622 O 1164.25 0.577151 -1.74398 0
M  V30 12623 C 1164.31 -2.84137 -2.20242 0
M  V30 12624 C 1163.97 -4.24503 -1.69252 0
M  V30 12625 C 1164.97 -5.06866 -1.15684 0
M  V30 12626 C 1162.65 -4.70912 -1.74778 0
M  V30 12627 C 1164.65 -6.33728 -0.683191 0
M  V30 12628 C 1162.33 -5.97752 -1.27025 0
M  V30 12629 C 1163.33 -6.78992 -0.738858 0
M  V30 12630 O 1163.02 -8.03452 -0.268375 0
M  V30 12631 H 1162.75 -0.582439 -0.343134 0
M  V30 12632 H 1165.31 -2.00828 -0.430969 0
M  V30 12633 H 1163.54 -2.5189 -2.93408 0
M  V30 12634 H 1165.23 -2.92136 -2.818 0
M  V30 12635 H 1165.99 -4.72185 -1.10753 0
M  V30 12636 H 1161.87 -4.07751 -2.15081 0
M  V30 12637 H 1165.41 -6.97086 -0.267746 0
M  V30 12638 H 1161.31 -6.31933 -1.31649 0
M  V30 12639 H 1162.08 -8.17581 -0.387745 0
M  V30 12640 N 1164.74 0.6258 -1.44643 0
M  V30 12641 C 1165.71 1.71941 -1.51555 0
M  V30 12642 C 1166.71 1.55822 -0.396988 0
M  V30 12643 O 1167.9 1.61221 -0.65981 0
M  V30 12644 C 1165.03 3.11068 -1.39461 0
M  V30 12645 H 1166.22 1.67185 -2.48976 0
M  V30 12646 H 1163.77 0.839934 -1.31814 0
M  V30 12647 H 1164.51 3.21416 -0.431534 0
M  V30 12648 H 1164.29 3.24175 -2.20574 0
M  V30 12649 H 1165.78 3.90762 -1.4729 0
M  V30 12650 N 1166.22 1.31629 0.866686 0
M  V30 12651 C 1167.18 1.1951 1.95576 0
M  V30 12652 C 1168.18 0.121319 1.60342 0
M  V30 12653 O 1169.37 0.370832 1.70207 0
M  V30 12654 C 1166.51 0.835201 3.30511 0
M  V30 12655 H 1167.7 2.16285 2.07752 0
M  V30 12656 H 1165.25 1.15288 1.05539 0
M  V30 12657 H 1165.99 -0.131245 3.24034 0
M  V30 12658 H 1165.77 1.61142 3.57457 0
M  V30 12659 H 1167.26 0.774393 4.10357 0
M  V30 12660 N 1167.7 -1.08142 1.14644 0
M  V30 12661 C 1168.98 -1.77254 0.827071 0
M  V30 12662 C 1169.36 -1.99885 -0.67891 0
M  V30 12663 O 1168.7 -1.61084 -1.62062 0
M  V30 12664 C 1168.91 -3.08658 1.62884 0
M  V30 12665 C 1170.26 -3.83143 1.82993 0
M  V30 12666 O 1171.29 -3.18447 1.59593 0
M  V30 12667 O 1170.15 -4.9932 2.2213 0
M  V30 12668 H 1167.24 -0.769356 0.30335 0
M  V30 12669 H 1169.79 -1.1458 1.25178 0
M  V30 12670 H 1168.56 -2.87753 2.65168 0
M  V30 12671 H 1168.18 -3.79061 1.19994 0
M  V30 12672 N 1169.18 -0.941978 -1.26351 0
M  V30 12673 C 1170.59 -0.632522 -1.75659 0
M  V30 12674 C 1170.94 0.852287 -1.76722 0
M  V30 12675 O 1170.06 1.66701 -1.37985 0
M  V30 12676 C 1170.66 -1.14145 -3.18993 0
M  V30 12677 C 1169.22 -0.882391 -3.65911 0
M  V30 12678 C 1168.37 -1.29189 -2.45368 0
M  V30 12679 H 1171.32 -1.12019 -1.12416 0
M  V30 12680 H 1171.34 -0.495639 -3.77258 0
M  V30 12681 H 1170.85 -2.22213 -3.18187 0
M  V30 12682 H 1168.95 0.183873 -3.72146 0
M  V30 12683 H 1169.06 -1.50996 -4.54683 0
M  V30 12684 H 1167.43 -0.710316 -2.44595 0
M  V30 12685 H 1168.21 -2.38152 -2.47262 0
M  V30 12686 N 1170.66 1.40747 -0.709091 0
M  V30 12687 C 1171.57 2.3454 -0.0532205 0
M  V30 12688 C 1172.58 1.56956 0.751057 0
M  V30 12689 O 1173.76 1.89375 0.685509 0
M  V30 12690 C 1170.82 3.35809 0.862157 0
M  V30 12691 C 1169.88 4.29273 0.0485632 0
M  V30 12692 C 1169.12 5.25705 0.920345 0
M  V30 12693 O 1169.34 5.27933 2.15969 0
M  V30 12694 O 1168.27 6.00806 0.3628 0
M  V30 12695 H 1172.1 2.92232 -0.826698 0
M  V30 12696 H 1169.68 1.4183 -0.469519 0
M  V30 12697 H 1171.57 3.97931 1.38668 0
M  V30 12698 H 1170.24 2.8054 1.61489 0
M  V30 12699 H 1169.15 3.70456 -0.520873 0
M  V30 12700 H 1170.48 4.87676 -0.665807 0
M  V30 12701 N 1172.13 0.454803 1.50895 0
M  V30 12702 C 1173.36 -0.103785 2.06339 0
M  V30 12703 C 1173.77 -1.35494 1.32053 0
M  V30 12704 O 1173.11 -1.79758 0.37852 0
M  V30 12705 C 1173.18 -0.474076 3.5636 0
M  V30 12706 C 1172.84 0.672736 4.52021 0
M  V30 12707 C 1173.84 1.55003 4.96256 0
M  V30 12708 C 1171.52 0.858435 4.9491 0
M  V30 12709 C 1173.52 2.59757 5.82069 0
M  V30 12710 C 1171.2 1.90922 5.8051 0
M  V30 12711 C 1172.2 2.77717 6.23989 0
M  V30 12712 O 1171.89 3.80989 7.07886 0
M  V30 12713 H 1171.62 -0.0035531 0.675991 0
M  V30 12714 H 1174.18 0.637816 1.95246 0
M  V30 12715 H 1172.41 -1.26863 3.65298 0
M  V30 12716 H 1174.09 -0.965845 3.94241 0
M  V30 12717 H 1174.86 1.41818 4.63802 0
M  V30 12718 H 1170.74 0.192384 4.60598 0
M  V30 12719 H 1174.28 3.27535 6.15927 0
M  V30 12720 H 1170.18 2.04121 6.12376 0
M  V30 12721 H 1170.95 3.7778 7.26102 0
M  V30 12722 N 1173.61 -1.56489 0.186789 0
M  V30 12723 C 1175.03 -1.58701 -0.169176 0
M  V30 12724 C 1175.23 -1.2027 -1.61671 0
M  V30 12725 O 1174.28 -0.92154 -2.35083 0
M  V30 12726 C 1175.6 -3.00437 0.125657 0
M  V30 12727 C 1177.14 -3.12932 0.0651 0
M  V30 12728 C 1177.62 -4.56787 0.333131 0
M  V30 12729 N 1179.11 -4.62344 0.281453 0
M  V30 12730 C 1179.85 -5.71529 0.462805 0
M  V30 12731 N 1179.34 -6.89213 0.704054 0
M  V30 12732 N 1181.13 -5.60692 0.397636 0
M  V30 12733 H 1173.29 -1.79754 1.13148 0
M  V30 12734 H 1175.55 -0.83385 0.450997 0
M  V30 12735 H 1175.25 -3.33086 1.12901 0
M  V30 12736 H 1175.13 -3.72782 -0.575612 0
M  V30 12737 H 1177.52 -2.80101 -0.928845 0
M  V30 12738 H 1177.6 -2.42991 0.799318 0
M  V30 12739 H 1177.24 -4.9033 1.32436 0
M  V30 12740 H 1177.17 -5.24907 -0.421879 0
M  V30 12741 H 1179.66 -3.77764 0.101266 0
M  V30 12742 H 1179.97 -7.68314 0.831468 0
M  V30 12743 H 1178.32 -6.9104 0.740851 0
M  V30 12744 H 1181.51 -4.6763 0.20964 0
M  V30 12745 H 1181.68 -6.45726 0.54239 0
M  V30 12746 N 1175.09 0.086862 -1.5736 0
M  V30 12747 C 1176.04 1.10478 -2.02641 0
M  V30 12748 C 1177.01 1.39331 -0.904219 0
M  V30 12749 O 1178.19 1.50654 -1.17081 0
M  V30 12750 C 1175.33 2.41754 -2.4627 0
M  V30 12751 C 1174.44 2.19561 -3.72044 0
M  V30 12752 C 1173.58 3.44294 -4.04519 0
M  V30 12753 C 1172.62 3.17399 -5.23378 0
M  V30 12754 N 1171.76 4.3442 -5.51564 0
M  V30 12755 H 1176.6 0.711663 -2.89378 0
M  V30 12756 H 1174.13 0.339856 -1.4312 0
M  V30 12757 H 1176.09 3.18378 -2.69613 0
M  V30 12758 H 1174.72 2.78896 -1.62532 0
M  V30 12759 H 1173.77 1.337 -3.5613 0
M  V30 12760 H 1175.08 1.95685 -4.58812 0
M  V30 12761 H 1174.24 4.29321 -4.28682 0
M  V30 12762 H 1172.98 3.71232 -3.16289 0
M  V30 12763 H 1171.98 2.30765 -4.99026 0
M  V30 12764 H 1173.21 2.91799 -6.13213 0
M  V30 12765 H 1171.15 4.61418 -4.66293 0
M  V30 12766 H 1171.07 4.13764 -6.3272 0
M  V30 12767 H 1172.34 5.20489 -5.80269 0
M  V30 12768 N 1176.57 1.53483 0.357892 0
M  V30 12769 C 1177.52 1.76843 1.43911 0
M  V30 12770 C 1178.5 0.623178 1.48342 0
M  V30 12771 O 1179.69 0.882102 1.53453 0
M  V30 12772 C 1176.82 1.96865 2.81246 0
M  V30 12773 C 1175.91 3.17414 2.81263 0
M  V30 12774 N 1176.3 4.39172 2.50921 0
M  V30 12775 C 1174.6 3.18292 3.1242 0
M  V30 12776 C 1175.3 5.20953 2.58811 0
M  V30 12777 N 1174.27 4.57338 2.93841 0
M  V30 12778 H 1178.08 2.68586 1.19327 0
M  V30 12779 H 1175.59 1.52212 0.566142 0
M  V30 12780 H 1177.59 2.11731 3.59132 0
M  V30 12781 H 1176.25 1.06355 3.06788 0
M  V30 12782 H 1177.26 4.66772 2.24376 0
M  V30 12783 H 1173.94 2.37702 3.43226 0
M  V30 12784 H 1175.33 6.28095 2.38633 0
M  V30 12785 N 1178.05 -0.61812 1.44973 0
M  V30 12786 C 1178.98 -1.74035 1.55673 0
M  V30 12787 C 1179.96 -1.65112 0.4089 0
M  V30 12788 O 1181.14 -1.83673 0.630698 0
M  V30 12789 C 1178.27 -3.1261 1.51303 0
M  V30 12790 C 1177.23 -3.36334 2.64696 0
M  V30 12791 C 1176.55 -4.75072 2.45378 0
M  V30 12792 C 1177.85 -3.27618 4.06772 0
M  V30 12793 H 1179.55 -1.65336 2.49608 0
M  V30 12794 H 1177.09 -0.794003 1.20132 0
M  V30 12795 H 1179.04 -3.90906 1.57388 0
M  V30 12796 H 1177.77 -3.22123 0.538914 0
M  V30 12797 H 1176.43 -2.60423 2.58022 0
M  V30 12798 H 1176.08 -4.81306 1.46129 0
M  V30 12799 H 1175.78 -4.91903 3.21412 0
M  V30 12800 H 1177.3 -5.55582 2.53301 0
M  V30 12801 H 1178.71 -3.95802 4.14746 0
M  V30 12802 H 1177.11 -3.55981 4.83113 0
M  V30 12803 H 1178.18 -2.25219 4.29423 0
M  V30 12804 N 1179.52 -1.32087 -0.859693 0
M  V30 12805 C 1180.43 -1.22587 -2.00024 0
M  V30 12806 C 1181.45 -0.140477 -1.73432 0
M  V30 12807 O 1182.63 -0.360213 -1.98153 0
M  V30 12808 C 1179.69 -0.944195 -3.33595 0
M  V30 12809 C 1178.75 -2.11752 -3.73443 0
M  V30 12810 C 1177.98 -1.84919 -5.0064 0
M  V30 12811 O 1178.21 -0.789299 -5.64913 0
M  V30 12812 O 1177.14 -2.70885 -5.37499 0
M  V30 12813 H 1180.97 -2.18457 -2.10974 0
M  V30 12814 H 1178.55 -1.11927 -0.989577 0
M  V30 12815 H 1180.43 -0.803389 -4.13671 0
M  V30 12816 H 1179.11 -0.0156083 -3.23696 0
M  V30 12817 H 1178.02 -2.31378 -2.93965 0
M  V30 12818 H 1179.35 -3.02872 -3.87981 0
M  V30 12819 N 1181 1.07532 -1.15215 0
M  V30 12820 C 1182.25 1.8036 -0.927263 0
M  V30 12821 C 1182.58 1.86414 0.544371 0
M  V30 12822 O 1181.86 1.34653 1.40353 0
M  V30 12823 C 1182.14 3.25512 -1.53992 0
M  V30 12824 C 1181.99 3.27614 -3.08203 0
M  V30 12825 C 1183.31 4.22731 -1.22418 0
M  V30 12826 H 1180.43 0.654775 -0.338289 0
M  V30 12827 H 1183.07 1.25842 -1.42351 0
M  V30 12828 H 1181.22 3.72068 -1.11791 0
M  V30 12829 H 1182.89 2.89315 -3.59297 0
M  V30 12830 H 1181.14 2.66627 -3.42188 0
M  V30 12831 H 1181.81 4.29956 -3.46182 0
M  V30 12832 H 1184.28 3.84557 -1.58919 0
M  V30 12833 H 1183.16 5.22589 -1.67906 0
M  V30 12834 H 1183.42 4.41875 -0.14091 0
M  V30 12835 N 1182.48 0.948665 1.2585 0
M  V30 12836 C 1183.73 0.600236 1.934 0
M  V30 12837 C 1184.06 -0.86185 1.74363 0
M  V30 12838 O 1183.31 -1.63294 1.07858 0
M  V30 12839 C 1183.61 0.89784 3.45939 0
M  V30 12840 C 1183.28 2.345 3.85124 0
M  V30 12841 C 1181.94 2.74058 3.95532 0
M  V30 12842 C 1184.29 3.2851 4.04636 0
M  V30 12843 C 1181.62 4.06707 4.22855 0
M  V30 12844 C 1183.97 4.60764 4.3345 0
M  V30 12845 C 1182.63 5.00127 4.42074 0
M  V30 12846 H 1181.9 0.219642 0.707699 0
M  V30 12847 H 1184.55 1.19658 1.49513 0
M  V30 12848 H 1182.86 0.219037 3.91187 0
M  V30 12849 H 1184.55 0.606916 3.96381 0
M  V30 12850 H 1181.14 2.02819 3.77574 0
M  V30 12851 H 1185.33 2.99141 3.96015 0
M  V30 12852 H 1180.58 4.36856 4.27746 0
M  V30 12853 H 1184.76 5.33594 4.47493 0
M  V30 12854 H 1182.38 6.02939 4.63 0
M  V30 12855 N 1183.96 -1.40369 0.716545 0
M  V30 12856 C 1184.91 -2.27963 0.0410169 0
M  V30 12857 C 1185.89 -1.43307 -0.731575 0
M  V30 12858 O 1187.08 -1.66389 -0.603618 0
M  V30 12859 C 1184.21 -3.31849 -0.87927 0
M  V30 12860 C 1183.3 -4.23978 -0.101813 0
M  V30 12861 N 1183.69 -4.97447 0.915437 0
M  V30 12862 C 1181.99 -4.44746 -0.334227 0
M  V30 12863 C 1182.69 -5.65029 1.38266 0
M  V30 12864 N 1181.67 -5.39014 0.704642 0
M  V30 12865 H 1185.47 -2.8221 0.820653 0
M  V30 12866 H 1182.98 -1.52831 0.549217 0
M  V30 12867 H 1184.98 -3.93448 -1.37855 0
M  V30 12868 H 1183.64 -2.79162 -1.65827 0
M  V30 12869 H 1184.65 -5.01414 1.29631 0
M  V30 12870 H 1181.33 -4.03034 -1.08948 0
M  V30 12871 H 1182.72 -6.33886 2.22797 0
M  V30 12872 N 1185.44 -0.462799 -1.50652 0
M  V30 12873 C 1186.38 0.335664 -2.28346 0
M  V30 12874 C 1187.35 0.994541 -1.33034 0
M  V30 12875 O 1188.54 1.00857 -1.61964 0
M  V30 12876 C 1185.68 1.41648 -3.1469 0
M  V30 12877 C 1184.79 0.773207 -4.25024 0
M  V30 12878 C 1183.93 1.83121 -4.98638 0
M  V30 12879 C 1182.97 1.16774 -6.00858 0
M  V30 12880 N 1182.1 2.16823 -6.67782 0
M  V30 12881 H 1186.94 -0.333202 -2.96131 0
M  V30 12882 H 1184.48 -0.176166 -1.46041 0
M  V30 12883 H 1186.44 2.05468 -3.63096 0
M  V30 12884 H 1185.07 2.05462 -2.48968 0
M  V30 12885 H 1184.12 0.0226444 -3.80393 0
M  V30 12886 H 1185.43 0.249061 -4.98178 0
M  V30 12887 H 1184.59 2.54543 -5.5072 0
M  V30 12888 H 1183.32 2.38915 -4.25172 0
M  V30 12889 H 1182.33 0.439112 -5.48044 0
M  V30 12890 H 1183.55 0.616809 -6.76293 0
M  V30 12891 H 1181.5 2.71649 -5.97112 0
M  V30 12892 H 1181.42 1.69371 -7.36783 0
M  V30 12893 H 1182.69 2.8765 -7.24484 0
M  V30 12894 N 1186.91 1.56388 -0.195085 0
M  V30 12895 C 1188.16 1.96755 0.443901 0
M  V30 12896 C 1188.48 1.08483 1.6276 0
M  V30 12897 O 1189.68 1.38632 2.33438 0
M  V30 12898 C 1188.14 3.49933 0.841139 0
M  V30 12899 C 1187.75 4.46868 -0.318275 0
M  V30 12900 C 1189.49 3.99069 1.44721 0
M  V30 12901 C 1187.4 5.91316 0.0999211 0
M  V30 12902 H 1186.33 0.734674 0.169616 0
M  V30 12903 H 1188.98 1.8124 -0.287101 0
M  V30 12904 H 1187.36 3.60951 1.62881 0
M  V30 12905 H 1188.53 4.47581 -1.0958 0
M  V30 12906 H 1186.85 4.07925 -0.835842 0
M  V30 12907 H 1189.45 5.04465 1.77255 0
M  V30 12908 H 1189.79 3.43376 2.35369 0
M  V30 12909 H 1190.32 3.91165 0.723513 0
M  V30 12910 H 1187.06 6.50934 -0.77237 0
M  V30 12911 H 1186.58 5.93856 0.842304 0
M  V30 12912 H 1188.26 6.44778 0.535726 0
M  V30 12913 N 1188.39 -0.0785156 1.57404 0
M  V30 12914 C 1189.32 -1.09446 2.06262 0
M  V30 12915 C 1190.3 -1.40777 0.954772 0
M  V30 12916 O 1191.49 -1.5052 1.22708 0
M  V30 12917 C 1188.62 -2.40979 2.50093 0
M  V30 12918 C 1187.57 -2.24017 3.64692 0
M  V30 12919 C 1186.9 -3.60873 3.94556 0
M  V30 12920 C 1188.2 -1.66696 4.94985 0
M  V30 12921 H 1189.89 -0.687928 2.9139 0
M  V30 12922 H 1187.44 -0.329466 1.4018 0
M  V30 12923 H 1189.39 -3.12337 2.82884 0
M  V30 12924 H 1188.12 -2.83599 1.61985 0
M  V30 12925 H 1186.77 -1.55101 3.32174 0
M  V30 12926 H 1186.42 -4.01051 3.0359 0
M  V30 12927 H 1186.12 -3.50365 4.71718 0
M  V30 12928 H 1187.65 -4.33673 4.29837 0
M  V30 12929 H 1189.06 -2.27913 5.2605 0
M  V30 12930 H 1187.46 -1.66902 5.76423 0
M  V30 12931 H 1188.53 -0.627827 4.80818 0
M  V30 12932 N 1189.87 -1.5367 -0.349747 0
M  V30 12933 C 1191.1 -1.74547 -1.11089 0
M  V30 12934 C 1191.51 -0.481741 -1.82551 0
M  V30 12935 O 1190.87 0.546272 -1.74132 0
M  V30 12936 C 1190.92 -2.92148 -2.12913 0
M  V30 12937 O 1190.64 -4.13633 -1.44358 0
M  V30 12938 C 1192.14 -3.25027 -3.01451 0
M  V30 12939 H 1189.36 -0.583376 -0.331532 0
M  V30 12940 H 1191.91 -2.00473 -0.403841 0
M  V30 12941 H 1190.06 -2.68572 -2.79192 0
M  V30 12942 H 1190.48 -4.79601 -2.12329 0
M  V30 12943 H 1191.95 -4.10679 -3.68845 0
M  V30 12944 H 1192.43 -2.41064 -3.67131 0
M  V30 12945 H 1193.03 -3.50586 -2.40768 0
M  V30 12946 N 1191.35 0.610423 -1.45298 0
M  V30 12947 C 1192.3 1.74245 -1.54083 0
M  V30 12948 C 1193.29 1.64338 -0.411003 0
M  V30 12949 O 1194.5 1.70167 -0.586799 0
M  V30 12950 H 1190.87 0.575612 -0.483916 0
M  V30 12951 H 1192.84 1.63961 -2.49318 0
M  V30 12952 C 1191.59 3.1262 -1.52198 0
M  V30 12953 H 1190.91 3.209 -2.3846 0
M  V30 12954 H 1192.35 3.91665 -1.62403 0
M  V30 12955 C 1190.81 3.36001 -0.24595 0
M  V30 12956 O 1191.34 3.95982 0.675374 0
M  V30 12957 N 1189.55 2.9025 -0.142537 0
M  V30 12958 H 1189.1 2.41621 -0.893143 0
M  V30 12959 H 1189.05 3.06268 0.710427 0
M  V30 12960 N 1192.83 1.32541 0.852676 0
M  V30 12961 C 1194.05 1.2622 1.6394 0
M  V30 12962 C 1194.47 -0.169455 1.88038 0
M  V30 12963 O 1193.83 -1.10719 1.45078 0
M  V30 12964 C 1193.88 2.02062 2.99755 0
M  V30 12965 O 1193.6 3.39641 2.76723 0
M  V30 12966 C 1195.1 2.02787 3.94198 0
M  V30 12967 H 1192.32 0.435405 0.510552 0
M  V30 12968 H 1194.86 1.74696 1.06309 0
M  V30 12969 H 1193.02 1.57303 3.54026 0
M  V30 12970 H 1193.43 3.78484 3.63111 0
M  V30 12971 H 1194.91 2.60333 4.86755 0
M  V30 12972 H 1195.38 1.01464 4.27319 0
M  V30 12973 H 1195.99 2.47504 3.45864 0
M  V30 12974 N 1194.3 -1.0692 1.15784 0
M  V30 12975 C 1195.58 -1.76367 0.845825 0
M  V30 12976 C 1195.96 -2.00594 -0.657672 0
M  V30 12977 O 1195.31 -1.62794 -1.60345 0
M  V30 12978 C 1195.52 -3.06913 1.66149 0
M  V30 12979 C 1196.87 -3.81181 1.87046 0
M  V30 12980 O 1197.89 -3.16737 1.62961 0
M  V30 12981 O 1196.75 -4.96936 2.27413 0
M  V30 12982 H 1193.84 -0.766095 0.311493 0
M  V30 12983 H 1196.39 -1.13246 1.26386 0
M  V30 12984 H 1195.16 -2.84924 2.68205 0
M  V30 12985 H 1194.79 -3.77767 1.24007 0
M  V30 12986 N 1195.78 -0.955326 -1.25345 0
M  V30 12987 C 1197.19 -0.651118 -1.74978 0
M  V30 12988 C 1197.54 0.833495 -1.77616 0
M  V30 12989 O 1196.67 1.65228 -1.39745 0
M  V30 12990 C 1197.26 -1.17521 -3.17764 0
M  V30 12991 C 1195.82 -0.921151 -3.64954 0
M  V30 12992 C 1194.97 -1.31784 -2.43984 0
M  V30 12993 H 1197.92 -1.13205 -1.11222 0
M  V30 12994 H 1197.94 -0.535625 -3.76711 0
M  V30 12995 H 1197.45 -2.25575 -3.15813 0
M  V30 12996 H 1195.56 0.144392 -3.7232 0
M  V30 12997 H 1195.67 -1.5581 -4.53056 0
M  V30 12998 H 1194.03 -0.736219 -2.43828 0
M  V30 12999 H 1194.82 -2.40761 -2.44723 0
M  V30 13000 N 1197.26 1.39987 -0.723979 0
M  V30 13001 C 1198.21 2.32507 -0.0658033 0
M  V30 13002 C 1199.2 1.52484 0.737908 0
M  V30 13003 O 1200.41 1.68225 0.640332 0
M  V30 13004 H 1196.78 0.751996 -0.00247717 0
M  V30 13005 H 1198.76 2.85657 -0.862696 0
M  V30 13006 C 1197.5 3.37509 0.835628 0
M  V30 13007 H 1196.83 3.99157 0.226589 0
M  V30 13008 H 1198.27 4.04722 1.26396 0
M  V30 13009 C 1196.73 2.73665 1.96492 0
M  V30 13010 O 1197.26 2.60649 3.05655 0
M  V30 13011 N 1195.46 2.3192 1.75104 0
M  V30 13012 H 1195.01 2.42707 0.863204 0
M  V30 13013 H 1194.97 1.89542 2.50841 0
M  V30 13014 N 1198.74 0.470782 1.50404 0
M  V30 13015 C 1200.02 -0.145879 1.95055 0
M  V30 13016 C 1200.4 -1.57004 1.41114 0
M  V30 13017 O 1199.74 -2.20152 0.612006 0
M  V30 13018 C 1199.95 -0.0895071 3.48885 0
M  V30 13019 C 1201.3 -0.278548 4.23685 0
M  V30 13020 O 1202.33 -0.166105 3.55812 0
M  V30 13021 O 1201.19 -0.505606 5.44156 0
M  V30 13022 H 1198.28 -0.111838 0.819403 0
M  V30 13023 H 1200.83 0.531162 1.61173 0
M  V30 13024 H 1199.6 0.904836 3.80695 0
M  V30 13025 H 1199.22 -0.808019 3.89303 0
M  V30 13026 N 1200.22 -1.56282 0.203376 0
M  V30 13027 C 1201.13 -2.23086 -0.725922 0
M  V30 13028 C 1202.14 -1.23258 -1.22814 0
M  V30 13029 O 1203.32 -1.5602 -1.27357 0
M  V30 13030 C 1200.38 -2.88358 -1.92485 0
M  V30 13031 C 1199.45 -4.03479 -1.46639 0
M  V30 13032 C 1198.68 -4.65629 -2.60816 0
M  V30 13033 O 1198.9 -4.2672 -3.78506 0
M  V30 13034 O 1197.84 -5.54949 -2.33056 0
M  V30 13035 H 1201.66 -3.03124 -0.18694 0
M  V30 13036 H 1199.25 -1.49377 -0.0262829 0
M  V30 13037 H 1201.13 -3.29623 -2.62539 0
M  V30 13038 H 1199.8 -2.11294 -2.45228 0
M  V30 13039 H 1198.71 -3.66821 -0.734396 0
M  V30 13040 H 1200.04 -4.82232 -0.985535 0
M  V30 13041 N 1201.7 0.070167 -1.57444 0
M  V30 13042 C 1202.94 0.770153 -1.87607 0
M  V30 13043 C 1203.27 1.77143 -0.795875 0
M  V30 13044 O 1202.55 1.93533 0.193674 0
M  V30 13045 C 1202.83 1.47668 -3.2843 0
M  V30 13046 C 1202.69 0.491712 -4.47104 0
M  V30 13047 C 1204 2.42118 -3.67514 0
M  V30 13048 H 1201.12 0.278519 -0.682346 0
M  V30 13049 H 1203.77 0.0333184 -1.89971 0
M  V30 13050 H 1201.92 2.10476 -3.26546 0
M  V30 13051 H 1203.59 -0.131283 -4.61113 0
M  V30 13052 H 1201.83 -0.192817 -4.33371 0
M  V30 13053 H 1202.5 1.02372 -5.42424 0
M  V30 13054 H 1204.98 1.89387 -3.70502 0
M  V30 13055 H 1203.85 2.88556 -4.66933 0
M  V30 13056 H 1204.11 3.26995 -2.97534 0
M  V30 13057 N 1203.17 1.53854 0.341593 0
M  V30 13058 C 1204.08 1.84975 1.44297 0
M  V30 13059 C 1205.1 0.740057 1.57477 0
M  V30 13060 O 1206.28 1.03256 1.72917 0
M  V30 13061 C 1203.34 2.05464 2.79259 0
M  V30 13062 C 1202.4 3.29318 2.75405 0
M  V30 13063 C 1201.63 3.4882 4.03931 0
M  V30 13064 O 1201.86 2.7212 5.01305 0
M  V30 13065 O 1200.79 4.42253 4.08284 0
M  V30 13066 H 1204.62 2.78592 1.20913 0
M  V30 13067 H 1202.2 1.39532 0.533953 0
M  V30 13068 H 1204.08 2.20374 3.59184 0
M  V30 13069 H 1202.76 1.15035 3.0257 0
M  V30 13070 H 1201.67 3.1981 1.94094 0
M  V30 13071 H 1203 4.19746 2.57049 0
M  V30 13072 N 1204.65 -0.602709 1.4562 0
M  V30 13073 C 1206.07 -0.923983 1.30133 0
M  V30 13074 C 1206.27 -1.99842 0.25796 0
M  V30 13075 O 1205.32 -2.50112 -0.346414 0
M  V30 13076 C 1206.64 -1.36029 2.68173 0
M  V30 13077 C 1208.18 -1.47423 2.76108 0
M  V30 13078 C 1208.66 -1.94427 4.14683 0
M  V30 13079 N 1210.15 -2.01653 4.17002 0
M  V30 13080 C 1210.89 -2.39255 5.211 0
M  V30 13081 N 1210.38 -2.75791 6.3554 0
M  V30 13082 N 1212.17 -2.39636 5.08459 0
M  V30 13083 H 1204.33 0.107377 2.12128 0
M  V30 13084 H 1206.59 -0.0146216 0.947887 0
M  V30 13085 H 1206.29 -0.644949 3.45736 0
M  V30 13086 H 1206.17 -2.32584 2.96959 0
M  V30 13087 H 1208.56 -2.18047 1.98845 0
M  V30 13088 H 1208.64 -0.4917 2.5103 0
M  V30 13089 H 1208.28 -1.24389 4.92433 0
M  V30 13090 H 1208.21 -2.93603 4.37156 0
M  V30 13091 H 1210.7 -1.75988 3.3442 0
M  V30 13092 H 1211.01 -3.03378 7.10761 0
M  V30 13093 H 1209.36 -2.73475 6.38934 0
M  V30 13094 H 1212.55 -2.10502 4.18098 0
M  V30 13095 H 1212.72 -2.68614 5.89704 0
M  V30 13096 N 1206.13 -1.32992 -0.845635 0
M  V30 13097 C 1207.06 -1.18513 -1.96182 0
M  V30 13098 C 1208.07 -0.11781 -1.62373 0
M  V30 13099 O 1209.26 -0.36761 -1.74674 0
M  V30 13100 C 1206.36 -0.793812 -3.29472 0
M  V30 13101 C 1205.54 -1.95134 -3.91461 0
M  V30 13102 C 1204.6 -1.54209 -5.03096 0
M  V30 13103 O 1203.62 -2.25545 -5.22607 0
M  V30 13104 N 1204.82 -0.443235 -5.78805 0
M  V30 13105 H 1207.59 -2.14663 -2.09141 0
M  V30 13106 H 1205.15 -1.25648 -1.02099 0
M  V30 13107 H 1207.14 -0.502263 -4.01571 0
M  V30 13108 H 1205.71 0.0768031 -3.12506 0
M  V30 13109 H 1204.93 -2.40889 -3.12035 0
M  V30 13110 H 1206.22 -2.72604 -4.2961 0
M  V30 13111 H 1205.62 0.150298 -5.655 0
M  V30 13112 H 1204.17 -0.211331 -6.51457 0
M  V30 13113 N 1207.61 1.06304 -1.1635 0
M  V30 13114 C 1208.56 2.15879 -0.865967 0
M  V30 13115 C 1209.55 1.68595 0.164929 0
M  V30 13116 O 1210.76 1.7999 0.0189271 0
M  V30 13117 H 1207.13 0.704721 -0.262435 0
M  V30 13118 H 1209.1 2.38185 -1.79751 0
M  V30 13119 C 1207.85 3.4558 -0.383374 0
M  V30 13120 H 1207.17 3.82356 -1.16806 0
M  V30 13121 H 1208.61 4.2346 -0.213964 0
M  V30 13122 C 1207.07 3.24738 0.897044 0
M  V30 13123 O 1207.6 3.50284 1.96632 0
M  V30 13124 N 1205.81 2.78172 0.840761 0
M  V30 13125 H 1205.36 2.57583 -0.029584 0
M  V30 13126 H 1205.31 2.64606 1.69797 0
M  V30 13127 N 1209.09 0.96196 1.24836 0
M  V30 13128 C 1210.05 0.492443 2.23847 0
M  V30 13129 C 1211.05 -0.40788 1.55541 0
M  V30 13130 O 1212.24 -0.204143 1.73 0
M  V30 13131 C 1209.37 -0.287578 3.39685 0
M  V30 13132 H 1210.56 1.36767 2.66899 0
M  V30 13133 H 1208.12 0.745967 1.3735 0
M  V30 13134 H 1208.85 -1.18015 3.02064 0
M  V30 13135 H 1208.64 0.358431 3.90458 0
M  V30 13136 H 1210.13 -0.605297 4.1319 0
M  V30 13137 N 1210.56 -1.39601 0.731392 0
M  V30 13138 C 1211.84 -1.94531 0.20422 0
M  V30 13139 C 1212.22 -1.66845 -1.29329 0
M  V30 13140 O 1211.57 -0.994706 -2.05713 0
M  V30 13141 C 1211.78 -3.44891 0.53395 0
M  V30 13142 C 1213.13 -4.21863 0.481298 0
M  V30 13143 O 1214.15 -3.53073 0.470929 0
M  V30 13144 O 1213.01 -5.44452 0.472663 0
M  V30 13145 H 1210.1 -0.826214 0.0360436 0
M  V30 13146 H 1212.65 -1.49121 0.810005 0
M  V30 13147 H 1211.42 -3.58463 1.56907 0
M  V30 13148 H 1211.04 -3.97472 -0.10099 0
M  V30 13149 N 1212.04 -0.478751 -1.50152 0
M  V30 13150 C 1212.99 0.325375 -2.30313 0
M  V30 13151 C 1213.98 0.983372 -1.37935 0
M  V30 13152 O 1215.19 0.913601 -1.55091 0
M  V30 13153 H 1211.57 0.123775 -0.741744 0
M  V30 13154 H 1213.54 -0.371004 -2.96085 0
M  V30 13155 C 1212.29 1.39026 -3.18696 0
M  V30 13156 H 1211.61 0.893329 -3.89692 0
M  V30 13157 H 1213.05 1.92533 -3.77766 0
M  V30 13158 C 1211.51 2.39637 -2.36803 0
M  V30 13159 O 1212.04 3.45067 -2.05649 0
M  V30 13160 N 1210.24 2.11546 -1.9924 0
M  V30 13161 H 1209.79 1.25832 -2.24775 0
M  V30 13162 H 1209.75 2.79096 -1.44751 0
M  V30 13163 N 1213.52 1.56172 -0.211661 0
M  V30 13164 C 1214.47 2.21206 0.719063 0
M  V30 13165 C 1215.46 1.18835 1.20725 0
M  V30 13166 O 1216.67 1.36939 1.16823 0
M  V30 13167 H 1213.04 0.709129 0.250279 0
M  V30 13168 H 1215.01 2.98038 0.147022 0
M  V30 13169 C 1213.76 2.89826 1.92084 0
M  V30 13170 H 1213.09 3.68351 1.55428 0
M  V30 13171 H 1214.53 3.38744 2.55006 0
M  V30 13172 C 1212.99 1.91756 2.77004 0
M  V30 13173 O 1213.52 1.42826 3.75451 0
M  V30 13174 N 1211.72 1.59622 2.42836 0
M  V30 13175 H 1211.27 1.99606 1.62835 0
M  V30 13176 H 1211.23 0.942641 2.99936 0
M  V30 13177 N 1215 -0.0618163 1.57479 0
M  V30 13178 C 1215.91 -1.09006 2.07738 0
M  V30 13179 C 1216.92 -1.4176 1.00896 0
M  V30 13180 O 1218.1 -1.51737 1.32431 0
M  V30 13181 C 1215.17 -2.38153 2.5196 0
M  V30 13182 C 1214.23 -2.12279 3.73143 0
M  V30 13183 C 1213.46 -3.35269 4.15248 0
M  V30 13184 O 1213.68 -4.44758 3.57137 0
M  V30 13185 O 1212.62 -3.22894 5.0796 0
M  V30 13186 H 1216.44 -0.693059 2.95686 0
M  V30 13187 H 1214.03 -0.276628 1.46817 0
M  V30 13188 H 1215.91 -3.14139 2.80882 0
M  V30 13189 H 1214.58 -2.77213 1.67137 0
M  V30 13190 H 1213.49 -1.33966 3.49291 0
M  V30 13191 H 1214.82 -1.78094 4.5885 0
M  V30 13192 N 1216.48 -1.54033 -0.333429 0
M  V30 13193 C 1217.44 -1.82021 -1.39288 0
M  V30 13194 C 1218.44 -0.691623 -1.45166 0
M  V30 13195 O 1219.63 -0.959925 -1.45365 0
M  V30 13196 C 1216.76 -1.97136 -2.78119 0
M  V30 13197 H 1217.95 -2.76671 -1.1573 0
M  V30 13198 H 1215.51 -1.45599 -0.568376 0
M  V30 13199 H 1216.24 -1.04663 -3.06946 0
M  V30 13200 H 1216.03 -2.79251 -2.75247 0
M  V30 13201 H 1217.52 -2.20271 -3.54782 0
M  V30 13202 O 1217.99 0.479395 -1.54221 0
M  V30 13203 H 1218.68 1.13393 -1.5704 0
M  V30 END ATOM
M  V30 BEGIN BOND
M  V30 END BOND
M  V30 END CTAB
M  END
$$$$
