drugbank_target|P0DOY9 30S ribosomal protein S8 (DB08185)
 OpenBabel12092120483D

  0  0  0     0  0            999 V3000
M  V30 BEGIN CTAB
M  V30 COUNTS 2293 2313 0 0 0
M  V30 BEGIN ATOM
M  V30 1 H -0.908 1.98254 -0.117106 0
M  V30 2 N 0 1.576 0 0
M  V30 3 C 0.933 2.03868 1.02534 0
M  V30 4 C 1.911 0.928543 1.3348 0
M  V30 5 O 3.095 1.19667 1.45644 0
M  V30 6 C 0.222 2.43627 2.35294 0
M  V30 7 C -0.732 3.65373 2.2001 0
M  V30 8 S 0.101 5.13292 1.52614 0
M  V30 9 C 1.257 5.56322 2.86805 0
M  V30 10 H 1.49 2.90518 0.631377 0
M  V30 11 H -0.977 1.52953 0.210867 0
M  V30 12 H 0.981 2.67203 3.11629 0
M  V30 13 H -0.358 1.57376 2.7183 0
M  V30 14 H -1.165 3.90944 3.18086 0
M  V30 15 H -1.563 3.418 1.51819 0
M  V30 16 H 0.729 5.58782 3.83104 0
M  V30 17 H 1.672 6.56266 2.65933 0
M  V30 18 H 2.08 4.83886 2.90714 0
M  V30 19 N 1.4781 -0.272755 1.55222 0
M  V30 20 C 2.4081 -1.34136 1.91127 0
M  V30 21 C 3.3891 -1.51513 0.773168 0
M  V30 22 O 4.5741 -1.64552 1.03132 0
M  V30 23 C 1.7041 -2.70083 2.1834 0
M  V30 24 C 0.6581 -2.67437 3.34158 0
M  V30 25 C -0.0159 -4.06938 3.46851 0
M  V30 26 C 1.2841 -2.26686 4.70543 0
M  V30 27 H 2.9781 -1.04333 2.80633 0
M  V30 28 H 0.5241 -0.500454 1.35024 0
M  V30 29 H 2.4771 -3.44952 2.42046 0
M  V30 30 H 1.2011 -3.01469 1.25634 0
M  V30 31 H -0.1399 -1.95026 3.1042 0
M  V30 32 H -0.4919 -4.35547 2.51611 0
M  V30 33 H -0.7919 -4.06062 4.2472 0
M  V30 34 H 0.7321 -4.83545 3.72849 0
M  V30 35 H 2.1461 -2.91277 4.93792 0
M  V30 36 H 0.5431 -2.36971 5.5133 0
M  V30 37 H 1.6131 -1.21818 4.69349 0
M  V30 38 N 2.9562 -1.48159 -0.537278 0
M  V30 39 C 4.1842 -1.59454 -1.31841 0
M  V30 40 C 4.5992 -0.252065 -1.8711 0
M  V30 41 O 3.9562 0.757621 -1.66031 0
M  V30 42 C 4.0072 -2.63546 -2.47439 0
M  V30 43 O 3.7282 -3.92583 -1.94449 0
M  V30 44 C 5.2292 -2.85212 -3.39366 0
M  V30 45 H 2.4492 -0.53785 -0.401196 0
M  V30 46 H 4.9932 -1.93932 -0.648891 0
M  V30 47 H 3.1482 -2.31946 -3.1029 0
M  V30 48 H 3.5622 -4.49629 -2.70063 0
M  V30 49 H 5.0362 -3.61863 -4.16844 0
M  V30 50 H 5.5132 -1.93765 -3.94147 0
M  V30 51 H 6.1192 -3.18086 -2.82314 0
M  V30 52 N 4.4343 0.785586 -1.36625 0
M  V30 53 C 5.7113 1.53198 -1.21613 0
M  V30 54 C 6.0913 2.10187 0.196113 0
M  V30 55 O 5.4393 1.94318 1.20219 0
M  V30 56 C 5.6493 2.62388 -2.30116 0
M  V30 57 C 6.9973 3.30167 -2.66974 0
M  V30 58 O 8.0213 2.72674 -2.29188 0
M  V30 59 O 6.8803 4.34077 -3.32023 0
M  V30 60 H 3.9743 0.677865 -0.473738 0
M  V30 61 H 6.5203 0.823739 -1.48367 0
M  V30 62 H 5.2923 2.18299 -3.24748 0
M  V30 63 H 4.9153 3.40827 -2.0475 0
M  V30 64 N 5.9124 1.20967 1.01018 0
M  V30 65 C 7.3234 1.02319 1.56165 0
M  V30 66 C 7.6744 -0.418546 1.91684 0
M  V30 67 O 6.7994 -1.30096 1.72928 0
M  V30 68 C 7.3944 1.85109 2.8376 0
M  V30 69 C 5.9534 1.70809 3.35412 0
M  V30 70 C 5.1004 1.82643 2.08655 0
M  V30 71 H 8.0514 1.35065 0.833255 0
M  V30 72 H 8.0724 1.35827 3.55431 0
M  V30 73 H 7.5844 2.90035 2.57878 0
M  V30 74 H 5.6854 0.685464 3.66241 0
M  V30 75 H 5.7984 2.52467 4.07182 0
M  V30 76 H 4.1624 1.25896 2.21409 0
M  V30 77 H 4.9454 2.89066 1.85191 0
M  V30 78 N 7.3905 -1.2043 1.01659 0
M  V30 79 C 8.6395 -1.89118 0.701237 0
M  V30 80 C 8.9525 -1.79705 -0.772358 0
M  V30 81 O 10.1585 -2.43528 -1.20026 0
M  V30 82 C 8.6145 -3.39168 1.20388 0
M  V30 83 C 8.2225 -3.57166 2.70438 0
M  V30 84 C 9.9665 -4.1341 0.963953 0
M  V30 85 C 7.8735 -5.01042 3.14183 0
M  V30 86 H 6.8035 -0.708267 0.2586 0
M  V30 87 H 9.4545 -1.36239 1.22927 0
M  V30 88 H 7.8365 -3.91369 0.603824 0
M  V30 89 H 9.0105 -3.15351 3.35992 0
M  V30 90 H 7.3255 -2.96294 2.92572 0
M  V30 91 H 9.9225 -5.19491 1.26621 0
M  V30 92 H 10.2655 -4.16181 -0.099578 0
M  V30 93 H 10.7985 -3.67309 1.52738 0
M  V30 94 H 7.5375 -5.03426 4.19812 0
M  V30 95 H 7.0575 -5.43668 2.53348 0
M  V30 96 H 8.7365 -5.69623 3.0682 0
M  V30 97 N 8.8686 -0.792821 -1.36206 0
M  V30 98 C 9.8316 -0.199459 -2.2833 0
M  V30 99 C 10.8316 0.605189 -1.48977 0
M  V30 100 O 12.0216 0.425685 -1.68919 0
M  V30 101 C 9.1536 0.723523 -3.33134 0
M  V30 102 H 10.3466 -1.01181 -2.82316 0
M  V30 103 H 7.8996 -0.562485 -1.45828 0
M  V30 104 H 8.6346 1.56008 -2.84309 0
M  V30 105 H 8.4196 0.148436 -3.91819 0
M  V30 106 H 9.9096 1.13344 -4.01924 0
M  V30 107 N 10.3467 1.47872 -0.545128 0
M  V30 108 C 11.6237 1.9554 0.0485222 0
M  V30 109 C 12.0037 1.4876 1.49779 0
M  V30 110 O 11.3517 0.720925 2.16829 0
M  V30 111 C 11.5617 3.48898 -0.084417 0
M  V30 112 C 12.9097 4.24547 0.0671239 0
M  V30 113 O 13.9337 3.56198 -0.0113649 0
M  V30 114 O 12.7927 5.45999 0.233882 0
M  V30 115 H 9.8867 0.823957 0.0708773 0
M  V30 116 H 12.4327 1.58327 -0.610798 0
M  V30 117 H 11.2047 3.75714 -1.09337 0
M  V30 118 H 10.8277 3.92845 0.613066 0
M  V30 119 N 11.8248 0.280983 1.55075 0
M  V30 120 C 12.7578 -0.645439 2.18882 0
M  V30 121 C 13.7358 -1.14786 1.15165 0
M  V30 122 O 14.9198 -1.21975 1.43716 0
M  V30 123 C 12.0468 -1.88088 2.81674 0
M  V30 124 C 11.0928 -1.51343 3.98745 0
M  V30 125 S 11.9258 -0.586548 5.32278 0
M  V30 126 C 13.0818 -1.83024 5.98543 0
M  V30 127 H 13.3148 -0.1033 2.9712 0
M  V30 128 H 10.8478 0.0652099 1.54262 0
M  V30 129 H 12.8058 -2.58997 3.18482 0
M  V30 130 H 11.4668 -2.39417 2.03318 0
M  V30 131 H 10.6598 -2.43289 4.41392 0
M  V30 132 H 10.2618 -0.884477 3.63391 0
M  V30 133 H 12.5538 -2.77342 6.18133 0
M  V30 134 H 13.4968 -1.44668 6.93164 0
M  V30 135 H 13.9048 -1.99785 5.27964 0
M  V30 136 N 13.3029 -1.57598 0.00835791 0
M  V30 137 C 14.2329 -2.1198 -0.979113 0
M  V30 138 C 15.2139 -1.03091 -1.35301 0
M  V30 139 O 16.3989 -1.30818 -1.43528 0
M  V30 140 C 13.5289 -2.62995 -2.26828 0
M  V30 141 C 12.4829 -3.76485 -2.03576 0
M  V30 142 C 11.8089 -4.13846 -3.38579 0
M  V30 143 C 13.1089 -5.0342 -1.39161 0
M  V30 144 H 14.8029 -2.94738 -0.526281 0
M  V30 145 H 12.3489 -1.41783 -0.251704 0
M  V30 146 H 14.3019 -2.99669 -2.96271 0
M  V30 147 H 13.0259 -1.7737 -2.7424 0
M  V30 148 H 11.6849 -3.40217 -1.36557 0
M  V30 149 H 11.3329 -3.25232 -3.83709 0
M  V30 150 H 11.0329 -4.90312 -3.23834 0
M  V30 151 H 12.5569 -4.53086 -4.09323 0
M  V30 152 H 13.9709 -5.37812 -1.98573 0
M  V30 153 H 12.3679 -5.84746 -1.34878 0
M  V30 154 H 13.4379 -4.83548 -0.361868 0
M  V30 155 N 14.781 0.264519 -1.55364 0
M  V30 156 C 16.009 1.013 -1.80405 0
M  V30 157 C 16.424 1.79618 -0.581622 0
M  V30 158 O 15.781 1.76879 0.449468 0
M  V30 159 C 15.832 1.96487 -3.03439 0
M  V30 160 O 15.553 1.21341 -4.20961 0
M  V30 161 C 17.054 2.83079 -3.41147 0
M  V30 162 H 14.274 0.298875 -0.600762 0
M  V30 163 H 16.818 0.292736 -2.02394 0
M  V30 164 H 14.973 2.63965 -2.83551 0
M  V30 165 H 15.387 1.85573 -4.90574 0
M  V30 166 H 16.861 3.4565 -4.30384 0
M  V30 167 H 17.338 3.53286 -2.60932 0
M  V30 168 H 17.944 2.2108 -3.63323 0
M  V30 169 N 16.2591 1.48442 0.529413 0
M  V30 170 C 17.6751 1.34575 0.858004 0
M  V30 171 C 17.8751 0.3572 1.98309 0
M  V30 172 O 16.9311 -0.221379 2.51528 0
M  V30 173 C 18.2441 2.74617 1.22499 0
M  V30 174 C 19.7921 2.83109 1.33484 0
M  V30 175 C 20.2671 4.23854 1.73526 0
M  V30 176 N 21.7581 4.2653 1.80628 0
M  V30 177 C 22.4931 5.32372 2.12997 0
M  V30 178 N 21.9891 6.48491 2.43786 0
M  V30 179 N 23.7821 5.19766 2.14008 0
M  V30 180 H 15.9331 2.1133 -0.212925 0
M  V30 181 H 18.1961 0.947439 -0.0326199 0
M  V30 182 H 17.9021 3.4852 0.471905 0
M  V30 183 H 17.7761 3.08177 2.17501 0
M  V30 184 H 20.1631 2.09462 2.0787 0
M  V30 185 H 20.2441 2.53168 0.366027 0
M  V30 186 H 19.8881 4.98018 0.997013 0
M  V30 187 H 19.8181 4.5124 2.71459 0
M  V30 188 H 22.3091 3.42772 1.59108 0
M  V30 189 H 22.6221 7.24993 2.67592 0
M  V30 190 H 20.9671 6.51765 2.41304 0
M  V30 191 H 24.1581 4.28066 1.89412 0
M  V30 192 H 24.3311 6.02354 2.38902 0
M  V30 193 N 17.7372 -0.778329 1.37039 0
M  V30 194 C 18.9862 -1.53189 1.3121 0
M  V30 195 C 19.2992 -1.95328 -0.103095 0
M  V30 196 O 20.5052 -2.70012 -0.283826 0
M  V30 197 C 18.9612 -2.76591 2.30272 0
M  V30 198 C 18.5692 -2.41577 3.77286 0
M  V30 199 C 20.3132 -3.5455 2.33441 0
M  V30 200 C 18.2202 -3.61441 4.68096 0
M  V30 201 H 17.1502 -0.5751 0.487622 0
M  V30 202 H 19.8012 -0.853101 1.62464 0
M  V30 203 H 18.1832 -3.46326 1.92027 0
M  V30 204 H 19.3572 -1.79668 4.2433 0
M  V30 205 H 17.6722 -1.76806 3.76999 0
M  V30 206 H 20.2692 -4.43628 2.98493 0
M  V30 207 H 20.6122 -3.93936 1.34611 0
M  V30 208 H 21.1452 -2.91805 2.7036 0
M  V30 209 H 17.8842 -3.27142 5.6803 0
M  V30 210 H 17.4042 -4.22478 4.25761 0
M  V30 211 H 19.0832 -4.28335 4.8491 0
M  V30 212 N 19.2153 -1.21501 -1.00376 0
M  V30 213 C 20.6313 -0.972629 -1.26539 0
M  V30 214 C 20.8313 0.340257 -1.98606 0
M  V30 215 O 19.8873 1.06561 -2.28913 0
M  V30 216 C 21.2003 -2.16404 -2.08781 0
M  V30 217 C 22.7483 -2.20643 -2.22004 0
M  V30 218 C 23.2233 -3.39306 -3.07629 0
M  V30 219 N 24.7143 -3.39401 -3.15217 0
M  V30 220 C 25.4493 -4.27867 -3.81729 0
M  V30 221 N 24.9453 -5.26533 -4.5026 0
M  V30 222 N 26.7383 -4.15672 -3.78382 0
M  V30 223 H 18.8893 -2.05929 -0.520281 0
M  V30 224 H 21.1523 -0.901803 -0.292328 0
M  V30 225 H 20.8583 -3.11554 -1.63178 0
M  V30 226 H 20.7323 -2.15567 -3.09533 0
M  V30 227 H 23.1193 -1.26048 -2.66825 0
M  V30 228 H 23.2003 -2.25523 -1.20718 0
M  V30 229 H 22.8443 -4.34195 -2.63509 0
M  V30 230 H 22.7743 -3.31665 -4.09031 0
M  V30 231 H 25.2653 -2.67997 -2.66432 0
M  V30 232 H 25.5783 -5.90337 -4.98721 0
M  V30 233 H 23.9233 -5.30457 -4.49044 0
M  V30 234 H 27.1143 -3.3785 -3.23998 0
M  V30 235 H 27.2873 -4.84825 -4.2994 0
M  V30 236 N 20.6934 1.19889 -1.02296 0
M  V30 237 C 21.6414 2.24938 -0.592081 0
M  V30 238 C 22.6354 1.65257 0.372357 0
M  V30 239 O 23.8414 1.78371 0.241583 0
M  V30 240 H 20.2164 0.731787 -0.173182 0
M  V30 241 H 22.1874 2.58603 -1.48885 0
M  V30 242 C 20.9364 3.47668 0.047351 0
M  V30 243 H 20.2594 3.93875 -0.685772 0
M  V30 244 H 21.6994 4.22852 0.311862 0
M  V30 245 C 20.1584 3.11136 1.29212 0
M  V30 246 O 20.6884 3.2325 2.38479 0
M  V30 247 N 18.8944 2.65625 1.17863 0
M  V30 248 H 18.4414 2.55968 0.289493 0
M  V30 249 H 18.3994 2.41553 2.01245 0
M  V30 250 N 22.1715 0.800033 1.35784 0
M  V30 251 C 23.1345 0.211565 2.28221 0
M  V30 252 C 24.1345 -0.59728 1.49296 0
M  V30 253 O 25.3245 -0.416721 1.69142 0
M  V30 254 C 22.4565 -0.705846 3.33513 0
M  V30 255 H 23.6495 1.02677 2.81776 0
M  V30 256 H 21.2025 0.570211 1.45528 0
M  V30 257 H 21.9375 -1.54498 2.85133 0
M  V30 258 H 21.7225 -0.127655 3.91892 0
M  V30 259 H 23.2125 -1.11211 4.02519 0
M  V30 260 N 23.6496 -1.47581 0.552962 0
M  V30 261 C 24.8776 -2.06875 0.0320556 0
M  V30 262 C 25.2926 -1.40625 -1.25976 0
M  V30 263 O 24.6496 -0.501349 -1.75479 0
M  V30 264 C 24.7006 -3.61092 -0.17167 0
M  V30 265 O 24.4216 -4.24858 1.06899 0
M  V30 266 C 25.9226 -4.37242 -0.730344 0
M  V30 267 H 23.1426 -0.669561 0.043915 0
M  V30 268 H 25.6866 -1.89646 0.765163 0
M  V30 269 H 23.8416 -3.7785 -0.854894 0
M  V30 270 H 24.2556 -5.17334 0.864059 0
M  V30 271 H 25.7296 -5.45842 -0.822203 0
M  V30 272 H 26.2066 -4.03235 -1.74064 0
M  V30 273 H 26.8126 -4.25219 -0.0829543 0
M  V30 274 N 25.1277 -0.289203 -1.54924 0
M  V30 275 C 26.5437 0.0645403 -1.59469 0
M  V30 276 C 26.7437 1.53419 -1.30632 0
M  V30 277 O 25.7997 2.2852 -1.074 0
M  V30 278 C 27.1127 -0.32278 -2.98963 0
M  V30 279 C 28.6607 -0.270564 -3.11828 0
M  V30 280 C 29.1357 -0.632532 -4.53611 0
M  V30 281 N 30.6267 -0.584617 -4.59496 0
M  V30 282 C 31.3617 -0.837314 -5.67254 0
M  V30 283 N 30.8577 -1.15536 -6.83098 0
M  V30 284 N 32.6507 -0.765166 -5.56868 0
M  V30 285 H 24.8017 -1.24714 -1.71931 0
M  V30 286 H 27.0647 -0.504809 -0.802416 0
M  V30 287 H 26.7707 -1.34541 -3.24948 0
M  V30 288 H 26.6447 0.32944 -3.75759 0
M  V30 289 H 29.0317 0.742805 -2.85598 0
M  V30 290 H 29.1127 -0.957242 -2.37214 0
M  V30 291 H 28.7567 -1.64365 -4.80569 0
M  V30 292 H 28.6867 0.07609 -5.26545 0
M  V30 293 H 31.1777 -0.349248 -3.76283 0
M  V30 294 H 31.4907 -1.33447 -7.61191 0
M  V30 295 H 29.8357 -1.19328 -6.84679 0
M  V30 296 H 33.0267 -0.516432 -4.65243 0
M  V30 297 H 33.1997 -0.965477 -6.40767 0
M  V30 298 N 26.6058 1.57591 -0.0167156 0
M  V30 299 C 27.8518 1.91567 0.665582 0
M  V30 300 C 28.1848 0.892298 1.72487 0
M  V30 301 O 27.4598 -0.0867127 1.94307 0
M  V30 302 C 27.7428 3.36069 1.29342 0
M  V30 303 C 27.5958 4.49135 0.244541 0
M  V30 304 C 28.9148 3.803 2.21495 0
M  V30 305 H 26.0338 0.69666 0.240488 0
M  V30 306 H 28.6758 1.89866 -0.0714356 0
M  V30 307 H 26.8258 3.3765 1.92158 0
M  V30 308 H 28.4978 4.59689 -0.385228 0
M  V30 309 H 26.7408 4.3165 -0.431379 0
M  V30 310 H 27.4118 5.47242 0.723207 0
M  V30 311 H 29.8878 3.80377 1.68678 0
M  V30 312 H 28.7638 4.82127 2.62382 0
M  V30 313 H 29.0248 3.15104 3.101 0
M  V30 314 N 28.0839 -0.256276 1.55502 0
M  V30 315 C 29.3139 -1.00196 1.80677 0
M  V30 316 C 29.7219 -1.79805 0.588797 0
M  V30 317 O 29.0649 -1.78055 -0.451883 0
M  V30 318 C 29.1269 -1.99515 2.99055 0
M  V30 319 C 28.7909 -1.38688 4.35448 0
M  V30 320 C 29.7879 -0.794079 5.138 0
M  V30 321 C 27.4729 -1.40906 4.82132 0
M  V30 322 C 29.4669 -0.231562 6.36979 0
M  V30 323 C 27.1539 -0.842684 6.05262 0
M  V30 324 C 28.1519 -0.254953 6.82524 0
M  V30 325 O 27.8399 0.3027 8.0333 0
M  V30 326 H 27.5719 -0.300919 0.60533 0
M  V30 327 H 30.1259 -0.287307 2.03381 0
M  V30 328 H 28.3559 -2.74785 2.72084 0
M  V30 329 H 30.0449 -2.60349 3.11405 0
M  V30 330 H 30.8109 -0.769519 4.78856 0
M  V30 331 H 26.6899 -1.85591 4.21992 0
M  V30 332 H 30.2339 0.227816 6.97228 0
M  V30 333 H 26.1309 -0.86454 6.39684 0
M  V30 334 H 26.8989 0.193662 8.18271 0
M  V30 335 N 29.562 -1.4872 -0.521534 0
M  V30 336 C 30.509 -1.63871 -1.62527 0
M  V30 337 C 31.479 -0.480559 -1.58996 0
M  V30 338 O 32.664 -0.705085 -1.77294 0
M  V30 339 C 29.804 -1.69227 -3.00759 0
M  V30 340 C 28.917 -2.96207 -3.14461 0
M  V30 341 C 28.052 -2.92671 -4.43303 0
M  V30 342 C 27.091 -4.14318 -4.50563 0
M  V30 343 N 26.228 -4.0881 -5.70805 0
M  V30 344 H 31.068 -2.58123 -1.48918 0
M  V30 345 H 28.605 -1.28 -0.724878 0
M  V30 346 H 30.563 -1.70314 -3.80853 0
M  V30 347 H 29.193 -0.784586 -3.1312 0
M  V30 348 H 28.245 -3.04826 -2.27564 0
M  V30 349 H 29.557 -3.86192 -3.15686 0
M  V30 350 H 28.711 -2.92206 -5.31696 0
M  V30 351 H 27.45 -2.00429 -4.44612 0
M  V30 352 H 26.455 -4.15049 -3.60575 0
M  V30 353 H 27.68 -5.07729 -4.50986 0
M  V30 354 H 25.626 -3.19394 -5.72995 0
M  V30 355 H 25.543 -4.92509 -5.7356 0
M  V30 356 H 26.811 -4.12418 -6.61462 0
M  V30 357 N 31.0401 0.771051 -1.3745 0
M  V30 358 C 31.9501 1.91538 -1.35464 0
M  V30 359 C 32.9661 1.72134 -0.254123 0
M  V30 360 O 34.1421 1.95358 -0.489626 0
M  V30 361 C 31.2071 3.26671 -1.16134 0
M  V30 362 C 30.2681 3.58723 -2.35831 0
M  V30 363 C 29.5011 4.87409 -2.17413 0
M  V30 364 O 29.7241 5.58506 -1.15876 0
M  V30 365 O 28.6581 5.18539 -3.05615 0
M  V30 366 H 32.4841 1.96165 -2.31847 0
M  V30 367 H 30.0691 0.9139 -1.18187 0
M  V30 368 H 31.9511 4.07499 -1.07345 0
M  V30 369 H 30.6261 3.22894 -0.228251 0
M  V30 370 H 29.5331 2.78127 -2.50192 0
M  V30 371 H 30.8661 3.67243 -3.27709 0
M  V30 372 N 32.5182 1.22032 0.997298 0
M  V30 373 C 33.7432 1.06921 1.77715 0
M  V30 374 C 34.1682 -0.376226 1.84299 0
M  V30 375 O 33.5262 -1.27165 1.29223 0
M  V30 376 C 33.5742 1.67996 3.19076 0
M  V30 377 O 32.6782 0.930653 4.01762 0
M  V30 378 H 32.0192 0.375814 0.547412 0
M  V30 379 H 34.5492 1.61737 1.25309 0
M  V30 380 H 34.5592 1.72538 3.69723 0
M  V30 381 H 33.2342 2.73182 3.13599 0
M  V30 382 H 31.8112 0.960917 3.60307 0
M  V30 383 N 33.9963 -1.19345 1.0293 0
M  V30 384 C 35.2243 -1.92997 0.745644 0
M  V30 385 C 35.6393 -1.75519 -0.695589 0
M  V30 386 O 34.9963 -1.07737 -1.47306 0
M  V30 387 C 35.0473 -3.44741 1.08792 0
M  V30 388 O 34.7683 -3.61658 2.47256 0
M  V30 389 C 36.2693 -4.35515 0.827129 0
M  V30 390 H 33.4893 -0.613042 0.272801 0
M  V30 391 H 36.0333 -1.51473 1.3739 0
M  V30 392 H 34.1883 -3.84097 0.504832 0
M  V30 393 H 34.6023 -4.55514 2.60015 0
M  V30 394 H 36.0763 -5.40589 1.11658 0
M  V30 395 H 36.5533 -4.38552 -0.238436 0
M  V30 396 H 37.1593 -4.01841 1.39297 0
M  V30 397 N 35.4744 -0.807222 -1.35358 0
M  V30 398 C 36.7514 -0.311126 -1.9311 0
M  V30 399 C 37.1314 1.19937 -1.73719 0
M  V30 400 O 36.4794 1.99918 -1.10657 0
M  V30 401 C 36.6894 -0.723226 -3.41424 0
M  V30 402 C 38.0374 -0.713078 -4.18569 0
M  V30 403 O 39.0614 -0.664811 -3.49941 0
M  V30 404 O 37.9204 -0.772022 -5.41019 0
M  V30 405 H 35.0144 -0.081526 -0.822972 0
M  V30 406 H 37.5604 -0.890962 -1.4443 0
M  V30 407 H 36.3324 -1.76426 -3.4927 0
M  V30 408 H 35.9554 -0.118232 -3.97424 0
M  V30 409 N 36.9525 1.47285 -0.560781 0
M  V30 410 C 38.1985 2.02764 -0.0381184 0
M  V30 411 C 38.5315 1.43384 1.30976 0
M  V30 412 O 37.8065 0.590733 1.85312 0
M  V30 413 C 38.0895 3.60064 0.0511427 0
M  V30 414 C 37.9425 4.2987 -1.32408 0
M  V30 415 C 39.2615 4.33439 0.762795 0
M  V30 416 H 36.3805 0.736841 -0.0153264 0
M  V30 417 H 39.0225 1.75675 -0.723759 0
M  V30 418 H 37.1725 3.83274 0.635065 0
M  V30 419 H 38.8445 4.17989 -1.95148 0
M  V30 420 H 37.0875 3.90085 -1.8978 0
M  V30 421 H 37.7585 5.38478 -1.21431 0
M  V30 422 H 40.2345 4.15243 0.266965 0
M  V30 423 H 39.1105 5.43124 0.794221 0
M  V30 424 H 39.3715 4.02915 1.81966 0
M  V30 425 N 38.4306 0.297415 1.54768 0
M  V30 426 C 39.8416 -0.195947 1.85669 0
M  V30 427 C 40.1926 -1.53707 1.21937 0
M  V30 428 O 39.3176 -2.10164 0.515754 0
M  V30 429 C 39.9126 -0.362318 3.36857 0
M  V30 430 C 38.4716 -0.799901 3.67802 0
M  V30 431 C 37.6186 0.0938578 2.77141 0
M  V30 432 H 40.5696 0.518538 1.4999 0
M  V30 433 H 40.5906 -1.19745 3.61167 0
M  V30 434 H 40.1026 0.613921 3.83214 0
M  V30 435 H 38.2036 -1.78682 3.26961 0
M  V30 436 H 38.3166 -0.621773 4.75048 0
M  V30 437 H 36.6806 -0.426254 2.51108 0
M  V30 438 H 37.4636 1.06639 3.26318 0
M  V30 439 N 39.9087 -1.5758 0.0250728 0
M  V30 440 C 40.8717 -2.08896 -0.943139 0
M  V30 441 C 41.8717 -1.00321 -1.25668 0
M  V30 442 O 43.0617 -1.26495 -1.19769 0
M  V30 443 C 40.1937 -2.55143 -2.26086 0
M  V30 444 H 41.3867 -2.95723 -0.498775 0
M  V30 445 H 38.9397 -1.54703 -0.222888 0
M  V30 446 H 39.6747 -1.71633 -2.75159 0
M  V30 447 H 39.4597 -3.34461 -2.04641 0
M  V30 448 H 40.9497 -2.95083 -2.95492 0
M  V30 449 N 41.3868 0.248026 -1.55636 0
M  V30 450 C 42.6118 0.998028 -1.81808 0
M  V30 451 C 43.0368 1.78207 -0.601979 0
M  V30 452 O 42.3948 1.75653 0.448961 0
M  V30 453 C 42.4428 1.9125 -3.05705 0
M  V30 454 O 41.5468 3.00406 -2.82542 0
M  V30 455 H 40.8878 0.284045 -0.600179 0
M  V30 456 H 43.4178 0.269357 -2.02819 0
M  V30 457 H 43.4278 2.32737 -3.35108 0
M  V30 458 H 42.1028 1.33602 -3.93857 0
M  V30 459 H 40.6798 2.63056 -2.64303 0
M  V30 460 N 42.8649 1.48995 0.513639 0
M  V30 461 C 44.2809 1.35478 0.843682 0
M  V30 462 C 44.4809 0.378213 1.97919 0
M  V30 463 O 43.5369 -0.194689 2.51748 0
M  V30 464 C 44.8499 2.75901 1.1958 0
M  V30 465 C 46.3979 2.84509 1.30474 0
M  V30 466 C 46.8729 4.25671 1.69021 0
M  V30 467 N 48.3639 4.28422 1.76094 0
M  V30 468 C 49.0989 5.34601 2.07338 0
M  V30 469 N 48.5949 6.5104 2.36894 0
M  V30 470 N 50.3879 5.22007 2.08483 0
M  V30 471 H 42.5389 2.11092 -0.235328 0
M  V30 472 H 44.8019 0.947039 -0.0426669 0
M  V30 473 H 44.5079 3.49001 0.434913 0
M  V30 474 H 44.3819 3.10467 2.1422 0
M  V30 475 H 46.7689 2.11655 2.05637 0
M  V30 476 H 46.8499 2.53542 0.339155 0
M  V30 477 H 46.4939 4.99048 0.944135 0
M  V30 478 H 46.4239 4.54094 2.66658 0
M  V30 479 H 48.9149 3.44441 1.55464 0
M  V30 480 H 49.2279 7.2779 2.59887 0
M  V30 481 H 47.5729 6.54287 2.34378 0
M  V30 482 H 50.7639 4.30051 1.84861 0
M  V30 483 H 50.9369 6.04854 2.325 0
M  V30 484 N 44.343 -0.763751 1.37857 0
M  V30 485 C 45.59 -1.52257 1.33506 0
M  V30 486 C 45.918 -1.94343 -0.078022 0
M  V30 487 O 45.173 -1.64958 -1.05297 0
M  V30 488 C 45.472 -2.79499 2.22745 0
M  V30 489 C 45.138 -2.56426 3.70886 0
M  V30 490 C 43.8 -2.49842 4.11257 0
M  V30 491 C 46.152 -2.36008 4.64704 0
M  V30 492 C 43.48 -2.20841 5.43549 0
M  V30 493 C 45.832 -2.0853 5.97242 0
M  V30 494 C 44.496 -2.00396 6.36709 0
M  V30 495 H 43.766 -0.557149 0.488534 0
M  V30 496 H 46.413 -0.879073 1.70131 0
M  V30 497 H 44.718 -3.48447 1.79142 0
M  V30 498 H 46.415 -3.37413 2.16688 0
M  V30 499 H 43.005 -2.62416 3.38874 0
M  V30 500 H 47.189 -2.40079 4.34368 0
M  V30 501 H 42.445 -2.13045 5.73081 0
M  V30 502 H 46.619 -1.91732 6.69486 0
M  V30 503 H 44.246 -1.77688 7.39142 0
M  V30 504 N 45.8211 -1.22559 -0.990812 0
M  V30 505 C 46.7681 -0.997519 -2.0813 0
M  V30 506 C 47.7381 0.0814702 -1.659 0
M  V30 507 O 48.9231 -0.0685424 -1.90677 0
M  V30 508 C 46.0631 -0.583615 -3.40129 0
M  V30 509 C 45.1761 -1.7336 -3.9569 0
M  V30 510 C 44.3111 -1.26748 -5.15857 0
M  V30 511 C 43.3501 -2.38888 -5.63559 0
M  V30 512 N 42.4871 -1.93308 -6.74964 0
M  V30 513 H 47.3271 -1.93099 -2.26973 0
M  V30 514 H 44.8641 -0.962114 -1.11273 0
M  V30 515 H 46.8221 -0.324801 -4.15934 0
M  V30 516 H 45.4521 0.312845 -3.2128 0
M  V30 517 H 44.5041 -2.10669 -3.16738 0
M  V30 518 H 45.8161 -2.57704 -4.27071 0
M  V30 519 H 44.9701 -0.966173 -5.98957 0
M  V30 520 H 43.7091 -0.394272 -4.86104 0
M  V30 521 H 42.7141 -2.69805 -4.79046 0
M  V30 522 H 43.9391 -3.26728 -5.95336 0
M  V30 523 H 41.8851 -1.08352 -6.4699 0
M  V30 524 H 41.8021 -2.71217 -7.05675 0
M  V30 525 H 43.0701 -1.66252 -7.61564 0
M  V30 526 N 47.2992 1.18797 -1.03562 0
M  V30 527 C 48.2092 2.25913 -0.632505 0
M  V30 528 C 49.2252 1.70668 0.338882 0
M  V30 529 O 50.4012 2.00453 0.195076 0
M  V30 530 C 47.4662 3.467 0.00350942 0
M  V30 531 C 46.5272 4.17098 -1.01624 0
M  V30 532 C 45.7602 5.32119 -0.410478 0
M  V30 533 O 45.9832 5.64976 0.784725 0
M  V30 534 O 44.9172 5.9107 -1.13667 0
M  V30 535 H 48.7432 2.62648 -1.52478 0
M  V30 536 H 46.3282 1.25781 -0.806195 0
M  V30 537 H 48.2102 4.19878 0.35781 0
M  V30 538 H 46.8852 3.11798 0.869686 0
M  V30 539 H 45.7922 3.4601 -1.42224 0
M  V30 540 H 47.1252 4.55987 -1.85301 0
M  V30 541 N 48.7773 0.814389 1.34928 0
M  V30 542 C 49.6873 0.231978 2.3345 0
M  V30 543 C 50.7033 -0.629139 1.62228 0
M  V30 544 O 51.8793 -0.539052 1.94052 0
M  V30 545 C 48.9443 -0.603482 3.41407 0
M  V30 546 C 48.0053 0.279037 4.28392 0
M  V30 547 C 47.2383 -0.516643 5.31193 0
M  V30 548 O 47.4613 -1.75068 5.4287 0
M  V30 549 O 46.3953 0.0965652 6.01823 0
M  V30 550 H 50.2213 1.04721 2.85074 0
M  V30 551 H 47.8063 0.576343 1.37836 0
M  V30 552 H 49.6883 -1.07908 4.0735 0
M  V30 553 H 48.3633 -1.39618 2.92042 0
M  V30 554 H 47.2703 0.801948 3.65403 0
M  V30 555 H 48.6033 1.03588 4.81176 0
M  V30 556 N 50.2554 -1.46986 0.568584 0
M  V30 557 C 51.5044 -2.01646 0.0465894 0
M  V30 558 C 51.8174 -1.44721 -1.31587 0
M  V30 559 O 53.0234 -1.91113 -1.92842 0
M  V30 560 C 51.4794 -3.59885 0.032752 0
M  V30 561 C 51.0874 -4.25804 1.39266 0
M  V30 562 C 52.8314 -4.22255 -0.436038 0
M  V30 563 C 50.7384 -5.76081 1.33732 0
M  V30 564 H 49.6684 -0.753876 0.013647 0
M  V30 565 H 52.3194 -1.68864 0.718131 0
M  V30 566 H 50.7014 -3.8968 -0.704669 0
M  V30 567 H 51.8754 -4.07637 2.1487 0
M  V30 568 H 50.1904 -3.7547 1.80032 0
M  V30 569 H 52.7874 -5.32394 -0.49602 0
M  V30 570 H 53.1304 -3.90212 -1.45053 0
M  V30 571 H 53.6634 -3.97033 0.246877 0
M  V30 572 H 50.4024 -6.12761 2.32817 0
M  V30 573 H 49.9224 -5.96553 0.623267 0
M  V30 574 H 51.6014 -6.38518 1.0442 0
M  V30 575 N 51.7335 -0.305618 -1.54608 0
M  V30 576 C 52.6635 0.561482 -2.26649 0
M  V30 577 C 53.6445 1.13415 -1.26772 0
M  V30 578 O 54.8295 1.16262 -1.55553 0
M  V30 579 C 51.9595 1.73122 -3.01075 0
M  V30 580 C 50.9135 1.2887 -4.08138 0
M  V30 581 C 50.2395 2.54396 -4.70305 0
M  V30 582 C 51.5395 0.416578 -5.20636 0
M  V30 583 H 53.2335 -0.0393902 -2.99374 0
M  V30 584 H 50.7795 -0.020385 -1.43986 0
M  V30 585 H 52.7325 2.34396 -3.50195 0
M  V30 586 H 51.4565 2.3584 -2.25936 0
M  V30 587 H 50.1155 0.698991 -3.59875 0
M  V30 588 H 49.7635 3.15439 -3.918 0
M  V30 589 H 49.4635 2.25486 -5.42614 0
M  V30 590 H 50.9875 3.16464 -5.2219 0
M  V30 591 H 52.4015 0.935116 -5.65622 0
M  V30 592 H 50.7985 0.221046 -5.99693 0
M  V30 593 H 51.8685 -0.557162 -4.81688 0
M  V30 594 N 53.2116 1.57565 -0.0334293 0
M  V30 595 C 54.6276 1.56297 0.322997 0
M  V30 596 C 54.8276 1.03945 1.7262 0
M  V30 597 O 53.8836 0.688109 2.42943 0
M  V30 598 C 55.1966 3.00232 0.167664 0
M  V30 599 C 56.7446 3.12078 0.240107 0
M  V30 600 C 57.2196 4.57859 0.113513 0
M  V30 601 N 58.7106 4.62887 0.170359 0
M  V30 602 C 59.4456 5.73319 0.0962517 0
M  V30 603 N 58.9416 6.92794 -0.0291881 0
M  V30 604 N 60.7346 5.61898 0.150551 0
M  V30 605 H 52.8856 1.89923 -0.950956 0
M  V30 606 H 55.1486 0.873824 -0.367608 0
M  V30 607 H 54.8546 3.42501 -0.799102 0
M  V30 608 H 54.7286 3.654 0.936083 0
M  V30 609 H 57.1156 2.69718 1.19733 0
M  V30 610 H 57.1966 2.49623 -0.558763 0
M  V30 611 H 56.8406 5.009 -0.840314 0
M  V30 612 H 56.7706 5.18299 0.931302 0
M  V30 613 H 59.2616 3.76954 0.26728 0
M  V30 614 H 59.5746 7.7276 -0.0789252 0
M  V30 615 H 57.9196 6.94971 -0.0640299 0
M  V30 616 H 61.1106 4.67448 0.246981 0
M  V30 617 H 61.2836 6.47938 0.0893365 0
M  V30 618 N 54.6897 -0.239769 1.55765 0
M  V30 619 C 55.9387 -0.964754 1.77131 0
M  V30 620 C 56.2517 -1.86213 0.59868 0
M  V30 621 O 57.4577 -2.6244 0.695522 0
M  V30 622 C 55.9137 -1.76552 3.1362 0
M  V30 623 C 55.5217 -0.915185 4.38553 0
M  V30 624 C 57.2657 -2.48281 3.44321 0
M  V30 625 C 55.1727 -1.71225 5.66071 0
M  V30 626 H 54.1027 -0.363953 0.660344 0
M  V30 627 H 56.7537 -0.219181 1.82186 0
M  V30 628 H 55.1357 -2.55331 3.02691 0
M  V30 629 H 56.3097 -0.169217 4.60489 0
M  V30 630 H 54.6247 -0.310889 4.15238 0
M  V30 631 H 57.2217 -3.08382 4.36812 0
M  V30 632 H 57.5647 -3.20256 2.65973 0
M  V30 633 H 58.0977 -1.76507 3.56497 0
M  V30 634 H 54.8367 -1.03612 6.4726 0
M  V30 635 H 54.3567 -2.43331 5.48224 0
M  V30 636 H 56.0357 -2.27758 6.05587 0
M  V30 637 N 56.1678 -1.49265 -0.50573 0
M  V30 638 C 57.0978 -1.68495 -1.61653 0
M  V30 639 C 58.0788 -0.53366 -1.61512 0
M  V30 640 O 59.2638 -0.76897 -1.78327 0
M  V30 641 C 56.3938 -1.74709 -3.00157 0
M  V30 642 C 55.3478 -2.89581 -3.15162 0
M  V30 643 C 54.6738 -2.80903 -4.5497 0
M  V30 644 C 55.9738 -4.30578 -2.95634 0
M  V30 645 H 57.6678 -2.61493 -1.45814 0
M  V30 646 H 55.2138 -1.25838 -0.70005 0
M  V30 647 H 57.1668 -1.86748 -3.77761 0
M  V30 648 H 55.8908 -0.783067 -3.17074 0
M  V30 649 H 54.5498 -2.77136 -2.39982 0
M  V30 650 H 54.1978 -1.82419 -4.68756 0
M  V30 651 H 53.8978 -3.57999 -4.65951 0
M  V30 652 H 55.4218 -2.94944 -5.34641 0
M  V30 653 H 56.8358 -4.4373 -3.63011 0
M  V30 654 H 55.2328 -5.0886 -3.18091 0
M  V30 655 H 56.3028 -4.45352 -1.91806 0
M  V30 656 N 57.6459 0.756429 -1.3826 0
M  V30 657 C 58.6089 1.85176 -1.35065 0
M  V30 658 C 59.6089 1.58818 -0.251703 0
M  V30 659 O 60.7989 1.66615 -0.508433 0
M  V30 660 C 57.9309 3.22596 -1.10201 0
M  V30 661 H 59.1239 1.89417 -2.3251 0
M  V30 662 H 56.6769 0.95783 -1.23512 0
M  V30 663 H 57.4119 3.24025 -0.133504 0
M  V30 664 H 57.1969 3.43122 -1.89762 0
M  V30 665 H 58.6869 4.02673 -1.10654 0
M  V30 666 N 59.124 1.23083 0.984299 0
M  V30 667 C 60.54 0.992637 1.24975 0
M  V30 668 C 60.74 -0.308618 1.99123 0
M  V30 669 O 59.796 -1.02905 2.30579 0
M  V30 670 C 61.109 2.19698 2.05312 0
M  V30 671 C 62.657 2.24147 2.18465 0
M  V30 672 C 63.132 3.44157 3.02192 0
M  V30 673 N 64.623 3.44372 3.09777 0
M  V30 674 C 65.358 4.33886 3.74874 0
M  V30 675 N 64.854 5.3363 4.41827 0
M  V30 676 N 66.647 4.21639 3.71721 0
M  V30 677 H 58.798 2.06731 0.487453 0
M  V30 678 H 61.061 0.906339 0.277944 0
M  V30 679 H 60.767 3.1411 1.58201 0
M  V30 680 H 60.641 2.20465 3.06064 0
M  V30 681 H 63.028 1.30277 2.64786 0
M  V30 682 H 63.109 2.27415 1.17115 0
M  V30 683 H 62.753 4.38332 2.56568 0
M  V30 684 H 62.683 3.3813 4.03702 0
M  V30 685 H 65.174 2.72201 2.62135 0
M  V30 686 H 65.487 5.98196 4.89266 0
M  V30 687 H 63.832 5.37534 4.40548 0
M  V30 688 H 67.023 3.42962 3.18582 0
M  V30 689 H 67.196 4.91604 4.22173 0
M  V30 690 N 60.6021 -1.18246 1.0419 0
M  V30 691 C 61.5121 -2.25574 0.644476 0
M  V30 692 C 62.5281 -1.70845 -0.329826 0
M  V30 693 O 63.7041 -2.00554 -0.184443 0
M  V30 694 C 60.7691 -3.46697 0.014877 0
M  V30 695 C 59.8301 -4.16554 1.03834 0
M  V30 696 C 59.0631 -5.31894 0.438692 0
M  V30 697 O 59.2861 -5.65385 -0.754752 0
M  V30 698 O 58.2201 -5.90459 1.168 0
M  V30 699 H 62.0461 -2.61836 1.53869 0
M  V30 700 H 59.6311 -1.25352 0.812854 0
M  V30 701 H 61.5131 -4.20062 -0.335538 0
M  V30 702 H 60.1881 -3.12255 -0.853138 0
M  V30 703 H 59.0951 -3.45251 1.44057 0
M  V30 704 H 60.4281 -4.54998 1.87716 0
M  V30 705 N 62.0802 -0.821533 -1.34494 0
M  V30 706 C 63.3282 -0.408139 -1.97936 0
M  V30 707 C 63.6492 1.03193 -1.65457 0
M  V30 708 O 62.9192 1.71622 -0.944595 0
M  V30 709 H 61.4992 -0.147928 -0.732206 0
M  V30 710 H 64.1612 -1.05067 -1.64155 0
M  V30 711 H 63.2572 -0.52601 -3.07635 0
M  V30 712 N 63.5583 1.46682 -0.576371 0
M  V30 713 C 64.8053 2.02412 -0.0595339 0
M  V30 714 C 65.1333 1.44859 1.29793 0
M  V30 715 O 64.3883 0.601099 1.8624 0
M  V30 716 C 64.6873 3.57345 0.062886 0
M  V30 717 C 64.3533 4.33908 -1.22616 0
M  V30 718 C 63.0153 4.54544 -1.57933 0
M  V30 719 C 65.3673 4.77919 -2.07948 0
M  V30 720 C 62.6953 5.16444 -2.78393 0
M  V30 721 C 65.0473 5.41149 -3.27629 0
M  V30 722 C 63.7113 5.60014 -3.63236 0
M  V30 723 H 62.9813 0.74068 -0.021785 0
M  V30 724 H 65.6283 1.76128 -0.751735 0
M  V30 725 H 63.9333 3.82729 0.838178 0
M  V30 726 H 65.6303 3.98136 0.478439 0
M  V30 727 H 62.2203 4.18138 -0.941202 0
M  V30 728 H 66.4043 4.61738 -1.81967 0
M  V30 729 H 61.6603 5.29242 -3.06126 0
M  V30 730 H 65.8343 5.74211 -3.94023 0
M  V30 731 H 63.4613 6.07748 -4.56669 0
M  V30 732 N 65.0364 0.313813 1.54444 0
M  V30 733 C 66.2854 -0.292519 1.99568 0
M  V30 734 C 66.5984 -1.54011 1.20582 0
M  V30 735 O 67.8044 -2.22183 1.56035 0
M  V30 736 C 66.2604 -0.571752 3.55329 0
M  V30 737 C 65.8684 0.658229 4.43138 0
M  V30 738 C 67.6124 -1.13857 4.08946 0
M  V30 739 C 65.5194 0.351439 5.90355 0
M  V30 740 H 64.4494 -0.113079 0.745472 0
M  V30 741 H 67.1004 0.424518 1.78522 0
M  V30 742 H 65.4824 -1.34872 3.72325 0
M  V30 743 H 66.6564 1.43403 4.37918 0
M  V30 744 H 64.9714 1.14458 4.0036 0
M  V30 745 H 67.5684 -1.38257 5.16516 0
M  V30 746 H 67.9114 -2.08489 3.6033 0
M  V30 747 H 68.4444 -0.423015 3.95544 0
M  V30 748 H 65.1834 1.26667 6.43145 0
M  V30 749 H 64.7034 -0.386842 5.98551 0
M  V30 750 H 66.3824 -0.0423134 6.46986 0
M  V30 751 N 66.5145 -1.57545 0.0417849 0
M  V30 752 C 67.4615 -2.10977 -0.935805 0
M  V30 753 C 68.4315 -1.01486 -1.31491 0
M  V30 754 O 69.6165 -1.2898 -1.40602 0
M  V30 755 C 66.7565 -2.65169 -2.2086 0
M  V30 756 C 65.8695 -3.88714 -1.88482 0
M  V30 757 C 65.0045 -4.31254 -3.1015 0
M  V30 758 C 64.0435 -5.47524 -2.7365 0
M  V30 759 N 63.1805 -5.85162 -3.87982 0
M  V30 760 H 68.0205 -2.94218 -0.473249 0
M  V30 761 H 65.5575 -1.45415 -0.221981 0
M  V30 762 H 67.5155 -2.94685 -2.95325 0
M  V30 763 H 66.1455 -1.8474 -2.64709 0
M  V30 764 H 65.1975 -3.65849 -1.04205 0
M  V30 765 H 66.5095 -4.73245 -1.57608 0
M  V30 766 H 65.6635 -4.62273 -3.92923 0
M  V30 767 H 64.4025 -3.45516 -3.44195 0
M  V30 768 H 63.4075 -5.16187 -1.89291 0
M  V30 769 H 64.6325 -6.34971 -2.40807 0
M  V30 770 H 62.5785 -5.02377 -4.21846 0
M  V30 771 H 62.4955 -6.64362 -3.60775 0
M  V30 772 H 63.7635 -6.20791 -4.71422 0
M  V30 773 N 67.9926 0.231505 -1.5589 0
M  V30 774 C 69.2406 0.955461 -1.78088 0
M  V30 775 C 69.5616 1.85262 -0.608533 0
M  V30 776 O 68.8316 1.92277 0.375035 0
M  V30 777 H 67.4116 0.355787 -0.656829 0
M  V30 778 H 70.0736 0.245751 -1.93344 0
M  V30 779 H 69.1696 1.56814 -2.69844 0
M  V30 780 N 69.4707 1.49531 0.497807 0
M  V30 781 C 70.7007 1.62657 1.27382 0
M  V30 782 C 71.1087 0.298488 1.86831 0
M  V30 783 O 70.4517 -0.72647 1.68725 0
M  V30 784 C 70.5137 2.6393 2.44093 0
M  V30 785 C 70.1777 4.08195 2.05489 0
M  V30 786 C 71.1747 4.949 1.59279 0
M  V30 787 C 68.8597 4.53948 2.15026 0
M  V30 788 C 70.8537 6.25397 1.23113 0
M  V30 789 C 68.5407 5.84458 1.78473 0
M  V30 790 C 69.5387 6.70006 1.32591 0
M  V30 791 O 69.2267 7.98083 0.965327 0
M  V30 792 H 68.9587 0.550429 0.392434 0
M  V30 793 H 71.5127 1.96325 0.603801 0
M  V30 794 H 69.7427 2.25449 3.14181 0
M  V30 795 H 71.4317 2.66552 3.06113 0
M  V30 796 H 72.1977 4.60779 1.51354 0
M  V30 797 H 68.0767 3.87525 2.4969 0
M  V30 798 H 71.6207 6.92125 0.872299 0
M  V30 799 H 67.5177 6.18107 1.86048 0
M  V30 800 H 68.2857 8.11122 1.09652 0
M  V30 801 N 70.9488 -0.749086 1.3866 0
M  V30 802 C 71.8588 -1.89358 1.38494 0
M  V30 803 C 72.8748 -1.71708 0.281476 0
M  V30 804 O 74.0508 -1.94554 0.520643 0
M  V30 805 C 71.1158 -3.24782 1.21316 0
M  V30 806 C 70.1768 -3.54926 2.41508 0
M  V30 807 C 69.4098 -4.83888 2.2514 0
M  V30 808 O 69.6328 -5.56592 1.24746 0
M  V30 809 O 68.5668 -5.13612 3.13826 0
M  V30 810 H 72.3928 -1.92452 2.34938 0
M  V30 811 H 69.9778 -0.894981 1.19626 0
M  V30 812 H 71.8598 -4.05739 1.13814 0
M  V30 813 H 70.5348 -3.2249 0.279592 0
M  V30 814 H 69.4418 -2.74112 2.54585 0
M  V30 815 H 70.7748 -3.61983 3.3351 0
M  V30 816 N 72.4269 -1.23603 -0.977757 0
M  V30 817 C 73.8429 -0.999251 -1.24447 0
M  V30 818 C 74.0429 0.298053 -1.99283 0
M  V30 819 O 73.0989 1.01681 -2.31122 0
M  V30 820 C 74.4119 -2.20784 -2.04144 0
M  V30 821 C 75.9599 -2.25303 -2.17273 0
M  V30 822 C 76.4349 -3.45755 -3.00362 0
M  V30 823 N 77.9259 -3.4601 -3.07947 0
M  V30 824 C 78.6609 -4.35868 -3.72568 0
M  V30 825 N 78.1569 -5.35966 -4.38991 0
M  V30 826 N 79.9499 -4.23605 -3.6948 0
M  V30 827 H 72.1009 -2.06986 -0.476483 0
M  V30 828 H 74.3639 -0.907801 -0.273134 0
M  V30 829 H 74.0699 -3.14945 -1.56533 0
M  V30 830 H 73.9439 -2.22085 -3.04891 0
M  V30 831 H 76.3309 -1.3168 -2.64092 0
M  V30 832 H 76.4119 -2.28033 -1.15907 0
M  V30 833 H 76.0559 -4.39687 -2.5424 0
M  V30 834 H 75.9859 -3.40266 -4.01904 0
M  V30 835 H 78.4769 -2.73588 -2.60688 0
M  V30 836 H 78.7899 -6.00783 -4.86086 0
M  V30 837 H 77.1349 -5.39863 -4.37691 0
M  V30 838 H 80.3259 -3.44647 -3.16759 0
M  V30 839 H 80.4989 -4.93836 -4.1956 0
M  V30 840 N 73.905 1.17692 -1.04816 0
M  V30 841 C 75.151 1.88137 -0.75711 0
M  V30 842 C 75.484 1.80604 0.713841 0
M  V30 843 O 74.759 1.21146 1.52164 0
M  V30 844 C 75.042 3.38318 -1.2334 0
M  V30 845 C 74.895 3.54622 -2.76701 0
M  V30 846 C 76.214 4.32214 -0.829415 0
M  V30 847 H 73.333 0.683163 -0.27651 0
M  V30 848 H 75.975 1.38424 -1.30149 0
M  V30 849 H 74.125 3.80787 -0.770286 0
M  V30 850 H 75.797 3.21194 -3.31107 0
M  V30 851 H 74.04 2.97026 -3.16161 0
M  V30 852 H 74.711 4.60028 -3.05088 0
M  V30 853 H 77.187 3.97565 -1.22805 0
M  V30 854 H 76.063 5.35838 -1.19033 0
M  V30 855 H 76.324 4.41294 0.266891 0
M  V30 856 N 75.3831 0.828654 1.34056 0
M  V30 857 C 76.6601 0.341809 1.9259 0
M  V30 858 C 77.0401 -1.17158 1.75605 0
M  V30 859 O 76.3881 -1.98132 1.13824 0
M  V30 860 C 76.5981 0.777453 3.4023 0
M  V30 861 C 77.9461 0.779579 4.17382 0
M  V30 862 O 78.9701 0.7204 3.48839 0
M  V30 863 O 77.8291 0.857996 5.39723 0
M  V30 864 H 74.9231 0.0946085 0.821571 0
M  V30 865 H 77.4691 0.913827 1.42994 0
M  V30 866 H 76.2411 1.8196 3.46419 0
M  V30 867 H 75.8641 0.181444 3.97186 0
M  V30 868 N 76.8612 -1.46375 0.584142 0
M  V30 869 C 78.1072 -2.02678 0.0703716 0
M  V30 870 C 78.4402 -1.4545 -1.28678 0
M  V30 871 O 77.7152 -0.62014 -1.84349 0
M  V30 872 C 77.9982 -3.60099 0.00614674 0
M  V30 873 C 77.8512 -4.27709 1.3923 0
M  V30 874 C 79.1702 -4.34598 -0.693742 0
M  V30 875 H 76.2892 -0.736504 0.027047 0
M  V30 876 H 78.9312 -1.74501 0.751615 0
M  V30 877 H 77.0812 -3.84236 -0.574009 0
M  V30 878 H 78.7532 -4.14832 2.01773 0
M  V30 879 H 76.9962 -3.87016 1.95962 0
M  V30 880 H 77.6672 -5.36478 1.29982 0
M  V30 881 H 80.1432 -4.15615 -0.200869 0
M  V30 882 H 79.0192 -5.44318 -0.707714 0
M  V30 883 H 79.2802 -4.05759 -1.75533 0
M  V30 884 N 78.3393 -0.321999 -1.54275 0
M  V30 885 C 79.6163 0.335232 -1.92706 0
M  V30 886 C 79.9963 1.70006 -1.25145 0
M  V30 887 O 79.3443 2.25067 -0.394596 0
M  V30 888 C 79.5543 0.429008 -3.46353 0
M  V30 889 C 80.9023 0.690029 -4.18956 0
M  V30 890 O 81.9263 0.511992 -3.52501 0
M  V30 891 O 80.7853 1.03338 -5.36641 0
M  V30 892 H 77.8793 0.191143 -0.804608 0
M  V30 893 H 80.4253 -0.3716 -1.65581 0
M  V30 894 H 79.1973 -0.529611 -3.87699 0
M  V30 895 H 78.8203 1.18348 -3.79578 0
M  V30 896 N 79.8174 1.5752 -0.0501392 0
M  V30 897 C 81.0654 1.9227 0.622642 0
M  V30 898 C 81.3864 0.929083 1.71444 0
M  V30 899 O 80.6564 -0.0262186 1.95882 0
M  V30 900 H 79.2364 0.709739 0.232981 0
M  V30 901 H 81.8984 1.94628 -0.102898 0
M  V30 902 H 80.9944 2.93479 1.06191 0
M  V30 903 N 81.2955 -0.223234 1.56011 0
M  V30 904 C 82.2425 -1.27664 1.92277 0
M  V30 905 C 83.2125 -1.46659 0.779763 0
M  V30 906 O 84.3975 -1.60256 1.03551 0
M  V30 907 C 81.5375 -2.62234 2.24338 0
M  V30 908 C 80.6505 -2.51051 3.51564 0
M  V30 909 C 79.7855 -3.78133 3.7308 0
M  V30 910 C 78.8245 -3.61665 4.93827 0
M  V30 911 N 77.9615 -4.80693 5.11741 0
M  V30 912 H 82.8015 -0.960358 2.82101 0
M  V30 913 H 80.3385 -0.462901 1.39627 0
M  V30 914 H 82.2965 -3.40596 2.40936 0
M  V30 915 H 80.9265 -2.91961 1.3769 0
M  V30 916 H 79.9785 -1.64132 3.43169 0
M  V30 917 H 81.2905 -2.34803 4.40079 0
M  V30 918 H 80.4445 -4.64938 3.89766 0
M  V30 919 H 79.1835 -3.97304 2.82844 0
M  V30 920 H 78.1885 -2.73244 4.77093 0
M  V30 921 H 79.4135 -3.43966 5.85546 0
M  V30 922 H 77.3595 -5.00181 4.24446 0
M  V30 923 H 77.2765 -4.67165 5.94384 0
M  V30 924 H 78.5445 -5.6893 5.3286 0
M  V30 925 N 82.7736 -1.49793 -0.48987 0
M  V30 926 C 84.1846 -1.52914 -1.07118 0
M  V30 927 C 84.5356 -0.321738 -1.93544 0
M  V30 928 O 83.6606 0.567338 -2.08831 0
M  V30 929 C 84.2556 -2.771 -1.94938 0
M  V30 930 C 82.8146 -2.82963 -2.48212 0
M  V30 931 C 81.9616 -2.46972 -1.26096 0
M  V30 932 H 84.9126 -1.56329 -0.273289 0
M  V30 933 H 84.9336 -2.57892 -2.79771 0
M  V30 934 H 84.4456 -3.64959 -1.32009 0
M  V30 935 H 82.5466 -1.99411 -3.14748 0
M  V30 936 H 82.6596 -3.85406 -2.84603 0
M  V30 937 H 81.0236 -1.98994 -1.58976 0
M  V30 938 H 81.8066 -3.37118 -0.648581 0
M  V30 939 N 84.2517 0.741722 -1.39055 0
M  V30 940 C 85.4817 1.52876 -1.3897 0
M  V30 941 C 85.8897 1.8919 0.0193266 0
M  V30 942 O 85.2327 1.54138 0.999356 0
M  V30 943 C 85.2947 2.84929 -2.19216 0
M  V30 944 C 84.9587 2.71086 -3.67915 0
M  V30 945 C 85.9557 2.40084 -4.61146 0
M  V30 946 C 83.6407 2.88168 -4.11418 0
M  V30 947 C 85.6347 2.26335 -5.95862 0
M  V30 948 C 83.3217 2.74037 -5.46211 0
M  V30 949 C 84.3197 2.43166 -6.38247 0
M  V30 950 O 84.0077 2.29115 -7.70559 0
M  V30 951 H 83.7397 0.479252 -0.476753 0
M  V30 952 H 86.2937 0.924751 -1.83405 0
M  V30 953 H 84.5237 3.47564 -1.69518 0
M  V30 954 H 86.2127 3.46509 -2.11392 0
M  V30 955 H 86.9787 2.26545 -4.28838 0
M  V30 956 H 82.8577 3.11191 -3.40119 0
M  V30 957 H 86.4017 2.0216 -6.67665 0
M  V30 958 H 82.2987 2.87153 -5.78112 0
M  V30 959 H 83.0667 2.44237 -7.81211 0
M  V30 960 N 85.7298 1.2412 0.971189 0
M  V30 961 C 86.6598 1.05508 2.08304 0
M  V30 962 C 87.6408 -0.0308864 1.70072 0
M  V30 963 O 88.8258 0.135521 1.93727 0
M  V30 964 C 85.9558 0.655365 3.4106 0
M  V30 965 C 84.9098 1.68971 3.93234 0
M  V30 966 C 84.2358 1.14516 5.22293 0
M  V30 967 C 85.5358 3.08487 4.21465 0
M  V30 968 H 87.2298 1.98507 2.24132 0
M  V30 969 H 84.7758 0.955821 1.07704 0
M  V30 970 H 86.7288 0.51217 4.18276 0
M  V30 971 H 85.4528 -0.31032 3.25122 0
M  V30 972 H 84.1118 1.82106 3.18171 0
M  V30 973 H 83.7598 0.170189 5.02712 0
M  V30 974 H 83.4598 1.83635 5.58168 0
M  V30 975 H 84.9838 1.01401 6.02121 0
M  V30 976 H 86.3978 2.98601 4.89398 0
M  V30 977 H 84.7948 3.74926 4.68562 0
M  V30 978 H 85.8648 3.56787 3.28376 0
M  V30 979 N 87.2079 -1.17134 1.05439 0
M  V30 980 C 88.6239 -1.39454 0.776201 0
M  V30 981 C 88.8239 -1.91454 -0.628307 0
M  V30 982 O 87.8799 -2.10777 -1.39031 0
M  V30 983 C 89.1929 -2.38305 1.83388 0
M  V30 984 C 90.7409 -2.52006 1.85639 0
M  V30 985 C 91.2159 -3.54133 2.90437 0
M  V30 986 N 92.7069 -3.61653 2.89415 0
M  V30 987 C 93.4419 -4.4044 3.67152 0
M  V30 988 N 92.9379 -5.22721 4.54681 0
M  V30 989 N 94.7309 -4.35337 3.55581 0
M  V30 990 H 86.8819 -0.817134 1.96053 0
M  V30 991 H 89.1449 -0.421626 0.849079 0
M  V30 992 H 88.8509 -2.07173 2.84204 0
M  V30 993 H 88.7249 -3.37841 1.67761 0
M  V30 994 H 91.1119 -2.82447 0.85486 0
M  V30 995 H 91.1929 -1.52537 2.05344 0
M  V30 996 H 90.8369 -3.24431 3.90777 0
M  V30 997 H 90.7669 -4.53313 2.67983 0
M  V30 998 H 93.2579 -3.02909 2.25952 0
M  V30 999 H 93.5709 -5.80027 5.10674 0
M  V30 1000 H 91.9159 -5.22093 4.58741 0
M  V30 1001 H 95.1069 -3.70112 2.86592 0
M  V30 1002 H 95.2799 -4.96494 4.1641 0
M  V30 1003 N 88.686 -0.835752 -1.33615 0
M  V30 1004 C 89.932 -0.430596 -1.98176 0
M  V30 1005 C 90.265 1.00684 -1.66061 0
M  V30 1006 O 89.54 1.70339 -0.938877 0
M  V30 1007 C 89.823 -0.648065 -3.5422 0
M  V30 1008 C 89.676 -2.13255 -3.96033 0
M  V30 1009 C 90.995 -0.0922113 -4.40003 0
M  V30 1010 H 88.114 -0.157924 -0.719881 0
M  V30 1011 H 90.756 -1.05069 -1.58305 0
M  V30 1012 H 88.906 -0.120237 -3.88314 0
M  V30 1013 H 90.578 -2.725 -3.72211 0
M  V30 1014 H 88.821 -2.61823 -3.45878 0
M  V30 1015 H 89.492 -2.23547 -5.04708 0
M  V30 1016 H 91.968 -0.543343 -4.12537 0
M  V30 1017 H 90.844 -0.274083 -5.48215 0
M  V30 1018 H 91.105 1.00378 -4.30554 0
M  V30 1019 N 90.1641 1.46063 -0.591896 0
M  V30 1020 C 91.3941 2.06418 -0.0867676 0
M  V30 1021 C 91.8021 1.43975 1.22751 0
M  V30 1022 O 91.1451 0.542531 1.75506 0
M  V30 1023 C 91.2071 3.59213 0.143725 0
M  V30 1024 C 90.8711 4.439 -1.08635 0
M  V30 1025 C 91.8681 4.79864 -2.00067 0
M  V30 1026 C 89.5531 4.84896 -1.31077 0
M  V30 1027 C 91.5471 5.55661 -3.12282 0
M  V30 1028 C 89.2341 5.6045 -2.43596 0
M  V30 1029 C 90.2321 5.95747 -3.34027 0
M  V30 1030 O 89.9201 6.69772 -4.4459 0
M  V30 1031 H 89.6521 0.673443 -0.0587447 0
M  V30 1032 H 92.2061 1.88539 -0.814994 0
M  V30 1033 H 90.4361 3.75433 0.926668 0
M  V30 1034 H 92.1251 4.01463 0.5985 0
M  V30 1035 H 92.8911 4.48763 -1.83947 0
M  V30 1036 H 88.7701 4.56867 -0.61594 0
M  V30 1037 H 92.3141 5.8313 -3.82891 0
M  V30 1038 H 88.2111 5.90965 -2.59674 0
M  V30 1039 H 88.9791 6.88207 -4.43073 0
M  V30 1040 N 91.6422 0.330177 1.54103 0
M  V30 1041 C 92.5722 -0.525353 2.27513 0
M  V30 1042 C 93.5532 -1.11383 1.2856 0
M  V30 1043 O 94.7382 -1.13773 1.57383 0
M  V30 1044 C 91.8682 -1.6831 3.03791 0
M  V30 1045 C 90.8222 -1.2236 4.10137 0
M  V30 1046 C 90.1482 -2.46882 4.74293 0
M  V30 1047 C 91.4482 -0.333697 5.21233 0
M  V30 1048 H 93.1422 0.087013 2.99274 0
M  V30 1049 H 90.6882 0.0432893 1.43935 0
M  V30 1050 H 92.6412 -2.28795 3.5388 0
M  V30 1051 H 91.3652 -2.32216 2.29659 0
M  V30 1052 H 90.0242 -0.64165 3.60941 0
M  V30 1053 H 89.6722 -3.09165 3.96769 0
M  V30 1054 H 89.3722 -2.16825 5.46133 0
M  V30 1055 H 90.8962 -3.08117 5.27159 0
M  V30 1056 H 92.3102 -0.845013 5.67038 0
M  V30 1057 H 90.7072 -0.125612 5.99969 0
M  V30 1058 H 91.7772 0.633724 4.80741 0
M  V30 1059 N 93.1203 -1.57491 0.0584922 0
M  V30 1060 C 94.0673 -2.11958 -0.913376 0
M  V30 1061 C 95.0373 -1.02875 -1.30407 0
M  V30 1062 O 96.2223 -1.30464 -1.39226 0
M  V30 1063 C 93.3623 -2.67497 -2.18035 0
M  V30 1064 C 92.4753 -3.90691 -1.84349 0
M  V30 1065 C 91.6103 -4.3452 -3.05559 0
M  V30 1066 C 90.6493 -5.50395 -2.67827 0
M  V30 1067 N 89.7863 -5.89244 -3.81754 0
M  V30 1068 H 94.6263 -2.94704 -0.442017 0
M  V30 1069 H 92.1633 -1.45643 -0.206545 0
M  V30 1070 H 94.1213 -2.978 -2.92183 0
M  V30 1071 H 92.7513 -1.87537 -2.62735 0
M  V30 1072 H 91.8033 -3.66934 -1.00319 0
M  V30 1073 H 93.1153 -4.7489 -1.5258 0
M  V30 1074 H 92.2693 -4.66414 -3.87998 0
M  V30 1075 H 91.0083 -3.49147 -3.40511 0
M  V30 1076 H 90.0133 -5.18165 -1.83806 0
M  V30 1077 H 91.2383 -6.3749 -2.34059 0
M  V30 1078 H 89.1843 -5.06823 -4.16493 0
M  V30 1079 H 89.1013 -6.68151 -3.53708 0
M  V30 1080 H 90.3693 -6.25756 -4.64811 0
M  V30 1081 N 94.5984 0.214957 -1.56127 0
M  V30 1082 C 95.8284 0.953707 -1.8327 0
M  V30 1083 C 96.2364 1.78181 -0.636262 0
M  V30 1084 O 95.5794 1.79191 0.404516 0
M  V30 1085 C 95.6414 1.91516 -3.0424 0
M  V30 1086 C 95.3054 1.27094 -4.38972 0
M  V30 1087 C 96.3024 0.657575 -5.15725 0
M  V30 1088 C 93.9874 1.28073 -4.85698 0
M  V30 1089 C 95.9814 0.0625968 -6.37369 0
M  V30 1090 C 93.6684 0.681914 -6.07283 0
M  V30 1091 C 94.6664 0.0739046 -6.8296 0
M  V30 1092 O 94.3544 -0.515582 -8.02245 0
M  V30 1093 H 94.0864 0.284764 -0.613095 0
M  V30 1094 H 96.6404 0.233283 -2.04071 0
M  V30 1095 H 94.8704 2.67475 -2.79274 0
M  V30 1096 H 96.5594 2.52001 -3.18198 0
M  V30 1097 H 97.3254 0.642288 -4.80728 0
M  V30 1098 H 93.2044 1.74337 -4.26764 0
M  V30 1099 H 96.7484 -0.412593 -6.96379 0
M  V30 1100 H 92.6454 0.694636 -6.41752 0
M  V30 1101 H 93.4134 -0.410544 -8.1747 0
M  V30 1102 N 96.0765 1.50051 0.48192 0
M  V30 1103 C 97.3245 1.60181 1.23234 0
M  V30 1104 C 97.6455 0.299176 1.92691 0
M  V30 1105 O 96.9155 -0.682708 1.83619 0
M  V30 1106 H 95.4955 0.590232 0.457859 0
M  V30 1107 H 98.1575 1.86775 0.556881 0
M  V30 1108 H 97.2535 2.40753 1.98607 0
M  V30 1109 N 97.5546 -0.734337 1.39446 0
M  V30 1110 C 98.9656 -1.31264 1.32766 0
M  V30 1111 C 99.3166 -1.96198 -0.00767497 0
M  V30 1112 O 98.4416 -1.96346 -0.909796 0
M  V30 1113 C 99.0366 -2.38682 2.4045 0
M  V30 1114 C 97.5956 -2.92184 2.37288 0
M  V30 1115 C 96.7426 -1.6576 2.22304 0
M  V30 1116 H 99.6936 -0.531799 1.49525 0
M  V30 1117 H 99.7146 -3.19087 2.07276 0
M  V30 1118 H 99.2266 -1.91392 3.37625 0
M  V30 1119 H 97.3276 -3.43752 1.43754 0
M  V30 1120 H 97.4406 -3.45253 3.3217 0
M  V30 1121 H 95.8046 -1.9012 1.69489 0
M  V30 1122 H 96.5876 -1.20521 3.21449 0
M  V30 1123 N 99.0327 -1.24633 -0.964593 0
M  V30 1124 C 100.449 -1.01239 -1.2338 0
M  V30 1125 C 100.649 0.2769 -1.99588 0
M  V30 1126 O 99.7047 0.992241 -2.32187 0
M  V30 1127 C 101.018 -2.22937 -2.01791 0
M  V30 1128 C 102.566 -2.27594 -2.14872 0
M  V30 1129 C 103.041 -3.48921 -2.96678 0
M  V30 1130 N 104.532 -3.49257 -3.04259 0
M  V30 1131 C 105.267 -4.39795 -3.67924 0
M  V30 1132 N 104.763 -5.40591 -4.33281 0
M  V30 1133 N 106.556 -4.275 -3.64966 0
M  V30 1134 H 98.7067 -2.0748 -0.454502 0
M  V30 1135 H 100.97 -0.910647 -0.26349 0
M  V30 1136 H 100.676 -3.16587 -1.53184 0
M  V30 1137 H 100.55 -2.25306 -3.02518 0
M  V30 1138 H 102.937 -1.34473 -2.6268 0
M  V30 1139 H 103.018 -2.2925 -1.13482 0
M  V30 1140 H 102.662 -4.42359 -2.49562 0
M  V30 1141 H 102.592 -3.4451 -3.98272 0
M  V30 1142 H 105.083 -2.76337 -2.57771 0
M  V30 1143 H 105.396 -6.05904 -4.79687 0
M  V30 1144 H 103.741 -5.44475 -4.3194 0
M  V30 1145 H 106.932 -3.47987 -3.13086 0
M  V30 1146 H 107.105 -4.98258 -4.14298 0
M  V30 1147 N 100.511 1.16574 -1.06058 0
M  V30 1148 C 101.927 1.3904 -0.783585 0
M  V30 1149 C 102.127 1.91784 0.618145 0
M  V30 1150 O 101.183 2.11511 1.37911 0
M  V30 1151 C 102.496 2.37329 -1.84649 0
M  V30 1152 C 104.044 2.51018 -1.86973 0
M  V30 1153 C 104.519 3.52588 -2.92311 0
M  V30 1154 N 106.01 3.60113 -2.91329 0
M  V30 1155 C 106.745 4.38486 -3.69482 0
M  V30 1156 N 106.241 5.20302 -4.57447 0
M  V30 1157 N 108.034 4.33446 -3.57885 0
M  V30 1158 H 100.185 0.806725 -1.96483 0
M  V30 1159 H 102.448 0.417117 -0.851303 0
M  V30 1160 H 102.154 2.05663 -2.85299 0
M  V30 1161 H 102.028 3.36946 -1.6955 0
M  V30 1162 H 104.415 2.81989 -0.869827 0
M  V30 1163 H 104.496 1.51445 -2.0615 0
M  V30 1164 H 104.14 3.22354 -3.92492 0
M  V30 1165 H 104.07 4.51886 -2.70383 0
M  V30 1166 H 106.561 3.01707 -2.27555 0
M  V30 1167 H 106.874 5.77311 -5.13743 0
M  V30 1168 H 105.219 5.19653 -4.61503 0
M  V30 1169 H 108.41 3.68586 -2.88551 0
M  V30 1170 H 108.583 4.94279 -4.19037 0
M  V30 1171 N 101.989 0.842826 1.3317 0
M  V30 1172 C 102.921 0.236245 2.27979 0
M  V30 1173 C 103.934 -0.585282 1.51915 0
M  V30 1174 O 105.123 -0.411705 1.73687 0
M  V30 1175 C 102.223 -0.685717 3.3189 0
M  V30 1176 C 101.396 0.0973448 4.37292 0
M  V30 1177 C 100.455 -0.748565 5.20848 0
M  V30 1178 O 99.4809 -0.186339 5.68895 0
M  V30 1179 N 100.683 -2.06527 5.42519 0
M  V30 1180 H 103.448 1.05088 2.80672 0
M  V30 1181 H 101.009 0.701667 1.45905 0
M  V30 1182 H 103.001 -1.25669 3.84694 0
M  V30 1183 H 101.571 -1.40105 2.79445 0
M  V30 1184 H 100.791 0.849706 3.84933 0
M  V30 1185 H 102.079 0.635643 5.04814 0
M  V30 1186 H 101.477 -2.54554 5.05192 0
M  V30 1187 H 100.034 -2.58464 5.98364 0
M  V30 1188 N 103.467 -1.45747 0.599634 0
M  V30 1189 C 104.715 -2.01893 0.0915472 0
M  V30 1190 C 105.036 -1.47155 -1.27946 0
M  V30 1191 O 104.306 -0.66273 -1.84349 0
M  V30 1192 H 102.886 -0.746363 0.0308524 0
M  V30 1193 H 105.548 -1.78645 0.779237 0
M  V30 1194 H 104.644 -3.1208 0.0353086 0
M  V30 1195 N 104.945 -0.338344 -1.53925 0
M  V30 1196 C 106.356 0.146651 -1.86123 0
M  V30 1197 C 106.707 1.5042 -1.2597 0
M  V30 1198 O 105.832 2.08723 -0.571294 0
M  V30 1199 C 106.427 0.272879 -3.37699 0
M  V30 1200 C 104.986 0.702103 -3.69794 0
M  V30 1201 C 104.133 -0.167304 -2.76795 0
M  V30 1202 H 107.084 -0.558123 -1.48562 0
M  V30 1203 H 107.105 1.10128 -3.64214 0
M  V30 1204 H 106.617 -0.715307 -3.81451 0
M  V30 1205 H 104.718 1.6995 -3.31584 0
M  V30 1206 H 104.831 0.495604 -4.7653 0
M  V30 1207 H 103.195 0.359527 -2.5215 0
M  V30 1208 H 103.978 -1.15253 -3.23375 0
M  V30 1209 N 106.423 1.57458 -0.0668435 0
M  V30 1210 C 107.7 1.8469 0.644132 0
M  V30 1211 C 108.08 0.958343 1.88093 0
M  V30 1212 O 107.428 0.0233579 2.28488 0
M  V30 1213 C 107.638 3.34767 0.986509 0
M  V30 1214 C 108.986 4.02159 1.36212 0
M  V30 1215 O 110.01 3.39484 1.07839 0
M  V30 1216 O 108.869 5.12694 1.89227 0
M  V30 1217 H 105.963 0.762816 0.319437 0
M  V30 1218 H 108.509 1.6942 -0.0973986 0
M  V30 1219 H 107.281 3.91151 0.107883 0
M  V30 1220 H 106.904 3.55281 1.78497 0
M  V30 1221 N 107.901 -0.206675 1.56239 0
M  V30 1222 C 109.312 -0.772383 1.69974 0
M  V30 1223 C 109.663 -1.84353 0.671436 0
M  V30 1224 O 108.788 -2.15695 -0.174491 0
M  V30 1225 C 109.383 -1.40779 3.08167 0
M  V30 1226 C 107.942 -1.92072 3.23706 0
M  V30 1227 C 107.089 -0.786347 2.65917 0
M  V30 1228 H 110.04 0.0182223 1.5869 0
M  V30 1229 H 110.061 -2.27696 3.04852 0
M  V30 1230 H 109.573 -0.627958 3.82986 0
M  V30 1231 H 107.674 -2.7281 2.53782 0
M  V30 1232 H 107.787 -2.09046 4.31087 0
M  V30 1233 H 106.151 -1.1976 2.24788 0
M  V30 1234 H 106.934 -0.0189416 3.43295 0
M  V30 1235 N 109.379 -1.50304 -0.473955 0
M  V30 1236 C 110.795 -1.37667 -0.807466 0
M  V30 1237 C 110.995 -0.430555 -1.96846 0
M  V30 1238 O 110.051 0.127874 -2.52176 0
M  V30 1239 C 111.364 -2.78974 -1.12223 0
M  V30 1240 C 112.912 -2.87868 -1.22885 0
M  V30 1241 C 113.387 -4.30003 -1.57676 0
M  V30 1242 N 114.878 -4.3294 -1.64673 0
M  V30 1243 C 115.613 -5.3991 -1.93091 0
M  V30 1244 N 115.109 -6.57092 -2.1955 0
M  V30 1245 N 116.902 -5.27351 -1.94569 0
M  V30 1246 H 109.053 -2.10394 0.291212 0
M  V30 1247 H 111.316 -0.945575 0.0677609 0
M  V30 1248 H 111.022 -3.50031 -0.342229 0
M  V30 1249 H 110.896 -3.16038 -2.05913 0
M  V30 1250 H 113.283 -2.17032 -1.99953 0
M  V30 1251 H 113.364 -2.54352 -0.271814 0
M  V30 1252 H 113.008 -5.01375 -0.81149 0
M  V30 1253 H 112.938 -4.61004 -2.54525 0
M  V30 1254 H 115.429 -3.48441 -1.46277 0
M  V30 1255 H 115.742 -7.34425 -2.405 0
M  V30 1256 H 114.087 -6.60272 -2.16948 0
M  V30 1257 H 117.278 -4.34801 -1.73394 0
M  V30 1258 H 117.451 -6.10805 -2.16381 0
M  V30 1259 N 110.857 0.726932 -1.39834 0
M  V30 1260 C 112.268 1.30558 -1.3346 0
M  V30 1261 C 112.619 1.962 -0.00273003 0
M  V30 1262 O 111.744 1.96826 0.899371 0
M  V30 1263 C 112.339 2.37404 -2.41713 0
M  V30 1264 C 110.898 2.90921 -2.38835 0
M  V30 1265 C 110.045 1.64578 -2.2318 0
M  V30 1266 H 112.996 0.523862 -1.49804 0
M  V30 1267 H 113.017 3.17984 -2.08966 0
M  V30 1268 H 112.529 1.89599 -3.38635 0
M  V30 1269 H 110.63 3.42985 -1.45575 0
M  V30 1270 H 110.743 3.43487 -3.33997 0
M  V30 1271 H 109.107 1.89219 -1.70494 0
M  V30 1272 H 109.89 1.18814 -3.22084 0
M  V30 1273 N 112.336 1.25143 0.95797 0
M  V30 1274 C 113.246 1.06968 2.08794 0
M  V30 1275 C 114.262 0.00773911 1.73998 0
M  V30 1276 O 115.438 0.207972 2.00323 0
M  V30 1277 C 112.503 0.68691 3.39827 0
M  V30 1278 C 111.564 1.82641 3.88511 0
M  V30 1279 C 110.797 1.46181 5.1329 0
M  V30 1280 O 111.02 0.355971 5.69288 0
M  V30 1281 O 109.954 2.29085 5.566 0
M  V30 1282 H 113.78 2.01723 2.27027 0
M  V30 1283 H 111.365 1.04051 1.07209 0
M  V30 1284 H 113.247 0.485417 4.18595 0
M  V30 1285 H 111.922 -0.231417 3.22872 0
M  V30 1286 H 110.829 2.08274 3.10762 0
M  V30 1287 H 112.162 2.72386 4.09959 0
M  V30 1288 N 113.814 -1.1601 1.06675 0
M  V30 1289 C 114.746 -2.20115 0.638921 0
M  V30 1290 C 115.759 -1.59916 -0.305057 0
M  V30 1291 O 116.948 -1.78245 -0.0954446 0
M  V30 1292 C 114.048 -3.38798 -0.0830083 0
M  V30 1293 C 113.221 -4.2855 0.875426 0
M  V30 1294 C 112.28 -5.25849 0.192042 0
M  V30 1295 O 111.306 -5.63102 0.830921 0
M  V30 1296 N 112.508 -5.70648 -1.06493 0
M  V30 1297 H 115.273 -2.57439 1.53444 0
M  V30 1298 H 112.834 -1.31057 0.950557 0
M  V30 1299 H 114.826 -4.00936 -0.550685 0
M  V30 1300 H 113.396 -2.99947 -0.880386 0
M  V30 1301 H 112.616 -3.63617 1.52238 0
M  V30 1302 H 113.904 -4.85393 1.52548 0
M  V30 1303 H 113.302 -5.42482 -1.60405 0
M  V30 1304 H 111.859 -6.34859 -1.47641 0
M  V30 1305 N 115.292 -0.849877 -1.32721 0
M  V30 1306 C 116.538 -0.451591 -1.97708 0
M  V30 1307 C 116.871 0.989175 -1.6712 0
M  V30 1308 O 116.146 1.69334 -0.956891 0
M  V30 1309 C 116.429 -0.685598 -3.53513 0
M  V30 1310 C 116.282 -2.17444 -3.93749 0
M  V30 1311 C 117.601 -0.138874 -4.39881 0
M  V30 1312 H 114.72 -0.16555 -0.718166 0
M  V30 1313 H 117.362 -1.06742 -1.57182 0
M  V30 1314 H 115.512 -0.161416 -3.88165 0
M  V30 1315 H 117.184 -2.76433 -3.693 0
M  V30 1316 H 115.427 -2.65476 -3.43081 0
M  V30 1317 H 116.098 -2.28888 -5.02309 0
M  V30 1318 H 118.574 -0.587068 -4.11938 0
M  V30 1319 H 117.45 -0.332213 -5.47894 0
M  V30 1320 H 117.711 0.95806 -4.31594 0
M  V30 1321 N 116.77 1.45427 -0.607355 0
M  V30 1322 C 118.019 2.01452 -0.100036 0
M  V30 1323 C 118.332 1.48159 1.27704 0
M  V30 1324 O 119.538 1.96159 1.87707 0
M  V30 1325 C 117.994 3.59672 -0.128158 0
M  V30 1326 C 117.602 4.21962 -1.50507 0
M  V30 1327 C 119.346 4.23262 0.323932 0
M  V30 1328 C 117.253 5.72333 -1.48959 0
M  V30 1329 H 116.183 0.75325 -0.0336299 0
M  V30 1330 H 118.834 1.66901 -0.76265 0
M  V30 1331 H 117.216 3.91411 0.601105 0
M  V30 1332 H 118.39 4.01796 -2.25602 0
M  V30 1333 H 116.705 3.70565 -1.89923 0
M  V30 1334 H 119.302 5.33522 0.354691 0
M  V30 1335 H 119.645 3.93921 1.34656 0
M  V30 1336 H 120.178 3.96239 -0.352056 0
M  V30 1337 H 116.917 6.06373 -2.48981 0
M  V30 1338 H 116.437 5.94691 -0.781214 0
M  V30 1339 H 118.116 6.35525 -1.21313 0
M  V30 1340 N 118.248 0.346503 1.53744 0
M  V30 1341 C 119.198 -0.524953 2.21874 0
M  V30 1342 C 120.182 -1.06376 1.20718 0
M  V30 1343 O 121.374 -0.996972 1.46251 0
M  V30 1344 C 118.503 -1.6739 2.99726 0
M  V30 1345 C 117.589 -1.14888 4.08242 0
M  V30 1346 N 117.98 -0.345329 5.0462 0
M  V30 1347 C 116.278 -1.4255 4.22606 0
M  V30 1348 C 116.979 -0.0600706 5.81669 0
M  V30 1349 N 115.955 -0.65252 5.39669 0
M  V30 1350 H 119.757 0.0960091 2.93743 0
M  V30 1351 H 117.271 0.15352 1.61673 0
M  V30 1352 H 119.268 -2.3102 3.47038 0
M  V30 1353 H 117.928 -2.29811 2.29384 0
M  V30 1354 H 118.939 0.0138439 5.17898 0
M  V30 1355 H 115.616 -2.05389 3.63486 0
M  V30 1356 H 117.006 0.588321 6.69319 0
M  V30 1357 N 119.726 -1.57421 0.075193 0
M  V30 1358 C 120.676 -2.09441 -0.901025 0
M  V30 1359 C 121.66 -1.00486 -1.25663 0
M  V30 1360 O 122.852 -1.2679 -1.23504 0
M  V30 1361 C 119.981 -2.66233 -2.16737 0
M  V30 1362 C 119.067 -3.82198 -1.83808 0
M  V30 1363 N 119.458 -4.91028 -1.21345 0
M  V30 1364 C 117.756 -3.91558 -2.13538 0
M  V30 1365 C 118.457 -5.71852 -1.06585 0
M  V30 1366 N 117.433 -5.20233 -1.57667 0
M  V30 1367 H 121.235 -2.90972 -0.413815 0
M  V30 1368 H 118.749 -1.6189 -0.128601 0
M  V30 1369 H 120.746 -3.01819 -2.87595 0
M  V30 1370 H 119.406 -1.8615 -2.66042 0
M  V30 1371 H 120.417 -5.10323 -0.88268 0
M  V30 1372 H 117.094 -3.22454 -2.65197 0
M  V30 1373 H 118.484 -6.69401 -0.578933 0
M  V30 1374 N 121.204 0.198386 -1.56346 0
M  V30 1375 C 122.453 0.917451 -1.79627 0
M  V30 1376 C 122.766 1.8456 -0.64784 0
M  V30 1377 O 123.972 2.60504 -0.764859 0
M  V30 1378 C 122.428 1.68175 -3.18191 0
M  V30 1379 C 122.036 0.798589 -4.40825 0
M  V30 1380 C 123.78 2.39065 -3.50782 0
M  V30 1381 C 121.687 1.56157 -5.70411 0
M  V30 1382 H 120.617 0.346317 -0.669762 0
M  V30 1383 H 123.268 0.170801 -1.82703 0
M  V30 1384 H 121.65 2.47216 -3.09354 0
M  V30 1385 H 122.824 0.0470665 -4.60776 0
M  V30 1386 H 121.139 0.200686 -4.15916 0
M  V30 1387 H 123.736 2.96692 -4.44835 0
M  V30 1388 H 124.079 3.13091 -2.74371 0
M  V30 1389 H 124.612 1.66993 -3.61052 0
M  V30 1390 H 121.351 0.864142 -6.49779 0
M  V30 1391 H 120.871 2.2871 -5.54483 0
M  V30 1392 H 122.55 2.11622 -6.11412 0
M  V30 1393 N 122.682 1.50554 0.465978 0
M  V30 1394 C 124.098 1.38093 0.800154 0
M  V30 1395 C 124.298 0.440988 1.96615 0
M  V30 1396 O 123.354 -0.114499 2.5224 0
M  V30 1397 C 124.667 2.79565 1.10742 0
M  V30 1398 C 126.215 2.88516 1.21357 0
M  V30 1399 C 126.69 4.30833 1.55393 0
M  V30 1400 N 128.181 4.33807 1.62375 0
M  V30 1401 C 128.916 5.40927 1.90225 0
M  V30 1402 N 128.412 6.58247 2.16062 0
M  V30 1403 N 130.205 5.28376 1.9177 0
M  V30 1404 H 122.356 2.10237 -0.302366 0
M  V30 1405 H 124.619 0.945203 -0.0727746 0
M  V30 1406 H 124.325 3.50208 0.323661 0
M  V30 1407 H 124.199 3.17125 2.04234 0
M  V30 1408 H 126.586 2.1809 1.98799 0
M  V30 1409 H 126.667 2.54492 0.258321 0
M  V30 1410 H 126.311 5.01799 0.784889 0
M  V30 1411 H 126.241 4.62347 2.52076 0
M  V30 1412 H 128.732 3.49212 1.44427 0
M  V30 1413 H 129.045 7.3569 2.36601 0
M  V30 1414 H 127.39 6.61413 2.13444 0
M  V30 1415 H 130.581 4.35715 1.71085 0
M  V30 1416 H 130.754 6.11944 2.13139 0
M  V30 1417 N 124.16 -0.719506 1.40217 0
M  V30 1418 C 125.576 -1.02707 1.22161 0
M  V30 1419 C 125.776 -2.0128 0.0940557 0
M  V30 1420 O 124.832 -2.46452 -0.549318 0
M  V30 1421 C 126.145 -1.57454 2.56181 0
M  V30 1422 C 127.693 -1.69458 2.63159 0
M  V30 1423 C 128.168 -2.27611 3.97438 0
M  V30 1424 N 129.659 -2.35002 3.99159 0
M  V30 1425 C 130.394 -2.80972 4.99842 0
M  V30 1426 N 129.89 -3.26723 6.10921 0
M  V30 1427 N 131.683 -2.80321 4.87213 0
M  V30 1428 H 123.834 -0.0660492 2.12297 0
M  V30 1429 H 126.097 -0.0919077 0.943534 0
M  V30 1430 H 125.803 -0.924873 3.39321 0
M  V30 1431 H 125.677 -2.56036 2.76993 0
M  V30 1432 H 128.064 -2.33543 1.80393 0
M  V30 1433 H 128.145 -0.694867 2.46181 0
M  V30 1434 H 127.789 -1.6415 4.80643 0
M  V30 1435 H 127.719 -3.2829 4.11744 0
M  V30 1436 H 130.21 -2.02685 3.18947 0
M  V30 1437 H 130.523 -3.60355 6.8364 0
M  V30 1438 H 128.868 -3.24692 6.14492 0
M  V30 1439 H 132.059 -2.43912 3.9953 0
M  V30 1440 H 132.232 -3.15831 5.65822 0
M  V30 1441 N 125.638 -1.25649 -0.95132 0
M  V30 1442 C 126.887 -1.09988 -1.69073 0
M  V30 1443 C 127.2 0.358355 -1.92289 0
M  V30 1444 O 128.406 0.635466 -2.63958 0
M  V30 1445 C 126.862 -1.92012 -3.044 0
M  V30 1446 C 126.47 -3.42347 -2.88968 0
M  V30 1447 C 128.214 -1.8493 -3.82101 0
M  V30 1448 C 126.121 -4.16655 -4.19705 0
M  V30 1449 H 125.051 -0.407993 -0.63408 0
M  V30 1450 H 127.702 -1.49873 -1.05879 0
M  V30 1451 H 126.084 -1.44952 -3.68517 0
M  V30 1452 H 127.258 -3.97104 -2.33762 0
M  V30 1453 H 125.573 -3.50557 -2.24719 0
M  V30 1454 H 128.17 -2.37739 -4.78941 0
M  V30 1455 H 128.513 -0.817883 -4.08187 0
M  V30 1456 H 129.046 -2.29758 -3.2474 0
M  V30 1457 H 125.785 -5.20224 -3.98807 0
M  V30 1458 H 125.305 -3.66681 -4.74663 0
M  V30 1459 H 126.984 -4.24551 -4.88227 0
M  V30 1460 N 127.117 1.15442 -1.07289 0
M  V30 1461 C 128.342 1.90638 -0.816828 0
M  V30 1462 C 128.767 1.77445 0.624083 0
M  V30 1463 O 128.125 1.10671 1.43602 0
M  V30 1464 C 128.173 3.39008 -1.22906 0
M  V30 1465 O 127.277 4.10701 -0.373975 0
M  V30 1466 H 126.618 0.593555 -0.297638 0
M  V30 1467 H 129.148 1.46198 -1.43134 0
M  V30 1468 H 129.158 3.89801 -1.20497 0
M  V30 1469 H 127.833 3.47929 -2.27856 0
M  V30 1470 H 126.41 3.70046 -0.460499 0
M  V30 1471 N 128.595 0.856903 1.32268 0
M  V30 1472 C 129.542 0.301172 2.28827 0
M  V30 1473 C 130.512 -0.593104 1.5515 0
M  V30 1474 O 131.697 -0.527537 1.83362 0
M  V30 1475 C 128.837 -0.502523 3.41422 0
M  V30 1476 C 127.95 0.417797 4.29975 0
M  V30 1477 C 127.085 -0.398749 5.29701 0
M  V30 1478 C 126.124 0.518827 6.09897 0
M  V30 1479 N 125.261 -0.260674 7.01616 0
M  V30 1480 H 130.101 1.12983 2.75751 0
M  V30 1481 H 127.638 0.568582 1.35667 0
M  V30 1482 H 129.596 -0.984141 4.05426 0
M  V30 1483 H 128.226 -1.29599 2.95642 0
M  V30 1484 H 127.278 1.01781 3.66531 0
M  V30 1485 H 128.59 1.12191 4.86019 0
M  V30 1486 H 127.744 -0.943435 5.9932 0
M  V30 1487 H 126.483 -1.13622 4.7428 0
M  V30 1488 H 125.488 1.07538 5.39181 0
M  V30 1489 H 126.713 1.25495 6.67404 0
M  V30 1490 H 124.659 -0.981198 6.4862 0
M  V30 1491 H 124.576 0.384364 7.55022 0
M  V30 1492 H 125.844 -0.787014 7.75517 0
M  V30 1493 N 130.073 -1.45103 0.615059 0
M  V30 1494 C 131.484 -1.85654 0.197383 0
M  V30 1495 C 131.835 -1.51433 -1.24749 0
M  V30 1496 O 130.96 -0.944608 -1.94695 0
M  V30 1497 C 131.555 -3.36972 0.351448 0
M  V30 1498 C 130.114 -3.76398 -0.011593 0
M  V30 1499 C 129.261 -2.69024 0.672394 0
M  V30 1500 H 132.212 -1.35797 0.821263 0
M  V30 1501 H 132.233 -3.78239 -0.414227 0
M  V30 1502 H 131.745 -3.61847 1.40314 0
M  V30 1503 H 129.846 -3.5714 -1.06217 0
M  V30 1504 H 129.959 -4.77532 0.387265 0
M  V30 1505 H 128.323 -2.54465 0.109284 0
M  V30 1506 H 129.106 -2.96735 1.72636 0
M  V30 1507 N 131.551 -0.354651 -1.53558 0
M  V30 1508 C 132.799 0.237972 -2.00694 0
M  V30 1509 C 133.12 1.50173 -1.24391 0
M  V30 1510 O 132.39 1.92673 -0.354135 0
M  V30 1511 H 130.97 0.0909256 -0.741446 0
M  V30 1512 H 133.632 -0.478368 -1.88938 0
M  V30 1513 H 132.728 0.47264 -3.085 0
M  V30 1514 N 133.029 1.57378 -0.0835403 0
M  V30 1515 C 134.445 1.57246 0.273109 0
M  V30 1516 C 134.645 1.09385 1.69225 0
M  V30 1517 O 133.701 0.765051 2.40631 0
M  V30 1518 C 135.014 3.00614 0.0720628 0
M  V30 1519 C 136.562 3.12684 0.1407 0
M  V30 1520 C 137.037 4.57989 -0.0322094 0
M  V30 1521 N 138.528 4.63194 0.0230085 0
M  V30 1522 C 139.263 5.73335 -0.0861941 0
M  V30 1523 N 138.759 6.9235 -0.24958 0
M  V30 1524 N 140.552 5.62093 -0.0282886 0
M  V30 1525 H 132.703 1.86801 -1.0109 0
M  V30 1526 H 134.966 0.861687 -0.395222 0
M  V30 1527 H 134.672 3.39786 -0.907662 0
M  V30 1528 H 134.546 3.68193 0.81936 0
M  V30 1529 H 136.933 2.73391 1.11092 0
M  V30 1530 H 137.014 2.47719 -0.637896 0
M  V30 1531 H 136.658 4.97973 -0.999247 0
M  V30 1532 H 136.588 5.21 0.765937 0
M  V30 1533 H 139.079 3.77613 0.14722 0
M  V30 1534 H 139.392 7.72117 -0.324733 0
M  V30 1535 H 137.737 6.94415 -0.285097 0
M  V30 1536 H 140.928 4.67997 0.0981408 0
M  V30 1537 H 141.101 6.47895 -0.116845 0
M  V30 1538 N 134.507 -0.190092 1.56449 0
M  V30 1539 C 135.923 -0.54113 1.50146 0
M  V30 1540 C 136.123 -1.85603 0.784465 0
M  V30 1541 O 135.179 -2.5024 0.337051 0
M  V30 1542 C 136.492 -0.591241 2.9483 0
M  V30 1543 C 138.04 -0.679732 3.0553 0
M  V30 1544 C 138.515 -0.760908 4.51635 0
M  V30 1545 N 140.006 -0.824302 4.55806 0
M  V30 1546 C 140.741 -0.907365 5.66175 0
M  V30 1547 N 140.237 -0.952422 6.86222 0
M  V30 1548 N 142.03 -0.94494 5.541 0
M  V30 1549 H 134.181 0.67235 2.01478 0
M  V30 1550 H 136.444 0.240127 0.917084 0
M  V30 1551 H 136.15 0.305905 3.50367 0
M  V30 1552 H 136.024 -1.44422 3.48457 0
M  V30 1553 H 138.411 -1.56731 2.50039 0
M  V30 1554 H 138.492 0.199549 2.5502 0
M  V30 1555 H 138.136 0.122336 5.07753 0
M  V30 1556 H 138.066 -1.65606 4.99882 0
M  V30 1557 H 140.557 -0.798526 3.69367 0
M  V30 1558 H 140.87 -1.01645 7.66086 0
M  V30 1559 H 139.215 -0.921014 6.8887 0
M  V30 1560 H 142.406 -0.906612 4.59236 0
M  V30 1561 H 142.579 -1.00622 6.4014 0
M  V30 1562 N 135.985 -1.50799 -0.457987 0
M  V30 1563 C 137.231 -1.62683 -1.21088 0
M  V30 1564 C 137.564 -0.332268 -1.91336 0
M  V30 1565 O 136.839 0.667043 -1.82704 0
M  V30 1566 C 137.122 -2.81615 -2.24422 0
M  V30 1567 C 136.975 -4.20989 -1.58392 0
M  V30 1568 C 138.294 -2.96085 -3.2561 0
M  V30 1569 H 135.413 -0.592087 -0.438864 0
M  V30 1570 H 138.055 -1.83225 -0.50286 0
M  V30 1571 H 136.205 -2.64231 -2.84806 0
M  V30 1572 H 137.877 -4.49994 -1.01504 0
M  V30 1573 H 136.12 -4.24641 -0.886704 0
M  V30 1574 H 136.791 -5.0016 -2.33547 0
M  V30 1575 H 139.267 -3.12042 -2.75262 0
M  V30 1576 H 138.143 -3.80902 -3.95228 0
M  V30 1577 H 138.404 -2.0726 -3.90507 0
M  V30 1578 N 137.463 0.71206 -1.40597 0
M  V30 1579 C 138.693 1.49894 -1.42181 0
M  V30 1580 C 139.101 1.89189 -0.0208078 0
M  V30 1581 O 138.444 1.56223 0.966436 0
M  V30 1582 C 138.506 2.80215 -2.25211 0
M  V30 1583 C 138.17 2.63221 -3.73582 0
M  V30 1584 C 139.167 2.30249 -4.66135 0
M  V30 1585 C 136.852 2.79376 -4.17438 0
M  V30 1586 C 138.846 2.13645 -6.00529 0
M  V30 1587 C 136.533 2.6239 -5.51901 0
M  V30 1588 C 137.531 2.29573 -6.43262 0
M  V30 1589 O 137.219 2.12719 -7.75246 0
M  V30 1590 H 136.951 0.469031 -0.486812 0
M  V30 1591 H 139.505 0.88564 -1.85326 0
M  V30 1592 H 137.735 3.4389 -1.76852 0
M  V30 1593 H 139.424 3.41947 -2.18694 0
M  V30 1594 H 140.19 2.17398 -4.33547 0
M  V30 1595 H 136.069 3.03906 -3.46644 0
M  V30 1596 H 139.613 1.87953 -6.71803 0
M  V30 1597 H 135.51 2.74826 -5.84073 0
M  V30 1598 H 136.278 2.27611 -7.86216 0
M  V30 1599 N 138.941 1.26152 0.944643 0
M  V30 1600 C 140.187 1.11657 1.69294 0
M  V30 1601 C 140.52 -0.339926 1.91202 0
M  V30 1602 O 139.795 -1.24994 1.49019 0
M  V30 1603 C 140.078 1.88236 3.06984 0
M  V30 1604 C 139.931 3.41772 2.92424 0
M  V30 1605 C 141.25 1.67343 4.07043 0
M  V30 1606 H 138.369 0.407004 0.614424 0
M  V30 1607 H 141.011 1.55106 1.09737 0
M  V30 1608 H 139.161 1.51308 3.57824 0
M  V30 1609 H 140.833 3.88433 2.48832 0
M  V30 1610 H 139.076 3.68974 2.28124 0
M  V30 1611 H 139.747 3.90579 3.90067 0
M  V30 1612 H 142.223 1.99509 3.65151 0
M  V30 1613 H 141.099 2.23346 5.01406 0
M  V30 1614 H 141.36 0.617158 4.37771 0
M  V30 1615 N 140.419 -1.14872 1.07899 0
M  V30 1616 C 141.667 -1.85422 0.803941 0
M  V30 1617 C 141.988 -1.83051 -0.67211 0
M  V30 1618 O 141.258 -1.27532 -1.48703 0
M  V30 1619 H 139.838 -0.686537 0.294408 0
M  V30 1620 H 142.5 -1.39226 1.3639 0
M  V30 1621 H 141.596 -2.90399 1.14346 0
M  V30 1622 N 141.898 -0.863906 -1.31812 0
M  V30 1623 C 143.144 -0.472535 -1.97218 0
M  V30 1624 C 143.477 0.971394 -1.68159 0
M  V30 1625 O 142.752 1.68309 -0.974798 0
M  V30 1626 C 143.035 -0.723054 -3.52766 0
M  V30 1627 C 142.888 -2.21608 -3.91421 0
M  V30 1628 C 144.207 -0.185522 -4.39709 0
M  V30 1629 H 141.326 -0.173158 -0.71637 0
M  V30 1630 H 143.968 -1.08403 -1.56041 0
M  V30 1631 H 142.118 -0.202577 -3.87971 0
M  V30 1632 H 143.79 -2.80334 -3.66347 0
M  V30 1633 H 142.033 -2.691 -3.40246 0
M  V30 1634 H 142.704 -2.34203 -4.99853 0
M  V30 1635 H 145.18 -0.630726 -4.11292 0
M  V30 1636 H 144.056 -0.390306 -5.47511 0
M  V30 1637 H 144.317 0.912229 -4.32586 0
M  V30 1638 N 143.376 1.44774 -0.622745 0
M  V30 1639 C 144.323 2.30635 0.0871679 0
M  V30 1640 C 145.293 1.42994 0.845097 0
M  V30 1641 O 146.478 1.71907 0.827812 0
M  V30 1642 C 143.618 3.28144 1.06844 0
M  V30 1643 C 142.731 4.30888 0.309809 0
M  V30 1644 C 141.866 5.15494 1.28215 0
M  V30 1645 C 140.905 6.09953 0.512198 0
M  V30 1646 N 140.042 6.87287 1.43458 0
M  V30 1647 H 144.882 2.90803 -0.650974 0
M  V30 1648 H 142.419 1.43286 -0.33281 0
M  V30 1649 H 144.377 3.83157 1.65066 0
M  V30 1650 H 143.007 2.69695 1.77382 0
M  V30 1651 H 142.059 3.78414 -0.388181 0
M  V30 1652 H 143.371 4.97955 -0.290254 0
M  V30 1653 H 142.525 5.74983 1.93596 0
M  V30 1654 H 141.264 4.48481 1.91614 0
M  V30 1655 H 140.269 5.49581 -0.155151 0
M  V30 1656 H 141.494 6.78999 -0.116958 0
M  V30 1657 H 139.44 6.2295 2.05594 0
M  V30 1658 H 139.357 7.50763 0.888335 0
M  V30 1659 H 140.625 7.51306 2.07749 0
M  V30 1660 N 144.854 0.36279 1.53368 0
M  V30 1661 C 145.764 -0.492994 2.29362 0
M  V30 1662 C 146.78 -1.09507 1.35219 0
M  V30 1663 O 147.956 -1.10662 1.68273 0
M  V30 1664 C 145.021 -1.61855 3.066 0
M  V30 1665 C 144.082 -1.04429 4.16405 0
M  V30 1666 C 143.315 -2.11621 4.89951 0
M  V30 1667 O 143.538 -3.32684 4.63333 0
M  V30 1668 O 142.472 -1.74835 5.75948 0
M  V30 1669 H 146.298 0.125331 3.03441 0
M  V30 1670 H 143.883 0.127253 1.48857 0
M  V30 1671 H 145.765 -2.27302 3.54841 0
M  V30 1672 H 144.44 -2.22233 2.3536 0
M  V30 1673 H 143.347 -0.353819 3.72423 0
M  V30 1674 H 144.68 -0.485113 4.89804 0
M  V30 1675 N 146.332 -1.57332 0.0918853 0
M  V30 1676 C 147.581 -1.93412 -0.572249 0
M  V30 1677 C 147.894 -0.975515 -1.69538 0
M  V30 1678 O 149.1 -1.22991 -2.42045 0
M  V30 1679 C 147.556 -3.43648 -1.0693 0
M  V30 1680 C 147.164 -4.47994 0.0239049 0
M  V30 1681 C 148.908 -3.88695 -1.70635 0
M  V30 1682 C 146.815 -5.89381 -0.488319 0
M  V30 1683 H 145.745 -0.721939 -0.217532 0
M  V30 1684 H 148.396 -1.82735 0.167369 0
M  V30 1685 H 146.778 -3.49466 -1.8625 0
M  V30 1686 H 147.952 -4.53815 0.799277 0
M  V30 1687 H 146.267 -4.12536 0.565946 0
M  V30 1688 H 148.864 -4.91725 -2.10025 0
M  V30 1689 H 149.207 -3.27166 -2.57426 0
M  V30 1690 H 149.74 -3.85564 -0.979023 0
M  V30 1691 H 146.479 -6.54602 0.342906 0
M  V30 1692 H 145.999 -5.87037 -1.23077 0
M  V30 1693 H 147.678 -6.39863 -0.958317 0
M  V30 1694 N 147.81 0.181792 -1.56548 0
M  V30 1695 C 149.221 0.745244 -1.71181 0
M  V30 1696 C 149.572 1.83262 -0.70068 0
M  V30 1697 O 148.697 2.15946 0.140154 0
M  V30 1698 C 149.292 1.35859 -3.10367 0
M  V30 1699 C 147.851 1.86898 -3.2672 0
M  V30 1700 C 146.998 0.743942 -2.67134 0
M  V30 1701 H 149.949 -0.0434661 -1.5864 0
M  V30 1702 H 149.97 2.22817 -3.08436 0
M  V30 1703 H 149.482 0.566948 -3.83937 0
M  V30 1704 H 147.583 2.68738 -2.5809 0
M  V30 1705 H 147.696 2.02162 -4.34359 0
M  V30 1706 H 146.06 1.16169 -2.26665 0
M  V30 1707 H 146.843 -0.035676 -3.43281 0
M  V30 1708 N 149.288 1.51039 0.449983 0
M  V30 1709 C 150.704 1.38934 0.785462 0
M  V30 1710 C 150.904 0.461817 1.96136 0
M  V30 1711 O 149.96 -0.0877389 2.52348 0
M  V30 1712 C 151.273 2.80724 1.0777 0
M  V30 1713 C 152.821 2.89787 1.1829 0
M  V30 1714 C 153.296 4.32457 1.50815 0
M  V30 1715 N 154.787 4.35505 1.57764 0
M  V30 1716 C 155.522 5.42914 1.84477 0
M  V30 1717 N 155.018 6.60502 2.09068 0
M  V30 1718 N 156.811 5.3038 1.86155 0
M  V30 1719 H 148.962 2.09904 -0.324647 0
M  V30 1720 H 151.225 0.944378 -0.0827957 0
M  V30 1721 H 150.931 3.50531 0.286498 0
M  V30 1722 H 150.805 3.19273 2.00859 0
M  V30 1723 H 153.192 2.20186 1.96474 0
M  V30 1724 H 153.273 2.54752 0.231314 0
M  V30 1725 H 152.917 5.02603 0.731622 0
M  V30 1726 H 152.847 4.64995 2.47158 0
M  V30 1727 H 155.338 3.50724 1.40715 0
M  V30 1728 H 155.651 7.38158 2.28785 0
M  V30 1729 H 153.996 6.63639 2.06416 0
M  V30 1730 H 157.187 4.37505 1.66454 0
M  V30 1731 H 157.36 6.1417 2.06637 0
M  V30 1732 N 150.766 -0.704594 1.40972 0
M  V30 1733 C 152.012 -1.46675 1.40051 0
M  V30 1734 C 152.345 -1.94199 0.00641102 0
M  V30 1735 O 151.62 -1.68916 -0.964235 0
M  V30 1736 C 151.903 -2.68505 2.39952 0
M  V30 1737 C 151.756 -2.26805 3.88432 0
M  V30 1738 C 153.075 -3.70686 2.37233 0
M  V30 1739 H 150.194 -0.532015 0.510028 0
M  V30 1740 H 152.836 -0.803255 1.72185 0
M  V30 1741 H 150.986 -3.25114 2.1268 0
M  V30 1742 H 152.658 -1.75592 4.26574 0
M  V30 1743 H 150.901 -1.58685 4.03734 0
M  V30 1744 H 151.572 -3.14181 4.53866 0
M  V30 1745 H 154.048 -3.23731 2.61415 0
M  V30 1746 H 152.924 -4.53553 3.09162 0
M  V30 1747 H 153.185 -4.19754 1.38777 0
M  V30 1748 N 152.244 -1.26651 -0.937939 0
M  V30 1749 C 153.66 -1.03834 -1.21205 0
M  V30 1750 C 153.86 0.234502 -2.00131 0
M  V30 1751 O 152.916 0.942767 -2.3424 0
M  V30 1752 C 154.229 -2.27167 -1.97017 0
M  V30 1753 C 155.777 -2.32101 -2.09996 0
M  V30 1754 C 156.252 -3.55136 -2.8921 0
M  V30 1755 N 157.743 -3.55632 -2.96783 0
M  V30 1756 C 158.478 -4.475 -3.58512 0
M  V30 1757 N 157.974 -5.4966 -4.21717 0
M  V30 1758 N 159.767 -4.35145 -3.55816 0
M  V30 1759 H 151.918 -2.08398 -0.410391 0
M  V30 1760 H 154.181 -0.916031 -0.244114 0
M  V30 1761 H 153.887 -3.19765 -1.46434 0
M  V30 1762 H 153.761 -2.31672 -2.97671 0
M  V30 1763 H 156.148 -1.40015 -2.59769 0
M  V30 1764 H 156.229 -2.31605 -1.08594 0
M  V30 1765 H 155.873 -4.47553 -2.40123 0
M  V30 1766 H 155.803 -3.5288 -3.90875 0
M  V30 1767 H 158.294 -2.81743 -2.51852 0
M  V30 1768 H 158.607 -6.15943 -4.66727 0
M  V30 1769 H 156.952 -5.53514 -4.20294 0
M  V30 1770 H 160.143 -3.5455 -3.05634 0
M  V30 1771 H 160.316 -5.06934 -4.03636 0
M  V30 1772 N 153.722 1.14298 -1.08507 0
M  V30 1773 C 155.138 1.37347 -0.812901 0
M  V30 1774 C 155.338 1.93052 0.577325 0
M  V30 1775 O 154.394 2.14389 1.33393 0
M  V30 1776 C 155.707 2.33359 -1.89642 0
M  V30 1777 C 157.255 2.46996 -1.92255 0
M  V30 1778 C 157.73 3.46309 -2.99724 0
M  V30 1779 N 159.221 3.53853 -2.98902 0
M  V30 1780 C 159.956 4.3055 -3.787 0
M  V30 1781 N 159.452 5.10482 -4.6838 0
M  V30 1782 N 161.245 4.25757 -3.66998 0
M  V30 1783 H 153.396 0.764867 -1.9815 0
M  V30 1784 H 155.659 0.398966 -0.859959 0
M  V30 1785 H 155.365 1.99565 -2.89597 0
M  V30 1786 H 155.239 3.33274 -1.76659 0
M  V30 1787 H 157.626 2.80081 -0.929445 0
M  V30 1788 H 157.707 1.47039 -2.09316 0
M  V30 1789 H 157.351 3.13957 -3.99241 0
M  V30 1790 H 157.281 4.46049 -2.79907 0
M  V30 1791 H 159.772 2.96812 -2.33904 0
M  V30 1792 H 160.085 5.66284 -5.25873 0
M  V30 1793 H 158.43 5.09747 -4.72422 0
M  V30 1794 H 161.621 3.62383 -2.96304 0
M  V30 1795 H 161.794 4.85279 -4.29427 0
M  V30 1796 N 155.201 0.870884 1.31352 0
M  V30 1797 C 156.449 0.48132 1.96285 0
M  V30 1798 C 156.77 -0.969813 1.69173 0
M  V30 1799 O 156.04 -1.67998 1.00764 0
M  V30 1800 H 154.62 0.175002 0.726212 0
M  V30 1801 H 157.282 1.11087 1.60143 0
M  V30 1802 H 156.378 0.639825 3.05471 0
M  V30 1803 N 156.679 -1.44442 0.630414 0
M  V30 1804 C 157.609 -2.33418 -0.0618083 0
M  V30 1805 C 158.59 -1.48165 -0.835541 0
M  V30 1806 O 159.775 -1.76886 -0.801564 0
M  V30 1807 C 156.905 -3.31222 -1.04449 0
M  V30 1808 C 155.859 -4.26288 -0.382436 0
M  V30 1809 C 155.185 -5.13954 -1.47497 0
M  V30 1810 C 156.485 -5.1744 0.710865 0
M  V30 1811 H 158.179 -2.91548 0.681184 0
M  V30 1812 H 155.725 -1.40191 0.329026 0
M  V30 1813 H 157.678 -3.92351 -1.53748 0
M  V30 1814 H 156.402 -2.71299 -1.81836 0
M  V30 1815 H 155.061 -3.6649 0.0899054 0
M  V30 1816 H 154.709 -4.50385 -2.2397 0
M  V30 1817 H 154.409 -5.7837 -1.03737 0
M  V30 1818 H 155.933 -5.77955 -1.96979 0
M  V30 1819 H 157.347 -5.72509 0.300996 0
M  V30 1820 H 155.744 -5.90455 1.07156 0
M  V30 1821 H 156.814 -4.58496 1.57829 0
M  V30 1822 N 158.157 -0.370918 -1.53173 0
M  V30 1823 C 159.405 0.216673 -2.00935 0
M  V30 1824 C 159.726 1.48845 -1.25977 0
M  V30 1825 O 158.996 1.92286 -0.374551 0
M  V30 1826 H 157.576 0.0830565 -0.742368 0
M  V30 1827 H 160.238 -0.49838 -1.8842 0
M  V30 1828 H 159.334 0.439893 -3.08984 0
M  V30 1829 N 159.635 1.57281 -0.100228 0
M  V30 1830 C 160.884 1.93713 0.561984 0
M  V30 1831 C 161.197 0.984492 1.69018 0
M  V30 1832 O 162.403 1.24273 2.41389 0
M  V30 1833 C 160.859 3.4421 1.05106 0
M  V30 1834 C 160.467 4.47975 -0.0476628 0
M  V30 1835 C 162.211 3.89595 1.68571 0
M  V30 1836 C 160.118 5.89631 0.457055 0
M  V30 1837 H 159.048 0.723082 0.2137 0
M  V30 1838 H 161.699 1.82644 -0.177057 0
M  V30 1839 H 160.081 3.50449 1.84395 0
M  V30 1840 H 161.255 4.53385 -0.823333 0
M  V30 1841 H 159.57 4.1223 -0.587816 0
M  V30 1842 H 162.167 4.92832 2.07414 0
M  V30 1843 H 162.51 3.28526 2.55688 0
M  V30 1844 H 163.043 3.86078 0.958562 0
M  V30 1845 H 159.782 6.54411 -0.377616 0
M  V30 1846 H 159.302 5.87681 1.19962 0
M  V30 1847 H 160.981 6.40363 0.92437 0
M  V30 1848 N 161.113 -0.173488 1.56642 0
M  V30 1849 C 162.076 -1.19859 1.95362 0
M  V30 1850 C 163.076 -1.37296 0.83704 0
M  V30 1851 O 164.266 -1.34739 1.10413 0
M  V30 1852 C 161.398 -2.56405 2.24654 0
M  V30 1853 H 162.591 -0.867062 2.87092 0
M  V30 1854 H 160.144 -0.415853 1.50666 0
M  V30 1855 H 160.879 -2.94576 1.35631 0
M  V30 1856 H 160.664 -2.45115 3.06041 0
M  V30 1857 H 162.154 -3.30287 2.5554 0
M  V30 1858 N 162.591 -1.51276 -0.441967 0
M  V30 1859 C 163.84 -1.6295 -1.18871 0
M  V30 1860 C 164.153 -0.349312 -1.92456 0
M  V30 1861 O 165.359 -0.345355 -2.69295 0
M  V30 1862 C 163.815 -2.87759 -2.16155 0
M  V30 1863 C 163.423 -4.22764 -1.48239 0
M  V30 1864 C 165.167 -3.08788 -2.91291 0
M  V30 1865 C 163.074 -5.38728 -2.4398 0
M  V30 1866 H 162.004 -0.606913 -0.447406 0
M  V30 1867 H 164.655 -1.77739 -0.456205 0
M  V30 1868 H 163.037 -2.66593 -2.92821 0
M  V30 1869 H 164.211 -4.54293 -0.771635 0
M  V30 1870 H 162.526 -4.07575 -0.852741 0
M  V30 1871 H 165.123 -3.92599 -3.63002 0
M  V30 1872 H 165.466 -2.21679 -3.5237 0
M  V30 1873 H 165.999 -3.30272 -2.21733 0
M  V30 1874 H 162.738 -6.28082 -1.87598 0
M  V30 1875 H 162.258 -5.1158 -3.13123 0
M  V30 1876 H 163.937 -5.70489 -3.05207 0
M  V30 1877 N 164.069 0.697108 -1.41344 0
M  V30 1878 C 164.999 1.82353 -1.45841 0
M  V30 1879 C 165.98 1.67115 -0.317247 0
M  V30 1880 O 167.165 1.86871 -0.528474 0
M  V30 1881 C 164.295 3.20476 -1.33838 0
M  V30 1882 C 163.249 3.50415 -2.4575 0
M  V30 1883 C 162.575 4.87878 -2.18813 0
M  V30 1884 C 163.875 3.49546 -3.88091 0
M  V30 1885 H 165.569 1.78846 -2.40113 0
M  V30 1886 H 163.115 0.859028 -1.15571 0
M  V30 1887 H 165.068 3.98988 -1.35596 0
M  V30 1888 H 163.792 3.24604 -0.360498 0
M  V30 1889 H 162.451 2.74253 -2.43271 0
M  V30 1890 H 162.099 4.8863 -1.19371 0
M  V30 1891 H 161.799 5.08875 -2.93803 0
M  V30 1892 H 163.323 5.68702 -2.22284 0
M  V30 1893 H 164.737 4.18066 -3.92293 0
M  V30 1894 H 163.134 3.82075 -4.62751 0
M  V30 1895 H 164.204 2.48552 -4.16353 0
M  V30 1896 N 165.547 1.27147 0.931209 0
M  V30 1897 C 166.772 1.16191 1.71797 0
M  V30 1898 C 167.197 -0.278004 1.86034 0
M  V30 1899 O 166.555 -1.20137 1.35782 0
M  V30 1900 C 166.603 1.84673 3.09723 0
M  V30 1901 O 165.707 1.14231 3.96264 0
M  V30 1902 H 165.048 0.404303 0.526721 0
M  V30 1903 H 167.578 1.68152 1.1656 0
M  V30 1904 H 167.588 1.91893 3.60057 0
M  V30 1905 H 166.263 2.89421 2.98677 0
M  V30 1906 H 164.84 1.15056 3.54706 0
M  V30 1907 N 167.025 -1.13721 1.09112 0
M  V30 1908 C 168.253 -1.88773 0.846899 0
M  V30 1909 C 168.668 -1.7896 -0.601572 0
M  V30 1910 O 168.025 -1.15394 -1.41388 0
M  V30 1911 C 168.076 -3.3849 1.26913 0
M  V30 1912 O 167.797 -3.48043 2.66079 0
M  V30 1913 C 169.298 -4.30518 1.05682 0
M  V30 1914 H 166.518 -0.59772 0.304914 0
M  V30 1915 H 169.062 -1.43977 1.45227 0
M  V30 1916 H 167.217 -3.80881 0.707723 0
M  V30 1917 H 167.631 -4.4109 2.83795 0
M  V30 1918 H 169.105 -5.3391 1.40156 0
M  V30 1919 H 169.582 -4.392 -0.00563416 0
M  V30 1920 H 170.188 -3.93893 1.60402 0
M  V30 1921 N 168.503 -0.877838 -1.30888 0
M  V30 1922 C 169.728 -0.506629 -2.01117 0
M  V30 1923 C 170.153 0.895564 -1.65412 0
M  V30 1924 O 169.511 1.5923 -0.866922 0
M  V30 1925 C 169.559 -0.680223 -3.54126 0
M  V30 1926 O 168.663 0.277033 -4.11468 0
M  V30 1927 H 168.004 -0.200518 -0.633 0
M  V30 1928 H 170.534 -1.18342 -1.66902 0
M  V30 1929 H 170.544 -0.5765 -4.03907 0
M  V30 1930 H 169.219 -1.70261 -3.79452 0
M  V30 1931 H 167.796 0.127606 -3.72682 0
M  V30 1932 N 169.982 1.44106 -0.638065 0
M  V30 1933 C 170.929 2.30715 0.062701 0
M  V30 1934 C 171.899 1.43882 0.829883 0
M  V30 1935 O 173.084 1.72775 0.809532 0
M  V30 1936 C 170.224 3.29258 1.03358 0
M  V30 1937 C 169.337 4.31192 0.26409 0
M  V30 1938 C 168.472 5.16825 1.22741 0
M  V30 1939 C 167.511 6.10462 0.447475 0
M  V30 1940 N 166.648 6.8877 1.36161 0
M  V30 1941 H 171.488 2.90096 -0.681781 0
M  V30 1942 H 169.025 1.42925 -0.347988 0
M  V30 1943 H 170.983 3.84886 1.60992 0
M  V30 1944 H 169.613 2.71562 1.74511 0
M  V30 1945 H 168.665 3.77981 -0.428295 0
M  V30 1946 H 169.977 4.97619 -0.343052 0
M  V30 1947 H 169.131 5.77004 1.87487 0
M  V30 1948 H 167.87 4.50488 1.86847 0
M  V30 1949 H 166.875 5.49386 -0.213433 0
M  V30 1950 H 168.1 6.78837 -0.188968 0
M  V30 1951 H 166.046 6.25096 1.98975 0
M  V30 1952 H 165.963 7.51663 0.808656 0
M  V30 1953 H 167.231 7.53467 1.99769 0
M  V30 1954 N 171.46 0.379036 1.52974 0
M  V30 1955 C 172.708 -0.206014 2.01047 0
M  V30 1956 C 173.029 -1.48175 1.26765 0
M  V30 1957 O 172.299 -1.92085 0.384743 0
M  V30 1958 H 170.879 -0.0791184 0.742798 0
M  V30 1959 H 173.541 0.508366 1.88153 0
M  V30 1960 H 172.637 -0.423501 3.09213 0
M  V30 1961 N 172.938 -1.57226 0.108567 0
M  V30 1962 C 174.184 -1.95121 -0.552761 0
M  V30 1963 C 174.517 -0.991345 -1.66991 0
M  V30 1964 O 173.792 -0.0267211 -1.94482 0
M  V30 1965 C 174.075 -3.43039 -1.09528 0
M  V30 1966 C 173.928 -4.49797 0.0177332 0
M  V30 1967 C 175.247 -3.92567 -1.98945 0
M  V30 1968 H 172.366 -0.709496 -0.199461 0
M  V30 1969 H 175.008 -1.89126 0.182011 0
M  V30 1970 H 173.158 -3.48279 -1.72146 0
M  V30 1971 H 174.83 -4.56661 0.652584 0
M  V30 1972 H 173.073 -4.284 0.682309 0
M  V30 1973 H 173.744 -5.50528 -0.402919 0
M  V30 1974 H 176.22 -3.89565 -1.46214 0
M  V30 1975 H 175.096 -4.96605 -2.33827 0
M  V30 1976 H 175.357 -3.32648 -2.91201 0
M  V30 1977 N 174.416 0.165178 -1.56732 0
M  V30 1978 C 175.346 1.20651 -1.99914 0
M  V30 1979 C 176.327 1.45827 -0.875705 0
M  V30 1980 O 177.512 1.57057 -1.14223 0
M  V30 1981 C 174.642 2.54401 -2.36427 0
M  V30 1982 C 173.596 2.43782 -3.51787 0
M  V30 1983 C 172.922 3.82078 -3.7406 0
M  V30 1984 C 174.222 1.93732 -4.85041 0
M  V30 1985 H 175.916 0.847534 -2.87154 0
M  V30 1986 H 173.462 0.40625 -1.38151 0
M  V30 1987 H 175.415 3.27458 -2.65234 0
M  V30 1988 H 174.139 2.92098 -1.46103 0
M  V30 1989 H 172.798 1.73178 -3.23117 0
M  V30 1990 H 172.446 4.17179 -2.81017 0
M  V30 1991 H 172.146 3.7584 -4.51684 0
M  V30 1992 H 173.67 4.56712 -4.05274 0
M  V30 1993 H 175.084 2.56569 -5.12684 0
M  V30 1994 H 173.481 1.98428 -5.66345 0
M  V30 1995 H 174.551 0.891962 -4.76626 0
M  V30 1996 N 175.894 1.51508 0.433938 0
M  V30 1997 C 177.122 1.68157 1.20543 0
M  V30 1998 C 177.537 0.380362 1.84929 0
M  V30 1999 O 176.894 -0.641446 1.70856 0
M  V30 2000 C 176.945 2.79965 2.28696 0
M  V30 2001 O 176.666 4.05045 1.66943 0
M  V30 2002 C 178.167 3.07912 3.18912 0
M  V30 2003 H 175.387 0.56421 0.363191 0
M  V30 2004 H 177.931 1.97941 0.513754 0
M  V30 2005 H 176.086 2.5277 2.93574 0
M  V30 2006 H 176.5 4.67165 2.38448 0
M  V30 2007 H 177.974 3.89719 3.90926 0
M  V30 2008 H 178.451 2.20456 3.79863 0
M  V30 2009 H 179.057 3.36779 2.59731 0
M  V30 2010 N 177.372 -0.689602 1.41712 0
M  V30 2011 C 178.649 -1.44457 1.31877 0
M  V30 2012 C 179.029 -2.11039 -0.0508537 0
M  V30 2013 O 178.377 -2.02138 -1.06547 0
M  V30 2014 C 178.587 -2.45913 2.47645 0
M  V30 2015 C 179.935 -3.10991 2.89084 0
M  V30 2016 O 180.959 -2.56238 2.47428 0
M  V30 2017 O 179.818 -4.10174 3.61137 0
M  V30 2018 H 176.912 -0.64362 0.519309 0
M  V30 2019 H 179.458 -0.719576 1.53689 0
M  V30 2020 H 178.23 -1.95409 3.39015 0
M  V30 2021 H 177.853 -3.25913 2.27742 0
M  V30 2022 N 178.85 -1.27639 -0.924453 0
M  V30 2023 C 180.266 -1.05113 -1.20097 0
M  V30 2024 C 180.466 0.213262 -2.00368 0
M  V30 2025 O 179.522 0.91787 -2.35226 0
M  V30 2026 C 180.835 -2.29244 -1.94596 0
M  V30 2027 C 182.383 -2.34315 -2.07522 0
M  V30 2028 C 182.858 -3.58183 -2.85427 0
M  V30 2029 N 184.349 -3.5876 -2.92994 0
M  V30 2030 C 185.084 -4.51277 -3.53746 0
M  V30 2031 N 184.58 -5.54102 -4.15863 0
M  V30 2032 N 186.373 -4.38894 -3.51181 0
M  V30 2033 H 178.524 -2.08821 -0.388264 0
M  V30 2034 H 180.787 -0.918568 -0.234385 0
M  V30 2035 H 180.493 -3.21301 -1.43034 0
M  V30 2036 H 180.367 -2.34816 -2.95197 0
M  V30 2037 H 182.754 -1.42762 -2.58269 0
M  V30 2038 H 182.835 -2.32744 -1.06131 0
M  V30 2039 H 182.479 -4.50074 -2.35363 0
M  V30 2040 H 182.409 -3.57006 -3.8711 0
M  V30 2041 H 184.9 -2.84398 -2.4885 0
M  V30 2042 H 185.213 -6.20859 -4.60168 0
M  V30 2043 H 183.558 -5.57941 -4.144 0
M  V30 2044 H 186.749 -3.57772 -3.01856 0
M  V30 2045 H 186.922 -5.11186 -3.98237 0
M  V30 2046 N 180.328 1.1314 -1.09713 0
M  V30 2047 C 181.238 2.22242 -0.751367 0
M  V30 2048 C 182.254 1.72224 0.247938 0
M  V30 2049 O 183.43 2.01205 0.0885463 0
M  V30 2050 C 180.495 3.46231 -0.180274 0
M  V30 2051 C 179.556 4.11125 -1.2359 0
M  V30 2052 C 178.789 5.29195 -0.691966 0
M  V30 2053 O 179.012 5.68342 0.48414 0
M  V30 2054 O 177.946 5.84214 -1.44838 0
M  V30 2055 H 181.772 2.54197 -1.66186 0
M  V30 2056 H 179.357 1.21331 -0.871735 0
M  V30 2057 H 181.239 4.21185 0.134739 0
M  V30 2058 H 179.914 3.1597 0.703185 0
M  V30 2059 H 178.821 3.37985 -1.60366 0
M  V30 2060 H 180.154 4.45524 -2.09211 0
M  V30 2061 N 181.806 0.884767 1.30421 0
M  V30 2062 C 182.769 0.356277 2.26414 0
M  V30 2063 C 183.769 -0.501124 1.52792 0
M  V30 2064 O 184.959 -0.30831 1.7145 0
M  V30 2065 C 182.091 -0.492316 3.37326 0
M  V30 2066 H 183.284 1.20389 2.74675 0
M  V30 2067 H 180.837 0.661607 1.41607 0
M  V30 2068 H 181.572 -1.36052 2.94381 0
M  V30 2069 H 181.357 0.121832 3.91911 0
M  V30 2070 H 182.847 -0.853871 4.08777 0
M  V30 2071 N 183.284 -1.43765 0.645699 0
M  V30 2072 C 184.7 -1.56509 0.312591 0
M  V30 2073 C 184.9 -1.6307 -1.18365 0
M  V30 2074 O 183.956 -1.58167 -1.96824 0
M  V30 2075 C 185.269 -2.82968 1.01733 0
M  V30 2076 C 186.817 -2.96701 0.996865 0
M  V30 2077 C 187.292 -4.25982 1.68236 0
M  V30 2078 N 188.783 -4.32829 1.64964 0
M  V30 2079 C 189.518 -5.31613 2.14885 0
M  V30 2080 N 189.014 -6.36718 2.73061 0
M  V30 2081 N 190.807 -5.23217 2.05428 0
M  V30 2082 H 182.958 -1.3775 1.61675 0
M  V30 2083 H 185.221 -0.661067 0.679481 0
M  V30 2084 H 184.927 -2.84156 2.0724 0
M  V30 2085 H 184.801 -3.72957 0.564177 0
M  V30 2086 H 187.188 -2.95058 -0.0497719 0
M  V30 2087 H 187.269 -2.08022 1.48865 0
M  V30 2088 H 186.913 -4.28386 2.72852 0
M  V30 2089 H 186.843 -5.13545 1.16529 0
M  V30 2090 H 189.334 -3.57493 1.22503 0
M  V30 2091 H 189.647 -7.08401 3.08848 0
M  V30 2092 H 187.992 -6.37362 2.77118 0
M  V30 2093 H 191.183 -4.40019 1.59689 0
M  V30 2094 H 191.356 -6.00045 2.44643 0
M  V30 2095 N 184.763 -0.387143 -1.52771 0
M  V30 2096 C 185.71 0.449048 -2.26389 0
M  V30 2097 C 186.68 1.05961 -1.27912 0
M  V30 2098 O 187.865 1.08804 -1.56737 0
M  V30 2099 C 185.005 1.57155 -3.0724 0
M  V30 2100 C 184.118 0.984066 -4.20643 0
M  V30 2101 C 183.253 2.07745 -4.88892 0
M  V30 2102 C 182.292 1.46574 -5.94292 0
M  V30 2103 N 181.429 2.49834 -6.56146 0
M  V30 2104 H 186.269 -0.185205 -2.97424 0
M  V30 2105 H 183.806 -0.103164 -1.46738 0
M  V30 2106 H 185.764 2.23309 -3.52405 0
M  V30 2107 H 184.394 2.17615 -2.38419 0
M  V30 2108 H 183.446 0.212193 -3.79808 0
M  V30 2109 H 184.758 0.497029 -4.96318 0
M  V30 2110 H 183.912 2.81673 -5.3735 0
M  V30 2111 H 182.651 2.59807 -4.12737 0
M  V30 2112 H 181.656 0.711696 -5.45174 0
M  V30 2113 H 182.881 0.953088 -6.72379 0
M  V30 2114 H 180.827 3.0107 -5.82832 0
M  V30 2115 H 180.744 2.05879 -7.27427 0
M  V30 2116 H 182.012 3.23399 -7.09249 0
M  V30 2117 N 186.241 1.57166 -0.116904 0
M  V30 2118 C 187.171 2.18222 0.830759 0
M  V30 2119 C 188.152 1.12167 1.27877 0
M  V30 2120 O 189.337 1.40394 1.34176 0
M  V30 2121 C 186.467 2.77996 2.08172 0
M  V30 2122 C 185.421 3.89614 1.77157 0
M  V30 2123 C 184.747 4.36187 3.09265 0
M  V30 2124 C 186.047 5.1181 1.04151 0
M  V30 2125 H 187.741 2.97664 0.321992 0
M  V30 2126 H 185.287 1.4318 0.153434 0
M  V30 2127 H 187.24 3.19366 2.74924 0
M  V30 2128 H 185.964 1.9584 2.6137 0
M  V30 2129 H 184.623 3.48816 1.12796 0
M  V30 2130 H 184.271 3.50893 3.60393 0
M  V30 2131 H 183.971 5.11455 2.89288 0
M  V30 2132 H 185.495 4.80207 3.77139 0
M  V30 2133 H 186.909 5.50214 1.61052 0
M  V30 2134 H 185.306 5.92648 0.942762 0
M  V30 2135 H 186.376 4.84892 0.0279022 0
M  V30 2136 N 187.719 -0.156864 1.56817 0
M  V30 2137 C 188.967 -0.869404 1.82444 0
M  V30 2138 C 189.288 -1.82147 0.69623 0
M  V30 2139 O 188.558 -1.93847 -0.28287 0
M  V30 2140 H 187.138 -0.324043 0.673056 0
M  V30 2141 H 189.8 -0.153224 1.94297 0
M  V30 2142 H 188.896 -1.43761 2.77019 0
M  V30 2143 N 189.197 -1.51736 -0.425897 0
M  V30 2144 C 190.443 -1.65214 -1.1761 0
M  V30 2145 C 190.776 -0.372778 -1.90589 0
M  V30 2146 O 190.051 0.628139 -1.84078 0
M  V30 2147 C 190.334 -2.86312 -2.18398 0
M  V30 2148 C 190.187 -4.24254 -1.49426 0
M  V30 2149 C 191.506 -3.02925 -3.19256 0
M  V30 2150 H 188.625 -0.601263 -0.426206 0
M  V30 2151 H 191.267 -1.8425 -0.463882 0
M  V30 2152 H 189.417 -2.70213 -2.79137 0
M  V30 2153 H 191.089 -4.52046 -0.919362 0
M  V30 2154 H 189.332 -4.26426 -0.796432 0
M  V30 2155 H 190.003 -5.05001 -2.22885 0
M  V30 2156 H 192.479 -3.1781 -2.68581 0
M  V30 2157 H 191.355 -3.89199 -3.8706 0
M  V30 2158 H 191.616 -2.15497 -3.86023 0
M  V30 2159 N 190.675 0.682077 -1.42076 0
M  V30 2160 C 191.923 1.4393 -1.41876 0
M  V30 2161 C 192.244 1.94971 -0.0335599 0
M  V30 2162 O 191.514 1.72591 0.926773 0
M  V30 2163 H 190.094 0.534085 -0.522267 0
M  V30 2164 H 192.756 0.806427 -1.77434 0
M  V30 2165 H 191.852 2.29588 -2.11414 0
M  V30 2166 N 192.153 1.28127 0.917671 0
M  V30 2167 C 193.401 1.14825 1.66312 0
M  V30 2168 C 193.722 -0.304379 1.9261 0
M  V30 2169 O 192.992 -1.21149 1.53947 0
M  V30 2170 H 191.572 0.421953 0.616413 0
M  V30 2171 H 194.234 1.608 1.10134 0
M  V30 2172 H 193.33 1.68489 2.62712 0
M  V30 2173 N 193.631 -1.12557 1.10312 0
M  V30 2174 C 194.541 -2.21841 0.763142 0
M  V30 2175 C 195.557 -1.72354 -0.238801 0
M  V30 2176 O 196.733 -2.01249 -0.0778746 0
M  V30 2177 C 193.798 -3.46131 0.198632 0
M  V30 2178 C 192.859 -4.10464 1.25769 0
M  V30 2179 C 192.092 -5.28821 0.72002 0
M  V30 2180 O 192.315 -5.6859 -0.453993 0
M  V30 2181 O 191.249 -5.83437 1.47935 0
M  V30 2182 H 195.075 -2.53312 1.67532 0
M  V30 2183 H 192.66 -1.20867 0.878157 0
M  V30 2184 H 194.542 -4.2125 -0.112401 0
M  V30 2185 H 193.217 -3.16338 -0.686419 0
M  V30 2186 H 192.124 -3.3713 1.62156 0
M  V30 2187 H 193.457 -4.44408 2.11571 0
M  V30 2188 N 195.109 -0.891671 -1.2995 0
M  V30 2189 C 196.039 -0.379797 -2.30391 0
M  V30 2190 C 197.02 0.540919 -1.6127 0
M  V30 2191 O 198.205 0.453352 -1.88834 0
M  V30 2192 C 195.335 0.400654 -3.44981 0
M  V30 2193 C 194.289 -0.428905 -4.25846 0
M  V30 2194 C 193.615 0.478557 -5.32554 0
M  V30 2195 C 194.915 -1.67458 -4.94727 0
M  V30 2196 H 196.609 -1.21914 -2.73454 0
M  V30 2197 H 194.155 -0.587675 -1.31462 0
M  V30 2198 H 196.108 0.769434 -4.14316 0
M  V30 2199 H 194.832 1.27371 -3.0074 0
M  V30 2200 H 193.491 -0.779911 -3.58208 0
M  V30 2201 H 193.139 1.34951 -4.84559 0
M  V30 2202 H 192.839 -0.0727433 -5.87555 0
M  V30 2203 H 194.363 0.843705 -6.04743 0
M  V30 2204 H 195.777 -1.376 -5.56542 0
M  V30 2205 H 194.174 -2.16659 -5.59624 0
M  V30 2206 H 195.244 -2.41518 -4.20473 0
M  V30 2207 N 196.587 1.43421 -0.653314 0
M  V30 2208 C 197.836 2.01032 -0.164076 0
M  V30 2209 C 198.149 1.52147 1.22926 0
M  V30 2210 O 199.355 2.02031 1.81371 0
M  V30 2211 C 197.811 3.59082 -0.24252 0
M  V30 2212 C 197.419 4.1696 -1.63855 0
M  V30 2213 C 199.163 4.24079 0.18911 0
M  V30 2214 C 197.07 5.67304 -1.67092 0
M  V30 2215 H 196 0.751798 -0.0575769 0
M  V30 2216 H 198.651 1.6439 -0.815362 0
M  V30 2217 H 197.033 3.93125 0.476276 0
M  V30 2218 H 198.207 3.94416 -2.38271 0
M  V30 2219 H 196.522 3.64335 -2.01616 0
M  V30 2220 H 199.119 5.34381 0.184775 0
M  V30 2221 H 199.462 3.98005 1.22056 0
M  V30 2222 H 199.995 3.94918 -0.477938 0
M  V30 2223 H 196.734 5.98145 -2.68146 0
M  V30 2224 H 196.254 5.91904 -0.970014 0
M  V30 2225 H 197.933 6.31344 -1.4147 0
M  V30 2226 N 198.065 0.39524 1.52563 0
M  V30 2227 C 199.305 -0.184744 2.03563 0
M  V30 2228 C 199.669 -1.43548 1.27507 0
M  V30 2229 O 200.87 -2.093 1.68662 0
M  V30 2230 C 199.141 -0.440294 3.54678 0
M  V30 2231 S 200.7 -0.989712 4.27493 0
M  V30 2232 H 197.518 -0.0515075 0.709132 0
M  V30 2233 H 200.12 0.544957 1.87751 0
M  V30 2234 H 198.824 0.477005 4.07618 0
M  V30 2235 H 198.355 -1.19825 3.74707 0
M  V30 2236 H 200.37 -2.27155 4.41152 0
M  V30 2237 N 199.544 -1.57102 0.125237 0
M  V30 2238 C 200.454 -2.19191 -0.8362 0
M  V30 2239 C 201.47 -1.16985 -1.28805 0
M  V30 2240 O 202.646 -1.49479 -1.34974 0
M  V30 2241 C 199.711 -2.78407 -2.06617 0
M  V30 2242 C 198.772 -3.9567 -1.66565 0
M  V30 2243 C 198.005 -4.52052 -2.83698 0
M  V30 2244 O 198.228 -4.07326 -3.99302 0
M  V30 2245 O 197.162 -5.42645 -2.60423 0
M  V30 2246 H 200.988 -3.01816 -0.337776 0
M  V30 2247 H 198.573 -1.4906 -0.100695 0
M  V30 2248 H 200.455 -3.16129 -2.7864 0
M  V30 2249 H 199.13 -1.9881 -2.55453 0
M  V30 2250 H 198.037 -3.62705 -0.916296 0
M  V30 2251 H 199.37 -4.76722 -1.22464 0
M  V30 2252 N 201.022 0.148545 -1.56898 0
M  V30 2253 C 202.268 0.862694 -1.83536 0
M  V30 2254 C 202.601 1.80889 -0.706604 0
M  V30 2255 O 201.876 1.92328 0.289885 0
M  V30 2256 C 202.159 1.63853 -3.20662 0
M  V30 2257 C 202.012 0.713925 -4.44098 0
M  V30 2258 C 203.331 2.60133 -3.54991 0
M  V30 2259 H 200.45 0.312179 -0.667618 0
M  V30 2260 H 203.092 0.127953 -1.89569 0
M  V30 2261 H 201.242 2.26489 -3.1565 0
M  V30 2262 H 202.914 0.098686 -4.61194 0
M  V30 2263 H 201.157 0.0234019 -4.33794 0
M  V30 2264 H 201.828 1.29278 -5.36648 0
M  V30 2265 H 204.304 2.07616 -3.60603 0
M  V30 2266 H 203.18 3.11468 -4.51972 0
M  V30 2267 H 203.441 3.41417 -2.80868 0
M  V30 2268 N 202.5 1.5196 0.417844 0
M  V30 2269 C 203.746 1.66793 1.16411 0
M  V30 2270 C 204.101 0.388758 1.88432 0
M  V30 2271 O 203.394 -0.616409 1.81414 0
M  V30 2272 C 203.588 2.82269 2.19223 0
M  V30 2273 C 203.417 4.21293 1.57297 0
M  V30 2274 C 202.187 4.86948 1.34944 0
M  V30 2275 C 204.385 5.03704 1.03858 0
M  V30 2276 N 202.367 6.1003 0.688195 0
M  V30 2277 C 203.738 6.1795 0.503742 0
M  V30 2278 C 205.793 4.89095 0.932203 0
M  V30 2279 C 204.496 7.19188 -0.127034 0
M  V30 2280 C 206.522 5.90559 0.315293 0
M  V30 2281 C 205.884 7.0409 -0.208906 0
M  V30 2282 H 201.983 0.66407 0.412959 0
M  V30 2283 H 204.567 1.89242 0.457772 0
M  V30 2284 H 202.738 2.61451 2.87225 0
M  V30 2285 H 204.47 2.86183 2.86149 0
M  V30 2286 H 201.225 4.45156 1.61657 0
M  V30 2287 H 201.649 6.75964 0.374449 0
M  V30 2288 H 206.291 4.01557 1.32332 0
M  V30 2289 H 204.009 8.06359 -0.530231 0
M  V30 2290 H 207.595 5.81327 0.234625 0
M  V30 2291 H 206.475 7.81257 -0.67875 0
M  V30 2292 O 204.017 -0.563693 1.51343 0
M  V30 2293 H 204.708 -1.21879 1.5055 0
M  V30 END ATOM
M  V30 BEGIN BOND
M  V30 END BOND
M  V30 END CTAB
M  END
$$$$
