drugbank_target|P10721 Mast/stem cell growth factor receptor Kit (DB00398; DB00619; DB01254; DB01268; DB01962; DB04868; DB05146; DB05913; DB06080; DB06589; DB06595; DB08896; DB08901; DB09078; DB09103; DB12010; DB12147; DB12742; DB12978; DB14840; DB15233)
 OpenBabel12092119323D

  0  0  0     0  0            999 V3000
M  V30 BEGIN CTAB
M  V30 COUNTS 15369 15553 0 0 0
M  V30 BEGIN ATOM
M  V30 1 H -0.908 1.98254 -0.117106 0
M  V30 2 N 0 1.576 0 0
M  V30 3 C 0.933 2.03868 1.02534 0
M  V30 4 C 1.911 0.928543 1.3348 0
M  V30 5 O 3.095 1.19667 1.45644 0
M  V30 6 C 0.222 2.43627 2.35294 0
M  V30 7 C -0.732 3.65373 2.2001 0
M  V30 8 S 0.101 5.13292 1.52614 0
M  V30 9 C 1.257 5.56322 2.86805 0
M  V30 10 H 1.49 2.90518 0.631377 0
M  V30 11 H -0.977 1.52953 0.210867 0
M  V30 12 H 0.981 2.67203 3.11629 0
M  V30 13 H -0.358 1.57376 2.7183 0
M  V30 14 H -1.165 3.90944 3.18086 0
M  V30 15 H -1.563 3.418 1.51819 0
M  V30 16 H 0.729 5.58782 3.83104 0
M  V30 17 H 1.672 6.56266 2.65933 0
M  V30 18 H 2.08 4.83886 2.90714 0
M  V30 19 N 1.4781 -0.272755 1.55222 0
M  V30 20 C 2.8941 -0.619959 1.47067 0
M  V30 21 C 3.0941 -1.895 0.684978 0
M  V30 22 O 2.1501 -2.51675 0.203931 0
M  V30 23 C 3.4631 -0.746693 2.91282 0
M  V30 24 C 5.0111 -0.840731 3.01497 0
M  V30 25 C 5.4861 -0.99924 4.46967 0
M  V30 26 N 6.9771 -1.06476 4.50796 0
M  V30 27 C 7.7121 -1.20621 5.6057 0
M  V30 28 N 7.2081 -1.31483 6.80209 0
M  V30 29 N 9.0011 -1.23733 5.48312 0
M  V30 30 H 1.1521 0.564606 2.04758 0
M  V30 31 H 3.4151 0.191177 0.928523 0
M  V30 32 H 3.1211 0.119753 3.51496 0
M  V30 33 H 2.9951 -1.6269 3.40311 0
M  V30 34 H 5.3821 -1.69764 2.41379 0
M  V30 35 H 5.4631 0.0640874 2.5572 0
M  V30 36 H 5.1071 -0.146984 5.07687 0
M  V30 37 H 5.0371 -1.91871 4.90401 0
M  V30 38 H 7.5281 -0.993196 3.64615 0
M  V30 39 H 7.8411 -1.42111 7.59621 0
M  V30 40 H 6.1861 -1.28487 6.8302 0
M  V30 41 H 9.3771 -1.14877 4.53785 0
M  V30 42 H 9.5501 -1.34412 6.33906 0
M  V30 43 N 2.9562 -1.48159 -0.537278 0
M  V30 44 C 4.2042 -1.55497 -1.29094 0
M  V30 45 C 4.5252 -0.227454 -1.93669 0
M  V30 46 O 3.7952 0.750386 -1.80959 0
M  V30 47 H 2.3752 -0.572832 -0.47945 0
M  V30 48 H 5.0372 -1.84579 -0.625818 0
M  V30 49 H 4.1332 -2.33216 -2.07405 0
M  V30 50 N 4.4343 0.785586 -1.36625 0
M  V30 51 C 5.3973 1.87999 -1.31107 0
M  V30 52 C 6.3973 1.59316 -0.217959 0
M  V30 53 O 7.5873 1.67656 -0.472977 0
M  V30 54 C 4.7193 3.24861 -1.03334 0
M  V30 55 H 5.9123 1.94307 -2.2844 0
M  V30 56 H 3.4653 0.983813 -1.21453 0
M  V30 57 H 4.2003 3.24235 -0.0647432 0
M  V30 58 H 3.9853 3.4707 -1.82441 0
M  V30 59 H 5.4753 4.04929 -1.02088 0
M  V30 60 N 5.9124 1.20967 1.01018 0
M  V30 61 C 7.3284 0.965905 1.27053 0
M  V30 62 C 7.5284 -0.350785 1.98423 0
M  V30 63 O 6.5844 -1.07773 2.28344 0
M  V30 64 C 7.8974 2.15294 2.09926 0
M  V30 65 C 9.4454 2.19463 2.23171 0
M  V30 66 C 9.9204 3.3767 3.09424 0
M  V30 67 N 11.4114 3.37724 3.17012 0
M  V30 68 C 12.1464 4.25837 3.83993 0
M  V30 69 N 11.6424 5.24138 4.53047 0
M  V30 70 N 13.4354 4.1366 3.80581 0
M  V30 71 H 5.5864 2.0565 0.531194 0
M  V30 72 H 7.8494 0.90024 0.297106 0
M  V30 73 H 7.5554 3.10684 1.64828 0
M  V30 74 H 7.4294 2.13923 3.10672 0
M  V30 75 H 9.8164 1.24632 2.6749 0
M  V30 76 H 9.8974 2.2488 1.21912 0
M  V30 77 H 9.5414 4.32791 2.65808 0
M  V30 78 H 9.4714 3.29491 4.10784 0
M  V30 79 H 11.9624 2.6658 2.6785 0
M  V30 80 H 12.2754 5.87684 5.01844 0
M  V30 81 H 10.6204 5.28068 4.5185 0
M  V30 82 H 13.8114 3.36127 3.25785 0
M  V30 83 H 13.9844 4.82538 4.32505 0
M  V30 84 N 7.3905 -1.2043 1.01659 0
M  V30 85 C 8.6385 -1.89423 0.704522 0
M  V30 86 C 8.9595 -1.79231 -0.768197 0
M  V30 87 O 8.2295 -1.1947 -1.55254 0
M  V30 88 H 6.8095 -0.701178 0.257602 0
M  V30 89 H 9.4715 -1.4626 1.28818 0
M  V30 90 H 8.5675 -2.96052 0.987916 0
M  V30 91 N 8.8686 -0.792821 -1.36206 0
M  V30 92 C 9.8316 -0.199459 -2.2833 0
M  V30 93 C 10.8316 0.605189 -1.48977 0
M  V30 94 O 12.0216 0.425685 -1.68919 0
M  V30 95 C 9.1536 0.723523 -3.33134 0
M  V30 96 H 10.3466 -1.01181 -2.82316 0
M  V30 97 H 7.8996 -0.562485 -1.45828 0
M  V30 98 H 8.6346 1.56008 -2.84309 0
M  V30 99 H 8.4196 0.148436 -3.91819 0
M  V30 100 H 9.9096 1.13344 -4.01924 0
M  V30 101 N 10.3467 1.47872 -0.545128 0
M  V30 102 C 11.5927 2.03385 -0.0247951 0
M  V30 103 C 11.9477 1.41325 1.30556 0
M  V30 104 O 11.2407 0.5552 1.8338 0
M  V30 105 C 11.4347 3.57131 0.13867 0
M  V30 106 C 11.2637 4.34097 -1.17429 0
M  V30 107 C 10.0337 4.74458 -1.73831 0
M  V30 108 C 12.2317 4.6998 -2.08861 0
M  V30 109 N 10.2137 5.3602 -2.99258 0
M  V30 110 C 11.5847 5.31719 -3.18866 0
M  V30 111 C 13.6397 4.5191 -2.09003 0
M  V30 112 C 12.3427 5.77295 -4.29096 0
M  V30 113 C 14.3687 4.98477 -3.18237 0
M  V30 114 C 13.7307 5.60253 -4.26961 0
M  V30 115 H 9.8297 0.780339 -0.050943 0
M  V30 116 H 12.4137 1.80507 -0.729753 0
M  V30 117 H 10.5847 3.79802 0.812733 0
M  V30 118 H 12.3167 3.99282 0.659976 0
M  V30 119 H 9.0717 4.56037 -1.2778 0
M  V30 120 H 9.4957 5.71355 -3.63157 0
M  V30 121 H 14.1377 4.03516 -1.26234 0
M  V30 122 H 11.8557 6.24687 -5.12633 0
M  V30 123 H 15.4417 4.86274 -3.1942 0
M  V30 124 H 14.3217 5.95631 -5.10091 0
M  V30 125 N 11.8248 0.280983 1.55075 0
M  V30 126 C 13.1018 -0.386207 1.91749 0
M  V30 127 C 13.4818 -1.73264 1.20594 0
M  V30 128 O 12.8298 -2.26034 0.334784 0
M  V30 129 C 13.0398 -0.520687 3.45094 0
M  V30 130 C 14.3878 -0.800865 4.16979 0
M  V30 131 O 15.4118 -0.605271 3.5102 0
M  V30 132 O 14.2708 -1.1753 5.33712 0
M  V30 133 H 11.3648 -0.212408 0.799257 0
M  V30 134 H 13.9108 0.327568 1.66509 0
M  V30 135 H 12.6828 0.426633 3.88967 0
M  V30 136 H 12.3058 -1.2837 3.76307 0
M  V30 137 N 13.3029 -1.57598 0.00835791 0
M  V30 138 C 14.5499 -1.90928 -0.674732 0
M  V30 139 C 14.8779 -0.88277 -1.73313 0
M  V30 140 O 14.1329 0.111294 -1.95383 0
M  V30 141 C 14.4319 -3.3101 -1.34787 0
M  V30 142 C 14.0979 -4.48922 -0.421861 0
M  V30 143 C 12.7599 -4.8091 -0.166927 0
M  V30 144 C 15.1119 -5.20755 0.215211 0
M  V30 145 C 12.4399 -5.821 0.733232 0
M  V30 146 C 14.7919 -6.22905 1.1033 0
M  V30 147 C 13.4559 -6.53346 1.36733 0
M  V30 148 H 12.7259 -0.698656 -0.246902 0
M  V30 149 H 15.3729 -1.91387 0.0656779 0
M  V30 150 H 13.6779 -3.26714 -2.16253 0
M  V30 151 H 15.3749 -3.54061 -1.8826 0
M  V30 152 H 11.9649 -4.23934 -0.630729 0
M  V30 153 H 16.1489 -4.9629 0.0312829 0
M  V30 154 H 11.4049 -6.04042 0.945712 0
M  V30 155 H 15.5789 -6.77694 1.60325 0
M  V30 156 H 13.2059 -7.31573 2.06652 0
M  V30 157 N 14.781 0.264519 -1.55364 0
M  V30 158 C 15.711 1.33121 -1.91836 0
M  V30 159 C 16.692 1.51101 -0.781192 0
M  V30 160 O 17.877 1.64003 -1.04003 0
M  V30 161 C 15.007 2.68921 -2.19769 0
M  V30 162 C 13.961 2.65661 -3.35571 0
M  V30 163 C 13.287 4.05093 -3.49004 0
M  V30 164 C 14.587 2.24187 -4.71739 0
M  V30 165 H 16.281 1.02844 -2.81182 0
M  V30 166 H 13.827 0.493286 -1.35287 0
M  V30 167 H 15.78 3.43663 -2.43872 0
M  V30 168 H 14.504 3.00799 -1.27231 0
M  V30 169 H 13.163 1.93377 -3.1145 0
M  V30 170 H 12.811 4.34206 -2.53917 0
M  V30 171 H 12.511 4.03804 -4.26868 0
M  V30 172 H 14.035 4.81561 -3.75408 0
M  V30 173 H 15.449 2.88654 -4.9533 0
M  V30 174 H 13.846 2.34044 -5.52579 0
M  V30 175 H 14.916 1.19327 -4.69988 0
M  V30 176 N 16.2591 1.48442 0.529413 0
M  V30 177 C 17.4991 1.58086 1.29569 0
M  V30 178 C 17.8631 0.249302 1.90375 0
M  V30 179 O 19.0641 0.220738 2.67892 0
M  V30 180 C 17.3351 2.68793 2.35552 0
M  V30 181 S 18.8941 2.98207 3.21898 0
M  V30 182 H 15.7121 0.557922 0.440732 0
M  V30 183 H 18.3141 1.85966 0.603059 0
M  V30 184 H 17.0181 3.64102 1.89363 0
M  V30 185 H 16.5491 2.42817 3.09522 0
M  V30 186 H 18.5641 2.37548 4.35644 0
M  V30 187 N 17.7372 -0.778329 1.37039 0
M  V30 188 C 18.9832 -1.53892 1.32079 0
M  V30 189 C 19.3162 -1.9396 -0.0965386 0
M  V30 190 O 18.5912 -1.63568 -1.05242 0
M  V30 191 C 18.8742 -2.80847 2.25382 0
M  V30 192 C 18.7272 -2.47076 3.75864 0
M  V30 193 C 20.0462 -3.82741 2.1725 0
M  V30 194 H 17.1652 -0.558303 0.48111 0
M  V30 195 H 19.8072 -0.893397 1.67685 0
M  V30 196 H 17.9572 -3.35931 1.95148 0
M  V30 197 H 19.6292 -1.97957 4.16666 0
M  V30 198 H 17.8722 -1.79863 3.94755 0
M  V30 199 H 18.5432 -3.37798 4.36574 0
M  V30 200 H 21.0192 -3.37133 2.43887 0
M  V30 201 H 19.8952 -4.69303 2.84686 0
M  V30 202 H 20.1562 -4.2652 1.16331 0
M  V30 203 N 19.2153 -1.21501 -1.00376 0
M  V30 204 C 20.1453 -0.999478 -2.11028 0
M  V30 205 C 21.1263 0.0759671 -1.6993 0
M  V30 206 O 22.3113 -0.0841106 -1.94018 0
M  V30 207 C 19.4413 -0.564709 -3.42678 0
M  V30 208 C 18.3953 -1.58486 -3.97576 0
M  V30 209 C 17.7213 -1.00628 -5.25146 0
M  V30 210 C 19.0213 -2.97204 -4.29496 0
M  V30 211 H 20.7153 -1.92495 -2.29317 0
M  V30 212 H 18.2613 -0.92693 -1.102 0
M  V30 213 H 20.2143 -0.401091 -4.19487 0
M  V30 214 H 18.9383 0.396411 -3.24185 0
M  V30 215 H 17.5973 -1.73606 -3.22888 0
M  V30 216 H 17.2453 -0.0368439 -5.02987 0
M  V30 217 H 16.9453 -1.68771 -5.62841 0
M  V30 218 H 18.4693 -0.854015 -6.04598 0
M  V30 219 H 19.8833 -2.8552 -4.97143 0
M  V30 220 H 18.2803 -3.62372 -4.78338 0
M  V30 221 H 19.3503 -3.47956 -3.3772 0
M  V30 222 N 20.6934 1.19889 -1.02296 0
M  V30 223 C 21.6234 2.25141 -0.619174 0
M  V30 224 C 22.6044 1.66051 0.368915 0
M  V30 225 O 23.7894 1.92546 0.252941 0
M  V30 226 C 20.9194 3.4728 0.0368783 0
M  V30 227 C 19.8734 4.19005 -0.872865 0
M  V30 228 C 19.1994 5.34637 -0.0822402 0
M  V30 229 C 20.4994 4.74452 -2.18387 0
M  V30 230 H 22.1934 2.59171 -1.49903 0
M  V30 231 H 19.7394 1.24579 -0.722222 0
M  V30 232 H 21.6924 4.20098 0.330958 0
M  V30 233 H 20.4164 3.12433 0.95149 0
M  V30 234 H 19.0754 3.48061 -1.15105 0
M  V30 235 H 18.7234 4.96034 0.83422 0
M  V30 236 H 18.4234 5.83557 -0.688149 0
M  V30 237 H 19.9474 6.10255 0.205238 0
M  V30 238 H 21.3614 5.39055 -1.95172 0
M  V30 239 H 19.7584 5.33834 -2.74119 0
M  V30 240 H 20.8284 3.92844 -2.84257 0
M  V30 241 N 22.1715 0.800033 1.35784 0
M  V30 242 C 23.1015 0.220184 2.3246 0
M  V30 243 C 24.0825 -0.65073 1.57161 0
M  V30 244 O 25.2675 -0.582359 1.85263 0
M  V30 245 C 22.3975 -0.637353 3.41402 0
M  V30 246 C 21.3515 0.134531 4.27789 0
M  V30 247 C 20.6775 -0.844285 5.27992 0
M  V30 248 C 21.9775 1.32979 5.05088 0
M  V30 249 H 23.6715 1.02787 2.81203 0
M  V30 250 H 21.2175 0.495717 1.35199 0
M  V30 251 H 23.1705 -1.05302 4.08031 0
M  V30 252 H 21.8945 -1.47785 2.91251 0
M  V30 253 H 20.5535 0.531296 3.6273 0
M  V30 254 H 20.2015 -1.68011 4.74111 0
M  V30 255 H 19.9015 -0.332184 5.8666 0
M  V30 256 H 21.4255 -1.2583 5.97494 0
M  V30 257 H 22.8395 0.98934 5.64699 0
M  V30 258 H 21.2365 1.77593 5.7322 0
M  V30 259 H 22.3065 2.11978 4.36111 0
M  V30 260 N 23.6496 -1.47581 0.552962 0
M  V30 261 C 24.5796 -2.32762 -0.185451 0
M  V30 262 C 25.5606 -1.43527 -0.912905 0
M  V30 263 O 26.7456 -1.72388 -0.894201 0
M  V30 264 C 23.8756 -3.25219 -1.21859 0
M  V30 265 C 22.8296 -4.23661 -0.607864 0
M  V30 266 C 22.1556 -5.05413 -1.74533 0
M  V30 267 C 23.4556 -5.20481 0.435582 0
M  V30 268 H 25.1496 -2.94749 0.525684 0
M  V30 269 H 22.6956 -1.41738 0.254251 0
M  V30 270 H 24.6486 -3.8365 -1.7433 0
M  V30 271 H 23.3726 -2.61279 -1.95961 0
M  V30 272 H 22.0316 -3.66451 -0.104489 0
M  V30 273 H 21.6796 -4.3788 -2.47529 0
M  V30 274 H 21.3796 -5.72059 -1.34249 0
M  V30 275 H 22.9036 -5.66701 -2.27338 0
M  V30 276 H 24.3176 -5.733 -0.00290157 0
M  V30 277 H 22.7146 -5.95305 0.757067 0
M  V30 278 H 23.7846 -4.66217 1.33303 0
M  V30 279 N 25.1277 -0.289203 -1.54924 0
M  V30 280 C 26.0577 0.58549 -2.2604 0
M  V30 281 C 27.0387 1.14753 -1.25562 0
M  V30 282 O 28.2237 1.17906 -1.54311 0
M  V30 283 C 25.3537 1.76305 -2.99222 0
M  V30 284 C 24.3077 1.33191 -4.06748 0
M  V30 285 C 23.6337 2.5937 -4.6758 0
M  V30 286 C 24.9337 0.471775 -5.20165 0
M  V30 287 H 26.6277 -0.00763532 -2.99399 0
M  V30 288 H 24.1737 -0.00511229 -1.43999 0
M  V30 289 H 26.1267 2.38097 -3.47689 0
M  V30 290 H 24.8507 2.38223 -2.23422 0
M  V30 291 H 23.5097 0.737121 -3.59113 0
M  V30 292 H 23.1577 3.19576 -3.88433 0
M  V30 293 H 22.8577 2.31228 -5.40192 0
M  V30 294 H 24.3817 3.21985 -5.18804 0
M  V30 295 H 25.7957 0.995056 -5.64599 0
M  V30 296 H 24.1927 0.284639 -5.99425 0
M  V30 297 H 25.2627 -0.506041 -4.82252 0
M  V30 298 N 26.6058 1.57591 -0.0167156 0
M  V30 299 C 28.0218 1.55946 0.339557 0
M  V30 300 C 28.2218 1.02109 1.73713 0
M  V30 301 O 27.2778 0.662303 2.43659 0
M  V30 302 C 28.5908 3.00037 0.199499 0
M  V30 303 C 30.1388 3.11805 0.273193 0
M  V30 304 C 30.6138 4.57713 0.162068 0
M  V30 305 N 32.1048 4.6268 0.219444 0
M  V30 306 C 32.8398 5.73185 0.157054 0
M  V30 307 N 32.3358 6.92786 0.0442936 0
M  V30 308 N 34.1288 5.61707 0.21014 0
M  V30 309 H 26.2798 1.90921 -0.930758 0
M  V30 310 H 28.5428 0.877674 -0.358319 0
M  V30 311 H 28.2488 3.4333 -0.76273 0
M  V30 312 H 28.1228 3.64387 0.974786 0
M  V30 313 H 30.5098 2.68433 1.22587 0
M  V30 314 H 30.5908 2.50201 -0.532256 0
M  V30 315 H 30.2348 5.01763 -0.78714 0
M  V30 316 H 30.1648 5.17283 0.986222 0
M  V30 317 H 32.6558 3.76649 0.307246 0
M  V30 318 H 32.9688 7.728 0.00304069 0
M  V30 319 H 31.3138 6.94999 0.00968457 0
M  V30 320 H 34.5048 4.6716 0.296546 0
M  V30 321 H 34.6778 6.47807 0.158054 0
M  V30 322 N 28.0839 -0.256276 1.55502 0
M  V30 323 C 29.3299 -0.987079 1.77157 0
M  V30 324 C 29.6629 -1.85327 0.580315 0
M  V30 325 O 28.9379 -1.89874 -0.421686 0
M  V30 326 C 29.2209 -1.85553 3.08613 0
M  V30 327 C 29.0739 -1.01816 4.38125 0
M  V30 328 C 30.3929 -2.8397 3.36228 0
M  V30 329 H 27.5119 -0.357428 0.644526 0
M  V30 330 H 30.1539 -0.258239 1.88237 0
M  V30 331 H 28.3039 -2.47695 2.99298 0
M  V30 332 H 29.9759 -0.416159 4.59419 0
M  V30 333 H 28.2189 -0.322178 4.32602 0
M  V30 334 H 28.8899 -1.65939 5.26468 0
M  V30 335 H 31.3659 -2.31964 3.45445 0
M  V30 336 H 30.2419 -3.41864 4.29442 0
M  V30 337 H 30.5029 -3.59955 2.56681 0
M  V30 338 N 29.562 -1.4872 -0.521534 0
M  V30 339 C 30.494 -1.59968 -1.64143 0
M  V30 340 C 31.507 -0.483463 -1.55456 0
M  V30 341 O 32.696 -0.75467 -1.61762 0
M  V30 342 C 29.796 -1.52127 -3.02838 0
M  V30 343 C 28.969 -2.78932 -3.36921 0
M  V30 344 C 28.028 -2.64428 -4.54933 0
M  V30 345 O 27.054 -3.38331 -4.57735 0
M  V30 346 N 28.256 -1.74606 -5.53618 0
M  V30 347 H 31.021 -2.56548 -1.54929 0
M  V30 348 H 28.582 -1.45551 -0.708988 0
M  V30 349 H 30.574 -1.40106 -3.79674 0
M  V30 350 H 29.144 -0.634868 -3.06085 0
M  V30 351 H 28.364 -3.05455 -2.4918 0
M  V30 352 H 29.652 -3.63041 -3.56481 0
M  V30 353 H 29.05 -1.13782 -5.54139 0
M  V30 354 H 27.607 -1.6852 -6.29638 0
M  V30 355 N 31.0401 0.771051 -1.3745 0
M  V30 356 C 32.2681 1.56015 -1.35893 0
M  V30 357 C 32.6831 1.88718 0.0555523 0
M  V30 358 O 32.0401 1.51502 1.01752 0
M  V30 359 C 32.0911 2.87001 -2.19801 0
M  V30 360 O 31.8121 2.557 -3.55738 0
M  V30 361 C 33.3131 3.81228 -2.26231 0
M  V30 362 H 30.5331 0.483317 -0.465453 0
M  V30 363 H 33.0771 0.955611 -1.80799 0
M  V30 364 H 31.2321 3.43877 -1.78402 0
M  V30 365 H 31.6461 3.39584 -3.99729 0
M  V30 366 H 33.1201 4.70139 -2.89263 0
M  V30 367 H 33.5971 4.20409 -1.27093 0
M  V30 368 H 34.2031 3.30281 -2.67945 0
M  V30 369 N 32.5182 1.22032 0.997298 0
M  V30 370 C 33.7662 1.04016 1.73278 0
M  V30 371 C 34.0872 -0.426255 1.90284 0
M  V30 372 O 33.3572 -1.30694 1.45931 0
M  V30 373 H 31.9372 0.381897 0.642 0
M  V30 374 H 34.5992 1.5347 1.20137 0
M  V30 375 H 33.6952 1.51441 2.72896 0
M  V30 376 N 33.9963 -1.19345 1.0293 0
M  V30 377 C 35.2213 -1.93538 0.745511 0
M  V30 378 C 35.6463 -1.75007 -0.689511 0
M  V30 379 O 35.0043 -1.05265 -1.47611 0
M  V30 380 C 35.0523 -3.43336 1.10239 0
M  V30 381 O 34.1563 -4.11806 0.221289 0
M  V30 382 H 33.4973 -0.604193 0.275404 0
M  V30 383 H 36.0273 -1.5141 1.37609 0
M  V30 384 H 36.0373 -3.94004 1.05947 0
M  V30 385 H 34.7123 -3.56146 2.14786 0
M  V30 386 H 33.2893 -3.715 0.322842 0
M  V30 387 N 35.4744 -0.807222 -1.35358 0
M  V30 388 C 36.6994 -0.399309 -2.0352 0
M  V30 389 C 37.1244 0.981986 -1.60433 0
M  V30 390 O 36.4824 1.63601 -0.781299 0
M  V30 391 C 36.5304 -0.491552 -3.57234 0
M  V30 392 O 35.6344 0.494754 -4.09421 0
M  V30 393 H 34.9754 -0.166682 -0.642739 0
M  V30 394 H 37.5054 -1.09328 -1.72941 0
M  V30 395 H 37.5154 -0.361588 -4.06395 0
M  V30 396 H 36.1904 -1.49907 -3.87944 0
M  V30 397 H 34.7674 0.324977 -3.71481 0
M  V30 398 N 36.9525 1.47285 -0.560781 0
M  V30 399 C 37.8845 2.28118 0.222438 0
M  V30 400 C 38.8975 1.37219 0.876056 0
M  V30 401 O 40.0865 1.62011 0.749307 0
M  V30 402 C 37.1865 3.1159 1.33285 0
M  V30 403 C 36.3595 4.30473 0.77534 0
M  V30 404 C 35.4185 4.95513 1.77069 0
M  V30 405 O 34.4445 5.53792 1.31539 0
M  V30 406 N 35.6465 4.90531 3.10418 0
M  V30 407 H 38.4115 2.95976 -0.470958 0
M  V30 408 H 35.9725 1.56955 -0.39709 0
M  V30 409 H 37.9645 3.51967 1.99752 0
M  V30 410 H 36.5345 2.45951 1.92943 0
M  V30 411 H 35.7545 3.94144 -0.0662113 0
M  V30 412 H 37.0425 5.07362 0.382272 0
M  V30 413 H 36.4405 4.44389 3.5005 0
M  V30 414 H 34.9975 5.34917 3.72434 0
M  V30 415 N 38.4306 0.297415 1.54768 0
M  V30 416 C 39.8416 -0.195947 1.85669 0
M  V30 417 C 40.1926 -1.53707 1.21937 0
M  V30 418 O 39.3176 -2.10164 0.515754 0
M  V30 419 C 39.9126 -0.362318 3.36857 0
M  V30 420 C 38.4716 -0.799901 3.67802 0
M  V30 421 C 37.6186 0.0938578 2.77141 0
M  V30 422 H 40.5696 0.518538 1.4999 0
M  V30 423 H 40.5906 -1.19745 3.61167 0
M  V30 424 H 40.1026 0.613921 3.83214 0
M  V30 425 H 38.2036 -1.78682 3.26961 0
M  V30 426 H 38.3166 -0.621773 4.75048 0
M  V30 427 H 36.6806 -0.426254 2.51108 0
M  V30 428 H 37.4636 1.06639 3.26318 0
M  V30 429 N 39.9087 -1.5758 0.0250728 0
M  V30 430 C 41.1337 -1.96337 -0.668317 0
M  V30 431 C 41.5587 -0.901314 -1.651 0
M  V30 432 O 40.9167 0.138187 -1.80773 0
M  V30 433 C 40.9647 -3.34191 -1.35457 0
M  V30 434 O 40.0687 -3.30269 -2.46974 0
M  V30 435 H 39.4097 -0.640281 -0.175887 0
M  V30 436 H 41.9397 -2.0442 0.0857224 0
M  V30 437 H 41.9497 -3.70331 -1.71228 0
M  V30 438 H 40.6247 -4.11036 -0.634218 0
M  V30 439 H 39.2017 -3.05841 -2.13344 0
M  V30 440 N 41.3868 0.248026 -1.55636 0
M  V30 441 C 42.6328 0.97767 -1.77678 0
M  V30 442 C 42.9658 1.85016 -0.590135 0
M  V30 443 O 42.2408 1.90095 0.411611 0
M  V30 444 C 42.5238 1.83914 -3.09593 0
M  V30 445 C 42.3768 0.99491 -4.38659 0
M  V30 446 C 43.6958 2.82183 -3.37729 0
M  V30 447 H 40.8148 0.354005 -0.646413 0
M  V30 448 H 43.4568 0.248253 -1.88371 0
M  V30 449 H 41.6068 2.46104 -3.00608 0
M  V30 450 H 43.2788 0.391789 -4.59633 0
M  V30 451 H 41.5218 0.299231 -4.32767 0
M  V30 452 H 42.1928 1.63145 -5.2734 0
M  V30 453 H 44.6688 2.30129 -3.4667 0
M  V30 454 H 43.5448 3.39582 -4.31249 0
M  V30 455 H 43.8058 3.58588 -2.58586 0
M  V30 456 N 42.8649 1.48995 0.513639 0
M  V30 457 C 44.0899 1.61792 1.29762 0
M  V30 458 C 44.5149 0.284475 1.85936 0
M  V30 459 O 43.8729 -0.746185 1.65232 0
M  V30 460 C 43.9209 2.67993 2.41272 0
M  V30 461 O 43.0249 2.26287 3.44772 0
M  V30 462 H 42.3659 0.541963 0.38363 0
M  V30 463 H 44.8959 1.95097 0.616307 0
M  V30 464 H 44.9059 2.89772 2.87221 0
M  V30 465 H 43.5809 3.64791 1.9975 0
M  V30 466 H 42.1579 2.14788 3.04829 0
M  V30 467 N 44.343 -0.763751 1.37857 0
M  V30 468 C 45.754 -1.3405 1.29952 0
M  V30 469 C 46.105 -1.96138 -0.0492898 0
M  V30 470 O 45.23 -1.94372 -0.951239 0
M  V30 471 C 45.825 -2.43729 2.35333 0
M  V30 472 C 44.384 -2.97151 2.31037 0
M  V30 473 C 43.531 -1.70438 2.18738 0
M  V30 474 H 46.482 -0.563396 1.48363 0
M  V30 475 H 46.503 -3.23412 2.00462 0
M  V30 476 H 46.015 -1.9851 3.33489 0
M  V30 477 H 44.116 -3.46724 1.3643 0
M  V30 478 H 44.229 -3.52221 3.24772 0
M  V30 479 H 42.593 -1.93673 1.65418 0
M  V30 480 H 43.376 -1.27312 3.18821 0
M  V30 481 N 45.8211 -1.22559 -0.990812 0
M  V30 482 C 47.0691 -1.04933 -1.72724 0
M  V30 483 C 47.3901 0.416158 -1.90508 0
M  V30 484 O 46.6601 1.29918 -1.46622 0
M  V30 485 H 45.2401 -0.385296 -0.639965 0
M  V30 486 H 47.9021 -1.54105 -1.19322 0
M  V30 487 H 46.9981 -1.52886 -2.72089 0
M  V30 488 N 47.2992 1.18797 -1.03562 0
M  V30 489 C 48.2092 2.25913 -0.632505 0
M  V30 490 C 49.2252 1.70668 0.338882 0
M  V30 491 O 50.4012 2.00453 0.195076 0
M  V30 492 C 47.4662 3.467 0.00350942 0
M  V30 493 C 46.5272 4.17098 -1.01624 0
M  V30 494 C 45.7602 5.32119 -0.410478 0
M  V30 495 O 45.9832 5.64976 0.784725 0
M  V30 496 O 44.9172 5.9107 -1.13667 0
M  V30 497 H 48.7432 2.62648 -1.52478 0
M  V30 498 H 46.3282 1.25781 -0.806195 0
M  V30 499 H 48.2102 4.19878 0.35781 0
M  V30 500 H 46.8852 3.11798 0.869686 0
M  V30 501 H 45.7922 3.4601 -1.42224 0
M  V30 502 H 47.1252 4.55987 -1.85301 0
M  V30 503 N 48.7773 0.814389 1.34928 0
M  V30 504 C 50.1883 0.458364 1.80986 0
M  V30 505 C 50.5393 -1.02042 1.67577 0
M  V30 506 O 49.6643 -1.79352 1.21086 0
M  V30 507 C 50.2593 0.825212 3.28597 0
M  V30 508 C 48.8183 0.521677 3.72767 0
M  V30 509 C 47.9653 1.04668 2.56788 0
M  V30 510 H 50.9163 1.00533 1.22795 0
M  V30 511 H 50.9373 0.12571 3.80292 0
M  V30 512 H 50.4493 1.90154 3.38324 0
M  V30 513 H 48.5503 -0.545589 3.68584 0
M  V30 514 H 48.6633 1.05977 4.67232 0
M  V30 515 H 47.0273 0.468622 2.50352 0
M  V30 516 H 47.8103 2.12927 2.6929 0
M  V30 517 N 50.2554 -1.46986 0.568584 0
M  V30 518 C 51.4804 -2.07335 0.0520528 0
M  V30 519 C 51.9054 -1.41675 -1.23733 0
M  V30 520 O 51.2634 -0.495623 -1.74394 0
M  V30 521 C 51.3114 -3.60417 -0.11501 0
M  V30 522 O 50.4154 -3.95309 -1.17492 0
M  V30 523 H 49.7564 -0.661597 0.0564385 0
M  V30 524 H 52.2864 -1.88837 0.787507 0
M  V30 525 H 52.2964 -4.06698 -0.325644 0
M  V30 526 H 50.9714 -4.07601 0.826675 0
M  V30 527 H 49.5484 -3.60757 -0.943869 0
M  V30 528 N 51.7335 -0.305618 -1.54608 0
M  V30 529 C 53.1445 0.186098 -1.8577 0
M  V30 530 C 53.4955 1.53058 -1.22751 0
M  V30 531 O 52.6205 2.09888 -0.526893 0
M  V30 532 C 53.2155 0.344449 -3.37044 0
M  V30 533 C 51.7745 0.780384 -3.68221 0
M  V30 534 C 50.9215 -0.108554 -2.77087 0
M  V30 535 H 53.8725 -0.526485 -1.49712 0
M  V30 536 H 53.8935 1.17828 -3.61796 0
M  V30 537 H 53.4055 -0.634235 -3.82883 0
M  V30 538 H 51.5065 1.76945 -3.27904 0
M  V30 539 H 51.6195 0.596572 -4.75371 0
M  V30 540 H 49.9835 0.412931 -2.5133 0
M  V30 541 H 50.7665 -1.08368 -3.25747 0
M  V30 542 N 53.2116 1.57565 -0.0334293 0
M  V30 543 C 54.6226 1.79746 0.504798 0
M  V30 544 C 54.9736 0.944091 1.71992 0
M  V30 545 O 54.0986 0.155694 2.15839 0
M  V30 546 C 54.6936 3.25997 0.922567 0
M  V30 547 C 53.2526 3.49159 1.40588 0
M  V30 548 C 52.3996 2.74785 0.372633 0
M  V30 549 H 55.3506 1.56565 -0.259436 0
M  V30 550 H 55.3716 3.35945 1.78666 0
M  V30 551 H 54.8836 3.88081 0.0379825 0
M  V30 552 H 52.9846 2.92332 2.31025 0
M  V30 553 H 53.0976 4.57873 1.41028 0
M  V30 554 H 51.4616 2.40391 0.841672 0
M  V30 555 H 52.2446 3.39587 -0.503559 0
M  V30 556 N 54.6897 -0.239769 1.55765 0
M  V30 557 C 55.9147 -0.988373 1.82335 0
M  V30 558 C 56.3397 -1.77886 0.611421 0
M  V30 559 O 55.6977 -1.75889 -0.439639 0
M  V30 560 C 55.7457 -1.89627 3.06715 0
M  V30 561 O 54.8497 -2.98904 2.84131 0
M  V30 562 H 54.1907 -0.280858 0.601677 0
M  V30 563 H 56.7207 -0.258597 2.02959 0
M  V30 564 H 56.7307 -2.30957 3.36338 0
M  V30 565 H 55.4057 -1.31511 3.9456 0
M  V30 566 H 53.9827 -2.61651 2.65694 0
M  V30 567 N 56.1678 -1.49265 -0.50573 0
M  V30 568 C 57.4168 -1.57761 -1.25675 0
M  V30 569 C 57.7298 -0.267371 -1.93764 0
M  V30 570 O 58.9358 -0.230827 -2.70517 0
M  V30 571 C 57.3918 -2.78332 -2.28165 0
M  V30 572 C 56.9998 -4.16096 -1.66037 0
M  V30 573 C 58.7438 -2.96155 -3.04125 0
M  V30 574 C 56.6508 -5.27895 -2.6661 0
M  V30 575 H 55.5808 -0.587391 -0.472745 0
M  V30 576 H 58.2318 -1.75644 -0.53118 0
M  V30 577 H 56.6138 -2.53934 -3.03865 0
M  V30 578 H 57.7878 -4.50612 -0.963622 0
M  V30 579 H 56.1028 -4.03591 -1.02484 0
M  V30 580 H 58.6998 -3.76849 -3.79327 0
M  V30 581 H 59.0428 -2.06534 -3.61455 0
M  V30 582 H 59.5758 -3.2057 -2.35541 0
M  V30 583 H 56.3148 -6.1956 -2.14068 0
M  V30 584 H 55.8348 -4.97839 -3.34539 0
M  V30 585 H 57.5138 -5.57031 -3.29129 0
M  V30 586 N 57.6459 0.756429 -1.3826 0
M  V30 587 C 58.5959 1.86069 -1.31766 0
M  V30 588 C 59.5799 1.59621 -0.202483 0
M  V30 589 O 60.7719 1.7149 -0.438211 0
M  V30 590 C 57.9009 3.23742 -1.1422 0
M  V30 591 C 56.9869 3.56091 -2.30348 0
M  V30 592 N 57.3779 3.59517 -3.55783 0
M  V30 593 C 55.6759 3.86341 -2.22838 0
M  V30 594 C 56.3769 3.89052 -4.32451 0
M  V30 595 N 55.3529 4.05736 -3.61772 0
M  V30 596 H 59.1549 1.86992 -2.26741 0
M  V30 597 H 56.6689 0.953643 -1.31451 0
M  V30 598 H 58.6659 4.02761 -1.07652 0
M  V30 599 H 57.3259 3.24073 -0.201763 0
M  V30 600 H 58.3369 3.41347 -3.89491 0
M  V30 601 H 55.0139 3.94404 -1.36937 0
M  V30 602 H 56.4039 3.98349 -5.4108 0
M  V30 603 N 59.124 1.23083 0.984299 0
M  V30 604 C 60.535 1.05609 1.5396 0
M  V30 605 C 60.886 -0.377793 1.92528 0
M  V30 606 O 60.011 -1.26398 1.75649 0
M  V30 607 C 60.606 1.91087 2.7977 0
M  V30 608 C 59.165 1.77885 3.31713 0
M  V30 609 C 58.312 1.87028 2.04733 0
M  V30 610 H 61.263 1.36802 0.804419 0
M  V30 611 H 61.284 1.43336 3.5247 0
M  V30 612 H 60.796 2.9544 2.51668 0
M  V30 613 H 58.897 0.762995 3.64704 0
M  V30 614 H 59.01 2.61047 4.01735 0
M  V30 615 H 57.374 1.30565 2.18689 0
M  V30 616 H 58.157 2.92929 1.79017 0
M  V30 617 N 60.6021 -1.18246 1.0419 0
M  V30 618 C 61.8501 -1.87886 0.744543 0
M  V30 619 C 62.1711 -1.8082 -0.730006 0
M  V30 620 O 61.4411 -1.22736 -1.52685 0
M  V30 621 H 60.0211 -0.695556 0.272417 0
M  V30 622 H 62.6831 -1.43494 1.31892 0
M  V30 623 H 61.7791 -2.9389 1.05049 0
M  V30 624 N 62.0802 -0.821533 -1.34494 0
M  V30 625 C 63.0272 -0.240397 -2.29545 0
M  V30 626 C 63.9972 0.634031 -1.53523 0
M  V30 627 O 65.1822 0.575966 -1.81899 0
M  V30 628 C 62.3222 0.592869 -3.39969 0
M  V30 629 C 61.4352 -0.30365 -4.30932 0
M  V30 630 C 60.5702 0.539049 -5.28458 0
M  V30 631 C 59.6092 -0.356942 -6.11058 0
M  V30 632 N 58.7462 0.446603 -7.00678 0
M  V30 633 H 63.5862 -1.05632 -2.7865 0
M  V30 634 H 61.1232 -0.532413 -1.37127 0
M  V30 635 H 63.0812 1.09129 -4.02675 0
M  V30 636 H 61.7112 1.37392 -2.92102 0
M  V30 637 H 60.7632 -0.920276 -3.691 0
M  V30 638 H 62.0752 -0.992661 -4.88823 0
M  V30 639 H 61.2292 1.102 -5.96608 0
M  V30 640 H 59.9682 1.26157 -4.71101 0
M  V30 641 H 58.9732 -0.932047 -5.41842 0
M  V30 642 H 60.1982 -1.07755 -6.70497 0
M  V30 643 H 58.1442 1.15282 -6.45791 0
M  V30 644 H 58.0612 -0.184048 -7.55776 0
M  V30 645 H 59.3292 0.992352 -7.73158 0
M  V30 646 N 63.5583 1.46682 -0.576371 0
M  V30 647 C 64.7833 2.07304 -0.0630475 0
M  V30 648 C 65.2083 1.42329 1.2298 0
M  V30 649 O 64.5663 0.504865 1.74129 0
M  V30 650 C 64.6143 3.60472 0.095895 0
M  V30 651 O 63.7183 3.95927 1.15394 0
M  V30 652 H 63.0593 0.661288 -0.0599463 0
M  V30 653 H 65.5893 1.88417 -0.797511 0
M  V30 654 H 65.5993 4.06865 0.304071 0
M  V30 655 H 64.2743 4.07157 -0.84828 0
M  V30 656 H 62.8513 3.61252 0.924724 0
M  V30 657 N 65.0364 0.313813 1.54444 0
M  V30 658 C 66.3134 -0.345447 1.92525 0
M  V30 659 C 66.6934 -1.70667 1.24242 0
M  V30 660 O 66.0414 -2.25273 0.382654 0
M  V30 661 C 66.2514 -0.44737 3.46121 0
M  V30 662 C 67.5994 -0.712238 4.18584 0
M  V30 663 O 68.6234 -0.530678 3.52225 0
M  V30 664 O 67.4824 -1.06183 5.36085 0
M  V30 665 H 64.5764 -0.195407 0.803583 0
M  V30 666 H 67.1224 0.362813 1.65776 0
M  V30 667 H 65.8944 0.509043 3.87975 0
M  V30 668 H 65.5174 -1.20359 3.78945 0
M  V30 669 N 66.5145 -1.57545 0.0417849 0
M  V30 670 C 67.4445 -2.14009 -0.933929 0
M  V30 671 C 68.4255 -1.05938 -1.33083 0
M  V30 672 O 69.6105 -1.33833 -1.40721 0
M  V30 673 C 66.7405 -2.67747 -2.21199 0
M  V30 674 C 65.6945 -3.80718 -1.95544 0
M  V30 675 C 65.0205 -4.20935 -3.29724 0
M  V30 676 C 66.3205 -5.06258 -1.28452 0
M  V30 677 H 68.0145 -2.95788 -0.463645 0
M  V30 678 H 65.5605 -1.42285 -0.221573 0
M  V30 679 H 67.5135 -3.05886 -2.89848 0
M  V30 680 H 66.2375 -1.83147 -2.70416 0
M  V30 681 H 64.8965 -3.43037 -1.2931 0
M  V30 682 H 64.5445 -3.33298 -3.76724 0
M  V30 683 H 64.2445 -4.9707 -3.13361 0
M  V30 684 H 65.7685 -4.61666 -3.9962 0
M  V30 685 H 67.1825 -5.41903 -1.8712 0
M  V30 686 H 65.5795 -5.87475 -1.22445 0
M  V30 687 H 66.6495 -4.84207 -0.259219 0
M  V30 688 N 67.9926 0.231505 -1.5589 0
M  V30 689 C 69.2416 0.955346 -1.7764 0
M  V30 690 C 69.5546 1.85893 -0.608546 0
M  V30 691 O 70.7606 2.62067 -0.70943 0
M  V30 692 C 69.2166 1.74886 -3.14552 0
M  V30 693 C 68.8246 0.891915 -4.39032 0
M  V30 694 C 70.5686 2.46452 -3.45633 0
M  V30 695 C 68.4756 1.68221 -5.66971 0
M  V30 696 H 67.4056 0.360446 -0.662265 0
M  V30 697 H 70.0566 0.209516 -1.823 0
M  V30 698 H 68.4386 2.53723 -3.04041 0
M  V30 699 H 69.6126 0.144793 -4.60572 0
M  V30 700 H 67.9276 0.288863 -4.15397 0
M  V30 701 H 70.5246 3.06061 -4.38441 0
M  V30 702 H 70.8676 3.18841 -2.67668 0
M  V30 703 H 71.4006 1.74613 -3.57428 0
M  V30 704 H 68.1396 1.00178 -6.478 0
M  V30 705 H 67.6596 2.4042 -5.49507 0
M  V30 706 H 69.3386 2.24544 -6.06786 0
M  V30 707 N 69.4707 1.49531 0.497807 0
M  V30 708 C 70.7167 1.59415 1.25358 0
M  V30 709 C 71.0497 0.281422 1.9215 0
M  V30 710 O 70.3247 -0.715249 1.80871 0
M  V30 711 C 70.6077 2.75566 2.3181 0
M  V30 712 C 70.4607 4.16642 1.69498 0
M  V30 713 C 71.7797 2.87347 3.33346 0
M  V30 714 H 68.8987 0.580244 0.454408 0
M  V30 715 H 71.5407 1.81827 0.551262 0
M  V30 716 H 69.6907 2.56587 2.91711 0
M  V30 717 H 71.3627 4.47145 1.13399 0
M  V30 718 H 69.6057 4.22141 0.998978 0
M  V30 719 H 70.2767 4.93792 2.46725 0
M  V30 720 H 72.7527 3.04634 2.83438 0
M  V30 721 H 71.6287 3.70289 4.05188 0
M  V30 722 H 71.8897 1.96834 3.95865 0
M  V30 723 N 70.9488 -0.749086 1.3866 0
M  V30 724 C 72.3648 -1.05276 1.19955 0
M  V30 725 C 72.5648 -2.01435 0.05134 0
M  V30 726 O 71.6208 -2.45232 -0.60147 0
M  V30 727 C 72.9338 -1.62853 2.52783 0
M  V30 728 C 74.4818 -1.75002 2.59506 0
M  V30 729 C 74.9568 -2.35991 3.92521 0
M  V30 730 N 76.4478 -2.43416 3.94085 0
M  V30 731 C 77.1828 -2.91511 4.9377 0
M  V30 732 N 76.6788 -3.39608 6.03853 0
M  V30 733 N 78.4718 -2.90592 4.81157 0
M  V30 734 H 70.6228 -0.111066 2.12109 0
M  V30 735 H 72.8858 -0.111901 0.941373 0
M  V30 736 H 72.5918 -0.99664 3.37283 0
M  V30 737 H 72.4658 -2.61854 2.715 0
M  V30 738 H 74.8528 -2.37317 1.75398 0
M  V30 739 H 74.9338 -0.74693 2.44652 0
M  V30 740 H 74.5778 -1.74308 4.77053 0
M  V30 741 H 74.5078 -3.3695 4.04688 0
M  V30 742 H 76.9988 -2.09405 3.14576 0
M  V30 743 H 77.3118 -3.74775 6.75843 0
M  V30 744 H 75.6568 -3.37653 6.07466 0
M  V30 745 H 78.8478 -2.52332 3.94267 0
M  V30 746 H 79.0208 -3.27762 5.58996 0
M  V30 747 N 72.4269 -1.23603 -0.977757 0
M  V30 748 C 73.6729 -1.07129 -1.72195 0
M  V30 749 C 74.0059 0.390501 -1.90233 0
M  V30 750 O 73.2809 1.28902 -1.45653 0
M  V30 751 C 73.5639 -1.80031 -3.11867 0
M  V30 752 C 73.4169 -3.33899 -3.01383 0
M  V30 753 C 74.7359 -1.56492 -4.11337 0
M  V30 754 H 71.8549 -0.390571 -0.624999 0
M  V30 755 H 74.4969 -1.52142 -1.13811 0
M  V30 756 H 72.6469 -1.41768 -3.6171 0
M  V30 757 H 74.3189 -3.81699 -2.59043 0
M  V30 758 H 72.5619 -3.62796 -2.37827 0
M  V30 759 H 73.2329 -3.801 -4.00285 0
M  V30 760 H 75.7089 -1.89757 -3.70313 0
M  V30 761 H 74.5849 -2.09973 -5.07151 0
M  V30 762 H 74.8459 -0.500874 -4.39254 0
M  V30 763 N 73.905 1.17692 -1.04816 0
M  V30 764 C 75.153 1.87488 -0.754497 0
M  V30 765 C 75.474 1.81205 0.720407 0
M  V30 766 O 74.744 1.23544 1.52032 0
M  V30 767 H 73.324 0.694101 -0.276102 0
M  V30 768 H 75.986 1.42793 -1.32651 0
M  V30 769 H 75.082 2.93328 -1.06606 0
M  V30 770 N 75.3831 0.828654 1.34056 0
M  V30 771 C 76.6601 0.341809 1.9259 0
M  V30 772 C 77.0401 -1.17158 1.75605 0
M  V30 773 O 76.3881 -1.98132 1.13824 0
M  V30 774 C 76.5981 0.777453 3.4023 0
M  V30 775 C 77.9461 0.779579 4.17382 0
M  V30 776 O 78.9701 0.7204 3.48839 0
M  V30 777 O 77.8291 0.857996 5.39723 0
M  V30 778 H 74.9231 0.0946085 0.821571 0
M  V30 779 H 77.4691 0.913827 1.42994 0
M  V30 780 H 76.2411 1.8196 3.46419 0
M  V30 781 H 75.8641 0.181444 3.97186 0
M  V30 782 N 76.8612 -1.46375 0.584142 0
M  V30 783 C 77.7712 -2.34115 -0.150728 0
M  V30 784 C 78.7872 -1.49838 -0.884567 0
M  V30 785 O 79.9632 -1.82704 -0.847429 0
M  V30 786 C 77.0282 -3.2705 -1.15062 0
M  V30 787 C 76.0892 -4.27228 -0.421293 0
M  V30 788 C 75.3222 -5.15722 -1.37355 0
M  V30 789 O 75.5452 -5.07176 -2.61014 0
M  V30 790 O 74.4792 -5.95383 -0.883355 0
M  V30 791 H 78.3052 -2.98309 0.569708 0
M  V30 792 H 75.8902 -1.45373 0.344535 0
M  V30 793 H 77.7722 -3.84381 -1.72712 0
M  V30 794 H 76.4472 -2.65451 -1.8525 0
M  V30 795 H 75.3542 -3.7358 0.197085 0
M  V30 796 H 76.6872 -4.91616 0.239641 0
M  V30 797 N 78.3393 -0.321999 -1.54275 0
M  V30 798 C 79.5883 0.281931 -1.9972 0
M  V30 799 C 79.9013 1.53369 -1.21397 0
M  V30 800 O 81.1073 2.21352 -1.57211 0
M  V30 801 C 79.5633 0.5529 -3.55628 0
M  V30 802 C 79.1713 -0.681721 -4.42783 0
M  V30 803 C 80.9153 1.11687 -4.09544 0
M  V30 804 C 78.8223 -0.382742 -5.9016 0
M  V30 805 H 77.7523 0.109124 -0.746062 0
M  V30 806 H 80.4033 -0.43398 -1.78294 0
M  V30 807 H 78.7853 1.32896 -3.73035 0
M  V30 808 H 79.9593 -1.45723 -4.37151 0
M  V30 809 H 78.2743 -1.1658 -3.99748 0
M  V30 810 H 80.8713 1.35515 -5.17242 0
M  V30 811 H 81.2143 2.06575 -3.61431 0
M  V30 812 H 81.7473 0.402032 -3.95763 0
M  V30 813 H 78.4863 -1.30076 -6.42464 0
M  V30 814 H 78.0063 0.355094 -5.98748 0
M  V30 815 H 79.6853 0.00800157 -6.47 0
M  V30 816 N 79.8174 1.5752 -0.0501392 0
M  V30 817 C 81.2334 1.56631 0.306402 0
M  V30 818 C 81.4334 1.0577 1.71508 0
M  V30 819 O 80.4894 0.713837 2.422 0
M  V30 820 C 81.8024 3.00393 0.135811 0
M  V30 821 C 83.3504 3.12315 0.206993 0
M  V30 822 C 83.8254 4.57954 0.064944 0
M  V30 823 N 85.3164 4.63041 0.121254 0
M  V30 824 C 86.0514 5.73389 0.0354381 0
M  V30 825 N 85.5474 6.92724 -0.102666 0
M  V30 826 N 87.3404 5.62026 0.090946 0
M  V30 827 H 79.4914 1.88903 -0.971046 0
M  V30 828 H 81.7544 0.869876 -0.376855 0
M  V30 829 H 81.4604 3.41635 -0.835384 0
M  V30 830 H 81.3344 3.66373 0.897275 0
M  V30 831 H 83.7214 2.70973 1.16866 0
M  V30 832 H 83.8024 2.49016 -0.585208 0
M  V30 833 H 83.4464 4.99981 -0.893394 0
M  V30 834 H 83.3764 5.19258 0.876277 0
M  V30 835 H 85.8674 3.77216 0.227284 0
M  V30 836 H 86.1804 7.72633 -0.160882 0
M  V30 837 H 84.5254 6.94864 -0.137737 0
M  V30 838 H 87.7164 4.67684 0.197388 0
M  V30 839 H 87.8894 6.47997 0.0206089 0
M  V30 840 N 81.2955 -0.223234 1.56011 0
M  V30 841 C 82.2255 -1.27988 1.95298 0
M  V30 842 C 83.2065 -1.48976 0.820979 0
M  V30 843 O 84.3915 -1.61188 1.08315 0
M  V30 844 C 81.5215 -2.63 2.26822 0
M  V30 845 C 80.4755 -2.56671 3.42497 0
M  V30 846 C 79.8015 -3.95697 3.59622 0
M  V30 847 C 81.1015 -2.11601 4.77517 0
M  V30 848 H 82.7955 -0.953525 2.8381 0
M  V30 849 H 80.3415 -0.457244 1.36548 0
M  V30 850 H 82.2945 -3.37077 2.52898 0
M  V30 851 H 81.0185 -2.9732 1.35161 0
M  V30 852 H 79.6775 -1.85051 3.16467 0
M  V30 853 H 79.3255 -4.27322 2.6534 0
M  V30 854 H 79.0255 -3.92345 4.37424 0
M  V30 855 H 80.5495 -4.71438 3.88044 0
M  V30 856 H 81.9635 -2.7542 5.02809 0
M  V30 857 H 80.3605 -2.19311 5.5859 0
M  V30 858 H 81.4305 -1.06824 4.72987 0
M  V30 859 N 82.7736 -1.49793 -0.48987 0
M  V30 860 C 83.7036 -1.70201 -1.59856 0
M  V30 861 C 84.6846 -0.55076 -1.60937 0
M  V30 862 O 85.8696 -0.787841 -1.77501 0
M  V30 863 C 82.9996 -1.77882 -2.98287 0
M  V30 864 C 81.9536 -2.92907 -3.12073 0
M  V30 865 C 81.2796 -2.85712 -4.51965 0
M  V30 866 C 82.5796 -4.3369 -2.91051 0
M  V30 867 H 84.2736 -2.63025 -1.43032 0
M  V30 868 H 81.8196 -1.26574 -0.686664 0
M  V30 869 H 83.7726 -1.90744 -3.75759 0
M  V30 870 H 82.4966 -0.816653 -3.16225 0
M  V30 871 H 81.1556 -2.79665 -2.37029 0
M  V30 872 H 80.8036 -1.8738 -4.66795 0
M  V30 873 H 80.5036 -3.62921 -4.62128 0
M  V30 874 H 82.0276 -3.00598 -5.31482 0
M  V30 875 H 83.4416 -4.47555 -3.58284 0
M  V30 876 H 81.8386 -5.12205 -3.12675 0
M  V30 877 H 82.9086 -4.47362 -1.87071 0
M  V30 878 N 84.2517 0.741722 -1.39055 0
M  V30 879 C 85.4917 1.51385 -1.37338 0
M  V30 880 C 85.8557 1.91972 0.0330513 0
M  V30 881 O 87.0567 2.68229 0.175174 0
M  V30 882 C 85.3277 2.72481 -2.31276 0
M  V30 883 S 86.8867 3.62211 -2.47687 0
M  V30 884 H 83.7047 0.517906 -0.487129 0
M  V30 885 H 86.3067 0.86969 -1.7509 0
M  V30 886 H 85.0107 2.40793 -3.32336 0
M  V30 887 H 84.5417 3.41832 -1.94716 0
M  V30 888 H 86.5567 4.65812 -1.70978 0
M  V30 889 N 85.7298 1.2412 0.971189 0
M  V30 890 C 86.9578 1.10575 1.74874 0
M  V30 891 C 87.3728 -0.342017 1.85676 0
M  V30 892 O 86.7298 -1.23617 1.34258 0
M  V30 893 C 86.7808 1.73579 3.171 0
M  V30 894 O 86.5018 3.12695 3.06844 0
M  V30 895 C 88.0028 1.65598 4.11208 0
M  V30 896 H 85.2228 0.386504 0.548503 0
M  V30 897 H 87.7668 1.64156 1.21955 0
M  V30 898 H 85.9218 1.24009 3.67016 0
M  V30 899 H 86.3358 3.43412 3.96445 0
M  V30 900 H 87.8098 2.1437 5.08674 0
M  V30 901 H 88.2868 0.616532 4.34851 0
M  V30 902 H 88.8928 2.14578 3.67201 0
M  V30 903 N 87.2079 -1.17134 1.05439 0
M  V30 904 C 88.4849 -1.83411 0.679699 0
M  V30 905 C 88.8649 -1.9368 -0.839726 0
M  V30 906 O 88.2129 -1.47325 -1.74664 0
M  V30 907 C 88.4229 -3.20918 1.37159 0
M  V30 908 C 89.7709 -3.96796 1.51123 0
M  V30 909 O 90.7949 -3.30406 1.3308 0
M  V30 910 O 89.6539 -5.15778 1.80651 0
M  V30 911 H 86.7479 -0.79154 0.239569 0
M  V30 912 H 89.2939 -1.24411 1.15413 0
M  V30 913 H 88.0659 -3.08428 2.40807 0
M  V30 914 H 87.6889 -3.87587 0.886674 0
M  V30 915 N 88.686 -0.835752 -1.33615 0
M  V30 916 C 90.097 -0.487099 -1.80234 0
M  V30 917 C 90.448 0.993627 -1.69179 0
M  V30 918 O 89.573 1.77403 -1.23924 0
M  V30 919 C 90.168 -0.877385 -3.27242 0
M  V30 920 C 88.727 -0.580915 -3.7189 0
M  V30 921 C 87.874 -1.0874 -2.5509 0
M  V30 922 H 90.825 -1.02474 -1.2118 0
M  V30 923 H 90.846 -0.186195 -3.80044 0
M  V30 924 H 90.358 -1.95512 -3.35256 0
M  V30 925 H 88.459 0.486881 -3.69405 0
M  V30 926 H 88.572 -1.13396 -4.65487 0
M  V30 927 H 86.936 -0.508392 -2.49575 0
M  V30 928 H 87.719 -2.17184 -2.65868 0
M  V30 929 N 90.1641 1.46063 -0.591896 0
M  V30 930 C 91.4121 2.01938 -0.0808391 0
M  V30 931 C 91.7331 1.46475 1.28725 0
M  V30 932 O 91.0031 0.652944 1.84698 0
M  V30 933 H 89.5831 0.746516 -0.0268938 0
M  V30 934 H 92.2451 1.79055 -0.769752 0
M  V30 935 H 91.3411 3.12094 -0.0187578 0
M  V30 936 N 91.6422 0.330177 1.54103 0
M  V30 937 C 92.8892 -0.270405 2.00686 0
M  V30 938 C 93.2172 -1.51621 1.21825 0
M  V30 939 O 92.4722 -1.93536 0.29025 0
M  V30 940 C 92.7712 -0.643134 3.51566 0
M  V30 941 C 92.4372 0.504251 4.48072 0
M  V30 942 C 91.0992 0.819163 4.74176 0
M  V30 943 C 93.4512 1.27465 5.05373 0
M  V30 944 C 90.7792 1.90708 5.5484 0
M  V30 945 C 93.1312 2.35271 5.87223 0
M  V30 946 C 91.7952 2.67336 6.11627 0
M  V30 947 H 91.0652 -0.0989482 0.734364 0
M  V30 948 H 93.7122 0.455324 1.86008 0
M  V30 949 H 92.0172 -1.44938 3.64006 0
M  V30 950 H 93.7142 -1.11949 3.85056 0
M  V30 951 H 90.3042 0.248733 4.27878 0
M  V30 952 H 94.4882 1.04462 4.85182 0
M  V30 953 H 89.7442 2.15991 5.71977 0
M  V30 954 H 93.9182 2.95405 6.30641 0
M  V30 955 H 91.5452 3.51763 6.73919 0
M  V30 956 N 93.1203 -1.57491 0.0584922 0
M  V30 957 C 94.3663 -1.93264 -0.614558 0
M  V30 958 C 94.6993 -0.937717 -1.7006 0
M  V30 959 O 93.9743 0.0351652 -1.94468 0
M  V30 960 C 94.2573 -3.3938 -1.20386 0
M  V30 961 C 94.1103 -4.49625 -0.125375 0
M  V30 962 C 95.4293 -3.86039 -2.11334 0
M  V30 963 H 92.5483 -0.702791 -0.221933 0
M  V30 964 H 95.1903 -1.8961 0.12175 0
M  V30 965 H 93.3403 -3.42626 -1.83139 0
M  V30 966 H 95.0123 -4.58506 0.506971 0
M  V30 967 H 93.2553 -4.30354 0.545672 0
M  V30 968 H 93.9263 -5.48967 -0.577861 0
M  V30 969 H 96.4023 -3.84716 -1.58534 0
M  V30 970 H 95.2783 -4.88914 -2.49507 0
M  V30 971 H 95.5393 -3.23215 -3.01636 0
M  V30 972 N 94.5984 0.214957 -1.56127 0
M  V30 973 C 95.5454 1.26642 -1.92952 0
M  V30 974 C 96.5154 1.46244 -0.78753 0
M  V30 975 O 97.7004 1.59704 -1.04399 0
M  V30 976 C 94.8404 2.6104 -2.25726 0
M  V30 977 C 93.9534 2.49183 -3.52891 0
M  V30 978 C 93.0884 3.76149 -3.7508 0
M  V30 979 C 92.1274 3.59041 -4.95738 0
M  V30 980 N 91.2644 4.77972 -5.14283 0
M  V30 981 H 96.1044 0.945384 -2.82607 0
M  V30 982 H 93.6414 0.455489 -1.3987 0
M  V30 983 H 95.5994 3.39313 -2.42739 0
M  V30 984 H 94.2294 2.91227 -1.39236 0
M  V30 985 H 93.2814 1.6231 -3.44034 0
M  V30 986 H 94.5934 2.32466 -4.41318 0
M  V30 987 H 93.7474 4.62865 -3.92226 0
M  V30 988 H 92.4864 3.95799 -2.84947 0
M  V30 989 H 91.4914 2.7071 -4.78535 0
M  V30 990 H 92.7164 3.40856 -5.87362 0
M  V30 991 H 90.6624 4.97923 -4.27093 0
M  V30 992 H 90.5794 4.64006 -5.96853 0
M  V30 993 H 91.8474 5.66096 -5.35869 0
M  V30 994 N 96.0765 1.50051 0.48192 0
M  V30 995 C 97.3225 1.61706 1.2338 0
M  V30 996 C 97.6775 0.308488 1.89911 0
M  V30 997 O 96.9705 -0.692798 1.78636 0
M  V30 998 C 97.1645 2.72717 2.30998 0
M  V30 999 C 96.9935 4.14242 1.75024 0
M  V30 1000 C 95.7635 4.80786 1.55476 0
M  V30 1001 C 97.9615 4.98846 1.25128 0
M  V30 1002 N 95.9435 6.06563 0.946311 0
M  V30 1003 C 97.3145 6.15258 0.765382 0
M  V30 1004 C 99.3695 4.84702 1.13881 0
M  V30 1005 C 98.0725 7.19079 0.178113 0
M  V30 1006 C 100.098 5.8869 0.565486 0
M  V30 1007 C 99.4605 7.04343 0.0899105 0
M  V30 1008 H 95.5595 0.645958 0.440753 0
M  V30 1009 H 98.1435 1.8713 0.537624 0
M  V30 1010 H 96.3145 2.49033 2.98055 0
M  V30 1011 H 98.0465 2.73789 2.9803 0
M  V30 1012 H 94.8015 4.37899 1.80392 0
M  V30 1013 H 95.2255 6.73767 0.660812 0
M  V30 1014 H 99.8675 3.95583 1.49244 0
M  V30 1015 H 97.5855 8.07882 -0.187749 0
M  V30 1016 H 101.171 5.79808 0.480974 0
M  V30 1017 H 100.051 7.83433 -0.346782 0
M  V30 1018 N 97.5546 -0.734337 1.39446 0
M  V30 1019 C 98.7826 -1.52358 1.39981 0
M  V30 1020 C 99.1976 -1.88799 -0.0054975 0
M  V30 1021 O 98.5546 -1.54146 -0.976998 0
M  V30 1022 C 98.6056 -2.81072 2.27333 0
M  V30 1023 O 98.3266 -2.46178 3.62392 0
M  V30 1024 C 99.8276 -3.75096 2.36259 0
M  V30 1025 H 97.0476 -0.470806 0.478103 0
M  V30 1026 H 99.5916 -0.907339 1.83269 0
M  V30 1027 H 97.7466 -3.39026 1.87457 0
M  V30 1028 H 98.1606 -3.28866 4.08592 0
M  V30 1029 H 99.6346 -4.62305 3.01626 0
M  V30 1030 H 100.112 -4.16892 1.38194 0
M  V30 1031 H 100.718 -3.23061 2.76608 0
M  V30 1032 N 99.0327 -1.24633 -0.964593 0
M  V30 1033 C 100.28 -1.08788 -1.70796 0
M  V30 1034 C 100.608 0.372783 -1.90894 0
M  V30 1035 O 99.8627 1.29167 -1.47018 0
M  V30 1036 C 100.162 -1.7763 -3.10133 0
M  V30 1037 C 99.8277 -3.27557 -3.09866 0
M  V30 1038 C 98.4897 -3.6846 -3.09501 0
M  V30 1039 C 100.842 -4.23389 -3.03959 0
M  V30 1040 C 98.1697 -5.03624 -3.00965 0
M  V30 1041 C 100.522 -5.58565 -2.96965 0
M  V30 1042 C 99.1857 -5.98809 -2.9493 0
M  V30 1043 H 98.4557 -0.398084 -0.624988 0
M  V30 1044 H 101.103 -1.54777 -1.12767 0
M  V30 1045 H 99.4077 -1.24044 -3.71645 0
M  V30 1046 H 101.105 -1.62832 -3.66451 0
M  V30 1047 H 97.6947 -2.95006 -3.10917 0
M  V30 1048 H 101.879 -3.92787 -3.03368 0
M  V30 1049 H 97.1347 -5.33998 -2.97752 0
M  V30 1050 H 101.309 -6.32523 -2.91354 0
M  V30 1051 H 98.9357 -7.03505 -2.88071 0
M  V30 1052 N 100.511 1.16574 -1.06058 0
M  V30 1053 C 101.421 2.2452 -0.680282 0
M  V30 1054 C 102.437 1.71348 0.302604 0
M  V30 1055 O 103.613 2.00822 0.152513 0
M  V30 1056 C 100.678 3.46629 -0.0700315 0
M  V30 1057 C 99.7388 4.14849 -1.10448 0
M  V30 1058 C 98.9718 5.31129 -0.523256 0
M  V30 1059 O 99.1948 5.66514 0.664709 0
M  V30 1060 O 98.1288 5.88526 -1.26179 0
M  V30 1061 H 101.955 2.59355 -1.58015 0
M  V30 1062 H 99.5398 1.24043 -0.832694 0
M  V30 1063 H 101.422 4.20543 0.268667 0
M  V30 1064 H 100.097 3.13573 0.803353 0
M  V30 1065 H 99.0038 3.42916 -1.49532 0
M  V30 1066 H 100.337 4.51954 -1.94931 0
M  V30 1067 N 101.989 0.842826 1.3317 0
M  V30 1068 C 103.238 0.436738 1.96915 0
M  V30 1069 C 103.551 -1.01025 1.67491 0
M  V30 1070 O 104.757 -1.5212 2.24881 0
M  V30 1071 C 103.213 0.730021 3.52418 0
M  V30 1072 C 102.821 2.19195 3.90714 0
M  V30 1073 C 104.565 0.391076 4.22695 0
M  V30 1074 C 102.472 2.42907 5.39212 0
M  V30 1075 H 101.402 0.15958 0.736919 0
M  V30 1076 H 104.053 1.03196 1.51733 0
M  V30 1077 H 102.435 0.0643755 3.95948 0
M  V30 1078 H 103.609 2.8984 3.58231 0
M  V30 1079 H 101.924 2.49425 3.33431 0
M  V30 1080 H 104.521 0.545817 5.31907 0
M  V30 1081 H 104.864 -0.666294 4.10933 0
M  V30 1082 H 105.397 1.01212 3.84709 0
M  V30 1083 H 102.136 3.47224 5.55982 0
M  V30 1084 H 101.656 1.76827 5.73142 0
M  V30 1085 H 103.335 2.2626 6.06148 0
M  V30 1086 N 103.467 -1.45747 0.599634 0
M  V30 1087 C 104.397 -2.33235 -0.111306 0
M  V30 1088 C 105.378 -1.46359 -0.866781 0
M  V30 1089 O 106.563 -1.75146 -0.838904 0
M  V30 1090 C 103.693 -3.28932 -1.11451 0
M  V30 1091 C 102.647 -4.25381 -0.472772 0
M  V30 1092 C 101.973 -5.1071 -1.58365 0
M  V30 1093 C 103.273 -5.18831 0.600948 0
M  V30 1094 H 104.967 -2.92927 0.61919 0
M  V30 1095 H 102.513 -1.40857 0.299215 0
M  V30 1096 H 104.466 -3.89002 -1.62036 0
M  V30 1097 H 103.19 -2.67381 -1.8755 0
M  V30 1098 H 101.849 -3.66598 0.0121472 0
M  V30 1099 H 101.497 -4.45533 -2.33473 0
M  V30 1100 H 101.197 -5.7604 -1.15982 0
M  V30 1101 H 102.721 -5.73647 -2.09194 0
M  V30 1102 H 104.135 -5.73019 0.179491 0
M  V30 1103 H 102.532 -5.92595 0.946076 0
M  V30 1104 H 103.602 -4.6174 1.48068 0
M  V30 1105 N 104.945 -0.338344 -1.53925 0
M  V30 1106 C 106.222 0.314774 -1.93051 0
M  V30 1107 C 106.602 1.68669 -1.26941 0
M  V30 1108 O 105.95 2.24636 -0.418445 0
M  V30 1109 C 106.16 0.392249 -3.46789 0
M  V30 1110 C 107.508 0.645554 -4.19664 0
M  V30 1111 O 108.532 0.474575 -3.53024 0
M  V30 1112 O 107.391 0.976408 -5.37707 0
M  V30 1113 H 104.485 0.182598 -0.80659 0
M  V30 1114 H 107.031 -0.389141 -1.65178 0
M  V30 1115 H 105.803 -0.570702 -3.87116 0
M  V30 1116 H 105.426 1.14316 -3.80812 0
M  V30 1117 N 106.423 1.57458 -0.0668435 0
M  V30 1118 C 107.333 2.15937 0.916975 0
M  V30 1119 C 108.349 1.12123 1.33058 0
M  V30 1120 O 109.525 1.44366 1.40429 0
M  V30 1121 C 106.59 2.70547 2.16807 0
M  V30 1122 C 105.651 3.89215 1.81135 0
M  V30 1123 C 104.884 4.41211 3.0028 0
M  V30 1124 O 105.107 3.92225 4.14144 0
M  V30 1125 O 104.041 5.32605 2.80384 0
M  V30 1126 H 107.867 3.00354 0.449561 0
M  V30 1127 H 105.452 1.48584 0.155949 0
M  V30 1128 H 107.334 3.0557 2.90181 0
M  V30 1129 H 106.009 1.89192 2.62656 0
M  V30 1130 H 104.916 3.59054 1.05028 0
M  V30 1131 H 106.249 4.71848 1.40073 0
M  V30 1132 N 107.901 -0.206675 1.56239 0
M  V30 1133 C 109.129 -0.945345 1.8404 0
M  V30 1134 C 109.544 -1.77336 0.647885 0
M  V30 1135 O 108.901 -1.78425 -0.383511 0
M  V30 1136 C 108.952 -1.8509 3.10522 0
M  V30 1137 O 108.673 -1.05634 4.25174 0
M  V30 1138 C 110.174 -2.70222 3.51418 0
M  V30 1139 H 107.394 -0.276372 0.61144 0
M  V30 1140 H 109.938 -0.217417 2.03341 0
M  V30 1141 H 108.093 -2.53259 2.93153 0
M  V30 1142 H 108.507 -1.67238 4.97124 0
M  V30 1143 H 109.981 -3.29438 4.42916 0
M  V30 1144 H 110.458 -3.43358 2.73864 0
M  V30 1145 H 111.064 -2.07443 3.71278 0
M  V30 1146 N 109.379 -1.50304 -0.473955 0
M  V30 1147 C 110.327 -1.69482 -1.59307 0
M  V30 1148 C 111.321 -0.560669 -1.59853 0
M  V30 1149 O 112.527 -0.741087 -1.64036 0
M  V30 1150 H 108.902 -0.534892 -0.528578 0
M  V30 1151 H 110.873 -2.63364 -1.40293 0
M  V30 1152 C 109.622 -1.80354 -2.97267 0
M  V30 1153 H 108.945 -2.67012 -2.97564 0
M  V30 1154 H 110.385 -1.97798 -3.75036 0
M  V30 1155 C 108.844 -0.55448 -3.32306 0
M  V30 1156 O 109.374 0.307661 -4.0052 0
M  V30 1157 N 107.58 -0.409354 -2.87702 0
M  V30 1158 H 107.127 -1.11196 -2.32364 0
M  V30 1159 H 107.085 0.425223 -3.11511 0
M  V30 1160 N 110.857 0.726932 -1.39834 0
M  V30 1161 C 111.767 1.87131 -1.41489 0
M  V30 1162 C 112.783 1.71239 -0.308757 0
M  V30 1163 O 113.959 1.93701 -0.551529 0
M  V30 1164 C 111.024 3.22811 -1.26468 0
M  V30 1165 C 110.085 3.51039 -2.47124 0
M  V30 1166 C 109.318 4.80245 -2.3281 0
M  V30 1167 O 109.541 5.54537 -1.33585 0
M  V30 1168 O 108.475 5.08554 -3.21957 0
M  V30 1169 H 112.301 1.8869 -2.3797 0
M  V30 1170 H 109.886 0.875837 -1.21035 0
M  V30 1171 H 111.768 4.03877 -1.20255 0
M  V30 1172 H 110.443 3.22005 -0.330862 0
M  V30 1173 H 109.35 2.70027 -2.58914 0
M  V30 1174 H 110.683 3.56632 -3.39227 0
M  V30 1175 N 112.336 1.25143 0.95797 0
M  V30 1176 C 113.284 1.05019 2.07542 0
M  V30 1177 C 114.278 -0.0178751 1.69391 0
M  V30 1178 O 115.484 0.137472 1.79474 0
M  V30 1179 H 111.859 0.32265 0.679265 0
M  V30 1180 H 113.83 1.99759 2.21673 0
M  V30 1181 C 112.579 0.682074 3.40944 0
M  V30 1182 H 111.902 1.49573 3.70767 0
M  V30 1183 H 113.342 0.580945 4.20001 0
M  V30 1184 C 111.801 -0.611608 3.31302 0
M  V30 1185 O 112.331 -1.65465 3.66038 0
M  V30 1186 N 110.537 -0.595982 2.84423 0
M  V30 1187 H 110.084 0.253192 2.56353 0
M  V30 1188 H 110.042 -1.46173 2.78354 0
M  V30 1189 N 113.814 -1.1601 1.06675 0
M  V30 1190 C 114.761 -2.20525 0.680967 0
M  V30 1191 C 115.731 -1.62904 -0.324283 0
M  V30 1192 O 116.916 -1.89615 -0.212294 0
M  V30 1193 C 114.056 -3.45013 0.0776551 0
M  V30 1194 C 113.169 -4.16863 1.13355 0
M  V30 1195 C 112.304 -5.2888 0.49597 0
M  V30 1196 C 111.343 -5.92537 1.53513 0
M  V30 1197 N 110.48 -6.96038 0.920631 0
M  V30 1198 H 115.32 -2.52876 1.57663 0
M  V30 1199 H 112.857 -1.24199 0.788223 0
M  V30 1200 H 114.815 -4.16193 -0.289704 0
M  V30 1201 H 113.445 -3.132 -0.781393 0
M  V30 1202 H 112.497 -3.44248 1.61857 0
M  V30 1203 H 113.809 -4.60294 1.92174 0
M  V30 1204 H 112.963 -6.06653 0.0758604 0
M  V30 1205 H 111.702 -4.86622 -0.324062 0
M  V30 1206 H 110.707 -5.13482 1.9651 0
M  V30 1207 H 111.932 -6.36873 2.35733 0
M  V30 1208 H 109.878 -6.55888 0.12138 0
M  V30 1209 H 109.795 -7.3786 1.64616 0
M  V30 1210 H 111.063 -7.77725 0.525795 0
M  V30 1211 N 115.292 -0.849877 -1.32721 0
M  V30 1212 C 116.224 -0.248332 -2.27851 0
M  V30 1213 C 117.237 0.577218 -1.52224 0
M  V30 1214 O 118.426 0.402489 -1.73903 0
M  V30 1215 C 115.526 0.668107 -3.32249 0
M  V30 1216 C 114.699 -0.120534 -4.37234 0
M  V30 1217 C 113.758 0.720932 -5.21238 0
M  V30 1218 O 112.784 0.156166 -5.68986 0
M  V30 1219 N 113.986 2.03647 -5.43607 0
M  V30 1220 H 116.751 -1.06575 -2.80111 0
M  V30 1221 H 114.312 -0.709395 -1.45531 0
M  V30 1222 H 116.304 1.23627 -3.85355 0
M  V30 1223 H 114.874 1.38621 -2.80184 0
M  V30 1224 H 114.094 -0.870108 -3.84477 0
M  V30 1225 H 115.382 -0.662406 -5.0447 0
M  V30 1226 H 114.78 2.51871 -5.06535 0
M  V30 1227 H 113.337 2.55287 -5.99727 0
M  V30 1228 N 116.77 1.45427 -0.607355 0
M  V30 1229 C 117.718 2.32269 0.12411 0
M  V30 1230 C 118.712 1.45955 0.859854 0
M  V30 1231 O 119.918 1.6244 0.775447 0
M  V30 1232 H 116.293 0.749691 0.0588839 0
M  V30 1233 H 118.264 2.91743 -0.626762 0
M  V30 1234 C 117.013 3.29567 1.1082 0
M  V30 1235 H 116.336 3.95978 0.551492 0
M  V30 1236 H 117.776 3.93061 1.58995 0
M  V30 1237 C 116.235 2.56722 2.18164 0
M  V30 1238 O 116.765 2.34842 3.25902 0
M  V30 1239 N 114.971 2.16861 1.93442 0
M  V30 1240 H 114.518 2.34855 1.05834 0
M  V30 1241 H 114.476 1.68444 2.65469 0
M  V30 1242 N 118.248 0.346503 1.53744 0
M  V30 1243 C 119.158 -0.517293 2.28826 0
M  V30 1244 C 120.174 -1.10935 1.3405 0
M  V30 1245 O 121.35 -1.1244 1.6709 0
M  V30 1246 C 118.415 -1.65098 3.04866 0
M  V30 1247 C 117.476 -1.0884 4.15274 0
M  V30 1248 C 116.709 -2.16806 4.87679 0
M  V30 1249 O 116.932 -3.3758 4.59778 0
M  V30 1250 O 115.866 -1.80934 5.74061 0
M  V30 1251 H 119.692 0.0931396 3.03557 0
M  V30 1252 H 117.277 0.111458 1.48984 0
M  V30 1253 H 119.159 -2.31053 3.5241 0
M  V30 1254 H 117.834 -2.24717 2.32989 0
M  V30 1255 H 116.741 -0.3933 3.72027 0
M  V30 1256 H 118.074 -0.537036 4.89261 0
M  V30 1257 N 119.726 -1.57421 0.075193 0
M  V30 1258 C 120.972 -1.94716 -0.587998 0
M  V30 1259 C 121.327 -0.955205 -1.67014 0
M  V30 1260 O 120.62 0.0219842 -1.91587 0
M  V30 1261 C 120.814 -3.36428 -1.20626 0
M  V30 1262 C 120.643 -4.49317 -0.185541 0
M  V30 1263 C 119.413 -5.04772 0.23099 0
M  V30 1264 C 121.611 -5.11036 0.57854 0
M  V30 1265 N 119.593 -6.01204 1.24206 0
M  V30 1266 C 120.964 -6.02998 1.44199 0
M  V30 1267 C 123.019 -4.93844 0.634237 0
M  V30 1268 C 121.722 -6.79614 2.3562 0
M  V30 1269 C 123.748 -5.71106 1.53597 0
M  V30 1270 C 123.11 -6.6272 2.38709 0
M  V30 1271 H 119.209 -0.759536 -0.186089 0
M  V30 1272 H 121.793 -1.94097 0.153128 0
M  V30 1273 H 119.964 -3.37778 -1.9173 0
M  V30 1274 H 121.696 -3.60951 -1.8302 0
M  V30 1275 H 118.451 -4.73353 -0.152807 0
M  V30 1276 H 118.875 -6.54119 1.74521 0
M  V30 1277 H 123.517 -4.22799 -0.00960004 0
M  V30 1278 H 121.235 -7.49934 3.01038 0
M  V30 1279 H 124.821 -5.59824 1.58394 0
M  V30 1280 H 123.701 -7.2146 3.07352 0
M  V30 1281 N 121.204 0.198386 -1.56346 0
M  V30 1282 C 122.453 0.917451 -1.79627 0
M  V30 1283 C 122.766 1.8456 -0.64784 0
M  V30 1284 O 123.972 2.60504 -0.764859 0
M  V30 1285 C 122.428 1.68175 -3.18191 0
M  V30 1286 C 122.036 0.798589 -4.40825 0
M  V30 1287 C 123.78 2.39065 -3.50782 0
M  V30 1288 C 121.687 1.56157 -5.70411 0
M  V30 1289 H 120.617 0.346317 -0.669762 0
M  V30 1290 H 123.268 0.170801 -1.82703 0
M  V30 1291 H 121.65 2.47216 -3.09354 0
M  V30 1292 H 122.824 0.0470665 -4.60776 0
M  V30 1293 H 121.139 0.200686 -4.15916 0
M  V30 1294 H 123.736 2.96692 -4.44835 0
M  V30 1295 H 124.079 3.13091 -2.74371 0
M  V30 1296 H 124.612 1.66993 -3.61052 0
M  V30 1297 H 121.351 0.864142 -6.49779 0
M  V30 1298 H 120.871 2.2871 -5.54483 0
M  V30 1299 H 122.55 2.11622 -6.11412 0
M  V30 1300 N 122.682 1.50554 0.465978 0
M  V30 1301 C 123.91 1.65563 1.24083 0
M  V30 1302 C 124.325 0.341051 1.85694 0
M  V30 1303 O 123.682 -0.677543 1.69457 0
M  V30 1304 C 123.733 2.75051 2.34583 0
M  V30 1305 O 123.454 4.01413 1.75497 0
M  V30 1306 C 124.955 3.01078 3.25372 0
M  V30 1307 H 122.175 0.55638 0.375077 0
M  V30 1308 H 124.719 1.96807 0.555624 0
M  V30 1309 H 122.874 2.46486 2.9887 0
M  V30 1310 H 123.288 4.62002 2.48303 0
M  V30 1311 H 124.762 3.81339 3.99105 0
M  V30 1312 H 125.239 2.12349 3.84453 0
M  V30 1313 H 125.845 3.31194 2.66816 0
M  V30 1314 N 124.16 -0.719506 1.40217 0
M  V30 1315 C 125.07 -1.86378 1.42479 0
M  V30 1316 C 126.086 -1.71073 0.317834 0
M  V30 1317 O 127.262 -1.93406 0.561794 0
M  V30 1318 C 124.327 -3.22136 1.28178 0
M  V30 1319 C 123.388 -3.49723 2.48982 0
M  V30 1320 C 122.621 -4.79004 2.35353 0
M  V30 1321 O 122.844 -5.53821 1.36524 0
M  V30 1322 O 121.778 -5.06839 3.2465 0
M  V30 1323 H 125.604 -1.87425 2.38968 0
M  V30 1324 H 123.189 -0.869405 1.21498 0
M  V30 1325 H 125.071 -4.03234 1.22395 0
M  V30 1326 H 123.746 -3.21825 0.347934 0
M  V30 1327 H 122.653 -2.6865 2.60342 0
M  V30 1328 H 123.986 -3.54828 3.41113 0
M  V30 1329 N 125.638 -1.25649 -0.95132 0
M  V30 1330 C 126.585 -1.06323 -2.04851 0
M  V30 1331 C 127.555 0.0286491 -1.66075 0
M  V30 1332 O 128.74 -0.12917 -1.90362 0
M  V30 1333 C 125.88 -0.691529 -3.381 0
M  V30 1334 C 124.993 -1.85861 -3.89974 0
M  V30 1335 C 124.128 -1.43096 -5.11563 0
M  V30 1336 C 123.167 -2.56696 -5.55674 0
M  V30 1337 N 122.304 -2.14684 -6.68472 0
M  V30 1338 H 127.144 -2.00222 -2.20715 0
M  V30 1339 H 124.681 -0.997027 -1.08156 0
M  V30 1340 H 126.639 -0.456963 -4.1469 0
M  V30 1341 H 125.269 0.210474 -3.22113 0
M  V30 1342 H 124.321 -2.20639 -3.09875 0
M  V30 1343 H 125.633 -2.71161 -4.18657 0
M  V30 1344 H 124.787 -1.15624 -5.9558 0
M  V30 1345 H 123.526 -0.548722 -4.84603 0
M  V30 1346 H 122.531 -2.84909 -4.7022 0
M  V30 1347 H 123.756 -3.45503 -5.8464 0
M  V30 1348 H 121.702 -1.28881 -6.43215 0
M  V30 1349 H 121.619 -2.9353 -6.96689 0
M  V30 1350 H 122.887 -1.90397 -7.5589 0
M  V30 1351 N 127.117 1.15442 -1.07289 0
M  V30 1352 C 128.08 2.18358 -0.696591 0
M  V30 1353 C 129.08 1.58637 0.262837 0
M  V30 1354 O 130.27 1.74145 0.0438809 0
M  V30 1355 C 127.402 3.4089 -0.0266151 0
M  V30 1356 H 128.595 2.53162 -1.60776 0
M  V30 1357 H 126.148 1.29893 -0.869342 0
M  V30 1358 H 126.883 3.11653 0.896822 0
M  V30 1359 H 126.668 3.85495 -0.716657 0
M  V30 1360 H 128.158 4.17009 0.222028 0
M  V30 1361 N 128.595 0.856903 1.32268 0
M  V30 1362 C 129.505 0.306131 2.32594 0
M  V30 1363 C 130.521 -0.577209 1.64147 0
M  V30 1364 O 131.697 -0.477043 1.95669 0
M  V30 1365 C 128.762 -0.494561 3.43154 0
M  V30 1366 C 127.823 0.415186 4.27288 0
M  V30 1367 C 127.056 -0.347387 5.32568 0
M  V30 1368 O 127.279 -1.57708 5.48165 0
M  V30 1369 O 126.213 0.287982 6.01211 0
M  V30 1370 H 130.039 1.13737 2.81598 0
M  V30 1371 H 127.624 0.619902 1.35932 0
M  V30 1372 H 129.506 -0.948944 4.10576 0
M  V30 1373 H 128.181 -1.30257 2.96336 0
M  V30 1374 H 127.088 0.917793 3.62667 0
M  V30 1375 H 128.421 1.18844 4.77637 0
M  V30 1376 N 130.073 -1.45103 0.615059 0
M  V30 1377 C 131.036 -2.29025 -0.0895485 0
M  V30 1378 C 132.036 -1.40174 -0.787906 0
M  V30 1379 O 133.226 -1.62217 -0.634933 0
M  V30 1380 C 130.358 -3.21376 -1.13711 0
M  V30 1381 H 131.551 -2.92807 0.648382 0
M  V30 1382 H 129.104 -1.51749 0.374444 0
M  V30 1383 H 129.839 -2.6241 -1.90556 0
M  V30 1384 H 129.624 -3.86834 -0.640475 0
M  V30 1385 H 131.114 -3.84459 -1.63036 0
M  V30 1386 N 131.551 -0.354651 -1.53558 0
M  V30 1387 C 132.779 0.239515 -2.05509 0
M  V30 1388 C 133.194 1.4333 -1.2289 0
M  V30 1389 O 132.551 1.80538 -0.266899 0
M  V30 1390 C 132.602 0.643719 -3.55723 0
M  V30 1391 O 132.323 -0.502602 -4.35207 0
M  V30 1392 C 133.824 1.29743 -4.23889 0
M  V30 1393 H 131.044 0.0442697 -0.669538 0
M  V30 1394 H 133.588 -0.509856 -1.98042 0
M  V30 1395 H 131.743 1.34302 -3.63376 0
M  V30 1396 H 132.157 -0.178172 -5.24197 0
M  V30 1397 H 133.631 1.53091 -5.30346 0
M  V30 1398 H 134.108 2.25441 -3.76926 0
M  V30 1399 H 134.714 0.639865 -4.20459 0
M  V30 1400 N 133.029 1.57378 -0.0835403 0
M  V30 1401 C 133.977 2.14602 0.89714 0
M  V30 1402 C 134.971 1.08589 1.30018 0
M  V30 1403 O 136.177 1.26952 1.27606 0
M  V30 1404 H 132.552 0.686346 0.3073 0
M  V30 1405 H 134.523 2.95845 0.38969 0
M  V30 1406 C 133.272 2.73188 2.15089 0
M  V30 1407 H 132.595 3.54442 1.84962 0
M  V30 1408 H 134.035 3.1681 2.81793 0
M  V30 1409 C 132.494 1.68517 2.91725 0
M  V30 1410 O 133.024 1.11718 3.85852 0
M  V30 1411 N 131.23 1.39277 2.55049 0
M  V30 1412 H 130.777 1.85655 1.78577 0
M  V30 1413 H 130.735 0.694791 3.06627 0
M  V30 1414 N 134.507 -0.190092 1.56449 0
M  V30 1415 C 135.735 -0.925772 1.85033 0
M  V30 1416 C 136.15 -1.76638 0.666658 0
M  V30 1417 O 135.507 -1.78822 -0.364565 0
M  V30 1418 C 135.558 -1.81786 3.12468 0
M  V30 1419 O 135.279 -1.01118 4.26271 0
M  V30 1420 C 136.78 -2.6648 3.54265 0
M  V30 1421 H 134 -0.269872 0.614337 0
M  V30 1422 H 136.544 -0.195837 2.0356 0
M  V30 1423 H 134.699 -2.50136 2.95822 0
M  V30 1424 H 135.113 -1.61956 4.98869 0
M  V30 1425 H 136.587 -3.24722 4.46385 0
M  V30 1426 H 137.064 -3.40434 2.77491 0
M  V30 1427 H 137.67 -2.03493 3.73458 0
M  V30 1428 N 135.985 -1.50799 -0.457987 0
M  V30 1429 C 137.233 -1.62121 -1.2067 0
M  V30 1430 C 137.554 -0.329793 -1.92191 0
M  V30 1431 O 136.824 0.653409 -1.84682 0
M  V30 1432 H 135.404 -0.597441 -0.448411 0
M  V30 1433 H 138.066 -1.87637 -0.527096 0
M  V30 1434 H 137.162 -2.43882 -1.94751 0
M  V30 1435 N 137.463 0.71206 -1.40597 0
M  V30 1436 C 138.41 1.82613 -1.41142 0
M  V30 1437 C 139.38 1.63925 -0.267903 0
M  V30 1438 O 140.565 1.85009 -0.466495 0
M  V30 1439 C 137.705 3.20354 -1.28324 0
M  V30 1440 C 136.818 3.50589 -2.52411 0
M  V30 1441 C 135.953 4.77855 -2.32009 0
M  V30 1442 C 134.992 5.01005 -3.51654 0
M  V30 1443 N 134.129 6.19487 -3.30425 0
M  V30 1444 H 138.969 1.81482 -2.36365 0
M  V30 1445 H 136.506 0.886475 -1.17388 0
M  V30 1446 H 138.464 3.99899 -1.18899 0
M  V30 1447 H 137.094 3.20705 -0.367189 0
M  V30 1448 H 136.146 2.65573 -2.72351 0
M  V30 1449 H 137.458 3.63604 -3.41458 0
M  V30 1450 H 136.612 5.65424 -2.19956 0
M  V30 1451 H 135.351 4.67056 -1.40392 0
M  V30 1452 H 134.356 4.1189 -3.64179 0
M  V30 1453 H 135.581 5.13674 -4.44202 0
M  V30 1454 H 133.527 6.09932 -2.41494 0
M  V30 1455 H 133.444 6.33194 -4.13039 0
M  V30 1456 H 134.712 7.09834 -3.22113 0
M  V30 1457 N 138.941 1.26152 0.944643 0
M  V30 1458 C 140.171 1.14094 1.72239 0
M  V30 1459 C 140.579 -0.306931 1.86694 0
M  V30 1460 O 139.922 -1.22222 1.3714 0
M  V30 1461 C 139.984 1.73316 3.14963 0
M  V30 1462 C 139.648 3.2239 3.23904 0
M  V30 1463 C 140.645 4.19252 3.07447 0
M  V30 1464 C 138.33 3.62788 3.47405 0
M  V30 1465 C 140.324 5.54491 3.14353 0
M  V30 1466 C 138.011 4.98162 3.53947 0
M  V30 1467 C 139.009 5.93823 3.37436 0
M  V30 1468 O 138.697 7.26732 3.43679 0
M  V30 1469 H 138.429 0.398292 0.546205 0
M  V30 1470 H 140.983 1.67201 1.19301 0
M  V30 1471 H 139.213 1.14667 3.69308 0
M  V30 1472 H 140.902 1.56214 3.74636 0
M  V30 1473 H 141.668 3.8938 2.8915 0
M  V30 1474 H 137.547 2.88816 3.59313 0
M  V30 1475 H 141.091 6.29137 3.01384 0
M  V30 1476 H 136.988 5.27695 3.71763 0
M  V30 1477 H 137.756 7.3496 3.60245 0
M  V30 1478 N 140.419 -1.14872 1.07899 0
M  V30 1479 C 141.647 -1.89661 0.82683 0
M  V30 1480 C 142.062 -1.78312 -0.620519 0
M  V30 1481 O 141.419 -1.13888 -1.42604 0
M  V30 1482 C 141.47 -3.39817 1.23316 0
M  V30 1483 O 141.191 -3.50845 2.62372 0
M  V30 1484 C 142.692 -4.31615 1.0111 0
M  V30 1485 H 139.912 -0.60092 0.298557 0
M  V30 1486 H 142.456 -1.4551 1.43691 0
M  V30 1487 H 140.611 -3.8161 0.667286 0
M  V30 1488 H 141.025 -4.44076 2.79101 0
M  V30 1489 H 142.499 -5.35367 1.34486 0
M  V30 1490 H 142.976 -4.39169 -0.0522168 0
M  V30 1491 H 143.582 -3.95572 1.56215 0
M  V30 1492 N 141.898 -0.863906 -1.31812 0
M  V30 1493 C 143.138 -0.47825 -1.98726 0
M  V30 1494 C 143.502 0.950397 -1.66828 0
M  V30 1495 O 144.703 1.44109 -2.26905 0
M  V30 1496 C 142.974 -0.721134 -3.50049 0
M  V30 1497 S 144.533 -0.434432 -4.36644 0
M  V30 1498 H 141.351 -0.178773 -0.688158 0
M  V30 1499 H 143.953 -1.11862 -1.60334 0
M  V30 1500 H 142.657 -1.75981 -3.70755 0
M  V30 1501 H 142.188 -0.0675315 -3.93342 0
M  V30 1502 H 144.203 0.735786 -4.90714 0
M  V30 1503 N 143.376 1.44774 -0.622745 0
M  V30 1504 C 144.604 2.06487 -0.130722 0
M  V30 1505 C 145.019 1.46476 1.19123 0
M  V30 1506 O 144.376 0.584502 1.72887 0
M  V30 1507 C 144.427 3.615 -0.000807207 0
M  V30 1508 O 144.148 4.19274 -1.27048 0
M  V30 1509 C 145.649 4.40229 0.520898 0
M  V30 1510 H 142.869 0.666704 -0.0758106 0
M  V30 1511 H 145.413 1.85779 -0.854774 0
M  V30 1512 H 143.568 3.81498 0.673643 0
M  V30 1513 H 143.982 5.12622 -1.1099 0
M  V30 1514 H 145.456 5.49144 0.560838 0
M  V30 1515 H 145.933 4.1108 1.54627 0
M  V30 1516 H 146.539 4.25131 -0.120018 0
M  V30 1517 N 144.854 0.36279 1.53368 0
M  V30 1518 C 145.802 -0.500155 2.27159 0
M  V30 1519 C 146.796 -1.08575 1.3003 0
M  V30 1520 O 148.002 -1.02927 1.47668 0
M  V30 1521 H 144.377 -0.180009 0.730138 0
M  V30 1522 H 146.348 0.14401 2.98052 0
M  V30 1523 C 145.097 -1.62937 3.07159 0
M  V30 1524 H 144.42 -1.18806 3.8174 0
M  V30 1525 H 145.86 -2.20795 3.61975 0
M  V30 1526 C 144.319 -2.57007 2.17829 0
M  V30 1527 O 144.849 -3.59752 1.78721 0
M  V30 1528 N 143.055 -2.26131 1.82518 0
M  V30 1529 H 142.602 -1.42616 2.14519 0
M  V30 1530 H 142.56 -2.89327 1.23034 0
M  V30 1531 N 146.332 -1.57332 0.0918853 0
M  V30 1532 C 147.279 -2.13847 -0.868211 0
M  V30 1533 C 148.249 -1.05618 -1.28196 0
M  V30 1534 O 149.434 -1.33387 -1.36427 0
M  V30 1535 C 146.574 -2.72062 -2.12312 0
M  V30 1536 C 145.687 -3.94514 -1.7602 0
M  V30 1537 C 144.822 -4.40903 -2.96273 0
M  V30 1538 C 143.861 -5.55953 -2.56092 0
M  V30 1539 N 142.998 -5.97209 -3.69169 0
M  V30 1540 H 147.838 -2.95575 -0.379406 0
M  V30 1541 H 145.375 -1.46048 -0.175606 0
M  V30 1542 H 147.333 -3.03931 -2.858 0
M  V30 1543 H 145.963 -1.93068 -2.58698 0
M  V30 1544 H 145.015 -3.68979 -0.925135 0
M  V30 1545 H 146.327 -4.7802 -1.42472 0
M  V30 1546 H 145.481 -4.74539 -3.78018 0
M  V30 1547 H 144.22 -3.56291 -3.33029 0
M  V30 1548 H 143.225 -5.21948 -1.72773 0
M  V30 1549 H 144.45 -6.42311 -2.20484 0
M  V30 1550 H 142.396 -5.15543 -4.05649 0
M  V30 1551 H 142.313 -6.75504 -3.39456 0
M  V30 1552 H 143.581 -6.35475 -4.51434 0
M  V30 1553 N 147.81 0.181792 -1.56548 0
M  V30 1554 C 148.76 1.22961 -1.92002 0
M  V30 1555 C 149.744 1.40331 -0.787146 0
M  V30 1556 O 150.936 1.42478 -1.05019 0
M  V30 1557 C 148.065 2.57144 -2.27446 0
M  V30 1558 C 147.151 2.43512 -3.47222 0
M  V30 1559 N 147.542 1.99577 -4.64761 0
M  V30 1560 C 145.84 2.74368 -3.51622 0
M  V30 1561 C 146.541 1.98156 -5.46909 0
M  V30 1562 N 145.517 2.40164 -4.8767 0
M  V30 1563 H 149.319 0.881462 -2.8037 0
M  V30 1564 H 146.833 0.390141 -1.57644 0
M  V30 1565 H 148.83 3.32847 -2.51035 0
M  V30 1566 H 147.49 2.92771 -1.40411 0
M  V30 1567 H 148.501 1.70078 -4.89177 0
M  V30 1568 H 145.178 3.14102 -2.75038 0
M  V30 1569 H 146.568 1.65975 -6.51077 0
M  V30 1570 N 149.288 1.51039 0.449983 0
M  V30 1571 C 150.536 1.62759 1.19808 0
M  V30 1572 C 150.857 0.339981 1.92013 0
M  V30 1573 O 150.127 -0.643606 1.85026 0
M  V30 1574 H 148.707 0.599811 0.445237 0
M  V30 1575 H 151.369 1.87914 0.517138 0
M  V30 1576 H 150.465 2.44911 1.93455 0
M  V30 1577 N 150.766 -0.704594 1.40972 0
M  V30 1578 C 151.696 -1.83124 1.44872 0
M  V30 1579 C 152.677 -1.67281 0.30838 0
M  V30 1580 O 153.862 -1.87149 0.518556 0
M  V30 1581 C 150.992 -3.21181 1.32136 0
M  V30 1582 C 149.946 -3.51714 2.43888 0
M  V30 1583 C 149.272 -4.89032 2.16222 0
M  V30 1584 C 150.572 -3.516 3.86232 0
M  V30 1585 H 152.266 -1.80117 2.39161 0
M  V30 1586 H 149.812 -0.865145 1.15114 0
M  V30 1587 H 151.765 -3.99702 1.33479 0
M  V30 1588 H 150.489 -3.24791 0.343279 0
M  V30 1589 H 149.148 -2.75539 2.41813 0
M  V30 1590 H 148.796 -4.89256 1.16778 0
M  V30 1591 H 148.496 -5.10426 2.911 0
M  V30 1592 H 150.02 -5.69873 2.19265 0
M  V30 1593 H 151.434 -4.2014 3.9007 0
M  V30 1594 H 149.831 -3.84523 4.60719 0
M  V30 1595 H 150.901 -2.50757 4.15029 0
M  V30 1596 N 152.244 -1.26651 -0.937939 0
M  V30 1597 C 153.469 -1.15279 -1.72411 0
M  V30 1598 C 153.894 0.287866 -1.85884 0
M  V30 1599 O 153.252 1.20855 -1.35143 0
M  V30 1600 C 153.3 -1.83028 -3.10698 0
M  V30 1601 O 152.404 -1.12128 -3.96864 0
M  V30 1602 H 151.745 -0.401504 -0.528858 0
M  V30 1603 H 154.275 -1.67531 -1.1745 0
M  V30 1604 H 154.285 -1.89981 -3.6107 0
M  V30 1605 H 152.96 -2.87833 -3.00208 0
M  V30 1606 H 151.537 -1.13173 -3.55312 0
M  V30 1607 N 153.722 1.14298 -1.08507 0
M  V30 1608 C 154.67 2.21483 -0.710483 0
M  V30 1609 C 155.664 1.66998 0.284234 0
M  V30 1610 O 156.87 1.79401 0.146692 0
M  V30 1611 H 153.245 0.721578 -0.211729 0
M  V30 1612 H 155.216 2.50348 -1.62384 0
M  V30 1613 C 153.965 3.4743 -0.137007 0
M  V30 1614 H 153.288 3.89686 -0.893592 0
M  V30 1615 H 154.728 4.2391 0.0872789 0
M  V30 1616 C 153.187 3.17548 1.12538 0
M  V30 1617 O 153.717 3.35437 2.21009 0
M  V30 1618 N 151.923 2.71499 1.03617 0
M  V30 1619 H 151.47 2.57143 0.153403 0
M  V30 1620 H 151.428 2.51881 1.88158 0
M  V30 1621 N 155.201 0.870884 1.31352 0
M  V30 1622 C 156.426 0.495957 2.01383 0
M  V30 1623 C 156.851 -0.904324 1.64935 0
M  V30 1624 O 156.209 -1.59687 0.858466 0
M  V30 1625 C 156.257 0.661433 3.54482 0
M  V30 1626 O 155.361 -0.298851 4.11316 0
M  V30 1627 H 154.702 0.197158 0.634054 0
M  V30 1628 H 157.232 1.17455 1.67527 0
M  V30 1629 H 157.242 0.555072 4.04207 0
M  V30 1630 H 155.917 1.68246 3.8035 0
M  V30 1631 H 154.494 -0.147368 3.72609 0
M  V30 1632 N 156.679 -1.44442 0.630414 0
M  V30 1633 C 157.928 -2.01267 0.132073 0
M  V30 1634 C 158.241 -1.50172 -1.25331 0
M  V30 1635 O 159.447 -1.9912 -1.84562 0
M  V30 1636 C 157.903 -3.59422 0.185362 0
M  V30 1637 C 157.511 -4.19514 1.57201 0
M  V30 1638 C 159.255 -4.23724 -0.256553 0
M  V30 1639 C 157.162 -5.69891 1.58045 0
M  V30 1640 H 156.092 -0.752619 0.0456092 0
M  V30 1641 H 158.743 -1.65666 0.789106 0
M  V30 1642 H 157.125 -3.92318 -0.538759 0
M  V30 1643 H 158.299 -3.98156 2.31966 0
M  V30 1644 H 156.614 -3.67496 1.95795 0
M  V30 1645 H 159.211 -5.34019 -0.269767 0
M  V30 1646 H 159.554 -3.96013 -1.28372 0
M  V30 1647 H 160.087 -3.95629 0.41505 0
M  V30 1648 H 156.826 -6.02336 2.58597 0
M  V30 1649 H 156.346 -5.93373 0.875725 0
M  V30 1650 H 158.025 -6.33515 1.31408 0
M  V30 1651 N 158.157 -0.370918 -1.53173 0
M  V30 1652 C 159.387 0.217389 -2.05453 0
M  V30 1653 C 159.795 1.42568 -1.24382 0
M  V30 1654 O 159.138 1.81571 -0.278839 0
M  V30 1655 C 159.2 0.669827 -3.53205 0
M  V30 1656 C 158.864 -0.4225 -4.55043 0
M  V30 1657 C 159.861 -1.27407 -5.04047 0
M  V30 1658 C 157.546 -0.58427 -4.9889 0
M  V30 1659 C 159.54 -2.27271 -5.95505 0
M  V30 1660 C 157.227 -1.58627 -5.90153 0
M  V30 1661 C 158.225 -2.42892 -6.38351 0
M  V30 1662 O 157.913 -3.41382 -7.27814 0
M  V30 1663 H 157.645 0.0408171 -0.674767 0
M  V30 1664 H 160.199 -0.5292 -1.98466 0
M  V30 1665 H 158.429 1.4681 -3.57748 0
M  V30 1666 H 160.118 1.18173 -3.88317 0
M  V30 1667 H 160.884 -1.16031 -4.70916 0
M  V30 1668 H 156.763 0.061851 -4.60959 0
M  V30 1669 H 160.307 -2.93079 -6.33049 0
M  V30 1670 H 156.204 -1.70048 -6.22699 0
M  V30 1671 H 156.972 -3.37173 -7.45826 0
M  V30 1672 N 159.635 1.57281 -0.100228 0
M  V30 1673 C 160.881 1.94826 0.563101 0
M  V30 1674 C 161.214 0.982475 1.67514 0
M  V30 1675 O 160.489 0.0164069 1.94493 0
M  V30 1676 C 160.772 3.42453 1.11346 0
M  V30 1677 C 160.625 4.498 0.00612081 0
M  V30 1678 C 161.944 3.91506 2.01024 0
M  V30 1679 H 159.063 0.708428 0.203221 0
M  V30 1680 H 161.705 1.8922 -0.171979 0
M  V30 1681 H 159.855 3.47361 1.7399 0
M  V30 1682 H 161.527 4.57 -0.628357 0
M  V30 1683 H 159.77 4.28756 -0.659581 0
M  V30 1684 H 160.441 5.50306 0.432109 0
M  V30 1685 H 162.917 3.88784 1.48278 0
M  V30 1686 H 161.793 4.95358 2.36457 0
M  V30 1687 H 162.054 3.31099 2.92961 0
M  V30 1688 N 161.113 -0.173488 1.56642 0
M  V30 1689 C 162.36 -0.890465 1.81871 0
M  V30 1690 C 162.688 -1.82339 0.67696 0
M  V30 1691 O 161.943 -1.92795 -0.335926 0
M  V30 1692 C 162.242 -1.72069 3.13252 0
M  V30 1693 C 161.908 -0.936878 4.41059 0
M  V30 1694 C 160.57 -0.720545 4.75775 0
M  V30 1695 C 162.922 -0.386919 5.19762 0
M  V30 1696 C 160.25 0.0568829 5.86672 0
M  V30 1697 C 162.602 0.37741 6.31473 0
M  V30 1698 C 161.266 0.604563 6.64757 0
M  V30 1699 H 160.536 -0.325844 0.665512 0
M  V30 1700 H 163.183 -0.155527 1.90867 0
M  V30 1701 H 161.488 -2.52496 2.99588 0
M  V30 1702 H 163.185 -2.27844 3.29982 0
M  V30 1703 H 159.775 -1.11553 4.13828 0
M  V30 1704 H 163.959 -0.541398 4.93338 0
M  V30 1705 H 159.215 0.242635 6.10918 0
M  V30 1706 H 163.389 0.810825 6.91664 0
M  V30 1707 H 161.016 1.20885 7.50527 0
M  V30 1708 N 162.591 -1.51276 -0.441967 0
M  V30 1709 C 163.837 -1.63958 -1.19355 0
M  V30 1710 C 164.17 -0.352543 -1.90973 0
M  V30 1711 O 163.445 0.647627 -1.83401 0
M  V30 1712 C 163.728 -2.83979 -2.21422 0
M  V30 1713 C 163.581 -4.22646 -1.53918 0
M  V30 1714 C 164.9 -2.99521 -3.22451 0
M  V30 1715 H 162.019 -0.596709 -0.432559 0
M  V30 1716 H 164.661 -1.83748 -0.483398 0
M  V30 1717 H 162.811 -2.67237 -2.81987 0
M  V30 1718 H 164.483 -4.51045 -0.967256 0
M  V30 1719 H 162.726 -4.25558 -0.841615 0
M  V30 1720 H 163.397 -5.02609 -2.28229 0
M  V30 1721 H 165.873 -3.14944 -2.71937 0
M  V30 1722 H 164.749 -3.85072 -3.91166 0
M  V30 1723 H 165.01 -2.11391 -3.88287 0
M  V30 1724 N 164.069 0.697108 -1.41344 0
M  V30 1725 C 165.485 1.00751 -1.2378 0
M  V30 1726 C 165.685 2.01105 -0.126066 0
M  V30 1727 O 164.741 2.47295 0.51004 0
M  V30 1728 C 166.054 1.53359 -2.58653 0
M  V30 1729 C 167.602 1.6525 -2.65822 0
M  V30 1730 C 168.077 2.2126 -4.01009 0
M  V30 1731 N 169.568 2.28622 -4.02847 0
M  V30 1732 C 170.303 2.72984 -5.04249 0
M  V30 1733 N 169.799 3.16962 -6.16041 0
M  V30 1734 N 171.592 2.72534 -4.91611 0
M  V30 1735 H 163.743 0.0322662 -2.12375 0
M  V30 1736 H 166.006 0.0768853 -0.944877 0
M  V30 1737 H 165.712 0.870773 -3.4075 0
M  V30 1738 H 165.586 2.51597 -2.81032 0
M  V30 1739 H 167.973 2.30644 -1.84086 0
M  V30 1740 H 168.054 0.655614 -2.47256 0
M  V30 1741 H 167.698 1.56482 -4.83193 0
M  V30 1742 H 167.628 3.21698 -4.16915 0
M  V30 1743 H 170.119 1.97585 -3.22131 0
M  V30 1744 H 170.432 3.49434 -6.89287 0
M  V30 1745 H 168.777 3.14875 -6.1958 0
M  V30 1746 H 171.968 2.37525 -4.0336 0
M  V30 1747 H 172.141 3.06789 -5.70775 0
M  V30 1748 N 165.547 1.27147 0.931209 0
M  V30 1749 C 166.824 1.0401 1.65654 0
M  V30 1750 C 167.204 -0.426297 2.06751 0
M  V30 1751 O 166.552 -1.40879 1.79904 0
M  V30 1752 C 166.762 1.99834 2.86125 0
M  V30 1753 C 168.11 2.29007 3.57549 0
M  V30 1754 O 169.134 1.97779 2.96246 0
M  V30 1755 O 167.993 2.82222 4.67989 0
M  V30 1756 H 165.087 0.396239 0.725895 0
M  V30 1757 H 167.633 1.38397 0.982056 0
M  V30 1758 H 166.405 2.98744 2.52721 0
M  V30 1759 H 166.028 1.65987 3.61295 0
M  V30 1760 N 167.025 -1.13721 1.09112 0
M  V30 1761 C 168.436 -1.6648 0.845068 0
M  V30 1762 C 168.787 -1.85911 -0.62701 0
M  V30 1763 O 167.912 -1.57556 -1.48341 0
M  V30 1764 C 168.507 -3.02413 1.52748 0
M  V30 1765 C 167.066 -3.52176 1.32849 0
M  V30 1766 C 166.213 -2.27492 1.58564 0
M  V30 1767 H 169.164 -0.976872 1.25072 0
M  V30 1768 H 169.185 -3.68223 0.958752 0
M  V30 1769 H 168.697 -2.88238 2.59885 0
M  V30 1770 H 166.798 -3.7156 0.278137 0
M  V30 1771 H 166.911 -4.32499 2.0611 0
M  V30 1772 H 165.275 -2.33923 1.00758 0
M  V30 1773 H 166.058 -2.15886 2.66924 0
M  V30 1774 N 168.503 -0.877838 -1.30888 0
M  V30 1775 C 169.466 -0.344265 -2.266 0
M  V30 1776 C 170.466 0.50922 -1.52524 0
M  V30 1777 O 171.656 0.317398 -1.71284 0
M  V30 1778 C 168.788 0.510198 -3.37061 0
M  V30 1779 H 169.981 -1.1893 -2.7531 0
M  V30 1780 H 167.534 -0.654088 -1.41956 0
M  V30 1781 H 168.269 1.37612 -2.93655 0
M  V30 1782 H 168.054 -0.101047 -3.9197 0
M  V30 1783 H 169.544 0.875537 -4.08319 0
M  V30 1784 N 169.982 1.44106 -0.638065 0
M  V30 1785 C 170.929 2.30715 0.062701 0
M  V30 1786 C 171.899 1.43882 0.829883 0
M  V30 1787 O 173.084 1.72775 0.809532 0
M  V30 1788 C 170.224 3.29258 1.03358 0
M  V30 1789 C 169.337 4.31192 0.26409 0
M  V30 1790 C 168.472 5.16825 1.22741 0
M  V30 1791 C 167.511 6.10462 0.447475 0
M  V30 1792 N 166.648 6.8877 1.36161 0
M  V30 1793 H 171.488 2.90096 -0.681781 0
M  V30 1794 H 169.025 1.42925 -0.347988 0
M  V30 1795 H 170.983 3.84886 1.60992 0
M  V30 1796 H 169.613 2.71562 1.74511 0
M  V30 1797 H 168.665 3.77981 -0.428295 0
M  V30 1798 H 169.977 4.97619 -0.343052 0
M  V30 1799 H 169.131 5.77004 1.87487 0
M  V30 1800 H 167.87 4.50488 1.86847 0
M  V30 1801 H 166.875 5.49386 -0.213433 0
M  V30 1802 H 168.1 6.78837 -0.188968 0
M  V30 1803 H 166.046 6.25096 1.98975 0
M  V30 1804 H 165.963 7.51663 0.808656 0
M  V30 1805 H 167.231 7.53467 1.99769 0
M  V30 1806 N 171.46 0.379036 1.52974 0
M  V30 1807 C 172.39 -0.452706 2.29069 0
M  V30 1808 C 173.371 -1.07237 1.32039 0
M  V30 1809 O 174.556 -1.08708 1.60923 0
M  V30 1810 C 171.686 -1.5856 3.08992 0
M  V30 1811 C 170.64 -1.0925 4.13822 0
M  V30 1812 C 169.966 -2.31668 4.81907 0
M  V30 1813 C 171.266 -0.167702 5.22031 0
M  V30 1814 H 172.96 0.182181 2.98845 0
M  V30 1815 H 170.506 0.0890592 1.43724 0
M  V30 1816 H 172.459 -2.1742 3.6098 0
M  V30 1817 H 171.183 -2.24792 2.36931 0
M  V30 1818 H 169.842 -0.526494 3.628 0
M  V30 1819 H 169.49 -2.96386 4.06404 0
M  V30 1820 H 169.19 -1.9934 5.52754 0
M  V30 1821 H 170.714 -2.91189 5.36695 0
M  V30 1822 H 172.128 -0.664186 5.6944 0
M  V30 1823 H 170.525 0.0653265 6.00064 0
M  V30 1824 H 171.595 0.786347 4.78482 0
M  V30 1825 N 172.938 -1.57226 0.108567 0
M  V30 1826 C 174.185 -1.94833 -0.551943 0
M  V30 1827 C 174.513 -0.991204 -1.67348 0
M  V30 1828 O 173.768 -0.0131878 -1.95696 0
M  V30 1829 C 174.067 -3.38911 -1.13463 0
M  V30 1830 C 173.733 -4.50696 -0.135509 0
M  V30 1831 C 172.395 -4.80998 0.139252 0
M  V30 1832 C 174.747 -5.18333 0.545957 0
M  V30 1833 C 172.075 -5.76259 1.10194 0
M  V30 1834 C 174.427 -6.14627 1.49721 0
M  V30 1835 C 173.091 -6.43327 1.78006 0
M  V30 1836 H 172.361 -0.712944 -0.20197 0
M  V30 1837 H 175.008 -1.90582 0.18726 0
M  V30 1838 H 173.313 -3.39805 -1.95037 0
M  V30 1839 H 175.01 -3.65317 -1.65362 0
M  V30 1840 H 171.6 -4.27087 -0.359846 0
M  V30 1841 H 175.784 -4.95087 0.346842 0
M  V30 1842 H 171.04 -5.96804 1.32795 0
M  V30 1843 H 175.214 -6.66126 2.03099 0
M  V30 1844 H 172.841 -7.1695 2.52759 0
M  V30 1845 N 174.416 0.165178 -1.56732 0
M  V30 1846 C 175.346 1.20651 -1.99914 0
M  V30 1847 C 176.327 1.45827 -0.875705 0
M  V30 1848 O 177.512 1.57057 -1.14223 0
M  V30 1849 C 174.642 2.54401 -2.36427 0
M  V30 1850 C 173.596 2.43782 -3.51787 0
M  V30 1851 C 172.922 3.82078 -3.7406 0
M  V30 1852 C 174.222 1.93732 -4.85041 0
M  V30 1853 H 175.916 0.847534 -2.87154 0
M  V30 1854 H 173.462 0.40625 -1.38151 0
M  V30 1855 H 175.415 3.27458 -2.65234 0
M  V30 1856 H 174.139 2.92098 -1.46103 0
M  V30 1857 H 172.798 1.73178 -3.23117 0
M  V30 1858 H 172.446 4.17179 -2.81017 0
M  V30 1859 H 172.146 3.7584 -4.51684 0
M  V30 1860 H 173.67 4.56712 -4.05274 0
M  V30 1861 H 175.084 2.56569 -5.12684 0
M  V30 1862 H 173.481 1.98428 -5.66345 0
M  V30 1863 H 174.551 0.891962 -4.76626 0
M  V30 1864 N 175.894 1.51508 0.433938 0
M  V30 1865 C 177.14 1.64588 1.18484 0
M  V30 1866 C 177.473 0.362666 1.90784 0
M  V30 1867 O 176.748 -0.637892 1.83742 0
M  V30 1868 C 177.031 2.85149 2.19913 0
M  V30 1869 C 176.884 4.23456 1.51674 0
M  V30 1870 C 178.203 3.01227 3.20858 0
M  V30 1871 H 175.322 0.598994 0.429389 0
M  V30 1872 H 177.964 1.84002 0.473647 0
M  V30 1873 H 176.114 2.68729 2.80566 0
M  V30 1874 H 177.786 4.51552 0.943322 0
M  V30 1875 H 176.029 4.25998 0.819035 0
M  V30 1876 H 176.7 5.03812 2.2556 0
M  V30 1877 H 179.176 3.16382 2.70263 0
M  V30 1878 H 178.052 3.87141 3.89118 0
M  V30 1879 H 178.313 2.13447 3.8716 0
M  V30 1880 N 177.372 -0.689602 1.41712 0
M  V30 1881 C 178.649 -1.44457 1.31877 0
M  V30 1882 C 179.029 -2.11039 -0.0508537 0
M  V30 1883 O 178.377 -2.02138 -1.06547 0
M  V30 1884 C 178.587 -2.45913 2.47645 0
M  V30 1885 C 179.935 -3.10991 2.89084 0
M  V30 1886 O 180.959 -2.56238 2.47428 0
M  V30 1887 O 179.818 -4.10174 3.61137 0
M  V30 1888 H 176.912 -0.64362 0.519309 0
M  V30 1889 H 179.458 -0.719576 1.53689 0
M  V30 1890 H 178.23 -1.95409 3.39015 0
M  V30 1891 H 177.853 -3.25913 2.27742 0
M  V30 1892 N 178.85 -1.27639 -0.924453 0
M  V30 1893 C 180.266 -1.05113 -1.20097 0
M  V30 1894 C 180.466 0.213262 -2.00368 0
M  V30 1895 O 179.522 0.91787 -2.35226 0
M  V30 1896 C 180.835 -2.29244 -1.94596 0
M  V30 1897 C 182.383 -2.34315 -2.07522 0
M  V30 1898 C 182.858 -3.58183 -2.85427 0
M  V30 1899 N 184.349 -3.5876 -2.92994 0
M  V30 1900 C 185.084 -4.51277 -3.53746 0
M  V30 1901 N 184.58 -5.54102 -4.15863 0
M  V30 1902 N 186.373 -4.38894 -3.51181 0
M  V30 1903 H 178.524 -2.08821 -0.388264 0
M  V30 1904 H 180.787 -0.918568 -0.234385 0
M  V30 1905 H 180.493 -3.21301 -1.43034 0
M  V30 1906 H 180.367 -2.34816 -2.95197 0
M  V30 1907 H 182.754 -1.42762 -2.58269 0
M  V30 1908 H 182.835 -2.32744 -1.06131 0
M  V30 1909 H 182.479 -4.50074 -2.35363 0
M  V30 1910 H 182.409 -3.57006 -3.8711 0
M  V30 1911 H 184.9 -2.84398 -2.4885 0
M  V30 1912 H 185.213 -6.20859 -4.60168 0
M  V30 1913 H 183.558 -5.57941 -4.144 0
M  V30 1914 H 186.749 -3.57772 -3.01856 0
M  V30 1915 H 186.922 -5.11186 -3.98237 0
M  V30 1916 N 180.328 1.1314 -1.09713 0
M  V30 1917 C 181.553 1.88862 -0.857081 0
M  V30 1918 C 181.978 1.78729 0.586304 0
M  V30 1919 O 181.336 1.13692 1.41222 0
M  V30 1920 C 181.384 3.36325 -1.30069 0
M  V30 1921 O 180.488 4.09815 -0.461007 0
M  V30 1922 H 179.829 0.587108 -0.310162 0
M  V30 1923 H 182.359 1.43129 -1.46203 0
M  V30 1924 H 182.369 3.87157 -1.28738 0
M  V30 1925 H 181.044 3.43017 -2.35185 0
M  V30 1926 H 179.621 3.68986 -0.538888 0
M  V30 1927 N 181.806 0.884767 1.30421 0
M  V30 1928 C 182.736 0.367574 2.30589 0
M  V30 1929 C 183.717 -0.549464 1.60981 0
M  V30 1930 O 184.902 -0.46336 1.88591 0
M  V30 1931 C 182.032 -0.418944 3.44764 0
M  V30 1932 C 180.986 0.406316 4.26067 0
M  V30 1933 C 180.312 -0.506793 5.32293 0
M  V30 1934 C 181.612 1.64832 4.95608 0
M  V30 1935 H 183.306 1.20462 2.74097 0
M  V30 1936 H 180.852 0.580695 1.31772 0
M  V30 1937 H 182.805 -0.791395 4.13902 0
M  V30 1938 H 181.529 -1.28964 3.0006 0
M  V30 1939 H 180.188 0.760903 3.58617 0
M  V30 1940 H 179.836 -1.37519 4.83836 0
M  V30 1941 H 179.536 0.0415828 5.87585 0
M  V30 1942 H 181.06 -0.875764 6.04287 0
M  V30 1943 H 182.474 1.34646 5.57264 0
M  V30 1944 H 180.871 2.13688 5.60765 0
M  V30 1945 H 181.941 2.39284 4.21748 0
M  V30 1946 N 183.284 -1.43765 0.645699 0
M  V30 1947 C 184.514 -2.05953 0.163318 0
M  V30 1948 C 184.922 -1.48432 -1.17322 0
M  V30 1949 O 184.265 -0.607295 -1.73371 0
M  V30 1950 C 184.327 -3.59499 -0.0103065 0
M  V30 1951 C 183.991 -4.39563 1.25035 0
M  V30 1952 C 184.988 -4.72108 2.17739 0
M  V30 1953 C 182.673 -4.79697 1.48983 0
M  V30 1954 C 184.667 -5.43688 3.3269 0
M  V30 1955 C 182.354 -5.51023 2.64229 0
M  V30 1956 C 183.352 -5.8294 3.55908 0
M  V30 1957 O 183.04 -6.5281 4.69142 0
M  V30 1958 H 182.772 -0.670798 0.0836986 0
M  V30 1959 H 185.326 -1.85384 0.884407 0
M  V30 1960 H 183.556 -3.78613 -0.78669 0
M  V30 1961 H 185.245 -4.03408 -0.449087 0
M  V30 1962 H 186.011 -4.41627 2.00476 0
M  V30 1963 H 181.89 -4.54266 0.785078 0
M  V30 1964 H 185.434 -5.68517 4.04269 0
M  V30 1965 H 181.331 -5.8092 2.81429 0
M  V30 1966 H 182.099 -6.71288 4.6831 0
M  V30 1967 N 184.763 -0.387143 -1.52771 0
M  V30 1968 C 186.011 0.195349 -2.01154 0
M  V30 1969 C 186.332 1.475 -1.27549 0
M  V30 1970 O 185.602 1.91878 -0.394924 0
M  V30 1971 H 184.182 0.075178 -0.743207 0
M  V30 1972 H 186.844 -0.518337 -1.87881 0
M  V30 1973 H 185.94 0.407096 -3.09434 0
M  V30 1974 N 186.241 1.57166 -0.116904 0
M  V30 1975 C 187.188 2.15202 0.83408 0
M  V30 1976 C 188.158 1.07644 1.26499 0
M  V30 1977 O 189.343 1.35541 1.34288 0
M  V30 1978 C 186.483 2.75405 2.07957 0
M  V30 1979 C 185.596 3.97264 1.69721 0
M  V30 1980 C 184.731 4.45561 2.89221 0
M  V30 1981 C 183.77 5.59956 2.47215 0
M  V30 1982 N 182.907 6.03006 3.59622 0
M  V30 1983 H 187.747 2.96141 0.332335 0
M  V30 1984 H 185.284 1.46309 0.152349 0
M  V30 1985 H 187.242 3.08439 2.80929 0
M  V30 1986 H 185.872 1.97159 2.55594 0
M  V30 1987 H 184.924 3.70404 0.866316 0
M  V30 1988 H 186.236 4.80226 1.34849 0
M  V30 1989 H 185.39 4.80493 3.7042 0
M  V30 1990 H 184.129 3.61544 3.27318 0
M  V30 1991 H 183.134 5.2463 1.64448 0
M  V30 1992 H 184.359 6.45738 2.10238 0
M  V30 1993 H 182.305 5.21931 3.97396 0
M  V30 1994 H 182.222 6.80819 3.28667 0
M  V30 1995 H 183.49 6.42576 4.41267 0
M  V30 1996 N 187.719 -0.156864 1.56817 0
M  V30 1997 C 188.629 -1.2136 2.00771 0
M  V30 1998 C 189.645 -1.47598 0.921459 0
M  V30 1999 O 190.821 -1.59462 1.2302 0
M  V30 2000 C 187.886 -2.52943 2.37109 0
M  V30 2001 C 186.947 -2.34439 3.59634 0
M  V30 2002 C 186.18 -3.59748 3.94229 0
M  V30 2003 O 186.403 -4.65526 3.29609 0
M  V30 2004 O 185.337 -3.52998 4.8752 0
M  V30 2005 H 189.163 -0.870468 2.90958 0
M  V30 2006 H 186.748 -0.36484 1.44877 0
M  V30 2007 H 188.63 -3.30538 2.61386 0
M  V30 2008 H 187.305 -2.86806 1.5008 0
M  V30 2009 H 186.212 -1.54828 3.40557 0
M  V30 2010 H 187.545 -2.05496 4.4725 0
M  V30 2011 N 189.197 -1.51736 -0.425897 0
M  V30 2012 C 190.474 -1.55519 -1.1863 0
M  V30 2013 C 190.854 -0.326219 -2.08564 0
M  V30 2014 O 190.202 0.688012 -2.17896 0
M  V30 2015 C 190.412 -2.87521 -1.9782 0
M  V30 2016 C 191.76 -3.39899 -2.54468 0
M  V30 2017 O 192.784 -2.89148 -2.08019 0
M  V30 2018 O 191.643 -4.2848 -3.39215 0
M  V30 2019 H 188.737 -0.625739 -0.540721 0
M  V30 2020 H 191.283 -1.64055 -0.434038 0
M  V30 2021 H 190.055 -3.68422 -1.31836 0
M  V30 2022 H 189.678 -2.822 -2.80088 0
M  V30 2023 N 190.675 0.682077 -1.42076 0
M  V30 2024 C 191.623 1.81707 -1.45208 0
M  V30 2025 C 192.617 1.66183 -0.328591 0
M  V30 2026 O 193.823 1.7288 -0.501264 0
M  V30 2027 H 190.198 0.599014 -0.454628 0
M  V30 2028 H 192.169 1.76183 -2.40836 0
M  V30 2029 C 190.918 3.19816 -1.36428 0
M  V30 2030 H 190.241 3.32385 -2.22171 0
M  V30 2031 H 191.681 3.99272 -1.42681 0
M  V30 2032 C 190.14 3.36809 -0.078191 0
M  V30 2033 O 190.67 3.92124 0.87188 0
M  V30 2034 N 188.876 2.906 0.00229266 0
M  V30 2035 H 188.423 2.45772 -0.771616 0
M  V30 2036 H 188.381 3.02347 0.862179 0
M  V30 2037 N 192.153 1.28127 0.917671 0
M  V30 2038 C 193.43 1.05761 1.64542 0
M  V30 2039 C 193.81 -0.404344 2.07191 0
M  V30 2040 O 193.158 -1.38963 1.81388 0
M  V30 2041 C 193.368 2.02857 2.83989 0
M  V30 2042 C 194.716 2.32786 3.551 0
M  V30 2043 O 195.74 2.0091 2.94132 0
M  V30 2044 O 194.599 2.87169 4.64969 0
M  V30 2045 H 191.693 0.403916 0.721652 0
M  V30 2046 H 194.239 1.39431 0.967322 0
M  V30 2047 H 193.011 3.01407 2.49538 0
M  V30 2048 H 192.634 1.69809 3.59514 0
M  V30 2049 N 193.631 -1.12557 1.10312 0
M  V30 2050 C 194.859 -1.87864 0.866873 0
M  V30 2051 C 195.274 -1.79588 -0.582557 0
M  V30 2052 O 194.631 -1.16887 -1.40156 0
M  V30 2053 C 194.682 -3.37125 1.30496 0
M  V30 2054 O 194.403 -3.45201 2.69755 0
M  V30 2055 C 195.904 -4.29373 1.10243 0
M  V30 2056 H 193.124 -0.594452 0.311236 0
M  V30 2057 H 195.668 -1.42429 1.46745 0
M  V30 2058 H 193.823 -3.80109 0.748081 0
M  V30 2059 H 194.237 -4.38056 2.88457 0
M  V30 2060 H 195.711 -5.32394 1.45811 0
M  V30 2061 H 196.188 -4.39181 0.0409492 0
M  V30 2062 H 196.794 -3.92169 1.64571 0
M  V30 2063 N 195.109 -0.891671 -1.2995 0
M  V30 2064 C 196.039 -0.379797 -2.30391 0
M  V30 2065 C 197.02 0.540919 -1.6127 0
M  V30 2066 O 198.205 0.453352 -1.88834 0
M  V30 2067 C 195.335 0.400654 -3.44981 0
M  V30 2068 C 194.289 -0.428905 -4.25846 0
M  V30 2069 C 193.615 0.478557 -5.32554 0
M  V30 2070 C 194.915 -1.67458 -4.94727 0
M  V30 2071 H 196.609 -1.21914 -2.73454 0
M  V30 2072 H 194.155 -0.587675 -1.31462 0
M  V30 2073 H 196.108 0.769434 -4.14316 0
M  V30 2074 H 194.832 1.27371 -3.0074 0
M  V30 2075 H 193.491 -0.779911 -3.58208 0
M  V30 2076 H 193.139 1.34951 -4.84559 0
M  V30 2077 H 192.839 -0.0727433 -5.87555 0
M  V30 2078 H 194.363 0.843705 -6.04743 0
M  V30 2079 H 195.777 -1.376 -5.56542 0
M  V30 2080 H 194.174 -2.16659 -5.59624 0
M  V30 2081 H 195.244 -2.41518 -4.20473 0
M  V30 2082 N 196.587 1.43421 -0.653314 0
M  V30 2083 C 197.833 2.02111 -0.166992 0
M  V30 2084 C 198.166 1.51423 1.21592 0
M  V30 2085 O 197.441 0.707389 1.8118 0
M  V30 2086 C 197.724 3.5966 -0.177948 0
M  V30 2087 C 197.577 4.20579 -1.59478 0
M  V30 2088 C 198.896 4.37413 0.4856 0
M  V30 2089 H 196.015 0.734374 -0.0621557 0
M  V30 2090 H 198.657 1.70717 -0.834016 0
M  V30 2091 H 196.807 3.86537 0.390032 0
M  V30 2092 H 198.479 4.04732 -2.21336 0
M  V30 2093 H 196.722 3.77226 -2.14204 0
M  V30 2094 H 197.393 5.29665 -1.5543 0
M  V30 2095 H 199.869 4.161 0.00234528 0
M  V30 2096 H 198.745 5.47075 0.447207 0
M  V30 2097 H 199.006 4.13672 1.55974 0
M  V30 2098 N 198.065 0.39524 1.52563 0
M  V30 2099 C 199.481 0.0454682 1.59535 0
M  V30 2100 C 199.681 -1.44056 1.4089 0
M  V30 2101 O 198.737 -2.20579 1.22888 0
M  V30 2102 C 200.05 0.527963 2.96029 0
M  V30 2103 C 201.598 0.484733 3.09224 0
M  V30 2104 C 202.073 0.943512 4.48176 0
M  V30 2105 N 203.564 0.899765 4.54377 0
M  V30 2106 C 204.299 1.22609 5.60138 0
M  V30 2107 N 203.795 1.62319 6.73516 0
M  V30 2108 N 205.588 1.14696 5.50274 0
M  V30 2109 H 197.739 1.36261 1.62931 0
M  V30 2110 H 200.002 0.558887 0.765735 0
M  V30 2111 H 199.708 1.56607 3.14908 0
M  V30 2112 H 199.582 -0.0698056 3.77135 0
M  V30 2113 H 201.969 -0.544298 2.90037 0
M  V30 2114 H 202.05 1.11838 2.30056 0
M  V30 2115 H 201.694 1.9708 4.68104 0
M  V30 2116 H 201.624 0.286817 5.25818 0
M  V30 2117 H 204.115 0.607632 3.72983 0
M  V30 2118 H 204.428 1.85567 7.5019 0
M  V30 2119 H 202.773 1.66211 6.74833 0
M  V30 2120 H 205.964 0.835701 4.6058 0
M  V30 2121 H 206.137 1.40459 6.32594 0
M  V30 2122 N 199.544 -1.57102 0.125237 0
M  V30 2123 C 200.784 -1.97294 -0.534259 0
M  V30 2124 C 201.148 -1.0074 -1.63449 0
M  V30 2125 O 202.349 -1.29893 -2.35332 0
M  V30 2126 C 200.62 -3.41705 -1.04748 0
M  V30 2127 S 202.179 -4.03913 -1.71463 0
M  V30 2128 H 198.997 -0.689517 -0.173458 0
M  V30 2129 H 201.599 -1.94349 0.211797 0
M  V30 2130 H 200.303 -4.09723 -0.235649 0
M  V30 2131 H 199.834 -3.48315 -1.82867 0
M  V30 2132 H 201.849 -3.95182 -3.00077 0
M  V30 2133 N 201.022 0.148545 -1.56898 0
M  V30 2134 C 202.433 0.708766 -1.72723 0
M  V30 2135 C 202.784 1.81734 -0.739395 0
M  V30 2136 O 201.909 2.16194 0.0943169 0
M  V30 2137 C 202.504 1.29245 -3.13179 0
M  V30 2138 C 201.063 1.79925 -3.30611 0
M  V30 2139 C 200.21 0.687111 -2.68652 0
M  V30 2140 H 203.161 -0.0771063 -1.58513 0
M  V30 2141 H 203.182 2.16224 -3.13093 0
M  V30 2142 H 202.694 0.485382 -3.85053 0
M  V30 2143 H 200.795 2.63203 -2.63732 0
M  V30 2144 H 200.908 1.92903 -4.38549 0
M  V30 2145 H 199.272 1.11335 -2.29078 0
M  V30 2146 H 200.055 -0.108483 -3.43129 0
M  V30 2147 N 202.5 1.5196 0.417844 0
M  V30 2148 C 203.43 1.77634 1.51554 0
M  V30 2149 C 204.411 0.626918 1.58126 0
M  V30 2150 O 205.596 0.871632 1.7354 0
M  V30 2151 C 202.726 1.91911 2.8946 0
M  V30 2152 C 201.68 3.07463 2.97743 0
M  V30 2153 C 201.006 3.06951 4.37819 0
M  V30 2154 C 202.306 4.47082 2.70027 0
M  V30 2155 H 204 2.6955 1.3032 0
M  V30 2156 H 201.546 1.29706 0.625492 0
M  V30 2157 H 203.499 2.08455 3.6623 0
M  V30 2158 H 202.223 0.966598 3.11969 0
M  V30 2159 H 200.882 2.90656 2.23416 0
M  V30 2160 H 200.53 2.09438 4.57323 0
M  V30 2161 H 200.23 3.84556 4.44286 0
M  V30 2162 H 201.754 3.25613 5.16535 0
M  V30 2163 H 203.168 4.6414 3.36522 0
M  V30 2164 H 201.565 5.2654 2.87881 0
M  V30 2165 H 202.635 4.55777 1.65514 0
M  V30 2166 N 203.978 -0.674533 1.42435 0
M  V30 2167 C 205.206 -1.46283 1.46317 0
M  V30 2168 C 205.621 -1.88653 0.0745836 0
M  V30 2169 O 204.978 -1.58151 -0.91074 0
M  V30 2170 C 205.029 -2.71178 2.3905 0
M  V30 2171 O 204.75 -2.30586 3.72507 0
M  V30 2172 C 206.251 -3.64738 2.51955 0
M  V30 2173 H 203.471 -0.450104 0.497642 0
M  V30 2174 H 206.015 -0.828792 1.86953 0
M  V30 2175 H 204.17 -3.3077 2.01667 0
M  V30 2176 H 204.584 -3.11241 4.22172 0
M  V30 2177 H 206.058 -4.49096 3.20962 0
M  V30 2178 H 206.535 -4.10656 1.55752 0
M  V30 2179 H 207.141 -3.11038 2.90061 0
M  V30 2180 N 205.456 -1.28612 -0.910864 0
M  V30 2181 C 206.733 -1.06632 -1.63979 0
M  V30 2182 C 207.113 0.393351 -2.07403 0
M  V30 2183 O 206.461 1.37999 -1.82122 0
M  V30 2184 C 206.671 -2.0436 -2.8291 0
M  V30 2185 C 208.019 -2.34666 -3.5386 0
M  V30 2186 O 209.043 -2.02467 -2.93062 0
M  V30 2187 O 207.902 -2.89631 -4.63439 0
M  V30 2188 H 204.996 -0.407737 -0.7195 0
M  V30 2189 H 207.542 -1.39942 -0.959914 0
M  V30 2190 H 206.314 -3.02727 -2.47936 0
M  V30 2191 H 205.937 -1.71714 -3.58609 0
M  V30 2192 N 206.934 1.1197 -1.10907 0
M  V30 2193 C 208.345 1.65114 -0.871446 0
M  V30 2194 C 208.696 1.86885 0.597353 0
M  V30 2195 O 207.821 1.59896 1.45816 0
M  V30 2196 C 208.416 2.99944 -1.5754 0
M  V30 2197 C 206.975 3.50018 -1.38435 0
M  V30 2198 C 206.122 2.24941 -1.62164 0
M  V30 2199 H 209.073 0.956851 -1.2661 0
M  V30 2200 H 209.094 3.66651 -1.01721 0
M  V30 2201 H 208.606 2.84067 -2.64438 0
M  V30 2202 H 206.707 3.71071 -0.337214 0
M  V30 2203 H 206.82 4.29165 -2.12965 0
M  V30 2204 H 205.184 2.3229 -1.04467 0
M  V30 2205 H 205.967 2.11612 -2.70324 0
M  V30 2206 N 208.412 0.89855 1.29475 0
M  V30 2207 C 209.322 0.379974 2.31502 0
M  V30 2208 C 210.338 -0.524695 1.659 0
M  V30 2209 O 211.514 -0.414551 1.97087 0
M  V30 2210 C 208.579 -0.385138 3.44554 0
M  V30 2211 C 207.64 0.550914 4.2575 0
M  V30 2212 C 206.873 -0.177778 5.33404 0
M  V30 2213 O 207.096 -1.40189 5.52904 0
M  V30 2214 O 206.03 0.479106 5.9999 0
M  V30 2215 H 209.856 1.22639 2.77837 0
M  V30 2216 H 207.441 0.662834 1.33891 0
M  V30 2217 H 209.323 -0.817841 4.13388 0
M  V30 2218 H 207.998 -1.20763 3.0033 0
M  V30 2219 H 206.905 1.03271 3.59564 0
M  V30 2220 H 208.238 1.33979 4.73614 0
M  V30 2221 N 209.89 -1.43072 0.660911 0
M  V30 2222 C 211.136 -2.0202 0.177708 0
M  V30 2223 C 211.469 -1.52066 -1.20787 0
M  V30 2224 O 210.744 -0.716987 -1.80802 0
M  V30 2225 C 211.027 -3.59561 0.197019 0
M  V30 2226 C 210.88 -4.19727 1.61706 0
M  V30 2227 C 212.199 -4.37664 -0.462396 0
M  V30 2228 H 209.318 -0.734034 0.0660494 0
M  V30 2229 H 211.96 -1.70272 0.843058 0
M  V30 2230 H 210.11 -3.86739 -0.369527 0
M  V30 2231 H 211.782 -4.03553 2.23479 0
M  V30 2232 H 210.025 -3.76084 2.16201 0
M  V30 2233 H 210.696 -5.28834 1.58237 0
M  V30 2234 H 213.172 -4.16095 0.0197215 0
M  V30 2235 H 212.048 -5.47305 -0.418188 0
M  V30 2236 H 212.309 -4.14493 -1.53778 0
M  V30 2237 N 211.368 -0.403325 -1.52352 0
M  V30 2238 C 212.596 0.174012 -2.06167 0
M  V30 2239 C 213.011 1.39347 -1.27388 0
M  V30 2240 O 212.368 1.79597 -0.324201 0
M  V30 2241 C 212.419 0.530223 -3.5759 0
M  V30 2242 O 212.14 -0.640806 -4.33388 0
M  V30 2243 C 213.641 1.16192 -4.27802 0
M  V30 2244 H 210.861 0.0229464 -0.670608 0
M  V30 2245 H 213.405 -0.572604 -1.9632 0
M  V30 2246 H 211.56 1.22673 -3.67464 0
M  V30 2247 H 211.974 -0.344851 -5.23365 0
M  V30 2248 H 213.448 1.36141 -5.34948 0
M  V30 2249 H 213.925 2.13335 -3.83907 0
M  V30 2250 H 214.531 0.505775 -4.22282 0
M  V30 2251 N 212.846 1.57033 -0.133567 0
M  V30 2252 C 213.794 2.17348 0.828412 0
M  V30 2253 C 214.788 1.12671 1.26498 0
M  V30 2254 O 215.994 1.30947 1.23502 0
M  V30 2255 H 212.369 0.695775 0.285309 0
M  V30 2256 H 214.34 2.96935 0.295372 0
M  V30 2257 C 213.089 2.79893 2.06289 0
M  V30 2258 H 212.412 3.60147 1.73592 0
M  V30 2259 H 213.852 3.25615 2.71572 0
M  V30 2260 C 212.311 1.77713 2.86216 0
M  V30 2261 O 212.841 1.23937 3.82103 0
M  V30 2262 N 211.047 1.47321 2.50489 0
M  V30 2263 H 210.594 1.91243 1.7258 0
M  V30 2264 H 210.552 0.79199 3.04261 0
M  V30 2265 N 214.325 -0.140222 1.56975 0
M  V30 2266 C 215.555 -0.865181 1.87612 0
M  V30 2267 C 215.963 -1.74942 0.72055 0
M  V30 2268 O 215.306 -1.80917 -0.318561 0
M  V30 2269 C 215.368 -1.76782 3.13031 0
M  V30 2270 C 215.032 -1.06005 4.44536 0
M  V30 2271 C 216.029 -0.410768 5.18275 0
M  V30 2272 C 213.714 -1.04754 4.91255 0
M  V30 2273 C 215.708 0.241572 6.36942 0
M  V30 2274 C 213.395 -0.391394 6.09845 0
M  V30 2275 C 214.393 0.252029 6.82535 0
M  V30 2276 O 214.081 0.897757 7.98871 0
M  V30 2277 H 213.813 -0.255188 0.625983 0
M  V30 2278 H 216.367 -0.135653 2.04952 0
M  V30 2279 H 214.597 -2.53846 2.91718 0
M  V30 2280 H 216.286 -2.36533 3.29859 0
M  V30 2281 H 217.052 -0.412195 4.83245 0
M  V30 2282 H 212.931 -1.53777 4.34596 0
M  V30 2283 H 216.475 0.744375 6.93617 0
M  V30 2284 H 212.372 -0.387656 6.44335 0
M  V30 2285 H 213.14 0.800102 8.1458 0
M  V30 2286 N 215.803 -1.52179 -0.40978 0
M  V30 2287 C 217.028 -1.70347 -1.18308 0
M  V30 2288 C 217.453 -0.411887 -1.83535 0
M  V30 2289 O 216.811 0.630587 -1.6998 0
M  V30 2290 C 216.859 -2.83977 -2.22238 0
M  V30 2291 O 215.963 -2.495 -3.28365 0
M  V30 2292 H 215.304 -0.567103 -0.345384 0
M  V30 2293 H 217.834 -1.98879 -0.480445 0
M  V30 2294 H 217.844 -3.0887 -2.66577 0
M  V30 2295 H 216.519 -3.77685 -1.74146 0
M  V30 2296 H 215.096 -2.35277 -2.89308 0
M  V30 2297 N 217.281 0.66697 -1.42791 0
M  V30 2298 C 218.211 1.79218 -1.49677 0
M  V30 2299 C 219.192 1.66405 -0.352623 0
M  V30 2300 O 220.377 1.85708 -0.567993 0
M  V30 2301 C 217.507 3.17565 -1.40605 0
M  V30 2302 C 216.461 3.45124 -2.53127 0
M  V30 2303 C 215.787 4.83127 -2.29112 0
M  V30 2304 C 217.087 3.41236 -3.95418 0
M  V30 2305 H 218.781 1.73713 -2.43853 0
M  V30 2306 H 216.327 0.83432 -1.17367 0
M  V30 2307 H 218.28 3.96022 -1.44029 0
M  V30 2308 H 217.004 3.23767 -0.429271 0
M  V30 2309 H 215.663 2.69031 -2.49034 0
M  V30 2310 H 215.311 4.85988 -1.29709 0
M  V30 2311 H 215.011 5.02528 -3.04531 0
M  V30 2312 H 216.535 5.63859 -2.34297 0
M  V30 2313 H 217.949 4.09651 -4.01073 0
M  V30 2314 H 216.346 3.72173 -4.70752 0
M  V30 2315 H 217.416 2.39665 -4.21532 0
M  V30 2316 N 218.759 1.29093 0.90403 0
M  V30 2317 C 219.706 1.13853 2.00764 0
M  V30 2318 C 220.676 0.0330084 1.66067 0
M  V30 2319 O 221.861 0.199733 1.89752 0
M  V30 2320 C 219.001 0.816537 3.35301 0
M  V30 2321 C 218.114 2.00206 3.82807 0
M  V30 2322 C 217.249 1.61983 5.059 0
M  V30 2323 C 216.288 2.77143 5.45764 0
M  V30 2324 N 215.425 2.39346 6.60044 0
M  V30 2325 H 220.265 2.08276 2.13132 0
M  V30 2326 H 217.802 1.03648 1.04381 0
M  V30 2327 H 219.76 0.610557 4.12708 0
M  V30 2328 H 218.39 -0.090779 3.22672 0
M  V30 2329 H 217.442 2.31988 3.01473 0
M  V30 2330 H 218.754 2.86512 4.08304 0
M  V30 2331 H 217.908 1.37649 5.90879 0
M  V30 2332 H 216.647 0.728202 4.82233 0
M  V30 2333 H 215.652 3.02165 4.59322 0
M  V30 2334 H 216.877 3.66964 5.71414 0
M  V30 2335 H 214.823 1.52665 6.37989 0
M  V30 2336 H 214.74 3.19185 6.85315 0
M  V30 2337 H 216.008 2.1832 7.48303 0
M  V30 2338 N 220.237 -1.11381 1.11499 0
M  V30 2339 C 221.485 -1.8277 0.862524 0
M  V30 2340 C 221.806 -1.85097 -0.613534 0
M  V30 2341 O 221.076 -1.32198 -1.4457 0
M  V30 2342 H 219.656 -0.676823 0.316101 0
M  V30 2343 H 222.318 -1.34816 1.4075 0
M  V30 2344 H 221.414 -2.86614 1.23527 0
M  V30 2345 N 221.715 -0.905404 -1.28997 0
M  V30 2346 C 222.955 -0.541232 -1.97104 0
M  V30 2347 C 223.319 0.896841 -1.69767 0
M  V30 2348 O 224.52 1.36817 -2.31375 0
M  V30 2349 C 222.791 -0.832134 -3.47578 0
M  V30 2350 S 224.35 -0.573127 -4.35041 0
M  V30 2351 H 221.168 -0.200576 -0.682122 0
M  V30 2352 H 223.77 -1.16906 -1.56694 0
M  V30 2353 H 222.474 -1.87687 -3.64968 0
M  V30 2354 H 222.005 -0.192636 -3.92928 0
M  V30 2355 H 224.02 0.579297 -4.92807 0
M  V30 2356 N 223.193 1.4272 -0.668489 0
M  V30 2357 C 224.125 2.2914 0.052613 0
M  V30 2358 C 225.138 1.43339 0.771857 0
M  V30 2359 O 226.327 1.67123 0.627067 0
M  V30 2360 C 223.427 3.20618 1.09804 0
M  V30 2361 C 222.6 4.35039 0.45389 0
M  V30 2362 C 221.659 5.07282 1.39825 0
M  V30 2363 O 220.685 5.62024 0.900978 0
M  V30 2364 N 221.887 5.12206 2.73176 0
M  V30 2365 H 224.652 2.91668 -0.689209 0
M  V30 2366 H 222.213 1.53577 -0.512422 0
M  V30 2367 H 224.205 3.65815 1.73094 0
M  V30 2368 H 222.775 2.59585 1.74167 0
M  V30 2369 H 221.995 3.92567 -0.358396 0
M  V30 2370 H 223.283 5.088 0.00486972 0
M  V30 2371 H 222.681 4.6913 3.16122 0
M  V30 2372 H 221.238 5.61069 3.31729 0
M  V30 2373 N 224.671 0.411399 1.52136 0
M  V30 2374 C 225.919 -0.163322 2.01439 0
M  V30 2375 C 226.24 -1.45453 1.29879 0
M  V30 2376 O 225.51 -1.91225 0.4254 0
M  V30 2377 H 224.09 -0.0633447 0.744309 0
M  V30 2378 H 226.752 0.548161 1.87033 0
M  V30 2379 H 225.848 -0.357817 3.10042 0
M  V30 2380 N 226.149 -1.5696 0.141893 0
M  V30 2381 C 227.096 -2.16501 -0.799737 0
M  V30 2382 C 228.066 -1.09643 -1.24771 0
M  V30 2383 O 229.251 -1.3766 -1.32115 0
M  V30 2384 C 226.391 -2.78679 -2.03549 0
M  V30 2385 C 225.504 -3.99914 -1.6338 0
M  V30 2386 C 224.639 -4.50106 -2.82096 0
M  V30 2387 C 223.678 -5.63819 -2.38275 0
M  V30 2388 N 222.815 -6.08651 -3.49983 0
M  V30 2389 H 227.655 -2.96632 -0.285179 0
M  V30 2390 H 225.192 -1.46533 -0.129053 0
M  V30 2391 H 227.15 -3.1287 -2.75986 0
M  V30 2392 H 225.78 -2.012 -2.52425 0
M  V30 2393 H 224.832 -3.71735 -0.807279 0
M  V30 2394 H 226.144 -4.82311 -1.27192 0
M  V30 2395 H 225.298 -4.86325 -3.62729 0
M  V30 2396 H 224.037 -3.66706 -3.21525 0
M  V30 2397 H 223.042 -5.2718 -1.56081 0
M  V30 2398 H 224.267 -6.49 -1.99938 0
M  V30 2399 H 222.213 -5.28188 -3.89042 0
M  V30 2400 H 222.13 -6.85961 -3.17794 0
M  V30 2401 H 223.398 -6.49515 -4.30988 0
M  V30 2402 N 227.627 0.131896 -1.57047 0
M  V30 2403 C 229.038 0.690407 -1.73465 0
M  V30 2404 C 229.389 1.8094 -0.758629 0
M  V30 2405 O 228.514 2.16282 0.0713813 0
M  V30 2406 C 229.109 1.25916 -3.14532 0
M  V30 2407 C 227.668 1.76409 -3.32501 0
M  V30 2408 C 226.815 0.658579 -2.69366 0
M  V30 2409 H 229.766 -0.0939144 -1.58422 0
M  V30 2410 H 229.787 2.12892 -3.15369 0
M  V30 2411 H 229.299 0.444515 -3.85546 0
M  V30 2412 H 227.4 2.60391 -2.66509 0
M  V30 2413 H 227.513 1.88241 -4.4057 0
M  V30 2414 H 225.877 1.08899 -2.30246 0
M  V30 2415 H 226.66 -0.14487 -3.42994 0
M  V30 2416 N 229.106 1.52395 0.401703 0
M  V30 2417 C 230.036 1.79231 1.49661 0
M  V30 2418 C 231.017 0.643654 1.57452 0
M  V30 2419 O 232.202 0.889989 1.72606 0
M  V30 2420 C 229.332 1.94971 2.87409 0
M  V30 2421 C 228.286 3.10604 2.94465 0
M  V30 2422 C 227.612 3.11577 4.34538 0
M  V30 2423 C 228.912 4.49921 2.6527 0
M  V30 2424 H 230.606 2.70917 1.27454 0
M  V30 2425 H 228.152 1.30362 0.6117 0
M  V30 2426 H 230.105 2.12328 3.63999 0
M  V30 2427 H 228.829 0.999632 3.10926 0
M  V30 2428 H 227.488 2.93009 2.20321 0
M  V30 2429 H 227.136 2.14277 4.55076 0
M  V30 2430 H 226.836 3.89247 4.40183 0
M  V30 2431 H 228.36 3.31073 5.13053 0
M  V30 2432 H 229.774 4.67683 3.31581 0
M  V30 2433 H 228.171 5.29564 2.82281 0
M  V30 2434 H 229.241 4.57507 1.60671 0
M  V30 2435 N 230.584 -0.659388 1.43143 0
M  V30 2436 C 231.995 -1.24041 1.39537 0
M  V30 2437 C 232.346 -1.95963 0.0963364 0
M  V30 2438 O 231.471 -2.00892 -0.804438 0
M  V30 2439 C 232.066 -2.25601 2.52764 0
M  V30 2440 C 230.625 -2.79195 2.52443 0
M  V30 2441 C 229.772 -1.53743 2.30778 0
M  V30 2442 H 232.723 -0.451792 1.52133 0
M  V30 2443 H 232.744 -3.07651 2.23899 0
M  V30 2444 H 232.256 -1.73226 3.47296 0
M  V30 2445 H 230.357 -3.35649 1.61773 0
M  V30 2446 H 230.47 -3.2716 3.50004 0
M  V30 2447 H 228.834 -1.80869 1.79328 0
M  V30 2448 H 229.617 -1.03312 3.27386 0
M  V30 2449 N 232.062 -1.29571 -0.897171 0
M  V30 2450 C 233.009 -1.14916 -2.00158 0
M  V30 2451 C 233.979 -0.0418149 -1.66047 0
M  V30 2452 O 235.164 -0.209793 -1.89643 0
M  V30 2453 C 232.304 -0.834307 -3.34863 0
M  V30 2454 C 231.417 -2.02234 -3.8174 0
M  V30 2455 C 230.552 -1.64664 -5.05034 0
M  V30 2456 C 229.591 -2.80033 -5.44286 0
M  V30 2457 N 228.728 -2.42843 -6.58765 0
M  V30 2458 H 233.568 -2.09403 -2.12025 0
M  V30 2459 H 231.105 -1.042 -1.0383 0
M  V30 2460 H 233.063 -0.632436 -4.12379 0
M  V30 2461 H 231.693 0.0736656 -3.22716 0
M  V30 2462 H 230.745 -2.33583 -3.00238 0
M  V30 2463 H 232.057 -2.88673 -4.06779 0
M  V30 2464 H 231.211 -1.4078 -5.9014 0
M  V30 2465 H 229.95 -0.753766 -4.8184 0
M  V30 2466 H 228.955 -3.04596 -4.57713 0
M  V30 2467 H 230.18 -3.69989 -5.6946 0
M  V30 2468 H 228.126 -1.56046 -6.3717 0
M  V30 2469 H 228.043 -3.22815 -6.83613 0
M  V30 2470 H 229.311 -2.22285 -7.47134 0
M  V30 2471 N 233.54 1.10788 -1.12088 0
M  V30 2472 C 234.817 1.79136 -0.785476 0
M  V30 2473 C 235.197 1.98246 0.725377 0
M  V30 2474 O 234.545 1.57258 1.65778 0
M  V30 2475 C 234.755 3.12375 -1.55636 0
M  V30 2476 C 236.103 3.8731 -1.74001 0
M  V30 2477 O 237.127 3.22085 -1.52117 0
M  V30 2478 O 235.986 5.04369 -2.10415 0
M  V30 2479 H 233.08 0.776226 -0.285311 0
M  V30 2480 H 235.626 1.1747 -1.2247 0
M  V30 2481 H 234.398 2.93863 -2.5838 0
M  V30 2482 H 234.021 3.81758 -1.11114 0
M  V30 2483 N 235.018 0.912232 1.28515 0
M  V30 2484 C 235.948 0.416403 2.29757 0
M  V30 2485 C 236.929 -0.515194 1.6211 0
M  V30 2486 O 238.114 -0.423253 1.89532 0
M  V30 2487 C 235.244 -0.34572 3.45575 0
M  V30 2488 C 234.198 0.496599 4.25109 0
M  V30 2489 C 233.524 -0.393771 5.33248 0
M  V30 2490 C 234.824 1.75307 4.92001 0
M  V30 2491 H 236.518 1.26249 2.7148 0
M  V30 2492 H 234.064 0.608515 1.30511 0
M  V30 2493 H 236.017 -0.703422 4.15488 0
M  V30 2494 H 234.741 -1.2257 3.02728 0
M  V30 2495 H 233.4 0.8368 3.56922 0
M  V30 2496 H 233.048 -1.27225 4.86644 0
M  V30 2497 H 232.748 0.166209 5.87365 0
M  V30 2498 H 234.272 -0.747389 6.06009 0
M  V30 2499 H 235.686 1.46437 5.54283 0
M  V30 2500 H 234.083 2.25534 5.56106 0
M  V30 2501 H 235.153 2.48176 4.16577 0
M  V30 2502 N 236.496 -1.42363 0.676048 0
M  V30 2503 C 237.912 -1.55811 0.345718 0
M  V30 2504 C 238.112 -1.65544 -1.14879 0
M  V30 2505 O 237.168 -1.62306 -1.93424 0
M  V30 2506 C 238.481 -2.80746 1.07713 0
M  V30 2507 C 240.029 -2.9452 1.05958 0
M  V30 2508 C 240.504 -4.22318 1.77233 0
M  V30 2509 N 241.995 -4.29233 1.74108 0
M  V30 2510 C 242.73 -5.26935 2.26113 0
M  V30 2511 N 242.226 -6.30783 2.86505 0
M  V30 2512 N 244.019 -5.18741 2.1648 0
M  V30 2513 H 236.17 -1.34289 1.6456 0
M  V30 2514 H 238.433 -0.646506 0.69335 0
M  V30 2515 H 238.139 -2.79696 2.13221 0
M  V30 2516 H 238.013 -3.71676 0.64316 0
M  V30 2517 H 240.4 -2.95097 0.0128255 0
M  V30 2518 H 240.481 -2.04817 1.53244 0
M  V30 2519 H 240.125 -4.22502 2.81877 0
M  V30 2520 H 240.055 -5.10958 1.27396 0
M  V30 2521 H 242.546 -3.54814 1.30059 0
M  V30 2522 H 242.859 -7.01691 3.23805 0
M  V30 2523 H 241.204 -6.31341 2.90575 0
M  V30 2524 H 244.395 -4.36533 1.68987 0
M  V30 2525 H 244.568 -5.94721 2.57316 0
M  V30 2526 N 237.974 -0.419461 -1.51915 0
M  V30 2527 C 239.221 0.152939 -2.01922 0
M  V30 2528 C 239.549 1.4426 -1.30458 0
M  V30 2529 O 238.804 1.91514 -0.402593 0
M  V30 2530 C 239.103 0.437067 -3.54717 0
M  V30 2531 C 238.769 -0.764632 -4.44369 0
M  V30 2532 C 237.431 -1.09423 -4.68594 0
M  V30 2533 C 239.783 -1.56713 -4.97082 0
M  V30 2534 C 237.111 -2.22732 -5.42777 0
M  V30 2535 C 239.463 -2.69107 -5.72507 0
M  V30 2536 C 238.127 -3.02541 -5.95 0
M  V30 2537 H 237.397 0.0559644 -0.738884 0
M  V30 2538 H 240.044 -0.562998 -1.83037 0
M  V30 2539 H 238.349 1.23469 -3.71837 0
M  V30 2540 H 240.046 0.893083 -3.90928 0
M  V30 2541 H 236.636 -0.497775 -4.257 0
M  V30 2542 H 240.82 -1.32571 -4.78266 0
M  V30 2543 H 236.076 -2.48971 -5.58411 0
M  V30 2544 H 240.25 -3.31671 -6.12346 0
M  V30 2545 H 237.877 -3.90457 -6.52264 0
M  V30 2546 N 239.452 1.56882 -0.150215 0
M  V30 2547 C 240.701 1.95403 0.500071 0
M  V30 2548 C 241.014 1.03777 1.658 0
M  V30 2549 O 242.22 1.31889 2.37313 0
M  V30 2550 C 240.676 3.4738 0.941018 0
M  V30 2551 C 240.284 4.47596 -0.190158 0
M  V30 2552 C 242.028 3.9476 1.56091 0
M  V30 2553 C 239.935 5.90787 0.269237 0
M  V30 2554 H 238.865 0.729515 0.190588 0
M  V30 2555 H 241.516 1.81988 -0.235074 0
M  V30 2556 H 239.898 3.56138 1.73152 0
M  V30 2557 H 241.072 4.50536 -0.967157 0
M  V30 2558 H 239.387 4.10151 -0.718666 0
M  V30 2559 H 241.984 4.99181 1.9163 0
M  V30 2560 H 242.327 3.36494 2.45107 0
M  V30 2561 H 242.86 3.88932 0.835249 0
M  V30 2562 H 239.599 6.52879 -0.585621 0
M  V30 2563 H 239.119 5.912 1.01204 0
M  V30 2564 H 240.798 6.42979 0.720176 0
M  V30 2565 N 240.93 -0.123565 1.57115 0
M  V30 2566 C 242.341 -0.681198 1.73829 0
M  V30 2567 C 242.692 -1.80535 0.768214 0
M  V30 2568 O 241.817 -2.16317 -0.0599103 0
M  V30 2569 C 242.412 -1.24246 3.15196 0
M  V30 2570 C 240.971 -1.74643 3.33432 0
M  V30 2571 C 240.118 -0.644284 2.69711 0
M  V30 2572 H 243.069 0.102315 1.5837 0
M  V30 2573 H 243.09 -2.11216 3.16493 0
M  V30 2574 H 242.602 -0.424062 3.85776 0
M  V30 2575 H 240.703 -2.58974 2.67886 0
M  V30 2576 H 240.816 -1.85902 4.41562 0
M  V30 2577 H 239.18 -1.07676 2.3082 0
M  V30 2578 H 239.963 0.163058 3.42913 0
M  V30 2579 N 242.408 -1.52605 -0.393616 0
M  V30 2580 C 243.685 -1.58001 -1.15304 0
M  V30 2581 C 244.065 -0.370385 -2.07825 0
M  V30 2582 O 243.413 0.641638 -2.19306 0
M  V30 2583 C 243.623 -2.91652 -1.91677 0
M  V30 2584 C 244.971 -3.4522 -2.47201 0
M  V30 2585 O 245.995 -2.93495 -2.01839 0
M  V30 2586 O 244.854 -4.35579 -3.3005 0
M  V30 2587 H 241.948 -0.637068 -0.527327 0
M  V30 2588 H 244.494 -1.64939 -0.399141 0
M  V30 2589 H 243.266 -3.71136 -1.23992 0
M  V30 2590 H 242.889 -2.88077 -2.74039 0
M  V30 2591 N 243.887 0.651787 -1.4349 0
M  V30 2592 C 245.298 1.233 -1.40193 0
M  V30 2593 C 245.649 1.9591 -0.106727 0
M  V30 2594 O 244.774 2.01316 0.793773 0
M  V30 2595 C 245.369 2.24257 -2.53957 0
M  V30 2596 C 243.928 2.77852 -2.5392 0
M  V30 2597 C 243.075 1.52517 -2.3159 0
M  V30 2598 H 246.026 0.443717 -1.52371 0
M  V30 2599 H 246.047 3.0646 -2.25528 0
M  V30 2600 H 245.559 1.71382 -3.4821 0
M  V30 2601 H 243.66 3.34786 -1.63551 0
M  V30 2602 H 243.773 3.25299 -3.51735 0
M  V30 2603 H 242.137 1.79915 -1.80285 0
M  V30 2604 H 242.92 1.01574 -3.27929 0
M  V30 2605 N 245.365 1.30045 0.890287 0
M  V30 2606 C 246.312 1.15976 1.99545 0
M  V30 2607 C 247.282 0.0506202 1.66023 0
M  V30 2608 O 248.467 0.219847 1.89529 0
M  V30 2609 C 245.607 0.852054 3.34416 0
M  V30 2610 C 244.72 2.04255 3.80662 0
M  V30 2611 C 243.855 1.6734 5.04154 0
M  V30 2612 C 242.894 2.82916 5.42794 0
M  V30 2613 N 242.031 2.46333 6.57468 0
M  V30 2614 H 246.871 2.10524 2.10911 0
M  V30 2615 H 244.408 1.04749 1.03276 0
M  V30 2616 H 246.366 0.654296 4.12037 0
M  V30 2617 H 244.996 -0.0565502 3.2275 0
M  V30 2618 H 244.048 2.35172 2.98995 0
M  V30 2619 H 245.36 2.90826 4.05242 0
M  V30 2620 H 244.514 1.43908 5.89386 0
M  V30 2621 H 243.253 0.779308 4.81433 0
M  V30 2622 H 242.258 3.0702 4.56091 0
M  V30 2623 H 243.483 3.73004 5.6749 0
M  V30 2624 H 241.429 1.59423 6.36334 0
M  V30 2625 H 241.346 3.26436 6.81891 0
M  V30 2626 H 242.614 2.26244 7.45945 0
M  V30 2627 N 246.843 -1.10192 1.12674 0
M  V30 2628 C 247.806 -2.14786 0.799979 0
M  V30 2629 C 248.806 -1.59711 -0.18685 0
M  V30 2630 O 249.996 -1.74156 0.0392558 0
M  V30 2631 C 247.128 -3.40374 0.189228 0
M  V30 2632 H 248.321 -2.45203 1.72671 0
M  V30 2633 H 245.874 -1.25597 0.930326 0
M  V30 2634 H 246.609 -3.15577 -0.747107 0
M  V30 2635 H 246.394 -3.81637 0.899766 0
M  V30 2636 H 247.884 -4.17594 -0.0228143 0
M  V30 2637 N 248.321 -0.919034 -1.28029 0
M  V30 2638 C 249.569 -0.553838 -1.94363 0
M  V30 2639 C 249.89 0.906357 -1.72656 0
M  V30 2640 O 249.16 1.64143 -1.0693 0
M  V30 2641 H 247.74 -0.201834 -0.719216 0
M  V30 2642 H 250.402 -1.16954 -1.55909 0
M  V30 2643 H 249.498 -0.752758 -3.02886 0
M  V30 2644 N 249.799 1.42003 -0.683588 0
M  V30 2645 C 251.048 2.00638 -0.206681 0
M  V30 2646 C 251.361 1.5472 1.19671 0
M  V30 2647 O 252.567 2.05833 1.77045 0
M  V30 2648 C 251.023 3.58487 -0.318632 0
M  V30 2649 C 250.631 4.1339 -1.72663 0
M  V30 2650 C 252.375 4.24384 0.0991141 0
M  V30 2651 C 250.282 5.63633 -1.79087 0
M  V30 2652 H 249.212 0.750408 -0.0735107 0
M  V30 2653 H 251.863 1.62624 -0.850048 0
M  V30 2654 H 250.245 3.94047 0.392781 0
M  V30 2655 H 251.419 3.89273 -2.46583 0
M  V30 2656 H 249.734 3.59976 -2.09299 0
M  V30 2657 H 252.331 5.34652 0.0713833 0
M  V30 2658 H 252.674 4.00505 1.13586 0
M  V30 2659 H 253.207 3.93816 -0.561599 0
M  V30 2660 H 249.946 5.92323 -2.80774 0
M  V30 2661 H 249.466 5.89714 -1.09535 0
M  V30 2662 H 251.145 6.28201 -1.5483 0
M  V30 2663 N 251.277 0.427512 1.51691 0
M  V30 2664 C 252.21 -0.433876 2.24037 0
M  V30 2665 C 253.188 -1.03287 1.25581 0
M  V30 2666 O 254.372 -1.07722 1.54688 0
M  V30 2667 C 251.499 -1.60385 2.98319 0
M  V30 2668 C 250.545 -1.12648 4.11355 0
M  V30 2669 S 251.378 -0.076543 5.35445 0
M  V30 2670 C 252.534 -1.25141 6.13262 0
M  V30 2671 H 252.767 0.180367 2.96752 0
M  V30 2672 H 250.3 0.211946 1.52938 0
M  V30 2673 H 252.258 -2.27462 3.41718 0
M  V30 2674 H 250.919 -2.18948 2.25213 0
M  V30 2675 H 250.112 -2.0011 4.62571 0
M  V30 2676 H 249.714 -0.534088 3.70167 0
M  V30 2677 H 252.006 -2.17162 6.41753 0
M  V30 2678 H 252.949 -0.779411 7.03797 0
M  V30 2679 H 253.357 -1.48553 5.44603 0
M  V30 2680 N 252.755 -1.56801 0.158532 0
M  V30 2681 C 254.004 -1.95665 -0.489702 0
M  V30 2682 C 254.317 -1.04654 -1.65248 0
M  V30 2683 O 255.523 -1.33146 -2.3661 0
M  V30 2684 C 253.979 -3.47874 -0.922582 0
M  V30 2685 C 253.587 -4.47489 0.213893 0
M  V30 2686 C 255.331 -3.95583 -1.53996 0
M  V30 2687 C 253.238 -5.90921 -0.237903 0
M  V30 2688 H 252.168 -0.730516 -0.186716 0
M  V30 2689 H 254.819 -1.81861 0.244722 0
M  V30 2690 H 253.201 -3.57051 -1.71261 0
M  V30 2691 H 254.375 -4.50017 0.991036 0
M  V30 2692 H 252.69 -4.09764 0.740407 0
M  V30 2693 H 255.287 -5.0019 -1.8898 0
M  V30 2694 H 255.63 -3.37789 -2.43319 0
M  V30 2695 H 256.163 -3.8937 -0.814611 0
M  V30 2696 H 252.902 -6.52559 0.620236 0
M  V30 2697 H 252.422 -5.91729 -0.980676 0
M  V30 2698 H 254.101 -6.43352 -0.686067 0
M  V30 2699 N 254.233 0.115231 -1.57178 0
M  V30 2700 C 255.18 1.14115 -2.00615 0
M  V30 2701 C 256.15 1.40939 -0.878941 0
M  V30 2702 O 257.335 1.52741 -1.14345 0
M  V30 2703 C 254.475 2.46156 -2.4187 0
M  V30 2704 C 253.588 2.26236 -3.68024 0
M  V30 2705 C 252.723 3.51534 -3.98243 0
M  V30 2706 C 251.762 3.26787 -5.17568 0
M  V30 2707 N 250.899 4.44298 -5.43639 0
M  V30 2708 H 255.739 0.763743 -2.88047 0
M  V30 2709 H 253.276 0.365615 -1.42484 0
M  V30 2710 H 255.234 3.23189 -2.63827 0
M  V30 2711 H 253.864 2.81783 -1.57475 0
M  V30 2712 H 252.916 1.40102 -3.5366 0
M  V30 2713 H 254.228 2.03929 -4.55208 0
M  V30 2714 H 253.382 4.36984 -4.20868 0
M  V30 2715 H 252.121 3.76876 -3.09541 0
M  V30 2716 H 251.126 2.39729 -4.94783 0
M  V30 2717 H 252.351 3.02812 -6.0785 0
M  V30 2718 H 250.297 4.69754 -4.57895 0
M  V30 2719 H 250.214 4.25109 -6.25154 0
M  V30 2720 H 251.482 5.3087 -5.70786 0
M  V30 2721 N 255.711 1.52812 0.385517 0
M  V30 2722 C 256.936 1.72207 1.15583 0
M  V30 2723 C 257.361 0.441034 1.82857 0
M  V30 2724 O 256.719 -0.603465 1.70962 0
M  V30 2725 C 256.767 2.87476 2.17692 0
M  V30 2726 O 255.871 2.54693 3.24354 0
M  V30 2727 H 255.212 0.572526 0.336319 0
M  V30 2728 H 257.742 1.99618 0.448744 0
M  V30 2729 H 257.752 3.13072 2.6163 0
M  V30 2730 H 256.427 3.80408 1.68115 0
M  V30 2731 H 255.004 2.3985 2.85529 0
M  V30 2732 N 257.189 -0.644168 1.43834 0
M  V30 2733 C 258.435 -1.40603 1.46146 0
M  V30 2734 C 258.768 -1.93997 0.0887717 0
M  V30 2735 O 258.043 -1.72854 -0.891724 0
M  V30 2736 C 258.326 -2.58086 2.51124 0
M  V30 2737 C 258.179 -2.10126 3.97702 0
M  V30 2738 C 259.498 -3.60291 2.52742 0
M  V30 2739 H 256.617 -0.509905 0.532134 0
M  V30 2740 H 259.259 -0.729502 1.75437 0
M  V30 2741 H 257.409 -3.15801 2.26278 0
M  V30 2742 H 259.081 -1.57342 4.33637 0
M  V30 2743 H 257.324 -1.41419 4.10101 0
M  V30 2744 H 257.995 -2.94649 4.66783 0
M  V30 2745 H 260.471 -3.12352 2.7491 0
M  V30 2746 H 259.347 -4.40032 3.28121 0
M  V30 2747 H 259.608 -4.1349 1.56455 0
M  V30 2748 N 258.668 -1.30515 -0.883378 0
M  V30 2749 C 259.615 -1.17032 -1.98927 0
M  V30 2750 C 260.585 -0.0594241 -1.65994 0
M  V30 2751 O 261.77 -0.229895 -1.8941 0
M  V30 2752 C 258.91 -0.869777 -3.33959 0
M  V30 2753 C 258.023 -2.06271 -3.79574 0
M  V30 2754 C 257.158 -1.70011 -5.03259 0
M  V30 2755 C 256.197 -2.8579 -5.41286 0
M  V30 2756 N 255.334 -2.49816 -6.56153 0
M  V30 2757 H 260.174 -2.1164 -2.09792 0
M  V30 2758 H 257.711 -1.05296 -1.02719 0
M  V30 2759 H 259.669 -0.676138 -4.11685 0
M  V30 2760 H 258.299 0.0394332 -3.22776 0
M  V30 2761 H 257.351 -2.36755 -2.97744 0
M  V30 2762 H 258.663 -2.92971 -4.03694 0
M  V30 2763 H 257.817 -1.47032 -5.88614 0
M  V30 2764 H 256.556 -0.804829 -4.81013 0
M  V30 2765 H 255.561 -3.09434 -4.54456 0
M  V30 2766 H 256.786 -3.76008 -5.65504 0
M  V30 2767 H 254.732 -1.62795 -6.35479 0
M  V30 2768 H 254.649 -3.30048 -6.8015 0
M  V30 2769 H 255.917 -2.30197 -7.44735 0
M  V30 2770 N 260.146 1.09593 -1.13257 0
M  V30 2771 C 261.562 1.33775 -0.870423 0
M  V30 2772 C 261.762 1.95327 0.494926 0
M  V30 2773 O 260.818 2.19853 1.2418 0
M  V30 2774 C 262.131 2.25106 -1.99369 0
M  V30 2775 C 263.679 2.3862 -2.02558 0
M  V30 2776 C 264.154 3.33285 -3.14142 0
M  V30 2777 N 265.645 3.40857 -3.13641 0
M  V30 2778 C 266.38 4.14101 -3.96621 0
M  V30 2779 N 265.876 4.90157 -4.8961 0
M  V30 2780 N 267.669 4.09808 -3.84726 0
M  V30 2781 H 259.82 0.680136 -2.01216 0
M  V30 2782 H 262.083 0.362133 -0.876107 0
M  V30 2783 H 261.789 1.87103 -2.97801 0
M  V30 2784 H 261.663 3.25481 -1.90635 0
M  V30 2785 H 264.05 2.75887 -1.0474 0
M  V30 2786 H 264.131 1.38028 -2.15364 0
M  V30 2787 H 263.775 2.96741 -4.12198 0
M  V30 2788 H 263.705 4.33776 -2.98574 0
M  V30 2789 H 266.196 2.86624 -2.46282 0
M  V30 2790 H 266.509 5.4347 -5.49418 0
M  V30 2791 H 264.854 4.89251 -4.93617 0
M  V30 2792 H 268.045 3.4949 -3.11408 0
M  V30 2793 H 268.218 4.66629 -4.49623 0
M  V30 2794 N 261.624 0.925811 1.2754 0
M  V30 2795 C 262.587 0.428129 2.25166 0
M  V30 2796 C 263.587 -0.452261 1.54309 0
M  V30 2797 O 264.777 -0.253608 1.72344 0
M  V30 2798 C 261.909 -0.384749 3.38722 0
M  V30 2799 H 263.102 1.29066 2.70706 0
M  V30 2800 H 260.655 0.706323 1.3943 0
M  V30 2801 H 261.39 -1.26618 2.98561 0
M  V30 2802 H 261.175 0.246454 3.91325 0
M  V30 2803 H 262.665 -0.723389 4.11287 0
M  V30 2804 N 263.102 -1.41638 0.69111 0
M  V30 2805 C 264.332 -2.0533 0.228758 0
M  V30 2806 C 264.74 -1.52089 -1.12541 0
M  V30 2807 O 264.083 -0.662145 -1.71351 0
M  V30 2808 C 264.145 -3.59349 0.10407 0
M  V30 2809 C 263.809 -4.35362 1.38956 0
M  V30 2810 C 264.806 -4.64942 2.32648 0
M  V30 2811 C 262.491 -4.74714 1.64169 0
M  V30 2812 C 264.485 -5.32828 3.49818 0
M  V30 2813 C 262.172 -5.42338 2.81625 0
M  V30 2814 C 263.17 -5.71322 3.74273 0
M  V30 2815 O 262.858 -6.37554 4.89673 0
M  V30 2816 H 262.59 -0.667796 0.104997 0
M  V30 2817 H 265.144 -1.82477 0.942938 0
M  V30 2818 H 263.374 -3.80924 -0.665839 0
M  V30 2819 H 265.063 -4.04633 -0.320519 0
M  V30 2820 H 265.829 -4.35025 2.14425 0
M  V30 2821 H 261.708 -4.51538 0.929202 0
M  V30 2822 H 265.252 -5.55368 4.22152 0
M  V30 2823 H 261.149 -5.71673 2.99768 0
M  V30 2824 H 261.917 -6.56049 4.8943 0
M  V30 2825 N 264.58 -0.43555 -1.51462 0
M  V30 2826 C 265.53 0.394701 -2.24558 0
M  V30 2827 C 266.514 0.99157 -1.26715 0
M  V30 2828 O 267.706 0.910007 -1.51815 0
M  V30 2829 C 264.835 1.4963 -3.08975 0
M  V30 2830 C 263.921 0.908912 -4.14246 0
M  V30 2831 N 264.312 0.0505335 -5.05775 0
M  V30 2832 C 262.61 1.17668 -4.30198 0
M  V30 2833 C 263.311 -0.279161 -5.8103 0
M  V30 2834 N 262.287 0.336767 -5.42556 0
M  V30 2835 H 266.089 -0.267106 -2.92684 0
M  V30 2836 H 263.603 -0.247518 -1.60503 0
M  V30 2837 H 265.6 2.10394 -3.59917 0
M  V30 2838 H 264.26 2.16046 -2.42393 0
M  V30 2839 H 265.271 -0.31577 -5.16936 0
M  V30 2840 H 261.948 1.83847 -3.74842 0
M  V30 2841 H 263.338 -0.977553 -6.64751 0
M  V30 2842 N 266.058 1.56714 -0.166846 0
M  V30 2843 C 267.474 1.58473 0.189372 0
M  V30 2844 C 267.674 1.18201 1.63189 0
M  V30 2845 O 266.73 0.891528 2.36237 0
M  V30 2846 C 268.043 3.00573 -0.0873872 0
M  V30 2847 C 269.591 3.1299 -0.0252443 0
M  V30 2848 C 270.066 4.57174 -0.274934 0
M  V30 2849 N 271.557 4.62665 -0.222553 0
M  V30 2850 C 272.292 5.72072 -0.389985 0
M  V30 2851 N 271.788 6.90054 -0.616229 0
M  V30 2852 N 273.581 5.61153 -0.326202 0
M  V30 2853 H 265.732 1.8118 -1.10849 0
M  V30 2854 H 267.995 0.839525 -0.440342 0
M  V30 2855 H 267.701 3.34497 -1.0865 0
M  V30 2856 H 267.575 3.72019 0.623037 0
M  V30 2857 H 269.962 2.78895 0.96444 0
M  V30 2858 H 270.043 2.43989 -0.768309 0
M  V30 2859 H 269.687 4.91976 -1.26181 0
M  V30 2860 H 269.617 5.24328 0.48869 0
M  V30 2861 H 272.108 3.77863 -0.0531512 0
M  V30 2862 H 272.421 7.69311 -0.733559 0
M  V30 2863 H 270.766 6.91927 -0.652791 0
M  V30 2864 H 273.957 4.67859 -0.150072 0
M  V30 2865 H 274.13 6.46364 -0.460116 0
M  V30 2866 N 267.536 -0.106894 1.57237 0
M  V30 2867 C 268.466 -1.13148 2.04254 0
M  V30 2868 C 269.447 -1.42476 0.929224 0
M  V30 2869 O 270.632 -1.52709 1.19973 0
M  V30 2870 C 267.762 -2.4545 2.45706 0
M  V30 2871 C 266.716 -2.30558 3.60592 0
M  V30 2872 C 266.042 -3.67931 3.87983 0
M  V30 2873 C 267.342 -1.75597 4.91897 0
M  V30 2874 H 269.036 -0.740374 2.90101 0
M  V30 2875 H 266.582 -0.354696 1.39563 0
M  V30 2876 H 268.535 -3.17389 2.77205 0
M  V30 2877 H 267.259 -2.86475 1.56843 0
M  V30 2878 H 265.918 -1.61067 3.29322 0
M  V30 2879 H 265.566 -4.06462 2.96306 0
M  V30 2880 H 265.266 -3.58817 4.65322 0
M  V30 2881 H 266.79 -4.41356 4.21945 0
M  V30 2882 H 268.204 -2.37364 5.21854 0
M  V30 2883 H 266.601 -1.77272 5.73319 0
M  V30 2884 H 267.671 -0.714451 4.79608 0
M  V30 2885 N 269.014 -1.53014 -0.377408 0
M  V30 2886 C 270.254 -1.70318 -1.1301 0
M  V30 2887 C 270.618 -0.439538 -1.86901 0
M  V30 2888 O 271.819 -0.489095 -2.64313 0
M  V30 2889 C 270.09 -2.91125 -2.07319 0
M  V30 2890 S 271.649 -3.29075 -2.90268 0
M  V30 2891 H 268.467 -0.599426 -0.382374 0
M  V30 2892 H 271.069 -1.91089 -0.412933 0
M  V30 2893 H 269.773 -3.81303 -1.51777 0
M  V30 2894 H 269.304 -2.7272 -2.83526 0
M  V30 2895 H 271.319 -2.80165 -4.09539 0
M  V30 2896 N 270.492 0.636531 -1.44174 0
M  V30 2897 C 271.422 1.76003 -1.53444 0
M  V30 2898 C 272.403 1.65619 -0.387841 0
M  V30 2899 O 273.588 1.84461 -0.607257 0
M  V30 2900 C 270.718 3.14511 -1.4731 0
M  V30 2901 C 269.672 3.39677 -2.60391 0
M  V30 2902 C 268.998 4.78159 -2.39308 0
M  V30 2903 C 270.298 3.32772 -4.02567 0
M  V30 2904 H 271.992 1.68501 -2.47483 0
M  V30 2905 H 269.538 0.809237 -1.19111 0
M  V30 2906 H 271.491 3.92878 -1.52397 0
M  V30 2907 H 270.215 3.22783 -0.49785 0
M  V30 2908 H 268.874 2.63688 -2.54684 0
M  V30 2909 H 268.522 4.83128 -1.39988 0
M  V30 2910 H 268.222 4.95956 -3.15122 0
M  V30 2911 H 269.746 5.58762 -2.46205 0
M  V30 2912 H 271.16 4.01051 -4.09672 0
M  V30 2913 H 269.557 3.62104 -4.7854 0
M  V30 2914 H 270.627 2.30669 -4.2652 0
M  V30 2915 N 271.97 1.30982 0.876444 0
M  V30 2916 C 272.92 1.14688 1.97055 0
M  V30 2917 C 273.904 0.0596593 1.60789 0
M  V30 2918 O 275.096 0.283892 1.74708 0
M  V30 2919 C 272.225 0.849627 3.3262 0
M  V30 2920 C 271.311 1.97752 3.75173 0
M  V30 2921 N 271.702 3.22384 3.89746 0
M  V30 2922 C 270 1.8758 4.04635 0
M  V30 2923 C 270.701 3.96121 4.25985 0
M  V30 2924 N 269.677 3.24237 4.36315 0
M  V30 2925 H 273.479 2.09204 2.06424 0
M  V30 2926 H 270.993 1.22445 1.06682 0
M  V30 2927 H 272.99 0.713895 4.10742 0
M  V30 2928 H 271.65 -0.087376 3.24582 0
M  V30 2929 H 272.661 3.57575 3.74647 0
M  V30 2930 H 269.338 1.01303 4.05024 0
M  V30 2931 H 270.728 5.03491 4.44911 0
M  V30 2932 N 273.449 -1.08991 1.13837 0
M  V30 2933 C 274.689 -1.82867 0.913183 0
M  V30 2934 C 275.053 -1.83936 -0.550604 0
M  V30 2935 O 276.254 -2.53515 -0.893515 0
M  V30 2936 C 274.525 -3.24843 1.49036 0
M  V30 2937 S 276.084 -4.15669 1.40588 0
M  V30 2938 H 272.902 -0.630278 0.329046 0
M  V30 2939 H 275.504 -1.31049 1.45073 0
M  V30 2940 H 274.208 -3.21644 2.54899 0
M  V30 2941 H 273.739 -3.81734 0.950947 0
M  V30 2942 H 275.754 -4.94686 0.387353 0
M  V30 2943 N 274.927 -0.932562 -1.27047 0
M  V30 2944 C 276.152 -0.591474 -1.98787 0
M  V30 2945 C 276.577 0.824601 -1.69062 0
M  V30 2946 O 275.935 1.5541 -0.933677 0
M  V30 2947 C 275.983 -0.829808 -3.50922 0
M  V30 2948 O 275.087 0.102266 -4.12273 0
M  V30 2949 H 274.428 -0.227185 -0.623926 0
M  V30 2950 H 276.958 -1.25314 -1.61733 0
M  V30 2951 H 276.968 -0.747292 -4.01098 0
M  V30 2952 H 275.643 -1.86201 -3.7189 0
M  V30 2953 H 274.22 -0.0305761 -3.72887 0
M  V30 2954 N 276.405 1.4127 -0.698611 0
M  V30 2955 C 277.651 2.01478 -0.231207 0
M  V30 2956 C 277.984 1.55215 1.16713 0
M  V30 2957 O 277.259 0.764672 1.78838 0
M  V30 2958 C 277.542 3.58912 -0.292281 0
M  V30 2959 C 277.395 4.15293 -1.72778 0
M  V30 2960 C 278.714 4.38736 0.346194 0
M  V30 2961 H 275.833 0.732025 -0.0854878 0
M  V30 2962 H 278.475 1.67977 -0.887906 0
M  V30 2963 H 276.625 3.87582 0.26686 0
M  V30 2964 H 278.297 3.97486 -2.341 0
M  V30 2965 H 276.54 3.7022 -2.26096 0
M  V30 2966 H 277.211 5.24452 -1.72202 0
M  V30 2967 H 279.687 4.15897 -0.130035 0
M  V30 2968 H 278.563 5.48221 0.272932 0
M  V30 2969 H 278.824 4.18425 1.42734 0
M  V30 2970 N 277.883 0.443576 1.51229 0
M  V30 2971 C 279.16 -0.181038 1.9476 0
M  V30 2972 C 279.54 -1.59523 1.38259 0
M  V30 2973 O 278.888 -2.2122 0.572198 0
M  V30 2974 C 279.098 -0.152422 3.48667 0
M  V30 2975 C 280.446 -0.354923 4.23114 0
M  V30 2976 O 281.47 -0.230257 3.55455 0
M  V30 2977 O 280.329 -0.603674 5.43156 0
M  V30 2978 H 277.423 -0.1266 0.817252 0
M  V30 2979 H 279.969 0.502004 1.62105 0
M  V30 2980 H 278.741 0.836022 3.82265 0
M  V30 2981 H 278.364 -0.878107 3.87782 0
M  V30 2982 N 279.361 -1.56624 0.175154 0
M  V30 2983 C 280.293 -2.15333 -0.785128 0
M  V30 2984 C 281.306 -1.1099 -1.19101 0
M  V30 2985 O 282.495 -1.38162 -1.13019 0
M  V30 2986 C 279.595 -2.68427 -2.06882 0
M  V30 2987 C 278.768 -3.97466 -1.8259 0
M  V30 2988 C 277.827 -4.35585 -2.95215 0
M  V30 2989 O 276.853 -5.03389 -2.65684 0
M  V30 2990 N 278.055 -3.97457 -4.23094 0
M  V30 2991 H 280.82 -2.98359 -0.283187 0
M  V30 2992 H 278.381 -1.61898 -0.00749817 0
M  V30 2993 H 280.373 -2.90924 -2.81328 0
M  V30 2994 H 278.943 -1.89968 -2.48256 0
M  V30 2995 H 278.163 -3.83307 -0.920287 0
M  V30 2996 H 279.451 -4.81736 -1.63733 0
M  V30 2997 H 278.849 -3.42878 -4.49945 0
M  V30 2998 H 277.406 -4.24947 -4.9423 0
M  V30 2999 N 280.839 0.0985539 -1.57292 0
M  V30 3000 C 281.749 1.13824 -2.05137 0
M  V30 3001 C 282.765 1.44076 -0.975604 0
M  V30 3002 O 283.941 1.54786 -1.28853 0
M  V30 3003 C 281.006 2.43969 -2.46333 0
M  V30 3004 C 280.067 2.2093 -3.68087 0
M  V30 3005 C 279.3 3.44869 -4.0731 0
M  V30 3006 O 279.523 4.52972 -3.46659 0
M  V30 3007 O 278.457 3.34661 -5.00285 0
M  V30 3008 H 282.283 0.761881 -2.93988 0
M  V30 3009 H 279.868 0.310818 -1.46131 0
M  V30 3010 H 281.75 3.20609 -2.73473 0
M  V30 3011 H 280.425 2.81038 -1.60621 0
M  V30 3012 H 279.332 1.42081 -3.46069 0
M  V30 3013 H 280.665 1.88755 -4.54568 0
M  V30 3014 N 282.317 1.53212 0.369288 0
M  V30 3015 C 283.565 1.68881 1.11012 0
M  V30 3016 C 283.886 0.441285 1.89941 0
M  V30 3017 O 283.156 -0.544623 1.88177 0
M  V30 3018 H 281.736 0.622569 0.412816 0
M  V30 3019 H 284.398 1.90391 0.416802 0
M  V30 3020 H 283.494 2.54822 1.80201 0
M  V30 3021 N 283.795 -0.628877 1.44509 0
M  V30 3022 C 284.742 -1.74074 1.51549 0
M  V30 3023 C 285.712 -1.62084 0.363021 0
M  V30 3024 O 286.897 -1.81975 0.573567 0
M  V30 3025 C 284.037 -3.12328 1.46784 0
M  V30 3026 C 283.15 -3.35277 2.72422 0
M  V30 3027 C 282.285 -4.63515 2.59475 0
M  V30 3028 C 281.324 -4.7965 3.80266 0
M  V30 3029 N 280.461 -5.99168 3.65981 0
M  V30 3030 H 285.301 -1.67392 2.46544 0
M  V30 3031 H 282.838 -0.816527 1.22357 0
M  V30 3032 H 284.796 -3.92286 1.42012 0
M  V30 3033 H 283.426 -3.18018 0.553544 0
M  V30 3034 H 282.478 -2.49242 2.87372 0
M  V30 3035 H 283.79 -3.43078 3.62076 0
M  V30 3036 H 282.944 -5.51638 2.52548 0
M  V30 3037 H 281.683 -4.58076 1.67384 0
M  V30 3038 H 280.688 -3.89957 3.87574 0
M  V30 3039 H 281.913 -4.86902 4.73395 0
M  V30 3040 H 279.859 -5.94814 2.76644 0
M  V30 3041 H 279.776 -6.08035 4.49254 0
M  V30 3042 H 281.044 -6.89846 3.6295 0
M  V30 3043 N 285.273 -1.31445 -0.869486 0
M  V30 3044 C 286.498 -1.24256 -1.66058 0
M  V30 3045 C 286.923 0.188928 -1.87149 0
M  V30 3046 O 286.281 1.13522 -1.4136 0
M  V30 3047 C 286.329 -1.9924 -3.00559 0
M  V30 3048 O 285.433 -1.33007 -3.90362 0
M  V30 3049 H 284.774 -0.428973 -0.506831 0
M  V30 3050 H 287.304 -1.73521 -1.08404 0
M  V30 3051 H 287.314 -2.08854 -3.50491 0
M  V30 3052 H 285.989 -3.03342 -2.84528 0
M  V30 3053 H 284.566 -1.31848 -3.48813 0
M  V30 3054 N 286.751 1.08385 -1.14413 0
M  V30 3055 C 287.997 1.81044 -0.913834 0
M  V30 3056 C 288.33 1.86004 0.558209 0
M  V30 3057 O 287.605 1.33606 1.4135 0
M  V30 3058 C 287.888 3.26648 -1.51569 0
M  V30 3059 C 287.741 3.29895 -3.0576 0
M  V30 3060 C 289.06 4.23629 -1.19273 0
M  V30 3061 H 286.179 0.65727 -0.333414 0
M  V30 3062 H 288.821 1.26896 -1.41412 0
M  V30 3063 H 286.971 3.72889 -1.09023 0
M  V30 3064 H 288.643 2.91977 -3.57137 0
M  V30 3065 H 286.886 2.69163 -3.40197 0
M  V30 3066 H 287.557 4.32516 -3.42977 0
M  V30 3067 H 290.033 3.85727 -1.56057 0
M  V30 3068 H 288.909 5.23822 -1.64017 0
M  V30 3069 H 289.17 4.41968 -0.108068 0
M  V30 3070 N 288.23 0.939286 1.26551 0
M  V30 3071 C 289.16 0.465044 2.28822 0
M  V30 3072 C 290.141 -0.480692 1.63167 0
M  V30 3073 O 291.326 -0.382955 1.90387 0
M  V30 3074 C 288.456 -0.27234 3.46231 0
M  V30 3075 C 287.41 0.58666 4.2396 0
M  V30 3076 C 286.736 -0.280573 5.33963 0
M  V30 3077 C 288.036 1.85704 4.88171 0
M  V30 3078 H 289.73 1.31979 2.68741 0
M  V30 3079 H 287.276 0.636061 1.29191 0
M  V30 3080 H 289.229 -0.615133 4.16886 0
M  V30 3081 H 287.953 -1.16121 3.0526 0
M  V30 3082 H 286.612 0.91232 3.55067 0
M  V30 3083 H 286.26 -1.16874 4.89234 0
M  V30 3084 H 285.96 0.29076 5.8688 0
M  V30 3085 H 287.484 -0.618678 6.07458 0
M  V30 3086 H 288.898 1.58161 5.51052 0
M  V30 3087 H 287.295 2.37279 5.51197 0
M  V30 3088 H 288.365 2.56957 4.11219 0
M  V30 3089 N 289.708 -1.40897 0.706093 0
M  V30 3090 C 290.933 -2.05895 0.249435 0
M  V30 3091 C 291.358 -1.52823 -1.09666 0
M  V30 3092 O 290.716 -0.659589 -1.68876 0
M  V30 3093 C 290.764 -3.59872 0.22904 0
M  V30 3094 O 289.868 -4.04708 -0.792784 0
M  V30 3095 H 289.209 -0.653206 0.119241 0
M  V30 3096 H 291.739 -1.80471 0.96391 0
M  V30 3097 H 291.749 -4.07951 0.0634791 0
M  V30 3098 H 290.424 -3.97866 1.21141 0
M  V30 3099 H 289.001 -3.68111 -0.59572 0
M  V30 3100 N 291.186 -0.45159 -1.50991 0
M  V30 3101 C 292.096 0.358431 -2.31846 0
M  V30 3102 C 293.112 1.01438 -1.41373 0
M  V30 3103 O 294.288 1.00663 -1.74439 0
M  V30 3104 C 291.353 1.43704 -3.15515 0
M  V30 3105 C 290.414 0.799742 -4.21785 0
M  V30 3106 C 289.647 1.82696 -5.01456 0
M  V30 3107 O 289.87 3.05105 -4.81941 0
M  V30 3108 O 288.804 1.40958 -5.85162 0
M  V30 3109 H 292.63 -0.302032 -3.02194 0
M  V30 3110 H 290.215 -0.213825 -1.47862 0
M  V30 3111 H 292.097 2.06227 -3.67489 0
M  V30 3112 H 290.772 2.08133 -2.47916 0
M  V30 3113 H 289.679 0.136084 -3.73852 0
M  V30 3114 H 291.012 0.198718 -4.91799 0
M  V30 3115 N 292.664 1.56529 -0.183458 0
M  V30 3116 C 293.611 2.18546 0.742055 0
M  V30 3117 C 294.581 1.12912 1.2182 0
M  V30 3118 O 295.766 1.41115 1.28418 0
M  V30 3119 C 292.906 2.83977 1.96089 0
M  V30 3120 C 292.019 4.04105 1.52719 0
M  V30 3121 C 291.154 4.57427 2.70063 0
M  V30 3122 C 290.193 5.69938 2.23243 0
M  V30 3123 N 289.33 6.17717 3.33722 0
M  V30 3124 H 294.17 2.97284 0.206432 0
M  V30 3125 H 291.707 1.46823 0.0901571 0
M  V30 3126 H 293.665 3.20077 2.67594 0
M  V30 3127 H 292.295 2.07822 2.47002 0
M  V30 3128 H 291.347 3.73745 0.708436 0
M  V30 3129 H 292.659 4.85513 1.1436 0
M  V30 3130 H 291.813 4.95772 3.49708 0
M  V30 3131 H 290.552 3.75101 3.11689 0
M  V30 3132 H 289.557 5.31133 1.42048 0
M  V30 3133 H 290.782 6.54073 1.82661 0
M  V30 3134 H 288.728 5.38317 3.74902 0
M  V30 3135 H 288.645 6.94146 2.99495 0
M  V30 3136 H 289.913 6.60713 4.13616 0
M  V30 3137 N 294.142 -0.090211 1.57342 0
M  V30 3138 C 295.389 -0.792807 1.86335 0
M  V30 3139 C 295.717 -1.78494 0.772662 0
M  V30 3140 O 294.972 -1.94305 -0.233258 0
M  V30 3141 C 295.271 -1.55222 3.21933 0
M  V30 3142 C 294.937 -0.701765 4.45406 0
M  V30 3143 C 293.599 -0.467334 4.78925 0
M  V30 3144 C 295.951 -0.11086 5.21082 0
M  V30 3145 C 293.279 0.367785 5.85546 0
M  V30 3146 C 295.631 0.711609 6.28585 0
M  V30 3147 C 294.295 0.956086 6.60617 0
M  V30 3148 H 293.565 -0.290109 0.681849 0
M  V30 3149 H 296.212 -0.0541332 1.91423 0
M  V30 3150 H 294.517 -2.3626 3.12551 0
M  V30 3151 H 296.214 -2.10032 3.41595 0
M  V30 3152 H 292.804 -0.894598 4.1916 0
M  V30 3153 H 296.988 -0.279129 4.95514 0
M  V30 3154 H 292.244 0.566128 6.08773 0
M  V30 3155 H 296.418 1.17632 6.86393 0
M  V30 3156 H 294.045 1.60499 7.43064 0
M  V30 3157 N 295.62 -1.53406 -0.361157 0
M  V30 3158 C 296.869 -1.69022 -1.10066 0
M  V30 3159 C 297.182 -0.450838 -1.90333 0
M  V30 3160 O 298.388 -0.487617 -2.67085 0
M  V30 3161 C 296.844 -2.98812 -2.00598 0
M  V30 3162 C 296.452 -4.30027 -1.25621 0
M  V30 3163 C 298.196 -3.23795 -2.74513 0
M  V30 3164 C 296.103 -5.50903 -2.1508 0
M  V30 3165 H 295.033 -0.629776 -0.414606 0
M  V30 3166 H 297.684 -1.79907 -0.361348 0
M  V30 3167 H 296.066 -2.8174 -2.78278 0
M  V30 3168 H 297.24 -4.57745 -0.529739 0
M  V30 3169 H 295.555 -4.11522 -0.635496 0
M  V30 3170 H 298.152 -4.11289 -3.41681 0
M  V30 3171 H 298.495 -2.40045 -3.40123 0
M  V30 3172 H 299.028 -3.41561 -2.03914 0
M  V30 3173 H 295.767 -6.37143 -1.54041 0
M  V30 3174 H 295.287 -5.27459 -2.85565 0
M  V30 3175 H 296.966 -5.85865 -2.74538 0
M  V30 3176 N 297.098 0.621204 -1.44841 0
M  V30 3177 C 298.028 1.74366 -1.55303 0
M  V30 3178 C 299.009 1.65199 -0.405385 0
M  V30 3179 O 300.194 1.83807 -0.626787 0
M  V30 3180 C 297.324 3.12931 -1.50637 0
M  V30 3181 C 296.278 3.36896 -2.63979 0
M  V30 3182 C 295.604 4.75594 -2.44366 0
M  V30 3183 C 296.904 3.28483 -4.06074 0
M  V30 3184 H 298.598 1.65867 -2.49256 0
M  V30 3185 H 296.144 0.796558 -1.19962 0
M  V30 3186 H 298.097 3.9124 -1.56555 0
M  V30 3187 H 296.821 3.22237 -0.532057 0
M  V30 3188 H 295.48 2.60972 -2.57467 0
M  V30 3189 H 295.128 4.81616 -1.45105 0
M  V30 3190 H 294.828 4.92586 -3.20364 0
M  V30 3191 H 296.352 5.5612 -2.52117 0
M  V30 3192 H 297.766 3.96684 -4.13902 0
M  V30 3193 H 296.163 3.57008 -4.82354 0
M  V30 3194 H 297.233 2.26133 -4.28943 0
M  V30 3195 N 298.576 1.31904 0.862503 0
M  V30 3196 C 299.523 1.20182 1.9704 0
M  V30 3197 C 300.493 0.0858247 1.65878 0
M  V30 3198 O 301.678 0.26 1.8902 0
M  V30 3199 C 298.818 0.922797 3.32533 0
M  V30 3200 C 297.931 2.12284 3.76244 0
M  V30 3201 C 297.066 1.77996 5.00491 0
M  V30 3202 C 296.105 2.94366 5.36671 0
M  V30 3203 N 295.242 2.60223 6.52095 0
M  V30 3204 H 300.082 2.14951 2.06398 0
M  V30 3205 H 297.619 1.06917 1.01031 0
M  V30 3206 H 299.577 0.741548 4.10557 0
M  V30 3207 H 298.207 0.0119227 3.22798 0
M  V30 3208 H 297.259 2.41461 2.9394 0
M  V30 3209 H 298.571 2.99357 3.98982 0
M  V30 3210 H 297.725 1.56377 5.862 0
M  V30 3211 H 296.464 0.881252 4.79672 0
M  V30 3212 H 295.469 3.16625 4.49476 0
M  V30 3213 H 296.694 3.84957 5.59451 0
M  V30 3214 H 294.64 1.72884 6.32809 0
M  V30 3215 H 294.557 3.40827 6.74814 0
M  V30 3216 H 295.825 2.42016 7.40978 0
M  V30 3217 N 300.054 -1.07777 1.14986 0
M  V30 3218 C 301.3 -1.80557 0.923422 0
M  V30 3219 C 301.633 -1.86298 -0.548337 0
M  V30 3220 O 300.908 -1.34354 -1.40639 0
M  V30 3221 C 301.191 -3.25839 1.53299 0
M  V30 3222 C 301.044 -3.28269 3.07505 0
M  V30 3223 C 302.363 -4.22991 1.21518 0
M  V30 3224 H 299.482 -0.655493 0.336894 0
M  V30 3225 H 302.124 -1.26144 1.42083 0
M  V30 3226 H 300.274 -3.72306 1.10999 0
M  V30 3227 H 301.946 -2.90079 3.58681 0
M  V30 3228 H 300.189 -2.67355 3.4162 0
M  V30 3229 H 300.86 -4.30691 3.45266 0
M  V30 3230 H 303.336 -3.84894 1.581 0
M  V30 3231 H 302.212 -5.22945 1.66793 0
M  V30 3232 H 302.473 -4.41904 0.131505 0
M  V30 3233 N 301.532 -0.945985 -1.26051 0
M  V30 3234 C 302.948 -0.649045 -1.45807 0
M  V30 3235 C 303.148 0.796158 -1.85104 0
M  V30 3236 O 302.204 1.57233 -1.97571 0
M  V30 3237 C 303.517 -1.61458 -2.53677 0
M  V30 3238 C 305.065 -1.62481 -2.67524 0
M  V30 3239 C 305.54 -2.57776 -3.7857 0
M  V30 3240 N 307.031 -2.5609 -3.85969 0
M  V30 3241 C 307.766 -3.26508 -4.7136 0
M  V30 3242 N 307.262 -4.0637 -5.61102 0
M  V30 3243 N 309.055 -3.15437 -4.65248 0
M  V30 3244 H 301.206 -1.88005 -0.988328 0
M  V30 3245 H 303.469 -0.808198 -0.4955 0
M  V30 3246 H 303.175 -2.64644 -2.31638 0
M  V30 3247 H 303.049 -1.37036 -3.51427 0
M  V30 3248 H 305.436 -0.600167 -2.88933 0
M  V30 3249 H 305.517 -1.90958 -1.70202 0
M  V30 3250 H 305.161 -3.60361 -3.57913 0
M  V30 3251 H 305.091 -2.26587 -4.75359 0
M  V30 3252 H 307.582 -1.98105 -3.21812 0
M  V30 3253 H 307.895 -4.57042 -6.23164 0
M  V30 3254 H 306.24 -4.10469 -5.60839 0
M  V30 3255 H 309.431 -2.52525 -3.94143 0
M  V30 3256 H 309.604 -3.70584 -5.31575 0
M  V30 3257 N 303.011 1.40521 -0.713556 0
M  V30 3258 C 304.422 1.83853 -0.324807 0
M  V30 3259 C 304.773 1.59667 1.14021 0
M  V30 3260 O 303.898 1.07649 1.87725 0
M  V30 3261 C 304.493 3.33751 -0.582746 0
M  V30 3262 C 303.052 3.75584 -0.247727 0
M  V30 3263 C 302.199 2.63753 -0.856121 0
M  V30 3264 H 305.15 1.29817 -0.91286 0
M  V30 3265 H 305.171 3.80194 0.152682 0
M  V30 3266 H 304.683 3.51322 -1.64908 0
M  V30 3267 H 302.784 3.63608 0.813624 0
M  V30 3268 H 302.897 4.7373 -0.715307 0
M  V30 3269 H 301.261 2.53108 -0.28432 0
M  V30 3270 H 302.044 2.84137 -1.92668 0
M  V30 3271 N 304.489 0.459591 1.5075 0
M  V30 3272 C 305.452 -0.329093 2.26825 0
M  V30 3273 C 306.452 -0.930481 1.31144 0
M  V30 3274 O 307.642 -0.801453 1.54669 0
M  V30 3275 C 304.774 -1.46768 3.07688 0
M  V30 3276 H 305.967 0.337924 2.9799 0
M  V30 3277 H 303.52 0.213336 1.54837 0
M  V30 3278 H 304.255 -2.17009 2.40993 0
M  V30 3279 H 304.04 -1.04238 3.77991 0
M  V30 3280 H 305.53 -2.02433 3.65254 0
M  V30 3281 N 305.967 -1.56429 0.191757 0
M  V30 3282 C 307.214 -1.97485 -0.447891 0
M  V30 3283 C 307.542 -1.07852 -1.61859 0
M  V30 3284 O 306.797 -0.116903 -1.95351 0
M  V30 3285 C 307.096 -3.44449 -0.953384 0
M  V30 3286 C 306.762 -4.50781 0.103586 0
M  V30 3287 C 305.424 -4.79584 0.394023 0
M  V30 3288 C 307.776 -5.1471 0.819946 0
M  V30 3289 C 305.104 -5.69607 1.40585 0
M  V30 3290 C 307.456 -6.05827 1.8209 0
M  V30 3291 C 306.12 -6.32987 2.11857 0
M  V30 3292 H 305.39 -0.722648 -0.163895 0
M  V30 3293 H 308.037 -1.89322 0.28802 0
M  V30 3294 H 306.342 -3.49666 -1.76751 0
M  V30 3295 H 308.039 -3.73569 -1.45765 0
M  V30 3296 H 304.629 -4.28394 -0.132951 0
M  V30 3297 H 308.813 -4.92552 0.608789 0
M  V30 3298 H 304.069 -5.88926 1.64243 0
M  V30 3299 H 308.243 -6.54424 2.38123 0
M  V30 3300 H 305.87 -7.02544 2.90407 0
M  V30 3301 N 307.445 0.0818655 -1.57387 0
M  V30 3302 C 308.392 1.09834 -2.0299 0
M  V30 3303 C 309.362 1.39043 -0.908639 0
M  V30 3304 O 310.547 1.50282 -1.17559 0
M  V30 3305 C 307.687 2.40971 -2.47037 0
M  V30 3306 C 306.8 2.18379 -3.7274 0
M  V30 3307 C 305.935 3.43008 -4.0561 0
M  V30 3308 C 304.974 3.15736 -5.24383 0
M  V30 3309 N 304.111 4.32667 -5.52941 0
M  V30 3310 H 308.951 0.702472 -2.89602 0
M  V30 3311 H 306.488 0.33531 -1.43227 0
M  V30 3312 H 308.446 3.1752 -2.70623 0
M  V30 3313 H 307.076 2.78379 -1.63417 0
M  V30 3314 H 306.128 1.32569 -3.56552 0
M  V30 3315 H 307.44 1.94227 -4.59431 0
M  V30 3316 H 306.594 4.27958 -4.30043 0
M  V30 3317 H 305.333 3.70225 -3.17466 0
M  V30 3318 H 304.338 2.2918 -4.99757 0
M  V30 3319 H 305.563 2.8985 -6.14136 0
M  V30 3320 H 303.509 4.59935 -4.67756 0
M  V30 3321 H 303.426 4.11753 -6.34031 0
M  V30 3322 H 304.694 5.18644 -5.81918 0
M  V30 3323 N 308.923 1.53595 0.353017 0
M  V30 3324 C 309.886 1.80232 1.41594 0
M  V30 3325 C 310.886 0.673081 1.46035 0
M  V30 3326 O 312.076 0.941335 1.46576 0
M  V30 3327 C 309.208 1.93578 2.80607 0
M  V30 3328 H 310.401 2.75174 1.19244 0
M  V30 3329 H 307.954 1.44864 0.586872 0
M  V30 3330 H 308.689 1.00746 3.08254 0
M  V30 3331 H 308.474 2.75724 2.78781 0
M  V30 3332 H 309.964 2.15735 3.57558 0
M  V30 3333 N 310.401 -0.613514 1.45168 0
M  V30 3334 C 311.647 -1.37471 1.49096 0
M  V30 3335 C 311.98 -1.93765 0.129901 0
M  V30 3336 O 311.255 -1.74707 -0.854858 0
M  V30 3337 C 311.538 -2.52701 2.56542 0
M  V30 3338 C 311.391 -2.01643 4.0207 0
M  V30 3339 C 312.71 -3.54849 2.60327 0
M  V30 3340 H 309.829 -0.498502 0.54283 0
M  V30 3341 H 312.471 -0.692125 1.76945 0
M  V30 3342 H 310.621 -3.10931 2.32926 0
M  V30 3343 H 312.293 -1.48108 4.36877 0
M  V30 3344 H 310.536 -1.32688 4.13009 0
M  V30 3345 H 311.207 -2.84681 4.72928 0
M  V30 3346 H 313.683 -3.0645 2.81474 0
M  V30 3347 H 312.559 -4.32973 3.37381 0
M  V30 3348 H 312.82 -4.10079 1.6519 0
M  V30 3349 N 311.879 -1.3236 -0.855495 0
M  V30 3350 C 313.29 -1.2056 -1.42556 0
M  V30 3351 C 313.641 0.182209 -1.95352 0
M  V30 3352 O 312.766 1.08088 -1.87472 0
M  V30 3353 C 313.361 -2.1826 -2.59129 0
M  V30 3354 C 311.92 -2.10351 -3.12137 0
M  V30 3355 C 311.067 -2.06674 -1.84882 0
M  V30 3356 H 314.018 -1.442 -0.662727 0
M  V30 3357 H 314.039 -1.78064 -3.36264 0
M  V30 3358 H 313.551 -3.19257 -2.20673 0
M  V30 3359 H 311.652 -1.12599 -3.55179 0
M  V30 3360 H 311.765 -3.00135 -3.73438 0
M  V30 3361 H 310.129 -1.51901 -2.04446 0
M  V30 3362 H 310.912 -3.09451 -1.48643 0
M  V30 3363 N 313.357 1.07166 -1.15556 0
M  V30 3364 C 314.603 1.80065 -0.932984 0
M  V30 3365 C 314.936 1.86586 0.53845 0
M  V30 3366 O 314.211 1.35098 1.39924 0
M  V30 3367 C 314.494 3.25022 -1.55025 0
M  V30 3368 C 314.347 3.26634 -3.09242 0
M  V30 3369 C 315.666 4.22341 -1.2376 0
M  V30 3370 H 312.785 0.653697 -0.340366 0
M  V30 3371 H 315.427 1.25389 -1.4275 0
M  V30 3372 H 313.577 3.71712 -1.12972 0
M  V30 3373 H 315.249 2.88173 -3.60214 0
M  V30 3374 H 313.492 2.65539 -3.43033 0
M  V30 3375 H 314.163 4.28854 -3.47546 0
M  V30 3376 H 316.639 3.8405 -1.60139 0
M  V30 3377 H 315.515 5.22053 -1.69564 0
M  V30 3378 H 315.776 4.41828 -0.154938 0
M  V30 3379 N 314.835 0.952656 1.25548 0
M  V30 3380 C 316.081 0.607272 1.93494 0
M  V30 3381 C 316.414 -0.853245 1.74452 0
M  V30 3382 O 315.689 -1.61194 1.08843 0
M  V30 3383 C 315.972 0.96435 3.46947 0
M  V30 3384 C 315.825 2.48045 3.75225 0
M  V30 3385 C 317.144 0.487987 4.37386 0
M  V30 3386 H 314.263 0.222096 0.702739 0
M  V30 3387 H 316.905 1.18895 1.48203 0
M  V30 3388 H 315.055 0.469361 3.85654 0
M  V30 3389 H 316.727 3.04905 3.46166 0
M  V30 3390 H 314.97 2.919 3.209 0
M  V30 3391 H 315.641 2.6808 4.82532 0
M  V30 3392 H 318.117 0.912558 4.0597 0
M  V30 3393 H 316.993 0.766547 5.43521 0
M  V30 3394 H 317.254 -0.612063 4.37843 0
M  V30 3395 N 316.313 -1.40141 0.720998 0
M  V30 3396 C 317.538 -2.05618 0.271258 0
M  V30 3397 C 317.963 -1.53978 -1.08039 0
M  V30 3398 O 317.321 -0.677463 -1.68167 0
M  V30 3399 C 317.369 -3.59609 0.267197 0
M  V30 3400 O 316.473 -4.05526 -0.749814 0
M  V30 3401 H 315.814 -0.651904 0.126162 0
M  V30 3402 H 318.344 -1.79439 0.982997 0
M  V30 3403 H 318.354 -4.0786 0.106744 0
M  V30 3404 H 317.029 -3.96559 1.25354 0
M  V30 3405 H 315.606 -3.68722 -0.556644 0
M  V30 3406 N 317.792 -0.46758 -1.50504 0
M  V30 3407 C 319.038 0.0887532 -2.02606 0
M  V30 3408 C 319.371 1.39686 -1.34913 0
M  V30 3409 O 318.646 1.88644 -0.473694 0
M  V30 3410 C 318.929 0.276206 -3.59039 0
M  V30 3411 C 318.782 -1.05267 -4.37309 0
M  V30 3412 C 320.101 1.03235 -4.27821 0
M  V30 3413 H 317.22 0.0307814 -0.736357 0
M  V30 3414 H 319.862 -0.612485 -1.79857 0
M  V30 3415 H 318.012 0.8735 -3.78553 0
M  V30 3416 H 319.684 -1.68628 -4.29374 0
M  V30 3417 H 317.927 -1.65015 -4.01189 0
M  V30 3418 H 318.598 -0.875197 -5.45018 0
M  V30 3419 H 321.074 0.526111 -4.12761 0
M  V30 3420 H 319.95 1.1323 -5.37094 0
M  V30 3421 H 320.211 2.06806 -3.90748 0
M  V30 3422 N 319.27 1.56325 -0.20005 0
M  V30 3423 C 320.495 2.02548 0.44597 0
M  V30 3424 C 320.92 1.07922 1.5406 0
M  V30 3425 O 320.278 0.0635775 1.81188 0
M  V30 3426 C 320.326 3.47175 0.974761 0
M  V30 3427 O 319.43 3.55671 2.08739 0
M  V30 3428 H 318.771 0.655862 0.103638 0
M  V30 3429 H 321.301 2.02201 -0.312381 0
M  V30 3430 H 321.311 3.87067 1.2901 0
M  V30 3431 H 319.986 4.15538 0.17347 0
M  V30 3432 H 318.563 3.27657 1.78032 0
M  V30 3433 N 320.748 -0.0735177 1.57428 0
M  V30 3434 C 321.695 -1.08756 2.0357 0
M  V30 3435 C 322.665 -1.38559 0.916 0
M  V30 3436 O 323.85 -1.49656 1.18354 0
M  V30 3437 C 320.99 -2.39657 2.48311 0
M  V30 3438 C 320.103 -2.16399 3.73892 0
M  V30 3439 C 319.238 -3.40852 4.07423 0
M  V30 3440 C 318.277 -3.1295 5.2605 0
M  V30 3441 N 317.414 -4.29729 5.55228 0
M  V30 3442 H 322.254 -0.687104 2.8997 0
M  V30 3443 H 319.791 -0.327709 1.43403 0
M  V30 3444 H 321.749 -3.16081 2.72303 0
M  V30 3445 H 320.379 -2.77508 1.64891 0
M  V30 3446 H 319.431 -1.30676 3.57251 0
M  V30 3447 H 320.743 -1.91788 4.60455 0
M  V30 3448 H 319.897 -4.25671 4.32306 0
M  V30 3449 H 318.636 -3.68537 3.19425 0
M  V30 3450 H 317.641 -2.26526 5.00965 0
M  V30 3451 H 318.866 -2.86589 6.15665 0
M  V30 3452 H 316.812 -4.57448 4.70188 0
M  V30 3453 H 316.729 -4.08385 6.36206 0
M  V30 3454 H 317.997 -5.1555 5.84661 0
M  V30 3455 N 322.226 -1.5378 -0.344866 0
M  V30 3456 C 323.189 -1.80981 -1.40637 0
M  V30 3457 C 324.189 -0.680816 -1.45676 0
M  V30 3458 O 325.379 -0.949095 -1.46075 0
M  V30 3459 C 322.511 -1.95063 -2.79577 0
M  V30 3460 H 323.704 -2.75803 -1.17783 0
M  V30 3461 H 321.257 -1.45173 -0.579181 0
M  V30 3462 H 321.992 -1.02379 -3.07716 0
M  V30 3463 H 321.777 -2.77198 -2.77315 0
M  V30 3464 H 323.267 -2.17629 -3.56409 0
M  V30 3465 N 323.704 0.605807 -1.45491 0
M  V30 3466 C 324.929 1.39625 -1.53361 0
M  V30 3467 C 325.354 1.87351 -0.167645 0
M  V30 3468 O 324.712 1.60243 0.848051 0
M  V30 3469 C 324.76 2.57559 -2.5238 0
M  V30 3470 O 323.864 3.58248 -2.04285 0
M  V30 3471 H 323.205 0.416771 -0.516912 0
M  V30 3472 H 325.735 0.737103 -1.90861 0
M  V30 3473 H 325.745 3.0478 -2.71244 0
M  V30 3474 H 324.42 2.22171 -3.51586 0
M  V30 3475 H 322.997 3.17664 -1.95305 0
M  V30 3476 N 325.182 1.32811 0.848464 0
M  V30 3477 C 326.412 1.26556 1.63301 0
M  V30 3478 C 326.82 -0.1676 1.88456 0
M  V30 3479 O 326.163 -1.11713 1.45828 0
M  V30 3480 C 326.225 1.96202 3.01239 0
M  V30 3481 C 325.889 3.45528 2.99098 0
M  V30 3482 C 326.886 4.40903 2.75501 0
M  V30 3483 C 324.571 3.87558 3.19537 0
M  V30 3484 C 326.565 5.76282 2.72356 0
M  V30 3485 C 324.252 5.23044 3.16019 0
M  V30 3486 C 325.25 6.17217 2.92458 0
M  V30 3487 O 324.938 7.50223 2.88825 0
M  V30 3488 H 324.67 0.43771 0.515156 0
M  V30 3489 H 327.224 1.7559 1.0657 0
M  V30 3490 H 325.454 1.41746 3.59785 0
M  V30 3491 H 327.143 1.83573 3.62016 0
M  V30 3492 H 327.909 4.09756 2.5947 0
M  V30 3493 H 323.788 3.14674 3.369 0
M  V30 3494 H 327.332 6.4976 2.53886 0
M  V30 3495 H 323.229 5.53818 3.31596 0
M  V30 3496 H 323.997 7.59657 3.04735 0
M  V30 3497 N 326.66 -1.06551 1.16123 0
M  V30 3498 C 327.59 -2.15935 0.88851 0
M  V30 3499 C 328.571 -1.69306 -0.164135 0
M  V30 3500 O 329.756 -1.94193 -0.0167857 0
M  V30 3501 C 326.886 -3.45149 0.385942 0
M  V30 3502 C 325.84 -4.05271 1.3762 0
M  V30 3503 C 325.166 -5.29664 0.732137 0
M  V30 3504 C 326.466 -4.44355 2.74493 0
M  V30 3505 H 328.16 -2.39006 1.80323 0
M  V30 3506 H 325.706 -1.14866 0.868435 0
M  V30 3507 H 327.659 -4.21004 0.182647 0
M  V30 3508 H 326.383 -3.21689 -0.564274 0
M  V30 3509 H 325.042 -3.3147 1.56599 0
M  V30 3510 H 324.69 -5.02499 -0.224483 0
M  V30 3511 H 324.39 -5.70848 1.39307 0
M  V30 3512 H 325.914 -6.08218 0.538802 0
M  V30 3513 H 327.328 -5.11303 2.59311 0
M  V30 3514 H 325.725 -4.96515 3.37035 0
M  V30 3515 H 326.795 -3.55339 3.29943 0
M  V30 3516 N 328.138 -0.959301 -1.25041 0
M  V30 3517 C 329.068 -0.501388 -2.28053 0
M  V30 3518 C 330.049 0.454673 -1.63911 0
M  V30 3519 O 331.234 0.352618 -1.90972 0
M  V30 3520 C 328.364 0.217224 -3.4662 0
M  V30 3521 C 327.318 -0.654034 -4.22973 0
M  V30 3522 C 326.644 0.195589 -5.34342 0
M  V30 3523 C 327.944 -1.93447 -4.85155 0
M  V30 3524 H 329.638 -1.36238 -2.66608 0
M  V30 3525 H 327.184 -0.656534 -1.28163 0
M  V30 3526 H 329.137 0.548732 -4.17812 0
M  V30 3527 H 327.861 1.1125 -3.07068 0
M  V30 3528 H 326.52 -0.968693 -3.5357 0
M  V30 3529 H 326.168 1.09076 -4.91031 0
M  V30 3530 H 325.868 -0.384091 -5.86343 0
M  V30 3531 H 327.392 0.521958 -6.08365 0
M  V30 3532 H 328.806 -1.66908 -5.48466 0
M  V30 3533 H 327.203 -2.46018 -5.47353 0
M  V30 3534 H 328.273 -2.63466 -4.07079 0
M  V30 3535 N 329.616 1.39756 -0.72842 0
M  V30 3536 C 331.032 1.5442 -0.403308 0
M  V30 3537 C 331.232 1.69694 1.08656 0
M  V30 3538 O 330.288 1.69373 1.87267 0
M  V30 3539 C 331.601 2.76555 -1.18058 0
M  V30 3540 C 333.149 2.90384 -1.16815 0
M  V30 3541 C 333.624 4.15449 -1.92785 0
M  V30 3542 N 335.115 4.22475 -1.89918 0
M  V30 3543 C 335.85 5.1818 -2.45514 0
M  V30 3544 N 335.346 6.19714 -3.09719 0
M  V30 3545 N 337.139 5.1035 -2.35584 0
M  V30 3546 H 329.29 1.28089 -1.69431 0
M  V30 3547 H 331.553 0.620327 -0.716867 0
M  V30 3548 H 331.259 2.7159 -2.23455 0
M  V30 3549 H 331.133 3.69033 -0.780662 0
M  V30 3550 H 333.52 2.94846 -0.12234 0
M  V30 3551 H 333.601 1.98988 -1.6074 0
M  V30 3552 H 333.245 4.11749 -2.97364 0
M  V30 3553 H 333.175 5.05877 -1.46272 0
M  V30 3554 H 335.666 3.49743 -1.43138 0
M  V30 3555 H 335.979 6.8919 -3.49625 0
M  V30 3556 H 334.324 6.20121 -3.13807 0
M  V30 3557 H 337.515 4.2996 -1.85072 0
M  V30 3558 H 337.688 5.84761 -2.79211 0
M  V30 3559 N 331.094 0.475555 1.50254 0
M  V30 3560 C 332.004 -0.321501 2.32387 0
M  V30 3561 C 333.02 -0.991755 1.42969 0
M  V30 3562 O 334.196 -0.978747 1.76018 0
M  V30 3563 C 331.261 -1.38667 3.17762 0
M  V30 3564 C 330.322 -0.732538 4.23004 0
M  V30 3565 C 329.555 -1.74695 5.04299 0
M  V30 3566 O 329.778 -2.97399 4.86734 0
M  V30 3567 O 328.712 -1.31631 5.8733 0
M  V30 3568 H 332.538 0.350071 3.01676 0
M  V30 3569 H 330.123 0.237321 1.47503 0
M  V30 3570 H 332.005 -2.00354 3.70724 0
M  V30 3571 H 330.68 -2.04163 2.51196 0
M  V30 3572 H 329.587 -0.0765902 3.74022 0
M  V30 3573 H 330.92 -0.120452 4.92053 0
M  V30 3574 N 332.573 -1.56217 0.208337 0
M  V30 3575 C 333.821 -1.97558 -0.426076 0
M  V30 3576 C 334.142 -1.09683 -1.61229 0
M  V30 3577 O 333.412 -0.170956 -1.95153 0
M  V30 3578 H 331.992 -0.729575 -0.160405 0
M  V30 3579 H 334.654 -1.92606 0.298155 0
M  V30 3580 H 333.75 -3.02672 -0.761312 0
M  V30 3581 N 334.051 0.0651679 -1.57465 0
M  V30 3582 C 334.961 1.09448 -2.07505 0
M  V30 3583 C 335.977 1.41974 -1.00595 0
M  V30 3584 O 337.153 1.52018 -1.32107 0
M  V30 3585 C 334.218 2.38689 -2.51453 0
M  V30 3586 C 333.279 2.13073 -3.72691 0
M  V30 3587 C 332.512 3.36152 -4.14533 0
M  V30 3588 O 332.735 4.45517 -3.56189 0
M  V30 3589 O 331.669 3.23974 -5.07272 0
M  V30 3590 H 335.495 0.69935 -2.95538 0
M  V30 3591 H 333.08 0.279752 -1.46757 0
M  V30 3592 H 334.962 3.14736 -2.80212 0
M  V30 3593 H 333.637 2.77568 -1.66546 0
M  V30 3594 H 332.544 1.34709 -3.49005 0
M  V30 3595 H 333.877 1.79071 -4.5847 0
M  V30 3596 N 335.529 1.53961 0.336706 0
M  V30 3597 C 336.439 1.85432 1.43708 0
M  V30 3598 C 337.455 0.745053 1.57242 0
M  V30 3599 O 338.631 1.03804 1.72588 0
M  V30 3600 C 335.696 2.06349 2.78605 0
M  V30 3601 C 334.757 3.30191 2.74358 0
M  V30 3602 C 333.99 3.50101 4.02822 0
M  V30 3603 O 334.213 2.7371 5.00439 0
M  V30 3604 O 333.147 4.43547 4.06878 0
M  V30 3605 H 336.973 2.78975 1.20028 0
M  V30 3606 H 334.558 1.39701 0.52952 0
M  V30 3607 H 336.44 2.21513 3.58483 0
M  V30 3608 H 335.115 1.15995 3.02203 0
M  V30 3609 H 334.022 3.20425 1.93078 0
M  V30 3610 H 335.355 4.2056 2.55715 0
M  V30 3611 N 337.007 -0.598083 1.45811 0
M  V30 3612 C 338.254 -1.35681 1.50323 0
M  V30 3613 C 338.582 -1.9393 0.148739 0
M  V30 3614 O 337.837 -1.76094 -0.853787 0
M  V30 3615 C 338.136 -2.51669 2.53766 0
M  V30 3616 C 337.802 -2.11508 3.98215 0
M  V30 3617 C 336.464 -2.0027 4.37545 0
M  V30 3618 C 338.816 -1.80308 4.89018 0
M  V30 3619 C 336.144 -1.56067 5.65562 0
M  V30 3620 C 338.496 -1.37589 6.17456 0
M  V30 3621 C 337.16 -1.24916 6.55708 0
M  V30 3622 H 336.43 -0.496492 0.550069 0
M  V30 3623 H 339.077 -0.675052 1.79207 0
M  V30 3624 H 337.382 -3.25225 2.18486 0
M  V30 3625 H 339.079 -3.09895 2.54492 0
M  V30 3626 H 335.669 -2.21185 3.67117 0
M  V30 3627 H 339.853 -1.87884 4.59362 0
M  V30 3628 H 335.109 -1.44886 5.93985 0
M  V30 3629 H 339.283 -1.12495 6.87254 0
M  V30 3630 H 336.91 -0.904386 7.54801 0
M  V30 3631 N 338.485 -1.33259 -0.841409 0
M  V30 3632 C 339.713 -1.27605 -1.62864 0
M  V30 3633 C 340.128 0.153507 -1.88175 0
M  V30 3634 O 339.485 1.09485 -1.46011 0
M  V30 3635 C 339.536 -2.04596 -2.98031 0
M  V30 3636 O 339.257 -3.41975 -2.73834 0
M  V30 3637 C 340.758 -2.06122 -3.92465 0
M  V30 3638 H 337.978 -0.439718 -0.506842 0
M  V30 3639 H 340.522 -1.75591 -1.04824 0
M  V30 3640 H 338.677 -1.60299 -3.5268 0
M  V30 3641 H 339.091 -3.81549 -3.59889 0
M  V30 3642 H 340.565 -2.64451 -4.84531 0
M  V30 3643 H 341.042 -1.05083 -4.26444 0
M  V30 3644 H 341.648 -2.50427 -3.43753 0
M  V30 3645 N 339.963 1.05934 -1.16686 0
M  V30 3646 C 341.209 1.79065 -0.95203 0
M  V30 3647 C 341.542 1.87147 0.518629 0
M  V30 3648 O 340.817 1.36574 1.38484 0
M  V30 3649 C 341.1 3.23359 -1.58464 0
M  V30 3650 C 340.953 3.23336 -3.12689 0
M  V30 3651 C 342.272 4.21004 -1.28232 0
M  V30 3652 H 339.391 0.65005 -0.34728 0
M  V30 3653 H 342.033 1.23868 -1.44072 0
M  V30 3654 H 340.183 3.70493 -1.16908 0
M  V30 3655 H 341.855 2.84336 -3.6325 0
M  V30 3656 H 340.098 2.61886 -3.4583 0
M  V30 3657 H 340.769 4.25144 -3.52075 0
M  V30 3658 H 343.245 3.8233 -1.64203 0
M  V30 3659 H 342.121 5.20225 -1.75092 0
M  V30 3660 H 342.382 4.41639 -0.201791 0
M  V30 3661 N 341.441 0.965919 1.2453 0
M  V30 3662 C 342.669 0.644385 1.96609 0
M  V30 3663 C 343.084 -0.785823 1.71669 0
M  V30 3664 O 342.441 -1.52703 0.999399 0
M  V30 3665 C 342.492 0.907375 3.49927 0
M  V30 3666 O 342.213 2.28136 3.74013 0
M  V30 3667 C 343.714 0.599784 4.39224 0
M  V30 3668 H 340.934 0.240588 0.626385 0
M  V30 3669 H 343.478 1.29337 1.58405 0
M  V30 3670 H 341.633 0.304631 3.862 0
M  V30 3671 H 342.047 2.36002 4.68405 0
M  V30 3672 H 343.521 0.834263 5.45659 0
M  V30 3673 H 343.998 -0.465921 4.36722 0
M  V30 3674 H 344.604 1.18235 4.08535 0
M  V30 3675 N 342.919 -1.39368 0.735821 0
M  V30 3676 C 344.159 -2.02349 0.288813 0
M  V30 3677 C 344.523 -1.57127 -1.10341 0
M  V30 3678 O 345.724 -2.12312 -1.64854 0
M  V30 3679 C 343.995 -3.55288 0.387986 0
M  V30 3680 S 345.554 -4.38795 0.0209408 0
M  V30 3681 H 342.372 -0.701944 0.113115 0
M  V30 3682 H 344.974 -1.70164 0.962518 0
M  V30 3683 H 343.678 -3.85691 1.40252 0
M  V30 3684 H 343.209 -3.92227 -0.303512 0
M  V30 3685 H 345.224 -4.81595 -1.19503 0
M  V30 3686 N 344.397 -0.483516 -1.5 0
M  V30 3687 C 345.625 0.0644831 -2.06799 0
M  V30 3688 C 346.04 1.32399 -1.34596 0
M  V30 3689 O 345.397 1.77626 -0.418946 0
M  V30 3690 C 345.448 0.339927 -3.59898 0
M  V30 3691 O 345.169 -0.869635 -4.29382 0
M  V30 3692 C 346.67 0.933515 -4.33359 0
M  V30 3693 H 343.89 -0.0126333 -0.670881 0
M  V30 3694 H 346.434 -0.675864 -1.93009 0
M  V30 3695 H 344.589 1.03022 -3.7345 0
M  V30 3696 H 345.003 -0.62179 -5.20801 0
M  V30 3697 H 346.477 1.07593 -5.41413 0
M  V30 3698 H 346.954 1.92685 -3.94676 0
M  V30 3699 H 347.56 0.281221 -4.24369 0
M  V30 3700 N 345.875 1.56104 -0.216619 0
M  V30 3701 C 347.124 1.97348 0.416744 0
M  V30 3702 C 347.437 1.10715 1.6125 0
M  V30 3703 O 348.643 1.41836 2.31506 0
M  V30 3704 C 347.099 3.51059 0.792835 0
M  V30 3705 C 346.707 4.46387 -0.379828 0
M  V30 3706 C 348.451 4.01026 1.39208 0
M  V30 3707 C 346.358 5.91397 0.0184223 0
M  V30 3708 H 345.288 0.736942 0.159475 0
M  V30 3709 H 347.939 1.80827 -0.31205 0
M  V30 3710 H 346.321 3.63162 1.57891 0
M  V30 3711 H 347.495 4.46029 -1.15737 0
M  V30 3712 H 345.81 4.06734 -0.891979 0
M  V30 3713 H 348.407 5.0686 1.70286 0
M  V30 3714 H 348.75 3.46587 2.30614 0
M  V30 3715 H 349.283 3.92125 0.669537 0
M  V30 3716 H 346.022 6.49807 -0.862002 0
M  V30 3717 H 345.542 5.94961 0.760384 0
M  V30 3718 H 347.221 6.45455 0.446818 0
M  V30 3719 N 347.353 -0.0568162 1.57498 0
M  V30 3720 C 348.3 -1.06591 2.04712 0
M  V30 3721 C 349.27 -1.3758 0.930644 0
M  V30 3722 O 350.455 -1.48392 1.19935 0
M  V30 3723 C 347.595 -2.3701 2.50839 0
M  V30 3724 C 346.708 -2.12421 3.76167 0
M  V30 3725 C 345.843 -3.36511 4.11015 0
M  V30 3726 C 344.882 -3.07353 5.2934 0
M  V30 3727 N 344.019 -4.23816 5.59754 0
M  V30 3728 H 348.859 -0.65631 2.90683 0
M  V30 3729 H 346.396 -0.312481 1.43743 0
M  V30 3730 H 348.354 -3.13175 2.7564 0
M  V30 3731 H 346.984 -2.75744 1.67825 0
M  V30 3732 H 346.036 -1.2688 3.58616 0
M  V30 3733 H 347.348 -1.86894 4.62463 0
M  V30 3734 H 346.502 -4.21062 4.36797 0
M  V30 3735 H 345.241 -3.65128 3.23315 0
M  V30 3736 H 344.246 -2.212 5.03339 0
M  V30 3737 H 345.471 -2.80043 6.1867 0
M  V30 3738 H 343.417 -4.52436 4.75014 0
M  V30 3739 H 343.334 -4.01614 6.40501 0
M  V30 3740 H 344.602 -5.0932 5.90096 0
M  V30 3741 N 348.832 -1.54138 -0.328536 0
M  V30 3742 C 350.109 -1.62749 -1.08499 0
M  V30 3743 C 350.489 -0.458198 -2.06067 0
M  V30 3744 O 349.837 0.548046 -2.2183 0
M  V30 3745 C 350.047 -2.99519 -1.79135 0
M  V30 3746 C 351.395 -3.55394 -2.32337 0
M  V30 3747 O 352.419 -3.01792 -1.89209 0
M  V30 3748 O 351.278 -4.49186 -3.11279 0
M  V30 3749 H 348.372 -0.65886 -0.499832 0
M  V30 3750 H 350.918 -1.66484 -0.328826 0
M  V30 3751 H 349.69 -3.76061 -1.08139 0
M  V30 3752 H 349.313 -2.99441 -2.61574 0
M  V30 3753 N 350.31 0.590341 -1.46126 0
M  V30 3754 C 351.556 1.35082 -1.51264 0
M  V30 3755 C 351.889 1.93534 -0.160711 0
M  V30 3756 O 351.164 1.76045 0.826956 0
M  V30 3757 C 351.447 2.48588 -2.6053 0
M  V30 3758 C 351.3 1.95221 -4.05227 0
M  V30 3759 C 352.619 3.50662 -2.6594 0
M  V30 3760 H 349.738 0.489803 -0.550692 0
M  V30 3761 H 352.38 0.663887 -1.78024 0
M  V30 3762 H 350.53 3.07186 -2.37843 0
M  V30 3763 H 352.202 1.41139 -4.39178 0
M  V30 3764 H 350.445 1.26101 -4.15068 0
M  V30 3765 H 351.116 2.77121 -4.77397 0
M  V30 3766 H 353.592 3.01934 -2.86313 0
M  V30 3767 H 352.468 4.27551 -3.44226 0
M  V30 3768 H 352.729 4.07399 -1.71694 0
M  V30 3769 N 351.788 1.33704 0.83433 0
M  V30 3770 C 353.013 1.28615 1.62705 0
M  V30 3771 C 353.438 -0.139242 1.87584 0
M  V30 3772 O 352.796 -1.09734 1.4432 0
M  V30 3773 C 352.844 2.07139 2.95171 0
M  V30 3774 O 351.948 1.4331 3.86699 0
M  V30 3775 H 351.289 0.44226 0.49528 0
M  V30 3776 H 353.819 1.76335 1.03766 0
M  V30 3777 H 353.829 2.18073 3.44831 0
M  V30 3778 H 352.504 3.10779 2.76386 0
M  V30 3779 H 351.081 1.4105 3.45195 0
M  V30 3780 N 353.266 -1.05314 1.17247 0
M  V30 3781 C 354.491 -1.82509 0.985148 0
M  V30 3782 C 354.916 -1.82343 -0.461788 0
M  V30 3783 O 354.274 -1.23151 -1.33055 0
M  V30 3784 C 354.322 -3.26566 1.52929 0
M  V30 3785 O 353.426 -4.05666 0.742225 0
M  V30 3786 H 352.767 -0.564347 0.349869 0
M  V30 3787 H 355.297 -1.32718 1.55715 0
M  V30 3788 H 355.307 -3.77369 1.55103 0
M  V30 3789 H 353.982 -3.26001 2.58256 0
M  V30 3790 H 352.559 -3.64397 0.791794 0
M  V30 3791 N 354.744 -0.972509 -1.24016 0
M  V30 3792 C 355.969 -0.654417 -1.96805 0
M  V30 3793 C 356.394 0.770398 -1.716 0
M  V30 3794 O 355.752 1.52361 -0.982647 0
M  V30 3795 C 355.8 -0.941031 -3.48105 0
M  V30 3796 O 354.904 -0.0289472 -4.1239 0
M  V30 3797 H 354.245 -0.24692 -0.616382 0
M  V30 3798 H 356.775 -1.30396 -1.57664 0
M  V30 3799 H 356.785 -0.87452 -3.98517 0
M  V30 3800 H 355.46 -1.97939 -3.65777 0
M  V30 3801 H 354.037 -0.149192 -3.72601 0
M  V30 3802 N 356.222 1.38976 -0.743202 0
M  V30 3803 C 357.468 2.0064 -0.295189 0
M  V30 3804 C 357.801 1.5885 1.11716 0
M  V30 3805 O 357.076 0.821181 1.76315 0
M  V30 3806 C 357.359 3.578 -0.406318 0
M  V30 3807 C 357.212 4.09586 -1.85903 0
M  V30 3808 C 358.531 4.39616 0.206439 0
M  V30 3809 H 355.65 0.728935 -0.108733 0
M  V30 3810 H 358.292 1.65067 -0.940897 0
M  V30 3811 H 356.442 3.88235 0.143419 0
M  V30 3812 H 358.114 3.89837 -2.46627 0
M  V30 3813 H 356.357 3.6284 -2.3776 0
M  V30 3814 H 357.028 5.18708 -1.888 0
M  V30 3815 H 359.504 4.15273 -0.262283 0
M  V30 3816 H 358.38 5.48812 0.0983819 0
M  V30 3817 H 358.641 4.22754 1.2935 0
M  V30 3818 N 357.7 0.491464 1.49741 0
M  V30 3819 C 358.93 -0.0534375 2.06531 0
M  V30 3820 C 359.338 -1.32233 1.35318 0
M  V30 3821 O 358.681 -1.78781 0.422243 0
M  V30 3822 C 358.743 -0.387034 3.57411 0
M  V30 3823 C 358.407 0.782764 4.50246 0
M  V30 3824 C 359.404 1.67059 4.92329 0
M  V30 3825 C 357.089 0.978866 4.9267 0
M  V30 3826 C 359.083 2.73874 5.75562 0
M  V30 3827 C 356.77 2.05022 5.75682 0
M  V30 3828 C 357.768 2.92851 6.17031 0
M  V30 3829 O 357.456 3.98138 6.98385 0
M  V30 3830 H 357.188 0.0129324 0.675876 0
M  V30 3831 H 359.742 0.685238 1.93633 0
M  V30 3832 H 357.972 -1.17918 3.68283 0
M  V30 3833 H 359.661 -0.869419 3.96479 0
M  V30 3834 H 360.427 1.53086 4.60206 0
M  V30 3835 H 356.306 0.304646 4.59992 0
M  V30 3836 H 359.85 3.42458 6.07757 0
M  V30 3837 H 355.747 2.18993 6.07217 0
M  V30 3838 H 356.515 3.95374 7.16674 0
M  V30 3839 N 359.178 -1.55987 0.224894 0
M  V30 3840 C 360.403 -2.03232 -0.41369 0
M  V30 3841 C 360.828 -1.10359 -1.52323 0
M  V30 3842 O 360.186 -0.092395 -1.81064 0
M  V30 3843 C 360.234 -3.48682 -0.919405 0
M  V30 3844 O 359.338 -3.58947 -2.03054 0
M  V30 3845 H 358.679 -0.657428 -0.0931903 0
M  V30 3846 H 361.209 -2.01679 0.34451 0
M  V30 3847 H 361.219 -3.8907 -1.22835 0
M  V30 3848 H 359.894 -4.15761 -0.107339 0
M  V30 3849 H 358.471 -3.30448 -1.72796 0
M  V30 3850 N 360.656 0.0484629 -1.57525 0
M  V30 3851 C 361.884 0.755421 -1.92616 0
M  V30 3852 C 362.299 1.69919 -0.822984 0
M  V30 3853 O 361.656 1.81378 0.202085 0
M  V30 3854 C 361.707 1.52915 -3.27566 0
M  V30 3855 O 361.428 0.62329 -4.33644 0
M  V30 3856 C 362.929 2.33502 -3.76818 0
M  V30 3857 H 360.149 0.213465 -0.63614 0
M  V30 3858 H 362.693 0.0117698 -2.04497 0
M  V30 3859 H 360.848 2.22486 -3.17142 0
M  V30 3860 H 361.262 1.16383 -5.11425 0
M  V30 3861 H 362.736 2.83214 -4.73808 0
M  V30 3862 H 363.213 3.14068 -3.07014 0
M  V30 3863 H 363.819 1.69043 -3.90262 0
M  V30 3864 N 362.134 1.5431 0.320358 0
M  V30 3865 C 363.38 1.73859 1.05568 0
M  V30 3866 C 363.735 0.507807 1.85578 0
M  V30 3867 O 363.028 -0.499789 1.84967 0
M  V30 3868 C 363.222 2.95639 2.00828 0
M  V30 3869 C 363.051 4.30444 1.30186 0
M  V30 3870 C 361.821 4.94544 1.03703 0
M  V30 3871 C 364.019 5.0929 0.716138 0
M  V30 3872 N 362.001 6.13172 0.298846 0
M  V30 3873 C 363.372 6.19903 0.109729 0
M  V30 3874 C 365.427 4.94034 0.619269 0
M  V30 3875 C 364.13 7.16924 -0.584153 0
M  V30 3876 C 366.156 5.91369 -0.0609184 0
M  V30 3877 C 365.518 7.01336 -0.656258 0
M  V30 3878 H 361.617 0.688988 0.36989 0
M  V30 3879 H 364.201 1.9177 0.336494 0
M  V30 3880 H 362.372 2.79188 2.70016 0
M  V30 3881 H 364.104 3.03802 2.6737 0
M  V30 3882 H 360.859 4.54536 1.33019 0
M  V30 3883 H 361.283 6.76977 -0.0561964 0
M  V30 3884 H 365.925 4.0916 1.06526 0
M  V30 3885 H 363.643 8.01354 -1.04197 0
M  V30 3886 H 367.229 5.81642 -0.135552 0
M  V30 3887 H 366.109 7.75359 -1.17423 0
M  V30 3888 N 363.613 -0.582584 1.46437 0
M  V30 3889 C 364.56 -1.69164 1.5701 0
M  V30 3890 C 365.53 -1.60847 0.414403 0
M  V30 3891 O 366.715 -1.80058 0.631171 0
M  V30 3892 C 363.855 -3.075 1.56646 0
M  V30 3893 C 362.968 -3.2644 2.82951 0
M  V30 3894 C 362.103 -4.55026 2.7409 0
M  V30 3895 C 361.142 -4.6731 3.95333 0
M  V30 3896 N 360.279 -5.87221 3.84858 0
M  V30 3897 H 365.119 -1.59464 2.51744 0
M  V30 3898 H 362.656 -0.777186 1.24893 0
M  V30 3899 H 364.614 -3.8757 1.5442 0
M  V30 3900 H 363.244 -3.16096 0.654439 0
M  V30 3901 H 362.296 -2.39974 2.95155 0
M  V30 3902 H 363.608 -3.31385 3.72808 0
M  V30 3903 H 362.762 -5.43324 2.6997 0
M  V30 3904 H 361.501 -4.52519 1.81873 0
M  V30 3905 H 360.506 -3.77429 3.99784 0
M  V30 3906 H 361.731 -4.71595 4.88646 0
M  V30 3907 H 359.677 -5.85712 2.95427 0
M  V30 3908 H 359.594 -5.93435 4.6837 0
M  V30 3909 H 360.862 -6.7795 3.84713 0
M  V30 3910 N 365.091 -1.34144 -0.827227 0
M  V30 3911 C 366.507 -1.13732 -1.11969 0
M  V30 3912 C 366.707 0.0640463 -2.01398 0
M  V30 3913 O 365.763 0.740856 -2.41387 0
M  V30 3914 C 367.076 -2.43047 -1.77055 0
M  V30 3915 C 368.624 -2.49063 -1.89569 0
M  V30 3916 C 369.099 -3.78369 -2.58072 0
M  V30 3917 N 370.59 -3.79505 -2.65575 0
M  V30 3918 C 371.325 -4.76274 -3.19297 0
M  V30 3919 N 370.821 -5.83424 -3.73616 0
M  V30 3920 N 372.614 -4.63735 -3.17658 0
M  V30 3921 H 364.765 -2.11126 -0.232296 0
M  V30 3922 H 367.028 -0.933424 -0.165602 0
M  V30 3923 H 366.734 -3.31025 -1.18807 0
M  V30 3924 H 366.608 -2.56066 -2.76966 0
M  V30 3925 H 368.995 -1.61527 -2.46968 0
M  V30 3926 H 369.076 -2.39975 -0.885745 0
M  V30 3927 H 368.72 -4.66293 -2.01329 0
M  V30 3928 H 368.65 -3.84737 -3.59562 0
M  V30 3929 H 371.141 -3.02074 -2.27068 0
M  V30 3930 H 371.454 -6.53282 -4.12846 0
M  V30 3931 H 369.799 -5.87143 -3.71871 0
M  V30 3932 H 372.99 -3.79177 -2.74486 0
M  V30 3933 H 373.163 -5.39318 -3.59221 0
M  V30 3934 N 366.569 1.04691 -1.17803 0
M  V30 3935 C 367.479 2.16057 -0.914151 0
M  V30 3936 C 368.495 1.73589 0.119503 0
M  V30 3937 O 369.671 2.01308 -0.0609468 0
M  V30 3938 C 366.736 3.4394 -0.436603 0
M  V30 3939 C 365.797 4.00825 -1.53746 0
M  V30 3940 C 365.03 5.22604 -1.0826 0
M  V30 3941 O 365.253 5.70367 0.0612244 0
M  V30 3942 O 364.187 5.7186 -1.87775 0
M  V30 3943 H 368.013 2.41169 -1.84584 0
M  V30 3944 H 365.598 1.1453 -0.959334 0
M  V30 3945 H 367.48 4.21024 -0.178057 0
M  V30 3946 H 366.155 3.20316 0.466869 0
M  V30 3947 H 365.062 3.25158 -1.84995 0
M  V30 3948 H 366.395 4.28778 -2.41683 0
M  V30 3949 N 368.047 0.979072 1.23499 0
M  V30 3950 C 368.995 0.510604 2.26926 0
M  V30 3951 C 369.989 -0.431691 1.63807 0
M  V30 3952 O 371.195 -0.30573 1.77385 0
M  V30 3953 H 367.57 0.146688 0.737554 0
M  V30 3954 H 369.541 1.39466 2.63803 0
M  V30 3955 C 368.29 -0.172658 3.47271 0
M  V30 3956 H 367.613 0.543331 3.96091 0
M  V30 3957 H 369.053 -0.464101 4.21452 0
M  V30 3958 C 367.512 -1.40345 3.06276 0
M  V30 3959 O 368.042 -2.49978 3.14442 0
M  V30 3960 N 366.248 -1.27362 2.61203 0
M  V30 3961 H 365.795 -0.381584 2.54758 0
M  V30 3962 H 365.753 -2.09822 2.34141 0
M  V30 3963 N 369.525 -1.3858 0.750561 0
M  V30 3964 C 370.75 -2.04997 0.314812 0
M  V30 3965 C 371.175 -1.56235 -1.04749 0
M  V30 3966 O 370.533 -0.712981 -1.66692 0
M  V30 3967 C 370.581 -3.58961 0.343415 0
M  V30 3968 O 369.685 -4.07025 -0.663628 0
M  V30 3969 H 369.026 -0.649081 0.139962 0
M  V30 3970 H 371.556 -1.77313 1.02084 0
M  V30 3971 H 371.566 -4.07542 0.193233 0
M  V30 3972 H 370.241 -3.93811 1.33738 0
M  V30 3973 H 368.818 -3.6982 -0.478307 0
M  V30 3974 N 371.003 -0.499398 -1.49478 0
M  V30 3975 C 371.935 0.316575 -2.27003 0
M  V30 3976 C 372.948 0.932047 -1.33479 0
M  V30 3977 O 374.137 0.815658 -1.58774 0
M  V30 3978 C 371.237 1.46055 -3.05812 0
M  V30 3979 C 370.41 0.952679 -4.26899 0
M  V30 3980 C 369.469 1.97407 -4.87767 0
M  V30 3981 O 368.495 1.54326 -5.4788 0
M  V30 3982 N 369.697 3.30436 -4.77276 0
M  V30 3983 H 372.462 -0.348168 -2.97671 0
M  V30 3984 H 370.023 -0.33185 -1.58463 0
M  V30 3985 H 372.015 2.14135 -3.43407 0
M  V30 3986 H 370.585 2.02948 -2.37762 0
M  V30 3987 H 369.805 0.0968248 -3.94081 0
M  V30 3988 H 371.093 0.59174 -5.05347 0
M  V30 3989 H 370.491 3.68126 -4.29534 0
M  V30 3990 H 369.048 3.94235 -5.19059 0
M  V30 3991 N 372.481 1.55866 -0.233164 0
M  V30 3992 C 373.709 2.02998 0.399905 0
M  V30 3993 C 374.124 1.11274 1.52524 0
M  V30 3994 O 373.481 0.124528 1.82075 0
M  V30 3995 C 373.532 3.4958 0.920639 0
M  V30 3996 O 373.253 4.37808 -0.159834 0
M  V30 3997 C 374.754 4.12411 1.62578 0
M  V30 3998 H 371.974 0.664006 0.0966281 0
M  V30 3999 H 374.518 2.0143 -0.353013 0
M  V30 4000 H 372.673 3.51727 1.62379 0
M  V30 4001 H 373.087 5.23981 0.23337 0
M  V30 4002 H 374.561 5.16711 1.94201 0
M  V30 4003 H 375.038 3.5809 2.54299 0
M  V30 4004 H 375.644 4.14148 0.967553 0
M  V30 4005 N 373.959 -0.0401083 1.57549 0
M  V30 4006 C 374.906 -1.04413 2.05831 0
M  V30 4007 C 375.876 -1.36585 0.945184 0
M  V30 4008 O 377.061 -1.47112 1.21502 0
M  V30 4009 C 374.201 -2.34336 2.53339 0
M  V30 4010 C 373.314 -2.08419 3.78398 0
M  V30 4011 C 372.449 -3.32133 4.14561 0
M  V30 4012 C 371.488 -3.01721 5.3257 0
M  V30 4013 N 370.625 -4.17855 5.64218 0
M  V30 4014 H 375.465 -0.625442 2.91363 0
M  V30 4015 H 373.002 -0.297218 1.44066 0
M  V30 4016 H 374.96 -3.10234 2.78946 0
M  V30 4017 H 373.59 -2.73948 1.7074 0
M  V30 4018 H 372.642 -1.23069 3.59942 0
M  V30 4019 H 373.954 -1.81978 4.64419 0
M  V30 4020 H 373.108 -4.16406 4.41238 0
M  V30 4021 H 371.847 -3.61678 3.2717 0
M  V30 4022 H 370.852 -2.15849 5.05657 0
M  V30 4023 H 372.077 -2.73466 6.21605 0
M  V30 4024 H 370.023 -4.47372 4.79786 0
M  V30 4025 H 369.94 -3.94798 6.44725 0
M  V30 4026 H 371.208 -5.03033 5.95465 0
M  V30 4027 N 375.437 -1.54477 -0.31217 0
M  V30 4028 C 376.367 -1.87652 -1.38957 0
M  V30 4029 C 377.348 -0.734358 -1.53431 0
M  V30 4030 O 378.533 -0.98911 -1.67123 0
M  V30 4031 C 375.663 -2.11396 -2.75552 0
M  V30 4032 C 374.617 -3.27243 -2.75855 0
M  V30 4033 C 373.943 -3.36382 -4.15633 0
M  V30 4034 C 375.243 -4.64622 -2.38587 0
M  V30 4035 H 376.937 -2.77887 -1.11442 0
M  V30 4036 H 374.483 -1.33707 -0.534655 0
M  V30 4037 H 376.436 -2.33189 -3.51 0
M  V30 4038 H 375.16 -1.17921 -3.04569 0
M  V30 4039 H 373.819 -3.05356 -2.02863 0
M  V30 4040 H 373.467 -2.40445 -4.41809 0
M  V30 4041 H 373.167 -4.14249 -4.1674 0
M  V30 4042 H 374.691 -3.60422 -4.92877 0
M  V30 4043 H 376.105 -4.86219 -3.03749 0
M  V30 4044 H 374.502 -5.45121 -2.50925 0
M  V30 4045 H 375.572 -4.66097 -1.33723 0
M  V30 4046 N 376.915 0.57481 -1.46744 0
M  V30 4047 C 377.847 1.69804 -1.53946 0
M  V30 4048 C 378.86 1.57098 -0.427106 0
M  V30 4049 O 380.049 1.64378 -0.695863 0
M  V30 4050 C 377.149 3.08125 -1.4111 0
M  V30 4051 C 376.322 3.46757 -2.66605 0
M  V30 4052 C 375.381 4.6417 -2.47855 0
M  V30 4053 O 374.407 4.69634 -3.21609 0
M  V30 4054 N 375.609 5.59553 -1.54534 0
M  V30 4055 H 378.374 1.64077 -2.50796 0
M  V30 4056 H 375.935 0.761 -1.429 0
M  V30 4057 H 377.927 3.84478 -1.26328 0
M  V30 4058 H 376.497 3.08175 -0.524109 0
M  V30 4059 H 375.717 2.6003 -2.96274 0
M  V30 4060 H 377.005 3.69337 -3.49954 0
M  V30 4061 H 376.403 5.57881 -0.937304 0
M  V30 4062 H 374.96 6.35304 -1.45711 0
M  V30 4063 N 378.394 1.34581 0.820102 0
M  V30 4064 C 379.304 1.28471 1.96297 0
M  V30 4065 C 380.32 0.191902 1.72939 0
M  V30 4066 O 381.496 0.418879 1.96996 0
M  V30 4067 C 378.561 1.04281 3.30645 0
M  V30 4068 C 377.622 2.22745 3.66992 0
M  V30 4069 C 376.855 1.997 4.9493 0
M  V30 4070 O 377.078 0.956656 5.6232 0
M  V30 4071 O 376.012 2.86723 5.2922 0
M  V30 4072 H 379.838 2.24624 2.04396 0
M  V30 4073 H 377.423 1.14816 0.955913 0
M  V30 4074 H 379.305 0.925841 4.11104 0
M  V30 4075 H 377.98 0.111697 3.23507 0
M  V30 4076 H 376.887 2.40003 2.86966 0
M  V30 4077 H 378.22 3.14257 3.78819 0
M  V30 4078 N 379.872 -1.04064 1.18357 0
M  V30 4079 C 380.819 -2.12077 0.910603 0
M  V30 4080 C 381.789 -1.65421 -0.15 0
M  V30 4081 O 382.974 -1.90797 -0.0103614 0
M  V30 4082 C 380.114 -3.42252 0.442472 0
M  V30 4083 C 379.227 -4.0252 1.5685 0
M  V30 4084 C 378.362 -5.20657 1.05309 0
M  V30 4085 C 377.401 -5.72955 2.1538 0
M  V30 4086 N 376.538 -6.8238 1.65233 0
M  V30 4087 H 381.378 -2.34764 1.83548 0
M  V30 4088 H 378.915 -1.15157 0.915279 0
M  V30 4089 H 380.873 -4.16921 0.152534 0
M  V30 4090 H 379.503 -3.19712 -0.445428 0
M  V30 4091 H 378.555 -3.25178 1.97391 0
M  V30 4092 H 379.867 -4.37362 2.39824 0
M  V30 4093 H 379.021 -6.0244 0.717677 0
M  V30 4094 H 377.76 -4.87318 0.19293 0
M  V30 4095 H 376.765 -4.89793 2.49766 0
M  V30 4096 H 377.99 -6.08337 3.01832 0
M  V30 4097 H 375.936 -6.50917 0.815064 0
M  V30 4098 H 375.853 -7.16286 2.41805 0
M  V30 4099 H 377.121 -7.67788 1.34619 0
M  V30 4100 N 381.35 -0.985608 -1.22978 0
M  V30 4101 C 382.58 -0.674603 -1.95276 0
M  V30 4102 C 382.988 0.763483 -1.73111 0
M  V30 4103 O 382.331 1.52601 -1.02268 0
M  V30 4104 C 382.393 -0.891597 -3.48268 0
M  V30 4105 C 382.057 -2.31275 -3.94158 0
M  V30 4106 C 383.054 -3.29179 -4.02415 0
M  V30 4107 C 380.739 -2.64524 -4.27004 0
M  V30 4108 C 382.733 -4.58407 -4.42879 0
M  V30 4109 C 380.42 -3.93974 -4.67149 0
M  V30 4110 C 381.418 -4.90727 -4.75053 0
M  V30 4111 O 381.106 -6.17865 -5.14294 0
M  V30 4112 H 380.838 -0.249251 -0.628371 0
M  V30 4113 H 383.392 -1.32106 -1.5728 0
M  V30 4114 H 381.622 -0.187962 -3.86243 0
M  V30 4115 H 383.311 -0.576957 -4.01779 0
M  V30 4116 H 384.077 -3.04823 -3.77237 0
M  V30 4117 H 379.956 -1.89923 -4.2006 0
M  V30 4118 H 383.5 -5.33926 -4.48964 0
M  V30 4119 H 379.397 -4.18122 -4.91777 0
M  V30 4120 H 380.165 -6.21694 -5.32389 0
M  V30 4121 N 382.828 1.3818 -0.7579 0
M  V30 4122 C 383.776 2.32277 -0.122482 0
M  V30 4123 C 384.77 1.54238 0.700505 0
M  V30 4124 O 385.976 1.69737 0.599119 0
M  V30 4125 H 382.351 0.751712 -0.0208143 0
M  V30 4126 H 384.322 2.83469 -0.932099 0
M  V30 4127 C 383.071 3.39447 0.753076 0
M  V30 4128 H 382.394 3.99591 0.129184 0
M  V30 4129 H 383.834 4.07684 1.16489 0
M  V30 4130 C 382.293 2.78375 1.8976 0
M  V30 4131 O 382.823 2.68025 2.99208 0
M  V30 4132 N 381.029 2.36121 1.69397 0
M  V30 4133 H 380.576 2.4474 0.803762 0
M  V30 4134 H 380.534 1.95602 2.46145 0
M  V30 4135 N 384.306 0.507319 1.49211 0
M  V30 4136 C 385.531 -0.033725 2.07373 0
M  V30 4137 C 385.956 -1.29485 1.36437 0
M  V30 4138 O 385.314 -1.76294 0.423087 0
M  V30 4139 C 385.362 -0.263945 3.59633 0
M  V30 4140 O 384.466 -1.33737 3.90113 0
M  V30 4141 H 383.807 0.0290331 0.663365 0
M  V30 4142 H 386.337 0.708749 1.91932 0
M  V30 4143 H 386.347 -0.493536 4.05004 0
M  V30 4144 H 385.022 0.657424 4.10671 0
M  V30 4145 H 383.599 -1.09224 3.56545 0
M  V30 4146 N 385.784 -1.5574 0.241426 0
M  V30 4147 C 387.03 -1.99846 -0.378555 0
M  V30 4148 C 387.385 -1.12665 -1.55963 0
M  V30 4149 O 386.678 -0.180966 -1.90743 0
M  V30 4150 C 386.872 -3.47308 -0.843317 0
M  V30 4151 C 386.701 -4.48756 0.291178 0
M  V30 4152 C 385.471 -4.9949 0.764077 0
M  V30 4153 C 387.669 -5.02039 1.11631 0
M  V30 4154 N 385.651 -5.84676 1.87156 0
M  V30 4155 C 387.022 -5.84343 2.07226 0
M  V30 4156 C 389.077 -4.84354 1.15349 0
M  V30 4157 C 387.78 -6.50851 3.06245 0
M  V30 4158 C 389.806 -5.51636 2.13195 0
M  V30 4159 C 389.168 -6.33724 3.07528 0
M  V30 4160 H 385.267 -0.774968 -0.104634 0
M  V30 4161 H 387.851 -1.91385 0.357751 0
M  V30 4162 H 386.022 -3.56178 -1.54893 0
M  V30 4163 H 387.754 -3.78299 -1.43779 0
M  V30 4164 H 384.509 -4.72311 0.349175 0
M  V30 4165 H 384.933 -6.31967 2.42789 0
M  V30 4166 H 389.575 -4.20525 0.438057 0
M  V30 4167 H 387.293 -7.1385 3.78739 0
M  V30 4168 H 390.879 -5.39909 2.16771 0
M  V30 4169 H 389.759 -6.84867 3.82003 0
M  V30 4170 N 387.262 0.0317525 -1.57568 0
M  V30 4171 C 388.212 1.04101 -2.02847 0
M  V30 4172 C 389.196 1.3219 -0.917317 0
M  V30 4173 O 390.388 1.31819 -1.18121 0
M  V30 4174 C 387.517 2.34295 -2.5092 0
M  V30 4175 C 386.603 2.09308 -3.68851 0
M  V30 4176 N 386.994 1.5437 -4.81667 0
M  V30 4177 C 385.292 2.39604 -3.76172 0
M  V30 4178 C 385.993 1.45126 -5.63306 0
M  V30 4179 N 384.969 1.92589 -5.08341 0
M  V30 4180 H 388.771 0.610217 -2.87495 0
M  V30 4181 H 386.285 0.238108 -1.60645 0
M  V30 4182 H 388.282 3.07404 -2.81617 0
M  V30 4183 H 386.942 2.78055 -1.67677 0
M  V30 4184 H 387.953 1.22678 -5.03161 0
M  V30 4185 H 384.63 2.86457 -3.03724 0
M  V30 4186 H 386.02 1.03163 -6.63933 0
M  V30 4187 N 388.74 1.54641 0.303973 0
M  V30 4188 C 389.69 1.8177 1.37636 0
M  V30 4189 C 390.674 0.674697 1.46071 0
M  V30 4190 O 391.866 0.935251 1.50273 0
M  V30 4191 C 388.995 2.06584 2.74186 0
M  V30 4192 C 388.081 3.2706 2.69986 0
M  V30 4193 N 388.472 4.47682 2.35402 0
M  V30 4194 C 386.77 3.29028 3.01092 0
M  V30 4195 C 387.471 5.29689 2.40426 0
M  V30 4196 N 386.447 4.67339 2.7766 0
M  V30 4197 H 390.249 2.72596 1.09857 0
M  V30 4198 H 387.763 1.541 0.51254 0
M  V30 4199 H 389.76 2.24166 3.51504 0
M  V30 4200 H 388.42 1.17024 3.02879 0
M  V30 4201 H 389.431 4.74336 2.07908 0
M  V30 4202 H 386.108 2.49565 3.34699 0
M  V30 4203 H 387.498 6.3606 2.16512 0
M  V30 4204 N 390.218 -0.567019 1.47046 0
M  V30 4205 C 391.466 -1.322 1.52864 0
M  V30 4206 C 391.787 -1.94088 0.188388 0
M  V30 4207 O 391.057 -1.7941 -0.786693 0
M  V30 4208 H 389.637 -0.490894 0.563056 0
M  V30 4209 H 392.299 -0.662879 1.83281 0
M  V30 4210 H 391.395 -2.12062 2.2899 0
M  V30 4211 N 391.696 -1.35014 -0.812953 0
M  V30 4212 C 392.973 -1.18502 -1.55617 0
M  V30 4213 C 393.353 0.238421 -2.09749 0
M  V30 4214 O 392.701 1.2411 -1.91857 0
M  V30 4215 C 392.911 -2.24783 -2.66971 0
M  V30 4216 C 394.259 -2.60268 -3.35478 0
M  V30 4217 O 395.283 -2.23648 -2.77236 0
M  V30 4218 O 394.142 -3.2321 -4.40678 0
M  V30 4219 H 391.236 -0.459984 -0.687272 0
M  V30 4220 H 393.782 -1.46677 -0.853464 0
M  V30 4221 H 392.554 -3.20284 -2.24798 0
M  V30 4222 H 392.177 -1.97841 -3.44884 0
M  V30 4223 N 393.175 1.03435 -1.18907 0
M  V30 4224 C 394.422 1.76743 -0.988334 0
M  V30 4225 C 394.75 1.88447 0.481441 0
M  V30 4226 O 394.005 1.39383 1.37371 0
M  V30 4227 C 394.304 3.19792 -1.59586 0
M  V30 4228 C 393.97 3.28108 -3.09283 0
M  V30 4229 C 392.632 3.30084 -3.5014 0
M  V30 4230 C 394.984 3.27696 -4.05296 0
M  V30 4231 C 392.312 3.29299 -4.85571 0
M  V30 4232 C 394.664 3.28451 -5.4065 0
M  V30 4233 C 393.328 3.28723 -5.80946 0
M  V30 4234 H 392.598 0.64675 -0.361657 0
M  V30 4235 H 395.245 1.21442 -1.48068 0
M  V30 4236 H 393.55 3.78136 -1.02568 0
M  V30 4237 H 395.247 3.75171 -1.41589 0
M  V30 4238 H 391.837 3.27294 -2.76725 0
M  V30 4239 H 396.021 3.25354 -3.74778 0
M  V30 4240 H 391.277 3.2783 -5.16079 0
M  V30 4241 H 395.451 3.27082 -6.14809 0
M  V30 4242 H 393.078 3.27868 -6.85862 0
M  V30 4243 N 394.653 0.992116 1.22453 0
M  V30 4244 C 395.601 0.534644 2.26372 0
M  V30 4245 C 396.595 -0.414293 1.64256 0
M  V30 4246 O 397.801 -0.286899 1.77699 0
M  V30 4247 H 394.176 0.154502 0.735957 0
M  V30 4248 H 396.147 1.42256 2.62309 0
M  V30 4249 C 394.896 -0.135815 3.47435 0
M  V30 4250 H 394.219 0.585311 3.95492 0
M  V30 4251 H 395.659 -0.419374 4.21921 0
M  V30 4252 C 394.118 -1.37089 3.07747 0
M  V30 4253 O 394.648 -2.46629 3.17076 0
M  V30 4254 N 392.854 -1.24585 2.62539 0
M  V30 4255 H 392.401 -0.354542 2.55149 0
M  V30 4256 H 392.359 -2.07327 2.36353 0
M  V30 4257 N 396.131 -1.37776 0.765217 0
M  V30 4258 C 397.361 -2.03828 0.337277 0
M  V30 4259 C 397.769 -1.57841 -1.04321 0
M  V30 4260 O 397.112 -0.752043 -1.67601 0
M  V30 4261 C 397.174 -3.58292 0.294407 0
M  V30 4262 C 396.838 -4.27384 1.61838 0
M  V30 4263 C 397.835 -4.51956 2.56967 0
M  V30 4264 C 395.52 -4.65345 1.89102 0
M  V30 4265 C 397.514 -5.13536 3.77571 0
M  V30 4266 C 395.201 -5.26647 3.09978 0
M  V30 4267 C 396.199 -5.50679 4.04032 0
M  V30 4268 O 395.887 -6.10702 5.2278 0
M  V30 4269 H 395.619 -0.661292 0.140248 0
M  V30 4270 H 398.173 -1.77222 1.03834 0
M  V30 4271 H 396.403 -3.83918 -0.462983 0
M  V30 4272 H 398.092 -4.05763 -0.105581 0
M  V30 4273 H 398.858 -4.23048 2.37183 0
M  V30 4274 H 394.737 -4.45978 1.16725 0
M  V30 4275 H 398.281 -5.3221 4.50997 0
M  V30 4276 H 394.178 -5.54979 3.29649 0
M  V30 4277 H 394.946 -6.29183 5.23517 0
M  V30 4278 N 397.609 -0.515225 -1.4894 0
M  V30 4279 C 398.519 0.259774 -2.33157 0
M  V30 4280 C 399.535 0.953501 -1.45548 0
M  V30 4281 O 400.711 0.931735 -1.78552 0
M  V30 4282 C 397.776 1.30193 -3.21326 0
M  V30 4283 C 396.837 0.620129 -4.24797 0
M  V30 4284 C 396.07 1.61263 -5.08753 0
M  V30 4285 O 396.293 2.84389 -4.94448 0
M  V30 4286 O 395.227 1.16013 -5.90614 0
M  V30 4287 H 399.053 -0.429932 -3.00641 0
M  V30 4288 H 396.638 -0.276346 -1.46822 0
M  V30 4289 H 398.52 1.90455 -3.75905 0
M  V30 4290 H 397.195 1.97431 -2.56521 0
M  V30 4291 H 396.102 -0.0226019 -3.74093 0
M  V30 4292 H 397.435 -0.0100493 -4.92199 0
M  V30 4293 N 399.087 1.5561 -0.249682 0
M  V30 4294 C 400.503 1.59254 0.105103 0
M  V30 4295 C 400.703 1.26685 1.56694 0
M  V30 4296 O 399.759 1.0155 2.31179 0
M  V30 4297 C 401.072 2.99687 -0.246592 0
M  V30 4298 C 402.62 3.12416 -0.191118 0
M  V30 4299 C 403.095 4.55074 -0.516885 0
M  V30 4300 N 404.586 4.60835 -0.467489 0
M  V30 4301 C 405.321 5.69201 -0.69268 0
M  V30 4302 N 404.817 6.85817 -0.981146 0
M  V30 4303 N 406.61 5.58635 -0.623198 0
M  V30 4304 H 398.761 1.75049 -1.20298 0
M  V30 4305 H 401.024 0.815003 -0.484225 0
M  V30 4306 H 400.73 3.28267 -1.26228 0
M  V30 4307 H 400.604 3.74798 0.424962 0
M  V30 4308 H 402.991 2.83615 0.815247 0
M  V30 4309 H 403.072 2.39573 -0.896563 0
M  V30 4310 H 402.716 4.84596 -1.52082 0
M  V30 4311 H 402.646 5.26181 0.210068 0
M  V30 4312 H 405.137 3.7705 -0.253373 0
M  V30 4313 H 405.45 7.64341 -1.14032 0
M  V30 4314 H 403.795 6.87494 -1.01865 0
M  V30 4315 H 406.986 4.66406 -0.397863 0
M  V30 4316 H 407.159 6.43017 -0.802093 0
M  V30 4317 N 400.565 -0.0233959 1.57583 0
M  V30 4318 C 401.497 -1.04994 2.03737 0
M  V30 4319 C 402.51 -1.32125 0.951152 0
M  V30 4320 O 403.699 -1.29512 1.22837 0
M  V30 4321 C 400.799 -2.39026 2.40249 0
M  V30 4322 C 399.972 -2.31171 3.7132 0
M  V30 4323 C 399.031 -3.47698 3.94959 0
M  V30 4324 O 398.057 -3.26937 4.65941 0
M  V30 4325 N 399.259 -4.6976 3.41037 0
M  V30 4326 H 402.024 -0.656507 2.92421 0
M  V30 4327 H 399.585 -0.211235 1.60516 0
M  V30 4328 H 401.577 -3.15712 2.53196 0
M  V30 4329 H 400.147 -2.70194 1.57207 0
M  V30 4330 H 399.367 -1.39547 3.68674 0
M  V30 4331 H 400.655 -2.23071 4.57293 0
M  V30 4332 H 400.053 -4.89528 2.83512 0
M  V30 4333 H 398.61 -5.43791 3.59353 0
M  V30 4334 N 402.043 -1.548 -0.295768 0
M  V30 4335 C 403.006 -1.85363 -1.34808 0
M  V30 4336 C 404.006 -0.726817 -1.43436 0
M  V30 4337 O 405.196 -0.995088 -1.42981 0
M  V30 4338 C 402.328 -2.03859 -2.73229 0
M  V30 4339 H 403.521 -2.7941 -1.08949 0
M  V30 4340 H 401.074 -1.46942 -0.532702 0
M  V30 4341 H 401.809 -1.12117 -3.04303 0
M  V30 4342 H 401.594 -2.8588 -2.68356 0
M  V30 4343 H 403.084 -2.28857 -3.49305 0
M  V30 4344 N 403.521 0.559213 -1.47345 0
M  V30 4345 C 404.749 1.34194 -1.57479 0
M  V30 4346 C 405.164 1.87463 -0.224261 0
M  V30 4347 O 404.521 1.64888 0.782185 0
M  V30 4348 C 404.572 2.51324 -2.59843 0
M  V30 4349 O 404.293 2.00256 -3.89653 0
M  V30 4350 C 405.794 3.43563 -2.80142 0
M  V30 4351 H 403.014 0.409136 -0.531835 0
M  V30 4352 H 405.558 0.677609 -1.92947 0
M  V30 4353 H 403.713 3.13699 -2.27314 0
M  V30 4354 H 404.127 2.76708 -4.4557 0
M  V30 4355 H 405.601 4.2217 -3.55635 0
M  V30 4356 H 406.078 3.9698 -1.87892 0
M  V30 4357 H 406.684 2.87005 -3.1386 0
M  V30 4358 N 404.999 1.35443 0.805782 0
M  V30 4359 C 405.929 1.31095 1.93226 0
M  V30 4360 C 406.91 0.185244 1.69088 0
M  V30 4361 O 408.095 0.380332 1.90439 0
M  V30 4362 C 405.225 1.08299 3.29983 0
M  V30 4363 C 404.179 2.17519 3.68605 0
M  V30 4364 C 403.505 1.79887 5.03532 0
M  V30 4365 C 404.805 3.5949 3.78898 0
M  V30 4366 H 406.499 2.25352 1.97122 0
M  V30 4367 H 404.045 1.0848 0.946996 0
M  V30 4368 H 405.998 1.03897 4.08391 0
M  V30 4369 H 404.722 0.104885 3.26432 0
M  V30 4370 H 403.381 2.2102 2.92482 0
M  V30 4371 H 403.029 0.80693 4.96485 0
M  V30 4372 H 402.729 2.53001 5.30344 0
M  V30 4373 H 404.253 1.77011 5.84379 0
M  V30 4374 H 405.667 3.58307 4.47536 0
M  V30 4375 H 404.064 4.31371 4.1718 0
M  V30 4376 H 405.134 3.95584 2.80431 0
M  V30 4377 N 406.477 -1.02803 1.19454 0
M  V30 4378 C 407.705 -1.79841 1.02297 0
M  V30 4379 C 408.12 -1.83879 -0.428259 0
M  V30 4380 O 407.477 -1.28345 -1.29745 0
M  V30 4381 C 407.528 -3.24852 1.58598 0
M  V30 4382 O 407.249 -3.21097 2.98041 0
M  V30 4383 C 408.75 -4.18485 1.46236 0
M  V30 4384 H 405.97 -0.565936 0.360496 0
M  V30 4385 H 408.514 -1.2948 1.58288 0
M  V30 4386 H 406.669 -3.72401 1.06753 0
M  V30 4387 H 407.083 -4.12033 3.24545 0
M  V30 4388 H 408.557 -5.18121 1.90407 0
M  V30 4389 H 409.034 -4.37254 0.41301 0
M  V30 4390 H 409.64 -3.76811 1.97215 0
M  V30 4391 N 407.956 -0.998596 -1.21925 0
M  V30 4392 C 409.205 -0.673085 -1.90138 0
M  V30 4393 C 409.518 0.79895 -1.78539 0
M  V30 4394 O 410.724 1.23628 -2.4172 0
M  V30 4395 C 409.18 -1.15339 -3.40918 0
M  V30 4396 C 408.788 -2.65106 -3.61141 0
M  V30 4397 C 410.532 -0.902476 -4.14796 0
M  V30 4398 C 408.439 -3.0671 -5.05651 0
M  V30 4399 H 407.369 -0.248057 -0.712028 0
M  V30 4400 H 410.02 -1.20891 -1.38049 0
M  V30 4401 H 408.402 -0.545658 -3.92223 0
M  V30 4402 H 409.576 -3.31274 -3.20304 0
M  V30 4403 H 407.891 -2.88142 -3.00605 0
M  V30 4404 H 410.488 -1.18895 -5.21314 0
M  V30 4405 H 410.831 0.161349 -4.15987 0
M  V30 4406 H 411.364 -1.47269 -3.69536 0
M  V30 4407 H 408.103 -4.12292 -5.09603 0
M  V30 4408 H 407.623 -2.45249 -5.47369 0
M  V30 4409 H 409.302 -2.9833 -5.74115 0
M  V30 4410 N 409.434 1.37368 -0.772513 0
M  V30 4411 C 410.659 2.0447 -0.347386 0
M  V30 4412 C 411.084 1.57882 1.0225 0
M  V30 4413 O 410.442 0.73941 1.65537 0
M  V30 4414 C 410.49 3.58369 -0.400479 0
M  V30 4415 O 409.594 4.0803 0.598789 0
M  V30 4416 H 408.935 0.646773 -0.15027 0
M  V30 4417 H 411.465 1.75667 -1.04892 0
M  V30 4418 H 411.475 4.07183 -0.258045 0
M  V30 4419 H 410.15 3.91633 -1.39986 0
M  V30 4420 H 408.727 3.70534 0.419411 0
M  V30 4421 N 410.912 0.523116 1.48665 0
M  V30 4422 C 412.137 -0.0117284 2.07397 0
M  V30 4423 C 412.562 -1.28031 1.37803 0
M  V30 4424 O 411.92 -1.75836 0.441762 0
M  V30 4425 C 411.968 -0.225786 3.59892 0
M  V30 4426 O 411.072 -1.29592 3.91509 0
M  V30 4427 H 410.413 0.0360673 0.66302 0
M  V30 4428 H 412.943 0.729066 1.9117 0
M  V30 4429 H 412.953 -0.450552 4.05505 0
M  V30 4430 H 411.628 0.700944 4.09951 0
M  V30 4431 H 410.205 -1.05436 3.57684 0
M  V30 4432 N 412.39 -1.55475 0.257931 0
M  V30 4433 C 413.353 -2.20551 -0.623706 0
M  V30 4434 C 414.353 -1.17809 -1.09443 0
M  V30 4435 O 415.543 -1.42823 -0.997362 0
M  V30 4436 C 412.675 -2.85784 -1.8585 0
M  V30 4437 H 413.868 -2.99848 -0.0557743 0
M  V30 4438 H 411.421 -1.56298 0.0084422 0
M  V30 4439 H 412.156 -2.10453 -2.46739 0
M  V30 4440 H 411.941 -3.61057 -1.52907 0
M  V30 4441 H 413.431 -3.35553 -2.48584 0
M  V30 4442 N 413.868 0.0150385 -1.57593 0
M  V30 4443 C 415.284 0.370907 -1.5523 0
M  V30 4444 C 415.484 1.75735 -0.985882 0
M  V30 4445 O 414.54 2.44944 -0.613077 0
M  V30 4446 C 415.853 0.259908 -2.99575 0
M  V30 4447 C 417.401 0.335959 -3.11192 0
M  V30 4448 C 417.876 0.254253 -4.57294 0
M  V30 4449 N 419.367 0.312618 -4.62144 0
M  V30 4450 C 420.102 0.272505 -5.72752 0
M  V30 4451 N 419.598 0.183864 -6.92556 0
M  V30 4452 N 421.391 0.323267 -5.6117 0
M  V30 4453 H 413.542 -0.892104 -1.92757 0
M  V30 4454 H 415.805 -0.340563 -0.884715 0
M  V30 4455 H 415.511 -0.693403 -3.44797 0
M  V30 4456 H 415.385 1.048 -3.62349 0
M  V30 4457 H 417.772 1.27971 -2.65909 0
M  V30 4458 H 417.853 -0.481739 -2.51223 0
M  V30 4459 H 417.497 -0.685887 -5.03247 0
M  V30 4460 H 417.427 1.09024 -5.15191 0
M  V30 4461 H 419.918 0.38307 -3.75953 0
M  V30 4462 H 420.231 0.15874 -7.72637 0
M  V30 4463 H 418.576 0.149708 -6.94839 0
M  V30 4464 H 421.767 0.390607 -4.66467 0
M  V30 4465 H 421.94 0.288539 -6.47357 0
M  V30 4466 N 415.346 1.54954 0.287554 0
M  V30 4467 C 416.592 1.75132 1.02257 0
M  V30 4468 C 416.925 0.542858 1.86458 0
M  V30 4469 O 416.2 -0.459856 1.88986 0
M  V30 4470 C 416.483 3.04812 1.91733 0
M  V30 4471 C 416.336 4.35985 1.10622 0
M  V30 4472 C 417.655 3.30438 2.90687 0
M  V30 4473 H 414.774 0.637194 0.370341 0
M  V30 4474 H 417.416 1.87678 0.296111 0
M  V30 4475 H 415.566 2.94247 2.53675 0
M  V30 4476 H 417.238 4.58487 0.508636 0
M  V30 4477 H 415.481 4.31865 0.409271 0
M  V30 4478 H 416.152 5.23017 1.76513 0
M  V30 4479 H 418.628 3.40701 2.38877 0
M  V30 4480 H 417.504 4.22467 3.50447 0
M  V30 4481 H 417.765 2.49377 3.65053 0
M  V30 4482 N 416.824 -0.551391 1.4764 0
M  V30 4483 C 417.772 -1.67896 1.60978 0
M  V30 4484 C 418.766 -1.62549 0.476877 0
M  V30 4485 O 419.972 -1.67664 0.654878 0
M  V30 4486 H 416.347 -0.555649 0.506713 0
M  V30 4487 H 418.318 -1.53784 2.55721 0
M  V30 4488 C 417.067 -3.06234 1.64669 0
M  V30 4489 H 416.39 -3.11033 2.51194 0
M  V30 4490 H 417.83 -3.84804 1.7805 0
M  V30 4491 C 416.289 -3.34737 0.381115 0
M  V30 4492 O 416.819 -3.98381 -0.515297 0
M  V30 4493 N 415.025 -2.8944 0.259354 0
M  V30 4494 H 414.572 -2.37827 0.98976 0
M  V30 4495 H 414.53 -3.08882 -0.586464 0
M  V30 4496 N 418.302 -1.35869 -0.798587 0
M  V30 4497 C 419.579 -1.20145 -1.54352 0
M  V30 4498 C 419.959 0.216161 -2.0999 0
M  V30 4499 O 419.307 1.22068 -1.93162 0
M  V30 4500 C 419.517 -2.27602 -2.64572 0
M  V30 4501 C 420.865 -2.63811 -3.32699 0
M  V30 4502 O 421.889 -2.26576 -2.74849 0
M  V30 4503 O 420.748 -3.27866 -4.37226 0
M  V30 4504 H 417.842 -0.467248 -0.682355 0
M  V30 4505 H 420.388 -1.47574 -0.837859 0
M  V30 4506 H 419.16 -3.2265 -2.21388 0
M  V30 4507 H 418.783 -2.01488 -3.42766 0
M  V30 4508 N 419.78 1.02168 -1.19998 0
M  V30 4509 C 421.005 1.79833 -1.03319 0
M  V30 4510 C 421.43 1.83504 0.413281 0
M  V30 4511 O 420.788 1.26635 1.29743 0
M  V30 4512 C 420.836 3.22396 -1.61533 0
M  V30 4513 O 419.94 4.03555 -0.849519 0
M  V30 4514 H 419.281 0.554872 -0.364709 0
M  V30 4515 H 421.811 1.28542 -1.59179 0
M  V30 4516 H 421.821 3.73124 -1.65054 0
M  V30 4517 H 420.496 3.19039 -2.66809 0
M  V30 4518 H 419.073 3.62169 -0.888129 0
M  V30 4519 N 421.258 1.00505 1.21394 0
M  V30 4520 C 422.506 0.686415 1.90086 0
M  V30 4521 C 422.827 -0.785264 1.7849 0
M  V30 4522 O 422.097 -1.56387 1.17983 0
M  V30 4523 H 420.677 0.2509 0.703604 0
M  V30 4524 H 423.339 1.27417 1.47482 0
M  V30 4525 H 422.435 0.959621 2.96981 0
M  V30 4526 N 422.737 -1.36956 0.779787 0
M  V30 4527 C 423.983 -1.99787 0.348281 0
M  V30 4528 C 424.316 -1.61756 -1.07465 0
M  V30 4529 O 423.591 -0.867639 -1.74075 0
M  V30 4530 C 423.874 -3.56597 0.50104 0
M  V30 4531 C 423.727 -4.04513 1.96697 0
M  V30 4532 C 425.046 -4.40008 -0.0898097 0
M  V30 4533 H 422.165 -0.725796 0.128022 0
M  V30 4534 H 424.807 -1.62514 0.984331 0
M  V30 4535 H 422.957 -3.88479 -0.0404347 0
M  V30 4536 H 424.629 -3.83161 2.56876 0
M  V30 4537 H 422.872 -3.56408 2.47297 0
M  V30 4538 H 423.543 -5.1352 2.02486 0
M  V30 4539 H 426.019 -4.14431 0.372293 0
M  V30 4540 H 424.895 -5.4888 0.0471605 0
M  V30 4541 H 425.156 -4.26035 -1.18096 0
M  V30 4542 N 424.215 -0.530993 -1.48385 0
M  V30 4543 C 425.462 0.0027373 -2.025 0
M  V30 4544 C 425.79 1.34186 -1.40799 0
M  V30 4545 O 425.045 1.88 -0.543544 0
M  V30 4546 C 425.344 0.172742 -3.56982 0
M  V30 4547 C 425.01 -1.09215 -4.37473 0
M  V30 4548 C 423.672 -1.43881 -4.59186 0
M  V30 4549 C 426.024 -1.93153 -4.84088 0
M  V30 4550 C 423.352 -2.62381 -5.2476 0
M  V30 4551 C 425.704 -3.10833 -5.50968 0
M  V30 4552 C 424.368 -3.45843 -5.70919 0
M  V30 4553 H 423.638 0.00100165 -0.740999 0
M  V30 4554 H 426.285 -0.697219 -1.78357 0
M  V30 4555 H 424.59 0.955473 -3.79971 0
M  V30 4556 H 426.287 0.600642 -3.96476 0
M  V30 4557 H 422.877 -0.812177 -4.20834 0
M  V30 4558 H 427.061 -1.67683 -4.67115 0
M  V30 4559 H 422.317 -2.89707 -5.38405 0
M  V30 4560 H 426.491 -3.7618 -5.86056 0
M  V30 4561 H 424.118 -4.37764 -6.21503 0
M  V30 4562 N 425.693 1.55336 -0.266172 0
M  V30 4563 C 426.626 2.18256 0.666296 0
M  V30 4564 C 427.604 1.14064 1.1588 0
M  V30 4565 O 428.788 1.42546 1.23341 0
M  V30 4566 C 425.915 2.79867 1.90768 0
M  V30 4567 C 424.961 3.97283 1.55141 0
M  V30 4568 S 425.794 5.31694 0.637313 0
M  V30 4569 C 426.95 5.96769 1.88727 0
M  V30 4570 H 427.183 2.97008 0.131647 0
M  V30 4571 H 424.716 1.54317 -0.0504869 0
M  V30 4572 H 426.674 3.15996 2.62025 0
M  V30 4573 H 425.335 2.01025 2.41346 0
M  V30 4574 H 424.528 4.3905 2.4749 0
M  V30 4575 H 424.13 3.6253 0.919113 0
M  V30 4576 H 426.422 6.15458 2.83227 0
M  V30 4577 H 427.365 6.91752 1.51276 0
M  V30 4578 H 427.773 5.26034 2.04814 0
M  V30 4579 N 427.171 -0.0066808 1.57599 0
M  V30 4580 C 428.411 -0.697501 1.92131 0
M  V30 4581 C 428.775 -1.71306 0.867071 0
M  V30 4582 O 429.976 -2.45377 1.09743 0
M  V30 4583 C 428.247 -1.32978 3.3174 0
M  V30 4584 S 429.806 -2.04665 3.88146 0
M  V30 4585 H 426.624 -0.230555 0.672581 0
M  V30 4586 H 429.226 0.0484026 1.9544 0
M  V30 4587 H 427.93 -0.57772 4.06313 0
M  V30 4588 H 427.461 -2.11376 3.31789 0
M  V30 4589 H 429.476 -3.32097 3.68682 0
M  V30 4590 N 428.649 -1.55105 -0.279332 0
M  V30 4591 C 429.879 -1.7917 -1.02867 0
M  V30 4592 C 430.287 -0.56204 -1.80659 0
M  V30 4593 O 429.63 0.478266 -1.77365 0
M  V30 4594 C 429.692 -2.96061 -2.03932 0
M  V30 4595 C 429.356 -4.33341 -1.45137 0
M  V30 4596 C 430.353 -5.12565 -0.870266 0
M  V30 4597 C 428.038 -4.79987 -1.48048 0
M  V30 4598 C 430.032 -6.36565 -0.326097 0
M  V30 4599 C 427.719 -6.03944 -0.932443 0
M  V30 4600 C 428.717 -6.8207 -0.356247 0
M  V30 4601 O 428.405 -8.03691 0.183412 0
M  V30 4602 H 428.137 -0.600796 -0.309872 0
M  V30 4603 H 430.691 -2.02932 -0.317468 0
M  V30 4604 H 428.921 -2.67975 -2.78794 0
M  V30 4605 H 430.61 -3.07506 -2.64943 0
M  V30 4606 H 431.376 -4.77661 -0.840521 0
M  V30 4607 H 427.255 -4.1919 -1.91835 0
M  V30 4608 H 430.799 -6.97489 0.124286 0
M  V30 4609 H 426.696 -6.3833 -0.959407 0
M  V30 4610 H 427.464 -8.18468 0.0721681 0
M  V30 4611 N 430.127 0.543554 -1.4793 0
M  V30 4612 C 431.09 1.63156 -1.60975 0
M  V30 4613 C 432.09 1.53346 -0.483899 0
M  V30 4614 O 433.28 1.5726 -0.749339 0
M  V30 4615 C 430.412 3.02743 -1.56716 0
M  V30 4616 H 431.605 1.52934 -2.57975 0
M  V30 4617 H 429.158 0.764557 -1.36324 0
M  V30 4618 H 429.893 3.18484 -0.611418 0
M  V30 4619 H 429.678 3.11272 -2.38438 0
M  V30 4620 H 431.168 3.81871 -1.6901 0
M  V30 4621 N 431.605 1.3629 0.791371 0
M  V30 4622 C 432.553 1.30514 1.92533 0
M  V30 4623 C 433.547 0.197285 1.68247 0
M  V30 4624 O 434.753 0.364176 1.76278 0
M  V30 4625 H 431.128 0.406263 0.632815 0
M  V30 4626 H 433.099 2.26282 1.94523 0
M  V30 4627 C 431.848 1.10933 3.29529 0
M  V30 4628 H 431.171 1.95427 3.48781 0
M  V30 4629 H 432.611 1.10937 4.0923 0
M  V30 4630 C 431.07 -0.186123 3.36385 0
M  V30 4631 O 431.6 -1.17664 3.84081 0
M  V30 4632 N 429.806 -0.230128 2.89687 0
M  V30 4633 H 429.353 0.576545 2.51065 0
M  V30 4634 H 429.311 -1.09658 2.94657 0
M  V30 4635 N 433.083 -1.0153 1.20538 0
M  V30 4636 C 434.031 -2.12215 0.952235 0
M  V30 4637 C 435.025 -1.69123 -0.0968735 0
M  V30 4638 O 436.231 -1.7992 0.0536006 0
M  V30 4639 H 432.606 -0.693576 0.290613 0
M  V30 4640 H 434.577 -2.3075 1.89201 0
M  V30 4641 C 433.326 -3.43755 0.522287 0
M  V30 4642 H 432.649 -3.7734 1.32115 0
M  V30 4643 H 434.089 -4.22254 0.384389 0
M  V30 4644 C 432.548 -3.28088 -0.765489 0
M  V30 4645 O 433.078 -3.57921 -1.8236 0
M  V30 4646 N 431.284 -2.81333 -0.728011 0
M  V30 4647 H 430.831 -2.57255 0.133332 0
M  V30 4648 H 430.789 -2.71232 -1.58999 0
M  V30 4649 N 434.561 -1.01147 -1.20859 0
M  V30 4650 C 435.789 -0.716911 -1.94082 0
M  V30 4651 C 436.204 0.721568 -1.74467 0
M  V30 4652 O 435.561 1.48889 -1.05539 0
M  V30 4653 C 435.612 -1.03662 -3.46318 0
M  V30 4654 O 435.333 -2.4186 -3.65288 0
M  V30 4655 C 436.834 -0.762386 -4.36695 0
M  V30 4656 H 434.054 -0.26367 -0.617024 0
M  V30 4657 H 436.598 -1.35127 -1.53496 0
M  V30 4658 H 434.753 -0.447757 -3.84804 0
M  V30 4659 H 435.167 -2.53224 -4.59323 0
M  V30 4660 H 436.641 -1.03621 -5.42187 0
M  V30 4661 H 437.118 0.303514 -4.3815 0
M  V30 4662 H 437.724 -1.33316 -4.03865 0
M  V30 4663 N 436.039 1.36541 -0.78704 0
M  V30 4664 C 437.286 1.99304 -0.358341 0
M  V30 4665 C 437.614 1.62467 1.06933 0
M  V30 4666 O 436.869 0.870019 1.75297 0
M  V30 4667 C 437.168 3.54343 -0.466485 0
M  V30 4668 C 436.834 4.10993 -1.85461 0
M  V30 4669 C 435.496 4.26177 -2.23443 0
M  V30 4670 C 437.848 4.41895 -2.76366 0
M  V30 4671 C 435.176 4.69573 -3.51736 0
M  V30 4672 C 437.528 4.86722 -4.04084 0
M  V30 4673 C 436.192 5.00112 -4.42091 0
M  V30 4674 H 435.462 0.729306 -0.131126 0
M  V30 4675 H 438.109 1.63068 -1.00404 0
M  V30 4676 H 436.414 3.90918 0.262719 0
M  V30 4677 H 438.111 4.00833 -0.115854 0
M  V30 4678 H 434.701 3.99612 -1.54946 0
M  V30 4679 H 438.885 4.29735 -2.48277 0
M  V30 4680 H 434.141 4.78127 -3.81057 0
M  V30 4681 H 438.315 5.09598 -4.7464 0
M  V30 4682 H 435.942 5.33498 -5.41557 0
M  V30 4683 N 437.518 0.538854 1.48102 0
M  V30 4684 C 438.766 0.00798599 2.02098 0
M  V30 4685 C 439.087 -1.33922 1.41739 0
M  V30 4686 O 438.357 -1.86932 0.585934 0
M  V30 4687 H 436.937 -3.62179e-05 0.747 0
M  V30 4688 H 439.599 0.7047 1.81714 0
M  V30 4689 H 438.695 -0.0937672 3.11959 0
M  V30 4690 N 438.996 -1.55193 0.274407 0
M  V30 4691 C 440.221 -2.04446 -0.348824 0
M  V30 4692 C 440.646 -1.15149 -1.48735 0
M  V30 4693 O 440.004 -0.149952 -1.80679 0
M  V30 4694 C 440.052 -3.51431 -0.808009 0
M  V30 4695 O 439.156 -3.65225 -1.91531 0
M  V30 4696 H 438.497 -0.66006 -0.0722276 0
M  V30 4697 H 441.027 -2.00481 0.408498 0
M  V30 4698 H 441.037 -3.92781 -1.10395 0
M  V30 4699 H 439.712 -4.15892 0.0249865 0
M  V30 4700 H 438.289 -3.35778 -1.62196 0
M  V30 4701 N 440.474 -0.00167713 -1.576 0
M  V30 4702 C 441.437 0.974046 -2.07473 0
M  V30 4703 C 442.437 1.27143 -0.984444 0
M  V30 4704 O 443.627 1.21633 -1.24703 0
M  V30 4705 C 440.759 2.29849 -2.51759 0
M  V30 4706 H 441.952 0.54262 -2.9495 0
M  V30 4707 H 439.505 0.245829 -1.54355 0
M  V30 4708 H 440.24 2.77677 -1.67529 0
M  V30 4709 H 440.025 2.09584 -3.31386 0
M  V30 4710 H 441.515 2.9984 -2.90664 0
M  V30 4711 N 441.952 1.55251 0.271103 0
M  V30 4712 C 442.9 1.89054 1.35504 0
M  V30 4713 C 443.894 0.767064 1.51038 0
M  V30 4714 O 445.1 0.951429 1.528 0
M  V30 4715 H 441.475 0.600072 0.45323 0
M  V30 4716 H 443.446 2.79598 1.04247 0
M  V30 4717 C 442.195 2.18068 2.70817 0
M  V30 4718 H 441.518 3.04005 2.59656 0
M  V30 4719 H 442.958 2.4564 3.45597 0
M  V30 4720 C 441.417 0.988901 3.2206 0
M  V30 4721 O 441.947 0.224501 4.01072 0
M  V30 4722 N 440.153 0.786085 2.79766 0
M  V30 4723 H 439.7 1.40937 2.15626 0
M  V30 4724 H 439.658 -0.00969349 3.14399 0
M  V30 4725 N 443.43 -0.535701 1.48216 0
M  V30 4726 C 444.676 -1.29375 1.56173 0
M  V30 4727 C 445.009 -1.92804 0.232429 0
M  V30 4728 O 444.284 -1.78992 -0.761048 0
M  V30 4729 C 444.567 -2.38747 2.69577 0
M  V30 4730 C 444.42 -1.80046 4.12193 0
M  V30 4731 C 445.739 -3.40551 2.78771 0
M  V30 4732 H 442.858 -0.469027 0.568491 0
M  V30 4733 H 445.5 -0.597358 1.80365 0
M  V30 4734 H 443.65 -2.98147 2.4908 0
M  V30 4735 H 445.322 -1.24742 4.44114 0
M  V30 4736 H 443.565 -1.10609 4.19462 0
M  V30 4737 H 444.236 -2.59212 4.87353 0
M  V30 4738 H 446.712 -2.91099 2.97322 0
M  V30 4739 H 445.588 -4.1448 3.59857 0
M  V30 4740 H 445.849 -4.00746 1.86696 0
M  V30 4741 N 444.908 -1.36708 -0.784132 0
M  V30 4742 C 446.136 -1.34398 -1.57305 0
M  V30 4743 C 446.551 0.0735577 -1.88657 0
M  V30 4744 O 445.908 1.03193 -1.50524 0
M  V30 4745 C 445.959 -2.17053 -2.89085 0
M  V30 4746 O 445.68 -3.53281 -2.59083 0
M  V30 4747 C 447.181 -2.22583 -3.83369 0
M  V30 4748 H 444.401 -0.460819 -0.487736 0
M  V30 4749 H 446.945 -1.79879 -0.972819 0
M  V30 4750 H 445.1 -1.75113 -3.45564 0
M  V30 4751 H 445.514 -3.9647 -3.43383 0
M  V30 4752 H 446.988 -2.84763 -4.72878 0
M  V30 4753 H 447.465 -1.23075 -4.21603 0
M  V30 4754 H 448.071 -2.64781 -3.32823 0
M  V30 4755 N 446.386 1.0089 -1.21074 0
M  V30 4756 C 447.614 1.78191 -1.05145 0
M  V30 4757 C 448.029 1.84537 0.398952 0
M  V30 4758 O 447.386 1.30393 1.27687 0
M  V30 4759 C 447.437 3.22288 -1.63746 0
M  V30 4760 O 447.158 3.16315 -3.03111 0
M  V30 4761 C 448.659 4.16106 -1.52875 0
M  V30 4762 H 445.879 0.560129 -0.369454 0
M  V30 4763 H 448.423 1.26945 -1.60328 0
M  V30 4764 H 446.578 3.70655 -1.12664 0
M  V30 4765 H 446.992 4.06817 -3.31059 0
M  V30 4766 H 448.466 5.15026 -1.98626 0
M  V30 4767 H 448.943 4.36541 -0.482521 0
M  V30 4768 H 449.549 3.73625 -2.03185 0
M  V30 4769 N 447.864 1.01787 1.20321 0
M  V30 4770 C 449.092 0.727194 1.937 0
M  V30 4771 C 449.507 -0.712305 1.74848 0
M  V30 4772 O 448.864 -1.48327 1.06327 0
M  V30 4773 C 448.915 1.05497 3.45764 0
M  V30 4774 O 448.636 2.43794 3.64 0
M  V30 4775 C 450.137 0.785534 4.36285 0
M  V30 4776 H 447.357 0.266939 0.615617 0
M  V30 4777 H 449.901 1.35939 1.52777 0
M  V30 4778 H 448.056 0.468158 3.84561 0
M  V30 4779 H 448.47 2.55656 4.57974 0
M  V30 4780 H 449.944 1.06495 5.4163 0
M  V30 4781 H 450.421 -0.280273 4.38305 0
M  V30 4782 H 451.027 1.35456 4.03152 0
M  V30 4783 N 449.342 -1.36122 0.79427 0
M  V30 4784 C 450.272 -2.32551 0.210328 0
M  V30 4785 C 451.253 -1.56884 -0.657386 0
M  V30 4786 O 452.438 -1.85014 -0.590207 0
M  V30 4787 C 449.568 -3.41128 -0.651819 0
M  V30 4788 C 448.522 -4.27842 0.116395 0
M  V30 4789 C 447.848 -5.2763 -0.86666 0
M  V30 4790 C 449.148 -5.05647 1.30837 0
M  V30 4791 H 450.842 -2.81636 1.01594 0
M  V30 4792 H 448.388 -1.35407 0.489981 0
M  V30 4793 H 450.341 -4.07581 -1.07031 0
M  V30 4794 H 449.065 -2.90622 -1.49019 0
M  V30 4795 H 447.724 -3.62952 0.515915 0
M  V30 4796 H 447.372 -4.73395 -1.70019 0
M  V30 4797 H 447.072 -5.86514 -0.35705 0
M  V30 4798 H 448.596 -5.96955 -1.28361 0
M  V30 4799 H 450.01 -5.65113 0.965393 0
M  V30 4800 H 448.407 -5.73967 1.75161 0
M  V30 4801 H 449.477 -4.37006 2.10128 0
M  V30 4802 N 450.82 -0.546701 -1.47814 0
M  V30 4803 C 451.73 0.21026 -2.33656 0
M  V30 4804 C 452.746 0.922413 -1.47538 0
M  V30 4805 O 453.922 0.893652 -1.80488 0
M  V30 4806 C 450.987 1.23348 -3.24016 0
M  V30 4807 C 450.048 0.529883 -4.26017 0
M  V30 4808 C 449.281 1.50435 -5.12059 0
M  V30 4809 O 449.504 2.73837 -5.00369 0
M  V30 4810 O 448.438 1.03459 -5.92942 0
M  V30 4811 H 452.264 -0.493605 -2.99662 0
M  V30 4812 H 449.849 -0.307427 -1.46203 0
M  V30 4813 H 451.731 1.82438 -3.79861 0
M  V30 4814 H 450.406 1.91945 -2.60651 0
M  V30 4815 H 449.313 -0.101948 -3.73961 0
M  V30 4816 H 450.646 -0.11445 -4.92067 0
M  V30 4817 N 452.299 1.55045 -0.282633 0
M  V30 4818 C 453.545 2.00056 0.332481 0
M  V30 4819 C 453.878 1.1708 1.54939 0
M  V30 4820 O 453.153 0.2427 1.9298 0
M  V30 4821 C 453.436 3.53086 0.70725 0
M  V30 4822 C 453.289 4.46813 -0.517521 0
M  V30 4823 C 454.608 4.12245 1.54084 0
M  V30 4824 H 451.727 0.727268 0.119373 0
M  V30 4825 H 454.369 1.85932 -0.391076 0
M  V30 4826 H 452.519 3.65253 1.32372 0
M  V30 4827 H 454.191 4.46579 -1.15607 0
M  V30 4828 H 452.434 4.18163 -1.1542 0
M  V30 4829 H 453.105 5.51595 -0.211426 0
M  V30 4830 H 455.581 4.03401 1.02013 0
M  V30 4831 H 454.457 5.19515 1.77186 0
M  V30 4832 H 454.718 3.62951 2.52427 0
M  V30 4833 N 453.777 0.010035 1.57597 0
M  V30 4834 C 455.023 -0.673697 1.91283 0
M  V30 4835 C 455.356 -1.72863 0.884979 0
M  V30 4836 O 454.631 -1.94268 -0.0949487 0
M  V30 4837 C 454.914 -1.30766 3.35518 0
M  V30 4838 C 454.767 -0.263578 4.49027 0
M  V30 4839 C 456.086 -2.23105 3.79358 0
M  V30 4840 H 453.205 -0.243439 0.695634 0
M  V30 4841 H 455.847 0.0633864 1.89894 0
M  V30 4842 H 453.997 -1.93588 3.36832 0
M  V30 4843 H 455.669 0.365738 4.59848 0
M  V30 4844 H 453.912 0.413077 4.31829 0
M  V30 4845 H 454.583 -0.746398 5.4693 0
M  V30 4846 H 457.059 -1.70289 3.79659 0
M  V30 4847 H 455.935 -2.64424 4.81011 0
M  V30 4848 H 456.196 -3.11433 3.13787 0
M  V30 4849 N 455.255 -1.55392 -0.262866 0
M  V30 4850 C 456.532 -1.67204 -1.01499 0
M  V30 4851 C 456.912 -0.545186 -2.03939 0
M  V30 4852 O 456.26 0.453467 -2.23955 0
M  V30 4853 C 456.47 -3.06847 -1.6627 0
M  V30 4854 C 457.818 -3.64928 -2.17054 0
M  V30 4855 O 458.842 -3.09545 -1.76239 0
M  V30 4856 O 457.701 -4.61984 -2.91947 0
M  V30 4857 H 454.795 -0.679467 -0.471438 0
M  V30 4858 H 457.341 -1.67729 -0.257918 0
M  V30 4859 H 456.113 -3.80309 -0.920915 0
M  V30 4860 H 455.736 -3.10266 -2.48638 0
M  V30 4861 N 456.733 0.527833 -1.48498 0
M  V30 4862 C 457.68 1.6322 -1.6318 0
M  V30 4863 C 458.65 1.59199 -0.473815 0
M  V30 4864 O 459.835 1.77591 -0.697563 0
M  V30 4865 C 456.975 3.01474 -1.67951 0
M  V30 4866 C 456.088 3.15713 -2.94871 0
M  V30 4867 C 455.223 4.44539 -2.90789 0
M  V30 4868 C 454.262 4.52315 -4.12404 0
M  V30 4869 N 453.399 5.72533 -4.06387 0
M  V30 4870 H 458.239 1.50011 -2.57489 0
M  V30 4871 H 455.776 0.730298 -1.27691 0
M  V30 4872 H 457.734 3.81572 -1.68698 0
M  V30 4873 H 456.364 3.1345 -0.771306 0
M  V30 4874 H 455.416 2.28854 -3.03859 0
M  V30 4875 H 456.728 3.1732 -3.8485 0
M  V30 4876 H 455.882 5.3293 -2.89949 0
M  V30 4877 H 454.621 4.45457 -1.98542 0
M  V30 4878 H 453.626 3.62331 -4.13517 0
M  V30 4879 H 454.851 4.53134 -5.05812 0
M  V30 4880 H 452.797 5.74344 -3.16962 0
M  V30 4881 H 452.714 5.75643 -4.90073 0
M  V30 4882 H 453.982 6.63204 -4.0961 0
M  V30 4883 N 458.211 1.37122 0.776871 0
M  V30 4884 C 459.459 1.31787 1.53221 0
M  V30 4885 C 459.78 -0.0987589 1.9475 0
M  V30 4886 O 459.05 -1.0417 1.65908 0
M  V30 4887 H 457.63 0.484839 0.568278 0
M  V30 4888 H 460.292 1.71556 0.924917 0
M  V30 4889 H 459.388 1.95355 2.43398 0
M  V30 4890 N 459.689 -1.00246 1.21608 0
M  V30 4891 C 460.936 -1.74061 1.03485 0
M  V30 4892 C 461.264 -1.89658 -0.431308 0
M  V30 4893 O 460.519 -1.42976 -1.33627 0
M  V30 4894 C 460.818 -3.15448 1.68009 0
M  V30 4895 C 460.484 -3.19792 3.17874 0
M  V30 4896 C 459.146 -3.20685 3.58768 0
M  V30 4897 C 461.498 -3.16835 4.13842 0
M  V30 4898 C 458.826 -3.16309 4.94131 0
M  V30 4899 C 461.178 -3.14001 5.49169 0
M  V30 4900 C 459.842 -3.13204 5.89457 0
M  V30 4901 H 459.112 -0.636934 0.378677 0
M  V30 4902 H 461.759 -1.17473 1.51236 0
M  V30 4903 H 460.064 -3.75284 1.12557 0
M  V30 4904 H 461.761 -3.71285 1.51487 0
M  V30 4905 H 458.351 -3.19842 2.85305 0
M  V30 4906 H 462.535 -3.15303 3.83272 0
M  V30 4907 H 457.791 -3.14032 5.24589 0
M  V30 4908 H 461.965 -3.10667 6.23265 0
M  V30 4909 H 459.592 -3.09568 6.94314 0
M  V30 4910 N 461.167 -1.02423 -1.1978 0
M  V30 4911 C 462.416 -0.713265 -1.88667 0
M  V30 4912 C 462.729 0.7609 -1.80193 0
M  V30 4913 O 463.935 1.18473 -2.44288 0
M  V30 4914 C 462.391 -1.22545 -3.38394 0
M  V30 4915 C 461.999 -2.72706 -3.55437 0
M  V30 4916 C 463.743 -0.990257 -4.12788 0
M  V30 4917 C 461.65 -3.17367 -4.99031 0
M  V30 4918 H 460.58 -0.263105 -0.706606 0
M  V30 4919 H 463.231 -1.23792 -1.35454 0
M  V30 4920 H 461.613 -0.628732 -3.90977 0
M  V30 4921 H 462.787 -3.37993 -3.13205 0
M  V30 4922 H 461.102 -2.94453 -2.94425 0
M  V30 4923 H 463.699 -1.29926 -5.18675 0
M  V30 4924 H 464.042 0.0730761 -4.16236 0
M  V30 4925 H 464.575 -1.55074 -3.66329 0
M  V30 4926 H 461.314 -4.23009 -5.00743 0
M  V30 4927 H 460.834 -2.56805 -5.42044 0
M  V30 4928 H 462.513 -3.10441 -5.67658 0
M  V30 4929 N 462.645 1.35699 -0.801477 0
M  V30 4930 C 463.593 2.3177 -0.196317 0
M  V30 4931 C 464.587 1.56388 0.651081 0
M  V30 4932 O 465.793 1.71557 0.544815 0
M  V30 4933 H 462.168 0.750669 -0.0447189 0
M  V30 4934 H 464.139 2.8036 -1.02181 0
M  V30 4935 C 462.888 3.41671 0.644702 0
M  V30 4936 H 462.211 3.998 0.0019921 0
M  V30 4937 H 463.651 4.11184 1.0346 0
M  V30 4938 C 462.11 2.84271 1.80808 0
M  V30 4939 O 462.64 2.77408 2.9053 0
M  V30 4940 N 460.846 2.41391 1.61799 0
M  V30 4941 H 460.393 2.47173 0.725493 0
M  V30 4942 H 460.351 2.03334 2.39797 0
M  V30 4943 N 464.123 0.554532 1.47522 0
M  V30 4944 C 465.372 0.0273458 2.01681 0
M  V30 4945 C 465.685 -1.32962 1.43459 0
M  V30 4946 O 466.891 -1.94657 1.89265 0
M  V30 4947 C 465.347 -0.00159057 3.599 0
M  V30 4948 C 464.955 1.35197 4.27113 0
M  V30 4949 C 466.699 -0.476311 4.21819 0
M  V30 4950 C 464.606 1.28229 5.77331 0
M  V30 4951 H 463.536 0.00645269 0.753972 0
M  V30 4952 H 466.187 0.701985 1.69542 0
M  V30 4953 H 464.569 -0.741821 3.8899 0
M  V30 4954 H 465.743 2.1097 4.09668 0
M  V30 4955 H 464.058 1.76441 3.77171 0
M  V30 4956 H 466.655 -0.5468 5.31897 0
M  V30 4957 H 466.998 -1.4877 3.8881 0
M  V30 4958 H 467.531 0.20898 3.97251 0
M  V30 4959 H 464.27 2.26959 6.14955 0
M  V30 4960 H 463.79 0.566314 5.97121 0
M  V30 4961 H 465.469 0.983226 6.39485 0
M  V30 4962 N 465.601 -1.54893 0.290851 0
M  V30 4963 C 466.848 -1.99933 -0.321391 0
M  V30 4964 C 467.176 -1.17927 -1.54672 0
M  V30 4965 O 466.431 -0.240902 -1.94212 0
M  V30 4966 C 466.73 -3.49815 -0.732397 0
M  V30 4967 C 466.396 -4.4921 0.390056 0
M  V30 4968 C 465.058 -4.76107 0.698223 0
M  V30 4969 C 467.41 -5.08453 1.14562 0
M  V30 4970 C 464.738 -5.59514 1.76526 0
M  V30 4971 C 467.09 -5.9302 2.2025 0
M  V30 4972 C 465.754 -6.18232 2.51684 0
M  V30 4973 H 465.024 -0.731608 -0.117605 0
M  V30 4974 H 467.671 -1.87107 0.407839 0
M  V30 4975 H 465.976 -3.60199 -1.54155 0
M  V30 4976 H 467.673 -3.82083 -1.21712 0
M  V30 4977 H 464.263 -4.28372 0.13976 0
M  V30 4978 H 468.447 -4.87683 0.920801 0
M  V30 4979 H 463.703 -5.77289 2.01364 0
M  V30 4980 H 467.877 -6.37955 2.7926 0
M  V30 4981 H 465.504 -6.82653 3.34499 0
M  V30 4982 N 467.08 -0.0183926 -1.57589 0
M  V30 4983 C 468.491 0.521927 -1.79256 0
M  V30 4984 C 468.842 1.72885 -0.927636 0
M  V30 4985 O 467.967 2.15978 -0.135091 0
M  V30 4986 C 468.562 0.953632 -3.25102 0
M  V30 4987 C 467.121 1.43913 -3.47801 0
M  V30 4988 C 466.268 0.398837 -2.74417 0
M  V30 4989 H 469.219 -0.244485 -1.56805 0
M  V30 4990 H 469.24 1.81863 -3.34224 0
M  V30 4991 H 468.752 0.0750123 -3.88028 0
M  V30 4992 H 466.853 2.33804 -2.90115 0
M  V30 4993 H 466.966 1.45391 -4.56507 0
M  V30 4994 H 465.33 0.864572 -2.39577 0
M  V30 4995 H 466.113 -0.471132 -3.40052 0
M  V30 4996 N 468.558 1.5553 0.254621 0
M  V30 4997 C 469.491 1.84624 1.34124 0
M  V30 4998 C 470.469 0.700693 1.46728 0
M  V30 4999 O 471.653 0.94564 1.63064 0
M  V30 5000 C 468.78 2.02412 2.71564 0
M  V30 5001 C 467.826 3.25028 2.7615 0
M  V30 5002 S 468.659 4.81893 2.33538 0
M  V30 5003 C 469.815 5.02677 3.72917 0
M  V30 5004 H 470.048 2.76501 1.09245 0
M  V30 5005 H 467.581 1.47537 0.455211 0
M  V30 5006 H 469.539 2.13345 3.50705 0
M  V30 5007 H 468.2 1.11391 2.93685 0
M  V30 5008 H 467.393 3.34418 3.77069 0
M  V30 5009 H 466.995 3.12781 2.05046 0
M  V30 5010 H 469.287 4.89546 4.68349 0
M  V30 5011 H 470.23 6.0468 3.68467 0
M  V30 5012 H 470.638 4.30561 3.65072 0
M  V30 5013 N 470.036 -0.519951 1.48776 0
M  V30 5014 C 471.285 -1.27175 1.56555 0
M  V30 5015 C 471.598 -1.9401 0.248869 0
M  V30 5016 O 472.804 -2.70725 0.205004 0
M  V30 5017 C 471.26 -2.30811 2.76142 0
M  V30 5018 C 470.868 -1.7 4.14493 0
M  V30 5019 C 472.612 -3.06937 2.9324 0
M  V30 5020 C 470.519 -2.71635 5.25327 0
M  V30 5021 H 469.449 -0.478329 0.582853 0
M  V30 5022 H 472.1 -0.547916 1.75129 0
M  V30 5023 H 470.482 -3.06274 2.51023 0
M  V30 5024 H 471.656 -1.00658 4.49672 0
M  V30 5025 H 469.971 -1.06331 4.02595 0
M  V30 5026 H 472.568 -3.82905 3.73213 0
M  V30 5027 H 472.911 -3.63409 2.03075 0
M  V30 5028 H 473.444 -2.38589 3.18308 0
M  V30 5029 H 470.183 -2.1997 6.1749 0
M  V30 5030 H 469.703 -3.39275 4.94624 0
M  V30 5031 H 471.382 -3.34429 5.53865 0
M  V30 5032 N 471.514 -1.37532 -0.769588 0
M  V30 5033 C 472.462 -1.33561 -1.90432 0
M  V30 5034 C 473.456 -0.224027 -1.67912 0
M  V30 5035 O 474.662 -0.392174 -1.75676 0
M  V30 5036 H 471.037 -0.416279 -0.626271 0
M  V30 5037 H 473.008 -2.29348 -1.90899 0
M  V30 5038 C 471.757 -1.16162 -3.27722 0
M  V30 5039 H 471.08 -2.00951 -3.45628 0
M  V30 5040 H 472.52 -1.17434 -4.07413 0
M  V30 5041 C 470.979 0.132583 -3.36639 0
M  V30 5042 O 471.509 1.11539 -3.85904 0
M  V30 5043 N 469.715 0.184013 -2.90017 0
M  V30 5044 H 469.262 -0.616415 -2.50116 0
M  V30 5045 H 469.22 1.04956 -2.96364 0
M  V30 5046 N 472.992 0.995999 -1.22138 0
M  V30 5047 C 474.22 1.77066 -1.07029 0
M  V30 5048 C 474.635 1.8495 0.379357 0
M  V30 5049 O 473.992 1.3174 1.26297 0
M  V30 5050 C 474.043 3.20533 -1.67155 0
M  V30 5051 O 473.764 3.13082 -3.06449 0
M  V30 5052 C 475.265 4.14461 -1.5728 0
M  V30 5053 H 472.485 0.556179 -0.375374 0
M  V30 5054 H 475.029 1.25238 -1.61666 0
M  V30 5055 H 473.184 3.6944 -1.16589 0
M  V30 5056 H 473.598 4.03283 -3.35355 0
M  V30 5057 H 475.072 5.1289 -2.04078 0
M  V30 5058 H 475.549 4.36005 -0.528795 0
M  V30 5059 H 476.155 3.71449 -2.07136 0
M  V30 5060 N 474.47 1.03057 1.19235 0
M  V30 5061 C 475.698 0.747697 1.92917 0
M  V30 5062 C 476.113 -0.69372 1.75593 0
M  V30 5063 O 475.47 -1.47191 1.07894 0
M  V30 5064 C 475.521 1.09159 3.44625 0
M  V30 5065 O 475.242 2.47641 3.61394 0
M  V30 5066 C 476.743 0.831763 4.35427 0
M  V30 5067 H 473.963 0.273453 0.612751 0
M  V30 5068 H 476.507 1.37552 1.51327 0
M  V30 5069 H 474.662 0.508919 3.84043 0
M  V30 5070 H 475.076 2.60499 4.55237 0
M  V30 5071 H 476.55 1.12233 5.4047 0
M  V30 5072 H 477.027 -0.233769 4.38577 0
M  V30 5073 H 477.633 1.39725 4.01693 0
M  V30 5074 N 475.948 -1.35272 0.808662 0
M  V30 5075 C 477.194 -1.99003 0.390581 0
M  V30 5076 C 477.527 -1.63999 -1.0401 0
M  V30 5077 O 476.802 -0.904368 -1.72196 0
M  V30 5078 C 477.085 -3.55454 0.576566 0
M  V30 5079 C 476.938 -4.00249 2.05233 0
M  V30 5080 C 478.257 -4.401 0.00354277 0
M  V30 5081 H 475.376 -0.722917 0.143388 0
M  V30 5082 H 478.018 -1.6039 1.01858 0
M  V30 5083 H 476.168 -3.88477 0.0419766 0
M  V30 5084 H 477.84 -3.77626 2.64946 0
M  V30 5085 H 476.083 -3.51082 2.54801 0
M  V30 5086 H 476.754 -5.0911 2.13333 0
M  V30 5087 H 479.23 -4.13548 0.460117 0
M  V30 5088 H 478.106 -5.48656 0.163575 0
M  V30 5089 H 478.367 -4.28444 -1.09032 0
M  V30 5090 N 477.426 -0.562348 -1.47226 0
M  V30 5091 C 478.673 -0.0402165 -2.0246 0
M  V30 5092 C 479.001 1.31169 -1.43614 0
M  V30 5093 O 478.256 1.86805 -0.5833 0
M  V30 5094 C 478.555 0.0969817 -3.57268 0
M  V30 5095 C 478.221 -1.1847 -4.35058 0
M  V30 5096 C 476.883 -1.53588 -4.56031 0
M  V30 5097 C 479.235 -2.03378 -4.79882 0
M  V30 5098 C 476.563 -2.73452 -5.19077 0
M  V30 5099 C 478.915 -3.2245 -5.44251 0
M  V30 5100 C 477.579 -3.57876 -5.63455 0
M  V30 5101 H 476.849 -0.0147163 -0.740854 0
M  V30 5102 H 479.496 -0.734895 -1.76838 0
M  V30 5103 H 477.801 0.87466 -3.81912 0
M  V30 5104 H 479.498 0.516408 -3.97661 0
M  V30 5105 H 476.088 -0.90126 -4.19017 0
M  V30 5106 H 480.272 -1.77553 -4.63453 0
M  V30 5107 H 475.528 -3.01062 -5.32139 0
M  V30 5108 H 479.702 -3.88526 -5.77945 0
M  V30 5109 H 477.329 -4.50849 -6.12078 0
M  V30 5110 N 478.904 1.54736 -0.299062 0
M  V30 5111 C 480.15 2.00397 0.311244 0
M  V30 5112 C 480.483 1.18716 1.53688 0
M  V30 5113 O 479.758 0.263154 1.92712 0
M  V30 5114 C 480.041 3.53817 0.669761 0
M  V30 5115 C 479.894 4.46239 -0.564882 0
M  V30 5116 C 481.213 4.13856 1.49702 0
M  V30 5117 H 478.332 0.728493 0.111653 0
M  V30 5118 H 480.974 1.85506 -0.410774 0
M  V30 5119 H 479.124 3.66637 1.28491 0
M  V30 5120 H 480.796 4.45328 -1.20337 0
M  V30 5121 H 479.039 4.16916 -1.19849 0
M  V30 5122 H 479.71 5.5134 -0.269918 0
M  V30 5123 H 482.186 4.04461 0.977284 0
M  V30 5124 H 481.062 5.21365 1.71666 0
M  V30 5125 H 481.323 3.65608 2.48563 0
M  V30 5126 N 480.382 0.0267497 1.57577 0
M  V30 5127 C 481.33 -0.973923 2.11229 0
M  V30 5128 C 482.324 -1.33849 1.03831 0
M  V30 5129 O 483.53 -1.321 1.22269 0
M  V30 5130 H 479.905 -0.331844 0.674821 0
M  V30 5131 H 481.876 -0.496092 2.94247 0
M  V30 5132 C 480.625 -2.24798 2.65257 0
M  V30 5133 H 479.948 -1.9762 3.47543 0
M  V30 5134 H 481.388 -2.93031 3.06445 0
M  V30 5135 C 479.847 -2.97611 1.57891 0
M  V30 5136 O 480.377 -3.89629 0.97735 0
M  V30 5137 N 478.583 -2.59905 1.29992 0
M  V30 5138 H 478.13 -1.85154 1.79097 0
M  V30 5139 H 478.088 -3.08932 0.583798 0
M  V30 5140 N 481.861 -1.55662 -0.24637 0
M  V30 5141 C 483.138 -1.68272 -0.997198 0
M  V30 5142 C 483.518 -0.566785 -2.03349 0
M  V30 5143 O 482.866 0.429688 -2.24424 0
M  V30 5144 C 483.076 -3.08594 -1.63006 0
M  V30 5145 C 484.424 -3.6721 -2.13171 0
M  V30 5146 O 485.448 -3.11397 -1.72946 0
M  V30 5147 O 484.307 -4.65054 -2.87031 0
M  V30 5148 H 481.401 -0.684429 -0.464205 0
M  V30 5149 H 483.947 -1.67993 -0.240114 0
M  V30 5150 H 482.719 -3.81264 -0.880527 0
M  V30 5151 H 482.342 -3.12886 -2.45333 0
M  V30 5152 N 483.339 0.512053 -1.4905 0
M  V30 5153 C 484.587 1.26436 -1.57665 0
M  V30 5154 C 484.908 1.93255 -0.260293 0
M  V30 5155 O 484.178 1.82206 0.719564 0
M  V30 5156 H 482.758 0.469658 -0.580888 0
M  V30 5157 H 485.42 0.594398 -1.85615 0
M  V30 5158 H 484.516 2.03417 -2.36702 0
M  V30 5159 N 484.817 1.37938 0.762283 0
M  V30 5160 C 485.727 1.36681 1.90671 0
M  V30 5161 C 486.743 0.265078 1.71969 0
M  V30 5162 O 487.919 0.502055 1.95042 0
M  V30 5163 C 484.984 1.18211 3.25925 0
M  V30 5164 C 484.045 2.3811 3.57214 0
M  V30 5165 C 483.278 2.20512 4.86014 0
M  V30 5166 O 483.501 1.19429 5.57757 0
M  V30 5167 O 482.435 3.08911 5.16583 0
M  V30 5168 H 486.261 2.33091 1.94685 0
M  V30 5169 H 483.846 1.18767 0.906356 0
M  V30 5170 H 485.728 1.09937 4.06807 0
M  V30 5171 H 484.403 0.248807 3.22742 0
M  V30 5172 H 483.31 2.51958 2.76529 0
M  V30 5173 H 484.643 3.30041 3.65149 0
M  V30 5174 N 486.295 -0.989507 1.22664 0
M  V30 5175 C 487.243 -2.10148 0.997035 0
M  V30 5176 C 488.237 -1.6929 -0.0609783 0
M  V30 5177 O 489.443 -1.79766 0.0917523 0
M  V30 5178 H 485.818 -0.687256 0.305259 0
M  V30 5179 H 487.789 -2.26685 1.94053 0
M  V30 5180 C 486.538 -3.4257 0.595085 0
M  V30 5181 H 485.861 -3.74453 1.40089 0
M  V30 5182 H 487.301 -4.21344 0.473869 0
M  V30 5183 C 485.76 -3.29638 -0.695725 0
M  V30 5184 O 486.29 -3.61709 -1.74727 0
M  V30 5185 N 484.496 -2.82814 -0.668173 0
M  V30 5186 H 484.043 -2.56914 0.18787 0
M  V30 5187 H 484.001 -2.74544 -1.5321 0
M  V30 5188 N 487.773 -1.03688 -1.18687 0
M  V30 5189 C 489.019 -0.739123 -1.88851 0
M  V30 5190 C 489.352 0.731042 -1.79915 0
M  V30 5191 O 488.627 1.53313 -1.19688 0
M  V30 5192 C 488.91 -1.20106 -3.3948 0
M  V30 5193 C 488.763 -2.73304 -3.57246 0
M  V30 5194 C 490.082 -0.788134 -4.32986 0
M  V30 5195 H 487.201 -0.269978 -0.68577 0
M  V30 5196 H 489.843 -1.28822 -1.3966 0
M  V30 5197 H 487.993 -0.733915 -3.81505 0
M  V30 5198 H 489.665 -3.28027 -3.24339 0
M  V30 5199 H 487.908 -3.13313 -3.00029 0
M  V30 5200 H 488.579 -3.00684 -4.62918 0
M  V30 5201 H 491.055 -1.19005 -3.98719 0
M  V30 5202 H 489.931 -1.13915 -5.36949 0
M  V30 5203 H 490.192 0.308988 -4.41019 0
M  V30 5204 N 489.251 1.34841 -0.815825 0
M  V30 5205 C 490.528 1.92908 -0.323416 0
M  V30 5206 C 490.908 1.74479 1.18828 0
M  V30 5207 O 490.256 1.11928 1.99209 0
M  V30 5208 C 490.466 3.40957 -0.744952 0
M  V30 5209 C 491.814 4.18107 -0.739716 0
M  V30 5210 O 492.838 3.49511 -0.68708 0
M  V30 5211 O 491.697 5.40517 -0.806456 0
M  V30 5212 H 488.791 0.822436 -0.0867646 0
M  V30 5213 H 491.337 1.4386 -0.90014 0
M  V30 5214 H 490.109 3.4814 -1.78646 0
M  V30 5215 H 489.732 3.97341 -0.143535 0
M  V30 5216 N 490.729 0.570148 1.46925 0
M  V30 5217 C 491.659 -0.158274 2.32963 0
M  V30 5218 C 492.64 -0.896093 1.44583 0
M  V30 5219 O 493.825 -0.874022 1.7342 0
M  V30 5220 C 490.955 -1.18055 3.26619 0
M  V30 5221 C 489.909 -0.558379 4.24342 0
M  V30 5222 C 489.235 -1.68623 5.07415 0
M  V30 5223 C 490.535 0.496295 5.19937 0
M  V30 5224 H 492.229 0.560046 2.94115 0
M  V30 5225 H 489.775 0.270775 1.41431 0
M  V30 5226 H 491.728 -1.69841 3.85658 0
M  V30 5227 H 490.452 -1.92899 2.63548 0
M  V30 5228 H 489.111 -0.0617157 3.66548 0
M  V30 5229 H 488.759 -2.42402 4.40738 0
M  V30 5230 H 488.459 -1.27564 5.73586 0
M  V30 5231 H 489.983 -2.20709 5.69315 0
M  V30 5232 H 491.397 0.0640052 5.73264 0
M  V30 5233 H 489.794 0.82649 5.94381 0
M  V30 5234 H 490.864 1.38735 4.6463 0
M  V30 5235 N 492.207 -1.54576 0.307264 0
M  V30 5236 C 493.456 -1.99442 -0.300976 0
M  V30 5237 C 493.769 -1.19928 -1.5452 0
M  V30 5238 O 494.975 -1.55092 -2.22842 0
M  V30 5239 C 493.431 -3.55084 -0.586809 0
M  V30 5240 C 493.039 -4.43413 0.639438 0
M  V30 5241 C 494.783 -4.0846 -1.1559 0
M  V30 5242 C 492.69 -5.90499 0.326411 0
M  V30 5243 H 491.62 -0.744986 -0.116238 0
M  V30 5244 H 494.271 -1.787 0.416947 0
M  V30 5245 H 492.653 -3.71749 -1.36449 0
M  V30 5246 H 493.827 -4.38522 1.41545 0
M  V30 5247 H 492.142 -4.00842 1.1276 0
M  V30 5248 H 494.739 -5.15926 -1.40445 0
M  V30 5249 H 495.082 -3.59443 -2.10015 0
M  V30 5250 H 495.615 -3.95362 -0.439778 0
M  V30 5251 H 492.354 -6.43676 1.23939 0
M  V30 5252 H 491.874 -5.98382 -0.412212 0
M  V30 5253 H 493.553 -6.46962 -0.0697393 0
M  V30 5254 N 493.685 -0.035106 -1.57561 0
M  V30 5255 C 494.931 0.64318 -1.92331 0
M  V30 5256 C 495.264 1.71434 -0.912368 0
M  V30 5257 O 494.539 1.94395 0.0640303 0
M  V30 5258 C 494.822 1.25411 -3.37556 0
M  V30 5259 C 494.675 0.192109 -4.4939 0
M  V30 5260 C 495.994 2.17041 -3.82859 0
M  V30 5261 H 493.113 0.232341 -0.699419 0
M  V30 5262 H 495.755 -0.0935889 -1.89769 0
M  V30 5263 H 493.905 1.88205 -3.39869 0
M  V30 5264 H 495.577 -0.438849 -4.59208 0
M  V30 5265 H 493.82 -0.481725 -4.31117 0
M  V30 5266 H 494.491 0.659292 -5.48049 0
M  V30 5267 H 496.967 1.64228 -3.8232 0
M  V30 5268 H 495.843 2.56738 -4.85157 0
M  V30 5269 H 496.104 3.06401 -3.18702 0
M  V30 5270 N 495.163 1.55791 0.238111 0
M  V30 5271 C 496.073 1.94196 1.31625 0
M  V30 5272 C 497.089 0.843545 1.52185 0
M  V30 5273 O 498.265 1.1457 1.65637 0
M  V30 5274 C 495.33 2.2365 2.64918 0
M  V30 5275 C 494.391 3.46971 2.52804 0
M  V30 5276 C 493.624 3.7501 3.79741 0
M  V30 5277 O 493.847 3.04982 4.82019 0
M  V30 5278 O 492.781 4.68525 3.77846 0
M  V30 5279 H 496.607 2.86044 1.02043 0
M  V30 5280 H 494.192 1.42786 0.439603 0
M  V30 5281 H 496.074 2.43863 3.4367 0
M  V30 5282 H 494.749 1.34979 2.94215 0
M  V30 5283 H 493.656 3.32055 1.72309 0
M  V30 5284 H 494.989 4.35971 2.28451 0
M  V30 5285 N 496.642 -0.504142 1.49319 0
M  V30 5286 C 497.872 -1.28071 1.62116 0
M  V30 5287 C 498.28 -1.86955 0.290566 0
M  V30 5288 O 497.623 -1.68415 -0.733616 0
M  V30 5289 C 497.685 -2.4521 2.62893 0
M  V30 5290 C 497.349 -2.07218 4.0732 0
M  V30 5291 C 498.346 -1.61375 4.94221 0
M  V30 5292 C 496.031 -2.16949 4.53033 0
M  V30 5293 C 498.025 -1.25763 6.2487 0
M  V30 5294 C 495.712 -1.80949 5.83696 0
M  V30 5295 C 496.71 -1.3543 6.69438 0
M  V30 5296 O 496.398 -0.99915 7.97667 0
M  V30 5297 H 496.13 -0.394763 0.54876 0
M  V30 5298 H 498.684 -0.612118 1.96067 0
M  V30 5299 H 496.914 -3.15134 2.24115 0
M  V30 5300 H 498.603 -3.0724 2.65252 0
M  V30 5301 H 499.369 -1.53306 4.60133 0
M  V30 5302 H 495.248 -2.5133 3.86463 0
M  V30 5303 H 498.792 -0.901631 6.91749 0
M  V30 5304 H 494.689 -1.88667 6.17313 0
M  V30 5305 H 495.457 -1.13089 8.1065 0
M  V30 5306 N 498.12 -1.38341 -0.754957 0
M  V30 5307 C 499.03 -1.3769 -1.89944 0
M  V30 5308 C 500.046 -0.274194 -1.71826 0
M  V30 5309 O 501.222 -0.512391 -1.94773 0
M  V30 5310 C 498.287 -1.19938 -3.25293 0
M  V30 5311 C 497.348 -2.40001 -3.55946 0
M  V30 5312 C 496.581 -2.23087 -4.84838 0
M  V30 5313 O 496.804 -1.22386 -5.57116 0
M  V30 5314 O 495.738 -3.11646 -5.14937 0
M  V30 5315 H 499.564 -2.3412 -1.93446 0
M  V30 5316 H 497.149 -1.19246 -0.900044 0
M  V30 5317 H 499.031 -1.12093 -4.06218 0
M  V30 5318 H 497.706 -0.265919 -3.22606 0
M  V30 5319 H 496.613 -2.53421 -2.75188 0
M  V30 5320 H 497.946 -3.31973 -3.63394 0
M  V30 5321 N 499.598 0.982988 -1.23187 0
M  V30 5322 C 500.561 2.05649 -1.01198 0
M  V30 5323 C 501.561 1.6078 0.0252464 0
M  V30 5324 O 502.751 1.72878 -0.214243 0
M  V30 5325 C 499.883 3.36744 -0.530656 0
M  V30 5326 H 501.076 2.2659 -1.96461 0
M  V30 5327 H 498.629 1.15602 -1.05195 0
M  V30 5328 H 499.364 3.21492 0.425873 0
M  V30 5329 H 499.149 3.7065 -1.2791 0
M  V30 5330 H 500.639 4.15705 -0.397366 0
M  V30 5331 N 501.076 1.04316 1.18135 0
M  V30 5332 C 502.323 0.74802 1.88178 0
M  V30 5333 C 502.651 -0.72441 1.80506 0
M  V30 5334 O 501.906 -1.54463 1.20165 0
M  V30 5335 C 502.205 1.16271 3.37958 0
M  V30 5336 C 501.871 2.63585 3.65833 0
M  V30 5337 C 500.533 3.03829 3.73151 0
M  V30 5338 C 502.885 3.58822 3.78016 0
M  V30 5339 C 500.213 4.38194 3.90132 0
M  V30 5340 C 502.565 4.92909 3.96514 0
M  V30 5341 C 501.229 5.3282 4.02068 0
M  V30 5342 H 500.499 0.27372 0.688592 0
M  V30 5343 H 503.146 1.30863 1.39811 0
M  V30 5344 H 501.451 0.520938 3.88321 0
M  V30 5345 H 503.148 0.911672 3.90499 0
M  V30 5346 H 499.738 2.31414 3.60757 0
M  V30 5347 H 503.922 3.28875 3.71692 0
M  V30 5348 H 499.178 4.68631 3.92677 0
M  V30 5349 H 503.352 5.66606 4.04883 0
M  V30 5350 H 500.979 6.36943 4.14979 0
M  V30 5351 N 502.554 -1.34406 0.822964 0
M  V30 5352 C 503.965 -1.8069 0.469879 0
M  V30 5353 C 504.316 -1.68223 -1.00972 0
M  V30 5354 O 503.441 -1.22226 -1.78577 0
M  V30 5355 C 504.036 -3.28064 0.846118 0
M  V30 5356 C 502.595 -3.72428 0.545402 0
M  V30 5357 C 501.742 -2.56116 1.06301 0
M  V30 5358 H 504.693 -1.22153 1.01313 0
M  V30 5359 H 504.714 -3.80205 0.149922 0
M  V30 5360 H 504.226 -3.37107 1.92304 0
M  V30 5361 H 502.327 -3.68924 -0.522109 0
M  V30 5362 H 502.44 -4.66548 1.0895 0
M  V30 5363 H 500.804 -2.50048 0.484554 0
M  V30 5364 H 501.587 -2.67928 2.14638 0
M  V30 5365 N 504.032 -0.577932 -1.46621 0
M  V30 5366 C 504.979 0.158048 -2.30258 0
M  V30 5367 C 505.949 0.888669 -1.40328 0
M  V30 5368 O 507.134 0.880283 -1.6928 0
M  V30 5369 C 504.274 1.16884 -3.24703 0
M  V30 5370 C 503.387 0.442163 -4.29731 0
M  V30 5371 C 502.522 1.44007 -5.11308 0
M  V30 5372 C 501.561 0.69952 -6.0809 0
M  V30 5373 N 500.698 1.64525 -6.82551 0
M  V30 5374 H 505.538 -0.561242 -2.92667 0
M  V30 5375 H 503.075 -0.288591 -1.44241 0
M  V30 5376 H 505.033 1.7677 -3.779 0
M  V30 5377 H 503.663 1.85591 -2.64113 0
M  V30 5378 H 502.715 -0.271632 -3.79429 0
M  V30 5379 H 504.027 -0.136992 -4.98612 0
M  V30 5380 H 503.181 2.11186 -5.68758 0
M  V30 5381 H 501.92 2.05315 -4.42377 0
M  V30 5382 H 500.925 0.0139217 -5.49798 0
M  V30 5383 H 502.15 0.091894 -6.79038 0
M  V30 5384 H 500.096 2.24653 -6.16334 0
M  V30 5385 H 500.013 1.11878 -7.47676 0
M  V30 5386 H 501.281 2.30754 -7.44562 0
M  V30 5387 N 505.51 1.54411 -0.315457 0
M  V30 5388 C 506.921 1.85885 0.174265 0
M  V30 5389 C 507.272 1.23723 1.52273 0
M  V30 5390 O 506.397 0.540246 2.09548 0
M  V30 5391 C 506.992 3.37257 0.322981 0
M  V30 5392 C 505.551 3.68711 0.756922 0
M  V30 5393 C 504.698 2.77013 -0.126195 0
M  V30 5394 H 507.649 1.49374 -0.536007 0
M  V30 5395 H 507.67 3.62539 1.15522 0
M  V30 5396 H 507.182 3.82471 -0.658602 0
M  V30 5397 H 505.283 3.29024 1.74854 0
M  V30 5398 H 505.396 4.75741 0.566291 0
M  V30 5399 H 503.76 2.51588 0.39692 0
M  V30 5400 H 504.543 3.25051 -1.1044 0
M  V30 5401 N 506.988 0.0434614 1.5754 0
M  V30 5402 C 507.898 -0.94893 2.14552 0
M  V30 5403 C 508.914 -1.34707 1.10136 0
M  V30 5404 O 510.09 -1.42557 1.42266 0
M  V30 5405 C 507.155 -2.208 2.67298 0
M  V30 5406 C 506.216 -1.86893 3.86484 0
M  V30 5407 C 505.449 -3.06797 4.36705 0
M  V30 5408 O 505.672 -4.19921 3.86034 0
M  V30 5409 O 504.606 -2.8826 5.28384 0
M  V30 5410 H 508.432 -0.494099 2.99654 0
M  V30 5411 H 506.017 -0.177989 1.48336 0
M  V30 5412 H 507.899 -2.94686 3.01228 0
M  V30 5413 H 506.574 -2.65436 1.85272 0
M  V30 5414 H 505.481 -1.10347 3.57455 0
M  V30 5415 H 506.814 -1.47062 4.69716 0
M  V30 5416 N 508.466 -1.55915 -0.229846 0
M  V30 5417 C 509.416 -1.8813 -1.28807 0
M  V30 5418 C 510.4 -0.743621 -1.42685 0
M  V30 5419 O 511.592 -1.00588 -1.4564 0
M  V30 5420 C 508.721 -2.19431 -2.64017 0
M  V30 5421 C 507.807 -3.39569 -2.54074 0
M  V30 5422 N 508.198 -4.58404 -2.13774 0
M  V30 5423 C 506.496 -3.43019 -2.85051 0
M  V30 5424 C 507.197 -5.40557 -2.1488 0
M  V30 5425 N 506.173 -4.80054 -2.55047 0
M  V30 5426 H 509.975 -2.77527 -0.967261 0
M  V30 5427 H 507.489 -1.5637 -0.438433 0
M  V30 5428 H 509.486 -2.40681 -3.40409 0
M  V30 5429 H 508.146 -1.31341 -2.9695 0
M  V30 5430 H 509.157 -4.83716 -1.8504 0
M  V30 5431 H 505.834 -2.65249 -3.22411 0
M  V30 5432 H 507.224 -6.45666 -1.85918 0
M  V30 5433 N 509.944 0.496216 -1.49584 0
M  V30 5434 C 510.876 1.61404 -1.62731 0
M  V30 5435 C 511.889 1.54613 -0.50978 0
M  V30 5436 O 513.078 1.60458 -0.782017 0
M  V30 5437 C 510.178 3.00212 -1.57245 0
M  V30 5438 C 509.351 3.32138 -2.84611 0
M  V30 5439 C 508.41 4.5038 -2.72112 0
M  V30 5440 O 507.436 4.51926 -3.46051 0
M  V30 5441 N 508.638 5.50575 -1.83977 0
M  V30 5442 H 511.403 1.50552 -2.59141 0
M  V30 5443 H 508.964 0.684182 -1.46733 0
M  V30 5444 H 510.956 3.77241 -1.4653 0
M  V30 5445 H 509.526 3.04964 -0.686729 0
M  V30 5446 H 508.746 2.4396 -3.09641 0
M  V30 5447 H 510.034 3.50268 -3.69039 0
M  V30 5448 H 509.432 5.52128 -1.23171 0
M  V30 5449 H 507.989 6.26687 -1.79182 0
M  V30 5450 N 511.423 1.38739 0.74761 0
M  V30 5451 C 512.355 1.32341 1.87132 0
M  V30 5452 C 513.368 0.234502 1.61102 0
M  V30 5453 O 514.557 0.492516 1.71571 0
M  V30 5454 C 511.657 1.02915 3.22896 0
M  V30 5455 C 510.83 2.22834 3.76383 0
M  V30 5456 C 509.889 1.90059 4.90677 0
M  V30 5457 O 508.915 2.62615 5.04997 0
M  V30 5458 N 510.117 0.859141 5.74107 0
M  V30 5459 H 512.882 2.29175 1.93129 0
M  V30 5460 H 510.443 1.32678 0.927805 0
M  V30 5461 H 512.435 0.79031 3.96908 0
M  V30 5462 H 511.005 0.148572 3.12247 0
M  V30 5463 H 510.225 2.62747 2.93867 0
M  V30 5464 H 511.513 3.02851 4.08851 0
M  V30 5465 H 510.911 0.257564 5.65113 0
M  V30 5466 H 509.468 0.680189 6.48241 0
M  V30 5467 N 512.901 -0.976442 1.23707 0
M  V30 5468 C 514.147 -1.72158 1.08319 0
M  V30 5469 C 514.502 -1.88701 -0.375445 0
M  V30 5470 O 513.795 -1.43107 -1.274 0
M  V30 5471 C 513.989 -3.11814 1.74662 0
M  V30 5472 C 513.818 -3.08892 3.26827 0
M  V30 5473 C 512.588 -3.13861 3.96004 0
M  V30 5474 C 514.786 -2.9175 4.2354 0
M  V30 5475 N 512.768 -3.00867 5.35119 0
M  V30 5476 C 514.139 -2.8696 5.49595 0
M  V30 5477 C 516.194 -2.76265 4.14225 0
M  V30 5478 C 514.897 -2.68268 6.67401 0
M  V30 5479 C 516.923 -2.58938 5.317 0
M  V30 5480 C 516.285 -2.54849 6.56682 0
M  V30 5481 H 512.384 -0.638896 0.450927 0
M  V30 5482 H 514.968 -1.15835 1.56494 0
M  V30 5483 H 513.139 -3.66347 1.29014 0
M  V30 5484 H 514.871 -3.74984 1.52215 0
M  V30 5485 H 511.626 -3.22198 3.4711 0
M  V30 5486 H 512.05 -2.97634 6.08065 0
M  V30 5487 H 516.692 -2.78213 3.18366 0
M  V30 5488 H 514.41 -2.65063 7.63392 0
M  V30 5489 H 517.996 -2.47914 5.26336 0
M  V30 5490 H 516.876 -2.41611 7.46052 0
M  V30 5491 N 514.379 -1.04941 -1.1758 0
M  V30 5492 C 515.628 -0.753124 -1.87112 0
M  V30 5493 C 515.941 0.722507 -1.81767 0
M  V30 5494 O 517.147 1.13265 -2.46746 0
M  V30 5495 C 515.603 -1.29695 -3.35719 0
M  V30 5496 C 515.211 -2.80184 -3.49572 0
M  V30 5497 C 516.955 -1.07759 -4.10595 0
M  V30 5498 C 514.862 -3.2788 -4.92187 0
M  V30 5499 H 513.792 -0.278034 -0.700866 0
M  V30 5500 H 516.443 -1.26637 -1.32798 0
M  V30 5501 H 514.825 -0.711522 -3.89555 0
M  V30 5502 H 515.999 -3.44561 -3.05965 0
M  V30 5503 H 514.314 -3.00632 -2.88113 0
M  V30 5504 H 516.911 -1.40899 -5.15802 0
M  V30 5505 H 517.254 -0.0152302 -4.16297 0
M  V30 5506 H 517.787 -1.62809 -3.62957 0
M  V30 5507 H 514.526 -4.33535 -4.91658 0
M  V30 5508 H 514.046 -2.68245 -5.36475 0
M  V30 5509 H 515.725 -3.22412 -5.60945 0
M  V30 5510 N 515.857 1.33968 -0.830081 0
M  V30 5511 C 517.087 2.01987 -0.434142 0
M  V30 5512 C 517.495 1.62639 0.96671 0
M  V30 5513 O 516.838 0.831151 1.63822 0
M  V30 5514 C 516.9 3.5648 -0.465018 0
M  V30 5515 C 516.564 4.19176 -1.82045 0
M  V30 5516 C 517.561 4.39181 -2.78237 0
M  V30 5517 C 515.246 4.55792 -2.11089 0
M  V30 5518 C 517.24 4.94937 -4.01642 0
M  V30 5519 C 514.927 5.11258 -3.34752 0
M  V30 5520 C 515.925 5.30775 -4.29845 0
M  V30 5521 O 515.613 5.85064 -5.51322 0
M  V30 5522 H 515.345 0.653847 -0.171639 0
M  V30 5523 H 517.899 1.72066 -1.12171 0
M  V30 5524 H 516.129 3.8569 0.279284 0
M  V30 5525 H 517.818 4.05804 -0.0881334 0
M  V30 5526 H 518.584 4.11249 -2.57097 0
M  V30 5527 H 514.463 4.39901 -1.3787 0
M  V30 5528 H 518.007 5.10086 -4.75876 0
M  V30 5529 H 513.904 5.38619 -3.55753 0
M  V30 5530 H 514.672 6.03489 -5.5294 0
M  V30 5531 N 517.335 0.585699 1.46312 0
M  V30 5532 C 518.268 -0.194257 2.27372 0
M  V30 5533 C 519.246 -0.894116 1.3581 0
M  V30 5534 O 520.43 -0.907402 1.65222 0
M  V30 5535 C 517.557 -1.27901 3.13622 0
M  V30 5536 C 516.603 -0.684666 4.20969 0
M  V30 5537 S 517.436 0.490745 5.33247 0
M  V30 5538 C 518.592 -0.595137 6.23064 0
M  V30 5539 H 518.825 0.493515 2.93175 0
M  V30 5540 H 516.358 0.372666 1.49835 0
M  V30 5541 H 518.316 -1.90008 3.63878 0
M  V30 5542 H 516.977 -1.93875 2.47126 0
M  V30 5543 H 516.17 -1.50015 4.81156 0
M  V30 5544 H 515.772 -0.139204 3.73741 0
M  V30 5545 H 518.064 -1.48002 6.61137 0
M  V30 5546 H 519.007 -0.0299446 7.08094 0
M  V30 5547 H 519.415 -0.900627 5.57269 0
M  V30 5548 N 518.813 -1.54241 0.323641 0
M  V30 5549 C 519.761 -2.25813 -0.557804 0
M  V30 5550 C 520.755 -1.27225 -1.11849 0
M  V30 5551 O 521.961 -1.45001 -1.06652 0
M  V30 5552 H 518.336 -0.72532 -0.198532 0
M  V30 5553 H 520.307 -2.98322 0.0681112 0
M  V30 5554 C 519.056 -3.02913 -1.70701 0
M  V30 5555 H 518.379 -3.78593 -1.28482 0
M  V30 5556 H 519.819 -3.56238 -2.29935 0
M  V30 5557 C 518.278 -2.11217 -2.62467 0
M  V30 5558 O 518.808 -1.69508 -3.64184 0
M  V30 5559 N 517.014 -1.76704 -2.30703 0
M  V30 5560 H 516.561 -2.1082 -1.48029 0
M  V30 5561 H 516.519 -1.15631 -2.92364 0
M  V30 5562 N 520.291 -0.0518155 -1.57515 0
M  V30 5563 C 521.707 0.304735 -1.56664 0
M  V30 5564 C 521.907 1.71395 -1.05953 0
M  V30 5565 O 520.963 2.42123 -0.716414 0
M  V30 5566 C 522.276 0.132614 -3.00407 0
M  V30 5567 C 523.824 0.20367 -3.12337 0
M  V30 5568 C 524.299 0.0600706 -4.57961 0
M  V30 5569 N 525.79 0.116326 -4.63054 0
M  V30 5570 C 526.525 0.0293363 -5.73392 0
M  V30 5571 N 526.021 -0.110038 -6.92713 0
M  V30 5572 N 527.814 0.0849651 -5.62036 0
M  V30 5573 H 519.965 -0.973056 -1.888 0
M  V30 5574 H 522.228 -0.377781 -0.869474 0
M  V30 5575 H 521.934 -0.839019 -3.41546 0
M  V30 5576 H 521.808 0.893376 -3.66468 0
M  V30 5577 H 524.195 1.16578 -2.71097 0
M  V30 5578 H 524.276 -0.587857 -2.48954 0
M  V30 5579 H 523.92 -0.898715 -4.99886 0
M  V30 5580 H 523.85 0.87075 -5.19351 0
M  V30 5581 H 526.341 0.22327 -3.7724 0
M  V30 5582 H 526.654 -0.169104 -7.72615 0
M  V30 5583 H 524.999 -0.145132 -6.94848 0
M  V30 5584 H 528.19 0.192411 -4.67704 0
M  V30 5585 H 528.363 0.0137131 -6.47999 0
M  V30 5586 N 521.769 1.56035 0.221574 0
M  V30 5587 C 522.997 1.8313 0.962864 0
M  V30 5588 C 523.412 0.630934 1.77946 0
M  V30 5589 O 522.769 -0.400519 1.78051 0
M  V30 5590 C 522.82 3.08742 1.88045 0
M  V30 5591 O 522.541 4.24147 1.09686 0
M  V30 5592 C 524.042 3.48824 2.73563 0
M  V30 5593 H 521.262 0.608775 0.282194 0
M  V30 5594 H 523.806 2.03124 0.23681 0
M  V30 5595 H 521.961 2.90723 2.56045 0
M  V30 5596 H 522.375 4.95505 1.71974 0
M  V30 5597 H 523.849 4.39752 3.3365 0
M  V30 5598 H 524.326 2.70575 3.45956 0
M  V30 5599 H 524.932 3.69282 2.10976 0
M  V30 5600 N 523.247 -0.488276 1.49845 0
M  V30 5601 C 524.494 -1.24157 1.59973 0
M  V30 5602 C 524.822 -1.92293 0.292182 0
M  V30 5603 O 524.077 -1.81942 -0.720813 0
M  V30 5604 C 524.376 -2.32152 2.71735 0
M  V30 5605 C 524.042 -1.81387 4.12807 0
M  V30 5606 C 522.704 -1.67262 4.51195 0
M  V30 5607 C 525.056 -1.43537 5.01045 0
M  V30 5608 C 522.384 -1.13685 5.7558 0
M  V30 5609 C 524.736 -0.914081 6.25961 0
M  V30 5610 C 523.4 -0.759327 6.63167 0
M  V30 5611 H 522.67 -0.454322 0.585383 0
M  V30 5612 H 525.317 -0.540261 1.83721 0
M  V30 5613 H 523.622 -3.08122 2.42008 0
M  V30 5614 H 525.319 -2.90164 2.76778 0
M  V30 5615 H 521.909 -1.93344 3.82513 0
M  V30 5616 H 526.093 -1.53292 4.72033 0
M  V30 5617 H 521.349 -1.00426 6.03096 0
M  V30 5618 H 525.523 -0.612066 6.93705 0
M  V30 5619 H 523.15 -0.342002 7.5943 0
M  V30 5620 N 524.725 -1.39134 -0.740242 0
M  V30 5621 C 525.953 -1.39334 -1.5295 0
M  V30 5622 C 526.368 0.0135008 -1.88795 0
M  V30 5623 O 525.725 0.983524 -1.5373 0
M  V30 5624 C 525.776 -2.2614 -2.82034 0
M  V30 5625 O 525.497 -3.61345 -2.47712 0
M  V30 5626 C 526.998 -2.34666 -3.76094 0
M  V30 5627 H 524.218 -0.476103 -0.472828 0
M  V30 5628 H 526.762 -1.82883 -0.9151 0
M  V30 5629 H 524.917 -1.86018 -3.39818 0
M  V30 5630 H 525.331 -4.07194 -3.30595 0
M  V30 5631 H 526.805 -2.99663 -4.63579 0
M  V30 5632 H 527.282 -1.36426 -4.17474 0
M  V30 5633 H 527.888 -2.75236 -3.2423 0
M  V30 5634 N 526.204 0.969867 -1.24223 0
M  V30 5635 C 527.481 1.68774 -0.988664 0
M  V30 5636 C 527.861 2.05342 0.489673 0
M  V30 5637 O 527.209 1.75486 1.46345 0
M  V30 5638 C 527.419 2.92135 -1.90941 0
M  V30 5639 C 528.767 3.64422 -2.17903 0
M  V30 5640 O 529.791 3.02188 -1.88576 0
M  V30 5641 O 528.65 4.76446 -2.67697 0
M  V30 5642 H 525.744 0.737736 -0.37373 0
M  V30 5643 H 528.29 1.02415 -1.35312 0
M  V30 5644 H 527.062 2.61788 -2.90831 0
M  V30 5645 H 526.685 3.66228 -1.54798 0
M  V30 5646 N 527.682 1.05563 1.17022 0
M  V30 5647 C 528.629 0.659893 2.21165 0
M  V30 5648 C 529.599 -0.339813 1.62587 0
M  V30 5649 O 530.784 -0.230378 1.89404 0
M  V30 5650 C 527.924 0.0447297 3.45071 0
M  V30 5651 C 527.037 1.09372 4.17926 0
M  V30 5652 C 526.172 0.445481 5.29329 0
M  V30 5653 C 525.211 1.47852 5.93975 0
M  V30 5654 N 524.348 0.854172 6.96885 0
M  V30 5655 H 529.188 1.55243 2.54369 0
M  V30 5656 H 526.725 0.776336 1.24946 0
M  V30 5657 H 528.683 -0.329404 4.15898 0
M  V30 5658 H 527.313 -0.811244 3.1244 0
M  V30 5659 H 526.365 1.58564 3.45777 0
M  V30 5660 H 527.677 1.87773 4.62107 0
M  V30 5661 H 526.831 0.0179688 6.06697 0
M  V30 5662 H 525.57 -0.370481 4.86291 0
M  V30 5663 H 524.575 1.91601 5.15334 0
M  V30 5664 H 525.8 2.29645 6.39093 0
M  V30 5665 H 523.746 0.0587882 6.55974 0
M  V30 5666 H 523.663 1.57567 7.39397 0
M  V30 5667 H 524.931 0.451559 7.78191 0
M  V30 5668 N 529.16 -1.33526 0.837174 0
M  V30 5669 C 530.406 -1.98541 0.44193 0
M  V30 5670 C 530.761 -1.65124 -0.987517 0
M  V30 5671 O 530.054 -0.919948 -1.6807 0
M  V30 5672 C 530.248 -3.52367 0.597675 0
M  V30 5673 C 530.077 -4.00731 2.04071 0
M  V30 5674 C 528.847 -4.28649 2.67559 0
M  V30 5675 C 531.045 -4.17073 3.00923 0
M  V30 5676 N 529.027 -4.63142 4.02955 0
M  V30 5677 C 530.398 -4.54905 4.21261 0
M  V30 5678 C 532.453 -3.99358 2.97351 0
M  V30 5679 C 531.156 -4.76874 5.38501 0
M  V30 5680 C 533.182 -4.22501 4.1382 0
M  V30 5681 C 532.544 -4.60634 5.32912 0
M  V30 5682 H 528.643 -0.753246 0.210105 0
M  V30 5683 H 531.227 -1.61674 1.08488 0
M  V30 5684 H 529.398 -3.88397 -0.0154658 0
M  V30 5685 H 531.13 -4.04326 0.17404 0
M  V30 5686 H 527.885 -4.20077 2.18706 0
M  V30 5687 H 528.309 -4.84601 4.72748 0
M  V30 5688 H 532.951 -3.68993 2.06408 0
M  V30 5689 H 530.669 -5.06101 6.2999 0
M  V30 5690 H 534.255 -4.10316 4.12471 0
M  V30 5691 H 533.135 -4.78187 6.21536 0
M  V30 5692 N 530.638 -0.59345 -1.46 0
M  V30 5693 C 531.548 0.135817 -2.34207 0
M  V30 5694 C 532.564 0.875008 -1.50398 0
M  V30 5695 O 533.74 0.835778 -1.83239 0
M  V30 5696 C 530.805 1.12977 -3.27776 0
M  V30 5697 C 529.866 0.394081 -4.27487 0
M  V30 5698 C 529.099 1.34068 -5.16586 0
M  V30 5699 O 529.322 2.5778 -5.08828 0
M  V30 5700 O 528.256 0.845426 -5.95933 0
M  V30 5701 H 532.082 -0.588691 -2.9794 0
M  V30 5702 H 529.667 -0.353784 -1.45151 0
M  V30 5703 H 531.549 1.70261 -3.85473 0
M  V30 5704 H 530.224 1.83556 -2.66625 0
M  V30 5705 H 529.131 -0.220869 -3.73447 0
M  V30 5706 H 530.464 -0.270939 -4.91454 0
M  V30 5707 N 532.116 1.54067 -0.331816 0
M  V30 5708 C 533.393 1.92915 0.322955 0
M  V30 5709 C 533.773 1.26225 1.69205 0
M  V30 5710 O 533.121 0.408919 2.24811 0
M  V30 5711 C 533.331 3.46619 0.406946 0
M  V30 5712 C 534.679 4.19386 0.663339 0
M  V30 5713 O 535.703 3.5282 0.489536 0
M  V30 5714 O 534.562 5.37288 0.999193 0
M  V30 5715 H 531.656 0.805808 0.186016 0
M  V30 5716 H 534.202 1.65342 -0.382135 0
M  V30 5717 H 532.974 3.87354 -0.554287 0
M  V30 5718 H 532.597 3.80324 1.15929 0
M  V30 5719 N 533.594 0.0601682 1.57485 0
M  V30 5720 C 534.824 -0.620037 1.97076 0
M  V30 5721 C 535.232 -1.64381 0.936784 0
M  V30 5722 O 534.575 -1.83497 -0.0863377 0
M  V30 5723 C 534.637 -1.35617 3.32939 0
M  V30 5724 C 534.301 -0.487208 4.54396 0
M  V30 5725 C 535.298 0.250428 5.19297 0
M  V30 5726 C 532.983 -0.415494 5.00579 0
M  V30 5727 C 534.977 1.04812 6.28723 0
M  V30 5728 C 532.664 0.385879 6.0988 0
M  V30 5729 C 533.662 1.11637 6.73815 0
M  V30 5730 O 533.35 1.90454 7.81014 0
M  V30 5731 H 533.082 -0.173664 0.653312 0
M  V30 5732 H 535.636 0.1256 2.05016 0
M  V30 5733 H 533.866 -2.14763 3.2158 0
M  V30 5734 H 535.555 -1.92749 3.57215 0
M  V30 5735 H 536.321 0.204546 4.84568 0
M  V30 5736 H 532.2 -0.973679 4.506 0
M  V30 5737 H 535.744 1.6188 6.78558 0
M  V30 5738 H 531.641 0.433366 6.44044 0
M  V30 5739 H 532.409 1.82762 7.97835 0
M  V30 5740 N 535.072 -1.5615 -0.213296 0
M  V30 5741 C 536.483 -1.69645 -0.779582 0
M  V30 5742 C 536.834 -0.663615 -1.84636 0
M  V30 5743 O 535.959 0.183633 -2.15619 0
M  V30 5744 C 536.554 -3.07567 -1.42084 0
M  V30 5745 C 535.113 -3.22889 -1.93442 0
M  V30 5746 C 534.26 -2.65581 -0.797612 0
M  V30 5747 H 537.211 -1.58696 0.0114951 0
M  V30 5748 H 537.232 -3.03884 -2.28986 0
M  V30 5749 H 536.744 -3.82716 -0.644187 0
M  V30 5750 H 534.845 -2.52623 -2.73884 0
M  V30 5751 H 534.958 -4.30197 -2.10872 0
M  V30 5752 H 533.322 -2.24278 -1.20712 0
M  V30 5753 H 534.105 -3.43284 -0.033494 0
M  V30 5754 N 536.55 0.480323 -1.50102 0
M  V30 5755 C 537.497 1.57946 -1.6829 0
M  V30 5756 C 538.467 1.57611 -0.524223 0
M  V30 5757 O 539.652 1.75282 -0.753709 0
M  V30 5758 C 536.792 2.95978 -1.77457 0
M  V30 5759 C 535.905 3.06173 -3.04766 0
M  V30 5760 C 535.04 4.35063 -3.04784 0
M  V30 5761 C 534.079 4.38966 -4.26586 0
M  V30 5762 N 533.216 5.59314 -4.24396 0
M  V30 5763 H 538.056 1.41743 -2.62131 0
M  V30 5764 H 535.593 0.689304 -1.2995 0
M  V30 5765 H 537.551 3.76011 -1.80752 0
M  V30 5766 H 536.181 3.10837 -0.870637 0
M  V30 5767 H 535.233 2.19071 -3.10986 0
M  V30 5768 H 536.545 3.04916 -3.9475 0
M  V30 5769 H 535.699 5.23436 -3.06757 0
M  V30 5770 H 534.438 4.38915 -2.12614 0
M  V30 5771 H 533.443 3.48992 -4.24835 0
M  V30 5772 H 534.668 4.36813 -5.19972 0
M  V30 5773 H 532.614 5.63969 -3.35074 0
M  V30 5774 H 532.531 5.5976 -5.08138 0
M  V30 5775 H 533.799 6.49837 -4.30502 0
M  V30 5776 N 538.028 1.39524 0.732853 0
M  V30 5777 C 539.253 1.40329 1.52717 0
M  V30 5778 C 539.678 0.000286574 1.881 0
M  V30 5779 O 539.036 -0.987262 1.52062 0
M  V30 5780 C 539.084 2.28464 2.78992 0
M  V30 5781 O 538.188 1.716 3.75003 0
M  V30 5782 H 537.529 0.47778 0.461109 0
M  V30 5783 H 540.059 1.83546 0.903996 0
M  V30 5784 H 540.069 2.43051 3.27705 0
M  V30 5785 H 538.744 3.30425 2.52572 0
M  V30 5786 H 537.321 1.66267 3.33781 0
M  V30 5787 N 539.506 -0.963266 1.24736 0
M  V30 5788 C 540.416 -2.09246 1.06082 0
M  V30 5789 C 541.432 -1.74 0.000363101 0
M  V30 5790 O 542.608 -2.0041 0.199479 0
M  V30 5791 C 539.673 -3.40115 0.672498 0
M  V30 5792 C 538.734 -3.89282 1.80993 0
M  V30 5793 C 537.967 -5.13905 1.44004 0
M  V30 5794 O 538.19 -5.69434 0.331835 0
M  V30 5795 O 537.124 -5.57566 2.26723 0
M  V30 5796 H 540.95 -2.27881 2.00759 0
M  V30 5797 H 538.535 -1.07649 1.03595 0
M  V30 5798 H 540.417 -4.18797 0.467668 0
M  V30 5799 H 539.092 -3.22771 -0.245102 0
M  V30 5800 H 537.999 -3.11642 2.06955 0
M  V30 5801 H 539.332 -4.1111 2.70646 0
M  V30 5802 N 540.985 -1.06182 -1.16461 0
M  V30 5803 C 541.933 -0.665716 -2.2287 0
M  V30 5804 C 542.927 0.317822 -1.66392 0
M  V30 5805 O 544.133 0.182807 -1.79069 0
M  V30 5806 H 540.508 -0.197148 -0.725697 0
M  V30 5807 H 542.479 -1.57307 -2.53569 0
M  V30 5808 C 541.228 -0.0669803 -3.47635 0
M  V30 5809 H 540.551 -0.814899 -3.91407 0
M  V30 5810 H 541.991 0.172669 -4.23648 0
M  V30 5811 C 540.45 1.18913 -3.15216 0
M  V30 5812 O 540.98 2.27723 -3.30916 0
M  V30 5813 N 539.186 1.09066 -2.69357 0
M  V30 5814 H 538.733 0.20518 -2.56782 0
M  V30 5815 H 538.691 1.93195 -2.48039 0
M  V30 5816 N 542.463 1.3308 -0.844243 0
M  V30 5817 C 543.373 2.32876 -0.283922 0
M  V30 5818 C 544.389 1.63589 0.592846 0
M  V30 5819 O 545.565 1.95205 0.495693 0
M  V30 5820 C 542.63 3.42667 0.527283 0
M  V30 5821 C 541.691 4.27664 -0.374394 0
M  V30 5822 C 540.924 5.32212 0.39819 0
M  V30 5823 O 541.147 5.46635 1.62932 0
M  V30 5824 O 540.081 6.01458 -0.2306 0
M  V30 5825 H 543.907 2.82671 -1.11045 0
M  V30 5826 H 541.492 1.36518 -0.606903 0
M  V30 5827 H 543.374 4.09652 0.988078 0
M  V30 5828 H 542.049 2.95079 1.33078 0
M  V30 5829 H 540.956 3.63526 -0.883144 0
M  V30 5830 H 542.289 4.78749 -1.1428 0
M  V30 5831 N 543.941 0.601185 1.45683 0
M  V30 5832 C 545.166 0.0982245 2.07167 0
M  V30 5833 C 545.591 -1.20546 1.44396 0
M  V30 5834 O 544.949 -1.73247 0.534347 0
M  V30 5835 C 544.997 -0.0346976 3.60583 0
M  V30 5836 O 544.101 -1.08657 3.97828 0
M  V30 5837 H 543.442 0.0711618 0.660176 0
M  V30 5838 H 545.972 0.829376 1.87036 0
M  V30 5839 H 545.982 -0.234969 4.07323 0
M  V30 5840 H 544.657 0.917265 4.05659 0
M  V30 5841 H 543.234 -0.863275 3.6277 0
M  V30 5842 N 545.419 -1.53889 0.339982 0
M  V30 5843 C 546.367 -2.26391 -0.533822 0
M  V30 5844 C 547.361 -1.28404 -1.10493 0
M  V30 5845 O 548.567 -1.46124 -1.05108 0
M  V30 5846 H 544.942 -0.727385 -0.190828 0
M  V30 5847 H 546.913 -2.98233 0.0997484 0
M  V30 5848 C 545.662 -3.04707 -1.67479 0
M  V30 5849 H 544.985 -3.79934 -1.2446 0
M  V30 5850 H 546.425 -3.58657 -2.26144 0
M  V30 5851 C 544.884 -2.13989 -2.60212 0
M  V30 5852 O 545.414 -1.73361 -3.62366 0
M  V30 5853 N 543.62 -1.79141 -2.28816 0
M  V30 5854 H 543.167 -2.12378 -1.45785 0
M  V30 5855 H 543.125 -1.18725 -2.91121 0
M  V30 5856 N 546.897 -0.0685191 -1.57451 0
M  V30 5857 C 548.146 0.600898 -1.92541 0
M  V30 5858 C 548.459 1.70967 -0.950239 0
M  V30 5859 O 549.665 2.43844 -1.19384 0
M  V30 5860 C 548.121 1.12019 -3.42023 0
M  V30 5861 C 547.729 0.0426028 -4.4798 0
M  V30 5862 C 549.473 1.76386 -3.86119 0
M  V30 5863 C 547.38 0.575759 -5.88591 0
M  V30 5864 H 546.31 0.228225 -0.71863 0
M  V30 5865 H 548.961 -0.140223 -1.82963 0
M  V30 5866 H 547.343 1.91418 -3.46663 0
M  V30 5867 H 548.517 -0.73182 -4.54952 0
M  V30 5868 H 546.832 -0.504642 -4.13331 0
M  V30 5869 H 549.429 2.17302 -4.88553 0
M  V30 5870 H 549.772 2.62255 -3.23308 0
M  V30 5871 H 550.305 1.03615 -3.84069 0
M  V30 5872 H 547.044 -0.245691 -6.55039 0
M  V30 5873 H 546.564 1.31778 -5.85145 0
M  V30 5874 H 548.243 1.0532 -6.3837 0
M  V30 5875 N 548.375 1.56261 0.205012 0
M  V30 5876 C 549.791 1.49623 0.555433 0
M  V30 5877 C 549.991 0.766719 1.86343 0
M  V30 5878 O 549.047 0.313158 2.50551 0
M  V30 5879 C 550.36 2.94253 0.619347 0
M  V30 5880 C 551.908 3.04868 0.708855 0
M  V30 5881 C 552.383 4.50888 0.803969 0
M  V30 5882 N 553.874 4.54999 0.867758 0
M  V30 5883 C 554.609 5.65284 0.96135 0
M  V30 5884 N 554.105 6.85282 1.01786 0
M  V30 5885 N 555.898 5.53174 0.997771 0
M  V30 5886 H 548.049 2.0211 -0.653094 0
M  V30 5887 H 550.312 0.919333 -0.231366 0
M  V30 5888 H 550.018 3.50643 -0.272458 0
M  V30 5889 H 549.892 3.47063 1.47741 0
M  V30 5890 H 552.279 2.48532 1.5911 0
M  V30 5891 H 552.36 2.55199 -0.175205 0
M  V30 5892 H 552.004 5.07846 -0.0738798 0
M  V30 5893 H 551.934 4.98279 1.70369 0
M  V30 5894 H 554.425 3.68588 0.833735 0
M  V30 5895 H 554.738 7.65081 1.08951 0
M  V30 5896 H 553.083 6.8796 0.986706 0
M  V30 5897 H 556.274 4.5835 0.950392 0
M  V30 5898 H 556.447 6.39151 1.06725 0
M  V30 5899 N 549.853 -0.472356 1.50355 0
M  V30 5900 C 551.083 -1.24603 1.64796 0
M  V30 5901 C 551.491 -1.86297 0.330156 0
M  V30 5902 O 550.834 -1.69934 -0.697728 0
M  V30 5903 C 550.896 -2.39578 2.68035 0
M  V30 5904 C 550.56 -1.98531 4.11624 0
M  V30 5905 C 551.557 -1.50856 4.97532 0
M  V30 5906 C 549.242 -2.0729 4.57532 0
M  V30 5907 C 551.236 -1.12481 6.27397 0
M  V30 5908 C 548.923 -1.68527 5.87403 0
M  V30 5909 C 549.921 -1.212 6.7216 0
M  V30 5910 O 549.609 -0.829728 7.99607 0
M  V30 5911 H 549.341 -0.383035 0.55701 0
M  V30 5912 H 551.895 -0.570392 1.97321 0
M  V30 5913 H 550.125 -3.10309 2.30749 0
M  V30 5914 H 551.814 -3.01544 2.71709 0
M  V30 5915 H 552.58 -1.43511 4.63281 0
M  V30 5916 H 548.459 -2.43076 3.91708 0
M  V30 5917 H 552.003 -0.754698 6.93506 0
M  V30 5918 H 547.9 -1.7553 6.21176 0
M  V30 5919 H 548.668 -0.958689 8.12866 0
M  V30 5920 N 551.331 -1.39911 -0.725443 0
M  V30 5921 C 552.577 -1.37858 -1.48738 0
M  V30 5922 C 552.91 0.0224187 -1.94187 0
M  V30 5923 O 552.185 0.989204 -1.67466 0
M  V30 5924 C 552.468 -2.3594 -2.72038 0
M  V30 5925 C 552.321 -3.85023 -2.32546 0
M  V30 5926 C 553.64 -2.31704 -3.74167 0
M  V30 5927 H 550.759 -0.502074 -0.539528 0
M  V30 5928 H 553.401 -1.70974 -0.828728 0
M  V30 5929 H 551.551 -2.0783 -3.28236 0
M  V30 5930 H 553.223 -4.2392 -1.81905 0
M  V30 5931 H 551.466 -4.01334 -1.64661 0
M  V30 5932 H 552.137 -4.49152 -3.20884 0
M  V30 5933 H 554.613 -2.5658 -3.27576 0
M  V30 5934 H 553.489 -3.02395 -4.58092 0
M  V30 5935 H 553.75 -1.3253 -4.21768 0
M  V30 5936 N 552.809 0.956637 -1.25245 0
M  V30 5937 C 554.034 1.74104 -1.12706 0
M  V30 5938 C 554.459 1.85436 0.315429 0
M  V30 5939 O 553.817 1.33334 1.22848 0
M  V30 5940 C 553.865 3.1338 -1.78396 0
M  V30 5941 O 552.969 3.98485 -1.06224 0
M  V30 5942 H 552.31 0.53476 -0.393609 0
M  V30 5943 H 554.84 1.19924 -1.65769 0
M  V30 5944 H 554.85 3.6385 -1.846 0
M  V30 5945 H 553.525 3.04448 -2.83345 0
M  V30 5946 H 552.102 3.56952 -1.07886 0
M  V30 5947 N 554.287 1.06798 1.15896 0
M  V30 5948 C 555.197 0.694564 2.24083 0
M  V30 5949 C 556.213 -0.291687 1.71538 0
M  V30 5950 O 557.389 -0.139723 2.00915 0
M  V30 5951 C 554.454 0.0921014 3.46578 0
M  V30 5952 C 553.515 1.13087 4.14137 0
M  V30 5953 C 552.748 0.557064 5.30785 0
M  V30 5954 O 552.971 -0.628623 5.66925 0
M  V30 5955 O 551.905 1.29924 5.8771 0
M  V30 5956 H 555.731 1.59663 2.58344 0
M  V30 5957 H 553.316 0.840575 1.2351 0
M  V30 5958 H 555.198 -0.241884 4.20705 0
M  V30 5959 H 553.873 -0.78337 3.14078 0
M  V30 5960 H 552.78 1.51712 3.41957 0
M  V30 5961 H 554.113 1.97805 4.50704 0
M  V30 5962 N 555.766 -1.3263 0.851289 0
M  V30 5963 C 556.696 -2.31449 0.308771 0
M  V30 5964 C 557.677 -1.59531 -0.590255 0
M  V30 5965 O 558.862 -1.87351 -0.511205 0
M  V30 5966 C 555.992 -3.43586 -0.506548 0
M  V30 5967 C 554.946 -4.26963 0.297753 0
M  V30 5968 C 554.272 -5.30831 -0.642094 0
M  V30 5969 C 555.572 -4.99643 1.52166 0
M  V30 5970 H 557.266 -2.77074 1.13447 0
M  V30 5971 H 554.812 -1.33207 0.546971 0
M  V30 5972 H 556.765 -4.11754 -0.896474 0
M  V30 5973 H 555.489 -2.96681 -1.36558 0
M  V30 5974 H 554.148 -3.60437 0.669391 0
M  V30 5975 H 553.796 -4.8018 -1.49788 0
M  V30 5976 H 553.496 -5.87501 -0.107968 0
M  V30 5977 H 555.02 -6.01862 -1.02927 0
M  V30 5978 H 556.434 -5.6051 1.20421 0
M  V30 5979 H 554.831 -5.66022 1.99347 0
M  V30 5980 H 555.901 -4.27701 2.28474 0
M  V30 5981 N 557.244 -0.608902 -1.45362 0
M  V30 5982 C 558.194 0.130616 -2.27626 0
M  V30 5983 C 559.178 0.837323 -1.37396 0
M  V30 5984 O 560.37 0.727096 -1.61376 0
M  V30 5985 C 557.499 1.12646 -3.24293 0
M  V30 5986 C 556.585 0.42052 -4.2201 0
M  V30 5987 N 556.976 -0.538569 -5.02925 0
M  V30 5988 C 555.274 0.667901 -4.40971 0
M  V30 5989 C 555.975 -0.953625 -5.7383 0
M  V30 5990 N 554.951 -0.297097 -5.42788 0
M  V30 5991 H 558.753 -0.605996 -2.87585 0
M  V30 5992 H 556.267 -0.432672 -1.5653 0
M  V30 5993 H 558.264 1.67066 -3.81961 0
M  V30 5994 H 556.924 1.86361 -2.65894 0
M  V30 5995 H 557.935 -0.915375 -5.09746 0
M  V30 5996 H 554.612 1.38963 -3.93695 0
M  V30 5997 H 556.002 -1.74473 -6.48852 0
M  V30 5998 N 558.722 1.53707 -0.348139 0
M  V30 5999 C 559.652 2.28111 0.498766 0
M  V30 6000 C 560.633 1.29851 1.09876 0
M  V30 6001 O 561.818 1.587 1.11928 0
M  V30 6002 C 558.948 3.05735 1.64753 0
M  V30 6003 C 557.902 4.11537 1.17565 0
M  V30 6004 C 557.228 4.77142 2.4133 0
M  V30 6005 C 558.528 5.21587 0.272844 0
M  V30 6006 H 560.222 2.99152 -0.121934 0
M  V30 6007 H 557.768 1.43875 -0.0600842 0
M  V30 6008 H 559.721 3.56526 2.24649 0
M  V30 6009 H 558.445 2.32354 2.2952 0
M  V30 6010 H 557.104 3.61665 0.599483 0
M  V30 6011 H 556.752 4.0035 3.04514 0
M  V30 6012 H 556.452 5.48626 2.10436 0
M  V30 6013 H 557.976 5.30719 3.01943 0
M  V30 6014 H 559.39 5.67986 0.778779 0
M  V30 6015 H 557.787 6.00074 0.0555849 0
M  V30 6016 H 558.857 4.79969 -0.689785 0
M  V30 6017 N 560.2 0.0768682 1.57412 0
M  V30 6018 C 561.428 -0.59997 1.9801 0
M  V30 6019 C 561.843 -1.62842 0.955408 0
M  V30 6020 O 561.2 -1.8241 -0.057314 0
M  V30 6021 C 561.251 -1.26401 3.38681 0
M  V30 6022 O 560.972 -0.276723 4.37225 0
M  V30 6023 C 562.473 -2.0282 3.94182 0
M  V30 6024 H 559.693 -0.162239 0.651091 0
M  V30 6025 H 562.237 0.150771 2.03943 0
M  V30 6026 H 560.392 -1.96581 3.33819 0
M  V30 6027 H 560.806 -0.753744 5.19056 0
M  V30 6028 H 562.28 -2.44667 4.94815 0
M  V30 6029 H 562.757 -2.88678 3.31001 0
M  V30 6030 H 563.363 -1.37496 4.02461 0
M  V30 6031 N 561.678 -1.56367 -0.196722 0
M  V30 6032 C 563.094 -1.49916 -0.54749 0
M  V30 6033 C 563.294 -0.77659 -1.85934 0
M  V30 6034 O 562.35 -0.32644 -2.50381 0
M  V30 6035 C 563.663 -2.94577 -0.603734 0
M  V30 6036 C 565.211 -3.05239 -0.692677 0
M  V30 6037 C 565.686 -4.51308 -0.780046 0
M  V30 6038 N 567.177 -4.55453 -0.843616 0
M  V30 6039 C 567.912 -5.65786 -0.931358 0
M  V30 6040 N 567.408 -6.85812 -0.981503 0
M  V30 6041 N 569.201 -5.53695 -0.968421 0
M  V30 6042 H 561.352 -2.01761 0.663803 0
M  V30 6043 H 563.615 -0.918094 0.236238 0
M  V30 6044 H 563.321 -3.50494 0.29105 0
M  V30 6045 H 563.195 -3.47841 -1.45898 0
M  V30 6046 H 565.582 -2.49372 -1.57789 0
M  V30 6047 H 565.663 -2.55103 0.188736 0
M  V30 6048 H 565.307 -5.078 0.100811 0
M  V30 6049 H 565.237 -4.99176 -1.67724 0
M  V30 6050 H 567.728 -3.69025 -0.814176 0
M  V30 6051 H 568.041 -7.65648 -1.04892 0
M  V30 6052 H 566.386 -6.88474 -0.950208 0
M  V30 6053 H 569.577 -4.58848 -0.926072 0
M  V30 6054 H 569.75 -6.39708 -1.03334 0
M  V30 6055 N 563.156 0.464375 -1.50603 0
M  V30 6056 C 564.086 1.56944 -1.72889 0
M  V30 6057 C 565.067 1.59979 -0.577997 0
M  V30 6058 O 566.252 1.76138 -0.817855 0
M  V30 6059 C 563.382 2.95225 -1.8292 0
M  V30 6060 C 562.336 3.07056 -2.98162 0
M  V30 6061 C 561.662 4.47051 -2.93343 0
M  V30 6062 C 562.962 2.83648 -4.38567 0
M  V30 6063 H 564.656 1.38547 -2.65415 0
M  V30 6064 H 562.202 0.665082 -1.27721 0
M  V30 6065 H 564.155 3.72467 -1.97095 0
M  V30 6066 H 562.879 3.14793 -0.870209 0
M  V30 6067 H 561.538 2.32248 -2.83648 0
M  V30 6068 H 561.186 4.63547 -1.95276 0
M  V30 6069 H 560.886 4.55902 -3.70712 0
M  V30 6070 H 562.41 5.26304 -3.09575 0
M  V30 6071 H 563.824 3.50636 -4.53572 0
M  V30 6072 H 562.221 3.03937 -5.17438 0
M  V30 6073 H 563.291 1.79451 -4.50472 0
M  V30 6074 N 564.634 1.40294 0.718013 0
M  V30 6075 C 565.581 1.40367 1.8321 0
M  V30 6076 C 566.551 0.260952 1.64037 0
M  V30 6077 O 567.736 0.458648 1.85205 0
M  V30 6078 C 564.876 1.26965 3.20895 0
M  V30 6079 C 563.989 2.50922 3.51656 0
M  V30 6080 C 563.124 2.29981 4.78834 0
M  V30 6081 C 562.163 3.49527 5.02491 0
M  V30 6082 N 561.3 3.27796 6.20882 0
M  V30 6083 H 566.14 2.35593 1.82482 0
M  V30 6084 H 563.677 1.17012 0.891444 0
M  V30 6085 H 565.635 1.17202 4.00399 0
M  V30 6086 H 564.265 0.353591 3.20858 0
M  V30 6087 H 563.317 2.71223 2.66725 0
M  V30 6088 H 564.629 3.39913 3.65048 0
M  V30 6089 H 563.783 2.17558 5.66351 0
M  V30 6090 H 562.522 1.38411 4.67647 0
M  V30 6091 H 561.527 3.6243 4.1343 0
M  V30 6092 H 562.752 4.42021 5.15553 0
M  V30 6093 H 560.698 2.38906 6.1095 0
M  V30 6094 H 560.615 4.10351 6.34939 0
M  V30 6095 H 561.883 3.19101 7.11193 0
M  V30 6096 N 566.112 -0.949982 1.2575 0
M  V30 6097 C 567.36 -1.6918 1.10555 0
M  V30 6098 C 567.681 -1.91773 -0.353298 0
M  V30 6099 O 566.951 -1.50814 -1.25027 0
M  V30 6100 H 565.531 -0.626952 0.406129 0
M  V30 6101 H 568.193 -1.1419 1.57945 0
M  V30 6102 H 567.289 -2.66915 1.61749 0
M  V30 6103 N 567.59 -1.07411 -1.15328 0
M  V30 6104 C 568.818 -0.818782 -1.90009 0
M  V30 6105 C 569.233 0.628072 -1.78047 0
M  V30 6106 O 568.59 1.43085 -1.13282 0
M  V30 6107 C 568.641 -1.21874 -3.40337 0
M  V30 6108 O 568.362 -2.60883 -3.51954 0
M  V30 6109 C 569.863 -0.992796 -4.3204 0
M  V30 6110 H 567.083 -0.296007 -0.60218 0
M  V30 6111 H 569.627 -1.43073 -1.46117 0
M  V30 6112 H 567.782 -0.651103 -3.81889 0
M  V30 6113 H 568.196 -2.77216 -4.45255 0
M  V30 6114 H 569.67 -1.32215 -5.35932 0
M  V30 6115 H 570.147 0.0708331 -4.39143 0
M  V30 6116 H 570.753 -1.54537 -3.9623 0
M  V30 6117 N 569.068 1.32177 -0.85831 0
M  V30 6118 C 569.978 2.32561 -0.308606 0
M  V30 6119 C 570.994 1.64209 0.575462 0
M  V30 6120 O 572.17 1.95719 0.474961 0
M  V30 6121 C 569.235 3.43207 0.490909 0
M  V30 6122 C 568.296 4.27243 -0.419733 0
M  V30 6123 C 567.529 5.32605 0.341719 0
M  V30 6124 O 567.752 5.48332 1.57125 0
M  V30 6125 O 566.686 6.0118 -0.294379 0
M  V30 6126 H 570.512 2.81477 -1.14037 0
M  V30 6127 H 568.097 1.35866 -0.621349 0
M  V30 6128 H 569.979 4.10677 0.944574 0
M  V30 6129 H 568.654 2.96474 1.29941 0
M  V30 6130 H 567.561 3.62569 -0.921652 0
M  V30 6131 H 568.894 4.7751 -1.19352 0
M  V30 6132 N 570.547 0.616602 1.45037 0
M  V30 6133 C 571.795 0.115103 2.01772 0
M  V30 6134 C 572.116 -1.2622 1.48639 0
M  V30 6135 O 571.386 -1.83563 0.684199 0
M  V30 6136 H 569.966 0.0395607 0.745952 0
M  V30 6137 H 572.628 0.800032 1.77723 0
M  V30 6138 H 571.724 0.0717274 3.12018 0
M  V30 6139 N 572.025 -1.5352 0.356285 0
M  V30 6140 C 573.273 -2.00719 -0.235837 0
M  V30 6141 C 573.594 -1.24551 -1.5004 0
M  V30 6142 O 572.864 -0.356185 -1.92635 0
M  V30 6143 H 571.444 -0.741542 -0.0901366 0
M  V30 6144 H 574.106 -1.88887 0.480378 0
M  V30 6145 H 573.202 -3.08551 -0.469357 0
M  V30 6146 N 573.503 -0.0852151 -1.57369 0
M  V30 6147 C 574.731 0.58946 -1.98325 0
M  V30 6148 C 575.146 1.62333 -0.96403 0
M  V30 6149 O 574.503 1.82438 0.0476395 0
M  V30 6150 C 574.554 1.24604 -3.39347 0
M  V30 6151 O 574.275 0.253532 -4.37366 0
M  V30 6152 C 575.776 2.00726 -3.95252 0
M  V30 6153 H 572.996 0.158783 -0.651942 0
M  V30 6154 H 575.54 -0.161584 -2.03861 0
M  V30 6155 H 573.695 1.94808 -3.34856 0
M  V30 6156 H 574.109 0.726207 -5.19448 0
M  V30 6157 H 575.583 2.42039 -4.96106 0
M  V30 6158 H 576.06 2.86919 -3.32527 0
M  V30 6159 H 576.666 1.3536 -4.03185 0
M  V30 6160 N 574.981 1.5647 0.188427 0
M  V30 6161 C 576.211 1.84863 0.922463 0
M  V30 6162 C 576.619 0.666413 1.77075 0
M  V30 6163 O 575.962 -0.374044 1.79852 0
M  V30 6164 C 576.024 3.07447 1.86324 0
M  V30 6165 C 575.688 4.41066 1.19625 0
M  V30 6166 C 576.685 5.16767 0.569946 0
M  V30 6167 C 574.37 4.87802 1.19811 0
M  V30 6168 C 576.364 6.37384 -0.045594 0
M  V30 6169 C 574.051 6.08353 0.57874 0
M  V30 6170 C 575.049 6.82987 -0.0420259 0
M  V30 6171 O 574.737 8.01254 -0.651675 0
M  V30 6172 H 574.469 0.61784 0.274316 0
M  V30 6173 H 577.023 2.04437 0.198613 0
M  V30 6174 H 575.253 2.83774 2.62696 0
M  V30 6175 H 576.942 3.2243 2.46564 0
M  V30 6176 H 577.708 4.81749 0.560601 0
M  V30 6177 H 573.587 4.29662 1.67069 0
M  V30 6178 H 577.131 6.95578 -0.530731 0
M  V30 6179 H 573.028 6.42838 0.58561 0
M  V30 6180 H 573.796 8.16655 -0.549236 0
M  V30 6181 N 576.459 -0.456382 1.50847 0
M  V30 6182 C 577.687 -1.23026 1.66349 0
M  V30 6183 C 578.102 -1.85473 0.352868 0
M  V30 6184 O 577.459 -1.69885 -0.666739 0
M  V30 6185 C 577.51 -2.32827 2.76539 0
M  V30 6186 O 577.231 -1.72938 4.02522 0
M  V30 6187 C 578.732 -3.23448 3.03144 0
M  V30 6188 H 575.952 -0.371527 0.558756 0
M  V30 6189 H 578.496 -0.543082 1.97157 0
M  V30 6190 H 576.651 -2.97294 2.48384 0
M  V30 6191 H 577.065 -2.45357 4.63573 0
M  V30 6192 H 578.539 -3.96669 3.83872 0
M  V30 6193 H 579.016 -3.83094 2.14793 0
M  V30 6194 H 579.622 -2.64702 3.32886 0
M  V30 6195 N 577.937 -1.40673 -0.710563 0
M  V30 6196 C 579.184 -1.39222 -1.47049 0
M  V30 6197 C 579.512 0.0037691 -1.945 0
M  V30 6198 O 578.767 0.989224 -1.68857 0
M  V30 6199 C 579.066 -2.33253 -2.70791 0
M  V30 6200 C 578.732 -3.80406 -2.42079 0
M  V30 6201 C 577.394 -4.20496 -2.33959 0
M  V30 6202 C 579.746 -4.73375 -2.18094 0
M  V30 6203 C 577.074 -5.51584 -1.99929 0
M  V30 6204 C 579.426 -6.04768 -1.85576 0
M  V30 6205 C 578.09 -6.43895 -1.75941 0
M  V30 6206 H 577.36 -0.509449 -0.538092 0
M  V30 6207 H 580.007 -1.73363 -0.81348 0
M  V30 6208 H 578.312 -1.92314 -3.41354 0
M  V30 6209 H 580.009 -2.29412 -3.28894 0
M  V30 6210 H 576.599 -3.48645 -2.49288 0
M  V30 6211 H 580.783 -4.43217 -2.23321 0
M  V30 6212 H 576.039 -5.80797 -1.91011 0
M  V30 6213 H 580.213 -6.76318 -1.66033 0
M  V30 6214 H 577.84 -7.45387 -1.4934 0
M  V30 6215 N 579.415 0.9433 -1.26252 0
M  V30 6216 C 580.345 2.05902 -1.10122 0
M  V30 6217 C 581.326 1.70099 -0.00700552 0
M  V30 6218 O 582.511 1.93377 -0.178641 0
M  V30 6219 C 579.641 3.39516 -0.731175 0
M  V30 6220 C 578.595 3.89372 -1.77688 0
M  V30 6221 C 577.921 5.19613 -1.26122 0
M  V30 6222 C 579.221 4.14489 -3.17799 0
M  V30 6223 H 580.915 2.19655 -2.03451 0
M  V30 6224 H 578.461 1.05548 -0.979576 0
M  V30 6225 H 580.414 4.17031 -0.605215 0
M  V30 6226 H 579.138 3.25733 0.23782 0
M  V30 6227 H 577.797 3.14036 -1.89148 0
M  V30 6228 H 577.445 5.02208 -0.282128 0
M  V30 6229 H 577.145 5.53939 -1.96023 0
M  V30 6230 H 578.669 5.99713 -1.14789 0
M  V30 6231 H 580.083 4.82625 -3.09428 0
M  V30 6232 H 578.48 4.60094 -3.85271 0
M  V30 6233 H 579.55 3.20347 -3.64014 0
M  V30 6234 N 580.893 1.08022 1.14757 0
M  V30 6235 C 582.139 0.808705 1.85978 0
M  V30 6236 C 582.472 -0.663764 1.82504 0
M  V30 6237 O 581.747 -1.48765 1.25296 0
M  V30 6238 C 582.03 1.32623 3.34788 0
M  V30 6239 C 581.883 2.86375 3.46856 0
M  V30 6240 C 583.202 0.948291 4.29762 0
M  V30 6241 H 580.321 0.295244 0.675278 0
M  V30 6242 H 582.963 1.33917 1.34783 0
M  V30 6243 H 581.113 0.875002 3.78518 0
M  V30 6244 H 582.785 3.39839 3.11941 0
M  V30 6245 H 581.028 3.24232 2.88194 0
M  V30 6246 H 581.699 3.17658 4.51439 0
M  V30 6247 H 584.175 1.33722 3.94028 0
M  V30 6248 H 583.051 1.33765 5.32352 0
M  V30 6249 H 583.312 -0.145094 4.41862 0
M  V30 6250 N 582.371 -1.3172 0.865308 0
M  V30 6251 C 583.596 -2.01591 0.487415 0
M  V30 6252 C 584.021 -1.6455 -0.911307 0
M  V30 6253 O 583.379 -0.851689 -1.6005 0
M  V30 6254 C 583.427 -3.54759 0.646401 0
M  V30 6255 O 582.531 -4.11185 -0.316284 0
M  V30 6256 H 581.872 -0.634884 0.194468 0
M  V30 6257 H 584.402 -1.68024 1.16744 0
M  V30 6258 H 584.412 -4.04438 0.537932 0
M  V30 6259 H 583.087 -3.8106 1.66632 0
M  V30 6260 H 581.664 -3.72543 -0.163162 0
M  V30 6261 N 583.85 -0.624285 -1.44708 0
M  V30 6262 C 584.798 0.0969952 -2.32398 0
M  V30 6263 C 585.792 0.842762 -1.46949 0
M  V30 6264 O 586.998 0.756436 -1.63334 0
M  V30 6265 H 583.373 0.0501306 -0.750327 0
M  V30 6266 H 585.344 -0.660767 -2.90992 0
M  V30 6267 C 584.093 1.06967 -3.30837 0
M  V30 6268 H 583.416 0.505242 -3.96595 0
M  V30 6269 H 584.856 1.54397 -3.94889 0
M  V30 6270 C 583.315 2.15153 -2.5925 0
M  V30 6271 O 583.845 3.23139 -2.3863 0
M  V30 6272 N 582.051 1.90898 -2.19103 0
M  V30 6273 H 581.598 1.03086 -2.36074 0
M  V30 6274 H 581.556 2.63485 -1.71531 0
M  V30 6275 N 585.328 1.53329 -0.364422 0
M  V30 6276 C 586.553 2.06132 0.229033 0
M  V30 6277 C 586.978 1.23625 1.41769 0
M  V30 6278 O 586.336 0.255038 1.79497 0
M  V30 6279 C 586.384 3.55544 0.60174 0
M  V30 6280 O 585.488 3.75771 1.69912 0
M  V30 6281 H 584.829 0.663148 0.0336213 0
M  V30 6282 H 587.359 1.97758 -0.524689 0
M  V30 6283 H 587.369 3.98549 0.873073 0
M  V30 6284 H 586.044 4.15039 -0.267421 0
M  V30 6285 H 584.621 3.44663 1.42343 0
M  V30 6286 N 586.806 0.0935595 1.57322 0
M  V30 6287 C 588.083 -0.612692 1.85756 0
M  V30 6288 C 588.463 -1.86439 0.99013 0
M  V30 6289 O 587.811 -2.28416 0.0621362 0
M  V30 6290 C 588.021 -0.929547 3.36393 0
M  V30 6291 C 589.369 -1.29366 4.04413 0
M  V30 6292 O 590.393 -1.02061 3.41265 0
M  V30 6293 O 589.252 -1.80498 5.15832 0
M  V30 6294 H 586.346 -0.306444 0.768128 0
M  V30 6295 H 588.892 0.126141 1.69231 0
M  V30 6296 H 587.664 -0.0414766 3.91278 0
M  V30 6297 H 587.287 -1.72441 3.5826 0
M  V30 6298 N 588.284 -1.56567 -0.180126 0
M  V30 6299 C 589.53 -1.81761 -0.899497 0
M  V30 6300 C 589.863 -0.670015 -1.82276 0
M  V30 6301 O 589.138 0.328575 -1.91705 0
M  V30 6302 C 589.421 -3.17296 -1.7028 0
M  V30 6303 C 589.274 -4.4257 -0.803255 0
M  V30 6304 C 590.593 -3.49678 -2.67233 0
M  V30 6305 H 587.712 -0.661192 -0.325567 0
M  V30 6306 H 590.354 -1.89272 -0.16612 0
M  V30 6307 H 588.504 -3.11023 -2.32802 0
M  V30 6308 H 590.176 -4.60902 -0.191585 0
M  V30 6309 H 588.419 -4.33658 -0.110796 0
M  V30 6310 H 589.09 -5.33935 -1.40064 0
M  V30 6311 H 591.566 -3.56347 -2.14839 0
M  V30 6312 H 590.442 -4.45605 -3.20511 0
M  V30 6313 H 590.703 -2.73932 -3.47007 0
M  V30 6314 N 589.762 0.448376 -1.51087 0
M  V30 6315 C 590.71 1.56407 -1.72161 0
M  V30 6316 C 591.704 1.58878 -0.587721 0
M  V30 6317 O 592.91 1.62755 -0.768822 0
M  V30 6318 H 589.285 0.519423 -0.543786 0
M  V30 6319 H 591.256 1.35803 -2.65707 0
M  V30 6320 C 590.005 2.94163 -1.85373 0
M  V30 6321 H 589.328 2.9299 -2.72024 0
M  V30 6322 H 590.768 3.71625 -2.04135 0
M  V30 6323 C 589.227 3.31317 -0.610803 0
M  V30 6324 O 589.757 4.00985 0.239636 0
M  V30 6325 N 587.963 2.86966 -0.458127 0
M  V30 6326 H 587.51 2.30443 -1.15124 0
M  V30 6327 H 587.468 3.12188 0.372289 0
M  V30 6328 N 591.24 1.41047 0.703093 0
M  V30 6329 C 592.203 1.42036 1.79884 0
M  V30 6330 C 593.203 0.312153 1.57741 0
M  V30 6331 O 594.393 0.571672 1.64553 0
M  V30 6332 C 591.525 1.22437 3.18154 0
M  V30 6333 H 592.718 2.39572 1.80403 0
M  V30 6334 H 590.271 1.27079 0.909977 0
M  V30 6335 H 591.006 0.257112 3.23279 0
M  V30 6336 H 590.791 2.02723 3.35627 0
M  V30 6337 H 592.281 1.25946 3.98155 0
M  V30 6338 N 592.718 -0.936591 1.26751 0
M  V30 6339 C 593.681 -2.01752 1.08761 0
M  V30 6340 C 594.681 -1.60763 0.0344435 0
M  V30 6341 O 595.871 -1.71963 0.278258 0
M  V30 6342 C 593.003 -3.34543 0.655271 0
M  V30 6343 H 594.196 -2.19143 2.04735 0
M  V30 6344 H 591.749 -1.11618 1.09413 0
M  V30 6345 H 592.484 -3.22851 -0.30626 0
M  V30 6346 H 592.269 -3.65647 1.41578 0
M  V30 6347 H 593.759 -4.13944 0.551378 0
M  V30 6348 N 594.196 -1.08629 -1.14182 0
M  V30 6349 C 595.445 -0.812271 -1.84621 0
M  V30 6350 C 595.758 0.664313 -1.83973 0
M  V30 6351 O 596.964 1.05357 -2.50224 0
M  V30 6352 C 595.42 -1.4031 -3.31423 0
M  V30 6353 C 595.028 -2.91164 -3.40481 0
M  V30 6354 C 596.772 -1.20767 -4.06959 0
M  V30 6355 C 594.679 -3.43373 -4.81507 0
M  V30 6356 H 593.609 -0.30019 -0.691666 0
M  V30 6357 H 596.26 -1.30798 -1.28701 0
M  V30 6358 H 594.642 -0.835096 -3.87094 0
M  V30 6359 H 595.816 -3.5412 -2.94848 0
M  V30 6360 H 594.131 -3.09646 -2.78403 0
M  V30 6361 H 596.728 -1.57237 -5.11058 0
M  V30 6362 H 597.071 -0.147664 -4.16038 0
M  V30 6363 H 597.604 -1.74274 -3.57594 0
M  V30 6364 H 594.343 -4.48958 -4.77616 0
M  V30 6365 H 593.863 -2.85176 -5.27669 0
M  V30 6366 H 595.542 -3.40095 -5.50404 0
M  V30 6367 N 595.674 1.31259 -0.872281 0
M  V30 6368 C 596.637 2.26744 -0.334656 0
M  V30 6369 C 597.637 1.52307 0.515681 0
M  V30 6370 O 598.827 1.71148 0.324656 0
M  V30 6371 C 595.959 3.36841 0.524482 0
M  V30 6372 H 597.152 2.75812 -1.17762 0
M  V30 6373 H 594.705 1.42232 -0.648064 0
M  V30 6374 H 595.44 2.93069 1.38855 0
M  V30 6375 H 595.225 3.92009 -0.0844299 0
M  V30 6376 H 596.715 4.07944 0.892838 0
M  V30 6377 N 597.152 0.631951 1.44375 0
M  V30 6378 C 598.399 0.136767 2.02038 0
M  V30 6379 C 598.727 -1.24168 1.49709 0
M  V30 6380 O 597.982 -1.83809 0.671763 0
M  V30 6381 C 598.281 0.0735861 3.57324 0
M  V30 6382 C 597.947 1.39092 4.28911 0
M  V30 6383 C 596.609 1.75171 4.48184 0
M  V30 6384 C 598.961 2.26042 4.69632 0
M  V30 6385 C 596.289 2.97907 5.05439 0
M  V30 6386 C 598.641 3.4805 5.28246 0
M  V30 6387 C 597.305 3.84351 5.45738 0
M  V30 6388 H 596.575 0.0500466 0.739308 0
M  V30 6389 H 599.222 0.818429 1.7313 0
M  V30 6390 H 597.527 -0.691449 3.8565 0
M  V30 6391 H 599.224 -0.326091 3.99672 0
M  V30 6392 H 595.814 1.10015 4.1424 0
M  V30 6393 H 599.998 1.99463 4.54454 0
M  V30 6394 H 595.254 3.26108 5.17169 0
M  V30 6395 H 599.428 4.15658 5.5875 0
M  V30 6396 H 597.055 4.79538 5.8987 0
M  V30 6397 N 598.631 -1.53133 0.372548 0
M  V30 6398 C 599.579 -2.27473 -0.485681 0
M  V30 6399 C 600.573 -1.30719 -1.07745 0
M  V30 6400 O 601.779 -1.48321 -1.01985 0
M  V30 6401 H 598.154 -0.731269 -0.175356 0
M  V30 6402 H 600.125 -2.97955 0.162986 0
M  V30 6403 C 598.874 -3.08191 -1.60978 0
M  V30 6404 H 598.197 -3.82488 -1.16373 0
M  V30 6405 H 599.637 -3.63373 -2.18485 0
M  V30 6406 C 598.096 -2.19461 -2.55614 0
M  V30 6407 O 598.626 -1.81008 -3.58607 0
M  V30 6408 N 596.832 -1.83955 -2.24965 0
M  V30 6409 H 596.379 -2.15423 -1.41247 0
M  V30 6410 H 596.337 -1.24874 -2.88538 0
M  V30 6411 N 600.109 -0.101901 -1.5727 0
M  V30 6412 C 601.355 0.561027 -1.94885 0
M  V30 6413 C 601.688 1.6741 -0.984258 0
M  V30 6414 O 600.963 1.94491 -0.0184767 0
M  V30 6415 C 601.246 1.10982 -3.42571 0
M  V30 6416 C 601.099 0.00133418 -4.498 0
M  V30 6417 C 602.418 2.00608 -3.9172 0
M  V30 6418 H 599.537 0.202467 -0.708644 0
M  V30 6419 H 602.179 -0.173992 -1.89202 0
M  V30 6420 H 600.329 1.73621 -3.47546 0
M  V30 6421 H 602.001 -0.63322 -4.56933 0
M  V30 6422 H 600.244 -0.664143 -4.28686 0
M  V30 6423 H 600.915 0.426253 -5.50352 0
M  V30 6424 H 603.391 1.47864 -3.88941 0
M  V30 6425 H 602.267 2.3593 -4.95609 0
M  V30 6426 H 602.528 2.92608 -3.3141 0
M  V30 6427 N 601.587 1.56661 0.17182 0
M  V30 6428 C 602.817 1.85831 0.902804 0
M  V30 6429 C 603.225 0.685157 1.76358 0
M  V30 6430 O 602.568 -0.354947 1.80238 0
M  V30 6431 C 602.63 3.09406 1.83053 0
M  V30 6432 C 602.294 4.4231 1.1494 0
M  V30 6433 C 603.291 5.17342 0.515104 0
M  V30 6434 C 600.976 4.89045 1.14631 0
M  V30 6435 C 602.97 6.37299 -0.113194 0
M  V30 6436 C 600.657 6.08933 0.514184 0
M  V30 6437 C 601.655 6.82904 -0.114463 0
M  V30 6438 O 601.343 8.00518 -0.736622 0
M  V30 6439 H 601.075 0.620715 0.267748 0
M  V30 6440 H 603.629 2.04637 0.176918 0
M  V30 6441 H 601.859 2.86544 2.59672 0
M  V30 6442 H 603.548 3.25027 2.4313 0
M  V30 6443 H 604.314 4.82317 0.509474 0
M  V30 6444 H 600.193 4.31409 1.62502 0
M  V30 6445 H 603.737 6.94976 -0.604477 0
M  V30 6446 H 599.634 6.43423 0.517395 0
M  V30 6447 H 600.402 8.16027 -0.635822 0
M  V30 6448 N 603.065 -0.440357 1.51323 0
M  V30 6449 C 604.311 -1.19181 1.64085 0
M  V30 6450 C 604.644 -1.90936 0.354575 0
M  V30 6451 O 603.919 -1.8347 -0.645675 0
M  V30 6452 C 604.202 -2.2112 2.84215 0
M  V30 6453 C 604.055 -1.53468 4.22809 0
M  V30 6454 C 605.374 -3.22133 2.99864 0
M  V30 6455 H 602.493 -0.431924 0.597169 0
M  V30 6456 H 605.135 -0.481443 1.83799 0
M  V30 6457 H 603.285 -2.81703 2.67537 0
M  V30 6458 H 604.957 -0.962455 4.51148 0
M  V30 6459 H 603.2 -0.837086 4.25647 0
M  V30 6460 H 603.871 -2.27694 5.02852 0
M  V30 6461 H 606.347 -2.71601 3.15233 0
M  V30 6462 H 605.223 -3.90756 3.85488 0
M  V30 6463 H 605.484 -3.88061 2.11804 0
M  V30 6464 N 604.543 -1.41418 -0.695603 0
M  V30 6465 C 605.491 -1.43467 -1.83084 0
M  V30 6466 C 606.485 -0.312719 -1.66489 0
M  V30 6467 O 607.691 -0.484744 -1.7335 0
M  V30 6468 H 604.066 -0.448891 -0.603325 0
M  V30 6469 H 606.037 -2.39144 -1.78473 0
M  V30 6470 C 604.786 -1.3337 -3.21104 0
M  V30 6471 H 604.109 -2.18989 -3.3449 0
M  V30 6472 H 605.549 -1.38865 -4.00615 0
M  V30 6473 C 604.008 -0.0460484 -3.36869 0
M  V30 6474 O 604.538 0.909258 -3.91274 0
M  V30 6475 N 602.744 0.0300222 -2.90584 0
M  V30 6476 H 602.291 -0.748129 -2.46497 0
M  V30 6477 H 602.249 0.890991 -3.01511 0
M  V30 6478 N 606.021 0.929856 -1.27246 0
M  V30 6479 C 607.249 1.71144 -1.16265 0
M  V30 6480 C 607.664 1.867 0.280786 0
M  V30 6481 O 607.021 1.38249 1.19136 0
M  V30 6482 C 607.072 3.11222 -1.83911 0
M  V30 6483 O 606.793 2.96398 -3.22614 0
M  V30 6484 C 608.294 4.05541 -1.79028 0
M  V30 6485 H 605.514 0.535499 -0.404328 0
M  V30 6486 H 608.058 1.16492 -1.68077 0
M  V30 6487 H 606.213 3.6274 -1.36009 0
M  V30 6488 H 606.627 3.8494 -3.56261 0
M  V30 6489 H 608.101 5.01351 -2.30978 0
M  V30 6490 H 608.578 4.32589 -0.759168 0
M  V30 6491 H 609.184 3.59947 -2.26535 0
M  V30 6492 N 607.499 1.09233 1.13605 0
M  V30 6493 C 608.446 0.729921 2.18954 0
M  V30 6494 C 609.416 -0.287916 1.63586 0
M  V30 6495 O 610.601 -0.170003 1.90041 0
M  V30 6496 C 607.741 0.154489 3.44754 0
M  V30 6497 C 606.854 1.22613 4.14234 0
M  V30 6498 C 605.989 0.613657 5.27644 0
M  V30 6499 C 605.028 1.66674 5.8897 0
M  V30 6500 N 604.165 1.07545 6.93814 0
M  V30 6501 H 609.005 1.63257 2.49302 0
M  V30 6502 H 606.542 0.815693 1.22413 0
M  V30 6503 H 608.5 -0.196923 4.16735 0
M  V30 6504 H 607.13 -0.711433 3.14863 0
M  V30 6505 H 606.182 1.69485 3.40557 0
M  V30 6506 H 607.494 2.0238 4.55899 0
M  V30 6507 H 606.648 0.210976 6.06333 0
M  V30 6508 H 605.387 -0.215584 4.87223 0
M  V30 6509 H 604.392 2.07899 5.08978 0
M  V30 6510 H 605.617 2.49861 6.31464 0
M  V30 6511 H 603.563 0.267451 6.55455 0
M  V30 6512 H 603.48 1.81011 7.3401 0
M  V30 6513 H 604.748 0.698906 7.7636 0
M  V30 6514 N 608.977 -1.30795 0.87923 0
M  V30 6515 C 610.388 -1.78535 0.546093 0
M  V30 6516 C 610.739 -1.72354 -0.937467 0
M  V30 6517 O 609.864 -1.2969 -1.73233 0
M  V30 6518 C 610.459 -3.24181 0.9845 0
M  V30 6519 C 609.018 -3.69779 0.702871 0
M  V30 6520 C 608.165 -2.51377 1.17068 0
M  V30 6521 H 611.116 -1.17746 1.06403 0
M  V30 6522 H 611.137 -3.79227 0.311045 0
M  V30 6523 H 610.649 -3.28647 2.06429 0
M  V30 6524 H 608.75 -3.70806 -0.365166 0
M  V30 6525 H 608.863 -4.61507 1.28639 0
M  V30 6526 H 607.227 -2.47768 0.590172 0
M  V30 6527 H 608.01 -2.58584 2.25808 0
M  V30 6528 N 610.455 -0.639598 -1.44038 0
M  V30 6529 C 611.365 0.0612377 -2.3452 0
M  V30 6530 C 612.381 0.826717 -1.53106 0
M  V30 6531 O 613.557 0.777059 -1.85806 0
M  V30 6532 C 610.622 1.02492 -3.31204 0
M  V30 6533 C 609.683 0.25788 -4.28525 0
M  V30 6534 C 608.916 1.17566 -5.2059 0
M  V30 6535 O 609.139 2.41461 -5.16771 0
M  V30 6536 O 608.073 0.655407 -5.98321 0
M  V30 6537 H 611.899 -0.68318 -2.95916 0
M  V30 6538 H 609.484 -0.399784 -1.43952 0
M  V30 6539 H 611.366 1.57911 -3.90694 0
M  V30 6540 H 610.041 1.7498 -2.7233 0
M  V30 6541 H 608.948 -0.339566 -3.72556 0
M  V30 6542 H 610.281 -0.427154 -4.90343 0
M  V30 6543 N 611.933 1.52934 -0.380664 0
M  V30 6544 C 613.182 2.00651 0.205477 0
M  V30 6545 C 613.495 1.27164 1.48623 0
M  V30 6546 O 614.701 1.65547 2.15189 0
M  V30 6547 C 613.157 3.57479 0.416726 0
M  V30 6548 C 612.765 4.39857 -0.850268 0
M  V30 6549 C 614.509 4.13509 0.959702 0
M  V30 6550 C 612.416 5.88269 -0.607773 0
M  V30 6551 H 611.346 0.749684 0.0805614 0
M  V30 6552 H 613.997 1.76508 -0.501732 0
M  V30 6553 H 612.379 3.77836 1.18557 0
M  V30 6554 H 613.553 4.31269 -1.62307 0
M  V30 6555 H 611.868 3.95005 -1.31756 0
M  V30 6556 H 614.465 5.22039 1.15669 0
M  V30 6557 H 614.808 3.69054 1.92626 0
M  V30 6558 H 615.341 3.9701 0.250645 0
M  V30 6559 H 612.08 6.3703 -1.54509 0
M  V30 6560 H 611.6 5.99667 0.126247 0
M  V30 6561 H 613.279 6.46558 -0.239014 0
M  V30 6562 N 613.412 0.11024 1.57214 0
M  V30 6563 C 614.342 -0.840002 2.17867 0
M  V30 6564 C 615.323 -1.28352 1.11624 0
M  V30 6565 O 616.508 -1.3477 1.39824 0
M  V30 6566 C 613.638 -2.09349 2.77111 0
M  V30 6567 C 612.592 -1.78807 3.8886 0
M  V30 6568 C 611.918 -3.11112 4.34872 0
M  V30 6569 C 613.218 -1.0632 5.11364 0
M  V30 6570 H 614.912 -0.334608 2.97524 0
M  V30 6571 H 612.458 -0.159502 1.43114 0
M  V30 6572 H 614.411 -2.76275 3.18198 0
M  V30 6573 H 613.135 -2.62198 1.9473 0
M  V30 6574 H 611.794 -1.14273 3.48335 0
M  V30 6575 H 611.442 -3.61877 3.49362 0
M  V30 6576 H 611.142 -2.91453 5.10224 0
M  V30 6577 H 612.666 -3.79171 4.78604 0
M  V30 6578 H 614.08 -1.63383 5.49526 0
M  V30 6579 H 612.477 -0.967876 5.92243 0
M  V30 6580 H 613.547 -0.0484569 4.84876 0
M  V30 6581 N 614.89 -1.56749 -0.16351 0
M  V30 6582 C 616.118 -1.86577 -0.894233 0
M  V30 6583 C 616.533 -0.696543 -1.75481 0
M  V30 6584 O 615.89 0.334161 -1.79415 0
M  V30 6585 C 615.941 -3.15508 -1.76456 0
M  V30 6586 O 615.662 -4.27926 -0.938685 0
M  V30 6587 C 617.163 -3.58737 -2.60428 0
M  V30 6588 H 614.383 -0.618829 -0.259405 0
M  V30 6589 H 616.927 -2.03863 -0.161259 0
M  V30 6590 H 615.082 -3.00025 -2.45079 0
M  V30 6591 H 615.496 -5.01546 -1.53465 0
M  V30 6592 H 616.97 -4.51832 -3.17099 0
M  V30 6593 H 617.447 -2.83229 -3.35675 0
M  V30 6594 H 618.053 -3.76858 -1.97125 0
M  V30 6595 N 616.368 0.432326 -1.51554 0
M  V30 6596 C 617.598 1.2019 -1.68042 0
M  V30 6597 C 618.006 1.85356 -0.379434 0
M  V30 6598 O 617.349 1.71724 0.652427 0
M  V30 6599 C 617.411 2.32387 -2.74292 0
M  V30 6600 C 617.075 1.87548 -4.16743 0
M  V30 6601 C 618.072 1.37611 -5.01357 0
M  V30 6602 C 615.757 1.95087 -4.62868 0
M  V30 6603 C 617.751 0.958069 -6.30159 0
M  V30 6604 C 615.438 1.52894 -5.91664 0
M  V30 6605 C 616.436 1.03336 -6.75137 0
M  V30 6606 O 616.124 0.617435 -8.01525 0
M  V30 6607 H 615.856 0.368132 -0.56697 0
M  V30 6608 H 618.41 0.517875 -1.98764 0
M  V30 6609 H 616.64 3.04082 -2.38895 0
M  V30 6610 H 618.329 2.94235 -2.79608 0
M  V30 6611 H 619.095 1.31178 -4.66923 0
M  V30 6612 H 614.974 2.32606 -3.98015 0
M  V30 6613 H 618.518 0.570562 -6.95263 0
M  V30 6614 H 614.415 1.58999 -6.25611 0
M  V30 6615 H 615.183 0.742835 -8.15122 0
M  V30 6616 N 617.846 1.41785 0.688094 0
M  V30 6617 C 619.123 1.32031 1.44316 0
M  V30 6618 C 619.503 -0.0486079 2.11044 0
M  V30 6619 O 618.851 -1.06332 2.02252 0
M  V30 6620 C 619.061 2.47906 2.45649 0
M  V30 6621 C 620.409 2.89415 3.10683 0
M  V30 6622 O 621.433 2.477 2.55975 0
M  V30 6623 O 620.292 3.61573 4.09789 0
M  V30 6624 H 617.386 0.519994 0.643067 0
M  V30 6625 H 619.932 1.53765 0.71794 0
M  V30 6626 H 618.704 3.39222 1.95048 0
M  V30 6627 H 618.327 2.28089 3.25671 0
M  V30 6628 N 619.324 -0.923095 1.27737 0
M  V30 6629 C 620.74 -1.19985 1.05241 0
M  V30 6630 C 620.94 -2.00391 -0.21113 0
M  V30 6631 O 619.996 -2.35324 -0.915366 0
M  V30 6632 C 621.309 -1.94352 2.29451 0
M  V30 6633 C 622.857 -2.07273 2.34536 0
M  V30 6634 C 623.332 -2.85046 3.58487 0
M  V30 6635 N 624.823 -2.92612 3.59072 0
M  V30 6636 C 625.558 -3.53266 4.51654 0
M  V30 6637 N 625.054 -4.15274 5.54545 0
M  V30 6638 N 626.847 -3.50714 4.39268 0
M  V30 6639 H 618.998 -0.386042 2.08862 0
M  V30 6640 H 621.261 -0.233407 0.918817 0
M  V30 6641 H 620.967 -1.42692 3.21453 0
M  V30 6642 H 620.841 -2.94947 2.3513 0
M  V30 6643 H 623.228 -2.58117 1.43037 0
M  V30 6644 H 623.309 -1.05884 2.32857 0
M  V30 6645 H 622.953 -2.34884 4.50324 0
M  V30 6646 H 622.883 -3.8673 3.57418 0
M  V30 6647 H 625.374 -2.48547 2.84663 0
M  V30 6648 H 625.687 -4.59507 6.21348 0
M  V30 6649 H 624.032 -4.13806 5.58382 0
M  V30 6650 H 627.223 -3.01475 3.58093 0
M  V30 6651 H 627.396 -3.97693 5.1161 0
M  V30 6652 N 620.802 -1.09834 -1.13024 0
M  V30 6653 C 621.732 -0.763451 -2.20666 0
M  V30 6654 C 622.713 0.260778 -1.68089 0
M  V30 6655 O 623.898 0.127915 -1.93778 0
M  V30 6656 C 621.028 -0.187744 -3.46792 0
M  V30 6657 C 619.982 -1.14196 -4.12484 0
M  V30 6658 C 619.308 -0.427755 -5.32986 0
M  V30 6659 C 620.608 -2.48607 -4.59338 0
M  V30 6660 H 622.302 -1.66347 -2.48936 0
M  V30 6661 H 619.848 -0.801261 -1.19649 0
M  V30 6662 H 621.801 0.0586375 -4.21359 0
M  V30 6663 H 620.525 0.747485 -3.17931 0
M  V30 6664 H 619.184 -1.37369 -3.3989 0
M  V30 6665 H 618.832 0.511747 -5.0039 0
M  V30 6666 H 618.532 -1.06403 -5.77886 0
M  V30 6667 H 620.056 -0.189772 -6.10305 0
M  V30 6668 H 621.47 -2.29618 -5.25308 0
M  V30 6669 H 619.867 -3.08062 -5.14993 0
M  V30 6670 H 620.937 -3.09062 -3.73642 0
M  V30 6671 N 622.28 1.30327 -0.886154 0
M  V30 6672 C 623.526 1.96388 -0.505941 0
M  V30 6673 C 623.859 1.69784 0.942712 0
M  V30 6674 O 623.134 1.00322 1.6663 0
M  V30 6675 C 623.417 3.51488 -0.782826 0
M  V30 6676 C 623.27 3.87603 -2.28219 0
M  V30 6677 C 624.589 4.39331 -0.260128 0
M  V30 6678 H 621.708 0.713327 -0.185292 0
M  V30 6679 H 624.35 1.54178 -1.11036 0
M  V30 6680 H 622.5 3.87572 -0.268399 0
M  V30 6681 H 624.172 3.61537 -2.86512 0
M  V30 6682 H 622.415 3.3563 -2.74837 0
M  V30 6683 H 623.086 4.95806 -2.42653 0
M  V30 6684 H 625.562 4.10162 -0.700444 0
M  V30 6685 H 624.438 5.46769 -0.483179 0
M  V30 6686 H 624.699 4.34072 0.838674 0
M  V30 6687 N 623.758 0.647228 1.43697 0
M  V30 6688 C 624.706 -0.0600105 2.32523 0
M  V30 6689 C 625.7 -0.819277 1.48271 0
M  V30 6690 O 626.906 -0.730356 1.64517 0
M  V30 6691 H 623.281 -0.0381872 0.75103 0
M  V30 6692 H 625.252 0.706978 2.89904 0
M  V30 6693 C 624.001 -1.0169 3.32497 0
M  V30 6694 H 623.324 -0.442083 3.97348 0
M  V30 6695 H 624.764 -1.48095 3.97296 0
M  V30 6696 C 623.223 -2.11002 2.6264 0
M  V30 6697 O 623.753 -3.19302 2.4374 0
M  V30 6698 N 621.959 -1.87388 2.22113 0
M  V30 6699 H 621.506 -0.993174 2.37684 0
M  V30 6700 H 621.464 -2.60723 1.75701 0
M  V30 6701 N 625.236 -1.5273 0.388769 0
M  V30 6702 C 626.484 -2.01174 -0.193208 0
M  V30 6703 C 626.805 -1.27705 -1.47365 0
M  V30 6704 O 626.075 -0.396966 -1.91836 0
M  V30 6705 H 624.655 -0.743287 -0.0743871 0
M  V30 6706 H 627.317 -1.87826 0.520336 0
M  V30 6707 H 626.413 -3.09477 -0.403803 0
M  V30 6708 N 626.714 -0.118576 -1.57153 0
M  V30 6709 C 627.647 0.869046 -2.11004 0
M  V30 6710 C 628.625 1.26115 -1.02634 0
M  V30 6711 O 629.809 1.36228 -1.30285 0
M  V30 6712 C 626.936 2.16297 -2.6064 0
M  V30 6713 C 625.982 1.91896 -3.80891 0
M  V30 6714 S 626.815 1.13562 -5.2332 0
M  V30 6715 C 627.971 2.44135 -5.76324 0
M  V30 6716 H 628.204 0.411005 -2.94445 0
M  V30 6717 H 625.737 0.0951891 -1.54106 0
M  V30 6718 H 627.695 2.90642 -2.89892 0
M  V30 6719 H 626.356 2.59219 -1.77382 0
M  V30 6720 H 625.549 2.8777 -4.13768 0
M  V30 6721 H 625.151 1.25672 -3.52253 0
M  V30 6722 H 627.443 3.39976 -5.86022 0
M  V30 6723 H 628.386 2.15803 -6.74414 0
M  V30 6724 H 628.794 2.53483 -5.04387 0
M  V30 6725 N 628.193 1.56834 0.155195 0
M  V30 6726 C 629.123 2.00678 1.19376 0
M  V30 6727 C 630.104 0.884973 1.45266 0
M  V30 6728 O 631.289 1.1522 1.56326 0
M  V30 6729 C 628.419 2.38042 2.5289 0
M  V30 6730 C 627.373 3.53332 2.41538 0
M  V30 6731 C 626.699 3.76485 3.79688 0
M  V30 6732 C 627.999 4.86265 1.9064 0
M  V30 6733 H 629.693 2.87688 0.829232 0
M  V30 6734 H 627.239 1.38407 0.397445 0
M  V30 6735 H 629.192 2.67314 3.25763 0
M  V30 6736 H 627.916 1.4796 2.91162 0
M  V30 6737 H 626.575 3.24213 1.71117 0
M  V30 6738 H 626.223 2.83667 4.15382 0
M  V30 6739 H 625.923 4.54068 3.72956 0
M  V30 6740 H 627.447 4.08174 4.54122 0
M  V30 6741 H 628.861 5.14308 2.53299 0
M  V30 6742 H 627.258 5.67597 1.94818 0
M  V30 6743 H 628.328 4.77184 0.861596 0
M  V30 6744 N 629.671 -0.424282 1.51781 0
M  V30 6745 C 630.603 -1.53457 1.70246 0
M  V30 6746 C 631.616 -1.52004 0.582967 0
M  V30 6747 O 632.805 -1.56544 0.857683 0
M  V30 6748 C 629.905 -2.92368 1.71389 0
M  V30 6749 C 629.078 -3.1818 3.00133 0
M  V30 6750 C 628.137 -4.36884 2.9329 0
M  V30 6751 O 627.163 -4.34901 3.67219 0
M  V30 6752 N 628.365 -5.4117 2.10036 0
M  V30 6753 H 631.13 -1.38017 2.66029 0
M  V30 6754 H 628.691 -0.613394 1.4983 0
M  V30 6755 H 630.683 -3.6982 1.64362 0
M  V30 6756 H 629.253 -3.0134 0.831449 0
M  V30 6757 H 628.473 -2.28908 3.20928 0
M  V30 6758 H 629.761 -3.32261 3.85331 0
M  V30 6759 H 629.159 -5.45623 1.49373 0
M  V30 6760 H 627.716 -6.17425 2.08878 0
M  V30 6761 N 631.149 -1.42148 -0.680565 0
M  V30 6762 C 632.389 -1.4379 -1.45271 0
M  V30 6763 C 632.753 -0.0504426 -1.91934 0
M  V30 6764 O 633.954 0.0583916 -2.68737 0
M  V30 6765 C 632.225 -2.42904 -2.62168 0
M  V30 6766 S 633.784 -2.63201 -3.51099 0
M  V30 6767 H 630.602 -0.509185 -0.496237 0
M  V30 6768 H 633.204 -1.78706 -0.792744 0
M  V30 6769 H 631.908 -3.4249 -2.26116 0
M  V30 6770 H 631.439 -2.09394 -3.33043 0
M  V30 6771 H 633.454 -1.91068 -4.57938 0
M  V30 6772 N 632.627 0.916307 -1.28225 0
M  V30 6773 C 633.873 1.66765 -1.154 0
M  V30 6774 C 634.206 1.91912 0.297251 0
M  V30 6775 O 633.481 1.51766 1.21644 0
M  V30 6776 C 633.764 3.02715 -1.95028 0
M  V30 6777 C 633.617 2.84738 -3.48201 0
M  V30 6778 C 634.936 4.03215 -1.76369 0
M  V30 6779 H 632.055 0.605205 -0.42059 0
M  V30 6780 H 634.697 1.06255 -1.57512 0
M  V30 6781 H 632.847 3.54365 -1.59242 0
M  V30 6782 H 634.519 2.40118 -3.9388 0
M  V30 6783 H 632.762 2.19848 -3.73964 0
M  V30 6784 H 633.433 3.8127 -3.99171 0
M  V30 6785 H 635.909 3.60617 -2.07593 0
M  V30 6786 H 634.785 4.96306 -2.34459 0
M  V30 6787 H 635.046 4.36288 -0.71452 0
M  V30 6788 N 634.105 1.10431 1.1244 0
M  V30 6789 C 635.068 0.756542 2.16354 0
M  V30 6790 C 636.068 -0.21899 1.59302 0
M  V30 6791 O 637.258 0.00415969 1.742 0
M  V30 6792 C 634.39 0.120612 3.40687 0
M  V30 6793 H 635.583 1.67696 2.48632 0
M  V30 6794 H 633.136 0.904832 1.27446 0
M  V30 6795 H 633.871 -0.810536 3.14008 0
M  V30 6796 H 633.656 0.822693 3.83372 0
M  V30 6797 H 635.146 -0.106945 4.17463 0
M  V30 6798 N 635.583 -1.29855 0.893053 0
M  V30 6799 C 636.546 -2.26183 0.370687 0
M  V30 6800 C 637.546 -1.53108 -0.491385 0
M  V30 6801 O 638.736 -1.71643 -0.297386 0
M  V30 6802 C 635.868 -3.37633 -0.470827 0
M  V30 6803 H 637.061 -2.73903 1.22135 0
M  V30 6804 H 634.614 -1.41183 0.67061 0
M  V30 6805 H 635.349 -2.95241 -1.34175 0
M  V30 6806 H 635.134 -3.91825 0.146784 0
M  V30 6807 H 636.624 -4.09313 -0.827825 0
M  V30 6808 N 637.061 -0.65484 -1.43351 0
M  V30 6809 C 638.309 -0.168559 -2.01396 0
M  V30 6810 C 638.63 1.22235 -1.51933 0
M  V30 6811 O 637.9 1.81685 -0.732627 0
M  V30 6812 H 636.48 -0.0593244 -0.744641 0
M  V30 6813 H 639.142 -0.846871 -1.75539 0
M  V30 6814 H 638.238 -0.154428 -3.11718 0
M  V30 6815 N 638.539 1.52521 -0.396863 0
M  V30 6816 C 639.786 2.01672 0.182898 0
M  V30 6817 C 640.114 1.28302 1.46181 0
M  V30 6818 O 639.369 0.374118 1.92091 0
M  V30 6819 C 639.668 3.5403 0.489677 0
M  V30 6820 C 639.334 4.45456 -0.698581 0
M  V30 6821 C 637.996 4.70166 -1.02454 0
M  V30 6822 C 640.348 4.99354 -1.49316 0
M  V30 6823 C 637.676 5.46024 -2.1465 0
M  V30 6824 C 640.028 5.76439 -2.60579 0
M  V30 6825 C 638.692 5.99426 -2.93675 0
M  V30 6826 H 637.962 0.737971 0.066927 0
M  V30 6827 H 640.609 1.83853 -0.535764 0
M  V30 6828 H 638.914 3.69963 1.28976 0
M  V30 6829 H 640.611 3.8956 0.951018 0
M  V30 6830 H 637.201 4.26392 -0.434525 0
M  V30 6831 H 641.385 4.80182 -1.25457 0
M  V30 6832 H 636.641 5.62046 -2.40654 0
M  V30 6833 H 640.815 6.17202 -3.22544 0
M  V30 6834 H 638.442 6.57988 -3.80731 0
M  V30 6835 N 640.017 0.126909 1.57088 0
M  V30 6836 C 641.428 -0.397201 1.82426 0
M  V30 6837 C 641.779 -1.66084 1.04453 0
M  V30 6838 O 640.904 -2.14534 0.283552 0
M  V30 6839 C 641.499 -0.727411 3.30899 0
M  V30 6840 C 640.058 -1.19612 3.56889 0
M  V30 6841 C 639.205 -0.20885 2.76512 0
M  V30 6842 H 642.156 0.351924 1.54749 0
M  V30 6843 H 642.177 -1.58407 3.45959 0
M  V30 6844 H 641.689 0.19247 3.87622 0
M  V30 6845 H 639.79 -2.13263 3.05532 0
M  V30 6846 H 639.903 -1.13598 4.65438 0
M  V30 6847 H 638.267 -0.697479 2.44964 0
M  V30 6848 H 639.05 0.704267 3.35998 0
M  V30 6849 N 641.495 -1.56914 -0.146875 0
M  V30 6850 C 642.405 -2.0154 -1.20079 0
M  V30 6851 C 643.421 -0.930838 -1.47008 0
M  V30 6852 O 644.597 -1.24032 -1.58676 0
M  V30 6853 C 641.662 -2.38715 -2.51428 0
M  V30 6854 C 640.723 -3.6112 -2.32145 0
M  V30 6855 C 639.956 -3.96512 -3.57231 0
M  V30 6856 O 640.179 -3.32566 -4.63418 0
M  V30 6857 O 639.113 -4.89758 -3.49887 0
M  V30 6858 H 642.939 -2.91506 -0.851924 0
M  V30 6859 H 640.524 -1.45106 -0.355607 0
M  V30 6860 H 642.406 -2.63485 -3.28867 0
M  V30 6861 H 641.081 -1.51903 -2.85845 0
M  V30 6862 H 639.988 -3.41536 -1.52656 0
M  V30 6863 H 641.321 -4.48549 -2.02644 0
M  V30 6864 N 642.974 0.416227 -1.52004 0
M  V30 6865 C 644.385 0.995319 -1.57957 0
M  V30 6866 C 644.736 1.91744 -0.415754 0
M  V30 6867 O 643.861 2.11349 0.464808 0
M  V30 6868 C 644.456 1.81191 -2.86278 0
M  V30 6869 C 643.015 2.34115 -2.94732 0
M  V30 6870 C 642.162 1.139 -2.52828 0
M  V30 6871 H 645.113 0.196716 -1.57476 0
M  V30 6872 H 645.134 2.66859 -2.71231 0
M  V30 6873 H 644.646 1.14051 -3.70963 0
M  V30 6874 H 642.747 3.04647 -2.14525 0
M  V30 6875 H 642.86 2.65466 -3.98829 0
M  V30 6876 H 641.224 1.49081 -2.06511 0
M  V30 6877 H 642.007 0.483383 -3.3988 0
M  V30 6878 N 644.452 1.42507 0.673017 0
M  V30 6879 C 645.68 1.46473 1.46128 0
M  V30 6880 C 646.095 0.0765912 1.88645 0
M  V30 6881 O 645.452 -0.909057 1.58248 0
M  V30 6882 C 645.503 2.39339 2.70923 0
M  V30 6883 O 645.224 3.72752 2.3019 0
M  V30 6884 C 646.725 2.52343 3.64469 0
M  V30 6885 H 643.945 0.49812 0.449575 0
M  V30 6886 H 646.489 1.87041 0.826802 0
M  V30 6887 H 644.644 2.02019 3.30556 0
M  V30 6888 H 645.058 4.22503 3.10791 0
M  V30 6889 H 646.532 3.2144 4.48754 0
M  V30 6890 H 647.009 1.56189 4.1049 0
M  V30 6891 H 647.615 2.90392 3.10729 0
M  V30 6892 N 645.93 -0.909495 1.28709 0
M  V30 6893 C 647.179 -1.65365 1.15487 0
M  V30 6894 C 647.492 -1.93364 -0.294941 0
M  V30 6895 O 648.698 -2.65905 -0.548338 0
M  V30 6896 C 647.154 -2.97923 2.01916 0
M  V30 6897 C 646.762 -2.77556 3.51663 0
M  V30 6898 C 648.506 -3.75814 1.97393 0
M  V30 6899 C 646.413 -4.0578 4.30229 0
M  V30 6900 H 645.343 -0.620323 0.42862 0
M  V30 6901 H 647.994 -1.00894 1.53273 0
M  V30 6902 H 646.376 -3.63552 1.5699 0
M  V30 6903 H 647.55 -2.2058 4.04575 0
M  V30 6904 H 645.865 -2.13072 3.57756 0
M  V30 6905 H 648.462 -4.70866 2.53357 0
M  V30 6906 H 648.805 -4.05277 0.951643 0
M  V30 6907 H 649.338 -3.1701 2.40311 0
M  V30 6908 H 646.077 -3.81488 5.33055 0
M  V30 6909 H 645.597 -4.62351 3.82089 0
M  V30 6910 H 647.276 -4.74004 4.40374 0
M  V30 6911 N 647.408 -1.11026 -1.11852 0
M  V30 6912 C 648.685 -0.768347 -1.79877 0
M  V30 6913 C 649.065 0.744261 -1.97545 0
M  V30 6914 O 648.413 1.67271 -1.55669 0
M  V30 6915 C 648.623 -1.52648 -3.13846 0
M  V30 6916 C 649.971 -1.70297 -3.88953 0
M  V30 6917 O 650.995 -1.49037 -3.23522 0
M  V30 6918 O 649.854 -2.05593 -5.06353 0
M  V30 6919 H 646.948 -0.277891 -0.778913 0
M  V30 6920 H 649.494 -1.21343 -1.18633 0
M  V30 6921 H 648.266 -2.55564 -2.96315 0
M  V30 6922 H 647.889 -1.07466 -3.82801 0
M  V30 6923 N 648.886 1.2938 -0.899927 0
M  V30 6924 C 650.132 1.96206 -0.536153 0
M  V30 6925 C 650.487 1.69647 0.90761 0
M  V30 6926 O 649.78 0.999089 1.63489 0
M  V30 6927 C 649.974 3.49114 -0.765113 0
M  V30 6928 C 649.803 3.90538 -2.22958 0
M  V30 6929 C 648.573 4.15395 -2.87706 0
M  V30 6930 C 650.771 4.0224 -3.20479 0
M  V30 6931 N 648.753 4.43389 -4.24593 0
M  V30 6932 C 650.124 4.34288 -4.42486 0
M  V30 6933 C 652.179 3.84716 -3.16066 0
M  V30 6934 C 650.882 4.50638 -5.6064 0
M  V30 6935 C 652.908 4.02276 -4.33507 0
M  V30 6936 C 652.27 4.34684 -5.54283 0
M  V30 6937 H 648.369 0.742364 -0.245804 0
M  V30 6938 H 650.953 1.56314 -1.16078 0
M  V30 6939 H 649.124 3.88028 -0.169861 0
M  V30 6940 H 650.856 4.03035 -0.366751 0
M  V30 6941 H 647.611 4.09164 -2.385 0
M  V30 6942 H 648.035 4.61494 -4.95331 0
M  V30 6943 H 652.677 3.58724 -2.23778 0
M  V30 6944 H 650.395 4.75467 -6.5342 0
M  V30 6945 H 653.981 3.90169 -4.31578 0
M  V30 6946 H 652.861 4.47988 -6.43643 0
M  V30 6947 N 650.364 0.662433 1.43002 0
M  V30 6948 C 651.594 0.187343 2.05749 0
M  V30 6949 C 652.002 -1.15582 1.49791 0
M  V30 6950 O 651.345 -1.72651 0.627487 0
M  V30 6951 C 651.407 0.0316493 3.59486 0
M  V30 6952 C 651.071 1.30156 4.38073 0
M  V30 6953 C 652.068 2.23234 4.69535 0
M  V30 6954 C 649.753 1.54572 4.77926 0
M  V30 6955 C 651.747 3.39012 5.39768 0
M  V30 6956 C 649.434 2.70641 5.47902 0
M  V30 6957 C 650.432 3.62687 5.78746 0
M  V30 6958 O 650.12 4.76728 6.47291 0
M  V30 6959 H 649.852 0.0915214 0.669776 0
M  V30 6960 H 652.406 0.905982 1.8434 0
M  V30 6961 H 650.636 -0.742451 3.79506 0
M  V30 6962 H 652.325 -0.401977 4.03905 0
M  V30 6963 H 653.091 2.05616 4.39257 0
M  V30 6964 H 648.97 0.83804 4.53319 0
M  V30 6965 H 652.514 4.10877 5.63761 0
M  V30 6966 H 648.411 2.88189 5.77596 0
M  V30 6967 H 649.179 4.76113 6.65777 0
M  V30 6968 N 651.842 -1.52309 0.404946 0
M  V30 6969 C 653.089 -2.01767 -0.1722 0
M  V30 6970 C 653.417 -1.29075 -1.45498 0
M  V30 6971 O 652.672 -0.3843 -1.9189 0
M  V30 6972 C 652.971 -3.54284 -0.470895 0
M  V30 6973 C 652.637 -4.45079 0.722194 0
M  V30 6974 C 651.299 -4.69617 1.04946 0
M  V30 6975 C 653.651 -4.98555 1.51962 0
M  V30 6976 C 650.979 -5.44878 2.17543 0
M  V30 6977 C 653.331 -5.75049 2.63632 0
M  V30 6978 C 651.995 -5.9786 2.9685 0
M  V30 6979 H 651.265 -0.738316 -0.0630125 0
M  V30 6980 H 653.912 -1.83566 0.545506 0
M  V30 6981 H 652.217 -3.70642 -1.27012 0
M  V30 6982 H 653.914 -3.90058 -0.930346 0
M  V30 6983 H 650.504 -4.26155 0.457131 0
M  V30 6984 H 654.688 -4.79509 1.28002 0
M  V30 6985 H 649.944 -5.60762 2.43631 0
M  V30 6986 H 654.118 -6.15483 3.25813 0
M  V30 6987 H 651.745 -6.5596 3.84215 0
M  V30 6988 N 653.32 -0.135238 -1.57019 0
M  V30 6989 C 654.56 0.521686 -1.9763 0
M  V30 6990 C 654.924 1.62804 -1.01778 0
M  V30 6991 O 656.125 2.345 -1.31389 0
M  V30 6992 C 654.396 1.0257 -3.42365 0
M  V30 6993 S 655.955 1.68888 -4.04997 0
M  V30 6994 H 652.773 0.169064 -0.690607 0
M  V30 6995 H 655.375 -0.224168 -1.94211 0
M  V30 6996 H 654.079 0.209556 -4.09865 0
M  V30 6997 H 653.61 1.80645 -3.49472 0
M  V30 6998 H 655.625 2.97554 -3.97084 0
M  V30 6999 N 654.798 1.5699 0.138552 0
M  V30 7000 C 656.209 1.73171 0.697754 0
M  V30 7001 C 656.56 0.750952 1.8126 0
M  V30 7002 O 655.685 -0.080549 2.1625 0
M  V30 7003 C 656.28 3.13996 1.27248 0
M  V30 7004 C 654.839 3.3175 1.77816 0
M  V30 7005 C 653.986 2.69084 0.669991 0
M  V30 7006 H 656.937 1.5846 -0.0871979 0
M  V30 7007 H 656.958 3.14463 2.14227 0
M  V30 7008 H 656.47 3.85354 0.460855 0
M  V30 7009 H 654.571 2.65403 2.61519 0
M  V30 7010 H 654.684 4.39768 1.90107 0
M  V30 7011 H 653.048 2.29782 1.09874 0
M  V30 7012 H 653.831 3.43053 -0.130329 0
M  V30 7013 N 656.276 -0.40816 1.52223 0
M  V30 7014 C 657.524 -1.15274 1.66001 0
M  V30 7015 C 657.845 -1.91003 0.392803 0
M  V30 7016 O 657.115 -1.8673 -0.592336 0
M  V30 7017 H 655.695 -0.428526 0.611861 0
M  V30 7018 H 658.357 -0.46512 1.89269 0
M  V30 7019 H 657.453 -1.86628 2.50153 0
M  V30 7020 N 657.755 -1.42862 -0.66545 0
M  V30 7021 C 658.983 -1.47246 -1.45349 0
M  V30 7022 C 659.398 -0.0865944 -1.88601 0
M  V30 7023 O 658.755 0.900652 -1.58728 0
M  V30 7024 C 658.806 -2.40772 -2.6965 0
M  V30 7025 O 658.527 -3.73968 -2.2821 0
M  V30 7026 C 660.028 -2.54272 -3.63126 0
M  V30 7027 H 657.248 -0.500497 -0.446927 0
M  V30 7028 H 659.792 -1.87477 -0.816871 0
M  V30 7029 H 657.947 -2.0377 -3.29479 0
M  V30 7030 H 658.361 -4.24146 -3.08546 0
M  V30 7031 H 659.835 -3.23815 -4.47043 0
M  V30 7032 H 660.312 -1.58364 -4.09656 0
M  V30 7033 H 660.918 -2.92036 -3.09185 0
M  V30 7034 N 659.233 0.902656 -1.29189 0
M  V30 7035 C 660.143 2.03946 -1.15944 0
M  V30 7036 C 661.159 1.738 -0.0833803 0
M  V30 7037 O 662.335 1.9923 -0.29487 0
M  V30 7038 C 659.4 3.36519 -0.834006 0
M  V30 7039 C 658.461 3.80203 -1.9936 0
M  V30 7040 C 657.694 5.06449 -1.68359 0
M  V30 7041 O 657.917 5.67202 -0.603141 0
M  V30 7042 O 656.851 5.46114 -2.53067 0
M  V30 7043 H 660.677 2.18043 -2.11403 0
M  V30 7044 H 658.262 1.02584 -1.08613 0
M  V30 7045 H 660.144 4.16089 -0.666949 0
M  V30 7046 H 658.819 3.23573 0.0908245 0
M  V30 7047 H 657.726 3.01413 -2.21588 0
M  V30 7048 H 659.059 3.97729 -2.89952 0
M  V30 7049 N 660.711 1.11618 1.11262 0
M  V30 7050 C 661.643 0.734015 2.17129 0
M  V30 7051 C 662.656 -0.235243 1.61091 0
M  V30 7052 O 663.845 -0.0178597 1.78491 0
M  V30 7053 C 660.945 0.0643682 3.38839 0
M  V30 7054 C 660.118 1.06092 4.24339 0
M  V30 7055 C 659.177 0.420482 5.24517 0
M  V30 7056 O 658.203 1.07495 5.58957 0
M  V30 7057 N 659.405 -0.815828 5.74739 0
M  V30 7058 H 662.17 1.64492 2.50524 0
M  V30 7059 H 659.731 1.00664 1.26801 0
M  V30 7060 H 661.723 -0.375851 4.02951 0
M  V30 7061 H 660.293 -0.749147 3.03491 0
M  V30 7062 H 659.513 1.67903 3.56654 0
M  V30 7063 H 660.801 1.73507 4.78302 0
M  V30 7064 H 660.199 -1.36668 5.48943 0
M  V30 7065 H 658.756 -1.199 6.40677 0
M  V30 7066 N 662.189 -1.289 0.906776 0
M  V30 7067 C 663.605 -1.47733 0.603902 0
M  V30 7068 C 663.805 -1.82568 -0.852702 0
M  V30 7069 O 662.861 -1.92642 -1.63234 0
M  V30 7070 C 664.174 -2.58522 1.53581 0
M  V30 7071 C 665.722 -2.72394 1.54177 0
M  V30 7072 C 666.197 -3.86318 2.46013 0
M  V30 7073 N 667.688 -3.93661 2.441 0
M  V30 7074 C 668.423 -4.81177 3.11859 0
M  V30 7075 N 667.919 -5.73333 3.88923 0
M  V30 7076 N 669.712 -4.74728 3.00981 0
M  V30 7077 H 661.863 -1.04567 1.84877 0
M  V30 7078 H 664.126 -0.520118 0.792579 0
M  V30 7079 H 663.832 -2.39667 2.57396 0
M  V30 7080 H 663.706 -3.55475 1.26165 0
M  V30 7081 H 666.093 -2.90641 0.511034 0
M  V30 7082 H 666.174 -1.75993 1.85634 0
M  V30 7083 H 665.818 -3.68826 3.49185 0
M  V30 7084 H 665.748 -4.82102 2.11862 0
M  V30 7085 H 668.239 -3.27751 1.88115 0
M  V30 7086 H 668.552 -6.36923 4.37663 0
M  V30 7087 H 666.897 -5.73196 3.93029 0
M  V30 7088 H 670.088 -4.01722 2.40286 0
M  V30 7089 H 670.261 -5.42719 3.54062 0
M  V30 7090 N 663.667 -0.670007 -1.42649 0
M  V30 7091 C 664.907 -0.194106 -2.03476 0
M  V30 7092 C 665.271 1.1755 -1.51809 0
M  V30 7093 O 666.472 1.74579 -2.04391 0
M  V30 7094 C 664.743 -0.221828 -3.56711 0
M  V30 7095 S 666.302 0.183772 -4.38415 0
M  V30 7096 H 663.12 -0.0802478 -0.706457 0
M  V30 7097 H 665.722 -0.882092 -1.74469 0
M  V30 7098 H 664.426 -1.22107 -3.91814 0
M  V30 7099 H 663.957 0.486149 -3.90385 0
M  V30 7100 H 665.972 1.41839 -4.75496 0
M  V30 7101 N 665.145 1.52092 -0.413018 0
M  V30 7102 C 666.37 2.06756 0.163338 0
M  V30 7103 C 666.795 1.28073 1.37764 0
M  V30 7104 O 666.153 0.312015 1.78595 0
M  V30 7105 C 666.201 3.57278 0.488322 0
M  V30 7106 O 665.305 3.80986 1.57871 0
M  V30 7107 H 664.646 0.663882 0.0125068 0
M  V30 7108 H 667.176 1.95988 -0.587339 0
M  V30 7109 H 667.186 4.01125 0.745836 0
M  V30 7110 H 665.861 4.13978 -0.399327 0
M  V30 7111 H 664.438 3.49017 1.31306 0
M  V30 7112 N 666.623 0.143563 1.56945 0
M  V30 7113 C 667.586 -0.783295 2.154 0
M  V30 7114 C 668.586 -1.17763 1.09492 0
M  V30 7115 O 669.776 -1.09912 1.35148 0
M  V30 7116 C 666.908 -2.06248 2.7143 0
M  V30 7117 H 668.101 -0.274863 2.98638 0
M  V30 7118 H 665.654 -0.105859 1.55941 0
M  V30 7119 H 666.389 -2.61466 1.91849 0
M  V30 7120 H 666.174 -1.78897 3.4891 0
M  V30 7121 H 667.664 -2.72453 3.16479 0
M  V30 7122 N 668.101 -1.57061 -0.130224 0
M  V30 7123 C 669.326 -1.88802 -0.858409 0
M  V30 7124 C 669.751 -0.734353 -1.73173 0
M  V30 7125 O 669.109 0.315529 -1.78533 0
M  V30 7126 C 669.157 -3.19228 -1.67708 0
M  V30 7127 O 668.261 -3.04343 -2.78297 0
M  V30 7128 H 667.602 -0.619849 -0.238083 0
M  V30 7129 H 670.132 -2.04271 -0.115995 0
M  V30 7130 H 670.142 -3.51669 -2.06864 0
M  V30 7131 H 668.817 -4.02793 -1.0359 0
M  V30 7132 H 667.394 -2.83346 -2.42425 0
M  V30 7133 N 669.579 0.400081 -1.52437 0
M  V30 7134 C 670.825 1.14788 -1.67187 0
M  V30 7135 C 671.158 1.89928 -0.405074 0
M  V30 7136 O 670.433 1.85118 0.596804 0
M  V30 7137 C 670.716 2.13507 -2.89977 0
M  V30 7138 C 670.569 1.42204 -4.2673 0
M  V30 7139 C 671.888 3.14069 -3.083 0
M  V30 7140 H 669.007 0.415939 -0.608411 0
M  V30 7141 H 671.649 0.432542 -1.85011 0
M  V30 7142 H 669.799 2.7451 -2.74912 0
M  V30 7143 H 671.471 0.842503 -4.53541 0
M  V30 7144 H 669.714 0.723939 -4.27717 0
M  V30 7145 H 670.385 2.14281 -5.08712 0
M  V30 7146 H 672.861 2.63148 -3.22323 0
M  V30 7147 H 671.737 3.80398 -3.95713 0
M  V30 7148 H 671.998 3.82309 -2.22018 0
M  V30 7149 N 671.057 1.43213 0.657864 0
M  V30 7150 C 671.987 1.50815 1.78262 0
M  V30 7151 C 672.968 0.363211 1.66177 0
M  V30 7152 O 674.153 0.579806 1.85343 0
M  V30 7153 C 671.283 1.42625 3.16663 0
M  V30 7154 C 670.237 2.5532 3.43505 0
M  V30 7155 C 669.563 2.32184 4.81658 0
M  V30 7156 C 670.863 3.97583 3.38711 0
M  V30 7157 H 672.557 2.44954 1.72157 0
M  V30 7158 H 670.103 1.17896 0.82683 0
M  V30 7159 H 672.056 1.46548 3.95097 0
M  V30 7160 H 670.78 0.449877 3.23487 0
M  V30 7161 H 669.439 2.50742 2.6744 0
M  V30 7162 H 669.087 1.32801 4.85153 0
M  V30 7163 H 668.787 3.07724 5.00579 0
M  V30 7164 H 670.311 2.37883 5.62356 0
M  V30 7165 H 671.725 4.03673 4.07089 0
M  V30 7166 H 670.122 4.73112 3.69168 0
M  V30 7167 H 671.192 4.23049 2.36976 0
M  V30 7168 N 672.536 -0.895792 1.29666 0
M  V30 7169 C 673.947 -1.46195 1.1612 0
M  V30 7170 C 674.298 -1.94699 -0.242195 0
M  V30 7171 O 673.423 -1.8406 -1.13802 0
M  V30 7172 C 674.018 -2.65718 2.10189 0
M  V30 7173 C 672.577 -3.18458 2.00653 0
M  V30 7174 C 671.724 -1.91149 2.00891 0
M  V30 7175 H 674.675 -0.706756 1.42094 0
M  V30 7176 H 674.696 -3.4158 1.6764 0
M  V30 7177 H 674.208 -2.30386 3.12321 0
M  V30 7178 H 672.309 -3.58474 1.01623 0
M  V30 7179 H 672.422 -3.82491 2.88509 0
M  V30 7180 H 670.786 -2.09021 1.45542 0
M  V30 7181 H 671.569 -1.58089 3.04734 0
M  V30 7182 N 674.014 -1.12206 -1.10668 0
M  V30 7183 C 675.26 -0.877172 -1.82848 0
M  V30 7184 C 675.593 0.595571 -1.84842 0
M  V30 7185 O 674.868 1.44013 -1.30731 0
M  V30 7186 C 675.151 -1.44957 -3.29635 0
M  V30 7187 C 675.004 -2.99051 -3.35989 0
M  V30 7188 C 676.323 -1.10714 -4.25946 0
M  V30 7189 H 673.442 -0.320103 -0.663854 0
M  V30 7190 H 676.084 -1.38827 -1.2972 0
M  V30 7191 H 674.234 -1.01488 -3.7501 0
M  V30 7192 H 675.906 -3.51182 -2.99113 0
M  V30 7193 H 674.149 -3.34705 -2.75962 0
M  V30 7194 H 674.82 -3.34194 -4.39339 0
M  V30 7195 H 677.296 -1.48254 -3.88793 0
M  V30 7196 H 676.172 -1.5343 -5.2702 0
M  V30 7197 H 676.433 -0.019 -4.42096 0
M  V30 7198 N 675.492 1.28418 -0.913599 0
M  V30 7199 C 676.769 1.89977 -0.465619 0
M  V30 7200 C 677.149 1.82813 1.05559 0
M  V30 7201 O 676.497 1.26397 1.90358 0
M  V30 7202 C 676.707 3.34492 -0.995813 0
M  V30 7203 C 678.055 4.11468 -1.04782 0
M  V30 7204 O 679.079 3.43451 -0.944445 0
M  V30 7205 O 677.938 5.33046 -1.20518 0
M  V30 7206 H 675.032 0.813734 -0.147532 0
M  V30 7207 H 677.578 1.36786 -1.00437 0
M  V30 7208 H 676.35 3.33929 -2.03978 0
M  V30 7209 H 675.973 3.95181 -0.437878 0
M  V30 7210 N 676.97 0.677563 1.42291 0
M  V30 7211 C 678.216 0.201272 2.01799 0
M  V30 7212 C 678.549 -1.19004 1.53465 0
M  V30 7213 O 677.824 -1.79953 0.738039 0
M  V30 7214 C 678.107 0.238968 3.59306 0
M  V30 7215 C 677.96 1.66594 4.17812 0
M  V30 7216 C 679.279 -0.411287 4.38174 0
M  V30 7217 H 676.398 0.0746114 0.733214 0
M  V30 7218 H 679.04 0.862872 1.69276 0
M  V30 7219 H 677.19 -0.324368 3.87144 0
M  V30 7220 H 678.862 2.28173 4.00917 0
M  V30 7221 H 677.105 2.20576 3.73536 0
M  V30 7222 H 677.776 1.64398 5.26951 0
M  V30 7223 H 680.252 0.0682804 4.16044 0
M  V30 7224 H 679.128 -0.354286 5.47755 0
M  V30 7225 H 679.389 -1.4893 4.1626 0
M  V30 7226 N 678.448 -1.51871 0.421078 0
M  V30 7227 C 679.38 -2.25052 -0.434065 0
M  V30 7228 C 680.393 -1.28458 -1.00013 0
M  V30 7229 O 681.582 -1.54323 -0.897033 0
M  V30 7230 C 678.682 -2.97813 -1.61743 0
M  V30 7231 C 677.855 -4.21374 -1.17315 0
M  V30 7232 C 676.914 -4.76854 -2.22478 0
M  V30 7233 O 675.94 -5.39123 -1.82577 0
M  V30 7234 N 677.142 -4.59467 -3.54782 0
M  V30 7235 H 679.907 -2.99077 0.193073 0
M  V30 7236 H 677.468 -1.59972 0.249088 0
M  V30 7237 H 679.46 -3.3182 -2.31685 0
M  V30 7238 H 678.03 -2.26899 -2.15024 0
M  V30 7239 H 677.25 -3.93046 -0.3014 0
M  V30 7240 H 678.538 -5.01591 -0.853444 0
M  V30 7241 H 677.936 -4.09832 -3.89941 0
M  V30 7242 H 676.493 -4.9788 -4.20665 0
M  V30 7243 N 679.926 -0.151884 -1.56866 0
M  V30 7244 C 681.154 0.504813 -2.00647 0
M  V30 7245 C 681.569 1.58098 -1.03201 0
M  V30 7246 O 680.926 1.82476 -0.0297814 0
M  V30 7247 C 680.977 1.10099 -3.44326 0
M  V30 7248 O 680.698 0.0678021 -4.38048 0
M  V30 7249 C 682.199 1.83782 -4.03409 0
M  V30 7250 H 679.419 0.130989 -0.65809 0
M  V30 7251 H 681.963 -0.247903 -2.02992 0
M  V30 7252 H 680.118 1.8043 -3.42817 0
M  V30 7253 H 680.532 0.505237 -5.22061 0
M  V30 7254 H 682.006 2.2078 -5.05925 0
M  V30 7255 H 682.483 2.72557 -3.44397 0
M  V30 7256 H 683.089 1.18138 -4.08563 0
M  V30 7257 N 681.404 1.57128 0.121893 0
M  V30 7258 C 682.334 2.03165 1.15092 0
M  V30 7259 C 683.315 0.915587 1.43356 0
M  V30 7260 O 684.5 1.1851 1.53847 0
M  V30 7261 C 681.63 2.43352 2.47784 0
M  V30 7262 C 680.584 3.58376 2.33989 0
M  V30 7263 C 679.91 3.84454 3.71617 0
M  V30 7264 C 681.21 4.90199 1.80283 0
M  V30 7265 H 682.904 2.89382 0.768023 0
M  V30 7266 H 680.45 1.39218 0.367998 0
M  V30 7267 H 682.403 2.74163 3.20019 0
M  V30 7268 H 681.127 1.54103 2.87958 0
M  V30 7269 H 679.786 3.2777 1.64202 0
M  V30 7270 H 679.434 2.92414 4.09271 0
M  V30 7271 H 679.134 4.61877 3.6324 0
M  V30 7272 H 680.658 4.17714 4.45362 0
M  V30 7273 H 682.072 5.19565 2.42333 0
M  V30 7274 H 680.469 5.71601 1.82735 0
M  V30 7275 H 681.539 4.78904 0.760184 0
M  V30 7276 N 682.882 -0.391992 1.52647 0
M  V30 7277 C 683.83 -1.4991 1.77848 0
M  V30 7278 C 684.824 -1.56587 0.646282 0
M  V30 7279 O 686.03 -1.59789 0.828698 0
M  V30 7280 H 682.405 -0.498883 0.56269 0
M  V30 7281 H 684.376 -1.25847 2.70564 0
M  V30 7282 C 683.125 -2.87081 1.96163 0
M  V30 7283 H 682.448 -2.82692 2.82711 0
M  V30 7284 H 683.888 -3.63792 2.17787 0
M  V30 7285 C 682.347 -3.28822 0.733348 0
M  V30 7286 O 682.877 -4.01598 -0.0906481 0
M  V30 7287 N 681.083 -2.85068 0.564317 0
M  V30 7288 H 680.63 -2.26012 1.23598 0
M  V30 7289 H 680.588 -3.13355 -0.256166 0
M  V30 7290 N 684.36 -1.4356 -0.65026 0
M  V30 7291 C 685.585 -1.48995 -1.44275 0
M  V30 7292 C 686.01 -0.109954 -1.87778 0
M  V30 7293 O 685.368 0.896926 -1.57559 0
M  V30 7294 C 685.416 -2.44341 -2.65198 0
M  V30 7295 O 684.52 -1.93172 -3.6436 0
M  V30 7296 H 683.861 -0.503852 -0.432469 0
M  V30 7297 H 686.391 -1.88504 -0.795446 0
M  V30 7298 H 686.401 -2.61743 -3.12977 0
M  V30 7299 H 685.076 -3.44588 -2.32877 0
M  V30 7300 H 683.653 -1.85445 -3.23519 0
M  V30 7301 N 685.838 0.888903 -1.30139 0
M  V30 7302 C 687.063 1.67884 -1.21777 0
M  V30 7303 C 687.488 1.86848 0.216689 0
M  V30 7304 O 686.846 1.39659 1.15608 0
M  V30 7305 C 686.894 3.03483 -1.94757 0
M  V30 7306 O 685.998 3.92294 -1.27198 0
M  V30 7307 H 685.339 0.513144 -0.421402 0
M  V30 7308 H 687.869 1.10968 -1.71893 0
M  V30 7309 H 687.879 3.53553 -2.03627 0
M  V30 7310 H 686.554 2.89 -2.99085 0
M  V30 7311 H 685.131 3.50732 -1.26655 0
M  V30 7312 N 687.317 1.12792 1.10072 0
M  V30 7313 C 688.565 0.883796 1.81751 0
M  V30 7314 C 688.886 -0.591891 1.858 0
M  V30 7315 O 688.156 -1.43017 1.33876 0
M  V30 7316 H 686.736 0.323978 0.673088 0
M  V30 7317 H 689.398 1.42314 1.33164 0
M  V30 7318 H 688.494 1.26863 2.85153 0
M  V30 7319 N 688.795 -1.27931 0.920396 0
M  V30 7320 C 690.206 -1.76707 0.602616 0
M  V30 7321 C 690.557 -1.75249 -0.882159 0
M  V30 7322 O 689.682 -1.35135 -1.69019 0
M  V30 7323 C 690.277 -3.20884 1.08714 0
M  V30 7324 C 688.836 -3.67356 0.820157 0
M  V30 7325 C 687.983 -2.47525 1.25006 0
M  V30 7326 H 690.934 -1.14301 1.10095 0
M  V30 7327 H 690.955 -3.78045 0.431535 0
M  V30 7328 H 690.467 -3.21913 2.1678 0
M  V30 7329 H 688.568 -3.7178 -0.247012 0
M  V30 7330 H 688.681 -4.57181 1.43257 0
M  V30 7331 H 687.045 -2.45765 0.668698 0
M  V30 7332 H 687.828 -2.51269 2.3392 0
M  V30 7333 N 690.273 -0.685099 -1.4193 0
M  V30 7334 C 691.684 -0.287699 -1.8447 0
M  V30 7335 C 692.035 1.17215 -1.57338 0
M  V30 7336 O 691.16 1.89856 -1.03845 0
M  V30 7337 C 691.755 -0.515385 -3.34857 0
M  V30 7338 C 690.314 -0.172006 -3.76007 0
M  V30 7339 C 689.461 -0.802808 -2.65425 0
M  V30 7340 H 692.412 -0.88652 -1.3163 0
M  V30 7341 H 692.433 0.229251 -3.79809 0
M  V30 7342 H 691.945 -1.57796 -3.54573 0
M  V30 7343 H 690.046 0.886716 -3.61895 0
M  V30 7344 H 690.159 -0.619717 -4.75075 0
M  V30 7345 H 688.523 -0.233267 -2.5363 0
M  V30 7346 H 689.306 -1.86904 -2.87961 0
M  V30 7347 N 691.751 1.51645 -0.429126 0
M  V30 7348 C 692.998 2.02015 0.140079 0
M  V30 7349 C 693.326 1.31374 1.43427 0
M  V30 7350 O 692.581 0.414779 1.91254 0
M  V30 7351 C 692.88 3.54989 0.414472 0
M  V30 7352 C 692.546 4.43874 -0.792911 0
M  V30 7353 C 691.208 4.67887 -1.12404 0
M  V30 7354 C 693.56 4.96074 -1.59875 0
M  V30 7355 C 690.888 5.41348 -2.26184 0
M  V30 7356 C 693.24 5.70782 -2.72747 0
M  V30 7357 C 691.904 5.93062 -3.06324 0
M  V30 7358 H 691.174 0.739225 0.0512585 0
M  V30 7359 H 693.821 1.82675 -0.574641 0
M  V30 7360 H 692.126 3.72615 1.21099 0
M  V30 7361 H 693.823 3.91489 0.868173 0
M  V30 7362 H 690.413 4.25374 -0.524871 0
M  V30 7363 H 694.597 4.77412 -1.35614 0
M  V30 7364 H 689.853 5.56815 -2.52522 0
M  V30 7365 H 694.027 6.10221 -3.35564 0
M  V30 7366 H 691.654 6.49764 -3.94602 0
M  V30 7367 N 693.229 0.160201 1.56784 0
M  V30 7368 C 694.477 -0.486625 1.96154 0
M  V30 7369 C 694.798 -1.64525 1.04673 0
M  V30 7370 O 694.068 -1.95586 0.110864 0
M  V30 7371 H 692.648 -0.182764 0.724297 0
M  V30 7372 H 695.31 0.238787 1.93432 0
M  V30 7373 H 694.406 -0.854025 3.00188 0
M  V30 7374 N 694.707 -1.5719 -0.113559 0
M  V30 7375 C 695.654 -2.00736 -1.13901 0
M  V30 7376 C 696.624 -0.88044 -1.40846 0
M  V30 7377 O 697.809 -1.14507 -1.5262 0
M  V30 7378 C 694.949 -2.42132 -2.45899 0
M  V30 7379 C 694.062 -3.68264 -2.25844 0
M  V30 7380 C 693.197 -3.98617 -3.5111 0
M  V30 7381 C 692.236 -5.17915 -3.26236 0
M  V30 7382 N 691.373 -5.44111 -4.4372 0
M  V30 7383 H 696.213 -2.88128 -0.760677 0
M  V30 7384 H 693.75 -1.42523 -0.364099 0
M  V30 7385 H 695.708 -2.6417 -3.22908 0
M  V30 7386 H 694.338 -1.57775 -2.81615 0
M  V30 7387 H 693.39 -3.53809 -1.39726 0
M  V30 7388 H 694.702 -4.55425 -2.03444 0
M  V30 7389 H 693.856 -4.21333 -4.36536 0
M  V30 7390 H 692.595 -3.09942 -3.76546 0
M  V30 7391 H 691.6 -4.95038 -2.39202 0
M  V30 7392 H 692.825 -6.08172 -3.02165 0
M  V30 7393 H 690.771 -4.58394 -4.69266 0
M  V30 7394 H 690.688 -6.25606 -4.24444 0
M  V30 7395 H 691.956 -5.71351 -5.30263 0
M  V30 7396 N 696.185 0.383891 -1.52853 0
M  V30 7397 C 697.115 1.47559 -1.80965 0
M  V30 7398 C 698.096 1.5669 -0.661986 0
M  V30 7399 O 699.281 1.71556 -0.910072 0
M  V30 7400 C 696.411 2.85114 -1.98312 0
M  V30 7401 C 695.365 2.9082 -3.14019 0
M  V30 7402 C 694.691 4.30873 -3.16627 0
M  V30 7403 C 695.991 2.60001 -4.52986 0
M  V30 7404 H 697.685 1.24283 -2.72386 0
M  V30 7405 H 695.231 0.596445 -1.31067 0
M  V30 7406 H 697.184 3.61496 -2.16561 0
M  V30 7407 H 695.908 3.09738 -1.03585 0
M  V30 7408 H 694.567 2.16886 -2.9556 0
M  V30 7409 H 694.215 4.52545 -2.19573 0
M  V30 7410 H 693.915 4.3561 -3.94357 0
M  V30 7411 H 695.439 5.09154 -3.37038 0
M  V30 7412 H 696.853 3.261 -4.71521 0
M  V30 7413 H 695.25 2.76081 -5.32822 0
M  V30 7414 H 696.32 1.5532 -4.59351 0
M  V30 7415 N 697.663 1.43903 0.642637 0
M  V30 7416 C 698.909 1.46296 1.40447 0
M  V30 7417 C 699.242 0.0908361 1.93987 0
M  V30 7418 O 698.517 -0.889884 1.72949 0
M  V30 7419 C 698.8 2.51399 2.57819 0
M  V30 7420 C 698.653 3.97926 2.09702 0
M  V30 7421 C 699.972 2.53125 3.60022 0
M  V30 7422 H 697.091 0.532676 0.509338 0
M  V30 7423 H 699.733 1.75515 0.727635 0
M  V30 7424 H 697.883 2.26614 3.1556 0
M  V30 7425 H 699.555 4.33804 1.5688 0
M  V30 7426 H 697.798 4.10252 1.40982 0
M  V30 7427 H 698.469 4.67096 2.94152 0
M  V30 7428 H 700.945 2.75242 3.12059 0
M  V30 7429 H 699.821 3.28589 4.39682 0
M  V30 7430 H 700.082 1.56895 4.13324 0
M  V30 7431 N 699.141 -0.881989 1.30609 0
M  V30 7432 C 700.387 -1.63647 1.19781 0
M  V30 7433 C 700.72 -1.92632 -0.246265 0
M  V30 7434 O 699.995 -1.54938 -1.17577 0
M  V30 7435 C 700.278 -2.97437 2.02985 0
M  V30 7436 C 700.131 -2.75406 3.55628 0
M  V30 7437 C 701.45 -3.98397 1.86997 0
M  V30 7438 H 698.569 -0.593841 0.436488 0
M  V30 7439 H 701.211 -1.02041 1.60273 0
M  V30 7440 H 699.361 -3.50018 1.68581 0
M  V30 7441 H 701.033 -2.2959 4.00107 0
M  V30 7442 H 699.276 -2.09856 3.79662 0
M  V30 7443 H 699.947 -3.70552 4.09139 0
M  V30 7444 H 702.423 -3.54986 2.17081 0
M  V30 7445 H 701.299 -4.89916 2.47536 0
M  V30 7446 H 701.56 -4.3424 0.829943 0
M  V30 7447 N 700.619 -1.13374 -1.09472 0
M  V30 7448 C 701.551 -0.768466 -2.15933 0
M  V30 7449 C 702.564 0.209585 -1.61445 0
M  V30 7450 O 703.753 -0.010539 -1.78497 0
M  V30 7451 C 700.853 -0.118266 -3.38694 0
M  V30 7452 C 700.026 -1.12829 -4.22597 0
M  V30 7453 C 699.085 -0.503875 -5.23782 0
M  V30 7454 O 698.111 -1.16374 -5.57177 0
M  V30 7455 N 699.313 0.724288 -5.75964 0
M  V30 7456 H 702.078 -1.68457 -2.47876 0
M  V30 7457 H 699.639 -1.02668 -1.25183 0
M  V30 7458 H 701.631 0.311698 -4.03498 0
M  V30 7459 H 700.201 0.700769 -3.04644 0
M  V30 7460 H 699.421 -1.73556 -3.53938 0
M  V30 7461 H 700.709 -1.81095 -4.75481 0
M  V30 7462 H 700.107 1.27918 -5.51048 0
M  V30 7463 H 698.664 1.09692 -6.42504 0
M  V30 7464 N 702.098 1.27442 -0.927168 0
M  V30 7465 C 703.323 1.99036 -0.583042 0
M  V30 7466 C 703.748 1.68711 0.83176 0
M  V30 7467 O 703.106 0.927081 1.55804 0
M  V30 7468 C 703.154 3.51271 -0.814925 0
M  V30 7469 O 702.258 4.12226 0.119742 0
M  V30 7470 H 701.599 0.624883 -0.224538 0
M  V30 7471 H 704.129 1.62263 -1.24628 0
M  V30 7472 H 704.139 4.01411 -0.730282 0
M  V30 7473 H 702.814 3.72676 -1.84623 0
M  V30 7474 H 701.391 3.72897 -0.0147688 0
M  V30 7475 N 703.576 0.692616 1.41565 0
M  V30 7476 C 704.801 0.229776 2.06123 0
M  V30 7477 C 705.226 -1.11119 1.5177 0
M  V30 7478 O 704.584 -1.69498 0.643444 0
M  V30 7479 C 704.632 0.19469 3.60074 0
M  V30 7480 O 703.736 -0.831366 4.03933 0
M  V30 7481 H 703.077 0.113002 0.654314 0
M  V30 7482 H 705.607 0.946645 1.81383 0
M  V30 7483 H 705.617 0.0245487 4.07993 0
M  V30 7484 H 704.292 1.17339 3.99004 0
M  V30 7485 H 702.869 -0.630819 3.67526 0
M  V30 7486 N 705.054 -1.51416 0.437162 0
M  V30 7487 C 706.303 -2.01275 -0.130865 0
M  V30 7488 C 706.616 -1.32593 -1.438 0
M  V30 7489 O 707.822 -1.7342 -2.08897 0
M  V30 7490 C 706.278 -3.5878 -0.283763 0
M  V30 7491 C 705.886 -4.36399 1.01293 0
M  V30 7492 C 707.63 -4.16786 -0.805569 0
M  V30 7493 C 705.537 -5.85608 0.825687 0
M  V30 7494 H 704.467 -0.752157 -0.0526818 0
M  V30 7495 H 707.118 -1.74524 0.566896 0
M  V30 7496 H 705.5 -3.81976 -1.04452 0
M  V30 7497 H 706.674 -4.24948 1.78201 0
M  V30 7498 H 704.989 -3.89843 1.46326 0
M  V30 7499 H 707.586 -5.25972 -0.962146 0
M  V30 7500 H 707.929 -3.75949 -1.78796 0
M  V30 7501 H 708.462 -3.97666 -0.103125 0
M  V30 7502 H 705.201 -6.30857 1.78045 0
M  V30 7503 H 704.721 -5.99723 0.0964029 0
M  V30 7504 H 706.4 -6.45226 0.478815 0
M  V30 7505 N 706.532 -0.168513 -1.56696 0
M  V30 7506 C 707.809 0.523367 -1.88468 0
M  V30 7507 C 708.189 1.81503 -1.07796 0
M  V30 7508 O 707.537 2.27859 -0.171045 0
M  V30 7509 C 707.747 0.767991 -3.40445 0
M  V30 7510 C 709.095 1.09924 -4.10124 0
M  V30 7511 O 710.119 0.856625 -3.45746 0
M  V30 7512 O 708.978 1.55681 -5.23856 0
M  V30 7513 H 706.072 0.269447 -0.781874 0
M  V30 7514 H 708.618 -0.206739 -1.68436 0
M  V30 7515 H 707.39 -0.145254 -3.9103 0
M  V30 7516 H 707.013 1.55151 -3.66079 0
M  V30 7517 N 708.01 1.57248 0.105221 0
M  V30 7518 C 709.235 1.90143 0.828264 0
M  V30 7519 C 709.66 0.761811 1.71983 0
M  V30 7520 O 709.018 -0.287086 1.79013 0
M  V30 7521 C 709.066 3.21856 1.62608 0
M  V30 7522 O 708.17 3.08732 2.7342 0
M  V30 7523 H 707.511 0.623558 0.228192 0
M  V30 7524 H 710.041 2.0443 0.0834826 0
M  V30 7525 H 710.051 3.54916 2.01243 0
M  V30 7526 H 708.726 4.0439 0.971687 0
M  V30 7527 H 707.303 2.87167 2.37886 0
M  V30 7528 N 709.488 -0.375779 1.53054 0
M  V30 7529 C 710.713 -1.14484 1.7294 0
M  V30 7530 C 711.138 -1.82572 0.452668 0
M  V30 7531 O 710.496 -1.71343 -0.592567 0
M  V30 7532 C 710.544 -2.15857 2.88857 0
M  V30 7533 O 709.648 -3.22725 2.56753 0
M  V30 7534 H 708.989 -0.332666 0.574656 0
M  V30 7535 H 711.519 -0.436025 1.999 0
M  V30 7536 H 711.529 -2.59631 3.14731 0
M  V30 7537 H 710.204 -1.65689 3.81471 0
M  V30 7538 H 708.781 -2.83996 2.41663 0
M  V30 7539 N 710.966 -1.44241 -0.634997 0
M  V30 7540 C 711.929 -1.50457 -1.72903 0
M  V30 7541 C 712.929 -0.387058 -1.56072 0
M  V30 7542 O 714.119 -0.649531 -1.61638 0
M  V30 7543 C 711.251 -1.37477 -3.1195 0
M  V30 7544 H 712.444 -2.47907 -1.68767 0
M  V30 7545 H 709.997 -1.31276 -0.84831 0
M  V30 7546 H 710.732 -0.41106 -3.21684 0
M  V30 7547 H 710.517 -2.18506 -3.25573 0
M  V30 7548 H 712.007 -1.44799 -3.91692 0
M  V30 7549 N 712.444 0.87505 -1.31075 0
M  V30 7550 C 713.691 1.62768 -1.20469 0
M  V30 7551 C 714.019 1.93034 0.23834 0
M  V30 7552 O 713.274 1.55693 1.18567 0
M  V30 7553 C 713.573 2.96948 -1.98888 0
M  V30 7554 C 713.239 2.86195 -3.4843 0
M  V30 7555 C 711.901 2.82969 -3.89207 0
M  V30 7556 C 714.253 2.73599 -4.43614 0
M  V30 7557 C 711.581 2.64999 -5.23443 0
M  V30 7558 C 713.933 2.57166 -5.77969 0
M  V30 7559 C 712.597 2.52321 -6.17973 0
M  V30 7560 H 711.867 0.595611 -0.440827 0
M  V30 7561 H 714.514 1.01665 -1.62285 0
M  V30 7562 H 712.819 3.62058 -1.49737 0
M  V30 7563 H 714.516 3.54164 -1.88067 0
M  V30 7564 H 711.106 2.8952 -3.16032 0
M  V30 7565 H 715.29 2.7515 -4.13045 0
M  V30 7566 H 710.546 2.5967 -5.53517 0
M  V30 7567 H 714.72 2.46396 -6.51354 0
M  V30 7568 H 712.347 2.38156 -7.21932 0
M  V30 7569 N 713.922 1.13953 1.08869 0
M  V30 7570 C 714.869 0.82213 2.15661 0
M  V30 7571 C 715.839 -0.218274 1.6466 0
M  V30 7572 O 717.024 -0.0892475 1.90591 0
M  V30 7573 C 714.164 0.300572 3.43789 0
M  V30 7574 C 713.277 1.40071 4.08661 0
M  V30 7575 C 712.412 0.836897 5.24566 0
M  V30 7576 C 711.451 1.91504 5.81371 0
M  V30 7577 N 710.588 1.36875 6.88629 0
M  V30 7578 H 715.428 1.73683 2.42153 0
M  V30 7579 H 712.965 0.866879 1.18843 0
M  V30 7580 H 714.923 -0.0199943 4.17195 0
M  V30 7581 H 713.553 -0.577248 3.17597 0
M  V30 7582 H 712.605 1.83776 3.33062 0
M  V30 7583 H 713.917 2.21534 4.46905 0
M  V30 7584 H 713.071 0.467953 6.04893 0
M  V30 7585 H 711.81 -0.00874207 4.87699 0
M  V30 7586 H 710.815 2.29299 4.99702 0
M  V30 7587 H 712.04 2.76419 6.20298 0
M  V30 7588 H 709.986 0.545211 6.5373 0
M  V30 7589 H 709.903 2.1198 7.25672 0
M  V30 7590 H 711.171 1.02756 7.72698 0
M  V30 7591 N 715.4 -1.26948 0.933913 0
M  V30 7592 C 716.35 -2.24306 0.408779 0
M  V30 7593 C 717.334 -1.53243 -0.490435 0
M  V30 7594 O 718.526 -1.73956 -0.326866 0
M  V30 7595 C 715.655 -3.41695 -0.331578 0
M  V30 7596 C 714.741 -4.20053 0.58451 0
M  V30 7597 N 715.132 -4.76122 1.70709 0
M  V30 7598 C 713.43 -4.44303 0.388703 0
M  V30 7599 C 714.131 -5.35267 2.27737 0
M  V30 7600 N 713.107 -5.20548 1.56622 0
M  V30 7601 H 716.909 -2.65244 1.26582 0
M  V30 7602 H 714.423 -1.4195 0.788919 0
M  V30 7603 H 716.42 -4.10552 -0.724774 0
M  V30 7604 H 715.08 -3.02286 -1.18547 0
M  V30 7605 H 716.091 -4.73884 2.08937 0
M  V30 7606 H 712.768 -4.15341 -0.424016 0
M  V30 7607 H 714.158 -5.89563 3.22282 0
M  V30 7608 N 716.879 -0.700114 -1.41195 0
M  V30 7609 C 717.827 -0.0263301 -2.32585 0
M  V30 7610 C 718.821 0.763683 -1.51209 0
M  V30 7611 O 720.027 0.668793 -1.67114 0
M  V30 7612 H 716.402 0.0102869 -0.75193 0
M  V30 7613 H 718.373 -0.814087 -2.8708 0
M  V30 7614 C 717.122 0.892793 -3.36042 0
M  V30 7615 H 716.445 0.294306 -3.98715 0
M  V30 7616 H 717.885 1.33247 -4.02518 0
M  V30 7617 C 716.344 2.01109 -2.7029 0
M  V30 7618 O 716.874 3.10035 -2.55423 0
M  V30 7619 N 715.08 1.79015 -2.28915 0
M  V30 7620 H 714.627 0.904275 -2.41207 0
M  V30 7621 H 714.585 2.54022 -1.85257 0
M  V30 7622 N 718.357 1.51182 -0.445186 0
M  V30 7623 C 719.605 2.01753 0.11841 0
M  V30 7624 C 719.926 1.33087 1.42523 0
M  V30 7625 O 719.196 0.467891 1.9023 0
M  V30 7626 H 717.776 0.745536 0.0467492 0
M  V30 7627 H 720.438 1.85765 -0.589688 0
M  V30 7628 H 719.534 3.10762 0.288665 0
M  V30 7629 N 719.835 0.176821 1.56605 0
M  V30 7630 C 721.063 -0.472828 2.01425 0
M  V30 7631 C 721.478 -1.56436 1.05703 0
M  V30 7632 O 720.835 -1.82405 0.058808 0
M  V30 7633 C 720.886 -1.04607 3.46034 0
M  V30 7634 O 720.607 0.00189608 4.381 0
M  V30 7635 C 722.108 -1.7734 4.06282 0
M  V30 7636 H 719.328 -0.120503 0.660091 0
M  V30 7637 H 721.872 0.280166 2.02572 0
M  V30 7638 H 720.027 -1.74953 3.45645 0
M  V30 7639 H 720.441 -0.422118 5.22799 0
M  V30 7640 H 721.915 -2.12703 5.09374 0
M  V30 7641 H 722.392 -2.67043 3.4869 0
M  V30 7642 H 722.998 -1.11623 4.10391 0
M  V30 7643 N 721.313 -1.57302 -0.09688 0
M  V30 7644 C 722.559 -1.86273 -0.801885 0
M  V30 7645 C 722.892 -0.765694 -1.78468 0
M  V30 7646 O 722.167 0.226495 -1.93177 0
M  V30 7647 C 722.45 -3.25876 -1.53221 0
M  V30 7648 C 722.303 -4.46205 -0.567529 0
M  V30 7649 C 723.622 -3.63352 -2.48321 0
M  V30 7650 H 720.741 -0.67752 -0.29006 0
M  V30 7651 H 723.383 -1.89887 -0.0655577 0
M  V30 7652 H 721.533 -3.22926 -2.15988 0
M  V30 7653 H 723.205 -4.6127 0.0529982 0
M  V30 7654 H 721.448 -4.33636 0.119233 0
M  V30 7655 H 722.119 -5.40608 -1.11564 0
M  V30 7656 H 724.595 -3.67234 -1.95648 0
M  V30 7657 H 723.471 -4.61968 -2.9644 0
M  V30 7658 H 723.732 -2.91941 -3.31998 0
M  V30 7659 N 722.791 0.367657 -1.53252 0
M  V30 7660 C 723.701 1.47415 -1.82499 0
M  V30 7661 C 724.717 1.58711 -0.713222 0
M  V30 7662 O 725.893 1.74644 -1.00306 0
M  V30 7663 C 722.958 2.82706 -2.00694 0
M  V30 7664 C 722.019 2.80955 -3.24596 0
M  V30 7665 C 721.252 4.09793 -3.41914 0
M  V30 7666 O 721.475 5.05852 -2.63572 0
M  V30 7667 O 720.409 4.15731 -4.3526 0
M  V30 7668 H 724.235 1.25624 -2.765 0
M  V30 7669 H 721.82 0.557559 -1.38606 0
M  V30 7670 H 723.702 3.62873 -2.14246 0
M  V30 7671 H 722.377 3.04479 -1.09883 0
M  V30 7672 H 721.284 1.99494 -3.16469 0
M  V30 7673 H 722.617 2.64136 -4.15323 0
M  V30 7674 N 724.269 1.44576 0.627338 0
M  V30 7675 C 725.509 1.49083 1.39834 0
M  V30 7676 C 725.873 0.121643 1.91614 0
M  V30 7677 O 727.074 0.0413885 2.68768 0
M  V30 7678 C 725.345 2.52467 2.52973 0
M  V30 7679 S 726.904 2.7605 3.41089 0
M  V30 7680 H 723.722 0.527252 0.476997 0
M  V30 7681 H 726.324 1.81525 0.725872 0
M  V30 7682 H 725.028 3.50646 2.13249 0
M  V30 7683 H 724.559 2.2161 3.25042 0
M  V30 7684 H 726.574 2.07932 4.50531 0
M  V30 7685 N 725.747 -0.868086 1.31537 0
M  V30 7686 C 726.694 -1.97548 1.19346 0
M  V30 7687 C 727.664 -1.65913 0.0787922 0
M  V30 7688 O 728.849 -1.89129 0.251985 0
M  V30 7689 C 725.989 -3.32922 0.908692 0
M  V30 7690 C 725.102 -3.77141 2.10687 0
M  V30 7691 C 724.237 -5.01241 1.75873 0
M  V30 7692 C 723.276 -5.37914 2.92088 0
M  V30 7693 N 722.413 -6.53192 2.57457 0
M  V30 7694 H 727.253 -2.07307 2.14074 0
M  V30 7695 H 724.79 -1.01483 1.06487 0
M  V30 7696 H 726.748 -4.10867 0.724138 0
M  V30 7697 H 725.378 -3.228 -0.0017611 0
M  V30 7698 H 724.43 -2.94961 2.40213 0
M  V30 7699 H 725.742 -4.00248 2.97663 0
M  V30 7700 H 724.896 -5.86858 1.53891 0
M  V30 7701 H 723.635 -4.80041 0.86091 0
M  V30 7702 H 722.64 -4.50814 3.14717 0
M  V30 7703 H 723.865 -5.61077 3.82582 0
M  V30 7704 H 721.811 -6.33536 1.702 0
M  V30 7705 H 721.728 -6.76252 3.37963 0
M  V30 7706 H 722.996 -7.41997 2.38873 0
M  V30 7707 N 727.225 -1.14528 -1.08264 0
M  V30 7708 C 728.188 -0.83632 -2.13397 0
M  V30 7709 C 729.188 0.159715 -1.60005 0
M  V30 7710 O 730.378 -0.0688098 -1.74064 0
M  V30 7711 C 727.51 -0.246973 -3.40004 0
M  V30 7712 H 728.703 -1.76808 -2.42237 0
M  V30 7713 H 726.256 -0.951509 -1.24 0
M  V30 7714 H 726.991 0.693436 -3.168 0
M  V30 7715 H 726.776 -0.964412 -3.80055 0
M  V30 7716 H 728.266 -0.0480679 -4.17572 0
M  V30 7717 N 728.703 1.26451 -0.940633 0
M  V30 7718 C 729.933 1.97581 -0.603766 0
M  V30 7719 C 730.341 1.70246 0.825395 0
M  V30 7720 O 729.684 0.967001 1.56188 0
M  V30 7721 C 729.746 3.51256 -0.765463 0
M  V30 7722 C 729.41 4.0224 -2.16915 0
M  V30 7723 C 730.407 4.1402 -3.14457 0
M  V30 7724 C 728.092 4.36263 -2.48958 0
M  V30 7725 C 730.086 4.59117 -4.42143 0
M  V30 7726 C 727.773 4.81048 -3.76877 0
M  V30 7727 C 728.771 4.92436 -4.73282 0
M  V30 7728 O 728.459 5.36234 -5.98923 0
M  V30 7729 H 728.191 0.636948 -0.226436 0
M  V30 7730 H 730.745 1.61941 -1.2635 0
M  V30 7731 H 728.975 3.86669 -0.0485956 0
M  V30 7732 H 730.664 4.03597 -0.431738 0
M  V30 7733 H 731.43 3.87981 -2.91026 0
M  V30 7734 H 727.309 4.26634 -1.74656 0
M  V30 7735 H 730.853 4.6792 -5.17394 0
M  V30 7736 H 726.75 5.06531 -4.00121 0
M  V30 7737 H 727.518 5.54456 -6.02097 0
M  V30 7738 N 730.181 0.707592 1.40822 0
M  V30 7739 C 731.129 0.0386643 2.32568 0
M  V30 7740 C 732.123 -0.755653 1.51612 0
M  V30 7741 O 733.329 -0.659921 1.67467 0
M  V30 7742 H 729.704 -0.00629912 0.751974 0
M  V30 7743 H 731.675 0.8293 2.86645 0
M  V30 7744 C 730.424 -0.87496 3.36511 0
M  V30 7745 H 729.747 -0.273157 3.98866 0
M  V30 7746 H 731.187 -1.31111 4.03219 0
M  V30 7747 C 729.646 -1.99672 2.71353 0
M  V30 7748 O 730.176 -3.08676 2.57064 0
M  V30 7749 N 728.382 -1.77799 2.29861 0
M  V30 7750 H 727.929 -0.89147 2.41683 0
M  V30 7751 H 727.887 -2.53036 1.86601 0
M  V30 7752 N 731.66 -1.50943 0.453197 0
M  V30 7753 C 732.937 -1.94872 -0.168633 0
M  V30 7754 C 733.317 -1.39272 -1.5864 0
M  V30 7755 O 732.665 -0.586272 -2.20851 0
M  V30 7756 C 732.875 -3.48757 -0.130217 0
M  V30 7757 C 734.223 -4.23331 -0.327975 0
M  V30 7758 O 735.247 -3.55594 -0.207619 0
M  V30 7759 O 734.106 -5.43529 -0.569077 0
M  V30 7760 H 731.2 -0.818042 -0.121394 0
M  V30 7761 H 733.746 -1.61782 0.512316 0
M  V30 7762 H 732.518 -3.81725 0.860346 0
M  V30 7763 H 732.141 -3.88333 -0.853397 0
M  V30 7764 N 733.138 -0.185124 -1.56509 0
M  V30 7765 C 734.384 0.456934 -1.97585 0
M  V30 7766 C 734.717 1.61957 -1.07161 0
M  V30 7767 O 733.992 1.9412 -0.121546 0
M  V30 7768 C 734.275 0.926666 -3.47973 0
M  V30 7769 C 734.128 -0.237097 -4.49175 0
M  V30 7770 C 735.447 1.79561 -4.01803 0
M  V30 7771 H 732.566 0.164619 -0.71838 0
M  V30 7772 H 735.208 -0.274039 -1.88013 0
M  V30 7773 H 733.358 1.54954 -3.56261 0
M  V30 7774 H 735.03 -0.87454 -4.52934 0
M  V30 7775 H 733.273 -0.890446 -4.24563 0
M  V30 7776 H 733.944 0.133924 -5.51838 0
M  V30 7777 H 736.42 1.27039 -3.96232 0
M  V30 7778 H 735.296 2.09327 -5.07418 0
M  V30 7779 H 735.557 2.74629 -3.46455 0
M  V30 7780 N 734.616 1.57351 0.0885366 0
M  V30 7781 C 735.864 1.86051 0.789262 0
M  V30 7782 C 736.185 0.774763 1.78948 0
M  V30 7783 O 735.455 -0.198324 1.94894 0
M  V30 7784 H 734.035 0.686508 0.294475 0
M  V30 7785 H 736.697 1.94779 0.0686055 0
M  V30 7786 H 735.793 2.83007 1.31581 0
M  V30 7787 N 736.094 -0.359525 1.53444 0
M  V30 7788 C 737.041 -1.44073 1.8031 0
M  V30 7789 C 738.011 -1.52946 0.647811 0
M  V30 7790 O 739.196 -1.68739 0.890614 0
M  V30 7791 C 736.336 -2.80941 2.00416 0
M  V30 7792 C 735.449 -2.80986 3.28132 0
M  V30 7793 C 734.584 -4.09468 3.38393 0
M  V30 7794 C 733.623 -4.03679 4.60119 0
M  V30 7795 N 732.76 -5.23821 4.675 0
M  V30 7796 H 737.6 -1.20464 2.72566 0
M  V30 7797 H 735.137 -0.583859 1.35017 0
M  V30 7798 H 737.095 -3.60459 2.1006 0
M  V30 7799 H 735.725 -3.02936 1.11489 0
M  V30 7800 H 734.777 -1.93666 3.27411 0
M  V30 7801 H 736.089 -2.72583 4.17732 0
M  V30 7802 H 735.243 -4.97404 3.47382 0
M  V30 7803 H 733.982 -4.20632 2.4682 0
M  V30 7804 H 732.987 -3.14129 4.51224 0
M  V30 7805 H 734.212 -3.94112 5.5304 0
M  V30 7806 H 732.158 -5.35559 3.7883 0
M  V30 7807 H 732.075 -5.17611 5.51013 0
M  V30 7808 H 733.343 -6.13572 4.8078 0
M  V30 7809 N 737.572 -1.44907 -0.619662 0
M  V30 7810 C 738.8 -1.51795 -1.40591 0
M  V30 7811 C 739.215 -0.146553 -1.8823 0
M  V30 7812 O 738.572 0.849698 -1.61513 0
M  V30 7813 C 738.623 -2.49229 -2.61853 0
M  V30 7814 O 738.344 -3.81039 -2.16197 0
M  V30 7815 C 739.845 -2.65696 -3.54853 0
M  V30 7816 H 737.065 -0.514463 -0.430777 0
M  V30 7817 H 739.609 -1.8998 -0.756813 0
M  V30 7818 H 737.764 -2.14149 -3.2283 0
M  V30 7819 H 738.178 -4.33747 -2.94896 0
M  V30 7820 H 739.652 -3.37874 -4.36515 0
M  V30 7821 H 740.129 -1.71316 -4.0441 0
M  V30 7822 H 740.735 -3.01724 -2.99737 0
M  V30 7823 N 739.05 0.861098 -1.31996 0
M  V30 7824 C 740.275 1.65264 -1.2531 0
M  V30 7825 C 740.7 1.87265 0.177007 0
M  V30 7826 O 740.058 1.4208 1.12619 0
M  V30 7827 C 740.106 2.99284 -2.0115 0
M  V30 7828 O 739.21 3.89508 -1.3549 0
M  V30 7829 H 738.551 0.50409 -0.432192 0
M  V30 7830 H 741.081 1.07297 -1.74208 0
M  V30 7831 H 741.091 3.49154 -2.11081 0
M  V30 7832 H 739.766 2.82591 -3.05148 0
M  V30 7833 H 738.343 3.47966 -1.34066 0
M  V30 7834 N 740.528 1.15101 1.07655 0
M  V30 7835 C 741.491 0.847625 2.12951 0
M  V30 7836 C 742.491 -0.151227 1.60087 0
M  V30 7837 O 743.681 0.0780399 1.74025 0
M  V30 7838 C 740.813 0.265 3.39868 0
M  V30 7839 H 742.006 1.7809 2.41296 0
M  V30 7840 H 739.559 0.958072 1.23494 0
M  V30 7841 H 740.294 -0.676625 3.17163 0
M  V30 7842 H 740.079 0.984554 3.79538 0
M  V30 7843 H 741.569 0.0702121 4.17541 0
M  V30 7844 N 742.006 -1.2595 0.947325 0
M  V30 7845 C 743.236 -1.97258 0.614235 0
M  V30 7846 C 743.644 -1.70682 -0.816355 0
M  V30 7847 O 742.987 -0.97527 -1.55673 0
M  V30 7848 C 743.049 -3.50845 0.784081 0
M  V30 7849 C 742.713 -4.01084 2.19045 0
M  V30 7850 C 743.71 -4.12347 3.16648 0
M  V30 7851 C 741.395 -4.34936 2.51268 0
M  V30 7852 C 743.389 -4.56766 4.44572 0
M  V30 7853 C 741.076 -4.79043 3.79422 0
M  V30 7854 C 742.074 -4.89919 4.75887 0
M  V30 7855 O 741.762 -5.3305 6.01758 0
M  V30 7856 H 741.494 -0.635738 0.22981 0
M  V30 7857 H 744.048 -1.61268 1.27207 0
M  V30 7858 H 742.278 -3.86638 0.069101 0
M  V30 7859 H 743.967 -4.03363 0.453135 0
M  V30 7860 H 744.733 -3.86432 2.93079 0
M  V30 7861 H 740.612 -4.25702 1.76916 0
M  V30 7862 H 744.156 -4.6517 5.19868 0
M  V30 7863 H 740.053 -5.04402 4.02802 0
M  V30 7864 H 740.821 -5.51255 6.05029 0
M  V30 7865 N 743.484 -0.715051 -1.40445 0
M  V30 7866 C 744.731 -0.254328 -2.00897 0
M  V30 7867 C 745.059 1.15228 -1.56693 0
M  V30 7868 O 744.314 1.7958 -0.777786 0
M  V30 7869 C 744.613 -0.281791 -3.56287 0
M  V30 7870 C 744.279 -1.63862 -4.20071 0
M  V30 7871 C 742.941 -2.01003 -4.37208 0
M  V30 7872 C 745.293 -2.53039 -4.55654 0
M  V30 7873 C 742.621 -3.26869 -4.8721 0
M  V30 7874 C 744.973 -3.78256 -5.07055 0
M  V30 7875 C 743.637 -4.15515 -5.22401 0
M  V30 7876 H 742.907 -0.0930652 -0.735133 0
M  V30 7877 H 745.554 -0.917977 -1.68064 0
M  V30 7878 H 743.859 0.465428 -3.89026 0
M  V30 7879 H 745.556 0.0925158 -4.00893 0
M  V30 7880 H 742.146 -1.33979 -4.07121 0
M  V30 7881 H 746.33 -2.2562 -4.42051 0
M  V30 7882 H 741.586 -3.55706 -4.97276 0
M  V30 7883 H 745.76 -4.47528 -5.33565 0
M  V30 7884 H 743.387 -5.13114 -5.60909 0
M  V30 7885 N 744.962 1.50701 -0.461195 0
M  V30 7886 C 745.91 2.29918 0.352231 0
M  V30 7887 C 746.904 1.36778 0.999403 0
M  V30 7888 O 748.11 1.54015 0.931639 0
M  V30 7889 H 744.485 0.740249 0.132423 0
M  V30 7890 H 746.456 2.96497 -0.336424 0
M  V30 7891 C 745.205 3.17052 1.42736 0
M  V30 7892 H 744.528 3.88623 0.938747 0
M  V30 7893 H 745.968 3.75493 1.96928 0
M  V30 7894 C 744.427 2.3399 2.42384 0
M  V30 7895 O 744.957 2.01608 3.47444 0
M  V30 7896 N 743.163 1.96758 2.13857 0
M  V30 7897 H 742.71 2.23292 1.28447 0
M  V30 7898 H 742.668 1.41484 2.80766 0
M  V30 7899 N 746.441 0.193421 1.56409 0
M  V30 7900 C 747.688 -0.445789 1.97532 0
M  V30 7901 C 748.016 -1.61744 1.08024 0
M  V30 7902 O 747.271 -1.95338 0.118982 0
M  V30 7903 C 747.57 -0.949718 3.44551 0
M  V30 7904 C 747.236 0.108383 4.5077 0
M  V30 7905 C 745.898 0.399126 4.79542 0
M  V30 7906 C 748.25 0.825423 5.14622 0
M  V30 7907 C 745.578 1.41192 5.69457 0
M  V30 7908 C 747.93 1.82735 6.05632 0
M  V30 7909 C 746.594 2.12531 6.32761 0
M  V30 7910 H 745.864 -0.163126 0.722822 0
M  V30 7911 H 748.511 0.290035 1.89291 0
M  V30 7912 H 746.816 -1.76378 3.49854 0
M  V30 7913 H 748.513 -1.45367 3.73724 0
M  V30 7914 H 745.103 -0.128392 4.28408 0
M  V30 7915 H 749.287 0.61403 4.92487 0
M  V30 7916 H 744.543 1.6487 5.88751 0
M  V30 7917 H 748.717 2.3882 6.5417 0
M  V30 7918 H 746.344 2.91155 7.02234 0
M  V30 7919 N 747.919 -1.57396 -0.0801906 0
M  V30 7920 C 748.882 -2.02133 -1.0805 0
M  V30 7921 C 749.882 -0.91707 -1.32085 0
M  V30 7922 O 751.072 -1.18217 -1.27947 0
M  V30 7923 C 748.204 -2.39479 -2.42616 0
M  V30 7924 H 749.397 -2.91733 -0.6951 0
M  V30 7925 H 746.95 -1.52869 -0.325677 0
M  V30 7926 H 747.685 -1.52879 -2.86004 0
M  V30 7927 H 747.47 -3.20052 -2.26515 0
M  V30 7928 H 748.96 -2.74697 -3.14534 0
M  V30 7929 N 749.397 0.351382 -1.53633 0
M  V30 7930 C 750.644 1.0925 -1.70502 0
M  V30 7931 C 750.972 1.88881 -0.464123 0
M  V30 7932 O 750.227 1.87693 0.554077 0
M  V30 7933 C 750.526 2.06744 -2.91533 0
M  V30 7934 C 750.192 1.43484 -4.27461 0
M  V30 7935 C 748.854 1.2596 -4.64422 0
M  V30 7936 C 751.206 0.978436 -5.11934 0
M  V30 7937 C 748.534 0.614017 -5.83478 0
M  V30 7938 C 750.886 0.346795 -6.31649 0
M  V30 7939 C 749.55 0.15917 -6.6731 0
M  V30 7940 H 748.82 0.399773 -0.623909 0
M  V30 7941 H 751.467 0.372656 -1.87839 0
M  V30 7942 H 749.772 2.85082 -2.68767 0
M  V30 7943 H 751.469 2.64066 -3.01778 0
M  V30 7944 H 748.059 1.5812 -3.98367 0
M  V30 7945 H 752.243 1.1017 -4.83918 0
M  V30 7946 H 747.499 0.457194 -6.09688 0
M  V30 7947 H 751.673 -0.0149864 -6.96398 0
M  V30 7948 H 749.3 -0.343129 -7.59425 0
M  V30 7949 N 750.875 1.45233 0.611969 0
M  V30 7950 C 751.822 1.5357 1.72293 0
M  V30 7951 C 752.792 0.381912 1.6165 0
M  V30 7952 O 753.977 0.594765 1.81293 0
M  V30 7953 C 751.117 1.50419 3.10593 0
M  V30 7954 C 750.23 2.76316 3.32074 0
M  V30 7955 C 749.365 2.64866 4.60456 0
M  V30 7956 C 748.404 3.85838 4.7518 0
M  V30 7957 N 747.541 3.72949 5.94856 0
M  V30 7958 H 752.381 2.4848 1.64504 0
M  V30 7959 H 749.918 1.23302 0.802191 0
M  V30 7960 H 751.876 1.4658 3.90602 0
M  V30 7961 H 750.506 0.590621 3.17351 0
M  V30 7962 H 749.558 2.90261 2.45872 0
M  V30 7963 H 750.87 3.66055 3.38829 0
M  V30 7964 H 750.024 2.58969 5.48653 0
M  V30 7965 H 748.763 1.72719 4.56092 0
M  V30 7966 H 747.768 3.92099 3.85407 0
M  V30 7967 H 748.993 4.79045 4.81344 0
M  V30 7968 H 746.939 2.83567 5.91545 0
M  V30 7969 H 746.856 4.56319 6.02751 0
M  V30 7970 H 748.124 3.70976 6.85563 0
M  V30 7971 N 752.353 -0.854086 1.3245 0
M  V30 7972 C 753.601 -1.60513 1.228 0
M  V30 7973 C 753.922 -1.93865 -0.210073 0
M  V30 7974 O 753.192 -1.59673 -1.13496 0
M  V30 7975 H 751.772 -0.595099 0.451516 0
M  V30 7976 H 754.434 -1.0216 1.6598 0
M  V30 7977 H 753.53 -2.54182 1.81102 0
M  V30 7978 N 753.831 -1.1567 -1.07043 0
M  V30 7979 C 754.779 -0.852204 -2.16426 0
M  V30 7980 C 755.773 0.175661 -1.68487 0
M  V30 7981 O 756.979 0.0303874 -1.79974 0
M  V30 7982 H 753.354 -0.257942 -0.706378 0
M  V30 7983 H 755.325 -1.78231 -2.39324 0
M  V30 7984 C 754.074 -0.361362 -3.45817 0
M  V30 7985 H 753.397 -1.14369 -3.83092 0
M  V30 7986 H 754.837 -0.186997 -4.23587 0
M  V30 7987 C 753.296 0.917703 -3.2416 0
M  V30 7988 O 753.826 1.98858 -3.49025 0
M  V30 7989 N 752.032 0.858456 -2.77631 0
M  V30 7990 H 751.579 -0.0131821 -2.57597 0
M  V30 7991 H 751.537 1.71478 -2.6352 0
M  V30 7992 N 755.309 1.25446 -0.953992 0
M  V30 7993 C 756.257 2.27909 -0.46478 0
M  V30 7994 C 757.251 1.62904 0.464607 0
M  V30 7995 O 758.457 1.76733 0.341407 0
M  V30 7996 H 754.832 0.74036 -0.131798 0
M  V30 7997 H 756.803 2.66559 -1.34122 0
M  V30 7998 C 755.552 3.46853 0.242589 0
M  V30 7999 H 754.875 3.97105 -0.463418 0
M  V30 8000 H 756.315 4.20432 0.548919 0
M  V30 8001 C 754.774 3.03386 1.46487 0
M  V30 8002 O 755.304 3.09342 2.56262 0
M  V30 8003 N 753.51 2.58584 1.32599 0
M  V30 8004 H 753.057 2.53938 0.432834 0
M  V30 8005 H 753.015 2.29866 2.14497 0
M  V30 8006 N 756.787 0.722489 1.40064 0
M  V30 8007 C 757.734 0.0743738 2.3068 0
M  V30 8008 C 758.704 -0.743004 1.48555 0
M  V30 8009 O 759.889 -0.705536 1.77276 0
M  V30 8010 C 757.029 -0.836292 3.34814 0
M  V30 8011 C 756.142 -0.00764663 4.31999 0
M  V30 8012 C 755.277 -0.918428 5.232 0
M  V30 8013 C 754.316 -0.0842838 6.12042 0
M  V30 8014 N 753.453 -0.950316 6.95639 0
M  V30 8015 H 758.293 0.852794 2.85537 0
M  V30 8016 H 755.83 0.432222 1.40607 0
M  V30 8017 H 757.788 -1.3786 3.93765 0
M  V30 8018 H 756.418 -1.58082 2.81443 0
M  V30 8019 H 755.47 0.651928 3.74772 0
M  V30 8020 H 756.782 0.63786 4.94705 0
M  V30 8021 H 755.936 -1.52902 5.87116 0
M  V30 8022 H 754.675 -1.59774 4.60786 0
M  V30 8023 H 753.68 0.5392 5.4715 0
M  V30 8024 H 754.905 0.591628 6.76518 0
M  V30 8025 H 752.851 -1.61515 6.35806 0
M  V30 8026 H 752.768 -0.361004 7.55138 0
M  V30 8027 H 754.036 -1.54687 7.63997 0
M  V30 8028 N 758.265 -1.50454 0.469181 0
M  V30 8029 C 759.175 -2.32248 -0.331349 0
M  V30 8030 C 760.191 -1.42548 -0.997807 0
M  V30 8031 O 761.367 -1.75602 -0.9862 0
M  V30 8032 C 758.432 -3.17171 -1.40012 0
M  V30 8033 C 757.493 -4.2269 -0.750463 0
M  V30 8034 C 756.726 -5.03554 -1.76831 0
M  V30 8035 O 756.949 -4.85469 -2.99459 0
M  V30 8036 O 755.883 -5.86767 -1.3412 0
M  V30 8037 H 759.709 -3.01821 0.337279 0
M  V30 8038 H 757.294 -1.47602 0.231066 0
M  V30 8039 H 759.176 -3.69871 -2.01924 0
M  V30 8040 H 757.851 -2.50328 -2.05226 0
M  V30 8041 H 756.758 -3.73986 -0.0924446 0
M  V30 8042 H 758.091 -4.91997 -0.14131 0
M  V30 8043 N 759.743 -0.201713 -1.56304 0
M  V30 8044 C 760.675 0.748466 -2.16635 0
M  V30 8045 C 761.688 1.172 -1.12996 0
M  V30 8046 O 762.877 1.10658 -1.40061 0
M  V30 8047 C 759.977 2.02296 -2.719 0
M  V30 8048 C 759.15 1.75818 -4.00508 0
M  V30 8049 C 758.209 2.87779 -4.40533 0
M  V30 8050 O 757.235 2.57101 -5.07826 0
M  V30 8051 N 758.437 4.16287 -4.04581 0
M  V30 8052 H 761.202 0.232505 -2.98797 0
M  V30 8053 H 758.763 -0.0199822 -1.61888 0
M  V30 8054 H 760.755 2.7635 -2.95657 0
M  V30 8055 H 759.325 2.44996 -1.94154 0
M  V30 8056 H 758.545 0.855095 -3.84814 0
M  V30 8057 H 759.833 1.55532 -4.84445 0
M  V30 8058 H 759.231 4.44061 -3.50466 0
M  V30 8059 H 757.788 4.86946 -4.33274 0
M  V30 8060 N 761.222 1.57436 0.0718424 0
M  V30 8061 C 762.471 1.86431 0.769826 0
M  V30 8062 C 762.784 0.794355 1.78744 0
M  V30 8063 O 763.99 0.972148 2.53499 0
M  V30 8064 C 762.446 3.307 1.42006 0
M  V30 8065 C 762.054 4.45824 0.441017 0
M  V30 8066 C 763.798 3.68894 2.10041 0
M  V30 8067 C 761.705 5.81134 1.09717 0
M  V30 8068 H 760.635 0.695474 0.291259 0
M  V30 8069 H 763.286 1.83485 0.0231224 0
M  V30 8070 H 761.668 3.28257 2.21502 0
M  V30 8071 H 762.842 4.59659 -0.32413 0
M  V30 8072 H 761.157 4.16181 -0.134886 0
M  V30 8073 H 763.754 4.67281 2.59908 0
M  V30 8074 H 764.097 2.98692 2.89981 0
M  V30 8075 H 764.63 3.73326 1.37376 0
M  V30 8076 H 761.369 6.54628 0.338095 0
M  V30 8077 H 760.889 5.711 1.83317 0
M  V30 8078 H 762.568 6.26468 1.617 0
M  V30 8079 N 762.7 -0.34323 1.53817 0
M  V30 8080 C 763.65 -1.42217 1.78208 0
M  V30 8081 C 764.634 -1.4774 0.637304 0
M  V30 8082 O 765.826 -1.52605 0.896705 0
M  V30 8083 C 762.955 -2.79354 1.9954 0
M  V30 8084 C 762.041 -2.78222 3.20084 0
M  V30 8085 N 762.432 -2.46719 4.41547 0
M  V30 8086 C 760.73 -3.09368 3.21259 0
M  V30 8087 C 761.431 -2.53828 5.23399 0
M  V30 8088 N 760.407 -2.89464 4.60121 0
M  V30 8089 H 764.209 -1.16759 2.69712 0
M  V30 8090 H 761.723 -0.551592 1.52746 0
M  V30 8091 H 763.72 -3.57095 2.15148 0
M  V30 8092 H 762.38 -3.05759 1.09278 0
M  V30 8093 H 763.391 -2.19912 4.68891 0
M  V30 8094 H 760.068 -3.40942 2.40966 0
M  V30 8095 H 761.458 -2.32629 6.30344 0
M  V30 8096 N 764.178 -1.45556 -0.604258 0
M  V30 8097 C 765.589 -1.44171 -1.18624 0
M  V30 8098 C 765.94 -0.171081 -1.95453 0
M  V30 8099 O 765.065 0.727156 -2.03817 0
M  V30 8100 C 765.66 -2.61193 -2.15786 0
M  V30 8101 C 764.219 -2.62918 -2.69353 0
M  V30 8102 C 763.366 -2.36479 -1.4482 0
M  V30 8103 H 766.317 -1.53747 -0.393381 0
M  V30 8104 H 766.338 -2.35481 -2.98879 0
M  V30 8105 H 765.85 -3.53656 -1.59841 0
M  V30 8106 H 763.951 -1.7447 -3.29228 0
M  V30 8107 H 764.064 -3.6224 -3.13559 0
M  V30 8108 H 762.428 -1.86103 -1.73891 0
M  V30 8109 H 763.211 -3.31091 -0.907376 0
M  V30 8110 N 765.656 0.84705 -1.32902 0
M  V30 8111 C 766.606 1.94451 -1.19049 0
M  V30 8112 C 767.59 1.60617 -0.095461 0
M  V30 8113 O 768.782 1.74033 -0.322739 0
M  V30 8114 C 765.911 3.30645 -0.923509 0
M  V30 8115 C 764.997 3.70675 -2.0606 0
M  V30 8116 N 765.388 3.82468 -3.30986 0
M  V30 8117 C 763.686 4.00357 -1.96547 0
M  V30 8118 C 764.387 4.17056 -4.05511 0
M  V30 8119 N 763.363 4.28985 -3.33876 0
M  V30 8120 H 767.165 2.01713 -2.1375 0
M  V30 8121 H 764.679 1.03928 -1.24791 0
M  V30 8122 H 766.676 4.0905 -0.805212 0
M  V30 8123 H 765.336 3.24697 0.0150523 0
M  V30 8124 H 766.347 3.66589 -3.65832 0
M  V30 8125 H 763.024 4.02666 -1.10299 0
M  V30 8126 H 764.414 4.33585 -5.13277 0
M  V30 8127 N 767.134 1.16236 1.06428 0
M  V30 8128 C 768.362 0.967184 1.82902 0
M  V30 8129 C 768.777 -0.484601 1.82475 0
M  V30 8130 O 768.134 -1.33631 1.24294 0
M  V30 8131 C 768.185 1.48534 3.29576 0
M  V30 8132 O 767.906 2.88026 3.3011 0
M  V30 8133 C 769.407 1.33298 4.22784 0
M  V30 8134 H 766.627 0.342923 0.576754 0
M  V30 8135 H 769.171 1.54232 1.34286 0
M  V30 8136 H 767.326 0.952513 3.75508 0
M  V30 8137 H 767.74 3.11721 4.21818 0
M  V30 8138 H 769.214 1.74385 5.23731 0
M  V30 8139 H 769.691 0.278356 4.38317 0
M  V30 8140 H 770.297 1.85535 3.82697 0
M  V30 8141 N 768.612 -1.24939 0.960631 0
M  V30 8142 C 769.542 -2.28 0.503815 0
M  V30 8143 C 770.523 -1.63959 -0.452928 0
M  V30 8144 O 771.708 -1.91009 -0.350585 0
M  V30 8145 C 768.838 -3.46643 -0.213535 0
M  V30 8146 C 767.792 -4.22903 0.658535 0
M  V30 8147 C 767.118 -5.34363 -0.189902 0
M  V30 8148 C 768.418 -4.84949 1.93963 0
M  V30 8149 H 770.112 -2.66462 1.36521 0
M  V30 8150 H 767.658 -1.28093 0.657897 0
M  V30 8151 H 769.611 -4.1787 -0.544286 0
M  V30 8152 H 768.335 -3.07187 -1.10923 0
M  V30 8153 H 766.994 -3.53467 0.972455 0
M  V30 8154 H 766.642 -4.91147 -1.08553 0
M  V30 8155 H 766.342 -5.86302 0.390331 0
M  V30 8156 H 767.866 -6.0842 -0.515484 0
M  V30 8157 H 769.28 -5.48288 1.67491 0
M  V30 8158 H 767.677 -5.47091 2.46601 0
M  V30 8159 H 768.747 -4.06799 2.639 0
M  V30 8160 N 770.09 -0.729906 -1.39679 0
M  V30 8161 C 771.337 -0.275622 -2.00615 0
M  V30 8162 C 771.665 1.13559 -1.57907 0
M  V30 8163 O 770.92 1.78745 -0.796789 0
M  V30 8164 C 771.219 -0.319564 -3.55968 0
M  V30 8165 C 770.885 -1.68308 -4.1831 0
M  V30 8166 C 769.547 -2.05629 -4.35052 0
M  V30 8167 C 771.899 -2.57857 -4.52945 0
M  V30 8168 C 769.227 -3.32018 -4.83716 0
M  V30 8169 C 771.579 -3.83613 -5.03015 0
M  V30 8170 C 770.243 -4.21033 -5.17965 0
M  V30 8171 H 769.513 -0.100857 -0.734104 0
M  V30 8172 H 772.16 -0.93575 -1.67081 0
M  V30 8173 H 770.465 0.42414 -3.89497 0
M  V30 8174 H 772.162 0.0499905 -4.00969 0
M  V30 8175 H 768.752 -1.3829 -4.05677 0
M  V30 8176 H 772.936 -2.30295 -4.39634 0
M  V30 8177 H 768.192 -3.6096 -4.93475 0
M  V30 8178 H 772.366 -4.53162 -5.28788 0
M  V30 8179 H 769.993 -5.19034 -5.55435 0
M  V30 8180 N 771.568 1.50203 -0.477153 0
M  V30 8181 C 772.796 2.0677 0.0732489 0
M  V30 8182 C 773.211 1.34033 1.32968 0
M  V30 8183 O 772.568 0.411412 1.77802 0
M  V30 8184 C 772.619 3.59751 0.35518 0
M  V30 8185 O 772.34 4.29747 -0.851425 0
M  V30 8186 C 773.841 4.3296 0.951877 0
M  V30 8187 H 771.061 0.670929 -0.00978923 0
M  V30 8188 H 773.605 1.93293 -0.667676 0
M  V30 8189 H 771.76 3.7301 1.04605 0
M  V30 8190 H 772.174 5.2106 -0.599708 0
M  V30 8191 H 773.648 5.40952 1.09888 0
M  V30 8192 H 774.125 3.93856 1.94356 0
M  V30 8193 H 774.731 4.24246 0.299208 0
M  V30 8194 N 773.046 0.209999 1.56195 0
M  V30 8195 C 774.457 -0.299943 1.84275 0
M  V30 8196 C 774.808 -1.60314 1.1311 0
M  V30 8197 O 773.933 -2.1273 0.396874 0
M  V30 8198 C 774.528 -0.550986 3.3429 0
M  V30 8199 C 773.087 -1.00526 3.62728 0
M  V30 8200 C 772.234 -0.0619828 2.77231 0
M  V30 8201 H 775.185 0.433458 1.52666 0
M  V30 8202 H 775.206 -1.39846 3.53869 0
M  V30 8203 H 774.718 0.397669 3.86057 0
M  V30 8204 H 772.819 -1.96768 3.16407 0
M  V30 8205 H 772.932 -0.887664 4.70805 0
M  V30 8206 H 771.296 -0.566648 2.48317 0
M  V30 8207 H 772.079 0.881383 3.31793 0
M  V30 8208 N 774.524 -1.57472 -0.0634922 0
M  V30 8209 C 775.454 -2.07297 -1.07473 0
M  V30 8210 C 776.435 -0.968162 -1.39859 0
M  V30 8211 O 777.62 -1.24139 -1.49343 0
M  V30 8212 C 774.75 -2.52381 -2.38581 0
M  V30 8213 C 773.704 -3.66813 -2.20526 0
M  V30 8214 C 773.03 -3.97982 -3.57092 0
M  V30 8215 C 774.33 -4.96553 -1.61965 0
M  V30 8216 H 776.024 -2.92033 -0.660092 0
M  V30 8217 H 773.57 -1.40488 -0.316074 0
M  V30 8218 H 775.523 -2.85852 -3.09624 0
M  V30 8219 H 774.247 -1.64684 -2.8204 0
M  V30 8220 H 772.906 -3.33639 -1.51924 0
M  V30 8221 H 772.554 -3.07403 -3.98136 0
M  V30 8222 H 772.254 -4.7504 -3.45848 0
M  V30 8223 H 773.778 -4.33956 -4.29552 0
M  V30 8224 H 775.192 -5.28201 -2.22883 0
M  V30 8225 H 773.589 -5.7799 -1.61394 0
M  V30 8226 H 774.659 -4.81396 -0.581918 0
M  V30 8227 N 776.003 0.335068 -1.53997 0
M  V30 8228 C 776.933 1.41727 -1.85568 0
M  V30 8229 C 777.914 1.54505 -0.7115 0
M  V30 8230 O 779.099 1.68573 -0.964191 0
M  V30 8231 C 776.229 2.7866 -2.07282 0
M  V30 8232 C 775.183 2.80682 -3.23112 0
M  V30 8233 C 774.509 4.20581 -3.30175 0
M  V30 8234 C 775.809 2.45458 -4.61029 0
M  V30 8235 H 777.503 1.15555 -2.76202 0
M  V30 8236 H 775.049 0.554445 -1.32898 0
M  V30 8237 H 777.002 3.54423 -2.27952 0
M  V30 8238 H 775.726 3.06286 -1.13387 0
M  V30 8239 H 774.385 2.07373 -3.02311 0
M  V30 8240 H 774.033 4.4533 -2.33859 0
M  V30 8241 H 773.733 4.22843 -4.08016 0
M  V30 8242 H 775.257 4.98174 -3.53066 0
M  V30 8243 H 776.671 3.10934 -4.81656 0
M  V30 8244 H 775.068 2.5899 -5.41336 0
M  V30 8245 H 776.138 1.40628 -4.6406 0
M  V30 8246 N 777.481 1.45874 0.596531 0
M  V30 8247 C 778.73 1.49737 1.35135 0
M  V30 8248 C 779.043 0.147755 1.95041 0
M  V30 8249 O 780.249 0.0640984 2.71424 0
M  V30 8250 C 778.705 2.6378 2.44843 0
M  V30 8251 C 778.313 4.05102 1.91301 0
M  V30 8252 C 780.057 2.769 3.21755 0
M  V30 8253 C 777.964 5.10508 2.98557 0
M  V30 8254 H 776.894 0.557219 0.507959 0
M  V30 8255 H 779.545 1.72046 0.638147 0
M  V30 8256 H 777.927 2.34774 3.189 0
M  V30 8257 H 779.101 4.43836 1.2388 0
M  V30 8258 H 777.416 3.96528 1.271 0
M  V30 8259 H 780.013 3.52819 4.01775 0
M  V30 8260 H 780.356 1.83924 3.73467 0
M  V30 8261 H 780.889 3.05485 2.54802 0
M  V30 8262 H 777.628 6.0523 2.51749 0
M  V30 8263 H 777.148 4.76332 3.6451 0
M  V30 8264 H 778.827 5.35745 3.62748 0
M  V30 8265 N 778.959 -0.83999 1.33349 0
M  V30 8266 C 780.207 -1.59202 1.24496 0
M  V30 8267 C 780.528 -1.94077 -0.189499 0
M  V30 8268 O 779.798 -1.60868 -1.11796 0
M  V30 8269 H 778.378 -0.590276 0.457802 0
M  V30 8270 H 781.04 -1.00394 1.67054 0
M  V30 8271 H 780.136 -2.52247 1.83788 0
M  V30 8272 N 780.437 -1.16799 -1.0581 0
M  V30 8273 C 781.684 -0.952524 -1.78699 0
M  V30 8274 C 782.012 0.51931 -1.87439 0
M  V30 8275 O 781.267 1.40151 -1.36587 0
M  V30 8276 C 781.566 -1.53111 -3.22942 0
M  V30 8277 C 781.232 -3.0261 -3.34273 0
M  V30 8278 C 779.894 -3.43418 -3.37072 0
M  V30 8279 C 782.246 -3.98611 -3.35795 0
M  V30 8280 C 779.574 -4.78838 -3.39015 0
M  V30 8281 C 781.926 -5.33923 -3.39277 0
M  V30 8282 C 780.59 -5.74205 -3.40361 0
M  V30 8283 H 779.86 -0.348553 -0.653905 0
M  V30 8284 H 782.507 -1.45591 -1.244 0
M  V30 8285 H 780.812 -0.949286 -3.80126 0
M  V30 8286 H 782.509 -1.34002 -3.77948 0
M  V30 8287 H 779.099 -2.70075 -3.32803 0
M  V30 8288 H 783.283 -3.68146 -3.32839 0
M  V30 8289 H 778.539 -5.09369 -3.38161 0
M  V30 8290 H 782.713 -6.08094 -3.39403 0
M  V30 8291 H 780.34 -6.79117 -3.4162 0
M  V30 8292 N 781.915 1.24427 -0.967243 0
M  V30 8293 C 783.161 1.92772 -0.629812 0
M  V30 8294 C 783.494 1.75436 0.832827 0
M  V30 8295 O 782.769 1.10716 1.59913 0
M  V30 8296 C 783.052 3.45798 -1.00477 0
M  V30 8297 C 782.905 3.72304 -2.52407 0
M  V30 8298 C 784.224 4.36787 -0.538999 0
M  V30 8299 H 781.343 0.700099 -0.230282 0
M  V30 8300 H 783.985 1.46805 -1.20616 0
M  V30 8301 H 782.135 3.8508 -0.514336 0
M  V30 8302 H 783.807 3.42584 -3.08924 0
M  V30 8303 H 782.05 3.17472 -2.95625 0
M  V30 8304 H 782.721 4.7937 -2.73693 0
M  V30 8305 H 785.197 4.04877 -0.959874 0
M  V30 8306 H 784.073 5.4259 -0.829926 0
M  V30 8307 H 784.334 4.38527 0.560923 0
M  V30 8308 N 783.393 0.737304 1.3929 0
M  V30 8309 C 784.642 0.283129 1.99703 0
M  V30 8310 C 784.955 -1.13677 1.59176 0
M  V30 8311 O 786.161 -1.69058 2.12442 0
M  V30 8312 C 784.617 0.455262 3.57009 0
M  V30 8313 C 784.225 1.88319 4.06497 0
M  V30 8314 C 785.969 0.0629786 4.24453 0
M  V30 8315 C 783.876 2.00475 5.56385 0
M  V30 8316 H 782.806 0.102106 0.747054 0
M  V30 8317 H 785.457 0.911515 1.5926 0
M  V30 8318 H 783.839 -0.242057 3.9526 0
M  V30 8319 H 785.013 2.61265 3.79575 0
M  V30 8320 H 783.328 2.2289 3.51723 0
M  V30 8321 H 785.925 0.132787 5.34535 0
M  V30 8322 H 786.268 -0.982128 4.04549 0
M  V30 8323 H 786.801 0.71154 3.91385 0
M  V30 8324 H 783.54 3.03182 5.81172 0
M  V30 8325 H 783.06 1.31969 5.85102 0
M  V30 8326 H 784.739 1.787 6.21832 0
M  V30 8327 N 784.871 -1.49948 0.485112 0
M  V30 8328 C 786.117 -2.02695 -0.0651022 0
M  V30 8329 C 786.45 -1.36534 -1.38102 0
M  V30 8330 O 785.725 -0.495677 -1.88078 0
M  V30 8331 C 786.008 -3.59337 -0.234285 0
M  V30 8332 C 785.861 -4.3605 1.10364 0
M  V30 8333 C 787.18 -4.28996 -0.982351 0
M  V30 8334 H 784.299 -0.736666 -0.0221856 0
M  V30 8335 H 786.941 -1.7913 0.633433 0
M  V30 8336 H 785.091 -3.79546 -0.829262 0
M  V30 8337 H 786.763 -4.27377 1.73627 0
M  V30 8338 H 785.006 -3.99236 1.69686 0
M  V30 8339 H 785.677 -5.43959 0.938743 0
M  V30 8340 H 788.153 -4.13346 -0.477904 0
M  V30 8341 H 787.029 -5.38379 -1.06955 0
M  V30 8342 H 787.29 -3.93135 -2.02231 0
M  V30 8343 N 786.349 -0.21828 -1.56081 0
M  V30 8344 C 787.312 0.679633 -2.18892 0
M  V30 8345 C 788.312 1.12405 -1.14986 0
M  V30 8346 O 789.502 1.03339 -1.40238 0
M  V30 8347 C 786.634 1.93063 -2.80962 0
M  V30 8348 H 787.827 0.132066 -2.99609 0
M  V30 8349 H 785.38 0.0313374 -1.56269 0
M  V30 8350 H 786.115 2.52015 -2.04106 0
M  V30 8351 H 785.9 1.62046 -3.57048 0
M  V30 8352 H 787.39 2.57043 -3.29118 0
M  V30 8353 N 787.827 1.57504 0.0551401 0
M  V30 8354 C 789.075 1.87684 0.74962 0
M  V30 8355 C 789.396 0.812547 1.77264 0
M  V30 8356 O 788.666 -0.15694 1.9527 0
M  V30 8357 H 787.246 0.6926 0.279846 0
M  V30 8358 H 789.908 1.94881 0.0272745 0
M  V30 8359 H 789.004 2.85734 1.25548 0
M  V30 8360 N 789.305 -0.326896 1.54172 0
M  V30 8361 C 790.238 -1.42591 1.78166 0
M  V30 8362 C 791.216 -1.49837 0.631484 0
M  V30 8363 O 792.4 -1.67298 0.868544 0
M  V30 8364 C 789.527 -2.8071 1.89524 0
M  V30 8365 C 788.573 -2.91012 3.11792 0
M  V30 8366 S 789.406 -2.55763 4.70474 0
M  V30 8367 C 790.562 -3.9596 4.84733 0
M  V30 8368 H 790.795 -1.22024 2.71104 0
M  V30 8369 H 788.328 -0.523539 1.45253 0
M  V30 8370 H 790.286 -3.60276 1.96753 0
M  V30 8371 H 788.947 -2.98562 0.975696 0
M  V30 8372 H 788.14 -3.92258 3.16464 0
M  V30 8373 H 787.742 -2.19414 3.02876 0
M  V30 8374 H 790.034 -4.90676 4.67166 0
M  V30 8375 H 790.977 -3.96273 5.86833 0
M  V30 8376 H 791.385 -3.8476 4.13062 0
M  V30 8377 N 790.784 -1.46188 -0.588786 0
M  V30 8378 C 791.717 -1.508 -1.71274 0
M  V30 8379 C 792.695 -0.362635 -1.58505 0
M  V30 8380 O 793.879 -0.565899 -1.79805 0
M  V30 8381 C 791.006 -1.38082 -3.09275 0
M  V30 8382 C 790.052 -2.56723 -3.40581 0
M  V30 8383 S 790.885 -4.1911 -3.33327 0
M  V30 8384 C 792.041 -4.08891 -4.73877 0
M  V30 8385 H 792.274 -2.45895 -1.67102 0
M  V30 8386 H 789.807 -1.34 -0.767025 0
M  V30 8387 H 791.765 -1.31432 -3.88891 0
M  V30 8388 H 790.426 -0.444259 -3.10942 0
M  V30 8389 H 789.619 -2.43801 -4.41109 0
M  V30 8390 H 789.221 -2.60332 -2.68521 0
M  V30 8391 H 791.513 -3.75196 -5.64123 0
M  V30 8392 H 792.456 -5.09395 -4.91856 0
M  V30 8393 H 792.864 -3.40239 -4.50441 0
M  V30 8394 N 792.262 0.832906 -1.33792 0
M  V30 8395 C 793.502 1.60217 -1.26925 0
M  V30 8396 C 793.866 1.91323 0.161146 0
M  V30 8397 O 795.067 2.66461 0.353864 0
M  V30 8398 C 793.338 2.87314 -2.12568 0
M  V30 8399 S 794.897 3.77939 -2.22952 0
M  V30 8400 H 791.715 0.549273 -0.451464 0
M  V30 8401 H 794.317 0.984648 -1.68893 0
M  V30 8402 H 793.021 2.62444 -3.15518 0
M  V30 8403 H 792.552 3.5407 -1.71459 0
M  V30 8404 H 794.567 4.76188 -1.39496 0
M  V30 8405 N 793.74 1.17359 1.05189 0
M  V30 8406 C 794.989 0.956412 1.77583 0
M  V30 8407 C 795.302 -0.516018 1.88671 0
M  V30 8408 O 796.508 -0.851401 2.57805 0
M  V30 8409 C 794.964 1.66203 3.19225 0
M  V30 8410 C 794.572 3.17299 3.16267 0
M  V30 8411 C 796.316 1.52725 3.96075 0
M  V30 8412 C 794.223 3.8055 4.52698 0
M  V30 8413 H 793.153 0.354204 0.665624 0
M  V30 8414 H 795.804 1.40612 1.17901 0
M  V30 8415 H 794.186 1.14006 3.79234 0
M  V30 8416 H 795.36 3.76431 2.65776 0
M  V30 8417 H 793.675 3.3079 2.52917 0
M  V30 8418 H 796.272 1.97351 4.96947 0
M  V30 8419 H 796.615 0.477803 4.13549 0
M  V30 8420 H 797.148 2.02139 3.42614 0
M  V30 8421 H 793.887 4.85492 4.4043 0
M  V30 8422 H 793.407 3.26206 5.03339 0
M  V30 8423 H 795.086 3.82757 5.21638 0
M  V30 8424 N 795.218 -1.23913 0.973828 0
M  V30 8425 C 796.467 -1.91455 0.63464 0
M  V30 8426 C 796.78 -1.76893 -0.834759 0
M  V30 8427 O 797.986 -2.3918 -1.28473 0
M  V30 8428 C 796.442 -3.43172 1.08447 0
M  V30 8429 C 796.05 -3.66409 2.57776 0
M  V30 8430 C 797.794 -4.1653 0.818721 0
M  V30 8431 C 795.701 -5.11728 2.9646 0
M  V30 8432 H 794.631 -0.716881 0.233661 0
M  V30 8433 H 797.282 -1.40457 1.18085 0
M  V30 8434 H 795.664 -3.93242 0.466524 0
M  V30 8435 H 796.838 -3.26913 3.24753 0
M  V30 8436 H 795.153 -3.06349 2.82027 0
M  V30 8437 H 797.75 -5.23603 1.08367 0
M  V30 8438 H 798.093 -4.15578 -0.245128 0
M  V30 8439 H 798.626 -3.72428 1.39793 0
M  V30 8440 H 795.365 -5.17806 4.01941 0
M  V30 8441 H 794.885 -5.52199 2.34172 0
M  V30 8442 H 796.564 -5.80009 2.86703 0
M  V30 8443 N 796.696 -0.74468 -1.38897 0
M  V30 8444 C 797.942 -0.297324 -2.00609 0
M  V30 8445 C 798.275 1.11547 -1.58968 0
M  V30 8446 O 797.55 1.76227 -0.823057 0
M  V30 8447 C 797.833 -0.410125 -3.57757 0
M  V30 8448 C 797.686 -1.86338 -4.09387 0
M  V30 8449 C 799.005 0.20176 -4.39637 0
M  V30 8450 H 796.124 -0.109509 -0.728819 0
M  V30 8451 H 798.766 -0.942653 -1.64967 0
M  V30 8452 H 796.916 0.139287 -3.8825 0
M  V30 8453 H 798.588 -2.47042 -3.89574 0
M  V30 8454 H 796.831 -2.38146 -3.62586 0
M  V30 8455 H 797.502 -1.89352 -5.18507 0
M  V30 8456 H 799.978 -0.266703 -4.15244 0
M  V30 8457 H 798.854 0.0925415 -5.48822 0
M  V30 8458 H 799.115 1.289 -4.22891 0
M  V30 8459 N 798.174 1.49689 -0.493057 0
M  V30 8460 C 799.107 2.25712 0.336062 0
M  V30 8461 C 800.085 1.29953 0.977294 0
M  V30 8462 O 801.269 1.59225 1.00895 0
M  V30 8463 C 798.396 3.0501 1.47263 0
M  V30 8464 C 797.442 4.15863 0.946575 0
M  V30 8465 S 798.275 5.35272 -0.156323 0
M  V30 8466 C 799.431 6.18123 0.983601 0
M  V30 8467 H 799.664 2.95688 -0.309215 0
M  V30 8468 H 797.197 1.51872 -0.278238 0
M  V30 8469 H 799.155 3.51284 2.12391 0
M  V30 8470 H 797.816 2.34519 2.08949 0
M  V30 8471 H 797.009 4.70834 1.7981 0
M  V30 8472 H 796.611 3.72139 0.372647 0
M  V30 8473 H 798.903 6.50588 1.89056 0
M  V30 8474 H 799.846 7.06521 0.472687 0
M  V30 8475 H 800.254 5.50547 1.24735 0
M  V30 8476 N 799.652 0.226554 1.55963 0
M  V30 8477 C 800.901 -0.40417 1.97609 0
M  V30 8478 C 801.214 -1.60541 1.1174 0
M  V30 8479 O 802.42 -2.30598 1.43307 0
M  V30 8480 C 800.876 -0.770466 3.51556 0
M  V30 8481 C 800.484 0.408244 4.46136 0
M  V30 8482 C 802.228 -1.36651 4.01904 0
M  V30 8483 C 800.135 0.0192347 5.91397 0
M  V30 8484 H 799.065 -0.15478 0.737943 0
M  V30 8485 H 801.716 0.323558 1.80625 0
M  V30 8486 H 800.098 -1.55575 3.6416 0
M  V30 8487 H 801.272 1.18575 4.45283 0
M  V30 8488 H 799.587 0.917859 4.06158 0
M  V30 8489 H 802.184 -1.67055 5.07934 0
M  V30 8490 H 802.527 -2.28403 3.48049 0
M  V30 8491 H 803.06 -0.644556 3.92543 0
M  V30 8492 H 799.799 0.90336 6.49245 0
M  V30 8493 H 799.319 -0.722485 5.95433 0
M  V30 8494 H 800.998 -0.405711 6.45727 0
M  V30 8495 N 801.13 -1.57531 -0.0467866 0
M  V30 8496 C 802.06 -2.08425 -1.05268 0
M  V30 8497 C 803.041 -0.982941 -1.38825 0
M  V30 8498 O 804.226 -1.25716 -1.48018 0
M  V30 8499 C 801.356 -2.54897 -2.35891 0
M  V30 8500 C 800.31 -3.69132 -2.16623 0
M  V30 8501 C 799.636 -4.01747 -3.52851 0
M  V30 8502 C 800.936 -4.98243 -1.56689 0
M  V30 8503 H 802.63 -2.92716 -0.62908 0
M  V30 8504 H 800.176 -1.40816 -0.301156 0
M  V30 8505 H 802.129 -2.8912 -3.06574 0
M  V30 8506 H 800.853 -1.67666 -2.80278 0
M  V30 8507 H 799.512 -3.35231 -1.48377 0
M  V30 8508 H 799.16 -3.11608 -3.94853 0
M  V30 8509 H 798.86 -4.78681 -3.4079 0
M  V30 8510 H 800.384 -4.38487 -4.24925 0
M  V30 8511 H 801.798 -5.30535 -2.17268 0
M  V30 8512 H 800.195 -5.79669 -1.55255 0
M  V30 8513 H 801.265 -4.81986 -0.530827 0
M  V30 8514 N 802.608 0.318715 -1.54344 0
M  V30 8515 C 803.836 1.0755 -1.7675 0
M  V30 8516 C 804.251 1.81543 -0.518422 0
M  V30 8517 O 803.608 1.75198 0.511078 0
M  V30 8518 C 803.659 2.06983 -2.96378 0
M  V30 8519 O 803.38 1.35995 -4.16458 0
M  V30 8520 C 804.881 2.94841 -3.31034 0
M  V30 8521 H 802.101 0.319711 -0.589937 0
M  V30 8522 H 804.645 0.363369 -2.01246 0
M  V30 8523 H 802.8 2.73724 -2.74142 0
M  V30 8524 H 803.214 2.02623 -4.83781 0
M  V30 8525 H 804.688 3.60496 -4.18027 0
M  V30 8526 H 805.165 3.62199 -2.48412 0
M  V30 8527 H 805.771 2.33656 -3.55366 0
M  V30 8528 N 804.086 1.46499 0.581025 0
M  V30 8529 C 805.316 1.55244 1.36319 0
M  V30 8530 C 805.724 0.193059 1.88212 0
M  V30 8531 O 805.067 -0.820109 1.64377 0
M  V30 8532 C 805.129 2.498 2.58535 0
M  V30 8533 C 804.793 3.96007 2.28096 0
M  V30 8534 C 805.79 4.85171 1.8683 0
M  V30 8535 C 803.475 4.41152 2.40189 0
M  V30 8536 C 805.469 6.17493 1.58053 0
M  V30 8537 C 803.156 5.73508 2.11024 0
M  V30 8538 C 804.154 6.615 1.70021 0
M  V30 8539 O 803.842 7.914 1.41215 0
M  V30 8540 H 803.574 0.527513 0.422736 0
M  V30 8541 H 806.128 1.92623 0.713139 0
M  V30 8542 H 804.358 2.07443 3.2635 0
M  V30 8543 H 806.047 2.48934 3.20604 0
M  V30 8544 H 806.813 4.51548 1.77001 0
M  V30 8545 H 802.692 3.72886 2.71066 0
M  V30 8546 H 806.236 6.86131 1.25974 0
M  V30 8547 H 802.133 6.06679 2.20478 0
M  V30 8548 H 802.901 8.03681 1.55046 0
M  V30 8549 N 805.565 -0.825799 1.34232 0
M  V30 8550 C 806.512 -1.93651 1.2557 0
M  V30 8551 C 807.482 -1.65578 0.131536 0
M  V30 8552 O 808.667 -1.88231 0.312027 0
M  V30 8553 C 805.807 -3.29862 1.01415 0
M  V30 8554 C 804.92 -3.70247 2.22579 0
M  V30 8555 C 804.055 -4.95392 1.91731 0
M  V30 8556 C 803.094 -5.28349 3.09053 0
M  V30 8557 N 802.231 -6.44671 2.78107 0
M  V30 8558 H 807.071 -2.00392 2.20561 0
M  V30 8559 H 804.608 -0.980441 1.09662 0
M  V30 8560 H 806.566 -4.08356 0.854485 0
M  V30 8561 H 805.196 -3.22642 0.100936 0
M  V30 8562 H 804.248 -2.87169 2.49476 0
M  V30 8563 H 805.56 -3.90575 3.10246 0
M  V30 8564 H 804.714 -5.81665 1.72484 0
M  V30 8565 H 803.453 -4.77059 1.0132 0
M  V30 8566 H 802.458 -4.40574 3.289 0
M  V30 8567 H 803.683 -5.48622 4.00239 0
M  V30 8568 H 801.629 -6.278 1.9027 0
M  V30 8569 H 801.546 -6.65158 3.59306 0
M  V30 8570 H 802.814 -7.34022 2.62358 0
M  V30 8571 N 807.043 -1.17915 -1.04565 0
M  V30 8572 C 808.273 -0.994716 -1.81077 0
M  V30 8573 C 808.681 0.460146 -1.83519 0
M  V30 8574 O 808.024 1.33136 -1.26572 0
M  V30 8575 C 808.086 -1.46698 -3.28207 0
M  V30 8576 C 807.75 -2.94523 -3.49436 0
M  V30 8577 C 808.747 -3.92414 -3.41038 0
M  V30 8578 C 806.432 -3.32841 -3.76194 0
M  V30 8579 C 808.426 -5.2662 -3.59096 0
M  V30 8580 C 806.113 -4.67212 -3.93899 0
M  V30 8581 C 807.111 -5.6391 -3.8535 0
M  V30 8582 O 806.799 -6.95849 -4.02554 0
M  V30 8583 H 806.531 -0.351797 -0.577248 0
M  V30 8584 H 809.085 -1.56772 -1.32709 0
M  V30 8585 H 807.315 -0.837592 -3.7752 0
M  V30 8586 H 809.004 -1.24724 -3.86263 0
M  V30 8587 H 809.77 -3.64157 -3.20336 0
M  V30 8588 H 805.649 -2.58139 -3.81949 0
M  V30 8589 H 809.193 -6.02082 -3.52339 0
M  V30 8590 H 805.09 -4.95172 -4.14095 0
M  V30 8591 H 805.858 -7.02679 -4.19743 0
M  V30 8592 N 808.521 1.23394 -0.980386 0
M  V30 8593 C 809.451 2.2717 -0.540024 0
M  V30 8594 C 810.432 1.64659 0.426787 0
M  V30 8595 O 811.617 1.91543 0.320153 0
M  V30 8596 C 808.747 3.46939 0.15836 0
M  V30 8597 C 807.701 4.21802 -0.725732 0
M  V30 8598 C 807.027 5.34597 0.104866 0
M  V30 8599 C 808.327 4.81802 -2.01654 0
M  V30 8600 H 810.021 2.64257 -1.40743 0
M  V30 8601 H 807.567 1.2703 -0.678193 0
M  V30 8602 H 809.52 4.18683 0.477737 0
M  V30 8603 H 808.244 3.08912 1.06022 0
M  V30 8604 H 806.903 3.51875 -1.02857 0
M  V30 8605 H 806.551 4.92812 1.00726 0
M  V30 8606 H 806.251 5.85607 -0.483557 0
M  V30 8607 H 807.775 6.09163 0.418624 0
M  V30 8608 H 809.189 5.45554 -1.76193 0
M  V30 8609 H 807.586 5.43098 -2.55273 0
M  V30 8610 H 808.656 4.02549 -2.70338 0
M  V30 8611 N 809.999 0.752036 1.385 0
M  V30 8612 C 810.931 0.0835089 2.29048 0
M  V30 8613 C 811.944 -0.685402 1.47669 0
M  V30 8614 O 813.133 -0.526748 1.70551 0
M  V30 8615 C 810.233 -0.905772 3.26572 0
M  V30 8616 C 809.406 -0.194828 4.36966 0
M  V30 8617 C 808.465 -1.09464 5.14688 0
M  V30 8618 O 807.491 -0.565743 5.66381 0
M  V30 8619 N 808.693 -2.42287 5.2752 0
M  V30 8620 H 811.458 0.861142 2.87062 0
M  V30 8621 H 809.019 0.602689 1.50264 0
M  V30 8622 H 811.011 -1.51072 3.75446 0
M  V30 8623 H 809.581 -1.58449 2.69467 0
M  V30 8624 H 808.801 0.590812 3.89747 0
M  V30 8625 H 810.089 0.297189 5.07931 0
M  V30 8626 H 809.487 -2.87715 4.8707 0
M  V30 8627 H 808.044 -2.97836 5.79773 0
M  V30 8628 N 811.477 -1.49425 0.500989 0
M  V30 8629 C 812.424 -2.29126 -0.277443 0
M  V30 8630 C 813.394 -1.35522 -0.960363 0
M  V30 8631 O 814.579 -1.64479 -0.967027 0
M  V30 8632 C 811.719 -3.18193 -1.33593 0
M  V30 8633 C 810.832 -4.26854 -0.664791 0
M  V30 8634 C 809.967 -5.03137 -1.70372 0
M  V30 8635 C 809.006 -6.03635 -1.01445 0
M  V30 8636 N 808.143 -6.73083 -1.99758 0
M  V30 8637 H 812.983 -2.95187 0.408458 0
M  V30 8638 H 810.52 -1.45546 0.213275 0
M  V30 8639 H 812.478 -3.68207 -1.96161 0
M  V30 8640 H 811.108 -2.54116 -1.9906 0
M  V30 8641 H 810.16 -3.80328 0.0741708 0
M  V30 8642 H 811.472 -4.9865 -0.122197 0
M  V30 8643 H 810.626 -5.5702 -2.40445 0
M  V30 8644 H 809.365 -4.31114 -2.28017 0
M  V30 8645 H 808.37 -5.48984 -0.299496 0
M  V30 8646 H 809.595 -6.77644 -0.444497 0
M  V30 8647 H 807.541 -6.03832 -2.56365 0
M  V30 8648 H 807.458 -7.40855 -1.50565 0
M  V30 8649 H 808.726 -7.3157 -2.69119 0
M  V30 8650 N 812.955 -0.234822 -1.55841 0
M  V30 8651 C 814.366 0.270588 -1.84729 0
M  V30 8652 C 814.717 1.58494 -1.15646 0
M  V30 8653 O 813.842 2.12071 -0.430667 0
M  V30 8654 C 814.437 0.497733 -3.35124 0
M  V30 8655 C 812.996 0.947428 -3.64281 0
M  V30 8656 C 812.143 0.01787 -2.77294 0
M  V30 8657 H 815.094 -0.457691 -1.51957 0
M  V30 8658 H 815.115 1.34199 -3.56049 0
M  V30 8659 H 814.627 -0.459037 -3.85376 0
M  V30 8660 H 812.728 1.91709 -3.19497 0
M  V30 8661 H 812.841 0.812651 -4.72158 0
M  V30 8662 H 811.205 0.527071 -2.49187 0
M  V30 8663 H 811.988 -0.934056 -3.30349 0
M  V30 8664 N 814.433 1.57553 0.0384317 0
M  V30 8665 C 815.366 2.01307 1.07475 0
M  V30 8666 C 816.344 0.895717 1.35704 0
M  V30 8667 O 817.528 1.16079 1.48519 0
M  V30 8668 C 814.655 2.37817 2.41165 0
M  V30 8669 C 813.701 3.599 2.28855 0
M  V30 8670 S 814.534 5.09418 1.65086 0
M  V30 8671 C 815.69 5.49162 3.00286 0
M  V30 8672 H 815.923 2.88892 0.702034 0
M  V30 8673 H 813.456 1.52394 0.248103 0
M  V30 8674 H 815.414 2.59524 3.18053 0
M  V30 8675 H 814.075 1.507 2.75587 0
M  V30 8676 H 813.268 3.83071 3.27525 0
M  V30 8677 H 812.87 3.37996 1.60109 0
M  V30 8678 H 815.162 5.49274 3.96617 0
M  V30 8679 H 816.105 6.49586 2.81858 0
M  V30 8680 H 816.513 4.76653 3.02427 0
M  V30 8681 N 815.911 -0.310526 1.54511 0
M  V30 8682 C 817.141 -1.06456 1.77061 0
M  V30 8683 C 817.549 -1.81755 0.525528 0
M  V30 8684 O 816.892 -1.76365 -0.513904 0
M  V30 8685 C 816.954 -2.09856 2.91892 0
M  V30 8686 C 816.618 -1.53838 4.30329 0
M  V30 8687 C 817.615 -0.973358 5.10707 0
M  V30 8688 C 815.3 -1.57688 4.76906 0
M  V30 8689 C 817.294 -0.454283 6.35779 0
M  V30 8690 C 814.981 -1.05393 6.01943 0
M  V30 8691 C 815.979 -0.493595 6.81214 0
M  V30 8692 O 815.667 0.0214506 8.03897 0
M  V30 8693 H 815.399 -0.321913 0.594431 0
M  V30 8694 H 817.953 -0.358289 2.02251 0
M  V30 8695 H 816.183 -2.84137 2.62304 0
M  V30 8696 H 817.872 -2.71085 3.02106 0
M  V30 8697 H 818.638 -0.936588 4.75871 0
M  V30 8698 H 814.517 -2.00242 4.1524 0
M  V30 8699 H 818.061 -0.0162657 6.97598 0
M  V30 8700 H 813.958 -1.08782 6.36268 0
M  V30 8701 H 814.726 -0.0927478 8.18447 0
M  V30 8702 N 817.389 -1.46805 -0.573248 0
M  V30 8703 C 818.299 -1.60687 -1.70929 0
M  V30 8704 C 819.315 -0.490084 -1.66956 0
M  V30 8705 O 820.491 -0.755482 -1.86693 0
M  V30 8706 C 817.556 -1.60259 -3.07438 0
M  V30 8707 C 816.617 -2.83242 -3.22603 0
M  V30 8708 C 815.85 -2.82825 -4.52599 0
M  V30 8709 O 816.073 -1.92113 -5.37074 0
M  V30 8710 O 815.007 -3.74489 -4.71213 0
M  V30 8711 H 818.833 -2.56782 -1.62163 0
M  V30 8712 H 816.418 -1.29706 -0.741399 0
M  V30 8713 H 818.3 -1.6275 -3.88704 0
M  V30 8714 H 816.975 -0.673268 -3.16621 0
M  V30 8715 H 815.882 -2.86302 -2.40794 0
M  V30 8716 H 817.215 -3.75415 -3.18315 0
M  V30 8717 N 818.867 0.818669 -1.34668 0
M  V30 8718 C 820.113 1.57746 -1.27453 0
M  V30 8719 C 820.446 1.93588 0.154077 0
M  V30 8720 O 819.721 1.60371 1.10051 0
M  V30 8721 C 820.004 2.87414 -2.16945 0
M  V30 8722 C 819.857 2.58125 -3.68363 0
M  V30 8723 C 821.176 3.89021 -2.05792 0
M  V30 8724 H 818.295 0.572339 -0.464324 0
M  V30 8725 H 820.937 0.942784 -1.64959 0
M  V30 8726 H 819.087 3.41576 -1.85089 0
M  V30 8727 H 820.759 2.10239 -4.10606 0
M  V30 8728 H 819.002 1.91503 -3.89242 0
M  V30 8729 H 819.673 3.5061 -4.26353 0
M  V30 8730 H 822.149 3.44224 -2.33771 0
M  V30 8731 H 821.025 4.77548 -2.70628 0
M  V30 8732 H 821.286 4.29786 -1.03618 0
M  V30 8733 N 820.346 1.18468 1.03938 0
M  V30 8734 C 821.278 0.870615 2.12021 0
M  V30 8735 C 822.291 -0.132318 1.62261 0
M  V30 8736 O 823.48 0.0956901 1.78243 0
M  V30 8737 C 820.58 0.279727 3.37744 0
M  V30 8738 C 819.753 1.32863 4.16733 0
M  V30 8739 C 818.812 0.753204 5.20781 0
M  V30 8740 O 817.838 1.42825 5.5099 0
M  V30 8741 N 819.04 -0.448664 5.78764 0
M  V30 8742 H 821.805 1.80091 2.39556 0
M  V30 8743 H 819.366 1.08524 1.20142 0
M  V30 8744 H 821.358 -0.118829 4.04526 0
M  V30 8745 H 819.928 -0.554621 3.07641 0
M  V30 8746 H 819.148 1.90245 3.45254 0
M  V30 8747 H 820.436 2.03574 4.66299 0
M  V30 8748 H 819.834 -1.01481 5.56523 0
M  V30 8749 H 818.391 -0.789125 6.47005 0
M  V30 8750 N 821.824 -1.22873 0.986916 0
M  V30 8751 C 823.07 -1.92047 0.670042 0
M  V30 8752 C 823.425 -1.75497 -0.788587 0
M  V30 8753 O 822.718 -1.10934 -1.56218 0
M  V30 8754 C 822.912 -3.43014 1.00379 0
M  V30 8755 C 822.741 -3.74251 2.49332 0
M  V30 8756 C 821.511 -3.94589 3.15638 0
M  V30 8757 C 823.709 -3.79208 3.47428 0
M  V30 8758 N 821.691 -4.13086 4.54129 0
M  V30 8759 C 823.062 -4.02775 4.71352 0
M  V30 8760 C 825.117 -3.62029 3.41818 0
M  V30 8761 C 823.82 -4.10946 5.90352 0
M  V30 8762 C 825.846 -3.71457 4.60189 0
M  V30 8763 C 825.208 -3.95468 5.82911 0
M  V30 8764 H 821.307 -0.723668 0.29636 0
M  V30 8765 H 823.891 -1.47946 1.26571 0
M  V30 8766 H 822.062 -3.85936 0.436762 0
M  V30 8767 H 823.794 -3.99551 0.643522 0
M  V30 8768 H 820.549 -3.91762 2.66119 0
M  V30 8769 H 820.973 -4.26275 5.25945 0
M  V30 8770 H 825.615 -3.42457 2.47958 0
M  V30 8771 H 823.333 -4.29324 6.84621 0
M  V30 8772 H 826.919 -3.59511 4.57431 0
M  V30 8773 H 825.799 -4.02584 6.72975 0
M  V30 8774 N 823.302 -0.75937 -1.38099 0
M  V30 8775 C 824.249 -0.135508 -2.30402 0
M  V30 8776 C 825.219 0.703356 -1.50473 0
M  V30 8777 O 826.404 0.658287 -1.79084 0
M  V30 8778 C 823.544 0.747228 -3.36913 0
M  V30 8779 C 822.657 -0.106893 -4.31868 0
M  V30 8780 C 821.792 0.779388 -5.25451 0
M  V30 8781 C 820.831 -0.0780179 -6.1205 0
M  V30 8782 N 819.968 0.765545 -6.97914 0
M  V30 8783 H 824.808 -0.9282 -2.83176 0
M  V30 8784 H 822.345 -0.46935 -1.39411 0
M  V30 8785 H 824.303 1.27371 -3.97281 0
M  V30 8786 H 822.933 1.50565 -2.85535 0
M  V30 8787 H 821.985 -0.751063 -3.72912 0
M  V30 8788 H 823.297 -0.768798 -4.9284 0
M  V30 8789 H 822.451 1.37282 -5.90964 0
M  V30 8790 H 821.19 1.47501 -4.6486 0
M  V30 8791 H 820.195 -0.684078 -5.45528 0
M  V30 8792 H 821.42 -0.770786 -6.74712 0
M  V30 8793 H 819.366 1.44601 -6.39864 0
M  V30 8794 H 819.283 0.160666 -7.55829 0
M  V30 8795 H 820.551 1.34377 -7.6783 0
M  V30 8796 N 824.78 1.49157 -0.508906 0
M  V30 8797 C 826.026 2.02773 0.0328469 0
M  V30 8798 C 826.359 1.38714 1.35912 0
M  V30 8799 O 825.634 0.525536 1.87266 0
M  V30 8800 C 825.917 3.59664 0.177088 0
M  V30 8801 C 825.77 4.34239 -1.17287 0
M  V30 8802 C 827.089 4.30505 0.913977 0
M  V30 8803 H 824.208 0.736926 0.0104631 0
M  V30 8804 H 826.85 1.781 -0.661851 0
M  V30 8805 H 825 3.80818 0.768774 0
M  V30 8806 H 826.672 4.24561 -1.80404 0
M  V30 8807 H 824.915 3.96486 -1.76016 0
M  V30 8808 H 825.586 5.42397 -1.02516 0
M  V30 8809 H 828.062 4.14054 0.412084 0
M  V30 8810 H 826.938 5.40012 0.983759 0
M  V30 8811 H 827.199 3.96302 1.95951 0
M  V30 8812 N 826.258 0.243083 1.55714 0
M  V30 8813 C 827.504 -0.383287 1.99145 0
M  V30 8814 C 827.837 -1.57868 1.13098 0
M  V30 8815 O 827.112 -1.93535 0.193509 0
M  V30 8816 C 827.395 -0.796879 3.51172 0
M  V30 8817 C 827.248 0.403642 4.47985 0
M  V30 8818 C 828.567 -1.64525 4.08191 0
M  V30 8819 H 825.686 -0.137843 0.723995 0
M  V30 8820 H 828.328 0.343631 1.86867 0
M  V30 8821 H 826.478 -1.41625 3.61766 0
M  V30 8822 H 828.15 1.04204 4.49376 0
M  V30 8823 H 826.393 1.04741 4.20965 0
M  V30 8824 H 827.064 0.0709794 5.51954 0
M  V30 8825 H 829.54 -1.12246 4.00674 0
M  V30 8826 H 828.416 -1.9035 5.14838 0
M  V30 8827 H 828.677 -2.61582 3.56409 0
M  V30 8828 N 827.736 -1.57571 -0.0300757 0
M  V30 8829 C 828.646 -2.09892 -1.04798 0
M  V30 8830 C 829.662 -1.03732 -1.39698 0
M  V30 8831 O 830.838 -1.35461 -1.49038 0
M  V30 8832 C 827.903 -2.56707 -2.33028 0
M  V30 8833 C 826.964 -3.77345 -2.04718 0
M  V30 8834 C 826.197 -4.21918 -3.26834 0
M  V30 8835 O 826.42 -3.66025 -4.37472 0
M  V30 8836 O 825.354 -5.14362 -3.12594 0
M  V30 8837 H 829.18 -2.97023 -0.633344 0
M  V30 8838 H 826.765 -1.47344 -0.246991 0
M  V30 8839 H 828.647 -2.87154 -3.08417 0
M  V30 8840 H 827.322 -1.72688 -2.73789 0
M  V30 8841 H 826.229 -3.51919 -1.26901 0
M  V30 8842 H 827.562 -4.62345 -1.68813 0
M  V30 8843 N 829.214 0.302327 -1.54673 0
M  V30 8844 C 830.124 1.39542 -1.88587 0
M  V30 8845 C 831.14 1.55543 -0.779895 0
M  V30 8846 O 832.316 1.70233 -1.07623 0
M  V30 8847 C 829.381 2.7394 -2.12504 0
M  V30 8848 C 828.442 2.66935 -3.3622 0
M  V30 8849 C 827.675 3.94923 -3.58987 0
M  V30 8850 O 827.898 4.94218 -2.84789 0
M  V30 8851 O 826.832 3.96896 -4.52501 0
M  V30 8852 H 830.658 1.13784 -2.81579 0
M  V30 8853 H 828.243 0.49827 -1.40846 0
M  V30 8854 H 830.125 3.5346 -2.29443 0
M  V30 8855 H 828.8 2.99544 -1.22698 0
M  V30 8856 H 827.707 1.85892 -3.24646 0
M  V30 8857 H 829.04 2.46283 -4.26152 0
M  V30 8858 N 830.692 1.47107 0.565454 0
M  V30 8859 C 831.941 1.5257 1.31929 0
M  V30 8860 C 832.254 0.189092 1.94684 0
M  V30 8861 O 833.46 0.121657 2.71227 0
M  V30 8862 C 831.916 2.68914 2.39193 0
M  V30 8863 C 831.524 4.09069 1.82665 0
M  V30 8864 C 833.268 2.83663 3.1581 0
M  V30 8865 C 831.175 5.16726 2.87661 0
M  V30 8866 H 830.105 0.567869 0.496025 0
M  V30 8867 H 832.756 1.73361 0.60151 0
M  V30 8868 H 831.138 2.41486 3.13848 0
M  V30 8869 H 832.312 4.46364 1.14438 0
M  V30 8870 H 830.627 3.99135 1.1866 0
M  V30 8871 H 833.224 3.61261 3.94201 0
M  V30 8872 H 833.567 1.91804 3.69482 0
M  V30 8873 H 834.1 3.10821 2.48265 0
M  V30 8874 H 830.839 6.10433 2.38854 0
M  V30 8875 H 830.359 4.83957 3.54324 0
M  V30 8876 H 832.038 5.43319 3.51303 0
M  V30 8877 N 832.17 -0.811516 1.35101 0
M  V30 8878 C 833.118 -1.94449 1.27642 0
M  V30 8879 C 834.112 -1.68522 0.172287 0
M  V30 8880 O 835.318 -1.76799 0.337967 0
M  V30 8881 H 831.693 -0.638776 0.396824 0
M  V30 8882 H 833.664 -1.97861 2.23369 0
M  V30 8883 C 832.413 -3.31139 1.06029 0
M  V30 8884 H 831.736 -3.51644 1.90227 0
M  V30 8885 H 833.176 -4.10831 1.0485 0
M  V30 8886 C 831.635 -3.36072 -0.236039 0
M  V30 8887 O 832.165 -3.82292 -1.23353 0
M  V30 8888 N 830.371 -2.89314 -0.273107 0
M  V30 8889 H 829.918 -2.51893 0.539211 0
M  V30 8890 H 829.876 -2.92996 -1.1402 0
M  V30 8891 N 833.648 -1.19017 -1.03309 0
M  V30 8892 C 834.896 -0.988258 -1.76289 0
M  V30 8893 C 835.217 0.482557 -1.88935 0
M  V30 8894 O 834.487 1.34969 -1.41987 0
M  V30 8895 H 833.067 -0.36267 -0.653054 0
M  V30 8896 H 835.729 -1.49836 -1.2464 0
M  V30 8897 H 834.825 -1.43273 -2.77271 0
M  V30 8898 N 835.127 1.22348 -0.993418 0
M  V30 8899 C 836.075 2.26315 -0.537052 0
M  V30 8900 C 837.069 1.643 0.412545 0
M  V30 8901 O 838.275 1.77729 0.285008 0
M  V30 8902 H 834.65 0.735792 -0.155286 0
M  V30 8903 H 836.621 2.62157 -1.42535 0
M  V30 8904 C 835.37 3.47449 0.132118 0
M  V30 8905 H 834.693 3.9543 -0.589519 0
M  V30 8906 H 836.133 4.21965 0.414884 0
M  V30 8907 C 834.592 3.07893 1.36761 0
M  V30 8908 O 835.122 3.17338 2.46291 0
M  V30 8909 N 833.328 2.62672 1.24305 0
M  V30 8910 H 832.875 2.55186 0.351826 0
M  V30 8911 H 832.833 2.36574 2.07076 0
M  V30 8912 N 836.605 0.766683 1.37694 0
M  V30 8913 C 837.553 0.137269 2.32195 0
M  V30 8914 C 838.547 -0.69067 1.54681 0
M  V30 8915 O 839.753 -0.588299 1.70115 0
M  V30 8916 H 836.128 0.0256003 0.751564 0
M  V30 8917 H 838.099 0.950129 2.82869 0
M  V30 8918 C 836.848 -0.731446 3.39919 0
M  V30 8919 H 836.171 -0.103738 3.99665 0
M  V30 8920 H 837.611 -1.13891 4.08417 0
M  V30 8921 C 836.07 -1.87984 2.79578 0
M  V30 8922 O 836.6 -2.97496 2.69924 0
M  V30 8923 N 834.806 -1.6789 2.37195 0
M  V30 8924 H 834.353 -0.788162 2.45246 0
M  V30 8925 H 834.311 -2.44894 1.97165 0
M  V30 8926 N 838.083 -1.48885 0.516809 0
M  V30 8927 C 839.313 -2.06592 -0.018375 0
M  V30 8928 C 839.721 -1.37543 -1.29917 0
M  V30 8929 O 839.064 -0.452527 -1.78039 0
M  V30 8930 C 839.126 -3.58016 -0.326315 0
M  V30 8931 C 838.79 -4.48853 0.859072 0
M  V30 8932 C 839.787 -4.89422 1.75391 0
M  V30 8933 C 837.472 -4.90937 1.06235 0
M  V30 8934 C 839.466 -5.70831 2.83604 0
M  V30 8935 C 837.153 -5.72119 2.14763 0
M  V30 8936 C 838.151 -6.11972 3.03281 0
M  V30 8937 O 837.839 -6.91527 4.09934 0
M  V30 8938 H 837.571 -0.675559 0.0244023 0
M  V30 8939 H 840.125 -1.92442 0.718005 0
M  V30 8940 H 838.355 -3.70231 -1.1165 0
M  V30 8941 H 840.044 -3.97898 -0.801999 0
M  V30 8942 H 840.81 -4.57542 1.60875 0
M  V30 8943 H 836.689 -4.59409 0.382677 0
M  V30 8944 H 840.233 -6.01857 3.52724 0
M  V30 8945 H 836.13 -6.03412 2.29268 0
M  V30 8946 H 836.898 -7.0986 4.07482 0
M  V30 8947 N 839.561 -0.251338 -1.55583 0
M  V30 8948 C 840.807 0.37272 -1.99346 0
M  V30 8949 C 841.14 1.57266 -1.13934 0
M  V30 8950 O 840.415 1.9343 -0.20377 0
M  V30 8951 C 840.698 0.778245 -3.5159 0
M  V30 8952 C 840.551 -0.427394 -4.47765 0
M  V30 8953 C 841.87 1.62358 -4.09057 0
M  V30 8954 H 838.989 0.134002 -0.724715 0
M  V30 8955 H 841.631 -0.353536 -1.86682 0
M  V30 8956 H 839.781 1.39704 -3.62512 0
M  V30 8957 H 841.453 -1.06586 -4.48818 0
M  V30 8958 H 839.696 -1.06972 -4.20404 0
M  V30 8959 H 840.367 -0.10025 -5.51909 0
M  V30 8960 H 842.843 1.1012 -4.01264 0
M  V30 8961 H 841.719 1.87617 -5.1584 0
M  V30 8962 H 841.98 2.59688 -3.57791 0
M  V30 8963 N 841.039 1.57585 0.0217189 0
M  V30 8964 C 842.269 1.9359 0.721572 0
M  V30 8965 C 842.677 0.850132 1.69025 0
M  V30 8966 O 842.02 -0.181539 1.82801 0
M  V30 8967 C 842.082 3.25445 1.52729 0
M  V30 8968 C 841.746 4.51251 0.722586 0
M  V30 8969 C 842.743 5.19896 0.0196598 0
M  V30 8970 C 840.428 4.97745 0.674959 0
M  V30 8971 C 842.422 6.33319 -0.720114 0
M  V30 8972 C 840.109 6.11062 -0.068555 0
M  V30 8973 C 841.107 6.78704 -0.764845 0
M  V30 8974 O 840.795 7.89852 -1.49627 0
M  V30 8975 H 840.527 0.643409 0.207366 0
M  V30 8976 H 843.081 2.05391 -0.0189346 0
M  V30 8977 H 841.311 3.0999 2.31178 0
M  V30 8978 H 843 3.46721 2.11044 0
M  V30 8979 H 843.766 4.84977 0.0474394 0
M  V30 8980 H 839.645 4.44934 1.20643 0
M  V30 8981 H 843.189 6.86051 -1.26413 0
M  V30 8982 H 839.086 6.45425 -0.0982318 0
M  V30 8983 H 839.854 8.06251 -1.41071 0
M  V30 8984 N 842.517 -0.29412 1.54831 0
M  V30 8985 C 843.766 -1.02614 1.73647 0
M  V30 8986 C 844.079 -1.88193 0.533162 0
M  V30 8987 O 845.285 -2.64713 0.603275 0
M  V30 8988 C 843.741 -1.87417 3.07251 0
M  V30 8989 C 843.349 -1.06806 4.35082 0
M  V30 8990 C 845.093 -2.60176 3.35423 0
M  V30 8991 C 843 -1.90926 5.59733 0
M  V30 8992 H 841.93 -0.386834 0.647206 0
M  V30 8993 H 844.581 -0.282789 1.81308 0
M  V30 8994 H 842.963 -2.65765 2.93572 0
M  V30 8995 H 844.137 -0.330226 4.59615 0
M  V30 8996 H 842.452 -0.455979 4.13896 0
M  V30 8997 H 845.049 -3.23476 4.25755 0
M  V30 8998 H 845.392 -3.29365 2.54606 0
M  V30 8999 H 845.925 -1.88871 3.50103 0
M  V30 9000 H 842.664 -1.26194 6.43238 0
M  V30 9001 H 842.184 -2.62363 5.39375 0
M  V30 9002 H 843.863 -2.48807 5.97247 0
M  V30 9003 N 843.995 -1.47404 -0.557645 0
M  V30 9004 C 845.272 -1.44488 -1.31843 0
M  V30 9005 C 845.652 -0.1416 -2.10625 0
M  V30 9006 O 845 0.876908 -2.11004 0
M  V30 9007 C 845.21 -2.69016 -2.22331 0
M  V30 9008 C 846.558 -3.16212 -2.83364 0
M  V30 9009 O 847.582 -2.69741 -2.32634 0
M  V30 9010 O 846.441 -3.96999 -3.75571 0
M  V30 9011 H 843.535 -0.57578 -0.593639 0
M  V30 9012 H 846.081 -1.59605 -0.576584 0
M  V30 9013 H 844.853 -3.55406 -1.63715 0
M  V30 9014 H 844.476 -2.56484 -3.03812 0
M  V30 9015 N 845.473 0.80434 -1.35529 0
M  V30 9016 C 846.884 1.37849 -1.25915 0
M  V30 9017 C 847.235 1.95905 0.107495 0
M  V30 9018 O 846.36 1.91462 1.00852 0
M  V30 9019 C 846.955 2.50608 -2.27994 0
M  V30 9020 C 845.514 3.03879 -2.22114 0
M  V30 9021 C 844.661 1.76856 -2.13582 0
M  V30 9022 H 847.612 0.607192 -1.46625 0
M  V30 9023 H 847.633 3.29221 -1.90772 0
M  V30 9024 H 847.145 2.08323 -3.27449 0
M  V30 9025 H 845.246 3.50622 -1.26077 0
M  V30 9026 H 845.359 3.61707 -3.14173 0
M  V30 9027 H 843.723 1.98498 -1.59595 0
M  V30 9028 H 844.506 1.36721 -3.14901 0
M  V30 9029 N 846.951 1.19563 1.02676 0
M  V30 9030 C 848.179 1.02488 1.79732 0
M  V30 9031 C 848.594 -0.426302 1.83924 0
M  V30 9032 O 847.951 -1.29609 1.28483 0
M  V30 9033 C 848.002 1.58944 3.24683 0
M  V30 9034 O 847.723 2.98382 3.2078 0
M  V30 9035 C 849.224 1.46681 4.1833 0
M  V30 9036 H 846.444 0.361098 0.565552 0
M  V30 9037 H 848.988 1.58426 1.29311 0
M  V30 9038 H 847.143 1.0715 3.72287 0
M  V30 9039 H 847.557 3.24983 4.11687 0
M  V30 9040 H 849.031 1.90959 5.17918 0
M  V30 9041 H 849.508 0.417663 4.3721 0
M  V30 9042 H 850.114 1.97616 3.76601 0
M  V30 9043 N 848.429 -1.21819 0.999893 0
M  V30 9044 C 849.361 -2.23356 0.514256 0
M  V30 9045 C 850.374 -1.5795 -0.394413 0
M  V30 9046 O 851.563 -1.77427 -0.195428 0
M  V30 9047 C 848.663 -3.37797 -0.273207 0
M  V30 9048 C 847.836 -4.32791 0.633293 0
M  V30 9049 C 846.895 -5.26098 -0.103673 0
M  V30 9050 O 845.921 -5.66881 0.513269 0
M  V30 9051 N 847.123 -5.63764 -1.38383 0
M  V30 9052 H 849.888 -2.65653 1.3874 0
M  V30 9053 H 847.449 -1.3619 0.875431 0
M  V30 9054 H 849.441 -3.97209 -0.775053 0
M  V30 9055 H 848.011 -2.94527 -1.0475 0
M  V30 9056 H 847.231 -3.71595 1.31571 0
M  V30 9057 H 848.519 -4.93196 1.25039 0
M  V30 9058 H 847.917 -5.32614 -1.90627 0
M  V30 9059 H 846.474 -6.25562 -1.83073 0
M  V30 9060 N 849.908 -0.773975 -1.37286 0
M  V30 9061 C 850.838 -0.175782 -2.32837 0
M  V30 9062 C 851.819 0.680603 -1.5589 0
M  V30 9063 O 853.004 0.617607 -1.84117 0
M  V30 9064 C 850.134 0.702388 -3.40123 0
M  V30 9065 C 849.088 -0.0528687 -4.27967 0
M  V30 9066 C 848.414 0.944891 -5.26285 0
M  V30 9067 C 849.714 -1.23316 -5.07534 0
M  V30 9068 H 851.408 -0.974016 -2.83114 0
M  V30 9069 H 848.954 -0.469826 -1.3612 0
M  V30 9070 H 850.907 1.13069 -4.05947 0
M  V30 9071 H 849.631 1.53316 -2.88378 0
M  V30 9072 H 848.29 -0.461978 -3.63678 0
M  V30 9073 H 847.938 1.77028 -4.70819 0
M  V30 9074 H 847.638 0.444079 -5.8592 0
M  V30 9075 H 849.162 1.37209 -5.94984 0
M  V30 9076 H 850.576 -0.881395 -5.66484 0
M  V30 9077 H 848.973 -1.66621 -5.76504 0
M  V30 9078 H 850.043 -2.03617 -4.40077 0
M  V30 9079 N 851.386 1.48609 -0.524698 0
M  V30 9080 C 852.797 1.86516 -0.0828846 0
M  V30 9081 C 853.148 1.43478 1.33822 0
M  V30 9082 O 852.273 0.823139 2.00133 0
M  V30 9083 C 852.868 3.38495 -0.143639 0
M  V30 9084 C 851.427 3.75615 0.242951 0
M  V30 9085 C 850.574 2.72649 -0.505747 0
M  V30 9086 H 853.525 1.40589 -0.736233 0
M  V30 9087 H 853.546 3.74977 0.645955 0
M  V30 9088 H 853.058 3.69789 -1.17805 0
M  V30 9089 H 851.159 3.49935 1.27971 0
M  V30 9090 H 851.272 4.7901 -0.0929834 0
M  V30 9091 H 849.636 2.54656 0.0473482 0
M  V30 9092 H 850.419 3.06786 -1.54069 0
M  V30 9093 N 852.864 0.259585 1.55447 0
M  V30 9094 C 854.094 -0.364863 2.03353 0
M  V30 9095 C 854.502 -1.5116 1.13786 0
M  V30 9096 O 853.845 -1.83109 0.147283 0
M  V30 9097 C 853.907 -0.922587 3.4746 0
M  V30 9098 C 853.571 0.0935207 4.56904 0
M  V30 9099 C 854.568 0.907571 5.11917 0
M  V30 9100 C 852.253 0.223276 5.01804 0
M  V30 9101 C 854.247 1.83771 6.10333 0
M  V30 9102 C 851.934 1.15691 6.00049 0
M  V30 9103 C 852.932 1.96264 6.54194 0
M  V30 9104 O 852.62 2.88052 7.50521 0
M  V30 9105 H 852.352 -0.0893313 0.670072 0
M  V30 9106 H 854.906 0.384821 2.01763 0
M  V30 9107 H 853.136 -1.72206 3.4624 0
M  V30 9108 H 854.825 -1.45846 3.78792 0
M  V30 9109 H 855.591 0.817979 4.78052 0
M  V30 9110 H 851.47 -0.393834 4.59315 0
M  V30 9111 H 855.014 2.46703 6.52521 0
M  V30 9112 H 850.911 1.24738 6.33333 0
M  V30 9113 H 851.679 2.82557 7.68182 0
M  V30 9114 N 854.342 -1.57594 -0.0133615 0
M  V30 9115 C 855.619 -1.81173 -0.737273 0
M  V30 9116 C 855.999 -0.861395 -1.92726 0
M  V30 9117 O 855.347 0.0929324 -2.28311 0
M  V30 9118 C 855.557 -3.29314 -1.15557 0
M  V30 9119 C 856.905 -3.94707 -1.56498 0
M  V30 9120 O 857.929 -3.33557 -1.24973 0
M  V30 9121 O 856.788 -5.02402 -2.15069 0
M  V30 9122 H 853.882 -0.745575 -0.357837 0
M  V30 9123 H 856.428 -1.69696 0.0110674 0
M  V30 9124 H 855.2 -3.90096 -0.30677 0
M  V30 9125 H 854.823 -3.45739 -1.96343 0
M  V30 9126 N 855.82 0.285905 -1.54985 0
M  V30 9127 C 856.77 1.35505 -1.83364 0
M  V30 9128 C 857.754 1.45273 -0.691698 0
M  V30 9129 O 858.946 1.49172 -0.952725 0
M  V30 9130 C 856.075 2.71756 -2.0977 0
M  V30 9131 C 855.161 2.6615 -3.30189 0
M  V30 9132 N 855.552 2.30161 -4.50399 0
M  V30 9133 C 853.85 2.97232 -3.3252 0
M  V30 9134 C 854.551 2.34228 -5.32459 0
M  V30 9135 N 853.527 2.72187 -4.70548 0
M  V30 9136 H 857.329 1.06668 -2.7386 0
M  V30 9137 H 854.843 0.494521 -1.54688 0
M  V30 9138 H 856.84 3.48864 -2.28253 0
M  V30 9139 H 855.5 3.01492 -1.20551 0
M  V30 9140 H 856.511 2.02358 -4.7673 0
M  V30 9141 H 853.188 3.31764 -2.53454 0
M  V30 9142 H 854.578 2.09074 -6.38543 0
M  V30 9143 N 857.298 1.47698 0.54982 0
M  V30 9144 C 858.245 1.60739 1.65625 0
M  V30 9145 C 859.215 0.450129 1.59884 0
M  V30 9146 O 860.4 0.671123 1.78607 0
M  V30 9147 C 857.54 1.63457 3.03934 0
M  V30 9148 C 856.653 2.90152 3.20056 0
M  V30 9149 C 855.788 2.84157 4.48807 0
M  V30 9150 C 854.827 4.05644 4.58387 0
M  V30 9151 N 853.964 3.97843 5.78503 0
M  V30 9152 H 858.804 2.55234 1.53817 0
M  V30 9153 H 856.341 1.26593 0.749173 0
M  V30 9154 H 858.299 1.63015 3.84034 0
M  V30 9155 H 856.929 0.724689 3.1456 0
M  V30 9156 H 855.981 3.00428 2.33339 0
M  V30 9157 H 857.293 3.80097 3.22998 0
M  V30 9158 H 856.447 2.82006 5.37175 0
M  V30 9159 H 855.186 1.91908 4.48356 0
M  V30 9160 H 854.191 4.08092 3.6843 0
M  V30 9161 H 855.416 4.9903 4.60593 0
M  V30 9162 H 853.362 3.08401 5.78986 0
M  V30 9163 H 853.279 4.81473 5.82855 0
M  V30 9164 H 854.547 3.99719 6.69212 0
M  V30 9165 N 858.776 -0.797141 1.35954 0
M  V30 9166 C 860.022 -1.55636 1.30954 0
M  V30 9167 C 860.377 -1.92071 -0.112515 0
M  V30 9168 O 859.67 -1.5926 -1.06521 0
M  V30 9169 C 859.864 -2.84847 2.15863 0
M  V30 9170 C 859.693 -2.61039 3.66182 0
M  V30 9171 C 858.463 -2.56452 4.35385 0
M  V30 9172 C 860.661 -2.30766 4.59621 0
M  V30 9173 N 858.643 -2.2446 5.71394 0
M  V30 9174 C 860.014 -2.08695 5.8382 0
M  V30 9175 C 862.069 -2.16708 4.48266 0
M  V30 9176 C 860.772 -1.73989 6.9794 0
M  V30 9177 C 862.798 -1.83399 5.62244 0
M  V30 9178 C 862.16 -1.62171 6.85478 0
M  V30 9179 H 858.259 -0.570853 0.534463 0
M  V30 9180 H 860.843 -0.932261 1.7093 0
M  V30 9181 H 859.014 -3.45137 1.78144 0
M  V30 9182 H 860.746 -3.50503 2.02311 0
M  V30 9183 H 857.501 -2.7143 3.88101 0
M  V30 9184 H 857.925 -2.11232 6.43203 0
M  V30 9185 H 862.567 -2.31814 3.53585 0
M  V30 9186 H 860.285 -1.57621 7.92579 0
M  V30 9187 H 863.871 -1.73217 5.55416 0
M  V30 9188 H 862.751 -1.36774 7.7218 0
M  V30 9189 N 860.254 -1.20106 -1.0204 0
M  V30 9190 C 861.164 -0.962051 -2.13967 0
M  V30 9191 C 862.18 0.0808053 -1.73812 0
M  V30 9192 O 863.356 -0.105774 -2.01122 0
M  V30 9193 C 860.421 -0.513108 -3.42882 0
M  V30 9194 C 859.482 -1.62636 -3.97301 0
M  V30 9195 C 858.715 -1.19875 -5.20063 0
M  V30 9196 O 858.938 -0.0658423 -5.70362 0
M  V30 9197 O 857.872 -2.00467 -5.67536 0
M  V30 9198 H 861.698 -1.8991 -2.36998 0
M  V30 9199 H 859.283 -0.984608 -1.12365 0
M  V30 9200 H 861.165 -0.271797 -4.20523 0
M  V30 9201 H 859.84 0.395402 -3.21276 0
M  V30 9202 H 858.747 -1.92192 -3.20957 0
M  V30 9203 H 860.08 -2.51174 -4.23288 0
M  V30 9204 N 861.732 1.21287 -1.00634 0
M  V30 9205 C 862.979 1.90389 -0.6898 0
M  V30 9206 C 863.307 1.78193 0.779574 0
M  V30 9207 O 862.562 1.15358 1.58085 0
M  V30 9208 C 862.861 3.41374 -1.05824 0
M  V30 9209 C 862.527 3.73766 -2.5221 0
M  V30 9210 C 861.189 3.82317 -2.92211 0
M  V30 9211 C 863.541 3.88871 -3.47028 0
M  V30 9212 C 860.869 4.03423 -4.2599 0
M  V30 9213 C 863.221 4.11484 -4.80483 0
M  V30 9214 C 861.885 4.18263 -5.20204 0
M  V30 9215 H 861.155 0.696683 -0.252416 0
M  V30 9216 H 863.802 1.43769 -1.26502 0
M  V30 9217 H 862.107 3.8974 -0.401281 0
M  V30 9218 H 863.804 3.93118 -0.79116 0
M  V30 9219 H 860.394 3.67702 -2.20212 0
M  V30 9220 H 864.578 3.8163 -3.17289 0
M  V30 9221 H 859.834 4.06902 -4.56334 0
M  V30 9222 H 864.008 4.22115 -5.53888 0
M  V30 9223 H 861.635 4.34369 -6.23881 0
M  V30 9224 N 863.21 0.781244 1.36873 0
M  V30 9225 C 864.621 0.414093 1.8205 0
M  V30 9226 C 864.972 -1.06098 1.65039 0
M  V30 9227 O 864.097 -1.82251 1.16677 0
M  V30 9228 C 864.692 0.744837 3.30511 0
M  V30 9229 C 863.251 0.430621 3.73929 0
M  V30 9230 C 862.398 0.983746 2.59264 0
M  V30 9231 H 865.349 0.975091 1.2521 0
M  V30 9232 H 865.37 0.032936 3.80486 0
M  V30 9233 H 864.882 1.81847 3.42861 0
M  V30 9234 H 862.983 -0.635308 3.67144 0
M  V30 9235 H 863.096 0.945514 4.69677 0
M  V30 9236 H 861.46 0.407433 2.5142 0
M  V30 9237 H 862.243 2.06297 2.74402 0
M  V30 9238 N 864.689 -1.48329 0.532571 0
M  V30 9239 C 866.105 -1.58458 0.190605 0
M  V30 9240 C 866.305 -1.53427 -1.30623 0
M  V30 9241 O 865.361 -1.4247 -2.08467 0
M  V30 9242 C 866.674 -2.89989 0.79543 0
M  V30 9243 C 868.222 -3.03523 0.7644 0
M  V30 9244 C 868.697 -4.37718 1.34785 0
M  V30 9245 N 870.188 -4.44292 1.30993 0
M  V30 9246 C 870.923 -5.4664 1.73124 0
M  V30 9247 N 870.419 -6.5593 2.22997 0
M  V30 9248 N 872.212 -5.37538 1.64346 0
M  V30 9249 H 864.363 -1.49842 1.50537 0
M  V30 9250 H 866.626 -0.71164 0.626316 0
M  V30 9251 H 866.332 -2.99333 1.84642 0
M  V30 9252 H 866.206 -3.76203 0.27403 0
M  V30 9253 H 868.593 -2.93789 -0.277831 0
M  V30 9254 H 868.674 -2.18912 1.3233 0
M  V30 9255 H 868.318 -4.48206 2.38902 0
M  V30 9256 H 868.248 -5.21019 0.764609 0
M  V30 9257 H 870.739 -3.65897 0.944868 0
M  V30 9258 H 871.052 -7.30167 2.53133 0
M  V30 9259 H 869.397 -6.56886 2.26992 0
M  V30 9260 H 872.588 -4.51052 1.25178 0
M  V30 9261 H 872.761 -6.17169 1.97501 0
M  V30 9262 N 866.167 -0.267825 -1.55308 0
M  V30 9263 C 867.115 0.638848 -2.23655 0
M  V30 9264 C 868.109 1.16363 -1.2311 0
M  V30 9265 O 869.315 1.1181 -1.41062 0
M  V30 9266 H 865.69 0.224551 -0.717691 0
M  V30 9267 H 867.661 0.0394809 -2.98374 0
M  V30 9268 C 866.41 1.8151 -2.96562 0
M  V30 9269 H 865.733 1.42048 -3.73715 0
M  V30 9270 H 867.173 2.42629 -3.47717 0
M  V30 9271 C 865.632 2.69911 -2.01618 0
M  V30 9272 O 866.162 3.70058 -1.56268 0
M  V30 9273 N 864.368 2.36924 -1.68272 0
M  V30 9274 H 863.915 1.55533 -2.05347 0
M  V30 9275 H 863.873 2.96343 -1.05016 0
M  V30 9276 N 867.645 1.57599 0.00500368 0
M  V30 9277 C 869.061 1.55463 0.361015 0
M  V30 9278 C 869.261 0.997051 1.75103 0
M  V30 9279 O 868.317 0.628661 2.44549 0
M  V30 9280 C 869.63 2.99734 0.240828 0
M  V30 9281 C 871.178 3.11399 0.316138 0
M  V30 9282 C 871.653 4.57446 0.22513 0
M  V30 9283 N 873.144 4.62334 0.283186 0
M  V30 9284 C 873.879 5.72914 0.23603 0
M  V30 9285 N 873.375 6.92659 0.139762 0
M  V30 9286 N 875.168 5.61364 0.287529 0
M  V30 9287 H 867.319 1.92185 -0.904359 0
M  V30 9288 H 869.582 0.882529 -0.34619 0
M  V30 9289 H 869.288 3.44348 -0.715343 0
M  V30 9290 H 869.162 3.63009 1.02491 0
M  V30 9291 H 871.549 2.66718 1.26275 0
M  V30 9292 H 871.63 2.50911 -0.497725 0
M  V30 9293 H 871.274 5.02801 -0.717917 0
M  V30 9294 H 871.204 5.15874 1.05742 0
M  V30 9295 H 873.695 3.7619 0.359123 0
M  V30 9296 H 874.008 7.72722 0.10954 0
M  V30 9297 H 872.353 6.9492 0.105462 0
M  V30 9298 H 875.544 4.66707 0.360897 0
M  V30 9299 H 875.717 6.47528 0.247313 0
M  V30 9300 N 869.123 -0.277682 1.55134 0
M  V30 9301 C 870.053 -1.34742 1.90701 0
M  V30 9302 C 871.034 -1.51757 0.768354 0
M  V30 9303 O 872.219 -1.64879 1.02609 0
M  V30 9304 C 869.349 -2.70775 2.17481 0
M  V30 9305 C 868.303 -2.68497 3.33307 0
M  V30 9306 C 867.629 -4.08037 3.45557 0
M  V30 9307 C 868.929 -2.28178 4.69821 0
M  V30 9308 H 870.623 -1.05224 2.803 0
M  V30 9309 H 868.169 -0.504738 1.34864 0
M  V30 9310 H 870.122 -3.45719 2.40949 0
M  V30 9311 H 868.846 -3.01867 1.24676 0
M  V30 9312 H 867.505 -1.9601 3.09799 0
M  V30 9313 H 867.153 -4.36344 2.50226 0
M  V30 9314 H 866.853 -4.07409 4.23429 0
M  V30 9315 H 868.377 -4.84726 3.71312 0
M  V30 9316 H 869.791 -2.92843 4.92865 0
M  V30 9317 H 868.188 -2.3872 5.50575 0
M  V30 9318 H 869.258 -1.23308 4.6896 0
M  V30 9319 N 870.601 -1.47988 -0.541979 0
M  V30 9320 C 871.826 -1.59286 -1.32826 0
M  V30 9321 C 872.251 -0.24894 -1.86445 0
M  V30 9322 O 871.609 0.777581 -1.63778 0
M  V30 9323 C 871.657 -2.6334 -2.46343 0
M  V30 9324 O 870.761 -2.19667 -3.49028 0
M  V30 9325 H 870.102 -0.534543 -0.393903 0
M  V30 9326 H 872.632 -1.93885 -0.653427 0
M  V30 9327 H 872.642 -2.84238 -2.92699 0
M  V30 9328 H 871.317 -3.60913 -2.06675 0
M  V30 9329 H 869.894 -2.08932 -3.08872 0
M  V30 9330 N 872.079 0.78992 -1.36375 0
M  V30 9331 C 873.326 1.54777 -1.30576 0
M  V30 9332 C 873.654 1.94159 0.115095 0
M  V30 9333 O 872.909 1.62918 1.08426 0
M  V30 9334 C 873.208 2.83698 -2.17371 0
M  V30 9335 C 872.874 2.63457 -3.65925 0
M  V30 9336 C 871.536 2.57645 -4.06415 0
M  V30 9337 C 873.888 2.44833 -4.60115 0
M  V30 9338 C 871.216 2.31174 -5.39236 0
M  V30 9339 C 873.568 2.19889 -5.93154 0
M  V30 9340 C 872.232 2.1251 -6.32768 0
M  V30 9341 H 871.502 0.566371 -0.477813 0
M  V30 9342 H 874.149 0.91138 -1.68422 0
M  V30 9343 H 872.454 3.51802 -1.72459 0
M  V30 9344 H 874.151 3.41487 -2.10209 0
M  V30 9345 H 870.741 2.68836 -3.33804 0
M  V30 9346 H 874.925 2.48325 -4.29707 0
M  V30 9347 H 870.181 2.23942 -5.68911 0
M  V30 9348 H 874.355 2.04473 -6.65705 0
M  V30 9349 H 871.982 1.91761 -7.35616 0
M  V30 9350 N 873.557 1.20646 1.01402 0
M  V30 9351 C 874.805 1.01618 1.74695 0
M  V30 9352 C 875.126 -0.452438 1.89679 0
M  V30 9353 O 874.396 -1.32693 1.44116 0
M  V30 9354 H 872.976 0.373013 0.647202 0
M  V30 9355 H 875.638 1.518 1.22241 0
M  V30 9356 H 874.734 1.47666 2.74957 0
M  V30 9357 N 875.035 -1.20752 1.01276 0
M  V30 9358 C 875.982 -2.234 0.579732 0
M  V30 9359 C 876.952 -1.61256 -0.398206 0
M  V30 9360 O 878.137 -1.8845 -0.29851 0
M  V30 9361 C 875.277 -3.45008 -0.0797006 0
M  V30 9362 C 874.39 -4.21597 0.942343 0
M  V30 9363 C 873.525 -5.30591 0.254364 0
M  V30 9364 C 872.564 -5.98919 1.26343 0
M  V30 9365 N 871.701 -6.99511 0.602384 0
M  V30 9366 H 876.541 -2.59801 1.45971 0
M  V30 9367 H 874.078 -1.27663 0.730787 0
M  V30 9368 H 876.036 -4.1444 -0.479125 0
M  V30 9369 H 874.666 -3.09312 -0.923354 0
M  V30 9370 H 873.718 -3.51268 1.45996 0
M  V30 9371 H 875.03 -4.68576 1.70992 0
M  V30 9372 H 874.184 -6.06368 -0.200763 0
M  V30 9373 H 872.923 -4.84639 -0.545553 0
M  V30 9374 H 871.928 -5.21906 1.72898 0
M  V30 9375 H 873.153 -6.46957 2.06456 0
M  V30 9376 H 871.099 -6.55759 -0.177734 0
M  V30 9377 H 871.016 -7.44597 1.30809 0
M  V30 9378 H 872.284 -7.79313 0.17072 0
M  V30 9379 N 876.513 -0.788492 -1.36457 0
M  V30 9380 C 877.741 -0.372365 -2.03522 0
M  V30 9381 C 878.156 1.01093 -1.59454 0
M  V30 9382 O 877.513 1.64824 -0.783535 0
M  V30 9383 C 877.564 -0.425435 -3.58988 0
M  V30 9384 O 877.285 -1.75418 -4.01448 0
M  V30 9385 C 878.786 0.000180167 -4.433 0
M  V30 9386 H 876.006 -0.1536 -0.653183 0
M  V30 9387 H 878.55 -1.06708 -1.74452 0
M  V30 9388 H 876.705 0.220856 -3.8677 0
M  V30 9389 H 877.119 -1.70437 -4.96036 0
M  V30 9390 H 878.593 -0.0880919 -5.5193 0
M  V30 9391 H 879.07 1.05269 -4.26398 0
M  V30 9392 H 879.676 -0.618563 -4.20778 0
M  V30 9393 N 877.991 1.48044 -0.54043 0
M  V30 9394 C 878.921 2.32597 0.205178 0
M  V30 9395 C 879.902 1.42748 0.925041 0
M  V30 9396 O 881.087 1.71624 0.908784 0
M  V30 9397 C 878.217 3.24175 1.24612 0
M  V30 9398 C 877.171 4.23131 0.64376 0
M  V30 9399 C 876.497 5.03915 1.78812 0
M  V30 9400 C 877.797 5.20831 -0.39144 0
M  V30 9401 H 879.491 2.95184 -0.500676 0
M  V30 9402 H 877.037 1.41948 -0.242225 0
M  V30 9403 H 878.99 3.82158 1.77576 0
M  V30 9404 H 877.714 2.59608 1.98169 0
M  V30 9405 H 876.373 3.66349 0.135554 0
M  V30 9406 H 876.021 4.35765 2.51232 0
M  V30 9407 H 875.721 5.709 1.39094 0
M  V30 9408 H 877.245 5.64753 2.32134 0
M  V30 9409 H 878.659 5.73277 0.0515064 0
M  V30 9410 H 877.056 5.95926 -0.706569 0
M  V30 9411 H 878.126 4.6733 -1.29345 0
M  V30 9412 N 879.47 0.276058 1.55163 0
M  V30 9413 C 880.718 -0.339782 1.99223 0
M  V30 9414 C 881.039 -1.56307 1.16589 0
M  V30 9415 O 880.309 -1.94225 0.25564 0
M  V30 9416 H 878.889 -0.128534 0.735859 0
M  V30 9417 H 881.551 0.381612 1.91128 0
M  V30 9418 H 880.647 -0.629 3.05696 0
M  V30 9419 N 880.948 -1.576 0.00335426 0
M  V30 9420 C 881.911 -2.07576 -0.971838 0
M  V30 9421 C 882.911 -0.985796 -1.27038 0
M  V30 9422 O 884.101 -1.24833 -1.21501 0
M  V30 9423 C 881.233 -2.52003 -2.29581 0
M  V30 9424 H 882.426 -2.95008 -0.539481 0
M  V30 9425 H 879.979 -1.54381 -0.244186 0
M  V30 9426 H 880.714 -1.67825 -2.77498 0
M  V30 9427 H 880.499 -3.31609 -2.09231 0
M  V30 9428 H 881.989 -2.90983 -2.99531 0
M  V30 9429 N 882.426 0.269451 -1.5528 0
M  V30 9430 C 883.674 0.998604 -1.75705 0
M  V30 9431 C 883.995 1.86691 -0.563175 0
M  V30 9432 O 883.265 1.91305 0.421811 0
M  V30 9433 H 881.845 0.371698 -0.647958 0
M  V30 9434 H 884.507 0.292826 -1.92688 0
M  V30 9435 H 883.603 1.63348 -2.6594 0
M  V30 9436 N 883.904 1.48273 0.534124 0
M  V30 9437 C 884.867 1.6201 1.62127 0
M  V30 9438 C 885.867 0.493653 1.53035 0
M  V30 9439 O 887.057 0.759337 1.56779 0
M  V30 9440 C 884.189 1.5864 3.01739 0
M  V30 9441 H 885.382 2.58944 1.51288 0
M  V30 9442 H 882.935 1.36808 0.755861 0
M  V30 9443 H 883.67 0.631685 3.18088 0
M  V30 9444 H 883.455 2.40415 3.09747 0
M  V30 9445 H 884.945 1.71438 3.80787 0
M  V30 9446 N 885.382 -0.782676 1.36792 0
M  V30 9447 C 886.629 -1.54083 1.31395 0
M  V30 9448 C 886.957 -1.94217 -0.104797 0
M  V30 9449 O 886.212 -1.63491 -1.0756 0
M  V30 9450 C 886.511 -2.82542 2.18872 0
M  V30 9451 C 886.177 -2.61512 3.67317 0
M  V30 9452 C 884.839 -2.55486 4.07775 0
M  V30 9453 C 887.191 -2.42389 4.61407 0
M  V30 9454 C 884.519 -2.28311 5.40454 0
M  V30 9455 C 886.871 -2.1674 5.94312 0
M  V30 9456 C 885.535 -2.09151 6.33887 0
M  V30 9457 H 884.805 -0.563829 0.48081 0
M  V30 9458 H 887.452 -0.902436 1.68903 0
M  V30 9459 H 885.757 -3.50883 1.74323 0
M  V30 9460 H 887.454 -3.40367 2.12017 0
M  V30 9461 H 884.044 -2.67062 3.35225 0
M  V30 9462 H 888.228 -2.46043 4.31018 0
M  V30 9463 H 883.484 -2.20922 5.70091 0
M  V30 9464 H 887.658 -2.0094 6.6678 0
M  V30 9465 H 885.285 -1.87857 7.36623 0
M  V30 9466 N 886.86 -1.21182 -1.00761 0
M  V30 9467 C 888.108 -1.02543 -1.74153 0
M  V30 9468 C 888.429 0.442372 -1.89916 0
M  V30 9469 O 887.699 1.31927 -1.44818 0
M  V30 9470 H 886.279 -0.37644 -0.645214 0
M  V30 9471 H 888.941 -1.52446 -1.21434 0
M  V30 9472 H 888.037 -1.49122 -2.7417 0
M  V30 9473 N 888.338 1.20213 -1.01915 0
M  V30 9474 C 889.285 2.2309 -0.591571 0
M  V30 9475 C 890.255 1.61465 0.389649 0
M  V30 9476 O 891.44 1.88606 0.288511 0
M  V30 9477 C 888.58 3.45045 0.0614028 0
M  V30 9478 C 887.693 4.21091 -0.964688 0
M  V30 9479 C 886.828 5.30448 -0.282499 0
M  V30 9480 C 885.867 5.98241 -1.29517 0
M  V30 9481 N 885.004 6.99182 -0.639472 0
M  V30 9482 H 889.844 2.59023 -1.47347 0
M  V30 9483 H 887.381 1.27274 -0.737547 0
M  V30 9484 H 889.339 4.14688 0.45714 0
M  V30 9485 H 887.969 3.09797 0.906937 0
M  V30 9486 H 887.021 3.50489 -1.47857 0
M  V30 9487 H 888.333 4.67662 -1.73475 0
M  V30 9488 H 887.487 6.06466 0.168603 0
M  V30 9489 H 886.226 4.84922 0.519843 0
M  V30 9490 H 885.231 5.20982 -1.75663 0
M  V30 9491 H 886.456 6.45853 -2.09884 0
M  V30 9492 H 884.402 6.55844 0.142955 0
M  V30 9493 H 884.319 7.43893 -1.34756 0
M  V30 9494 H 885.587 7.79212 -0.212047 0
M  V30 9495 N 889.816 0.795718 1.36037 0
M  V30 9496 C 891.062 0.371574 1.99367 0
M  V30 9497 C 891.395 -1.0557 1.62999 0
M  V30 9498 O 890.67 -1.73051 0.887895 0
M  V30 9499 C 890.953 0.542622 3.55988 0
M  V30 9500 C 890.806 2.01404 4.0219 0
M  V30 9501 C 892.125 -0.0384527 4.40083 0
M  V30 9502 H 889.244 0.136483 0.724252 0
M  V30 9503 H 891.886 1.00323 1.61355 0
M  V30 9504 H 890.036 0.0049053 3.885 0
M  V30 9505 H 891.708 2.6133 3.80137 0
M  V30 9506 H 889.951 2.51439 3.53498 0
M  V30 9507 H 890.622 2.08466 5.11122 0
M  V30 9508 H 893.098 0.420634 4.13968 0
M  V30 9509 H 891.974 0.111214 5.48787 0
M  V30 9510 H 892.235 -1.13116 4.27384 0
M  V30 9511 N 891.294 -1.47756 0.548274 0
M  V30 9512 C 892.54 -2.02789 0.0209265 0
M  V30 9513 C 892.873 -1.42268 -1.32187 0
M  V30 9514 O 892.148 -0.575001 -1.85806 0
M  V30 9515 C 892.431 -3.60007 -0.0816674 0
M  V30 9516 C 892.284 -4.30977 1.28759 0
M  V30 9517 C 893.603 -4.32777 -0.799515 0
M  V30 9518 H 890.722 -0.736944 0.00907884 0
M  V30 9519 H 893.364 -1.76282 0.708839 0
M  V30 9520 H 891.514 -3.82722 -0.667537 0
M  V30 9521 H 893.186 -4.19629 1.91597 0
M  V30 9522 H 891.429 -3.9168 1.86466 0
M  V30 9523 H 892.1 -5.39488 1.16861 0
M  V30 9524 H 894.576 -4.15001 -0.30216 0
M  V30 9525 H 893.452 -5.42431 -0.840239 0
M  V30 9526 H 893.713 -4.01358 -1.85375 0
M  V30 9527 N 892.772 -0.284283 -1.55015 0
M  V30 9528 C 893.682 0.60906 -2.26556 0
M  V30 9529 C 894.698 1.16246 -1.29472 0
M  V30 9530 O 895.874 1.1908 -1.62425 0
M  V30 9531 C 892.939 1.77246 -2.97968 0
M  V30 9532 C 892 1.25482 -4.10552 0
M  V30 9533 C 891.233 2.36277 -4.78549 0
M  V30 9534 O 891.456 3.55829 -4.45805 0
M  V30 9535 O 890.39 2.03914 -5.66306 0
M  V30 9536 H 894.216 0.0292298 -3.03686 0
M  V30 9537 H 891.801 -0.0513466 -1.49312 0
M  V30 9538 H 893.683 2.45062 -3.42815 0
M  V30 9539 H 892.358 2.33921 -2.23747 0
M  V30 9540 H 891.265 0.542859 -3.7014 0
M  V30 9541 H 892.598 0.733708 -4.86701 0
M  V30 9542 N 894.251 1.57596 -0.0117121 0
M  V30 9543 C 895.214 2.08089 0.960816 0
M  V30 9544 C 896.214 0.992519 1.26514 0
M  V30 9545 O 897.404 1.25475 1.20837 0
M  V30 9546 C 894.536 2.53217 2.28241 0
M  V30 9547 H 895.729 2.9529 0.523829 0
M  V30 9548 H 893.282 1.54508 0.235995 0
M  V30 9549 H 894.017 1.69294 2.76604 0
M  V30 9550 H 893.802 3.32714 2.0747 0
M  V30 9551 H 895.292 2.92568 2.97983 0
M  V30 9552 N 895.729 -0.261212 1.5542 0
M  V30 9553 C 896.957 -1.00916 1.8062 0
M  V30 9554 C 897.372 -1.79494 0.585444 0
M  V30 9555 O 896.729 -1.76974 -0.445702 0
M  V30 9556 C 896.78 -1.95841 3.03856 0
M  V30 9557 O 896.501 -1.20445 4.21218 0
M  V30 9558 C 898.002 -2.82352 3.41749 0
M  V30 9559 H 895.222 -0.297596 0.601397 0
M  V30 9560 H 897.766 -0.288427 2.02456 0
M  V30 9561 H 895.921 -2.63361 2.84112 0
M  V30 9562 H 896.335 -1.84528 4.90968 0
M  V30 9563 H 897.809 -3.44733 4.31118 0
M  V30 9564 H 898.286 -3.5273 2.61683 0
M  V30 9565 H 898.892 -2.20306 3.63793 0
M  V30 9566 N 897.207 -1.48554 -0.526253 0
M  V30 9567 C 898.17 -1.62868 -1.61266 0
M  V30 9568 C 899.17 -0.501762 -1.52771 0
M  V30 9569 O 900.36 -0.76764 -1.56374 0
M  V30 9570 C 897.492 -1.60238 -3.00893 0
M  V30 9571 H 898.685 -2.59742 -1.49913 0
M  V30 9572 H 896.238 -1.37207 -0.748595 0
M  V30 9573 H 896.973 -0.648545 -3.17749 0
M  V30 9574 H 896.758 -2.42054 -3.08468 0
M  V30 9575 H 898.248 -1.73455 -3.79872 0
M  V30 9576 N 898.685 0.775411 -1.37205 0
M  V30 9577 C 899.915 1.56219 -1.352 0
M  V30 9578 C 900.323 1.89087 0.065456 0
M  V30 9579 O 899.666 1.51655 1.03665 0
M  V30 9580 C 899.728 2.9019 -2.12203 0
M  V30 9581 C 899.392 2.79978 -3.61195 0
M  V30 9582 C 900.389 2.51258 -4.55154 0
M  V30 9583 C 898.074 2.98115 -4.04268 0
M  V30 9584 C 900.068 2.40798 -5.90165 0
M  V30 9585 C 897.755 2.87276 -5.39366 0
M  V30 9586 C 898.753 2.58657 -6.32128 0
M  V30 9587 O 898.441 2.47838 -7.64743 0
M  V30 9588 H 898.173 0.490735 -0.464925 0
M  V30 9589 H 900.727 0.969201 -1.81096 0
M  V30 9590 H 898.957 3.51594 -1.60992 0
M  V30 9591 H 900.646 3.51561 -2.02879 0
M  V30 9592 H 901.412 2.36935 -4.23186 0
M  V30 9593 H 897.291 3.19392 -3.3243 0
M  V30 9594 H 900.835 2.18381 -6.62537 0
M  V30 9595 H 896.732 3.01166 -5.70937 0
M  V30 9596 H 897.5 2.63215 -7.75023 0
M  V30 9597 N 900.163 1.21714 1.00117 0
M  V30 9598 C 901.411 1.03465 1.73607 0
M  V30 9599 C 901.732 -0.432295 1.90148 0
M  V30 9600 O 901.002 -1.31157 1.45515 0
M  V30 9601 H 899.582 0.379857 0.643209 0
M  V30 9602 H 902.244 1.53088 1.20624 0
M  V30 9603 H 901.34 1.50574 2.73375 0
M  V30 9604 N 901.641 -1.19671 1.02551 0
M  V30 9605 C 902.571 -2.25009 0.623965 0
M  V30 9606 C 903.552 -1.66129 -0.36538 0
M  V30 9607 O 904.737 -1.92599 -0.248842 0
M  V30 9608 C 901.867 -3.47287 -0.0294869 0
M  V30 9609 C 900.821 -4.18818 0.881781 0
M  V30 9610 C 900.147 -5.34618 0.0936189 0
M  V30 9611 C 901.447 -4.73986 2.19396 0
M  V30 9612 H 903.141 -2.58851 1.50454 0
M  V30 9613 H 900.687 -1.24425 0.724872 0
M  V30 9614 H 902.64 -4.20168 -0.322016 0
M  V30 9615 H 901.364 -3.12635 -0.944838 0
M  V30 9616 H 900.023 -3.47815 1.15845 0
M  V30 9617 H 899.671 -4.9621 -0.823661 0
M  V30 9618 H 899.371 -5.83409 0.700568 0
M  V30 9619 H 900.895 -6.10297 -0.192249 0
M  V30 9620 H 902.309 -5.38639 1.96319 0
M  V30 9621 H 900.706 -5.3325 2.75254 0
M  V30 9622 H 901.776 -3.92238 2.85092 0
M  V30 9623 N 903.119 -0.802921 -1.35613 0
M  V30 9624 C 904.368 -0.378087 -1.98125 0
M  V30 9625 C 904.681 1.05953 -1.64418 0
M  V30 9626 O 905.887 1.58729 -2.20266 0
M  V30 9627 C 904.343 -0.625077 -3.5443 0
M  V30 9628 C 903.951 -2.07499 -3.97049 0
M  V30 9629 C 905.695 -0.265419 -4.23669 0
M  V30 9630 C 903.602 -2.26793 -5.46186 0
M  V30 9631 H 902.532 -0.137633 -0.741332 0
M  V30 9632 H 905.183 -0.986461 -1.54729 0
M  V30 9633 H 903.565 0.0531975 -3.95964 0
M  V30 9634 H 904.739 -2.79077 -3.66678 0
M  V30 9635 H 903.054 -2.39417 -3.40688 0
M  V30 9636 H 905.651 -0.387669 -5.33293 0
M  V30 9637 H 905.994 0.787994 -4.08774 0
M  V30 9638 H 906.527 -0.897464 -3.87544 0
M  V30 9639 H 903.266 -3.30566 -5.66045 0
M  V30 9640 H 902.786 -1.59735 -5.78139 0
M  V30 9641 H 904.465 -2.08165 -6.12598 0
M  V30 9642 N 904.597 1.47463 -0.556102 0
M  V30 9643 C 905.544 2.29998 0.192213 0
M  V30 9644 C 906.514 1.38993 0.909403 0
M  V30 9645 O 907.699 1.67954 0.905316 0
M  V30 9646 C 904.839 3.22932 1.21692 0
M  V30 9647 C 903.952 4.29027 0.505908 0
M  V30 9648 C 903.087 5.09114 1.51581 0
M  V30 9649 C 902.126 6.06984 0.789714 0
M  V30 9650 N 901.263 6.80033 1.74639 0
M  V30 9651 H 906.103 2.93468 -0.517734 0
M  V30 9652 H 903.64 1.44654 -0.267147 0
M  V30 9653 H 905.598 3.75234 1.8236 0
M  V30 9654 H 904.228 2.61329 1.89491 0
M  V30 9655 H 903.28 3.7979 -0.215276 0
M  V30 9656 H 904.592 4.9876 -0.062958 0
M  V30 9657 H 903.746 5.6556 2.19606 0
M  V30 9658 H 902.485 4.3928 2.11859 0
M  V30 9659 H 901.49 5.49717 0.0955382 0
M  V30 9660 H 902.715 6.78827 0.192688 0
M  V30 9661 H 900.661 6.12931 2.33777 0
M  V30 9662 H 900.578 7.45933 1.22965 0
M  V30 9663 H 901.846 7.41054 2.41782 0
M  V30 9664 N 906.075 0.2925 1.54862 0
M  V30 9665 C 907.3 -0.32494 2.04839 0
M  V30 9666 C 907.725 -1.47381 1.16877 0
M  V30 9667 O 907.083 -1.80492 0.171028 0
M  V30 9668 C 907.131 -0.76694 3.5235 0
M  V30 9669 O 906.235 -1.87256 3.67436 0
M  V30 9670 H 905.576 -0.0645195 0.660858 0
M  V30 9671 H 908.106 0.431867 1.9999 0
M  V30 9672 H 908.116 -1.05804 3.94043 0
M  V30 9673 H 906.791 0.0735212 4.15835 0
M  V30 9674 H 905.368 -1.58266 3.37648 0
M  V30 9675 N 907.553 -1.57587 0.0200696 0
M  V30 9676 C 908.83 -1.82696 -0.698677 0
M  V30 9677 C 909.21 -0.902082 -1.90855 0
M  V30 9678 O 908.558 0.0444834 -2.28457 0
M  V30 9679 C 908.768 -3.31691 -1.08546 0
M  V30 9680 C 910.116 -3.97938 -1.4809 0
M  V30 9681 O 911.14 -3.36133 -1.17869 0
M  V30 9682 O 909.999 -5.06851 -2.04364 0
M  V30 9683 H 907.093 -0.752997 -0.341942 0
M  V30 9684 H 909.639 -1.69635 0.04706 0
M  V30 9685 H 908.411 -3.90659 -0.223956 0
M  V30 9686 H 908.034 -3.49825 -1.88965 0
M  V30 9687 N 909.032 0.252966 -1.55557 0
M  V30 9688 C 909.995 1.29645 -1.8901 0
M  V30 9689 C 910.995 1.41378 -0.766096 0
M  V30 9690 O 912.185 1.40183 -1.03414 0
M  V30 9691 C 909.317 2.67504 -2.11316 0
M  V30 9692 H 910.51 1.01202 -2.82309 0
M  V30 9693 H 908.063 0.491977 -1.48355 0
M  V30 9694 H 908.798 3.01095 -1.20466 0
M  V30 9695 H 908.583 2.6037 -2.93172 0
M  V30 9696 H 910.073 3.42861 -2.38403 0
M  V30 9697 N 910.51 1.48831 0.518367 0
M  V30 9698 C 911.473 1.63721 1.604 0
M  V30 9699 C 912.473 0.509857 1.52503 0
M  V30 9700 O 913.663 0.775922 1.55965 0
M  V30 9701 C 910.795 1.61831 3.00039 0
M  V30 9702 H 911.988 2.60534 1.48533 0
M  V30 9703 H 909.541 1.37602 0.741309 0
M  V30 9704 H 910.276 0.665387 3.17401 0
M  V30 9705 H 910.061 2.43686 3.0718 0
M  V30 9706 H 911.551 1.75467 3.78947 0
M  V30 9707 N 911.988 -0.768124 1.37614 0
M  V30 9708 C 912.921 -1.88894 1.2804 0
M  V30 9709 C 913.899 -1.61809 0.160226 0
M  V30 9710 O 915.083 -1.85498 0.33506 0
M  V30 9711 C 912.21 -3.24197 0.980523 0
M  V30 9712 C 911.256 -3.70188 2.11808 0
M  V30 9713 S 912.089 -3.83433 3.73817 0
M  V30 9714 C 913.245 -5.21578 3.45987 0
M  V30 9715 H 913.478 -1.96726 2.22904 0
M  V30 9716 H 911.011 -0.929602 1.23279 0
M  V30 9717 H 912.969 -4.02342 0.814331 0
M  V30 9718 H 911.63 -3.14061 0.0493122 0
M  V30 9719 H 910.823 -4.6829 1.86335 0
M  V30 9720 H 910.425 -2.99155 2.2446 0
M  V30 9721 H 912.717 -6.06865 3.012 0
M  V30 9722 H 913.66 -5.52065 4.43429 0
M  V30 9723 H 914.068 -4.89687 2.80832 0
M  V30 9724 N 913.466 -1.22244 -0.994698 0
M  V30 9725 C 914.694 -1.07218 -1.76952 0
M  V30 9726 C 915.109 0.377388 -1.8499 0
M  V30 9727 O 914.466 1.26157 -1.31874 0
M  V30 9728 C 914.517 -1.67496 -3.20355 0
M  V30 9729 O 914.238 -3.06782 -3.12756 0
M  V30 9730 C 915.739 -1.57721 -4.14294 0
M  V30 9731 H 912.959 -0.375966 -0.555779 0
M  V30 9732 H 915.503 -1.61799 -1.25065 0
M  V30 9733 H 913.658 -1.16982 -3.69315 0
M  V30 9734 H 914.072 -3.35784 -4.02926 0
M  V30 9735 H 915.546 -2.04623 -5.12673 0
M  V30 9736 H 916.023 -0.533434 -4.35949 0
M  V30 9737 H 916.629 -2.07531 -3.71229 0
M  V30 9738 N 914.944 1.19125 -1.03184 0
M  V30 9739 C 916.19 1.89163 -0.731111 0
M  V30 9740 C 916.523 1.79604 0.738662 0
M  V30 9741 O 915.798 1.19037 1.53819 0
M  V30 9742 C 916.081 3.39986 -1.18666 0
M  V30 9743 C 915.934 3.58401 -2.71788 0
M  V30 9744 C 917.253 4.33316 -0.769772 0
M  V30 9745 H 914.372 0.686908 -0.267069 0
M  V30 9746 H 917.014 1.40205 -1.28229 0
M  V30 9747 H 915.164 3.81813 -0.717736 0
M  V30 9748 H 916.836 3.25727 -3.26649 0
M  V30 9749 H 915.079 3.01355 -3.12038 0
M  V30 9750 H 915.75 4.64189 -2.98719 0
M  V30 9751 H 918.226 3.9922 -1.17314 0
M  V30 9752 H 917.102 5.37427 -1.11637 0
M  V30 9753 H 917.363 4.40884 0.327681 0
M  V30 9754 N 916.422 0.810101 1.35185 0
M  V30 9755 C 917.385 0.22852 2.28058 0
M  V30 9756 C 918.385 -0.586168 1.49735 0
M  V30 9757 O 919.575 -0.40414 1.69447 0
M  V30 9758 C 916.707 -0.681041 3.34028 0
M  V30 9759 H 917.9 1.04768 2.81005 0
M  V30 9760 H 915.453 0.58101 1.451 0
M  V30 9761 H 916.188 -1.52375 2.86273 0
M  V30 9762 H 915.973 -0.0985276 3.91976 0
M  V30 9763 H 917.463 -1.08217 4.03335 0
M  V30 9764 N 917.9 -1.47166 0.563914 0
M  V30 9765 C 919.146 -2.02756 0.0424338 0
M  V30 9766 C 919.479 -1.43662 -1.3067 0
M  V30 9767 O 918.754 -0.594676 -1.85186 0
M  V30 9768 C 919.037 -3.60074 -0.0434793 0
M  V30 9769 C 918.89 -4.29587 1.33323 0
M  V30 9770 C 920.209 -4.336 -0.753568 0
M  V30 9771 H 917.328 -0.736806 0.0168946 0
M  V30 9772 H 919.97 -1.75521 0.727496 0
M  V30 9773 H 918.12 -3.83409 -0.626906 0
M  V30 9774 H 919.792 -4.17573 1.96037 0
M  V30 9775 H 918.035 -3.8968 1.9061 0
M  V30 9776 H 918.706 -5.38218 1.22576 0
M  V30 9777 H 921.182 -4.15299 -0.258126 0
M  V30 9778 H 920.058 -5.43291 -0.782659 0
M  V30 9779 H 920.319 -4.03302 -1.81108 0
M  V30 9780 N 919.378 -0.300708 -1.54705 0
M  V30 9781 C 920.325 0.57552 -2.23509 0
M  V30 9782 C 921.295 1.12979 -1.21758 0
M  V30 9783 O 922.48 1.17437 -1.50377 0
M  V30 9784 C 919.62 1.74167 -2.97926 0
M  V30 9785 C 918.733 1.21882 -4.1445 0
M  V30 9786 C 917.868 2.34881 -4.7645 0
M  V30 9787 C 916.907 1.79729 -5.85119 0
M  V30 9788 N 916.044 2.863 -6.41075 0
M  V30 9789 H 920.884 -0.0178257 -2.97995 0
M  V30 9790 H 918.421 -0.0205666 -1.47086 0
M  V30 9791 H 920.379 2.42753 -3.39303 0
M  V30 9792 H 919.009 2.30665 -2.25817 0
M  V30 9793 H 918.061 0.425227 -3.78016 0
M  V30 9794 H 919.373 0.775065 -4.92741 0
M  V30 9795 H 918.527 3.11415 -5.20678 0
M  V30 9796 H 917.266 2.82584 -3.97489 0
M  V30 9797 H 916.271 1.01684 -5.40315 0
M  V30 9798 H 917.496 1.32931 -6.65963 0
M  V30 9799 H 915.442 3.33337 -5.64998 0
M  V30 9800 H 915.359 2.46419 -7.14712 0
M  V30 9801 H 916.627 3.62732 -6.89961 0
M  V30 9802 N 920.856 1.57574 -0.0284266 0
M  V30 9803 C 921.789 2.05684 0.988401 0
M  V30 9804 C 922.767 0.952468 1.31783 0
M  V30 9805 O 923.951 1.22274 1.43462 0
M  V30 9806 C 921.078 2.47832 2.30862 0
M  V30 9807 C 920.124 3.69282 2.13384 0
M  V30 9808 S 920.957 5.15962 1.43331 0
M  V30 9809 C 922.113 5.61404 2.76723 0
M  V30 9810 H 922.346 2.9161 0.578873 0
M  V30 9811 H 919.879 1.53309 0.183244 0
M  V30 9812 H 921.837 2.7278 3.06759 0
M  V30 9813 H 920.498 1.62253 2.68947 0
M  V30 9814 H 919.691 3.96618 3.10983 0
M  V30 9815 H 919.293 3.44482 1.45629 0
M  V30 9816 H 921.585 5.65601 3.72963 0
M  V30 9817 H 922.528 6.60956 2.54053 0
M  V30 9818 H 922.936 4.89051 2.81939 0
M  V30 9819 N 922.334 -0.244713 1.55689 0
M  V30 9820 C 923.264 -1.30667 1.93516 0
M  V30 9821 C 924.245 -1.50094 0.800371 0
M  V30 9822 O 925.43 -1.62665 1.06083 0
M  V30 9823 C 922.56 -2.66101 2.23176 0
M  V30 9824 C 921.514 -2.61366 3.38927 0
M  V30 9825 C 920.84 -4.00616 3.54134 0
M  V30 9826 C 922.14 -2.18161 4.74555 0
M  V30 9827 H 923.834 -0.992546 2.82469 0
M  V30 9828 H 921.38 -0.476018 1.35905 0
M  V30 9829 H 923.333 -3.4053 2.48228 0
M  V30 9830 H 922.057 -2.99154 1.31051 0
M  V30 9831 H 920.716 -1.89395 3.13887 0
M  V30 9832 H 920.364 -4.30938 2.59426 0
M  V30 9833 H 920.064 -3.98335 4.31975 0
M  V30 9834 H 921.588 -4.76741 3.8151 0
M  V30 9835 H 923.002 -2.82323 4.98965 0
M  V30 9836 H 921.399 -2.26988 5.55515 0
M  V30 9837 H 922.469 -1.13333 4.7147 0
M  V30 9838 N 923.813 -1.49104 -0.510467 0
M  V30 9839 C 924.76 -1.65074 -1.61305 0
M  V30 9840 C 925.73 -0.492362 -1.58635 0
M  V30 9841 O 926.915 -0.718241 -1.76765 0
M  V30 9842 C 924.055 -1.71457 -2.99493 0
M  V30 9843 C 923.168 -2.98536 -3.12251 0
M  V30 9844 C 922.303 -2.95957 -4.41116 0
M  V30 9845 C 921.342 -4.17655 -4.47471 0
M  V30 9846 N 920.479 -4.13041 -5.67751 0
M  V30 9847 H 925.319 -2.59222 -1.46996 0
M  V30 9848 H 922.856 -1.28535 -0.715346 0
M  V30 9849 H 924.814 -1.7314 -3.79577 0
M  V30 9850 H 923.444 -0.807834 -3.12528 0
M  V30 9851 H 922.496 -3.06509 -2.25292 0
M  V30 9852 H 923.808 -3.88527 -3.12807 0
M  V30 9853 H 922.962 -2.96149 -5.2951 0
M  V30 9854 H 921.701 -2.03728 -4.4311 0
M  V30 9855 H 920.706 -4.17717 -3.57481 0
M  V30 9856 H 921.931 -5.11066 -4.472 0
M  V30 9857 H 919.877 -3.23643 -5.70606 0
M  V30 9858 H 919.794 -4.96757 -5.69884 0
M  V30 9859 H 921.062 -4.17322 -6.58379 0
M  V30 9860 N 925.291 0.760815 -1.38019 0
M  V30 9861 C 926.702 1.33773 -1.30237 0
M  V30 9862 C 927.053 1.96148 0.0451153 0
M  V30 9863 O 926.178 1.94574 0.9471 0
M  V30 9864 C 926.773 2.43227 -2.35851 0
M  V30 9865 C 925.332 2.96659 -2.31669 0
M  V30 9866 C 924.479 1.69972 -2.191 0
M  V30 9867 H 927.43 0.560237 -1.48482 0
M  V30 9868 H 927.451 3.22985 -2.01149 0
M  V30 9869 H 926.963 1.978 -3.33911 0
M  V30 9870 H 925.064 3.46433 -1.37167 0
M  V30 9871 H 925.177 3.51529 -3.25521 0
M  V30 9872 H 923.541 1.9332 -1.65829 0
M  V30 9873 H 924.324 1.26633 -3.19091 0
M  V30 9874 N 926.769 1.22769 0.988202 0
M  V30 9875 C 927.994 1.08239 1.76915 0
M  V30 9876 C 928.419 -0.362519 1.84574 0
M  V30 9877 O 927.777 -1.26202 1.30165 0
M  V30 9878 C 927.825 1.70363 3.17819 0
M  V30 9879 O 926.929 0.960484 4.01059 0
M  V30 9880 H 926.27 0.379872 0.544604 0
M  V30 9881 H 928.8 1.62663 1.24104 0
M  V30 9882 H 928.81 1.7528 3.6843 0
M  V30 9883 H 927.485 2.75505 3.1156 0
M  V30 9884 H 926.062 0.987667 3.59582 0
M  V30 9885 N 928.247 -1.18576 1.03814 0
M  V30 9886 C 929.21 -2.2033 0.63146 0
M  V30 9887 C 930.21 -1.57787 -0.309816 0
M  V30 9888 O 931.4 -1.73938 -0.0955598 0
M  V30 9889 C 928.532 -3.40818 -0.0745963 0
M  V30 9890 H 929.725 -2.57824 1.53189 0
M  V30 9891 H 927.278 -1.32416 0.830398 0
M  V30 9892 H 928.013 -3.08853 -0.988947 0
M  V30 9893 H 927.798 -3.87453 0.6019 0
M  V30 9894 H 929.288 -4.16166 -0.345727 0
M  V30 9895 N 929.725 -0.817259 -1.34754 0
M  V30 9896 C 930.675 -0.207585 -2.27053 0
M  V30 9897 C 931.659 0.624836 -1.48272 0
M  V30 9898 O 932.851 0.480344 -1.70358 0
M  V30 9899 C 929.98 0.634281 -3.3739 0
M  V30 9900 C 929.066 -0.208456 -4.23587 0
M  V30 9901 N 929.457 -1.2767 -4.89422 0
M  V30 9902 C 927.755 0.00815096 -4.45999 0
M  V30 9903 C 928.456 -1.79209 -5.53407 0
M  V30 9904 N 927.432 -1.09686 -5.32419 0
M  V30 9905 H 931.234 -1.0248 -2.75454 0
M  V30 9906 H 928.748 -0.659492 -1.48406 0
M  V30 9907 H 930.745 1.08718 -4.02475 0
M  V30 9908 H 929.405 1.44972 -2.90539 0
M  V30 9909 H 930.416 -1.65945 -4.90594 0
M  V30 9910 H 927.093 0.791879 -4.09921 0
M  V30 9911 H 928.483 -2.68548 -6.15899 0
M  V30 9912 N 931.203 1.46865 -0.571711 0
M  V30 9913 C 932.133 2.3298 0.155795 0
M  V30 9914 C 933.114 1.44678 0.894553 0
M  V30 9915 O 934.299 1.73513 0.872176 0
M  V30 9916 C 931.429 3.26745 1.17708 0
M  V30 9917 C 930.383 4.24401 0.553863 0
M  V30 9918 C 929.709 5.07595 1.68083 0
M  V30 9919 C 931.009 5.19884 -0.501827 0
M  V30 9920 H 932.703 2.94056 -0.563176 0
M  V30 9921 H 930.249 1.41402 -0.27228 0
M  V30 9922 H 932.202 3.85838 1.6943 0
M  V30 9923 H 930.926 2.63753 1.92618 0
M  V30 9924 H 929.585 3.66554 0.057815 0
M  V30 9925 H 929.233 4.40996 2.41933 0
M  V30 9926 H 928.933 5.73722 1.26953 0
M  V30 9927 H 930.457 5.6955 2.20103 0
M  V30 9928 H 931.871 5.73257 -0.0701057 0
M  V30 9929 H 930.268 5.94293 -0.832815 0
M  V30 9930 H 931.338 4.64482 -1.39229 0
M  V30 9931 N 932.681 0.308908 1.54543 0
M  V30 9932 C 933.909 -0.300418 2.04707 0
M  V30 9933 C 934.324 -1.46915 1.18581 0
M  V30 9934 O 933.681 -1.81251 0.213186 0
M  V30 9935 C 933.732 -0.749038 3.53655 0
M  V30 9936 O 933.453 0.373181 4.36508 0
M  V30 9937 C 934.954 -1.4227 4.1985 0
M  V30 9938 H 932.174 -0.0641267 0.667929 0
M  V30 9939 H 934.718 0.450839 1.99469 0
M  V30 9940 H 932.873 -1.4503 3.59228 0
M  V30 9941 H 933.287 0.0224752 5.24495 0
M  V30 9942 H 934.761 -1.68768 5.25568 0
M  V30 9943 H 935.238 -2.36531 3.70067 0
M  V30 9944 H 935.844 -0.764404 4.18374 0
M  V30 9945 N 934.159 -1.57557 0.0367827 0
M  V30 9946 C 935.069 -2.14148 -0.958017 0
M  V30 9947 C 936.085 -1.09564 -1.35173 0
M  V30 9948 O 937.261 -1.4166 -1.43158 0
M  V30 9949 C 934.326 -2.6636 -2.21931 0
M  V30 9950 C 933.387 -3.85688 -1.8853 0
M  V30 9951 C 932.62 -4.35401 -3.08645 0
M  V30 9952 O 932.843 -3.8425 -4.21554 0
M  V30 9953 O 931.777 -5.27158 -2.90497 0
M  V30 9954 H 935.603 -2.99442 -0.506797 0
M  V30 9955 H 933.188 -1.48259 -0.184275 0
M  V30 9956 H 935.07 -2.99976 -2.9596 0
M  V30 9957 H 933.745 -1.84145 -2.66219 0
M  V30 9958 H 932.652 -3.56985 -1.11861 0
M  V30 9959 H 933.985 -4.69089 -1.49052 0
M  V30 9960 N 935.637 0.236453 -1.55816 0
M  V30 9961 C 937.053 0.585465 -1.48474 0
M  V30 9962 C 937.253 1.8785 -0.72902 0
M  V30 9963 O 936.309 2.51131 -0.262614 0
M  V30 9964 C 937.622 0.678506 -2.92945 0
M  V30 9965 C 939.17 0.770135 -3.03378 0
M  V30 9966 C 939.645 0.894649 -4.49177 0
M  V30 9967 N 941.136 0.959253 -4.53158 0
M  V30 9968 C 941.871 1.07505 -5.63232 0
M  V30 9969 N 941.367 1.15572 -6.83092 0
M  V30 9970 N 943.16 1.10902 -5.51051 0
M  V30 9971 H 935.311 -0.612241 -2.03385 0
M  V30 9972 H 937.574 -0.212796 -0.923808 0
M  V30 9973 H 937.28 -0.201757 -3.51121 0
M  V30 9974 H 937.154 1.54703 -3.44016 0
M  V30 9975 H 939.541 1.64085 -2.45276 0
M  V30 9976 H 939.622 -0.123753 -2.555 0
M  V30 9977 H 939.266 0.0284537 -5.07892 0
M  V30 9978 H 939.196 1.80373 -4.94745 0
M  V30 9979 H 941.687 0.907827 -3.66834 0
M  V30 9980 H 942 1.24343 -7.62731 0
M  V30 9981 H 940.345 1.12511 -6.85833 0
M  V30 9982 H 943.536 1.04255 -4.56343 0
M  V30 9983 H 943.709 1.19581 -6.36871 0
M  V30 9984 N 937.115 1.49373 0.502552 0
M  V30 9985 C 938.025 1.68659 1.63068 0
M  V30 9986 C 939.041 0.569182 1.64427 0
M  V30 9987 O 940.217 0.843695 1.82876 0
M  V30 9988 C 937.282 1.74745 2.99441 0
M  V30 9989 C 936.343 2.98311 3.08721 0
M  V30 9990 C 935.576 3.04097 4.38589 0
M  V30 9991 O 935.799 2.17519 5.27297 0
M  V30 9992 O 934.733 3.96544 4.52809 0
M  V30 9993 H 938.559 2.64226 1.49727 0
M  V30 9994 H 936.144 1.33096 0.67867 0
M  V30 9995 H 938.026 1.8111 3.80496 0
M  V30 9996 H 936.701 0.823565 3.13048 0
M  V30 9997 H 935.608 2.97465 2.2686 0
M  V30 9998 H 936.941 3.90174 3.00041 0
M  V30 9999 N 938.594 -0.753485 1.38421 0
M  V30 10000 C 939.557 -1.84888 1.35459 0
M  V30 10001 C 940.557 -1.58764 0.255083 0
M  V30 10002 O 941.747 -1.66507 0.511978 0
M  V30 10003 C 938.879 -3.22361 1.10888 0
M  V30 10004 H 940.072 -1.88922 2.32913 0
M  V30 10005 H 937.625 -0.955199 1.23716 0
M  V30 10006 H 938.36 -3.23996 0.1404 0
M  V30 10007 H 938.145 -3.42717 1.90492 0
M  V30 10008 H 939.635 -4.02437 1.1151 0
M  V30 10009 N 940.072 -1.23292 -0.981677 0
M  V30 10010 C 941.002 -1.03738 -2.09191 0
M  V30 10011 C 941.983 0.0453041 -1.7004 0
M  V30 10012 O 943.168 -0.119092 -1.93834 0
M  V30 10013 C 940.298 -0.626426 -3.41604 0
M  V30 10014 C 939.252 -1.65631 -3.94652 0
M  V30 10015 C 938.578 -1.10084 -5.23245 0
M  V30 10016 C 939.878 -3.04903 -4.24066 0
M  V30 10017 H 941.572 -1.966 -2.25807 0
M  V30 10018 H 939.118 -0.946656 -1.0851 0
M  V30 10019 H 941.071 -0.476689 -4.18695 0
M  V30 10020 H 939.795 0.337873 -3.24848 0
M  V30 10021 H 938.454 -1.79402 -3.19704 0
M  V30 10022 H 938.102 -0.127562 -5.02838 0
M  V30 10023 H 937.802 -1.78896 -5.59705 0
M  V30 10024 H 939.326 -0.962928 -6.02959 0
M  V30 10025 H 940.74 -2.94441 -4.91912 0
M  V30 10026 H 939.137 -3.70941 -4.71724 0
M  V30 10027 H 940.207 -3.53991 -3.31389 0
M  V30 10028 N 941.55 1.18024 -1.04442 0
M  V30 10029 C 942.483 2.20623 -0.583171 0
M  V30 10030 C 943.461 1.57994 0.384262 0
M  V30 10031 O 944.645 1.86135 0.297673 0
M  V30 10032 C 941.772 3.38378 0.147561 0
M  V30 10033 C 940.818 4.19423 -0.773711 0
M  V30 10034 S 941.651 4.85534 -2.25869 0
M  V30 10035 C 942.807 6.06686 -1.53891 0
M  V30 10036 H 943.04 2.59406 -1.45244 0
M  V30 10037 H 940.573 1.28518 -0.855708 0
M  V30 10038 H 942.531 4.06621 0.562988 0
M  V30 10039 H 941.192 2.97998 0.992765 0
M  V30 10040 H 940.385 5.03568 -0.208694 0
M  V30 10041 H 939.987 3.56579 -1.12816 0
M  V30 10042 H 942.279 6.72347 -0.834045 0
M  V30 10043 H 943.222 6.67702 -2.35755 0
M  V30 10044 H 943.63 5.55031 -1.02961 0
M  V30 10045 N 943.028 0.824394 1.34319 0
M  V30 10046 C 944.253 0.425194 2.02995 0
M  V30 10047 C 944.678 -0.961476 1.6167 0
M  V30 10048 O 944.036 -1.62593 0.80207 0
M  V30 10049 C 944.084 0.537004 3.56579 0
M  V30 10050 O 943.188 -0.442576 4.10018 0
M  V30 10051 H 942.529 0.174853 0.640564 0
M  V30 10052 H 945.059 1.11522 1.71534 0
M  V30 10053 H 945.069 0.413311 4.05901 0
M  V30 10054 H 943.744 1.54836 3.86004 0
M  V30 10055 H 942.321 -0.277644 3.71865 0
M  V30 10056 N 944.506 -1.46559 0.579492 0
M  V30 10057 C 945.416 -2.34066 -0.15816 0
M  V30 10058 C 946.432 -1.49556 -0.88932 0
M  V30 10059 O 947.608 -1.82434 -0.853226 0
M  V30 10060 C 944.673 -3.26683 -1.161 0
M  V30 10061 C 943.734 -4.27092 -0.434855 0
M  V30 10062 C 942.967 -5.15283 -1.38992 0
M  V30 10063 O 943.19 -5.06345 -2.62623 0
M  V30 10064 O 942.124 -5.95099 -0.902253 0
M  V30 10065 H 945.95 -2.98488 0.560234 0
M  V30 10066 H 943.535 -1.45482 0.339918 0
M  V30 10067 H 945.417 -3.8383 -1.73932 0
M  V30 10068 H 944.092 -2.64862 -1.86091 0
M  V30 10069 H 942.999 -3.73641 0.185224 0
M  V30 10070 H 944.332 -4.9169 0.224031 0
M  V30 10071 N 945.984 -0.3171 -1.54377 0
M  V30 10072 C 946.914 0.544623 -2.2706 0
M  V30 10073 C 947.895 1.12469 -1.27611 0
M  V30 10074 O 949.08 1.15103 -1.56413 0
M  V30 10075 C 946.21 1.70879 -3.02353 0
M  V30 10076 C 945.164 1.25833 -4.09084 0
M  V30 10077 C 944.49 2.50894 -4.72182 0
M  V30 10078 C 945.79 0.377876 -5.20931 0
M  V30 10079 H 947.484 -0.0616372 -2.99337 0
M  V30 10080 H 945.03 -0.0310848 -1.43966 0
M  V30 10081 H 946.983 2.31787 -3.51927 0
M  V30 10082 H 945.707 2.34155 -2.27682 0
M  V30 10083 H 944.366 0.672228 -3.60384 0
M  V30 10084 H 944.014 3.12518 -3.94134 0
M  V30 10085 H 943.714 2.21447 -5.44275 0
M  V30 10086 H 945.238 3.12575 -5.24528 0
M  V30 10087 H 946.652 0.893056 -5.66302 0
M  V30 10088 H 945.049 0.176474 -5.9984 0
M  V30 10089 H 946.119 -0.592943 -4.81261 0
M  V30 10090 N 947.462 1.57535 -0.0451378 0
M  V30 10091 C 948.409 2.11176 0.931313 0
M  V30 10092 C 949.379 1.01765 1.31275 0
M  V30 10093 O 950.564 1.29279 1.40327 0
M  V30 10094 C 947.704 2.65639 2.20295 0
M  V30 10095 C 946.817 3.89114 1.87654 0
M  V30 10096 C 945.952 4.31914 3.09232 0
M  V30 10097 C 944.991 5.48105 2.72484 0
M  V30 10098 N 944.128 5.85986 3.86736 0
M  V30 10099 H 948.968 2.94318 0.466986 0
M  V30 10100 H 946.505 1.45462 0.218886 0
M  V30 10101 H 948.463 2.95312 2.94697 0
M  V30 10102 H 947.093 1.85303 2.64316 0
M  V30 10103 H 946.145 3.6607 1.03427 0
M  V30 10104 H 947.457 4.7358 1.56601 0
M  V30 10105 H 946.611 4.63108 3.91939 0
M  V30 10106 H 945.35 3.46247 3.43459 0
M  V30 10107 H 944.355 5.16589 1.88192 0
M  V30 10108 H 945.58 6.35482 2.39455 0
M  V30 10109 H 943.526 5.03273 4.20775 0
M  V30 10110 H 943.443 6.65129 3.5936 0
M  V30 10111 H 944.711 6.21793 4.701 0
M  V30 10112 N 948.94 -0.228186 1.55939 0
M  V30 10113 C 950.186 -0.954964 1.78909 0
M  V30 10114 C 950.519 -1.8425 0.613648 0
M  V30 10115 O 949.794 -1.90604 -0.38737 0
M  V30 10116 C 950.077 -1.79957 3.1191 0
M  V30 10117 C 949.93 -0.938968 4.3989 0
M  V30 10118 C 951.249 -2.77859 3.41295 0
M  V30 10119 H 948.368 -0.345745 0.650868 0
M  V30 10120 H 951.01 -0.224244 1.88672 0
M  V30 10121 H 949.16 -2.42256 3.03717 0
M  V30 10122 H 950.832 -0.333225 4.60095 0
M  V30 10123 H 949.075 -0.244096 4.33113 0
M  V30 10124 H 949.746 -1.56416 5.29375 0
M  V30 10125 H 952.222 -2.25695 3.49572 0
M  V30 10126 H 951.098 -3.34062 4.35538 0
M  V30 10127 H 951.359 -3.55266 2.63132 0
M  V30 10128 N 950.418 -1.49637 -0.494624 0
M  V30 10129 C 951.348 -1.69692 -1.60396 0
M  V30 10130 C 952.329 -0.545648 -1.61111 0
M  V30 10131 O 953.514 -0.782202 -1.77751 0
M  V30 10132 C 950.644 -1.76934 -2.9885 0
M  V30 10133 C 949.598 -2.91915 -3.13001 0
M  V30 10134 C 948.924 -2.84276 -4.5287 0
M  V30 10135 C 950.224 -4.32764 -2.92426 0
M  V30 10136 H 951.918 -2.6257 -1.43866 0
M  V30 10137 H 949.464 -1.26355 -0.690679 0
M  V30 10138 H 951.417 -1.8955 -3.76362 0
M  V30 10139 H 950.141 -0.806609 -3.16483 0
M  V30 10140 H 948.8 -2.78911 -2.37916 0
M  V30 10141 H 948.448 -1.85897 -4.67388 0
M  V30 10142 H 948.148 -3.61452 -4.63278 0
M  V30 10143 H 949.672 -2.98909 -5.32434 0
M  V30 10144 H 951.086 -4.46415 -3.59703 0
M  V30 10145 H 949.483 -5.1121 -3.143 0
M  V30 10146 H 950.553 -4.46765 -1.88491 0
M  V30 10147 N 951.896 0.746133 -1.38819 0
M  V30 10148 C 953.121 1.54049 -1.38866 0
M  V30 10149 C 953.546 1.88092 0.0176624 0
M  V30 10150 O 952.904 1.51113 1.00173 0
M  V30 10151 C 952.952 2.8116 -2.25791 0
M  V30 10152 O 952.056 3.76623 -1.68014 0
M  V30 10153 H 951.397 0.465648 -0.473359 0
M  V30 10154 H 953.927 0.921469 -1.82675 0
M  V30 10155 H 953.937 3.30009 -2.39913 0
M  V30 10156 H 952.612 2.55713 -3.27999 0
M  V30 10157 H 951.189 3.35352 -1.63074 0
M  V30 10158 N 953.375 1.23811 0.975125 0
M  V30 10159 C 954.605 1.0986 1.7497 0
M  V30 10160 C 955.013 -0.352366 1.8589 0
M  V30 10161 O 954.356 -1.2553 1.34119 0
M  V30 10162 C 954.418 1.65584 3.19096 0
M  V30 10163 C 954.082 3.14395 3.3167 0
M  V30 10164 C 955.079 4.1163 3.17579 0
M  V30 10165 C 952.764 3.54208 3.56149 0
M  V30 10166 C 954.758 5.46661 3.27781 0
M  V30 10167 C 952.445 4.89382 3.65989 0
M  V30 10168 C 953.443 5.85418 3.51817 0
M  V30 10169 O 953.131 7.18135 3.61299 0
M  V30 10170 H 952.863 0.384854 0.555755 0
M  V30 10171 H 955.417 1.64242 1.23343 0
M  V30 10172 H 953.647 1.05627 3.71994 0
M  V30 10173 H 955.336 1.47032 3.78334 0
M  V30 10174 H 956.102 3.82214 2.98559 0
M  V30 10175 H 951.981 2.79968 3.66249 0
M  V30 10176 H 955.525 6.21601 3.16636 0
M  V30 10177 H 951.422 5.18473 3.84521 0
M  V30 10178 H 952.19 7.25956 3.78061 0
M  V30 10179 N 954.853 -1.17469 1.05066 0
M  V30 10180 C 955.783 -2.23635 0.671552 0
M  V30 10181 C 956.764 -1.66867 -0.33006 0
M  V30 10182 O 957.949 -1.93084 -0.207933 0
M  V30 10183 C 955.079 -3.47272 0.0441845 0
M  V30 10184 C 954.033 -4.16854 0.97042 0
M  V30 10185 C 953.359 -5.34299 0.206998 0
M  V30 10186 C 954.659 -4.69225 2.29401 0
M  V30 10187 H 956.353 -2.55602 1.55911 0
M  V30 10188 H 953.899 -1.2286 0.751101 0
M  V30 10189 H 955.852 -4.20756 -0.23282 0
M  V30 10190 H 954.576 -3.14568 -0.878311 0
M  V30 10191 H 953.235 -3.4528 1.23197 0
M  V30 10192 H 952.883 -4.97846 -0.718222 0
M  V30 10193 H 952.583 -5.81792 0.82416 0
M  V30 10194 H 954.107 -6.10568 -0.0627525 0
M  V30 10195 H 955.521 -5.34353 2.077 0
M  V30 10196 H 953.918 -5.27291 2.86503 0
M  V30 10197 H 954.988 -3.86102 2.93348 0
M  V30 10198 N 956.331 -0.831506 -1.3388 0
M  V30 10199 C 957.579 -0.422837 -1.97627 0
M  V30 10200 C 957.9 1.01961 -1.6622 0
M  V30 10201 O 957.17 1.70916 -0.957323 0
M  V30 10202 H 955.75 -0.153365 -0.731087 0
M  V30 10203 H 958.412 -1.06284 -1.6337 0
M  V30 10204 H 957.508 -0.548858 -3.07236 0
M  V30 10205 N 957.809 1.4625 -0.587256 0
M  V30 10206 C 958.757 2.32076 0.156108 0
M  V30 10207 C 959.751 1.44756 0.879887 0
M  V30 10208 O 960.957 1.61356 0.797759 0
M  V30 10209 H 957.332 0.748808 0.0692098 0
M  V30 10210 H 959.303 2.9258 -0.586497 0
M  V30 10211 C 958.052 3.28008 1.15352 0
M  V30 10212 H 957.375 3.9518 0.60601 0
M  V30 10213 H 958.815 3.90832 1.64396 0
M  V30 10214 C 957.274 2.53691 2.21681 0
M  V30 10215 O 957.804 2.30329 3.29107 0
M  V30 10216 N 956.01 2.14174 1.96412 0
M  V30 10217 H 955.557 2.33374 1.09061 0
M  V30 10218 H 955.515 1.6477 2.67765 0
M  V30 10219 N 959.287 0.325282 1.54207 0
M  V30 10220 C 960.237 -0.55548 2.2113 0
M  V30 10221 C 961.221 -1.0803 1.19241 0
M  V30 10222 O 962.413 -1.01703 1.44864 0
M  V30 10223 C 959.542 -1.71504 2.97391 0
M  V30 10224 C 958.628 -1.20503 4.0662 0
M  V30 10225 N 959.019 -0.414838 5.04096 0
M  V30 10226 C 957.317 -1.4836 4.20601 0
M  V30 10227 C 958.018 -0.140225 5.81531 0
M  V30 10228 N 956.994 -0.72683 5.38719 0
M  V30 10229 H 960.796 0.0555192 2.93848 0
M  V30 10230 H 958.31 0.131225 1.61869 0
M  V30 10231 H 960.307 -2.35781 3.43821 0
M  V30 10232 H 958.967 -2.3295 2.26195 0
M  V30 10233 H 959.978 -0.0575291 5.17868 0
M  V30 10234 H 956.655 -2.10378 3.60621 0
M  V30 10235 H 958.045 0.496026 6.70067 0
M  V30 10236 N 960.765 -1.57509 0.0534917 0
M  V30 10237 C 961.698 -2.0723 -0.955554 0
M  V30 10238 C 962.676 -0.973313 -1.30251 0
M  V30 10239 O 963.86 -1.24541 -1.41498 0
M  V30 10240 C 960.987 -2.51473 -2.2689 0
M  V30 10241 C 960.033 -3.7263 -2.07482 0
M  V30 10242 S 960.866 -5.18177 -1.35104 0
M  V30 10243 C 962.022 -5.65736 -2.67757 0
M  V30 10244 H 962.255 -2.92494 -0.532407 0
M  V30 10245 H 959.788 -1.53581 -0.158831 0
M  V30 10246 H 961.746 -2.77626 -3.02381 0
M  V30 10247 H 960.407 -1.66511 -2.66332 0
M  V30 10248 H 959.6 -4.01515 -3.04633 0
M  V30 10249 H 959.202 -3.46756 -1.4013 0
M  V30 10250 H 961.494 -5.71463 -3.63918 0
M  V30 10251 H 962.437 -6.64914 -2.43506 0
M  V30 10252 H 962.845 -4.93475 -2.74123 0
M  V30 10253 N 962.243 0.219913 -1.56058 0
M  V30 10254 C 963.191 1.29215 -1.93407 0
M  V30 10255 C 964.185 1.48434 -0.816307 0
M  V30 10256 O 965.391 1.49589 -1.00115 0
M  V30 10257 H 961.766 0.433256 -0.614649 0
M  V30 10258 H 963.737 0.949977 -2.82875 0
M  V30 10259 C 962.486 2.63501 -2.26854 0
M  V30 10260 H 961.809 2.4952 -3.12377 0
M  V30 10261 H 963.249 3.37334 -2.56869 0
M  V30 10262 C 961.708 3.18634 -1.09425 0
M  V30 10263 O 962.238 4.00117 -0.356243 0
M  V30 10264 N 960.444 2.7703 -0.877642 0
M  V30 10265 H 959.991 2.10875 -1.47951 0
M  V30 10266 H 959.949 3.1426 -0.0936792 0
M  V30 10267 N 963.721 1.49897 0.486681 0
M  V30 10268 C 964.97 1.59349 1.23656 0
M  V30 10269 C 965.283 0.292024 1.93408 0
M  V30 10270 O 966.489 0.265258 2.70201 0
M  V30 10271 C 964.945 2.81215 2.24602 0
M  V30 10272 C 964.553 4.18177 1.60725 0
M  V30 10273 C 966.297 3.00004 3.00329 0
M  V30 10274 C 964.204 5.31247 2.59866 0
M  V30 10275 H 963.134 0.593363 0.465227 0
M  V30 10276 H 965.785 1.76306 0.508769 0
M  V30 10277 H 964.167 2.57783 3.00606 0
M  V30 10278 H 965.341 4.51802 0.90616 0
M  V30 10279 H 963.656 4.04864 0.973362 0
M  V30 10280 H 966.253 3.81649 3.74497 0
M  V30 10281 H 966.596 2.1112 3.58795 0
M  V30 10282 H 967.129 3.23544 2.3144 0
M  V30 10283 H 963.868 6.22236 2.06161 0
M  V30 10284 H 963.388 5.02059 3.28172 0
M  V30 10285 H 965.067 5.61177 3.22009 0
M  V30 10286 N 965.199 -0.738761 1.39212 0
M  V30 10287 C 966.445 -1.50046 1.36433 0
M  V30 10288 C 966.778 -1.94157 -0.0409474 0
M  V30 10289 O 966.053 -1.66515 -1.00514 0
M  V30 10290 C 966.336 -2.74277 2.33333 0
M  V30 10291 C 966.189 -2.36209 3.82786 0
M  V30 10292 C 967.508 -3.76361 2.28123 0
M  V30 10293 H 964.627 -0.544294 0.496903 0
M  V30 10294 H 967.269 -0.845005 1.70175 0
M  V30 10295 H 965.419 -3.30204 2.04689 0
M  V30 10296 H 967.091 -1.85942 4.22165 0
M  V30 10297 H 965.334 -1.68483 3.99745 0
M  V30 10298 H 966.005 -3.25156 4.46069 0
M  V30 10299 H 968.481 -3.30009 2.53443 0
M  V30 10300 H 967.357 -4.60957 2.9801 0
M  V30 10301 H 967.618 -4.23013 1.28499 0
M  V30 10302 N 966.677 -1.24326 -0.968545 0
M  V30 10303 C 967.625 -1.03256 -2.08425 0
M  V30 10304 C 968.619 0.0322356 -1.69369 0
M  V30 10305 O 969.825 -0.122251 -1.79584 0
M  V30 10306 H 966.2 -0.31688 -0.681976 0
M  V30 10307 H 968.171 -1.97873 -2.23358 0
M  V30 10308 C 966.92 -0.653144 -3.4151 0
M  V30 10309 H 966.243 -1.46424 -3.72021 0
M  V30 10310 H 967.683 -0.545316 -4.20479 0
M  V30 10311 C 966.142 0.639674 -3.30771 0
M  V30 10312 O 966.672 1.68563 -3.64622 0
M  V30 10313 N 964.878 0.620074 -2.83907 0
M  V30 10314 H 964.425 -0.231449 -2.56558 0
M  V30 10315 H 964.383 1.48528 -2.77104 0
M  V30 10316 N 968.156 1.1691 -1.05688 0
M  V30 10317 C 969.086 2.23275 -0.683402 0
M  V30 10318 C 970.067 1.6704 0.321206 0
M  V30 10319 O 971.252 1.93191 0.197691 0
M  V30 10320 C 968.382 3.47244 -0.0626006 0
M  V30 10321 C 967.336 4.16333 -0.992513 0
M  V30 10322 C 966.662 5.34182 -0.23533 0
M  V30 10323 C 967.962 4.68002 -2.31886 0
M  V30 10324 H 969.656 2.54771 -1.57264 0
M  V30 10325 H 967.202 1.2246 -0.757606 0
M  V30 10326 H 969.155 4.20874 0.210503 0
M  V30 10327 H 967.879 3.1503 0.861616 0
M  V30 10328 H 966.538 3.44622 -1.25026 0
M  V30 10329 H 966.186 4.9822 0.69181 0
M  V30 10330 H 965.886 5.81346 -0.855002 0
M  V30 10331 H 967.41 6.10592 0.0303717 0
M  V30 10332 H 968.824 5.33244 -2.10531 0
M  V30 10333 H 967.221 5.25764 -2.89296 0
M  V30 10334 H 968.291 3.84541 -2.95391 0
M  V30 10335 N 969.634 0.838594 1.33437 0
M  V30 10336 C 970.564 0.286672 2.31734 0
M  V30 10337 C 971.545 -0.605451 1.5896 0
M  V30 10338 O 972.73 -0.529059 1.86854 0
M  V30 10339 C 969.86 -0.539311 3.43087 0
M  V30 10340 C 968.814 0.256997 4.27228 0
M  V30 10341 C 968.14 -0.692718 5.30194 0
M  V30 10342 C 969.44 1.47391 5.01072 0
M  V30 10343 H 971.134 1.10798 2.78144 0
M  V30 10344 H 968.68 0.534235 1.33723 0
M  V30 10345 H 970.633 -0.935724 4.1088 0
M  V30 10346 H 969.357 -1.39383 2.95364 0
M  V30 10347 H 968.016 0.634967 3.61059 0
M  V30 10348 H 967.664 -1.54363 4.78729 0
M  V30 10349 H 967.364 -0.164023 5.87371 0
M  V30 10350 H 968.888 -1.08665 6.00853 0
M  V30 10351 H 970.302 1.15067 5.61634 0
M  V30 10352 H 968.699 1.93937 5.67898 0
M  V30 10353 H 969.769 2.24382 4.29861 0
M  V30 10354 N 971.112 -1.45937 0.595003 0
M  V30 10355 C 972.36 -2.01921 0.0851368 0
M  V30 10356 C 972.681 -1.46748 -1.28413 0
M  V30 10357 O 971.951 -0.656873 -1.84559 0
M  V30 10358 H 970.531 -0.746457 0.0284826 0
M  V30 10359 H 973.193 -1.78891 0.773561 0
M  V30 10360 H 972.289 -3.1209 0.0254002 0
M  V30 10361 N 972.59 -0.333456 -1.54032 0
M  V30 10362 C 973.553 0.515392 -2.2333 0
M  V30 10363 C 974.553 1.03566 -1.23007 0
M  V30 10364 O 975.743 0.926514 -1.47517 0
M  V30 10365 C 972.875 1.7169 -2.94508 0
M  V30 10366 H 974.068 -0.0905407 -2.99763 0
M  V30 10367 H 971.621 -0.0846651 -1.56071 0
M  V30 10368 H 972.356 2.3618 -2.22237 0
M  V30 10369 H 972.141 1.35115 -3.68085 0
M  V30 10370 H 973.631 2.31922 -3.47278 0
M  V30 10371 N 974.068 1.57479 -0.061844 0
M  V30 10372 C 975.308 1.94982 0.613309 0
M  V30 10373 C 975.672 0.940729 1.67375 0
M  V30 10374 O 976.873 1.20307 2.40374 0
M  V30 10375 C 975.144 3.37208 1.18429 0
M  V30 10376 S 976.703 3.96678 1.87596 0
M  V30 10377 H 973.521 0.681969 0.201096 0
M  V30 10378 H 976.123 1.95045 -0.133328 0
M  V30 10379 H 974.827 4.08441 0.400522 0
M  V30 10380 H 974.358 3.40665 1.96751 0
M  V30 10381 H 976.373 3.82772 3.15754 0
M  V30 10382 N 975.546 -0.211634 1.56173 0
M  V30 10383 C 976.774 -0.951184 1.83739 0
M  V30 10384 C 977.189 -1.7754 0.642252 0
M  V30 10385 O 976.546 -1.78302 -0.389174 0
M  V30 10386 C 976.597 -1.86075 3.09933 0
M  V30 10387 O 976.318 -1.06983 4.24837 0
M  V30 10388 C 977.819 -2.71337 3.50559 0
M  V30 10389 H 975.039 -0.278312 0.61056 0
M  V30 10390 H 977.583 -0.223871 2.03271 0
M  V30 10391 H 975.738 -2.54189 2.92347 0
M  V30 10392 H 976.152 -1.68815 4.9659 0
M  V30 10393 H 977.626 -3.30843 4.41868 0
M  V30 10394 H 978.103 -3.44226 2.72773 0
M  V30 10395 H 978.709 -2.0862 3.70618 0
M  V30 10396 N 977.024 -1.50153 -0.478725 0
M  V30 10397 C 978.273 -1.60002 -1.22809 0
M  V30 10398 C 978.586 -0.302277 -1.9325 0
M  V30 10399 O 979.792 -0.279583 -2.70057 0
M  V30 10400 C 978.248 -2.82402 -2.23108 0
M  V30 10401 C 977.856 -4.19023 -1.58505 0
M  V30 10402 C 979.6 -3.01593 -2.98734 0
M  V30 10403 C 977.507 -5.32618 -2.57045 0
M  V30 10404 H 976.437 -0.595822 -0.462073 0
M  V30 10405 H 979.088 -1.76573 -0.499412 0
M  V30 10406 H 977.47 -2.59373 -2.99235 0
M  V30 10407 H 978.644 -4.52277 -0.882187 0
M  V30 10408 H 976.959 -4.05374 -0.951877 0
M  V30 10409 H 979.556 -3.8363 -3.72468 0
M  V30 10410 H 979.899 -2.1302 -3.57671 0
M  V30 10411 H 980.432 -3.24766 -2.29721 0
M  V30 10412 H 977.171 -6.23321 -2.02858 0
M  V30 10413 H 976.691 -5.03792 -3.25505 0
M  V30 10414 H 978.37 -5.62877 -3.19028 0
M  V30 10415 N 978.502 0.731368 -1.39602 0
M  V30 10416 C 979.75 1.48805 -1.36753 0
M  V30 10417 C 980.071 1.94969 0.034676 0
M  V30 10418 O 979.341 1.69243 0.986591 0
M  V30 10419 H 977.921 0.55203 -0.503261 0
M  V30 10420 H 980.583 0.868013 -1.74504 0
M  V30 10421 H 979.679 2.36844 -2.03252 0
M  V30 10422 N 979.98 1.24838 0.961938 0
M  V30 10423 C 981.228 1.08936 1.70227 0
M  V30 10424 C 981.549 -0.371582 1.91427 0
M  V30 10425 O 980.819 -1.26461 1.49614 0
M  V30 10426 H 979.399 0.400128 0.630799 0
M  V30 10427 H 982.061 1.56848 1.15692 0
M  V30 10428 H 981.157 1.59195 2.68446 0
M  V30 10429 N 981.458 -1.16348 1.06306 0
M  V30 10430 C 982.869 -1.68491 0.80422 0
M  V30 10431 C 983.22 -1.84327 -0.672159 0
M  V30 10432 O 982.345 -1.53892 -1.52139 0
M  V30 10433 C 982.94 -3.06048 1.45328 0
M  V30 10434 C 981.499 -3.55311 1.24221 0
M  V30 10435 C 980.646 -2.31291 1.5297 0
M  V30 10436 H 983.597 -1.00708 1.22652 0
M  V30 10437 H 983.618 -3.70451 0.868674 0
M  V30 10438 H 983.13 -2.9449 2.52779 0
M  V30 10439 H 981.231 -3.72128 0.187447 0
M  V30 10440 H 981.344 -4.37397 1.95502 0
M  V30 10441 H 979.708 -2.3631 0.950241 0
M  V30 10442 H 980.491 -2.22331 2.6158 0
M  V30 10443 N 982.937 -0.845659 -1.3299 0
M  V30 10444 C 984.165 -0.45835 -2.01759 0
M  V30 10445 C 984.58 0.94239 -1.63598 0
M  V30 10446 O 983.937 1.61353 -0.852738 0
M  V30 10447 C 983.988 -0.577311 -3.5686 0
M  V30 10448 O 983.709 -1.92287 -3.93646 0
M  V30 10449 C 985.21 -0.187839 -4.42902 0
M  V30 10450 H 982.43 -0.181165 -0.646081 0
M  V30 10451 H 984.974 -1.14011 -1.6977 0
M  V30 10452 H 983.129 0.0566146 -3.87359 0
M  V30 10453 H 983.543 -1.91322 -4.88361 0
M  V30 10454 H 985.017 -0.322105 -5.51059 0
M  V30 10455 H 985.494 0.870896 -4.30479 0
M  V30 10456 H 986.1 -0.796473 -4.17776 0
M  V30 10457 N 984.415 1.45619 -0.602734 0
M  V30 10458 C 985.345 2.33258 0.106342 0
M  V30 10459 C 986.326 1.46543 0.863664 0
M  V30 10460 O 987.511 1.75324 0.835175 0
M  V30 10461 C 984.641 3.29168 1.10751 0
M  V30 10462 C 983.595 4.25481 0.463717 0
M  V30 10463 C 982.921 5.11046 1.57278 0
M  V30 10464 C 984.221 5.18702 -0.61199 0
M  V30 10465 H 985.915 2.92795 -0.625423 0
M  V30 10466 H 983.461 1.40793 -0.302213 0
M  V30 10467 H 985.414 3.89346 1.61208 0
M  V30 10468 H 984.138 2.6778 1.8698 0
M  V30 10469 H 982.797 3.66595 -0.0199496 0
M  V30 10470 H 982.445 4.46029 2.32524 0
M  V30 10471 H 982.145 5.76286 1.14755 0
M  V30 10472 H 983.669 5.74091 2.07972 0
M  V30 10473 H 985.083 5.72979 -0.191686 0
M  V30 10474 H 983.48 5.92393 -0.958686 0
M  V30 10475 H 984.55 4.61424 -1.4905 0
M  V30 10476 N 985.893 0.34162 1.53853 0
M  V30 10477 C 987.139 -0.255862 2.01179 0
M  V30 10478 C 987.472 -1.50356 1.22909 0
M  V30 10479 O 986.747 -1.91913 0.316198 0
M  V30 10480 C 987.03 -0.571934 3.55529 0
M  V30 10481 C 986.883 0.687727 4.44511 0
M  V30 10482 C 988.202 -1.38233 4.17827 0
M  V30 10483 H 985.321 -0.091521 0.731295 0
M  V30 10484 H 987.963 0.461775 1.84303 0
M  V30 10485 H 986.113 -1.18331 3.70041 0
M  V30 10486 H 987.785 1.32572 4.4184 0
M  V30 10487 H 986.028 1.313 4.13452 0
M  V30 10488 H 986.699 0.421858 5.50386 0
M  V30 10489 H 989.175 -0.865374 4.07002 0
M  V30 10490 H 988.051 -1.57223 5.25901 0
M  V30 10491 H 988.312 -2.38386 3.72323 0
M  V30 10492 N 987.371 -1.57444 0.0701946 0
M  V30 10493 C 988.62 -1.92605 -0.598849 0
M  V30 10494 C 988.933 -0.952058 -1.70866 0
M  V30 10495 O 990.139 -1.19643 -2.43716 0
M  V30 10496 C 988.595 -3.42142 -1.11655 0
M  V30 10497 C 988.203 -4.47984 -0.0378355 0
M  V30 10498 C 989.947 -3.86307 -1.75975 0
M  V30 10499 C 987.854 -5.88652 -0.569495 0
M  V30 10500 H 986.784 -0.718873 -0.22746 0
M  V30 10501 H 989.435 -1.82948 0.14217 0
M  V30 10502 H 987.817 -3.46866 -1.91049 0
M  V30 10503 H 988.991 -4.54874 0.736661 0
M  V30 10504 H 987.306 -4.13277 0.50904 0
M  V30 10505 H 989.903 -4.88784 -2.16782 0
M  V30 10506 H 990.246 -3.23587 -2.61911 0
M  V30 10507 H 990.779 -3.84179 -1.03206 0
M  V30 10508 H 987.518 -6.55013 0.252662 0
M  V30 10509 H 987.038 -5.85285 -1.31155 0
M  V30 10510 H 988.717 -6.38482 -1.04641 0
M  V30 10511 N 988.849 0.203349 -1.56283 0
M  V30 10512 C 990.077 0.941426 -1.84241 0
M  V30 10513 C 990.492 1.77197 -0.651658 0
M  V30 10514 O 989.849 1.78506 0.379713 0
M  V30 10515 C 989.9 1.84429 -3.10915 0
M  V30 10516 O 989.621 1.04729 -4.25398 0
M  V30 10517 C 991.122 2.69474 -3.51993 0
M  V30 10518 H 988.342 0.27507 -0.612027 0
M  V30 10519 H 990.886 0.213088 -2.03387 0
M  V30 10520 H 989.041 2.52635 -2.93691 0
M  V30 10521 H 989.455 1.66179 -4.97478 0
M  V30 10522 H 990.929 3.28495 -4.43616 0
M  V30 10523 H 991.406 3.42775 -2.74594 0
M  V30 10524 H 992.012 2.06652 -3.71719 0
M  V30 10525 N 990.327 1.50405 0.470755 0
M  V30 10526 C 991.237 1.7208 1.59454 0
M  V30 10527 C 992.253 0.603932 1.63183 0
M  V30 10528 O 993.429 0.882296 1.81046 0
M  V30 10529 C 990.494 1.81057 2.95667 0
M  V30 10530 C 989.555 3.04792 3.02324 0
M  V30 10531 C 988.788 3.13332 4.3204 0
M  V30 10532 O 989.011 2.28655 5.22564 0
M  V30 10533 O 987.945 4.0606 4.44296 0
M  V30 10534 H 991.771 2.67343 1.44089 0
M  V30 10535 H 989.356 1.34505 0.650286 0
M  V30 10536 H 991.238 1.8914 3.76569 0
M  V30 10537 H 989.913 0.889782 3.11231 0
M  V30 10538 H 988.82 3.0221 2.205 0
M  V30 10539 H 990.153 3.96451 2.91698 0
M  V30 10540 N 991.805 -0.723954 1.39988 0
M  V30 10541 C 993.035 -1.51094 1.40905 0
M  V30 10542 C 993.443 -1.89199 0.00476744 0
M  V30 10543 O 992.786 -1.55398 -0.979646 0
M  V30 10544 C 992.848 -2.82114 2.22827 0
M  V30 10545 C 992.512 -2.66379 3.71337 0
M  V30 10546 C 993.509 -2.34192 4.64166 0
M  V30 10547 C 991.194 -2.82905 4.15054 0
M  V30 10548 C 993.188 -2.18729 5.98696 0
M  V30 10549 C 990.875 -2.67059 5.49657 0
M  V30 10550 C 991.873 -2.35018 6.41292 0
M  V30 10551 O 991.561 -2.19284 7.73414 0
M  V30 10552 H 991.293 -0.473142 0.482818 0
M  V30 10553 H 993.847 -0.901321 1.84568 0
M  V30 10554 H 992.077 -3.45377 1.7393 0
M  V30 10555 H 993.766 -3.43789 2.15787 0
M  V30 10556 H 994.532 -2.21065 4.31689 0
M  V30 10557 H 990.411 -3.06834 3.44055 0
M  V30 10558 H 993.955 -1.93641 6.70186 0
M  V30 10559 H 989.852 -2.79768 5.81722 0
M  V30 10560 H 990.62 -2.34269 7.84258 0
M  V30 10561 N 993.283 -1.25346 -0.955304 0
M  V30 10562 C 994.523 -1.11259 -1.71467 0
M  V30 10563 C 994.887 0.340759 -1.88952 0
M  V30 10564 O 996.088 0.60344 -2.61939 0
M  V30 10565 C 994.359 -1.84541 -3.06071 0
M  V30 10566 S 995.918 -1.86337 -3.97271 0
M  V30 10567 H 992.736 -0.397683 -0.58938 0
M  V30 10568 H 995.338 -1.58861 -1.13945 0
M  V30 10569 H 994.042 -2.89377 -2.91014 0
M  V30 10570 H 993.573 -1.37323 -3.68654 0
M  V30 10571 H 995.588 -0.939925 -4.87216 0
M  V30 10572 N 994.761 1.15782 -1.06922 0
M  V30 10573 C 996.001 1.88135 -0.799043 0
M  V30 10574 C 996.365 1.80203 0.662632 0
M  V30 10575 O 997.566 2.47543 1.04767 0
M  V30 10576 C 995.837 3.3339 -1.28786 0
M  V30 10577 S 997.396 4.23525 -1.1477 0
M  V30 10578 H 994.214 0.649313 -0.289679 0
M  V30 10579 H 996.816 1.3972 -1.36743 0
M  V30 10580 H 995.52 3.36705 -2.34645 0
M  V30 10581 H 995.051 3.86857 -0.714489 0
M  V30 10582 H 997.066 4.96131 -0.0825264 0
M  V30 10583 N 996.239 0.8527 1.3254 0
M  V30 10584 C 997.469 0.468363 2.01221 0
M  V30 10585 C 997.877 -0.938966 1.64256 0
M  V30 10586 O 997.22 -1.62387 0.858837 0
M  V30 10587 C 997.282 0.525457 3.55639 0
M  V30 10588 C 996.946 1.89133 4.16026 0
M  V30 10589 C 997.943 2.85652 4.34395 0
M  V30 10590 C 995.628 2.18795 4.52144 0
M  V30 10591 C 997.622 4.09985 4.88048 0
M  V30 10592 C 995.309 3.43381 5.05502 0
M  V30 10593 C 996.307 4.38792 5.23403 0
M  V30 10594 O 995.995 5.61173 5.75622 0
M  V30 10595 H 995.727 0.182712 0.65084 0
M  V30 10596 H 998.281 1.15076 1.70138 0
M  V30 10597 H 996.511 -0.213779 3.86109 0
M  V30 10598 H 998.2 0.156999 4.05596 0
M  V30 10599 H 998.966 2.6404 4.06827 0
M  V30 10600 H 994.845 1.45317 4.37498 0
M  V30 10601 H 998.389 4.84465 5.01936 0
M  V30 10602 H 994.286 3.64844 5.32503 0
M  V30 10603 H 995.054 5.63104 5.94017 0
M  V30 10604 N 997.718 -1.45297 0.610449 0
M  V30 10605 C 998.966 -2.01819 0.106548 0
M  V30 10606 C 999.287 -1.48102 -1.26849 0
M  V30 10607 O 998.557 -0.676411 -1.83852 0
M  V30 10608 H 997.137 -0.746113 0.0363982 0
M  V30 10609 H 999.799 -1.78061 0.792491 0
M  V30 10610 H 998.895 -3.12045 0.0585 0
M  V30 10611 N 999.196 -0.349774 -1.5367 0
M  V30 10612 C 1000.47 0.300419 -1.93279 0
M  V30 10613 C 1000.85 1.67721 -1.28191 0
M  V30 10614 O 1000.2 2.24319 -0.435127 0
M  V30 10615 C 1000.41 0.366466 -3.47071 0
M  V30 10616 C 1001.76 0.614349 -4.20132 0
M  V30 10617 O 1002.78 0.448327 -3.53367 0
M  V30 10618 O 1001.64 0.936421 -5.38417 0
M  V30 10619 H 998.736 0.176599 -0.807924 0
M  V30 10620 H 1001.28 -0.401405 -1.64884 0
M  V30 10621 H 1000.05 -0.599455 -3.86681 0
M  V30 10622 H 999.677 1.11482 -3.81651 0
M  V30 10623 N 1000.67 1.57404 -0.0785433 0
M  V30 10624 C 1001.6 2.16131 0.883726 0
M  V30 10625 C 1002.58 1.09015 1.30575 0
M  V30 10626 O 1003.77 1.3708 1.37559 0
M  V30 10627 C 1000.9 2.72836 2.1489 0
M  V30 10628 C 999.854 3.85178 1.86605 0
M  V30 10629 C 999.18 4.28516 3.1981 0
M  V30 10630 C 1000.48 5.09118 1.16601 0
M  V30 10631 H 1002.17 2.9679 0.394484 0
M  V30 10632 H 999.72 1.42763 0.188304 0
M  V30 10633 H 1001.67 3.12567 2.8263 0
M  V30 10634 H 1000.4 1.89408 2.66068 0
M  V30 10635 H 999.056 3.45962 1.21268 0
M  V30 10636 H 998.704 3.42 3.68843 0
M  V30 10637 H 998.404 5.04249 3.01674 0
M  V30 10638 H 999.928 4.70868 3.88737 0
M  V30 10639 H 1001.34 5.46123 1.74422 0
M  V30 10640 H 999.739 5.90173 1.087 0
M  V30 10641 H 1000.81 4.8468 0.146138 0
M  V30 10642 N 1002.15 -0.195058 1.56388 0
M  V30 10643 C 1003.08 -1.24444 1.97575 0
M  V30 10644 C 1004.06 -1.47471 0.847717 0
M  V30 10645 O 1005.25 -1.59208 1.11205 0
M  V30 10646 C 1002.38 -2.58866 2.31529 0
M  V30 10647 C 1001.33 -2.50451 3.47071 0
M  V30 10648 C 1000.66 -3.89146 3.667 0
M  V30 10649 C 1001.96 -2.02953 4.81256 0
M  V30 10650 H 1003.65 -0.902178 2.85484 0
M  V30 10651 H 1001.2 -0.43254 1.3735 0
M  V30 10652 H 1003.15 -3.3246 2.58936 0
M  V30 10653 H 1001.87 -2.94833 1.40502 0
M  V30 10654 H 1000.53 -1.79313 3.19754 0
M  V30 10655 H 1000.18 -4.22466 2.73004 0
M  V30 10656 H 999.882 -3.84391 4.44429 0
M  V30 10657 H 1001.41 -4.64363 3.96484 0
M  V30 10658 H 1002.82 -2.66306 5.07695 0
M  V30 10659 H 1001.22 -2.092 5.62455 0
M  V30 10660 H 1002.29 -0.982757 4.74837 0
M  V30 10661 N 1003.63 -1.50653 -0.462772 0
M  V30 10662 C 1004.58 -1.70661 -1.58043 0
M  V30 10663 C 1005.57 -0.572533 -1.59432 0
M  V30 10664 O 1006.78 -0.753257 -1.63481 0
M  V30 10665 H 1003.15 -0.538805 -0.524588 0
M  V30 10666 H 1005.12 -2.64399 -1.38332 0
M  V30 10667 C 1003.87 -1.82558 -2.95919 0
M  V30 10668 H 1003.2 -2.69216 -2.95572 0
M  V30 10669 H 1004.64 -2.0058 -3.73556 0
M  V30 10670 C 1003.09 -0.57916 -3.31885 0
M  V30 10671 O 1003.62 0.277888 -4.00738 0
M  V30 10672 N 1001.83 -0.430723 -2.8739 0
M  V30 10673 H 1001.38 -1.1292 -2.31531 0
M  V30 10674 H 1001.34 0.402061 -3.11819 0
M  V30 10675 N 1005.11 0.71652 -1.4037 0
M  V30 10676 C 1006.36 1.47638 -1.38597 0
M  V30 10677 C 1006.68 1.94496 0.0120141 0
M  V30 10678 O 1005.94 1.68437 0.996373 0
M  V30 10679 C 1006.24 2.71777 -2.32103 0
M  V30 10680 C 1005.9 2.43689 -3.79376 0
M  V30 10681 C 1004.57 2.35739 -4.195 0
M  V30 10682 C 1006.92 2.20099 -4.72447 0
M  V30 10683 C 1004.25 2.02265 -5.50732 0
M  V30 10684 C 1006.6 1.88138 -6.03976 0
M  V30 10685 C 1005.26 1.78669 -6.43143 0
M  V30 10686 H 1004.53 0.540246 -0.507163 0
M  V30 10687 H 1007.18 0.820822 -1.73017 0
M  V30 10688 H 1005.48 3.42166 -1.90865 0
M  V30 10689 H 1007.18 3.29864 -2.28015 0
M  V30 10690 H 1003.77 2.50763 -3.47585 0
M  V30 10691 H 1007.95 2.25198 -4.42266 0
M  V30 10692 H 1003.21 1.93471 -5.79982 0
M  V30 10693 H 1007.38 1.68898 -6.75608 0
M  V30 10694 H 1005.01 1.52498 -7.44747 0
M  V30 10695 N 1006.59 1.25851 0.948643 0
M  V30 10696 C 1007.52 1.09248 2.06367 0
M  V30 10697 C 1008.5 -0.000205168 1.701 0
M  V30 10698 O 1009.68 0.170442 1.93451 0
M  V30 10699 C 1006.81 0.716777 3.39823 0
M  V30 10700 C 1005.77 1.76036 3.90122 0
M  V30 10701 C 1005.09 1.23918 5.20143 0
M  V30 10702 C 1006.39 3.16039 4.15833 0
M  V30 10703 H 1008.09 2.02518 2.20515 0
M  V30 10704 H 1005.63 0.975093 1.05962 0
M  V30 10705 H 1007.59 0.587531 4.17284 0
M  V30 10706 H 1006.31 -0.251626 3.25629 0
M  V30 10707 H 1004.97 1.87815 3.14835 0
M  V30 10708 H 1004.62 0.260836 5.02323 0
M  V30 10709 H 1004.32 1.93673 5.54765 0
M  V30 10710 H 1005.84 1.12245 6.00194 0
M  V30 10711 H 1007.25 3.0738 4.83933 0
M  V30 10712 H 1005.65 3.83317 4.61723 0
M  V30 10713 H 1006.72 3.62652 3.21887 0
M  V30 10714 N 1008.06 -1.15214 1.07534 0
M  V30 10715 C 1009.48 -1.38031 0.801228 0
M  V30 10716 C 1009.68 -1.92556 -0.593672 0
M  V30 10717 O 1008.74 -2.1325 -1.35206 0
M  V30 10718 C 1010.05 -2.34958 1.87657 0
M  V30 10719 C 1011.6 -2.48617 1.90154 0
M  V30 10720 C 1012.07 -3.48837 2.96777 0
M  V30 10721 N 1013.56 -3.56374 2.95892 0
M  V30 10722 C 1014.3 -4.33746 3.75036 0
M  V30 10723 N 1013.79 -5.14435 4.64036 0
M  V30 10724 N 1015.59 -4.28853 3.63375 0
M  V30 10725 H 1007.74 -0.781639 1.97495 0
M  V30 10726 H 1010 -0.406243 0.856546 0
M  V30 10727 H 1009.71 -2.02013 2.87895 0
M  V30 10728 H 1009.58 -3.3476 1.73827 0
M  V30 10729 H 1011.97 -2.80859 0.905666 0
M  V30 10730 H 1012.05 -1.48808 2.08062 0
M  V30 10731 H 1011.69 -3.1733 3.96565 0
M  V30 10732 H 1011.62 -4.48406 2.76116 0
M  V30 10733 H 1014.11 -2.98784 2.31379 0
M  V30 10734 H 1014.43 -5.70722 5.21053 0
M  V30 10735 H 1012.77 -5.13734 4.68084 0
M  V30 10736 H 1015.96 -3.64882 2.93221 0
M  V30 10737 H 1016.14 -4.88903 4.25298 0
M  V30 10738 N 1009.54 -0.859717 -1.32086 0
M  V30 10739 C 1010.96 -0.55025 -1.49815 0
M  V30 10740 C 1011.16 0.917966 -1.79376 0
M  V30 10741 O 1010.21 1.70073 -1.86632 0
M  V30 10742 C 1011.53 -1.44161 -2.6389 0
M  V30 10743 C 1013.08 -1.44257 -2.77775 0
M  V30 10744 C 1013.55 -2.31926 -3.94936 0
M  V30 10745 N 1015.04 -2.2975 -4.02206 0
M  V30 10746 C 1015.78 -2.9431 -4.92107 0
M  V30 10747 N 1015.27 -3.68001 -5.86981 0
M  V30 10748 N 1017.07 -2.83671 -4.8527 0
M  V30 10749 H 1009.22 -1.80987 -1.11164 0
M  V30 10750 H 1011.48 -0.773313 -0.548353 0
M  V30 10751 H 1011.19 -2.48588 -2.4879 0
M  V30 10752 H 1011.06 -1.13268 -3.59792 0
M  V30 10753 H 1013.45 -0.405923 -2.92295 0
M  V30 10754 H 1013.53 -1.79169 -1.82571 0
M  V30 10755 H 1013.17 -3.35661 -3.81174 0
M  V30 10756 H 1013.1 -1.94344 -4.89426 0
M  V30 10757 H 1015.59 -1.76177 -3.3432 0
M  V30 10758 H 1015.91 -4.14417 -6.52287 0
M  V30 10759 H 1014.25 -3.72109 -5.86992 0
M  V30 10760 H 1017.44 -2.25647 -4.10123 0
M  V30 10761 H 1017.61 -3.34267 -5.5513 0
M  V30 10762 N 1011.02 1.44971 -0.618145 0
M  V30 10763 C 1011.97 2.30606 0.09449 0
M  V30 10764 C 1012.94 1.42725 0.849633 0
M  V30 10765 O 1014.12 1.71643 0.833266 0
M  V30 10766 C 1011.26 3.27803 1.07886 0
M  V30 10767 C 1010.38 4.30787 0.323488 0
M  V30 10768 C 1009.51 5.15085 1.29851 0
M  V30 10769 C 1008.55 6.09788 0.531561 0
M  V30 10770 N 1007.69 6.86829 1.4564 0
M  V30 10771 H 1012.53 2.91008 -0.641738 0
M  V30 10772 H 1010.06 1.43391 -0.328259 0
M  V30 10773 H 1012.02 3.82631 1.66281 0
M  V30 10774 H 1010.65 2.69131 1.78237 0
M  V30 10775 H 1009.7 3.78536 -0.376164 0
M  V30 10776 H 1011.02 4.98044 -0.274443 0
M  V30 10777 H 1010.17 5.74365 1.95421 0
M  V30 10778 H 1008.91 4.4787 1.93037 0
M  V30 10779 H 1007.91 5.49628 -0.137702 0
M  V30 10780 H 1009.14 6.79033 -0.0953993 0
M  V30 10781 H 1007.08 6.22295 2.07571 0
M  V30 10782 H 1007 7.50477 0.912167 0
M  V30 10783 H 1008.27 7.50642 2.10134 0
M  V30 10784 N 1012.5 0.357919 1.53482 0
M  V30 10785 C 1013.91 0.00655107 1.59599 0
M  V30 10786 C 1014.11 -1.47449 1.37336 0
M  V30 10787 O 1013.17 -2.2351 1.17472 0
M  V30 10788 C 1014.48 0.455617 2.97228 0
M  V30 10789 C 1016.03 0.409183 3.10314 0
M  V30 10790 C 1016.51 0.833941 4.50344 0
M  V30 10791 N 1018 0.788695 4.56436 0
M  V30 10792 C 1018.73 1.08914 5.62961 0
M  V30 10793 N 1018.23 1.45847 6.77274 0
M  V30 10794 N 1020.02 1.01243 5.52907 0
M  V30 10795 H 1012.17 1.32248 1.66206 0
M  V30 10796 H 1014.44 0.540047 0.779136 0
M  V30 10797 H 1014.14 1.48881 3.18634 0
M  V30 10798 H 1014.02 -0.161751 3.76853 0
M  V30 10799 H 1016.4 -0.614863 2.88623 0
M  V30 10800 H 1016.48 1.06195 2.32715 0
M  V30 10801 H 1016.13 1.85607 4.72771 0
M  V30 10802 H 1016.06 0.158507 5.26361 0
M  V30 10803 H 1018.55 0.516497 3.74354 0
M  V30 10804 H 1018.86 1.67218 7.54492 0
M  V30 10805 H 1017.21 1.49705 6.78685 0
M  V30 10806 H 1020.4 0.723137 4.62481 0
M  V30 10807 H 1020.57 1.24991 6.35831 0
M  V30 10808 N 1013.98 -1.5736 0.0868897 0
M  V30 10809 C 1015.25 -1.85495 -0.620561 0
M  V30 10810 C 1015.63 -0.982218 -1.86857 0
M  V30 10811 O 1014.98 -0.0524529 -2.2844 0
M  V30 10812 C 1015.19 -3.35996 -0.943798 0
M  V30 10813 C 1016.54 -4.03861 -1.31079 0
M  V30 10814 O 1017.56 -3.4083 -1.03507 0
M  V30 10815 O 1016.42 -5.15062 -1.82683 0
M  V30 10816 H 1013.52 -0.766822 -0.309697 0
M  V30 10817 H 1016.06 -1.69282 0.118966 0
M  V30 10818 H 1014.83 -3.91257 -0.0580628 0
M  V30 10819 H 1014.46 -3.57525 -1.73958 0
M  V30 10820 N 1015.45 0.186762 -1.56489 0
M  V30 10821 C 1016.68 0.925916 -1.85584 0
M  V30 10822 C 1017.1 1.75708 -0.671446 0
M  V30 10823 O 1016.46 1.7728 0.379687 0
M  V30 10824 C 1016.51 1.79107 -3.12975 0
M  V30 10825 O 1015.61 2.89088 -2.94112 0
M  V30 10826 H 1014.96 0.260275 -0.610863 0
M  V30 10827 H 1017.49 0.189561 -2.0372 0
M  V30 10828 H 1017.5 2.19408 -3.43983 0
M  V30 10829 H 1016.17 1.18044 -3.98796 0
M  V30 10830 H 1014.75 2.52482 -2.74422 0
M  V30 10831 N 1016.93 1.50896 0.454776 0
M  V30 10832 C 1018.18 1.62699 1.20562 0
M  V30 10833 C 1018.51 0.334943 1.91594 0
M  V30 10834 O 1017.76 -0.680106 1.83502 0
M  V30 10835 C 1018.06 2.76839 2.26042 0
M  V30 10836 C 1017.73 4.16745 1.72147 0
M  V30 10837 C 1016.39 4.54809 1.5717 0
M  V30 10838 C 1018.74 5.04118 1.32341 0
M  V30 10839 C 1016.07 5.7797 1.00835 0
M  V30 10840 C 1018.42 6.27842 0.774419 0
M  V30 10841 C 1017.09 6.64694 0.611415 0
M  V30 10842 H 1016.36 0.595358 0.441169 0
M  V30 10843 H 1019 1.84879 0.499202 0
M  V30 10844 H 1017.31 2.48812 3.02655 0
M  V30 10845 H 1019 2.83173 2.83926 0
M  V30 10846 H 1015.59 3.86725 1.84775 0
M  V30 10847 H 1019.78 4.75331 1.42739 0
M  V30 10848 H 1015.03 6.05183 0.869669 0
M  V30 10849 H 1019.21 6.94896 0.457389 0
M  V30 10850 H 1016.84 7.60004 0.172751 0
M  V30 10851 N 1018.41 -0.709066 1.40748 0
M  V30 10852 C 1019.66 -1.4646 1.38681 0
M  V30 10853 C 1019.97 -1.95599 -0.0056209 0
M  V30 10854 O 1021.18 -2.71091 -0.148907 0
M  V30 10855 C 1019.63 -2.64771 2.43771 0
M  V30 10856 C 1019.24 -2.22474 3.88856 0
M  V30 10857 C 1020.99 -3.42475 2.50821 0
M  V30 10858 C 1018.89 -3.37663 4.85528 0
M  V30 10859 H 1017.82 -0.550084 0.515678 0
M  V30 10860 H 1020.47 -0.771074 1.66513 0
M  V30 10861 H 1018.86 -3.36325 2.09048 0
M  V30 10862 H 1020.03 -1.58297 4.32757 0
M  V30 10863 H 1018.35 -1.57798 3.85342 0
M  V30 10864 H 1020.94 -4.28201 3.20232 0
M  V30 10865 H 1021.29 -3.86738 1.54076 0
M  V30 10866 H 1021.82 -2.77969 2.84567 0
M  V30 10867 H 1018.56 -2.98426 5.83628 0
M  V30 10868 H 1018.08 -4.00734 4.46287 0
M  V30 10869 H 1019.76 -4.03636 5.05655 0
M  V30 10870 N 1019.89 -1.26353 -0.941956 0
M  V30 10871 C 1021.13 -1.13071 -1.70277 0
M  V30 10872 C 1021.49 0.320699 -1.89303 0
M  V30 10873 O 1022.69 0.575624 -2.62564 0
M  V30 10874 C 1020.97 -1.87777 -3.04096 0
M  V30 10875 S 1022.52 -1.9054 -3.95272 0
M  V30 10876 H 1019.34 -0.403912 -0.585129 0
M  V30 10877 H 1021.94 -1.6006 -1.12254 0
M  V30 10878 H 1020.65 -2.92447 -2.87929 0
M  V30 10879 H 1020.18 -1.41226 -3.67177 0
M  V30 10880 H 1022.19 -0.991548 -4.86192 0
M  V30 10881 N 1021.37 1.14642 -1.08144 0
M  V30 10882 C 1022.59 1.90025 -0.830972 0
M  V30 10883 C 1023.02 1.77904 0.610879 0
M  V30 10884 O 1022.38 1.11735 1.42776 0
M  V30 10885 C 1022.42 3.38085 -1.25422 0
M  V30 10886 O 1021.53 4.10412 -0.404486 0
M  V30 10887 H 1020.87 0.591327 -0.302041 0
M  V30 10888 H 1023.4 1.4513 -1.44216 0
M  V30 10889 H 1023.41 3.88894 -1.23391 0
M  V30 10890 H 1022.08 3.46226 -2.30435 0
M  V30 10891 H 1020.66 3.69693 -0.487987 0
M  V30 10892 N 1022.85 0.866709 1.31628 0
M  V30 10893 C 1023.79 0.318169 2.28596 0
M  V30 10894 C 1024.76 -0.581558 1.55586 0
M  V30 10895 O 1025.95 -0.513895 1.83749 0
M  V30 10896 C 1023.09 -0.477137 3.41786 0
M  V30 10897 C 1022.2 0.449739 4.29653 0
M  V30 10898 C 1021.34 -0.359373 5.29983 0
M  V30 10899 C 1020.37 0.564138 6.09495 0
M  V30 10900 N 1019.51 -0.208526 7.0179 0
M  V30 10901 H 1024.35 1.15029 2.74904 0
M  V30 10902 H 1021.89 0.578649 1.35241 0
M  V30 10903 H 1023.85 -0.953985 4.06146 0
M  V30 10904 H 1022.48 -1.27398 2.96597 0
M  V30 10905 H 1021.53 1.04502 3.65764 0
M  V30 10906 H 1022.84 1.158 4.85172 0
M  V30 10907 H 1021.99 -0.89887 6.00004 0
M  V30 10908 H 1020.73 -1.10094 4.75111 0
M  V30 10909 H 1019.74 1.11542 5.38366 0
M  V30 10910 H 1020.96 1.30451 6.66453 0
M  V30 10911 H 1018.91 -0.932969 6.49332 0
M  V30 10912 H 1018.83 0.440463 7.54716 0
M  V30 10913 H 1020.09 -0.72936 7.7608 0
M  V30 10914 N 1024.32 -1.44642 0.625825 0
M  V30 10915 C 1025.26 -2.28882 -0.120614 0
M  V30 10916 C 1026.27 -1.40985 -0.81407 0
M  V30 10917 O 1027.46 -1.65188 -0.676404 0
M  V30 10918 C 1024.56 -3.17217 -1.19274 0
M  V30 10919 C 1023.73 -4.33499 -0.582839 0
M  V30 10920 C 1022.79 -5.02908 -1.54823 0
M  V30 10921 O 1021.82 -5.59102 -1.06743 0
M  V30 10922 N 1023.02 -5.0387 -2.88262 0
M  V30 10923 H 1025.78 -2.93585 0.602318 0
M  V30 10924 H 1023.34 -1.5503 0.466604 0
M  V30 10925 H 1025.34 -3.60515 -1.83878 0
M  V30 10926 H 1023.91 -2.54301 -1.81797 0
M  V30 10927 H 1023.13 -3.93458 0.241696 0
M  V30 10928 H 1024.41 -5.08561 -0.155914 0
M  V30 10929 H 1023.81 -4.59539 -3.2991 0
M  V30 10930 H 1022.37 -5.50974 -3.4824 0
M  V30 10931 N 1025.8 -0.366053 -1.5329 0
M  V30 10932 C 1026.71 0.488111 -2.29466 0
M  V30 10933 C 1027.73 1.09219 -1.35452 0
M  V30 10934 O 1028.9 1.10303 -1.68509 0
M  V30 10935 C 1025.97 1.61202 -3.06944 0
M  V30 10936 C 1025.03 1.03543 -4.16626 0
M  V30 10937 C 1024.26 2.10578 -4.904 0
M  V30 10938 O 1024.49 3.31697 -4.6404 0
M  V30 10939 O 1023.42 1.73609 -5.76319 0
M  V30 10940 H 1027.25 -0.131789 -3.03414 0
M  V30 10941 H 1024.83 -0.130421 -1.4883 0
M  V30 10942 H 1026.71 2.26546 -3.55324 0
M  V30 10943 H 1025.39 2.21732 -2.35832 0
M  V30 10944 H 1024.29 0.345892 -3.72498 0
M  V30 10945 H 1025.63 0.474687 -4.89906 0
M  V30 10946 N 1027.28 1.57312 -0.0952337 0
M  V30 10947 C 1028.56 1.85822 0.610715 0
M  V30 10948 C 1028.94 0.992114 1.86334 0
M  V30 10949 O 1028.28 0.0645669 2.28409 0
M  V30 10950 C 1028.49 3.36492 0.925967 0
M  V30 10951 C 1029.84 4.0455 1.28936 0
M  V30 10952 O 1030.87 3.41374 1.01698 0
M  V30 10953 O 1029.73 5.16024 1.79949 0
M  V30 10954 H 1026.82 0.768454 0.305626 0
M  V30 10955 H 1029.37 1.69217 -0.127941 0
M  V30 10956 H 1028.14 3.91282 0.0373127 0
M  V30 10957 H 1027.76 3.58443 1.7206 0
M  V30 10958 N 1028.76 -0.17846 1.56586 0
M  V30 10959 C 1029.71 -1.22552 1.92263 0
M  V30 10960 C 1030.69 -1.40163 0.790131 0
M  V30 10961 O 1031.88 -1.42254 1.05322 0
M  V30 10962 C 1029.01 -2.5666 2.27993 0
M  V30 10963 C 1028.1 -2.42772 3.47739 0
M  V30 10964 N 1028.49 -1.98588 4.65185 0
M  V30 10965 C 1026.79 -2.73619 3.52205 0
M  V30 10966 C 1027.49 -1.96991 5.47329 0
M  V30 10967 N 1026.46 -2.39126 4.8818 0
M  V30 10968 H 1030.27 -0.875493 2.80557 0
M  V30 10969 H 1027.78 -0.386785 1.57727 0
M  V30 10970 H 1029.78 -3.32312 2.51743 0
M  V30 10971 H 1028.44 -2.92472 1.41034 0
M  V30 10972 H 1029.45 -1.69036 4.89538 0
M  V30 10973 H 1026.13 -3.13516 2.75706 0
M  V30 10974 H 1027.52 -1.64589 6.51429 0
M  V30 10975 N 1030.24 -1.51135 -0.446768 0
M  V30 10976 C 1031.2 -1.71187 -1.52406 0
M  V30 10977 C 1032.2 -0.582037 -1.49897 0
M  V30 10978 O 1033.39 -0.849452 -1.52085 0
M  V30 10979 C 1030.52 -1.75962 -2.91976 0
M  V30 10980 H 1031.71 -2.67324 -1.35934 0
M  V30 10981 H 1029.27 -1.40982 -0.674813 0
M  V30 10982 H 1030 -0.816065 -3.13864 0
M  V30 10983 H 1029.79 -2.58065 -2.95203 0
M  V30 10984 H 1031.28 -1.93347 -3.70144 0
M  V30 10985 N 1031.71 0.701592 -1.41122 0
M  V30 10986 C 1032.62 1.84548 -1.44841 0
M  V30 10987 C 1033.64 1.70654 -0.339594 0
M  V30 10988 O 1034.82 1.92675 -0.586378 0
M  V30 10989 C 1031.88 3.20477 -1.3227 0
M  V30 10990 C 1030.94 3.46524 -2.53415 0
M  V30 10991 C 1030.17 4.75968 -2.41434 0
M  V30 10992 O 1030.4 5.52037 -1.43566 0
M  V30 10993 O 1029.33 5.02664 -3.31078 0
M  V30 10994 H 1033.16 1.84367 -2.41335 0
M  V30 10995 H 1030.74 0.853863 -1.22595 0
M  V30 10996 H 1032.62 4.01642 -1.2752 0
M  V30 10997 H 1031.3 3.21355 -0.388889 0
M  V30 10998 H 1030.21 2.65313 -2.63742 0
M  V30 10999 H 1031.54 3.50455 -3.45604 0
M  V30 11000 N 1033.19 1.2685 0.935242 0
M  V30 11001 C 1034.15 1.08975 2.01636 0
M  V30 11002 C 1035.15 0.0361543 1.60759 0
M  V30 11003 O 1036.34 0.280087 1.71934 0
M  V30 11004 C 1033.48 0.658831 3.34473 0
M  V30 11005 H 1034.67 2.04968 2.18925 0
M  V30 11006 H 1032.22 1.09531 1.11501 0
M  V30 11007 H 1032.96 -0.302824 3.22883 0
M  V30 11008 H 1032.74 1.41967 3.65497 0
M  V30 11009 H 1034.23 0.555783 4.13885 0
M  V30 11010 N 1034.67 -1.14067 1.0875 0
M  V30 11011 C 1035.63 -2.17453 0.724341 0
M  V30 11012 C 1036.63 -1.58959 -0.242614 0
M  V30 11013 O 1037.82 -1.74186 -0.0217008 0
M  V30 11014 C 1034.96 -3.40828 0.0700236 0
M  V30 11015 H 1036.15 -2.51094 1.63987 0
M  V30 11016 H 1033.7 -1.28775 0.885813 0
M  V30 11017 H 1034.44 -3.1277 -0.857061 0
M  V30 11018 H 1034.22 -3.84551 0.76569 0
M  V30 11019 H 1035.71 -4.17258 -0.168905 0
M  V30 11020 N 1036.15 -0.873678 -1.31166 0
M  V30 11021 C 1037.08 -0.348011 -2.30892 0
M  V30 11022 C 1038.06 0.563092 -1.60509 0
M  V30 11023 O 1039.24 0.479332 -1.88192 0
M  V30 11024 C 1036.37 0.448158 -3.44396 0
M  V30 11025 C 1035.33 -0.370179 -4.26396 0
M  V30 11026 C 1034.65 0.551903 -5.31844 0
M  V30 11027 C 1035.95 -1.60624 -4.96988 0
M  V30 11028 H 1037.65 -1.18134 -2.75109 0
M  V30 11029 H 1035.19 -0.569502 -1.3226 0
M  V30 11030 H 1037.15 0.826458 -4.13216 0
M  V30 11031 H 1035.87 1.31503 -2.98956 0
M  V30 11032 H 1034.53 -0.730472 -3.59249 0
M  V30 11033 H 1034.18 1.41616 -4.82653 0
M  V30 11034 H 1033.88 0.00823478 -5.87599 0
M  V30 11035 H 1035.4 0.926965 -6.03523 0
M  V30 11036 H 1036.82 -1.29917 -5.58386 0
M  V30 11037 H 1035.21 -2.08926 -5.62557 0
M  V30 11038 H 1036.28 -2.357 -4.23761 0
M  V30 11039 N 1037.63 1.44308 -0.633487 0
M  V30 11040 C 1038.86 2.06085 -0.145852 0
M  V30 11041 C 1039.26 1.47432 1.18577 0
M  V30 11042 O 1038.61 0.592575 1.7388 0
M  V30 11043 C 1038.67 3.59477 0.0407848 0
M  V30 11044 C 1038.33 4.40607 -1.21304 0
M  V30 11045 C 1039.33 4.73937 -2.13728 0
M  V30 11046 C 1037.02 4.80943 -1.44911 0
M  V30 11047 C 1039.01 5.46489 -3.28068 0
M  V30 11048 C 1036.7 5.53243 -2.59548 0
M  V30 11049 C 1037.69 5.85936 -3.50953 0
M  V30 11050 O 1037.38 6.56764 -4.6359 0
M  V30 11051 H 1037.11 0.671484 -0.0780085 0
M  V30 11052 H 1039.67 1.86128 -0.868658 0
M  V30 11053 H 1037.9 3.77933 0.818761 0
M  V30 11054 H 1039.59 4.03013 0.483273 0
M  V30 11055 H 1040.35 4.43311 -1.96725 0
M  V30 11056 H 1036.23 4.54915 -0.746537 0
M  V30 11057 H 1039.78 5.71924 -3.99435 0
M  V30 11058 H 1035.67 5.83285 -2.76493 0
M  V30 11059 H 1036.44 6.75234 -4.62602 0
M  V30 11060 N 1039.1 0.374177 1.53094 0
M  V30 11061 C 1040.05 -0.468226 2.26001 0
M  V30 11062 C 1041.02 -1.07041 1.27009 0
M  V30 11063 O 1042.21 -1.10129 1.55809 0
M  V30 11064 C 1039.35 -1.59754 3.05896 0
M  V30 11065 C 1038.46 -1.01969 4.19793 0
M  V30 11066 C 1037.59 -2.11882 4.87113 0
M  V30 11067 C 1036.63 -1.51607 5.93028 0
M  V30 11068 N 1035.77 -2.55388 6.54004 0
M  V30 11069 H 1040.61 0.159983 2.9757 0
M  V30 11070 H 1038.15 0.0907196 1.4682 0
M  V30 11071 H 1040.11 -2.26288 3.50499 0
M  V30 11072 H 1038.74 -2.19628 2.36565 0
M  V30 11073 H 1037.79 -0.244386 3.79614 0
M  V30 11074 H 1039.1 -0.539089 4.95878 0
M  V30 11075 H 1038.25 -2.86218 5.34943 0
M  V30 11076 H 1036.99 -2.63297 4.10519 0
M  V30 11077 H 1036 -0.757891 5.44551 0
M  V30 11078 H 1037.22 -1.01006 6.71546 0
M  V30 11079 H 1035.17 -3.06 5.80258 0
M  V30 11080 H 1035.09 -2.12039 7.25655 0
M  V30 11081 H 1036.35 -3.294 7.06481 0
M  V30 11082 N 1040.58 -1.57259 0.103575 0
M  V30 11083 C 1041.53 -2.15727 -0.869739 0
M  V30 11084 C 1042.52 -1.10236 -1.28625 0
M  V30 11085 O 1043.73 -1.28567 -1.25979 0
M  V30 11086 H 1040.11 -0.690204 -0.298535 0
M  V30 11087 H 1042.08 -2.96317 -0.351984 0
M  V30 11088 C 1040.83 -2.75905 -2.11593 0
M  V30 11089 H 1040.15 -3.56768 -1.80434 0
M  V30 11090 H 1041.59 -3.20373 -2.77736 0
M  V30 11091 C 1040.05 -1.72218 -2.89556 0
M  V30 11092 O 1040.58 -1.16623 -3.84398 0
M  V30 11093 N 1038.78 -1.42514 -2.53255 0
M  V30 11094 H 1038.33 -1.87914 -1.76198 0
M  V30 11095 H 1038.29 -0.733782 -3.05717 0
M  V30 11096 N 1042.06 0.170153 -1.56679 0
M  V30 11097 C 1042.99 1.21285 -1.9953 0
M  V30 11098 C 1043.97 1.46104 -0.871071 0
M  V30 11099 O 1045.16 1.57419 -1.13724 0
M  V30 11100 C 1042.29 2.5515 -2.35618 0
M  V30 11101 C 1041.24 2.44898 -3.51011 0
M  V30 11102 C 1040.57 3.83263 -3.72845 0
M  V30 11103 C 1041.87 1.95271 -4.84424 0
M  V30 11104 H 1043.56 0.856646 -2.86883 0
M  V30 11105 H 1041.11 0.410634 -1.38021 0
M  V30 11106 H 1043.06 3.28299 -2.64193 0
M  V30 11107 H 1041.78 2.92561 -1.45175 0
M  V30 11108 H 1040.44 1.74203 -3.22566 0
M  V30 11109 H 1040.09 4.18069 -2.79691 0
M  V30 11110 H 1039.79 3.77272 -4.50488 0
M  V30 11111 H 1041.31 4.57996 -4.03822 0
M  V30 11112 H 1042.73 2.58195 -5.11867 0
M  V30 11113 H 1041.13 2.00225 -5.65712 0
M  V30 11114 H 1042.2 0.90709 -4.7634 0
M  V30 11115 N 1043.54 1.5137 0.438746 0
M  V30 11116 C 1044.47 1.75528 1.53987 0
M  V30 11117 C 1045.45 0.605067 1.58975 0
M  V30 11118 O 1046.63 0.847634 1.74725 0
M  V30 11119 C 1043.76 1.87904 2.92078 0
M  V30 11120 C 1042.72 3.0333 3.01951 0
M  V30 11121 C 1042.04 3.00888 4.42007 0
M  V30 11122 C 1043.34 4.43319 2.76163 0
M  V30 11123 H 1045.04 2.67728 1.34022 0
M  V30 11124 H 1042.58 1.28831 0.643308 0
M  V30 11125 H 1044.54 2.03388 3.69068 0
M  V30 11126 H 1043.26 0.923514 3.13271 0
M  V30 11127 H 1041.92 2.87549 2.274 0
M  V30 11128 H 1041.57 2.03116 4.60166 0
M  V30 11129 H 1041.27 3.78397 4.49544 0
M  V30 11130 H 1042.79 3.18464 5.20973 0
M  V30 11131 H 1044.21 4.59458 3.42887 0
M  V30 11132 H 1042.6 5.22523 2.9511 0
M  V30 11133 H 1043.67 4.53453 1.71779 0
M  V30 11134 N 1045.02 -0.694098 1.41492 0
M  V30 11135 C 1045.97 -1.80016 1.39923 0
M  V30 11136 C 1046.95 -1.58561 0.273377 0
M  V30 11137 O 1048.14 -1.69368 0.514157 0
M  V30 11138 C 1045.27 -3.18333 1.28526 0
M  V30 11139 C 1044.36 -3.45478 2.45979 0
M  V30 11140 N 1044.75 -3.43313 3.71443 0
M  V30 11141 C 1043.05 -3.76033 2.39824 0
M  V30 11142 C 1043.75 -3.69404 4.4935 0
M  V30 11143 N 1042.72 -3.89221 3.79484 0
M  V30 11144 H 1046.53 -1.76707 2.34844 0
M  V30 11145 H 1044.04 -0.894148 1.35568 0
M  V30 11146 H 1046.04 -3.97567 1.25484 0
M  V30 11147 H 1044.7 -3.22852 0.345904 0
M  V30 11148 H 1045.71 -3.2366 4.04308 0
M  V30 11149 H 1042.38 -3.87913 1.54368 0
M  V30 11150 H 1043.77 -3.73854 5.58285 0
M  V30 11151 N 1046.49 -1.27344 -0.928501 0
M  V30 11152 C 1047.72 -1.16557 -1.7155 0
M  V30 11153 C 1048.14 0.274044 -1.86093 0
M  V30 11154 O 1047.5 1.19847 -1.36038 0
M  V30 11155 C 1047.55 -1.85332 -3.09329 0
M  V30 11156 O 1046.65 -1.15074 -3.9602 0
M  V30 11157 H 1046 -0.405423 -0.525859 0
M  V30 11158 H 1048.53 -1.68399 -1.16202 0
M  V30 11159 H 1048.54 -1.92659 -3.59648 0
M  V30 11160 H 1047.21 -2.90056 -2.98061 0
M  V30 11161 H 1045.79 -1.1581 -3.54461 0
M  V30 11162 N 1047.97 1.13488 -1.09353 0
M  V30 11163 C 1048.92 2.18876 -0.732251 0
M  V30 11164 C 1049.89 1.63616 0.286175 0
M  V30 11165 O 1051.07 1.90059 0.167981 0
M  V30 11166 C 1048.21 3.44737 -0.158157 0
M  V30 11167 C 1047.33 4.14104 -1.23053 0
M  V30 11168 C 1046.46 5.27578 -0.619272 0
M  V30 11169 C 1045.5 5.88793 -1.67301 0
M  V30 11170 N 1044.64 6.937 -1.08283 0
M  V30 11171 H 1049.48 2.49128 -1.63522 0
M  V30 11172 H 1047.02 1.22326 -0.816995 0
M  V30 11173 H 1048.97 4.16756 0.192488 0
M  V30 11174 H 1047.6 3.14938 0.708082 0
M  V30 11175 H 1046.66 3.40376 -1.69847 0
M  V30 11176 H 1047.97 4.55683 -2.02865 0
M  V30 11177 H 1047.12 6.0631 -0.217428 0
M  V30 11178 H 1045.86 4.87246 0.210399 0
M  V30 11179 H 1044.87 5.08756 -2.0844 0
M  V30 11180 H 1046.09 6.31197 -2.50533 0
M  V30 11181 H 1044.04 6.55426 -0.274426 0
M  V30 11182 H 1043.95 7.33817 -1.81792 0
M  V30 11183 H 1045.22 7.76286 -0.707167 0
M  V30 11184 N 1049.45 0.880621 1.30701 0
M  V30 11185 C 1050.36 0.348034 2.32004 0
M  V30 11186 C 1051.38 -0.547508 1.65162 0
M  V30 11187 O 1052.55 -0.441673 1.96497 0
M  V30 11188 C 1049.62 -0.432585 3.43991 0
M  V30 11189 C 1048.68 0.492189 4.26469 0
M  V30 11190 C 1047.91 -0.25127 5.33108 0
M  V30 11191 O 1048.14 -1.47795 5.5092 0
M  V30 11192 O 1047.07 0.396376 6.00593 0
M  V30 11193 H 1050.9 1.18798 2.79501 0
M  V30 11194 H 1048.48 0.64432 1.34792 0
M  V30 11195 H 1050.36 -0.874733 4.12221 0
M  V30 11196 H 1049.04 -1.2489 2.98637 0
M  V30 11197 H 1047.94 0.983058 3.60953 0
M  V30 11198 H 1049.28 1.27439 4.75416 0
M  V30 11199 N 1050.93 -1.4397 0.641131 0
M  V30 11200 C 1052.15 -2.06818 0.155318 0
M  V30 11201 C 1052.58 -1.47665 -1.16519 0
M  V30 11202 O 1051.94 -0.58192 -1.71707 0
M  V30 11203 C 1051.99 -3.60542 0.0647537 0
M  V30 11204 O 1051.09 -4.00674 -0.976447 0
M  V30 11205 H 1050.43 -0.657962 0.0893404 0
M  V30 11206 H 1052.96 -1.84678 0.88064 0
M  V30 11207 H 1052.97 -4.07816 -0.122552 0
M  V30 11208 H 1051.65 -4.02975 1.02878 0
M  V30 11209 H 1050.22 -3.65013 -0.762905 0
M  V30 11210 N 1052.41 -0.382291 -1.52893 0
M  V30 11211 C 1053.63 0.204961 -2.06385 0
M  V30 11212 C 1054.06 1.40316 -1.25271 0
M  V30 11213 O 1053.42 1.79187 -0.275969 0
M  V30 11214 C 1053.46 0.560205 -3.56222 0
M  V30 11215 O 1052.57 1.65515 -3.77728 0
M  V30 11216 H 1051.91 0.0258798 -0.663495 0
M  V30 11217 H 1054.44 -0.547733 -1.97132 0
M  V30 11218 H 1054.45 0.826501 -3.99541 0
M  V30 11219 H 1053.12 -0.31584 -4.14699 0
M  V30 11220 H 1051.7 1.38311 -3.46301 0
M  V30 11221 N 1053.89 1.57202 -0.111913 0
M  V30 11222 C 1055.13 1.96834 0.550967 0
M  V30 11223 C 1055.49 0.993502 1.64297 0
M  V30 11224 O 1056.69 1.27894 2.36425 0
M  V30 11225 C 1054.96 3.40805 1.07641 0
M  V30 11226 S 1056.52 4.02445 1.74881 0
M  V30 11227 H 1053.34 0.688021 0.179298 0
M  V30 11228 H 1055.94 1.94522 -0.195312 0
M  V30 11229 H 1054.64 4.09508 0.270377 0
M  V30 11230 H 1054.18 3.46752 1.85814 0
M  V30 11231 H 1056.19 3.92623 3.03416 0
M  V30 11232 N 1055.36 -0.161842 1.56767 0
M  V30 11233 C 1056.59 -0.896274 1.87034 0
M  V30 11234 C 1057.01 -1.74617 0.699314 0
M  V30 11235 O 1056.37 -1.77861 -0.351435 0
M  V30 11236 C 1056.42 -1.74105 3.15784 0
M  V30 11237 O 1055.52 -2.84372 2.98674 0
M  V30 11238 H 1054.86 -0.250523 0.614926 0
M  V30 11239 H 1057.39 -0.157127 2.03996 0
M  V30 11240 H 1057.4 -2.13907 3.4743 0
M  V30 11241 H 1056.08 -1.11684 4.00624 0
M  V30 11242 H 1054.66 -2.48084 2.78404 0
M  V30 11243 N 1056.84 -1.516 -0.430713 0
M  V30 11244 C 1058.12 -1.55142 -1.19123 0
M  V30 11245 C 1058.5 -0.319596 -2.08667 0
M  V30 11246 O 1057.85 0.694927 -2.17676 0
M  V30 11247 C 1058.06 -2.86891 -1.98732 0
M  V30 11248 C 1059.4 -3.39089 -2.55546 0
M  V30 11249 O 1060.43 -2.88486 -2.08936 0
M  V30 11250 O 1059.29 -4.27401 -3.40574 0
M  V30 11251 H 1056.38 -0.624019 -0.542705 0
M  V30 11252 H 1058.93 -1.63917 -0.439244 0
M  V30 11253 H 1057.7 -3.68002 -1.33005 0
M  V30 11254 H 1057.32 -2.81309 -2.80982 0
M  V30 11255 N 1058.32 0.686584 -1.41858 0
M  V30 11256 C 1059.54 1.4802 -1.45275 0
M  V30 11257 C 1059.97 1.87997 -0.0621297 0
M  V30 11258 O 1059.33 1.55226 0.936733 0
M  V30 11259 C 1059.38 2.7133 -2.37513 0
M  V30 11260 O 1058.48 3.69159 -1.83836 0
M  V30 11261 H 1057.82 0.445152 -0.492682 0
M  V30 11262 H 1060.35 0.843161 -1.86419 0
M  V30 11263 H 1060.36 3.19537 -2.53693 0
M  V30 11264 H 1059.04 2.41571 -3.3855 0
M  V30 11265 H 1057.61 3.28134 -1.77151 0
M  V30 11266 N 1059.8 1.27835 0.921735 0
M  V30 11267 C 1061.03 1.17352 1.704 0
M  V30 11268 C 1061.44 -0.268892 1.86875 0
M  V30 11269 O 1060.8 -1.18253 1.39005 0
M  V30 11270 C 1060.85 1.85889 3.10045 0
M  V30 11271 O 1060.57 3.24495 2.94338 0
M  V30 11272 C 1062.07 1.81607 4.04393 0
M  V30 11273 H 1059.29 0.40773 0.532914 0
M  V30 11274 H 1061.83 1.68815 1.15419 0
M  V30 11275 H 1059.99 1.38316 3.61867 0
M  V30 11276 H 1060.4 3.58705 3.82663 0
M  V30 11277 H 1061.88 2.34165 4.99871 0
M  V30 11278 H 1062.35 0.786697 4.32097 0
M  V30 11279 H 1062.96 2.28822 3.58498 0
M  V30 11280 N 1061.28 -1.12907 1.09954 0
M  V30 11281 C 1062.22 -2.20561 0.73863 0
M  V30 11282 C 1063.22 -1.67347 -0.262944 0
M  V30 11283 O 1064.42 -1.79574 -0.123834 0
M  V30 11284 H 1060.8 -0.718823 0.220901 0
M  V30 11285 H 1062.77 -2.4826 1.65559 0
M  V30 11286 C 1061.52 -3.47227 0.181239 0
M  V30 11287 H 1060.84 -3.88516 0.943144 0
M  V30 11288 H 1062.28 -4.23987 -0.0332888 0
M  V30 11289 C 1060.74 -3.18956 -1.08485 0
M  V30 11290 O 1061.27 -3.38224 -2.1672 0
M  V30 11291 N 1059.48 -2.72797 -1.00151 0
M  V30 11292 H 1059.02 -2.57317 -0.120645 0
M  V30 11293 H 1058.98 -2.54256 -1.84935 0
M  V30 11294 N 1062.75 -0.88754 -1.30232 0
M  V30 11295 C 1063.66 -0.360333 -2.31816 0
M  V30 11296 C 1064.68 0.538741 -1.6545 0
M  V30 11297 O 1065.86 0.431246 -1.96729 0
M  V30 11298 C 1062.92 0.414336 -3.44215 0
M  V30 11299 C 1061.98 -0.514799 -4.26202 0
M  V30 11300 C 1061.21 0.222994 -5.33234 0
M  V30 11301 O 1061.44 1.44871 -5.51696 0
M  V30 11302 O 1060.37 -0.428221 -6.00375 0
M  V30 11303 H 1064.2 -1.20279 -2.78867 0
M  V30 11304 H 1061.78 -0.651459 -1.34448 0
M  V30 11305 H 1063.66 0.852859 -4.12679 0
M  V30 11306 H 1062.34 1.23305 -2.99295 0
M  V30 11307 H 1061.25 -1.00219 -3.60426 0
M  V30 11308 H 1062.58 -1.29959 -4.74733 0
M  V30 11309 N 1064.23 1.43628 -0.648757 0
M  V30 11310 C 1065.46 2.05918 -0.167701 0
M  V30 11311 C 1065.87 1.48681 1.17006 0
M  V30 11312 O 1065.21 0.610984 1.73242 0
M  V30 11313 C 1065.28 3.595 0.00265514 0
M  V30 11314 C 1064.94 4.39295 -1.2597 0
M  V30 11315 C 1065.94 4.71643 -2.18743 0
M  V30 11316 C 1063.62 4.79379 -1.50004 0
M  V30 11317 C 1065.62 5.42978 -3.33846 0
M  V30 11318 C 1063.3 5.50459 -2.65401 0
M  V30 11319 C 1064.3 5.82181 -3.57148 0
M  V30 11320 O 1063.99 6.5181 -4.7053 0
M  V30 11321 H 1063.72 0.670619 -0.0851261 0
M  V30 11322 H 1066.27 1.85196 -0.888351 0
M  V30 11323 H 1064.5 3.7878 0.77863 0
M  V30 11324 H 1066.19 4.03503 0.440501 0
M  V30 11325 H 1066.96 4.41199 -2.01416 0
M  V30 11326 H 1062.84 4.54098 -0.794745 0
M  V30 11327 H 1066.38 5.67656 -4.05479 0
M  V30 11328 H 1062.28 5.8032 -2.82664 0
M  V30 11329 H 1063.05 6.7029 -4.69738 0
M  V30 11330 N 1065.71 0.390394 1.52688 0
M  V30 11331 C 1066.64 -0.48838 2.22913 0
M  V30 11332 C 1067.62 -1.06319 1.23025 0
M  V30 11333 O 1068.81 -1.11462 1.52015 0
M  V30 11334 C 1065.93 -1.67612 2.9432 0
M  V30 11335 C 1064.98 -1.22646 4.08485 0
M  V30 11336 S 1065.81 -0.207092 5.35099 0
M  V30 11337 C 1066.97 -1.40058 6.10028 0
M  V30 11338 H 1067.2 0.107949 2.97104 0
M  V30 11339 H 1064.73 0.174588 1.5341 0
M  V30 11340 H 1066.69 -2.35728 3.36069 0
M  V30 11341 H 1065.35 -2.24375 2.19806 0
M  V30 11342 H 1064.55 -2.11331 4.57554 0
M  V30 11343 H 1064.15 -0.624197 3.68754 0
M  V30 11344 H 1066.44 -2.32747 6.36266 0
M  V30 11345 H 1067.38 -0.950804 7.01687 0
M  V30 11346 H 1067.79 -1.61789 5.40818 0
M  V30 11347 N 1067.19 -1.57141 0.120249 0
M  V30 11348 C 1068.47 -1.8677 -0.581075 0
M  V30 11349 C 1068.85 -1.02163 -1.84732 0
M  V30 11350 O 1068.19 -0.100897 -2.28277 0
M  V30 11351 C 1068.4 -3.37923 -0.872316 0
M  V30 11352 C 1069.75 -4.0655 -1.22483 0
M  V30 11353 O 1070.78 -3.42948 -0.962539 0
M  V30 11354 O 1069.63 -5.18821 -1.71717 0
M  V30 11355 H 1066.73 -0.773219 -0.293362 0
M  V30 11356 H 1069.27 -1.68992 0.154846 0
M  V30 11357 H 1068.05 -3.91292 0.0249416 0
M  V30 11358 H 1067.67 -3.61135 -1.66335 0
M  V30 11359 N 1068.67 0.153526 -1.5685 0
M  V30 11360 C 1069.6 1.21906 -1.9291 0
M  V30 11361 C 1070.58 1.4189 -0.794098 0
M  V30 11362 O 1071.76 1.56609 -1.0491 0
M  V30 11363 C 1068.89 2.57908 -2.19548 0
M  V30 11364 C 1067.93 2.54557 -3.42203 0
M  V30 11365 S 1068.77 2.01891 -4.95984 0
M  V30 11366 C 1069.92 3.39635 -5.25737 0
M  V30 11367 H 1070.16 0.911382 -2.82986 0
M  V30 11368 H 1067.69 0.358863 -1.50172 0
M  V30 11369 H 1069.65 3.36177 -2.35575 0
M  V30 11370 H 1068.31 2.85868 -1.30147 0
M  V30 11371 H 1067.5 3.54657 -3.58098 0
M  V30 11372 H 1067.1 1.84393 -3.25385 0
M  V30 11373 H 1069.4 4.35716 -5.18804 0
M  V30 11374 H 1070.34 3.28599 -6.27239 0
M  V30 11375 H 1070.75 3.36469 -4.53265 0
M  V30 11376 N 1070.14 1.51827 0.422667 0
M  V30 11377 C 1071.09 1.74198 1.51406 0
M  V30 11378 C 1072.06 0.584013 1.55494 0
M  V30 11379 O 1073.25 0.820079 1.72277 0
M  V30 11380 C 1070.39 1.88627 2.88988 0
M  V30 11381 C 1069.5 3.16233 2.94314 0
M  V30 11382 C 1068.63 3.21172 4.2311 0
M  V30 11383 C 1067.67 4.43033 4.2236 0
M  V30 11384 N 1066.81 4.4544 5.42704 0
M  V30 11385 H 1071.65 2.67352 1.31632 0
M  V30 11386 H 1069.19 1.32487 0.63919 0
M  V30 11387 H 1071.15 1.94976 3.68837 0
M  V30 11388 H 1069.78 0.988673 3.07287 0
M  V30 11389 H 1068.83 3.19123 2.07039 0
M  V30 11390 H 1070.14 4.06104 2.89623 0
M  V30 11391 H 1069.29 3.26517 5.11343 0
M  V30 11392 H 1068.03 2.29216 4.30478 0
M  V30 11393 H 1067.04 4.37849 3.32518 0
M  V30 11394 H 1068.26 5.3627 4.16643 0
M  V30 11395 H 1066.21 3.56361 5.50766 0
M  V30 11396 H 1066.13 5.29138 5.39953 0
M  V30 11397 H 1067.39 4.54997 6.32928 0
M  V30 11398 N 1071.62 -0.679052 1.4222 0
M  V30 11399 C 1073.03 -1.25953 1.37815 0
M  V30 11400 C 1073.38 -1.96077 0.0693215 0
M  V30 11401 O 1072.51 -1.99765 -0.832047 0
M  V30 11402 C 1073.1 -2.29063 2.49631 0
M  V30 11403 C 1071.66 -2.82647 2.48571 0
M  V30 11404 C 1070.81 -1.56909 2.28637 0
M  V30 11405 H 1073.76 -0.472714 1.51496 0
M  V30 11406 H 1073.78 -3.10708 2.19638 0
M  V30 11407 H 1073.29 -1.77996 3.44876 0
M  V30 11408 H 1071.4 -3.37846 1.57132 0
M  V30 11409 H 1071.51 -3.31952 3.45463 0
M  V30 11410 H 1069.87 -1.83323 1.76819 0
M  V30 11411 H 1070.66 -1.07814 3.25931 0
M  V30 11412 N 1073.1 -1.28322 -0.914942 0
M  V30 11413 C 1074.35 -1.15179 -1.66067 0
M  V30 11414 C 1074.67 0.300279 -1.92674 0
M  V30 11415 O 1073.94 1.20821 -1.54205 0
M  V30 11416 H 1072.52 -0.423264 -0.615513 0
M  V30 11417 H 1075.18 -1.61034 -1.09791 0
M  V30 11418 H 1074.28 -1.69048 -2.62353 0
M  V30 11419 N 1074.58 1.12322 -1.10551 0
M  V30 11420 C 1075.82 1.8413 -0.849932 0
M  V30 11421 C 1076.16 1.83938 0.622946 0
M  V30 11422 O 1075.43 1.28579 1.45937 0
M  V30 11423 C 1075.72 3.31751 -1.40048 0
M  V30 11424 C 1075.57 3.40391 -2.9403 0
M  V30 11425 C 1076.89 4.27543 -1.04379 0
M  V30 11426 H 1074.01 0.668533 -0.310213 0
M  V30 11427 H 1076.65 1.31766 -1.36886 0
M  V30 11428 H 1074.8 3.76475 -0.959102 0
M  V30 11429 H 1076.47 3.04294 -3.46703 0
M  V30 11430 H 1074.71 2.809 -3.30571 0
M  V30 11431 H 1075.38 4.44252 -3.27635 0
M  V30 11432 H 1077.86 3.90951 -1.42466 0
M  V30 11433 H 1076.74 5.2924 -1.4559 0
M  V30 11434 H 1077 4.42075 0.0466316 0
M  V30 11435 N 1076.06 0.894434 1.2976 0
M  V30 11436 C 1077.28 0.5322 2.00455 0
M  V30 11437 C 1077.71 -0.874427 1.66539 0
M  V30 11438 O 1077.06 -1.58113 0.887129 0
M  V30 11439 C 1077.11 0.725264 3.53231 0
M  V30 11440 O 1076.22 -0.224612 4.11788 0
M  V30 11441 H 1075.56 0.208562 0.630395 0
M  V30 11442 H 1078.09 1.20458 1.65382 0
M  V30 11443 H 1078.1 0.627889 4.0314 0
M  V30 11444 H 1076.77 1.75079 3.77253 0
M  V30 11445 H 1075.35 -0.0801361 3.72814 0
M  V30 11446 N 1077.53 -1.43282 0.656365 0
M  V30 11447 C 1078.76 -2.05826 0.178619 0
M  V30 11448 C 1079.17 -1.493 -1.16216 0
M  V30 11449 O 1078.52 -0.620163 -1.72915 0
M  V30 11450 C 1078.58 -3.59496 0.0164101 0
M  V30 11451 C 1078.24 -4.38621 1.28298 0
M  V30 11452 C 1079.24 -4.70477 2.21241 0
M  V30 11453 C 1076.92 -4.78577 1.52544 0
M  V30 11454 C 1078.92 -5.412 3.36721 0
M  V30 11455 C 1076.6 -5.49044 2.68316 0
M  V30 11456 C 1077.6 -5.80279 3.6023 0
M  V30 11457 O 1077.29 -6.49306 4.7398 0
M  V30 11458 H 1077.02 -0.670158 0.0886814 0
M  V30 11459 H 1079.58 -1.84722 0.89816 0
M  V30 11460 H 1077.81 -3.79188 -0.758532 0
M  V30 11461 H 1079.5 -4.03731 -0.419096 0
M  V30 11462 H 1080.26 -4.40125 2.03753 0
M  V30 11463 H 1076.14 -4.5367 0.818816 0
M  V30 11464 H 1079.68 -5.65497 4.08483 0
M  V30 11465 H 1075.58 -5.78813 2.85738 0
M  V30 11466 H 1076.35 -6.67789 4.73286 0
M  V30 11467 N 1079.01 -0.398486 -1.52479 0
M  V30 11468 C 1080.26 0.181019 -2.0199 0
M  V30 11469 C 1080.59 1.45691 -1.28405 0
M  V30 11470 O 1079.87 1.90607 -0.387207 0
M  V30 11471 C 1080.15 0.439587 -3.57407 0
M  V30 11472 C 1080 -0.85223 -4.41653 0
M  V30 11473 C 1081.32 1.2263 -4.2267 0
M  V30 11474 H 1078.44 0.0643164 -0.734188 0
M  V30 11475 H 1081.08 -0.52986 -1.82462 0
M  V30 11476 H 1079.23 1.04516 -3.74177 0
M  V30 11477 H 1080.91 -1.48879 -4.36615 0
M  V30 11478 H 1079.15 -1.46555 -4.08294 0
M  V30 11479 H 1079.82 -0.625839 -5.48441 0
M  V30 11480 H 1082.3 0.713722 -4.09933 0
M  V30 11481 H 1081.17 1.37596 -5.31374 0
M  V30 11482 H 1081.43 2.24403 -3.80914 0
M  V30 11483 N 1080.49 1.57075 -0.12858 0
M  V30 11484 C 1081.74 1.9581 0.527868 0
M  V30 11485 C 1082.07 1.01253 1.65715 0
M  V30 11486 O 1081.35 0.0514853 1.94432 0
M  V30 11487 C 1081.63 3.44406 1.05151 0
M  V30 11488 C 1081.48 4.49737 -0.0750113 0
M  V30 11489 C 1082.8 3.95069 1.9393 0
M  V30 11490 H 1079.92 0.711978 0.19041 0
M  V30 11491 H 1082.56 1.88879 -0.206081 0
M  V30 11492 H 1080.71 3.50443 1.67697 0
M  V30 11493 H 1082.38 4.55793 -0.710685 0
M  V30 11494 H 1080.63 4.27497 -0.736809 0
M  V30 11495 H 1081.3 5.50996 0.332779 0
M  V30 11496 H 1083.77 3.91395 1.41241 0
M  V30 11497 H 1082.65 4.99542 2.27484 0
M  V30 11498 H 1082.91 3.36329 2.86941 0
M  V30 11499 N 1081.97 -0.145205 1.5693 0
M  V30 11500 C 1083.38 -0.705089 1.72874 0
M  V30 11501 C 1083.73 -1.81577 0.743261 0
M  V30 11502 O 1082.86 -2.16214 -0.0897153 0
M  V30 11503 C 1083.45 -1.28578 3.13454 0
M  V30 11504 C 1082.01 -1.79221 3.30994 0
M  V30 11505 C 1081.16 -0.681392 2.68798 0
M  V30 11506 H 1084.11 0.0804798 1.58496 0
M  V30 11507 H 1084.13 -2.15558 3.13552 0
M  V30 11508 H 1083.64 -0.477186 3.85155 0
M  V30 11509 H 1081.74 -2.62642 2.64292 0
M  V30 11510 H 1081.86 -1.91969 4.38959 0
M  V30 11511 H 1080.22 -1.10847 2.29314 0
M  V30 11512 H 1081 0.115786 3.43105 0
M  V30 11513 N 1083.45 -1.52049 -0.414609 0
M  V30 11514 C 1084.68 -1.69679 -1.18392 0
M  V30 11515 C 1085.09 -0.403881 -1.84429 0
M  V30 11516 O 1084.45 0.619636 -1.71659 0
M  V30 11517 C 1084.5 -2.82855 -2.25112 0
M  V30 11518 O 1084.22 -4.07138 -1.61772 0
M  V30 11519 C 1085.72 -3.11948 -3.14965 0
M  V30 11520 H 1082.94 -0.56879 -0.355977 0
M  V30 11521 H 1085.48 -1.9858 -0.488505 0
M  V30 11522 H 1083.64 -2.56488 -2.90332 0
M  V30 11523 H 1084.05 -4.70163 -2.32479 0
M  V30 11524 H 1085.53 -3.94665 -3.85932 0
M  V30 11525 H 1086 -2.25276 -3.77024 0
M  V30 11526 H 1086.61 -3.40059 -2.55421 0
M  V30 11527 N 1084.93 0.6715 -1.42579 0
M  V30 11528 C 1085.87 1.78496 -1.46314 0
M  V30 11529 C 1086.84 1.63091 -0.314743 0
M  V30 11530 O 1088.03 1.83597 -0.519292 0
M  V30 11531 C 1085.17 3.16548 -1.37447 0
M  V30 11532 C 1084.28 3.43216 -2.62348 0
M  V30 11533 C 1083.42 4.71014 -2.456 0
M  V30 11534 C 1082.45 4.90728 -3.65859 0
M  V30 11535 N 1081.59 6.09769 -3.48032 0
M  V30 11536 H 1086.43 1.74638 -2.41466 0
M  V30 11537 H 1083.97 0.852491 -1.19879 0
M  V30 11538 H 1085.93 3.96329 -1.30303 0
M  V30 11539 H 1084.56 3.19522 -0.458891 0
M  V30 11540 H 1083.61 2.57664 -2.79846 0
M  V30 11541 H 1084.92 3.53675 -3.51732 0
M  V30 11542 H 1084.07 5.58892 -2.3606 0
M  V30 11543 H 1082.81 4.62843 -1.53712 0
M  V30 11544 H 1081.82 4.01291 -3.75827 0
M  V30 11545 H 1083.04 5.00741 -4.58732 0
M  V30 11546 H 1080.99 6.02765 -2.58864 0
M  V30 11547 H 1080.91 6.21104 -4.31005 0
M  V30 11548 H 1082.17 7.00317 -3.42311 0
M  V30 11549 N 1086.4 1.28806 0.908124 0
M  V30 11550 C 1087.37 1.13228 1.99279 0
M  V30 11551 C 1088.37 0.0702456 1.60646 0
M  V30 11552 O 1089.56 0.316494 1.71301 0
M  V30 11553 C 1086.69 0.729629 3.33 0
M  V30 11554 H 1087.88 2.09566 2.14528 0
M  V30 11555 H 1085.43 1.11872 1.09153 0
M  V30 11556 H 1086.17 -0.234268 3.23453 0
M  V30 11557 H 1085.95 1.49688 3.62403 0
M  V30 11558 H 1087.44 0.643449 4.12613 0
M  V30 11559 N 1087.88 -1.11734 1.11145 0
M  V30 11560 C 1089.16 -1.79795 0.770261 0
M  V30 11561 C 1089.54 -1.97624 -0.742158 0
M  V30 11562 O 1088.89 -1.55847 -1.67105 0
M  V30 11563 C 1089.1 -3.13684 1.52982 0
M  V30 11564 C 1090.44 -3.88771 1.70711 0
M  V30 11565 O 1091.47 -3.23363 1.49381 0
M  V30 11566 O 1090.33 -5.06134 2.06132 0
M  V30 11567 H 1087.42 -0.778617 0.27872 0
M  V30 11568 H 1089.97 -1.18504 1.2147 0
M  V30 11569 H 1088.74 -2.96043 2.55879 0
M  V30 11570 H 1088.36 -3.82687 1.07873 0
M  V30 11571 N 1089.36 -0.901303 -1.29284 0
M  V30 11572 C 1090.31 -0.378666 -2.27672 0
M  V30 11573 C 1091.28 0.540102 -1.57074 0
M  V30 11574 O 1092.46 0.464997 -1.85047 0
M  V30 11575 C 1089.6 0.38635 -3.42931 0
M  V30 11576 C 1088.71 -0.563496 -4.28309 0
M  V30 11577 C 1087.85 0.218731 -5.30749 0
M  V30 11578 C 1086.89 -0.725536 -6.07785 0
M  V30 11579 N 1086.03 0.0223854 -7.02096 0
M  V30 11580 H 1090.87 -1.22277 -2.71758 0
M  V30 11581 H 1088.4 -0.614302 -1.33659 0
M  V30 11582 H 1090.36 0.845967 -4.08533 0
M  V30 11583 H 1088.99 1.1949 -2.9987 0
M  V30 11584 H 1088.04 -1.14163 -3.62865 0
M  V30 11585 H 1089.35 -1.28623 -4.81931 0
M  V30 11586 H 1088.51 0.739473 -6.02177 0
M  V30 11587 H 1087.25 0.97459 -4.77863 0
M  V30 11588 H 1086.25 -1.25776 -5.3522 0
M  V30 11589 H 1087.48 -1.48075 -6.6276 0
M  V30 11590 H 1085.42 0.760482 -6.51577 0
M  V30 11591 H 1085.34 -0.640408 -7.53283 0
M  V30 11592 H 1086.61 0.523339 -7.77741 0
M  V30 11593 N 1090.84 1.42931 -0.663954 0
M  V30 11594 C 1092.25 1.56098 -0.332496 0
M  V30 11595 C 1092.45 1.64564 1.16279 0
M  V30 11596 O 1091.51 1.6066 1.94794 0
M  V30 11597 C 1092.82 2.81649 -1.05329 0
M  V30 11598 C 1094.37 2.95408 -1.03457 0
M  V30 11599 C 1094.85 4.23805 -1.73647 0
M  V30 11600 N 1096.34 4.30693 -1.70462 0
M  V30 11601 C 1097.07 5.28833 -2.21637 0
M  V30 11602 N 1096.57 6.33189 -2.81147 0
M  V30 11603 N 1098.36 5.20558 -2.12075 0
M  V30 11604 H 1090.51 1.3568 -1.63416 0
M  V30 11605 H 1092.77 0.652361 -0.687844 0
M  V30 11606 H 1092.48 2.81494 -2.10842 0
M  V30 11607 H 1092.35 3.72208 -0.611626 0
M  V30 11608 H 1094.74 2.95097 0.0121936 0
M  V30 11609 H 1094.82 2.06109 -1.51502 0
M  V30 11610 H 1094.47 4.24876 -2.78285 0
M  V30 11611 H 1094.4 5.12019 -1.2306 0
M  V30 11612 H 1096.89 3.55904 -1.27046 0
M  V30 11613 H 1097.2 7.04411 -3.17844 0
M  V30 11614 H 1095.55 6.33781 -2.85212 0
M  V30 11615 H 1098.74 4.3795 -1.6528 0
M  V30 11616 H 1098.91 5.96881 -2.52264 0
M  V30 11617 N 1092.32 0.406567 1.52266 0
M  V30 11618 C 1093.73 0.0573228 1.59497 0
M  V30 11619 C 1093.93 -1.43005 1.41957 0
M  V30 11620 O 1092.99 -2.19659 1.24523 0
M  V30 11621 C 1094.3 0.549947 2.95628 0
M  V30 11622 C 1095.85 0.5077 3.08855 0
M  V30 11623 C 1096.32 0.976792 4.47463 0
M  V30 11624 N 1097.81 0.933508 4.53696 0
M  V30 11625 C 1098.55 1.26769 5.59211 0
M  V30 11626 N 1098.05 1.6732 6.72292 0
M  V30 11627 N 1099.84 1.18782 5.49406 0
M  V30 11628 H 1091.99 1.37468 1.61914 0
M  V30 11629 H 1094.25 0.564562 0.76156 0
M  V30 11630 H 1093.96 1.58943 3.13736 0
M  V30 11631 H 1093.83 -0.0417767 3.77177 0
M  V30 11632 H 1096.22 -0.522728 2.90433 0
M  V30 11633 H 1096.3 1.13545 2.29219 0
M  V30 11634 H 1095.94 2.00554 4.66627 0
M  V30 11635 H 1095.87 0.325885 5.25591 0
M  V30 11636 H 1098.37 0.635333 3.72521 0
M  V30 11637 H 1098.68 1.91137 7.4879 0
M  V30 11638 H 1097.02 1.71221 6.73579 0
M  V30 11639 H 1100.21 0.869906 4.59946 0
M  V30 11640 H 1100.39 1.45157 6.31533 0
M  V30 11641 N 1093.79 -1.57004 0.136909 0
M  V30 11642 C 1095.02 -2.00587 -0.527209 0
M  V30 11643 C 1095.44 -1.01628 -1.58283 0
M  V30 11644 O 1094.8 0.00946934 -1.81298 0
M  V30 11645 C 1094.85 -3.42967 -1.11384 0
M  V30 11646 O 1093.95 -3.46973 -2.22898 0
M  V30 11647 H 1093.3 -0.651155 -0.129976 0
M  V30 11648 H 1095.83 -2.03296 0.230667 0
M  V30 11649 H 1095.84 -3.81555 -1.44499 0
M  V30 11650 H 1094.51 -4.14502 -0.340736 0
M  V30 11651 H 1093.09 -3.20219 -1.91087 0
M  V30 11652 N 1095.27 0.136881 -1.57004 0
M  V30 11653 C 1096.52 0.849031 -1.84172 0
M  V30 11654 C 1096.85 1.80359 -0.720027 0
M  V30 11655 O 1096.13 1.92538 0.275584 0
M  V30 11656 C 1096.41 1.61465 -3.21871 0
M  V30 11657 C 1096.26 0.680902 -4.44616 0
M  V30 11658 C 1097.58 2.57488 -3.56914 0
M  V30 11659 H 1094.7 0.307209 -0.669919 0
M  V30 11660 H 1097.34 0.113862 -1.89659 0
M  V30 11661 H 1095.49 2.24137 -3.17325 0
M  V30 11662 H 1097.16 0.0644094 -4.61255 0
M  V30 11663 H 1095.41 -0.00883629 -4.33799 0
M  V30 11664 H 1096.08 1.25286 -5.37594 0
M  V30 11665 H 1098.55 2.0493 -3.62136 0
M  V30 11666 H 1097.43 3.08101 -4.54274 0
M  V30 11667 H 1097.69 3.39321 -2.83397 0
M  V30 11668 N 1096.75 1.52266 0.40654 0
M  V30 11669 C 1098.17 1.41127 0.745348 0
M  V30 11670 C 1098.37 0.517802 1.94733 0
M  V30 11671 O 1097.42 -0.0154286 2.52495 0
M  V30 11672 C 1098.74 2.83696 0.996859 0
M  V30 11673 C 1100.28 2.93056 1.09942 0
M  V30 11674 C 1100.76 4.36599 1.38367 0
M  V30 11675 N 1102.25 4.39845 1.45226 0
M  V30 11676 C 1102.98 5.47975 1.68852 0
M  V30 11677 N 1102.48 6.66219 1.90065 0
M  V30 11678 N 1104.27 5.35494 1.70888 0
M  V30 11679 H 1096.42 2.08888 -0.384632 0
M  V30 11680 H 1098.69 0.941619 -0.109809 0
M  V30 11681 H 1098.39 3.51208 0.185986 0
M  V30 11682 H 1098.27 3.24895 1.91632 0
M  V30 11683 H 1100.65 2.25723 1.90088 0
M  V30 11684 H 1100.74 2.5531 0.158256 0
M  V30 11685 H 1100.38 5.04492 0.587373 0
M  V30 11686 H 1100.31 4.71883 2.33739 0
M  V30 11687 H 1102.8 3.54611 1.30612 0
M  V30 11688 H 1103.11 7.44408 2.0755 0
M  V30 11689 H 1101.46 6.69279 1.87325 0
M  V30 11690 H 1104.65 4.42093 1.53856 0
M  V30 11691 H 1104.82 6.19837 1.88962 0
M  V30 11692 N 1098.23 -0.663929 1.42933 0
M  V30 11693 C 1099.48 -1.41973 1.43271 0
M  V30 11694 C 1099.79 -1.95518 0.0566103 0
M  V30 11695 O 1101 -2.71428 -0.0625862 0
M  V30 11696 C 1099.45 -2.56882 2.52071 0
M  V30 11697 C 1099.06 -2.0999 3.95737 0
M  V30 11698 C 1100.8 -3.34322 2.61589 0
M  V30 11699 C 1098.71 -3.22046 4.96025 0
M  V30 11700 H 1097.64 -0.5334 0.532917 0
M  V30 11701 H 1100.29 -0.717709 1.68882 0
M  V30 11702 H 1098.67 -3.29504 2.19643 0
M  V30 11703 H 1099.85 -1.44449 4.37574 0
M  V30 11704 H 1098.16 -1.45459 3.90168 0
M  V30 11705 H 1100.76 -4.17796 3.33692 0
M  V30 11706 H 1101.1 -3.8164 1.66302 0
M  V30 11707 H 1101.64 -2.68775 2.93266 0
M  V30 11708 H 1098.38 -2.79708 5.92827 0
M  V30 11709 H 1097.9 -3.86333 4.5881 0
M  V30 11710 H 1099.57 -3.87345 5.1824 0
M  V30 11711 N 1099.71 -1.29285 -0.901281 0
M  V30 11712 C 1100.95 -1.16934 -1.64836 0
M  V30 11713 C 1101.28 0.279826 -1.92982 0
M  V30 11714 O 1100.55 1.19179 -1.55478 0
M  V30 11715 H 1099.13 -0.429768 -0.61099 0
M  V30 11716 H 1101.79 -1.62189 -1.08077 0
M  V30 11717 H 1100.88 -1.71821 -2.60545 0
M  V30 11718 N 1101.18 1.11143 -1.11736 0
M  V30 11719 C 1102.41 1.87285 -0.891007 0
M  V30 11720 C 1102.83 1.79758 0.553971 0
M  V30 11721 O 1102.19 1.16221 1.39149 0
M  V30 11722 C 1102.24 3.33924 -1.36114 0
M  V30 11723 O 1101.34 4.08917 -0.534851 0
M  V30 11724 H 1100.69 0.581418 -0.320701 0
M  V30 11725 H 1103.22 1.40469 -1.4876 0
M  V30 11726 H 1103.23 3.84772 -1.35701 0
M  V30 11727 H 1101.9 3.38719 -2.41334 0
M  V30 11728 H 1100.48 3.67954 -0.605355 0
M  V30 11729 N 1102.66 0.908147 1.28804 0
M  V30 11730 C 1103.89 0.553287 1.99054 0
M  V30 11731 C 1104.3 -0.868455 1.68091 0
M  V30 11732 O 1103.64 -1.58599 0.926939 0
M  V30 11733 C 1103.71 0.675823 3.5309 0
M  V30 11734 C 1103.37 2.06608 4.0763 0
M  V30 11735 C 1104.37 3.03819 4.21889 0
M  V30 11736 C 1102.05 2.37775 4.42457 0
M  V30 11737 C 1104.05 4.30316 4.7022 0
M  V30 11738 C 1101.73 3.64512 4.90484 0
M  V30 11739 C 1102.73 4.60597 5.04321 0
M  V30 11740 O 1102.42 5.85082 5.51302 0
M  V30 11741 H 1102.15 0.210152 0.642504 0
M  V30 11742 H 1104.7 1.22188 1.65104 0
M  V30 11743 H 1102.93 -0.0498253 3.86668 0
M  V30 11744 H 1104.62 0.328884 4.04565 0
M  V30 11745 H 1105.39 2.81057 3.95262 0
M  V30 11746 H 1101.27 1.63742 4.3094 0
M  V30 11747 H 1104.81 5.05318 4.80936 0
M  V30 11748 H 1100.71 3.87101 5.1655 0
M  V30 11749 H 1101.48 5.87791 5.69599 0
M  V30 11750 N 1104.14 -1.42577 0.671525 0
M  V30 11751 C 1105.39 -2.00806 0.189663 0
M  V30 11752 C 1105.7 -1.537 -1.20978 0
M  V30 11753 O 1106.91 -2.04325 -1.78784 0
M  V30 11754 C 1105.36 -3.58744 0.288227 0
M  V30 11755 C 1104.97 -4.14839 1.69152 0
M  V30 11756 C 1106.72 -4.24285 -0.13509 0
M  V30 11757 C 1104.62 -5.65131 1.74302 0
M  V30 11758 H 1103.55 -0.751004 0.067146 0
M  V30 11759 H 1106.2 -1.63338 0.83623 0
M  V30 11760 H 1104.59 -3.937 -0.426175 0
M  V30 11761 H 1105.76 -3.91349 2.43274 0
M  V30 11762 H 1104.08 -3.61738 2.0624 0
M  V30 11763 H 1106.67 -5.34573 -0.116709 0
M  V30 11764 H 1107.02 -3.99527 -1.16977 0
M  V30 11765 H 1107.55 -3.94278 0.528191 0
M  V30 11766 H 1104.29 -5.94682 2.75742 0
M  V30 11767 H 1103.81 -5.90621 1.04531 0
M  V30 11768 H 1105.49 -6.29491 1.49498 0
M  V30 11769 N 1105.62 -0.414636 -1.52048 0
M  V30 11770 C 1106.53 0.414861 -2.30903 0
M  V30 11771 C 1107.54 1.04855 -1.38858 0
M  V30 11772 O 1108.72 1.04886 -1.71933 0
M  V30 11773 C 1105.79 1.51356 -3.11917 0
M  V30 11774 C 1104.85 0.902359 -4.19709 0
M  V30 11775 C 1104.08 1.9487 -4.96852 0
M  V30 11776 O 1104.3 3.16766 -4.74358 0
M  V30 11777 O 1103.24 1.55186 -5.8155 0
M  V30 11778 H 1107.06 -0.228251 -3.02841 0
M  V30 11779 H 1104.65 -0.177704 -1.48339 0
M  V30 11780 H 1106.53 2.15127 -3.62351 0
M  V30 11781 H 1105.2 2.14117 -2.42767 0
M  V30 11782 H 1104.11 0.22721 -3.73409 0
M  V30 11783 H 1105.44 0.318587 -4.91168 0
M  V30 11784 N 1107.1 1.56929 -0.145233 0
M  V30 11785 C 1108.51 1.58196 0.211194 0
M  V30 11786 C 1108.71 1.15941 1.64803 0
M  V30 11787 O 1107.77 0.858888 2.37443 0
M  V30 11788 C 1109.08 3.00665 -0.0459569 0
M  V30 11789 C 1110.63 3.12995 0.0178913 0
M  V30 11790 C 1111.1 4.5751 -0.211905 0
M  V30 11791 N 1112.6 4.62928 -0.158772 0
M  V30 11792 C 1113.33 5.72555 -0.311111 0
M  V30 11793 N 1112.83 6.90838 -0.521074 0
M  V30 11794 N 1114.62 5.61549 -0.248838 0
M  V30 11795 H 1106.77 1.8269 -1.08342 0
M  V30 11796 H 1109.03 0.845514 -0.428731 0
M  V30 11797 H 1108.74 3.35962 -1.0403 0
M  V30 11798 H 1108.61 3.71125 0.674246 0
M  V30 11799 H 1111 2.7754 1.00278 0
M  V30 11800 H 1111.08 2.45025 -0.734612 0
M  V30 11801 H 1110.73 4.93669 -1.19389 0
M  V30 11802 H 1110.66 5.23604 0.560901 0
M  V30 11803 H 1113.15 3.779 -0.00107283 0
M  V30 11804 H 1113.46 7.70248 -0.62747 0
M  V30 11805 H 1111.8 6.92761 -0.557374 0
M  V30 11806 H 1115 4.68022 -0.0855821 0
M  V30 11807 H 1115.17 6.46937 -0.370997 0
M  V30 11808 N 1108.58 -0.128553 1.57075 0
M  V30 11809 C 1109.85 -0.867766 1.75297 0
M  V30 11810 C 1110.23 -1.98508 0.718176 0
M  V30 11811 O 1109.58 -2.2702 -0.259616 0
M  V30 11812 C 1109.79 -1.39326 3.19983 0
M  V30 11813 C 1111.14 -1.84939 3.82208 0
M  V30 11814 O 1112.16 -1.49027 3.23527 0
M  V30 11815 O 1111.02 -2.51227 4.85332 0
M  V30 11816 H 1108.12 -0.411393 0.717415 0
M  V30 11817 H 1110.66 -0.113038 1.69323 0
M  V30 11818 H 1109.43 -0.591172 3.86809 0
M  V30 11819 H 1109.06 -2.21097 3.30457 0
M  V30 11820 N 1110.05 -1.5248 -0.398459 0
M  V30 11821 C 1111.3 -1.67309 -1.1461 0
M  V30 11822 C 1111.63 -0.407095 -1.89885 0
M  V30 11823 O 1110.91 0.594834 -1.85181 0
M  V30 11824 C 1111.19 -2.90204 -2.13198 0
M  V30 11825 C 1111.04 -4.26881 -1.4175 0
M  V30 11826 C 1112.36 -3.08634 -3.13741 0
M  V30 11827 H 1109.48 -0.608853 -0.415292 0
M  V30 11828 H 1112.12 -1.85057 -0.430573 0
M  V30 11829 H 1110.27 -2.75204 -2.74218 0
M  V30 11830 H 1111.95 -4.53631 -0.837676 0
M  V30 11831 H 1110.19 -4.27793 -0.719387 0
M  V30 11832 H 1110.86 -5.08939 -2.1374 0
M  V30 11833 H 1113.34 -3.22603 -2.62805 0
M  V30 11834 H 1112.21 -3.96117 -3.79977 0
M  V30 11835 H 1112.47 -2.22425 -3.82073 0
M  V30 11836 N 1111.53 0.65634 -1.43283 0
M  V30 11837 C 1112.76 1.44408 -1.48168 0
M  V30 11838 C 1113.17 1.88542 -0.0986016 0
M  V30 11839 O 1112.53 1.59298 0.890527 0
M  V30 11840 C 1112.58 2.68111 -2.42484 0
M  V30 11841 O 1112.3 2.25824 -3.75413 0
M  V30 11842 C 1113.8 3.61499 -2.56579 0
M  V30 11843 H 1111.02 0.443731 -0.503333 0
M  V30 11844 H 1113.57 0.804917 -1.87993 0
M  V30 11845 H 1111.72 3.28175 -2.05863 0
M  V30 11846 H 1112.14 3.05839 -4.26102 0
M  V30 11847 H 1113.61 4.44972 -3.26655 0
M  V30 11848 H 1114.09 4.08639 -1.60969 0
M  V30 11849 H 1114.69 3.07319 -2.93998 0
M  V30 11850 N 1113.01 1.29761 0.894412 0
M  V30 11851 C 1114.42 1.16275 1.46072 0
M  V30 11852 C 1114.77 -0.240123 1.94725 0
M  V30 11853 O 1113.9 -1.13606 1.84181 0
M  V30 11854 C 1114.49 2.10471 2.65494 0
M  V30 11855 C 1113.05 2.00992 3.18244 0
M  V30 11856 C 1112.2 2.01094 1.90936 0
M  V30 11857 H 1115.15 1.42169 0.705243 0
M  V30 11858 H 1115.17 1.68003 3.41402 0
M  V30 11859 H 1114.68 3.12566 2.30053 0
M  V30 11860 H 1112.78 1.02005 3.58365 0
M  V30 11861 H 1112.9 2.88916 3.82184 0
M  V30 11862 H 1111.26 1.45764 2.08866 0
M  V30 11863 H 1112.04 3.04902 1.57764 0
M  V30 11864 N 1114.49 -1.10549 1.12324 0
M  V30 11865 C 1115.45 -2.15039 0.793156 0
M  V30 11866 C 1116.45 -1.59651 -0.19192 0
M  V30 11867 O 1117.64 -1.74167 0.0337262 0
M  V30 11868 C 1114.77 -3.40433 0.17842 0
M  V30 11869 H 1115.97 -2.4575 1.71892 0
M  V30 11870 H 1113.52 -1.25892 0.926333 0
M  V30 11871 H 1114.25 -3.15338 -0.757122 0
M  V30 11872 H 1114.04 -3.81921 0.887645 0
M  V30 11873 H 1115.53 -4.17584 -0.0360724 0
M  V30 11874 N 1115.97 -0.914965 -1.28321 0
M  V30 11875 C 1117.21 -0.544639 -1.94208 0
M  V30 11876 C 1117.53 0.916368 -1.72806 0
M  V30 11877 O 1118.73 1.39491 -2.32926 0
M  V30 11878 C 1117.19 -0.923209 -3.47858 0
M  V30 11879 C 1116.8 -2.40403 -3.78035 0
M  V30 11880 C 1118.54 -0.623526 -4.19896 0
M  V30 11881 C 1116.45 -2.72266 -5.25 0
M  V30 11882 H 1115.38 -0.199966 -0.727 0
M  V30 11883 H 1118.03 -1.11405 -1.45812 0
M  V30 11884 H 1116.41 -0.282576 -3.94991 0
M  V30 11885 H 1117.59 -3.09149 -3.41706 0
M  V30 11886 H 1115.9 -2.67429 -3.19172 0
M  V30 11887 H 1118.5 -0.838243 -5.28089 0
M  V30 11888 H 1118.84 0.438721 -4.13982 0
M  V30 11889 H 1119.37 -1.22268 -3.78544 0
M  V30 11890 H 1116.11 -3.77349 -5.35993 0
M  V30 11891 H 1115.63 -2.08157 -5.62522 0
M  V30 11892 H 1117.31 -2.59334 -5.92752 0
M  V30 11893 N 1117.44 1.42219 -0.679077 0
M  V30 11894 C 1118.38 2.28152 0.0468359 0
M  V30 11895 C 1119.35 1.41307 0.804433 0
M  V30 11896 O 1120.54 1.70744 0.798673 0
M  V30 11897 C 1117.67 3.21236 1.07355 0
M  V30 11898 C 1116.71 4.24515 0.411042 0
M  V30 11899 S 1117.54 5.28958 -0.834506 0
M  V30 11900 C 1118.7 6.25608 0.191029 0
M  V30 11901 H 1118.93 2.89371 -0.682045 0
M  V30 11902 H 1116.47 1.47112 -0.468767 0
M  V30 11903 H 1118.42 3.75402 1.66082 0
M  V30 11904 H 1117.09 2.59145 1.7749 0
M  V30 11905 H 1116.28 4.89849 1.1859 0
M  V30 11906 H 1115.88 3.73859 -0.102742 0
M  V30 11907 H 1118.17 6.69323 1.04944 0
M  V30 11908 H 1119.12 7.06806 -0.427959 0
M  V30 11909 H 1119.52 5.61926 0.538422 0
M  V30 11910 N 1118.92 0.422693 1.51826 0
M  V30 11911 C 1119.83 -0.40261 2.31119 0
M  V30 11912 C 1120.85 -1.04117 1.39412 0
M  V30 11913 O 1122.02 -1.03973 1.72486 0
M  V30 11914 C 1119.09 -1.49699 3.12716 0
M  V30 11915 C 1118.15 -0.880088 4.20182 0
M  V30 11916 C 1117.38 -1.92232 4.97878 0
M  V30 11917 O 1117.61 -3.14246 4.76031 0
M  V30 11918 O 1116.54 -1.521 5.82365 0
M  V30 11919 H 1120.37 0.244308 3.02716 0
M  V30 11920 H 1117.95 0.185569 1.48243 0
M  V30 11921 H 1119.83 -2.13202 3.63487 0
M  V30 11922 H 1118.51 -2.12826 2.43899 0
M  V30 11923 H 1117.41 -0.207404 3.73525 0
M  V30 11924 H 1118.75 -0.292535 4.9133 0
M  V30 11925 N 1120.4 -1.5685 0.153553 0
M  V30 11926 C 1121.68 -1.8796 -0.541328 0
M  V30 11927 C 1122.06 -1.06059 -1.82523 0
M  V30 11928 O 1121.4 -0.149295 -2.28012 0
M  V30 11929 C 1121.61 -3.39697 -0.800442 0
M  V30 11930 C 1122.96 -4.09057 -1.13832 0
M  V30 11931 O 1123.99 -3.44913 -0.889578 0
M  V30 11932 O 1122.85 -5.22347 -1.60673 0
M  V30 11933 H 1119.94 -0.779268 -0.276895 0
M  V30 11934 H 1122.49 -1.68626 0.190657 0
M  V30 11935 H 1121.26 -3.91151 0.107935 0
M  V30 11936 H 1120.88 -3.64582 -1.58638 0
M  V30 11937 N 1121.88 0.120221 -1.57141 0
M  V30 11938 C 1123.15 0.858458 -1.75755 0
M  V30 11939 C 1123.53 1.98124 -0.728693 0
M  V30 11940 O 1122.88 2.27155 0.247573 0
M  V30 11941 C 1123.09 1.37627 -3.20718 0
M  V30 11942 C 1124.44 1.82909 -3.83183 0
M  V30 11943 O 1125.46 1.47309 -3.24312 0
M  V30 11944 O 1124.32 2.4865 -4.86657 0
M  V30 11945 H 1121.42 0.407583 -0.719587 0
M  V30 11946 H 1123.96 0.104057 -1.69381 0
M  V30 11947 H 1122.74 0.570651 -3.87117 0
M  V30 11948 H 1122.36 2.19341 -3.31625 0
M  V30 11949 N 1123.36 1.52689 0.390367 0
M  V30 11950 C 1124.27 1.8029 1.50108 0
M  V30 11951 C 1125.28 0.689582 1.59752 0
M  V30 11952 O 1126.46 0.977024 1.76114 0
M  V30 11953 C 1123.52 1.96475 2.85654 0
M  V30 11954 C 1122.58 3.2039 2.85743 0
M  V30 11955 C 1121.82 3.35793 4.14824 0
M  V30 11956 O 1122.04 2.56033 5.09709 0
M  V30 11957 O 1120.97 4.2904 4.22147 0
M  V30 11958 H 1124.8 2.74605 1.29715 0
M  V30 11959 H 1122.39 1.37763 0.578074 0
M  V30 11960 H 1124.27 2.08835 3.66013 0
M  V30 11961 H 1122.94 1.05351 3.06077 0
M  V30 11962 H 1121.85 3.13473 2.0417 0
M  V30 11963 H 1123.18 4.11356 2.70272 0
M  V30 11964 N 1124.83 -0.648732 1.43629 0
M  V30 11965 C 1125.76 -1.77298 1.51947 0
M  V30 11966 C 1126.75 -1.65942 0.373785 0
M  V30 11967 O 1127.93 -1.8497 0.591596 0
M  V30 11968 C 1125.06 -3.15749 1.44638 0
M  V30 11969 C 1124.01 -3.41872 2.57502 0
M  V30 11970 C 1123.34 -4.8017 2.35246 0
M  V30 11971 C 1124.64 -3.36173 3.99731 0
M  V30 11972 H 1126.33 -1.70594 2.46045 0
M  V30 11973 H 1123.88 -0.819306 1.1842 0
M  V30 11974 H 1125.83 -3.94156 1.4906 0
M  V30 11975 H 1124.56 -3.23194 0.470466 0
M  V30 11976 H 1123.22 -2.65838 2.5244 0
M  V30 11977 H 1122.86 -4.84297 1.35887 0
M  V30 11978 H 1122.56 -4.9861 3.10906 0
M  V30 11979 H 1124.09 -5.6083 2.41459 0
M  V30 11980 H 1125.5 -4.0451 4.06257 0
M  V30 11981 H 1123.9 -3.66148 4.75453 0
M  V30 11982 H 1124.97 -2.34277 4.24549 0
M  V30 11983 N 1126.31 -1.30234 -0.887518 0
M  V30 11984 C 1127.28 -1.16384 -1.97452 0
M  V30 11985 C 1128.28 -0.0957942 -1.60514 0
M  V30 11986 O 1129.47 -0.343706 -1.70776 0
M  V30 11987 C 1126.6 -0.782514 -3.31797 0
M  V30 11988 H 1127.79 -2.12952 -2.11167 0
M  V30 11989 H 1125.34 -1.13594 -1.07359 0
M  V30 11990 H 1126.08 0.18278 -3.23785 0
M  V30 11991 H 1125.86 -1.55434 -3.59976 0
M  V30 11992 H 1127.35 -0.709011 -4.11537 0
M  V30 11993 N 1127.79 1.09952 -1.12909 0
M  V30 11994 C 1128.72 2.18477 -0.824014 0
M  V30 11995 C 1129.7 1.68744 0.214324 0
M  V30 11996 O 1130.89 1.94057 0.0744281 0
M  V30 11997 C 1128.02 3.46143 -0.283308 0
M  V30 11998 C 1126.97 4.09178 -1.25528 0
M  V30 11999 C 1126.3 5.31604 -0.574574 0
M  V30 12000 C 1127.6 4.52308 -2.6118 0
M  V30 12001 H 1129.29 2.44254 -1.73148 0
M  V30 12002 H 1126.84 1.17394 -0.833952 0
M  V30 12003 H 1128.79 4.21361 -0.057583 0
M  V30 12004 H 1127.51 3.19872 0.659525 0
M  V30 12005 H 1126.17 3.35973 -1.4669 0
M  V30 12006 H 1125.82 5.01611 0.37356 0
M  V30 12007 H 1125.52 5.74732 -1.22299 0
M  V30 12008 H 1127.04 6.0955 -0.358004 0
M  V30 12009 H 1128.46 5.18776 -2.44017 0
M  V30 12010 H 1126.86 5.06302 -3.22147 0
M  V30 12011 H 1127.93 3.64977 -3.19249 0
M  V30 12012 N 1129.27 0.921757 1.27833 0
M  V30 12013 C 1130.55 0.477706 1.89677 0
M  V30 12014 C 1130.93 -1.04392 1.83481 0
M  V30 12015 O 1130.27 -1.89549 1.27606 0
M  V30 12016 C 1130.48 1.01709 3.33851 0
M  V30 12017 C 1131.83 1.074 4.10792 0
M  V30 12018 O 1132.86 0.966295 3.42843 0
M  V30 12019 O 1131.71 1.23909 5.32268 0
M  V30 12020 H 1128.81 0.15271 0.812778 0
M  V30 12021 H 1131.35 1.01306 1.36144 0
M  V30 12022 H 1130.13 2.061 3.32623 0
M  V30 12023 H 1129.75 0.463031 3.94895 0
M  V30 12024 N 1130.75 -1.41857 0.686609 0
M  V30 12025 C 1131.68 -2.33481 0.0298353 0
M  V30 12026 C 1132.66 -1.51329 -0.776756 0
M  V30 12027 O 1133.84 -1.79895 -0.731535 0
M  V30 12028 C 1130.97 -3.35065 -0.913707 0
M  V30 12029 C 1129.93 -4.2746 -0.214861 0
M  V30 12030 C 1129.25 -5.19346 -1.27215 0
M  V30 12031 C 1130.55 -5.14252 0.913367 0
M  V30 12032 H 1132.25 -2.8865 0.795067 0
M  V30 12033 H 1129.79 -1.38792 0.383785 0
M  V30 12034 H 1131.75 -3.98082 -1.38234 0
M  V30 12035 H 1130.47 -2.78226 -1.7105 0
M  V30 12036 H 1129.13 -3.65855 0.233651 0
M  V30 12037 H 1128.78 -4.58827 -2.06124 0
M  V30 12038 H 1128.48 -5.81996 -0.80961 0
M  V30 12039 H 1130 -5.85239 -1.74147 0
M  V30 12040 H 1131.41 -5.70887 0.525424 0
M  V30 12041 H 1129.81 -5.85796 1.30244 0
M  V30 12042 H 1130.88 -4.51949 1.75699 0
M  V30 12043 N 1132.22 -0.430739 -1.51599 0
M  V30 12044 C 1133.13 0.390347 -2.3133 0
M  V30 12045 C 1134.15 1.03376 -1.39962 0
M  V30 12046 O 1135.33 1.03057 -1.73035 0
M  V30 12047 C 1132.39 1.48039 -3.13505 0
M  V30 12048 C 1131.45 0.857792 -4.20643 0
M  V30 12049 C 1130.69 1.89589 -4.9889 0
M  V30 12050 O 1130.91 3.11717 -4.77691 0
M  V30 12051 O 1129.84 1.49009 -5.83164 0
M  V30 12052 H 1133.67 -0.260358 -3.02582 0
M  V30 12053 H 1131.25 -0.193428 -1.48143 0
M  V30 12054 H 1133.14 2.11272 -3.64612 0
M  V30 12055 H 1131.81 2.1153 -2.45024 0
M  V30 12056 H 1130.72 0.187592 -3.73629 0
M  V30 12057 H 1132.05 0.266474 -4.91478 0
M  V30 12058 N 1133.7 1.56767 -0.161869 0
M  V30 12059 C 1134.98 1.88245 0.531352 0
M  V30 12060 C 1135.36 1.07025 1.81958 0
M  V30 12061 O 1134.71 0.161385 2.27929 0
M  V30 12062 C 1134.92 3.40117 0.782416 0
M  V30 12063 C 1136.27 4.09655 1.11661 0
M  V30 12064 O 1137.29 3.4538 0.871274 0
M  V30 12065 O 1136.15 5.23192 1.57901 0
M  V30 12066 H 1133.24 0.780725 0.272759 0
M  V30 12067 H 1135.79 1.68522 -0.199597 0
M  V30 12068 H 1134.56 3.91088 -0.128677 0
M  V30 12069 H 1134.18 3.65418 1.56702 0
M  V30 12070 N 1135.18 -0.111886 1.57202 0
M  V30 12071 C 1136.11 -1.13796 2.03894 0
M  V30 12072 C 1137.09 -1.4277 0.924696 0
M  V30 12073 O 1138.28 -1.53089 1.19488 0
M  V30 12074 C 1135.41 -2.46229 2.44925 0
M  V30 12075 C 1134.36 -2.31702 3.59859 0
M  V30 12076 C 1133.69 -3.69161 3.86813 0
M  V30 12077 C 1134.99 -1.77158 4.91337 0
M  V30 12078 H 1136.68 -0.749581 2.89865 0
M  V30 12079 H 1134.23 -0.359126 1.3945 0
M  V30 12080 H 1136.18 -3.18267 2.76195 0
M  V30 12081 H 1134.9 -2.86971 1.55933 0
M  V30 12082 H 1133.56 -1.62112 3.28809 0
M  V30 12083 H 1133.21 -4.07401 2.95015 0
M  V30 12084 H 1132.91 -3.60292 4.6418 0
M  V30 12085 H 1134.43 -4.42693 4.20542 0
M  V30 12086 H 1135.85 -2.3902 5.21097 0
M  V30 12087 H 1134.25 -1.79091 5.72753 0
M  V30 12088 H 1135.32 -0.729675 4.79379 0
M  V30 12089 N 1136.66 -1.52894 -0.382264 0
M  V30 12090 C 1137.59 -1.81122 -1.47367 0
M  V30 12091 C 1138.57 -0.663653 -1.56619 0
M  V30 12092 O 1139.75 -0.911898 -1.71459 0
M  V30 12093 C 1136.88 -1.98615 -2.84902 0
M  V30 12094 C 1135.84 -3.14328 -2.90485 0
M  V30 12095 C 1135.16 -3.17086 -4.30535 0
M  V30 12096 C 1136.46 -4.53263 -2.59519 0
M  V30 12097 H 1138.16 -2.72518 -1.23993 0
M  V30 12098 H 1135.7 -1.3113 -0.595049 0
M  V30 12099 H 1137.66 -2.16946 -3.61265 0
M  V30 12100 H 1136.38 -1.03915 -3.09628 0
M  V30 12101 H 1135.04 -2.95791 -2.16572 0
M  V30 12102 H 1134.69 -2.20055 -4.52311 0
M  V30 12103 H 1134.39 -3.94821 -4.3519 0
M  V30 12104 H 1135.91 -3.3758 -5.08795 0
M  V30 12105 H 1137.33 -4.71867 -3.25598 0
M  V30 12106 H 1135.72 -5.33115 -2.75514 0
M  V30 12107 H 1136.79 -4.59516 -1.54831 0
M  V30 12108 N 1138.14 0.641106 -1.43971 0
M  V30 12109 C 1139.36 1.43324 -1.4991 0
M  V30 12110 C 1139.79 1.87705 -0.121908 0
M  V30 12111 O 1139.15 1.58127 0.886875 0
M  V30 12112 C 1139.19 2.63637 -2.46025 0
M  V30 12113 O 1138.3 3.63123 -1.95488 0
M  V30 12114 H 1137.64 0.429252 -0.506595 0
M  V30 12115 H 1140.17 0.783427 -1.89007 0
M  V30 12116 H 1140.18 3.11304 -2.63731 0
M  V30 12117 H 1138.85 2.30678 -3.46064 0
M  V30 12118 H 1137.43 3.22332 -1.87501 0
M  V30 12119 N 1139.62 1.30703 0.880598 0
M  V30 12120 C 1140.86 1.19778 1.63277 0
M  V30 12121 C 1141.19 -0.246521 1.92931 0
M  V30 12122 O 1140.45 -1.19226 1.55189 0
M  V30 12123 C 1140.74 1.97628 2.97789 0
M  V30 12124 C 1140.41 3.47213 2.87669 0
M  V30 12125 C 1139.07 3.88004 2.84617 0
M  V30 12126 C 1141.42 4.4245 2.75477 0
M  V30 12127 C 1138.75 5.22315 2.67216 0
M  V30 12128 C 1141.1 5.76874 2.59614 0
M  V30 12129 C 1139.77 6.16898 2.54939 0
M  V30 12130 H 1139.04 0.438298 0.597475 0
M  V30 12131 H 1141.69 1.61853 1.02352 0
M  V30 12132 H 1139.99 1.48201 3.6269 0
M  V30 12133 H 1141.69 1.86563 3.54958 0
M  V30 12134 H 1138.28 3.14802 2.90857 0
M  V30 12135 H 1142.46 4.11875 2.76899 0
M  V30 12136 H 1137.72 5.52412 2.62014 0
M  V30 12137 H 1141.89 6.50304 2.49155 0
M  V30 12138 H 1139.52 7.20916 2.41214 0
M  V30 12139 N 1141.09 -1.09351 1.1349 0
M  V30 12140 C 1142.32 -1.85844 0.92069 0
M  V30 12141 C 1142.74 -1.80616 -0.525303 0
M  V30 12142 O 1142.1 -1.1842 -1.37282 0
M  V30 12143 C 1142.15 -3.31716 1.4141 0
M  V30 12144 O 1141.25 -4.08014 0.599838 0
M  V30 12145 H 1140.59 -0.576242 0.32991 0
M  V30 12146 H 1143.12 -1.38084 1.50976 0
M  V30 12147 H 1143.13 -3.82564 1.41805 0
M  V30 12148 H 1141.81 -3.34837 2.46692 0
M  V30 12149 H 1140.39 -3.66944 0.663816 0
M  V30 12150 N 1142.57 -0.928524 -1.27343 0
M  V30 12151 C 1143.8 -0.584884 -1.98148 0
M  V30 12152 C 1144.21 0.841603 -1.69451 0
M  V30 12153 O 1143.55 1.57104 -0.952053 0
M  V30 12154 C 1143.61 -0.731911 -3.51971 0
M  V30 12155 C 1143.28 -2.13067 -4.04291 0
M  V30 12156 C 1144.28 -3.10492 -4.17002 0
M  V30 12157 C 1141.96 -2.44784 -4.38619 0
M  V30 12158 C 1143.95 -4.37742 -4.63315 0
M  V30 12159 C 1141.64 -3.72269 -4.84622 0
M  V30 12160 C 1142.64 -4.68562 -4.9693 0
M  V30 12161 O 1142.33 -5.93779 -5.41924 0
M  V30 12162 H 1142.06 -0.220347 -0.63908 0
M  V30 12163 H 1144.61 -1.24799 -1.63139 0
M  V30 12164 H 1142.84 -0.0116966 -3.86698 0
M  V30 12165 H 1144.53 -0.393206 -4.03991 0
M  V30 12166 H 1145.3 -2.8731 -3.9074 0
M  V30 12167 H 1141.18 -1.70577 -4.28281 0
M  V30 12168 H 1144.72 -5.12905 -4.72836 0
M  V30 12169 H 1140.62 -3.95269 -5.10326 0
M  V30 12170 H 1141.39 -5.96779 -5.60176 0
M  V30 12171 N 1144.05 1.41491 -0.694123 0
M  V30 12172 C 1144.98 2.29197 0.0112742 0
M  V30 12173 C 1145.99 1.44708 0.745877 0
M  V30 12174 O 1147.18 1.68227 0.596821 0
M  V30 12175 C 1144.28 3.22547 1.04004 0
M  V30 12176 C 1143.46 4.35787 0.375347 0
M  V30 12177 C 1142.52 5.09722 1.30652 0
M  V30 12178 O 1141.54 5.63558 0.799459 0
M  V30 12179 N 1142.74 5.1705 2.63893 0
M  V30 12180 H 1145.51 2.90377 -0.741705 0
M  V30 12181 H 1143.07 1.52628 -0.540039 0
M  V30 12182 H 1145.06 3.68878 1.66468 0
M  V30 12183 H 1143.63 2.62685 1.69456 0
M  V30 12184 H 1142.85 3.91857 -0.429145 0
M  V30 12185 H 1144.14 5.08726 -0.0869041 0
M  V30 12186 H 1143.54 4.74756 3.07609 0
M  V30 12187 H 1142.09 5.66962 3.21555 0
M  V30 12188 N 1145.53 0.438773 1.51369 0
M  V30 12189 C 1146.77 -0.127401 2.02399 0
M  V30 12190 C 1147.11 -1.42235 1.32223 0
M  V30 12191 O 1146.38 -1.89513 0.437607 0
M  V30 12192 C 1146.66 -0.344673 3.58447 0
M  V30 12193 C 1146.52 0.969027 4.39238 0
M  V30 12194 C 1147.84 -1.11381 4.25773 0
M  V30 12195 H 1144.96 -0.0448281 0.735635 0
M  V30 12196 H 1147.6 0.57805 1.80993 0
M  V30 12197 H 1145.75 -0.945582 3.76817 0
M  V30 12198 H 1147.42 1.60403 4.32514 0
M  V30 12199 H 1145.66 1.57329 4.04265 0
M  V30 12200 H 1146.33 0.771029 5.46589 0
M  V30 12201 H 1148.81 -0.604785 4.11681 0
M  V30 12202 H 1147.69 -1.23459 5.34835 0
M  V30 12203 H 1147.95 -2.14225 3.8673 0
M  V30 12204 N 1147.01 -1.56678 0.170181 0
M  V30 12205 C 1147.97 -2.16698 -0.746622 0
M  V30 12206 C 1148.97 -1.11475 -1.15888 0
M  V30 12207 O 1150.16 -1.36994 -1.07602 0
M  V30 12208 C 1147.29 -2.74892 -2.01612 0
M  V30 12209 H 1148.48 -2.99061 -0.224135 0
M  V30 12210 H 1146.04 -1.56098 -0.0793761 0
M  V30 12211 H 1146.77 -1.96259 -2.58172 0
M  V30 12212 H 1146.56 -3.51896 -1.72949 0
M  V30 12213 H 1148.05 -3.21058 -2.67042 0
M  V30 12214 N 1148.48 0.103547 -1.57259 0
M  V30 12215 C 1149.43 1.12621 -2.01458 0
M  V30 12216 C 1150.4 1.40282 -0.889391 0
M  V30 12217 O 1151.59 1.51887 -1.15477 0
M  V30 12218 C 1148.73 2.44352 -2.43692 0
M  V30 12219 C 1147.84 2.23495 -3.69695 0
M  V30 12220 C 1146.97 3.48565 -4.00844 0
M  V30 12221 C 1146.01 3.22932 -5.19982 0
M  V30 12222 N 1145.15 4.40246 -5.46926 0
M  V30 12223 H 1149.99 0.742315 -2.88606 0
M  V30 12224 H 1147.53 0.355016 -1.42752 0
M  V30 12225 H 1149.48 3.2122 -2.66221 0
M  V30 12226 H 1148.11 2.80605 -1.59565 0
M  V30 12227 H 1147.17 1.3747 -3.54692 0
M  V30 12228 H 1148.48 2.0054 -4.56711 0
M  V30 12229 H 1147.63 4.33844 -4.24104 0
M  V30 12230 H 1146.37 3.74565 -3.12333 0
M  V30 12231 H 1145.38 2.36045 -4.96551 0
M  V30 12232 H 1146.6 2.98286 -6.10084 0
M  V30 12233 H 1144.55 4.66338 -4.61373 0
M  V30 12234 H 1144.46 4.20452 -6.28296 0
M  V30 12235 H 1145.73 5.26614 -5.74716 0
M  V30 12236 N 1149.96 1.53094 0.37415 0
M  V30 12237 C 1151.21 1.68527 1.11548 0
M  V30 12238 C 1151.53 0.435253 1.9008 0
M  V30 12239 O 1150.8 -0.550594 1.88003 0
M  V30 12240 H 1149.38 0.621255 0.41479 0
M  V30 12241 H 1152.04 1.90258 0.422844 0
M  V30 12242 H 1151.14 2.54248 1.81009 0
M  V30 12243 N 1151.44 -0.633461 1.44309 0
M  V30 12244 C 1152.37 -1.7583 1.45462 0
M  V30 12245 C 1153.35 -1.59545 0.313723 0
M  V30 12246 O 1154.53 -1.8146 0.51034 0
M  V30 12247 C 1151.66 -3.13375 1.28506 0
M  V30 12248 C 1150.71 -3.48315 2.46128 0
M  V30 12249 S 1151.54 -3.46058 4.08662 0
M  V30 12250 C 1152.7 -4.86226 3.94125 0
M  V30 12251 H 1152.93 -1.74585 2.4064 0
M  V30 12252 H 1150.46 -0.807868 1.31578 0
M  V30 12253 H 1152.42 -3.92748 1.19411 0
M  V30 12254 H 1151.08 -3.12161 0.348432 0
M  V30 12255 H 1150.27 -4.48397 2.30122 0
M  V30 12256 H 1149.88 -2.76399 2.51951 0
M  V30 12257 H 1152.17 -5.75393 3.57671 0
M  V30 12258 H 1153.11 -5.07287 4.9403 0
M  V30 12259 H 1153.52 -4.60691 3.26227 0
M  V30 12260 N 1152.92 -1.31168 -0.873655 0
M  V30 12261 C 1153.88 -1.18471 -1.96207 0
M  V30 12262 C 1154.88 -0.112814 -1.60404 0
M  V30 12263 O 1156.07 -0.3618 -1.70401 0
M  V30 12264 C 1153.2 -0.817662 -3.30949 0
M  V30 12265 H 1154.4 -2.1518 -2.08896 0
M  V30 12266 H 1151.95 -1.14727 -1.06149 0
M  V30 12267 H 1152.68 0.148428 -3.2396 0
M  V30 12268 H 1152.47 -1.59244 -3.58307 0
M  V30 12269 H 1153.96 -0.75262 -4.10762 0
M  V30 12270 N 1154.4 1.08748 -1.14068 0
M  V30 12271 C 1155.64 1.81065 -0.906738 0
M  V30 12272 C 1155.97 1.86057 0.566844 0
M  V30 12273 O 1155.23 1.32976 1.43582 0
M  V30 12274 C 1155.53 3.26734 -1.44843 0
M  V30 12275 C 1155.19 3.41866 -2.94005 0
M  V30 12276 C 1153.85 3.45703 -3.34729 0
M  V30 12277 C 1156.21 3.45831 -3.89937 0
M  V30 12278 C 1153.53 3.51092 -4.70055 0
M  V30 12279 C 1155.89 3.52755 -5.25116 0
M  V30 12280 C 1154.55 3.54863 -5.65357 0
M  V30 12281 H 1153.82 0.662564 -0.331799 0
M  V30 12282 H 1156.47 1.28065 -1.42378 0
M  V30 12283 H 1154.77 3.82419 -0.852239 0
M  V30 12284 H 1156.47 3.81236 -1.2434 0
M  V30 12285 H 1153.06 3.39568 -2.61518 0
M  V30 12286 H 1157.24 3.421 -3.59557 0
M  V30 12287 H 1152.5 3.51015 -5.00598 0
M  V30 12288 H 1156.67 3.54768 -5.9926 0
M  V30 12289 H 1154.3 3.58792 -6.70203 0
M  V30 12290 N 1155.87 0.935264 1.26849 0
M  V30 12291 C 1156.8 0.457776 2.28969 0
M  V30 12292 C 1157.79 -0.48587 1.63013 0
M  V30 12293 O 1158.97 -0.388998 1.90264 0
M  V30 12294 C 1156.1 -0.283332 3.46142 0
M  V30 12295 C 1155.05 0.573196 4.24144 0
M  V30 12296 C 1154.38 -0.297525 5.33872 0
M  V30 12297 C 1155.68 1.84153 4.88759 0
M  V30 12298 H 1157.37 1.31125 2.69159 0
M  V30 12299 H 1154.92 0.631956 1.29392 0
M  V30 12300 H 1156.87 -0.628366 4.16689 0
M  V30 12301 H 1155.6 -1.1709 3.04889 0
M  V30 12302 H 1154.26 0.901043 3.55354 0
M  V30 12303 H 1153.9 -1.18427 4.8886 0
M  V30 12304 H 1153.6 0.272126 5.8697 0
M  V30 12305 H 1155.13 -0.637961 6.07258 0
M  V30 12306 H 1156.54 1.5641 5.51551 0
M  V30 12307 H 1154.94 2.35528 5.51948 0
M  V30 12308 H 1156.01 2.5565 4.12033 0
M  V30 12309 N 1157.35 -1.41121 0.701616 0
M  V30 12310 C 1158.32 -2.29148 0.0490091 0
M  V30 12311 C 1159.32 -1.44679 -0.701763 0
M  V30 12312 O 1160.51 -1.65757 -0.53575 0
M  V30 12313 C 1157.64 -3.2766 -0.940837 0
M  V30 12314 H 1158.83 -2.88354 0.824133 0
M  V30 12315 H 1156.38 -1.49209 0.465457 0
M  V30 12316 H 1157.12 -2.73445 -1.74351 0
M  V30 12317 H 1156.9 -3.89997 -0.405551 0
M  V30 12318 H 1158.39 -3.93609 -1.39507 0
M  V30 12319 N 1158.83 -0.446794 -1.51134 0
M  V30 12320 C 1160.06 0.117242 -2.07068 0
M  V30 12321 C 1160.48 1.34877 -1.3111 0
M  V30 12322 O 1159.84 1.77856 -0.35172 0
M  V30 12323 C 1159.89 0.408616 -3.58277 0
M  V30 12324 O 1158.99 1.49345 -3.84408 0
M  V30 12325 H 1158.33 -0.00228458 -0.663996 0
M  V30 12326 H 1160.86 -0.63085 -1.94632 0
M  V30 12327 H 1160.87 0.656298 -4.02687 0
M  V30 12328 H 1159.55 -0.491444 -4.12986 0
M  V30 12329 H 1158.12 1.23499 -3.51856 0
M  V30 12330 N 1160.31 1.56586 -0.178487 0
M  V30 12331 C 1161.26 2.18309 0.74899 0
M  V30 12332 C 1162.23 1.12525 1.22178 0
M  V30 12333 O 1163.41 1.40706 1.28866 0
M  V30 12334 C 1160.55 2.83353 1.9699 0
M  V30 12335 C 1159.66 4.03618 1.54002 0
M  V30 12336 C 1158.8 4.56567 2.71514 0
M  V30 12337 C 1157.84 5.69226 2.25051 0
M  V30 12338 N 1156.97 6.16654 3.35682 0
M  V30 12339 H 1161.81 2.97217 0.21587 0
M  V30 12340 H 1159.35 1.46794 0.0948182 0
M  V30 12341 H 1161.31 3.19226 2.68609 0
M  V30 12342 H 1159.94 2.07037 2.4766 0
M  V30 12343 H 1158.99 3.73518 0.720298 0
M  V30 12344 H 1160.3 4.85148 1.15901 0
M  V30 12345 H 1159.46 4.94659 3.5128 0
M  V30 12346 H 1158.2 3.7411 3.12879 0
M  V30 12347 H 1157.2 5.30679 1.43734 0
M  V30 12348 H 1158.43 6.5349 1.84736 0
M  V30 12349 H 1156.37 5.37124 3.76609 0
M  V30 12350 H 1156.29 6.93192 3.01697 0
M  V30 12351 H 1157.56 6.59397 4.15711 0
M  V30 12352 N 1161.79 -0.095206 1.57312 0
M  V30 12353 C 1162.73 -1.13438 2.03063 0
M  V30 12354 C 1163.73 -1.41478 0.931679 0
M  V30 12355 O 1164.93 -1.41161 1.11686 0
M  V30 12356 H 1161.31 -0.383042 0.647134 0
M  V30 12357 H 1163.28 -0.722186 2.89529 0
M  V30 12358 C 1162.03 -2.44641 2.47075 0
M  V30 12359 H 1161.35 -2.23908 3.31218 0
M  V30 12360 H 1162.79 -3.15855 2.82863 0
M  V30 12361 C 1161.25 -3.08931 1.34399 0
M  V30 12362 O 1161.78 -3.96021 0.673071 0
M  V30 12363 N 1159.99 -2.6918 1.09501 0
M  V30 12364 H 1159.53 -1.98451 1.6424 0
M  V30 12365 H 1159.49 -3.12522 0.34311 0
M  V30 12366 N 1163.26 -1.53291 -0.366026 0
M  V30 12367 C 1164.5 -1.71153 -1.11741 0
M  V30 12368 C 1164.87 -0.453416 -1.86569 0
M  V30 12369 O 1166.07 -0.508724 -2.63942 0
M  V30 12370 C 1164.34 -2.92657 -2.0515 0
M  V30 12371 S 1165.9 -3.31223 -2.87814 0
M  V30 12372 H 1162.72 -0.602251 -0.377909 0
M  V30 12373 H 1165.32 -1.91391 -0.398721 0
M  V30 12374 H 1164.02 -3.8242 -1.48939 0
M  V30 12375 H 1163.55 -2.7482 -2.81492 0
M  V30 12376 H 1165.57 -2.83201 -4.07445 0
M  V30 12377 N 1164.74 0.6258 -1.44643 0
M  V30 12378 C 1165.99 1.38125 -1.46984 0
M  V30 12379 C 1166.3 1.95299 -0.108429 0
M  V30 12380 O 1167.51 2.71498 -0.00940005 0
M  V30 12381 C 1165.97 2.50108 -2.58793 0
M  V30 12382 C 1165.57 1.99424 -4.01166 0
M  V30 12383 C 1167.32 3.27269 -2.70361 0
M  V30 12384 C 1165.23 3.08781 -5.04389 0
M  V30 12385 H 1164.16 0.519083 -0.546872 0
M  V30 12386 H 1166.81 0.67268 -1.70726 0
M  V30 12387 H 1165.19 3.23565 -2.28302 0
M  V30 12388 H 1166.36 1.32797 -4.4125 0
M  V30 12389 H 1164.68 1.35063 -3.93887 0
M  V30 12390 H 1167.27 4.08802 -3.44652 0
M  V30 12391 H 1167.62 3.77097 -1.76362 0
M  V30 12392 H 1168.15 2.60905 -3.00289 0
M  V30 12393 H 1164.89 2.63891 -6.00035 0
M  V30 12394 H 1164.41 3.74033 -4.68892 0
M  V30 12395 H 1166.09 3.73469 -5.28328 0
M  V30 12396 N 1166.22 1.31629 0.866686 0
M  V30 12397 C 1167.17 1.16149 1.96197 0
M  V30 12398 C 1168.15 0.0716068 1.60741 0
M  V30 12399 O 1169.35 0.296868 1.74493 0
M  V30 12400 C 1166.48 0.874322 3.3198 0
M  V30 12401 C 1165.56 2.00534 3.73693 0
M  V30 12402 N 1165.95 3.25272 3.87339 0
M  V30 12403 C 1164.25 1.90582 4.0323 0
M  V30 12404 C 1164.95 3.99275 4.2303 0
M  V30 12405 N 1163.93 3.27471 4.33894 0
M  V30 12406 H 1167.73 2.10732 2.04864 0
M  V30 12407 H 1165.24 1.23234 1.05769 0
M  V30 12408 H 1167.24 0.7444 4.102 0
M  V30 12409 H 1165.9 -0.0632521 3.24638 0
M  V30 12410 H 1166.91 3.60349 3.71979 0
M  V30 12411 H 1163.59 1.0431 4.0426 0
M  V30 12412 H 1164.98 5.06784 4.41157 0
M  V30 12413 N 1167.7 -1.08142 1.14644 0
M  V30 12414 C 1169.12 -1.32656 0.887388 0
M  V30 12415 C 1169.32 -1.95942 -0.470012 0
M  V30 12416 O 1168.37 -2.21417 -1.21371 0
M  V30 12417 C 1169.68 -2.22549 2.02219 0
M  V30 12418 C 1171.23 -2.36021 2.0558 0
M  V30 12419 C 1171.71 -3.29257 3.18361 0
M  V30 12420 N 1173.2 -3.36835 3.17957 0
M  V30 12421 C 1173.93 -4.09017 4.01862 0
M  V30 12422 N 1173.43 -4.83882 4.95812 0
M  V30 12423 N 1175.22 -4.04875 3.89913 0
M  V30 12424 H 1167.37 -0.654457 2.02066 0
M  V30 12425 H 1169.64 -0.350947 0.880648 0
M  V30 12426 H 1169.34 -1.83296 3.00159 0
M  V30 12427 H 1169.22 -3.23027 1.94765 0
M  V30 12428 H 1171.6 -2.74531 1.08245 0
M  V30 12429 H 1171.68 -1.35275 2.17105 0
M  V30 12430 H 1171.33 -2.91468 4.15944 0
M  V30 12431 H 1171.26 -4.29938 3.04074 0
M  V30 12432 H 1173.75 -2.83465 2.49912 0
M  V30 12433 H 1174.06 -5.3643 5.56294 0
M  V30 12434 H 1172.41 -4.82926 4.99808 0
M  V30 12435 H 1175.6 -3.45496 3.15833 0
M  V30 12436 H 1175.77 -4.60866 4.55529 0
M  V30 12437 N 1169.18 -0.941978 -1.26351 0
M  V30 12438 C 1170.45 -0.507822 -1.88893 0
M  V30 12439 C 1170.83 1.0146 -1.85119 0
M  V30 12440 O 1170.18 1.87495 -1.30606 0
M  V30 12441 C 1170.39 -1.07007 -3.3219 0
M  V30 12442 C 1171.74 -1.13922 -4.09032 0
M  V30 12443 O 1172.76 -1.02072 -3.41262 0
M  V30 12444 O 1171.62 -1.32362 -5.30229 0
M  V30 12445 H 1168.72 -0.165621 -0.810246 0
M  V30 12446 H 1171.26 -1.03459 -1.34515 0
M  V30 12447 H 1170.04 -2.11366 -3.29302 0
M  V30 12448 H 1169.66 -0.525797 -3.94108 0
M  V30 12449 N 1170.66 1.40747 -0.709091 0
M  V30 12450 C 1171.59 2.33404 -0.0669763 0
M  V30 12451 C 1172.57 1.52546 0.752582 0
M  V30 12452 O 1173.75 1.81036 0.702823 0
M  V30 12453 C 1170.88 3.36476 0.860285 0
M  V30 12454 C 1169.84 4.27748 0.146828 0
M  V30 12455 C 1169.16 5.21304 1.18937 0
M  V30 12456 C 1170.46 5.12734 -0.995064 0
M  V30 12457 H 1172.16 2.87349 -0.840888 0
M  V30 12458 H 1169.7 1.38163 -0.405817 0
M  V30 12459 H 1171.65 4.00231 1.31883 0
M  V30 12460 H 1170.38 2.80912 1.66602 0
M  V30 12461 H 1169.04 3.65437 -0.291826 0
M  V30 12462 H 1168.69 4.62048 1.98798 0
M  V30 12463 H 1168.39 5.8321 0.716917 0
M  V30 12464 H 1169.91 5.87936 1.64815 0
M  V30 12465 H 1171.32 5.69979 -0.61618 0
M  V30 12466 H 1169.72 5.83649 -1.39547 0
M  V30 12467 H 1170.79 4.49097 -1.82867 0
M  V30 12468 N 1172.13 0.454803 1.50895 0
M  V30 12469 C 1173.1 -0.336293 2.26719 0
M  V30 12470 C 1174.1 -0.93464 1.30848 0
M  V30 12471 O 1175.29 -0.80636 1.54413 0
M  V30 12472 C 1172.42 -1.47744 3.07221 0
M  V30 12473 H 1173.61 0.328462 2.98096 0
M  V30 12474 H 1171.16 0.208419 1.54904 0
M  V30 12475 H 1171.9 -2.17773 2.40302 0
M  V30 12476 H 1171.68 -1.05438 3.77658 0
M  V30 12477 H 1173.17 -2.03592 3.6461 0
M  V30 12478 N 1173.61 -1.56489 0.186789 0
M  V30 12479 C 1174.57 -2.17478 -0.723596 0
M  V30 12480 C 1175.57 -1.12698 -1.14699 0
M  V30 12481 O 1176.76 -1.38128 -1.06143 0
M  V30 12482 C 1173.9 -2.77015 -1.98685 0
M  V30 12483 H 1175.09 -2.99282 -0.192403 0
M  V30 12484 H 1172.64 -1.56174 -0.0628153 0
M  V30 12485 H 1173.38 -1.98987 -2.56076 0
M  V30 12486 H 1173.16 -3.53711 -1.69207 0
M  V30 12487 H 1174.65 -3.23872 -2.63622 0
M  V30 12488 N 1175.09 0.086862 -1.5736 0
M  V30 12489 C 1176.51 0.441284 -1.53378 0
M  V30 12490 C 1176.71 1.80046 -0.904748 0
M  V30 12491 O 1175.76 2.47484 -0.500781 0
M  V30 12492 C 1177.07 0.3962 -2.98078 0
M  V30 12493 C 1178.62 0.477468 -3.09337 0
M  V30 12494 C 1179.1 0.462448 -4.55659 0
M  V30 12495 N 1180.59 0.522963 -4.60238 0
M  V30 12496 C 1181.32 0.533313 -5.70914 0
M  V30 12497 N 1180.82 0.499376 -6.90998 0
M  V30 12498 N 1182.61 0.578742 -5.59113 0
M  V30 12499 H 1174.76 -0.803308 -1.96623 0
M  V30 12500 H 1177.03 -0.299879 -0.89932 0
M  V30 12501 H 1176.73 -0.535505 -3.47599 0
M  V30 12502 H 1176.61 1.21209 -3.57195 0
M  V30 12503 H 1178.99 1.39959 -2.59799 0
M  V30 12504 H 1179.07 -0.366717 -2.53158 0
M  V30 12505 H 1178.72 -0.455768 -5.05851 0
M  V30 12506 H 1178.65 1.32396 -5.09685 0
M  V30 12507 H 1181.14 0.554051 -3.73816 0
M  V30 12508 H 1181.45 0.510784 -7.7111 0
M  V30 12509 H 1179.8 0.466296 -6.93434 0
M  V30 12510 H 1182.99 0.602841 -4.64202 0
M  V30 12511 H 1183.16 0.583339 -6.45369 0
M  V30 12512 N 1176.57 1.53483 0.357892 0
M  V30 12513 C 1177.52 1.81143 1.45911 0
M  V30 12514 C 1178.51 0.681002 1.55109 0
M  V30 12515 O 1179.72 0.864086 1.57904 0
M  V30 12516 H 1176.09 0.573663 0.486225 0
M  V30 12517 H 1178.06 2.733 1.19789 0
M  V30 12518 C 1176.81 2.02509 2.8264 0
M  V30 12519 H 1176.13 2.88938 2.76324 0
M  V30 12520 H 1177.57 2.25837 3.58851 0
M  V30 12521 C 1176.03 0.806412 3.27106 0
M  V30 12522 O 1176.56 -0.00116809 4.017 0
M  V30 12523 N 1174.77 0.627677 2.8374 0
M  V30 12524 H 1174.32 1.28601 2.23203 0
M  V30 12525 H 1174.27 -0.186301 3.13848 0
M  V30 12526 N 1178.05 -0.61812 1.44973 0
M  V30 12527 C 1179.29 -1.37343 1.47715 0
M  V30 12528 C 1179.61 -1.95239 0.118784 0
M  V30 12529 O 1180.81 -2.7149 0.0237981 0
M  V30 12530 C 1179.27 -2.48732 2.60116 0
M  V30 12531 C 1178.88 -1.97294 4.02218 0
M  V30 12532 C 1180.62 -3.25831 2.72093 0
M  V30 12533 C 1178.53 -3.06102 5.06019 0
M  V30 12534 H 1177.46 -0.516175 0.549617 0
M  V30 12535 H 1180.11 -0.663617 1.7108 0
M  V30 12536 H 1178.49 -3.2235 2.30014 0
M  V30 12537 H 1179.67 -1.30455 4.41948 0
M  V30 12538 H 1177.98 -1.32972 3.94598 0
M  V30 12539 H 1180.58 -4.06968 3.46815 0
M  V30 12540 H 1180.92 -3.76156 1.7836 0
M  V30 12541 H 1181.45 -2.59309 3.01668 0
M  V30 12542 H 1178.19 -2.60706 6.01426 0
M  V30 12543 H 1177.71 -3.71541 4.70869 0
M  V30 12544 H 1179.39 -3.70662 5.30301 0
M  V30 12545 N 1179.52 -1.32087 -0.859693 0
M  V30 12546 C 1180.45 -1.23204 -1.98351 0
M  V30 12547 C 1181.43 -0.116974 -1.69697 0
M  V30 12548 O 1182.62 -0.303301 -1.91817 0
M  V30 12549 C 1179.75 -0.949171 -3.34078 0
M  V30 12550 C 1178.7 -2.02493 -3.77069 0
M  V30 12551 C 1178.03 -1.59455 -5.1037 0
M  V30 12552 C 1179.33 -3.43934 -3.93074 0
M  V30 12553 H 1181.02 -2.17227 -2.0604 0
M  V30 12554 H 1178.57 -1.04577 -0.989931 0
M  V30 12555 H 1180.52 -0.873594 -4.12245 0
M  V30 12556 H 1179.25 0.0267095 -3.26589 0
M  V30 12557 H 1177.91 -2.09057 -3.01149 0
M  V30 12558 H 1177.55 -0.606256 -4.99333 0
M  V30 12559 H 1177.25 -2.31429 -5.40106 0
M  V30 12560 H 1178.78 -1.53325 -5.91036 0
M  V30 12561 H 1180.19 -3.39986 -4.61608 0
M  V30 12562 H 1178.59 -4.14214 -4.3422 0
M  V30 12563 H 1179.66 -3.83965 -2.9614 0
M  V30 12564 N 1181 1.07532 -1.15215 0
M  V30 12565 C 1181.93 2.1668 -0.870171 0
M  V30 12566 C 1182.91 1.69161 0.178483 0
M  V30 12567 O 1184.1 1.94172 0.0332489 0
M  V30 12568 C 1181.23 3.45464 -0.356666 0
M  V30 12569 C 1180.18 4.06424 -1.34179 0
M  V30 12570 C 1179.51 5.30266 -0.687206 0
M  V30 12571 C 1180.81 4.46666 -2.70715 0
M  V30 12572 H 1182.5 2.40526 -1.7829 0
M  V30 12573 H 1180.05 1.15598 -0.858665 0
M  V30 12574 H 1182 4.21144 -0.146947 0
M  V30 12575 H 1180.72 3.21199 0.591527 0
M  V30 12576 H 1179.38 3.32786 -1.53783 0
M  V30 12577 H 1179.03 5.0229 0.267077 0
M  V30 12578 H 1178.73 5.72009 -1.34462 0
M  V30 12579 H 1180.26 6.08653 -0.487218 0
M  V30 12580 H 1181.67 5.13483 -2.54966 0
M  V30 12581 H 1180.07 4.99355 -3.32813 0
M  V30 12582 H 1181.14 3.58123 -3.26919 0
M  V30 12583 N 1182.48 0.948665 1.2585 0
M  V30 12584 C 1183.71 0.617229 1.97479 0
M  V30 12585 C 1184.12 -0.809406 1.7057 0
M  V30 12586 O 1183.48 -1.54066 0.97826 0
M  V30 12587 C 1183.53 0.859065 3.51144 0
M  V30 12588 O 1183.25 2.2296 3.77121 0
M  V30 12589 C 1184.75 0.539197 4.40009 0
M  V30 12590 H 1181.97 0.231933 0.629641 0
M  V30 12591 H 1184.52 1.27141 1.60173 0
M  V30 12592 H 1182.67 0.25138 3.86584 0
M  V30 12593 H 1183.09 2.29524 4.71613 0
M  V30 12594 H 1184.56 0.758986 5.46757 0
M  V30 12595 H 1185.04 -0.526062 4.36038 0
M  V30 12596 H 1185.64 1.12594 4.10125 0
M  V30 12597 N 1183.96 -1.40369 0.716545 0
M  V30 12598 C 1184.91 -2.27963 0.0410169 0
M  V30 12599 C 1185.89 -1.43307 -0.731575 0
M  V30 12600 O 1187.08 -1.66389 -0.603618 0
M  V30 12601 C 1184.21 -3.31849 -0.87927 0
M  V30 12602 C 1183.3 -4.23978 -0.101813 0
M  V30 12603 N 1183.69 -4.97447 0.915437 0
M  V30 12604 C 1181.99 -4.44746 -0.334227 0
M  V30 12605 C 1182.69 -5.65029 1.38266 0
M  V30 12606 N 1181.67 -5.39014 0.704642 0
M  V30 12607 H 1185.47 -2.8221 0.820653 0
M  V30 12608 H 1182.98 -1.52831 0.549217 0
M  V30 12609 H 1184.98 -3.93448 -1.37855 0
M  V30 12610 H 1183.64 -2.79162 -1.65827 0
M  V30 12611 H 1184.65 -5.01414 1.29631 0
M  V30 12612 H 1181.33 -4.03034 -1.08948 0
M  V30 12613 H 1182.72 -6.33886 2.22797 0
M  V30 12614 N 1185.44 -0.462799 -1.50652 0
M  V30 12615 C 1186.68 0.0948568 -2.01877 0
M  V30 12616 C 1187.01 1.4096 -1.34741 0
M  V30 12617 O 1186.28 1.89671 -0.49006 0
M  V30 12618 H 1184.86 0.0380453 -0.746031 0
M  V30 12619 H 1187.52 -0.611327 -1.85064 0
M  V30 12620 H 1186.61 0.252378 -3.11078 0
M  V30 12621 N 1186.91 1.56388 -0.195085 0
M  V30 12622 C 1188.33 1.58788 0.160758 0
M  V30 12623 C 1188.53 1.21125 1.61031 0
M  V30 12624 O 1187.59 0.933994 2.34591 0
M  V30 12625 C 1188.9 3.00366 -0.141588 0
M  V30 12626 C 1190.45 3.12893 -0.0816947 0
M  V30 12627 C 1190.92 4.56604 -0.35735 0
M  V30 12628 N 1192.41 4.62188 -0.305968 0
M  V30 12629 C 1193.15 5.71276 -0.493108 0
M  V30 12630 N 1192.64 6.8883 -0.740595 0
M  V30 12631 N 1194.44 5.60473 -0.427365 0
M  V30 12632 H 1186.59 1.79151 -1.14099 0
M  V30 12633 H 1188.85 0.831446 -0.455413 0
M  V30 12634 H 1188.56 3.32483 -1.14666 0
M  V30 12635 H 1188.43 3.73082 0.555834 0
M  V30 12636 H 1190.82 2.80589 0.913978 0
M  V30 12637 H 1190.9 2.42564 -0.812193 0
M  V30 12638 H 1190.54 4.8962 -1.35034 0
M  V30 12639 H 1190.47 5.25124 0.394036 0
M  V30 12640 H 1192.96 3.77705 -0.121298 0
M  V30 12641 H 1193.28 7.67862 -0.872201 0
M  V30 12642 H 1191.62 6.90637 -0.777488 0
M  V30 12643 H 1194.81 4.67513 -0.234436 0
M  V30 12644 H 1194.99 6.45429 -0.576627 0
M  V30 12645 N 1188.39 -0.0785156 1.57404 0
M  V30 12646 C 1189.64 -0.777722 1.86103 0
M  V30 12647 C 1189.95 -1.79079 0.786771 0
M  V30 12648 O 1191.16 -2.53908 0.961393 0
M  V30 12649 C 1189.62 -1.43407 3.30095 0
M  V30 12650 C 1189.22 -0.459912 4.45633 0
M  V30 12651 C 1190.97 -2.11603 3.68 0
M  V30 12652 C 1188.88 -1.12179 5.80663 0
M  V30 12653 H 1187.81 -0.294205 0.694233 0
M  V30 12654 H 1190.46 -0.0309003 1.83474 0
M  V30 12655 H 1188.84 -2.22892 3.27315 0
M  V30 12656 H 1190.01 0.304642 4.59792 0
M  V30 12657 H 1188.33 0.117242 4.16235 0
M  V30 12658 H 1190.92 -2.61887 4.66175 0
M  V30 12659 H 1191.27 -2.91244 2.9746 0
M  V30 12660 H 1191.8 -1.38958 3.72741 0
M  V30 12661 H 1188.54 -0.365842 6.54478 0
M  V30 12662 H 1188.06 -1.85737 5.70317 0
M  V30 12663 H 1189.74 -1.64355 6.25777 0
M  V30 12664 N 1189.87 -1.5367 -0.349747 0
M  V30 12665 C 1191.1 -1.74547 -1.11089 0
M  V30 12666 C 1191.51 -0.481741 -1.82551 0
M  V30 12667 O 1190.87 0.546272 -1.74132 0
M  V30 12668 C 1190.92 -2.92148 -2.12913 0
M  V30 12669 O 1190.64 -4.13633 -1.44358 0
M  V30 12670 C 1192.14 -3.25027 -3.01451 0
M  V30 12671 H 1189.36 -0.583376 -0.331532 0
M  V30 12672 H 1191.91 -2.00473 -0.403841 0
M  V30 12673 H 1190.06 -2.68572 -2.79192 0
M  V30 12674 H 1190.48 -4.79601 -2.12329 0
M  V30 12675 H 1191.95 -4.10679 -3.68845 0
M  V30 12676 H 1192.43 -2.41064 -3.67131 0
M  V30 12677 H 1193.03 -3.50586 -2.40768 0
M  V30 12678 N 1191.35 0.610423 -1.45298 0
M  V30 12679 C 1192.3 1.7213 -1.53753 0
M  V30 12680 C 1193.27 1.61609 -0.383632 0
M  V30 12681 O 1194.45 1.8123 -0.596694 0
M  V30 12682 C 1191.59 3.10433 -1.50749 0
M  V30 12683 C 1190.7 3.3178 -2.76669 0
M  V30 12684 C 1189.84 4.60173 -2.65356 0
M  V30 12685 C 1188.88 4.74769 -3.86343 0
M  V30 12686 N 1188.01 5.94459 -3.73581 0
M  V30 12687 H 1192.85 1.64239 -2.48655 0
M  V30 12688 H 1190.39 0.800879 -1.23387 0
M  V30 12689 H 1192.35 3.90446 -1.46996 0
M  V30 12690 H 1190.98 3.17288 -0.593998 0
M  V30 12691 H 1190.03 2.45563 -2.90522 0
M  V30 12692 H 1191.34 3.38439 -3.66416 0
M  V30 12693 H 1190.5 5.48377 -2.59553 0
M  V30 12694 H 1189.24 4.55907 -1.73204 0
M  V30 12695 H 1188.24 3.8499 -3.92509 0
M  V30 12696 H 1189.47 4.80834 -4.79557 0
M  V30 12697 H 1187.41 5.91243 -2.84196 0
M  V30 12698 H 1187.33 6.02265 -4.5696 0
M  V30 12699 H 1188.6 6.85168 -3.71705 0
M  V30 12700 N 1192.83 1.32541 0.852676 0
M  V30 12701 C 1194.08 1.22567 1.60188 0
M  V30 12702 C 1194.39 -0.210594 1.94463 0
M  V30 12703 O 1195.59 -0.432214 2.68038 0
M  V30 12704 C 1194.05 2.14678 2.88862 0
M  V30 12705 C 1193.66 3.63398 2.62004 0
M  V30 12706 C 1195.4 2.13545 3.66877 0
M  V30 12707 C 1193.31 4.47464 3.86691 0
M  V30 12708 H 1192.24 0.455184 0.601102 0
M  V30 12709 H 1194.89 1.57515 0.941347 0
M  V30 12710 H 1193.27 1.72647 3.56383 0
M  V30 12711 H 1194.45 4.13783 2.02782 0
M  V30 12712 H 1192.76 3.66681 1.97316 0
M  V30 12713 H 1195.36 2.73589 4.59405 0
M  V30 12714 H 1195.7 1.12694 4.00756 0
M  V30 12715 H 1196.23 2.53866 3.06263 0
M  V30 12716 H 1192.97 5.49136 3.57952 0
M  V30 12717 H 1192.49 4.01829 4.45302 0
M  V30 12718 H 1194.17 4.60565 4.5441 0
M  V30 12719 N 1194.3 -1.0692 1.15784 0
M  V30 12720 C 1195.54 -1.8119 0.946018 0
M  V30 12721 C 1195.91 -1.84899 -0.517338 0
M  V30 12722 O 1197.11 -2.55085 -0.847643 0
M  V30 12723 C 1195.38 -3.22102 1.54871 0
M  V30 12724 S 1196.94 -4.13065 1.48063 0
M  V30 12725 H 1193.76 -0.62424 0.340361 0
M  V30 12726 H 1196.36 -1.28411 1.47414 0
M  V30 12727 H 1195.06 -3.16994 2.60659 0
M  V30 12728 H 1194.59 -3.79956 1.01965 0
M  V30 12729 H 1196.61 -4.93907 0.476517 0
M  V30 12730 N 1195.78 -0.955326 -1.25345 0
M  V30 12731 C 1197.06 -0.527828 -1.88344 0
M  V30 12732 C 1197.44 0.994911 -1.86185 0
M  V30 12733 O 1196.79 1.86099 -1.32587 0
M  V30 12734 C 1197 -1.10525 -3.31037 0
M  V30 12735 C 1198.35 -1.18253 -4.07801 0
M  V30 12736 O 1199.37 -1.05685 -3.4016 0
M  V30 12737 O 1198.23 -1.37978 -5.28795 0
M  V30 12738 H 1195.32 -0.174206 -0.808444 0
M  V30 12739 H 1197.87 -1.0488 -1.3341 0
M  V30 12740 H 1196.64 -2.14847 -3.27042 0
M  V30 12741 H 1196.26 -0.567568 -3.93528 0
M  V30 12742 N 1197.26 1.39987 -0.723979 0
M  V30 12743 C 1198.51 2.00731 -0.267115 0
M  V30 12744 C 1198.84 1.57424 1.14228 0
M  V30 12745 O 1198.09 0.789205 1.79081 0
M  V30 12746 C 1198.39 3.56101 -0.304472 0
M  V30 12747 C 1198.06 4.1902 -1.66533 0
M  V30 12748 C 1196.72 4.3592 -2.03783 0
M  V30 12749 C 1199.07 4.54034 -2.55935 0
M  V30 12750 C 1196.4 4.85119 -3.29964 0
M  V30 12751 C 1198.75 5.04637 -3.81477 0
M  V30 12752 C 1197.41 5.19745 -4.18833 0
M  V30 12753 H 1196.68 0.734525 -0.0977442 0
M  V30 12754 H 1199.33 1.67476 -0.928659 0
M  V30 12755 H 1197.64 3.89314 0.440647 0
M  V30 12756 H 1199.33 4.00944 0.0669875 0
M  V30 12757 H 1195.92 4.0626 -1.36569 0
M  V30 12758 H 1200.11 4.40606 -2.2843 0
M  V30 12759 H 1195.36 4.95001 -3.58865 0
M  V30 12760 H 1199.54 5.30705 -4.50916 0
M  V30 12761 H 1197.16 5.5763 -5.16675 0
M  V30 12762 N 1198.74 0.470782 1.50404 0
M  V30 12763 C 1199.99 -0.0841494 2.01925 0
M  V30 12764 C 1200.31 -1.40244 1.35487 0
M  V30 12765 O 1199.58 -1.89409 0.500111 0
M  V30 12766 H 1198.16 -0.0340884 0.746222 0
M  V30 12767 H 1200.82 0.621133 1.84738 0
M  V30 12768 H 1199.92 -0.235877 3.11207 0
M  V30 12769 N 1200.22 -1.56282 0.203376 0
M  V30 12770 C 1201.15 -2.2247 -0.709183 0
M  V30 12771 C 1202.13 -1.19046 -1.21499 0
M  V30 12772 O 1203.31 -1.47578 -1.26231 0
M  V30 12773 C 1200.44 -2.8905 -1.92529 0
M  V30 12774 C 1199.4 -3.98789 -1.55407 0
M  V30 12775 C 1198.72 -4.52574 -2.84747 0
M  V30 12776 C 1200.02 -5.16774 -0.75775 0
M  V30 12777 H 1201.72 -2.98986 -0.157392 0
M  V30 12778 H 1199.26 -1.43808 -0.0742613 0
M  V30 12779 H 1201.22 -3.34038 -2.56898 0
M  V30 12780 H 1199.94 -2.09952 -2.50175 0
M  V30 12781 H 1198.6 -3.54504 -0.933928 0
M  V30 12782 H 1198.25 -3.70229 -3.40499 0
M  V30 12783 H 1197.95 -5.26627 -2.6065 0
M  V30 12784 H 1199.47 -5.00269 -3.5009 0
M  V30 12785 H 1200.89 -5.58256 -1.30472 0
M  V30 12786 H 1199.28 -5.96945 -0.614583 0
M  V30 12787 H 1200.35 -4.84308 0.239476 0
M  V30 12788 N 1201.7 0.070167 -1.57444 0
M  V30 12789 C 1202.66 1.06761 -2.02817 0
M  V30 12790 C 1203.66 1.31498 -0.925462 0
M  V30 12791 O 1204.85 1.27192 -1.19029 0
M  V30 12792 C 1201.98 2.41086 -2.41019 0
M  V30 12793 H 1203.17 0.67651 -2.9217 0
M  V30 12794 H 1200.73 0.315936 -1.53074 0
M  V30 12795 H 1201.46 2.85025 -1.54697 0
M  V30 12796 H 1201.25 2.24472 -3.21488 0
M  V30 12797 H 1202.74 3.12778 -2.76694 0
M  V30 12798 N 1203.17 1.53854 0.341593 0
M  V30 12799 C 1204.59 1.44161 0.684821 0
M  V30 12800 C 1204.79 0.599929 1.92362 0
M  V30 12801 O 1203.85 0.0916771 2.52334 0
M  V30 12802 C 1205.16 2.87668 0.875637 0
M  V30 12803 C 1206.71 2.97455 0.974131 0
M  V30 12804 C 1207.18 4.42075 1.19725 0
M  V30 12805 N 1208.67 4.45609 1.2644 0
M  V30 12806 C 1209.41 5.54643 1.45459 0
M  V30 12807 N 1208.9 6.7368 1.61637 0
M  V30 12808 N 1210.7 5.4226 1.48022 0
M  V30 12809 H 1202.85 2.07069 -0.472883 0
M  V30 12810 H 1205.11 0.936114 -0.149648 0
M  V30 12811 H 1204.82 3.51681 0.0368595 0
M  V30 12812 H 1204.69 3.32731 1.7768 0
M  V30 12813 H 1207.08 2.33582 1.80343 0
M  V30 12814 H 1207.16 2.55751 0.0498282 0
M  V30 12815 H 1206.8 5.06529 0.372872 0
M  V30 12816 H 1206.73 4.81372 2.13515 0
M  V30 12817 H 1209.22 3.59831 1.15455 0
M  V30 12818 H 1209.54 7.52541 1.7579 0
M  V30 12819 H 1207.88 6.76622 1.5877 0
M  V30 12820 H 1211.07 4.48221 1.34966 0
M  V30 12821 H 1211.25 6.27293 1.62502 0
M  V30 12822 N 1204.65 -0.602709 1.4562 0
M  V30 12823 C 1205.93 -1.36224 1.40366 0
M  V30 12824 C 1206.31 -2.1096 0.0767645 0
M  V30 12825 O 1205.66 -2.08207 -0.941378 0
M  V30 12826 C 1205.87 -2.30499 2.62052 0
M  V30 12827 C 1207.21 -2.92954 3.07348 0
M  V30 12828 O 1208.24 -2.40818 2.62459 0
M  V30 12829 O 1207.1 -3.87601 3.85263 0
M  V30 12830 H 1204.19 -0.611064 0.557253 0
M  V30 12831 H 1206.74 -0.625391 1.57756 0
M  V30 12832 H 1205.51 -1.74566 3.50203 0
M  V30 12833 H 1205.13 -3.11556 2.4702 0
M  V30 12834 N 1206.13 -1.32992 -0.845635 0
M  V30 12835 C 1207.38 -1.23415 -1.59536 0
M  V30 12836 C 1207.69 0.200278 -1.94572 0
M  V30 12837 O 1208.9 0.417993 -2.68263 0
M  V30 12838 C 1207.35 -2.16207 -2.8772 0
M  V30 12839 C 1206.96 -3.64782 -2.60073 0
M  V30 12840 C 1208.71 -2.15488 -3.65739 0
M  V30 12841 C 1206.61 -4.49508 -3.84313 0
M  V30 12842 H 1205.54 -0.458366 -0.598679 0
M  V30 12843 H 1208.19 -1.58012 -0.932981 0
M  V30 12844 H 1206.58 -1.74535 -3.55462 0
M  V30 12845 H 1207.75 -4.14852 -2.00585 0
M  V30 12846 H 1206.06 -3.67723 -1.95369 0
M  V30 12847 H 1208.66 -2.76021 -4.57948 0
M  V30 12848 H 1209 -1.14818 -4.00153 0
M  V30 12849 H 1209.54 -2.55487 -3.04912 0
M  V30 12850 H 1206.28 -5.51027 -3.55035 0
M  V30 12851 H 1205.8 -4.04185 -4.43165 0
M  V30 12852 H 1207.48 -4.62969 -4.51961 0
M  V30 12853 N 1207.61 1.06304 -1.1635 0
M  V30 12854 C 1208.55 2.13776 -0.869965 0
M  V30 12855 C 1209.52 1.65105 0.181541 0
M  V30 12856 O 1210.71 1.90743 0.0467705 0
M  V30 12857 C 1207.85 3.43034 -0.377077 0
M  V30 12858 C 1206.96 4.0544 -1.4914 0
M  V30 12859 C 1206.1 5.22572 -0.953538 0
M  V30 12860 C 1205.14 5.76961 -2.04407 0
M  V30 12861 N 1204.27 6.85409 -1.52181 0
M  V30 12862 H 1209.11 2.38224 -1.79034 0
M  V30 12863 H 1206.65 1.16882 -0.893136 0
M  V30 12864 H 1208.61 4.17136 -0.0729426 0
M  V30 12865 H 1207.24 3.18804 0.506359 0
M  V30 12866 H 1206.29 3.28886 -1.9115 0
M  V30 12867 H 1207.6 4.41859 -2.31434 0
M  V30 12868 H 1206.76 6.037 -0.602579 0
M  V30 12869 H 1205.5 4.87598 -0.099897 0
M  V30 12870 H 1204.5 4.9447 -2.40373 0
M  V30 12871 H 1205.73 6.13987 -2.90167 0
M  V30 12872 H 1203.67 6.52354 -0.690697 0
M  V30 12873 H 1203.59 7.2077 -2.28092 0
M  V30 12874 H 1204.86 7.70217 -1.19942 0
M  V30 12875 N 1209.09 0.96196 1.24836 0
M  V30 12876 C 1210.03 0.479282 2.27609 0
M  V30 12877 C 1211.03 -0.454224 1.63197 0
M  V30 12878 O 1212.23 -0.330146 1.76946 0
M  V30 12879 H 1208.61 0.13651 0.739506 0
M  V30 12880 H 1210.58 1.35817 2.657 0
M  V30 12881 C 1209.33 -0.220499 3.47 0
M  V30 12882 H 1208.65 0.488694 3.96802 0
M  V30 12883 H 1210.09 -0.522137 4.20773 0
M  V30 12884 C 1208.55 -1.44552 3.04313 0
M  V30 12885 O 1209.08 -2.54287 3.10967 0
M  V30 12886 N 1207.29 -1.3095 2.59423 0
M  V30 12887 H 1206.83 -0.416656 2.54208 0
M  V30 12888 H 1206.79 -2.13029 2.31227 0
M  V30 12889 N 1210.56 -1.39601 0.731392 0
M  V30 12890 C 1211.84 -1.94531 0.20422 0
M  V30 12891 C 1212.22 -1.66845 -1.29329 0
M  V30 12892 O 1211.57 -0.994706 -2.05713 0
M  V30 12893 C 1211.78 -3.44891 0.53395 0
M  V30 12894 C 1213.13 -4.21863 0.481298 0
M  V30 12895 O 1214.15 -3.53073 0.470929 0
M  V30 12896 O 1213.01 -5.44452 0.472663 0
M  V30 12897 H 1210.1 -0.826214 0.0360436 0
M  V30 12898 H 1212.65 -1.49121 0.810005 0
M  V30 12899 H 1211.42 -3.58463 1.56907 0
M  V30 12900 H 1211.04 -3.97472 -0.10099 0
M  V30 12901 N 1212.04 -0.478751 -1.50152 0
M  V30 12902 C 1213.27 0.0732929 -2.0727 0
M  V30 12903 C 1213.69 1.32066 -1.33941 0
M  V30 12904 O 1213.05 1.7707 -0.389367 0
M  V30 12905 C 1213.1 0.332528 -3.59064 0
M  V30 12906 O 1212.2 1.41158 -3.8749 0
M  V30 12907 H 1211.54 -0.0163684 -0.663798 0
M  V30 12908 H 1214.07 -0.671993 -1.9325 0
M  V30 12909 H 1214.08 0.570735 -4.03988 0
M  V30 12910 H 1212.76 -0.578934 -4.11851 0
M  V30 12911 H 1211.34 1.16008 -3.54396 0
M  V30 12912 N 1213.52 1.56172 -0.211661 0
M  V30 12913 C 1214.47 2.21206 0.719063 0
M  V30 12914 C 1215.46 1.18835 1.20725 0
M  V30 12915 O 1216.67 1.36939 1.16823 0
M  V30 12916 H 1213.04 0.709129 0.250279 0
M  V30 12917 H 1215.01 2.98038 0.147022 0
M  V30 12918 C 1213.76 2.89826 1.92084 0
M  V30 12919 H 1213.09 3.68351 1.55428 0
M  V30 12920 H 1214.53 3.38744 2.55006 0
M  V30 12921 C 1212.99 1.91756 2.77004 0
M  V30 12922 O 1213.52 1.42826 3.75451 0
M  V30 12923 N 1211.72 1.59622 2.42836 0
M  V30 12924 H 1211.27 1.99606 1.62835 0
M  V30 12925 H 1211.23 0.942641 2.99936 0
M  V30 12926 N 1215 -0.0618163 1.57479 0
M  V30 12927 C 1216.23 -0.770605 1.9169 0
M  V30 12928 C 1216.64 -1.71134 0.806841 0
M  V30 12929 O 1215.98 -1.8228 -0.228002 0
M  V30 12930 C 1216.04 -1.60962 3.21452 0
M  V30 12931 C 1215.71 -0.837193 4.49266 0
M  V30 12932 C 1216.7 -0.151964 5.19678 0
M  V30 12933 C 1214.39 -0.801414 4.95866 0
M  V30 12934 C 1216.38 0.558705 6.34947 0
M  V30 12935 C 1214.07 -0.0869788 6.11038 0
M  V30 12936 C 1215.07 0.591871 6.80431 0
M  V30 12937 O 1214.75 1.29478 7.93405 0
M  V30 12938 H 1214.49 -0.223673 0.637923 0
M  V30 12939 H 1217.04 -0.0333424 2.05373 0
M  V30 12940 H 1215.27 -2.38992 3.04006 0
M  V30 12941 H 1216.96 -2.19799 3.41238 0
M  V30 12942 H 1217.73 -0.170848 4.84699 0
M  V30 12943 H 1213.6 -1.31927 4.4172 0
M  V30 12944 H 1217.15 1.08913 6.89046 0
M  V30 12945 H 1213.05 -0.066057 6.45466 0
M  V30 12946 H 1213.81 1.20507 8.0958 0
M  V30 12947 N 1216.48 -1.54033 -0.333429 0
M  V30 12948 C 1217.72 -1.72019 -1.07411 0
M  V30 12949 C 1218.06 -0.487265 -1.87988 0
M  V30 12950 O 1217.33 0.515757 -1.87537 0
M  V30 12951 C 1217.61 -2.98986 -2.00698 0
M  V30 12952 C 1217.47 -4.32509 -1.23517 0
M  V30 12953 C 1218.79 -3.21663 -3.00368 0
M  V30 12954 H 1215.9 -0.625919 -0.389094 0
M  V30 12955 H 1218.55 -1.86717 -0.351697 0
M  V30 12956 H 1216.7 -2.86586 -2.62298 0
M  V30 12957 H 1218.37 -4.56775 -0.644522 0
M  V30 12958 H 1216.61 -4.3046 -0.537298 0
M  V30 12959 H 1217.28 -5.17547 -1.91962 0
M  V30 12960 H 1219.76 -3.33459 -2.48886 0
M  V30 12961 H 1218.63 -4.11877 -3.62834 0
M  V30 12962 H 1218.9 -2.3843 -3.72295 0
M  V30 12963 N 1217.95 0.594978 -1.45938 0
M  V30 12964 C 1219.2 1.35561 -1.50834 0
M  V30 12965 C 1219.53 1.93584 -0.154566 0
M  V30 12966 O 1218.81 1.75781 0.832541 0
M  V30 12967 C 1219.09 2.49414 -2.5974 0
M  V30 12968 C 1218.94 1.96506 -4.04605 0
M  V30 12969 C 1220.26 3.51505 -2.64825 0
M  V30 12970 H 1217.38 0.491549 -0.549134 0
M  V30 12971 H 1220.02 0.669536 -1.77812 0
M  V30 12972 H 1218.17 3.07939 -2.36866 0
M  V30 12973 H 1219.85 1.42533 -4.38728 0
M  V30 12974 H 1218.09 1.27418 -4.14665 0
M  V30 12975 H 1218.76 2.78636 -4.76515 0
M  V30 12976 H 1221.24 3.02841 -2.85353 0
M  V30 12977 H 1220.11 4.28641 -3.42867 0
M  V30 12978 H 1220.37 4.07942 -1.70399 0
M  V30 12979 N 1219.43 1.33438 0.838571 0
M  V30 12980 C 1220.38 1.23717 1.94841 0
M  V30 12981 C 1221.35 0.11573 1.65696 0
M  V30 12982 O 1222.53 0.294051 1.8852 0
M  V30 12983 C 1219.67 0.982626 3.30815 0
M  V30 12984 C 1218.79 2.19036 3.72354 0
M  V30 12985 C 1217.92 1.86995 4.97199 0
M  V30 12986 C 1216.96 3.03998 5.31274 0
M  V30 12987 N 1216.1 2.71943 6.47295 0
M  V30 12988 H 1220.94 2.18639 2.02487 0
M  V30 12989 H 1218.48 1.08721 0.990861 0
M  V30 12990 H 1220.43 0.81548 4.09152 0
M  V30 12991 H 1219.06 0.0701443 3.22724 0
M  V30 12992 H 1218.12 2.46724 2.89537 0
M  V30 12993 H 1219.43 3.06505 3.93518 0
M  V30 12994 H 1218.58 1.66925 5.83285 0
M  V30 12995 H 1217.32 0.967628 4.78004 0
M  V30 12996 H 1216.33 3.24681 4.43692 0
M  V30 12997 H 1217.55 3.94985 5.52416 0
M  V30 12998 H 1215.5 1.8427 6.29588 0
M  V30 12999 H 1215.41 3.52943 6.68556 0
M  V30 13000 H 1216.68 2.55342 7.36492 0
M  V30 13001 N 1220.91 -1.05686 1.16912 0
M  V30 13002 C 1222.16 -1.78244 0.95254 0
M  V30 13003 C 1222.48 -1.87924 -0.520525 0
M  V30 13004 O 1221.75 -1.39239 -1.37802 0
M  V30 13005 H 1220.33 -0.660228 0.349439 0
M  V30 13006 H 1222.99 -1.27634 1.47294 0
M  V30 13007 H 1222.09 -2.80102 1.37657 0
M  V30 13008 N 1222.39 -0.968567 -1.24324 0
M  V30 13009 C 1223.34 -0.491346 -2.27351 0
M  V30 13010 C 1224.33 0.445563 -1.63435 0
M  V30 13011 O 1225.54 0.320758 -1.77119 0
M  V30 13012 H 1221.91 -0.14043 -0.738772 0
M  V30 13013 H 1223.88 -1.37224 -2.64976 0
M  V30 13014 C 1222.63 0.202093 -3.47112 0
M  V30 13015 H 1221.95 -0.50973 -3.96537 0
M  V30 13016 H 1223.39 0.499815 -4.21044 0
M  V30 13017 C 1221.85 1.42937 -3.05075 0
M  V30 13018 O 1222.38 2.52635 -3.12312 0
M  V30 13019 N 1220.59 1.29572 -2.60114 0
M  V30 13020 H 1220.14 0.403169 -2.54425 0
M  V30 13021 H 1220.09 2.118 -2.32353 0
M  V30 13022 N 1223.87 1.39211 -0.738786 0
M  V30 13023 C 1224.83 2.28937 -0.109746 0
M  V30 13024 C 1225.83 1.46488 0.663157 0
M  V30 13025 O 1227.02 1.67119 0.491614 0
M  V30 13026 C 1224.15 3.30039 0.853633 0
M  V30 13027 H 1225.34 2.86068 -0.900295 0
M  V30 13028 H 1222.9 1.47922 -0.504853 0
M  V30 13029 H 1223.63 2.77971 1.6704 0
M  V30 13030 H 1223.42 3.90935 0.302007 0
M  V30 13031 H 1224.91 3.97169 1.29022 0
M  V30 13032 N 1225.34 0.486708 1.49896 0
M  V30 13033 C 1226.76 0.141788 1.58969 0
M  V30 13034 C 1226.96 -1.35279 1.49338 0
M  V30 13035 O 1226.02 -2.1275 1.35992 0
M  V30 13036 C 1227.33 0.70588 2.92297 0
M  V30 13037 C 1228.88 0.670704 3.0573 0
M  V30 13038 C 1229.35 1.21261 4.41656 0
M  V30 13039 N 1230.84 1.17269 4.4811 0
M  V30 13040 C 1231.58 1.56233 5.51705 0
M  V30 13041 N 1231.07 2.02721 6.62477 0
M  V30 13042 N 1232.87 1.47738 5.42337 0
M  V30 13043 H 1225.02 1.45858 1.544 0
M  V30 13044 H 1227.28 0.604137 0.730563 0
M  V30 13045 H 1226.99 1.7535 3.04869 0
M  V30 13046 H 1226.86 0.158215 3.76868 0
M  V30 13047 H 1229.25 -0.368041 2.92796 0
M  V30 13048 H 1229.33 1.25535 2.22878 0
M  V30 13049 H 1228.97 2.25006 4.5534 0
M  V30 13050 H 1228.9 0.604031 5.23124 0
M  V30 13051 H 1231.39 0.831905 3.6863 0
M  V30 13052 H 1231.71 2.3056 7.37606 0
M  V30 13053 H 1230.05 2.06686 6.63556 0
M  V30 13054 H 1233.24 1.11249 4.54688 0
M  V30 13055 H 1233.42 1.78429 6.2295 0
M  V30 13056 N 1226.82 -1.56058 0.219941 0
M  V30 13057 C 1227.75 -2.2321 -0.685547 0
M  V30 13058 C 1228.73 -1.20328 -1.20229 0
M  V30 13059 O 1229.92 -1.48909 -1.24659 0
M  V30 13060 C 1227.05 -2.91076 -1.89452 0
M  V30 13061 C 1226 -4.00415 -1.51169 0
M  V30 13062 C 1225.33 -4.55569 -2.79931 0
M  V30 13063 C 1226.63 -5.17549 -0.702896 0
M  V30 13064 H 1228.32 -2.99136 -0.125671 0
M  V30 13065 H 1225.87 -1.43879 -0.0590043 0
M  V30 13066 H 1227.82 -3.36744 -2.53341 0
M  V30 13067 H 1226.55 -2.12594 -2.47934 0
M  V30 13068 H 1225.21 -3.55475 -0.896275 0
M  V30 13069 H 1224.85 -3.73819 -3.36553 0
M  V30 13070 H 1224.55 -5.29361 -2.55049 0
M  V30 13071 H 1226.08 -5.03955 -3.44764 0
M  V30 13072 H 1227.49 -5.59608 -1.24544 0
M  V30 13073 H 1225.89 -5.97563 -0.551234 0
M  V30 13074 H 1226.96 -4.84027 0.29083 0
M  V30 13075 N 1228.3 0.053464 -1.57509 0
M  V30 13076 C 1229.71 0.603099 -1.76691 0
M  V30 13077 C 1230.06 1.76934 -0.847861 0
M  V30 13078 O 1229.19 2.16369 -0.0364962 0
M  V30 13079 C 1229.78 1.10084 -3.20417 0
M  V30 13080 C 1228.34 1.59618 -3.4088 0
M  V30 13081 C 1227.49 0.523516 -2.72313 0
M  V30 13082 H 1230.44 -0.172751 -1.57757 0
M  V30 13083 H 1230.46 1.9691 -3.25587 0
M  V30 13084 H 1229.97 0.251818 -3.87282 0
M  V30 13085 H 1228.07 2.46786 -2.79155 0
M  V30 13086 H 1228.19 1.6605 -4.49404 0
M  V30 13087 H 1226.55 0.972886 -2.35387 0
M  V30 13088 H 1227.33 -0.315629 -3.41846 0
M  V30 13089 N 1229.78 1.54207 0.325255 0
M  V30 13090 C 1231.03 1.72587 1.06497 0
M  V30 13091 C 1231.36 0.497228 1.87727 0
M  V30 13092 O 1230.63 -0.505804 1.87808 0
M  V30 13093 C 1230.92 3.00046 1.99109 0
M  V30 13094 C 1230.77 4.33158 1.21221 0
M  V30 13095 C 1232.09 3.23251 2.98658 0
M  V30 13096 H 1229.21 0.627974 0.38577 0
M  V30 13097 H 1231.85 1.869 0.34179 0
M  V30 13098 H 1230 2.87973 2.60775 0
M  V30 13099 H 1231.67 4.57111 0.620289 0
M  V30 13100 H 1229.91 4.30739 0.514462 0
M  V30 13101 H 1230.59 5.18558 1.89214 0
M  V30 13102 H 1233.06 3.34774 2.47114 0
M  V30 13103 H 1231.94 4.13796 3.60645 0
M  V30 13104 H 1232.2 2.40401 3.71026 0
M  V30 13105 N 1231.26 -0.58723 1.46251 0
M  V30 13106 C 1232.2 -1.69662 1.56472 0
M  V30 13107 C 1233.17 -1.60978 0.409294 0
M  V30 13108 O 1234.36 -1.80257 0.625451 0
M  V30 13109 C 1231.5 -3.07996 1.55669 0
M  V30 13110 C 1230.61 -3.27337 2.81913 0
M  V30 13111 C 1229.75 -4.55894 2.72644 0
M  V30 13112 C 1228.79 -4.68562 3.93847 0
M  V30 13113 N 1227.92 -5.8844 3.82991 0
M  V30 13114 H 1232.76 -1.60262 2.51237 0
M  V30 13115 H 1230.3 -0.781148 1.24645 0
M  V30 13116 H 1232.26 -3.88058 1.53189 0
M  V30 13117 H 1230.89 -3.16303 0.6444 0
M  V30 13118 H 1229.94 -2.4091 2.94392 0
M  V30 13119 H 1231.25 -3.32567 3.71754 0
M  V30 13120 H 1230.41 -5.44178 2.68244 0
M  V30 13121 H 1229.15 -4.53094 1.80435 0
M  V30 13122 H 1228.15 -3.78696 3.98584 0
M  V30 13123 H 1229.38 -4.73144 4.87146 0
M  V30 13124 H 1227.32 -5.86647 2.93566 0
M  V30 13125 H 1227.24 -5.94919 4.66484 0
M  V30 13126 H 1228.51 -6.79168 3.82559 0
M  V30 13127 N 1232.74 -1.33881 -0.831482 0
M  V30 13128 C 1233.98 -1.26951 -1.58918 0
M  V30 13129 C 1234.34 0.161359 -1.91722 0
M  V30 13130 O 1233.63 1.1054 -1.56498 0
M  V30 13131 C 1233.82 -2.08544 -2.90249 0
M  V30 13132 C 1233.65 -3.5942 -2.70273 0
M  V30 13133 C 1232.42 -4.28718 -2.67449 0
M  V30 13134 C 1234.62 -4.53599 -2.42388 0
M  V30 13135 N 1232.6 -5.65496 -2.38929 0
M  V30 13136 C 1233.97 -5.7832 -2.23485 0
M  V30 13137 C 1236.03 -4.42605 -2.28046 0
M  V30 13138 C 1234.73 -6.93286 -1.91695 0
M  V30 13139 C 1236.76 -5.57395 -1.97649 0
M  V30 13140 C 1236.12 -6.81129 -1.79563 0
M  V30 13141 H 1232.22 -0.519762 -0.58427 0
M  V30 13142 H 1234.8 -1.68502 -0.97546 0
M  V30 13143 H 1232.97 -1.69302 -3.49559 0
M  V30 13144 H 1234.71 -1.93325 -3.55538 0
M  V30 13145 H 1231.46 -3.81068 -2.81219 0
M  V30 13146 H 1231.88 -6.37619 -2.27532 0
M  V30 13147 H 1236.53 -3.47571 -2.40737 0
M  V30 13148 H 1234.24 -7.88311 -1.7774 0
M  V30 13149 H 1237.83 -5.50828 -1.87296 0
M  V30 13150 H 1236.71 -7.68449 -1.56382 0
M  V30 13151 N 1234.21 1.05064 -1.1747 0
M  V30 13152 C 1235.15 2.12334 -0.836028 0
M  V30 13153 C 1236.12 1.61393 0.197733 0
M  V30 13154 O 1237.31 1.88334 0.0789748 0
M  V30 13155 C 1234.44 3.37796 -0.24734 0
M  V30 13156 C 1233.48 4.07565 -1.25669 0
M  V30 13157 S 1234.31 4.55941 -2.80853 0
M  V30 13158 C 1235.47 5.84648 -2.23468 0
M  V30 13159 H 1235.7 2.40735 -1.74453 0
M  V30 13160 H 1233.24 1.17684 -0.999495 0
M  V30 13161 H 1235.19 4.1041 0.0858241 0
M  V30 13162 H 1233.86 3.07529 0.639124 0
M  V30 13163 H 1233.05 4.97715 -0.793465 0
M  V30 13164 H 1232.65 3.41022 -1.53557 0
M  V30 13165 H 1234.94 6.58067 -1.61104 0
M  V30 13166 H 1235.89 6.35719 -3.11877 0
M  V30 13167 H 1236.29 5.39272 -1.6687 0
M  V30 13168 N 1235.69 0.975146 1.23809 0
M  V30 13169 C 1236.65 0.516157 2.23312 0
M  V30 13170 C 1237.65 -0.39136 1.55965 0
M  V30 13171 O 1238.84 -0.185783 1.73206 0
M  V30 13172 C 1235.98 -0.251534 3.39971 0
M  V30 13173 H 1237.17 1.3959 2.65433 0
M  V30 13174 H 1234.72 0.760493 1.36551 0
M  V30 13175 H 1235.46 -1.14805 3.03299 0
M  V30 13176 H 1235.24 0.399825 3.90056 0
M  V30 13177 H 1236.73 -0.561438 4.13809 0
M  V30 13178 N 1237.17 -1.38817 0.746158 0
M  V30 13179 C 1238.58 -1.83045 0.367629 0
M  V30 13180 C 1238.93 -1.62285 -1.10263 0
M  V30 13181 O 1238.06 -1.12001 -1.85162 0
M  V30 13182 C 1238.65 -3.323 0.660482 0
M  V30 13183 C 1237.21 -3.74903 0.335318 0
M  V30 13184 C 1236.36 -2.61683 0.917446 0
M  V30 13185 H 1239.31 -1.27651 0.94291 0
M  V30 13186 H 1239.33 -3.80446 -0.0639061 0
M  V30 13187 H 1238.84 -3.47377 1.73062 0
M  V30 13188 H 1236.94 -3.65408 -0.728538 0
M  V30 13189 H 1237.06 -4.71932 0.825677 0
M  V30 13190 H 1235.42 -2.52376 0.343316 0
M  V30 13191 H 1236.2 -2.79563 1.99247 0
M  V30 13192 N 1238.65 -0.49465 -1.49636 0
M  V30 13193 C 1239.56 0.291881 -2.32777 0
M  V30 13194 C 1240.57 0.973468 -1.44221 0
M  V30 13195 O 1241.75 0.956252 -1.77251 0
M  V30 13196 C 1238.81 1.34609 -3.19502 0
M  V30 13197 C 1237.88 0.678611 -4.23903 0
M  V30 13198 C 1237.11 1.68259 -5.06483 0
M  V30 13199 O 1237.33 2.91176 -4.90482 0
M  V30 13200 O 1236.27 1.24141 -5.88959 0
M  V30 13201 H 1240.09 -0.388459 -3.01205 0
M  V30 13202 H 1237.68 -0.256086 -1.47189 0
M  V30 13203 H 1239.56 1.95617 -3.73245 0
M  V30 13204 H 1238.23 2.00947 -2.53775 0
M  V30 13205 H 1237.14 0.0289541 -3.74089 0
M  V30 13206 H 1238.47 0.0577817 -4.92166 0
M  V30 13207 N 1240.13 1.55939 -0.228214 0
M  V30 13208 C 1241.35 2.0332 0.409364 0
M  V30 13209 C 1241.78 1.10683 1.52088 0
M  V30 13210 O 1241.13 0.0962484 1.81044 0
M  V30 13211 C 1241.18 3.48877 0.911981 0
M  V30 13212 O 1240.29 3.59378 2.02289 0
M  V30 13213 H 1239.63 0.657625 0.0917909 0
M  V30 13214 H 1242.16 2.01605 -0.348802 0
M  V30 13215 H 1242.17 3.89331 1.22007 0
M  V30 13216 H 1240.84 4.15783 0.0984902 0
M  V30 13217 H 1239.42 3.30815 1.72093 0
M  V30 13218 N 1241.6 -0.0451101 1.57535 0
M  V30 13219 C 1242.85 -0.738072 1.87711 0
M  V30 13220 C 1243.17 -1.7737 0.824579 0
M  V30 13221 O 1244.37 -2.51812 1.01503 0
M  V30 13222 C 1242.83 -1.36373 3.33062 0
M  V30 13223 C 1242.44 -0.365283 4.46508 0
M  V30 13224 C 1244.18 -2.0375 3.72406 0
M  V30 13225 C 1242.09 -0.998371 5.82912 0
M  V30 13226 H 1241.02 -0.279413 0.700317 0
M  V30 13227 H 1243.67 0.00802425 1.83498 0
M  V30 13228 H 1242.05 -2.15899 3.31969 0
M  V30 13229 H 1243.22 0.402102 4.59042 0
M  V30 13230 H 1241.54 0.205505 4.15893 0
M  V30 13231 H 1244.14 -2.51939 4.71625 0
M  V30 13232 H 1244.48 -2.84869 3.03571 0
M  V30 13233 H 1245.01 -1.3102 3.75604 0
M  V30 13234 H 1241.75 -0.226935 6.55107 0
M  V30 13235 H 1241.27 -1.73598 5.74129 0
M  V30 13236 H 1242.95 -1.51044 6.29122 0
M  V30 13237 N 1243.08 -1.54377 -0.317073 0
M  V30 13238 C 1244.33 -1.72893 -1.05424 0
M  V30 13239 C 1244.66 -0.506082 -1.87801 0
M  V30 13240 O 1243.91 0.51213 -1.8888 0
M  V30 13241 C 1244.21 -2.96066 -2.00199 0
M  V30 13242 C 1243.88 -4.30551 -1.33927 0
M  V30 13243 C 1242.54 -4.67112 -1.15584 0
M  V30 13244 C 1244.89 -5.13986 -0.864158 0
M  V30 13245 C 1242.22 -5.84701 -0.483892 0
M  V30 13246 C 1244.57 -6.32264 -0.206006 0
M  V30 13247 C 1243.24 -6.67499 -0.0104849 0
M  V30 13248 H 1242.51 -0.63266 -0.385776 0
M  V30 13249 H 1245.15 -1.88623 -0.330722 0
M  V30 13250 H 1243.46 -2.7505 -2.79024 0
M  V30 13251 H 1245.15 -3.07586 -2.57278 0
M  V30 13252 H 1241.74 -4.0179 -1.49207 0
M  V30 13253 H 1245.93 -4.86252 -0.993635 0
M  V30 13254 H 1241.18 -6.10555 -0.32127 0
M  V30 13255 H 1245.36 -6.96192 0.170108 0
M  V30 13256 H 1242.99 -7.58472 0.512209 0
M  V30 13257 N 1244.56 0.579466 -1.4656 0
M  V30 13258 C 1245.51 1.70937 -1.57744 0
M  V30 13259 C 1246.5 1.6343 -0.44577 0
M  V30 13260 O 1247.71 1.68884 -0.622762 0
M  V30 13261 H 1244.08 0.565218 -0.496017 0
M  V30 13262 H 1246.05 1.58636 -2.52739 0
M  V30 13263 C 1244.8 3.09321 -1.58794 0
M  V30 13264 H 1244.13 3.1577 -2.45213 0
M  V30 13265 H 1245.57 3.88132 -1.70674 0
M  V30 13266 C 1244.03 3.35404 -0.317165 0
M  V30 13267 O 1244.56 3.97325 0.591228 0
M  V30 13268 N 1242.76 2.89883 -0.204071 0
M  V30 13269 H 1242.31 2.39672 -0.944194 0
M  V30 13270 H 1242.27 3.07706 0.645303 0
M  V30 13271 N 1246.04 1.3432 0.824371 0
M  V30 13272 C 1247.28 1.27942 1.59405 0
M  V30 13273 C 1247.64 -0.148961 1.91421 0
M  V30 13274 O 1248.84 -0.336891 2.6668 0
M  V30 13275 C 1247.11 2.14393 2.85955 0
M  V30 13276 S 1248.67 2.25354 3.76512 0
M  V30 13277 H 1245.49 0.454953 0.546387 0
M  V30 13278 H 1248.09 1.69517 0.973873 0
M  V30 13279 H 1246.8 3.17182 2.60429 0
M  V30 13280 H 1246.33 1.7371 3.52971 0
M  V30 13281 H 1248.34 1.42526 4.7529 0
M  V30 13282 N 1247.52 -1.0444 1.18026 0
M  V30 13283 C 1248.76 -1.77838 0.974756 0
M  V30 13284 C 1249.1 -1.87792 -0.494755 0
M  V30 13285 O 1248.37 -1.38327 -1.36733 0
M  V30 13286 C 1248.65 -3.21315 1.62569 0
M  V30 13287 C 1248.51 -3.19327 3.16781 0
M  V30 13288 C 1249.83 -4.19337 1.33583 0
M  V30 13289 H 1246.94 -0.645575 0.35553 0
M  V30 13290 H 1249.59 -1.22023 1.45638 0
M  V30 13291 H 1247.74 -3.68974 1.21617 0
M  V30 13292 H 1249.41 -2.79687 3.66842 0
M  V30 13293 H 1247.65 -2.57461 3.49137 0
M  V30 13294 H 1248.32 -4.20626 3.5746 0
M  V30 13295 H 1250.8 -3.80208 1.69059 0
M  V30 13296 H 1249.67 -5.17953 1.81702 0
M  V30 13297 H 1249.94 -4.41346 0.258016 0
M  V30 13298 N 1248.99 -0.981699 -1.2329 0
M  V30 13299 C 1250.22 -0.668399 -1.95489 0
M  V30 13300 C 1250.63 0.768976 -1.72868 0
M  V30 13301 O 1249.98 1.52925 -1.01783 0
M  V30 13302 C 1250.04 -0.880535 -3.4855 0
M  V30 13303 C 1249.7 -2.30023 -3.9489 0
M  V30 13304 C 1250.7 -3.27899 -4.03458 0
M  V30 13305 C 1248.38 -2.63167 -4.27842 0
M  V30 13306 C 1250.38 -4.56999 -4.44332 0
M  V30 13307 C 1248.06 -3.92489 -4.68397 0
M  V30 13308 C 1249.06 -4.89216 -4.76609 0
M  V30 13309 O 1248.75 -6.16229 -5.16253 0
M  V30 13310 H 1248.48 -0.247255 -0.629159 0
M  V30 13311 H 1251.04 -1.31606 -1.57699 0
M  V30 13312 H 1249.27 -0.175698 -3.86301 0
M  V30 13313 H 1250.96 -0.564198 -4.0196 0
M  V30 13314 H 1251.72 -3.03624 -3.78203 0
M  V30 13315 H 1247.6 -1.88588 -4.20661 0
M  V30 13316 H 1251.14 -5.32498 -4.50656 0
M  V30 13317 H 1247.04 -4.16558 -4.93102 0
M  V30 13318 H 1247.81 -6.20001 -5.34361 0
M  V30 13319 N 1250.47 1.3842 -0.753509 0
M  V30 13320 C 1251.7 2.04403 -0.320449 0
M  V30 13321 C 1252.12 1.5683 1.05118 0
M  V30 13322 O 1251.47 0.741335 1.66765 0
M  V30 13323 C 1251.52 3.59954 -0.333937 0
M  V30 13324 O 1251.24 4.05782 -1.65144 0
M  V30 13325 C 1252.75 4.43156 0.112997 0
M  V30 13326 H 1249.97 0.656881 -0.136927 0
M  V30 13327 H 1252.51 1.77112 -1.02234 0
M  V30 13328 H 1250.66 3.86083 0.319215 0
M  V30 13329 H 1251.08 5.00213 -1.57757 0
M  V30 13330 H 1252.55 5.51975 0.0523995 0
M  V30 13331 H 1253.03 4.23581 1.16087 0
M  V30 13332 H 1253.64 4.22216 -0.511278 0
M  V30 13333 N 1251.95 0.502579 1.49372 0
M  V30 13334 C 1253.2 -0.041381 2.02458 0
M  V30 13335 C 1253.53 -1.36848 1.38213 0
M  V30 13336 O 1252.78 -1.89003 0.507568 0
M  V30 13337 C 1253.08 -0.240835 3.56588 0
M  V30 13338 C 1252.75 1.00846 4.39478 0
M  V30 13339 C 1251.41 1.35091 4.61848 0
M  V30 13340 C 1253.76 1.8388 4.87686 0
M  V30 13341 C 1251.09 2.52318 5.29672 0
M  V30 13342 C 1253.44 3.00262 5.56799 0
M  V30 13343 C 1252.1 3.34885 5.77415 0
M  V30 13344 H 1251.37 -0.0151424 0.740845 0
M  V30 13345 H 1254.02 0.663056 1.79655 0
M  V30 13346 H 1252.33 -1.02781 3.78078 0
M  V30 13347 H 1254.02 -0.676194 3.95258 0
M  V30 13348 H 1250.61 0.731719 4.22308 0
M  V30 13349 H 1254.8 1.58738 4.7023 0
M  V30 13350 H 1250.05 2.79379 5.43836 0
M  V30 13351 H 1254.23 3.64927 5.93128 0
M  V30 13352 H 1251.85 4.25824 6.29744 0
M  V30 13353 N 1253.43 -1.55816 0.23648 0
M  V30 13354 C 1254.34 -2.24576 -0.678439 0
M  V30 13355 C 1255.35 -1.25836 -1.20172 0
M  V30 13356 O 1256.53 -1.58686 -1.24019 0
M  V30 13357 C 1253.6 -2.92376 -1.86325 0
M  V30 13358 C 1252.66 -4.06499 -1.38047 0
M  V30 13359 C 1251.89 -4.71057 -2.50881 0
M  V30 13360 O 1252.11 -4.34652 -3.69369 0
M  V30 13361 O 1251.05 -5.59768 -2.21232 0
M  V30 13362 H 1254.87 -3.03452 -0.122601 0
M  V30 13363 H 1252.46 -1.49399 0.00540803 0
M  V30 13364 H 1254.34 -3.35117 -2.55488 0
M  V30 13365 H 1253.01 -2.16448 -2.40691 0
M  V30 13366 H 1251.92 -3.68296 -0.656422 0
M  V30 13367 H 1253.25 -4.84214 -0.883024 0
M  V30 13368 N 1254.91 0.036755 -1.57557 0
M  V30 13369 C 1256.13 0.744813 -1.93565 0
M  V30 13370 C 1256.56 1.68508 -0.835863 0
M  V30 13371 O 1255.91 1.80091 0.208986 0
M  V30 13372 C 1255.96 1.48461 -3.28621 0
M  V30 13373 O 1255.07 2.59739 -3.20327 0
M  V30 13374 H 1254.41 0.200866 -0.632889 0
M  V30 13375 H 1256.94 -0.00547543 -2.04599 0
M  V30 13376 H 1256.95 1.85622 -3.63329 0
M  V30 13377 H 1255.62 0.794953 -4.08232 0
M  V30 13378 H 1254.2 2.25176 -2.97237 0
M  V30 13379 N 1256.39 1.54543 0.308881 0
M  V30 13380 C 1257.66 1.64118 1.06418 0
M  V30 13381 C 1258.04 0.484402 2.05467 0
M  V30 13382 O 1257.39 -0.519752 2.2251 0
M  V30 13383 C 1257.6 3.01776 1.75306 0
M  V30 13384 C 1258.95 3.58324 2.27792 0
M  V30 13385 O 1259.97 3.04177 1.85351 0
M  V30 13386 O 1258.83 4.53113 3.05533 0
M  V30 13387 H 1255.93 0.665172 0.491401 0
M  V30 13388 H 1258.47 1.66889 0.307598 0
M  V30 13389 H 1257.24 3.77407 1.03341 0
M  V30 13390 H 1256.87 3.02748 2.57739 0
M  V30 13391 N 1257.86 -0.571685 1.46866 0
M  V30 13392 C 1259.11 -1.33145 1.52972 0
M  V30 13393 C 1259.44 -1.93314 0.185344 0
M  V30 13394 O 1258.72 -1.77083 -0.80447 0
M  V30 13395 C 1259 -2.4525 2.63675 0
M  V30 13396 C 1258.85 -1.90044 4.0768 0
M  V30 13397 C 1260.17 -3.47247 2.70384 0
M  V30 13398 H 1257.29 -0.482751 0.556885 0
M  V30 13399 H 1259.93 -0.641163 1.78855 0
M  V30 13400 H 1258.08 -3.04132 2.41735 0
M  V30 13401 H 1259.76 -1.35535 4.4094 0
M  V30 13402 H 1258 -1.20805 4.1664 0
M  V30 13403 H 1258.67 -2.71019 4.80887 0
M  V30 13404 H 1261.15 -2.98263 2.90135 0
M  V30 13405 H 1260.02 -4.23132 3.49643 0
M  V30 13406 H 1260.28 -4.05179 1.76868 0
M  V30 13407 N 1259.34 -1.34755 -0.817236 0
M  V30 13408 C 1260.59 -1.28629 -1.57563 0
M  V30 13409 C 1260.94 0.141015 -1.91883 0
M  V30 13410 O 1260.24 1.08874 -1.57661 0
M  V30 13411 C 1260.43 -2.11611 -2.8802 0
M  V30 13412 C 1260.26 -3.62266 -2.66446 0
M  V30 13413 C 1259.03 -4.3153 -2.62887 0
M  V30 13414 C 1261.23 -4.56145 -2.37564 0
M  V30 13415 N 1259.21 -5.67999 -2.32918 0
M  V30 13416 C 1260.58 -5.80658 -2.17339 0
M  V30 13417 C 1262.63 -4.44999 -2.23339 0
M  V30 13418 C 1261.34 -6.9528 -1.8433 0
M  V30 13419 C 1263.36 -5.5946 -1.91726 0
M  V30 13420 C 1262.73 -6.82995 -1.72329 0
M  V30 13421 H 1258.82 -0.52593 -0.578724 0
M  V30 13422 H 1261.41 -1.69527 -0.957533 0
M  V30 13423 H 1259.58 -1.73 -3.47743 0
M  V30 13424 H 1261.31 -1.97085 -3.53468 0
M  V30 13425 H 1258.07 -3.84029 -2.77162 0
M  V30 13426 H 1258.49 -6.39996 -2.20757 0
M  V30 13427 H 1263.13 -3.50104 -2.37037 0
M  V30 13428 H 1260.85 -7.90152 -1.69369 0
M  V30 13429 H 1264.44 -5.52784 -1.81443 0
M  V30 13430 H 1263.32 -7.70065 -1.48222 0
M  V30 13431 N 1260.82 1.03812 -1.18578 0
M  V30 13432 C 1262.04 1.8124 -1.00831 0
M  V30 13433 C 1262.47 1.82917 0.43853 0
M  V30 13434 O 1261.83 1.24835 1.31476 0
M  V30 13435 C 1261.88 3.24592 -1.57075 0
M  V30 13436 O 1260.98 4.04688 -0.793824 0
M  V30 13437 H 1260.32 0.559846 -0.357028 0
M  V30 13438 H 1262.85 1.30724 -1.57393 0
M  V30 13439 H 1262.86 3.75363 -1.59896 0
M  V30 13440 H 1261.54 3.22686 -2.62387 0
M  V30 13441 H 1260.11 3.63359 -0.838134 0
M  V30 13442 N 1262.3 0.988223 1.22768 0
M  V30 13443 C 1263.53 0.678757 1.95132 0
M  V30 13444 C 1263.94 -0.759797 1.73274 0
M  V30 13445 O 1263.28 -1.52383 1.02592 0
M  V30 13446 C 1263.34 0.899007 3.48078 0
M  V30 13447 C 1263 2.32114 3.93665 0
M  V30 13448 C 1264 3.30034 4.01713 0
M  V30 13449 C 1261.69 2.65432 4.2644 0
M  V30 13450 C 1263.68 4.59349 4.41902 0
M  V30 13451 C 1261.37 3.94967 4.66309 0
M  V30 13452 C 1262.37 4.91737 4.74008 0
M  V30 13453 O 1262.05 6.18958 5.12977 0
M  V30 13454 H 1261.79 0.250588 0.627839 0
M  V30 13455 H 1264.34 1.32441 1.56999 0
M  V30 13456 H 1262.57 0.196182 3.86202 0
M  V30 13457 H 1264.26 0.585507 4.01655 0
M  V30 13458 H 1265.02 3.05626 3.76587 0
M  V30 13459 H 1260.9 1.90816 4.19655 0
M  V30 13460 H 1264.45 5.34881 4.47826 0
M  V30 13461 H 1260.34 4.19168 4.90886 0
M  V30 13462 H 1261.11 6.22826 5.31065 0
M  V30 13463 N 1263.78 -1.38018 0.760839 0
M  V30 13464 C 1265.02 -1.99557 0.319609 0
M  V30 13465 C 1265.34 -1.60699 -1.10457 0
M  V30 13466 O 1264.61 -0.867248 -1.75658 0
M  V30 13467 H 1263.19 -0.738066 0.115182 0
M  V30 13468 H 1265.86 -1.6867 0.976544 0
M  V30 13469 H 1264.95 -3.09672 0.388523 0
M  V30 13470 N 1265.25 -0.510493 -1.49103 0
M  V30 13471 C 1266.5 0.0325393 -2.01674 0
M  V30 13472 C 1266.82 1.37162 -1.39448 0
M  V30 13473 O 1268.02 2.00189 -1.83402 0
M  V30 13474 C 1266.48 0.108433 -3.59737 0
M  V30 13475 C 1266.09 -1.22458 -4.30939 0
M  V30 13476 C 1267.83 0.601326 -4.20219 0
M  V30 13477 C 1265.74 -1.11033 -5.80884 0
M  V30 13478 H 1264.67 0.0159333 -0.753832 0
M  V30 13479 H 1267.32 -0.651344 -1.71551 0
M  V30 13480 H 1265.7 0.856974 -3.86616 0
M  V30 13481 H 1266.87 -1.98715 -4.15751 0
M  V30 13482 H 1265.19 -1.65166 -3.82242 0
M  V30 13483 H 1267.79 0.704462 -5.30039 0
M  V30 13484 H 1268.13 1.60247 -3.84222 0
M  V30 13485 H 1268.66 -0.0909561 -3.97696 0
M  V30 13486 H 1265.4 -2.08603 -6.21422 0
M  V30 13487 H 1264.92 -0.388798 -5.98539 0
M  V30 13488 H 1266.6 -0.792949 -6.42123 0
M  V30 13489 N 1266.73 1.55688 -0.24474 0
M  V30 13490 C 1267.98 1.98891 0.380603 0
M  V30 13491 C 1268.31 1.13283 1.58105 0
M  V30 13492 O 1267.56 0.183141 1.94841 0
M  V30 13493 C 1267.86 3.47487 0.835923 0
M  V30 13494 C 1267.53 4.5017 -0.256528 0
M  V30 13495 C 1266.19 4.7797 -0.556573 0
M  V30 13496 C 1268.54 5.1163 -0.994174 0
M  V30 13497 C 1265.87 5.64508 -1.59838 0
M  V30 13498 C 1268.22 5.99297 -2.02548 0
M  V30 13499 C 1266.88 6.25432 -2.3322 0
M  V30 13500 H 1266.15 0.727794 0.139273 0
M  V30 13501 H 1268.8 1.88235 -0.352113 0
M  V30 13502 H 1267.11 3.55464 1.64781 0
M  V30 13503 H 1268.8 3.78301 1.33001 0
M  V30 13504 H 1265.39 4.28598 -0.0125284 0
M  V30 13505 H 1269.58 4.90202 -0.775617 0
M  V30 13506 H 1264.83 5.83012 -1.84138 0
M  V30 13507 H 1269.01 6.45964 -2.60198 0
M  V30 13508 H 1266.63 6.92282 -3.14085 0
M  V30 13509 N 1268.21 -0.0283989 1.57574 0
M  V30 13510 C 1269.14 -1.02828 2.09639 0
M  V30 13511 C 1270.12 -1.37668 0.999076 0
M  V30 13512 O 1271.31 -1.4654 1.27435 0
M  V30 13513 C 1268.44 -2.329 2.57633 0
M  V30 13514 C 1267.39 -2.12301 3.71635 0
M  V30 13515 C 1266.72 -3.48138 4.05837 0
M  V30 13516 C 1268.02 -1.50864 5.00037 0
M  V30 13517 H 1269.71 -0.594876 2.93431 0
M  V30 13518 H 1267.26 -0.284701 1.41158 0
M  V30 13519 H 1269.21 -3.03179 2.92678 0
M  V30 13520 H 1267.93 -2.78302 1.70926 0
M  V30 13521 H 1266.59 -1.44454 3.3694 0
M  V30 13522 H 1266.24 -3.9119 3.16195 0
M  V30 13523 H 1265.94 -3.3518 4.82626 0
M  V30 13524 H 1267.46 -4.19779 4.43417 0
M  V30 13525 H 1268.88 -2.11062 5.33035 0
M  V30 13526 H 1267.27 -1.48479 5.81441 0
M  V30 13527 H 1268.34 -0.474541 4.82572 0
M  V30 13528 N 1269.69 -1.54705 -0.300681 0
M  V30 13529 C 1270.93 -1.75189 -1.03345 0
M  V30 13530 C 1271.29 -0.531398 -1.84916 0
M  V30 13531 O 1270.58 0.476194 -1.85588 0
M  V30 13532 C 1270.78 -2.98173 -1.97047 0
M  V30 13533 C 1270.6 -4.32067 -1.24694 0
M  V30 13534 C 1269.37 -4.95825 -0.973967 0
M  V30 13535 C 1271.57 -5.1016 -0.651224 0
M  V30 13536 N 1269.55 -6.13503 -0.220737 0
M  V30 13537 C 1270.93 -6.19992 -0.0307781 0
M  V30 13538 C 1272.98 -4.94782 -0.556306 0
M  V30 13539 C 1271.68 -7.16122 0.675403 0
M  V30 13540 C 1273.71 -5.91243 0.136221 0
M  V30 13541 C 1273.07 -7.00444 0.745517 0
M  V30 13542 H 1269.17 -0.693643 -0.361087 0
M  V30 13543 H 1271.75 -1.92183 -0.312046 0
M  V30 13544 H 1269.93 -2.82604 -2.66439 0
M  V30 13545 H 1271.66 -3.07182 -2.63479 0
M  V30 13546 H 1268.41 -4.56193 -1.2722 0
M  V30 13547 H 1268.84 -6.7685 0.142402 0
M  V30 13548 H 1273.48 -4.10483 -1.01307 0
M  V30 13549 H 1271.2 -7.99962 1.14394 0
M  V30 13550 H 1274.78 -5.81422 0.209611 0
M  V30 13551 H 1273.66 -7.73801 1.27287 0
M  V30 13552 N 1271.17 0.563888 -1.47167 0
M  V30 13553 C 1272.08 1.69903 -1.61772 0
M  V30 13554 C 1273.09 1.6664 -0.500705 0
M  V30 13555 O 1274.27 1.86209 -0.767354 0
M  V30 13556 C 1271.33 3.06411 -1.62213 0
M  V30 13557 C 1270.39 3.20793 -2.8529 0
M  V30 13558 C 1269.63 4.50789 -2.85701 0
M  V30 13559 O 1269.85 5.3584 -1.95529 0
M  V30 13560 O 1268.78 4.68819 -3.77481 0
M  V30 13561 H 1272.61 1.60525 -2.57809 0
M  V30 13562 H 1270.2 0.733125 -1.30175 0
M  V30 13563 H 1272.08 3.87659 -1.65221 0
M  V30 13564 H 1270.75 3.16186 -0.693415 0
M  V30 13565 H 1269.66 2.38967 -2.87829 0
M  V30 13566 H 1270.99 3.15918 -3.77434 0
M  V30 13567 N 1272.64 1.35187 0.810078 0
M  V30 13568 C 1273.57 1.30481 1.93641 0
M  V30 13569 C 1274.56 0.179875 1.69146 0
M  V30 13570 O 1275.74 0.374284 1.90559 0
M  V30 13571 C 1272.87 1.07251 3.30325 0
M  V30 13572 C 1271.82 2.16348 3.69293 0
M  V30 13573 C 1271.15 1.78288 5.04101 0
M  V30 13574 C 1272.45 3.58285 3.80038 0
M  V30 13575 H 1274.14 2.24725 1.97836 0
M  V30 13576 H 1271.69 1.08179 0.950436 0
M  V30 13577 H 1273.64 1.02599 4.08719 0
M  V30 13578 H 1272.37 0.0945203 3.26463 0
M  V30 13579 H 1271.03 2.2009 2.93182 0
M  V30 13580 H 1270.67 0.791163 4.96739 0
M  V30 13581 H 1270.37 2.51315 5.31144 0
M  V30 13582 H 1271.9 1.75155 5.84938 0
M  V30 13583 H 1273.31 3.56884 4.48672 0
M  V30 13584 H 1271.71 4.30044 4.18548 0
M  V30 13585 H 1272.78 3.94691 2.81685 0
M  V30 13586 N 1274.12 -1.03182 1.19127 0
M  V30 13587 C 1275.37 -1.76533 0.992093 0
M  V30 13588 C 1275.7 -1.88549 -0.477429 0
M  V30 13589 O 1274.95 -1.39675 -1.37074 0
M  V30 13590 C 1275.25 -3.19452 1.60267 0
M  V30 13591 C 1274.92 -3.27449 3.09981 0
M  V30 13592 C 1273.58 -3.29338 3.50841 0
M  V30 13593 C 1275.93 -3.26833 4.05992 0
M  V30 13594 C 1273.26 -3.28265 4.86271 0
M  V30 13595 C 1275.61 -3.27299 5.41348 0
M  V30 13596 C 1274.28 -3.27485 5.81644 0
M  V30 13597 H 1273.55 -0.645979 0.363033 0
M  V30 13598 H 1276.19 -1.21127 1.48326 0
M  V30 13599 H 1274.5 -3.77917 1.03372 0
M  V30 13600 H 1276.19 -3.74869 1.42388 0
M  V30 13601 H 1272.78 -3.26704 2.77421 0
M  V30 13602 H 1276.97 -3.24556 3.75469 0
M  V30 13603 H 1272.22 -3.26731 5.16775 0
M  V30 13604 H 1276.4 -3.25773 6.15504 0
M  V30 13605 H 1274.03 -3.26407 6.86558 0
M  V30 13606 N 1275.6 -0.99472 -1.22242 0
M  V30 13607 C 1276.83 -0.689809 -1.95592 0
M  V30 13608 C 1277.25 0.739321 -1.72961 0
M  V30 13609 O 1276.61 1.50563 -1.00997 0
M  V30 13610 C 1276.66 -1.00367 -3.46351 0
M  V30 13611 O 1275.76 -0.103326 -4.12271 0
M  V30 13612 H 1275.1 -0.257997 -0.611828 0
M  V30 13613 H 1277.63 -1.33219 -1.55286 0
M  V30 13614 H 1277.64 -0.946259 -3.96875 0
M  V30 13615 H 1276.32 -2.04504 -3.62148 0
M  V30 13616 H 1274.89 -0.216374 -3.72272 0
M  V30 13617 N 1277.08 1.37613 -0.768148 0
M  V30 13618 C 1278.01 2.3291 -0.165911 0
M  V30 13619 C 1278.99 1.556 0.687205 0
M  V30 13620 O 1280.17 1.83854 0.625407 0
M  V30 13621 C 1277.3 3.39822 0.7168 0
M  V30 13622 C 1276.26 4.27986 -0.0347264 0
M  V30 13623 C 1275.58 5.2588 0.967192 0
M  V30 13624 C 1276.88 5.08052 -1.21164 0
M  V30 13625 H 1278.58 2.83524 -0.962006 0
M  V30 13626 H 1276.12 1.36318 -0.464051 0
M  V30 13627 H 1278.08 4.05464 1.14789 0
M  V30 13628 H 1276.8 2.87725 1.54538 0
M  V30 13629 H 1275.46 3.6387 -0.446557 0
M  V30 13630 H 1275.11 4.70064 1.79022 0
M  V30 13631 H 1274.81 5.85726 0.468913 0
M  V30 13632 H 1276.33 5.94397 1.3973 0
M  V30 13633 H 1277.75 5.66853 -0.857373 0
M  V30 13634 H 1276.14 5.77206 -1.64176 0
M  V30 13635 H 1277.21 4.40936 -2.0175 0
M  V30 13636 N 1278.56 0.518393 1.4883 0
M  V30 13637 C 1279.8 -0.019866 2.0209 0
M  V30 13638 C 1280.13 -1.35863 1.3988 0
M  V30 13639 O 1279.4 -1.87722 0.560117 0
M  V30 13640 H 1277.98 -0.0103306 0.746929 0
M  V30 13641 H 1280.64 0.679591 1.82668 0
M  V30 13642 H 1279.73 -0.136749 3.118 0
M  V30 13643 N 1280.03 -1.55556 0.252993 0
M  V30 13644 C 1281.26 -2.03945 -0.376965 0
M  V30 13645 C 1281.68 -1.13089 -1.50308 0
M  V30 13646 O 1281.04 -0.125039 -1.80868 0
M  V30 13647 C 1281.09 -3.50284 -0.856363 0
M  V30 13648 O 1280.19 -3.62551 -1.96546 0
M  V30 13649 H 1279.54 -0.659002 -0.081317 0
M  V30 13650 H 1282.07 -2.01024 0.380831 0
M  V30 13651 H 1282.08 -3.91222 -1.15798 0
M  V30 13652 H 1280.75 -4.15887 -0.0323302 0
M  V30 13653 H 1279.33 -3.33511 -1.66808 0
M  V30 13654 N 1281.51 0.0200419 -1.57587 0
M  V30 13655 C 1282.74 0.724241 -1.94344 0
M  V30 13656 C 1283.16 1.67612 -0.853688 0
M  V30 13657 O 1282.52 1.80303 0.189873 0
M  V30 13658 C 1282.57 1.44967 -3.30177 0
M  V30 13659 O 1281.67 2.56326 -3.23064 0
M  V30 13660 H 1281.01 0.194142 -0.634984 0
M  V30 13661 H 1283.54 -0.0271756 -2.04582 0
M  V30 13662 H 1283.55 1.81758 -3.65278 0
M  V30 13663 H 1282.23 0.75161 -4.09052 0
M  V30 13664 H 1280.81 2.22011 -2.99609 0
M  V30 13665 N 1282.99 1.54862 0.292472 0
M  V30 13666 C 1284.4 1.65459 0.864891 0
M  V30 13667 C 1284.75 0.568808 1.87774 0
M  V30 13668 O 1283.88 -0.293107 2.14406 0
M  V30 13669 C 1284.47 2.99939 1.5755 0
M  V30 13670 C 1283.03 3.12628 2.09621 0
M  V30 13671 C 1282.18 2.61179 0.931713 0
M  V30 13672 H 1285.13 1.58549 0.0692679 0
M  V30 13673 H 1285.15 2.91839 2.44152 0
M  V30 13674 H 1284.66 3.78943 0.838088 0
M  V30 13675 H 1282.76 2.3836 2.86383 0
M  V30 13676 H 1282.88 4.18911 2.32488 0
M  V30 13677 H 1281.24 2.17846 1.31967 0
M  V30 13678 H 1282.02 3.42669 0.208121 0
M  V30 13679 N 1284.47 -0.556076 1.47464 0
M  V30 13680 C 1285.7 -1.33664 1.57536 0
M  V30 13681 C 1286.11 -1.87858 0.224977 0
M  V30 13682 O 1285.45 -1.65746 -0.792091 0
M  V30 13683 C 1285.51 -2.54257 2.54152 0
M  V30 13684 C 1285.18 -2.21342 3.99821 0
M  V30 13685 C 1286.17 -1.78568 4.88272 0
M  V30 13686 C 1283.86 -2.32666 4.45165 0
M  V30 13687 C 1285.85 -1.47549 6.20087 0
M  V30 13688 C 1283.54 -2.0126 5.77008 0
M  V30 13689 C 1284.54 -1.58769 6.6429 0
M  V30 13690 O 1284.22 -1.27762 7.93683 0
M  V30 13691 H 1283.96 -0.413721 0.534613 0
M  V30 13692 H 1286.51 -0.680342 1.93805 0
M  V30 13693 H 1284.74 -3.22782 2.12952 0
M  V30 13694 H 1286.43 -3.16332 2.5434 0
M  V30 13695 H 1287.2 -1.69311 4.54487 0
M  V30 13696 H 1283.07 -2.64698 3.77433 0
M  V30 13697 H 1286.62 -1.1431 6.88171 0
M  V30 13698 H 1282.52 -2.10149 6.10334 0
M  V30 13699 H 1283.28 -1.41383 8.06197 0
M  V30 13700 N 1285.95 -1.35615 -0.802897 0
M  V30 13701 C 1287.36 -1.26062 -1.37715 0
M  V30 13702 C 1287.71 0.105411 -1.95917 0
M  V30 13703 O 1286.83 1.00648 -1.91569 0
M  V30 13704 C 1287.43 -2.28261 -2.50365 0
M  V30 13705 C 1285.99 -2.22437 -3.03642 0
M  V30 13706 C 1285.14 -2.1377 -1.76629 0
M  V30 13707 H 1288.09 -1.46689 -0.605631 0
M  V30 13708 H 1288.11 -1.91122 -3.29017 0
M  V30 13709 H 1287.62 -3.27671 -2.07975 0
M  V30 13710 H 1285.72 -1.2645 -3.50487 0
M  V30 13711 H 1285.83 -3.14558 -3.61373 0
M  V30 13712 H 1284.2 -1.59806 -1.98328 0
M  V30 13713 H 1284.98 -3.15046 -1.36385 0
M  V30 13714 N 1287.43 1.02549 -1.19673 0
M  V30 13715 C 1288.67 1.75656 -0.999463 0
M  V30 13716 C 1288.99 1.89238 0.470517 0
M  V30 13717 O 1288.26 1.42843 1.34062 0
M  V30 13718 H 1286.84 0.650732 -0.366821 0
M  V30 13719 H 1289.51 1.23684 -1.50627 0
M  V30 13720 H 1288.6 2.76353 -1.45035 0
M  V30 13721 N 1288.9 1.00119 1.21713 0
M  V30 13722 C 1289.84 0.503256 2.22582 0
M  V30 13723 C 1290.81 -0.440971 1.56506 0
M  V30 13724 O 1292 -0.364583 1.84941 0
M  V30 13725 C 1289.13 -0.269453 3.37626 0
M  V30 13726 C 1288.17 0.622002 4.2194 0
M  V30 13727 S 1289 2.08218 4.93361 0
M  V30 13728 C 1290.16 1.3192 6.1184 0
M  V30 13729 H 1290.39 1.35798 2.64474 0
M  V30 13730 H 1287.93 0.808819 1.3152 0
M  V30 13731 H 1289.88 -0.709213 4.04327 0
M  V30 13732 H 1288.55 -1.09955 2.94226 0
M  V30 13733 H 1287.74 0.0270176 5.03993 0
M  V30 13734 H 1287.34 0.998876 3.60414 0
M  V30 13735 H 1289.63 0.591116 6.74916 0
M  V30 13736 H 1290.58 2.1153 6.75767 0
M  V30 13737 H 1290.98 0.828844 5.58382 0
M  V30 13738 N 1290.38 -1.37203 0.775435 0
M  V30 13739 C 1291.79 -1.82224 0.406372 0
M  V30 13740 C 1292.14 -1.64587 -1.06796 0
M  V30 13741 O 1291.27 -1.15903 -1.82744 0
M  V30 13742 C 1291.86 -3.30824 0.730819 0
M  V30 13743 C 1290.42 -3.74108 0.414766 0
M  V30 13744 C 1289.57 -2.59679 0.972747 0
M  V30 13745 H 1292.52 -1.25623 0.969775 0
M  V30 13746 H 1292.54 -3.80496 0.0168066 0
M  V30 13747 H 1292.05 -3.43628 1.80392 0
M  V30 13748 H 1290.15 -3.66871 -0.650866 0
M  V30 13749 H 1290.27 -4.70074 0.925595 0
M  V30 13750 H 1288.63 -2.51591 0.396772 0
M  V30 13751 H 1289.41 -2.75274 2.05132 0
M  V30 13752 N 1291.86 -0.526279 -1.48553 0
M  V30 13753 C 1293.11 0.00918008 -2.02798 0
M  V30 13754 C 1293.44 1.34284 -1.4029 0
M  V30 13755 O 1292.71 1.86639 -0.547355 0
M  V30 13756 C 1293 0.135102 -3.59846 0
M  V30 13757 C 1292.85 -1.22347 -4.32841 0
M  V30 13758 C 1294.17 0.863673 -4.31542 0
M  V30 13759 H 1291.29 0.00186216 -0.736998 0
M  V30 13760 H 1293.93 -0.682591 -1.77315 0
M  V30 13761 H 1292.08 0.724279 -3.81689 0
M  V30 13762 H 1293.75 -1.85347 -4.22427 0
M  V30 13763 H 1291.99 -1.80631 -3.94405 0
M  V30 13764 H 1292.67 -1.08839 -5.41164 0
M  V30 13765 H 1295.14 0.363734 -4.14507 0
M  V30 13766 H 1294.02 0.92067 -5.41124 0
M  V30 13767 H 1294.28 1.91313 -3.98562 0
M  V30 13768 N 1293.34 1.5542 -0.261239 0
M  V30 13769 C 1294.61 1.91243 0.41056 0
M  V30 13770 C 1294.99 1.1838 1.74784 0
M  V30 13771 O 1294.34 0.306013 2.26442 0
M  V30 13772 C 1294.55 3.44404 0.56453 0
M  V30 13773 C 1295.9 4.15927 0.853827 0
M  V30 13774 O 1296.92 3.50222 0.649861 0
M  V30 13775 O 1295.78 5.32175 1.24308 0
M  V30 13776 H 1292.88 0.796491 0.222555 0
M  V30 13777 H 1295.42 1.66912 -0.306367 0
M  V30 13778 H 1294.2 3.89478 -0.377134 0
M  V30 13779 H 1293.82 3.74644 1.33145 0
M  V30 13780 N 1294.82 -0.0116844 1.57596 0
M  V30 13781 C 1296.04 -0.713924 1.94725 0
M  V30 13782 C 1296.47 -1.67157 0.862565 0
M  V30 13783 O 1295.82 -1.80401 -0.180308 0
M  V30 13784 C 1295.87 -1.43214 3.30941 0
M  V30 13785 O 1294.98 -2.5461 3.24419 0
M  V30 13786 H 1294.32 -0.190772 0.636005 0
M  V30 13787 H 1296.85 0.0380247 2.04565 0
M  V30 13788 H 1296.86 -1.79819 3.66237 0
M  V30 13789 H 1295.53 -0.729906 4.09445 0
M  V30 13790 H 1294.11 -2.20419 3.00782 0
M  V30 13791 N 1296.29 -1.55015 -0.284256 0
M  V30 13792 C 1297.24 -1.87122 -1.35107 0
M  V30 13793 C 1298.21 -0.721638 -1.49605 0
M  V30 13794 O 1299.4 -0.971855 -1.64194 0
M  V30 13795 C 1296.54 -2.1388 -2.70831 0
M  V30 13796 C 1295.65 -3.41447 -2.64647 0
M  V30 13797 C 1294.78 -3.57961 -3.92476 0
M  V30 13798 C 1293.82 -4.79261 -3.80757 0
M  V30 13799 N 1292.96 -4.92492 -5.00395 0
M  V30 13800 H 1297.8 -2.78117 -1.07027 0
M  V30 13801 H 1295.34 -1.37704 -0.517311 0
M  V30 13802 H 1297.29 -2.27391 -3.49784 0
M  V30 13803 H 1295.92 -1.26132 -2.97137 0
M  V30 13804 H 1294.98 -3.36467 -1.77466 0
M  V30 13805 H 1296.29 -4.3053 -2.51884 0
M  V30 13806 H 1295.44 -3.71229 -4.79868 0
M  V30 13807 H 1294.18 -2.67042 -4.08093 0
M  V30 13808 H 1293.19 -4.66008 -2.91747 0
M  V30 13809 H 1294.41 -5.71604 -3.66669 0
M  V30 13810 H 1292.36 -4.04501 -5.16445 0
M  V30 13811 H 1292.27 -5.75603 -4.9012 0
M  V30 13812 H 1293.54 -5.10134 -5.89392 0
M  V30 13813 N 1297.77 0.548248 -1.47757 0
M  V30 13814 C 1299.02 1.30501 -1.54841 0
M  V30 13815 C 1299.35 1.93314 -0.214476 0
M  V30 13816 O 1298.6 1.7889 0.793526 0
M  V30 13817 C 1298.9 2.42911 -2.62162 0
M  V30 13818 C 1298.57 1.97871 -4.05164 0
M  V30 13819 C 1297.23 1.85304 -4.4409 0
M  V30 13820 C 1299.58 1.63606 -4.94856 0
M  V30 13821 C 1296.91 1.36781 -5.70533 0
M  V30 13822 C 1299.26 1.16552 -6.2177 0
M  V30 13823 C 1297.92 1.02588 -6.5957 0
M  V30 13824 H 1297.19 0.477536 -0.566604 0
M  V30 13825 H 1299.84 0.613837 -1.81395 0
M  V30 13826 H 1298.15 3.17622 -2.29398 0
M  V30 13827 H 1299.84 3.01078 -2.64864 0
M  V30 13828 H 1296.43 2.08597 -3.74413 0
M  V30 13829 H 1300.62 1.72184 -4.65474 0
M  V30 13830 H 1295.87 1.24641 -5.9856 0
M  V30 13831 H 1300.05 0.891041 -6.90676 0
M  V30 13832 H 1297.67 0.647675 -7.57436 0
M  V30 13833 N 1299.25 1.36039 0.795694 0
M  V30 13834 C 1300.48 1.32866 1.58209 0
M  V30 13835 C 1300.89 -0.0935189 1.88969 0
M  V30 13836 O 1300.23 -1.05905 1.501 0
M  V30 13837 C 1300.29 2.07872 2.93308 0
M  V30 13838 C 1299.96 3.56999 2.85309 0
M  V30 13839 C 1300.95 4.51374 2.57987 0
M  V30 13840 C 1298.64 3.99798 3.04083 0
M  V30 13841 C 1300.63 5.86526 2.49533 0
M  V30 13842 C 1298.32 5.35042 2.95251 0
M  V30 13843 C 1299.32 6.28218 2.68013 0
M  V30 13844 O 1299.01 7.60979 2.59163 0
M  V30 13845 H 1298.74 0.457589 0.497583 0
M  V30 13846 H 1301.29 1.79637 0.995978 0
M  V30 13847 H 1299.52 1.55755 3.53945 0
M  V30 13848 H 1301.21 1.97638 3.54534 0
M  V30 13849 H 1301.98 4.19623 2.43191 0
M  V30 13850 H 1297.86 3.27652 3.24292 0
M  V30 13851 H 1301.4 6.59222 2.28193 0
M  V30 13852 H 1297.3 5.66404 3.09608 0
M  V30 13853 H 1298.06 7.7103 2.74691 0
M  V30 13854 N 1300.73 -1.01913 1.20215 0
M  V30 13855 C 1301.68 -2.104 0.948708 0
M  V30 13856 C 1302.65 -1.65665 -0.120139 0
M  V30 13857 O 1303.83 -1.90785 0.0240547 0
M  V30 13858 C 1300.97 -3.41398 0.504132 0
M  V30 13859 C 1300.08 -3.99625 1.64085 0
M  V30 13860 C 1299.22 -5.18673 1.14683 0
M  V30 13861 C 1298.26 -5.68977 2.2568 0
M  V30 13862 N 1297.39 -6.79289 1.77514 0
M  V30 13863 H 1302.23 -2.31415 1.87753 0
M  V30 13864 H 1299.77 -1.13487 0.935901 0
M  V30 13865 H 1301.73 -4.16578 0.22771 0
M  V30 13866 H 1300.36 -3.20463 -0.387689 0
M  V30 13867 H 1299.41 -3.21565 2.03225 0
M  V30 13868 H 1300.72 -4.32965 2.47674 0
M  V30 13869 H 1299.88 -6.01048 0.826223 0
M  V30 13870 H 1298.62 -4.86891 0.280797 0
M  V30 13871 H 1297.62 -4.85208 2.5856 0
M  V30 13872 H 1298.85 -6.02794 3.12755 0
M  V30 13873 H 1296.79 -6.49341 0.932338 0
M  V30 13874 H 1296.71 -7.11808 2.54686 0
M  V30 13875 H 1297.98 -7.65235 1.48446 0
M  V30 13876 N 1302.21 -1.00763 -1.2118 0
M  V30 13877 C 1303.14 -0.515053 -2.22312 0
M  V30 13878 C 1304.12 0.432665 -1.56738 0
M  V30 13879 O 1305.3 0.35477 -1.85131 0
M  V30 13880 C 1302.43 0.251544 -3.37765 0
M  V30 13881 C 1301.47 -0.64437 -4.21604 0
M  V30 13882 S 1302.31 -2.10832 -4.9225 0
M  V30 13883 C 1303.46 -1.35163 -6.11132 0
M  V30 13884 H 1303.7 -1.37198 -2.6375 0
M  V30 13885 H 1301.23 -0.815783 -1.31089 0
M  V30 13886 H 1303.19 0.687761 -4.04698 0
M  V30 13887 H 1301.85 1.08393 -2.94805 0
M  V30 13888 H 1301.04 -0.0537452 -5.03971 0
M  V30 13889 H 1300.64 -1.01798 -3.5988 0
M  V30 13890 H 1302.94 -0.6269 -6.74593 0
M  V30 13891 H 1303.88 -2.15111 -6.74635 0
M  V30 13892 H 1304.29 -0.858444 -5.57935 0
M  V30 13893 N 1303.68 1.3679 -0.7827 0
M  V30 13894 C 1304.93 1.98664 -0.348634 0
M  V30 13895 C 1305.25 1.62827 1.08382 0
M  V30 13896 O 1306.45 2.17886 1.61982 0
M  V30 13897 C 1304.91 3.55319 -0.572392 0
M  V30 13898 C 1304.52 4.00086 -2.01582 0
M  V30 13899 C 1306.26 4.24017 -0.202496 0
M  V30 13900 C 1304.17 5.49493 -2.18659 0
M  V30 13901 H 1303.1 0.743294 -0.126612 0
M  V30 13902 H 1305.75 1.56177 -0.963383 0
M  V30 13903 H 1304.13 3.95842 0.111973 0
M  V30 13904 H 1305.3 3.7078 -2.73603 0
M  V30 13905 H 1303.62 3.44205 -2.34333 0
M  V30 13906 H 1306.22 5.3381 -0.308459 0
M  V30 13907 H 1306.56 4.07559 0.84859 0
M  V30 13908 H 1307.09 3.88834 -0.839834 0
M  V30 13909 H 1303.83 5.7089 -3.22126 0
M  V30 13910 H 1303.35 5.80447 -1.51134 0
M  V30 13911 H 1305.03 6.15621 -1.99048 0
M  V30 13912 N 1305.16 0.53415 1.48272 0
M  V30 13913 C 1306.11 -0.226335 2.29688 0
M  V30 13914 C 1307.08 -0.929937 1.37628 0
M  V30 13915 O 1308.26 -0.930149 1.66592 0
M  V30 13916 C 1305.4 -1.26472 3.2109 0
M  V30 13917 C 1304.52 -0.569542 4.28229 0
M  V30 13918 C 1303.65 -1.59122 5.06807 0
M  V30 13919 C 1302.69 -0.879734 6.05745 0
M  V30 13920 N 1301.83 -1.84715 6.77366 0
M  V30 13921 H 1306.67 0.474111 2.94204 0
M  V30 13922 H 1304.21 0.245643 1.45034 0
M  V30 13923 H 1306.16 -1.87911 3.72485 0
M  V30 13924 H 1304.79 -1.9335 2.58487 0
M  V30 13925 H 1303.85 0.158872 3.80068 0
M  V30 13926 H 1305.16 -0.0110904 4.98799 0
M  V30 13927 H 1304.31 -2.27977 5.62238 0
M  V30 13928 H 1303.05 -2.18357 4.36086 0
M  V30 13929 H 1302.06 -0.177134 5.49515 0
M  V30 13930 H 1303.28 -0.293439 6.78466 0
M  V30 13931 H 1301.23 -2.42851 6.09393 0
M  V30 13932 H 1301.14 -1.34025 7.44025 0
M  V30 13933 H 1302.41 -2.52756 7.37384 0
M  V30 13934 N 1306.64 -1.55279 0.269478 0
M  V30 13935 C 1307.55 -2.25965 -0.63065 0
M  V30 13936 C 1308.57 -1.28357 -1.17476 0
M  V30 13937 O 1309.74 -1.61281 -1.20625 0
M  V30 13938 C 1306.81 -2.96263 -1.80081 0
M  V30 13939 C 1305.87 -4.09336 -1.29394 0
M  V30 13940 C 1305.1 -4.76272 -2.40833 0
M  V30 13941 O 1305.32 -4.42389 -3.60066 0
M  V30 13942 O 1304.26 -5.64334 -2.09309 0
M  V30 13943 H 1308.08 -3.03644 -0.0582069 0
M  V30 13944 H 1305.67 -1.49354 0.0370966 0
M  V30 13945 H 1307.55 -3.40461 -2.48322 0
M  V30 13946 H 1306.23 -2.21505 -2.36045 0
M  V30 13947 H 1305.13 -3.69605 -0.578154 0
M  V30 13948 H 1306.47 -4.85978 -0.780117 0
M  V30 13949 N 1308.12 0.00332656 -1.576 0
M  V30 13950 C 1309.37 0.687508 -1.90047 0
M  V30 13951 C 1309.69 1.74497 -0.870388 0
M  V30 13952 O 1308.96 1.95681 0.0926544 0
M  V30 13953 H 1307.54 0.256924 -0.701426 0
M  V30 13954 H 1310.2 -0.0368129 -1.94865 0
M  V30 13955 H 1309.3 1.16086 -2.89707 0
M  V30 13956 N 1309.6 1.55164 0.276031 0
M  V30 13957 C 1310.84 1.75627 1.00803 0
M  V30 13958 C 1311.17 0.555696 1.86393 0
M  V30 13959 O 1310.43 -0.461872 1.90172 0
M  V30 13960 C 1310.73 3.0127 1.92279 0
M  V30 13961 C 1310.39 4.33951 1.22464 0
M  V30 13962 C 1309.05 4.70013 1.03158 0
M  V30 13963 C 1311.41 5.16097 0.72758 0
M  V30 13964 C 1308.73 5.85779 0.328699 0
M  V30 13965 C 1311.09 6.32588 0.0383001 0
M  V30 13966 C 1309.75 6.67292 -0.166494 0
M  V30 13967 H 1309.02 0.642665 0.368866 0
M  V30 13968 H 1311.67 1.89433 0.280595 0
M  V30 13969 H 1309.97 2.82351 2.71634 0
M  V30 13970 H 1311.67 3.14299 2.49032 0
M  V30 13971 H 1308.26 4.05605 1.38501 0
M  V30 13972 H 1312.44 4.88715 0.864365 0
M  V30 13973 H 1307.7 6.11192 0.159279 0
M  V30 13974 H 1311.87 6.95496 -0.354631 0
M  V30 13975 H 1309.5 7.56848 -0.713124 0
M  V30 13976 N 1311.07 -0.540404 1.48045 0
M  V30 13977 C 1312.49 -0.867958 1.33935 0
M  V30 13978 C 1312.69 -1.98568 0.342488 0
M  V30 13979 O 1311.75 -2.51357 -0.240022 0
M  V30 13980 C 1313.06 -1.24532 2.73701 0
M  V30 13981 C 1314.61 -1.3558 2.82112 0
M  V30 13982 C 1315.08 -1.76664 4.22556 0
M  V30 13983 N 1316.57 -1.83785 4.25179 0
M  V30 13984 C 1317.31 -2.16938 5.30778 0
M  V30 13985 N 1316.8 -2.48587 6.46666 0
M  V30 13986 N 1318.6 -2.17855 5.18166 0
M  V30 13987 H 1310.75 0.197251 2.11482 0
M  V30 13988 H 1313.01 0.0255947 0.947654 0
M  V30 13989 H 1312.72 -0.497731 3.4816 0
M  V30 13990 H 1312.59 -2.19779 3.06556 0
M  V30 13991 H 1314.98 -2.09417 2.07915 0
M  V30 13992 H 1315.06 -0.384787 2.52889 0
M  V30 13993 H 1314.7 -1.03391 4.97265 0
M  V30 13994 H 1314.63 -2.74797 4.49215 0
M  V30 13995 H 1317.12 -1.61645 3.41583 0
M  V30 13996 H 1317.44 -2.72959 7.22989 0
M  V30 13997 H 1315.78 -2.4613 6.49958 0
M  V30 13998 H 1318.97 -1.9258 4.2665 0
M  V30 13999 H 1319.15 -2.43361 6.00566 0
M  V30 14000 N 1312.55 -1.36459 -0.788468 0
M  V30 14001 C 1313.49 -1.25222 -1.90774 0
M  V30 14002 C 1314.46 -0.136188 -1.62029 0
M  V30 14003 O 1315.65 -0.307486 -1.85975 0
M  V30 14004 C 1312.77 -0.932287 -3.25616 0
M  V30 14005 C 1311.82 -2.0629 -3.73292 0
M  V30 14006 S 1312.65 -3.68084 -3.8894 0
M  V30 14007 C 1313.81 -3.38206 -5.26657 0
M  V30 14008 H 1314.04 -2.19959 -2.00013 0
M  V30 14009 H 1311.58 -1.21886 -0.947801 0
M  V30 14010 H 1313.53 -0.754514 -4.03506 0
M  V30 14011 H 1312.19 -0.00268413 -3.141 0
M  V30 14012 H 1311.39 -1.79363 -4.71004 0
M  V30 14013 H 1310.99 -2.19994 -3.02454 0
M  V30 14014 H 1313.28 -2.92158 -6.11269 0
M  V30 14015 H 1314.22 -4.35185 -5.58587 0
M  V30 14016 H 1314.63 -2.73531 -4.93802 0
M  V30 14017 N 1314.03 1.01274 -1.20754 0
M  V30 14018 C 1314.96 2.11763 -0.983805 0
M  V30 14019 C 1315.94 1.69869 0.0885635 0
M  V30 14020 O 1317.13 1.94075 -0.0697239 0
M  V30 14021 C 1314.26 3.43087 -0.539287 0
M  V30 14022 C 1313.21 3.9874 -1.55534 0
M  V30 14023 C 1312.54 5.25877 -0.967322 0
M  V30 14024 C 1313.84 4.31688 -2.94012 0
M  V30 14025 H 1315.53 2.30737 -1.90789 0
M  V30 14026 H 1313.08 1.10884 -0.918734 0
M  V30 14027 H 1315.03 4.19773 -0.369979 0
M  V30 14028 H 1313.75 3.23883 0.420435 0
M  V30 14029 H 1312.41 3.24166 -1.71207 0
M  V30 14030 H 1312.06 5.03 0.000448307 0
M  V30 14031 H 1311.76 5.64077 -1.64594 0
M  V30 14032 H 1313.28 6.05215 -0.809167 0
M  V30 14033 H 1314.7 4.99246 -2.81827 0
M  V30 14034 H 1313.1 4.81011 -3.58815 0
M  V30 14035 H 1314.17 3.4029 -3.45442 0
M  V30 14036 N 1315.51 1.01404 1.20644 0
M  V30 14037 C 1316.73 0.720839 1.9447 0
M  V30 14038 C 1317.16 -0.711711 1.74116 0
M  V30 14039 O 1316.52 -1.48938 1.03379 0
M  V30 14040 C 1316.57 1.05864 3.4471 0
M  V30 14041 O 1315.67 0.168901 4.12054 0
M  V30 14042 H 1315.01 0.267698 0.607646 0
M  V30 14043 H 1317.54 1.35672 1.53147 0
M  V30 14044 H 1317.55 1.00928 3.9532 0
M  V30 14045 H 1316.23 2.1024 3.58848 0
M  V30 14046 H 1314.8 0.275572 3.7188 0
M  V30 14047 N 1316.99 -1.36373 0.789944 0
M  V30 14048 C 1318.4 -1.81783 0.425677 0
M  V30 14049 C 1318.75 -1.65711 -1.05045 0
M  V30 14050 O 1317.87 -1.17835 -1.81505 0
M  V30 14051 C 1318.47 -3.3003 0.765866 0
M  V30 14052 C 1317.03 -3.73647 0.454421 0
M  V30 14053 C 1316.18 -2.58632 1.00023 0
M  V30 14054 H 1319.13 -1.24587 0.983044 0
M  V30 14055 H 1319.15 -3.80457 0.0571624 0
M  V30 14056 H 1318.66 -3.41696 1.84026 0
M  V30 14057 H 1316.76 -3.67541 -0.611918 0
M  V30 14058 H 1316.87 -4.69066 0.975401 0
M  V30 14059 H 1315.24 -2.51156 0.423434 0
M  V30 14060 H 1316.02 -2.73083 2.0804 0
M  V30 14061 N 1318.47 -0.542005 -1.47987 0
M  V30 14062 C 1319.38 0.217677 -2.33588 0
M  V30 14063 C 1320.39 0.927093 -1.47245 0
M  V30 14064 O 1321.57 0.899378 -1.80203 0
M  V30 14065 C 1318.63 1.24376 -3.23622 0
M  V30 14066 C 1317.69 0.543407 -4.25847 0
M  V30 14067 C 1316.93 1.5206 -5.11579 0
M  V30 14068 O 1317.15 2.75425 -4.99497 0
M  V30 14069 O 1316.08 1.05341 -5.9261 0
M  V30 14070 H 1319.91 -0.484089 -2.99817 0
M  V30 14071 H 1317.49 -0.302783 -1.463 0
M  V30 14072 H 1319.38 1.83644 -3.7928 0
M  V30 14073 H 1318.05 1.92772 -2.6004 0
M  V30 14074 H 1316.96 -0.090074 -3.73992 0
M  V30 14075 H 1318.29 -0.0988264 -4.92101 0
M  V30 14076 N 1319.94 1.55134 -0.277709 0
M  V30 14077 C 1320.89 2.19317 0.623216 0
M  V30 14078 C 1321.88 1.15863 1.11645 0
M  V30 14079 O 1323.07 1.41668 1.0611 0
M  V30 14080 C 1320.2 2.91976 1.80568 0
M  V30 14081 C 1319.28 4.02722 1.3295 0
M  V30 14082 N 1319.68 5.02582 0.569654 0
M  V30 14083 C 1317.97 4.1584 1.61224 0
M  V30 14084 C 1318.67 5.80825 0.318983 0
M  V30 14085 N 1317.65 5.36229 0.892145 0
M  V30 14086 H 1321.45 2.93879 0.0348669 0
M  V30 14087 H 1318.97 1.62196 -0.0813871 0
M  V30 14088 H 1320.96 3.36408 2.46242 0
M  V30 14089 H 1319.62 2.18925 2.39796 0
M  V30 14090 H 1320.63 5.17446 0.216749 0
M  V30 14091 H 1317.31 3.53981 2.21368 0
M  V30 14092 H 1318.7 6.71275 -0.289742 0
M  V30 14093 N 1321.42 0.00503138 1.57599 0
M  V30 14094 C 1322.38 -0.969628 2.0768 0
M  V30 14095 C 1323.38 -1.26933 0.987148 0
M  V30 14096 O 1324.57 -1.21368 1.24962 0
M  V30 14097 C 1321.71 -2.29312 2.52247 0
M  V30 14098 H 1322.9 -0.536342 2.95065 0
M  V30 14099 H 1320.45 -0.242543 1.54407 0
M  V30 14100 H 1321.19 -2.7732 1.6812 0
M  V30 14101 H 1320.97 -2.08878 3.31832 0
M  V30 14102 H 1322.46 -2.99221 2.91302 0
M  V30 14103 N 1322.9 -1.55308 -0.267798 0
M  V30 14104 C 1324.31 -1.66814 -0.838459 0
M  V30 14105 C 1324.66 -0.598609 -1.86845 0
M  V30 14106 O 1323.79 0.25896 -2.14845 0
M  V30 14107 C 1324.38 -3.02408 -1.52758 0
M  V30 14108 C 1322.94 -3.15923 -2.04621 0
M  V30 14109 C 1322.09 -2.62628 -0.890044 0
M  V30 14110 H 1325.04 -1.58639 -0.0440354 0
M  V30 14111 H 1325.06 -2.95687 -2.39478 0
M  V30 14112 H 1324.57 -3.80228 -0.777695 0
M  V30 14113 H 1322.67 -2.42886 -2.82555 0
M  V30 14114 H 1322.79 -4.22556 -2.25794 0
M  V30 14115 H 1321.15 -2.19918 -1.28485 0
M  V30 14116 H 1321.93 -3.42956 -0.153579 0
M  V30 14117 N 1324.38 0.532545 -1.4833 0
M  V30 14118 C 1325.34 1.61955 -1.62183 0
M  V30 14119 C 1326.34 1.52982 -0.495281 0
M  V30 14120 O 1327.53 1.56698 -0.761005 0
M  V30 14121 C 1324.66 3.0157 -1.58961 0
M  V30 14122 H 1325.86 1.51013 -2.59105 0
M  V30 14123 H 1323.41 0.754405 -1.36888 0
M  V30 14124 H 1324.14 3.18021 -0.635069 0
M  V30 14125 H 1323.93 3.09491 -2.40744 0
M  V30 14126 H 1325.42 3.80604 -1.71843 0
M  V30 14127 N 1325.86 1.36875 0.78122 0
M  V30 14128 C 1326.77 1.3404 1.92537 0
M  V30 14129 C 1327.78 0.241354 1.72318 0
M  V30 14130 O 1328.96 0.475128 1.95715 0
M  V30 14131 C 1326.02 1.13708 3.27523 0
M  V30 14132 C 1325.08 2.33165 3.60462 0
M  V30 14133 C 1324.32 2.13793 4.89007 0
M  V30 14134 O 1324.54 1.11732 5.5935 0
M  V30 14135 O 1323.47 3.01762 5.20791 0
M  V30 14136 H 1327.3 2.30386 1.97879 0
M  V30 14137 H 1324.88 1.17506 0.922637 0
M  V30 14138 H 1326.77 1.0432 4.08283 0
M  V30 14139 H 1325.44 0.204306 3.23055 0
M  V30 14140 H 1324.35 2.48123 2.79974 0
M  V30 14141 H 1325.68 3.24977 3.69663 0
M  V30 14142 N 1327.33 -1.00632 1.21289 0
M  V30 14143 C 1328.27 -2.09085 0.914258 0
M  V30 14144 C 1329.24 -1.62016 -0.137697 0
M  V30 14145 O 1330.43 -1.88498 -0.00902131 0
M  V30 14146 C 1327.56 -3.36645 0.37254 0
M  V30 14147 C 1326.6 -4.0262 1.40709 0
M  V30 14148 S 1327.43 -4.45203 2.97582 0
M  V30 14149 C 1328.59 -5.75951 2.45013 0
M  V30 14150 H 1328.82 -2.34094 1.83268 0
M  V30 14151 H 1326.36 -1.13893 1.04248 0
M  V30 14152 H 1328.31 -4.10446 0.0665561 0
M  V30 14153 H 1326.98 -3.09689 -0.524546 0
M  V30 14154 H 1326.17 -4.94427 0.977642 0
M  V30 14155 H 1325.77 -3.35088 1.66108 0
M  V30 14156 H 1328.06 -6.51634 1.85416 0
M  V30 14157 H 1329.01 -6.23706 3.35257 0
M  V30 14158 H 1329.41 -5.32707 1.8677 0
M  V30 14159 N 1328.81 -1.02043 -1.20104 0
M  V30 14160 C 1330.04 -0.730255 -1.93264 0
M  V30 14161 C 1330.45 0.71359 -1.75227 0
M  V30 14162 O 1329.79 1.49609 -1.06597 0
M  V30 14163 C 1329.85 -0.990978 -3.45572 0
M  V30 14164 C 1329.52 -2.4247 -3.87373 0
M  V30 14165 C 1330.52 -3.40569 -3.92822 0
M  V30 14166 C 1328.2 -2.76645 -4.19253 0
M  V30 14167 C 1330.19 -4.70904 -4.29568 0
M  V30 14168 C 1327.88 -4.07192 -4.55673 0
M  V30 14169 C 1328.88 -5.04132 -4.60804 0
M  V30 14170 O 1328.57 -6.32341 -4.96386 0
M  V30 14171 H 1328.3 -0.267146 -0.620974 0
M  V30 14172 H 1330.85 -1.36557 -1.53432 0
M  V30 14173 H 1329.08 -0.298508 -3.85546 0
M  V30 14174 H 1330.77 -0.691793 -3.99961 0
M  V30 14175 H 1331.54 -3.15503 -3.68352 0
M  V30 14176 H 1327.42 -2.01876 -4.14448 0
M  V30 14177 H 1330.96 -5.46566 -4.33487 0
M  V30 14178 H 1326.86 -4.32035 -4.796 0
M  V30 14179 H 1327.63 -6.36687 -5.14365 0
M  V30 14180 N 1330.29 1.35952 -0.797165 0
M  V30 14181 C 1331.57 1.93335 -0.2968 0
M  V30 14182 C 1331.95 1.72825 1.21222 0
M  V30 14183 O 1331.3 1.09172 2.00733 0
M  V30 14184 C 1331.51 3.41951 -0.697894 0
M  V30 14185 C 1332.85 4.19087 -0.682026 0
M  V30 14186 O 1333.88 3.50424 -0.638849 0
M  V30 14187 O 1332.74 5.41577 -0.73189 0
M  V30 14188 H 1329.83 0.823554 -0.0754223 0
M  V30 14189 H 1332.38 1.45086 -0.88023 0
M  V30 14190 H 1331.15 3.50569 -1.73831 0
M  V30 14191 H 1330.77 3.97501 -0.088764 0
M  V30 14192 N 1331.77 0.549846 1.47697 0
M  V30 14193 C 1333.02 0.0209424 2.01689 0
M  V30 14194 C 1333.33 -1.33417 1.43036 0
M  V30 14195 O 1334.54 -1.95257 1.88646 0
M  V30 14196 C 1332.99 -0.0130171 3.59898 0
M  V30 14197 C 1332.6 1.3384 4.2754 0
M  V30 14198 C 1334.34 -0.489701 4.21666 0
M  V30 14199 C 1332.25 1.26395 5.77735 0
M  V30 14200 H 1331.18 0.00405885 0.753989 0
M  V30 14201 H 1333.83 0.696599 1.69764 0
M  V30 14202 H 1332.21 -0.754168 3.88752 0
M  V30 14203 H 1333.39 2.09668 4.10336 0
M  V30 14204 H 1331.7 1.75242 3.77729 0
M  V30 14205 H 1334.3 -0.563684 5.31721 0
M  V30 14206 H 1334.64 -1.50004 3.88336 0
M  V30 14207 H 1335.18 0.196366 3.97315 0
M  V30 14208 H 1331.92 2.25005 6.15673 0
M  V30 14209 H 1331.44 0.547353 5.97297 0
M  V30 14210 H 1333.11 0.962918 6.39794 0
M  V30 14211 N 1333.25 -1.54984 0.285932 0
M  V30 14212 C 1334.18 -2.19087 -0.638448 0
M  V30 14213 C 1335.16 -1.1553 -1.14418 0
M  V30 14214 O 1336.34 -1.44105 -1.21516 0
M  V30 14215 C 1333.47 -2.82273 -1.87188 0
M  V30 14216 C 1332.51 -3.99226 -1.5007 0
M  V30 14217 S 1333.35 -5.32463 -0.569552 0
M  V30 14218 C 1334.5 -5.99124 -1.81112 0
M  V30 14219 H 1334.74 -2.97152 -0.0938139 0
M  V30 14220 H 1332.27 -1.54241 0.0701344 0
M  V30 14221 H 1334.23 -3.19307 -2.57979 0
M  V30 14222 H 1332.89 -2.04082 -2.38767 0
M  V30 14223 H 1332.08 -4.42166 -2.41878 0
M  V30 14224 H 1331.68 -3.63671 -0.872871 0
M  V30 14225 H 1333.98 -6.19015 -2.75367 0
M  V30 14226 H 1334.92 -6.93623 -1.42454 0
M  V30 14227 H 1335.33 -5.28599 -1.98098 0
M  V30 14228 N 1334.72 -0.0133892 -1.57594 0
M  V30 14229 C 1335.67 0.97367 -2.09257 0
M  V30 14230 C 1336.64 1.33298 -0.990998 0
M  V30 14231 O 1337.83 1.42903 -1.26425 0
M  V30 14232 C 1334.97 2.25603 -2.61147 0
M  V30 14233 C 1334.08 1.95456 -3.85254 0
M  V30 14234 C 1333.21 3.17871 -4.25596 0
M  V30 14235 C 1332.25 2.83471 -5.42504 0
M  V30 14236 N 1331.39 3.98464 -5.78075 0
M  V30 14237 H 1336.23 0.526189 -2.93318 0
M  V30 14238 H 1333.77 0.248148 -1.44992 0
M  V30 14239 H 1335.73 3.00587 -2.89315 0
M  V30 14240 H 1334.36 2.67995 -1.7994 0
M  V30 14241 H 1333.41 1.10781 -3.63912 0
M  V30 14242 H 1334.72 1.6611 -4.70328 0
M  V30 14243 H 1333.87 4.0119 -4.55117 0
M  V30 14244 H 1332.61 3.50365 -3.39257 0
M  V30 14245 H 1331.62 1.98562 -5.12692 0
M  V30 14246 H 1332.84 2.5221 -6.30529 0
M  V30 14247 H 1330.79 4.3083 -4.94694 0
M  V30 14248 H 1330.71 3.72688 -6.57753 0
M  V30 14249 H 1331.97 4.82532 -6.12195 0
M  V30 14250 N 1336.2 1.55448 0.259558 0
M  V30 14251 C 1337.43 1.80727 1.00723 0
M  V30 14252 C 1337.85 0.587354 1.79431 0
M  V30 14253 O 1337.2 -0.443819 1.77021 0
M  V30 14254 C 1337.25 3.04064 1.95517 0
M  V30 14255 O 1336.97 4.21346 1.19996 0
M  V30 14256 C 1338.48 3.42049 2.81988 0
M  V30 14257 H 1335.7 0.601713 0.296956 0
M  V30 14258 H 1338.24 2.02486 0.286273 0
M  V30 14259 H 1336.39 2.84392 2.63058 0
M  V30 14260 H 1336.81 4.91164 1.84006 0
M  V30 14261 H 1338.28 4.31485 3.44274 0
M  V30 14262 H 1338.76 2.62059 3.52451 0
M  V30 14263 H 1339.37 3.64027 2.19918 0
M  V30 14264 N 1337.68 -0.524672 1.4861 0
M  V30 14265 C 1338.92 -1.29064 1.58499 0
M  V30 14266 C 1339.28 -1.90294 0.255378 0
M  V30 14267 O 1340.49 -2.6782 0.229289 0
M  V30 14268 C 1338.76 -2.34693 2.69544 0
M  V30 14269 S 1340.32 -3.20944 2.99233 0
M  V30 14270 H 1337.13 -0.438948 0.559326 0
M  V30 14271 H 1339.74 -0.597119 1.86158 0
M  V30 14272 H 1338.44 -1.88199 3.64704 0
M  V30 14273 H 1337.97 -3.08745 2.43804 0
M  V30 14274 H 1339.99 -4.34883 2.38937 0
M  V30 14275 N 1339.16 -1.37287 -0.77395 0
M  V30 14276 C 1340.4 -1.33577 -1.53391 0
M  V30 14277 C 1340.76 0.0798979 -1.92234 0
M  V30 14278 O 1340.05 1.03803 -1.61045 0
M  V30 14279 C 1340.25 -2.20667 -2.81142 0
M  V30 14280 C 1340.08 -3.70559 -2.54786 0
M  V30 14281 C 1338.85 -4.39675 -2.49025 0
M  V30 14282 C 1341.04 -4.63472 -2.22932 0
M  V30 14283 N 1339.03 -5.75121 -2.14729 0
M  V30 14284 C 1340.4 -5.87279 -1.98756 0
M  V30 14285 C 1342.45 -4.51879 -2.09068 0
M  V30 14286 C 1341.15 -7.00793 -1.62117 0
M  V30 14287 C 1343.18 -5.65276 -1.7383 0
M  V30 14288 C 1342.54 -6.88132 -1.50513 0
M  V30 14289 H 1338.64 -0.544075 -0.561699 0
M  V30 14290 H 1341.23 -1.72487 -0.903115 0
M  V30 14291 H 1339.4 -1.83976 -3.42063 0
M  V30 14292 H 1341.13 -2.08231 -3.47019 0
M  V30 14293 H 1337.88 -3.92653 -2.64804 0
M  V30 14294 H 1338.31 -6.46696 -2.00284 0
M  V30 14295 H 1342.95 -3.57468 -2.25779 0
M  V30 14296 H 1340.67 -7.9514 -1.44145 0
M  V30 14297 H 1344.25 -5.58276 -1.63765 0
M  V30 14298 H 1343.13 -7.74391 -1.23648 0
M  V30 14299 N 1340.64 0.999871 -1.21821 0
M  V30 14300 C 1341.91 1.71135 -0.947213 0
M  V30 14301 C 1342.29 2.04087 0.539601 0
M  V30 14302 O 1341.64 1.71866 1.5058 0
M  V30 14303 C 1341.85 2.96704 -1.8376 0
M  V30 14304 C 1343.2 3.69627 -2.08952 0
M  V30 14305 O 1344.22 3.06697 -1.81151 0
M  V30 14306 O 1343.08 4.82832 -2.55999 0
M  V30 14307 H 1340.18 0.746631 -0.355628 0
M  V30 14308 H 1342.72 1.05684 -1.32774 0
M  V30 14309 H 1341.49 2.68802 -2.84361 0
M  V30 14310 H 1341.12 3.69894 -1.45821 0
M  V30 14311 N 1342.11 1.02678 1.19562 0
M  V30 14312 C 1343.08 0.610407 2.20922 0
M  V30 14313 C 1344.08 -0.324858 1.57484 0
M  V30 14314 O 1345.27 -0.112153 1.73839 0
M  V30 14315 C 1342.4 -0.107115 3.40732 0
M  V30 14316 H 1343.59 1.50722 2.59274 0
M  V30 14317 H 1341.15 0.817725 1.33203 0
M  V30 14318 H 1341.88 -1.01837 3.07896 0
M  V30 14319 H 1341.67 0.564901 3.88009 0
M  V30 14320 H 1343.16 -0.385423 4.15818 0
M  V30 14321 N 1343.59 -1.35528 0.804364 0
M  V30 14322 C 1344.87 -1.93175 0.307049 0
M  V30 14323 C 1345.25 -1.73466 -1.20303 0
M  V30 14324 O 1344.6 -1.10235 -2.00151 0
M  V30 14325 C 1344.81 -3.41576 0.716018 0
M  V30 14326 C 1346.16 -4.18719 0.704242 0
M  V30 14327 O 1347.18 -3.50081 0.657423 0
M  V30 14328 O 1346.04 -5.41181 0.760601 0
M  V30 14329 H 1343.13 -0.823142 0.0797888 0
M  V30 14330 H 1345.68 -1.44617 0.887912 0
M  V30 14331 H 1344.45 -3.49642 1.75688 0
M  V30 14332 H 1344.07 -3.97448 0.109843 0
M  V30 14333 N 1345.07 -0.557671 -1.47404 0
M  V30 14334 C 1346.48 -0.124411 -1.86285 0
M  V30 14335 C 1346.83 1.30593 -1.46424 0
M  V30 14336 O 1345.96 1.9825 -0.867515 0
M  V30 14337 C 1346.55 -0.219005 -3.38091 0
M  V30 14338 C 1345.11 0.159221 -3.76063 0
M  V30 14339 C 1344.26 -0.566355 -2.71455 0
M  V30 14340 H 1347.21 -0.767367 -1.38914 0
M  V30 14341 H 1347.23 0.562267 -3.76323 0
M  V30 14342 H 1346.74 -1.26013 -3.67073 0
M  V30 14343 H 1344.84 1.20144 -3.52698 0
M  V30 14344 H 1344.96 -0.199662 -4.78684 0
M  V30 14345 H 1343.32 -0.00938921 -2.54698 0
M  V30 14346 H 1344.1 -1.60865 -3.03278 0
M  V30 14347 N 1346.55 1.54831 -0.294147 0
M  V30 14348 C 1347.48 2.26226 0.57827 0
M  V30 14349 C 1348.46 1.25928 1.14351 0
M  V30 14350 O 1349.65 1.54687 1.17412 0
M  V30 14351 C 1346.78 2.99783 1.75349 0
M  V30 14352 C 1345.73 4.07171 1.31892 0
M  V30 14353 C 1345.06 4.68406 2.57876 0
M  V30 14354 C 1346.36 5.20313 0.455167 0
M  V30 14355 H 1348.05 2.99395 -0.0171936 0
M  V30 14356 H 1345.6 1.43997 -0.00970944 0
M  V30 14357 H 1347.55 3.48448 2.36986 0
M  V30 14358 H 1346.27 2.24181 2.37509 0
M  V30 14359 H 1344.93 3.59346 0.725653 0
M  V30 14360 H 1344.58 3.89451 3.18335 0
M  V30 14361 H 1344.28 5.40927 2.29502 0
M  V30 14362 H 1345.8 5.1983 3.20327 0
M  V30 14363 H 1347.22 5.64913 0.977026 0
M  V30 14364 H 1345.61 5.99512 0.265501 0
M  V30 14365 H 1346.68 4.82088 -0.521434 0
M  V30 14366 N 1348.03 0.0217466 1.57585 0
M  V30 14367 C 1348.97 -0.962559 2.0977 0
M  V30 14368 C 1349.94 -1.32771 0.998053 0
M  V30 14369 O 1351.13 -1.42231 1.27181 0
M  V30 14370 C 1348.27 -2.24214 2.62339 0
M  V30 14371 C 1347.38 -1.9341 3.86286 0
M  V30 14372 C 1346.52 -3.15609 4.27275 0
M  V30 14373 C 1345.56 -2.8059 5.43999 0
M  V30 14374 N 1344.69 -3.95392 5.8018 0
M  V30 14375 H 1349.53 -0.510626 2.93593 0
M  V30 14376 H 1347.07 -0.240456 1.45121 0
M  V30 14377 H 1349.03 -2.99049 2.90905 0
M  V30 14378 H 1347.66 -2.67037 1.81358 0
M  V30 14379 H 1346.71 -1.08849 3.64494 0
M  V30 14380 H 1348.02 -1.63614 4.71203 0
M  V30 14381 H 1347.18 -3.9877 4.57239 0
M  V30 14382 H 1345.92 -3.48561 3.41111 0
M  V30 14383 H 1344.92 -1.9584 5.13738 0
M  V30 14384 H 1346.15 -2.48863 6.31858 0
M  V30 14385 H 1344.09 -4.282 4.96971 0
M  V30 14386 H 1344.01 -3.69195 6.59721 0
M  V30 14387 H 1345.28 -4.79279 6.14746 0
M  V30 14388 N 1349.51 -1.55583 -0.251311 0
M  V30 14389 C 1350.92 -1.47908 -0.599606 0
M  V30 14390 C 1351.12 -0.711061 -1.88537 0
M  V30 14391 O 1350.18 -0.238639 -2.5137 0
M  V30 14392 C 1351.49 -2.92284 -0.706429 0
M  V30 14393 C 1353.04 -3.02629 -0.799049 0
M  V30 14394 C 1353.51 -4.48303 -0.93747 0
M  V30 14395 N 1355 -4.52222 -1.00245 0
M  V30 14396 C 1355.74 -5.62181 -1.12874 0
M  V30 14397 N 1355.24 -6.81958 -1.22085 0
M  V30 14398 N 1357.03 -5.49968 -1.16155 0
M  V30 14399 H 1349.18 -2.0396 0.592806 0
M  V30 14400 H 1351.44 -0.925797 0.203971 0
M  V30 14401 H 1351.15 -3.51297 0.168243 0
M  V30 14402 H 1351.02 -3.42524 -1.57979 0
M  V30 14403 H 1353.41 -2.43699 -1.66418 0
M  V30 14404 H 1353.49 -2.55607 0.099367 0
M  V30 14405 H 1353.13 -5.07842 -0.0769166 0
M  V30 14406 H 1353.06 -4.93002 -1.85086 0
M  V30 14407 H 1355.56 -3.65951 -0.94279 0
M  V30 14408 H 1355.87 -7.6151 -1.31616 0
M  V30 14409 H 1354.21 -6.84728 -1.1905 0
M  V30 14410 H 1357.4 -4.55327 -1.08604 0
M  V30 14411 H 1357.58 -6.35701 -1.25653 0
M  V30 14412 N 1350.98 0.516783 -1.48886 0
M  V30 14413 C 1352.39 1.09856 -1.50959 0
M  V30 14414 C 1352.75 1.94092 -0.28681 0
M  V30 14415 O 1351.87 2.07774 0.604877 0
M  V30 14416 C 1352.47 1.999 -2.73542 0
M  V30 14417 C 1351.02 2.5327 -2.78444 0
M  V30 14418 C 1350.17 1.30526 -2.44659 0
M  V30 14419 H 1353.12 0.301415 -1.55811 0
M  V30 14420 H 1353.14 2.84373 -2.52809 0
M  V30 14421 H 1352.66 1.38564 -3.62521 0
M  V30 14422 H 1350.76 3.1829 -1.93707 0
M  V30 14423 H 1350.87 2.91502 -3.80215 0
M  V30 14424 H 1349.23 1.62536 -1.96097 0
M  V30 14425 H 1350.02 0.709223 -3.35894 0
M  V30 14426 N 1352.46 1.37696 0.766659 0
M  V30 14427 C 1353.69 1.3639 1.55581 0
M  V30 14428 C 1354.1 -0.0495272 1.88735 0
M  V30 14429 O 1353.46 -1.01268 1.51826 0
M  V30 14430 C 1353.51 2.20717 2.86298 0
M  V30 14431 O 1353.23 3.56552 2.54563 0
M  V30 14432 C 1354.73 2.27446 3.80504 0
M  V30 14433 H 1351.95 0.466993 0.481828 0
M  V30 14434 H 1354.5 1.81103 0.949834 0
M  V30 14435 H 1352.65 1.79499 3.43306 0
M  V30 14436 H 1353.07 4.00811 3.38306 0
M  V30 14437 H 1354.54 2.90762 4.69214 0
M  V30 14438 H 1355.02 1.28434 4.20002 0
M  V30 14439 H 1355.62 2.68998 3.29424 0
M  V30 14440 N 1353.94 -0.993397 1.22349 0
M  V30 14441 C 1355.19 -1.73287 1.04775 0
M  V30 14442 C 1355.51 -1.89973 -0.417201 0
M  V30 14443 O 1354.77 -1.43966 -1.32561 0
M  V30 14444 C 1355.07 -3.14191 1.70349 0
M  V30 14445 C 1354.73 -3.17421 3.20241 0
M  V30 14446 C 1353.4 -3.1801 3.61141 0
M  V30 14447 C 1355.75 -3.13751 4.16185 0
M  V30 14448 C 1353.08 -3.12628 4.96468 0
M  V30 14449 C 1355.43 -3.09911 5.51487 0
M  V30 14450 C 1354.09 -3.08815 5.91768 0
M  V30 14451 H 1353.36 -0.634102 0.3834 0
M  V30 14452 H 1356.01 -1.16346 1.52105 0
M  V30 14453 H 1354.31 -3.74437 1.15343 0
M  V30 14454 H 1356.01 -3.70149 1.54242 0
M  V30 14455 H 1352.6 -3.17713 2.87674 0
M  V30 14456 H 1356.79 -3.12446 3.85605 0
M  V30 14457 H 1352.04 -3.10125 5.26909 0
M  V30 14458 H 1356.22 -3.06026 6.25556 0
M  V30 14459 H 1353.84 -3.044 6.96595 0
M  V30 14460 N 1355.42 -1.03311 -1.19015 0
M  V30 14461 C 1356.36 -0.617567 -2.22384 0
M  V30 14462 C 1357.33 0.370779 -1.61909 0
M  V30 14463 O 1358.52 0.266481 -1.8893 0
M  V30 14464 C 1355.66 0.0211303 -3.45094 0
M  V30 14465 C 1354.77 -1.01377 -4.19937 0
M  V30 14466 C 1353.91 -0.344385 -5.30082 0
M  V30 14467 C 1352.95 -1.3649 -5.96688 0
M  V30 14468 N 1352.08 -0.721026 -6.98388 0
M  V30 14469 H 1356.92 -1.5036 -2.57286 0
M  V30 14470 H 1354.46 -0.75235 -1.26405 0
M  V30 14471 H 1356.42 0.408713 -4.15193 0
M  V30 14472 H 1355.05 0.870721 -3.10835 0
M  V30 14473 H 1354.1 -1.51937 -3.4874 0
M  V30 14474 H 1355.41 -1.78921 -4.65606 0
M  V30 14475 H 1354.57 0.097814 -6.06621 0
M  V30 14476 H 1353.31 0.463216 -4.85495 0
M  V30 14477 H 1352.31 -1.81732 -5.18897 0
M  V30 14478 H 1353.54 -2.17407 -6.43359 0
M  V30 14479 H 1351.48 0.0664057 -6.55966 0
M  V30 14480 H 1351.4 -1.43428 -7.4227 0
M  V30 14481 H 1352.67 -0.30297 -7.78911 0
M  V30 14482 N 1356.9 1.35099 -0.81154 0
M  V30 14483 C 1357.83 2.28468 -0.183012 0
M  V30 14484 C 1358.84 1.50509 0.620553 0
M  V30 14485 O 1360.03 1.7268 0.4521 0
M  V30 14486 C 1357.13 3.30201 0.762933 0
M  V30 14487 C 1356.3 4.374 0.00466561 0
M  V30 14488 C 1355.36 5.18961 0.869832 0
M  V30 14489 O 1354.39 5.68306 0.318964 0
M  V30 14490 N 1355.59 5.37555 2.19123 0
M  V30 14491 H 1358.35 2.83046 -0.985132 0
M  V30 14492 H 1355.92 1.47502 -0.667449 0
M  V30 14493 H 1357.91 3.81659 1.34606 0
M  V30 14494 H 1356.48 2.76101 1.46584 0
M  V30 14495 H 1355.7 3.8681 -0.759702 0
M  V30 14496 H 1356.99 5.06159 -0.517739 0
M  V30 14497 H 1356.38 4.99118 2.66266 0
M  V30 14498 H 1354.94 5.92174 2.72348 0
M  V30 14499 N 1358.37 0.56548 1.47106 0
M  V30 14500 C 1359.62 0.042333 2.01656 0
M  V30 14501 C 1359.94 -1.31892 1.44443 0
M  V30 14502 O 1361.14 -1.93245 1.90706 0
M  V30 14503 C 1359.6 0.0251556 3.59891 0
M  V30 14504 C 1359.21 1.38367 4.26097 0
M  V30 14505 C 1360.95 -0.44495 4.22162 0
M  V30 14506 C 1358.86 1.32516 5.76362 0
M  V30 14507 H 1357.79 0.0120557 0.753904 0
M  V30 14508 H 1360.44 0.714565 1.69015 0
M  V30 14509 H 1358.82 -0.712893 3.8953 0
M  V30 14510 H 1359.99 2.14009 4.08089 0
M  V30 14511 H 1358.31 1.79239 3.75849 0
M  V30 14512 H 1360.91 -0.507256 5.32288 0
M  V30 14513 H 1361.25 -1.45876 3.89905 0
M  V30 14514 H 1361.78 0.238496 3.97084 0
M  V30 14515 H 1358.52 2.31523 6.13252 0
M  V30 14516 H 1358.04 0.610674 5.96683 0
M  V30 14517 H 1359.72 1.03072 6.38737 0
M  V30 14518 N 1359.85 -1.54672 0.302354 0
M  V30 14519 C 1361.1 -2.00463 -0.306978 0
M  V30 14520 C 1361.43 -1.19043 -1.53435 0
M  V30 14521 O 1360.71 -0.267255 -1.92655 0
M  V30 14522 C 1360.99 -3.53958 -0.662229 0
M  V30 14523 C 1360.84 -4.46118 0.574378 0
M  V30 14524 C 1362.16 -4.14174 -1.48821 0
M  V30 14525 H 1359.28 -0.728729 -0.110102 0
M  V30 14526 H 1361.92 -1.85419 0.414722 0
M  V30 14527 H 1360.07 -3.66909 -1.2771 0
M  V30 14528 H 1361.74 -4.45071 1.21284 0
M  V30 14529 H 1359.99 -4.1666 1.20736 0
M  V30 14530 H 1360.66 -5.51281 0.281651 0
M  V30 14531 H 1363.13 -4.04668 -0.968674 0
M  V30 14532 H 1362.01 -5.2173 -1.70556 0
M  V30 14533 H 1362.27 -3.66136 -2.47784 0
M  V30 14534 N 1361.33 -0.0301034 -1.57571 0
M  V30 14535 C 1362.26 0.980187 -2.07183 0
M  V30 14536 C 1363.28 1.2882 -0.995449 0
M  V30 14537 O 1364.46 1.25268 -1.27162 0
M  V30 14538 C 1361.56 2.30734 -2.48224 0
M  V30 14539 C 1360.74 2.18434 -3.78953 0
M  V30 14540 C 1359.8 3.34092 -4.06533 0
M  V30 14541 O 1358.82 3.10934 -4.76769 0
M  V30 14542 N 1360.02 4.57914 -3.56784 0
M  V30 14543 H 1362.79 0.556877 -2.94481 0
M  V30 14544 H 1360.35 0.156632 -1.61141 0
M  V30 14545 H 1362.34 3.06936 -2.63766 0
M  V30 14546 H 1360.91 2.64703 -1.66287 0
M  V30 14547 H 1360.13 1.26953 -3.73198 0
M  V30 14548 H 1361.42 2.07421 -4.64601 0
M  V30 14549 H 1360.82 4.79623 -2.99964 0
M  V30 14550 H 1359.38 5.31281 -3.77603 0
M  V30 14551 N 1362.81 1.55714 0.243056 0
M  V30 14552 C 1363.74 1.93655 1.30461 0
M  V30 14553 C 1364.72 0.801968 1.50008 0
M  V30 14554 O 1365.9 1.06256 1.62552 0
M  V30 14555 C 1363.03 2.23459 2.65863 0
M  V30 14556 C 1361.99 3.39205 2.61006 0
M  V30 14557 C 1361.31 3.5456 4.00239 0
M  V30 14558 C 1362.61 4.74787 2.17656 0
M  V30 14559 H 1364.31 2.82575 0.98954 0
M  V30 14560 H 1361.85 1.35955 0.474572 0
M  V30 14561 H 1363.81 2.48591 3.40266 0
M  V30 14562 H 1362.53 1.31369 2.99014 0
M  V30 14563 H 1361.19 3.14088 1.89061 0
M  V30 14564 H 1360.84 2.59884 4.30661 0
M  V30 14565 H 1360.54 4.32399 3.97876 0
M  V30 14566 H 1362.06 3.82017 4.76335 0
M  V30 14567 H 1363.48 4.99266 2.81792 0
M  V30 14568 H 1361.87 5.55756 2.26397 0
M  V30 14569 H 1362.94 4.7159 1.12831 0
M  V30 14570 N 1364.29 -0.50888 1.49158 0
M  V30 14571 C 1365.54 -1.26008 1.57496 0
M  V30 14572 C 1365.85 -1.9382 0.263281 0
M  V30 14573 O 1367.05 -2.70565 0.225117 0
M  V30 14574 C 1365.51 -2.28752 2.7785 0
M  V30 14575 C 1365.12 -1.66915 4.15744 0
M  V30 14576 C 1366.86 -3.0475 2.95513 0
M  V30 14577 C 1364.77 -2.67724 5.27331 0
M  V30 14578 H 1363.7 -0.473984 0.586392 0
M  V30 14579 H 1366.35 -0.534886 1.75531 0
M  V30 14580 H 1364.73 -3.044 2.53292 0
M  V30 14581 H 1365.91 -0.973131 4.50407 0
M  V30 14582 H 1364.22 -1.03336 4.03374 0
M  V30 14583 H 1366.82 -3.80121 3.76048 0
M  V30 14584 H 1367.16 -3.6189 2.05771 0
M  V30 14585 H 1367.69 -2.36217 3.20072 0
M  V30 14586 H 1364.43 -2.15375 6.19107 0
M  V30 14587 H 1363.95 -3.35589 4.97132 0
M  V30 14588 H 1365.63 -3.30304 5.56335 0
M  V30 14589 N 1365.76 -1.381 -0.759346 0
M  V30 14590 C 1366.67 -1.37086 -1.9038 0
M  V30 14591 C 1367.69 -0.268738 -1.71912 0
M  V30 14592 O 1368.87 -0.506205 -1.94935 0
M  V30 14593 C 1365.93 -1.18905 -3.25672 0
M  V30 14594 C 1364.99 -2.3887 -3.56707 0
M  V30 14595 C 1364.23 -2.21546 -4.85544 0
M  V30 14596 O 1364.45 -1.20616 -5.57501 0
M  V30 14597 O 1363.38 -3.10009 -5.15924 0
M  V30 14598 H 1367.21 -2.33505 -1.94188 0
M  V30 14599 H 1364.79 -1.18959 -0.903826 0
M  V30 14600 H 1366.68 -1.10803 -4.06572 0
M  V30 14601 H 1365.35 -0.255675 -3.22689 0
M  V30 14602 H 1364.26 -2.52546 -2.75992 0
M  V30 14603 H 1365.59 -3.30817 -3.64446 0
M  V30 14604 N 1367.24 0.986894 -1.22875 0
M  V30 14605 C 1368.19 2.07811 -1.00416 0
M  V30 14606 C 1369.16 1.65925 0.0761734 0
M  V30 14607 O 1370.34 1.90654 -0.0746294 0
M  V30 14608 C 1367.48 3.39941 -0.594471 0
M  V30 14609 C 1366.6 3.95134 -1.74622 0
M  V30 14610 C 1365.73 5.1545 -1.28394 0
M  V30 14611 C 1364.77 5.62794 -2.40686 0
M  V30 14612 N 1363.91 6.74343 -1.95462 0
M  V30 14613 H 1368.75 2.26356 -1.93822 0
M  V30 14614 H 1366.29 1.10966 -0.965661 0
M  V30 14615 H 1368.24 4.15828 -0.338078 0
M  V30 14616 H 1366.87 3.21379 0.302587 0
M  V30 14617 H 1365.93 3.16064 -2.11679 0
M  V30 14618 H 1367.24 4.26247 -2.59066 0
M  V30 14619 H 1366.39 5.98646 -0.98529 0
M  V30 14620 H 1365.13 4.85975 -0.409789 0
M  V30 14621 H 1364.14 4.78182 -2.71333 0
M  V30 14622 H 1365.36 5.9429 -3.28627 0
M  V30 14623 H 1363.31 6.46641 -1.10417 0
M  V30 14624 H 1363.22 7.04806 -2.73469 0
M  V30 14625 H 1364.49 7.6103 -1.68683 0
M  V30 14626 N 1368.72 1.0394 1.18466 0
M  V30 14627 C 1369.65 0.587413 2.21545 0
M  V30 14628 C 1370.67 -0.34227 1.59161 0
M  V30 14629 O 1371.85 -0.136988 1.77974 0
M  V30 14630 C 1368.95 -0.161999 3.38513 0
M  V30 14631 C 1368.13 0.775243 4.30475 0
M  V30 14632 C 1367.19 0.0693526 5.26154 0
M  V30 14633 O 1366.21 0.69937 5.64887 0
M  V30 14634 N 1367.41 -1.19773 5.68009 0
M  V30 14635 H 1370.18 1.47399 2.60948 0
M  V30 14636 H 1367.74 0.919734 1.33239 0
M  V30 14637 H 1369.73 -0.644041 3.99542 0
M  V30 14638 H 1368.3 -0.950099 2.97812 0
M  V30 14639 H 1367.52 1.43717 3.67068 0
M  V30 14640 H 1368.81 1.41187 4.88819 0
M  V30 14641 H 1368.21 -1.73013 5.38593 0
M  V30 14642 H 1366.77 -1.62407 6.31243 0
M  V30 14643 N 1370.2 -1.34667 0.818693 0
M  V30 14644 C 1371.45 -1.9767 0.401184 0
M  V30 14645 C 1371.76 -1.65644 -1.04027 0
M  V30 14646 O 1372.97 -2.22104 -1.56148 0
M  V30 14647 C 1371.42 -3.53677 0.666398 0
M  V30 14648 C 1371.03 -3.94601 2.12119 0
M  V30 14649 C 1372.77 -4.23331 0.314845 0
M  V30 14650 C 1370.68 -5.43502 2.33151 0
M  V30 14651 H 1369.61 -0.739675 0.146275 0
M  V30 14652 H 1372.26 -1.53568 1.00445 0
M  V30 14653 H 1370.64 -3.95999 -0.00698307 0
M  V30 14654 H 1371.82 -3.63396 2.83338 0
M  V30 14655 H 1370.13 -3.37871 2.43377 0
M  V30 14656 H 1372.73 -5.32804 0.449881 0
M  V30 14657 H 1373.07 -4.09666 -0.740235 0
M  V30 14658 H 1373.61 -3.8647 0.942631 0
M  V30 14659 H 1370.35 -5.62148 3.37149 0
M  V30 14660 H 1369.87 -5.76236 1.66471 0
M  V30 14661 H 1371.54 -6.10127 2.153 0
M  V30 14662 N 1371.68 -0.573274 -1.46804 0
M  V30 14663 C 1372.9 -0.0586717 -2.07317 0
M  V30 14664 C 1373.33 1.2328 -1.42069 0
M  V30 14665 O 1372.68 1.74235 -0.501188 0
M  V30 14666 C 1372.73 0.103503 -3.60451 0
M  V30 14667 O 1371.84 1.16229 -3.95682 0
M  V30 14668 H 1371.18 -0.0585504 -0.661414 0
M  V30 14669 H 1373.71 -0.793532 -1.88585 0
M  V30 14670 H 1373.72 0.312658 -4.068 0
M  V30 14671 H 1372.39 -0.839684 -4.07335 0
M  V30 14672 H 1370.97 0.932347 -3.61056 0
M  V30 14673 N 1373.15 1.5451 -0.310553 0
M  V30 14674 C 1374.06 2.27557 0.570518 0
M  V30 14675 C 1375.08 1.31426 1.14032 0
M  V30 14676 O 1376.26 1.64423 1.16306 0
M  V30 14677 C 1373.32 3.00933 1.72163 0
M  V30 14678 C 1372.38 4.12623 1.18495 0
M  V30 14679 C 1371.62 4.8249 2.28121 0
M  V30 14680 O 1371.84 4.5178 3.48211 0
M  V30 14681 O 1370.77 5.69686 1.94273 0
M  V30 14682 H 1374.6 3.03692 -0.0223195 0
M  V30 14683 H 1372.18 1.49203 -0.0766821 0
M  V30 14684 H 1374.07 3.46925 2.39208 0
M  V30 14685 H 1372.74 2.27685 2.3009 0
M  V30 14686 H 1371.65 3.71008 0.479956 0
M  V30 14687 H 1372.98 4.87876 0.650994 0
M  V30 14688 N 1374.63 0.0384594 1.57553 0
M  V30 14689 C 1375.86 -0.651613 1.96898 0
M  V30 14690 C 1376.28 -1.64328 0.915308 0
M  V30 14691 O 1375.64 -1.80883 -0.122824 0
M  V30 14692 C 1375.69 -1.32613 3.3533 0
M  V30 14693 O 1374.79 -2.44159 3.32355 0
M  V30 14694 H 1374.13 -0.170441 0.641752 0
M  V30 14695 H 1376.66 0.103086 2.0434 0
M  V30 14696 H 1376.67 -1.68076 3.71772 0
M  V30 14697 H 1375.35 -0.599275 4.1156 0
M  V30 14698 H 1373.93 -2.10738 3.07642 0
M  V30 14699 N 1376.11 -1.55841 -0.234795 0
M  V30 14700 C 1377.34 -1.82307 -0.978355 0
M  V30 14701 C 1377.75 -0.615825 -1.78474 0
M  V30 14702 O 1377.11 0.4156 -1.77705 0
M  V30 14703 C 1377.16 -3.07136 -1.90655 0
M  V30 14704 O 1376.88 -4.23202 -1.13278 0
M  V30 14705 C 1378.38 -3.46492 -2.76511 0
M  V30 14706 H 1375.6 -0.606361 -0.287345 0
M  V30 14707 H 1378.15 -2.02916 -0.254023 0
M  V30 14708 H 1376.3 -2.88542 -2.58501 0
M  V30 14709 H 1376.72 -4.94029 -1.76168 0
M  V30 14710 H 1378.19 -4.36908 -3.37366 0
M  V30 14711 H 1378.67 -2.67633 -3.48238 0
M  V30 14712 H 1379.27 -3.6748 -2.14099 0
M  V30 14713 N 1377.59 0.500963 -1.49426 0
M  V30 14714 C 1378.54 1.62335 -1.66584 0
M  V30 14715 C 1379.53 1.60837 -0.531773 0
M  V30 14716 O 1380.74 1.65345 -0.711408 0
M  V30 14717 H 1377.11 0.538131 -0.52528 0
M  V30 14718 H 1379.08 1.45016 -2.60793 0
M  V30 14719 C 1377.83 3.00469 -1.74968 0
M  V30 14720 H 1377.16 3.02328 -2.61607 0
M  V30 14721 H 1378.6 3.78539 -1.91008 0
M  V30 14722 C 1377.05 3.33251 -0.49451 0
M  V30 14723 O 1377.58 3.99901 0.379783 0
M  V30 14724 N 1375.79 2.88393 -0.357445 0
M  V30 14725 H 1375.34 2.3433 -1.06991 0
M  V30 14726 H 1375.3 3.10694 0.481287 0
M  V30 14727 N 1379.07 1.38501 0.752011 0
M  V30 14728 C 1380.02 1.32359 1.85648 0
M  V30 14729 C 1381 0.207578 1.59555 0
M  V30 14730 O 1382.19 0.443683 1.71349 0
M  V30 14731 C 1379.32 1.15253 3.23375 0
M  V30 14732 C 1378.41 2.31483 3.55354 0
M  V30 14733 N 1378.8 3.56929 3.58379 0
M  V30 14734 C 1377.1 2.2407 3.85628 0
M  V30 14735 C 1377.8 4.33691 3.87669 0
M  V30 14736 N 1376.77 3.63065 4.04579 0
M  V30 14737 H 1380.58 2.27336 1.86267 0
M  V30 14738 H 1378.09 1.31755 0.949441 0
M  V30 14739 H 1380.09 1.08937 4.02416 0
M  V30 14740 H 1378.75 0.212108 3.24006 0
M  V30 14741 H 1379.76 3.90578 3.40101 0
M  V30 14742 H 1376.44 1.38196 3.93965 0
M  V30 14743 H 1377.83 5.42349 3.9662 0
M  V30 14744 N 1380.55 -0.980364 1.23396 0
M  V30 14745 C 1381.79 -1.71592 1.06015 0
M  V30 14746 C 1382.11 -1.91401 -0.403103 0
M  V30 14747 O 1383.31 -2.62405 -0.696853 0
M  V30 14748 C 1381.77 -3.08795 1.84861 0
M  V30 14749 C 1381.38 -2.96873 3.35515 0
M  V30 14750 C 1383.12 -3.8631 1.75968 0
M  V30 14751 C 1381.03 -4.29308 4.06753 0
M  V30 14752 H 1379.96 -0.643423 0.393095 0
M  V30 14753 H 1382.61 -1.09345 1.47363 0
M  V30 14754 H 1380.99 -3.71797 1.36318 0
M  V30 14755 H 1382.17 -2.4296 3.91544 0
M  V30 14756 H 1380.48 -2.32833 3.45221 0
M  V30 14757 H 1383.08 -4.84355 2.26504 0
M  V30 14758 H 1383.42 -4.09983 0.722464 0
M  V30 14759 H 1383.95 -3.3001 2.22122 0
M  V30 14760 H 1380.69 -4.10831 5.10782 0
M  V30 14761 H 1380.21 -4.83086 3.55511 0
M  V30 14762 H 1381.89 -4.97995 4.1305 0
M  V30 14763 N 1382.02 -1.04567 -1.17913 0
M  V30 14764 C 1383.25 -0.771084 -1.91671 0
M  V30 14765 C 1383.66 0.676261 -1.76701 0
M  V30 14766 O 1383 1.47314 -1.09746 0
M  V30 14767 C 1383.07 -1.06406 -3.43392 0
M  V30 14768 C 1382.73 -2.50632 -3.82142 0
M  V30 14769 C 1383.73 -3.48825 -3.85509 0
M  V30 14770 C 1381.41 -2.85476 -4.1329 0
M  V30 14771 C 1383.41 -4.79909 -4.19483 0
M  V30 14772 C 1381.09 -4.16766 -4.46934 0
M  V30 14773 C 1382.09 -5.13793 -4.50007 0
M  V30 14774 O 1381.78 -6.42728 -4.82862 0
M  V30 14775 H 1381.51 -0.280258 -0.615168 0
M  V30 14776 H 1384.07 -1.39781 -1.50501 0
M  V30 14777 H 1382.3 -0.380221 -3.84826 0
M  V30 14778 H 1383.98 -0.776475 -3.98404 0
M  V30 14779 H 1384.75 -3.23245 -3.61577 0
M  V30 14780 H 1380.63 -2.10621 -4.10073 0
M  V30 14781 H 1384.17 -5.55638 -4.21796 0
M  V30 14782 H 1380.07 -4.42111 -4.70328 0
M  V30 14783 H 1380.84 -6.47454 -5.00744 0
M  V30 14784 N 1383.5 1.34231 -0.825823 0
M  V30 14785 C 1384.73 2.02949 -0.427354 0
M  V30 14786 C 1385.15 1.61772 0.959755 0
M  V30 14787 O 1384.51 0.803799 1.62508 0
M  V30 14788 C 1384.56 3.56522 -0.540799 0
M  V30 14789 O 1383.66 4.10065 0.438213 0
M  V30 14790 H 1383 0.640378 -0.175535 0
M  V30 14791 H 1385.53 1.71416 -1.11704 0
M  V30 14792 H 1385.54 4.05857 -0.41763 0
M  V30 14793 H 1384.22 3.85839 -1.55246 0
M  V30 14794 H 1382.79 3.71894 0.273687 0
M  V30 14795 N 1384.98 0.581051 1.46498 0
M  V30 14796 C 1385.93 -0.165944 2.32007 0
M  V30 14797 C 1386.92 -0.886015 1.44382 0
M  V30 14798 O 1388.13 -0.804592 1.61017 0
M  V30 14799 H 1384.5 -0.0723834 0.748508 0
M  V30 14800 H 1386.47 0.574089 2.92826 0
M  V30 14801 C 1385.22 -1.16741 3.27516 0
M  V30 14802 H 1384.55 -0.622756 3.9492 0
M  V30 14803 H 1385.99 -1.66052 3.90132 0
M  V30 14804 C 1384.44 -2.22755 2.52749 0
M  V30 14805 O 1384.97 -3.30081 2.28932 0
M  V30 14806 N 1383.18 -1.97318 2.1334 0
M  V30 14807 H 1382.73 -1.10049 2.3291 0
M  V30 14808 H 1382.69 -2.68461 1.63633 0
M  V30 14809 N 1386.46 -1.54343 0.318742 0
M  V30 14810 C 1387.39 -2.27118 -0.542206 0
M  V30 14811 C 1388.37 -1.27731 -1.12334 0
M  V30 14812 O 1389.55 -1.56535 -1.14937 0
M  V30 14813 C 1386.68 -3.02535 -1.70558 0
M  V30 14814 C 1385.64 -4.09218 -1.25398 0
M  V30 14815 C 1384.96 -4.72449 -2.50391 0
M  V30 14816 C 1386.26 -5.20971 -0.372332 0
M  V30 14817 H 1387.96 -2.9933 0.0648226 0
M  V30 14818 H 1385.5 -1.43963 0.0326168 0
M  V30 14819 H 1387.46 -3.52174 -2.31412 0
M  V30 14820 H 1386.18 -2.27931 -2.33912 0
M  V30 14821 H 1384.84 -3.60455 -0.668392 0
M  V30 14822 H 1384.49 -3.94466 -3.12099 0
M  V30 14823 H 1384.19 -5.4451 -2.20868 0
M  V30 14824 H 1385.71 -5.2486 -3.12016 0
M  V30 14825 H 1387.13 -5.66396 -0.887029 0
M  V30 14826 H 1385.52 -5.99859 -0.17009 0
M  V30 14827 H 1386.59 -4.81198 0.598064 0
M  V30 14828 N 1387.94 -0.0468143 -1.5753 0
M  V30 14829 C 1388.9 0.914225 -2.10177 0
M  V30 14830 C 1389.9 1.24271 -1.02045 0
M  V30 14831 O 1391.09 1.18012 -1.28136 0
M  V30 14832 C 1388.22 2.22544 -2.58238 0
M  V30 14833 H 1389.41 0.457922 -2.96383 0
M  V30 14834 H 1386.97 0.20152 -1.54995 0
M  V30 14835 H 1387.7 2.72765 -1.75413 0
M  V30 14836 H 1387.49 2.00007 -3.37253 0
M  V30 14837 H 1388.98 2.91392 -2.99133 0
M  V30 14838 N 1389.41 1.55964 0.226527 0
M  V30 14839 C 1390.36 1.92857 1.30034 0
M  V30 14840 C 1391.36 0.810008 1.48779 0
M  V30 14841 O 1392.56 0.994801 1.50012 0
M  V30 14842 H 1388.94 0.612807 0.435857 0
M  V30 14843 H 1390.91 2.82469 0.96196 0
M  V30 14844 C 1389.66 2.25735 2.6446 0
M  V30 14845 H 1388.98 3.11317 2.50842 0
M  V30 14846 H 1390.42 2.55437 3.3842 0
M  V30 14847 C 1388.88 1.08074 3.19095 0
M  V30 14848 O 1389.41 0.339279 4.00265 0
M  V30 14849 N 1387.62 0.86589 2.774 0
M  V30 14850 H 1387.16 1.47055 2.11501 0
M  V30 14851 H 1387.12 0.0803566 3.14297 0
M  V30 14852 N 1390.89 -0.493031 1.4969 0
M  V30 14853 C 1392.13 -1.25673 1.61201 0
M  V30 14854 C 1392.5 -1.8971 0.295685 0
M  V30 14855 O 1393.7 -2.67274 0.286046 0
M  V30 14856 C 1391.97 -2.28923 2.74462 0
M  V30 14857 S 1393.53 -3.14525 3.05973 0
M  V30 14858 H 1390.35 -0.426985 0.568511 0
M  V30 14859 H 1392.95 -0.557497 1.87383 0
M  V30 14860 H 1391.65 -1.80421 3.68614 0
M  V30 14861 H 1391.18 -3.03504 2.50298 0
M  V30 14862 H 1393.2 -4.29717 2.48108 0
M  V30 14863 N 1392.37 -1.38898 -0.744656 0
M  V30 14864 C 1393.6 -1.3903 -1.53901 0
M  V30 14865 C 1394.02 0.0156607 -1.88093 0
M  V30 14866 O 1393.38 1.00012 -1.51219 0
M  V30 14867 C 1393.43 -2.2609 -2.80919 0
M  V30 14868 O 1392.53 -1.68414 -3.76444 0
M  V30 14869 H 1391.87 -0.473854 -0.465144 0
M  V30 14870 H 1394.4 -1.82773 -0.919525 0
M  V30 14871 H 1394.41 -2.40264 -3.29754 0
M  V30 14872 H 1393.09 -3.28271 -2.55364 0
M  V30 14873 H 1391.66 -1.63431 -3.35179 0
M  V30 14874 N 1393.85 0.973806 -1.23914 0
M  V30 14875 C 1395.26 1.53057 -1.06913 0
M  V30 14876 C 1395.61 1.92842 0.361423 0
M  V30 14877 O 1394.74 1.76716 1.24901 0
M  V30 14878 C 1395.33 2.78137 -1.93457 0
M  V30 14879 C 1393.89 3.3019 -1.80697 0
M  V30 14880 C 1393.04 2.03137 -1.88761 0
M  V30 14881 H 1395.99 0.792767 -1.37481 0
M  V30 14882 H 1396.01 3.5124 -1.46325 0
M  V30 14883 H 1395.52 2.49149 -2.97568 0
M  V30 14884 H 1393.62 3.64043 -0.793951 0
M  V30 14885 H 1393.73 3.99503 -2.64451 0
M  V30 14886 H 1392.1 2.17572 -1.32418 0
M  V30 14887 H 1392.88 1.76522 -2.9444 0
M  V30 14888 N 1395.33 1.05191 1.17357 0
M  V30 14889 C 1396.27 0.646796 2.23426 0
M  V30 14890 C 1397.27 -0.331918 1.66116 0
M  V30 14891 O 1398.47 -0.197982 1.78908 0
M  V30 14892 H 1394.85 0.190988 0.727343 0
M  V30 14893 H 1396.82 1.55152 2.54893 0
M  V30 14894 C 1395.57 0.037505 3.4768 0
M  V30 14895 H 1394.89 0.781686 3.92084 0
M  V30 14896 H 1396.33 -0.20858 4.23487 0
M  V30 14897 C 1394.79 -1.21581 3.14197 0
M  V30 14898 O 1395.32 -2.3052 3.28973 0
M  V30 14899 N 1393.53 -1.11346 2.68422 0
M  V30 14900 H 1393.07 -0.226943 2.56598 0
M  V30 14901 H 1393.03 -1.95291 2.46392 0
M  V30 14902 N 1396.8 -1.33791 0.83293 0
M  V30 14903 C 1398.22 -1.50893 0.519955 0
M  V30 14904 C 1398.42 -1.7749 -0.953919 0
M  V30 14905 O 1397.48 -1.83168 -1.73798 0
M  V30 14906 C 1398.79 -2.66741 1.38815 0
M  V30 14907 C 1400.34 -2.80625 1.38631 0
M  V30 14908 C 1400.81 -3.99528 2.23922 0
M  V30 14909 N 1402.3 -4.06753 2.21599 0
M  V30 14910 C 1403.04 -4.97937 2.84335 0
M  V30 14911 N 1402.53 -5.94276 3.561 0
M  V30 14912 N 1404.33 -4.90887 2.73837 0
M  V30 14913 H 1396.48 -1.14788 1.7871 0
M  V30 14914 H 1398.74 -0.563822 0.762108 0
M  V30 14915 H 1398.45 -2.53748 2.43525 0
M  V30 14916 H 1398.32 -3.62001 1.05996 0
M  V30 14917 H 1400.71 -2.93053 0.346951 0
M  V30 14918 H 1400.79 -1.86144 1.75454 0
M  V30 14919 H 1400.43 -3.8786 3.27914 0
M  V30 14920 H 1400.36 -4.93242 1.84444 0
M  V30 14921 H 1402.85 -3.37802 1.69406 0
M  V30 14922 H 1403.17 -6.60504 4.01191 0
M  V30 14923 H 1401.51 -5.9437 3.60207 0
M  V30 14924 H 1404.7 -4.14586 2.17338 0
M  V30 14925 H 1404.88 -5.61752 3.23014 0
M  V30 14926 N 1398.28 -0.588812 -1.46187 0
M  V30 14927 C 1399.21 0.178825 -2.28501 0
M  V30 14928 C 1400.23 0.849686 -1.38867 0
M  V30 14929 O 1401.42 0.718224 -1.63413 0
M  V30 14930 C 1398.52 1.27309 -3.14079 0
M  V30 14931 C 1397.69 0.692974 -4.31876 0
M  V30 14932 C 1396.75 1.67572 -4.98805 0
M  V30 14933 O 1395.77 1.20937 -5.56204 0
M  V30 14934 N 1396.98 3.00992 -4.96371 0
M  V30 14935 H 1399.74 -0.527407 -2.95023 0
M  V30 14936 H 1397.3 -0.426998 -1.56168 0
M  V30 14937 H 1399.29 1.92993 -3.55719 0
M  V30 14938 H 1397.86 1.88209 -2.49592 0
M  V30 14939 H 1397.08 -0.141485 -3.93946 0
M  V30 14940 H 1398.37 0.28529 -5.08 0
M  V30 14941 H 1397.77 3.41498 -4.50994 0
M  V30 14942 H 1396.33 3.62149 -5.41933 0
M  V30 14943 N 1399.76 1.54172 -0.326923 0
M  V30 14944 C 1400.71 2.24454 0.537501 0
M  V30 14945 C 1401.68 1.23658 1.10896 0
M  V30 14946 O 1402.86 1.52348 1.14868 0
M  V30 14947 C 1400 3.00839 1.69085 0
M  V30 14948 C 1399.12 4.16459 1.1483 0
M  V30 14949 C 1398.25 4.80368 2.26761 0
M  V30 14950 C 1397.29 5.88085 1.69771 0
M  V30 14951 N 1396.43 6.45842 2.75378 0
M  V30 14952 H 1401.27 2.97921 -0.0684022 0
M  V30 14953 H 1398.8 1.4703 -0.0455287 0
M  V30 14954 H 1400.76 3.43375 2.36959 0
M  V30 14955 H 1399.39 2.297 2.26799 0
M  V30 14956 H 1398.44 3.78683 0.361004 0
M  V30 14957 H 1399.76 4.93986 0.69132 0
M  V30 14958 H 1398.91 5.25889 3.02533 0
M  V30 14959 H 1397.65 4.02228 2.75796 0
M  V30 14960 H 1396.65 5.41963 0.924985 0
M  V30 14961 H 1397.88 6.68123 1.21609 0
M  V30 14962 H 1395.82 5.70574 3.23699 0
M  V30 14963 H 1395.74 7.18792 2.34253 0
M  V30 14964 H 1397.01 6.96018 3.50969 0
M  V30 14965 N 1401.24 0.0551678 1.57503 0
M  V30 14966 C 1402.65 -0.479948 1.80426 0
M  V30 14967 C 1403 -1.70673 0.967733 0
M  V30 14968 O 1402.13 -2.15604 0.185462 0
M  V30 14969 C 1402.72 -0.877496 3.27239 0
M  V30 14970 C 1401.28 -1.35757 3.51066 0
M  V30 14971 C 1400.43 -0.334681 2.75273 0
M  V30 14972 H 1403.38 0.281016 1.56192 0
M  V30 14973 H 1403.4 -1.74013 3.38378 0
M  V30 14974 H 1402.91 0.015571 3.88097 0
M  V30 14975 H 1401.01 -2.26969 2.95492 0
M  V30 14976 H 1401.12 -1.34697 4.59776 0
M  V30 14977 H 1399.49 -0.808421 2.4153 0
M  V30 14978 H 1400.27 0.550369 3.3886 0
M  V30 14979 N 1402.72 -1.56081 -0.218252 0
M  V30 14980 C 1403.96 -1.79513 -0.943553 0
M  V30 14981 C 1404.3 -0.625367 -1.83855 0
M  V30 14982 O 1403.57 0.375226 -1.90846 0
M  V30 14983 C 1403.85 -3.13049 -1.77967 0
M  V30 14984 C 1403.71 -4.40479 -0.910939 0
M  V30 14985 C 1405.03 -3.43057 -2.7568 0
M  V30 14986 H 1402.14 -0.653057 -0.341593 0
M  V30 14987 H 1404.79 -1.88811 -0.212226 0
M  V30 14988 H 1402.94 -3.05254 -2.40318 0
M  V30 14989 H 1404.61 -4.60298 -0.303922 0
M  V30 14990 H 1402.85 -4.33259 -0.216513 0
M  V30 14991 H 1403.52 -5.3036 -1.53042 0
M  V30 14992 H 1406 -3.51002 -2.23465 0
M  V30 14993 H 1404.87 -4.37657 -3.31282 0
M  V30 14994 H 1405.14 -2.65389 -3.53584 0
M  V30 14995 N 1404.2 0.485086 -1.49949 0
M  V30 14996 C 1405.44 1.23999 -1.60474 0
M  V30 14997 C 1405.77 1.91904 -0.297736 0
M  V30 14998 O 1405.05 1.81472 0.699857 0
M  V30 14999 C 1405.33 2.2946 -2.77525 0
M  V30 15000 C 1405.19 1.65952 -4.18067 0
M  V30 15001 C 1406.5 3.30893 -2.90169 0
M  V30 15002 H 1403.62 0.449462 -0.584083 0
M  V30 15003 H 1406.27 0.535795 -1.82289 0
M  V30 15004 H 1404.42 2.89521 -2.59056 0
M  V30 15005 H 1406.09 1.09596 -4.48092 0
M  V30 15006 H 1404.33 0.963079 -4.22974 0
M  V30 15007 H 1405 2.42521 -4.9587 0
M  V30 15008 H 1407.48 2.8084 -3.07031 0
M  V30 15009 H 1406.35 4.02027 -3.73718 0
M  V30 15010 H 1406.61 3.94178 -2.0019 0
M  V30 15011 N 1405.67 1.39291 0.737279 0
M  V30 15012 C 1406.95 1.26901 1.48847 0
M  V30 15013 C 1407.33 -0.122417 2.10745 0
M  V30 15014 O 1406.68 -1.13343 1.98408 0
M  V30 15015 C 1406.89 2.3916 2.54172 0
M  V30 15016 C 1408.24 2.78368 3.20619 0
M  V30 15017 O 1409.26 2.38593 2.64484 0
M  V30 15018 O 1408.12 3.47014 4.22189 0
M  V30 15019 H 1405.21 0.497176 0.660867 0
M  V30 15020 H 1407.76 1.51159 0.771299 0
M  V30 15021 H 1406.53 3.3219 2.06797 0
M  V30 15022 H 1406.15 2.16555 3.33451 0
M  V30 15023 N 1407.15 -0.967221 1.24429 0
M  V30 15024 C 1408.1 -2.047 1.00409 0
M  V30 15025 C 1409.09 -1.60807 -0.0546412 0
M  V30 15026 O 1410.28 -1.76283 0.159145 0
M  V30 15027 C 1407.41 -3.37813 0.611345 0
M  V30 15028 C 1406.49 -3.88266 1.70618 0
M  V30 15029 N 1406.88 -4.1165 2.93901 0
M  V30 15030 C 1405.18 -4.16931 1.5838 0
M  V30 15031 C 1405.88 -4.53032 3.64879 0
M  V30 15032 N 1404.86 -4.58233 2.92444 0
M  V30 15033 H 1408.66 -2.20755 1.94021 0
M  V30 15034 H 1406.17 -1.15105 1.14562 0
M  V30 15035 H 1408.17 -4.14774 0.420493 0
M  V30 15036 H 1406.83 -3.23143 -0.317588 0
M  V30 15037 H 1407.84 -3.99087 3.30075 0
M  V30 15038 H 1404.52 -4.11193 0.722929 0
M  V30 15039 H 1405.91 -4.79533 4.70635 0
M  V30 15040 N 1408.63 -1.05812 -1.16797 0
M  V30 15041 C 1409.85 -0.792518 -1.91661 0
M  V30 15042 C 1410.28 0.646598 -1.76637 0
M  V30 15043 O 1409.64 1.44998 -1.08836 0
M  V30 15044 C 1409.69 -1.18585 -3.40544 0
M  V30 15045 O 1408.79 -0.321716 -4.11143 0
M  V30 15046 H 1408.13 -0.290066 -0.597292 0
M  V30 15047 H 1410.66 -1.41263 -1.48007 0
M  V30 15048 H 1410.67 -1.1553 -3.91301 0
M  V30 15049 H 1409.35 -2.23413 -3.50798 0
M  V30 15050 H 1407.92 -0.413403 -3.70601 0
M  V30 15051 N 1410.11 1.33347 -0.840014 0
M  V30 15052 C 1411.35 1.98037 -0.43692 0
M  V30 15053 C 1411.69 1.66382 1.00154 0
M  V30 15054 O 1410.96 0.944311 1.70038 0
M  V30 15055 C 1411.24 3.54012 -0.65937 0
M  V30 15056 C 1411.1 3.9535 -2.14518 0
M  V30 15057 C 1412.42 4.39972 -0.106258 0
M  V30 15058 H 1409.54 0.719373 -0.160221 0
M  V30 15059 H 1412.18 1.57969 -1.05574 0
M  V30 15060 H 1410.33 3.88274 -0.132633 0
M  V30 15061 H 1412 3.7134 -2.73687 0
M  V30 15062 H 1410.24 3.4504 -2.62926 0
M  V30 15063 H 1410.91 5.03992 -2.25158 0
M  V30 15064 H 1413.39 4.12362 -0.556511 0
M  V30 15065 H 1412.27 5.48125 -0.291583 0
M  V30 15066 H 1412.53 4.30872 0.990032 0
M  V30 15067 N 1411.59 0.596556 1.45873 0
M  V30 15068 C 1413 0.259317 1.57479 0
M  V30 15069 C 1413.2 -1.23829 1.58961 0
M  V30 15070 O 1412.26 -2.02076 1.51399 0
M  V30 15071 C 1413.57 0.920755 2.86256 0
M  V30 15072 C 1415.12 0.895638 2.99912 0
M  V30 15073 C 1415.59 1.53688 4.31444 0
M  V30 15074 N 1417.08 1.50186 4.38176 0
M  V30 15075 C 1417.82 1.96727 5.38596 0
M  V30 15076 N 1417.32 2.51304 6.45615 0
M  V30 15077 N 1419.11 1.87561 5.29884 0
M  V30 15078 H 1411.26 1.56909 1.43155 0
M  V30 15079 H 1413.52 0.656664 0.683737 0
M  V30 15080 H 1413.23 1.97481 2.91023 0
M  V30 15081 H 1413.1 0.437331 3.74656 0
M  V30 15082 H 1415.49 -0.149838 2.94719 0
M  V30 15083 H 1415.57 1.41722 2.12952 0
M  V30 15084 H 1415.21 2.58163 4.37395 0
M  V30 15085 H 1415.14 0.990408 5.17203 0
M  V30 15086 H 1417.64 1.10305 3.61443 0
M  V30 15087 H 1417.95 2.84639 7.18471 0
M  V30 15088 H 1416.29 2.55337 6.46396 0
M  V30 15089 H 1419.48 1.4467 4.45183 0
M  V30 15090 H 1419.66 2.24146 6.07999 0
M  V30 15091 N 1413.06 -1.53996 0.335095 0
M  V30 15092 C 1414.31 -1.99952 -0.264954 0
M  V30 15093 C 1414.63 -1.22696 -1.52332 0
M  V30 15094 O 1415.83 -1.59086 -2.20009 0
M  V30 15095 C 1414.29 -3.56085 -0.522667 0
M  V30 15096 C 1413.9 -4.42188 0.719314 0
M  V30 15097 C 1415.64 -4.10478 -1.08204 0
M  V30 15098 C 1413.55 -5.89814 0.432867 0
M  V30 15099 H 1412.48 -0.746962 -0.102782 0
M  V30 15100 H 1415.13 -1.77919 0.449111 0
M  V30 15101 H 1413.51 -3.7415 -1.29722 0
M  V30 15102 H 1414.68 -4.35898 1.49432 0
M  V30 15103 H 1413 -3.98743 1.19972 0
M  V30 15104 H 1415.6 -5.18375 -1.31116 0
M  V30 15105 H 1415.94 -3.63173 -2.03497 0
M  V30 15106 H 1416.47 -3.96091 -0.368395 0
M  V30 15107 H 1413.21 -6.41336 1.35529 0
M  V30 15108 H 1412.73 -5.99028 -0.304214 0
M  V30 15109 H 1414.41 -6.46983 0.0469657 0
M  V30 15110 N 1414.54 -0.0635198 -1.57472 0
M  V30 15111 C 1415.49 0.924358 -2.13444 0
M  V30 15112 C 1416.48 1.31389 -1.06927 0
M  V30 15113 O 1417.69 1.2921 -1.25319 0
M  V30 15114 H 1414.06 0.316003 -0.682383 0
M  V30 15115 H 1416.04 0.427281 -2.95325 0
M  V30 15116 C 1414.78 2.18546 -2.70431 0
M  V30 15117 H 1414.11 1.89455 -3.52061 0
M  V30 15118 H 1415.55 2.85799 -3.13201 0
M  V30 15119 C 1414.01 2.93845 -1.64794 0
M  V30 15120 O 1414.54 3.87242 -1.06802 0
M  V30 15121 N 1412.74 2.568 -1.36023 0
M  V30 15122 H 1412.29 1.80924 -1.83369 0
M  V30 15123 H 1412.25 3.07486 -0.655741 0
M  V30 15124 N 1416.02 1.56195 0.209972 0
M  V30 15125 C 1417.24 1.84189 0.953364 0
M  V30 15126 C 1417.67 0.645288 1.76685 0
M  V30 15127 O 1417.03 -0.405962 1.76696 0
M  V30 15128 C 1417.08 3.10281 1.83733 0
M  V30 15129 O 1416.18 2.89788 2.93422 0
M  V30 15130 H 1415.52 0.606931 0.269314 0
M  V30 15131 H 1418.05 2.03416 0.219783 0
M  V30 15132 H 1418.06 3.40688 2.2449 0
M  V30 15133 H 1416.74 3.97 1.23951 0
M  V30 15134 H 1415.31 2.70643 2.56528 0
M  V30 15135 N 1417.5 -0.477127 1.50204 0
M  V30 15136 C 1418.74 -1.23147 1.6113 0
M  V30 15137 C 1419.08 -1.91743 0.307909 0
M  V30 15138 O 1418.35 -1.81841 -0.690223 0
M  V30 15139 C 1418.63 -2.27985 2.78738 0
M  V30 15140 C 1418.49 -1.63733 4.18941 0
M  V30 15141 C 1419.81 -3.29349 2.9192 0
M  V30 15142 H 1416.93 -0.446358 0.586459 0
M  V30 15143 H 1419.57 -0.52612 1.8257 0
M  V30 15144 H 1417.72 -2.88143 2.60588 0
M  V30 15145 H 1419.39 -1.07218 4.48667 0
M  V30 15146 H 1417.63 -0.940634 4.23479 0
M  V30 15147 H 1418.3 -2.39888 4.9715 0
M  V30 15148 H 1420.78 -2.79208 3.08516 0
M  V30 15149 H 1419.66 -4.0004 3.75845 0
M  V30 15150 H 1419.92 -3.93111 2.02278 0
M  V30 15151 N 1418.98 -1.3968 -0.729882 0
M  V30 15152 C 1420.22 -1.36911 -1.4866 0
M  V30 15153 C 1420.55 0.0326011 -1.94973 0
M  V30 15154 O 1419.82 0.984789 -1.69348 0
M  V30 15155 H 1418.4 -0.503848 -0.551495 0
M  V30 15156 H 1421.06 -1.74596 -0.866155 0
M  V30 15157 H 1420.15 -2.03504 -2.36628 0
M  V30 15158 N 1420.45 0.960609 -1.2494 0
M  V30 15159 C 1421.68 1.7446 -1.12153 0
M  V30 15160 C 1422.1 1.85335 0.321315 0
M  V30 15161 O 1421.46 1.32944 1.23271 0
M  V30 15162 C 1421.51 3.13945 -1.774 0
M  V30 15163 O 1420.61 3.9882 -1.04958 0
M  V30 15164 H 1419.96 0.536007 -0.391909 0
M  V30 15165 H 1422.49 1.2045 -1.65388 0
M  V30 15166 H 1422.5 3.64434 -1.83444 0
M  V30 15167 H 1421.17 3.05346 -2.82377 0
M  V30 15168 H 1419.75 3.57293 -1.06752 0
M  V30 15169 N 1421.93 1.0643 1.16234 0
M  V30 15170 C 1423.16 0.802644 1.90697 0
M  V30 15171 C 1423.58 -0.643145 1.77508 0
M  V30 15172 O 1422.93 -1.4404 1.12065 0
M  V30 15173 C 1422.98 1.18984 3.41358 0
M  V30 15174 O 1422.7 2.5789 3.54153 0
M  V30 15175 C 1424.21 0.956132 4.32866 0
M  V30 15176 H 1421.43 0.290891 0.604668 0
M  V30 15177 H 1423.97 1.41829 1.47325 0
M  V30 15178 H 1422.12 0.618703 3.82428 0
M  V30 15179 H 1422.54 2.73431 4.47589 0
M  V30 15180 H 1424.01 1.27667 5.37034 0
M  V30 15181 H 1424.49 -0.108062 4.39067 0
M  V30 15182 H 1425.1 1.51172 3.97526 0
M  V30 15183 N 1423.41 -1.329 0.847073 0
M  V30 15184 C 1424.37 -2.27341 0.291324 0
M  V30 15185 C 1425.37 -1.51295 -0.544653 0
M  V30 15186 O 1426.56 -1.70497 -0.357258 0
M  V30 15187 C 1423.7 -3.35779 -0.588668 0
M  V30 15188 H 1424.89 -2.78009 1.12477 0
M  V30 15189 H 1422.44 -1.43442 0.620803 0
M  V30 15190 H 1423.18 -2.90366 -1.44423 0
M  V30 15191 H 1422.96 -3.92099 0.00960515 0
M  V30 15192 H 1424.45 -4.06166 -0.970526 0
M  V30 15193 N 1424.89 -0.604284 -1.45555 0
M  V30 15194 C 1426.11 -0.102634 -2.07146 0
M  V30 15195 C 1426.54 1.20239 -1.44652 0
M  V30 15196 O 1425.9 1.73133 -0.538033 0
M  V30 15197 C 1425.94 0.0270231 -3.6059 0
M  V30 15198 O 1425.05 1.0781 -3.98059 0
M  V30 15199 H 1424.39 -0.0725667 -0.660023 0
M  V30 15200 H 1426.92 -0.833355 -1.86859 0
M  V30 15201 H 1426.93 0.226299 -4.07372 0
M  V30 15202 H 1425.6 -0.925896 -4.05463 0
M  V30 15203 H 1424.18 0.855552 -3.62953 0
M  V30 15204 N 1426.37 1.53816 -0.343257 0
M  V30 15205 C 1427.59 2.05796 0.257418 0
M  V30 15206 C 1428.02 1.2166 1.43459 0
M  V30 15207 O 1427.37 0.230278 1.79832 0
M  V30 15208 C 1427.42 3.54681 0.65068 0
M  V30 15209 O 1426.53 3.73394 1.75074 0
M  V30 15210 H 1425.87 0.662622 0.042757 0
M  V30 15211 H 1428.4 1.98462 -0.497386 0
M  V30 15212 H 1428.41 3.97308 0.927914 0
M  V30 15213 H 1427.08 4.15368 -0.210199 0
M  V30 15214 H 1425.66 3.42669 1.4708 0
M  V30 15215 N 1427.84 0.0718701 1.57436 0
M  V30 15216 C 1429.07 -0.609701 1.98236 0
M  V30 15217 C 1429.49 -1.6235 0.949959 0
M  V30 15218 O 1428.85 -1.81103 -0.0844281 0
M  V30 15219 C 1428.9 -1.2547 3.38068 0
M  V30 15220 O 1428 -2.37055 3.37459 0
M  V30 15221 H 1427.35 -0.15679 0.645223 0
M  V30 15222 H 1429.88 0.146407 2.04076 0
M  V30 15223 H 1429.89 -1.60152 3.75254 0
M  V30 15224 H 1428.56 -0.511842 4.12738 0
M  V30 15225 H 1427.14 -2.04165 3.12043 0
M  V30 15226 N 1429.32 -1.56304 -0.201686 0
M  V30 15227 C 1430.25 -1.90538 -1.27389 0
M  V30 15228 C 1431.27 -0.795422 -1.42045 0
M  V30 15229 O 1432.46 -1.07381 -1.42589 0
M  V30 15230 C 1429.56 -2.11638 -2.64694 0
M  V30 15231 C 1428.73 -3.42755 -2.71731 0
M  V30 15232 C 1427.79 -3.53047 -3.90185 0
M  V30 15233 O 1426.81 -4.25923 -3.77595 0
M  V30 15234 N 1428.02 -2.85649 -5.05356 0
M  V30 15235 H 1430.78 -2.83106 -0.983411 0
M  V30 15236 H 1428.34 -1.57092 -0.391638 0
M  V30 15237 H 1430.33 -2.15818 -3.42352 0
M  V30 15238 H 1428.9 -1.256 -2.86258 0
M  V30 15239 H 1428.12 -3.50501 -1.80397 0
M  V30 15240 H 1429.41 -4.29092 -2.73418 0
M  V30 15241 H 1428.81 -2.26256 -5.18483 0
M  V30 15242 H 1427.37 -2.95465 -5.80985 0
M  V30 15243 N 1430.8 0.469154 -1.50455 0
M  V30 15244 C 1432.21 1.04997 -1.54378 0
M  V30 15245 C 1432.56 1.93082 -0.348414 0
M  V30 15246 O 1431.69 2.09594 0.538469 0
M  V30 15247 C 1432.28 1.91096 -2.79764 0
M  V30 15248 C 1430.84 2.44283 -2.86361 0
M  V30 15249 C 1429.99 1.22676 -2.48688 0
M  V30 15250 H 1432.94 0.251692 -1.56691 0
M  V30 15251 H 1432.96 2.76186 -2.61728 0
M  V30 15252 H 1432.47 1.26961 -3.66746 0
M  V30 15253 H 1430.57 3.11966 -2.03735 0
M  V30 15254 H 1430.69 2.79258 -3.89297 0
M  V30 15255 H 1429.05 1.56215 -2.01169 0
M  V30 15256 H 1429.83 0.602002 -3.37981 0
M  V30 15257 N 1432.28 1.40065 0.722464 0
M  V30 15258 C 1433.21 1.42532 1.84951 0
M  V30 15259 C 1434.19 0.287082 1.6766 0
M  V30 15260 O 1435.37 0.494715 1.87793 0
M  V30 15261 C 1432.5 1.28041 3.22836 0
M  V30 15262 C 1431.46 2.39396 3.54787 0
M  V30 15263 C 1430.78 2.09986 4.91742 0
M  V30 15264 C 1432.08 3.81729 3.56483 0
M  V30 15265 H 1433.78 2.36851 1.83144 0
M  V30 15266 H 1431.32 1.14005 0.879714 0
M  V30 15267 H 1433.28 1.28385 4.01367 0
M  V30 15268 H 1432 0.301947 3.25201 0
M  V30 15269 H 1430.66 2.3829 2.78592 0
M  V30 15270 H 1430.31 1.10547 4.90702 0
M  V30 15271 H 1430.01 2.84586 5.14086 0
M  V30 15272 H 1431.53 2.12 5.72615 0
M  V30 15273 H 1432.95 3.84696 4.25067 0
M  V30 15274 H 1431.34 4.55791 3.90351 0
M  V30 15275 H 1432.41 4.11807 2.56014 0
M  V30 15276 N 1433.76 -0.95397 1.25448 0
M  V30 15277 C 1434.69 -2.06828 1.08372 0
M  V30 15278 C 1435.67 -1.70098 -0.00741585 0
M  V30 15279 O 1436.85 -1.93521 0.16224 0
M  V30 15280 C 1433.98 -3.40124 0.702365 0
M  V30 15281 C 1432.94 -3.90865 1.74381 0
M  V30 15282 C 1432.26 -5.20663 1.21712 0
M  V30 15283 C 1433.56 -4.17169 3.14273 0
M  V30 15284 H 1435.26 -2.21372 2.01581 0
M  V30 15285 H 1432.8 -1.06374 0.970592 0
M  V30 15286 H 1434.76 -4.17529 0.569837 0
M  V30 15287 H 1433.48 -3.2552 -0.265428 0
M  V30 15288 H 1432.14 -3.15628 1.86479 0
M  V30 15289 H 1431.79 -5.02429 0.23954 0
M  V30 15290 H 1431.49 -5.55581 1.91319 0
M  V30 15291 H 1433.01 -6.00665 1.097 0
M  V30 15292 H 1434.43 -4.85231 3.05325 0
M  V30 15293 H 1432.82 -4.63344 3.81356 0
M  V30 15294 H 1433.89 -3.23421 3.61285 0
M  V30 15295 N 1435.24 -1.07045 -1.15668 0
M  V30 15296 C 1436.48 -0.792908 -1.86657 0
M  V30 15297 C 1436.81 0.679213 -1.81935 0
M  V30 15298 O 1436.09 1.49822 -1.2403 0
M  V30 15299 C 1436.37 -1.2978 -3.35901 0
M  V30 15300 C 1436.23 -2.83424 -3.49272 0
M  V30 15301 C 1437.54 -0.911821 -4.30551 0
M  V30 15302 H 1434.66 -0.289509 -0.677756 0
M  V30 15303 H 1437.31 -1.32769 -1.35913 0
M  V30 15304 H 1435.46 -0.84288 -3.79246 0
M  V30 15305 H 1437.13 -3.37182 -3.14811 0
M  V30 15306 H 1435.37 -3.21777 -2.90933 0
M  V30 15307 H 1436.04 -3.13819 -4.54116 0
M  V30 15308 H 1438.52 -1.30376 -3.95147 0
M  V30 15309 H 1437.39 -1.29247 -5.33467 0
M  V30 15310 H 1437.65 0.18255 -4.41723 0
M  V30 15311 N 1436.71 1.32449 -0.85411 0
M  V30 15312 C 1437.66 2.26394 -0.270121 0
M  V30 15313 C 1438.65 1.49939 0.58371 0
M  V30 15314 O 1439.84 1.71617 0.433182 0
M  V30 15315 C 1436.97 3.3901 0.540998 0
M  V30 15316 C 1436.05 4.22851 -0.32519 0
M  V30 15317 N 1436.45 4.85715 -1.41118 0
M  V30 15318 C 1434.74 4.45852 -0.114845 0
M  V30 15319 C 1435.44 5.48254 -1.94402 0
M  V30 15320 N 1434.42 5.29192 -1.24327 0
M  V30 15321 H 1438.22 2.72523 -1.10037 0
M  V30 15322 H 1435.74 1.46531 -0.700167 0
M  V30 15323 H 1437.73 4.0532 0.975778 0
M  V30 15324 H 1436.39 2.94427 1.36905 0
M  V30 15325 H 1437.4 4.85831 -1.79411 0
M  V30 15326 H 1434.08 4.11949 0.678533 0
M  V30 15327 H 1435.47 6.08259 -2.8543 0
M  V30 15328 N 1438.19 0.611994 1.45232 0
M  V30 15329 C 1439.47 0.0407 1.95558 0
M  V30 15330 C 1439.85 -1.42839 1.55436 0
M  V30 15331 O 1439.2 -2.13316 0.819055 0
M  V30 15332 C 1439.41 0.243436 3.4815 0
M  V30 15333 C 1440.75 0.126551 4.24411 0
M  V30 15334 O 1441.78 0.17379 3.55776 0
M  V30 15335 O 1440.64 0.0153526 5.46498 0
M  V30 15336 H 1437.73 -0.0332288 0.826332 0
M  V30 15337 H 1440.28 0.682364 1.55377 0
M  V30 15338 H 1439.05 1.26357 3.70337 0
M  V30 15339 H 1438.67 -0.43328 3.95232 0
M  V30 15340 N 1439.67 -1.53632 0.351409 0
M  V30 15341 C 1440.95 -1.93311 -0.298362 0
M  V30 15342 C 1441.33 -1.28369 -1.67584 0
M  V30 15343 O 1440.67 -0.437514 -2.24272 0
M  V30 15344 C 1440.88 -3.47109 -0.362773 0
M  V30 15345 C 1442.23 -4.20197 -0.609878 0
M  V30 15346 O 1443.26 -3.53415 -0.444566 0
M  V30 15347 O 1442.12 -5.38517 -0.930691 0
M  V30 15348 H 1439.21 -0.808112 -0.175739 0
M  V30 15349 H 1441.76 -1.64841 0.40316 0
M  V30 15350 H 1440.53 -3.86617 0.60357 0
M  V30 15351 H 1440.15 -3.81769 -1.11076 0
M  V30 15352 N 1441.15 -0.0802183 -1.57396 0
M  V30 15353 C 1442.39 0.587831 -1.94094 0
M  V30 15354 C 1442.73 1.6875 -0.961093 0
M  V30 15355 O 1442 1.94498 0.00832799 0
M  V30 15356 C 1442.28 1.15692 -3.41009 0
M  V30 15357 C 1442.14 0.0633211 -4.49755 0
M  V30 15358 C 1443.46 2.05987 -3.88918 0
M  V30 15359 H 1440.58 0.212214 -0.705786 0
M  V30 15360 H 1443.22 -0.147902 -1.89423 0
M  V30 15361 H 1441.37 1.78394 -3.4512 0
M  V30 15362 H 1443.04 -0.57019 -4.57763 0
M  V30 15363 H 1441.28 -0.605003 -4.2956 0
M  V30 15364 H 1441.95 0.502056 -5.49712 0
M  V30 15365 H 1444.43 1.5321 -3.86867 0
M  V30 15366 H 1443.31 2.42737 -4.92311 0
M  V30 15367 H 1443.57 2.97147 -3.27347 0
M  V30 15368 O 1442.66 1.61388 0.0601961 0
M  V30 15369 H 1443.36 1.81196 0.684678 0
M  V30 END ATOM
M  V30 BEGIN BOND
M  V30 END BOND
M  V30 END CTAB
M  END
$$$$
