drugbank_target|P02925 Ribose import binding protein RbsB (DB04286)
 OpenBabel12092120023D

  0  0  0     0  0            999 V3000
M  V30 BEGIN CTAB
M  V30 COUNTS 4417 4438 0 0 0
M  V30 BEGIN ATOM
M  V30 1 H -0.908 1.98254 -0.117106 0
M  V30 2 N 0 1.576 0 0
M  V30 3 C 0.933 2.03868 1.02534 0
M  V30 4 C 1.911 0.928543 1.3348 0
M  V30 5 O 3.095 1.19667 1.45644 0
M  V30 6 C 0.222 2.43627 2.35294 0
M  V30 7 C -0.732 3.65373 2.2001 0
M  V30 8 S 0.101 5.13292 1.52614 0
M  V30 9 C 1.257 5.56322 2.86805 0
M  V30 10 H 1.49 2.90518 0.631377 0
M  V30 11 H -0.977 1.52953 0.210867 0
M  V30 12 H 0.981 2.67203 3.11629 0
M  V30 13 H -0.358 1.57376 2.7183 0
M  V30 14 H -1.165 3.90944 3.18086 0
M  V30 15 H -1.563 3.418 1.51819 0
M  V30 16 H 0.729 5.58782 3.83104 0
M  V30 17 H 1.672 6.56266 2.65933 0
M  V30 18 H 2.08 4.83886 2.90714 0
M  V30 19 N 1.4781 -0.272755 1.55222 0
M  V30 20 C 2.4261 -1.35705 1.88909 0
M  V30 21 C 3.4201 -1.5112 0.765456 0
M  V30 22 O 4.6261 -1.52901 0.949802 0
M  V30 23 H 1.0011 -0.453868 0.59959 0
M  V30 24 H 2.9721 -1.04544 2.79487 0
M  V30 25 C 1.7211 -2.71049 2.17779 0
M  V30 26 H 1.0441 -2.59979 3.03728 0
M  V30 27 H 2.4841 -3.45858 2.45272 0
M  V30 28 C 0.9431 -3.22165 0.985473 0
M  V30 29 O 1.4731 -4.01096 0.220233 0
M  V30 30 N -0.3209 -2.7985 0.783108 0
M  V30 31 H -0.7739 -2.15775 1.40708 0
M  V30 32 H -0.8159 -3.14397 -0.0130392 0
M  V30 33 N 2.9562 -1.48159 -0.537278 0
M  V30 34 C 3.8892 -1.567 -1.65893 0
M  V30 35 C 4.8672 -0.41787 -1.57139 0
M  V30 36 O 6.0512 -0.628461 -1.77715 0
M  V30 37 C 3.1782 -1.48818 -3.04255 0
M  V30 38 C 2.2242 -2.68482 -3.31391 0
M  V30 39 S 3.0572 -4.30516 -3.1846 0
M  V30 40 C 4.2132 -4.2522 -4.59281 0
M  V30 41 H 4.4462 -2.5159 -1.58397 0
M  V30 42 H 1.9792 -1.36602 -0.719672 0
M  V30 43 H 3.9372 -1.44958 -3.84054 0
M  V30 44 H 2.5982 -0.552777 -3.09198 0
M  V30 45 H 1.7912 -2.59085 -4.32309 0
M  V30 46 H 1.3932 -2.69567 -2.59248 0
M  V30 47 H 3.6852 -3.94703 -5.5065 0
M  V30 48 H 4.6282 -5.26292 -4.73732 0
M  V30 49 H 5.0362 -3.55791 -4.38261 0
M  V30 50 N 4.4343 0.785586 -1.36625 0
M  V30 51 C 5.3813 1.89838 -1.31264 0
M  V30 52 C 6.3513 1.65115 -0.180633 0
M  V30 53 O 7.5363 1.87222 -0.36777 0
M  V30 54 C 4.6763 3.26706 -1.11163 0
M  V30 55 C 3.7893 3.63476 -2.33472 0
M  V30 56 C 2.9243 4.89481 -2.06353 0
M  V30 57 C 1.9633 5.18941 -3.24602 0
M  V30 58 N 1.1003 6.36131 -2.97123 0
M  V30 59 H 5.9403 1.93756 -2.26413 0
M  V30 60 H 3.4773 0.947454 -1.12524 0
M  V30 61 H 5.4353 4.05639 -0.975337 0
M  V30 62 H 4.0653 3.222 -0.196674 0
M  V30 63 H 3.1173 2.79636 -2.57891 0
M  V30 64 H 4.4293 3.81193 -3.21704 0
M  V30 65 H 3.5833 5.76288 -1.89675 0
M  V30 66 H 2.3223 4.73841 -1.15437 0
M  V30 67 H 1.3273 4.30615 -3.41834 0
M  V30 68 H 2.5523 5.36498 -4.16349 0
M  V30 69 H 0.4983 6.21875 -2.08823 0
M  V30 70 H 0.4153 6.54198 -3.78894 0
M  V30 71 H 1.6833 7.2591 -2.84033 0
M  V30 72 N 5.9124 1.20967 1.01018 0
M  V30 73 C 6.8594 0.964281 2.09691 0
M  V30 74 C 7.8294 -0.107853 1.65749 0
M  V30 75 O 9.0144 0.0381987 1.90762 0
M  V30 76 C 6.1544 0.52943 3.41015 0
M  V30 77 C 5.2674 1.67043 3.98398 0
M  V30 78 C 4.4024 1.18525 5.17808 0
M  V30 79 C 3.4414 2.29892 5.67288 0
M  V30 80 N 2.5784 1.82546 6.77954 0
M  V30 81 H 7.4184 1.89463 2.30017 0
M  V30 82 H 4.9554 0.944289 1.1279 0
M  V30 83 H 6.9134 0.258588 4.16398 0
M  V30 84 H 5.5434 -0.363919 3.20742 0
M  V30 85 H 4.5954 2.05603 3.20049 0
M  V30 86 H 5.9074 2.50877 4.31117 0
M  V30 87 H 5.0614 0.870762 6.00419 0
M  V30 88 H 3.8004 0.316887 4.86669 0
M  V30 89 H 2.8054 2.6215 4.83278 0
M  V30 90 H 4.0304 3.17216 6.00459 0
M  V30 91 H 1.9764 0.980454 6.48632 0
M  V30 92 H 1.8934 2.59956 7.09901 0
M  V30 93 H 3.1614 1.54115 7.64113 0
M  V30 94 N 7.3905 -1.2043 1.01659 0
M  V30 95 C 8.3205 -2.25466 0.607226 0
M  V30 96 C 9.3015 -1.65853 -0.377716 0
M  V30 97 O 10.4865 -1.92409 -0.263149 0
M  V30 98 C 7.6165 -3.47256 -0.0552949 0
M  V30 99 C 6.5705 -4.19462 0.850632 0
M  V30 100 C 5.8965 -5.34673 0.0538859 0
M  V30 101 C 7.1965 -4.75603 2.15868 0
M  V30 102 H 8.8905 -2.59962 1.48526 0
M  V30 103 H 6.4365 -1.2496 0.715605 0
M  V30 104 H 8.3895 -4.19917 -0.353233 0
M  V30 105 H 7.1135 -3.11924 -0.968045 0
M  V30 106 H 5.7725 -3.48667 1.13257 0
M  V30 107 H 5.4205 -4.95585 -0.860514 0
M  V30 108 H 5.1205 -5.83913 0.657192 0
M  V30 109 H 6.6445 -6.10138 -0.237598 0
M  V30 110 H 8.0585 -5.40083 1.92311 0
M  V30 111 H 6.4555 -5.3528 2.71284 0
M  V30 112 H 7.5255 -3.94346 2.82169 0
M  V30 113 N 8.8686 -0.792821 -1.36206 0
M  V30 114 C 9.8316 -0.199459 -2.2833 0
M  V30 115 C 10.8316 0.605189 -1.48977 0
M  V30 116 O 12.0216 0.425685 -1.68919 0
M  V30 117 C 9.1536 0.723523 -3.33134 0
M  V30 118 H 10.3466 -1.01181 -2.82316 0
M  V30 119 H 7.8996 -0.562485 -1.45828 0
M  V30 120 H 8.6346 1.56008 -2.84309 0
M  V30 121 H 8.4196 0.148436 -3.91819 0
M  V30 122 H 9.9096 1.13344 -4.01924 0
M  V30 123 N 10.3467 1.47872 -0.545128 0
M  V30 124 C 11.5747 2.06889 -0.021084 0
M  V30 125 C 11.9897 1.39955 1.2672 0
M  V30 126 O 11.3467 0.492036 1.75742 0
M  V30 127 C 11.3977 3.60996 0.190817 0
M  V30 128 O 11.1187 4.25419 -1.04644 0
M  V30 129 C 12.6197 4.36849 0.753521 0
M  V30 130 H 9.8397 0.669785 -0.0403635 0
M  V30 131 H 12.3837 1.90049 -0.755095 0
M  V30 132 H 10.5387 3.77391 0.87492 0
M  V30 133 H 10.9527 5.17785 -0.836611 0
M  V30 134 H 12.4267 5.45399 0.851139 0
M  V30 135 H 12.9037 4.02306 1.762 0
M  V30 136 H 13.5097 4.25169 0.105503 0
M  V30 137 N 11.8248 0.280983 1.55075 0
M  V30 138 C 12.7548 -0.597469 2.25727 0
M  V30 139 C 13.7358 -1.15417 1.24952 0
M  V30 140 O 14.9208 -1.18722 1.53684 0
M  V30 141 C 12.0508 -1.7789 2.98283 0
M  V30 142 C 11.0048 -1.35347 4.06036 0
M  V30 143 C 10.3308 -2.61846 4.66198 0
M  V30 144 C 11.6308 -0.499354 5.19907 0
M  V30 145 H 13.3248 -0.00824265 2.99399 0
M  V30 146 H 10.8708 -0.0025244 1.44 0
M  V30 147 H 12.8238 -2.39937 3.46422 0
M  V30 148 H 11.5478 -2.39405 2.22155 0
M  V30 149 H 10.2068 -0.756156 3.58717 0
M  V30 150 H 9.8548 -3.21632 3.86732 0
M  V30 151 H 9.5548 -2.3409 5.38958 0
M  V30 152 H 11.0788 -3.24732 5.1709 0
M  V30 153 H 12.4928 -1.02498 5.64063 0
M  V30 154 H 10.8898 -0.316424 5.99265 0
M  V30 155 H 11.9598 0.480459 4.82514 0
M  V30 156 N 13.3029 -1.57598 0.00835791 0
M  V30 157 C 14.5489 -1.91211 -0.675732 0
M  V30 158 C 14.8819 -0.883139 -1.72958 0
M  V30 159 O 14.1569 0.097016 -1.94258 0
M  V30 160 C 14.4399 -3.35379 -1.31123 0
M  V30 161 C 14.2929 -4.48999 -0.268356 0
M  V30 162 C 15.6119 -3.7912 -2.23508 0
M  V30 163 H 12.7309 -0.695374 -0.244179 0
M  V30 164 H 15.3729 -1.89901 0.0613655 0
M  V30 165 H 13.5229 -3.36626 -1.93946 0
M  V30 166 H 15.1949 -4.59887 0.360844 0
M  V30 167 H 13.4379 -4.31873 0.408482 0
M  V30 168 H 14.1089 -5.46851 -0.752218 0
M  V30 169 H 16.5849 -3.79477 -1.70693 0
M  V30 170 H 15.4609 -4.80729 -2.64936 0
M  V30 171 H 15.7219 -3.13455 -3.11766 0
M  V30 172 N 14.781 0.264519 -1.55364 0
M  V30 173 C 16.006 1.01726 -1.80739 0
M  V30 174 C 16.431 1.78836 -0.583044 0
M  V30 175 O 15.789 1.75167 0.467566 0
M  V30 176 C 15.837 1.94482 -3.03659 0
M  V30 177 O 14.941 3.03386 -2.7934 0
M  V30 178 H 14.282 0.290395 -0.597132 0
M  V30 179 H 16.812 0.290854 -2.02522 0
M  V30 180 H 16.822 2.36278 -3.32621 0
M  V30 181 H 15.497 1.37772 -3.92418 0
M  V30 182 H 14.074 2.65844 -2.61498 0
M  V30 183 N 16.2591 1.48442 0.529413 0
M  V30 184 C 17.2221 1.62524 1.61612 0
M  V30 185 C 18.2221 0.498509 1.52877 0
M  V30 186 O 19.4121 0.76431 1.56537 0
M  V30 187 C 16.5441 1.59597 3.01233 0
M  V30 188 H 17.7371 2.59423 1.50465 0
M  V30 189 H 15.2901 1.37047 0.751514 0
M  V30 190 H 16.0251 0.641781 3.17886 0
M  V30 191 H 15.8101 2.41397 3.08982 0
M  V30 192 H 17.3001 1.72646 3.80241 0
M  V30 193 N 17.7372 -0.778329 1.37039 0
M  V30 194 C 18.9832 -1.53892 1.32079 0
M  V30 195 C 19.3162 -1.9396 -0.0965386 0
M  V30 196 O 18.5912 -1.63568 -1.05242 0
M  V30 197 C 18.8742 -2.80847 2.25382 0
M  V30 198 C 18.7272 -2.47076 3.75864 0
M  V30 199 C 20.0462 -3.82741 2.1725 0
M  V30 200 H 17.1652 -0.558303 0.48111 0
M  V30 201 H 19.8072 -0.893397 1.67685 0
M  V30 202 H 17.9572 -3.35931 1.95148 0
M  V30 203 H 19.6292 -1.97957 4.16666 0
M  V30 204 H 17.8722 -1.79863 3.94755 0
M  V30 205 H 18.5432 -3.37798 4.36574 0
M  V30 206 H 21.0192 -3.37133 2.43887 0
M  V30 207 H 19.8952 -4.69303 2.84686 0
M  V30 208 H 20.1562 -4.2652 1.16331 0
M  V30 209 N 19.2153 -1.21501 -1.00376 0
M  V30 210 C 20.1783 -0.976927 -2.07337 0
M  V30 211 C 21.1783 0.0525322 -1.60714 0
M  V30 212 O 22.3683 -0.184869 -1.73216 0
M  V30 213 C 19.5003 -0.473423 -3.37597 0
M  V30 214 H 20.6933 -1.92587 -2.29892 0
M  V30 215 H 18.2463 -1.03217 -1.17371 0
M  V30 216 H 18.9813 0.480379 -3.20722 0
M  V30 217 H 18.7663 -1.216 -3.72768 0
M  V30 218 H 20.2563 -0.32675 -4.1632 0
M  V30 219 N 20.6934 1.19889 -1.02296 0
M  V30 220 C 21.6234 2.25141 -0.619174 0
M  V30 221 C 22.6044 1.66051 0.368915 0
M  V30 222 O 23.7894 1.92546 0.252941 0
M  V30 223 C 20.9194 3.4728 0.0368783 0
M  V30 224 C 19.8734 4.19005 -0.872865 0
M  V30 225 C 19.1994 5.34637 -0.0822402 0
M  V30 226 C 20.4994 4.74452 -2.18387 0
M  V30 227 H 22.1934 2.59171 -1.49903 0
M  V30 228 H 19.7394 1.24579 -0.722222 0
M  V30 229 H 21.6924 4.20098 0.330958 0
M  V30 230 H 20.4164 3.12433 0.95149 0
M  V30 231 H 19.0754 3.48061 -1.15105 0
M  V30 232 H 18.7234 4.96034 0.83422 0
M  V30 233 H 18.4234 5.83557 -0.688149 0
M  V30 234 H 19.9474 6.10255 0.205238 0
M  V30 235 H 21.3614 5.39055 -1.95172 0
M  V30 236 H 19.7584 5.33834 -2.74119 0
M  V30 237 H 20.8284 3.92844 -2.84257 0
M  V30 238 N 22.1715 0.800033 1.35784 0
M  V30 239 C 23.3965 0.388511 2.03729 0
M  V30 240 C 23.8215 -0.990481 1.5991 0
M  V30 241 O 23.1795 -1.64013 0.772612 0
M  V30 242 C 23.2275 0.4726 3.5749 0
M  V30 243 O 22.3315 -0.51646 4.09153 0
M  V30 244 H 21.6725 0.163271 0.643614 0
M  V30 245 H 24.2025 1.0841 1.73518 0
M  V30 246 H 24.2125 0.34003 4.06581 0
M  V30 247 H 22.8875 1.47848 3.88734 0
M  V30 248 H 21.4645 -0.344673 3.71304 0
M  V30 249 N 23.6496 -1.47581 0.552962 0
M  V30 250 C 24.6126 -2.28439 -0.186605 0
M  V30 251 C 25.6126 -1.36706 -0.84665 0
M  V30 252 O 26.8026 -1.59378 -0.703164 0
M  V30 253 C 23.9346 -3.16264 -1.2724 0
M  V30 254 H 25.1276 -2.95294 0.523609 0
M  V30 255 H 22.6806 -1.532 0.309745 0
M  V30 256 H 23.4156 -2.54091 -2.01514 0
M  V30 257 H 23.2006 -3.83769 -0.803968 0
M  V30 258 H 24.6906 -3.77198 -1.79196 0
M  V30 259 N 25.1277 -0.289203 -1.54924 0
M  V30 260 C 26.3557 0.326463 -2.04308 0
M  V30 261 C 26.7707 1.48413 -1.16701 0
M  V30 262 O 26.1277 1.81507 -0.190087 0
M  V30 263 C 26.1787 0.794014 -3.52672 0
M  V30 264 O 25.8997 -0.317564 -4.36948 0
M  V30 265 C 27.4007 1.47605 -4.18004 0
M  V30 266 H 24.6207 0.0726272 -0.667058 0
M  V30 267 H 27.1647 -0.425401 -2.00026 0
M  V30 268 H 25.3197 1.49593 -3.57352 0
M  V30 269 H 25.7337 0.0443186 -5.24481 0
M  V30 270 H 27.2077 1.75447 -5.23376 0
M  V30 271 H 27.6847 2.41224 -3.67025 0
M  V30 272 H 28.2907 0.81762 -4.17367 0
M  V30 273 N 26.6058 1.57591 -0.0167156 0
M  V30 274 C 27.8518 1.91567 0.665582 0
M  V30 275 C 28.1848 0.892298 1.72487 0
M  V30 276 O 27.4598 -0.0867127 1.94307 0
M  V30 277 C 27.7428 3.36069 1.29342 0
M  V30 278 C 27.5958 4.49135 0.244541 0
M  V30 279 C 28.9148 3.803 2.21495 0
M  V30 280 H 26.0338 0.69666 0.240488 0
M  V30 281 H 28.6758 1.89866 -0.0714356 0
M  V30 282 H 26.8258 3.3765 1.92158 0
M  V30 283 H 28.4978 4.59689 -0.385228 0
M  V30 284 H 26.7408 4.3165 -0.431379 0
M  V30 285 H 27.4118 5.47242 0.723207 0
M  V30 286 H 29.8878 3.80377 1.68678 0
M  V30 287 H 28.7638 4.82127 2.62382 0
M  V30 288 H 29.0248 3.15104 3.101 0
M  V30 289 N 28.0839 -0.256276 1.55502 0
M  V30 290 C 29.3089 -1.00766 1.81276 0
M  V30 291 C 29.7339 -1.78524 0.59252 0
M  V30 292 O 29.0919 -1.75413 -0.45827 0
M  V30 293 C 29.1399 -1.92869 3.04687 0
M  V30 294 O 28.2439 -3.019 2.80945 0
M  V30 295 H 27.5849 -0.287224 0.598664 0
M  V30 296 H 30.1149 -0.280109 2.02674 0
M  V30 297 H 30.1249 -2.34511 3.33869 0
M  V30 298 H 28.7999 -1.35689 3.93143 0
M  V30 299 H 27.3769 -2.64454 2.62904 0
M  V30 300 N 29.562 -1.4872 -0.521534 0
M  V30 301 C 30.525 -1.63379 -1.60748 0
M  V30 302 C 31.525 -0.50661 -1.52611 0
M  V30 303 O 32.715 -0.772601 -1.5613 0
M  V30 304 C 29.847 -1.61192 -3.00383 0
M  V30 305 H 31.04 -2.60217 -1.49087 0
M  V30 306 H 28.593 -1.37444 -0.744235 0
M  V30 307 H 29.328 -0.65863 -3.17541 0
M  V30 308 H 29.113 -2.43032 -3.07698 0
M  V30 309 H 30.603 -1.7466 -3.7932 0
M  V30 310 N 31.0401 0.771051 -1.3745 0
M  V30 311 C 31.9881 1.90574 -1.33358 0
M  V30 312 C 32.9821 1.67936 -0.22224 0
M  V30 313 O 34.1881 1.75717 -0.390304 0
M  V30 314 H 30.5631 0.626714 -0.415612 0
M  V30 315 H 32.5341 1.91142 -2.29144 0
M  V30 316 C 31.2831 3.27845 -1.15813 0
M  V30 317 H 30.6061 3.45842 -2.00583 0
M  V30 318 H 32.0461 4.07538 -1.17 0
M  V30 319 C 30.5051 3.36625 0.136165 0
M  V30 320 O 31.0351 3.85785 1.11949 0
M  V30 321 N 29.2411 2.89997 0.187099 0
M  V30 322 H 28.7881 2.50182 -0.613753 0
M  V30 323 H 28.7461 2.96252 1.05272 0
M  V30 324 N 32.5182 1.22032 0.997298 0
M  V30 325 C 33.4812 0.987909 2.06816 0
M  V30 326 C 34.4812 -0.0440084 1.6074 0
M  V30 327 O 35.6712 0.194053 1.73116 0
M  V30 328 C 32.8032 0.49132 3.37341 0
M  V30 329 H 33.9962 1.93803 2.28868 0
M  V30 330 H 31.5492 1.03838 1.16822 0
M  V30 331 H 32.2842 -0.463364 3.20973 0
M  V30 332 H 32.0692 1.23575 3.72118 0
M  V30 333 H 33.5592 0.348824 4.16141 0
M  V30 334 N 33.9963 -1.19345 1.0293 0
M  V30 335 C 34.9293 -2.21347 0.555029 0
M  V30 336 C 35.9073 -1.57492 -0.404351 0
M  V30 337 O 37.0913 -1.85741 -0.321352 0
M  V30 338 C 34.2183 -3.38163 -0.19064 0
M  V30 339 C 33.2643 -4.20375 0.720236 0
M  V30 340 S 34.0973 -4.88371 2.19668 0
M  V30 341 C 35.2533 -6.08597 1.46153 0
M  V30 342 H 35.4863 -2.61235 1.41929 0
M  V30 343 H 33.0193 -1.29598 0.839272 0
M  V30 344 H 34.9773 -4.05871 -0.614724 0
M  V30 345 H 33.6383 -2.9671 -1.03063 0
M  V30 346 H 32.8313 -5.03793 0.14455 0
M  V30 347 H 32.4333 -3.57987 1.08266 0
M  V30 348 H 34.7253 -6.73354 0.748357 0
M  V30 349 H 35.6683 -6.7065 2.27233 0
M  V30 350 H 36.0763 -5.56297 0.958842 0
M  V30 351 N 35.4744 -0.807222 -1.35358 0
M  V30 352 C 36.4374 -0.223665 -2.28106 0
M  V30 353 C 37.4374 0.589354 -1.4961 0
M  V30 354 O 38.6274 0.407745 -1.69361 0
M  V30 355 C 35.7594 0.688149 -3.33882 0
M  V30 356 H 36.9524 -1.04169 -2.81227 0
M  V30 357 H 34.5054 -0.577921 -1.45223 0
M  V30 358 H 35.2404 1.52984 -2.85948 0
M  V30 359 H 35.0254 0.10687 -3.91954 0
M  V30 360 H 36.5154 1.09075 -4.03104 0
M  V30 361 N 36.9525 1.47285 -0.560781 0
M  V30 362 C 37.8995 2.30058 0.18491 0
M  V30 363 C 38.8695 1.39281 0.904986 0
M  V30 364 O 40.0545 1.68241 0.899979 0
M  V30 365 C 37.1945 3.23317 1.20666 0
M  V30 366 C 36.3075 4.29186 0.492285 0
M  V30 367 C 35.4425 5.09592 1.49964 0
M  V30 368 C 34.4815 6.07232 0.770439 0
M  V30 369 N 33.6185 6.80584 1.72479 0
M  V30 370 H 38.4585 2.93302 -0.527048 0
M  V30 371 H 35.9955 1.44568 -0.271738 0
M  V30 372 H 37.9535 3.75811 1.81168 0
M  V30 373 H 36.5835 2.61929 1.88661 0
M  V30 374 H 35.6355 3.7972 -0.227333 0
M  V30 375 H 36.9475 4.98738 -0.0787929 0
M  V30 376 H 36.1015 5.66254 2.17809 0
M  V30 377 H 34.8405 4.3995 2.10464 0
M  V30 378 H 33.8455 5.49745 0.0780846 0
M  V30 379 H 35.0705 6.78884 0.171134 0
M  V30 380 H 33.0165 6.1367 2.3183 0
M  V30 381 H 32.9335 7.46319 1.20596 0
M  V30 382 H 34.2015 7.41818 2.39428 0
M  V30 383 N 38.4306 0.297415 1.54768 0
M  V30 384 C 39.7076 -0.365847 1.92148 0
M  V30 385 C 40.0876 -1.71975 1.22424 0
M  V30 386 O 39.4356 -2.25666 0.358739 0
M  V30 387 C 39.6456 -0.484056 3.45627 0
M  V30 388 C 40.9936 -0.756594 4.17805 0
M  V30 389 O 42.0176 -0.568007 3.51642 0
M  V30 390 O 40.8766 -1.11863 5.34929 0
M  V30 391 H 37.9706 -0.203919 0.801465 0
M  V30 392 H 40.5166 0.34521 1.66152 0
M  V30 393 H 39.2886 0.467865 3.88493 0
M  V30 394 H 38.9116 -1.24372 3.77647 0
M  V30 395 N 39.9087 -1.5758 0.0250728 0
M  V30 396 C 41.1367 -1.9593 -0.664747 0
M  V30 397 C 41.5517 -0.901352 -1.65895 0
M  V30 398 O 40.9087 0.117255 -1.82123 0
M  V30 399 C 40.9597 -3.34342 -1.37468 0
M  V30 400 O 40.6807 -4.36079 -0.420324 0
M  V30 401 C 42.1817 -3.873 -2.1567 0
M  V30 402 H 39.4017 -0.645405 -0.183557 0
M  V30 403 H 41.9457 -2.04329 0.0836372 0
M  V30 404 H 40.1007 -3.27175 -2.0745 0
M  V30 405 H 40.5147 -5.16297 -0.923991 0
M  V30 406 H 41.9887 -4.86504 -2.60803 0
M  V30 407 H 42.4657 -3.21331 -2.99405 0
M  V30 408 H 43.0717 -3.97723 -1.50654 0
M  V30 409 N 41.3868 0.248026 -1.55636 0
M  V30 410 C 42.6358 0.974134 -1.76617 0
M  V30 411 C 42.9488 1.86528 -0.588796 0
M  V30 412 O 44.1548 2.62805 -0.681594 0
M  V30 413 C 42.6108 1.78213 -3.12679 0
M  V30 414 C 42.2188 0.93843 -4.38061 0
M  V30 415 C 43.9628 2.50104 -3.42999 0
M  V30 416 C 41.8698 1.74225 -5.65155 0
M  V30 417 H 40.7998 0.36745 -0.658405 0
M  V30 418 H 43.4508 0.22884 -1.82067 0
M  V30 419 H 41.8328 2.56933 -3.01333 0
M  V30 420 H 43.0068 0.193635 -4.60393 0
M  V30 421 H 41.3218 0.332905 -4.15067 0
M  V30 422 H 43.9188 3.10694 -4.3517 0
M  V30 423 H 44.2618 3.21662 -2.64271 0
M  V30 424 H 44.7948 1.78395 -3.55556 0
M  V30 425 H 41.5338 1.07043 -6.46701 0
M  V30 426 H 41.0538 2.46235 -5.46926 0
M  V30 427 H 42.7328 2.30967 -6.0437 0
M  V30 428 N 42.8649 1.48995 0.513639 0
M  V30 429 C 43.8279 1.64229 1.59879 0
M  V30 430 C 44.8279 0.514696 1.5234 0
M  V30 431 O 46.0179 0.78087 1.55718 0
M  V30 432 C 43.1499 1.62783 2.99524 0
M  V30 433 H 44.3429 2.61004 1.47705 0
M  V30 434 H 41.8959 1.37837 0.736936 0
M  V30 435 H 42.6309 0.675461 3.17188 0
M  V30 436 H 42.4159 2.4466 3.06404 0
M  V30 437 H 43.9059 1.76669 3.78388 0
M  V30 438 N 44.343 -0.763751 1.37857 0
M  V30 439 C 45.273 -1.89103 1.36975 0
M  V30 440 C 46.254 -1.68439 0.237152 0
M  V30 441 O 47.439 -1.8918 0.438713 0
M  V30 442 C 44.569 -3.26496 1.18395 0
M  V30 443 C 43.523 -3.61741 2.28751 0
M  V30 444 C 42.849 -4.97762 1.95286 0
M  V30 445 C 44.149 -3.67665 3.70972 0
M  V30 446 H 45.843 -1.90099 2.31307 0
M  V30 447 H 43.389 -0.91319 1.11341 0
M  V30 448 H 45.342 -4.05003 1.16406 0
M  V30 449 H 44.066 -3.25955 0.205215 0
M  V30 450 H 42.725 -2.85547 2.29909 0
M  V30 451 H 42.373 -4.93769 0.959221 0
M  V30 452 H 42.073 -5.22313 2.69189 0
M  V30 453 H 43.597 -5.7866 1.94898 0
M  V30 454 H 45.011 -4.36307 3.719 0
M  V30 455 H 43.408 -4.03718 4.43995 0
M  V30 456 H 44.478 -2.68134 4.0402 0
M  V30 457 N 45.8211 -1.22559 -0.990812 0
M  V30 458 C 47.0671 -1.05297 -1.73322 0
M  V30 459 C 47.4001 0.410655 -1.89808 0
M  V30 460 O 46.6751 1.30439 -1.44277 0
M  V30 461 C 46.9581 -1.76713 -3.13759 0
M  V30 462 C 46.8111 -3.30684 -3.04907 0
M  V30 463 C 48.1301 -1.52121 -4.12974 0
M  V30 464 H 45.2491 -0.38392 -0.629106 0
M  V30 465 H 47.8911 -1.50926 -1.15418 0
M  V30 466 H 46.0411 -1.37924 -3.63193 0
M  V30 467 H 47.7131 -3.7893 -2.63077 0
M  V30 468 H 45.9561 -3.60253 -2.41661 0
M  V30 469 H 46.6271 -3.75833 -4.04294 0
M  V30 470 H 49.1031 -1.85819 -3.72304 0
M  V30 471 H 47.9791 -2.04582 -5.0935 0
M  V30 472 H 48.2401 -0.454257 -4.3976 0
M  V30 473 N 47.2992 1.18797 -1.03562 0
M  V30 474 C 48.5452 1.8893 -0.737113 0
M  V30 475 C 48.8782 1.79837 0.732956 0
M  V30 476 O 48.1532 1.19525 1.5344 0
M  V30 477 C 48.4362 3.39607 -1.19745 0
M  V30 478 C 48.2892 3.57537 -2.72924 0
M  V30 479 C 49.6082 4.33069 -0.783526 0
M  V30 480 H 46.7272 0.686057 -0.269249 0
M  V30 481 H 49.3692 1.39797 -1.28673 0
M  V30 482 H 47.5192 3.81583 -0.729855 0
M  V30 483 H 49.1912 3.24688 -3.27682 0
M  V30 484 H 47.4342 3.00363 -3.12993 0
M  V30 485 H 48.1052 4.63238 -3.00191 0
M  V30 486 H 50.5812 3.98846 -1.18581 0
M  V30 487 H 49.4572 5.3707 -1.13343 0
M  V30 488 H 49.7182 4.40986 0.313681 0
M  V30 489 N 48.7773 0.814389 1.34928 0
M  V30 490 C 50.0023 0.410097 2.03305 0
M  V30 491 C 50.4273 -0.973464 1.60951 0
M  V30 492 O 49.7853 -1.63185 0.789964 0
M  V30 493 C 49.8333 0.51049 3.56968 0
M  V30 494 O 48.9373 -0.473035 4.09678 0
M  V30 495 H 48.2783 0.170088 0.641846 0
M  V30 496 H 50.8083 1.10244 1.72358 0
M  V30 497 H 50.8183 0.383135 4.06197 0
M  V30 498 H 49.4933 1.51963 3.87144 0
M  V30 499 H 48.0703 -0.305272 3.71648 0
M  V30 500 N 50.2554 -1.46986 0.568584 0
M  V30 501 C 51.4834 -2.0683 0.0539956 0
M  V30 502 C 51.8984 -1.41953 -1.24478 0
M  V30 503 O 51.2554 -0.519933 -1.74937 0
M  V30 504 C 51.3064 -3.61254 -0.133362 0
M  V30 505 O 51.0274 -4.237 1.11399 0
M  V30 506 C 52.5284 -4.37992 -0.683927 0
M  V30 507 H 49.7484 -0.669058 0.0510141 0
M  V30 508 H 52.2924 -1.88824 0.785234 0
M  V30 509 H 50.4474 -3.78735 -0.81477 0
M  V30 510 H 50.8614 -5.16388 0.91888 0
M  V30 511 H 52.3354 -5.46684 -0.764263 0
M  V30 512 H 52.8124 -4.05058 -1.69778 0
M  V30 513 H 53.4184 -4.25283 -0.0378494 0
M  V30 514 N 51.7335 -0.305618 -1.54608 0
M  V30 515 C 52.6635 0.561482 -2.26649 0
M  V30 516 C 53.6445 1.13415 -1.26772 0
M  V30 517 O 54.8295 1.16262 -1.55553 0
M  V30 518 C 51.9595 1.73122 -3.01075 0
M  V30 519 C 50.9135 1.2887 -4.08138 0
M  V30 520 C 50.2395 2.54396 -4.70305 0
M  V30 521 C 51.5395 0.416578 -5.20636 0
M  V30 522 H 53.2335 -0.0393902 -2.99374 0
M  V30 523 H 50.7795 -0.020385 -1.43986 0
M  V30 524 H 52.7325 2.34396 -3.50195 0
M  V30 525 H 51.4565 2.3584 -2.25936 0
M  V30 526 H 50.1155 0.698991 -3.59875 0
M  V30 527 H 49.7635 3.15439 -3.918 0
M  V30 528 H 49.4635 2.25486 -5.42614 0
M  V30 529 H 50.9875 3.16464 -5.2219 0
M  V30 530 H 52.4015 0.935116 -5.65622 0
M  V30 531 H 50.7985 0.221046 -5.99693 0
M  V30 532 H 51.8685 -0.557162 -4.81688 0
M  V30 533 N 53.2116 1.57565 -0.0334293 0
M  V30 534 C 54.1596 2.1164 0.96496 0
M  V30 535 C 55.1536 1.04398 1.33407 0
M  V30 536 O 56.3596 1.22828 1.3158 0
M  V30 537 H 52.7346 0.676222 0.32898 0
M  V30 538 H 54.7056 2.94455 0.483614 0
M  V30 539 C 53.4546 2.66207 2.23672 0
M  V30 540 H 52.7776 3.48378 1.96145 0
M  V30 541 H 54.2176 3.07685 2.9173 0
M  V30 542 C 52.6766 1.59151 2.96939 0
M  V30 543 O 53.2066 0.993858 3.89211 0
M  V30 544 N 51.4126 1.31093 2.59351 0
M  V30 545 H 50.9596 1.7988 1.84393 0
M  V30 546 H 50.9176 0.596889 3.08682 0
M  V30 547 N 54.6897 -0.239769 1.55765 0
M  V30 548 C 55.6377 -1.31668 1.91745 0
M  V30 549 C 56.6317 -1.49462 0.797338 0
M  V30 550 O 57.8377 -1.50852 0.982021 0
M  V30 551 H 54.2127 -0.441048 0.609082 0
M  V30 552 H 56.1837 -0.985923 2.81642 0
M  V30 553 C 54.9327 -2.66368 2.2348 0
M  V30 554 H 54.2557 -2.53478 3.09175 0
M  V30 555 H 55.6957 -3.40578 2.52553 0
M  V30 556 C 54.1547 -3.20002 1.05359 0
M  V30 557 O 54.6847 -4.00538 0.305261 0
M  V30 558 N 52.8907 -2.78126 0.842292 0
M  V30 559 H 52.4377 -2.12742 1.45253 0
M  V30 560 H 52.3957 -3.14354 0.053652 0
M  V30 561 N 56.1678 -1.49265 -0.50573 0
M  V30 562 C 57.5788 -1.51769 -1.08734 0
M  V30 563 C 57.9298 -0.301192 -1.93874 0
M  V30 564 O 57.0548 0.589456 -2.08217 0
M  V30 565 C 57.6498 -2.75017 -1.97867 0
M  V30 566 C 56.2088 -2.80314 -2.51199 0
M  V30 567 C 55.3558 -2.4562 -1.28709 0
M  V30 568 H 58.3068 -1.56031 -0.289855 0
M  V30 569 H 58.3278 -2.5491 -2.82491 0
M  V30 570 H 57.8398 -3.63539 -1.35873 0
M  V30 571 H 55.9408 -1.96061 -3.16845 0
M  V30 572 H 56.0538 -3.82366 -2.88675 0
M  V30 573 H 54.4178 -1.97297 -1.61078 0
M  V30 574 H 55.2008 -3.36411 -0.6843 0
M  V30 575 N 57.6459 0.756429 -1.3826 0
M  V30 576 C 58.8929 1.51547 -1.34312 0
M  V30 577 C 59.2209 1.94382 0.0677144 0
M  V30 578 O 58.4759 1.65514 1.04421 0
M  V30 579 C 58.7749 2.78313 -2.24224 0
M  V30 580 C 58.4409 2.54455 -3.72241 0
M  V30 581 C 57.1029 2.47657 -4.12576 0
M  V30 582 C 59.4549 2.3354 -4.65949 0
M  V30 583 C 56.7829 2.17956 -5.44713 0
M  V30 584 C 59.1349 2.05359 -5.9834 0
M  V30 585 C 57.7989 1.97016 -6.37762 0
M  V30 586 H 57.0689 0.55455 -0.491482 0
M  V30 587 H 59.7159 0.870039 -1.70595 0
M  V30 588 H 58.0209 3.47492 -1.80987 0
M  V30 589 H 59.7179 3.36259 -2.18474 0
M  V30 590 H 56.3079 2.60616 -3.40261 0
M  V30 591 H 60.4919 2.37772 -4.35635 0
M  V30 592 H 55.7479 2.10003 -5.74203 0
M  V30 593 H 59.9219 1.88179 -6.70494 0
M  V30 594 H 57.5489 1.73766 -7.40074 0
M  V30 595 N 59.124 1.23083 0.984299 0
M  V30 596 C 60.371 1.06057 1.72505 0
M  V30 597 C 60.699 -0.403105 1.90277 0
M  V30 598 O 59.954 -1.3149 1.44944 0
M  V30 599 C 60.253 1.72673 3.1292 0
M  V30 600 C 59.919 3.22586 3.15038 0
M  V30 601 C 58.581 3.63489 3.15324 0
M  V30 602 C 60.933 4.185 3.10657 0
M  V30 603 C 58.261 4.98772 3.08939 0
M  V30 604 C 60.613 5.53769 3.05814 0
M  V30 605 C 59.277 5.94041 3.04419 0
M  V30 606 H 58.547 0.388091 0.631242 0
M  V30 607 H 61.194 1.52963 1.15215 0
M  V30 608 H 59.499 1.18116 3.73572 0
M  V30 609 H 61.196 1.56982 3.68996 0
M  V30 610 H 57.786 2.90022 3.15571 0
M  V30 611 H 61.97 3.87911 3.09579 0
M  V30 612 H 57.226 5.29193 3.0621 0
M  V30 613 H 61.4 6.27808 3.0138 0
M  V30 614 H 59.027 6.98833 2.99227 0
M  V30 615 N 60.6021 -1.18246 1.0419 0
M  V30 616 C 61.8481 -1.88536 0.747122 0
M  V30 617 C 62.1811 -1.80223 -0.723409 0
M  V30 618 O 61.4561 -1.20337 -1.52804 0
M  V30 619 C 61.7391 -3.38968 1.21544 0
M  V30 620 C 61.5921 -3.56084 2.74816 0
M  V30 621 C 62.9111 -4.32648 0.806482 0
M  V30 622 H 60.0301 -0.684619 0.272883 0
M  V30 623 H 62.6721 -1.39113 1.29413 0
M  V30 624 H 60.8221 -3.8119 0.750081 0
M  V30 625 H 62.4941 -3.22946 3.29399 0
M  V30 626 H 60.7371 -2.98699 3.14582 0
M  V30 627 H 61.4081 -4.61639 3.02644 0
M  V30 628 H 63.8841 -3.98211 1.20695 0
M  V30 629 H 62.7601 -5.36462 1.1619 0
M  V30 630 H 63.0211 -4.41146 -0.29029 0
M  V30 631 N 62.0802 -0.821533 -1.34494 0
M  V30 632 C 63.3052 -0.420873 -2.03085 0
M  V30 633 C 63.7302 0.964915 -1.61465 0
M  V30 634 O 63.0882 1.62763 -0.798607 0
M  V30 635 C 63.1362 -0.529414 -3.56693 0
M  V30 636 O 62.2402 0.451302 -4.09923 0
M  V30 637 H 61.5812 -0.173489 -0.640935 0
M  V30 638 H 64.1112 -1.11157 -1.71771 0
M  V30 639 H 64.1212 -0.404671 -4.05988 0
M  V30 640 H 62.7962 -1.54014 -3.86332 0
M  V30 641 H 61.3732 0.285558 -3.71805 0
M  V30 642 N 63.5583 1.46682 -0.576371 0
M  V30 643 C 64.4883 2.33028 0.148397 0
M  V30 644 C 65.4693 1.44961 0.889956 0
M  V30 645 O 66.6543 1.73789 0.866662 0
M  V30 646 C 63.7843 3.27117 1.1667 0
M  V30 647 C 62.7383 4.24575 0.540386 0
M  V30 648 C 62.0643 5.08126 1.6647 0
M  V30 649 C 63.3643 5.19722 -0.518331 0
M  V30 650 H 65.0583 2.93875 -0.572509 0
M  V30 651 H 62.6043 1.41315 -0.276768 0
M  V30 652 H 64.5573 3.86374 1.68204 0
M  V30 653 H 63.2813 2.64364 1.9178 0
M  V30 654 H 61.9403 3.66571 0.0461769 0
M  V30 655 H 61.5883 4.41762 2.40531 0
M  V30 656 H 61.2883 5.74122 1.25131 0
M  V30 657 H 62.8123 5.70246 2.18293 0
M  V30 658 H 64.2263 5.73232 -0.0883058 0
M  V30 659 H 62.6233 5.94026 -0.851679 0
M  V30 660 H 63.6933 4.64037 -1.40703 0
M  V30 661 N 65.0364 0.313813 1.54444 0
M  V30 662 C 65.9834 -0.55655 2.23989 0
M  V30 663 C 66.9534 -1.11943 1.22711 0
M  V30 664 O 68.1384 -1.16158 1.51367 0
M  V30 665 C 65.2784 -1.71635 2.99392 0
M  V30 666 C 64.3914 -1.18364 4.15468 0
M  V30 667 C 63.5264 -2.30834 4.78424 0
M  V30 668 C 62.5654 -1.74762 5.86622 0
M  V30 669 N 61.7024 -2.80855 6.43479 0
M  V30 670 H 66.5424 0.0430893 2.97969 0
M  V30 671 H 64.0794 0.0330359 1.47063 0
M  V30 672 H 66.0374 -2.39868 3.41349 0
M  V30 673 H 64.6674 -2.28742 2.27765 0
M  V30 674 H 63.7194 -0.393163 3.78363 0
M  V30 675 H 65.0314 -0.733262 4.93381 0
M  V30 676 H 64.1854 -3.0699 5.23299 0
M  V30 677 H 62.9244 -2.79204 3.99871 0
M  V30 678 H 61.9294 -0.970995 5.41158 0
M  V30 679 H 63.1544 -1.2728 6.67066 0
M  V30 680 H 61.1004 -3.28535 5.67804 0
M  V30 681 H 61.0174 -2.40351 7.16776 0
M  V30 682 H 62.2854 -3.5687 6.93011 0
M  V30 683 N 66.5145 -1.57545 0.0417849 0
M  V30 684 C 67.7915 -1.83642 -0.673433 0
M  V30 685 C 68.1715 -0.928298 -1.89594 0
M  V30 686 O 67.5195 0.0129955 -2.28496 0
M  V30 687 C 67.7295 -3.33155 -1.03964 0
M  V30 688 C 69.0775 -3.99941 -1.42592 0
M  V30 689 O 70.1015 -3.37725 -1.13226 0
M  V30 690 O 68.9605 -5.09619 -1.9736 0
M  V30 691 H 66.0545 -0.757638 -0.331533 0
M  V30 692 H 68.6005 -1.69554 0.070433 0
M  V30 693 H 67.3725 -3.9093 -0.170098 0
M  V30 694 H 66.9955 -3.52396 -1.84126 0
M  V30 695 N 67.9926 0.231505 -1.5589 0
M  V30 696 C 69.2406 0.955461 -1.78088 0
M  V30 697 C 69.5616 1.85262 -0.608533 0
M  V30 698 O 68.8316 1.92277 0.375035 0
M  V30 699 H 67.4116 0.355787 -0.656829 0
M  V30 700 H 70.0736 0.245751 -1.93344 0
M  V30 701 H 69.1696 1.56814 -2.69844 0
M  V30 702 N 69.4707 1.49531 0.497807 0
M  V30 703 C 70.4337 1.65916 1.58128 0
M  V30 704 C 71.4337 0.530825 1.51786 0
M  V30 705 O 72.6237 0.797342 1.54881 0
M  V30 706 C 69.7557 1.65951 2.9778 0
M  V30 707 H 70.9487 2.62556 1.44929 0
M  V30 708 H 68.5017 1.38611 0.722275 0
M  V30 709 H 69.2367 0.709065 3.16453 0
M  V30 710 H 69.0217 2.47897 3.03792 0
M  V30 711 H 70.5117 1.80673 3.76493 0
M  V30 712 N 70.9488 -0.749086 1.3866 0
M  V30 713 C 71.8808 -1.87273 1.32142 0
M  V30 714 C 72.8938 -1.61127 0.232787 0
M  V30 715 O 74.0828 -1.71623 0.49069 0
M  V30 716 C 71.1828 -3.23005 1.02571 0
M  V30 717 C 70.3558 -3.7662 2.22433 0
M  V30 718 C 69.4148 -4.90879 1.89537 0
M  V30 719 O 68.4408 -5.05276 2.62078 0
M  V30 720 N 69.6428 -5.74198 0.853031 0
M  V30 721 H 72.4078 -1.93373 2.28969 0
M  V30 722 H 69.9688 -0.929216 1.32579 0
M  V30 723 H 71.9608 -3.96992 0.786085 0
M  V30 724 H 70.5308 -3.12262 0.145249 0
M  V30 725 H 69.7508 -2.94147 2.62434 0
M  V30 726 H 71.0388 -4.09173 3.02415 0
M  V30 727 H 70.4368 -5.6514 0.25155 0
M  V30 728 H 68.9938 -6.48313 0.67329 0
M  V30 729 N 72.4269 -1.23603 -0.977757 0
M  V30 730 C 73.3739 -1.01954 -2.07061 0
M  V30 731 C 74.3439 0.0638697 -1.65977 0
M  V30 732 O 75.5289 -0.0887624 -1.90593 0
M  V30 733 C 72.6689 -0.619658 -3.39491 0
M  V30 734 C 71.7819 -1.77547 -3.93829 0
M  V30 735 C 70.9169 -1.32212 -5.14484 0
M  V30 736 C 69.9559 -2.44852 -5.60994 0
M  V30 737 N 69.0929 -2.00456 -6.72876 0
M  V30 738 H 73.9329 -1.95495 -2.24913 0
M  V30 739 H 71.4699 -0.973861 -1.10247 0
M  V30 740 H 73.4279 -0.368898 -4.15566 0
M  V30 741 H 72.0579 0.278752 -3.21594 0
M  V30 742 H 71.1099 -2.14016 -3.14486 0
M  V30 743 H 72.4219 -2.62219 -4.24314 0
M  V30 744 H 71.5759 -1.02965 -5.97899 0
M  V30 745 H 70.3149 -0.445808 -4.85658 0
M  V30 746 H 69.3199 -2.74871 -4.76157 0
M  V30 747 H 70.5449 -3.33024 -5.91837 0
M  V30 748 H 68.4909 -1.15208 -6.45804 0
M  V30 749 H 68.4079 -2.78687 -7.02759 0
M  V30 750 H 69.6759 -1.7432 -7.59758 0
M  V30 751 N 73.905 1.17692 -1.04816 0
M  V30 752 C 74.815 2.25229 -0.65643 0
M  V30 753 C 75.831 1.71018 0.320761 0
M  V30 754 O 77.007 2.00649 0.173805 0
M  V30 755 C 74.072 3.46684 -0.0332629 0
M  V30 756 C 73.133 4.15997 -1.06042 0
M  V30 757 C 72.366 5.31654 -0.466893 0
M  V30 758 O 72.589 5.65777 0.724758 0
M  V30 759 O 71.523 5.89831 -1.1993 0
M  V30 760 H 75.349 2.61016 -1.55255 0
M  V30 761 H 72.934 1.24919 -0.81949 0
M  V30 762 H 74.816 4.20234 0.313256 0
M  V30 763 H 73.491 3.12703 0.836566 0
M  V30 764 H 72.398 3.44482 -1.45886 0
M  V30 765 H 73.731 4.53996 -1.90127 0
M  V30 766 N 75.3831 0.828654 1.34056 0
M  V30 767 C 76.3461 0.259927 2.27721 0
M  V30 768 C 77.3461 -0.565478 1.50529 0
M  V30 769 O 78.5361 -0.38075 1.69988 0
M  V30 770 C 75.6681 -0.634944 3.34935 0
M  V30 771 H 76.8611 1.0863 2.79534 0
M  V30 772 H 74.4141 0.600951 1.44285 0
M  V30 773 H 75.1491 -1.48416 2.88346 0
M  V30 774 H 74.9341 -0.0444999 3.92075 0
M  V30 775 H 76.4241 -1.02648 4.04788 0
M  V30 776 N 76.8612 -1.46375 0.584142 0
M  V30 777 C 78.1382 -1.956 0.0033388 0
M  V30 778 C 78.5182 -1.52679 -1.45782 0
M  V30 779 O 77.8662 -0.77816 -2.14842 0
M  V30 780 C 78.0762 -3.48551 0.176891 0
M  V30 781 C 79.4242 -4.24576 0.0454609 0
M  V30 782 O 80.4482 -3.56043 0.105801 0
M  V30 783 O 79.3072 -5.46427 -0.0890376 0
M  V30 784 H 76.4012 -0.825547 -0.0490066 0
M  V30 785 H 78.9472 -1.56652 0.65256 0
M  V30 786 H 77.7192 -3.72683 1.1926 0
M  V30 787 H 77.3422 -3.94332 -0.508695 0
M  V30 788 N 78.3393 -0.321999 -1.54275 0
M  V30 789 C 79.2863 0.544664 -2.24281 0
M  V30 790 C 80.2563 1.1129 -1.23303 0
M  V30 791 O 81.4413 1.15354 -1.51981 0
M  V30 792 C 78.5813 1.70045 -3.00298 0
M  V30 793 C 77.6943 1.16159 -4.1609 0
M  V30 794 C 76.8293 2.28293 -4.79641 0
M  V30 795 C 75.8683 1.71648 -5.8754 0
M  V30 796 N 75.0053 2.77438 -6.44959 0
M  V30 797 H 79.8453 -0.0588907 -2.97942 0
M  V30 798 H 77.3823 -0.0408345 -1.47043 0
M  V30 799 H 79.3403 2.38054 -3.42616 0
M  V30 800 H 77.9703 2.27531 -2.28975 0
M  V30 801 H 77.0223 0.373092 -3.78566 0
M  V30 802 H 78.3343 0.707087 -4.93763 0
M  V30 803 H 77.4883 3.0421 -5.2492 0
M  V30 804 H 76.2273 2.77079 -4.01346 0
M  V30 805 H 75.2323 0.942282 -5.41665 0
M  V30 806 H 76.4573 1.23741 -6.67731 0
M  V30 807 H 74.4033 3.25519 -5.69538 0
M  V30 808 H 74.3203 2.36547 -7.1804 0
M  V30 809 H 75.5883 3.53189 -6.94894 0
M  V30 810 N 79.8174 1.5752 -0.0501392 0
M  V30 811 C 80.7474 2.14502 0.922566 0
M  V30 812 C 81.7284 1.06642 1.3252 0
M  V30 813 O 82.9134 1.34577 1.4001 0
M  V30 814 C 80.0434 2.68916 2.19776 0
M  V30 815 C 78.9974 3.8175 1.93523 0
M  V30 816 C 78.3234 4.22677 3.27487 0
M  V30 817 C 79.6234 5.06932 1.25765 0
M  V30 818 H 81.3174 2.9603 0.447952 0
M  V30 819 H 78.8634 1.42401 0.214024 0
M  V30 820 H 80.8164 3.07419 2.88222 0
M  V30 821 H 79.5404 1.84578 2.69441 0
M  V30 822 H 78.1994 3.43718 1.27489 0
M  V30 823 H 77.8474 3.35291 3.74952 0
M  V30 824 H 77.5474 4.98725 3.1072 0
M  V30 825 H 79.0714 4.63779 3.97166 0
M  V30 826 H 80.4854 5.42888 1.84244 0
M  V30 827 H 78.8824 5.88116 1.19328 0
M  V30 828 H 79.9524 4.84337 0.233536 0
M  V30 829 N 81.2955 -0.223234 1.56011 0
M  V30 830 C 82.5435 -0.946003 1.78592 0
M  V30 831 C 82.8645 -1.84936 0.618349 0
M  V30 832 O 82.1345 -1.92473 -0.364833 0
M  V30 833 H 80.7145 -0.352298 0.658707 0
M  V30 834 H 83.3765 -0.235494 1.93472 0
M  V30 835 H 82.4725 -1.55381 2.70672 0
M  V30 836 N 82.7736 -1.49793 -0.48987 0
M  V30 837 C 84.0036 -1.6333 -1.26518 0
M  V30 838 C 84.4116 -0.308392 -1.8667 0
M  V30 839 O 83.7546 0.717512 -1.69108 0
M  V30 840 C 83.8166 -2.6522 -2.4269 0
M  V30 841 C 83.4806 -4.09279 -2.03321 0
M  V30 842 C 84.4776 -4.95738 -1.56652 0
M  V30 843 C 82.1626 -4.55082 -2.12616 0
M  V30 844 C 84.1566 -6.26041 -1.19795 0
M  V30 845 C 81.8436 -5.85396 -1.75371 0
M  V30 846 C 82.8416 -6.707 -1.29036 0
M  V30 847 O 82.5296 -7.98584 -0.92299 0
M  V30 848 H 82.2616 -0.552502 -0.389509 0
M  V30 849 H 84.8156 -1.96642 -0.593381 0
M  V30 850 H 83.0456 -2.27112 -3.12981 0
M  V30 851 H 84.7346 -2.68171 -3.04695 0
M  V30 852 H 85.5006 -4.61575 -1.48908 0
M  V30 853 H 81.3796 -3.88844 -2.47631 0
M  V30 854 H 84.9236 -6.92578 -0.835582 0
M  V30 855 H 80.8206 -6.19085 -1.82768 0
M  V30 856 H 81.5886 -8.11692 -1.05349 0
M  V30 857 N 84.2517 0.741722 -1.39055 0
M  V30 858 C 85.1997 1.87702 -1.3737 0
M  V30 859 C 86.1937 1.67427 -0.257812 0
M  V30 860 O 87.3997 1.7485 -0.427489 0
M  V30 861 H 83.7747 0.617757 -0.428812 0
M  V30 862 H 85.7457 1.86239 -2.33147 0
M  V30 863 C 84.4947 3.25315 -1.22741 0
M  V30 864 H 83.8177 3.41509 -2.07873 0
M  V30 865 H 85.2577 4.04964 -1.25618 0
M  V30 866 C 83.7167 3.36838 0.0647316 0
M  V30 867 O 84.2467 3.88073 1.03741 0
M  V30 868 N 82.4527 2.90329 0.125544 0
M  V30 869 H 81.9997 2.48823 -0.666682 0
M  V30 870 H 81.9577 2.98418 0.989639 0
M  V30 871 N 85.7298 1.2412 0.971189 0
M  V30 872 C 86.6598 1.05508 2.08304 0
M  V30 873 C 87.6408 -0.0308864 1.70072 0
M  V30 874 O 88.8258 0.135521 1.93727 0
M  V30 875 C 85.9558 0.655365 3.4106 0
M  V30 876 C 84.9098 1.68971 3.93234 0
M  V30 877 C 84.2358 1.14516 5.22293 0
M  V30 878 C 85.5358 3.08487 4.21465 0
M  V30 879 H 87.2298 1.98507 2.24132 0
M  V30 880 H 84.7758 0.955821 1.07704 0
M  V30 881 H 86.7288 0.51217 4.18276 0
M  V30 882 H 85.4528 -0.31032 3.25122 0
M  V30 883 H 84.1118 1.82106 3.18171 0
M  V30 884 H 83.7598 0.170189 5.02712 0
M  V30 885 H 83.4598 1.83635 5.58168 0
M  V30 886 H 84.9838 1.01401 6.02121 0
M  V30 887 H 86.3978 2.98601 4.89398 0
M  V30 888 H 84.7948 3.74926 4.68562 0
M  V30 889 H 85.8648 3.56787 3.28376 0
M  V30 890 N 87.2079 -1.17134 1.05439 0
M  V30 891 C 88.4539 -1.87733 0.767077 0
M  V30 892 C 88.7869 -1.8098 -0.704253 0
M  V30 893 O 88.0619 -1.21951 -1.5152 0
M  V30 894 C 88.3449 -3.37659 1.25133 0
M  V30 895 C 88.1979 -3.53149 2.78578 0
M  V30 896 C 89.5169 -4.31768 0.852324 0
M  V30 897 H 86.6359 -0.681687 0.280129 0
M  V30 898 H 89.2779 -1.37732 1.30881 0
M  V30 899 H 87.4279 -3.80373 0.790469 0
M  V30 900 H 89.0999 -3.19434 3.32806 0
M  V30 901 H 87.3429 -2.95345 3.17732 0
M  V30 902 H 88.0139 -4.58403 3.07523 0
M  V30 903 H 90.4899 -3.96909 1.24911 0
M  V30 904 H 89.3659 -5.35199 1.21873 0
M  V30 905 H 89.6269 -4.41429 -0.243485 0
M  V30 906 N 88.686 -0.835752 -1.33615 0
M  V30 907 C 89.932 -0.430596 -1.98176 0
M  V30 908 C 90.265 1.00684 -1.66061 0
M  V30 909 O 89.54 1.70339 -0.938877 0
M  V30 910 C 89.823 -0.648065 -3.5422 0
M  V30 911 C 89.676 -2.13255 -3.96033 0
M  V30 912 C 90.995 -0.0922113 -4.40003 0
M  V30 913 H 88.114 -0.157924 -0.719881 0
M  V30 914 H 90.756 -1.05069 -1.58305 0
M  V30 915 H 88.906 -0.120237 -3.88314 0
M  V30 916 H 90.578 -2.725 -3.72211 0
M  V30 917 H 88.821 -2.61823 -3.45878 0
M  V30 918 H 89.492 -2.23547 -5.04708 0
M  V30 919 H 91.968 -0.543343 -4.12537 0
M  V30 920 H 90.844 -0.274083 -5.48215 0
M  V30 921 H 91.105 1.00378 -4.30554 0
M  V30 922 N 90.1641 1.46063 -0.591896 0
M  V30 923 C 91.0941 2.33172 0.123673 0
M  V30 924 C 92.0751 1.45897 0.87453 0
M  V30 925 O 93.2601 1.74698 0.848181 0
M  V30 926 C 90.3901 3.28336 1.13194 0
M  V30 927 C 89.3441 4.25124 0.495324 0
M  V30 928 C 88.6701 5.09863 1.61071 0
M  V30 929 C 89.9701 5.19143 -0.573425 0
M  V30 930 H 91.6641 2.93252 -0.603646 0
M  V30 931 H 89.2101 1.41014 -0.291741 0
M  V30 932 H 91.1631 3.88137 1.64097 0
M  V30 933 H 89.8871 2.66383 1.88965 0
M  V30 934 H 88.5461 3.66599 0.00729452 0
M  V30 935 H 88.1941 4.44288 2.35832 0
M  V30 936 H 87.8941 5.75417 1.19035 0
M  V30 937 H 89.4181 5.72529 2.12233 0
M  V30 938 H 90.8321 5.73106 -0.1491 0
M  V30 939 H 89.2291 5.93089 -0.914636 0
M  V30 940 H 90.2991 4.62519 -1.45617 0
M  V30 941 N 91.6422 0.330177 1.54103 0
M  V30 942 C 92.9192 -0.325007 1.92881 0
M  V30 943 C 93.2992 -1.6934 1.26045 0
M  V30 944 O 92.6472 -2.24855 0.406526 0
M  V30 945 C 92.8572 -0.410634 3.46576 0
M  V30 946 C 94.2052 -0.667801 4.19316 0
M  V30 947 O 95.2292 -0.49329 3.52768 0
M  V30 948 O 94.0882 -1.00491 5.37181 0
M  V30 949 H 91.1822 -0.186873 0.80561 0
M  V30 950 H 93.7282 0.380376 1.65382 0
M  V30 951 H 92.5002 0.550164 3.87413 0
M  V30 952 H 92.1232 -1.16333 3.802 0
M  V30 953 N 93.1203 -1.57491 0.0584922 0
M  V30 954 C 94.3453 -1.97711 -0.62652 0
M  V30 955 C 94.7703 -0.936132 -1.63151 0
M  V30 956 O 94.1283 0.099811 -1.81025 0
M  V30 957 C 94.1763 -3.36989 -1.28338 0
M  V30 958 O 93.2803 -3.35433 -2.39913 0
M  V30 959 H 92.6213 -0.643868 -0.162266 0
M  V30 960 H 95.1513 -2.04193 0.129064 0
M  V30 961 H 95.1613 -3.73879 -1.63335 0
M  V30 962 H 93.8363 -4.12289 -0.546889 0
M  V30 963 H 92.4133 -3.10298 -2.06809 0
M  V30 964 N 94.5984 0.214957 -1.56127 0
M  V30 965 C 95.5304 1.29004 -1.89448 0
M  V30 966 C 96.5434 1.42716 -0.783326 0
M  V30 967 O 97.7324 1.43496 -1.06166 0
M  V30 968 C 94.8324 2.66482 -2.09381 0
M  V30 969 C 94.0054 2.74633 -3.40434 0
M  V30 970 C 93.0644 3.9317 -3.49719 0
M  V30 971 O 92.0904 3.812 -4.227 0
M  V30 972 N 93.2924 5.07765 -2.81346 0
M  V30 973 H 96.0574 1.00743 -2.82261 0
M  V30 974 H 93.6184 0.40497 -1.56753 0
M  V30 975 H 95.6104 3.44173 -2.12901 0
M  V30 976 H 94.1804 2.87314 -1.23163 0
M  V30 977 H 93.4004 1.83368 -3.48955 0
M  V30 978 H 94.6884 2.77054 -4.26754 0
M  V30 979 H 94.0864 5.20386 -2.21843 0
M  V30 980 H 92.6434 5.83474 -2.90519 0
M  V30 981 N 96.0765 1.50051 0.48192 0
M  V30 982 C 97.0245 1.68635 1.60203 0
M  V30 983 C 98.0185 0.552184 1.60148 0
M  V30 984 O 99.2245 0.732377 1.64427 0
M  V30 985 H 95.5995 0.532081 0.531407 0
M  V30 986 H 97.5705 2.62616 1.41688 0
M  V30 987 C 96.3195 1.78775 2.9822 0
M  V30 988 H 95.6425 2.6543 2.98976 0
M  V30 989 H 97.0825 1.95806 3.7608 0
M  V30 990 C 95.5415 0.536849 3.32595 0
M  V30 991 O 96.0715 -0.328897 4.00351 0
M  V30 992 N 94.2775 0.394091 2.87915 0
M  V30 993 H 93.8245 1.09962 2.32951 0
M  V30 994 H 93.7825 -0.441737 3.11281 0
M  V30 995 N 97.5546 -0.734337 1.39446 0
M  V30 996 C 98.5026 -1.86971 1.38364 0
M  V30 997 C 99.4966 -1.67288 0.266687 0
M  V30 998 O 100.703 -1.74621 0.436755 0
M  V30 999 H 97.0776 -0.615474 0.432082 0
M  V30 1000 H 99.0486 -1.85 2.34132 0
M  V30 1001 C 97.7976 -3.2466 1.24465 0
M  V30 1002 H 97.1206 -3.40402 2.09682 0
M  V30 1003 H 98.5606 -4.04292 1.27764 0
M  V30 1004 C 97.0196 -3.36867 -0.0468674 0
M  V30 1005 O 97.5496 -3.88618 -1.01681 0
M  V30 1006 N 95.7556 -2.90391 -0.110145 0
M  V30 1007 H 95.3026 -2.48466 0.679868 0
M  V30 1008 H 95.2606 -2.98939 -0.973799 0
M  V30 1009 N 99.0327 -1.24633 -0.964593 0
M  V30 1010 C 100.444 -1.08045 -1.5226 0
M  V30 1011 C 100.795 0.347116 -1.93105 0
M  V30 1012 O 99.9197 1.23588 -1.77637 0
M  V30 1013 C 100.515 -1.95514 -2.76695 0
M  V30 1014 C 99.0737 -1.8314 -3.28841 0
M  V30 1015 C 98.2207 -1.90262 -2.01732 0
M  V30 1016 H 101.172 -1.38064 -0.782553 0
M  V30 1017 H 101.193 -1.48925 -3.50145 0
M  V30 1018 H 100.705 -2.99407 -2.46936 0
M  V30 1019 H 98.8057 -0.82092 -3.63444 0
M  V30 1020 H 98.9187 -2.67406 -3.97531 0
M  V30 1021 H 97.2827 -1.34027 -2.16584 0
M  V30 1022 H 98.0657 -2.9574 -1.74334 0
M  V30 1023 N 100.511 1.16574 -1.06058 0
M  V30 1024 C 101.474 2.19085 -0.673392 0
M  V30 1025 C 102.474 1.5835 0.279648 0
M  V30 1026 O 103.664 1.74088 0.0623488 0
M  V30 1027 C 100.796 3.40899 0.00954234 0
M  V30 1028 H 101.989 2.54853 -1.58081 0
M  V30 1029 H 99.5418 1.30808 -0.855516 0
M  V30 1030 H 100.277 3.10684 0.929826 0
M  V30 1031 H 100.062 3.86233 -0.67573 0
M  V30 1032 H 101.552 4.1675 0.266245 0
M  V30 1033 N 101.989 0.842826 1.3317 0
M  V30 1034 C 102.936 0.276885 2.29133 0
M  V30 1035 C 103.906 -0.609527 1.54512 0
M  V30 1036 O 105.091 -0.546955 1.82792 0
M  V30 1037 C 102.231 -0.538707 3.40869 0
M  V30 1038 C 101.344 0.372169 4.30394 0
M  V30 1039 C 100.479 -0.454908 5.29249 0
M  V30 1040 C 99.5179 0.45411 6.10413 0
M  V30 1041 N 98.6549 -0.335075 7.013 0
M  V30 1042 H 103.495 1.10052 2.76934 0
M  V30 1043 H 101.032 0.554161 1.36262 0
M  V30 1044 H 102.99 -1.02709 4.0436 0
M  V30 1045 H 101.62 -1.32727 2.9425 0
M  V30 1046 H 100.672 0.97888 3.6759 0
M  V30 1047 H 101.984 1.0703 4.87182 0
M  V30 1048 H 101.138 -1.00695 5.98285 0
M  V30 1049 H 99.8769 -1.18646 4.73048 0
M  V30 1050 H 98.8819 1.01813 5.40291 0
M  V30 1051 H 100.107 1.18409 6.68697 0
M  V30 1052 H 98.0529 -1.04994 6.47543 0
M  V30 1053 H 97.9699 0.304262 7.55387 0
M  V30 1054 H 99.2379 -0.869224 7.74638 0
M  V30 1055 N 103.467 -1.45747 0.599634 0
M  V30 1056 C 104.377 -2.34262 -0.125888 0
M  V30 1057 C 105.393 -1.50768 -0.868625 0
M  V30 1058 O 106.569 -1.83592 -0.828003 0
M  V30 1059 C 103.634 -3.28252 -1.11587 0
M  V30 1060 C 102.695 -4.27651 -0.375956 0
M  V30 1061 C 101.928 -5.1715 -1.31877 0
M  V30 1062 O 102.151 -5.09916 -2.55621 0
M  V30 1063 O 101.085 -5.96286 -0.820157 0
M  V30 1064 H 104.911 -2.97688 0.601315 0
M  V30 1065 H 102.496 -1.44999 0.359934 0
M  V30 1066 H 104.378 -3.86191 -1.68626 0
M  V30 1067 H 103.053 -2.67401 -1.82424 0
M  V30 1068 H 101.96 -3.7335 0.236698 0
M  V30 1069 H 103.293 -4.91334 0.29177 0
M  V30 1070 N 104.945 -0.338344 -1.53925 0
M  V30 1071 C 105.875 0.51328 -2.27789 0
M  V30 1072 C 106.856 1.107 -1.29149 0
M  V30 1073 O 108.041 1.12937 -1.57984 0
M  V30 1074 C 105.171 1.66697 -3.04679 0
M  V30 1075 C 104.125 1.20183 -4.1078 0
M  V30 1076 C 103.451 2.44363 -4.75595 0
M  V30 1077 C 104.751 0.30605 -5.21403 0
M  V30 1078 H 106.445 -0.102883 -2.99223 0
M  V30 1079 H 103.991 -0.0509219 -1.4391 0
M  V30 1080 H 105.944 2.26915 -3.55088 0
M  V30 1081 H 104.668 2.30995 -2.30887 0
M  V30 1082 H 103.327 0.622499 -3.61276 0
M  V30 1083 H 102.975 3.07057 -3.98403 0
M  V30 1084 H 102.675 2.13925 -5.47275 0
M  V30 1085 H 104.199 3.05317 -5.28786 0
M  V30 1086 H 105.613 0.814929 -5.67478 0
M  V30 1087 H 104.01 0.0937929 -6.00027 0
M  V30 1088 H 105.08 -0.65921 -4.80398 0
M  V30 1089 N 106.423 1.57458 -0.0668435 0
M  V30 1090 C 107.386 2.11323 0.887422 0
M  V30 1091 C 108.386 1.03618 1.22964 0
M  V30 1092 O 109.576 1.29626 1.16373 0
M  V30 1093 C 106.708 2.61048 2.19242 0
M  V30 1094 H 107.901 2.96942 0.420194 0
M  V30 1095 H 105.454 1.55239 0.181793 0
M  V30 1096 H 106.189 1.78868 2.70512 0
M  V30 1097 H 105.974 3.39769 1.95702 0
M  V30 1098 H 107.464 3.02814 2.87565 0
M  V30 1099 N 107.901 -0.206675 1.56239 0
M  V30 1100 C 108.849 -1.27571 1.94495 0
M  V30 1101 C 109.843 -1.47737 0.828862 0
M  V30 1102 O 111.049 -1.48735 1.0138 0
M  V30 1103 H 107.424 -0.428029 0.6183 0
M  V30 1104 H 109.395 -0.925961 2.8367 0
M  V30 1105 C 108.144 -2.61568 2.29079 0
M  V30 1106 H 107.467 -2.46863 3.14482 0
M  V30 1107 H 108.907 -3.35144 2.5972 0
M  V30 1108 C 107.366 -3.17695 1.12123 0
M  V30 1109 O 107.896 -3.99801 0.390153 0
M  V30 1110 N 106.102 -2.76276 0.901097 0
M  V30 1111 H 105.649 -2.09613 1.49733 0
M  V30 1112 H 105.607 -3.1417 0.120319 0
M  V30 1113 N 109.379 -1.50304 -0.473955 0
M  V30 1114 C 110.625 -1.61389 -1.22806 0
M  V30 1115 C 110.958 -0.311955 -1.91678 0
M  V30 1116 O 110.233 0.686384 -1.81986 0
M  V30 1117 C 110.516 -2.79219 -2.27396 0
M  V30 1118 C 110.369 -4.19286 -1.62848 0
M  V30 1119 C 111.688 -2.92614 -3.28732 0
M  V30 1120 H 108.807 -0.587399 -0.445119 0
M  V30 1121 H 111.449 -1.82681 -0.522265 0
M  V30 1122 H 109.599 -2.61195 -2.87592 0
M  V30 1123 H 111.271 -4.48892 -1.06271 0
M  V30 1124 H 109.514 -4.23677 -0.931693 0
M  V30 1125 H 110.185 -4.97655 -2.38838 0
M  V30 1126 H 112.661 -3.09105 -2.78556 0
M  V30 1127 H 111.537 -3.76688 -3.99246 0
M  V30 1128 H 111.798 -2.03107 -3.92683 0
M  V30 1129 N 110.857 0.726932 -1.39834 0
M  V30 1130 C 111.789 1.85147 -1.35104 0
M  V30 1131 C 112.802 1.60736 -0.258392 0
M  V30 1132 O 113.991 1.70821 -0.517931 0
M  V30 1133 C 111.091 3.21332 -1.07697 0
M  V30 1134 C 110.264 3.73033 -2.28396 0
M  V30 1135 C 109.323 4.87802 -1.97322 0
M  V30 1136 O 108.349 5.01043 -2.70083 0
M  V30 1137 N 109.551 5.72768 -0.944273 0
M  V30 1138 H 112.316 1.89706 -2.32017 0
M  V30 1139 H 109.877 0.908006 -1.3404 0
M  V30 1140 H 111.869 3.95691 -0.849144 0
M  V30 1141 H 110.439 3.11992 -0.194909 0
M  V30 1142 H 109.659 2.89934 -2.6708 0
M  V30 1143 H 110.947 4.0431 -3.08887 0
M  V30 1144 H 110.345 5.64669 -0.341427 0
M  V30 1145 H 108.902 6.4716 -0.776346 0
M  V30 1146 N 112.336 1.25143 0.95797 0
M  V30 1147 C 113.613 1.00472 1.67823 0
M  V30 1148 C 113.993 -0.470056 2.058 0
M  V30 1149 O 113.341 -1.44663 1.76875 0
M  V30 1150 C 113.551 1.9372 2.90299 0
M  V30 1151 C 114.899 2.21371 3.62326 0
M  V30 1152 O 115.923 1.91451 3.00375 0
M  V30 1153 O 114.782 2.72231 4.7387 0
M  V30 1154 H 111.876 0.380752 0.734137 0
M  V30 1155 H 114.422 1.36283 1.01119 0
M  V30 1156 H 113.194 2.93316 2.59001 0
M  V30 1157 H 112.817 1.58286 3.64735 0
M  V30 1158 N 113.814 -1.1601 1.06675 0
M  V30 1159 C 114.744 -2.22688 0.702307 0
M  V30 1160 C 115.725 -1.67306 -0.307032 0
M  V30 1161 O 116.91 -1.93352 -0.181305 0
M  V30 1162 C 114.04 -3.47178 0.092038 0
M  V30 1163 C 112.994 -4.15477 1.02777 0
M  V30 1164 C 112.32 -5.33963 0.28061 0
M  V30 1165 C 113.62 -4.66019 2.35846 0
M  V30 1166 H 115.314 -2.53429 1.59419 0
M  V30 1167 H 112.86 -1.21813 0.767961 0
M  V30 1168 H 114.813 -4.21037 -0.174814 0
M  V30 1169 H 113.537 -3.15749 -0.834877 0
M  V30 1170 H 112.196 -3.43549 1.27944 0
M  V30 1171 H 111.844 -4.98788 -0.649545 0
M  V30 1172 H 111.544 -5.806 0.904258 0
M  V30 1173 H 113.068 -6.10596 0.021396 0
M  V30 1174 H 114.482 -5.3144 2.15045 0
M  V30 1175 H 112.879 -5.23293 2.93743 0
M  V30 1176 H 113.949 -3.82023 2.98641 0
M  V30 1177 N 115.292 -0.849877 -1.32721 0
M  V30 1178 C 116.52 -0.464754 -2.01613 0
M  V30 1179 C 116.935 0.937191 -1.63897 0
M  V30 1180 O 116.292 1.61081 -0.857856 0
M  V30 1181 C 116.343 -0.588638 -3.56675 0
M  V30 1182 O 116.064 -1.93535 -3.93034 0
M  V30 1183 C 117.565 -0.2019 -4.4284 0
M  V30 1184 H 114.785 -0.183215 -0.645502 0
M  V30 1185 H 117.329 -1.1455 -1.69407 0
M  V30 1186 H 115.484 0.0443159 -3.87375 0
M  V30 1187 H 115.898 -1.92871 -4.87751 0
M  V30 1188 H 117.372 -0.339599 -5.50954 0
M  V30 1189 H 117.849 0.857224 -4.30753 0
M  V30 1190 H 118.455 -0.809733 -4.17521 0
M  V30 1191 N 116.77 1.45427 -0.607355 0
M  V30 1192 C 118.016 2.0254 -0.102607 0
M  V30 1193 C 118.349 1.47478 1.26348 0
M  V30 1194 O 117.624 0.64939 1.83339 0
M  V30 1195 C 117.907 3.60044 -0.0634347 0
M  V30 1196 C 117.76 4.2544 -1.46017 0
M  V30 1197 C 119.079 4.35646 0.624514 0
M  V30 1198 H 116.198 0.73598 -0.0387607 0
M  V30 1199 H 118.84 1.73284 -0.779282 0
M  V30 1200 H 116.99 3.85101 0.512808 0
M  V30 1201 H 118.662 4.11569 -2.08347 0
M  V30 1202 H 116.905 3.83849 -2.02094 0
M  V30 1203 H 117.576 5.34342 -1.385 0
M  V30 1204 H 120.052 4.15882 0.134723 0
M  V30 1205 H 118.928 5.45376 0.621028 0
M  V30 1206 H 119.189 4.08501 1.69055 0
M  V30 1207 N 118.248 0.346503 1.53744 0
M  V30 1208 C 119.664 -0.00530975 1.59599 0
M  V30 1209 C 119.864 -1.48465 1.36236 0
M  V30 1210 O 118.92 -2.24376 1.15808 0
M  V30 1211 C 120.233 0.433516 2.97559 0
M  V30 1212 C 121.781 0.386111 3.10609 0
M  V30 1213 C 122.256 0.800451 4.50951 0
M  V30 1214 N 123.747 0.754753 4.5701 0
M  V30 1215 C 124.482 1.04727 5.63755 0
M  V30 1216 N 123.978 1.4081 6.7834 0
M  V30 1217 N 125.771 0.971316 5.53644 0
M  V30 1218 H 117.922 1.31009 1.67184 0
M  V30 1219 H 120.185 0.534242 0.783128 0
M  V30 1220 H 119.891 1.46509 3.19731 0
M  V30 1221 H 119.765 -0.189753 3.76722 0
M  V30 1222 H 122.152 -0.636295 2.88158 0
M  V30 1223 H 122.233 1.04462 2.33498 0
M  V30 1224 H 121.877 1.82088 4.74137 0
M  V30 1225 H 121.807 0.119386 5.26465 0
M  V30 1226 H 124.298 0.488662 3.74727 0
M  V30 1227 H 124.611 1.61607 7.55714 0
M  V30 1228 H 122.956 1.44657 6.79779 0
M  V30 1229 H 126.147 0.688748 4.63005 0
M  V30 1230 H 126.32 1.20263 6.36742 0
M  V30 1231 N 119.726 -1.57421 0.075193 0
M  V30 1232 C 120.974 -1.93236 -0.591974 0
M  V30 1233 C 121.295 -0.956241 -1.69944 0
M  V30 1234 O 120.565 -0.00494792 -1.95899 0
M  V30 1235 H 119.145 -0.713355 -0.22166 0
M  V30 1236 H 121.807 -1.9444 0.133848 0
M  V30 1237 H 120.903 -2.95131 -1.01509 0
M  V30 1238 N 121.204 0.198386 -1.56346 0
M  V30 1239 C 122.432 0.935572 -1.84539 0
M  V30 1240 C 122.847 1.76989 -0.657281 0
M  V30 1241 O 122.204 1.78626 0.374043 0
M  V30 1242 C 122.255 1.8344 -3.11499 0
M  V30 1243 O 121.976 1.03377 -4.25728 0
M  V30 1244 C 123.477 2.68355 -3.52846 0
M  V30 1245 H 120.697 0.273126 -0.612897 0
M  V30 1246 H 123.241 0.20663 -2.03453 0
M  V30 1247 H 121.396 2.51701 -2.94492 0
M  V30 1248 H 121.81 1.64599 -4.98003 0
M  V30 1249 H 123.284 3.27085 -4.44657 0
M  V30 1250 H 123.761 3.41901 -2.75681 0
M  V30 1251 H 124.367 2.05471 -3.72373 0
M  V30 1252 N 122.682 1.50554 0.465978 0
M  V30 1253 C 123.629 1.6979 1.56333 0
M  V30 1254 C 124.599 0.539239 1.57103 0
M  V30 1255 O 125.784 0.770401 1.74555 0
M  V30 1256 C 122.924 1.80273 2.94271 0
M  V30 1257 C 122.037 3.07674 3.0325 0
M  V30 1258 C 121.172 3.08922 4.32135 0
M  V30 1259 C 120.211 4.30755 4.34875 0
M  V30 1260 N 119.348 4.29714 5.55239 0
M  V30 1261 H 124.188 2.63472 1.39235 0
M  V30 1262 H 121.725 1.30602 0.676873 0
M  V30 1263 H 123.683 1.84332 3.74269 0
M  V30 1264 H 122.313 0.900258 3.09992 0
M  V30 1265 H 121.365 3.13062 2.16094 0
M  V30 1266 H 122.677 3.97642 3.01135 0
M  V30 1267 H 121.831 3.11738 5.20485 0
M  V30 1268 H 120.57 2.16792 4.36866 0
M  V30 1269 H 119.575 4.28146 3.44922 0
M  V30 1270 H 120.8 5.24117 4.31831 0
M  V30 1271 H 118.746 3.4044 5.60746 0
M  V30 1272 H 118.663 5.13456 5.54886 0
M  V30 1273 H 119.931 4.36683 6.457 0
M  V30 1274 N 124.16 -0.719506 1.40217 0
M  V30 1275 C 125.409 -1.47486 1.37589 0
M  V30 1276 C 125.722 -1.9559 -0.0201568 0
M  V30 1277 O 126.928 -2.70973 -0.169049 0
M  V30 1278 C 125.384 -2.66575 2.41796 0
M  V30 1279 C 124.992 -2.25358 3.87192 0
M  V30 1280 C 126.736 -3.4433 2.48269 0
M  V30 1281 C 124.643 -3.41262 4.83005 0
M  V30 1282 H 123.573 -0.553901 0.511576 0
M  V30 1283 H 126.224 -0.783427 1.65936 0
M  V30 1284 H 124.606 -3.3787 2.06543 0
M  V30 1285 H 125.78 -1.61509 4.31569 0
M  V30 1286 H 124.095 -1.60657 3.84159 0
M  V30 1287 H 126.692 -4.30569 3.17041 0
M  V30 1288 H 127.035 -3.87872 1.51198 0
M  V30 1289 H 127.568 -2.80076 2.82493 0
M  V30 1290 H 124.307 -3.02755 5.81394 0
M  V30 1291 H 123.827 -4.0404 4.43297 0
M  V30 1292 H 125.506 -4.07383 5.02641 0
M  V30 1293 N 125.638 -1.25649 -0.95132 0
M  V30 1294 C 126.568 -1.08808 -2.06599 0
M  V30 1295 C 127.549 0.00382547 -1.701 0
M  V30 1296 O 128.734 -0.166325 -1.93486 0
M  V30 1297 C 125.864 -0.709542 -3.39975 0
M  V30 1298 C 124.818 -1.75206 -3.90496 0
M  V30 1299 C 124.144 -1.22811 -5.20405 0
M  V30 1300 C 125.444 -3.15153 -4.16504 0
M  V30 1301 H 127.138 -2.02048 -2.20946 0
M  V30 1302 H 124.684 -0.972835 -1.06169 0
M  V30 1303 H 126.637 -0.578649 -4.17408 0
M  V30 1304 H 125.361 0.258556 -3.25575 0
M  V30 1305 H 124.02 -1.87145 -3.15234 0
M  V30 1306 H 123.668 -0.250145 -5.02378 0
M  V30 1307 H 123.368 -1.92492 -5.55176 0
M  V30 1308 H 124.892 -1.10968 -6.00432 0
M  V30 1309 H 126.306 -3.06349 -4.84586 0
M  V30 1310 H 124.703 -3.82333 -4.62538 0
M  V30 1311 H 125.773 -3.61966 -3.22658 0
M  V30 1312 N 127.117 1.15442 -1.07289 0
M  V30 1313 C 128.047 2.22312 -0.714107 0
M  V30 1314 C 129.028 1.67467 0.298155 0
M  V30 1315 O 130.213 1.93445 0.171048 0
M  V30 1316 C 127.343 3.47124 -0.110448 0
M  V30 1317 C 126.297 4.14926 -1.04979 0
M  V30 1318 C 125.623 5.33807 -0.308924 0
M  V30 1319 C 126.923 4.64762 -2.38314 0
M  V30 1320 H 128.617 2.5258 -1.6076 0
M  V30 1321 H 126.163 1.21404 -0.77441 0
M  V30 1322 H 128.116 4.21124 0.152482 0
M  V30 1323 H 126.84 3.16187 0.81812 0
M  V30 1324 H 125.499 3.42866 -1.29764 0
M  V30 1325 H 125.147 4.99126 0.623084 0
M  V30 1326 H 124.847 5.80113 -0.935036 0
M  V30 1327 H 126.371 6.10576 -0.0537771 0
M  V30 1328 H 127.785 5.30292 -2.1786 0
M  V30 1329 H 126.182 5.21728 -2.96514 0
M  V30 1330 H 127.252 3.80434 -3.00663 0
M  V30 1331 N 128.595 0.856903 1.32268 0
M  V30 1332 C 129.844 0.457599 1.96441 0
M  V30 1333 C 130.157 -0.992426 1.68553 0
M  V30 1334 O 131.363 -1.49727 2.26482 0
M  V30 1335 C 129.819 0.767358 3.51624 0
M  V30 1336 C 129.427 2.23326 3.88367 0
M  V30 1337 C 131.171 0.435887 4.22256 0
M  V30 1338 C 129.078 2.48613 5.36606 0
M  V30 1339 H 128.008 0.167387 0.735185 0
M  V30 1340 H 130.659 1.048 1.5063 0
M  V30 1341 H 129.041 0.106367 3.95857 0
M  V30 1342 H 130.215 2.93623 3.55137 0
M  V30 1343 H 128.53 2.52948 3.30766 0
M  V30 1344 H 131.127 0.602202 5.31298 0
M  V30 1345 H 131.47 -0.622672 4.11617 0
M  V30 1346 H 132.003 1.05286 3.83614 0
M  V30 1347 H 128.742 3.53101 5.52268 0
M  V30 1348 H 128.262 1.82896 5.71235 0
M  V30 1349 H 129.941 2.32676 6.03714 0
M  V30 1350 N 130.073 -1.45103 0.615059 0
M  V30 1351 C 131.021 -2.32331 -0.111791 0
M  V30 1352 C 132.015 -1.46409 -0.852102 0
M  V30 1353 O 133.221 -1.62849 -0.766821 0
M  V30 1354 H 129.596 -0.749993 -0.0549072 0
M  V30 1355 H 131.567 -2.91407 0.642225 0
M  V30 1356 C 130.316 -3.3015 -1.09071 0
M  V30 1357 H 129.639 -3.96265 -0.530485 0
M  V30 1358 H 131.079 -3.93898 -1.56908 0
M  V30 1359 C 129.538 -2.57875 -2.168 0
M  V30 1360 O 130.068 -2.36567 -3.24652 0
M  V30 1361 N 128.274 -2.17884 -1.92289 0
M  V30 1362 H 127.821 -2.35413 -1.04587 0
M  V30 1363 H 127.779 -1.6985 -2.64572 0
M  V30 1364 N 131.551 -0.354651 -1.53558 0
M  V30 1365 C 132.962 0.126902 -1.86268 0
M  V30 1366 C 133.313 1.49075 -1.27558 0
M  V30 1367 O 132.438 2.08105 -0.5934 0
M  V30 1368 C 133.033 0.237046 -3.3797 0
M  V30 1369 C 131.592 0.662842 -3.70518 0
M  V30 1370 C 130.739 -0.196652 -2.76602 0
M  V30 1371 H 133.69 -0.573849 -1.47962 0
M  V30 1372 H 133.711 1.06259 -3.65362 0
M  V30 1373 H 133.223 -0.755725 -3.80671 0
M  V30 1374 H 131.324 1.66424 -3.33367 0
M  V30 1375 H 131.437 0.445034 -4.77029 0
M  V30 1376 H 129.801 0.332763 -2.52517 0
M  V30 1377 H 130.584 -1.18676 -3.22135 0
M  V30 1378 N 133.029 1.57378 -0.0835403 0
M  V30 1379 C 134.257 1.98263 0.59157 0
M  V30 1380 C 134.672 0.962302 1.62435 0
M  V30 1381 O 134.029 -0.049581 1.82433 0
M  V30 1382 C 134.08 3.39214 1.24965 0
M  V30 1383 O 133.801 4.37339 0.258186 0
M  V30 1384 C 135.302 3.95038 2.01147 0
M  V30 1385 H 132.522 0.651773 0.159477 0
M  V30 1386 H 135.066 2.03878 -0.159415 0
M  V30 1387 H 133.221 3.34649 1.95164 0
M  V30 1388 H 133.635 5.19371 0.731734 0
M  V30 1389 H 135.109 4.95848 2.42567 0
M  V30 1390 H 135.586 3.32222 2.87272 0
M  V30 1391 H 136.192 4.0304 1.35789 0
M  V30 1392 N 134.507 -0.190092 1.56449 0
M  V30 1393 C 135.784 -0.935886 1.71757 0
M  V30 1394 C 136.164 -2.01173 0.639726 0
M  V30 1395 O 135.512 -2.25827 -0.348502 0
M  V30 1396 C 135.722 -1.51775 3.1427 0
M  V30 1397 C 137.07 -1.99794 3.74656 0
M  V30 1398 O 138.094 -1.61607 3.1743 0
M  V30 1399 O 136.953 -2.70079 4.751 0
M  V30 1400 H 134.047 -0.439229 0.700719 0
M  V30 1401 H 136.593 -0.179395 1.68749 0
M  V30 1402 H 135.365 -0.742505 3.84191 0
M  V30 1403 H 134.988 -2.33894 3.21527 0
M  V30 1404 N 135.985 -1.50799 -0.457987 0
M  V30 1405 C 137.21 -1.66496 -1.23668 0
M  V30 1406 C 137.635 -0.353288 -1.84752 0
M  V30 1407 O 136.993 0.684346 -1.67888 0
M  V30 1408 C 137.041 -2.76763 -2.3116 0
M  V30 1409 O 136.145 -2.38928 -3.36136 0
M  V30 1410 H 135.486 -0.555828 -0.363252 0
M  V30 1411 H 138.016 -1.9725 -0.543474 0
M  V30 1412 H 138.026 -3.00232 -2.76269 0
M  V30 1413 H 136.701 -3.71954 -1.86073 0
M  V30 1414 H 135.278 -2.25953 -2.96647 0
M  V30 1415 N 137.463 0.71206 -1.40597 0
M  V30 1416 C 138.74 1.46536 -1.29563 0
M  V30 1417 C 139.12 2.10931 0.0844217 0
M  V30 1418 O 138.468 2.00418 1.0975 0
M  V30 1419 C 138.678 2.49821 -2.43701 0
M  V30 1420 C 140.026 3.15551 -2.841 0
M  V30 1421 O 141.05 2.60142 -2.4332 0
M  V30 1422 O 139.909 4.15867 -3.54566 0
M  V30 1423 H 137.003 0.651801 -0.509004 0
M  V30 1424 H 139.549 0.743935 -1.52524 0
M  V30 1425 H 138.321 2.00778 -3.35863 0
M  V30 1426 H 137.944 3.29495 -2.22528 0
M  V30 1427 N 138.941 1.26152 0.944643 0
M  V30 1428 C 139.904 1.07474 2.0244 0
M  V30 1429 C 140.904 0.0242064 1.60782 0
M  V30 1430 O 142.094 0.267302 1.72137 0
M  V30 1431 C 139.226 0.633956 3.34953 0
M  V30 1432 H 140.419 2.03336 2.20442 0
M  V30 1433 H 137.972 1.087 1.12312 0
M  V30 1434 H 138.707 -0.326811 3.22649 0
M  V30 1435 H 138.492 1.39247 3.66542 0
M  V30 1436 H 139.982 0.52501 4.14287 0
M  V30 1437 N 140.419 -1.14872 1.07899 0
M  V30 1438 C 141.665 -1.86064 0.806725 0
M  V30 1439 C 141.998 -1.82434 -0.665706 0
M  V30 1440 O 141.273 -1.25138 -1.48899 0
M  V30 1441 C 141.556 -3.34929 1.32267 0
M  V30 1442 C 141.409 -3.47161 2.86006 0
M  V30 1443 C 142.728 -4.29863 0.943717 0
M  V30 1444 H 139.847 -0.675591 0.294526 0
M  V30 1445 H 142.489 -1.34925 1.33773 0
M  V30 1446 H 140.639 -3.78611 0.870974 0
M  V30 1447 H 142.311 -3.12302 3.39507 0
M  V30 1448 H 140.554 -2.88539 3.23925 0
M  V30 1449 H 141.225 -4.51777 3.17177 0
M  V30 1450 H 143.701 -3.9417 1.33302 0
M  V30 1451 H 142.577 -5.32494 1.33198 0
M  V30 1452 H 142.838 -4.41846 -0.149796 0
M  V30 1453 N 141.898 -0.863906 -1.31812 0
M  V30 1454 C 143.146 -0.470904 -1.96537 0
M  V30 1455 C 143.467 0.978771 -1.68657 0
M  V30 1456 O 142.737 1.6853 -0.998717 0
M  V30 1457 H 141.317 -0.171148 -0.72713 0
M  V30 1458 H 143.979 -1.10236 -1.60729 0
M  V30 1459 H 143.075 -0.623616 -3.05806 0
M  V30 1460 N 143.376 1.44774 -0.622745 0
M  V30 1461 C 144.324 2.32387 0.0994683 0
M  V30 1462 C 145.318 1.46859 0.844326 0
M  V30 1463 O 146.524 1.63254 0.758174 0
M  V30 1464 H 142.899 0.750273 0.0509291 0
M  V30 1465 H 144.87 2.91062 -0.65767 0
M  V30 1466 C 143.619 3.30723 1.07319 0
M  V30 1467 H 142.942 3.96541 0.509462 0
M  V30 1468 H 144.382 3.94725 1.54817 0
M  V30 1469 C 142.841 2.59021 2.15429 0
M  V30 1470 O 143.371 2.38286 3.23393 0
M  V30 1471 N 141.577 2.189 1.91131 0
M  V30 1472 H 141.124 2.35964 1.03337 0
M  V30 1473 H 141.082 1.71251 2.63668 0
M  V30 1474 N 144.854 0.36279 1.53368 0
M  V30 1475 C 145.817 -0.472679 2.24273 0
M  V30 1476 C 146.817 -1.012 1.24961 0
M  V30 1477 O 148.007 -0.898194 1.49259 0
M  V30 1478 C 145.139 -1.66039 2.97731 0
M  V30 1479 H 146.332 0.14773 2.99536 0
M  V30 1480 H 143.885 0.114434 1.55881 0
M  V30 1481 H 144.62 -2.31896 2.26704 0
M  V30 1482 H 144.405 -1.28066 3.70596 0
M  V30 1483 H 145.895 -2.25252 3.51641 0
M  V30 1484 N 146.332 -1.57332 0.0918853 0
M  V30 1485 C 147.578 -1.94524 -0.573425 0
M  V30 1486 C 147.911 -0.973578 -1.68033 0
M  V30 1487 O 147.186 -0.00609226 -1.94499 0
M  V30 1488 C 147.469 -3.41858 -1.13161 0
M  V30 1489 C 147.322 -4.4979 -0.0299747 0
M  V30 1490 C 148.641 -3.90435 -2.03098 0
M  V30 1491 H 145.76 -0.70734 -0.206975 0
M  V30 1492 H 148.402 -1.89309 0.161942 0
M  V30 1493 H 146.552 -3.46433 -1.7583 0
M  V30 1494 H 148.224 -4.57327 0.604112 0
M  V30 1495 H 146.467 -4.291 0.636833 0
M  V30 1496 H 147.138 -5.50069 -0.461287 0
M  V30 1497 H 149.614 -3.87992 -1.50338 0
M  V30 1498 H 148.49 -4.94097 -2.39081 0
M  V30 1499 H 148.751 -3.29541 -2.94712 0
M  V30 1500 N 147.81 0.181792 -1.56548 0
M  V30 1501 C 148.757 1.22521 -1.95595 0
M  V30 1502 C 149.727 1.4454 -0.818373 0
M  V30 1503 O 150.912 1.57454 -1.07763 0
M  V30 1504 C 148.052 2.56193 -2.31212 0
M  V30 1505 C 147.165 2.41641 -3.58097 0
M  V30 1506 C 146.3 3.68108 -3.82975 0
M  V30 1507 C 145.339 3.48445 -5.03242 0
M  V30 1508 N 144.476 4.66956 -5.24306 0
M  V30 1509 H 149.316 0.885226 -2.84548 0
M  V30 1510 H 146.853 0.425718 -1.40805 0
M  V30 1511 H 148.811 3.34088 -2.49882 0
M  V30 1512 H 147.441 2.88208 -1.45382 0
M  V30 1513 H 146.493 1.54976 -3.474 0
M  V30 1514 H 147.805 2.23052 -4.46149 0
M  V30 1515 H 146.959 4.54441 -4.01956 0
M  V30 1516 H 145.698 3.89666 -2.93278 0
M  V30 1517 H 144.703 2.60499 -4.8417 0
M  V30 1518 H 145.928 3.2832 -5.9446 0
M  V30 1519 H 143.874 4.88752 -4.37559 0
M  V30 1520 H 143.791 4.51242 -6.06561 0
M  V30 1521 H 145.059 5.54602 -5.47756 0
M  V30 1522 N 149.288 1.51039 0.449983 0
M  V30 1523 C 150.221 1.66105 1.56474 0
M  V30 1524 C 151.199 0.508776 1.54435 0
M  V30 1525 O 152.383 0.731005 1.73749 0
M  V30 1526 C 149.51 1.66304 2.9506 0
M  V30 1527 C 148.556 2.87346 3.15174 0
M  V30 1528 S 149.389 4.4835 2.92818 0
M  V30 1529 C 150.545 4.51274 4.33708 0
M  V30 1530 H 150.778 2.60397 1.43459 0
M  V30 1531 H 148.311 1.40565 0.638805 0
M  V30 1532 H 150.269 1.67103 3.74949 0
M  V30 1533 H 148.93 0.732108 3.05449 0
M  V30 1534 H 148.123 2.83849 4.16468 0
M  V30 1535 H 147.725 2.84223 2.43091 0
M  V30 1536 H 150.017 4.26136 5.26701 0
M  V30 1537 H 150.96 5.53017 4.42242 0
M  V30 1538 H 151.368 3.80738 4.16772 0
M  V30 1539 N 150.766 -0.704594 1.40972 0
M  V30 1540 C 151.729 -1.80035 1.41845 0
M  V30 1541 C 152.729 -1.57774 0.310474 0
M  V30 1542 O 153.919 -1.64613 0.56992 0
M  V30 1543 C 151.051 -3.18284 1.22098 0
M  V30 1544 H 152.244 -1.80658 2.3938 0
M  V30 1545 H 149.797 -0.911329 1.26982 0
M  V30 1546 H 150.532 -3.23306 0.253672 0
M  V30 1547 H 150.317 -3.35843 2.02366 0
M  V30 1548 H 151.807 -3.98289 1.25522 0
M  V30 1549 N 152.244 -1.26651 -0.937939 0
M  V30 1550 C 153.192 -1.08308 -2.05845 0
M  V30 1551 C 154.186 -0.0090757 -1.69398 0
M  V30 1552 O 155.392 -0.166007 -1.79233 0
M  V30 1553 H 151.767 -0.333416 -0.674046 0
M  V30 1554 H 153.738 -2.03261 -2.18467 0
M  V30 1555 C 152.487 -0.736229 -3.39816 0
M  V30 1556 H 151.81 -1.55453 -3.6834 0
M  V30 1557 H 153.25 -0.64769 -4.19024 0
M  V30 1558 C 151.709 0.558824 -3.32233 0
M  V30 1559 O 152.239 1.59621 -3.68624 0
M  V30 1560 N 150.445 0.550657 -2.85335 0
M  V30 1561 H 149.992 -0.293943 -2.55917 0
M  V30 1562 H 149.95 1.41726 -2.80644 0
M  V30 1563 N 153.722 1.14298 -1.08507 0
M  V30 1564 C 154.654 2.1907 -0.673859 0
M  V30 1565 C 155.667 1.60381 0.279577 0
M  V30 1566 O 156.856 1.78374 0.0670754 0
M  V30 1567 C 153.956 3.38888 0.0290979 0
M  V30 1568 C 153.129 4.27103 -0.943494 0
M  V30 1569 C 152.188 5.25477 -0.275676 0
M  V30 1570 O 151.214 5.61709 -0.920401 0
M  V30 1571 N 152.416 5.7227 0.974013 0
M  V30 1572 H 155.181 2.54965 -1.57521 0
M  V30 1573 H 152.742 1.29528 -0.971287 0
M  V30 1574 H 154.734 4.01761 0.48683 0
M  V30 1575 H 153.304 3.01309 0.832555 0
M  V30 1576 H 152.524 3.61149 -1.58004 0
M  V30 1577 H 153.812 4.82905 -1.60251 0
M  V30 1578 H 153.21 5.44965 1.51755 0
M  V30 1579 H 151.767 6.37127 1.37522 0
M  V30 1580 N 155.201 0.870884 1.31352 0
M  V30 1581 C 156.164 0.332243 2.26779 0
M  V30 1582 C 157.164 -0.517302 1.52252 0
M  V30 1583 O 158.354 -0.326477 1.71113 0
M  V30 1584 C 155.486 -0.528066 3.36785 0
M  V30 1585 H 156.679 1.17469 2.75937 0
M  V30 1586 H 154.232 0.64655 1.423 0
M  V30 1587 H 154.967 -1.39167 2.92922 0
M  V30 1588 H 154.752 0.0802582 3.92018 0
M  V30 1589 H 156.242 -0.897179 4.07849 0
M  V30 1590 N 156.679 -1.44442 0.630414 0
M  V30 1591 C 157.627 -2.32437 -0.0871428 0
M  V30 1592 C 158.621 -1.47304 -0.836525 0
M  V30 1593 O 159.827 -1.63653 -0.749506 0
M  V30 1594 H 156.202 -0.750533 -0.0469495 0
M  V30 1595 H 158.173 -2.90709 0.673096 0
M  V30 1596 C 156.922 -3.31288 -1.05563 0
M  V30 1597 H 156.245 -3.96805 -0.488426 0
M  V30 1598 H 157.685 -3.9554 -1.52721 0
M  V30 1599 C 156.144 -2.6016 -2.14052 0
M  V30 1600 O 156.674 -2.39997 -3.22124 0
M  V30 1601 N 154.88 -2.19911 -1.89967 0
M  V30 1602 H 154.427 -2.36509 -1.02085 0
M  V30 1603 H 154.385 -1.72646 -2.62756 0
M  V30 1604 N 158.157 -0.370918 -1.53173 0
M  V30 1605 C 159.406 0.218249 -2.00516 0
M  V30 1606 C 159.719 1.49429 -1.26215 0
M  V30 1607 O 160.925 2.16239 -1.64174 0
M  V30 1608 C 159.381 0.43948 -3.57207 0
M  V30 1609 C 158.989 -0.822244 -4.4039 0
M  V30 1610 C 160.733 0.986012 -4.1289 0
M  V30 1611 C 158.64 -0.570304 -5.88644 0
M  V30 1612 H 157.57 0.0853333 -0.749156 0
M  V30 1613 H 160.221 -0.490483 -1.76823 0
M  V30 1614 H 158.603 1.20961 -3.77074 0
M  V30 1615 H 159.777 -1.59557 -4.32294 0
M  V30 1616 H 158.092 -1.29238 -3.95836 0
M  V30 1617 H 160.689 1.18991 -5.21292 0
M  V30 1618 H 161.032 1.94972 -3.6782 0
M  V30 1619 H 161.565 0.27592 -3.96842 0
M  V30 1620 H 158.304 -1.50449 -6.38001 0
M  V30 1621 H 157.824 0.164427 -5.99575 0
M  V30 1622 H 159.503 -0.19784 -6.46697 0
M  V30 1623 N 159.635 1.57281 -0.100228 0
M  V30 1624 C 161.046 1.81725 0.428107 0
M  V30 1625 C 161.397 1.01619 1.67833 0
M  V30 1626 O 160.522 0.247098 2.14985 0
M  V30 1627 C 161.117 3.29617 0.78347 0
M  V30 1628 C 159.676 3.54808 1.25653 0
M  V30 1629 C 158.823 2.76118 0.255752 0
M  V30 1630 H 161.774 1.55324 -0.325608 0
M  V30 1631 H 161.795 3.4322 1.64256 0
M  V30 1632 H 161.307 3.87893 -0.12665 0
M  V30 1633 H 159.408 3.01868 2.18418 0
M  V30 1634 H 159.521 4.63443 1.21482 0
M  V30 1635 H 157.885 2.43745 0.738956 0
M  V30 1636 H 158.668 3.37145 -0.647136 0
M  V30 1637 N 161.113 -0.173488 1.56642 0
M  V30 1638 C 162.359 -0.891784 1.8214 0
M  V30 1639 C 162.692 -1.8199 0.677736 0
M  V30 1640 O 161.967 -1.91842 -0.320446 0
M  V30 1641 C 162.25 -1.68933 3.18015 0
M  V30 1642 C 162.103 -0.784487 4.42906 0
M  V30 1643 C 163.422 -2.65748 3.50808 0
M  V30 1644 H 160.541 -0.322761 0.662567 0
M  V30 1645 H 163.183 -0.158095 1.89341 0
M  V30 1646 H 161.333 -2.31482 3.12007 0
M  V30 1647 H 163.005 -0.172046 4.60979 0
M  V30 1648 H 161.248 -0.0924117 4.33702 0
M  V30 1649 H 161.919 -1.37799 5.34524 0
M  V30 1650 H 164.395 -2.13327 3.57255 0
M  V30 1651 H 163.271 -3.18619 4.4696 0
M  V30 1652 H 163.532 -3.45842 2.75401 0
M  V30 1653 N 162.591 -1.51276 -0.441967 0
M  V30 1654 C 163.84 -1.6295 -1.18871 0
M  V30 1655 C 164.153 -0.349312 -1.92456 0
M  V30 1656 O 165.359 -0.345355 -2.69295 0
M  V30 1657 C 163.815 -2.87759 -2.16155 0
M  V30 1658 C 163.423 -4.22764 -1.48239 0
M  V30 1659 C 165.167 -3.08788 -2.91291 0
M  V30 1660 C 163.074 -5.38728 -2.4398 0
M  V30 1661 H 162.004 -0.606913 -0.447406 0
M  V30 1662 H 164.655 -1.77739 -0.456205 0
M  V30 1663 H 163.037 -2.66593 -2.92821 0
M  V30 1664 H 164.211 -4.54293 -0.771635 0
M  V30 1665 H 162.526 -4.07575 -0.852741 0
M  V30 1666 H 165.123 -3.92599 -3.63002 0
M  V30 1667 H 165.466 -2.21679 -3.5237 0
M  V30 1668 H 165.999 -3.30272 -2.21733 0
M  V30 1669 H 162.738 -6.28082 -1.87598 0
M  V30 1670 H 162.258 -5.1158 -3.13123 0
M  V30 1671 H 163.937 -5.70489 -3.05207 0
M  V30 1672 N 164.069 0.697108 -1.41344 0
M  V30 1673 C 165.297 1.48593 -1.43972 0
M  V30 1674 C 165.712 1.88747 -0.0445612 0
M  V30 1675 O 165.069 1.56682 0.935785 0
M  V30 1676 C 165.12 2.74946 -2.34706 0
M  V30 1677 O 164.841 2.36484 -3.68791 0
M  V30 1678 C 166.342 3.687 -2.46121 0
M  V30 1679 H 163.562 0.457964 -0.490418 0
M  V30 1680 H 166.106 0.858429 -1.8561 0
M  V30 1681 H 164.261 3.33937 -1.9638 0
M  V30 1682 H 164.675 3.17918 -4.17167 0
M  V30 1683 H 166.149 4.54145 -3.13777 0
M  V30 1684 H 166.626 4.13081 -1.49199 0
M  V30 1685 H 167.232 3.15613 -2.85076 0
M  V30 1686 N 165.547 1.27147 0.931209 0
M  V30 1687 C 166.477 1.12081 2.04842 0
M  V30 1688 C 167.458 0.0232364 1.70084 0
M  V30 1689 O 168.643 0.197085 1.93197 0
M  V30 1690 C 165.773 0.76354 3.38803 0
M  V30 1691 C 164.727 1.81396 3.87659 0
M  V30 1692 C 164.053 1.31075 5.18385 0
M  V30 1693 C 165.353 3.21739 4.11438 0
M  V30 1694 H 167.047 2.05537 2.17703 0
M  V30 1695 H 164.593 0.989603 1.04608 0
M  V30 1696 H 166.546 0.644982 4.16435 0
M  V30 1697 H 165.27 -0.206727 3.25945 0
M  V30 1698 H 163.929 1.92136 3.12217 0
M  V30 1699 H 163.577 0.330037 5.01916 0
M  V30 1700 H 163.277 2.013 5.52044 0
M  V30 1701 H 164.801 1.20506 5.98591 0
M  V30 1702 H 166.215 3.14019 4.79651 0
M  V30 1703 H 164.612 3.89644 4.56397 0
M  V30 1704 H 165.682 3.67054 3.16859 0
M  V30 1705 N 167.025 -1.13721 1.09112 0
M  V30 1706 C 168.302 -1.81155 0.737706 0
M  V30 1707 C 168.682 -1.96253 -0.777683 0
M  V30 1708 O 168.03 -1.52807 -1.69889 0
M  V30 1709 C 168.24 -3.16392 1.47299 0
M  V30 1710 C 169.588 -3.91787 1.63671 0
M  V30 1711 O 170.612 -3.26005 1.43524 0
M  V30 1712 O 169.471 -5.0977 1.96969 0
M  V30 1713 H 166.565 -0.783518 0.26463 0
M  V30 1714 H 169.111 -1.20676 1.19312 0
M  V30 1715 H 167.883 -3.0061 2.50498 0
M  V30 1716 H 167.506 -3.8457 1.00953 0
M  V30 1717 N 168.503 -0.877838 -1.30888 0
M  V30 1718 C 169.919 -0.570844 -1.49042 0
M  V30 1719 C 170.119 0.893159 -1.80624 0
M  V30 1720 O 169.175 1.67485 -1.88958 0
M  V30 1721 C 170.488 -1.47784 -2.61878 0
M  V30 1722 C 172.036 -1.48071 -2.75761 0
M  V30 1723 C 172.511 -2.37347 -3.91702 0
M  V30 1724 N 174.002 -2.35271 -3.99001 0
M  V30 1725 C 174.737 -3.01063 -4.88004 0
M  V30 1726 N 174.233 -3.76055 -5.81854 0
M  V30 1727 N 176.026 -2.90332 -4.81315 0
M  V30 1728 H 168.177 -1.82502 -1.0866 0
M  V30 1729 H 170.44 -0.780797 -0.537644 0
M  V30 1730 H 170.146 -2.51993 -2.45341 0
M  V30 1731 H 170.02 -1.18215 -3.58197 0
M  V30 1732 H 172.407 -0.446166 -2.91708 0
M  V30 1733 H 172.488 -1.81668 -1.80085 0
M  V30 1734 H 172.132 -3.40883 -3.76512 0
M  V30 1735 H 172.062 -2.01071 -4.86701 0
M  V30 1736 H 174.553 -1.80768 -3.3186 0
M  V30 1737 H 174.866 -4.23366 -6.46514 0
M  V30 1738 H 173.211 -3.80163 -5.81808 0
M  V30 1739 H 176.402 -2.31278 -4.06974 0
M  V30 1740 H 176.575 -3.41885 -5.50471 0
M  V30 1741 N 169.982 1.44106 -0.638065 0
M  V30 1742 C 170.914 2.28976 0.101205 0
M  V30 1743 C 171.927 1.4167 0.802088 0
M  V30 1744 O 173.116 1.65755 0.662375 0
M  V30 1745 C 170.216 3.18217 1.16581 0
M  V30 1746 C 169.389 4.33978 0.546066 0
M  V30 1747 C 168.448 5.04202 1.50554 0
M  V30 1748 O 167.474 5.59986 1.01999 0
M  V30 1749 N 168.676 5.06296 2.8398 0
M  V30 1750 H 171.441 2.93064 -0.627186 0
M  V30 1751 H 169.002 1.54629 -0.479731 0
M  V30 1752 H 170.994 3.62061 1.80815 0
M  V30 1753 H 169.564 2.55833 1.79634 0
M  V30 1754 H 168.784 3.93239 -0.275046 0
M  V30 1755 H 170.072 5.08675 0.112793 0
M  V30 1756 H 169.47 4.62319 3.26002 0
M  V30 1757 H 168.027 5.53907 3.43556 0
M  V30 1758 N 171.46 0.379036 1.52974 0
M  V30 1759 C 172.423 -0.448865 2.24762 0
M  V30 1760 C 173.423 -0.998689 1.26027 0
M  V30 1761 O 174.613 -0.882313 1.50203 0
M  V30 1762 C 171.745 -1.62872 2.99476 0
M  V30 1763 H 172.938 0.179491 2.99362 0
M  V30 1764 H 170.491 0.13096 1.5575 0
M  V30 1765 H 171.226 -2.29479 2.29151 0
M  V30 1766 H 171.011 -1.24128 3.71934 0
M  V30 1767 H 172.501 -2.2151 3.5401 0
M  V30 1768 N 172.938 -1.57226 0.108567 0
M  V30 1769 C 174.166 -1.99179 -0.559954 0
M  V30 1770 C 174.581 -0.988022 -1.60884 0
M  V30 1771 O 173.938 0.0205512 -1.82488 0
M  V30 1772 C 173.989 -3.41159 -1.19552 0
M  V30 1773 O 173.71 -4.37694 -0.188577 0
M  V30 1774 C 175.211 -3.98188 -1.94837 0
M  V30 1775 H 172.431 -0.654228 -0.149088 0
M  V30 1776 H 174.975 -2.03598 0.19183 0
M  V30 1777 H 173.13 -3.37711 -1.89815 0
M  V30 1778 H 173.544 -5.20469 -0.649014 0
M  V30 1779 H 175.018 -4.99644 -2.34648 0
M  V30 1780 H 175.495 -3.3675 -2.81951 0
M  V30 1781 H 176.101 -4.0515 -1.2936 0
M  V30 1782 N 174.416 0.165178 -1.56732 0
M  V30 1783 C 175.363 1.2044 -1.96883 0
M  V30 1784 C 176.333 1.43664 -0.833657 0
M  V30 1785 O 177.518 1.56302 -1.09427 0
M  V30 1786 C 174.658 2.53727 -2.33916 0
M  V30 1787 C 173.771 2.3783 -3.6064 0
M  V30 1788 C 172.906 3.64026 -3.86857 0
M  V30 1789 C 171.945 3.43088 -5.06909 0
M  V30 1790 N 171.082 4.61369 -5.29229 0
M  V30 1791 H 175.922 0.854996 -2.85471 0
M  V30 1792 H 173.459 0.41076 -1.41249 0
M  V30 1793 H 175.417 3.31419 -2.53411 0
M  V30 1794 H 174.047 2.8665 -1.48431 0
M  V30 1795 H 173.099 1.51282 -3.49024 0
M  V30 1796 H 174.411 2.18308 -4.4849 0
M  V30 1797 H 173.565 4.50152 -4.06753 0
M  V30 1798 H 172.304 3.86533 -2.97394 0
M  V30 1799 H 171.309 2.55349 -4.86906 0
M  V30 1800 H 172.534 3.21997 -5.97909 0
M  V30 1801 H 170.48 4.84084 -4.42718 0
M  V30 1802 H 170.397 4.44783 -6.11313 0
M  V30 1803 H 171.665 5.48761 -5.53608 0
M  V30 1804 N 175.894 1.51508 0.433938 0
M  V30 1805 C 177.142 1.6402 1.18075 0
M  V30 1806 C 177.463 0.360328 1.91642 0
M  V30 1807 O 176.733 -0.623945 1.85698 0
M  V30 1808 H 175.313 0.6045 0.43885 0
M  V30 1809 H 177.975 1.88452 0.497178 0
M  V30 1810 H 177.071 2.46949 1.90847 0
M  V30 1811 N 177.372 -0.689602 1.41712 0
M  V30 1812 C 178.282 -1.83314 1.46401 0
M  V30 1813 C 179.298 -1.7036 0.35405 0
M  V30 1814 O 180.474 -1.92171 0.602692 0
M  V30 1815 C 177.539 -3.19344 1.34982 0
M  V30 1816 C 176.6 -3.44363 2.56344 0
M  V30 1817 C 175.833 -4.73904 2.45461 0
M  V30 1818 O 176.056 -5.508 1.48241 0
M  V30 1819 O 174.99 -4.99839 3.35328 0
M  V30 1820 H 178.816 -1.82314 2.42889 0
M  V30 1821 H 176.401 -0.843438 1.23315 0
M  V30 1822 H 178.283 -4.00547 1.3092 0
M  V30 1823 H 176.958 -3.21014 0.41612 0
M  V30 1824 H 175.865 -2.63067 2.65982 0
M  V30 1825 H 177.198 -3.47512 3.48563 0
M  V30 1826 N 178.85 -1.27639 -0.924453 0
M  V30 1827 C 180.096 -1.14336 -1.67497 0
M  V30 1828 C 180.429 0.309465 -1.91718 0
M  V30 1829 O 179.704 1.22608 -1.50989 0
M  V30 1830 C 179.987 -1.93096 -3.0395 0
M  V30 1831 C 179.84 -3.46381 -2.8695 0
M  V30 1832 C 181.159 -1.73798 -4.0433 0
M  V30 1833 H 178.278 -0.416728 -0.607871 0
M  V30 1834 H 180.92 -1.56832 -1.07256 0
M  V30 1835 H 179.07 -1.56982 -3.55372 0
M  V30 1836 H 180.742 -3.92343 -2.42621 0
M  V30 1837 H 178.985 -3.72557 -2.22225 0
M  V30 1838 H 179.656 -3.96735 -3.83804 0
M  V30 1839 H 182.132 -2.05293 -3.61931 0
M  V30 1840 H 181.008 -2.31294 -4.97789 0
M  V30 1841 H 181.269 -0.686725 -4.36734 0
M  V30 1842 N 180.328 1.1314 -1.09713 0
M  V30 1843 C 181.574 1.84757 -0.836224 0
M  V30 1844 C 181.907 1.8347 0.636598 0
M  V30 1845 O 181.182 1.27491 1.46889 0
M  V30 1846 C 181.465 3.32782 -1.37578 0
M  V30 1847 C 181.318 3.42567 -2.91493 0
M  V30 1848 C 182.637 4.28307 -1.01198 0
M  V30 1849 H 179.756 0.67082 -0.305236 0
M  V30 1850 H 182.398 1.3278 -1.35903 0
M  V30 1851 H 180.548 3.77177 -0.931097 0
M  V30 1852 H 182.22 3.06862 -3.44432 0
M  V30 1853 H 180.463 2.83349 -3.28475 0
M  V30 1854 H 181.134 4.46674 -3.24324 0
M  V30 1855 H 183.61 3.91999 -1.39556 0
M  V30 1856 H 182.486 5.30307 -1.41653 0
M  V30 1857 H 182.747 4.42029 0.0794833 0
M  V30 1858 N 181.806 0.884767 1.30421 0
M  V30 1859 C 183.031 0.517288 2.00845 0
M  V30 1860 C 183.456 -0.886779 1.65885 0
M  V30 1861 O 182.814 -1.58768 0.875354 0
M  V30 1862 C 182.862 0.698994 3.5376 0
M  V30 1863 O 181.966 -0.255208 4.1161 0
M  V30 1864 H 181.307 0.203872 0.631927 0
M  V30 1865 H 183.837 1.19225 1.66272 0
M  V30 1866 H 183.847 0.597912 4.03595 0
M  V30 1867 H 182.522 1.72271 3.78544 0
M  V30 1868 H 181.099 -0.10784 3.72744 0
M  V30 1869 N 183.284 -1.43765 0.645699 0
M  V30 1870 C 184.234 -2.27884 -0.0726442 0
M  V30 1871 C 185.218 -1.39483 -0.802086 0
M  V30 1872 O 186.41 -1.63174 -0.685791 0
M  V30 1873 C 183.539 -3.27055 -1.04356 0
M  V30 1874 C 182.625 -4.22944 -0.312985 0
M  V30 1875 N 183.016 -5.01391 0.666386 0
M  V30 1876 C 181.314 -4.42528 -0.55546 0
M  V30 1877 C 182.015 -5.71217 1.09935 0
M  V30 1878 N 180.991 -5.41856 0.435137 0
M  V30 1879 H 184.793 -2.85949 0.678988 0
M  V30 1880 H 182.307 -1.55378 0.472368 0
M  V30 1881 H 184.304 -3.86089 -1.57292 0
M  V30 1882 H 182.964 -2.70551 -1.79534 0
M  V30 1883 H 183.975 -5.07252 1.04481 0
M  V30 1884 H 180.652 -3.97104 -1.28899 0
M  V30 1885 H 182.042 -6.44202 1.90929 0
M  V30 1886 N 184.763 -0.387143 -1.52771 0
M  V30 1887 C 186.012 0.19697 -2.00736 0
M  V30 1888 C 186.325 1.48082 -1.27793 0
M  V30 1889 O 187.531 2.14485 -1.66458 0
M  V30 1890 C 185.987 0.401568 -3.57653 0
M  V30 1891 C 185.595 -0.868907 -4.39493 0
M  V30 1892 C 187.339 0.942164 -4.13912 0
M  V30 1893 C 185.246 -0.632705 -5.88006 0
M  V30 1894 H 184.176 0.0773827 -0.750019 0
M  V30 1895 H 186.827 -0.50921 -1.76293 0
M  V30 1896 H 185.209 1.16954 -3.78335 0
M  V30 1897 H 186.383 -1.64133 -4.30577 0
M  V30 1898 H 184.698 -1.33429 -3.94443 0
M  V30 1899 H 187.295 1.13455 -5.22525 0
M  V30 1900 H 187.638 1.9106 -3.69867 0
M  V30 1901 H 188.171 0.233814 -3.97112 0
M  V30 1902 H 184.91 -1.57208 -6.36369 0
M  V30 1903 H 184.43 0.100825 -5.99715 0
M  V30 1904 H 186.109 -0.26642 -6.46451 0
M  V30 1905 N 186.241 1.57166 -0.116904 0
M  V30 1906 C 187.204 2.14039 0.819742 0
M  V30 1907 C 188.204 1.07477 1.19605 0
M  V30 1908 O 189.394 1.33263 1.1219 0
M  V30 1909 C 186.526 2.67891 2.10826 0
M  V30 1910 H 187.719 2.98128 0.325511 0
M  V30 1911 H 185.272 1.55739 0.132312 0
M  V30 1912 H 186.007 1.87384 2.64685 0
M  V30 1913 H 185.792 3.45823 1.84793 0
M  V30 1914 H 187.282 3.11809 2.77785 0
M  V30 1915 N 187.719 -0.156864 1.56817 0
M  V30 1916 C 188.944 -0.890331 1.87318 0
M  V30 1917 C 189.369 -1.74394 0.704855 0
M  V30 1918 O 188.727 -1.77972 -0.345786 0
M  V30 1919 C 188.775 -1.73102 3.16336 0
M  V30 1920 O 187.879 -2.83422 2.99576 0
M  V30 1921 H 187.22 -0.24857 0.615718 0
M  V30 1922 H 189.75 -0.150649 2.04045 0
M  V30 1923 H 189.76 -2.12803 3.48107 0
M  V30 1924 H 188.435 -1.10412 4.00976 0
M  V30 1925 H 187.012 -2.47199 2.7919 0
M  V30 1926 N 189.197 -1.51736 -0.425897 0
M  V30 1927 C 190.474 -1.55519 -1.1863 0
M  V30 1928 C 190.854 -0.326219 -2.08564 0
M  V30 1929 O 190.202 0.688012 -2.17896 0
M  V30 1930 C 190.412 -2.87521 -1.9782 0
M  V30 1931 C 191.76 -3.39899 -2.54468 0
M  V30 1932 O 192.784 -2.89148 -2.08019 0
M  V30 1933 O 191.643 -4.2848 -3.39215 0
M  V30 1934 H 188.737 -0.625739 -0.540721 0
M  V30 1935 H 191.283 -1.64055 -0.434038 0
M  V30 1936 H 190.055 -3.68422 -1.31836 0
M  V30 1937 H 189.678 -2.822 -2.80088 0
M  V30 1938 N 190.675 0.682077 -1.42076 0
M  V30 1939 C 191.623 1.81707 -1.45208 0
M  V30 1940 C 192.617 1.66183 -0.328591 0
M  V30 1941 O 193.823 1.7288 -0.501264 0
M  V30 1942 H 190.198 0.599014 -0.454628 0
M  V30 1943 H 192.169 1.76183 -2.40836 0
M  V30 1944 C 190.918 3.19816 -1.36428 0
M  V30 1945 H 190.241 3.32385 -2.22171 0
M  V30 1946 H 191.681 3.99272 -1.42681 0
M  V30 1947 C 190.14 3.36809 -0.078191 0
M  V30 1948 O 190.67 3.92124 0.87188 0
M  V30 1949 N 188.876 2.906 0.00229266 0
M  V30 1950 H 188.423 2.45772 -0.771616 0
M  V30 1951 H 188.381 3.02347 0.862179 0
M  V30 1952 N 192.153 1.28127 0.917671 0
M  V30 1953 C 193.399 1.15223 1.66888 0
M  V30 1954 C 193.732 -0.299293 1.9188 0
M  V30 1955 O 193.007 -1.21805 1.51637 0
M  V30 1956 C 193.29 1.94706 3.02922 0
M  V30 1957 C 193.143 3.47898 2.85109 0
M  V30 1958 C 194.462 1.75939 4.03402 0
M  V30 1959 H 191.581 0.419946 0.605652 0
M  V30 1960 H 194.223 1.57398 1.06423 0
M  V30 1961 H 192.373 1.58864 3.54534 0
M  V30 1962 H 194.045 3.93624 2.40537 0
M  V30 1963 H 192.288 3.7373 2.20246 0
M  V30 1964 H 192.959 3.98765 3.81694 0
M  V30 1965 H 195.435 2.07209 3.60837 0
M  V30 1966 H 194.311 2.33931 4.96556 0
M  V30 1967 H 194.572 0.709877 4.36364 0
M  V30 1968 N 193.631 -1.12557 1.10312 0
M  V30 1969 C 194.561 -2.20341 0.772798 0
M  V30 1970 C 195.542 -1.68198 -0.25365 0
M  V30 1971 O 196.727 -1.93831 -0.119699 0
M  V30 1972 C 193.857 -3.46709 0.202443 0
M  V30 1973 C 192.811 -4.11996 1.15943 0
M  V30 1974 C 192.137 -5.328 0.450345 0
M  V30 1975 C 193.437 -4.5828 2.50552 0
M  V30 1976 H 195.131 -2.48229 1.674 0
M  V30 1977 H 192.677 -1.19308 0.806326 0
M  V30 1978 H 194.63 -4.2138 -0.0407752 0
M  V30 1979 H 193.354 -3.18245 -0.734001 0
M  V30 1980 H 192.013 -3.39305 1.38808 0
M  V30 1981 H 191.661 -5.00602 -0.490531 0
M  V30 1982 H 191.361 -5.7743 1.08851 0
M  V30 1983 H 192.885 -6.10219 0.215642 0
M  V30 1984 H 194.299 -5.2433 2.31843 0
M  V30 1985 H 192.696 -5.13683 3.10242 0
M  V30 1986 H 193.766 -3.72329 3.10643 0
M  V30 1987 N 195.109 -0.891671 -1.2995 0
M  V30 1988 C 196.357 -0.512486 -1.95494 0
M  V30 1989 C 196.678 0.942776 -1.70695 0
M  V30 1990 O 195.948 1.66374 -1.03424 0
M  V30 1991 H 194.528 -0.186533 -0.723336 0
M  V30 1992 H 197.19 -1.13621 -1.58355 0
M  V30 1993 H 196.286 -0.688342 -3.04415 0
M  V30 1994 N 196.587 1.43421 -0.653314 0
M  V30 1995 C 197.835 2.01414 -0.166415 0
M  V30 1996 C 198.156 1.51803 1.22397 0
M  V30 1997 O 197.426 0.730693 1.81763 0
M  V30 1998 H 196.006 0.744703 -0.0585319 0
M  V30 1999 H 198.668 1.75629 -0.845003 0
M  V30 2000 H 197.764 3.11734 -0.151111 0
M  V30 2001 N 198.065 0.39524 1.52563 0
M  V30 2002 C 199.012 -0.437036 2.26624 0
M  V30 2003 C 199.982 -1.05281 1.28472 0
M  V30 2004 O 201.167 -1.07971 1.57311 0
M  V30 2005 C 198.307 -1.55524 3.08069 0
M  V30 2006 C 197.42 -0.961745 4.21158 0
M  V30 2007 C 196.555 -2.05149 4.89987 0
M  V30 2008 C 195.594 -1.4342 5.95061 0
M  V30 2009 N 194.731 -2.46351 6.57462 0
M  V30 2010 H 199.571 0.200976 2.97322 0
M  V30 2011 H 197.108 0.110944 1.46681 0
M  V30 2012 H 199.066 -2.21437 3.53584 0
M  V30 2013 H 197.696 -2.16348 2.3957 0
M  V30 2014 H 196.748 -0.192048 3.79915 0
M  V30 2015 H 198.06 -0.470701 4.96574 0
M  V30 2016 H 197.214 -2.78819 5.38837 0
M  V30 2017 H 195.953 -2.57615 4.14109 0
M  V30 2018 H 194.958 -0.682774 5.45544 0
M  V30 2019 H 196.183 -0.917416 6.72875 0
M  V30 2020 H 194.129 -2.97975 5.8442 0
M  V30 2021 H 194.046 -2.02019 7.28508 0
M  V30 2022 H 195.314 -3.19633 7.10954 0
M  V30 2023 N 199.544 -1.57102 0.125237 0
M  V30 2024 C 200.793 -1.94582 -0.531095 0
M  V30 2025 C 201.106 -1.01126 -1.6743 0
M  V30 2026 O 202.312 -1.28097 -2.39381 0
M  V30 2027 C 200.768 -3.45839 -0.996164 0
M  V30 2028 C 200.376 -4.47842 0.118926 0
M  V30 2029 C 202.12 -3.92227 -1.62352 0
M  V30 2030 C 200.027 -5.90284 -0.363192 0
M  V30 2031 H 198.957 -0.726391 -0.20217 0
M  V30 2032 H 201.608 -1.82339 0.206092 0
M  V30 2033 H 199.99 -3.53338 -1.78796 0
M  V30 2034 H 201.164 -4.52018 0.895358 0
M  V30 2035 H 199.479 -4.11243 0.653324 0
M  V30 2036 H 202.076 -4.96069 -1.99548 0
M  V30 2037 H 202.419 -3.32552 -2.50429 0
M  V30 2038 H 202.952 -3.87554 -0.897019 0
M  V30 2039 H 199.691 -6.53728 0.481679 0
M  V30 2040 H 199.211 -5.89515 -1.10597 0
M  V30 2041 H 200.89 -6.41752 -0.822377 0
M  V30 2042 N 201.022 0.148545 -1.56898 0
M  V30 2043 C 201.985 1.16736 -1.97244 0
M  V30 2044 C 202.985 1.35947 -0.858777 0
M  V30 2045 O 204.175 1.32966 -1.12542 0
M  V30 2046 C 201.307 2.52798 -2.28705 0
M  V30 2047 H 202.5 0.821279 -2.88435 0
M  V30 2048 H 200.053 0.391831 -1.51309 0
M  V30 2049 H 200.788 2.92381 -1.403 0
M  V30 2050 H 200.573 2.40216 -3.09901 0
M  V30 2051 H 202.063 3.26179 -2.60762 0
M  V30 2052 N 202.5 1.5196 0.417844 0
M  V30 2053 C 203.748 1.65263 1.16329 0
M  V30 2054 C 204.069 0.380634 1.91249 0
M  V30 2055 O 203.339 -0.604214 1.86349 0
M  V30 2056 H 201.919 0.60912 0.432414 0
M  V30 2057 H 204.581 1.88969 0.477162 0
M  V30 2058 H 203.677 2.4896 1.88217 0
M  V30 2059 N 203.978 -0.674533 1.42435 0
M  V30 2060 C 205.255 -1.4305 1.33402 0
M  V30 2061 C 205.635 -2.11081 -0.0284674 0
M  V30 2062 O 204.983 -2.03257 -1.04397 0
M  V30 2063 C 205.193 -2.43272 2.50239 0
M  V30 2064 C 206.541 -3.07907 2.92367 0
M  V30 2065 O 207.565 -2.53599 2.50132 0
M  V30 2066 O 206.424 -4.0632 3.65467 0
M  V30 2067 H 203.518 -0.638076 0.526106 0
M  V30 2068 H 206.064 -0.703235 1.54443 0
M  V30 2069 H 204.836 -1.91803 3.41068 0
M  V30 2070 H 204.459 -3.23479 2.31186 0
M  V30 2071 N 205.456 -1.28612 -0.910864 0
M  V30 2072 C 206.686 -1.1862 -1.69153 0
M  V30 2073 C 207.094 0.257324 -1.87442 0
M  V30 2074 O 206.437 1.18543 -1.40332 0
M  V30 2075 C 206.499 -1.81606 -3.10257 0
M  V30 2076 C 206.163 -3.30864 -3.15243 0
M  V30 2077 C 207.16 -4.27256 -2.96223 0
M  V30 2078 C 204.845 -3.71871 -3.37664 0
M  V30 2079 C 206.839 -5.62631 -2.99541 0
M  V30 2080 C 204.526 -5.07371 -3.40614 0
M  V30 2081 C 205.524 -6.02561 -3.21573 0
M  V30 2082 O 205.212 -7.35589 -3.2429 0
M  V30 2083 H 204.944 -0.412633 -0.535453 0
M  V30 2084 H 207.498 -1.70306 -1.14827 0
M  V30 2085 H 205.728 -1.24418 -3.66138 0
M  V30 2086 H 207.417 -1.66092 -3.70362 0
M  V30 2087 H 208.183 -3.9691 -2.78725 0
M  V30 2088 H 204.062 -2.98241 -3.5153 0
M  V30 2089 H 207.606 -6.36907 -2.84597 0
M  V30 2090 H 203.503 -5.37366 -3.57642 0
M  V30 2091 H 204.271 -7.44252 -3.40633 0
M  V30 2092 N 206.934 1.1197 -1.10907 0
M  V30 2093 C 208.183 1.82947 -0.849302 0
M  V30 2094 C 208.496 1.85275 0.627112 0
M  V30 2095 O 209.702 2.52296 1.00295 0
M  V30 2096 C 208.158 3.28529 -1.46959 0
M  V30 2097 C 207.766 3.34546 -2.97965 0
M  V30 2098 C 209.51 4.04443 -1.28942 0
M  V30 2099 C 207.417 4.74491 -3.53004 0
M  V30 2100 H 206.347 0.685477 -0.314065 0
M  V30 2101 H 208.998 1.2604 -1.33365 0
M  V30 2102 H 207.38 3.85333 -0.912917 0
M  V30 2103 H 208.554 2.87654 -3.59989 0
M  V30 2104 H 206.869 2.72108 -3.15192 0
M  V30 2105 H 209.466 5.07787 -1.67502 0
M  V30 2106 H 209.809 4.15656 -0.231456 0
M  V30 2107 H 210.342 3.5401 -1.81443 0
M  V30 2108 H 207.081 4.68474 -4.58489 0
M  V30 2109 H 206.601 5.21816 -2.9575 0
M  V30 2110 H 208.28 5.4344 -3.51115 0
M  V30 2111 N 208.412 0.89855 1.29475 0
M  V30 2112 C 209.375 0.380272 2.26023 0
M  V30 2113 C 210.375 -0.484891 1.53315 0
M  V30 2114 O 211.565 -0.290108 1.71767 0
M  V30 2115 C 208.697 -0.45651 3.3783 0
M  V30 2116 H 209.89 1.23295 2.73383 0
M  V30 2117 H 207.443 0.676589 1.40897 0
M  V30 2118 H 208.178 -1.32922 2.95808 0
M  V30 2119 H 207.963 0.163393 3.91759 0
M  V30 2120 H 209.453 -0.810466 4.0966 0
M  V30 2121 N 209.89 -1.43072 0.660911 0
M  V30 2122 C 210.837 -2.30785 -0.0259884 0
M  V30 2123 C 211.807 -1.45184 -0.806888 0
M  V30 2124 O 212.992 -1.74041 -0.781943 0
M  V30 2125 C 210.132 -3.30861 -0.981067 0
M  V30 2126 C 209.245 -4.31558 -0.195458 0
M  V30 2127 C 208.38 -5.18712 -1.14503 0
M  V30 2128 C 207.419 -6.11097 -0.350299 0
M  V30 2129 N 206.556 -6.90849 -1.25186 0
M  V30 2130 H 211.396 -2.88975 0.727846 0
M  V30 2131 H 208.933 -1.42353 0.370682 0
M  V30 2132 H 210.891 -3.87399 -1.54849 0
M  V30 2133 H 209.521 -2.74304 -1.70169 0
M  V30 2134 H 208.573 -3.77252 0.488374 0
M  V30 2135 H 209.885 -4.9701 0.422176 0
M  V30 2136 H 209.039 -5.79914 -1.78284 0
M  V30 2137 H 207.778 -4.53404 -1.79656 0
M  V30 2138 H 206.783 -5.48976 0.300808 0
M  V30 2139 H 208.008 -6.7845 0.296941 0
M  V30 2140 H 205.954 -6.28182 -1.89005 0
M  V30 2141 H 205.871 -7.52854 -0.688971 0
M  V30 2142 H 207.139 -7.5655 -1.87757 0
M  V30 2143 N 211.368 -0.403325 -1.52352 0
M  V30 2144 C 212.315 0.425011 -2.26853 0
M  V30 2145 C 213.285 1.04598 -1.29029 0
M  V30 2146 O 214.47 1.07135 -1.57882 0
M  V30 2147 C 211.61 1.53888 -3.08889 0
M  V30 2148 C 210.723 0.939396 -4.21663 0
M  V30 2149 C 209.858 2.02547 -4.91068 0
M  V30 2150 C 208.897 1.40263 -5.95813 0
M  V30 2151 N 208.034 2.4286 -6.58759 0
M  V30 2152 H 212.874 -0.21674 -2.97211 0
M  V30 2153 H 210.411 -0.118722 -1.4662 0
M  V30 2154 H 212.369 2.19558 -3.54753 0
M  V30 2155 H 210.999 2.15074 -2.40714 0
M  V30 2156 H 210.051 0.171898 -3.80011 0
M  V30 2157 H 211.363 0.44436 -4.96817 0
M  V30 2158 H 210.517 2.75958 -5.40308 0
M  V30 2159 H 209.256 2.55415 -4.15469 0
M  V30 2160 H 208.261 0.653833 -5.45898 0
M  V30 2161 H 209.486 0.881719 -6.73352 0
M  V30 2162 H 207.432 2.94871 -5.85992 0
M  V30 2163 H 207.349 1.98152 -7.2957 0
M  V30 2164 H 208.617 3.15858 -7.12639 0
M  V30 2165 N 212.846 1.57033 -0.133567 0
M  V30 2166 C 213.809 2.14897 0.796995 0
M  V30 2167 C 214.809 1.0874 1.18458 0
M  V30 2168 O 215.999 1.34446 1.1077 0
M  V30 2169 C 213.131 2.70112 2.07973 0
M  V30 2170 H 214.324 2.98457 0.293873 0
M  V30 2171 H 211.877 1.55871 0.115787 0
M  V30 2172 H 212.612 1.9018 2.62682 0
M  V30 2173 H 212.397 3.47764 1.81115 0
M  V30 2174 H 213.887 3.14738 2.74462 0
M  V30 2175 N 214.325 -0.140222 1.56975 0
M  V30 2176 C 215.573 -0.850005 1.83356 0
M  V30 2177 C 215.894 -1.81399 0.71551 0
M  V30 2178 O 215.164 -1.94136 -0.262294 0
M  V30 2179 H 213.744 -0.316886 0.676456 0
M  V30 2180 H 216.406 -0.132608 1.94448 0
M  V30 2181 H 215.502 -1.40814 2.78528 0
M  V30 2182 N 215.803 -1.52179 -0.40978 0
M  V30 2183 C 216.713 -1.78364 -1.52392 0
M  V30 2184 C 217.729 -0.669183 -1.60617 0
M  V30 2185 O 218.905 -0.954518 -1.77344 0
M  V30 2186 C 215.97 -1.92822 -2.88133 0
M  V30 2187 C 215.031 -3.16725 -2.898 0
M  V30 2188 C 214.264 -3.30483 -4.19067 0
M  V30 2189 O 214.487 -2.49522 -5.12928 0
M  V30 2190 O 213.421 -4.2363 -4.27576 0
M  V30 2191 H 217.247 -2.72931 -1.33201 0
M  V30 2192 H 214.832 -1.37016 -0.59557 0
M  V30 2193 H 216.714 -2.04157 -3.68643 0
M  V30 2194 H 215.389 -1.01444 -3.07393 0
M  V30 2195 H 214.296 -3.10848 -2.08146 0
M  V30 2196 H 215.629 -4.07881 -2.75489 0
M  V30 2197 N 217.281 0.66697 -1.42791 0
M  V30 2198 C 218.529 1.42417 -1.43394 0
M  V30 2199 C 218.85 1.94925 -0.0542373 0
M  V30 2200 O 218.12 1.73564 0.908415 0
M  V30 2201 H 216.7 0.528515 -0.527902 0
M  V30 2202 H 219.362 0.787562 -1.78279 0
M  V30 2203 H 218.458 2.27333 -2.13837 0
M  V30 2204 N 218.759 1.29093 0.90403 0
M  V30 2205 C 219.722 1.1386 1.98919 0
M  V30 2206 C 220.722 0.0753457 1.60623 0
M  V30 2207 O 221.912 0.321931 1.71199 0
M  V30 2208 C 219.044 0.740198 3.32767 0
M  V30 2209 H 220.237 2.10246 2.13861 0
M  V30 2210 H 217.79 1.12218 1.08797 0
M  V30 2211 H 218.525 -0.223997 3.23525 0
M  V30 2212 H 218.31 1.50838 3.61926 0
M  V30 2213 H 219.8 0.656546 4.12407 0
M  V30 2214 N 220.237 -1.11381 1.11499 0
M  V30 2215 C 221.184 -2.17439 0.773887 0
M  V30 2216 C 222.154 -1.64132 -0.254899 0
M  V30 2217 O 223.339 -1.90345 -0.13168 0
M  V30 2218 C 220.479 -3.44373 0.223917 0
M  V30 2219 C 219.592 -4.1168 1.30934 0
M  V30 2220 C 218.727 -5.263 0.71984 0
M  V30 2221 C 217.766 -5.85493 1.78507 0
M  V30 2222 N 216.903 -6.91507 1.21502 0
M  V30 2223 H 221.743 -2.45962 1.68246 0
M  V30 2224 H 219.28 -1.20744 0.840191 0
M  V30 2225 H 221.238 -4.17047 -0.112921 0
M  V30 2226 H 219.868 -3.16232 -0.647851 0
M  V30 2227 H 218.92 -3.37073 1.76312 0
M  V30 2228 H 220.232 -4.51729 2.11524 0
M  V30 2229 H 219.386 -6.05785 0.333094 0
M  V30 2230 H 218.125 -4.87559 -0.117377 0
M  V30 2231 H 217.13 -5.04686 2.18111 0
M  V30 2232 H 218.355 -6.26301 2.62533 0
M  V30 2233 H 216.301 -6.54783 0.399455 0
M  V30 2234 H 216.218 -7.30214 1.95763 0
M  V30 2235 H 217.486 -7.74795 0.855181 0
M  V30 2236 N 221.715 -0.905404 -1.28997 0
M  V30 2237 C 222.961 -0.535039 -1.95615 0
M  V30 2238 C 223.294 0.917404 -1.71165 0
M  V30 2239 O 222.569 1.65123 -1.02785 0
M  V30 2240 C 222.852 -0.834918 -3.50287 0
M  V30 2241 C 222.705 -2.33948 -3.84172 0
M  V30 2242 C 224.024 -0.325318 -4.38896 0
M  V30 2243 H 221.143 -0.195861 -0.710498 0
M  V30 2244 H 223.785 -1.13313 -1.52513 0
M  V30 2245 H 221.935 -0.325904 -3.87131 0
M  V30 2246 H 223.607 -2.91847 -3.57243 0
M  V30 2247 H 221.85 -2.79789 -3.31513 0
M  V30 2248 H 222.521 -2.49987 -4.92149 0
M  V30 2249 H 224.997 -0.761256 -4.09077 0
M  V30 2250 H 223.873 -0.564295 -5.45992 0
M  V30 2251 H 224.134 0.774144 -4.35269 0
M  V30 2252 N 223.193 1.4272 -0.668489 0
M  V30 2253 C 224.442 2.00846 -0.185389 0
M  V30 2254 C 224.755 1.53442 1.21305 0
M  V30 2255 O 225.961 2.03944 1.79218 0
M  V30 2256 C 224.417 3.58805 -0.280591 0
M  V30 2257 C 224.025 4.15198 -1.68268 0
M  V30 2258 C 225.769 4.24255 0.14412 0
M  V30 2259 C 223.676 5.655 -1.73099 0
M  V30 2260 H 222.606 0.751145 -0.0655475 0
M  V30 2261 H 225.257 1.63516 -0.832752 0
M  V30 2262 H 223.639 3.93608 0.434553 0
M  V30 2263 H 224.813 3.91866 -2.42441 0
M  V30 2264 H 223.128 3.62176 -2.05469 0
M  V30 2265 H 225.725 5.34547 0.128086 0
M  V30 2266 H 226.068 3.99277 1.17827 0
M  V30 2267 H 226.601 3.94389 -0.519798 0
M  V30 2268 H 223.34 5.95268 -2.74475 0
M  V30 2269 H 222.86 5.90842 -1.03274 0
M  V30 2270 H 224.539 6.29808 -1.48158 0
M  V30 2271 N 224.671 0.411399 1.52136 0
M  V30 2272 C 225.581 -0.419774 2.30814 0
M  V30 2273 C 226.597 -1.0515 1.38634 0
M  V30 2274 O 227.773 -1.05252 1.71709 0
M  V30 2275 C 224.838 -1.52019 3.11594 0
M  V30 2276 C 223.899 -0.91129 4.19516 0
M  V30 2277 C 223.132 -1.95927 4.96436 0
M  V30 2278 O 223.355 -3.17775 4.73683 0
M  V30 2279 O 222.289 -1.56423 5.81219 0
M  V30 2280 H 226.115 0.221805 3.02889 0
M  V30 2281 H 223.7 0.174547 1.48377 0
M  V30 2282 H 225.582 -2.15898 3.61892 0
M  V30 2283 H 224.257 -2.14633 2.42311 0
M  V30 2284 H 223.164 -0.235157 3.7336 0
M  V30 2285 H 224.497 -0.32904 4.91099 0
M  V30 2286 N 226.149 -1.5696 0.141893 0
M  V30 2287 C 227.079 -2.19516 -0.795936 0
M  V30 2288 C 228.06 -1.14187 -1.26077 0
M  V30 2289 O 229.245 -1.42511 -1.31925 0
M  V30 2290 C 226.375 -2.81272 -2.03723 0
M  V30 2291 C 225.329 -3.92384 -1.70936 0
M  V30 2292 C 224.655 -4.41052 -3.02287 0
M  V30 2293 C 225.955 -5.13403 -0.959954 0
M  V30 2294 H 227.649 -2.98138 -0.274596 0
M  V30 2295 H 225.195 -1.43406 -0.130636 0
M  V30 2296 H 227.148 -3.237 -2.69808 0
M  V30 2297 H 225.872 -1.99973 -2.58221 0
M  V30 2298 H 224.531 -3.50566 -1.07232 0
M  V30 2299 H 224.179 -3.56582 -3.54765 0
M  V30 2300 H 223.879 -5.15993 -2.81114 0
M  V30 2301 H 225.403 -4.86146 -3.69451 0
M  V30 2302 H 226.817 -5.52706 -1.52279 0
M  V30 2303 H 225.214 -5.94073 -0.848357 0
M  V30 2304 H 226.284 -4.84875 0.0492434 0
M  V30 2305 N 227.627 0.131896 -1.57047 0
M  V30 2306 C 228.559 1.1878 -1.9602 0
M  V30 2307 C 229.572 1.38363 -0.857875 0
M  V30 2308 O 230.761 1.37666 -1.13623 0
M  V30 2309 C 227.861 2.55008 -2.23213 0
M  V30 2310 C 227.034 2.56201 -3.54513 0
M  V30 2311 C 226.093 3.7408 -3.70069 0
M  V30 2312 O 225.119 3.58258 -4.42312 0
M  V30 2313 N 226.321 4.92137 -3.07866 0
M  V30 2314 H 229.086 0.85639 -2.87204 0
M  V30 2315 H 226.647 0.321309 -1.5868 0
M  V30 2316 H 228.639 3.32404 -2.30846 0
M  V30 2317 H 227.209 2.80382 -1.3822 0
M  V30 2318 H 226.429 1.64613 -3.58185 0
M  V30 2319 H 227.717 2.54043 -4.4084 0
M  V30 2320 H 227.115 5.07895 -2.49116 0
M  V30 2321 H 225.672 5.67254 -3.21039 0
M  V30 2322 N 229.106 1.52395 0.401703 0
M  V30 2323 C 230.354 1.66488 1.14569 0
M  V30 2324 C 230.675 0.400897 1.90835 0
M  V30 2325 O 229.945 -0.584415 1.8698 0
M  V30 2326 H 228.525 0.613672 0.425929 0
M  V30 2327 H 231.187 1.89464 0.457093 0
M  V30 2328 H 230.283 2.50942 1.85566 0
M  V30 2329 N 230.584 -0.659388 1.43143 0
M  V30 2330 C 231.833 -1.41518 1.43721 0
M  V30 2331 C 232.146 -1.95499 0.0628176 0
M  V30 2332 O 233.352 -2.71446 -0.0539683 0
M  V30 2333 C 231.808 -2.5608 2.52885 0
M  V30 2334 C 231.416 -2.08733 3.96402 0
M  V30 2335 C 233.16 -3.3349 2.62649 0
M  V30 2336 C 231.067 -3.20469 4.97045 0
M  V30 2337 H 229.997 -0.531705 0.534608 0
M  V30 2338 H 232.648 -0.712343 1.69109 0
M  V30 2339 H 231.03 -3.28805 2.20688 0
M  V30 2340 H 232.204 -1.43059 4.3803 0
M  V30 2341 H 230.519 -1.44219 3.90627 0
M  V30 2342 H 233.116 -4.16734 3.35017 0
M  V30 2343 H 233.459 -3.8111 1.67513 0
M  V30 2344 H 233.992 -2.67842 2.94118 0
M  V30 2345 H 230.731 -2.77824 5.93712 0
M  V30 2346 H 230.251 -3.84874 4.60034 0
M  V30 2347 H 231.93 -3.85698 5.19467 0
M  V30 2348 N 232.062 -1.29571 -0.897171 0
M  V30 2349 C 233.025 -1.14913 -1.98312 0
M  V30 2350 C 234.025 -0.0838629 -1.60581 0
M  V30 2351 O 235.215 -0.331006 -1.71026 0
M  V30 2352 C 232.347 -0.757835 -3.3237 0
M  V30 2353 H 233.54 -2.11377 -2.12743 0
M  V30 2354 H 231.093 -1.12793 -1.08201 0
M  V30 2355 H 231.828 0.206837 -3.2364 0
M  V30 2356 H 231.613 -1.52755 -3.61121 0
M  V30 2357 H 233.103 -0.678408 -4.12053 0
M  V30 2358 N 233.54 1.10788 -1.12088 0
M  V30 2359 C 234.788 1.8231 -0.872205 0
M  V30 2360 C 235.109 1.85419 0.603709 0
M  V30 2361 O 234.379 1.32963 1.43867 0
M  V30 2362 H 232.959 0.675137 -0.319686 0
M  V30 2363 H 235.621 1.34068 -1.41463 0
M  V30 2364 H 234.717 2.85955 -1.25045 0
M  V30 2365 N 235.018 0.912232 1.28515 0
M  V30 2366 C 236.246 0.560416 1.99166 0
M  V30 2367 C 236.661 -0.857927 1.68182 0
M  V30 2368 O 236.018 -1.56805 0.933733 0
M  V30 2369 C 236.069 0.758142 3.53461 0
M  V30 2370 O 235.79 2.12067 3.83352 0
M  V30 2371 C 237.291 0.412954 4.41372 0
M  V30 2372 H 234.511 0.213805 0.636026 0
M  V30 2373 H 237.055 1.22502 1.63749 0
M  V30 2374 H 235.21 0.140556 3.87145 0
M  V30 2375 H 235.624 2.15923 4.77993 0
M  V30 2376 H 237.098 0.60208 5.48707 0
M  V30 2377 H 237.575 -0.65073 4.34353 0
M  V30 2378 H 238.181 1.00802 4.13182 0
M  V30 2379 N 236.496 -1.42363 0.676048 0
M  V30 2380 C 237.721 -2.06377 0.205705 0
M  V30 2381 C 238.146 -1.50463 -1.12883 0
M  V30 2382 O 237.504 -0.623619 -1.70237 0
M  V30 2383 C 237.552 -3.60277 0.152655 0
M  V30 2384 O 236.656 -4.02935 -0.87845 0
M  V30 2385 H 235.997 -0.655588 0.105359 0
M  V30 2386 H 238.527 -1.82475 0.925412 0
M  V30 2387 H 238.537 -4.07993 -0.0230675 0
M  V30 2388 H 237.212 -4.00346 1.12675 0
M  V30 2389 H 235.789 -3.66764 -0.673668 0
M  V30 2390 N 237.974 -0.419461 -1.51915 0
M  V30 2391 C 238.937 0.389116 -2.25873 0
M  V30 2392 C 239.937 0.964924 -1.28631 0
M  V30 2393 O 241.127 0.842179 -1.52489 0
M  V30 2394 C 238.259 1.54874 -3.03689 0
M  V30 2395 H 239.452 -0.258799 -2.98781 0
M  V30 2396 H 237.005 -0.172209 -1.55348 0
M  V30 2397 H 237.74 2.23323 -2.35154 0
M  V30 2398 H 237.525 1.14223 -3.75094 0
M  V30 2399 H 239.015 2.12046 -3.59759 0
M  V30 2400 N 239.452 1.56882 -0.150215 0
M  V30 2401 C 240.415 2.1573 0.774157 0
M  V30 2402 C 241.415 1.0999 1.17298 0
M  V30 2403 O 242.605 1.35613 1.09338 0
M  V30 2404 C 239.737 2.72302 2.05096 0
M  V30 2405 H 240.93 2.98752 0.262201 0
M  V30 2406 H 238.483 1.55985 0.099248 0
M  V30 2407 H 239.218 1.92956 2.6065 0
M  V30 2408 H 239.003 3.49665 1.77416 0
M  V30 2409 H 240.493 3.17632 2.71109 0
M  V30 2410 N 240.93 -0.123565 1.57115 0
M  V30 2411 C 242.346 -0.476961 1.52306 0
M  V30 2412 C 242.546 -1.82109 0.86248 0
M  V30 2413 O 241.602 -2.48586 0.442884 0
M  V30 2414 C 242.915 -0.465661 2.97073 0
M  V30 2415 C 244.463 -0.549534 3.08138 0
M  V30 2416 C 244.938 -0.568669 4.54456 0
M  V30 2417 N 246.429 -0.630237 4.58892 0
M  V30 2418 C 247.164 -0.666415 5.69514 0
M  V30 2419 N 246.66 -0.660514 6.89644 0
M  V30 2420 N 248.453 -0.709077 5.5761 0
M  V30 2421 H 240.604 0.757198 1.98445 0
M  V30 2422 H 242.867 0.278808 0.906074 0
M  V30 2423 H 242.573 0.454232 3.48754 0
M  V30 2424 H 242.447 -1.29513 3.54269 0
M  V30 2425 H 244.834 -1.45985 2.56461 0
M  V30 2426 H 244.915 0.307532 2.53945 0
M  V30 2427 H 244.559 0.337581 5.06777 0
M  V30 2428 H 244.489 -1.44256 5.06456 0
M  V30 2429 H 246.98 -0.641146 3.72421 0
M  V30 2430 H 247.293 -0.690616 7.69708 0
M  V30 2431 H 245.638 -0.628012 6.92157 0
M  V30 2432 H 248.829 -0.711019 4.62668 0
M  V30 2433 H 249.002 -0.733804 6.43832 0
M  V30 2434 N 242.408 -1.52605 -0.393616 0
M  V30 2435 C 243.318 -1.79971 -1.50492 0
M  V30 2436 C 244.334 -0.686181 -1.59899 0
M  V30 2437 O 245.51 -0.973274 -1.76322 0
M  V30 2438 C 242.575 -1.95867 -2.86072 0
M  V30 2439 C 241.636 -3.19781 -2.86424 0
M  V30 2440 C 240.869 -3.34909 -4.15538 0
M  V30 2441 O 241.092 -2.54948 -5.10253 0
M  V30 2442 O 240.026 -4.28141 -4.23059 0
M  V30 2443 H 243.852 -2.74328 -1.30299 0
M  V30 2444 H 241.437 -1.3764 -0.581005 0
M  V30 2445 H 243.319 -2.08056 -3.66457 0
M  V30 2446 H 241.994 -1.04699 -3.063 0
M  V30 2447 H 240.901 -3.13038 -2.04837 0
M  V30 2448 H 242.234 -4.1078 -2.71147 0
M  V30 2449 N 243.887 0.651787 -1.4349 0
M  V30 2450 C 245.303 0.96762 -1.26922 0
M  V30 2451 C 245.503 2.00602 -0.189982 0
M  V30 2452 O 244.559 2.48793 0.431107 0
M  V30 2453 C 245.872 1.45052 -2.63401 0
M  V30 2454 C 247.42 1.5671 -2.70945 0
M  V30 2455 C 247.895 2.0839 -4.07845 0
M  V30 2456 N 249.386 2.1569 -4.09917 0
M  V30 2457 C 250.121 2.56804 -5.12679 0
M  V30 2458 N 249.617 2.97203 -6.25813 0
M  V30 2459 N 251.41 2.56756 -5.00033 0
M  V30 2460 H 243.561 -0.0353158 -2.12371 0
M  V30 2461 H 245.824 0.0467858 -0.946845 0
M  V30 2462 H 245.53 0.761926 -3.43348 0
M  V30 2463 H 245.404 2.42529 -2.88894 0
M  V30 2464 H 247.791 2.2467 -1.9133 0
M  V30 2465 H 247.872 0.57662 -2.49216 0
M  V30 2466 H 247.516 1.41031 -4.87927 0
M  V30 2467 H 247.446 3.08271 -4.26938 0
M  V30 2468 H 249.937 1.87237 -3.28254 0
M  V30 2469 H 250.25 3.27328 -7.00055 0
M  V30 2470 H 248.595 2.95004 -6.29283 0
M  V30 2471 H 251.786 2.24572 -4.10713 0
M  V30 2472 H 251.959 2.88475 -5.80247 0
M  V30 2473 N 245.365 1.30045 0.890287 0
M  V30 2474 C 246.613 1.18327 1.63839 0
M  V30 2475 C 246.934 -0.263455 1.93212 0
M  V30 2476 O 246.204 -1.17856 1.56482 0
M  V30 2477 H 244.784 0.434933 0.607324 0
M  V30 2478 H 247.446 1.631 1.06698 0
M  V30 2479 H 246.542 1.74024 2.59079 0
M  V30 2480 N 246.843 -1.10192 1.12674 0
M  V30 2481 C 247.753 -2.20172 0.810026 0
M  V30 2482 C 248.769 -1.72821 -0.202188 0
M  V30 2483 O 249.945 -2.01369 -0.0351691 0
M  V30 2484 C 247.01 -3.45631 0.272007 0
M  V30 2485 C 246.071 -4.07704 1.34447 0
M  V30 2486 C 245.304 -5.27175 0.832029 0
M  V30 2487 O 245.527 -5.69425 -0.333284 0
M  V30 2488 O 244.461 -5.80168 1.60277 0
M  V30 2489 H 248.287 -2.49701 1.72867 0
M  V30 2490 H 245.872 -1.18977 0.903597 0
M  V30 2491 H 247.754 -4.21394 -0.0230219 0
M  V30 2492 H 246.429 -3.17723 -0.619164 0
M  V30 2493 H 245.336 -3.33614 1.6927 0
M  V30 2494 H 246.669 -4.3982 2.2095 0
M  V30 2495 N 248.321 -0.919034 -1.28029 0
M  V30 2496 C 249.569 -0.553838 -1.94363 0
M  V30 2497 C 249.89 0.906357 -1.72656 0
M  V30 2498 O 249.16 1.64143 -1.0693 0
M  V30 2499 H 247.74 -0.201834 -0.719216 0
M  V30 2500 H 250.402 -1.16954 -1.55909 0
M  V30 2501 H 249.498 -0.752758 -3.02886 0
M  V30 2502 N 249.799 1.42003 -0.683588 0
M  V30 2503 C 251.046 2.01413 -0.209514 0
M  V30 2504 C 251.374 1.54088 1.1869 0
M  V30 2505 O 250.629 0.737591 1.81268 0
M  V30 2506 C 250.928 3.56827 -0.202357 0
M  V30 2507 C 250.594 4.23617 -1.54464 0
M  V30 2508 C 249.256 4.41577 -1.91215 0
M  V30 2509 C 251.608 4.61178 -2.42826 0
M  V30 2510 C 248.936 4.9437 -3.15935 0
M  V30 2511 C 251.288 5.15355 -3.66867 0
M  V30 2512 C 249.952 5.31528 -4.03776 0
M  V30 2513 H 249.222 0.737023 -0.0766668 0
M  V30 2514 H 251.869 1.70067 -0.880312 0
M  V30 2515 H 250.174 3.87892 0.551969 0
M  V30 2516 H 251.871 4.00588 0.181793 0
M  V30 2517 H 248.461 4.10004 -1.24877 0
M  V30 2518 H 252.645 4.46968 -2.15717 0
M  V30 2519 H 247.901 5.05076 -3.44541 0
M  V30 2520 H 252.075 5.43402 -4.35531 0
M  V30 2521 H 249.702 5.72199 -5.00492 0
M  V30 2522 N 251.277 0.427512 1.51691 0
M  V30 2523 C 252.209 -0.424521 2.25234 0
M  V30 2524 C 253.222 -0.994671 1.2888 0
M  V30 2525 O 254.411 -0.890483 1.54702 0
M  V30 2526 C 251.511 -1.60479 2.98496 0
M  V30 2527 C 250.684 -1.15527 4.21868 0
M  V30 2528 C 249.743 -2.20454 4.77793 0
M  V30 2529 O 248.769 -1.8029 5.39893 0
M  V30 2530 N 249.971 -3.52831 4.60967 0
M  V30 2531 H 252.736 0.205749 2.98993 0
M  V30 2532 H 250.297 0.255867 1.59865 0
M  V30 2533 H 252.289 -2.30276 3.32799 0
M  V30 2534 H 250.859 -2.14061 2.27809 0
M  V30 2535 H 250.079 -0.284736 3.9317 0
M  V30 2536 H 251.367 -0.832173 5.01949 0
M  V30 2537 H 250.765 -3.88201 4.11481 0
M  V30 2538 H 249.322 -4.18551 4.99658 0
M  V30 2539 N 252.755 -1.56801 0.158532 0
M  V30 2540 C 253.687 -2.14488 -0.807923 0
M  V30 2541 C 254.7 -1.09721 -1.20271 0
M  V30 2542 O 255.889 -1.36956 -1.14478 0
M  V30 2543 C 252.989 -2.66217 -2.09718 0
M  V30 2544 C 252.162 -3.95507 -1.86796 0
M  V30 2545 C 251.221 -4.3243 -2.99818 0
M  V30 2546 O 250.247 -5.00543 -2.71008 0
M  V30 2547 N 251.449 -3.92947 -4.27285 0
M  V30 2548 H 254.214 -2.98042 -0.314816 0
M  V30 2549 H 251.775 -1.61881 -0.0246692 0
M  V30 2550 H 253.767 -2.87924 -2.84398 0
M  V30 2551 H 252.337 -1.87324 -2.50257 0
M  V30 2552 H 251.557 -3.82309 -0.96089 0
M  V30 2553 H 252.845 -4.79972 -1.68833 0
M  V30 2554 H 252.243 -3.38087 -4.53557 0
M  V30 2555 H 250.8 -4.19681 -4.9871 0
M  V30 2556 N 254.233 0.115231 -1.57178 0
M  V30 2557 C 255.196 1.12526 -1.99676 0
M  V30 2558 C 256.196 1.34095 -0.88742 0
M  V30 2559 O 257.386 1.30548 -1.15337 0
M  V30 2560 C 254.518 2.4789 -2.34015 0
M  V30 2561 H 255.711 0.759912 -2.90113 0
M  V30 2562 H 253.264 0.359648 -1.52106 0
M  V30 2563 H 253.999 2.89339 -1.4647 0
M  V30 2564 H 253.784 2.33588 -3.14927 0
M  V30 2565 H 255.274 3.20575 -2.67622 0
M  V30 2566 N 255.711 1.52812 0.385517 0
M  V30 2567 C 256.957 1.68275 1.13188 0
M  V30 2568 C 257.29 0.423179 1.89533 0
M  V30 2569 O 256.565 -0.579113 1.85679 0
M  V30 2570 C 256.848 2.92001 2.1073 0
M  V30 2571 C 256.701 4.28067 1.38125 0
M  V30 2572 C 258.02 3.11283 3.11113 0
M  V30 2573 H 255.139 0.612352 0.410115 0
M  V30 2574 H 257.781 1.85415 0.414869 0
M  V30 2575 H 255.931 2.77519 2.71874 0
M  V30 2576 H 257.603 4.54324 0.799187 0
M  V30 2577 H 255.846 4.28388 0.683092 0
M  V30 2578 H 256.517 5.10733 2.09417 0
M  V30 2579 H 258.993 3.2482 2.6006 0
M  V30 2580 H 257.869 3.99325 3.76605 0
M  V30 2581 H 258.13 2.25656 3.80173 0
M  V30 2582 N 257.189 -0.644168 1.43834 0
M  V30 2583 C 258.152 -1.73857 1.49353 0
M  V30 2584 C 259.152 -1.56315 0.377112 0
M  V30 2585 O 260.342 -1.62048 0.639226 0
M  V30 2586 C 257.474 -3.12819 1.35488 0
M  V30 2587 H 258.667 -1.70342 2.46827 0
M  V30 2588 H 256.22 -0.856652 1.30733 0
M  V30 2589 H 256.955 -3.2194 0.390569 0
M  V30 2590 H 256.74 -3.26958 2.16428 0
M  V30 2591 H 258.23 -3.92606 1.42302 0
M  V30 2592 N 258.668 -1.30515 -0.883378 0
M  V30 2593 C 259.631 -1.1701 -1.97082 0
M  V30 2594 C 260.631 -0.10089 -1.60483 0
M  V30 2595 O 261.821 -0.349127 -1.70666 0
M  V30 2596 C 258.953 -0.793045 -3.31547 0
M  V30 2597 H 260.146 -2.13622 -2.10489 0
M  V30 2598 H 257.699 -1.13935 -1.06998 0
M  V30 2599 H 258.434 0.172499 -3.23841 0
M  V30 2600 H 258.219 -1.56576 -3.5948 0
M  V30 2601 H 259.709 -0.722073 -4.1131 0
M  V30 2602 N 260.146 1.09593 -1.13257 0
M  V30 2603 C 261.096 2.14345 -0.777179 0
M  V30 2604 C 262.08 1.59277 0.227966 0
M  V30 2605 O 263.272 1.76971 0.0321413 0
M  V30 2606 C 260.401 3.42439 -0.242991 0
M  V30 2607 C 259.487 4.04419 -1.27694 0
M  V30 2608 N 259.878 4.40979 -2.47732 0
M  V30 2609 C 258.176 4.31596 -1.12432 0
M  V30 2610 C 258.877 4.89784 -3.13826 0
M  V30 2611 N 257.853 4.87133 -2.41252 0
M  V30 2612 H 261.655 2.40415 -1.69049 0
M  V30 2613 H 259.169 1.26803 -1.01463 0
M  V30 2614 H 261.166 4.16889 0.0298496 0
M  V30 2615 H 259.826 3.17824 0.66467 0
M  V30 2616 H 260.837 4.32396 -2.85051 0
M  V30 2617 H 257.514 4.16595 -0.274684 0
M  V30 2618 H 258.904 5.2755 -4.16102 0
M  V30 2619 N 261.624 0.925811 1.2754 0
M  V30 2620 C 262.571 0.422045 2.26908 0
M  V30 2621 C 263.541 -0.510029 1.58076 0
M  V30 2622 O 264.726 -0.429599 1.85901 0
M  V30 2623 C 261.866 -0.320837 3.43605 0
M  V30 2624 C 260.979 0.64513 4.27156 0
M  V30 2625 C 260.114 -0.117405 5.3107 0
M  V30 2626 C 259.153 0.841391 6.0629 0
M  V30 2627 N 258.29 0.111604 7.02011 0
M  V30 2628 H 263.13 1.27441 2.69375 0
M  V30 2629 H 260.667 0.639697 1.32462 0
M  V30 2630 H 262.625 -0.76785 4.10073 0
M  V30 2631 H 261.255 -1.13745 3.02096 0
M  V30 2632 H 260.307 1.21067 3.6062 0
M  V30 2633 H 261.619 1.37797 4.79389 0
M  V30 2634 H 260.773 -0.624422 6.03478 0
M  V30 2635 H 259.512 -0.883219 4.79636 0
M  V30 2636 H 258.517 1.35967 5.32722 0
M  V30 2637 H 259.742 1.60696 6.59813 0
M  V30 2638 H 257.688 -0.635999 6.5291 0
M  V30 2639 H 257.605 0.784044 7.51923 0
M  V30 2640 H 258.873 -0.374823 7.78598 0
M  V30 2641 N 263.102 -1.41638 0.69111 0
M  V30 2642 C 264.349 -2.01299 0.220193 0
M  V30 2643 C 264.677 -1.54715 -1.17871 0
M  V30 2644 O 263.932 -0.747193 -1.80874 0
M  V30 2645 C 264.231 -3.56714 0.221277 0
M  V30 2646 C 263.897 -4.22792 1.56709 0
M  V30 2647 C 262.559 -4.40557 1.93554 0
M  V30 2648 C 264.911 -4.59883 2.45268 0
M  V30 2649 C 262.239 -4.92688 3.18552 0
M  V30 2650 C 264.591 -5.13403 3.69595 0
M  V30 2651 C 263.255 -5.29379 4.06589 0
M  V30 2652 H 262.525 -0.736606 0.0805743 0
M  V30 2653 H 265.172 -1.69598 0.889319 0
M  V30 2654 H 263.477 -3.8818 -0.531391 0
M  V30 2655 H 265.174 -4.00678 -0.160547 0
M  V30 2656 H 261.764 -4.09336 1.2705 0
M  V30 2657 H 265.948 -4.45817 2.18084 0
M  V30 2658 H 261.204 -5.03242 3.47214 0
M  V30 2659 H 265.378 -5.41084 4.38407 0
M  V30 2660 H 263.005 -5.69537 5.03519 0
M  V30 2661 N 264.58 -0.43555 -1.51462 0
M  V30 2662 C 265.528 0.391205 -2.29287 0
M  V30 2663 C 266.522 1.02247 -1.35062 0
M  V30 2664 O 267.728 0.957646 -1.52411 0
M  V30 2665 H 264.103 0.144968 -0.737895 0
M  V30 2666 H 266.074 -0.286051 -2.97026 0
M  V30 2667 C 264.823 1.48096 -3.14583 0
M  V30 2668 H 264.146 1.00457 -3.86973 0
M  V30 2669 H 265.586 2.03273 -3.72097 0
M  V30 2670 C 264.045 2.46321 -2.29843 0
M  V30 2671 O 264.575 3.50815 -1.95682 0
M  V30 2672 N 262.781 2.17166 -1.931 0
M  V30 2673 H 262.328 1.32218 -2.21079 0
M  V30 2674 H 262.286 2.83127 -1.36698 0
M  V30 2675 N 266.058 1.56714 -0.166846 0
M  V30 2676 C 267.304 1.97039 0.479962 0
M  V30 2677 C 267.637 1.05264 1.63197 0
M  V30 2678 O 266.912 0.0988833 1.94248 0
M  V30 2679 C 267.195 3.46867 0.967212 0
M  V30 2680 C 267.048 4.49421 -0.18466 0
M  V30 2681 C 268.367 3.9968 1.84238 0
M  V30 2682 H 265.486 0.71641 0.172992 0
M  V30 2683 H 268.128 1.8832 -0.252079 0
M  V30 2684 H 266.278 3.54428 1.59101 0
M  V30 2685 H 267.95 4.53924 -0.821621 0
M  V30 2686 H 266.193 4.25573 -0.840837 0
M  V30 2687 H 266.864 5.51644 0.198317 0
M  V30 2688 H 269.34 3.94723 1.31655 0
M  V30 2689 H 268.216 5.04941 2.15234 0
M  V30 2690 H 268.477 3.43226 2.78654 0
M  V30 2691 N 267.536 -0.106894 1.57237 0
M  V30 2692 C 268.466 -1.13148 2.04254 0
M  V30 2693 C 269.447 -1.42476 0.929224 0
M  V30 2694 O 270.632 -1.52709 1.19973 0
M  V30 2695 C 267.762 -2.4545 2.45706 0
M  V30 2696 C 266.716 -2.30558 3.60592 0
M  V30 2697 C 266.042 -3.67931 3.87983 0
M  V30 2698 C 267.342 -1.75597 4.91897 0
M  V30 2699 H 269.036 -0.740374 2.90101 0
M  V30 2700 H 266.582 -0.354696 1.39563 0
M  V30 2701 H 268.535 -3.17389 2.77205 0
M  V30 2702 H 267.259 -2.86475 1.56843 0
M  V30 2703 H 265.918 -1.61067 3.29322 0
M  V30 2704 H 265.566 -4.06462 2.96306 0
M  V30 2705 H 265.266 -3.58817 4.65322 0
M  V30 2706 H 266.79 -4.41356 4.21945 0
M  V30 2707 H 268.204 -2.37364 5.21854 0
M  V30 2708 H 266.601 -1.77272 5.73319 0
M  V30 2709 H 267.671 -0.714451 4.79608 0
M  V30 2710 N 269.014 -1.53014 -0.377408 0
M  V30 2711 C 269.977 -1.77957 -1.44444 0
M  V30 2712 C 270.977 -0.649763 -1.47087 0
M  V30 2713 O 272.167 -0.917897 -1.48055 0
M  V30 2714 C 269.299 -1.89089 -2.83651 0
M  V30 2715 H 270.492 -2.73243 -1.23606 0
M  V30 2716 H 268.045 -1.43912 -0.609844 0
M  V30 2717 H 268.78 -0.958293 -3.09818 0
M  V30 2718 H 268.565 -2.71254 -2.83132 0
M  V30 2719 H 270.055 -2.1002 -3.60945 0
M  V30 2720 N 270.492 0.636531 -1.44174 0
M  V30 2721 C 271.717 1.42847 -1.50364 0
M  V30 2722 C 272.142 1.87665 -0.127867 0
M  V30 2723 O 271.5 1.58408 0.88185 0
M  V30 2724 C 271.548 2.62854 -2.4686 0
M  V30 2725 O 270.652 3.62501 -1.9664 0
M  V30 2726 H 269.993 0.427642 -0.507955 0
M  V30 2727 H 272.523 0.777422 -1.89255 0
M  V30 2728 H 272.533 3.10465 -2.64718 0
M  V30 2729 H 271.208 2.29578 -3.46795 0
M  V30 2730 H 269.785 3.21735 -1.88523 0
M  V30 2731 N 271.97 1.30982 0.876444 0
M  V30 2732 C 272.902 1.13902 1.98894 0
M  V30 2733 C 273.915 0.0798815 1.62604 0
M  V30 2734 O 275.104 0.326743 1.75484 0
M  V30 2735 C 272.204 0.716699 3.31235 0
M  V30 2736 C 271.377 1.85945 3.95908 0
M  V30 2737 C 270.436 1.42426 5.06558 0
M  V30 2738 O 269.462 2.13287 5.27729 0
M  V30 2739 N 270.664 0.308025 5.79682 0
M  V30 2740 H 273.429 2.09724 2.14094 0
M  V30 2741 H 270.99 1.2323 1.05004 0
M  V30 2742 H 272.982 0.408403 4.02634 0
M  V30 2743 H 271.552 -0.149719 3.12241 0
M  V30 2744 H 270.772 2.33541 3.17573 0
M  V30 2745 H 272.06 2.62503 4.35855 0
M  V30 2746 H 271.458 -0.282241 5.64995 0
M  V30 2747 H 270.015 0.0592282 6.51773 0
M  V30 2748 N 273.449 -1.08991 1.13837 0
M  V30 2749 C 274.86 -1.62746 0.914917 0
M  V30 2750 C 275.211 -1.88403 -0.547594 0
M  V30 2751 O 274.336 -1.63706 -1.41525 0
M  V30 2752 C 274.931 -2.95662 1.65437 0
M  V30 2753 C 273.49 -3.46225 1.47666 0
M  V30 2754 C 272.637 -2.20562 1.6807 0
M  V30 2755 H 275.588 -0.922946 1.29102 0
M  V30 2756 H 275.609 -3.63825 1.11407 0
M  V30 2757 H 275.121 -2.76956 2.71877 0
M  V30 2758 H 273.222 -3.70046 0.435478 0
M  V30 2759 H 273.335 -4.23368 2.24268 0
M  V30 2760 H 271.699 -2.29439 1.10589 0
M  V30 2761 H 272.482 -2.0437 2.7584 0
M  V30 2762 N 274.927 -0.932562 -1.27047 0
M  V30 2763 C 275.89 -0.440064 -2.24936 0
M  V30 2764 C 276.89 0.444071 -1.54547 0
M  V30 2765 O 278.08 0.244465 -1.72476 0
M  V30 2766 C 275.212 0.36678 -3.38921 0
M  V30 2767 H 276.405 -1.305 -2.70018 0
M  V30 2768 H 273.958 -0.713707 -1.39054 0
M  V30 2769 H 274.693 1.25033 -2.99228 0
M  V30 2770 H 274.478 -0.267204 -3.91188 0
M  V30 2771 H 275.968 0.701567 -4.11665 0
M  V30 2772 N 276.405 1.4127 -0.698611 0
M  V30 2773 C 277.682 1.94955 -0.158762 0
M  V30 2774 C 278.062 1.63781 1.33188 0
M  V30 2775 O 277.41 0.946423 2.07979 0
M  V30 2776 C 277.62 3.46044 -0.453309 0
M  V30 2777 C 278.968 4.22872 -0.382707 0
M  V30 2778 O 279.992 3.54076 -0.388396 0
M  V30 2779 O 278.851 5.45407 -0.345463 0
M  V30 2780 H 275.945 0.82683 -0.0167505 0
M  V30 2781 H 278.491 1.50971 -0.77498 0
M  V30 2782 H 277.263 3.62028 -1.48498 0
M  V30 2783 H 276.886 3.97128 0.19373 0
M  V30 2784 N 277.883 0.443576 1.51229 0
M  V30 2785 C 279.13 -0.120796 2.02139 0
M  V30 2786 C 279.458 -1.42166 1.32736 0
M  V30 2787 O 278.713 -1.90849 0.43301 0
M  V30 2788 C 279.012 -0.380579 3.55368 0
M  V30 2789 C 278.678 0.83523 4.43097 0
M  V30 2790 C 277.34 1.16864 4.66794 0
M  V30 2791 C 279.692 1.64601 4.94526 0
M  V30 2792 C 277.02 2.31339 5.39165 0
M  V30 2793 C 279.372 2.78181 5.68153 0
M  V30 2794 C 278.036 3.11969 5.90112 0
M  V30 2795 H 277.306 -0.0442023 0.73968 0
M  V30 2796 H 279.953 0.592046 1.82118 0
M  V30 2797 H 278.258 -1.17538 3.73754 0
M  V30 2798 H 279.955 -0.830777 3.923 0
M  V30 2799 H 276.545 0.565437 4.24854 0
M  V30 2800 H 280.729 1.40163 4.76097 0
M  V30 2801 H 275.985 2.57823 5.5438 0
M  V30 2802 H 280.159 3.41371 6.06992 0
M  V30 2803 H 277.786 4.00784 6.45969 0
M  V30 2804 N 279.361 -1.56624 0.175154 0
M  V30 2805 C 280.638 -1.88688 -0.515373 0
M  V30 2806 C 281.018 -1.08564 -1.81044 0
M  V30 2807 O 280.366 -0.180703 -2.27784 0
M  V30 2808 C 280.576 -3.40768 -0.753552 0
M  V30 2809 C 281.924 -4.10587 -1.08184 0
M  V30 2810 O 282.948 -3.46106 -0.841961 0
M  V30 2811 O 281.807 -5.24512 -1.53459 0
M  V30 2812 H 278.901 -0.78301 -0.26613 0
M  V30 2813 H 281.447 -1.68347 0.213877 0
M  V30 2814 H 280.219 -3.90965 0.161829 0
M  V30 2815 H 279.842 -3.66733 -1.53598 0
M  V30 2816 N 280.839 0.0985539 -1.57292 0
M  V30 2817 C 282.255 0.45267 -1.53046 0
M  V30 2818 C 282.455 1.80713 -0.891342 0
M  V30 2819 O 281.511 2.4785 -0.482375 0
M  V30 2820 C 282.824 0.418341 -2.97776 0
M  V30 2821 C 284.372 0.500443 -3.08973 0
M  V30 2822 C 284.847 0.496297 -4.55303 0
M  V30 2823 N 286.338 0.557151 -4.59837 0
M  V30 2824 C 287.073 0.575726 -5.70502 0
M  V30 2825 N 286.569 0.550714 -6.90608 0
M  V30 2826 N 288.362 0.620277 -5.58667 0
M  V30 2827 H 280.513 -0.788673 -1.97215 0
M  V30 2828 H 282.776 -0.293188 -0.901524 0
M  V30 2829 H 282.482 -0.509659 -3.47988 0
M  V30 2830 H 282.356 1.2386 -3.56284 0
M  V30 2831 H 284.743 1.41886 -2.58751 0
M  V30 2832 H 284.824 -0.347894 -2.53423 0
M  V30 2833 H 284.468 -0.418162 -5.06176 0
M  V30 2834 H 284.398 1.3618 -5.08687 0
M  V30 2835 H 286.889 0.581816 -3.73394 0
M  V30 2836 H 287.202 0.568075 -7.70709 0
M  V30 2837 H 285.547 0.517816 -6.93068 0
M  V30 2838 H 288.738 0.637322 -4.63741 0
M  V30 2839 H 288.911 0.631283 -6.44918 0
M  V30 2840 N 282.317 1.53212 0.369288 0
M  V30 2841 C 283.566 1.68436 1.10961 0
M  V30 2842 C 283.879 0.440738 1.9057 0
M  V30 2843 O 285.085 0.473446 2.6734 0
M  V30 2844 C 283.541 2.97744 2.0218 0
M  V30 2845 C 283.149 4.29355 1.279 0
M  V30 2846 C 284.893 3.22334 2.76226 0
M  V30 2847 C 282.8 5.49755 2.17999 0
M  V30 2848 H 281.73 0.627568 0.41794 0
M  V30 2849 H 284.381 1.79713 0.370884 0
M  V30 2850 H 282.763 2.8026 2.79768 0
M  V30 2851 H 283.937 4.57458 0.554007 0
M  V30 2852 H 282.252 4.11179 0.657311 0
M  V30 2853 H 284.849 4.09471 3.43857 0
M  V30 2854 H 285.192 2.38238 3.41392 0
M  V30 2855 H 285.725 3.40475 2.05723 0
M  V30 2856 H 282.464 6.36318 1.57417 0
M  V30 2857 H 281.984 5.25937 2.88359 0
M  V30 2858 H 283.663 5.84401 2.77641 0
M  V30 2859 N 283.795 -0.628877 1.44509 0
M  V30 2860 C 284.742 -1.74074 1.51549 0
M  V30 2861 C 285.712 -1.62084 0.363021 0
M  V30 2862 O 286.897 -1.81975 0.573567 0
M  V30 2863 C 284.037 -3.12328 1.46784 0
M  V30 2864 C 283.15 -3.35277 2.72422 0
M  V30 2865 C 282.285 -4.63515 2.59475 0
M  V30 2866 C 281.324 -4.7965 3.80266 0
M  V30 2867 N 280.461 -5.99168 3.65981 0
M  V30 2868 H 285.301 -1.67392 2.46544 0
M  V30 2869 H 282.838 -0.816527 1.22357 0
M  V30 2870 H 284.796 -3.92286 1.42012 0
M  V30 2871 H 283.426 -3.18018 0.553544 0
M  V30 2872 H 282.478 -2.49242 2.87372 0
M  V30 2873 H 283.79 -3.43078 3.62076 0
M  V30 2874 H 282.944 -5.51638 2.52548 0
M  V30 2875 H 281.683 -4.58076 1.67384 0
M  V30 2876 H 280.688 -3.89957 3.87574 0
M  V30 2877 H 281.913 -4.86902 4.73395 0
M  V30 2878 H 279.859 -5.94814 2.76644 0
M  V30 2879 H 279.776 -6.08035 4.49254 0
M  V30 2880 H 281.044 -6.89846 3.6295 0
M  V30 2881 N 285.273 -1.31445 -0.869486 0
M  V30 2882 C 286.521 -1.20918 -1.61936 0
M  V30 2883 C 286.842 0.232683 -1.93607 0
M  V30 2884 O 286.112 1.15352 -1.58338 0
M  V30 2885 H 284.692 -0.44454 -0.600328 0
M  V30 2886 H 287.354 -1.64776 -1.0409 0
M  V30 2887 H 286.45 -1.78124 -2.56278 0
M  V30 2888 N 286.751 1.08385 -1.14413 0
M  V30 2889 C 287.681 2.17321 -0.854044 0
M  V30 2890 C 288.662 1.69024 0.191049 0
M  V30 2891 O 289.847 1.94141 0.0476779 0
M  V30 2892 C 286.977 3.45719 -0.330983 0
M  V30 2893 C 285.931 4.07409 -1.31155 0
M  V30 2894 C 285.257 5.30762 -0.64778 0
M  V30 2895 C 286.557 4.48665 -2.67388 0
M  V30 2896 H 288.251 2.41845 -1.76498 0
M  V30 2897 H 285.797 1.16233 -0.850051 0
M  V30 2898 H 287.75 4.21241 -0.115645 0
M  V30 2899 H 286.474 3.2075 0.615381 0
M  V30 2900 H 285.133 3.33919 -1.51306 0
M  V30 2901 H 284.781 5.02078 0.304398 0
M  V30 2902 H 284.481 5.72992 -1.30207 0
M  V30 2903 H 286.005 6.08998 -0.441972 0
M  V30 2904 H 287.419 5.15364 -2.51143 0
M  V30 2905 H 285.816 5.01814 -3.29093 0
M  V30 2906 H 286.886 3.60543 -3.24248 0
M  V30 2907 N 288.23 0.939286 1.26551 0
M  V30 2908 C 289.178 0.43815 2.28436 0
M  V30 2909 C 290.172 -0.483587 1.62351 0
M  V30 2910 O 291.378 -0.362009 1.76322 0
M  V30 2911 H 287.753 0.123149 0.741848 0
M  V30 2912 H 289.724 1.31002 2.68106 0
M  V30 2913 C 288.473 -0.283052 3.46546 0
M  V30 2914 H 287.796 0.417043 3.97619 0
M  V30 2915 H 289.236 -0.597948 4.19763 0
M  V30 2916 C 287.695 -1.50018 3.01656 0
M  V30 2917 O 288.225 -2.59855 3.0633 0
M  V30 2918 N 286.431 -1.35608 2.57019 0
M  V30 2919 H 285.978 -0.46244 2.53415 0
M  V30 2920 H 285.936 -2.17165 2.27347 0
M  V30 2921 N 289.708 -1.40897 0.706093 0
M  V30 2922 C 290.954 -2.01352 0.241889 0
M  V30 2923 C 291.287 -1.55832 -1.15888 0
M  V30 2924 O 290.562 -0.774145 -1.7843 0
M  V30 2925 C 290.845 -3.58752 0.311311 0
M  V30 2926 C 290.698 -4.1437 1.74978 0
M  V30 2927 C 292.017 -4.38914 -0.322922 0
M  V30 2928 H 289.136 -0.731562 0.0893687 0
M  V30 2929 H 291.778 -1.67504 0.896802 0
M  V30 2930 H 289.928 -3.87718 -0.246302 0
M  V30 2931 H 291.6 -3.96239 2.36205 0
M  V30 2932 H 289.843 -3.69016 2.28057 0
M  V30 2933 H 290.514 -5.23532 1.74981 0
M  V30 2934 H 292.99 -4.15822 0.152089 0
M  V30 2935 H 291.866 -5.48358 -0.243855 0
M  V30 2936 H 292.127 -4.19176 -1.40513 0
M  V30 2937 N 291.186 -0.45159 -1.50991 0
M  V30 2938 C 292.119 0.398179 -2.24699 0
M  V30 2939 C 293.097 1.01276 -1.27208 0
M  V30 2940 O 294.281 1.05247 -1.56382 0
M  V30 2941 C 291.408 1.55618 -3.00833 0
M  V30 2942 C 290.454 1.0609 -4.13095 0
M  V30 2943 S 291.287 -0.00865136 -5.35499 0
M  V30 2944 C 292.443 1.15369 -6.15175 0
M  V30 2945 H 292.676 -0.227555 -2.96428 0
M  V30 2946 H 290.209 -0.236251 -1.52582 0
M  V30 2947 H 292.167 2.21997 -3.45293 0
M  V30 2948 H 290.828 2.15337 -2.28667 0
M  V30 2949 H 290.021 1.92726 -4.65696 0
M  V30 2950 H 289.623 0.47513 -3.7097 0
M  V30 2951 H 291.915 2.06925 -6.45126 0
M  V30 2952 H 292.858 0.667344 -7.04948 0
M  V30 2953 H 293.266 1.3987 -5.46897 0
M  V30 2954 N 292.664 1.56529 -0.183458 0
M  V30 2955 C 293.596 2.15747 0.773697 0
M  V30 2956 C 294.609 1.1162 1.1851 0
M  V30 2957 O 295.798 1.3876 1.12285 0
M  V30 2958 C 292.898 2.6952 2.05456 0
M  V30 2959 C 292.071 3.98429 1.8048 0
M  V30 2960 C 291.13 4.37145 2.92901 0
M  V30 2961 O 290.156 5.04791 2.6301 0
M  V30 2962 N 291.358 3.99695 4.2098 0
M  V30 2963 H 294.123 2.98505 0.26736 0
M  V30 2964 H 291.684 1.619 -0.0010878 0
M  V30 2965 H 293.676 2.92412 2.79781 0
M  V30 2966 H 292.246 1.91282 2.47245 0
M  V30 2967 H 291.466 3.8379 0.899947 0
M  V30 2968 H 292.754 4.82597 1.61175 0
M  V30 2969 H 292.152 3.4526 4.48121 0
M  V30 2970 H 290.709 4.27562 4.9197 0
M  V30 2971 N 294.142 -0.090211 1.57342 0
M  V30 2972 C 295.09 -1.12792 2.03422 0
M  V30 2973 C 296.084 -1.41182 0.936166 0
M  V30 2974 O 297.29 -1.40805 1.12133 0
M  V30 2975 H 293.665 -0.380986 0.648347 0
M  V30 2976 H 295.636 -0.71299 2.89757 0
M  V30 2977 C 294.385 -2.43855 2.47851 0
M  V30 2978 H 293.708 -2.22855 3.31927 0
M  V30 2979 H 295.148 -3.14955 2.83865 0
M  V30 2980 C 293.607 -3.08503 1.3538 0
M  V30 2981 O 294.137 -3.95805 0.685641 0
M  V30 2982 N 292.343 -2.68831 1.10355 0
M  V30 2983 H 291.89 -1.97929 1.64869 0
M  V30 2984 H 291.848 -3.12412 0.353031 0
M  V30 2985 N 295.62 -1.53406 -0.361157 0
M  V30 2986 C 296.55 -1.83136 -1.44857 0
M  V30 2987 C 297.531 -0.685174 -1.5569 0
M  V30 2988 O 298.716 -0.93544 -1.70186 0
M  V30 2989 C 295.846 -2.02522 -2.82138 0
M  V30 2990 C 294.8 -3.18302 -2.86126 0
M  V30 2991 C 294.126 -3.22989 -4.26125 0
M  V30 2992 C 295.426 -4.56796 -2.53248 0
M  V30 2993 H 297.12 -2.74201 -1.20226 0
M  V30 2994 H 294.666 -1.31938 -0.576922 0
M  V30 2995 H 296.619 -2.21904 -3.58241 0
M  V30 2996 H 295.343 -1.08172 -3.08166 0
M  V30 2997 H 294.002 -2.98747 -2.12475 0
M  V30 2998 H 293.65 -2.26267 -4.49235 0
M  V30 2999 H 293.35 -4.00781 -4.29708 0
M  V30 3000 H 294.874 -3.44559 -5.04094 0
M  V30 3001 H 296.288 -4.7631 -3.19064 0
M  V30 3002 H 294.685 -5.36862 -2.68141 0
M  V30 3003 H 295.755 -4.61606 -1.48484 0
M  V30 3004 N 297.098 0.621204 -1.44841 0
M  V30 3005 C 298.028 1.74366 -1.55303 0
M  V30 3006 C 299.009 1.65199 -0.405385 0
M  V30 3007 O 300.194 1.83807 -0.626787 0
M  V30 3008 C 297.324 3.12931 -1.50637 0
M  V30 3009 C 296.278 3.36896 -2.63979 0
M  V30 3010 C 295.604 4.75594 -2.44366 0
M  V30 3011 C 296.904 3.28483 -4.06074 0
M  V30 3012 H 298.598 1.65867 -2.49256 0
M  V30 3013 H 296.144 0.796558 -1.19962 0
M  V30 3014 H 298.097 3.9124 -1.56555 0
M  V30 3015 H 296.821 3.22237 -0.532057 0
M  V30 3016 H 295.48 2.60972 -2.57467 0
M  V30 3017 H 295.128 4.81616 -1.45105 0
M  V30 3018 H 294.828 4.92586 -3.20364 0
M  V30 3019 H 296.352 5.5612 -2.52117 0
M  V30 3020 H 297.766 3.96684 -4.13902 0
M  V30 3021 H 296.163 3.57008 -4.82354 0
M  V30 3022 H 297.233 2.26133 -4.28943 0
M  V30 3023 N 298.576 1.31904 0.862503 0
M  V30 3024 C 299.804 1.24998 1.64873 0
M  V30 3025 C 300.219 -0.183425 1.87907 0
M  V30 3026 O 299.576 -1.11794 1.44251 0
M  V30 3027 C 299.627 1.99829 3.01248 0
M  V30 3028 O 299.348 3.37575 2.79239 0
M  V30 3029 C 300.849 1.99852 3.95694 0
M  V30 3030 H 298.069 0.431599 0.513773 0
M  V30 3031 H 300.613 1.73901 1.07604 0
M  V30 3032 H 298.768 1.54668 3.55185 0
M  V30 3033 H 299.182 3.75776 3.65914 0
M  V30 3034 H 300.656 2.56709 4.88676 0
M  V30 3035 H 301.133 0.982852 4.28062 0
M  V30 3036 H 301.739 2.44926 3.47694 0
M  V30 3037 N 300.054 -1.07777 1.14986 0
M  V30 3038 C 301.017 -2.13041 0.845358 0
M  V30 3039 C 302.017 -1.60071 -0.152931 0
M  V30 3040 O 303.207 -1.74033 0.0761879 0
M  V30 3041 C 300.339 -3.39896 0.261383 0
M  V30 3042 H 301.532 -2.41485 1.77834 0
M  V30 3043 H 299.085 -1.23595 0.956757 0
M  V30 3044 H 299.82 -3.17091 -0.68 0
M  V30 3045 H 299.605 -3.79642 0.980514 0
M  V30 3046 H 301.095 -4.17548 0.0657687 0
M  V30 3047 N 301.532 -0.945985 -1.26051 0
M  V30 3048 C 302.482 -0.430164 -2.23905 0
M  V30 3049 C 303.466 0.47579 -1.53704 0
M  V30 3050 O 304.658 0.310252 -1.7426 0
M  V30 3051 C 301.787 0.298957 -3.41996 0
M  V30 3052 C 300.873 -0.624566 -4.19476 0
M  V30 3053 N 301.264 -1.75245 -4.74471 0
M  V30 3054 C 299.562 -0.431082 -4.43912 0
M  V30 3055 C 300.263 -2.32834 -5.3307 0
M  V30 3056 N 299.239 -1.61583 -5.1903 0
M  V30 3057 H 303.041 -1.29107 -2.64024 0
M  V30 3058 H 300.555 -0.802428 -1.41191 0
M  V30 3059 H 302.552 0.685565 -4.11225 0
M  V30 3060 H 301.212 1.15657 -3.03403 0
M  V30 3061 H 302.223 -2.13449 -4.71868 0
M  V30 3062 H 298.9 0.384364 -4.15727 0
M  V30 3063 H 300.29 -3.27893 -5.86461 0
M  V30 3064 N 303.011 1.40521 -0.713556 0
M  V30 3065 C 304.422 1.83853 -0.324807 0
M  V30 3066 C 304.773 1.59667 1.14021 0
M  V30 3067 O 303.898 1.07649 1.87725 0
M  V30 3068 C 304.493 3.33751 -0.582746 0
M  V30 3069 C 303.052 3.75584 -0.247727 0
M  V30 3070 C 302.199 2.63753 -0.856121 0
M  V30 3071 H 305.15 1.29817 -0.91286 0
M  V30 3072 H 305.171 3.80194 0.152682 0
M  V30 3073 H 304.683 3.51322 -1.64908 0
M  V30 3074 H 302.784 3.63608 0.813624 0
M  V30 3075 H 302.897 4.7373 -0.715307 0
M  V30 3076 H 301.261 2.53108 -0.28432 0
M  V30 3077 H 302.044 2.84137 -1.92668 0
M  V30 3078 N 304.489 0.459591 1.5075 0
M  V30 3079 C 305.766 -0.160371 1.94941 0
M  V30 3080 C 306.146 -1.58048 1.39943 0
M  V30 3081 O 305.494 -2.206 0.595629 0
M  V30 3082 C 305.704 -0.115432 3.48809 0
M  V30 3083 C 307.052 -0.310026 4.23467 0
M  V30 3084 O 308.076 -0.192543 3.55679 0
M  V30 3085 O 306.935 -0.546031 5.43765 0
M  V30 3086 H 304.029 -0.117925 0.818549 0
M  V30 3087 H 306.575 0.519169 1.61563 0
M  V30 3088 H 305.347 0.87652 3.81357 0
M  V30 3089 H 304.97 -0.836928 3.88692 0
M  V30 3090 N 305.967 -1.56429 0.191757 0
M  V30 3091 C 307.213 -1.97777 -0.448554 0
M  V30 3092 C 307.546 -1.07847 -1.61501 0
M  V30 3093 O 306.821 -0.129774 -1.94067 0
M  V30 3094 C 307.104 -3.48362 -0.911906 0
M  V30 3095 C 306.957 -4.4907 0.256136 0
M  V30 3096 C 308.276 -4.02561 -1.77857 0
M  V30 3097 H 305.395 -0.719071 -0.161572 0
M  V30 3098 H 308.037 -1.87896 0.282007 0
M  V30 3099 H 306.187 -3.56914 -1.53442 0
M  V30 3100 H 307.859 -4.5256 0.893733 0
M  V30 3101 H 306.102 -4.24181 0.908436 0
M  V30 3102 H 306.773 -5.51889 -0.11053 0
M  V30 3103 H 309.249 -3.96767 -1.25359 0
M  V30 3104 H 308.125 -5.08301 -2.07174 0
M  V30 3105 H 308.386 -3.47616 -2.73158 0
M  V30 3106 N 307.445 0.0818655 -1.57387 0
M  V30 3107 C 308.377 1.12484 -1.997 0
M  V30 3108 C 309.39 1.35564 -0.90146 0
M  V30 3109 O 310.579 1.33982 -1.17945 0
M  V30 3110 C 307.679 2.47778 -2.31213 0
M  V30 3111 C 306.852 2.44793 -3.62485 0
M  V30 3112 C 305.911 3.62117 -3.81782 0
M  V30 3113 O 304.937 3.44005 -4.53486 0
M  V30 3114 N 306.139 4.82094 -3.23367 0
M  V30 3115 H 308.904 0.764585 -2.89783 0
M  V30 3116 H 306.465 0.270664 -1.59621 0
M  V30 3117 H 308.457 3.24891 -2.41304 0
M  V30 3118 H 307.027 2.75843 -1.4707 0
M  V30 3119 H 306.247 1.53134 -3.6324 0
M  V30 3120 H 307.535 2.39889 -4.48699 0
M  V30 3121 H 306.933 4.99713 -2.65148 0
M  V30 3122 H 305.49 5.56753 -3.38923 0
M  V30 3123 N 308.923 1.53595 0.353017 0
M  V30 3124 C 309.886 1.80232 1.41594 0
M  V30 3125 C 310.886 0.673081 1.46035 0
M  V30 3126 O 312.076 0.941335 1.46576 0
M  V30 3127 C 309.208 1.93578 2.80607 0
M  V30 3128 H 310.401 2.75174 1.19244 0
M  V30 3129 H 307.954 1.44864 0.586872 0
M  V30 3130 H 308.689 1.00746 3.08254 0
M  V30 3131 H 308.474 2.75724 2.78781 0
M  V30 3132 H 309.964 2.15735 3.57558 0
M  V30 3133 N 310.401 -0.613514 1.45168 0
M  V30 3134 C 311.647 -1.37471 1.49096 0
M  V30 3135 C 311.98 -1.93765 0.129901 0
M  V30 3136 O 311.255 -1.74707 -0.854858 0
M  V30 3137 C 311.538 -2.52701 2.56542 0
M  V30 3138 C 311.391 -2.01643 4.0207 0
M  V30 3139 C 312.71 -3.54849 2.60327 0
M  V30 3140 H 309.829 -0.498502 0.54283 0
M  V30 3141 H 312.471 -0.692125 1.76945 0
M  V30 3142 H 310.621 -3.10931 2.32926 0
M  V30 3143 H 312.293 -1.48108 4.36877 0
M  V30 3144 H 310.536 -1.32688 4.13009 0
M  V30 3145 H 311.207 -2.84681 4.72928 0
M  V30 3146 H 313.683 -3.0645 2.81474 0
M  V30 3147 H 312.559 -4.32973 3.37381 0
M  V30 3148 H 312.82 -4.10079 1.6519 0
M  V30 3149 N 311.879 -1.3236 -0.855495 0
M  V30 3150 C 313.126 -1.22872 -1.60962 0
M  V30 3151 C 313.454 0.209658 -1.93367 0
M  V30 3152 O 312.709 1.16243 -1.57436 0
M  V30 3153 C 313.008 -2.03275 -2.93963 0
M  V30 3154 C 312.674 -3.5264 -2.80991 0
M  V30 3155 C 311.336 -3.93364 -2.7716 0
M  V30 3156 C 313.688 -4.47626 -2.66983 0
M  V30 3157 C 311.016 -5.27319 -2.572 0
M  V30 3158 C 313.368 -5.81723 -2.48558 0
M  V30 3159 C 312.032 -6.2165 -2.4312 0
M  V30 3160 H 311.302 -0.44962 -0.589001 0
M  V30 3161 H 313.949 -1.63777 -0.992442 0
M  V30 3162 H 312.254 -1.55095 -3.59795 0
M  V30 3163 H 313.951 -1.93303 -3.51333 0
M  V30 3164 H 310.541 -3.20295 -2.84797 0
M  V30 3165 H 314.725 -4.17084 -2.68988 0
M  V30 3166 H 309.981 -5.57311 -2.51424 0
M  V30 3167 H 314.155 -6.5494 -2.36699 0
M  V30 3168 H 311.782 -7.25388 -2.27412 0
M  V30 3169 N 313.357 1.07166 -1.15556 0
M  V30 3170 C 314.32 2.12589 -0.856644 0
M  V30 3171 C 315.32 1.6015 0.14444 0
M  V30 3172 O 316.51 1.7399 -0.0854163 0
M  V30 3173 C 313.642 3.39753 -0.279405 0
M  V30 3174 H 314.835 2.40539 -1.79112 0
M  V30 3175 H 312.388 1.23086 -0.963298 0
M  V30 3176 H 313.123 3.17447 0.663174 0
M  V30 3177 H 312.908 3.79117 -1.00063 0
M  V30 3178 H 314.398 4.17507 -0.0879113 0
M  V30 3179 N 314.835 0.952656 1.25548 0
M  V30 3180 C 315.767 0.428609 2.25157 0
M  V30 3181 C 316.78 -0.454428 1.56329 0
M  V30 3182 O 317.969 -0.263023 1.76552 0
M  V30 3183 C 315.069 -0.401972 3.36508 0
M  V30 3184 C 314.242 0.467601 4.34893 0
M  V30 3185 C 313.301 -0.30445 5.25319 0
M  V30 3186 O 312.327 0.296473 5.68427 0
M  V30 3187 N 313.529 -1.59805 5.5807 0
M  V30 3188 H 316.294 1.28497 2.70756 0
M  V30 3189 H 313.855 0.822798 1.39433 0
M  V30 3190 H 315.847 -0.926134 3.9396 0
M  V30 3191 H 314.417 -1.15918 2.90313 0
M  V30 3192 H 313.637 1.17288 3.76347 0
M  V30 3193 H 314.925 1.06119 4.97611 0
M  V30 3194 H 314.323 -2.10823 5.24948 0
M  V30 3195 H 312.88 -2.06822 6.18116 0
M  V30 3196 N 316.313 -1.40141 0.720998 0
M  V30 3197 C 317.261 -2.3252 0.0608547 0
M  V30 3198 C 318.255 -1.52326 -0.741152 0
M  V30 3199 O 319.461 -1.68089 -0.643911 0
M  V30 3200 H 315.836 -0.751999 0.000876664 0
M  V30 3201 H 317.807 -2.8584 0.856614 0
M  V30 3202 C 316.556 -3.37331 -0.842809 0
M  V30 3203 H 315.879 -3.99108 -0.235084 0
M  V30 3204 H 317.319 -4.04452 -1.27257 0
M  V30 3205 C 315.778 -2.73246 -1.97074 0
M  V30 3206 O 316.308 -2.59998 -3.06209 0
M  V30 3207 N 314.514 -2.31547 -1.75597 0
M  V30 3208 H 314.061 -2.42522 -0.868368 0
M  V30 3209 H 314.019 -1.89007 -2.51244 0
M  V30 3210 N 317.792 -0.46758 -1.50504 0
M  V30 3211 C 319.069 0.15003 -1.95024 0
M  V30 3212 C 319.449 1.57304 -1.40779 0
M  V30 3213 O 318.797 2.20281 -0.607319 0
M  V30 3214 C 319.007 0.0969324 -3.48865 0
M  V30 3215 C 320.355 0.287565 -4.23625 0
M  V30 3216 O 321.379 0.173678 -3.55776 0
M  V30 3217 O 320.238 0.517186 -5.44047 0
M  V30 3218 H 317.332 0.113582 -0.819163 0
M  V30 3219 H 319.878 -0.52773 -1.61286 0
M  V30 3220 H 318.65 -0.896732 -3.80886 0
M  V30 3221 H 318.273 0.816303 -3.8913 0
M  V30 3222 N 319.27 1.56325 -0.20005 0
M  V30 3223 C 320.18 2.22931 0.730668 0
M  V30 3224 C 321.196 1.22997 1.23076 0
M  V30 3225 O 322.372 1.55748 1.27689 0
M  V30 3226 C 319.437 2.87948 1.93098 0
M  V30 3227 C 318.498 4.03166 1.47497 0
M  V30 3228 C 317.731 4.65073 2.61807 0
M  V30 3229 O 317.954 4.25913 3.79413 0
M  V30 3230 O 316.888 5.54452 2.34237 0
M  V30 3231 H 320.714 3.03084 0.193391 0
M  V30 3232 H 318.299 1.49371 0.0294621 0
M  V30 3233 H 320.181 3.29063 2.6324 0
M  V30 3234 H 318.856 2.10771 2.45677 0
M  V30 3235 H 317.763 3.66664 0.742201 0
M  V30 3236 H 319.096 4.82022 0.995796 0
M  V30 3237 N 320.748 -0.0735177 1.57428 0
M  V30 3238 C 321.681 -1.11932 1.98863 0
M  V30 3239 C 322.659 -1.37666 0.865266 0
M  V30 3240 O 323.843 -1.51068 1.12742 0
M  V30 3241 C 320.97 -2.46403 2.32386 0
M  V30 3242 C 320.016 -2.36815 3.54713 0
M  V30 3243 S 320.849 -1.76392 5.05614 0
M  V30 3244 C 322.005 -3.12444 5.42337 0
M  V30 3245 H 322.238 -0.766212 2.87257 0
M  V30 3246 H 319.771 -0.281987 1.51803 0
M  V30 3247 H 321.729 -3.23755 2.52375 0
M  V30 3248 H 320.39 -2.78876 1.44524 0
M  V30 3249 H 319.583 -3.35977 3.7568 0
M  V30 3250 H 319.185 -1.67598 3.34345 0
M  V30 3251 H 321.477 -4.08753 5.40303 0
M  V30 3252 H 322.42 -2.96258 6.43146 0
M  V30 3253 H 322.828 -3.1297 4.69798 0
M  V30 3254 N 322.226 -1.5378 -0.344866 0
M  V30 3255 C 323.189 -1.80981 -1.40637 0
M  V30 3256 C 324.189 -0.680816 -1.45676 0
M  V30 3257 O 325.379 -0.949095 -1.46075 0
M  V30 3258 C 322.511 -1.95063 -2.79577 0
M  V30 3259 H 323.704 -2.75803 -1.17783 0
M  V30 3260 H 321.257 -1.45173 -0.579181 0
M  V30 3261 H 321.992 -1.02379 -3.07716 0
M  V30 3262 H 321.777 -2.77198 -2.77315 0
M  V30 3263 H 323.267 -2.17629 -3.56409 0
M  V30 3264 N 323.704 0.605807 -1.45491 0
M  V30 3265 C 324.634 1.72709 -1.57143 0
M  V30 3266 C 325.615 1.6476 -0.422884 0
M  V30 3267 O 326.8 1.83132 -0.646247 0
M  V30 3268 C 323.93 3.11316 -1.53948 0
M  V30 3269 C 322.884 3.34077 -2.67537 0
M  V30 3270 C 322.21 4.72975 -2.49397 0
M  V30 3271 C 323.51 3.24158 -4.09535 0
M  V30 3272 H 325.204 1.63214 -2.51001 0
M  V30 3273 H 322.75 0.78379 -1.208 0
M  V30 3274 H 324.703 3.89557 -1.60696 0
M  V30 3275 H 323.427 3.21655 -0.566205 0
M  V30 3276 H 322.086 2.58227 -2.6022 0
M  V30 3277 H 321.734 4.8005 -1.50205 0
M  V30 3278 H 321.434 4.8916 -3.25571 0
M  V30 3279 H 322.958 5.53414 -2.58002 0
M  V30 3280 H 324.372 3.92271 -4.18086 0
M  V30 3281 H 322.769 3.51872 -4.86113 0
M  V30 3282 H 323.839 2.2157 -4.31317 0
M  V30 3283 N 325.182 1.32811 0.848464 0
M  V30 3284 C 326.43 1.23479 1.59991 0
M  V30 3285 C 326.751 -0.201853 1.93952 0
M  V30 3286 O 326.021 -1.12818 1.60153 0
M  V30 3287 H 324.601 0.454034 0.593179 0
M  V30 3288 H 327.263 1.66412 1.01455 0
M  V30 3289 H 326.359 1.82178 2.53412 0
M  V30 3290 N 326.66 -1.06551 1.16123 0
M  V30 3291 C 327.623 -2.12132 0.867906 0
M  V30 3292 C 328.623 -1.60224 -0.135944 0
M  V30 3293 O 329.813 -1.73943 0.0946422 0
M  V30 3294 C 326.945 -3.396 0.297419 0
M  V30 3295 H 328.138 -2.39586 1.80385 0
M  V30 3296 H 325.691 -1.22574 0.969812 0
M  V30 3297 H 326.426 -3.17794 -0.64633 0
M  V30 3298 H 326.211 -3.78581 1.02073 0
M  V30 3299 H 327.701 -4.17455 0.110052 0
M  V30 3300 N 328.138 -0.959301 -1.25041 0
M  V30 3301 C 329.068 -0.501388 -2.28053 0
M  V30 3302 C 330.049 0.454673 -1.63911 0
M  V30 3303 O 331.234 0.352618 -1.90972 0
M  V30 3304 C 328.364 0.217224 -3.4662 0
M  V30 3305 C 327.318 -0.654034 -4.22973 0
M  V30 3306 C 326.644 0.195589 -5.34342 0
M  V30 3307 C 327.944 -1.93447 -4.85155 0
M  V30 3308 H 329.638 -1.36238 -2.66608 0
M  V30 3309 H 327.184 -0.656534 -1.28163 0
M  V30 3310 H 329.137 0.548732 -4.17812 0
M  V30 3311 H 327.861 1.1125 -3.07068 0
M  V30 3312 H 326.52 -0.968693 -3.5357 0
M  V30 3313 H 326.168 1.09076 -4.91031 0
M  V30 3314 H 325.868 -0.384091 -5.86343 0
M  V30 3315 H 327.392 0.521958 -6.08365 0
M  V30 3316 H 328.806 -1.66908 -5.48466 0
M  V30 3317 H 327.203 -2.46018 -5.47353 0
M  V30 3318 H 328.273 -2.63466 -4.07079 0
M  V30 3319 N 329.616 1.39756 -0.72842 0
M  V30 3320 C 331.032 1.5442 -0.403308 0
M  V30 3321 C 331.232 1.69694 1.08656 0
M  V30 3322 O 330.288 1.69373 1.87267 0
M  V30 3323 C 331.601 2.76555 -1.18058 0
M  V30 3324 C 333.149 2.90384 -1.16815 0
M  V30 3325 C 333.624 4.15449 -1.92785 0
M  V30 3326 N 335.115 4.22475 -1.89918 0
M  V30 3327 C 335.85 5.1818 -2.45514 0
M  V30 3328 N 335.346 6.19714 -3.09719 0
M  V30 3329 N 337.139 5.1035 -2.35584 0
M  V30 3330 H 329.29 1.28089 -1.69431 0
M  V30 3331 H 331.553 0.620327 -0.716867 0
M  V30 3332 H 331.259 2.7159 -2.23455 0
M  V30 3333 H 331.133 3.69033 -0.780662 0
M  V30 3334 H 333.52 2.94846 -0.12234 0
M  V30 3335 H 333.601 1.98988 -1.6074 0
M  V30 3336 H 333.245 4.11749 -2.97364 0
M  V30 3337 H 333.175 5.05877 -1.46272 0
M  V30 3338 H 335.666 3.49743 -1.43138 0
M  V30 3339 H 335.979 6.8919 -3.49625 0
M  V30 3340 H 334.324 6.20121 -3.13807 0
M  V30 3341 H 337.515 4.2996 -1.85072 0
M  V30 3342 H 337.688 5.84761 -2.79211 0
M  V30 3343 N 331.094 0.475555 1.50254 0
M  V30 3344 C 332.057 -0.305016 2.27161 0
M  V30 3345 C 333.057 -0.916519 1.32123 0
M  V30 3346 O 334.247 -0.785003 1.5551 0
M  V30 3347 C 331.379 -1.43496 3.09227 0
M  V30 3348 H 332.572 0.369511 2.97615 0
M  V30 3349 H 330.125 0.229747 1.54602 0
M  V30 3350 H 330.86 -2.14441 2.43281 0
M  V30 3351 H 330.645 -1.00223 3.79075 0
M  V30 3352 H 332.135 -1.98548 3.67381 0
M  V30 3353 N 332.573 -1.56217 0.208337 0
M  V30 3354 C 333.503 -2.22694 -0.702116 0
M  V30 3355 C 334.484 -1.19432 -1.2112 0
M  V30 3356 O 335.669 -1.47978 -1.25762 0
M  V30 3357 C 332.799 -2.8966 -1.9161 0
M  V30 3358 C 331.753 -3.9928 -1.5414 0
M  V30 3359 C 331.079 -4.53476 -2.83308 0
M  V30 3360 C 332.379 -5.17012 -0.741339 0
M  V30 3361 H 334.073 -2.99034 -0.147898 0
M  V30 3362 H 331.619 -1.43831 -0.0696951 0
M  V30 3363 H 333.572 -3.34852 -2.55836 0
M  V30 3364 H 332.296 -2.10746 -2.49507 0
M  V30 3365 H 330.955 -3.54799 -0.922668 0
M  V30 3366 H 330.603 -3.71308 -3.39322 0
M  V30 3367 H 330.303 -5.27451 -2.58976 0
M  V30 3368 H 331.827 -5.01378 -3.485 0
M  V30 3369 H 333.241 -5.58667 -1.28699 0
M  V30 3370 H 331.638 -5.97137 -0.595627 0
M  V30 3371 H 332.708 -4.8423 0.254851 0
M  V30 3372 N 334.051 0.0651679 -1.57465 0
M  V30 3373 C 334.983 1.10359 -2.00882 0
M  V30 3374 C 335.996 1.346 -0.915788 0
M  V30 3375 O 337.185 1.32723 -1.1936 0
M  V30 3376 C 334.285 2.45312 -2.33828 0
M  V30 3377 C 333.458 2.40934 -3.65061 0
M  V30 3378 C 332.517 3.58047 -3.85602 0
M  V30 3379 O 331.543 3.39175 -4.57109 0
M  V30 3380 N 332.745 4.78637 -3.28462 0
M  V30 3381 H 335.51 0.733807 -2.90578 0
M  V30 3382 H 333.071 0.253719 -1.599 0
M  V30 3383 H 335.063 3.22314 -2.44737 0
M  V30 3384 H 333.633 2.74267 -1.49988 0
M  V30 3385 H 332.853 1.49273 -3.64844 0
M  V30 3386 H 334.141 2.35117 -4.51218 0
M  V30 3387 H 333.539 4.96872 -2.70433 0
M  V30 3388 H 332.096 5.53127 -3.44809 0
M  V30 3389 N 335.529 1.53961 0.336706 0
M  V30 3390 C 336.757 1.75483 1.09605 0
M  V30 3391 C 337.172 0.4972 1.82136 0
M  V30 3392 O 336.529 -0.53149 1.74589 0
M  V30 3393 C 336.58 2.93943 2.10428 0
M  V30 3394 O 336.301 4.14842 1.40846 0
M  V30 3395 C 337.802 3.27571 2.98684 0
M  V30 3396 H 335.022 0.586166 0.326574 0
M  V30 3397 H 337.566 2.00808 0.38683 0
M  V30 3398 H 335.721 2.70929 2.76905 0
M  V30 3399 H 336.135 4.81383 2.08255 0
M  V30 3400 H 337.609 4.13791 3.6535 0
M  V30 3401 H 338.086 2.44168 3.65074 0
M  V30 3402 H 338.692 3.52615 2.37787 0
M  V30 3403 N 337.007 -0.598083 1.45811 0
M  V30 3404 C 337.97 -1.69018 1.54808 0
M  V30 3405 C 338.97 -1.55037 0.426652 0
M  V30 3406 O 340.16 -1.59932 0.690456 0
M  V30 3407 C 337.292 -3.0835 1.45371 0
M  V30 3408 H 338.485 -1.62403 2.52121 0
M  V30 3409 H 336.038 -0.814626 1.33392 0
M  V30 3410 H 336.773 -3.20534 0.492793 0
M  V30 3411 H 336.558 -3.19907 2.26721 0
M  V30 3412 H 338.048 -3.8788 1.54721 0
M  V30 3413 N 338.485 -1.33259 -0.841409 0
M  V30 3414 C 339.733 -1.24326 -1.59334 0
M  V30 3415 C 340.054 0.191564 -1.94057 0
M  V30 3416 O 339.324 1.11967 -1.60749 0
M  V30 3417 H 337.904 -0.457174 -0.590763 0
M  V30 3418 H 340.566 -1.66947 -1.00571 0
M  V30 3419 H 339.662 -1.8352 -2.52442 0
M  V30 3420 N 339.963 1.05934 -1.16686 0
M  V30 3421 C 340.91 2.13499 -0.876748 0
M  V30 3422 C 341.88 1.65162 0.176299 0
M  V30 3423 O 343.065 1.90757 0.0407143 0
M  V30 3424 C 340.205 3.42912 -0.387967 0
M  V30 3425 C 339.318 4.04964 -1.50426 0
M  V30 3426 C 338.453 5.22266 -0.970125 0
M  V30 3427 C 337.492 5.76309 -2.06238 0
M  V30 3428 N 336.629 6.84922 -1.54356 0
M  V30 3429 H 341.469 2.37654 -1.7979 0
M  V30 3430 H 339.006 1.16598 -0.896843 0
M  V30 3431 H 340.964 4.17111 -0.086186 0
M  V30 3432 H 339.594 3.18963 0.496235 0
M  V30 3433 H 338.646 3.28277 -1.92193 0
M  V30 3434 H 339.958 4.41122 -2.32836 0
M  V30 3435 H 339.112 6.03506 -0.621743 0
M  V30 3436 H 337.851 4.87564 -0.115377 0
M  V30 3437 H 336.856 4.93704 -2.41942 0
M  V30 3438 H 338.081 6.13062 -2.92115 0
M  V30 3439 H 336.027 6.52131 -0.711406 0
M  V30 3440 H 335.944 7.20043 -2.30379 0
M  V30 3441 H 337.212 7.69832 -1.22387 0
M  V30 3442 N 341.441 0.965919 1.2453 0
M  V30 3443 C 342.666 0.643971 1.97149 0
M  V30 3444 C 343.091 -0.779487 1.71189 0
M  V30 3445 O 342.449 -1.5288 0.974553 0
M  V30 3446 C 342.497 0.922557 3.48599 0
M  V30 3447 O 341.601 0.00707672 4.12399 0
M  V30 3448 H 340.942 0.243647 0.617683 0
M  V30 3449 H 343.472 1.29558 1.58353 0
M  V30 3450 H 343.482 0.853373 3.98976 0
M  V30 3451 H 342.157 1.95996 3.66822 0
M  V30 3452 H 340.734 0.12943 3.72675 0
M  V30 3453 N 342.919 -1.39368 0.735821 0
M  V30 3454 C 344.196 -1.94465 0.210395 0
M  V30 3455 C 344.576 -1.67254 -1.28799 0
M  V30 3456 O 343.924 -1.00123 -2.05396 0
M  V30 3457 C 344.134 -3.4472 0.544897 0
M  V30 3458 C 345.482 -4.21708 0.494689 0
M  V30 3459 O 346.506 -3.52922 0.482136 0
M  V30 3460 O 345.365 -5.44299 0.489947 0
M  V30 3461 H 342.459 -0.826096 0.0386666 0
M  V30 3462 H 345.005 -1.48863 0.814735 0
M  V30 3463 H 343.777 -3.57963 1.58045 0
M  V30 3464 H 343.4 -3.97502 -0.08837 0
M  V30 3465 N 344.397 -0.483516 -1.5 0
M  V30 3466 C 345.643 0.0672592 -2.02688 0
M  V30 3467 C 345.976 1.38247 -1.36387 0
M  V30 3468 O 345.251 1.88131 -0.493675 0
M  V30 3469 C 345.534 0.238109 -3.59312 0
M  V30 3470 C 345.387 -1.099 -4.36168 0
M  V30 3471 C 346.706 0.986916 -4.28892 0
M  V30 3472 H 343.825 0.0229696 -0.736642 0
M  V30 3473 H 346.467 -0.631527 -1.79197 0
M  V30 3474 H 344.617 0.8333 -3.79458 0
M  V30 3475 H 346.289 -1.73172 -4.27562 0
M  V30 3476 H 344.532 -1.69261 -3.99416 0
M  V30 3477 H 345.203 -0.932954 -5.44059 0
M  V30 3478 H 347.679 0.482302 -4.13295 0
M  V30 3479 H 346.555 1.07527 -5.38265 0
M  V30 3480 H 346.816 2.0265 -3.92919 0
M  V30 3481 N 345.875 1.56104 -0.216619 0
M  V30 3482 C 346.808 2.16026 0.735395 0
M  V30 3483 C 347.786 1.1032 1.1945 0
M  V30 3484 O 348.97 1.38549 1.27814 0
M  V30 3485 C 346.097 2.73656 1.99575 0
M  V30 3486 C 345.143 3.92146 1.67702 0
M  V30 3487 S 345.976 5.29397 0.806145 0
M  V30 3488 C 347.132 5.90463 2.07617 0
M  V30 3489 H 347.365 2.96439 0.226072 0
M  V30 3490 H 344.898 1.544 -0.00136639 0
M  V30 3491 H 346.856 3.075 2.71945 0
M  V30 3492 H 345.517 1.93245 2.47619 0
M  V30 3493 H 344.71 4.30954 2.61332 0
M  V30 3494 H 344.312 3.59423 1.03398 0
M  V30 3495 H 346.604 6.06136 3.02664 0
M  V30 3496 H 347.547 6.86589 1.73207 0
M  V30 3497 H 347.955 5.19252 2.21445 0
M  V30 3498 N 347.353 -0.0568162 1.57498 0
M  V30 3499 C 348.599 -0.75422 1.88253 0
M  V30 3500 C 348.932 -1.76461 0.810865 0
M  V30 3501 O 348.207 -1.93691 -0.177259 0
M  V30 3502 C 348.49 -1.44878 3.2967 0
M  V30 3503 C 348.343 -0.453789 4.47505 0
M  V30 3504 C 349.662 -2.38994 3.69554 0
M  V30 3505 H 346.781 -0.272724 0.684683 0
M  V30 3506 H 349.423 -0.0172113 1.89992 0
M  V30 3507 H 347.573 -2.077 3.28318 0
M  V30 3508 H 349.245 0.170371 4.60985 0
M  V30 3509 H 347.488 0.229552 4.33192 0
M  V30 3510 H 348.159 -0.977699 5.43273 0
M  V30 3511 H 350.635 -1.86239 3.72095 0
M  V30 3512 H 349.511 -2.84587 4.69363 0
M  V30 3513 H 349.772 -3.24461 3.00296 0
M  V30 3514 N 348.832 -1.54138 -0.328536 0
M  V30 3515 C 350.078 -1.7236 -1.06865 0
M  V30 3516 C 350.411 -0.493231 -1.87832 0
M  V30 3517 O 349.686 0.5098 -1.877 0
M  V30 3518 C 349.969 -2.99621 -1.99747 0
M  V30 3519 C 349.822 -4.32899 -1.22143 0
M  V30 3520 C 351.141 -3.22615 -2.99345 0
M  V30 3521 H 348.26 -0.627151 -0.387105 0
M  V30 3522 H 350.902 -1.86827 -0.345767 0
M  V30 3523 H 349.052 -2.87418 -2.61387 0
M  V30 3524 H 350.724 -4.56978 -0.630017 0
M  V30 3525 H 348.967 -4.30628 -0.523628 0
M  V30 3526 H 349.638 -5.18154 -1.90318 0
M  V30 3527 H 352.114 -3.34248 -2.47826 0
M  V30 3528 H 350.99 -4.13027 -3.61524 0
M  V30 3529 H 351.251 -2.3961 -3.71536 0
M  V30 3530 N 350.31 0.590341 -1.46126 0
M  V30 3531 C 351.558 1.34616 -1.50742 0
M  V30 3532 C 351.879 1.94363 -0.157486 0
M  V30 3533 O 351.149 1.78136 0.815136 0
M  V30 3534 H 349.729 0.499789 -0.555175 0
M  V30 3535 H 352.391 0.691953 -1.82203 0
M  V30 3536 H 351.487 2.15678 -2.25587 0
M  V30 3537 N 351.788 1.33704 0.83433 0
M  V30 3538 C 353.035 1.25417 1.58987 0
M  V30 3539 C 353.363 -0.178869 1.93676 0
M  V30 3540 O 352.618 -1.13723 1.59265 0
M  V30 3541 C 352.917 2.07926 2.90692 0
M  V30 3542 C 352.583 3.57066 2.75345 0
M  V30 3543 C 351.245 3.97724 2.70867 0
M  V30 3544 C 353.597 4.51817 2.59828 0
M  V30 3545 C 350.925 5.31344 2.48778 0
M  V30 3546 C 353.277 5.85604 2.39272 0
M  V30 3547 C 351.941 6.25439 2.33199 0
M  V30 3548 H 351.211 0.458934 0.581774 0
M  V30 3549 H 353.858 1.65335 0.966261 0
M  V30 3550 H 352.163 1.608 3.57282 0
M  V30 3551 H 353.86 1.98868 3.48213 0
M  V30 3552 H 350.45 3.24785 2.79665 0
M  V30 3553 H 354.634 4.21311 2.62319 0
M  V30 3554 H 349.89 5.61241 2.42526 0
M  V30 3555 H 354.064 6.58623 2.2625 0
M  V30 3556 H 351.691 7.28914 2.15843 0
M  V30 3557 N 353.266 -1.05314 1.17247 0
M  V30 3558 C 354.543 -1.75184 0.87005 0
M  V30 3559 C 354.923 -2.01481 -0.629965 0
M  V30 3560 O 354.271 -1.64988 -1.58086 0
M  V30 3561 C 354.481 -3.04594 1.70363 0
M  V30 3562 C 355.829 -3.78567 1.92281 0
M  V30 3563 O 356.853 -3.14461 1.67311 0
M  V30 3564 O 355.712 -4.93755 2.3424 0
M  V30 3565 H 352.806 -0.761729 0.322021 0
M  V30 3566 H 355.352 -1.11493 1.27935 0
M  V30 3567 H 354.124 -2.81201 2.72106 0
M  V30 3568 H 353.747 -3.76022 1.29202 0
M  V30 3569 N 354.744 -0.972509 -1.24016 0
M  V30 3570 C 355.992 -0.635776 -1.91839 0
M  V30 3571 C 356.313 0.832312 -1.76345 0
M  V30 3572 O 355.583 1.5946 -1.13795 0
M  V30 3573 H 354.163 -0.232157 -0.710009 0
M  V30 3574 H 356.825 -1.23462 -1.50809 0
M  V30 3575 H 355.921 -0.880545 -2.99421 0
M  V30 3576 N 356.222 1.38976 -0.743202 0
M  V30 3577 C 357.45 2.04636 -0.30525 0
M  V30 3578 C 357.865 1.56044 1.06281 0
M  V30 3579 O 357.222 0.728921 1.67311 0
M  V30 3580 C 357.273 3.60193 -0.307177 0
M  V30 3581 O 356.994 4.06998 -1.62124 0
M  V30 3582 C 358.495 4.4306 0.145928 0
M  V30 3583 H 355.715 0.65788 -0.132041 0
M  V30 3584 H 358.259 1.77866 -1.00915 0
M  V30 3585 H 356.414 3.85835 0.347898 0
M  V30 3586 H 356.828 5.01371 -1.54036 0
M  V30 3587 H 358.302 5.51921 0.0934183 0
M  V30 3588 H 358.779 4.22706 1.19231 0
M  V30 3589 H 359.385 4.22584 -0.479886 0
M  V30 3590 N 357.7 0.491464 1.49741 0
M  V30 3591 C 359.111 0.0413169 1.86654 0
M  V30 3592 C 359.462 -1.36985 1.40462 0
M  V30 3593 O 358.587 -2.01917 0.778354 0
M  V30 3594 C 359.182 0.0682023 3.38731 0
M  V30 3595 C 357.741 -0.32656 3.74981 0
M  V30 3596 C 356.888 0.444888 2.73708 0
M  V30 3597 H 359.839 0.704733 1.42194 0
M  V30 3598 H 359.86 -0.729322 3.73445 0
M  V30 3599 H 359.372 1.09539 3.72321 0
M  V30 3600 H 357.473 -1.35734 3.46997 0
M  V30 3601 H 357.586 -0.013741 4.79098 0
M  V30 3602 H 355.95 -0.104062 2.54487 0
M  V30 3603 H 356.733 1.47197 3.10142 0
M  V30 3604 N 359.178 -1.55987 0.224894 0
M  V30 3605 C 360.455 -1.90232 -0.455083 0
M  V30 3606 C 360.835 -1.14269 -1.77499 0
M  V30 3607 O 360.183 -0.253079 -2.27094 0
M  V30 3608 C 360.393 -3.42993 -0.644758 0
M  V30 3609 C 361.741 -4.13821 -0.950669 0
M  V30 3610 O 362.765 -3.4861 -0.731423 0
M  V30 3611 O 361.624 -5.29128 -1.36695 0
M  V30 3612 H 358.718 -0.79108 -0.241084 0
M  V30 3613 H 361.264 -1.67581 0.267327 0
M  V30 3614 H 360.036 -3.90252 0.28613 0
M  V30 3615 H 359.659 -3.71434 -1.41853 0
M  V30 3616 N 360.656 0.0484629 -1.57525 0
M  V30 3617 C 361.904 0.741657 -1.88 0
M  V30 3618 C 362.225 1.76918 -0.820054 0
M  V30 3619 O 361.495 1.95335 0.148661 0
M  V30 3620 H 360.075 0.276908 -0.69378 0
M  V30 3621 H 362.737 0.019013 -1.94891 0
M  V30 3622 H 361.833 1.24336 -2.86264 0
M  V30 3623 N 362.134 1.5431 0.320358 0
M  V30 3624 C 363.044 1.86946 1.41734 0
M  V30 3625 C 364.06 0.761689 1.56443 0
M  V30 3626 O 365.236 1.05629 1.71477 0
M  V30 3627 C 362.301 2.09293 2.76401 0
M  V30 3628 C 361.362 3.33082 2.70841 0
M  V30 3629 C 360.595 3.54353 3.99086 0
M  V30 3630 O 360.818 2.79002 4.97508 0
M  V30 3631 O 359.752 4.47838 4.0215 0
M  V30 3632 H 363.578 2.80232 1.17062 0
M  V30 3633 H 361.163 1.40255 0.514673 0
M  V30 3634 H 363.045 2.25303 3.56113 0
M  V30 3635 H 361.72 1.19194 3.00956 0
M  V30 3636 H 360.627 3.22454 1.89668 0
M  V30 3637 H 361.96 4.23249 2.5124 0
M  V30 3638 N 363.613 -0.582584 1.46437 0
M  V30 3639 C 364.56 -1.69164 1.5701 0
M  V30 3640 C 365.53 -1.60847 0.414403 0
M  V30 3641 O 366.715 -1.80058 0.631171 0
M  V30 3642 C 363.855 -3.075 1.56646 0
M  V30 3643 C 362.968 -3.2644 2.82951 0
M  V30 3644 C 362.103 -4.55026 2.7409 0
M  V30 3645 C 361.142 -4.6731 3.95333 0
M  V30 3646 N 360.279 -5.87221 3.84858 0
M  V30 3647 H 365.119 -1.59464 2.51744 0
M  V30 3648 H 362.656 -0.777186 1.24893 0
M  V30 3649 H 364.614 -3.8757 1.5442 0
M  V30 3650 H 363.244 -3.16096 0.654439 0
M  V30 3651 H 362.296 -2.39974 2.95155 0
M  V30 3652 H 363.608 -3.31385 3.72808 0
M  V30 3653 H 362.762 -5.43324 2.6997 0
M  V30 3654 H 361.501 -4.52519 1.81873 0
M  V30 3655 H 360.506 -3.77429 3.99784 0
M  V30 3656 H 361.731 -4.71595 4.88646 0
M  V30 3657 H 359.677 -5.85712 2.95427 0
M  V30 3658 H 359.594 -5.93435 4.6837 0
M  V30 3659 H 360.862 -6.7795 3.84713 0
M  V30 3660 N 365.091 -1.34144 -0.827227 0
M  V30 3661 C 366.054 -1.25264 -1.91942 0
M  V30 3662 C 367.054 -0.168866 -1.59911 0
M  V30 3663 O 368.244 -0.421198 -1.69031 0
M  V30 3664 C 365.376 -0.932952 -3.27885 0
M  V30 3665 H 366.569 -2.22357 -2.0124 0
M  V30 3666 H 364.122 -1.1837 -1.0207 0
M  V30 3667 H 364.857 0.0349917 -3.24281 0
M  V30 3668 H 364.642 -1.71682 -3.52516 0
M  V30 3669 H 366.132 -0.895874 -4.07877 0
M  V30 3670 N 366.569 1.04691 -1.17803 0
M  V30 3671 C 367.815 1.78045 -0.970969 0
M  V30 3672 C 368.148 1.87686 0.498751 0
M  V30 3673 O 367.423 1.38035 1.37027 0
M  V30 3674 C 367.706 3.2166 -1.61884 0
M  V30 3675 C 367.559 3.20001 -3.161 0
M  V30 3676 C 368.878 4.1962 -1.3269 0
M  V30 3677 H 365.997 0.64633 -0.354155 0
M  V30 3678 H 368.639 1.22333 -1.45378 0
M  V30 3679 H 366.789 3.69232 -1.20831 0
M  V30 3680 H 368.461 2.80467 -3.66246 0
M  V30 3681 H 366.704 2.58203 -3.48588 0
M  V30 3682 H 367.375 4.21386 -3.56564 0
M  V30 3683 H 369.851 3.80567 -1.68249 0
M  V30 3684 H 368.727 5.18339 -1.80599 0
M  V30 3685 H 368.988 4.414 -0.248622 0
M  V30 3686 N 368.047 0.979072 1.23499 0
M  V30 3687 C 368.995 0.510604 2.26926 0
M  V30 3688 C 369.989 -0.431691 1.63807 0
M  V30 3689 O 371.195 -0.30573 1.77385 0
M  V30 3690 H 367.57 0.146688 0.737554 0
M  V30 3691 H 369.541 1.39466 2.63803 0
M  V30 3692 C 368.29 -0.172658 3.47271 0
M  V30 3693 H 367.613 0.543331 3.96091 0
M  V30 3694 H 369.053 -0.464101 4.21452 0
M  V30 3695 C 367.512 -1.40345 3.06276 0
M  V30 3696 O 368.042 -2.49978 3.14442 0
M  V30 3697 N 366.248 -1.27362 2.61203 0
M  V30 3698 H 365.795 -0.381584 2.54758 0
M  V30 3699 H 365.753 -2.09822 2.34141 0
M  V30 3700 N 369.525 -1.3858 0.750561 0
M  V30 3701 C 370.802 -1.94231 0.231009 0
M  V30 3702 C 371.182 -1.68611 -1.27018 0
M  V30 3703 O 370.53 -1.02296 -2.04323 0
M  V30 3704 C 370.74 -3.44123 0.581428 0
M  V30 3705 C 372.088 -4.2116 0.539389 0
M  V30 3706 O 373.112 -3.52391 0.519541 0
M  V30 3707 O 371.971 -5.43749 0.54765 0
M  V30 3708 H 369.065 -0.825639 0.0474263 0
M  V30 3709 H 371.611 -1.4799 0.830478 0
M  V30 3710 H 370.383 -3.56267 1.61833 0
M  V30 3711 H 370.006 -3.97573 -0.0462047 0
M  V30 3712 N 371.003 -0.499398 -1.49478 0
M  V30 3713 C 372.251 0.0455996 -2.02049 0
M  V30 3714 C 372.572 1.37633 -1.38138 0
M  V30 3715 O 371.842 1.8842 -0.536166 0
M  V30 3716 H 370.422 0.0198416 -0.746736 0
M  V30 3717 H 373.084 -0.656274 -1.83519 0
M  V30 3718 H 372.18 0.176445 -3.11601 0
M  V30 3719 N 372.481 1.55866 -0.233164 0
M  V30 3720 C 373.428 2.20796 0.67215 0
M  V30 3721 C 374.398 1.16731 1.18166 0
M  V30 3722 O 375.583 1.45129 1.23864 0
M  V30 3723 C 372.723 2.90072 1.86955 0
M  V30 3724 C 371.836 4.08759 1.39786 0
M  V30 3725 C 370.971 4.65787 2.55374 0
M  V30 3726 C 370.01 5.76752 2.04998 0
M  V30 3727 N 369.147 6.28021 3.13901 0
M  V30 3728 H 373.987 2.9779 0.111749 0
M  V30 3729 H 371.524 1.47036 0.0434007 0
M  V30 3730 H 373.482 3.28428 2.57276 0
M  V30 3731 H 372.112 2.15575 2.40265 0
M  V30 3732 H 371.164 3.7581 0.589173 0
M  V30 3733 H 372.476 4.88906 0.98856 0
M  V30 3734 H 371.63 5.06646 3.33758 0
M  V30 3735 H 370.369 3.84828 2.99598 0
M  V30 3736 H 369.374 5.35383 1.25079 0
M  V30 3737 H 370.599 6.59553 1.61759 0
M  V30 3738 H 368.545 5.49971 3.57586 0
M  V30 3739 H 368.462 7.03323 2.7726 0
M  V30 3740 H 369.73 6.73538 3.92386 0
M  V30 3741 N 373.959 -0.0401083 1.57549 0
M  V30 3742 C 374.889 -1.04384 2.08869 0
M  V30 3743 C 375.87 -1.38407 0.988817 0
M  V30 3744 O 377.055 -1.47483 1.26342 0
M  V30 3745 C 374.185 -2.34808 2.55895 0
M  V30 3746 C 373.139 -2.15057 3.70047 0
M  V30 3747 C 372.465 -3.51145 4.03239 0
M  V30 3748 C 373.765 -1.54576 4.98902 0
M  V30 3749 H 375.459 -0.616666 2.92981 0
M  V30 3750 H 373.005 -0.295184 1.40942 0
M  V30 3751 H 374.958 -3.05346 2.90417 0
M  V30 3752 H 373.682 -2.79565 1.68853 0
M  V30 3753 H 372.341 -1.46954 3.35857 0
M  V30 3754 H 371.989 -3.93529 3.13279 0
M  V30 3755 H 371.689 -3.38758 4.80122 0
M  V30 3756 H 373.213 -4.23062 4.40285 0
M  V30 3757 H 374.627 -2.15017 5.31451 0
M  V30 3758 H 373.024 -1.52796 5.80322 0
M  V30 3759 H 374.094 -0.51039 4.82206 0
M  V30 3760 N 375.437 -1.54477 -0.31217 0
M  V30 3761 C 376.4 -1.83923 -1.36766 0
M  V30 3762 C 377.4 -0.711563 -1.44199 0
M  V30 3763 O 378.59 -0.979866 -1.44029 0
M  V30 3764 C 375.722 -2.0095 -2.75376 0
M  V30 3765 H 376.915 -2.78239 -1.11906 0
M  V30 3766 H 374.468 -1.46369 -0.548257 0
M  V30 3767 H 375.203 -1.08883 -3.05475 0
M  V30 3768 H 374.988 -2.83018 -2.71373 0
M  V30 3769 H 376.478 -2.2514 -3.51713 0
M  V30 3770 N 376.915 0.57481 -1.46744 0
M  V30 3771 C 377.878 1.66533 -1.57478 0
M  V30 3772 C 378.878 1.54338 -0.451263 0
M  V30 3773 O 380.068 1.58814 -0.715813 0
M  V30 3774 C 377.2 3.05999 -1.50259 0
M  V30 3775 H 378.393 1.58372 -2.54673 0
M  V30 3776 H 375.946 0.793301 -1.34672 0
M  V30 3777 H 376.681 3.19709 -0.543725 0
M  V30 3778 H 376.466 3.16259 -2.31781 0
M  V30 3779 H 377.956 3.8537 -1.60872 0
M  V30 3780 N 378.394 1.34581 0.820102 0
M  V30 3781 C 379.622 1.3018 1.60813 0
M  V30 3782 C 380.037 -0.123551 1.88395 0
M  V30 3783 O 379.394 -1.07148 1.47735 0
M  V30 3784 C 379.445 2.09312 2.94739 0
M  V30 3785 O 379.166 3.46288 2.68358 0
M  V30 3786 C 380.667 2.1234 3.89136 0
M  V30 3787 H 377.887 0.447726 0.499782 0
M  V30 3788 H 380.431 1.77237 1.02017 0
M  V30 3789 H 378.586 1.65889 3.50085 0
M  V30 3790 H 379 3.87227 3.53774 0
M  V30 3791 H 380.474 2.72126 4.80262 0
M  V30 3792 H 380.951 1.11854 4.24718 0
M  V30 3793 H 381.557 2.55864 3.39726 0
M  V30 3794 N 379.872 -1.04064 1.18357 0
M  V30 3795 C 381.121 -1.76662 0.973313 0
M  V30 3796 C 381.434 -1.89154 -0.497991 0
M  V30 3797 O 382.64 -2.58606 -0.826762 0
M  V30 3798 C 381.096 -3.17624 1.69242 0
M  V30 3799 C 380.704 -3.13225 3.20303 0
M  V30 3800 C 382.448 -3.946 1.56497 0
M  V30 3801 C 380.355 -4.49046 3.84853 0
M  V30 3802 H 379.285 -0.662214 0.36054 0
M  V30 3803 H 381.936 -1.16553 1.41731 0
M  V30 3804 H 380.318 -3.78129 1.1762 0
M  V30 3805 H 381.492 -2.62172 3.78949 0
M  V30 3806 H 379.807 -2.49749 3.33189 0
M  V30 3807 H 382.404 -4.95042 2.02084 0
M  V30 3808 H 382.747 -4.13074 0.517243 0
M  V30 3809 H 383.28 -3.4067 2.05399 0
M  V30 3810 H 380.019 -4.35777 4.89672 0
M  V30 3811 H 379.539 -5.00203 3.30994 0
M  V30 3812 H 381.218 -5.17961 3.87718 0
M  V30 3813 N 381.35 -0.985608 -1.22978 0
M  V30 3814 C 382.313 -0.535071 -2.22867 0
M  V30 3815 C 383.313 0.378123 -1.56291 0
M  V30 3816 O 384.503 0.171092 -1.73358 0
M  V30 3817 C 381.635 0.222702 -3.40172 0
M  V30 3818 H 382.828 -1.41835 -2.6424 0
M  V30 3819 H 380.381 -0.772042 -1.35901 0
M  V30 3820 H 381.116 1.12229 -3.04262 0
M  V30 3821 H 380.901 -0.43288 -3.89703 0
M  V30 3822 H 382.391 0.526335 -4.1427 0
M  V30 3823 N 382.828 1.3818 -0.7579 0
M  V30 3824 C 383.76 2.2901 -0.0932177 0
M  V30 3825 C 384.773 1.47958 0.679136 0
M  V30 3826 O 385.962 1.70773 0.519514 0
M  V30 3827 C 383.062 3.26953 0.89192 0
M  V30 3828 C 382.235 4.37045 0.176303 0
M  V30 3829 C 381.294 5.15148 1.07281 0
M  V30 3830 O 380.32 5.66616 0.541728 0
M  V30 3831 N 381.522 5.28542 2.40049 0
M  V30 3832 H 384.287 2.86694 -0.873303 0
M  V30 3833 H 381.848 1.50007 -0.609054 0
M  V30 3834 H 383.84 3.76083 1.49479 0
M  V30 3835 H 382.41 2.70136 1.57306 0
M  V30 3836 H 381.63 3.89493 -0.607328 0
M  V30 3837 H 382.918 5.07801 -0.318718 0
M  V30 3838 H 382.316 4.88285 2.85647 0
M  V30 3839 H 380.873 5.8103 2.95376 0
M  V30 3840 N 384.306 0.507319 1.49211 0
M  V30 3841 C 385.236 -0.256939 2.32082 0
M  V30 3842 C 386.217 -0.956609 1.40652 0
M  V30 3843 O 387.402 -0.946788 1.69557 0
M  V30 3844 C 384.532 -1.31802 3.21318 0
M  V30 3845 C 383.486 -0.737855 4.21592 0
M  V30 3846 C 382.812 -1.89992 4.99807 0
M  V30 3847 C 384.112 0.275325 5.21574 0
M  V30 3848 H 385.806 0.434798 2.96226 0
M  V30 3849 H 383.352 0.210546 1.42452 0
M  V30 3850 H 385.305 -1.86045 3.78107 0
M  V30 3851 H 384.029 -2.03903 2.5513 0
M  V30 3852 H 382.688 -0.217126 3.65956 0
M  V30 3853 H 382.336 -2.60877 4.30061 0
M  V30 3854 H 382.036 -1.51777 5.6766 0
M  V30 3855 H 383.56 -2.44657 5.59442 0
M  V30 3856 H 384.974 -0.179193 5.7302 0
M  V30 3857 H 383.371 0.573649 5.97352 0
M  V30 3858 H 384.441 1.18903 4.70096 0
M  V30 3859 N 385.784 -1.5574 0.241426 0
M  V30 3860 C 387.195 -1.84842 -0.262755 0
M  V30 3861 C 387.546 -1.16317 -1.58003 0
M  V30 3862 O 386.671 -0.439653 -2.11887 0
M  V30 3863 C 387.266 -3.35332 -0.483523 0
M  V30 3864 C 385.825 -3.6468 -0.931977 0
M  V30 3865 C 384.972 -2.77299 -0.0061151 0
M  V30 3866 H 387.923 -1.51761 0.464129 0
M  V30 3867 H 387.944 -3.56615 -1.32688 0
M  V30 3868 H 387.456 -3.85178 0.47537 0
M  V30 3869 H 385.557 -3.20307 -1.90353 0
M  V30 3870 H 385.67 -4.72498 -0.792628 0
M  V30 3871 H 384.034 -2.49408 -0.516503 0
M  V30 3872 H 384.817 -3.2995 0.948052 0
M  V30 3873 N 387.262 0.0317525 -1.57568 0
M  V30 3874 C 388.539 0.758366 -1.803 0
M  V30 3875 C 388.919 1.93718 -0.838845 0
M  V30 3876 O 388.267 2.28187 0.119571 0
M  V30 3877 C 388.477 1.19392 -3.27943 0
M  V30 3878 C 389.825 1.61094 -3.92854 0
M  V30 3879 O 390.849 1.28857 -3.32076 0
M  V30 3880 O 389.708 2.20918 -4.99858 0
M  V30 3881 H 386.802 0.366514 -0.741348 0
M  V30 3882 H 389.348 0.00873765 -1.69698 0
M  V30 3883 H 388.12 0.352275 -3.89711 0
M  V30 3884 H 387.743 2.00365 -3.43424 0
M  V30 3885 N 388.74 1.54641 0.303973 0
M  V30 3886 C 389.672 1.81754 1.39636 0
M  V30 3887 C 390.685 0.70035 1.46966 0
M  V30 3888 O 391.874 0.97778 1.49338 0
M  V30 3889 C 388.974 1.93785 2.7803 0
M  V30 3890 C 388.147 3.24156 2.93669 0
M  V30 3891 C 387.206 3.26641 4.12544 0
M  V30 3892 O 386.232 4.00187 4.04771 0
M  V30 3893 N 387.434 2.5182 5.23036 0
M  V30 3894 H 390.199 2.76031 1.16734 0
M  V30 3895 H 387.76 1.54178 0.494033 0
M  V30 3896 H 389.752 1.92852 3.55795 0
M  V30 3897 H 388.322 1.06515 2.93893 0
M  V30 3898 H 387.542 3.37887 2.03042 0
M  V30 3899 H 388.83 4.10195 3.01027 0
M  V30 3900 H 388.228 1.91692 5.32232 0
M  V30 3901 H 386.785 2.56644 5.99147 0
M  V30 3902 N 390.218 -0.567019 1.47046 0
M  V30 3903 C 391.467 -1.32091 1.5243 0
M  V30 3904 C 391.78 -1.94704 0.187021 0
M  V30 3905 O 392.986 -2.7124 0.118771 0
M  V30 3906 C 391.442 -2.39479 2.68659 0
M  V30 3907 C 391.05 -1.831 4.08874 0
M  V30 3908 C 392.794 -3.16111 2.83327 0
M  V30 3909 C 390.701 -2.8821 5.16419 0
M  V30 3910 H 389.631 -0.496629 0.56734 0
M  V30 3911 H 392.282 -0.603354 1.73297 0
M  V30 3912 H 390.664 -3.14105 2.41152 0
M  V30 3913 H 391.838 -1.14913 4.46242 0
M  V30 3914 H 390.153 -1.19085 3.99008 0
M  V30 3915 H 392.75 -3.94585 3.60842 0
M  V30 3916 H 393.093 -3.69686 1.91411 0
M  V30 3917 H 393.626 -2.48595 3.10556 0
M  V30 3918 H 390.365 -2.39504 6.10179 0
M  V30 3919 H 389.885 -3.54839 4.8358 0
M  V30 3920 H 391.564 -3.51881 5.42945 0
M  V30 3921 N 391.696 -1.35014 -0.812953 0
M  V30 3922 C 392.944 -1.27678 -1.56661 0
M  V30 3923 C 393.265 0.150359 -1.94419 0
M  V30 3924 O 392.535 1.08532 -1.63088 0
M  V30 3925 H 391.115 -0.469602 -0.580933 0
M  V30 3926 H 393.777 -1.69043 -0.970076 0
M  V30 3927 H 392.873 -1.88833 -2.48492 0
M  V30 3928 N 393.175 1.03435 -1.18907 0
M  V30 3929 C 394.138 2.09756 -0.923844 0
M  V30 3930 C 395.138 1.60528 0.093416 0
M  V30 3931 O 396.328 1.73631 -0.140727 0
M  V30 3932 C 393.46 3.38692 -0.387354 0
M  V30 3933 H 394.653 2.34719 -1.86674 0
M  V30 3934 H 392.206 1.19959 -1.00197 0
M  V30 3935 H 392.941 3.19396 0.561845 0
M  V30 3936 H 392.726 3.75742 -1.12074 0
M  V30 3937 H 394.216 4.17016 -0.220694 0
M  V30 3938 N 394.653 0.992116 1.22453 0
M  V30 3939 C 395.6 0.541731 2.24352 0
M  V30 3940 C 396.57 -0.425519 1.60557 0
M  V30 3941 O 397.755 -0.330453 1.87917 0
M  V30 3942 C 394.895 -0.138248 3.44823 0
M  V30 3943 C 394.008 0.870649 4.23136 0
M  V30 3944 C 393.143 0.164269 5.30946 0
M  V30 3945 C 392.182 1.16159 6.00977 0
M  V30 3946 N 391.319 0.483568 7.00433 0
M  V30 3947 H 396.159 1.41541 2.62241 0
M  V30 3948 H 393.696 0.709013 1.28885 0
M  V30 3949 H 395.654 -0.5494 4.13567 0
M  V30 3950 H 394.284 -0.975721 3.077 0
M  V30 3951 H 393.336 1.40013 3.53696 0
M  V30 3952 H 394.648 1.63014 4.7141 0
M  V30 3953 H 393.802 -0.303653 6.0594 0
M  V30 3954 H 392.541 -0.627733 4.83643 0
M  V30 3955 H 391.546 1.64015 5.24766 0
M  V30 3956 H 392.771 1.95445 6.50368 0
M  V30 3957 H 390.717 -0.289012 6.55363 0
M  V30 3958 H 390.634 1.18152 7.4671 0
M  V30 3959 H 391.902 0.0384219 7.79491 0
M  V30 3960 N 396.131 -1.37776 0.765217 0
M  V30 3961 C 397.379 -1.99454 0.325943 0
M  V30 3962 C 397.7 -1.61049 -1.09947 0
M  V30 3963 O 396.97 -0.872821 -1.75381 0
M  V30 3964 H 395.55 -0.737697 0.117525 0
M  V30 3965 H 398.212 -1.68359 0.981895 0
M  V30 3966 H 397.308 -3.09547 0.398353 0
M  V30 3967 N 397.609 -0.515225 -1.4894 0
M  V30 3968 C 398.855 0.0242508 -2.02785 0
M  V30 3969 C 399.188 1.35323 -1.39289 0
M  V30 3970 O 398.463 1.87041 -0.533469 0
M  V30 3971 C 398.746 0.16184 -3.59736 0
M  V30 3972 C 398.599 -1.19127 -4.33738 0
M  V30 3973 C 399.918 0.895719 -4.30888 0
M  V30 3974 H 397.037 0.00733914 -0.736963 0
M  V30 3975 H 399.679 -0.669395 -1.77818 0
M  V30 3976 H 397.829 0.752624 -3.8114 0
M  V30 3977 H 399.501 -1.82202 -4.23792 0
M  V30 3978 H 397.744 -1.77695 -3.95736 0
M  V30 3979 H 398.415 -1.04815 -5.41957 0
M  V30 3980 H 400.891 0.394528 -4.14225 0
M  V30 3981 H 399.767 0.960859 -5.40425 0
M  V30 3982 H 400.028 1.9427 -3.97129 0
M  V30 3983 N 399.087 1.5561 -0.249682 0
M  V30 3984 C 399.997 2.25143 0.659375 0
M  V30 3985 C 401.013 1.2685 1.19101 0
M  V30 3986 O 402.189 1.59732 1.22669 0
M  V30 3987 C 399.254 2.93945 1.8384 0
M  V30 3988 C 398.315 4.07655 1.34596 0
M  V30 3989 C 397.548 4.73167 2.46878 0
M  V30 3990 O 397.771 4.37768 3.65671 0
M  V30 3991 O 396.705 5.61623 2.16478 0
M  V30 3992 H 400.531 3.03545 0.0968698 0
M  V30 3993 H 398.116 1.49389 -0.018074 0
M  V30 3994 H 399.998 3.37271 2.52638 0
M  V30 3995 H 398.673 2.18481 2.38847 0
M  V30 3996 H 397.58 3.68839 0.625174 0
M  V30 3997 H 398.913 4.84946 0.841941 0
M  V30 3998 N 400.565 -0.0233959 1.57583 0
M  V30 3999 C 401.793 -0.724682 1.93794 0
M  V30 4000 C 402.208 -1.68588 0.849912 0
M  V30 4001 O 401.565 -1.81676 -0.173204 0
M  V30 4002 C 401.616 -1.47684 3.29957 0
M  V30 4003 O 401.337 -0.554222 4.3458 0
M  V30 4004 C 402.838 -2.27477 3.80485 0
M  V30 4005 H 400.058 -0.203317 0.639455 0
M  V30 4006 H 402.602 0.0207653 2.04489 0
M  V30 4007 H 400.757 -2.17412 3.20641 0
M  V30 4008 H 401.171 -1.08232 5.13212 0
M  V30 4009 H 402.645 -2.7564 4.78254 0
M  V30 4010 H 403.122 -3.09144 3.11972 0
M  V30 4011 H 403.728 -1.62813 3.92902 0
M  V30 4012 N 402.043 -1.548 -0.295768 0
M  V30 4013 C 403.006 -1.85363 -1.34808 0
M  V30 4014 C 404.006 -0.726817 -1.43436 0
M  V30 4015 O 405.196 -0.995088 -1.42981 0
M  V30 4016 C 402.328 -2.03859 -2.73229 0
M  V30 4017 H 403.521 -2.7941 -1.08949 0
M  V30 4018 H 401.074 -1.46942 -0.532702 0
M  V30 4019 H 401.809 -1.12117 -3.04303 0
M  V30 4020 H 401.594 -2.8588 -2.68356 0
M  V30 4021 H 403.084 -2.28857 -3.49305 0
M  V30 4022 N 403.521 0.559213 -1.47345 0
M  V30 4023 C 404.798 1.31997 -1.44348 0
M  V30 4024 C 405.178 2.1064 -0.139358 0
M  V30 4025 O 404.526 2.1091 0.879153 0
M  V30 4026 C 404.736 2.22618 -2.68779 0
M  V30 4027 C 406.084 2.83701 -3.1591 0
M  V30 4028 O 407.108 2.32921 -2.69493 0
M  V30 4029 O 405.967 3.75993 -3.966 0
M  V30 4030 H 403.061 0.594251 -0.575147 0
M  V30 4031 H 405.607 0.578282 -1.59543 0
M  V30 4032 H 404.379 1.64093 -3.55231 0
M  V30 4033 H 404.002 3.04085 -2.5616 0
M  V30 4034 N 404.999 1.35443 0.805782 0
M  V30 4035 C 405.946 1.28431 1.91766 0
M  V30 4036 C 406.916 0.156102 1.65365 0
M  V30 4037 O 408.101 0.339936 1.87747 0
M  V30 4038 C 405.241 1.06301 3.2832 0
M  V30 4039 C 404.354 2.2805 3.66902 0
M  V30 4040 C 403.489 1.99064 4.92491 0
M  V30 4041 C 402.528 3.16863 5.23703 0
M  V30 4042 N 401.665 2.87647 6.40471 0
M  V30 4043 H 406.505 2.23511 1.97096 0
M  V30 4044 H 404.042 1.11105 0.964054 0
M  V30 4045 H 406 0.915012 4.07042 0
M  V30 4046 H 404.63 0.148822 3.22457 0
M  V30 4047 H 403.682 2.53711 2.83434 0
M  V30 4048 H 404.994 3.1601 3.85927 0
M  V30 4049 H 404.148 1.81099 5.7904 0
M  V30 4050 H 402.887 1.0839 4.75503 0
M  V30 4051 H 401.892 3.35404 4.35642 0
M  V30 4052 H 403.117 4.08339 5.4262 0
M  V30 4053 H 401.063 1.99568 6.24907 0
M  V30 4054 H 400.98 3.69141 6.59751 0
M  V30 4055 H 402.248 2.73226 7.30047 0
M  V30 4056 N 406.477 -1.02803 1.19454 0
M  V30 4057 C 407.723 -1.76478 0.999171 0
M  V30 4058 C 408.056 -1.88456 -0.468828 0
M  V30 4059 O 407.331 -1.40198 -1.34814 0
M  V30 4060 C 407.614 -3.19044 1.66981 0
M  V30 4061 C 407.467 -3.14932 3.21151 0
M  V30 4062 C 408.786 -4.17456 1.39349 0
M  V30 4063 H 405.905 -0.640614 0.364393 0
M  V30 4064 H 408.547 -1.20005 1.47305 0
M  V30 4065 H 406.697 -3.67263 1.2669 0
M  V30 4066 H 408.369 -2.74605 3.70661 0
M  V30 4067 H 406.612 -2.52625 3.52652 0
M  V30 4068 H 407.283 -4.1566 3.63223 0
M  V30 4069 H 409.759 -3.77842 1.74283 0
M  V30 4070 H 408.635 -5.154 1.88823 0
M  V30 4071 H 408.896 -4.40949 0.318813 0
M  V30 4072 N 407.956 -0.998596 -1.21925 0
M  V30 4073 C 408.886 -0.573688 -2.26343 0
M  V30 4074 C 409.867 0.402296 -1.65274 0
M  V30 4075 O 411.052 0.291683 -1.91997 0
M  V30 4076 C 408.182 0.106839 -3.47136 0
M  V30 4077 C 407.136 -0.788269 -4.20678 0
M  V30 4078 C 406.462 0.0254927 -5.34694 0
M  V30 4079 C 407.762 -2.08784 -4.78755 0
M  V30 4080 H 409.456 -1.44651 -2.62138 0
M  V30 4081 H 407.002 -0.696975 -1.26009 0
M  V30 4082 H 408.955 0.415531 -4.19346 0
M  V30 4083 H 407.679 1.01424 -3.10452 0
M  V30 4084 H 406.338 -1.08069 -3.50309 0
M  V30 4085 H 405.986 0.933989 -4.94253 0
M  V30 4086 H 405.686 -0.570437 -5.84825 0
M  V30 4087 H 407.21 0.328147 -6.09718 0
M  V30 4088 H 408.624 -1.84272 -5.42878 0
M  V30 4089 H 407.021 -2.63307 -5.39249 0
M  V30 4090 H 408.091 -2.76284 -3.98491 0
M  V30 4091 N 409.434 1.37368 -0.772513 0
M  V30 4092 C 410.381 2.30262 -0.157488 0
M  V30 4093 C 411.351 1.51137 0.688965 0
M  V30 4094 O 412.536 1.79704 0.641168 0
M  V30 4095 C 409.676 3.37611 0.715045 0
M  V30 4096 C 408.789 4.31746 -0.148098 0
M  V30 4097 C 407.924 5.26171 0.729213 0
M  V30 4098 C 406.963 6.11948 -0.136418 0
M  V30 4099 N 406.1 6.98613 0.698914 0
M  V30 4100 H 410.94 2.82277 -0.955179 0
M  V30 4101 H 408.477 1.38957 -0.482631 0
M  V30 4102 H 410.435 3.98479 1.23575 0
M  V30 4103 H 409.065 2.86959 1.47833 0
M  V30 4104 H 408.117 3.72178 -0.786613 0
M  V30 4105 H 409.429 4.92084 -0.81579 0
M  V30 4106 H 408.583 5.92247 1.31637 0
M  V30 4107 H 407.322 4.66246 1.43059 0
M  V30 4108 H 406.327 5.4485 -0.736102 0
M  V30 4109 H 407.552 6.73945 -0.835134 0
M  V30 4110 H 405.498 6.41215 1.38489 0
M  V30 4111 H 405.415 7.55948 0.0885358 0
M  V30 4112 H 406.683 7.69077 1.27044 0
M  V30 4113 N 410.912 0.523116 1.48665 0
M  V30 4114 C 412.16 -0.0134497 2.02096 0
M  V30 4115 C 412.481 -1.35418 1.40311 0
M  V30 4116 O 411.751 -1.87543 0.566074 0
M  V30 4117 H 410.331 -0.00795915 0.746958 0
M  V30 4118 H 412.993 0.685388 1.82451 0
M  V30 4119 H 412.089 -0.126849 3.11842 0
M  V30 4120 N 412.39 -1.55475 0.257931 0
M  V30 4121 C 413.3 -2.2549 -0.647425 0
M  V30 4122 C 414.316 -1.2748 -1.18427 0
M  V30 4123 O 415.492 -1.6038 -1.2182 0
M  V30 4124 C 412.557 -2.94916 -1.82278 0
M  V30 4125 C 411.618 -4.08363 -1.32432 0
M  V30 4126 C 410.851 -4.74469 -2.44366 0
M  V30 4127 O 411.074 -4.39701 -3.63344 0
M  V30 4128 O 410.008 -5.62763 -2.13497 0
M  V30 4129 H 413.834 -3.03593 -0.0807707 0
M  V30 4130 H 411.419 -1.49377 0.0259962 0
M  V30 4131 H 413.301 -3.38606 -2.50846 0
M  V30 4132 H 411.976 -2.19744 -2.37685 0
M  V30 4133 H 410.883 -3.69166 -0.605605 0
M  V30 4134 H 412.216 -4.85385 -0.816211 0
M  V30 4135 N 413.868 0.0150385 -1.57593 0
M  V30 4136 C 414.815 1.01126 -2.07466 0
M  V30 4137 C 415.785 1.35064 -0.966794 0
M  V30 4138 O 416.97 1.4516 -1.23827 0
M  V30 4139 C 414.11 2.30276 -2.57035 0
M  V30 4140 C 413.223 2.02373 -3.81666 0
M  V30 4141 C 412.358 3.25496 -4.19793 0
M  V30 4142 C 411.397 2.93211 -5.37303 0
M  V30 4143 N 410.534 4.08826 -5.70794 0
M  V30 4144 H 415.374 0.57901 -2.92321 0
M  V30 4145 H 412.911 0.27426 -1.44521 0
M  V30 4146 H 414.869 3.05757 -2.83846 0
M  V30 4147 H 413.499 2.71197 -1.75077 0
M  V30 4148 H 412.551 1.17327 -3.61854 0
M  V30 4149 H 413.863 1.74567 -4.67256 0
M  V30 4150 H 413.017 4.09333 -4.47807 0
M  V30 4151 H 411.756 3.56428 -3.32882 0
M  V30 4152 H 410.761 2.07777 -5.09027 0
M  V30 4153 H 411.986 2.63542 -6.25877 0
M  V30 4154 H 409.932 4.39682 -4.86842 0
M  V30 4155 H 409.849 3.84491 -6.50924 0
M  V30 4156 H 411.117 4.93496 -6.03392 0
M  V30 4157 N 415.346 1.54954 0.287554 0
M  V30 4158 C 416.592 1.75132 1.02257 0
M  V30 4159 C 416.925 0.542858 1.86458 0
M  V30 4160 O 416.2 -0.459856 1.88986 0
M  V30 4161 C 416.483 3.04812 1.91733 0
M  V30 4162 C 416.336 4.35985 1.10622 0
M  V30 4163 C 417.655 3.30438 2.90687 0
M  V30 4164 H 414.774 0.637194 0.370341 0
M  V30 4165 H 417.416 1.87678 0.296111 0
M  V30 4166 H 415.566 2.94247 2.53675 0
M  V30 4167 H 417.238 4.58487 0.508636 0
M  V30 4168 H 415.481 4.31865 0.409271 0
M  V30 4169 H 416.152 5.23017 1.76513 0
M  V30 4170 H 418.628 3.40701 2.38877 0
M  V30 4171 H 417.504 4.22467 3.50447 0
M  V30 4172 H 417.765 2.49377 3.65053 0
M  V30 4173 N 416.824 -0.551391 1.4764 0
M  V30 4174 C 417.756 -1.67333 1.56628 0
M  V30 4175 C 418.769 -1.56398 0.452045 0
M  V30 4176 O 419.958 -1.6325 0.721926 0
M  V30 4177 C 417.058 -3.05841 1.45994 0
M  V30 4178 C 416.231 -3.42472 2.72088 0
M  V30 4179 C 415.29 -4.60168 2.55209 0
M  V30 4180 O 414.316 -4.64458 3.2904 0
M  V30 4181 N 415.518 -5.57024 1.63416 0
M  V30 4182 H 418.283 -1.60066 2.53375 0
M  V30 4183 H 415.844 -0.738169 1.44093 0
M  V30 4184 H 417.836 -3.8242 1.32428 0
M  V30 4185 H 416.406 -3.07302 0.573071 0
M  V30 4186 H 415.626 -2.55284 3.00373 0
M  V30 4187 H 416.914 -3.63723 3.55785 0
M  V30 4188 H 416.312 -5.56319 1.02594 0
M  V30 4189 H 414.869 -6.32906 1.558 0
M  V30 4190 N 418.302 -1.35869 -0.798587 0
M  V30 4191 C 419.265 -1.29307 -1.89242 0
M  V30 4192 C 420.265 -0.202747 -1.59517 0
M  V30 4193 O 421.455 -0.456957 -1.681 0
M  V30 4194 C 418.587 -1.00229 -3.25833 0
M  V30 4195 H 419.78 -2.26576 -1.96478 0
M  V30 4196 H 417.333 -1.20509 -0.995358 0
M  V30 4197 H 418.068 -0.033801 -3.24282 0
M  V30 4198 H 417.853 -1.79121 -3.48795 0
M  V30 4199 H 419.343 -0.98219 -4.05885 0
M  V30 4200 N 419.78 1.02168 -1.19998 0
M  V30 4201 C 420.727 2.10601 -0.944228 0
M  V30 4202 C 421.697 1.65639 0.123664 0
M  V30 4203 O 422.882 1.9079 -0.0199941 0
M  V30 4204 C 420.022 3.41504 -0.496865 0
M  V30 4205 C 419.135 3.99973 -1.63234 0
M  V30 4206 C 418.27 5.18915 -1.13579 0
M  V30 4207 C 417.309 5.69456 -2.24468 0
M  V30 4208 N 416.446 6.79665 -1.76068 0
M  V30 4209 H 421.286 2.31814 -1.8726 0
M  V30 4210 H 418.823 1.13686 -0.933483 0
M  V30 4211 H 420.781 4.16626 -0.218843 0
M  V30 4212 H 419.411 3.2038 0.394508 0
M  V30 4213 H 418.463 3.21997 -2.0254 0
M  V30 4214 H 419.775 4.33492 -2.46752 0
M  V30 4215 H 418.929 6.01222 -0.813429 0
M  V30 4216 H 417.668 4.8695 -0.270434 0
M  V30 4217 H 416.673 4.85757 -2.57526 0
M  V30 4218 H 417.898 6.03459 -3.11472 0
M  V30 4219 H 415.844 6.49538 -0.918516 0
M  V30 4220 H 415.761 7.12349 -2.5317 0
M  V30 4221 H 417.029 7.65549 -1.46817 0
M  V30 4222 N 421.258 1.00505 1.21394 0
M  V30 4223 C 422.488 0.705584 1.94178 0
M  V30 4224 C 422.896 -0.735846 1.74304 0
M  V30 4225 O 422.239 -1.50954 1.04683 0
M  V30 4226 C 422.301 0.94689 3.46806 0
M  V30 4227 C 421.965 2.37517 3.90429 0
M  V30 4228 C 422.962 3.35539 3.97127 0
M  V30 4229 C 420.647 2.71284 4.22742 0
M  V30 4230 C 422.641 4.65395 4.3553 0
M  V30 4231 C 420.328 4.01356 4.60822 0
M  V30 4232 C 421.326 4.98223 4.67186 0
M  V30 4233 O 421.014 6.25969 5.04399 0
M  V30 4234 H 420.746 0.259216 0.624326 0
M  V30 4235 H 423.3 1.34592 1.55159 0
M  V30 4236 H 421.53 0.249386 3.85895 0
M  V30 4237 H 423.219 0.640804 4.0081 0
M  V30 4238 H 423.985 3.10786 3.7234 0
M  V30 4239 H 419.864 1.96581 4.16985 0
M  V30 4240 H 423.408 5.41002 4.40412 0
M  V30 4241 H 419.305 4.25893 4.85063 0
M  V30 4242 H 420.073 6.30085 5.22431 0
M  V30 4243 N 422.737 -1.36956 0.779787 0
M  V30 4244 C 424.148 -1.82094 0.412156 0
M  V30 4245 C 424.499 -1.64926 -1.06273 0
M  V30 4246 O 423.624 -1.16483 -1.82375 0
M  V30 4247 C 424.219 -3.3059 0.741319 0
M  V30 4248 C 422.778 -3.73974 0.426641 0
M  V30 4249 C 421.925 -2.59368 0.980987 0
M  V30 4250 H 424.876 -1.25314 0.973758 0
M  V30 4251 H 424.897 -3.80489 0.028887 0
M  V30 4252 H 424.409 -3.43054 1.81482 0
M  V30 4253 H 422.51 -3.67076 -0.639215 0
M  V30 4254 H 422.623 -4.69778 0.940515 0
M  V30 4255 H 420.987 -2.51463 0.404757 0
M  V30 4256 H 421.77 -2.74621 2.06005 0
M  V30 4257 N 424.215 -0.530993 -1.48385 0
M  V30 4258 C 425.461 0.00274135 -2.028 0
M  V30 4259 C 425.794 1.33838 -1.40716 0
M  V30 4260 O 425.069 1.86465 -0.553277 0
M  V30 4261 C 425.352 0.123676 -3.59888 0
M  V30 4262 C 425.205 -1.2372 -4.3245 0
M  V30 4263 C 426.524 0.849967 -4.31814 0
M  V30 4264 H 423.643 -0.000477758 -0.737 0
M  V30 4265 H 426.285 -0.688217 -1.77098 0
M  V30 4266 H 424.435 0.712157 -3.81917 0
M  V30 4267 H 426.107 -1.86687 -4.21836 0
M  V30 4268 H 424.35 -1.81882 -3.93829 0
M  V30 4269 H 425.021 -1.10557 -5.40815 0
M  V30 4270 H 427.497 0.350572 -4.14621 0
M  V30 4271 H 426.373 0.903486 -5.41413 0
M  V30 4272 H 426.634 1.90047 -3.99167 0
M  V30 4273 N 425.693 1.55336 -0.266172 0
M  V30 4274 C 426.97 1.91372 0.404486 0
M  V30 4275 C 427.35 1.18935 1.74407 0
M  V30 4276 O 426.698 0.3132 2.26343 0
M  V30 4277 C 426.908 3.44581 0.553593 0
M  V30 4278 C 428.256 4.16196 0.840618 0
M  V30 4279 O 429.28 3.50426 0.638739 0
M  V30 4280 O 428.139 5.32567 1.22618 0
M  V30 4281 H 425.233 0.797194 0.220025 0
M  V30 4282 H 427.779 1.66813 -0.311664 0
M  V30 4283 H 426.551 3.89357 -0.389498 0
M  V30 4284 H 426.174 3.75065 1.31955 0
M  V30 4285 N 427.171 -0.0066808 1.57599 0
M  V30 4286 C 428.101 -0.999296 2.11036 0
M  V30 4287 C 429.082 -1.36278 1.01795 0
M  V30 4288 O 430.267 -1.4477 1.29442 0
M  V30 4289 C 427.397 -2.29328 2.60818 0
M  V30 4290 C 426.351 -2.07159 3.74525 0
M  V30 4291 C 425.677 -3.42512 4.10596 0
M  V30 4292 C 426.977 -1.43959 5.02069 0
M  V30 4293 H 428.671 -0.554382 2.94223 0
M  V30 4294 H 426.217 -0.265221 1.41536 0
M  V30 4295 H 428.17 -2.99117 2.96828 0
M  V30 4296 H 426.894 -2.7592 1.74745 0
M  V30 4297 H 425.553 -1.39797 3.38899 0
M  V30 4298 H 425.201 -3.86795 3.21556 0
M  V30 4299 H 424.901 -3.28498 4.87199 0
M  V30 4300 H 426.425 -4.13628 4.4916 0
M  V30 4301 H 427.839 -2.03696 5.35893 0
M  V30 4302 H 426.236 -1.40452 5.83432 0
M  V30 4303 H 427.306 -0.407992 4.83181 0
M  V30 4304 N 428.649 -1.55105 -0.279332 0
M  V30 4305 C 429.596 -1.8755 -1.34513 0
M  V30 4306 C 430.566 -0.726384 -1.49375 0
M  V30 4307 O 431.751 -0.977063 -1.63884 0
M  V30 4308 C 428.891 -2.14738 -2.70151 0
M  V30 4309 C 428.004 -3.42285 -2.63562 0
M  V30 4310 C 427.139 -3.59206 -3.91337 0
M  V30 4311 C 426.178 -4.80467 -3.79233 0
M  V30 4312 N 425.315 -4.94079 -4.98829 0
M  V30 4313 H 430.155 -2.78456 -1.06143 0
M  V30 4314 H 427.692 -1.37867 -0.512936 0
M  V30 4315 H 429.65 -2.28501 -3.49061 0
M  V30 4316 H 428.28 -1.27075 -2.96735 0
M  V30 4317 H 427.332 -3.37029 -1.76397 0
M  V30 4318 H 428.644 -4.31328 -2.50515 0
M  V30 4319 H 427.798 -3.72751 -4.78687 0
M  V30 4320 H 426.537 -2.68337 -4.07243 0
M  V30 4321 H 425.542 -4.66932 -2.90266 0
M  V30 4322 H 426.767 -5.72765 -3.64852 0
M  V30 4323 H 424.713 -4.06139 -5.15158 0
M  V30 4324 H 424.63 -5.77156 -4.8829 0
M  V30 4325 H 425.898 -5.12003 -5.8777 0
M  V30 4326 N 430.127 0.543554 -1.4793 0
M  V30 4327 C 431.057 1.65888 -1.64327 0
M  V30 4328 C 432.038 1.62818 -0.492383 0
M  V30 4329 O 433.223 1.80226 -0.723338 0
M  V30 4330 C 430.353 3.04506 -1.67013 0
M  V30 4331 C 429.307 3.2243 -2.81466 0
M  V30 4332 C 428.633 4.61972 -2.69233 0
M  V30 4333 C 429.933 3.06496 -4.22915 0
M  V30 4334 H 431.627 1.52421 -2.57698 0
M  V30 4335 H 429.173 0.731849 -1.24016 0
M  V30 4336 H 431.126 3.82391 -1.77074 0
M  V30 4337 H 429.85 3.18964 -0.70212 0
M  V30 4338 H 428.509 2.46957 -2.70938 0
M  V30 4339 H 428.157 4.73247 -1.7043 0
M  V30 4340 H 427.857 4.74911 -3.46025 0
M  V30 4341 H 429.381 5.41974 -2.81242 0
M  V30 4342 H 430.795 3.74186 -4.34348 0
M  V30 4343 H 429.192 3.30938 -5.006 0
M  V30 4344 H 430.262 2.03077 -4.40327 0
M  V30 4345 N 431.605 1.3629 0.791371 0
M  V30 4346 C 432.851 1.30605 1.55146 0
M  V30 4347 C 433.184 -0.115042 1.93859 0
M  V30 4348 O 432.459 -1.06798 1.62556 0
M  V30 4349 C 432.742 2.22692 2.82985 0
M  V30 4350 C 432.595 3.73489 2.50651 0
M  V30 4351 C 433.914 2.13588 3.84796 0
M  V30 4352 H 431.033 0.475761 0.562868 0
M  V30 4353 H 433.675 1.66825 0.909358 0
M  V30 4354 H 431.825 1.91933 3.37778 0
M  V30 4355 H 433.497 4.14758 2.01924 0
M  V30 4356 H 431.74 3.93021 1.83622 0
M  V30 4357 H 432.411 4.3333 3.41949 0
M  V30 4358 H 434.887 2.40659 3.39445 0
M  V30 4359 H 433.763 2.80195 4.71998 0
M  V30 4360 H 434.024 1.12256 4.27611 0
M  V30 4361 N 433.083 -1.0153 1.20538 0
M  V30 4362 C 434.329 -1.75408 1.01783 0
M  V30 4363 C 434.662 -1.88943 -0.448814 0
M  V30 4364 O 433.937 -1.4162 -1.33319 0
M  V30 4365 C 434.22 -3.17255 1.70356 0
M  V30 4366 C 434.073 -3.11508 3.24473 0
M  V30 4367 C 435.392 -4.15955 1.43769 0
M  V30 4368 H 432.511 -0.636713 0.371167 0
M  V30 4369 H 435.153 -1.18436 1.4857 0
M  V30 4370 H 433.303 -3.65898 1.30578 0
M  V30 4371 H 434.975 -2.70658 3.73553 0
M  V30 4372 H 433.218 -2.4887 3.55311 0
M  V30 4373 H 433.889 -4.11784 3.67611 0
M  V30 4374 H 436.365 -3.75973 1.7828 0
M  V30 4375 H 435.241 -5.13368 1.94279 0
M  V30 4376 H 435.502 -4.40586 0.365564 0
M  V30 4377 N 434.561 -1.01147 -1.20859 0
M  V30 4378 C 435.508 -0.577354 -2.23462 0
M  V30 4379 C 436.478 0.399922 -1.61214 0
M  V30 4380 O 437.663 0.300515 -1.88419 0
M  V30 4381 C 434.803 0.083372 -3.44999 0
M  V30 4382 C 433.916 -0.937856 -4.21697 0
M  V30 4383 C 433.051 -0.248717 -5.30617 0
M  V30 4384 C 432.09 -1.25705 -5.99053 0
M  V30 4385 N 431.227 -0.594939 -6.99575 0
M  V30 4386 H 436.067 -1.45695 -2.59956 0
M  V30 4387 H 433.604 -0.729428 -1.27741 0
M  V30 4388 H 435.562 0.483535 -4.14388 0
M  V30 4389 H 434.192 0.926645 -3.09214 0
M  V30 4390 H 433.244 -1.45622 -3.51423 0
M  V30 4391 H 434.556 -1.70493 -4.68757 0
M  V30 4392 H 433.71 0.207215 -6.06346 0
M  V30 4393 H 432.449 0.55071 -4.84581 0
M  V30 4394 H 431.454 -1.72343 -5.2209 0
M  V30 4395 H 432.679 -2.05767 -6.47176 0
M  V30 4396 H 430.625 0.184713 -6.5574 0
M  V30 4397 H 430.542 -1.30017 -7.44736 0
M  V30 4398 H 431.81 -0.162427 -7.79331 0
M  V30 4399 N 436.039 1.36541 -0.78704 0
M  V30 4400 C 436.971 2.28761 -0.141773 0
M  V30 4401 C 437.984 1.49365 0.647599 0
M  V30 4402 O 439.173 1.71836 0.483173 0
M  V30 4403 C 436.273 3.28771 0.822368 0
M  V30 4404 C 435.446 4.3732 0.0835594 0
M  V30 4405 C 434.505 5.17307 0.963296 0
M  V30 4406 O 433.531 5.67638 0.421419 0
M  V30 4407 N 434.733 5.33515 2.28784 0
M  V30 4408 H 437.498 2.84777 -0.933919 0
M  V30 4409 H 435.059 1.48682 -0.640735 0
M  V30 4410 H 437.051 3.79169 1.41468 0
M  V30 4411 H 435.621 2.73412 1.5154 0
M  V30 4412 H 434.841 3.88118 -0.689809 0
M  V30 4413 H 436.129 5.0701 -0.426358 0
M  V30 4414 H 435.527 4.94234 2.75226 0
M  V30 4415 H 434.084 5.87165 2.82985 0
M  V30 4416 O 437.556 0.680126 1.4648 0
M  V30 4417 H 438.247 0.213972 1.92515 0
M  V30 END ATOM
M  V30 BEGIN BOND
M  V30 END BOND
M  V30 END CTAB
M  END
$$$$
