drugbank_target|O00238 Bone morphogenetic protein receptor type-1B (DB12010)
 OpenBabel12092121143D

  0  0  0     0  0            999 V3000
M  V30 BEGIN CTAB
M  V30 COUNTS 19999 21454 0 0 0
M  V30 BEGIN ATOM
M  V30 1 H -1.547 9.37743 -1.21644 0
M  V30 2 O -1.44 8.89599 -0.40059 0
M  V30 3 P 0 8.91 0 0
M  V30 4 O 0.22 10.1746 0.733838 0
M  V30 5 O 0.79 8.73346 -1.23964 0
M  V30 6 O 0.25 7.66872 0.971405 0
M  V30 7 C -0.69 7.42405 2.04668 0
M  V30 8 C 0.04 6.86059 3.24661 0
M  V30 9 O 0.25 5.42934 3.03695 0
M  V30 10 C 1.44 7.41287 3.50796 0
M  V30 11 O 1.83 7.27073 4.86816 0
M  V30 12 C 2.32 6.5273 2.63741 0
M  V30 13 C 1.61 5.1842 2.73198 0
M  V30 14 N 1.66 4.38762 1.4784 0
M  V30 15 H -1.178 8.36899 2.3252 0
M  V30 16 H -1.45 6.70391 1.71179 0
M  V30 17 H -0.582 7.03638 4.13219 0
M  V30 18 H 2.073 4.59931 3.54016 0
M  V30 19 H 2.353 6.88995 1.59871 0
M  V30 20 H 3.344 6.4684 3.0373 0
M  V30 21 H 1.51 8.47002 3.20749 0
M  V30 22 P 3.37998 7.20834 5.23717 0
M  V30 23 O 3.59998 7.79853 6.57286 0
M  V30 24 O 4.16998 7.79239 4.12957 0
M  V30 25 O 3.62998 5.63315 5.29344 0
M  V30 26 C 2.68998 4.80255 6.01876 0
M  V30 27 C 3.41998 3.64202 6.65911 0
M  V30 28 O 3.62998 2.60694 5.64732 0
M  V30 29 C 4.81998 3.93473 7.1943 0
M  V30 30 O 5.20998 3.02071 8.21205 0
M  V30 31 C 5.69998 3.73047 5.97036 0
M  V30 32 C 4.98998 2.58828 5.25741 0
M  V30 33 N 5.03998 2.68068 3.77503 0
M  V30 34 H 2.20098 5.40332 6.79951 0
M  V30 35 H 1.93098 4.41613 5.32378 0
M  V30 36 H 2.79798 3.26331 7.47797 0
M  V30 37 P 6.75996 2.75334 8.47391 0
M  V30 38 O 6.97996 2.44571 9.90142 0
M  V30 39 O 7.54996 3.87688 7.92115 0
M  V30 40 O 7.00996 1.4459 7.59357 0
M  V30 41 C 6.06996 0.347608 7.69215 0
M  V30 42 C 6.79996 -0.96767 7.52806 0
M  V30 43 O 7.00996 -1.21036 6.1011 0
M  V30 44 C 8.19996 -1.04544 8.13308 0
M  V30 45 O 8.58996 -2.38311 8.41922 0
M  V30 46 C 9.07996 -0.491279 7.02284 0
M  V30 47 C 8.36996 -0.996264 5.77469 0
M  V30 48 N 8.41996 -0.0501916 4.62973 0
M  V30 49 H 5.58096 0.374722 8.67691 0
M  V30 50 H 5.31096 0.443485 6.90277 0
M  V30 51 H 6.17796 -1.75537 7.96793 0
M  V30 52 P 10.1399 -2.75334 8.47391 0
M  V30 53 O 10.3599 -3.84128 9.44797 0
M  V30 54 O 10.9299 -1.51947 8.68712 0
M  V30 55 O 10.3899 -3.29363 6.99321 0
M  V30 56 C 9.44994 -4.24011 6.4274 0
M  V30 57 C 10.1799 -5.20775 5.52155 0
M  V30 58 O 10.3899 -4.56534 4.22446 0
M  V30 59 C 11.5799 -5.62629 5.96531 0
M  V30 60 O 11.9699 -6.87667 5.41053 0
M  V30 61 C 12.4599 -4.52537 5.39283 0
M  V30 62 C 11.7499 -4.20027 4.08623 0
M  V30 63 N 11.7999 -2.76189 3.71603 0
M  V30 64 C 11.7199 -1.64862 4.52822 0
M  V30 65 N 11.7999 -0.512671 3.88633 0
M  V30 66 C 11.9399 -0.888083 2.54977 0
M  V30 67 C 12.0699 -0.094668 1.38677 0
M  V30 68 N 12.1899 -0.890102 0.232633 0
M  V30 69 C 12.1899 -2.26958 0.21772 0
M  V30 70 N 12.3199 -2.84626 -0.97925 0
M  V30 71 N 12.0599 -3.0178 1.31033 0
M  V30 72 C 11.9399 -2.26781 2.43843 0
M  V30 73 H 8.96094 -4.797 7.24003 0
M  V30 74 H 8.69094 -3.69856 5.84513 0
M  V30 75 H 9.55794 -6.10356 5.41441 0
M  V30 76 P 13.5199 -7.20834 5.23717 0
M  V30 77 O 13.7399 -8.66104 5.38572 0
M  V30 78 O 14.3099 -6.33544 6.1349 0
M  V30 79 O 13.7699 -6.7751 3.72168 0
M  V30 80 C 12.8299 -7.20825 2.7076 0
M  V30 81 C 13.5599 -7.45864 1.40599 0
M  V30 82 O 13.7699 -6.17651 0.734225 0
M  V30 83 C 14.9599 -8.05808 1.51899 0
M  V30 84 O 15.3499 -8.74358 0.335205 0
M  V30 85 C 15.8399 -6.83093 1.70294 0
M  V30 86 C 15.1299 -5.79992 0.836974 0
M  V30 87 N 15.1799 -4.41864 1.38293 0
M  V30 88 H 12.3409 -8.13644 3.0377 0
M  V30 89 H 12.0709 -6.42788 2.55485 0
M  V30 90 H 12.9379 -8.12039 0.792769 0
M  V30 91 P 16.8999 -8.91 1.09116e-15 0
M  V30 92 O 17.1199 -10.1746 -0.733838 0
M  V30 93 O 17.6899 -8.73346 1.23964 0
M  V30 94 O 17.1499 -7.66872 -0.971405 0
M  V30 95 C 16.2099 -7.42405 -2.04668 0
M  V30 96 C 16.9399 -6.86059 -3.24661 0
M  V30 97 O 17.1499 -5.42934 -3.03695 0
M  V30 98 C 18.3399 -7.41287 -3.50796 0
M  V30 99 O 18.7299 -7.27073 -4.86816 0
M  V30 100 C 19.2199 -6.5273 -2.63741 0
M  V30 101 C 18.5099 -5.1842 -2.73198 0
M  V30 102 N 18.5599 -4.38762 -1.4784 0
M  V30 103 C 18.4799 -4.83651 -0.183876 0
M  V30 104 N 18.5499 -3.88759 0.699393 0
M  V30 105 C 18.6999 -2.7404 -0.0575568 0
M  V30 106 C 18.8299 -1.37902 0.293928 0
M  V30 107 N 18.8399 -0.938021 1.54797 0
M  V30 108 N 18.9499 -0.491817 -0.70549 0
M  V30 109 C 18.9399 -0.931735 -1.95979 0
M  V30 110 N 18.8199 -2.16017 -2.41481 0
M  V30 111 C 18.6999 -3.02547 -1.39121 0
M  V30 112 H 15.7219 -8.36899 -2.3252 0
M  V30 113 H 15.4499 -6.70391 -1.71179 0
M  V30 114 H 16.3179 -7.03638 -4.13219 0
M  V30 115 H 18.9729 -4.59931 -3.54016 0
M  V30 116 H 19.2529 -6.88995 -1.59871 0
M  V30 117 H 20.2439 -6.4684 -3.0373 0
M  V30 118 H 18.4099 -8.47002 -3.20749 0
M  V30 119 H 18.3689 -5.8885 0.0765548 0
M  V30 120 H 18.7499 -1.60276 2.32875 0
M  V30 121 H 18.9389 0.0699355 1.73859 0
M  V30 122 H 19.0469 -0.165507 -2.71897 0
M  V30 123 P 20.2799 -7.20834 -5.23717 0
M  V30 124 O 20.4999 -7.79853 -6.57286 0
M  V30 125 O 21.0699 -7.79239 -4.12957 0
M  V30 126 O 20.5299 -5.63315 -5.29344 0
M  V30 127 C 19.5899 -4.80255 -6.01876 0
M  V30 128 C 20.3199 -3.64202 -6.65911 0
M  V30 129 O 20.5299 -2.60694 -5.64732 0
M  V30 130 C 21.7199 -3.93473 -7.1943 0
M  V30 131 O 22.1099 -3.02071 -8.21205 0
M  V30 132 C 22.5999 -3.73047 -5.97036 0
M  V30 133 C 21.8899 -2.58828 -5.25741 0
M  V30 134 N 21.9399 -2.68068 -3.77503 0
M  V30 135 C 21.8599 -3.79715 -2.96723 0
M  V30 136 N 21.9399 -3.5377 -1.68852 0
M  V30 137 C 22.0799 -2.15054 -1.63254 0
M  V30 138 C 22.2099 -1.28964 -0.518571 0
M  V30 139 O 22.2299 -1.56826 0.679156 0
M  V30 140 N 22.3299 0.0538097 -0.918425 0
M  V30 141 C 22.3299 0.494275 -2.22578 0
M  V30 142 N 22.4599 1.81086 -2.40434 0
M  V30 143 N 22.1999 -0.313645 -3.27502 0
M  V30 144 C 22.0799 -1.61829 -2.91033 0
M  V30 145 H 19.1009 -5.40332 -6.79951 0
M  V30 146 H 18.8309 -4.41613 -5.32378 0
M  V30 147 H 19.6979 -3.26331 -7.47797 0
M  V30 148 H 22.3529 -1.63422 -5.56814 0
M  V30 149 H 22.6319 -4.63374 -5.34244 0
M  V30 150 H 23.6239 -3.44728 -6.25838 0
M  V30 151 H 21.7899 -4.96652 -7.57263 0
M  V30 152 H 21.7409 -4.80617 -3.3614 0
M  V30 153 H 22.4229 0.742702 -0.199384 0
M  V30 154 H 22.4599 2.20598 -3.35588 0
M  V30 155 H 22.5609 2.43518 -1.58945 0
M  V30 156 P 23.6599 -2.75334 -8.47391 0
M  V30 157 O 23.8799 -2.44571 -9.90142 0
M  V30 158 O 24.4499 -3.87688 -7.92115 0
M  V30 159 O 23.9099 -1.4459 -7.59357 0
M  V30 160 C 22.9699 -0.347608 -7.69215 0
M  V30 161 C 23.6999 0.96767 -7.52806 0
M  V30 162 O 23.9099 1.21036 -6.1011 0
M  V30 163 C 25.0999 1.04544 -8.13308 0
M  V30 164 O 25.4899 2.38311 -8.41922 0
M  V30 165 C 25.9799 0.491279 -7.02284 0
M  V30 166 C 25.2699 0.996264 -5.77469 0
M  V30 167 N 25.3199 0.0501916 -4.62973 0
M  V30 168 H 22.4809 -0.374722 -8.67691 0
M  V30 169 H 22.2109 -0.443485 -6.90277 0
M  V30 170 H 23.0779 1.75537 -7.96793 0
M  V30 171 P 27.0398 2.75334 -8.47391 0
M  V30 172 O 27.2598 3.84128 -9.44797 0
M  V30 173 O 27.8298 1.51947 -8.68712 0
M  V30 174 O 27.2898 3.29363 -6.99321 0
M  V30 175 C 26.3498 4.24011 -6.4274 0
M  V30 176 C 27.0798 5.20775 -5.52155 0
M  V30 177 O 27.2898 4.56534 -4.22446 0
M  V30 178 C 28.4798 5.62629 -5.96531 0
M  V30 179 O 28.8698 6.87667 -5.41053 0
M  V30 180 C 29.3598 4.52537 -5.39283 0
M  V30 181 C 28.6498 4.20027 -4.08623 0
M  V30 182 N 28.6998 2.76189 -3.71603 0
M  V30 183 H 25.8608 4.797 -7.24003 0
M  V30 184 H 25.5908 3.69856 -5.84513 0
M  V30 185 H 26.4578 6.10356 -5.41441 0
M  V30 186 P 30.4198 7.20834 -5.23717 0
M  V30 187 O 30.6398 8.66104 -5.38572 0
M  V30 188 O 31.2098 6.33544 -6.1349 0
M  V30 189 O 30.6698 6.7751 -3.72168 0
M  V30 190 C 29.7298 7.20825 -2.7076 0
M  V30 191 C 30.4598 7.45864 -1.40599 0
M  V30 192 O 30.6698 6.17651 -0.734225 0
M  V30 193 C 31.8598 8.05808 -1.51899 0
M  V30 194 O 32.2498 8.74358 -0.335205 0
M  V30 195 C 32.7398 6.83093 -1.70294 0
M  V30 196 C 32.0298 5.79992 -0.836974 0
M  V30 197 N 32.0798 4.41864 -1.38293 0
M  V30 198 H 29.2408 8.13644 -3.0377 0
M  V30 199 H 28.9708 6.42788 -2.55485 0
M  V30 200 H 29.8378 8.12039 -0.792769 0
M  V30 201 P 33.7998 8.91 -2.18232e-15 0
M  V30 202 O 34.0198 10.1726 0.733694 0
M  V30 203 O 34.5898 8.73148 -1.23936 0
M  V30 204 O 34.0498 7.66872 0.971405 0
M  V30 205 C 33.1098 7.42309 2.04641 0
M  V30 206 C 33.8398 6.86059 3.24661 0
M  V30 207 O 34.0498 5.42847 3.03646 0
M  V30 208 C 35.2398 7.41196 3.50753 0
M  V30 209 O 35.6298 7.27073 4.86816 0
M  V30 210 C 36.1198 6.5273 2.63741 0
M  V30 211 C 35.4098 5.1842 2.73198 0
M  V30 212 N 35.4598 4.38762 1.4784 0
M  V30 213 H 32.6208 8.36803 2.32493 0
M  V30 214 H 32.3508 6.70197 1.71129 0
M  V30 215 H 33.2178 7.03551 4.13168 0
M  V30 216 P 37.1798 7.20834 5.23717 0
M  V30 217 O 37.3998 7.79853 6.57286 0
M  V30 218 O 37.9698 7.79239 4.12957 0
M  V30 219 O 37.4298 5.63315 5.29344 0
M  V30 220 C 36.4898 4.80255 6.01876 0
M  V30 221 C 37.2198 3.64202 6.65911 0
M  V30 222 O 37.4298 2.60694 5.64732 0
M  V30 223 C 38.6198 3.93473 7.1943 0
M  V30 224 O 39.0098 3.02071 8.21205 0
M  V30 225 C 39.4998 3.73047 5.97036 0
M  V30 226 C 38.7898 2.58828 5.25741 0
M  V30 227 N 38.8398 2.68068 3.77503 0
M  V30 228 C 38.7598 3.79715 2.96723 0
M  V30 229 N 38.8398 3.5377 1.68852 0
M  V30 230 C 38.9798 2.15054 1.63254 0
M  V30 231 C 39.1098 1.28964 0.518571 0
M  V30 232 O 39.1298 1.56826 -0.679156 0
M  V30 233 N 39.2298 -0.0538097 0.918425 0
M  V30 234 C 39.2298 -0.494275 2.22578 0
M  V30 235 N 39.3598 -1.81086 2.40434 0
M  V30 236 N 39.0998 0.313645 3.27502 0
M  V30 237 C 38.9798 1.61829 2.91033 0
M  V30 238 H 36.0008 5.40332 6.79951 0
M  V30 239 H 35.7308 4.41613 5.32378 0
M  V30 240 H 36.5978 3.26331 7.47797 0
M  V30 241 H 39.2528 1.63422 5.56814 0
M  V30 242 H 39.5318 4.63374 5.34244 0
M  V30 243 H 40.5238 3.44728 6.25838 0
M  V30 244 H 38.6898 4.96652 7.57263 0
M  V30 245 H 38.6408 4.80617 3.3614 0
M  V30 246 H 39.3228 -0.742702 0.199384 0
M  V30 247 H 39.3598 -2.20598 3.35588 0
M  V30 248 H 39.4608 -2.43518 1.58945 0
M  V30 249 P 40.5598 2.75334 8.47391 0
M  V30 250 O 40.7798 2.44595 9.90239 0
M  V30 251 O 41.3498 3.87732 7.92204 0
M  V30 252 O 40.8098 1.4459 7.59357 0
M  V30 253 C 39.8698 0.347563 7.69115 0
M  V30 254 C 40.5998 -0.96767 7.52806 0
M  V30 255 O 40.8098 -1.21036 6.1011 0
M  V30 256 C 41.9998 -1.04544 8.13308 0
M  V30 257 O 42.3898 -2.38311 8.41922 0
M  V30 258 C 42.8798 -0.491279 7.02284 0
M  V30 259 C 42.1698 -0.996264 5.77469 0
M  V30 260 N 42.2198 -0.0501808 4.62873 0
M  V30 261 C 42.3698 -0.588177 3.36904 0
M  V30 262 O 42.4598 -1.78598 3.17173 0
M  V30 263 N 42.4098 0.329694 2.33686 0
M  V30 264 C 42.3198 1.6953 2.45079 0
M  V30 265 O 42.3698 2.41926 1.44899 0
M  V30 266 C 42.1698 2.16933 3.80505 0
M  V30 267 C 42.0598 3.65373 3.97621 0
M  V30 268 C 42.1198 1.30326 4.83752 0
M  V30 269 H 39.3798 0.374722 8.67691 0
M  V30 270 H 39.1108 0.443421 6.90177 0
M  V30 271 H 39.9778 -1.75537 7.96793 0
M  V30 272 H 42.6328 -1.94496 5.46629 0
M  V30 273 H 42.9118 0.608651 7.04676 0
M  V30 274 H 43.9038 -0.889672 7.08939 0
M  V30 275 H 42.0698 -0.43308 9.04564 0
M  V30 276 H 41.9988 1.68366 5.8516 0
M  V30 277 H 43.0288 4.05985 4.30448 0
M  V30 278 H 41.2918 3.88028 4.72875 0
M  V30 279 H 41.7798 4.11381 3.01609 0
M  V30 280 H 42.5158 -0.0393617 1.41345 0
M  V30 281 P 43.9397 -2.75334 8.47391 0
M  V30 282 O 44.1597 -3.84128 9.44797 0
M  V30 283 O 44.7297 -1.51947 8.68712 0
M  V30 284 O 44.1897 -3.29363 6.99321 0
M  V30 285 C 43.2497 -4.24011 6.4274 0
M  V30 286 C 43.9797 -5.20775 5.52155 0
M  V30 287 O 44.1897 -4.56534 4.22446 0
M  V30 288 C 45.3797 -5.62629 5.96531 0
M  V30 289 O 45.7697 -6.87667 5.41053 0
M  V30 290 C 46.2597 -4.52537 5.39283 0
M  V30 291 C 45.5497 -4.20027 4.08623 0
M  V30 292 N 45.5997 -2.76189 3.71603 0
M  V30 293 H 42.7607 -4.797 7.24003 0
M  V30 294 H 42.4907 -3.69856 5.84513 0
M  V30 295 H 43.3577 -6.10356 5.41441 0
M  V30 296 P 47.3197 -7.20834 5.23717 0
M  V30 297 O 47.5397 -8.66104 5.38572 0
M  V30 298 O 48.1097 -6.33544 6.1349 0
M  V30 299 O 47.5697 -6.7751 3.72168 0
M  V30 300 C 46.6297 -7.20825 2.7076 0
M  V30 301 C 47.3597 -7.45864 1.40599 0
M  V30 302 O 47.5697 -6.17651 0.734225 0
M  V30 303 C 48.7597 -8.05808 1.51899 0
M  V30 304 O 49.1497 -8.74358 0.335205 0
M  V30 305 C 49.6397 -6.83093 1.70294 0
M  V30 306 C 48.9297 -5.79992 0.836974 0
M  V30 307 N 48.9797 -4.41864 1.38293 0
M  V30 308 H 46.1407 -8.13644 3.0377 0
M  V30 309 H 45.8707 -6.42788 2.55485 0
M  V30 310 H 46.7377 -8.12039 0.792769 0
M  V30 311 P 50.6997 -8.91 3.27348e-15 0
M  V30 312 O 50.9197 -10.1726 -0.733694 0
M  V30 313 O 51.4897 -8.73148 1.23936 0
M  V30 314 O 50.9497 -7.66872 -0.971405 0
M  V30 315 C 50.0097 -7.42309 -2.04641 0
M  V30 316 C 50.7397 -6.86059 -3.24661 0
M  V30 317 O 50.9497 -5.42847 -3.03646 0
M  V30 318 C 52.1397 -7.41196 -3.50753 0
M  V30 319 O 52.5297 -7.27073 -4.86816 0
M  V30 320 C 53.0197 -6.5273 -2.63741 0
M  V30 321 C 52.3097 -5.1842 -2.73198 0
M  V30 322 N 52.3597 -4.38762 -1.4784 0
M  V30 323 H 49.5207 -8.36803 -2.32493 0
M  V30 324 H 49.2507 -6.70197 -1.71129 0
M  V30 325 H 50.1177 -7.03551 -4.13168 0
M  V30 326 P 54.0797 -7.20834 -5.23717 0
M  V30 327 O 54.2997 -7.79853 -6.57286 0
M  V30 328 O 54.8697 -7.79239 -4.12957 0
M  V30 329 O 54.3297 -5.63315 -5.29344 0
M  V30 330 C 53.3897 -4.80255 -6.01876 0
M  V30 331 C 54.1197 -3.64202 -6.65911 0
M  V30 332 O 54.3297 -2.60694 -5.64732 0
M  V30 333 C 55.5197 -3.93473 -7.1943 0
M  V30 334 O 55.9097 -3.02071 -8.21205 0
M  V30 335 C 56.3997 -3.73047 -5.97036 0
M  V30 336 C 55.6897 -2.58828 -5.25741 0
M  V30 337 N 55.7397 -2.68068 -3.77503 0
M  V30 338 H 52.9007 -5.40332 -6.79951 0
M  V30 339 H 52.6307 -4.41613 -5.32378 0
M  V30 340 H 53.4977 -3.26331 -7.47797 0
M  V30 341 P 57.4597 -2.75334 -8.47391 0
M  V30 342 O 57.6797 -2.44571 -9.90142 0
M  V30 343 O 58.2497 -3.87688 -7.92115 0
M  V30 344 O 57.7097 -1.4459 -7.59357 0
M  V30 345 C 56.7697 -0.347608 -7.69215 0
M  V30 346 C 57.4997 0.96767 -7.52806 0
M  V30 347 O 57.7097 1.21036 -6.1011 0
M  V30 348 C 58.8997 1.04544 -8.13308 0
M  V30 349 O 59.2897 2.38311 -8.41922 0
M  V30 350 C 59.7797 0.491279 -7.02284 0
M  V30 351 C 59.0697 0.996264 -5.77469 0
M  V30 352 N 59.1197 0.0501916 -4.62973 0
M  V30 353 C 59.0397 -1.32786 -4.63244 0
M  V30 354 N 59.1197 -1.86957 -3.44545 0
M  V30 355 C 59.2597 -0.780241 -2.58481 0
M  V30 356 C 59.3897 -0.738536 -1.17757 0
M  V30 357 O 59.4097 -1.66794 -0.372349 0
M  V30 358 N 59.5097 0.58337 -0.711393 0
M  V30 359 C 59.5097 1.70816 -1.51017 0
M  V30 360 N 59.6397 2.87826 -0.880757 0
M  V30 361 N 59.3797 1.67126 -2.8339 0
M  V30 362 C 59.2597 0.401421 -3.30572 0
M  V30 363 H 56.2807 -0.374722 -8.67691 0
M  V30 364 H 56.0107 -0.443485 -6.90277 0
M  V30 365 H 56.8777 1.75537 -7.96793 0
M  V30 366 H 59.5327 1.95076 -5.46529 0
M  V30 367 H 59.8117 -0.608565 -7.04577 0
M  V30 368 H 60.8037 0.889672 -7.08939 0
M  V30 369 H 58.9697 0.43308 -9.04564 0
M  V30 370 H 58.9207 -1.91249 -5.54442 0
M  V30 371 H 59.6027 0.718054 0.275244 0
M  V30 372 H 59.6397 3.75721 -1.41832 0
M  V30 373 H 59.7407 2.90436 0.145468 0
M  V30 374 P 60.8396 2.75334 -8.47391 0
M  V30 375 O 61.0596 3.84128 -9.44797 0
M  V30 376 O 61.6296 1.51947 -8.68712 0
M  V30 377 O 61.0896 3.29363 -6.99321 0
M  V30 378 C 60.1496 4.24011 -6.4274 0
M  V30 379 C 60.8796 5.20775 -5.52155 0
M  V30 380 O 61.0896 4.56534 -4.22446 0
M  V30 381 C 62.2796 5.62629 -5.96531 0
M  V30 382 O 62.6696 6.87667 -5.41053 0
M  V30 383 C 63.1596 4.52537 -5.39283 0
M  V30 384 C 62.4496 4.20027 -4.08623 0
M  V30 385 N 62.4996 2.76189 -3.71603 0
M  V30 386 H 59.6606 4.797 -7.24003 0
M  V30 387 H 59.3906 3.69856 -5.84513 0
M  V30 388 H 60.2576 6.10356 -5.41441 0
M  V30 389 P 64.2196 7.20834 -5.23717 0
M  V30 390 O 64.4396 8.66104 -5.38572 0
M  V30 391 O 65.0096 6.33544 -6.1349 0
M  V30 392 O 64.4696 6.7751 -3.72168 0
M  V30 393 C 63.5296 7.20825 -2.7076 0
M  V30 394 C 64.2596 7.45864 -1.40599 0
M  V30 395 O 64.4696 6.17651 -0.734225 0
M  V30 396 C 65.6596 8.05808 -1.51899 0
M  V30 397 O 66.0496 8.74358 -0.335205 0
M  V30 398 C 66.5396 6.83093 -1.70294 0
M  V30 399 C 65.8296 5.79992 -0.836974 0
M  V30 400 N 65.8796 4.41864 -1.38293 0
M  V30 401 H 63.0406 8.13644 -3.0377 0
M  V30 402 H 62.7706 6.42788 -2.55485 0
M  V30 403 H 63.6376 8.12039 -0.792769 0
M  V30 404 P 67.5996 8.91 -4.36464e-15 0
M  V30 405 O 67.8196 10.1736 0.733766 0
M  V30 406 O 68.3896 8.73247 -1.2395 0
M  V30 407 O 67.8496 7.66872 0.971405 0
M  V30 408 C 66.9096 7.42212 2.04614 0
M  V30 409 C 67.6396 6.86059 3.24661 0
M  V30 410 O 67.8496 5.42847 3.03646 0
M  V30 411 C 69.0396 7.41196 3.50753 0
M  V30 412 O 69.4296 7.27073 4.86816 0
M  V30 413 C 69.9196 6.5273 2.63741 0
M  V30 414 C 69.2096 5.1842 2.73198 0
M  V30 415 N 69.2596 4.38668 1.47808 0
M  V30 416 C 69.4096 3.02239 1.60048 0
M  V30 417 O 69.4996 2.46459 2.67869 0
M  V30 418 N 69.4496 2.32436 0.408571 0
M  V30 419 C 69.3596 2.85471 -0.854993 0
M  V30 420 O 69.4096 2.12566 -1.8531 0
M  V30 421 C 69.2096 4.28918 -0.887335 0
M  V30 422 C 69.0996 4.91066 -2.24619 0
M  V30 423 C 69.1596 5.00349 0.255399 0
M  V30 424 H 66.4196 8.36803 2.32493 0
M  V30 425 H 66.1506 6.701 1.71105 0
M  V30 426 H 67.0176 7.03551 4.13168 0
M  V30 427 H 69.6726 4.59773 3.53894 0
M  V30 428 H 69.9516 6.88995 1.59871 0
M  V30 429 H 70.9436 6.46749 3.03687 0
M  V30 430 H 69.1096 8.46908 3.20714 0
M  V30 431 H 69.0386 6.08548 0.206986 0
M  V30 432 H 70.0686 5.34836 -2.53099 0
M  V30 433 H 68.3316 5.69638 -2.2291 0
M  V30 434 H 68.8196 4.13971 -2.98044 0
M  V30 435 H 69.5556 1.33211 0.474216 0
M  V30 436 P 70.9796 7.20834 5.23717 0
M  V30 437 O 71.1996 7.80006 6.57415 0
M  V30 438 O 71.7696 7.79416 4.13051 0
M  V30 439 O 71.2296 5.63315 5.29344 0
M  V30 440 C 70.2896 4.80318 6.01954 0
M  V30 441 C 71.0196 3.64202 6.65911 0
M  V30 442 O 71.2296 2.60736 5.64823 0
M  V30 443 C 72.4196 3.93521 7.19518 0
M  V30 444 O 72.8096 3.02071 8.21205 0
M  V30 445 C 73.2996 3.73047 5.97036 0
M  V30 446 C 72.5896 2.58828 5.25741 0
M  V30 447 N 72.6396 2.68068 3.77503 0
M  V30 448 C 72.5596 3.80474 2.99159 0
M  V30 449 N 72.6296 3.55622 1.71925 0
M  V30 450 C 72.7796 2.1832 1.65733 0
M  V30 451 C 72.9096 1.28842 0.572777 0
M  V30 452 N 72.9196 1.66875 -0.70098 0
M  V30 453 N 73.0296 -0.016788 0.859836 0
M  V30 454 C 73.0196 -0.398145 2.13316 0
M  V30 455 N 72.8996 0.328224 3.22333 0
M  V30 456 C 72.7796 1.62992 2.90383 0
M  V30 457 H 69.8016 5.40394 6.8003 0
M  V30 458 H 69.5296 4.41741 5.32532 0
M  V30 459 H 70.3976 3.26371 7.47889 0
M  V30 460 H 73.0526 1.64007 5.56746 0
M  V30 461 H 73.3326 4.63439 5.3432 0
M  V30 462 H 74.3236 3.44776 6.25925 0
M  V30 463 H 72.4896 4.96707 7.57347 0
M  V30 464 H 72.4486 4.8089 3.39924 0
M  V30 465 H 72.8296 2.66547 -0.941919 0
M  V30 466 H 73.0186 0.965341 -1.44766 0
M  V30 467 H 73.1266 -1.46427 2.29697 0
M  V30 468 P 74.3596 2.75334 8.47391 0
M  V30 469 O 74.5796 2.44571 9.90142 0
M  V30 470 O 75.1496 3.87688 7.92115 0
M  V30 471 O 74.6096 1.4459 7.59357 0
M  V30 472 C 73.6696 0.347608 7.69215 0
M  V30 473 C 74.3996 -0.96767 7.52806 0
M  V30 474 O 74.6096 -1.21036 6.1011 0
M  V30 475 C 75.7996 -1.04544 8.13308 0
M  V30 476 O 76.1896 -2.38311 8.41922 0
M  V30 477 C 76.6796 -0.491279 7.02284 0
M  V30 478 C 75.9696 -0.996264 5.77469 0
M  V30 479 N 76.0196 -0.0501916 4.62973 0
M  V30 480 H 73.1806 0.374722 8.67691 0
M  V30 481 H 72.9106 0.443485 6.90277 0
M  V30 482 H 73.7776 -1.75537 7.96793 0
M  V30 483 P 77.7395 -2.75334 8.47391 0
M  V30 484 O 77.9595 -3.84166 9.4489 0
M  V30 485 O 78.5295 -1.51964 8.6881 0
M  V30 486 O 77.9895 -3.29363 6.99321 0
M  V30 487 C 77.0495 -4.23956 6.42656 0
M  V30 488 C 77.7795 -5.20775 5.52155 0
M  V30 489 O 77.9895 -4.56534 4.22446 0
M  V30 490 C 79.1795 -5.62629 5.96531 0
M  V30 491 O 79.5695 -6.87667 5.41053 0
M  V30 492 C 80.0595 -4.52537 5.39283 0
M  V30 493 C 79.3495 -4.20027 4.08623 0
M  V30 494 N 79.3995 -2.7613 3.71522 0
M  V30 495 C 79.5495 -2.45612 2.37989 0
M  V30 496 O 79.6395 -3.30919 1.51621 0
M  V30 497 N 79.5895 -1.10684 2.08435 0
M  V30 498 C 79.4995 -0.0690084 2.9792 0
M  V30 499 O 79.5495 1.10553 2.59426 0
M  V30 500 C 79.3495 -0.481522 4.35345 0
M  V30 501 C 79.2395 0.618778 5.36443 0
M  V30 502 C 79.2995 -1.78906 4.67968 0
M  V30 503 H 76.5595 -4.797 7.24003 0
M  V30 504 H 76.2905 -3.69802 5.84429 0
M  V30 505 H 77.1575 -6.10356 5.41441 0
M  V30 506 H 79.8125 -4.78651 3.27911 0
M  V30 507 H 80.0915 -3.64957 6.05871 0
M  V30 508 H 81.0835 -4.8868 5.2125 0
M  V30 509 H 79.2495 -5.66726 7.06352 0
M  V30 510 H 79.1785 -2.07737 5.72367 0
M  V30 511 H 80.2085 0.754375 5.86871 0
M  V30 512 H 78.4715 0.359721 6.10641 0
M  V30 513 H 78.9595 1.55533 4.8581 0
M  V30 514 H 79.6955 -0.862651 1.12037 0
M  V30 515 P 81.1195 -7.20834 5.23717 0
M  V30 516 O 81.3395 -8.66104 5.38572 0
M  V30 517 O 81.9095 -6.33544 6.1349 0
M  V30 518 O 81.3695 -6.7751 3.72168 0
M  V30 519 C 80.4295 -7.20825 2.7076 0
M  V30 520 C 81.1595 -7.45864 1.40599 0
M  V30 521 O 81.3695 -6.17651 0.734225 0
M  V30 522 C 82.5595 -8.05808 1.51899 0
M  V30 523 O 82.9495 -8.74358 0.335205 0
M  V30 524 C 83.4395 -6.83093 1.70294 0
M  V30 525 C 82.7295 -5.79992 0.836974 0
M  V30 526 N 82.7795 -4.41864 1.38293 0
M  V30 527 H 79.9405 -8.13644 3.0377 0
M  V30 528 H 79.6705 -6.42788 2.55485 0
M  V30 529 H 80.5375 -8.12039 0.792769 0
M  V30 530 P 84.4995 -8.91 5.4558e-15 0
M  V30 531 O 84.7195 -10.1726 -0.733694 0
M  V30 532 O 85.2895 -8.73148 1.23936 0
M  V30 533 O 84.7495 -7.66872 -0.971405 0
M  V30 534 C 83.8095 -7.42309 -2.04641 0
M  V30 535 C 84.5395 -6.86059 -3.24661 0
M  V30 536 O 84.7495 -5.42847 -3.03646 0
M  V30 537 C 85.9395 -7.41196 -3.50753 0
M  V30 538 O 86.3295 -7.27073 -4.86816 0
M  V30 539 C 86.8195 -6.5273 -2.63741 0
M  V30 540 C 86.1095 -5.1842 -2.73198 0
M  V30 541 N 86.1595 -4.38762 -1.4784 0
M  V30 542 C 86.0795 -4.81605 -0.168631 0
M  V30 543 N 86.1595 -3.85454 0.713363 0
M  V30 544 C 86.2995 -2.6994 -0.0566958 0
M  V30 545 C 86.4295 -1.34815 0.338502 0
M  V30 546 N 86.5495 -0.496304 -0.77465 0
M  V30 547 C 86.5495 -0.908403 -2.09122 0
M  V30 548 N 86.6795 0.0517805 -3.00955 0
M  V30 549 N 86.4195 -2.17875 -2.46519 0
M  V30 550 C 86.2995 -3.01988 -1.4033 0
M  V30 551 H 83.3205 -8.36803 -2.32493 0
M  V30 552 H 83.0505 -6.70197 -1.71129 0
M  V30 553 H 83.9175 -7.03551 -4.13168 0
M  V30 554 P 87.8795 -7.20834 -5.23717 0
M  V30 555 O 88.0995 -7.79853 -6.57286 0
M  V30 556 O 88.6695 -7.79239 -4.12957 0
M  V30 557 O 88.1295 -5.63315 -5.29344 0
M  V30 558 C 87.1895 -4.80255 -6.01876 0
M  V30 559 C 87.9195 -3.64202 -6.65911 0
M  V30 560 O 88.1295 -2.60694 -5.64732 0
M  V30 561 C 89.3195 -3.93473 -7.1943 0
M  V30 562 O 89.7095 -3.02071 -8.21205 0
M  V30 563 C 90.1995 -3.73047 -5.97036 0
M  V30 564 C 89.4895 -2.58828 -5.25741 0
M  V30 565 N 89.5395 -2.68068 -3.77503 0
M  V30 566 H 86.7005 -5.40332 -6.79951 0
M  V30 567 H 86.4305 -4.41613 -5.32378 0
M  V30 568 H 87.2975 -3.26331 -7.47797 0
M  V30 569 P 91.2595 -2.75334 -8.47391 0
M  V30 570 O 91.4795 -2.44571 -9.90142 0
M  V30 571 O 92.0495 -3.87688 -7.92115 0
M  V30 572 O 91.5095 -1.4459 -7.59357 0
M  V30 573 C 90.5695 -0.347608 -7.69215 0
M  V30 574 C 91.2995 0.96767 -7.52806 0
M  V30 575 O 91.5095 1.21036 -6.1011 0
M  V30 576 C 92.6995 1.04544 -8.13308 0
M  V30 577 O 93.0895 2.38311 -8.41922 0
M  V30 578 C 93.5795 0.491279 -7.02284 0
M  V30 579 C 92.8695 0.996264 -5.77469 0
M  V30 580 N 92.9195 0.0501916 -4.62973 0
M  V30 581 H 90.0805 -0.374722 -8.67691 0
M  V30 582 H 89.8105 -0.443485 -6.90277 0
M  V30 583 H 90.6775 1.75537 -7.96793 0
M  V30 584 P 94.6394 2.75334 -8.47391 0
M  V30 585 O 94.8594 3.84128 -9.44797 0
M  V30 586 O 95.4294 1.51947 -8.68712 0
M  V30 587 O 94.8894 3.29363 -6.99321 0
M  V30 588 C 93.9494 4.24011 -6.4274 0
M  V30 589 C 94.6794 5.20775 -5.52155 0
M  V30 590 O 94.8894 4.56534 -4.22446 0
M  V30 591 C 96.0794 5.62629 -5.96531 0
M  V30 592 O 96.4694 6.87667 -5.41053 0
M  V30 593 C 96.9594 4.52537 -5.39283 0
M  V30 594 C 96.2494 4.20027 -4.08623 0
M  V30 595 N 96.2994 2.76189 -3.71603 0
M  V30 596 H 93.4604 4.797 -7.24003 0
M  V30 597 H 93.1904 3.69856 -5.84513 0
M  V30 598 H 94.0574 6.10356 -5.41441 0
M  V30 599 P 98.0194 7.20834 -5.23717 0
M  V30 600 O 98.2394 8.66104 -5.38572 0
M  V30 601 O 98.8094 6.33544 -6.1349 0
M  V30 602 O 98.2694 6.7751 -3.72168 0
M  V30 603 C 97.3294 7.20825 -2.7076 0
M  V30 604 C 98.0594 7.45864 -1.40599 0
M  V30 605 O 98.2694 6.17651 -0.734225 0
M  V30 606 C 99.4594 8.05808 -1.51899 0
M  V30 607 O 99.8494 8.74358 -0.335205 0
M  V30 608 C 100.339 6.83093 -1.70294 0
M  V30 609 C 99.6294 5.79992 -0.836974 0
M  V30 610 N 99.6794 4.41864 -1.38293 0
M  V30 611 H 96.8404 8.13644 -3.0377 0
M  V30 612 H 96.5704 6.42788 -2.55485 0
M  V30 613 H 97.4374 8.12039 -0.792769 0
M  V30 614 P 101.399 8.91 -6.54696e-15 0
M  V30 615 O 101.619 10.1726 0.733694 0
M  V30 616 O 102.189 8.73148 -1.23936 0
M  V30 617 O 101.649 7.66872 0.971405 0
M  V30 618 C 100.709 7.42309 2.04641 0
M  V30 619 C 101.439 6.86059 3.24661 0
M  V30 620 O 101.649 5.42847 3.03646 0
M  V30 621 C 102.839 7.41196 3.50753 0
M  V30 622 O 103.229 7.27073 4.86816 0
M  V30 623 C 103.719 6.5273 2.63741 0
M  V30 624 C 103.009 5.1842 2.73198 0
M  V30 625 N 103.059 4.38762 1.4784 0
M  V30 626 C 102.979 4.81605 0.168631 0
M  V30 627 N 103.059 3.85454 -0.713363 0
M  V30 628 C 103.199 2.6994 0.0566958 0
M  V30 629 C 103.329 1.34815 -0.338502 0
M  V30 630 N 103.449 0.496304 0.77465 0
M  V30 631 C 103.449 0.908403 2.09122 0
M  V30 632 N 103.579 -0.0517805 3.00955 0
M  V30 633 N 103.319 2.17875 2.46519 0
M  V30 634 C 103.199 3.01988 1.4033 0
M  V30 635 H 100.22 8.36803 2.32493 0
M  V30 636 H 99.9504 6.70197 1.71129 0
M  V30 637 H 100.817 7.03551 4.13168 0
M  V30 638 P 104.779 7.20834 5.23717 0
M  V30 639 O 104.999 7.7993 6.57351 0
M  V30 640 O 105.569 7.79328 4.13004 0
M  V30 641 O 105.029 5.63315 5.29344 0
M  V30 642 C 104.089 4.80255 6.01876 0
M  V30 643 C 104.819 3.64202 6.65911 0
M  V30 644 O 105.029 2.60694 5.64732 0
M  V30 645 C 106.219 3.93473 7.1943 0
M  V30 646 O 106.609 3.02071 8.21205 0
M  V30 647 C 107.099 3.73047 5.97036 0
M  V30 648 C 106.389 2.58828 5.25741 0
M  V30 649 N 106.439 2.6801 3.77422 0
M  V30 650 C 106.589 1.50173 3.05038 0
M  V30 651 O 106.679 0.428832 3.665 0
M  V30 652 N 106.639 1.70922 1.55541 0
M  V30 653 C 106.539 2.7407 1.06402 0
M  V30 654 N 106.589 2.74764 -0.260931 0
M  V30 655 C 106.389 3.96781 1.78296 0
M  V30 656 C 106.339 3.87909 3.13891 0
M  V30 657 H 103.599 5.4027 6.79873 0
M  V30 658 H 103.33 4.41549 5.32301 0
M  V30 659 H 104.197 3.26371 7.47889 0
M  V30 660 H 106.852 1.63978 5.5665 0
M  V30 661 H 107.131 4.63439 5.3432 0
M  V30 662 H 108.123 3.44728 6.25838 0
M  V30 663 H 106.289 4.96652 7.57263 0
M  V30 664 H 106.217 4.78425 3.73088 0
M  V30 665 H 106.319 4.92593 1.26997 0
M  V30 666 H 106.707 1.86285 -0.77595 0
M  V30 667 H 106.51 3.63657 -0.773896 0
M  V30 668 P 108.159 2.75334 8.47391 0
M  V30 669 O 108.379 2.44571 9.90142 0
M  V30 670 O 108.949 3.87688 7.92115 0
M  V30 671 O 108.409 1.4459 7.59357 0
M  V30 672 C 107.469 0.347608 7.69215 0
M  V30 673 C 108.199 -0.96767 7.52806 0
M  V30 674 O 108.409 -1.21036 6.1011 0
M  V30 675 C 109.599 -1.04544 8.13308 0
M  V30 676 O 109.989 -2.38311 8.41922 0
M  V30 677 C 110.479 -0.491279 7.02284 0
M  V30 678 C 109.769 -0.996264 5.77469 0
M  V30 679 N 109.819 -0.0501916 4.62973 0
M  V30 680 H 106.98 0.374722 8.67691 0
M  V30 681 H 106.71 0.443485 6.90277 0
M  V30 682 H 107.577 -1.75537 7.96793 0
M  V30 683 P 111.539 -2.75334 8.47391 0
M  V30 684 O 111.759 -3.84166 9.4489 0
M  V30 685 O 112.329 -1.51964 8.6881 0
M  V30 686 O 111.789 -3.29363 6.99321 0
M  V30 687 C 110.849 -4.24011 6.4274 0
M  V30 688 C 111.579 -5.20775 5.52155 0
M  V30 689 O 111.789 -4.56534 4.22446 0
M  V30 690 C 112.979 -5.62629 5.96531 0
M  V30 691 O 113.369 -6.87667 5.41053 0
M  V30 692 C 113.859 -4.52537 5.39283 0
M  V30 693 C 113.149 -4.20027 4.08623 0
M  V30 694 N 113.199 -2.7613 3.71522 0
M  V30 695 C 113.349 -2.43702 2.37085 0
M  V30 696 O 113.439 -3.3531 1.54039 0
M  V30 697 N 113.399 -0.951103 2.10621 0
M  V30 698 C 113.299 -0.165021 2.93537 0
M  V30 699 N 113.349 1.09723 2.53253 0
M  V30 700 C 113.149 -0.469576 4.32458 0
M  V30 701 C 113.099 -1.78658 4.65921 0
M  V30 702 H 110.359 -4.79645 7.23919 0
M  V30 703 H 110.09 -3.69802 5.84429 0
M  V30 704 H 110.957 -6.10431 5.41508 0
M  V30 705 H 113.612 -4.78733 3.27967 0
M  V30 706 H 113.891 -3.64957 6.05871 0
M  V30 707 H 114.883 -4.8868 5.2125 0
M  V30 708 H 113.049 -5.66726 7.06352 0
M  V30 709 H 112.977 -2.06987 5.70299 0
M  V30 710 H 113.079 0.314383 5.07728 0
M  V30 711 H 113.467 1.31363 1.5319 0
M  V30 712 H 113.27 1.85978 3.21943 0
M  V30 713 P 114.919 -7.20834 5.23717 0
M  V30 714 O 115.139 -8.66274 5.38678 0
M  V30 715 O 115.709 -6.33687 6.13629 0
M  V30 716 O 115.169 -6.7751 3.72168 0
M  V30 717 C 114.229 -7.20919 2.70795 0
M  V30 718 C 114.959 -7.45864 1.40599 0
M  V30 719 O 115.169 -6.17751 0.734343 0
M  V30 720 C 116.359 -8.05906 1.51917 0
M  V30 721 O 116.749 -8.74358 0.335205 0
M  V30 722 C 117.239 -6.83093 1.70294 0
M  V30 723 C 116.529 -5.79992 0.836974 0
M  V30 724 N 116.579 -4.41864 1.38293 0
M  V30 725 H 113.741 -8.13738 3.03804 0
M  V30 726 H 113.469 -6.42974 2.55559 0
M  V30 727 H 114.337 -8.12139 0.792866 0
M  V30 728 H 116.992 -5.80178 -0.160643 0
M  V30 729 H 117.272 -6.51379 2.75643 0
M  V30 730 H 118.263 -7.01832 1.3448 0
M  V30 731 H 116.429 -8.73771 2.38364 0
M  V30 732 P 118.299 -8.91 7.63812e-15 0
M  V30 733 O 118.519 -10.1746 -0.733838 0
M  V30 734 O 119.089 -8.73346 1.23964 0
M  V30 735 O 118.549 -7.66872 -0.971405 0
M  V30 736 C 117.609 -7.42405 -2.04668 0
M  V30 737 C 118.339 -6.86059 -3.24661 0
M  V30 738 O 118.549 -5.42934 -3.03695 0
M  V30 739 C 119.739 -7.41287 -3.50796 0
M  V30 740 O 120.129 -7.27073 -4.86816 0
M  V30 741 C 120.619 -6.5273 -2.63741 0
M  V30 742 C 119.909 -5.1842 -2.73198 0
M  V30 743 N 119.959 -4.38762 -1.4784 0
M  V30 744 H 117.121 -8.36899 -2.3252 0
M  V30 745 H 116.849 -6.70391 -1.71179 0
M  V30 746 H 117.717 -7.03638 -4.13219 0
M  V30 747 H 120.372 -4.59931 -3.54016 0
M  V30 748 H 120.652 -6.88995 -1.59871 0
M  V30 749 H 121.643 -6.4684 -3.0373 0
M  V30 750 H 119.809 -8.47002 -3.20749 0
M  V30 751 P 121.679 -7.20834 -5.23717 0
M  V30 752 O 121.899 -7.80006 -6.57415 0
M  V30 753 O 122.469 -7.79416 -4.13051 0
M  V30 754 O 121.929 -5.63315 -5.29344 0
M  V30 755 C 120.989 -4.80318 -6.01954 0
M  V30 756 C 121.719 -3.64202 -6.65911 0
M  V30 757 O 121.929 -2.60736 -5.64823 0
M  V30 758 C 123.119 -3.93521 -7.19518 0
M  V30 759 O 123.509 -3.02071 -8.21205 0
M  V30 760 C 123.999 -3.73047 -5.97036 0
M  V30 761 C 123.289 -2.58828 -5.25741 0
M  V30 762 N 123.339 -2.68068 -3.77503 0
M  V30 763 H 120.501 -5.40394 -6.8003 0
M  V30 764 H 120.229 -4.41741 -5.32532 0
M  V30 765 H 121.097 -3.26371 -7.47889 0
M  V30 766 H 123.752 -1.64007 -5.56746 0
M  V30 767 H 124.032 -4.63439 -5.3432 0
M  V30 768 H 125.023 -3.44776 -6.25925 0
M  V30 769 H 123.189 -4.96707 -7.57347 0
M  V30 770 P 125.059 -2.75334 -8.47391 0
M  V30 771 O 125.279 -2.44595 -9.90239 0
M  V30 772 O 125.849 -3.87732 -7.92204 0
M  V30 773 O 125.309 -1.4459 -7.59357 0
M  V30 774 C 124.369 -0.347608 -7.69215 0
M  V30 775 C 125.099 0.96767 -7.52806 0
M  V30 776 O 125.309 1.21036 -6.1011 0
M  V30 777 C 126.499 1.04544 -8.13308 0
M  V30 778 O 126.889 2.38311 -8.41922 0
M  V30 779 C 127.379 0.491279 -7.02284 0
M  V30 780 C 126.669 0.996264 -5.77469 0
M  V30 781 N 126.719 0.0501808 -4.62873 0
M  V30 782 C 126.869 0.578037 -3.3505 0
M  V30 783 O 126.959 1.8073 -3.21711 0
M  V30 784 N 126.919 -0.468541 -2.263 0
M  V30 785 C 126.819 -1.59186 -2.47176 0
M  V30 786 N 126.869 -2.37626 -1.40392 0
M  V30 787 C 126.669 -2.16203 -3.77467 0
M  V30 788 C 126.619 -1.29324 -4.8195 0
M  V30 789 H 123.879 -0.374679 -8.67591 0
M  V30 790 H 123.61 -0.443421 -6.90177 0
M  V30 791 H 124.477 1.75559 -7.96891 0
M  V30 792 H 127.132 1.94529 -5.46723 0
M  V30 793 H 127.411 -0.608651 -7.04676 0
M  V30 794 H 128.403 0.889672 -7.08939 0
M  V30 795 H 126.569 0.43308 -9.04564 0
M  V30 796 H 126.497 -1.67758 -5.83046 0
M  V30 797 H 126.599 -3.23869 -3.92281 0
M  V30 798 H 126.987 -1.96317 -0.467202 0
M  V30 799 H 126.79 -3.39693 -1.51142 0
M  V30 800 P 128.439 2.75334 -8.47391 0
M  V30 801 O 128.659 3.84128 -9.44797 0
M  V30 802 O 129.229 1.51947 -8.68712 0
M  V30 803 O 128.689 3.29363 -6.99321 0
M  V30 804 C 127.749 4.24011 -6.4274 0
M  V30 805 C 128.479 5.20775 -5.52155 0
M  V30 806 O 128.689 4.56534 -4.22446 0
M  V30 807 C 129.879 5.62629 -5.96531 0
M  V30 808 O 130.269 6.87667 -5.41053 0
M  V30 809 C 130.759 4.52537 -5.39283 0
M  V30 810 C 130.049 4.20027 -4.08623 0
M  V30 811 N 130.099 2.76189 -3.71603 0
M  V30 812 H 127.26 4.797 -7.24003 0
M  V30 813 H 126.99 3.69856 -5.84513 0
M  V30 814 H 127.857 6.10356 -5.41441 0
M  V30 815 P 131.819 7.20834 -5.23717 0
M  V30 816 O 132.039 8.66104 -5.38572 0
M  V30 817 O 132.609 6.33544 -6.1349 0
M  V30 818 O 132.069 6.7751 -3.72168 0
M  V30 819 C 131.129 7.20825 -2.7076 0
M  V30 820 C 131.859 7.45864 -1.40599 0
M  V30 821 O 132.069 6.17651 -0.734225 0
M  V30 822 C 133.259 8.05808 -1.51899 0
M  V30 823 O 133.649 8.74358 -0.335205 0
M  V30 824 C 134.139 6.83093 -1.70294 0
M  V30 825 C 133.429 5.79992 -0.836974 0
M  V30 826 N 133.479 4.41864 -1.38293 0
M  V30 827 H 130.64 8.13644 -3.0377 0
M  V30 828 H 130.37 6.42788 -2.55485 0
M  V30 829 H 131.237 8.12039 -0.792769 0
M  V30 830 P 135.199 8.91 -8.72928e-15 0
M  V30 831 O 135.419 10.1726 0.733694 0
M  V30 832 O 135.989 8.73148 -1.23936 0
M  V30 833 O 135.449 7.66872 0.971405 0
M  V30 834 C 134.509 7.42309 2.04641 0
M  V30 835 C 135.239 6.86059 3.24661 0
M  V30 836 O 135.449 5.42847 3.03646 0
M  V30 837 C 136.639 7.41196 3.50753 0
M  V30 838 O 137.029 7.27073 4.86816 0
M  V30 839 C 137.519 6.5273 2.63741 0
M  V30 840 C 136.809 5.1842 2.73198 0
M  V30 841 N 136.859 4.38762 1.4784 0
M  V30 842 H 134.02 8.36803 2.32493 0
M  V30 843 H 133.75 6.70197 1.71129 0
M  V30 844 H 134.617 7.03551 4.13168 0
M  V30 845 P 138.579 7.20834 5.23717 0
M  V30 846 O 138.799 7.79853 6.57286 0
M  V30 847 O 139.369 7.79239 4.12957 0
M  V30 848 O 138.829 5.63315 5.29344 0
M  V30 849 C 137.889 4.80255 6.01876 0
M  V30 850 C 138.619 3.64202 6.65911 0
M  V30 851 O 138.829 2.60694 5.64732 0
M  V30 852 C 140.019 3.93473 7.1943 0
M  V30 853 O 140.409 3.02071 8.21205 0
M  V30 854 C 140.899 3.73047 5.97036 0
M  V30 855 C 140.189 2.58828 5.25741 0
M  V30 856 N 140.239 2.68068 3.77503 0
M  V30 857 H 137.4 5.40332 6.79951 0
M  V30 858 H 137.13 4.41613 5.32378 0
M  V30 859 H 137.997 3.26331 7.47797 0
M  V30 860 P 141.959 2.75334 8.47391 0
M  V30 861 O 142.179 2.44571 9.90142 0
M  V30 862 O 142.749 3.87688 7.92115 0
M  V30 863 O 142.209 1.4459 7.59357 0
M  V30 864 C 141.269 0.347608 7.69215 0
M  V30 865 C 141.999 -0.96767 7.52806 0
M  V30 866 O 142.209 -1.21036 6.1011 0
M  V30 867 C 143.399 -1.04544 8.13308 0
M  V30 868 O 143.789 -2.38311 8.41922 0
M  V30 869 C 144.279 -0.491279 7.02284 0
M  V30 870 C 143.569 -0.996264 5.77469 0
M  V30 871 N 143.619 -0.0501916 4.62973 0
M  V30 872 H 140.78 0.374722 8.67691 0
M  V30 873 H 140.51 0.443485 6.90277 0
M  V30 874 H 141.377 -1.75537 7.96793 0
M  V30 875 P 145.339 -2.75334 8.47391 0
M  V30 876 O 145.559 -3.84128 9.44797 0
M  V30 877 O 146.129 -1.51947 8.68712 0
M  V30 878 O 145.589 -3.29363 6.99321 0
M  V30 879 C 144.649 -4.24011 6.4274 0
M  V30 880 C 145.379 -5.20775 5.52155 0
M  V30 881 O 145.589 -4.56534 4.22446 0
M  V30 882 C 146.779 -5.62629 5.96531 0
M  V30 883 O 147.169 -6.87667 5.41053 0
M  V30 884 C 147.659 -4.52537 5.39283 0
M  V30 885 C 146.949 -4.20027 4.08623 0
M  V30 886 N 146.999 -2.76189 3.71603 0
M  V30 887 H 144.16 -4.797 7.24003 0
M  V30 888 H 143.89 -3.69856 5.84513 0
M  V30 889 H 144.757 -6.10356 5.41441 0
M  V30 890 P 148.719 -7.20834 5.23717 0
M  V30 891 O 148.939 -8.66104 5.38572 0
M  V30 892 O 149.509 -6.33544 6.1349 0
M  V30 893 O 148.969 -6.7751 3.72168 0
M  V30 894 C 148.029 -7.20825 2.7076 0
M  V30 895 C 148.759 -7.45864 1.40599 0
M  V30 896 O 148.969 -6.17651 0.734225 0
M  V30 897 C 150.159 -8.05808 1.51899 0
M  V30 898 O 150.549 -8.74358 0.335205 0
M  V30 899 C 151.039 -6.83093 1.70294 0
M  V30 900 C 150.329 -5.79992 0.836974 0
M  V30 901 N 150.379 -4.41864 1.38293 0
M  V30 902 H 147.54 -8.13644 3.0377 0
M  V30 903 H 147.27 -6.42788 2.55485 0
M  V30 904 H 148.137 -8.12039 0.792769 0
M  V30 905 P 152.099 -8.91 9.82044e-15 0
M  V30 906 O 152.319 -10.1726 -0.733694 0
M  V30 907 O 152.889 -8.73148 1.23936 0
M  V30 908 O 152.349 -7.66872 -0.971405 0
M  V30 909 C 151.409 -7.42309 -2.04641 0
M  V30 910 C 152.139 -6.86059 -3.24661 0
M  V30 911 O 152.349 -5.42847 -3.03646 0
M  V30 912 C 153.539 -7.41196 -3.50753 0
M  V30 913 O 153.929 -7.27073 -4.86816 0
M  V30 914 C 154.419 -6.5273 -2.63741 0
M  V30 915 C 153.709 -5.1842 -2.73198 0
M  V30 916 N 153.759 -4.38762 -1.4784 0
M  V30 917 H 150.92 -8.36803 -2.32493 0
M  V30 918 H 150.65 -6.70197 -1.71129 0
M  V30 919 H 151.517 -7.03551 -4.13168 0
M  V30 920 P 155.479 -7.20834 -5.23717 0
M  V30 921 O 155.699 -7.7993 -6.57351 0
M  V30 922 O 156.269 -7.79328 -4.13004 0
M  V30 923 O 155.729 -5.63315 -5.29344 0
M  V30 924 C 154.789 -4.80255 -6.01876 0
M  V30 925 C 155.519 -3.64202 -6.65911 0
M  V30 926 O 155.729 -2.60694 -5.64732 0
M  V30 927 C 156.919 -3.93473 -7.1943 0
M  V30 928 O 157.309 -3.02071 -8.21205 0
M  V30 929 C 157.799 -3.73047 -5.97036 0
M  V30 930 C 157.089 -2.58828 -5.25741 0
M  V30 931 N 157.139 -2.6801 -3.77422 0
M  V30 932 C 157.289 -1.50173 -3.05038 0
M  V30 933 O 157.379 -0.428832 -3.665 0
M  V30 934 N 157.339 -1.70922 -1.55541 0
M  V30 935 C 157.239 -2.7407 -1.06402 0
M  V30 936 N 157.289 -2.74764 0.260931 0
M  V30 937 C 157.089 -3.96781 -1.78296 0
M  V30 938 C 157.039 -3.87909 -3.13891 0
M  V30 939 H 154.299 -5.4027 -6.79873 0
M  V30 940 H 154.03 -4.41549 -5.32301 0
M  V30 941 H 154.897 -3.26371 -7.47889 0
M  V30 942 H 157.552 -1.63978 -5.5665 0
M  V30 943 H 157.831 -4.63439 -5.3432 0
M  V30 944 H 158.823 -3.44728 -6.25838 0
M  V30 945 H 156.989 -4.96652 -7.57263 0
M  V30 946 H 156.917 -4.78425 -3.73088 0
M  V30 947 H 157.019 -4.92593 -1.26997 0
M  V30 948 H 157.407 -1.86285 0.77595 0
M  V30 949 H 157.21 -3.63657 0.773896 0
M  V30 950 P 158.859 -2.75334 -8.47391 0
M  V30 951 O 159.079 -2.44571 -9.90142 0
M  V30 952 O 159.649 -3.87688 -7.92115 0
M  V30 953 O 159.109 -1.4459 -7.59357 0
M  V30 954 C 158.169 -0.347608 -7.69215 0
M  V30 955 C 158.899 0.96767 -7.52806 0
M  V30 956 O 159.109 1.21036 -6.1011 0
M  V30 957 C 160.299 1.04544 -8.13308 0
M  V30 958 O 160.689 2.38311 -8.41922 0
M  V30 959 C 161.179 0.491279 -7.02284 0
M  V30 960 C 160.469 0.996264 -5.77469 0
M  V30 961 N 160.519 0.0501916 -4.62973 0
M  V30 962 H 157.68 -0.374722 -8.67691 0
M  V30 963 H 157.41 -0.443485 -6.90277 0
M  V30 964 H 158.277 1.75537 -7.96793 0
M  V30 965 P 162.239 2.75334 -8.47391 0
M  V30 966 O 162.459 3.84166 -9.4489 0
M  V30 967 O 163.029 1.51964 -8.6881 0
M  V30 968 O 162.489 3.29363 -6.99321 0
M  V30 969 C 161.549 4.23956 -6.42656 0
M  V30 970 C 162.279 5.20775 -5.52155 0
M  V30 971 O 162.489 4.56534 -4.22446 0
M  V30 972 C 163.679 5.62629 -5.96531 0
M  V30 973 O 164.069 6.87667 -5.41053 0
M  V30 974 C 164.559 4.52537 -5.39283 0
M  V30 975 C 163.849 4.20027 -4.08623 0
M  V30 976 N 163.899 2.7613 -3.71522 0
M  V30 977 C 164.049 2.45612 -2.37989 0
M  V30 978 O 164.139 3.30919 -1.51621 0
M  V30 979 N 164.089 1.10684 -2.08435 0
M  V30 980 C 163.999 0.0690084 -2.9792 0
M  V30 981 O 164.049 -1.10553 -2.59426 0
M  V30 982 C 163.849 0.481522 -4.35345 0
M  V30 983 C 163.739 -0.618778 -5.36443 0
M  V30 984 C 163.799 1.78906 -4.67968 0
M  V30 985 H 161.059 4.797 -7.24003 0
M  V30 986 H 160.79 3.69802 -5.84429 0
M  V30 987 H 161.657 6.10356 -5.41441 0
M  V30 988 H 164.312 4.78651 -3.27911 0
M  V30 989 H 164.591 3.64957 -6.05871 0
M  V30 990 H 165.583 4.8868 -5.2125 0
M  V30 991 H 163.749 5.66726 -7.06352 0
M  V30 992 H 163.678 2.07737 -5.72367 0
M  V30 993 H 164.708 -0.754375 -5.86871 0
M  V30 994 H 162.971 -0.359721 -6.10641 0
M  V30 995 H 163.459 -1.55533 -4.8581 0
M  V30 996 H 164.195 0.862651 -1.12037 0
M  V30 997 P 165.619 7.20834 -5.23717 0
M  V30 998 O 165.839 8.66104 -5.38572 0
M  V30 999 O 166.409 6.33544 -6.1349 0
M  V30 1000 O 165.869 6.7751 -3.72168 0
M  V30 1001 C 164.929 7.20825 -2.7076 0
M  V30 1002 C 165.659 7.45864 -1.40599 0
M  V30 1003 O 165.869 6.17651 -0.734225 0
M  V30 1004 C 167.059 8.05808 -1.51899 0
M  V30 1005 O 167.449 8.74358 -0.335205 0
M  V30 1006 C 167.939 6.83093 -1.70294 0
M  V30 1007 C 167.229 5.79992 -0.836974 0
M  V30 1008 N 167.279 4.41864 -1.38293 0
M  V30 1009 H 164.44 8.13644 -3.0377 0
M  V30 1010 H 164.17 6.42788 -2.55485 0
M  V30 1011 H 165.037 8.12039 -0.792769 0
M  V30 1012 P 168.999 8.91 -1.09116e-14 0
M  V30 1013 O 169.219 10.1726 0.733694 0
M  V30 1014 O 169.789 8.73148 -1.23936 0
M  V30 1015 O 169.249 7.66872 0.971405 0
M  V30 1016 C 168.309 7.42309 2.04641 0
M  V30 1017 C 169.039 6.86059 3.24661 0
M  V30 1018 O 169.249 5.42847 3.03646 0
M  V30 1019 C 170.439 7.41196 3.50753 0
M  V30 1020 O 170.829 7.27073 4.86816 0
M  V30 1021 C 171.319 6.5273 2.63741 0
M  V30 1022 C 170.609 5.1842 2.73198 0
M  V30 1023 N 170.659 4.38762 1.4784 0
M  V30 1024 C 170.579 4.81605 0.168631 0
M  V30 1025 N 170.659 3.85454 -0.713363 0
M  V30 1026 C 170.799 2.6994 0.0566958 0
M  V30 1027 C 170.929 1.34815 -0.338502 0
M  V30 1028 O 170.949 0.869548 -1.47125 0
M  V30 1029 N 171.049 0.496304 0.77465 0
M  V30 1030 C 171.049 0.908403 2.09122 0
M  V30 1031 N 171.179 -0.0517805 3.00955 0
M  V30 1032 N 170.919 2.17875 2.46519 0
M  V30 1033 C 170.799 3.01988 1.4033 0
M  V30 1034 H 167.82 8.36803 2.32493 0
M  V30 1035 H 167.55 6.70197 1.71129 0
M  V30 1036 H 168.417 7.03551 4.13168 0
M  V30 1037 H 171.072 4.59498 3.54415 0
M  V30 1038 H 171.351 6.88898 1.59848 0
M  V30 1039 H 172.343 6.46749 3.03687 0
M  V30 1040 H 170.509 8.46908 3.20714 0
M  V30 1041 H 170.46 5.86405 -0.105564 0
M  V30 1042 H 171.142 -0.483664 0.597855 0
M  V30 1043 H 171.179 0.187865 4.0116 0
M  V30 1044 H 171.28 -1.03585 2.71726 0
M  V30 1045 P 172.379 7.20834 5.23717 0
M  V30 1046 O 172.599 7.7993 6.57351 0
M  V30 1047 O 173.169 7.79328 4.13004 0
M  V30 1048 O 172.629 5.63315 5.29344 0
M  V30 1049 C 171.689 4.80193 6.01798 0
M  V30 1050 C 172.419 3.64202 6.65911 0
M  V30 1051 O 172.629 2.60694 5.64732 0
M  V30 1052 C 173.819 3.93473 7.1943 0
M  V30 1053 O 174.209 3.02071 8.21205 0
M  V30 1054 C 174.699 3.73047 5.97036 0
M  V30 1055 C 173.989 2.58828 5.25741 0
M  V30 1056 N 174.039 2.6801 3.77422 0
M  V30 1057 C 174.189 1.50443 3.07133 0
M  V30 1058 O 174.279 0.419406 3.61576 0
M  V30 1059 N 174.229 1.6403 1.69677 0
M  V30 1060 C 174.139 2.81206 0.986255 0
M  V30 1061 C 173.989 3.99158 1.80325 0
M  V30 1062 C 173.939 3.89779 3.1476 0
M  V30 1063 H 171.199 5.40332 6.79951 0
M  V30 1064 H 170.93 4.41549 5.32301 0
M  V30 1065 H 171.797 3.26331 7.47797 0
M  V30 1066 H 174.452 1.6395 5.56554 0
M  V30 1067 H 174.731 4.63439 5.3432 0
M  V30 1068 H 175.723 3.44728 6.25838 0
M  V30 1069 H 173.889 4.96652 7.57263 0
M  V30 1070 H 173.818 4.80159 3.74441 0
M  V30 1071 P 175.759 2.75334 8.47391 0
M  V30 1072 O 175.979 2.44595 9.90239 0
M  V30 1073 O 176.549 3.87732 7.92204 0
M  V30 1074 O 176.009 1.4459 7.59357 0
M  V30 1075 C 175.069 0.347608 7.69215 0
M  V30 1076 C 175.799 -0.96767 7.52806 0
M  V30 1077 O 176.009 -1.21036 6.1011 0
M  V30 1078 C 177.199 -1.04544 8.13308 0
M  V30 1079 O 177.589 -2.38311 8.41922 0
M  V30 1080 C 178.079 -0.491279 7.02284 0
M  V30 1081 C 177.369 -0.996264 5.77469 0
M  V30 1082 N 177.419 -0.0501808 4.62873 0
M  V30 1083 C 177.569 -0.578037 3.3505 0
M  V30 1084 O 177.659 -1.8073 3.21711 0
M  V30 1085 N 177.619 0.468541 2.263 0
M  V30 1086 C 177.519 1.59186 2.47176 0
M  V30 1087 N 177.569 2.37626 1.40392 0
M  V30 1088 C 177.369 2.16203 3.77467 0
M  V30 1089 C 177.319 1.29324 4.8195 0
M  V30 1090 H 174.579 0.374679 8.67591 0
M  V30 1091 H 174.31 0.443421 6.90177 0
M  V30 1092 H 175.177 -1.75559 7.96891 0
M  V30 1093 H 177.832 -1.94529 5.46723 0
M  V30 1094 H 178.111 0.608651 7.04676 0
M  V30 1095 H 179.103 -0.889672 7.08939 0
M  V30 1096 H 177.269 -0.43308 9.04564 0
M  V30 1097 H 177.197 1.67758 5.83046 0
M  V30 1098 H 177.299 3.23869 3.92281 0
M  V30 1099 H 177.687 1.96317 0.467202 0
M  V30 1100 H 177.49 3.39693 1.51142 0
M  V30 1101 P 179.139 -2.75334 8.47391 0
M  V30 1102 O 179.359 -3.84128 9.44797 0
M  V30 1103 O 179.929 -1.51947 8.68712 0
M  V30 1104 O 179.389 -3.29363 6.99321 0
M  V30 1105 C 178.449 -4.24011 6.4274 0
M  V30 1106 C 179.179 -5.20775 5.52155 0
M  V30 1107 O 179.389 -4.56534 4.22446 0
M  V30 1108 C 180.579 -5.62629 5.96531 0
M  V30 1109 O 180.969 -6.87667 5.41053 0
M  V30 1110 C 181.459 -4.52537 5.39283 0
M  V30 1111 C 180.749 -4.20027 4.08623 0
M  V30 1112 N 180.799 -2.76189 3.71603 0
M  V30 1113 H 177.96 -4.797 7.24003 0
M  V30 1114 H 177.69 -3.69856 5.84513 0
M  V30 1115 H 178.557 -6.10356 5.41441 0
M  V30 1116 P 182.519 -7.20834 5.23717 0
M  V30 1117 O 182.739 -8.66189 5.38625 0
M  V30 1118 O 183.309 -6.33615 6.1356 0
M  V30 1119 O 182.769 -6.7751 3.72168 0
M  V30 1120 C 181.829 -7.20732 2.70725 0
M  V30 1121 C 182.559 -7.45864 1.40599 0
M  V30 1122 O 182.769 -6.17651 0.734225 0
M  V30 1123 C 183.959 -8.05808 1.51899 0
M  V30 1124 O 184.349 -8.74358 0.335205 0
M  V30 1125 C 184.839 -6.83093 1.70294 0
M  V30 1126 C 184.129 -5.79992 0.836974 0
M  V30 1127 N 184.179 -4.41769 1.38263 0
M  V30 1128 C 184.329 -3.38591 0.481702 0
M  V30 1129 O 184.419 -3.56839 -0.718452 0
M  V30 1130 N 184.369 -2.1206 1.03569 0
M  V30 1131 C 184.279 -1.80696 2.36966 0
M  V30 1132 O 184.329 -0.630473 2.74862 0
M  V30 1133 C 184.129 -2.94845 3.23898 0
M  V30 1134 C 184.019 -2.65253 4.70362 0
M  V30 1135 C 184.079 -4.19803 2.73435 0
M  V30 1136 H 181.339 -8.13644 3.0377 0
M  V30 1137 H 181.07 -6.42695 2.55448 0
M  V30 1138 H 181.937 -8.12039 0.792769 0
M  V30 1139 H 184.592 -5.79978 -0.160587 0
M  V30 1140 H 184.871 -6.51379 2.75643 0
M  V30 1141 H 185.863 -7.01734 1.34462 0
M  V30 1142 H 184.029 -8.73674 2.38337 0
M  V30 1143 H 183.958 -5.04492 3.4095 0
M  V30 1144 H 184.988 -2.83924 5.1913 0
M  V30 1145 H 183.251 -3.29824 5.15163 0
M  V30 1146 H 183.739 -1.59723 4.84449 0
M  V30 1147 H 184.475 -1.35644 0.399345 0
M  V30 1148 P 185.899 -8.91 -8.29613e-14 0
M  V30 1149 O 186.119 -10.1746 -0.733838 0
M  V30 1150 O 186.689 -8.73346 1.23964 0
M  V30 1151 O 186.149 -7.66872 -0.971405 0
M  V30 1152 C 185.209 -7.42405 -2.04668 0
M  V30 1153 C 185.939 -6.86059 -3.24661 0
M  V30 1154 O 186.149 -5.42934 -3.03695 0
M  V30 1155 C 187.339 -7.41287 -3.50796 0
M  V30 1156 O 187.729 -7.27073 -4.86816 0
M  V30 1157 C 188.219 -6.5273 -2.63741 0
M  V30 1158 C 187.509 -5.1842 -2.73198 0
M  V30 1159 N 187.559 -4.38762 -1.4784 0
M  V30 1160 H 184.721 -8.36899 -2.3252 0
M  V30 1161 H 184.449 -6.70391 -1.71179 0
M  V30 1162 H 185.317 -7.03638 -4.13219 0
M  V30 1163 H 187.972 -4.59931 -3.54016 0
M  V30 1164 H 188.252 -6.88995 -1.59871 0
M  V30 1165 H 189.243 -6.4684 -3.0373 0
M  V30 1166 H 187.409 -8.47002 -3.20749 0
M  V30 1167 P 189.279 -7.20834 -5.23717 0
M  V30 1168 O 189.499 -7.79853 -6.57286 0
M  V30 1169 O 190.069 -7.79239 -4.12957 0
M  V30 1170 O 189.529 -5.63315 -5.29344 0
M  V30 1171 C 188.589 -4.80255 -6.01876 0
M  V30 1172 C 189.319 -3.64202 -6.65911 0
M  V30 1173 O 189.529 -2.60694 -5.64732 0
M  V30 1174 C 190.719 -3.93473 -7.1943 0
M  V30 1175 O 191.109 -3.02071 -8.21205 0
M  V30 1176 C 191.599 -3.73047 -5.97036 0
M  V30 1177 C 190.889 -2.58828 -5.25741 0
M  V30 1178 N 190.939 -2.68068 -3.77503 0
M  V30 1179 H 188.1 -5.40332 -6.79951 0
M  V30 1180 H 187.83 -4.41613 -5.32378 0
M  V30 1181 H 188.697 -3.26331 -7.47797 0
M  V30 1182 P 192.659 -2.75334 -8.47391 0
M  V30 1183 O 192.879 -2.44571 -9.90142 0
M  V30 1184 O 193.449 -3.87688 -7.92115 0
M  V30 1185 O 192.909 -1.4459 -7.59357 0
M  V30 1186 C 191.969 -0.347608 -7.69215 0
M  V30 1187 C 192.699 0.96767 -7.52806 0
M  V30 1188 O 192.909 1.21036 -6.1011 0
M  V30 1189 C 194.099 1.04544 -8.13308 0
M  V30 1190 O 194.489 2.38311 -8.41922 0
M  V30 1191 C 194.979 0.491279 -7.02284 0
M  V30 1192 C 194.269 0.996264 -5.77469 0
M  V30 1193 N 194.319 0.0501916 -4.62973 0
M  V30 1194 H 191.48 -0.374722 -8.67691 0
M  V30 1195 H 191.21 -0.443485 -6.90277 0
M  V30 1196 H 192.077 1.75537 -7.96793 0
M  V30 1197 P 196.039 2.75334 -8.47391 0
M  V30 1198 O 196.259 3.84128 -9.44797 0
M  V30 1199 O 196.829 1.51947 -8.68712 0
M  V30 1200 O 196.289 3.29363 -6.99321 0
M  V30 1201 C 195.349 4.24011 -6.4274 0
M  V30 1202 C 196.079 5.20775 -5.52155 0
M  V30 1203 O 196.289 4.56534 -4.22446 0
M  V30 1204 C 197.479 5.62629 -5.96531 0
M  V30 1205 O 197.869 6.87667 -5.41053 0
M  V30 1206 C 198.359 4.52537 -5.39283 0
M  V30 1207 C 197.649 4.20027 -4.08623 0
M  V30 1208 N 197.699 2.76189 -3.71603 0
M  V30 1209 H 194.86 4.797 -7.24003 0
M  V30 1210 H 194.59 3.69856 -5.84513 0
M  V30 1211 H 195.457 6.10356 -5.41441 0
M  V30 1212 P 199.419 7.20834 -5.23717 0
M  V30 1213 O 199.639 8.66104 -5.38572 0
M  V30 1214 O 200.209 6.33544 -6.1349 0
M  V30 1215 O 199.669 6.7751 -3.72168 0
M  V30 1216 C 198.729 7.20825 -2.7076 0
M  V30 1217 C 199.459 7.45864 -1.40599 0
M  V30 1218 O 199.669 6.17651 -0.734225 0
M  V30 1219 C 200.859 8.05808 -1.51899 0
M  V30 1220 O 201.249 8.74358 -0.335205 0
M  V30 1221 C 201.739 6.83093 -1.70294 0
M  V30 1222 C 201.029 5.79992 -0.836974 0
M  V30 1223 N 201.079 4.41864 -1.38293 0
M  V30 1224 H 198.24 8.13644 -3.0377 0
M  V30 1225 H 197.97 6.42788 -2.55485 0
M  V30 1226 H 198.837 8.12039 -0.792769 0
M  V30 1227 P 202.799 8.91 2.40144e-13 0
M  V30 1228 O 203.019 10.1726 0.733694 0
M  V30 1229 O 203.589 8.73148 -1.23936 0
M  V30 1230 O 203.049 7.66872 0.971405 0
M  V30 1231 C 202.109 7.42309 2.04641 0
M  V30 1232 C 202.839 6.86059 3.24661 0
M  V30 1233 O 203.049 5.42847 3.03646 0
M  V30 1234 C 204.239 7.41196 3.50753 0
M  V30 1235 O 204.629 7.27073 4.86816 0
M  V30 1236 C 205.119 6.5273 2.63741 0
M  V30 1237 C 204.409 5.1842 2.73198 0
M  V30 1238 N 204.459 4.38762 1.4784 0
M  V30 1239 H 201.62 8.36803 2.32493 0
M  V30 1240 H 201.35 6.70197 1.71129 0
M  V30 1241 H 202.217 7.03551 4.13168 0
M  V30 1242 P 206.179 7.20834 5.23717 0
M  V30 1243 O 206.399 7.79853 6.57286 0
M  V30 1244 O 206.969 7.79239 4.12957 0
M  V30 1245 O 206.429 5.63315 5.29344 0
M  V30 1246 C 205.489 4.80255 6.01876 0
M  V30 1247 C 206.219 3.64202 6.65911 0
M  V30 1248 O 206.429 2.60694 5.64732 0
M  V30 1249 C 207.619 3.93473 7.1943 0
M  V30 1250 O 208.009 3.02071 8.21205 0
M  V30 1251 C 208.499 3.73047 5.97036 0
M  V30 1252 C 207.789 2.58828 5.25741 0
M  V30 1253 N 207.839 2.68068 3.77503 0
M  V30 1254 H 205 5.40332 6.79951 0
M  V30 1255 H 204.73 4.41613 5.32378 0
M  V30 1256 H 205.597 3.26331 7.47797 0
M  V30 1257 P 209.559 2.75334 8.47391 0
M  V30 1258 O 209.779 2.44571 9.90142 0
M  V30 1259 O 210.349 3.87688 7.92115 0
M  V30 1260 O 209.809 1.4459 7.59357 0
M  V30 1261 C 208.869 0.347608 7.69215 0
M  V30 1262 C 209.599 -0.96767 7.52806 0
M  V30 1263 O 209.809 -1.21036 6.1011 0
M  V30 1264 C 210.999 -1.04544 8.13308 0
M  V30 1265 O 211.389 -2.38311 8.41922 0
M  V30 1266 C 211.879 -0.491279 7.02284 0
M  V30 1267 C 211.169 -0.996264 5.77469 0
M  V30 1268 N 211.219 -0.0501916 4.62973 0
M  V30 1269 C 211.139 1.32786 4.63244 0
M  V30 1270 N 211.219 1.86957 3.44545 0
M  V30 1271 C 211.359 0.780241 2.58481 0
M  V30 1272 C 211.489 0.738536 1.17757 0
M  V30 1273 O 211.509 1.66794 0.372349 0
M  V30 1274 N 211.609 -0.58337 0.711393 0
M  V30 1275 C 211.609 -1.70816 1.51017 0
M  V30 1276 N 211.739 -2.87826 0.880757 0
M  V30 1277 N 211.479 -1.67126 2.8339 0
M  V30 1278 C 211.359 -0.401421 3.30572 0
M  V30 1279 H 208.38 0.374722 8.67691 0
M  V30 1280 H 208.11 0.443485 6.90277 0
M  V30 1281 H 208.977 -1.75537 7.96793 0
M  V30 1282 H 211.632 -1.95076 5.46529 0
M  V30 1283 H 211.911 0.608565 7.04577 0
M  V30 1284 H 212.903 -0.889672 7.08939 0
M  V30 1285 H 211.069 -0.43308 9.04564 0
M  V30 1286 H 211.02 1.91249 5.54442 0
M  V30 1287 H 211.702 -0.718054 -0.275244 0
M  V30 1288 H 211.739 -3.75721 1.41832 0
M  V30 1289 H 211.84 -2.90436 -0.145468 0
M  V30 1290 P 212.939 -2.75334 8.47391 0
M  V30 1291 O 213.159 -3.84128 9.44797 0
M  V30 1292 O 213.729 -1.51947 8.68712 0
M  V30 1293 O 213.189 -3.29363 6.99321 0
M  V30 1294 C 212.249 -4.24011 6.4274 0
M  V30 1295 C 212.979 -5.20775 5.52155 0
M  V30 1296 O 213.189 -4.56534 4.22446 0
M  V30 1297 C 214.379 -5.62629 5.96531 0
M  V30 1298 O 214.769 -6.87667 5.41053 0
M  V30 1299 C 215.259 -4.52537 5.39283 0
M  V30 1300 C 214.549 -4.20027 4.08623 0
M  V30 1301 N 214.599 -2.76189 3.71603 0
M  V30 1302 H 211.76 -4.797 7.24003 0
M  V30 1303 H 211.49 -3.69856 5.84513 0
M  V30 1304 H 212.357 -6.10356 5.41441 0
M  V30 1305 P 216.319 -7.20834 5.23717 0
M  V30 1306 O 216.539 -8.66104 5.38572 0
M  V30 1307 O 217.109 -6.33544 6.1349 0
M  V30 1308 O 216.569 -6.7751 3.72168 0
M  V30 1309 C 215.629 -7.20825 2.7076 0
M  V30 1310 C 216.359 -7.45864 1.40599 0
M  V30 1311 O 216.569 -6.17651 0.734225 0
M  V30 1312 C 217.759 -8.05808 1.51899 0
M  V30 1313 O 218.149 -8.74358 0.335205 0
M  V30 1314 C 218.639 -6.83093 1.70294 0
M  V30 1315 C 217.929 -5.79992 0.836974 0
M  V30 1316 N 217.979 -4.41864 1.38293 0
M  V30 1317 H 215.14 -8.13644 3.0377 0
M  V30 1318 H 214.87 -6.42788 2.55485 0
M  V30 1319 H 215.737 -8.12039 0.792769 0
M  V30 1320 P 219.699 -8.91 -3.97326e-13 0
M  V30 1321 O 219.919 -10.1726 -0.733694 0
M  V30 1322 O 220.489 -8.73148 1.23936 0
M  V30 1323 O 219.949 -7.66872 -0.971405 0
M  V30 1324 C 219.009 -7.42309 -2.04641 0
M  V30 1325 C 219.739 -6.86059 -3.24661 0
M  V30 1326 O 219.949 -5.42847 -3.03646 0
M  V30 1327 C 221.139 -7.41196 -3.50753 0
M  V30 1328 O 221.529 -7.27073 -4.86816 0
M  V30 1329 C 222.019 -6.5273 -2.63741 0
M  V30 1330 C 221.309 -5.1842 -2.73198 0
M  V30 1331 N 221.359 -4.38762 -1.4784 0
M  V30 1332 H 218.52 -8.36803 -2.32493 0
M  V30 1333 H 218.25 -6.70197 -1.71129 0
M  V30 1334 H 219.117 -7.03551 -4.13168 0
M  V30 1335 P 223.079 -7.20834 -5.23717 0
M  V30 1336 O 223.299 -7.79853 -6.57286 0
M  V30 1337 O 223.869 -7.79239 -4.12957 0
M  V30 1338 O 223.329 -5.63315 -5.29344 0
M  V30 1339 C 222.389 -4.80255 -6.01876 0
M  V30 1340 C 223.119 -3.64202 -6.65911 0
M  V30 1341 O 223.329 -2.60694 -5.64732 0
M  V30 1342 C 224.519 -3.93473 -7.1943 0
M  V30 1343 O 224.909 -3.02071 -8.21205 0
M  V30 1344 C 225.399 -3.73047 -5.97036 0
M  V30 1345 C 224.689 -2.58828 -5.25741 0
M  V30 1346 N 224.739 -2.68068 -3.77503 0
M  V30 1347 H 221.9 -5.40332 -6.79951 0
M  V30 1348 H 221.63 -4.41613 -5.32378 0
M  V30 1349 H 222.497 -3.26331 -7.47797 0
M  V30 1350 P 226.459 -2.75334 -8.47391 0
M  V30 1351 O 226.679 -2.44595 -9.90239 0
M  V30 1352 O 227.249 -3.87732 -7.92204 0
M  V30 1353 O 226.709 -1.4459 -7.59357 0
M  V30 1354 C 225.769 -0.347563 -7.69115 0
M  V30 1355 C 226.499 0.96767 -7.52806 0
M  V30 1356 O 226.709 1.21036 -6.1011 0
M  V30 1357 C 227.899 1.04544 -8.13308 0
M  V30 1358 O 228.289 2.38311 -8.41922 0
M  V30 1359 C 228.779 0.491279 -7.02284 0
M  V30 1360 C 228.069 0.996264 -5.77469 0
M  V30 1361 N 228.119 0.0501808 -4.62873 0
M  V30 1362 C 228.269 0.588177 -3.36904 0
M  V30 1363 O 228.359 1.78598 -3.17173 0
M  V30 1364 N 228.309 -0.329694 -2.33686 0
M  V30 1365 C 228.219 -1.6953 -2.45079 0
M  V30 1366 O 228.269 -2.41926 -1.44899 0
M  V30 1367 C 228.069 -2.16933 -3.80505 0
M  V30 1368 C 227.959 -3.65373 -3.97621 0
M  V30 1369 C 228.019 -1.30326 -4.83752 0
M  V30 1370 H 225.279 -0.374722 -8.67691 0
M  V30 1371 H 225.01 -0.443421 -6.90177 0
M  V30 1372 H 225.877 1.75537 -7.96793 0
M  V30 1373 H 228.532 1.94496 -5.46629 0
M  V30 1374 H 228.811 -0.608651 -7.04676 0
M  V30 1375 H 229.803 0.889672 -7.08939 0
M  V30 1376 H 227.969 0.43308 -9.04564 0
M  V30 1377 H 227.898 -1.68366 -5.8516 0
M  V30 1378 H 228.928 -4.05985 -4.30448 0
M  V30 1379 H 227.191 -3.88028 -4.72875 0
M  V30 1380 H 227.679 -4.11381 -3.01609 0
M  V30 1381 H 228.415 0.0393617 -1.41345 0
M  V30 1382 P 229.839 2.75334 -8.47391 0
M  V30 1383 O 230.059 3.84128 -9.44797 0
M  V30 1384 O 230.629 1.51947 -8.68712 0
M  V30 1385 O 230.089 3.29363 -6.99321 0
M  V30 1386 C 229.149 4.24011 -6.4274 0
M  V30 1387 C 229.879 5.20775 -5.52155 0
M  V30 1388 O 230.089 4.56534 -4.22446 0
M  V30 1389 C 231.279 5.62629 -5.96531 0
M  V30 1390 O 231.669 6.87667 -5.41053 0
M  V30 1391 C 232.159 4.52537 -5.39283 0
M  V30 1392 C 231.449 4.20027 -4.08623 0
M  V30 1393 N 231.499 2.76189 -3.71603 0
M  V30 1394 H 228.66 4.797 -7.24003 0
M  V30 1395 H 228.39 3.69856 -5.84513 0
M  V30 1396 H 229.257 6.10356 -5.41441 0
M  V30 1397 P 233.219 7.20834 -5.23717 0
M  V30 1398 O 233.439 8.66104 -5.38572 0
M  V30 1399 O 234.009 6.33544 -6.1349 0
M  V30 1400 O 233.469 6.7751 -3.72168 0
M  V30 1401 C 232.529 7.20825 -2.7076 0
M  V30 1402 C 233.259 7.45864 -1.40599 0
M  V30 1403 O 233.469 6.17651 -0.734225 0
M  V30 1404 C 234.659 8.05808 -1.51899 0
M  V30 1405 O 235.049 8.74358 -0.335205 0
M  V30 1406 C 235.539 6.83093 -1.70294 0
M  V30 1407 C 234.829 5.79992 -0.836974 0
M  V30 1408 N 234.879 4.41864 -1.38293 0
M  V30 1409 C 234.799 3.99538 -2.69438 0
M  V30 1410 N 234.879 2.69909 -2.84277 0
M  V30 1411 C 235.019 2.21719 -1.5408 0
M  V30 1412 C 235.149 0.891712 -1.06628 0
M  V30 1413 O 235.169 -0.161298 -1.70137 0
M  V30 1414 N 235.269 0.856846 0.334985 0
M  V30 1415 C 235.269 1.9641 1.15789 0
M  V30 1416 N 235.399 1.72708 2.46522 0
M  V30 1417 N 235.139 3.21165 0.713741 0
M  V30 1418 C 235.019 3.26797 -0.639748 0
M  V30 1419 H 232.04 8.13644 -3.0377 0
M  V30 1420 H 231.77 6.42788 -2.55485 0
M  V30 1421 H 232.637 8.12039 -0.792769 0
M  V30 1422 H 235.292 5.80061 0.166416 0
M  V30 1423 H 235.571 6.51287 -2.75604 0
M  V30 1424 H 236.563 7.01734 -1.34462 0
M  V30 1425 H 234.729 8.73674 -2.38337 0
M  V30 1426 H 234.68 4.68207 -3.53221 0
M  V30 1427 H 235.362 -0.0398818 0.767965 0
M  V30 1428 H 235.399 2.50995 3.13503 0
M  V30 1429 H 235.5 0.759148 2.80716 0
M  V30 1430 P 236.599 8.91 5.54508e-13 0
M  V30 1431 O 236.819 10.1736 0.733766 0
M  V30 1432 O 237.389 8.73247 -1.2395 0
M  V30 1433 O 236.849 7.66872 0.971405 0
M  V30 1434 C 235.909 7.42309 2.04641 0
M  V30 1435 C 236.639 6.86059 3.24661 0
M  V30 1436 O 236.849 5.42847 3.03646 0
M  V30 1437 C 238.039 7.41196 3.50753 0
M  V30 1438 O 238.429 7.27073 4.86816 0
M  V30 1439 C 238.919 6.5273 2.63741 0
M  V30 1440 C 238.209 5.1842 2.73198 0
M  V30 1441 N 238.259 4.38668 1.47808 0
M  V30 1442 C 238.409 3.00789 1.58511 0
M  V30 1443 O 238.499 2.50116 2.71298 0
M  V30 1444 N 238.459 2.29703 0.253698 0
M  V30 1445 C 238.359 2.84269 -0.750133 0
M  V30 1446 N 238.409 2.06951 -1.82612 0
M  V30 1447 C 238.209 4.25803 -0.889776 0
M  V30 1448 C 238.159 4.98326 0.259363 0
M  V30 1449 H 235.419 8.36707 2.32466 0
M  V30 1450 H 235.15 6.701 1.71105 0
M  V30 1451 H 236.017 7.03638 4.13219 0
M  V30 1452 H 238.672 4.59852 3.53955 0
M  V30 1453 H 238.951 6.88995 1.59871 0
M  V30 1454 H 239.943 6.46749 3.03687 0
M  V30 1455 H 238.109 8.46908 3.20714 0
M  V30 1456 H 238.037 6.06349 0.206238 0
M  V30 1457 H 238.139 4.73163 -1.86796 0
M  V30 1458 H 238.527 1.05099 -1.72271 0
M  V30 1459 H 238.33 2.48716 -2.76361 0
M  V30 1460 P 239.979 7.20834 5.23717 0
M  V30 1461 O 240.199 7.79853 6.57286 0
M  V30 1462 O 240.769 7.79239 4.12957 0
M  V30 1463 O 240.229 5.63315 5.29344 0
M  V30 1464 C 239.289 4.80255 6.01876 0
M  V30 1465 C 240.019 3.64202 6.65911 0
M  V30 1466 O 240.229 2.60694 5.64732 0
M  V30 1467 C 241.419 3.93473 7.1943 0
M  V30 1468 O 241.809 3.02071 8.21205 0
M  V30 1469 C 242.299 3.73047 5.97036 0
M  V30 1470 C 241.589 2.58828 5.25741 0
M  V30 1471 N 241.639 2.68068 3.77503 0
M  V30 1472 H 238.8 5.40332 6.79951 0
M  V30 1473 H 238.53 4.41613 5.32378 0
M  V30 1474 H 239.397 3.26331 7.47797 0
M  V30 1475 P 243.359 2.75334 8.47391 0
M  V30 1476 O 243.579 2.44571 9.90142 0
M  V30 1477 O 244.149 3.87688 7.92115 0
M  V30 1478 O 243.609 1.4459 7.59357 0
M  V30 1479 C 242.669 0.347608 7.69215 0
M  V30 1480 C 243.399 -0.96767 7.52806 0
M  V30 1481 O 243.609 -1.21036 6.1011 0
M  V30 1482 C 244.799 -1.04544 8.13308 0
M  V30 1483 O 245.189 -2.38311 8.41922 0
M  V30 1484 C 245.679 -0.491279 7.02284 0
M  V30 1485 C 244.969 -0.996264 5.77469 0
M  V30 1486 N 245.019 -0.0501916 4.62973 0
M  V30 1487 C 244.939 1.32786 4.63244 0
M  V30 1488 N 245.019 1.86957 3.44545 0
M  V30 1489 C 245.159 0.780241 2.58481 0
M  V30 1490 C 245.289 0.738536 1.17757 0
M  V30 1491 O 245.309 1.66794 0.372349 0
M  V30 1492 N 245.409 -0.58337 0.711393 0
M  V30 1493 C 245.409 -1.70816 1.51017 0
M  V30 1494 N 245.539 -2.87826 0.880757 0
M  V30 1495 N 245.279 -1.67126 2.8339 0
M  V30 1496 C 245.159 -0.401421 3.30572 0
M  V30 1497 H 242.18 0.374722 8.67691 0
M  V30 1498 H 241.91 0.443485 6.90277 0
M  V30 1499 H 242.777 -1.75537 7.96793 0
M  V30 1500 H 245.432 -1.95076 5.46529 0
M  V30 1501 H 245.711 0.608565 7.04577 0
M  V30 1502 H 246.703 -0.889672 7.08939 0
M  V30 1503 H 244.869 -0.43308 9.04564 0
M  V30 1504 H 244.82 1.91249 5.54442 0
M  V30 1505 H 245.502 -0.718054 -0.275244 0
M  V30 1506 H 245.539 -3.75721 1.41832 0
M  V30 1507 H 245.64 -2.90436 -0.145468 0
M  V30 1508 P 246.739 -2.75334 8.47391 0
M  V30 1509 O 246.959 -3.84128 9.44797 0
M  V30 1510 O 247.529 -1.51947 8.68712 0
M  V30 1511 O 246.989 -3.29363 6.99321 0
M  V30 1512 C 246.049 -4.24011 6.4274 0
M  V30 1513 C 246.779 -5.20775 5.52155 0
M  V30 1514 O 246.989 -4.56534 4.22446 0
M  V30 1515 C 248.179 -5.62629 5.96531 0
M  V30 1516 O 248.569 -6.87667 5.41053 0
M  V30 1517 C 249.059 -4.52537 5.39283 0
M  V30 1518 C 248.349 -4.20027 4.08623 0
M  V30 1519 N 248.399 -2.76189 3.71603 0
M  V30 1520 H 245.56 -4.797 7.24003 0
M  V30 1521 H 245.29 -3.69856 5.84513 0
M  V30 1522 H 246.157 -6.10356 5.41441 0
M  V30 1523 P 250.119 -7.20834 5.23717 0
M  V30 1524 O 250.339 -8.66104 5.38572 0
M  V30 1525 O 250.909 -6.33544 6.1349 0
M  V30 1526 O 250.369 -6.7751 3.72168 0
M  V30 1527 C 249.429 -7.20825 2.7076 0
M  V30 1528 C 250.159 -7.45864 1.40599 0
M  V30 1529 O 250.369 -6.17651 0.734225 0
M  V30 1530 C 251.559 -8.05808 1.51899 0
M  V30 1531 O 251.949 -8.74358 0.335205 0
M  V30 1532 C 252.439 -6.83093 1.70294 0
M  V30 1533 C 251.729 -5.79992 0.836974 0
M  V30 1534 N 251.779 -4.41864 1.38293 0
M  V30 1535 H 248.94 -8.13644 3.0377 0
M  V30 1536 H 248.67 -6.42788 2.55485 0
M  V30 1537 H 249.537 -8.12039 0.792769 0
M  V30 1538 P 253.498 -8.91 -7.1169e-13 0
M  V30 1539 O 253.718 -10.1726 -0.733694 0
M  V30 1540 O 254.288 -8.73148 1.23936 0
M  V30 1541 O 253.748 -7.66872 -0.971405 0
M  V30 1542 C 252.808 -7.42309 -2.04641 0
M  V30 1543 C 253.538 -6.86059 -3.24661 0
M  V30 1544 O 253.748 -5.42847 -3.03646 0
M  V30 1545 C 254.938 -7.41196 -3.50753 0
M  V30 1546 O 255.328 -7.27073 -4.86816 0
M  V30 1547 C 255.818 -6.5273 -2.63741 0
M  V30 1548 C 255.108 -5.1842 -2.73198 0
M  V30 1549 N 255.158 -4.38762 -1.4784 0
M  V30 1550 C 255.078 -4.81605 -0.168631 0
M  V30 1551 N 255.158 -3.85454 0.713363 0
M  V30 1552 C 255.298 -2.6994 -0.0566958 0
M  V30 1553 C 255.428 -1.34815 0.338502 0
M  V30 1554 O 255.448 -0.869548 1.47125 0
M  V30 1555 N 255.548 -0.496304 -0.77465 0
M  V30 1556 C 255.548 -0.908403 -2.09122 0
M  V30 1557 N 255.678 0.0517805 -3.00955 0
M  V30 1558 N 255.418 -2.17875 -2.46519 0
M  V30 1559 C 255.298 -3.01988 -1.4033 0
M  V30 1560 H 252.319 -8.36803 -2.32493 0
M  V30 1561 H 252.049 -6.70197 -1.71129 0
M  V30 1562 H 252.916 -7.03551 -4.13168 0
M  V30 1563 H 255.571 -4.59498 -3.54415 0
M  V30 1564 H 255.85 -6.88898 -1.59848 0
M  V30 1565 H 256.842 -6.46749 -3.03687 0
M  V30 1566 H 255.008 -8.46908 -3.20714 0
M  V30 1567 H 254.959 -5.86405 0.105564 0
M  V30 1568 H 255.641 0.483664 -0.597855 0
M  V30 1569 H 255.678 -0.187865 -4.0116 0
M  V30 1570 H 255.779 1.03585 -2.71726 0
M  V30 1571 P 256.878 -7.20834 -5.23717 0
M  V30 1572 O 257.098 -7.79853 -6.57286 0
M  V30 1573 O 257.668 -7.79239 -4.12957 0
M  V30 1574 O 257.128 -5.63315 -5.29344 0
M  V30 1575 C 256.188 -4.80255 -6.01876 0
M  V30 1576 C 256.918 -3.64202 -6.65911 0
M  V30 1577 O 257.128 -2.60694 -5.64732 0
M  V30 1578 C 258.318 -3.93473 -7.1943 0
M  V30 1579 O 258.708 -3.02071 -8.21205 0
M  V30 1580 C 259.198 -3.73047 -5.97036 0
M  V30 1581 C 258.488 -2.58828 -5.25741 0
M  V30 1582 N 258.538 -2.68068 -3.77503 0
M  V30 1583 H 255.699 -5.40332 -6.79951 0
M  V30 1584 H 255.429 -4.41613 -5.32378 0
M  V30 1585 H 256.296 -3.26331 -7.47797 0
M  V30 1586 P 260.258 -2.75334 -8.47391 0
M  V30 1587 O 260.478 -2.44571 -9.90142 0
M  V30 1588 O 261.048 -3.87688 -7.92115 0
M  V30 1589 O 260.508 -1.4459 -7.59357 0
M  V30 1590 C 259.568 -0.347608 -7.69215 0
M  V30 1591 C 260.298 0.96767 -7.52806 0
M  V30 1592 O 260.508 1.21036 -6.1011 0
M  V30 1593 C 261.698 1.04544 -8.13308 0
M  V30 1594 O 262.088 2.38311 -8.41922 0
M  V30 1595 C 262.578 0.491279 -7.02284 0
M  V30 1596 C 261.868 0.996264 -5.77469 0
M  V30 1597 N 261.918 0.0501916 -4.62973 0
M  V30 1598 H 259.079 -0.374722 -8.67691 0
M  V30 1599 H 258.809 -0.443485 -6.90277 0
M  V30 1600 H 259.676 1.75537 -7.96793 0
M  V30 1601 P 263.638 2.75334 -8.47391 0
M  V30 1602 O 263.858 3.84128 -9.44797 0
M  V30 1603 O 264.428 1.51947 -8.68712 0
M  V30 1604 O 263.888 3.29363 -6.99321 0
M  V30 1605 C 262.948 4.24011 -6.4274 0
M  V30 1606 C 263.678 5.20775 -5.52155 0
M  V30 1607 O 263.888 4.56534 -4.22446 0
M  V30 1608 C 265.078 5.62629 -5.96531 0
M  V30 1609 O 265.468 6.87667 -5.41053 0
M  V30 1610 C 265.958 4.52537 -5.39283 0
M  V30 1611 C 265.248 4.20027 -4.08623 0
M  V30 1612 N 265.298 2.76189 -3.71603 0
M  V30 1613 H 262.459 4.797 -7.24003 0
M  V30 1614 H 262.189 3.69856 -5.84513 0
M  V30 1615 H 263.056 6.10356 -5.41441 0
M  V30 1616 P 267.018 7.20834 -5.23717 0
M  V30 1617 O 267.238 8.66104 -5.38572 0
M  V30 1618 O 267.808 6.33544 -6.1349 0
M  V30 1619 O 267.268 6.7751 -3.72168 0
M  V30 1620 C 266.328 7.20825 -2.7076 0
M  V30 1621 C 267.058 7.45864 -1.40599 0
M  V30 1622 O 267.268 6.17651 -0.734225 0
M  V30 1623 C 268.458 8.05808 -1.51899 0
M  V30 1624 O 268.848 8.74358 -0.335205 0
M  V30 1625 C 269.338 6.83093 -1.70294 0
M  V30 1626 C 268.628 5.79992 -0.836974 0
M  V30 1627 N 268.678 4.41864 -1.38293 0
M  V30 1628 H 265.839 8.13644 -3.0377 0
M  V30 1629 H 265.569 6.42788 -2.55485 0
M  V30 1630 H 266.436 8.12039 -0.792769 0
M  V30 1631 P 270.398 8.91 8.68872e-13 0
M  V30 1632 O 270.618 10.1736 0.733766 0
M  V30 1633 O 271.188 8.73247 -1.2395 0
M  V30 1634 O 270.648 7.66872 0.971405 0
M  V30 1635 C 269.708 7.42309 2.04641 0
M  V30 1636 C 270.438 6.86059 3.24661 0
M  V30 1637 O 270.648 5.42847 3.03646 0
M  V30 1638 C 271.838 7.41196 3.50753 0
M  V30 1639 O 272.228 7.27073 4.86816 0
M  V30 1640 C 272.718 6.5273 2.63741 0
M  V30 1641 C 272.008 5.1842 2.73198 0
M  V30 1642 N 272.058 4.38668 1.47808 0
M  V30 1643 C 272.208 3.00789 1.58511 0
M  V30 1644 O 272.298 2.50116 2.71298 0
M  V30 1645 N 272.258 2.29703 0.253698 0
M  V30 1646 C 272.158 2.84269 -0.750133 0
M  V30 1647 N 272.208 2.06951 -1.82612 0
M  V30 1648 C 272.008 4.25803 -0.889776 0
M  V30 1649 C 271.958 4.98326 0.259363 0
M  V30 1650 H 269.218 8.36707 2.32466 0
M  V30 1651 H 268.949 6.701 1.71105 0
M  V30 1652 H 269.816 7.03638 4.13219 0
M  V30 1653 H 272.471 4.59852 3.53955 0
M  V30 1654 H 272.75 6.88995 1.59871 0
M  V30 1655 H 273.742 6.46749 3.03687 0
M  V30 1656 H 271.908 8.46908 3.20714 0
M  V30 1657 H 271.836 6.06349 0.206238 0
M  V30 1658 H 271.938 4.73163 -1.86796 0
M  V30 1659 H 272.326 1.05099 -1.72271 0
M  V30 1660 H 272.129 2.48716 -2.76361 0
M  V30 1661 P 273.778 7.20834 5.23717 0
M  V30 1662 O 273.998 7.79853 6.57286 0
M  V30 1663 O 274.568 7.79239 4.12957 0
M  V30 1664 O 274.028 5.63315 5.29344 0
M  V30 1665 C 273.088 4.80255 6.01876 0
M  V30 1666 C 273.818 3.64202 6.65911 0
M  V30 1667 O 274.028 2.60694 5.64732 0
M  V30 1668 C 275.218 3.93473 7.1943 0
M  V30 1669 O 275.608 3.02071 8.21205 0
M  V30 1670 C 276.098 3.73047 5.97036 0
M  V30 1671 C 275.388 2.58828 5.25741 0
M  V30 1672 N 275.438 2.68068 3.77503 0
M  V30 1673 C 275.358 3.79715 2.96723 0
M  V30 1674 N 275.438 3.5377 1.68852 0
M  V30 1675 C 275.578 2.15054 1.63254 0
M  V30 1676 C 275.708 1.28964 0.518571 0
M  V30 1677 N 275.828 -0.0538097 0.918425 0
M  V30 1678 C 275.828 -0.494275 2.22578 0
M  V30 1679 N 275.958 -1.81086 2.40434 0
M  V30 1680 N 275.698 0.313645 3.27502 0
M  V30 1681 C 275.578 1.61829 2.91033 0
M  V30 1682 H 272.599 5.40332 6.79951 0
M  V30 1683 H 272.329 4.41613 5.32378 0
M  V30 1684 H 273.196 3.26331 7.47797 0
M  V30 1685 P 277.158 2.75334 8.47391 0
M  V30 1686 O 277.378 2.44571 9.90142 0
M  V30 1687 O 277.948 3.87688 7.92115 0
M  V30 1688 O 277.408 1.4459 7.59357 0
M  V30 1689 C 276.468 0.347608 7.69215 0
M  V30 1690 C 277.198 -0.96767 7.52806 0
M  V30 1691 O 277.408 -1.21036 6.1011 0
M  V30 1692 C 278.598 -1.04544 8.13308 0
M  V30 1693 O 278.988 -2.38311 8.41922 0
M  V30 1694 C 279.478 -0.491279 7.02284 0
M  V30 1695 C 278.768 -0.996264 5.77469 0
M  V30 1696 N 278.818 -0.0501916 4.62973 0
M  V30 1697 H 275.979 0.374722 8.67691 0
M  V30 1698 H 275.709 0.443485 6.90277 0
M  V30 1699 H 276.576 -1.75537 7.96793 0
M  V30 1700 P 280.538 -2.75334 8.47391 0
M  V30 1701 O 280.758 -3.84166 9.4489 0
M  V30 1702 O 281.328 -1.51964 8.6881 0
M  V30 1703 O 280.788 -3.29363 6.99321 0
M  V30 1704 C 279.848 -4.23956 6.42656 0
M  V30 1705 C 280.578 -5.20775 5.52155 0
M  V30 1706 O 280.788 -4.56534 4.22446 0
M  V30 1707 C 281.978 -5.62629 5.96531 0
M  V30 1708 O 282.368 -6.87667 5.41053 0
M  V30 1709 C 282.858 -4.52537 5.39283 0
M  V30 1710 C 282.148 -4.20027 4.08623 0
M  V30 1711 N 282.198 -2.7613 3.71522 0
M  V30 1712 C 282.348 -2.45612 2.37989 0
M  V30 1713 O 282.438 -3.30919 1.51621 0
M  V30 1714 N 282.388 -1.10684 2.08435 0
M  V30 1715 C 282.298 -0.0690084 2.9792 0
M  V30 1716 O 282.348 1.10553 2.59426 0
M  V30 1717 C 282.148 -0.481522 4.35345 0
M  V30 1718 C 282.038 0.618778 5.36443 0
M  V30 1719 C 282.098 -1.78906 4.67968 0
M  V30 1720 H 279.358 -4.797 7.24003 0
M  V30 1721 H 279.089 -3.69802 5.84429 0
M  V30 1722 H 279.956 -6.10356 5.41441 0
M  V30 1723 H 282.611 -4.78651 3.27911 0
M  V30 1724 H 282.89 -3.64957 6.05871 0
M  V30 1725 H 283.882 -4.8868 5.2125 0
M  V30 1726 H 282.048 -5.66726 7.06352 0
M  V30 1727 H 281.977 -2.07737 5.72367 0
M  V30 1728 H 283.007 0.754375 5.86871 0
M  V30 1729 H 281.27 0.359721 6.10641 0
M  V30 1730 H 281.758 1.55533 4.8581 0
M  V30 1731 H 282.494 -0.862651 1.12037 0
M  V30 1732 P 283.918 -7.20834 5.23717 0
M  V30 1733 O 284.138 -8.66104 5.38572 0
M  V30 1734 O 284.708 -6.33544 6.1349 0
M  V30 1735 O 284.168 -6.7751 3.72168 0
M  V30 1736 C 283.228 -7.20825 2.7076 0
M  V30 1737 C 283.958 -7.45864 1.40599 0
M  V30 1738 O 284.168 -6.17651 0.734225 0
M  V30 1739 C 285.358 -8.05808 1.51899 0
M  V30 1740 O 285.748 -8.74358 0.335205 0
M  V30 1741 C 286.238 -6.83093 1.70294 0
M  V30 1742 C 285.528 -5.79992 0.836974 0
M  V30 1743 N 285.578 -4.41864 1.38293 0
M  V30 1744 H 282.739 -8.13644 3.0377 0
M  V30 1745 H 282.469 -6.42788 2.55485 0
M  V30 1746 H 283.336 -8.12039 0.792769 0
M  V30 1747 P 287.298 -8.91 -1.02605e-12 0
M  V30 1748 O 287.518 -10.1726 -0.733694 0
M  V30 1749 O 288.088 -8.73148 1.23936 0
M  V30 1750 O 287.548 -7.66872 -0.971405 0
M  V30 1751 C 286.608 -7.42309 -2.04641 0
M  V30 1752 C 287.338 -6.86059 -3.24661 0
M  V30 1753 O 287.548 -5.42847 -3.03646 0
M  V30 1754 C 288.738 -7.41196 -3.50753 0
M  V30 1755 O 289.128 -7.27073 -4.86816 0
M  V30 1756 C 289.618 -6.5273 -2.63741 0
M  V30 1757 C 288.908 -5.1842 -2.73198 0
M  V30 1758 N 288.958 -4.38762 -1.4784 0
M  V30 1759 H 286.119 -8.36803 -2.32493 0
M  V30 1760 H 285.849 -6.70197 -1.71129 0
M  V30 1761 H 286.716 -7.03551 -4.13168 0
M  V30 1762 P 290.678 -7.20834 -5.23717 0
M  V30 1763 O 290.898 -7.79853 -6.57286 0
M  V30 1764 O 291.468 -7.79239 -4.12957 0
M  V30 1765 O 290.928 -5.63315 -5.29344 0
M  V30 1766 C 289.988 -4.80255 -6.01876 0
M  V30 1767 C 290.718 -3.64202 -6.65911 0
M  V30 1768 O 290.928 -2.60694 -5.64732 0
M  V30 1769 C 292.118 -3.93473 -7.1943 0
M  V30 1770 O 292.508 -3.02071 -8.21205 0
M  V30 1771 C 292.998 -3.73047 -5.97036 0
M  V30 1772 C 292.288 -2.58828 -5.25741 0
M  V30 1773 N 292.338 -2.68068 -3.77503 0
M  V30 1774 H 289.499 -5.40332 -6.79951 0
M  V30 1775 H 289.229 -4.41613 -5.32378 0
M  V30 1776 H 290.096 -3.26331 -7.47797 0
M  V30 1777 P 294.058 -2.75334 -8.47391 0
M  V30 1778 O 294.278 -2.44619 -9.90336 0
M  V30 1779 O 294.848 -3.87776 -7.92294 0
M  V30 1780 O 294.308 -1.4459 -7.59357 0
M  V30 1781 C 293.368 -0.347653 -7.69315 0
M  V30 1782 C 294.098 0.96767 -7.52806 0
M  V30 1783 O 294.308 1.21055 -6.10208 0
M  V30 1784 C 295.498 1.04557 -8.13408 0
M  V30 1785 O 295.888 2.38311 -8.41922 0
M  V30 1786 C 296.378 0.491279 -7.02284 0
M  V30 1787 C 295.668 0.996264 -5.77469 0
M  V30 1788 N 295.718 0.0501916 -4.62973 0
M  V30 1789 H 292.88 -0.374765 -8.67791 0
M  V30 1790 H 292.608 -0.443613 -6.90476 0
M  V30 1791 H 293.476 1.75559 -7.96891 0
M  V30 1792 H 296.131 1.94563 -5.46818 0
M  V30 1793 H 296.411 -0.608651 -7.04676 0
M  V30 1794 H 297.402 0.889796 -7.09039 0
M  V30 1795 H 295.568 0.433128 -9.04664 0
M  V30 1796 P 297.438 2.75334 -8.47391 0
M  V30 1797 O 297.658 3.84128 -9.44797 0
M  V30 1798 O 298.228 1.51947 -8.68712 0
M  V30 1799 O 297.688 3.29363 -6.99321 0
M  V30 1800 C 296.748 4.24011 -6.4274 0
M  V30 1801 C 297.478 5.20775 -5.52155 0
M  V30 1802 O 297.688 4.56534 -4.22446 0
M  V30 1803 C 298.878 5.62629 -5.96531 0
M  V30 1804 O 299.268 6.87667 -5.41053 0
M  V30 1805 C 299.758 4.52537 -5.39283 0
M  V30 1806 C 299.048 4.20027 -4.08623 0
M  V30 1807 N 299.098 2.76189 -3.71603 0
M  V30 1808 H 296.259 4.797 -7.24003 0
M  V30 1809 H 295.989 3.69856 -5.84513 0
M  V30 1810 H 296.856 6.10356 -5.41441 0
M  V30 1811 P 300.818 7.20834 -5.23717 0
M  V30 1812 O 301.038 8.66104 -5.38572 0
M  V30 1813 O 301.608 6.33544 -6.1349 0
M  V30 1814 O 301.068 6.7751 -3.72168 0
M  V30 1815 C 300.128 7.20825 -2.7076 0
M  V30 1816 C 300.858 7.45864 -1.40599 0
M  V30 1817 O 301.068 6.17651 -0.734225 0
M  V30 1818 C 302.258 8.05808 -1.51899 0
M  V30 1819 O 302.648 8.74358 -0.335205 0
M  V30 1820 C 303.138 6.83093 -1.70294 0
M  V30 1821 C 302.428 5.79992 -0.836974 0
M  V30 1822 N 302.478 4.41864 -1.38293 0
M  V30 1823 C 302.398 3.99538 -2.69438 0
M  V30 1824 N 302.478 2.69909 -2.84277 0
M  V30 1825 C 302.618 2.21719 -1.5408 0
M  V30 1826 C 302.748 0.891712 -1.06628 0
M  V30 1827 N 302.868 0.856846 0.334985 0
M  V30 1828 C 302.868 1.9641 1.15789 0
M  V30 1829 N 302.998 1.72708 2.46522 0
M  V30 1830 N 302.738 3.21165 0.713741 0
M  V30 1831 C 302.618 3.26797 -0.639748 0
M  V30 1832 H 299.639 8.13644 -3.0377 0
M  V30 1833 H 299.369 6.42788 -2.55485 0
M  V30 1834 H 300.236 8.12039 -0.792769 0
M  V30 1835 P 304.198 8.91 1.18324e-12 0
M  V30 1836 O 304.418 10.1726 0.733694 0
M  V30 1837 O 304.988 8.73148 -1.23936 0
M  V30 1838 O 304.448 7.66872 0.971405 0
M  V30 1839 C 303.508 7.42309 2.04641 0
M  V30 1840 C 304.238 6.86059 3.24661 0
M  V30 1841 O 304.448 5.42847 3.03646 0
M  V30 1842 C 305.638 7.41196 3.50753 0
M  V30 1843 O 306.028 7.27073 4.86816 0
M  V30 1844 C 306.518 6.5273 2.63741 0
M  V30 1845 C 305.808 5.1842 2.73198 0
M  V30 1846 N 305.858 4.38762 1.4784 0
M  V30 1847 C 305.778 4.81605 0.168631 0
M  V30 1848 N 305.858 3.85454 -0.713363 0
M  V30 1849 C 305.998 2.6994 0.0566958 0
M  V30 1850 C 306.128 1.34815 -0.338502 0
M  V30 1851 N 306.248 0.496304 0.77465 0
M  V30 1852 C 306.248 0.908403 2.09122 0
M  V30 1853 N 306.378 -0.0517805 3.00955 0
M  V30 1854 N 306.118 2.17875 2.46519 0
M  V30 1855 C 305.998 3.01988 1.4033 0
M  V30 1856 H 303.019 8.36803 2.32493 0
M  V30 1857 H 302.749 6.70197 1.71129 0
M  V30 1858 H 303.616 7.03551 4.13168 0
M  V30 1859 P 307.578 7.20834 5.23717 0
M  V30 1860 O 307.798 7.79853 6.57286 0
M  V30 1861 O 308.368 7.79239 4.12957 0
M  V30 1862 O 307.828 5.63315 5.29344 0
M  V30 1863 C 306.888 4.80255 6.01876 0
M  V30 1864 C 307.618 3.64202 6.65911 0
M  V30 1865 O 307.828 2.60694 5.64732 0
M  V30 1866 C 309.018 3.93473 7.1943 0
M  V30 1867 O 309.408 3.02071 8.21205 0
M  V30 1868 C 309.898 3.73047 5.97036 0
M  V30 1869 C 309.188 2.58828 5.25741 0
M  V30 1870 N 309.238 2.68068 3.77503 0
M  V30 1871 H 306.399 5.40332 6.79951 0
M  V30 1872 H 306.129 4.41613 5.32378 0
M  V30 1873 H 306.996 3.26331 7.47797 0
M  V30 1874 P 310.958 2.75334 8.47391 0
M  V30 1875 O 311.178 2.44571 9.90142 0
M  V30 1876 O 311.748 3.87688 7.92115 0
M  V30 1877 O 311.208 1.4459 7.59357 0
M  V30 1878 C 310.268 0.347608 7.69215 0
M  V30 1879 C 310.998 -0.96767 7.52806 0
M  V30 1880 O 311.208 -1.21036 6.1011 0
M  V30 1881 C 312.398 -1.04544 8.13308 0
M  V30 1882 O 312.788 -2.38311 8.41922 0
M  V30 1883 C 313.278 -0.491279 7.02284 0
M  V30 1884 C 312.568 -0.996264 5.77469 0
M  V30 1885 N 312.618 -0.0501916 4.62973 0
M  V30 1886 H 309.779 0.374722 8.67691 0
M  V30 1887 H 309.509 0.443485 6.90277 0
M  V30 1888 H 310.376 -1.75537 7.96793 0
M  V30 1889 P 314.338 -2.75334 8.47391 0
M  V30 1890 O 314.558 -3.84128 9.44797 0
M  V30 1891 O 315.128 -1.51947 8.68712 0
M  V30 1892 O 314.588 -3.29363 6.99321 0
M  V30 1893 C 313.648 -4.24011 6.4274 0
M  V30 1894 C 314.378 -5.20775 5.52155 0
M  V30 1895 O 314.588 -4.56534 4.22446 0
M  V30 1896 C 315.778 -5.62629 5.96531 0
M  V30 1897 O 316.168 -6.87667 5.41053 0
M  V30 1898 C 316.658 -4.52537 5.39283 0
M  V30 1899 C 315.948 -4.20027 4.08623 0
M  V30 1900 N 315.998 -2.76189 3.71603 0
M  V30 1901 H 313.159 -4.797 7.24003 0
M  V30 1902 H 312.889 -3.69856 5.84513 0
M  V30 1903 H 313.756 -6.10356 5.41441 0
M  V30 1904 P 317.718 -7.20834 5.23717 0
M  V30 1905 O 317.938 -8.66189 5.38625 0
M  V30 1906 O 318.508 -6.33615 6.1356 0
M  V30 1907 O 317.968 -6.7751 3.72168 0
M  V30 1908 C 317.028 -7.20825 2.7076 0
M  V30 1909 C 317.758 -7.45864 1.40599 0
M  V30 1910 O 317.968 -6.17651 0.734225 0
M  V30 1911 C 319.158 -8.05808 1.51899 0
M  V30 1912 O 319.548 -8.74358 0.335205 0
M  V30 1913 C 320.038 -6.83093 1.70294 0
M  V30 1914 C 319.328 -5.79992 0.836974 0
M  V30 1915 N 319.378 -4.41769 1.38263 0
M  V30 1916 C 319.528 -3.36514 0.485617 0
M  V30 1917 O 319.618 -3.61814 -0.724703 0
M  V30 1918 N 319.578 -2.00746 1.14492 0
M  V30 1919 C 319.478 -1.85887 2.27776 0
M  V30 1920 N 319.528 -0.600907 2.69379 0
M  V30 1921 C 319.328 -2.92182 3.22265 0
M  V30 1922 C 319.278 -4.18399 2.71925 0
M  V30 1923 H 316.538 -8.1355 3.03735 0
M  V30 1924 H 316.269 -6.42695 2.55448 0
M  V30 1925 H 317.136 -8.12139 0.792866 0
M  V30 1926 H 319.791 -5.80078 -0.160615 0
M  V30 1927 H 320.07 -6.51379 2.75643 0
M  V30 1928 H 321.062 -7.01734 1.34462 0
M  V30 1929 H 319.228 -8.73674 2.38337 0
M  V30 1930 H 319.156 -5.02669 3.39718 0
M  V30 1931 H 319.258 -2.73001 4.29239 0
M  V30 1932 H 319.646 0.162318 2.01146 0
M  V30 1933 H 319.449 -0.387742 3.69773 0
M  V30 1934 P 321.098 -8.91 -1.34042e-12 0
M  V30 1935 O 321.318 -10.1736 -0.733766 0
M  V30 1936 O 321.888 -8.73247 1.2395 0
M  V30 1937 O 321.348 -7.66872 -0.971405 0
M  V30 1938 C 320.408 -7.42309 -2.04641 0
M  V30 1939 C 321.138 -6.86059 -3.24661 0
M  V30 1940 O 321.348 -5.42847 -3.03646 0
M  V30 1941 C 322.538 -7.41196 -3.50753 0
M  V30 1942 O 322.928 -7.27073 -4.86816 0
M  V30 1943 C 323.418 -6.5273 -2.63741 0
M  V30 1944 C 322.708 -5.1842 -2.73198 0
M  V30 1945 N 322.758 -4.38668 -1.47808 0
M  V30 1946 C 322.908 -3.00789 -1.58511 0
M  V30 1947 O 322.998 -2.50116 -2.71298 0
M  V30 1948 N 322.958 -2.29703 -0.253698 0
M  V30 1949 C 322.858 -2.84269 0.750133 0
M  V30 1950 N 322.908 -2.06951 1.82612 0
M  V30 1951 C 322.708 -4.25803 0.889776 0
M  V30 1952 C 322.658 -4.98326 -0.259363 0
M  V30 1953 H 319.918 -8.36707 -2.32466 0
M  V30 1954 H 319.649 -6.701 -1.71105 0
M  V30 1955 H 320.516 -7.03638 -4.13219 0
M  V30 1956 H 323.171 -4.59852 -3.53955 0
M  V30 1957 H 323.45 -6.88995 -1.59871 0
M  V30 1958 H 324.442 -6.46749 -3.03687 0
M  V30 1959 H 322.608 -8.46908 -3.20714 0
M  V30 1960 H 322.536 -6.06349 -0.206238 0
M  V30 1961 H 322.638 -4.73163 1.86796 0
M  V30 1962 H 323.026 -1.05099 1.72271 0
M  V30 1963 H 322.829 -2.48716 2.76361 0
M  V30 1964 P 324.478 -7.20834 -5.23717 0
M  V30 1965 O 324.698 -7.7993 -6.57351 0
M  V30 1966 O 325.268 -7.79328 -4.13004 0
M  V30 1967 O 324.728 -5.63315 -5.29344 0
M  V30 1968 C 323.788 -4.80193 -6.01798 0
M  V30 1969 C 324.518 -3.64202 -6.65911 0
M  V30 1970 O 324.728 -2.60694 -5.64732 0
M  V30 1971 C 325.918 -3.93473 -7.1943 0
M  V30 1972 O 326.308 -3.02071 -8.21205 0
M  V30 1973 C 326.798 -3.73047 -5.97036 0
M  V30 1974 C 326.088 -2.58828 -5.25741 0
M  V30 1975 N 326.138 -2.6801 -3.77422 0
M  V30 1976 C 326.288 -1.50443 -3.07133 0
M  V30 1977 O 326.378 -0.419406 -3.61576 0
M  V30 1978 N 326.328 -1.6403 -1.69677 0
M  V30 1979 C 326.238 -2.81206 -0.986255 0
M  V30 1980 O 326.288 -2.80892 0.249754 0
M  V30 1981 C 326.088 -3.99158 -1.80325 0
M  V30 1982 C 325.978 -5.29309 -1.06921 0
M  V30 1983 C 326.038 -3.89779 -3.1476 0
M  V30 1984 H 323.298 -5.40332 -6.79951 0
M  V30 1985 H 323.029 -4.41549 -5.32301 0
M  V30 1986 H 323.896 -3.26331 -7.47797 0
M  V30 1987 H 326.551 -1.6395 -5.56554 0
M  V30 1988 H 326.83 -4.63439 -5.3432 0
M  V30 1989 H 327.822 -3.44728 -6.25838 0
M  V30 1990 H 325.988 -4.96652 -7.57263 0
M  V30 1991 H 325.917 -4.80159 -3.74441 0
M  V30 1992 H 326.947 -5.81459 -1.09608 0
M  V30 1993 H 325.21 -5.9187 -1.54487 0
M  V30 1994 H 325.698 -5.10095 -0.0220288 0
M  V30 1995 H 326.434 -0.798962 -1.16664 0
M  V30 1996 P 327.858 -2.75334 -8.47391 0
M  V30 1997 O 328.078 -2.44571 -9.90142 0
M  V30 1998 O 328.648 -3.87688 -7.92115 0
M  V30 1999 O 328.108 -1.4459 -7.59357 0
M  V30 2000 C 327.168 -0.347608 -7.69215 0
M  V30 2001 C 327.898 0.96767 -7.52806 0
M  V30 2002 O 328.108 1.21036 -6.1011 0
M  V30 2003 C 329.298 1.04544 -8.13308 0
M  V30 2004 O 329.688 2.38311 -8.41922 0
M  V30 2005 C 330.178 0.491279 -7.02284 0
M  V30 2006 C 329.468 0.996264 -5.77469 0
M  V30 2007 N 329.518 0.0501916 -4.62973 0
M  V30 2008 H 326.679 -0.374722 -8.67691 0
M  V30 2009 H 326.409 -0.443485 -6.90277 0
M  V30 2010 H 327.276 1.75537 -7.96793 0
M  V30 2011 P 331.238 2.75334 -8.47391 0
M  V30 2012 O 331.458 3.84128 -9.44797 0
M  V30 2013 O 332.028 1.51947 -8.68712 0
M  V30 2014 O 331.488 3.29363 -6.99321 0
M  V30 2015 C 330.548 4.24011 -6.4274 0
M  V30 2016 C 331.278 5.20775 -5.52155 0
M  V30 2017 O 331.488 4.56534 -4.22446 0
M  V30 2018 C 332.678 5.62629 -5.96531 0
M  V30 2019 O 333.068 6.87667 -5.41053 0
M  V30 2020 C 333.558 4.52537 -5.39283 0
M  V30 2021 C 332.848 4.20027 -4.08623 0
M  V30 2022 N 332.898 2.76189 -3.71603 0
M  V30 2023 C 332.818 1.64862 -4.52822 0
M  V30 2024 N 332.898 0.512671 -3.88633 0
M  V30 2025 C 333.038 0.888083 -2.54977 0
M  V30 2026 C 333.168 0.094668 -1.38677 0
M  V30 2027 N 333.288 0.890102 -0.232633 0
M  V30 2028 C 333.288 2.26958 -0.21772 0
M  V30 2029 N 333.418 2.84626 0.97925 0
M  V30 2030 N 333.158 3.0178 -1.31033 0
M  V30 2031 C 333.038 2.26781 -2.43843 0
M  V30 2032 H 330.059 4.797 -7.24003 0
M  V30 2033 H 329.789 3.69856 -5.84513 0
M  V30 2034 H 330.656 6.10356 -5.41441 0
M  V30 2035 P 334.618 7.20834 -5.23717 0
M  V30 2036 O 334.838 8.66104 -5.38572 0
M  V30 2037 O 335.408 6.33544 -6.1349 0
M  V30 2038 O 334.868 6.7751 -3.72168 0
M  V30 2039 C 333.928 7.20825 -2.7076 0
M  V30 2040 C 334.658 7.45864 -1.40599 0
M  V30 2041 O 334.868 6.17651 -0.734225 0
M  V30 2042 C 336.058 8.05808 -1.51899 0
M  V30 2043 O 336.448 8.74358 -0.335205 0
M  V30 2044 C 336.938 6.83093 -1.70294 0
M  V30 2045 C 336.228 5.79992 -0.836974 0
M  V30 2046 N 336.278 4.41864 -1.38293 0
M  V30 2047 H 333.439 8.13644 -3.0377 0
M  V30 2048 H 333.169 6.42788 -2.55485 0
M  V30 2049 H 334.036 8.12039 -0.792769 0
M  V30 2050 P 337.998 8.91 1.4976e-12 0
M  V30 2051 O 338.218 10.1726 0.733694 0
M  V30 2052 O 338.788 8.73148 -1.23936 0
M  V30 2053 O 338.248 7.66872 0.971405 0
M  V30 2054 C 337.308 7.42309 2.04641 0
M  V30 2055 C 338.038 6.86059 3.24661 0
M  V30 2056 O 338.248 5.42847 3.03646 0
M  V30 2057 C 339.438 7.41196 3.50753 0
M  V30 2058 O 339.828 7.27073 4.86816 0
M  V30 2059 C 340.318 6.5273 2.63741 0
M  V30 2060 C 339.608 5.1842 2.73198 0
M  V30 2061 N 339.658 4.38762 1.4784 0
M  V30 2062 H 336.819 8.36803 2.32493 0
M  V30 2063 H 336.549 6.70197 1.71129 0
M  V30 2064 H 337.416 7.03551 4.13168 0
M  V30 2065 P 341.378 7.20834 5.23717 0
M  V30 2066 O 341.598 7.7993 6.57351 0
M  V30 2067 O 342.168 7.79328 4.13004 0
M  V30 2068 O 341.628 5.63315 5.29344 0
M  V30 2069 C 340.688 4.80255 6.01876 0
M  V30 2070 C 341.418 3.64202 6.65911 0
M  V30 2071 O 341.628 2.60694 5.64732 0
M  V30 2072 C 342.818 3.93473 7.1943 0
M  V30 2073 O 343.208 3.02071 8.21205 0
M  V30 2074 C 343.698 3.73047 5.97036 0
M  V30 2075 C 342.988 2.58828 5.25741 0
M  V30 2076 N 343.038 2.6801 3.77422 0
M  V30 2077 C 343.188 1.50173 3.05038 0
M  V30 2078 O 343.278 0.428832 3.665 0
M  V30 2079 N 343.238 1.70922 1.55541 0
M  V30 2080 C 343.138 2.7407 1.06402 0
M  V30 2081 N 343.188 2.74764 -0.260931 0
M  V30 2082 C 342.988 3.96781 1.78296 0
M  V30 2083 C 342.938 3.87909 3.13891 0
M  V30 2084 H 340.198 5.4027 6.79873 0
M  V30 2085 H 339.929 4.41549 5.32301 0
M  V30 2086 H 340.796 3.26371 7.47889 0
M  V30 2087 H 343.451 1.63978 5.5665 0
M  V30 2088 H 343.73 4.63439 5.3432 0
M  V30 2089 H 344.722 3.44728 6.25838 0
M  V30 2090 H 342.888 4.96652 7.57263 0
M  V30 2091 H 342.816 4.78425 3.73088 0
M  V30 2092 H 342.918 4.92593 1.26997 0
M  V30 2093 H 343.306 1.86285 -0.77595 0
M  V30 2094 H 343.109 3.63657 -0.773896 0
M  V30 2095 P 344.758 2.75334 8.47391 0
M  V30 2096 O 344.978 2.44571 9.90142 0
M  V30 2097 O 345.548 3.87688 7.92115 0
M  V30 2098 O 345.008 1.4459 7.59357 0
M  V30 2099 C 344.068 0.347608 7.69215 0
M  V30 2100 C 344.798 -0.96767 7.52806 0
M  V30 2101 O 345.008 -1.21036 6.1011 0
M  V30 2102 C 346.198 -1.04544 8.13308 0
M  V30 2103 O 346.588 -2.38311 8.41922 0
M  V30 2104 C 347.078 -0.491279 7.02284 0
M  V30 2105 C 346.368 -0.996264 5.77469 0
M  V30 2106 N 346.418 -0.0501916 4.62973 0
M  V30 2107 H 343.579 0.374722 8.67691 0
M  V30 2108 H 343.309 0.443485 6.90277 0
M  V30 2109 H 344.176 -1.75537 7.96793 0
M  V30 2110 P 348.138 -2.75334 8.47391 0
M  V30 2111 O 348.358 -3.84128 9.44797 0
M  V30 2112 O 348.928 -1.51947 8.68712 0
M  V30 2113 O 348.388 -3.29363 6.99321 0
M  V30 2114 C 347.448 -4.24011 6.4274 0
M  V30 2115 C 348.178 -5.20775 5.52155 0
M  V30 2116 O 348.388 -4.56534 4.22446 0
M  V30 2117 C 349.578 -5.62629 5.96531 0
M  V30 2118 O 349.968 -6.87667 5.41053 0
M  V30 2119 C 350.458 -4.52537 5.39283 0
M  V30 2120 C 349.748 -4.20027 4.08623 0
M  V30 2121 N 349.798 -2.76189 3.71603 0
M  V30 2122 H 346.959 -4.797 7.24003 0
M  V30 2123 H 346.689 -3.69856 5.84513 0
M  V30 2124 H 347.556 -6.10356 5.41441 0
M  V30 2125 P 351.518 -7.20834 5.23717 0
M  V30 2126 O 351.738 -8.66104 5.38572 0
M  V30 2127 O 352.308 -6.33544 6.1349 0
M  V30 2128 O 351.768 -6.7751 3.72168 0
M  V30 2129 C 350.828 -7.20825 2.7076 0
M  V30 2130 C 351.558 -7.45864 1.40599 0
M  V30 2131 O 351.768 -6.17651 0.734225 0
M  V30 2132 C 352.958 -8.05808 1.51899 0
M  V30 2133 O 353.348 -8.74358 0.335205 0
M  V30 2134 C 353.838 -6.83093 1.70294 0
M  V30 2135 C 353.128 -5.79992 0.836974 0
M  V30 2136 N 353.178 -4.41864 1.38293 0
M  V30 2137 H 350.339 -8.13644 3.0377 0
M  V30 2138 H 350.069 -6.42788 2.55485 0
M  V30 2139 H 350.936 -8.12039 0.792769 0
M  V30 2140 P 354.898 -8.91 -1.65478e-12 0
M  V30 2141 O 355.118 -10.1726 -0.733694 0
M  V30 2142 O 355.688 -8.73148 1.23936 0
M  V30 2143 O 355.148 -7.66872 -0.971405 0
M  V30 2144 C 354.208 -7.42309 -2.04641 0
M  V30 2145 C 354.938 -6.86059 -3.24661 0
M  V30 2146 O 355.148 -5.42847 -3.03646 0
M  V30 2147 C 356.338 -7.41196 -3.50753 0
M  V30 2148 O 356.728 -7.27073 -4.86816 0
M  V30 2149 C 357.218 -6.5273 -2.63741 0
M  V30 2150 C 356.508 -5.1842 -2.73198 0
M  V30 2151 N 356.558 -4.38762 -1.4784 0
M  V30 2152 H 353.719 -8.36803 -2.32493 0
M  V30 2153 H 353.449 -6.70197 -1.71129 0
M  V30 2154 H 354.316 -7.03551 -4.13168 0
M  V30 2155 P 358.278 -7.20834 -5.23717 0
M  V30 2156 O 358.498 -7.80006 -6.57415 0
M  V30 2157 O 359.068 -7.79416 -4.13051 0
M  V30 2158 O 358.528 -5.63315 -5.29344 0
M  V30 2159 C 357.588 -4.80318 -6.01954 0
M  V30 2160 C 358.318 -3.64202 -6.65911 0
M  V30 2161 O 358.528 -2.60736 -5.64823 0
M  V30 2162 C 359.718 -3.93521 -7.19518 0
M  V30 2163 O 360.108 -3.02071 -8.21205 0
M  V30 2164 C 360.598 -3.73047 -5.97036 0
M  V30 2165 C 359.888 -2.58828 -5.25741 0
M  V30 2166 N 359.938 -2.68068 -3.77503 0
M  V30 2167 H 357.1 -5.40394 -6.8003 0
M  V30 2168 H 356.828 -4.41741 -5.32532 0
M  V30 2169 H 357.696 -3.26371 -7.47889 0
M  V30 2170 H 360.351 -1.64007 -5.56746 0
M  V30 2171 H 360.631 -4.63439 -5.3432 0
M  V30 2172 H 361.622 -3.44776 -6.25925 0
M  V30 2173 H 359.788 -4.96707 -7.57347 0
M  V30 2174 P 361.658 -2.75334 -8.47391 0
M  V30 2175 O 361.878 -2.44571 -9.90142 0
M  V30 2176 O 362.448 -3.87688 -7.92115 0
M  V30 2177 O 361.908 -1.4459 -7.59357 0
M  V30 2178 C 360.968 -0.347608 -7.69215 0
M  V30 2179 C 361.698 0.96767 -7.52806 0
M  V30 2180 O 361.908 1.21036 -6.1011 0
M  V30 2181 C 363.098 1.04544 -8.13308 0
M  V30 2182 O 363.488 2.38311 -8.41922 0
M  V30 2183 C 363.978 0.491279 -7.02284 0
M  V30 2184 C 363.268 0.996264 -5.77469 0
M  V30 2185 N 363.318 0.0501916 -4.62973 0
M  V30 2186 H 360.479 -0.374722 -8.67691 0
M  V30 2187 H 360.209 -0.443485 -6.90277 0
M  V30 2188 H 361.076 1.75537 -7.96793 0
M  V30 2189 P 365.038 2.75334 -8.47391 0
M  V30 2190 O 365.258 3.84166 -9.4489 0
M  V30 2191 O 365.828 1.51964 -8.6881 0
M  V30 2192 O 365.288 3.29363 -6.99321 0
M  V30 2193 C 364.348 4.23956 -6.42656 0
M  V30 2194 C 365.078 5.20775 -5.52155 0
M  V30 2195 O 365.288 4.56534 -4.22446 0
M  V30 2196 C 366.478 5.62629 -5.96531 0
M  V30 2197 O 366.868 6.87667 -5.41053 0
M  V30 2198 C 367.358 4.52537 -5.39283 0
M  V30 2199 C 366.648 4.20027 -4.08623 0
M  V30 2200 N 366.698 2.7613 -3.71522 0
M  V30 2201 C 366.848 2.45612 -2.37989 0
M  V30 2202 O 366.938 3.30919 -1.51621 0
M  V30 2203 N 366.888 1.10684 -2.08435 0
M  V30 2204 C 366.798 0.0690084 -2.9792 0
M  V30 2205 O 366.848 -1.10553 -2.59426 0
M  V30 2206 C 366.648 0.481522 -4.35345 0
M  V30 2207 C 366.538 -0.618778 -5.36443 0
M  V30 2208 C 366.598 1.78906 -4.67968 0
M  V30 2209 H 363.858 4.797 -7.24003 0
M  V30 2210 H 363.589 3.69802 -5.84429 0
M  V30 2211 H 364.456 6.10356 -5.41441 0
M  V30 2212 H 367.111 4.78651 -3.27911 0
M  V30 2213 H 367.39 3.64957 -6.05871 0
M  V30 2214 H 368.382 4.8868 -5.2125 0
M  V30 2215 H 366.548 5.66726 -7.06352 0
M  V30 2216 H 366.477 2.07737 -5.72367 0
M  V30 2217 H 367.507 -0.754375 -5.86871 0
M  V30 2218 H 365.77 -0.359721 -6.10641 0
M  V30 2219 H 366.258 -1.55533 -4.8581 0
M  V30 2220 H 366.994 0.862651 -1.12037 0
M  V30 2221 P 368.418 7.20834 -5.23717 0
M  V30 2222 O 368.638 8.66104 -5.38572 0
M  V30 2223 O 369.208 6.33544 -6.1349 0
M  V30 2224 O 368.668 6.7751 -3.72168 0
M  V30 2225 C 367.728 7.20825 -2.7076 0
M  V30 2226 C 368.458 7.45864 -1.40599 0
M  V30 2227 O 368.668 6.17651 -0.734225 0
M  V30 2228 C 369.858 8.05808 -1.51899 0
M  V30 2229 O 370.248 8.74358 -0.335205 0
M  V30 2230 C 370.738 6.83093 -1.70294 0
M  V30 2231 C 370.028 5.79992 -0.836974 0
M  V30 2232 N 370.078 4.41864 -1.38293 0
M  V30 2233 H 367.239 8.13644 -3.0377 0
M  V30 2234 H 366.969 6.42788 -2.55485 0
M  V30 2235 H 367.836 8.12039 -0.792769 0
M  V30 2236 P 371.798 8.91 1.81197e-12 0
M  V30 2237 O 372.018 10.1726 0.733694 0
M  V30 2238 O 372.588 8.73148 -1.23936 0
M  V30 2239 O 372.048 7.66872 0.971405 0
M  V30 2240 C 371.108 7.42309 2.04641 0
M  V30 2241 C 371.838 6.86059 3.24661 0
M  V30 2242 O 372.048 5.42847 3.03646 0
M  V30 2243 C 373.238 7.41196 3.50753 0
M  V30 2244 O 373.628 7.27073 4.86816 0
M  V30 2245 C 374.118 6.5273 2.63741 0
M  V30 2246 C 373.408 5.1842 2.73198 0
M  V30 2247 N 373.458 4.38762 1.4784 0
M  V30 2248 H 370.619 8.36803 2.32493 0
M  V30 2249 H 370.349 6.70197 1.71129 0
M  V30 2250 H 371.216 7.03551 4.13168 0
M  V30 2251 P 375.178 7.20834 5.23717 0
M  V30 2252 O 375.398 7.79853 6.57286 0
M  V30 2253 O 375.968 7.79239 4.12957 0
M  V30 2254 O 375.428 5.63315 5.29344 0
M  V30 2255 C 374.488 4.80255 6.01876 0
M  V30 2256 C 375.218 3.64202 6.65911 0
M  V30 2257 O 375.428 2.60694 5.64732 0
M  V30 2258 C 376.618 3.93473 7.1943 0
M  V30 2259 O 377.008 3.02071 8.21205 0
M  V30 2260 C 377.498 3.73047 5.97036 0
M  V30 2261 C 376.788 2.58828 5.25741 0
M  V30 2262 N 376.838 2.68068 3.77503 0
M  V30 2263 H 373.999 5.40332 6.79951 0
M  V30 2264 H 373.729 4.41613 5.32378 0
M  V30 2265 H 374.596 3.26331 7.47797 0
M  V30 2266 P 378.558 2.75334 8.47391 0
M  V30 2267 O 378.778 2.44571 9.90142 0
M  V30 2268 O 379.348 3.87688 7.92115 0
M  V30 2269 O 378.808 1.4459 7.59357 0
M  V30 2270 C 377.868 0.347608 7.69215 0
M  V30 2271 C 378.598 -0.96767 7.52806 0
M  V30 2272 O 378.808 -1.21036 6.1011 0
M  V30 2273 C 379.998 -1.04544 8.13308 0
M  V30 2274 O 380.388 -2.38311 8.41922 0
M  V30 2275 C 380.878 -0.491279 7.02284 0
M  V30 2276 C 380.168 -0.996264 5.77469 0
M  V30 2277 N 380.218 -0.0501916 4.62973 0
M  V30 2278 H 377.379 0.374722 8.67691 0
M  V30 2279 H 377.109 0.443485 6.90277 0
M  V30 2280 H 377.976 -1.75537 7.96793 0
M  V30 2281 P 381.938 -2.75334 8.47391 0
M  V30 2282 O 382.158 -3.84128 9.44797 0
M  V30 2283 O 382.728 -1.51947 8.68712 0
M  V30 2284 O 382.188 -3.29363 6.99321 0
M  V30 2285 C 381.248 -4.24011 6.4274 0
M  V30 2286 C 381.978 -5.20775 5.52155 0
M  V30 2287 O 382.188 -4.56534 4.22446 0
M  V30 2288 C 383.378 -5.62629 5.96531 0
M  V30 2289 O 383.768 -6.87667 5.41053 0
M  V30 2290 C 384.258 -4.52537 5.39283 0
M  V30 2291 C 383.548 -4.20027 4.08623 0
M  V30 2292 N 383.598 -2.76189 3.71603 0
M  V30 2293 H 380.759 -4.797 7.24003 0
M  V30 2294 H 380.489 -3.69856 5.84513 0
M  V30 2295 H 381.356 -6.10356 5.41441 0
M  V30 2296 P 385.318 -7.20834 5.23717 0
M  V30 2297 O 385.538 -8.66104 5.38572 0
M  V30 2298 O 386.108 -6.33544 6.1349 0
M  V30 2299 O 385.568 -6.7751 3.72168 0
M  V30 2300 C 384.628 -7.20825 2.7076 0
M  V30 2301 C 385.358 -7.45864 1.40599 0
M  V30 2302 O 385.568 -6.17651 0.734225 0
M  V30 2303 C 386.758 -8.05808 1.51899 0
M  V30 2304 O 387.148 -8.74358 0.335205 0
M  V30 2305 C 387.638 -6.83093 1.70294 0
M  V30 2306 C 386.928 -5.79992 0.836974 0
M  V30 2307 N 386.978 -4.41864 1.38293 0
M  V30 2308 H 384.139 -8.13644 3.0377 0
M  V30 2309 H 383.869 -6.42788 2.55485 0
M  V30 2310 H 384.736 -8.12039 0.792769 0
M  V30 2311 P 388.698 -8.91 -1.96915e-12 0
M  V30 2312 O 388.918 -10.1726 -0.733694 0
M  V30 2313 O 389.488 -8.73148 1.23936 0
M  V30 2314 O 388.948 -7.66872 -0.971405 0
M  V30 2315 C 388.008 -7.42309 -2.04641 0
M  V30 2316 C 388.738 -6.86059 -3.24661 0
M  V30 2317 O 388.948 -5.42847 -3.03646 0
M  V30 2318 C 390.138 -7.41196 -3.50753 0
M  V30 2319 O 390.528 -7.27073 -4.86816 0
M  V30 2320 C 391.018 -6.5273 -2.63741 0
M  V30 2321 C 390.308 -5.1842 -2.73198 0
M  V30 2322 N 390.358 -4.38762 -1.4784 0
M  V30 2323 C 390.278 -4.81605 -0.168631 0
M  V30 2324 N 390.358 -3.85454 0.713363 0
M  V30 2325 C 390.498 -2.6994 -0.0566958 0
M  V30 2326 C 390.628 -1.34815 0.338502 0
M  V30 2327 N 390.748 -0.496304 -0.77465 0
M  V30 2328 C 390.748 -0.908403 -2.09122 0
M  V30 2329 N 390.878 0.0517805 -3.00955 0
M  V30 2330 N 390.618 -2.17875 -2.46519 0
M  V30 2331 C 390.498 -3.01988 -1.4033 0
M  V30 2332 H 387.519 -8.36803 -2.32493 0
M  V30 2333 H 387.249 -6.70197 -1.71129 0
M  V30 2334 H 388.116 -7.03551 -4.13168 0
M  V30 2335 P 392.078 -7.20834 -5.23717 0
M  V30 2336 O 392.298 -7.79853 -6.57286 0
M  V30 2337 O 392.868 -7.79239 -4.12957 0
M  V30 2338 O 392.328 -5.63315 -5.29344 0
M  V30 2339 C 391.388 -4.80255 -6.01876 0
M  V30 2340 C 392.118 -3.64202 -6.65911 0
M  V30 2341 O 392.328 -2.60694 -5.64732 0
M  V30 2342 C 393.518 -3.93473 -7.1943 0
M  V30 2343 O 393.908 -3.02071 -8.21205 0
M  V30 2344 C 394.398 -3.73047 -5.97036 0
M  V30 2345 C 393.688 -2.58828 -5.25741 0
M  V30 2346 N 393.738 -2.68068 -3.77503 0
M  V30 2347 H 390.899 -5.40332 -6.79951 0
M  V30 2348 H 390.629 -4.41613 -5.32378 0
M  V30 2349 H 391.496 -3.26331 -7.47797 0
M  V30 2350 P 395.458 -2.75334 -8.47391 0
M  V30 2351 O 395.678 -2.44571 -9.90142 0
M  V30 2352 O 396.248 -3.87688 -7.92115 0
M  V30 2353 O 395.708 -1.4459 -7.59357 0
M  V30 2354 C 394.768 -0.347608 -7.69215 0
M  V30 2355 C 395.498 0.96767 -7.52806 0
M  V30 2356 O 395.708 1.21036 -6.1011 0
M  V30 2357 C 396.898 1.04544 -8.13308 0
M  V30 2358 O 397.288 2.38311 -8.41922 0
M  V30 2359 C 397.778 0.491279 -7.02284 0
M  V30 2360 C 397.068 0.996264 -5.77469 0
M  V30 2361 N 397.118 0.0501916 -4.62973 0
M  V30 2362 H 394.279 -0.374722 -8.67691 0
M  V30 2363 H 394.009 -0.443485 -6.90277 0
M  V30 2364 H 394.876 1.75537 -7.96793 0
M  V30 2365 P 398.838 2.75334 -8.47391 0
M  V30 2366 O 399.058 3.84128 -9.44797 0
M  V30 2367 O 399.628 1.51947 -8.68712 0
M  V30 2368 O 399.088 3.29363 -6.99321 0
M  V30 2369 C 398.148 4.24011 -6.4274 0
M  V30 2370 C 398.878 5.20775 -5.52155 0
M  V30 2371 O 399.088 4.56534 -4.22446 0
M  V30 2372 C 400.278 5.62629 -5.96531 0
M  V30 2373 O 400.668 6.87667 -5.41053 0
M  V30 2374 C 401.158 4.52537 -5.39283 0
M  V30 2375 C 400.448 4.20027 -4.08623 0
M  V30 2376 N 400.498 2.76189 -3.71603 0
M  V30 2377 H 397.659 4.797 -7.24003 0
M  V30 2378 H 397.389 3.69856 -5.84513 0
M  V30 2379 H 398.256 6.10356 -5.41441 0
M  V30 2380 P 402.218 7.20834 -5.23717 0
M  V30 2381 O 402.438 8.66104 -5.38572 0
M  V30 2382 O 403.008 6.33544 -6.1349 0
M  V30 2383 O 402.468 6.7751 -3.72168 0
M  V30 2384 C 401.528 7.20825 -2.7076 0
M  V30 2385 C 402.258 7.45864 -1.40599 0
M  V30 2386 O 402.468 6.17651 -0.734225 0
M  V30 2387 C 403.658 8.05808 -1.51899 0
M  V30 2388 O 404.048 8.74358 -0.335205 0
M  V30 2389 C 404.538 6.83093 -1.70294 0
M  V30 2390 C 403.828 5.79992 -0.836974 0
M  V30 2391 N 403.878 4.41864 -1.38293 0
M  V30 2392 H 401.039 8.13644 -3.0377 0
M  V30 2393 H 400.769 6.42788 -2.55485 0
M  V30 2394 H 401.636 8.12039 -0.792769 0
M  V30 2395 P 405.598 8.91 2.12633e-12 0
M  V30 2396 O 405.818 10.1726 0.733694 0
M  V30 2397 O 406.388 8.73148 -1.23936 0
M  V30 2398 O 405.848 7.66872 0.971405 0
M  V30 2399 C 404.908 7.42309 2.04641 0
M  V30 2400 C 405.638 6.86059 3.24661 0
M  V30 2401 O 405.848 5.42847 3.03646 0
M  V30 2402 C 407.038 7.41196 3.50753 0
M  V30 2403 O 407.428 7.27073 4.86816 0
M  V30 2404 C 407.918 6.5273 2.63741 0
M  V30 2405 C 407.208 5.1842 2.73198 0
M  V30 2406 N 407.258 4.38762 1.4784 0
M  V30 2407 C 407.178 4.81605 0.168631 0
M  V30 2408 N 407.258 3.85454 -0.713363 0
M  V30 2409 C 407.398 2.6994 0.0566958 0
M  V30 2410 C 407.528 1.34815 -0.338502 0
M  V30 2411 O 407.548 0.869548 -1.47125 0
M  V30 2412 N 407.648 0.496304 0.77465 0
M  V30 2413 C 407.648 0.908403 2.09122 0
M  V30 2414 N 407.778 -0.0517805 3.00955 0
M  V30 2415 N 407.518 2.17875 2.46519 0
M  V30 2416 C 407.398 3.01988 1.4033 0
M  V30 2417 H 404.419 8.36803 2.32493 0
M  V30 2418 H 404.149 6.70197 1.71129 0
M  V30 2419 H 405.016 7.03551 4.13168 0
M  V30 2420 H 407.671 4.59498 3.54415 0
M  V30 2421 H 407.95 6.88898 1.59848 0
M  V30 2422 H 408.942 6.46749 3.03687 0
M  V30 2423 H 407.108 8.46908 3.20714 0
M  V30 2424 H 407.059 5.86405 -0.105564 0
M  V30 2425 H 407.741 -0.483664 0.597855 0
M  V30 2426 H 407.778 0.187865 4.0116 0
M  V30 2427 H 407.879 -1.03585 2.71726 0
M  V30 2428 P 408.978 7.20834 5.23717 0
M  V30 2429 O 409.198 7.79853 6.57286 0
M  V30 2430 O 409.768 7.79239 4.12957 0
M  V30 2431 O 409.228 5.63315 5.29344 0
M  V30 2432 C 408.288 4.80255 6.01876 0
M  V30 2433 C 409.018 3.64202 6.65911 0
M  V30 2434 O 409.228 2.60694 5.64732 0
M  V30 2435 C 410.418 3.93473 7.1943 0
M  V30 2436 O 410.808 3.02071 8.21205 0
M  V30 2437 C 411.298 3.73047 5.97036 0
M  V30 2438 C 410.588 2.58828 5.25741 0
M  V30 2439 N 410.638 2.68068 3.77503 0
M  V30 2440 H 407.799 5.40332 6.79951 0
M  V30 2441 H 407.529 4.41613 5.32378 0
M  V30 2442 H 408.396 3.26331 7.47797 0
M  V30 2443 P 412.358 2.75334 8.47391 0
M  V30 2444 O 412.578 2.44571 9.90142 0
M  V30 2445 O 413.148 3.87688 7.92115 0
M  V30 2446 O 412.608 1.4459 7.59357 0
M  V30 2447 C 411.668 0.347608 7.69215 0
M  V30 2448 C 412.398 -0.96767 7.52806 0
M  V30 2449 O 412.608 -1.21036 6.1011 0
M  V30 2450 C 413.798 -1.04544 8.13308 0
M  V30 2451 O 414.188 -2.38311 8.41922 0
M  V30 2452 C 414.678 -0.491279 7.02284 0
M  V30 2453 C 413.968 -0.996264 5.77469 0
M  V30 2454 N 414.018 -0.0501916 4.62973 0
M  V30 2455 H 411.179 0.374722 8.67691 0
M  V30 2456 H 410.909 0.443485 6.90277 0
M  V30 2457 H 411.776 -1.75537 7.96793 0
M  V30 2458 P 415.738 -2.75334 8.47391 0
M  V30 2459 O 415.958 -3.84204 9.44982 0
M  V30 2460 O 416.528 -1.51982 8.68909 0
M  V30 2461 O 415.988 -3.29363 6.99321 0
M  V30 2462 C 415.048 -4.24066 6.42823 0
M  V30 2463 C 415.778 -5.20775 5.52155 0
M  V30 2464 O 415.988 -4.56607 4.22514 0
M  V30 2465 C 417.178 -5.62697 5.96604 0
M  V30 2466 O 417.568 -6.87667 5.41053 0
M  V30 2467 C 418.058 -4.52537 5.39283 0
M  V30 2468 C 417.348 -4.20027 4.08623 0
M  V30 2469 N 417.398 -2.76189 3.71603 0
M  V30 2470 H 414.56 -4.79756 7.24086 0
M  V30 2471 H 414.288 -3.69963 5.84682 0
M  V30 2472 H 415.156 -6.10431 5.41508 0
M  V30 2473 H 417.811 -4.78816 3.28024 0
M  V30 2474 H 418.091 -3.64957 6.05871 0
M  V30 2475 H 419.082 -4.88748 5.21323 0
M  V30 2476 H 417.248 -5.66789 7.0643 0
M  V30 2477 P 419.118 -7.20834 5.23717 0
M  V30 2478 O 419.338 -8.66274 5.38678 0
M  V30 2479 O 419.908 -6.33687 6.13629 0
M  V30 2480 O 419.368 -6.7751 3.72168 0
M  V30 2481 C 418.428 -7.20919 2.70795 0
M  V30 2482 C 419.158 -7.45864 1.40599 0
M  V30 2483 O 419.368 -6.17751 0.734343 0
M  V30 2484 C 420.558 -8.05906 1.51917 0
M  V30 2485 O 420.948 -8.74358 0.335205 0
M  V30 2486 C 421.438 -6.83093 1.70294 0
M  V30 2487 C 420.728 -5.79992 0.836974 0
M  V30 2488 N 420.778 -4.41864 1.38293 0
M  V30 2489 H 417.94 -8.13738 3.03804 0
M  V30 2490 H 417.668 -6.42974 2.55559 0
M  V30 2491 H 418.536 -8.12139 0.792866 0
M  V30 2492 H 421.191 -5.80178 -0.160643 0
M  V30 2493 H 421.471 -6.51379 2.75643 0
M  V30 2494 H 422.462 -7.01832 1.3448 0
M  V30 2495 H 420.628 -8.73771 2.38364 0
M  V30 2496 P 422.497 -8.91 -2.28351e-12 0
M  V30 2497 O 422.717 -10.1726 -0.733694 0
M  V30 2498 O 423.287 -8.73148 1.23936 0
M  V30 2499 O 422.747 -7.66872 -0.971405 0
M  V30 2500 C 421.807 -7.42309 -2.04641 0
M  V30 2501 C 422.537 -6.86059 -3.24661 0
M  V30 2502 O 422.747 -5.42847 -3.03646 0
M  V30 2503 C 423.937 -7.41196 -3.50753 0
M  V30 2504 O 424.327 -7.27073 -4.86816 0
M  V30 2505 C 424.817 -6.5273 -2.63741 0
M  V30 2506 C 424.107 -5.1842 -2.73198 0
M  V30 2507 N 424.157 -4.38762 -1.4784 0
M  V30 2508 C 424.077 -4.81605 -0.168631 0
M  V30 2509 N 424.157 -3.85454 0.713363 0
M  V30 2510 C 424.297 -2.6994 -0.0566958 0
M  V30 2511 C 424.427 -1.34815 0.338502 0
M  V30 2512 N 424.547 -0.496304 -0.77465 0
M  V30 2513 C 424.547 -0.908403 -2.09122 0
M  V30 2514 N 424.677 0.0517805 -3.00955 0
M  V30 2515 N 424.417 -2.17875 -2.46519 0
M  V30 2516 C 424.297 -3.01988 -1.4033 0
M  V30 2517 H 421.318 -8.36803 -2.32493 0
M  V30 2518 H 421.048 -6.70197 -1.71129 0
M  V30 2519 H 421.915 -7.03551 -4.13168 0
M  V30 2520 P 425.877 -7.20834 -5.23717 0
M  V30 2521 O 426.097 -7.80006 -6.57415 0
M  V30 2522 O 426.667 -7.79416 -4.13051 0
M  V30 2523 O 426.127 -5.63315 -5.29344 0
M  V30 2524 C 425.187 -4.80318 -6.01954 0
M  V30 2525 C 425.917 -3.64202 -6.65911 0
M  V30 2526 O 426.127 -2.60736 -5.64823 0
M  V30 2527 C 427.317 -3.93521 -7.19518 0
M  V30 2528 O 427.707 -3.02071 -8.21205 0
M  V30 2529 C 428.197 -3.73047 -5.97036 0
M  V30 2530 C 427.487 -2.58828 -5.25741 0
M  V30 2531 N 427.537 -2.68068 -3.77503 0
M  V30 2532 C 427.457 -3.80474 -2.99159 0
M  V30 2533 N 427.527 -3.55622 -1.71925 0
M  V30 2534 C 427.677 -2.1832 -1.65733 0
M  V30 2535 C 427.807 -1.28842 -0.572777 0
M  V30 2536 N 427.817 -1.66875 0.70098 0
M  V30 2537 N 427.927 0.016788 -0.859836 0
M  V30 2538 C 427.917 0.398145 -2.13316 0
M  V30 2539 N 427.797 -0.328224 -3.22333 0
M  V30 2540 C 427.677 -1.62992 -2.90383 0
M  V30 2541 H 424.699 -5.40394 -6.8003 0
M  V30 2542 H 424.427 -4.41741 -5.32532 0
M  V30 2543 H 425.295 -3.26371 -7.47889 0
M  V30 2544 H 427.95 -1.64007 -5.56746 0
M  V30 2545 H 428.23 -4.63439 -5.3432 0
M  V30 2546 H 429.221 -3.44776 -6.25925 0
M  V30 2547 H 427.387 -4.96707 -7.57347 0
M  V30 2548 H 427.346 -4.8089 -3.39924 0
M  V30 2549 H 427.727 -2.66547 0.941919 0
M  V30 2550 H 427.916 -0.965341 1.44766 0
M  V30 2551 H 428.024 1.46427 -2.29697 0
M  V30 2552 P 429.257 -2.75334 -8.47391 0
M  V30 2553 O 429.477 -2.44571 -9.90142 0
M  V30 2554 O 430.047 -3.87688 -7.92115 0
M  V30 2555 O 429.507 -1.4459 -7.59357 0
M  V30 2556 C 428.567 -0.347608 -7.69215 0
M  V30 2557 C 429.297 0.96767 -7.52806 0
M  V30 2558 O 429.507 1.21036 -6.1011 0
M  V30 2559 C 430.697 1.04544 -8.13308 0
M  V30 2560 O 431.087 2.38311 -8.41922 0
M  V30 2561 C 431.577 0.491279 -7.02284 0
M  V30 2562 C 430.867 0.996264 -5.77469 0
M  V30 2563 N 430.917 0.0501916 -4.62973 0
M  V30 2564 H 428.078 -0.374722 -8.67691 0
M  V30 2565 H 427.808 -0.443485 -6.90277 0
M  V30 2566 H 428.675 1.75537 -7.96793 0
M  V30 2567 P 432.637 2.75334 -8.47391 0
M  V30 2568 O 432.857 3.84128 -9.44797 0
M  V30 2569 O 433.427 1.51947 -8.68712 0
M  V30 2570 O 432.887 3.29363 -6.99321 0
M  V30 2571 C 431.947 4.24011 -6.4274 0
M  V30 2572 C 432.677 5.20775 -5.52155 0
M  V30 2573 O 432.887 4.56534 -4.22446 0
M  V30 2574 C 434.077 5.62629 -5.96531 0
M  V30 2575 O 434.467 6.87667 -5.41053 0
M  V30 2576 C 434.957 4.52537 -5.39283 0
M  V30 2577 C 434.247 4.20027 -4.08623 0
M  V30 2578 N 434.297 2.76189 -3.71603 0
M  V30 2579 H 431.458 4.797 -7.24003 0
M  V30 2580 H 431.188 3.69856 -5.84513 0
M  V30 2581 H 432.055 6.10356 -5.41441 0
M  V30 2582 P 436.017 7.20834 -5.23717 0
M  V30 2583 O 436.237 8.66104 -5.38572 0
M  V30 2584 O 436.807 6.33544 -6.1349 0
M  V30 2585 O 436.267 6.7751 -3.72168 0
M  V30 2586 C 435.327 7.20825 -2.7076 0
M  V30 2587 C 436.057 7.45864 -1.40599 0
M  V30 2588 O 436.267 6.17651 -0.734225 0
M  V30 2589 C 437.457 8.05808 -1.51899 0
M  V30 2590 O 437.847 8.74358 -0.335205 0
M  V30 2591 C 438.337 6.83093 -1.70294 0
M  V30 2592 C 437.627 5.79992 -0.836974 0
M  V30 2593 N 437.677 4.41864 -1.38293 0
M  V30 2594 H 434.838 8.13644 -3.0377 0
M  V30 2595 H 434.568 6.42788 -2.55485 0
M  V30 2596 H 435.435 8.12039 -0.792769 0
M  V30 2597 P 439.397 8.91 2.44069e-12 0
M  V30 2598 O 439.617 10.1726 0.733694 0
M  V30 2599 O 440.187 8.73148 -1.23936 0
M  V30 2600 O 439.647 7.66872 0.971405 0
M  V30 2601 C 438.707 7.42309 2.04641 0
M  V30 2602 C 439.437 6.86059 3.24661 0
M  V30 2603 O 439.647 5.42847 3.03646 0
M  V30 2604 C 440.837 7.41196 3.50753 0
M  V30 2605 O 441.227 7.27073 4.86816 0
M  V30 2606 C 441.717 6.5273 2.63741 0
M  V30 2607 C 441.007 5.1842 2.73198 0
M  V30 2608 N 441.057 4.38762 1.4784 0
M  V30 2609 H 438.218 8.36803 2.32493 0
M  V30 2610 H 437.948 6.70197 1.71129 0
M  V30 2611 H 438.815 7.03551 4.13168 0
M  V30 2612 P 442.777 7.20834 5.23717 0
M  V30 2613 O 442.997 7.79853 6.57286 0
M  V30 2614 O 443.567 7.79239 4.12957 0
M  V30 2615 O 443.027 5.63315 5.29344 0
M  V30 2616 C 442.087 4.80255 6.01876 0
M  V30 2617 C 442.817 3.64202 6.65911 0
M  V30 2618 O 443.027 2.60694 5.64732 0
M  V30 2619 C 444.217 3.93473 7.1943 0
M  V30 2620 O 444.607 3.02071 8.21205 0
M  V30 2621 C 445.097 3.73047 5.97036 0
M  V30 2622 C 444.387 2.58828 5.25741 0
M  V30 2623 N 444.437 2.68068 3.77503 0
M  V30 2624 H 441.598 5.40332 6.79951 0
M  V30 2625 H 441.328 4.41613 5.32378 0
M  V30 2626 H 442.195 3.26331 7.47797 0
M  V30 2627 P 446.157 2.75334 8.47391 0
M  V30 2628 O 446.377 2.44595 9.90239 0
M  V30 2629 O 446.947 3.87732 7.92204 0
M  V30 2630 O 446.407 1.4459 7.59357 0
M  V30 2631 C 445.467 0.347563 7.69115 0
M  V30 2632 C 446.197 -0.96767 7.52806 0
M  V30 2633 O 446.407 -1.21036 6.1011 0
M  V30 2634 C 447.597 -1.04544 8.13308 0
M  V30 2635 O 447.987 -2.38311 8.41922 0
M  V30 2636 C 448.477 -0.491279 7.02284 0
M  V30 2637 C 447.767 -0.996264 5.77469 0
M  V30 2638 N 447.817 -0.0501808 4.62873 0
M  V30 2639 C 447.967 -0.588177 3.36904 0
M  V30 2640 O 448.057 -1.78598 3.17173 0
M  V30 2641 N 448.007 0.329694 2.33686 0
M  V30 2642 C 447.917 1.6953 2.45079 0
M  V30 2643 O 447.967 2.41926 1.44899 0
M  V30 2644 C 447.767 2.16933 3.80505 0
M  V30 2645 C 447.657 3.65373 3.97621 0
M  V30 2646 C 447.717 1.30326 4.83752 0
M  V30 2647 H 444.977 0.374722 8.67691 0
M  V30 2648 H 444.708 0.443421 6.90177 0
M  V30 2649 H 445.575 -1.75537 7.96793 0
M  V30 2650 H 448.23 -1.94496 5.46629 0
M  V30 2651 H 448.509 0.608651 7.04676 0
M  V30 2652 H 449.501 -0.889672 7.08939 0
M  V30 2653 H 447.667 -0.43308 9.04564 0
M  V30 2654 H 447.596 1.68366 5.8516 0
M  V30 2655 H 448.626 4.05985 4.30448 0
M  V30 2656 H 446.889 3.88028 4.72875 0
M  V30 2657 H 447.377 4.11381 3.01609 0
M  V30 2658 H 448.113 -0.0393617 1.41345 0
M  V30 2659 P 449.537 -2.75334 8.47391 0
M  V30 2660 O 449.757 -3.84128 9.44797 0
M  V30 2661 O 450.327 -1.51947 8.68712 0
M  V30 2662 O 449.787 -3.29363 6.99321 0
M  V30 2663 C 448.847 -4.24011 6.4274 0
M  V30 2664 C 449.577 -5.20775 5.52155 0
M  V30 2665 O 449.787 -4.56534 4.22446 0
M  V30 2666 C 450.977 -5.62629 5.96531 0
M  V30 2667 O 451.367 -6.87667 5.41053 0
M  V30 2668 C 451.857 -4.52537 5.39283 0
M  V30 2669 C 451.147 -4.20027 4.08623 0
M  V30 2670 N 451.197 -2.76189 3.71603 0
M  V30 2671 H 448.358 -4.797 7.24003 0
M  V30 2672 H 448.088 -3.69856 5.84513 0
M  V30 2673 H 448.955 -6.10356 5.41441 0
M  V30 2674 P 452.917 -7.20834 5.23717 0
M  V30 2675 O 453.137 -8.66189 5.38625 0
M  V30 2676 O 453.707 -6.33615 6.1356 0
M  V30 2677 O 453.167 -6.7751 3.72168 0
M  V30 2678 C 452.227 -7.20825 2.7076 0
M  V30 2679 C 452.957 -7.45864 1.40599 0
M  V30 2680 O 453.167 -6.17651 0.734225 0
M  V30 2681 C 454.357 -8.05808 1.51899 0
M  V30 2682 O 454.747 -8.74358 0.335205 0
M  V30 2683 C 455.237 -6.83093 1.70294 0
M  V30 2684 C 454.527 -5.79992 0.836974 0
M  V30 2685 N 454.577 -4.41769 1.38263 0
M  V30 2686 C 454.727 -3.36514 0.485617 0
M  V30 2687 O 454.817 -3.61814 -0.724703 0
M  V30 2688 N 454.777 -2.00746 1.14492 0
M  V30 2689 C 454.677 -1.85887 2.27776 0
M  V30 2690 N 454.727 -0.600907 2.69379 0
M  V30 2691 C 454.527 -2.92182 3.22265 0
M  V30 2692 C 454.477 -4.18399 2.71925 0
M  V30 2693 H 451.737 -8.1355 3.03735 0
M  V30 2694 H 451.468 -6.42695 2.55448 0
M  V30 2695 H 452.335 -8.12139 0.792866 0
M  V30 2696 H 454.99 -5.80078 -0.160615 0
M  V30 2697 H 455.269 -6.51379 2.75643 0
M  V30 2698 H 456.261 -7.01734 1.34462 0
M  V30 2699 H 454.427 -8.73674 2.38337 0
M  V30 2700 H 454.355 -5.02669 3.39718 0
M  V30 2701 H 454.457 -2.73001 4.29239 0
M  V30 2702 H 454.845 0.162318 2.01146 0
M  V30 2703 H 454.648 -0.387742 3.69773 0
M  V30 2704 P 456.297 -8.91 -2.59788e-12 0
M  V30 2705 O 456.517 -10.1726 -0.733694 0
M  V30 2706 O 457.087 -8.73148 1.23936 0
M  V30 2707 O 456.547 -7.66872 -0.971405 0
M  V30 2708 C 455.607 -7.42309 -2.04641 0
M  V30 2709 C 456.337 -6.86059 -3.24661 0
M  V30 2710 O 456.547 -5.42847 -3.03646 0
M  V30 2711 C 457.737 -7.41196 -3.50753 0
M  V30 2712 O 458.127 -7.27073 -4.86816 0
M  V30 2713 C 458.617 -6.5273 -2.63741 0
M  V30 2714 C 457.907 -5.1842 -2.73198 0
M  V30 2715 N 457.957 -4.38762 -1.4784 0
M  V30 2716 H 455.118 -8.36803 -2.32493 0
M  V30 2717 H 454.848 -6.70197 -1.71129 0
M  V30 2718 H 455.715 -7.03551 -4.13168 0
M  V30 2719 P 459.677 -7.20834 -5.23717 0
M  V30 2720 O 459.897 -7.79853 -6.57286 0
M  V30 2721 O 460.467 -7.79239 -4.12957 0
M  V30 2722 O 459.927 -5.63315 -5.29344 0
M  V30 2723 C 458.987 -4.80255 -6.01876 0
M  V30 2724 C 459.717 -3.64202 -6.65911 0
M  V30 2725 O 459.927 -2.60694 -5.64732 0
M  V30 2726 C 461.117 -3.93473 -7.1943 0
M  V30 2727 O 461.507 -3.02071 -8.21205 0
M  V30 2728 C 461.997 -3.73047 -5.97036 0
M  V30 2729 C 461.287 -2.58828 -5.25741 0
M  V30 2730 N 461.337 -2.68068 -3.77503 0
M  V30 2731 H 458.498 -5.40332 -6.79951 0
M  V30 2732 H 458.228 -4.41613 -5.32378 0
M  V30 2733 H 459.095 -3.26331 -7.47797 0
M  V30 2734 P 463.057 -2.75334 -8.47391 0
M  V30 2735 O 463.277 -2.44571 -9.90142 0
M  V30 2736 O 463.847 -3.87688 -7.92115 0
M  V30 2737 O 463.307 -1.4459 -7.59357 0
M  V30 2738 C 462.367 -0.347608 -7.69215 0
M  V30 2739 C 463.097 0.96767 -7.52806 0
M  V30 2740 O 463.307 1.21036 -6.1011 0
M  V30 2741 C 464.497 1.04544 -8.13308 0
M  V30 2742 O 464.887 2.38311 -8.41922 0
M  V30 2743 C 465.377 0.491279 -7.02284 0
M  V30 2744 C 464.667 0.996264 -5.77469 0
M  V30 2745 N 464.717 0.0501916 -4.62973 0
M  V30 2746 H 461.878 -0.374722 -8.67691 0
M  V30 2747 H 461.608 -0.443485 -6.90277 0
M  V30 2748 H 462.475 1.75537 -7.96793 0
M  V30 2749 P 466.437 2.75334 -8.47391 0
M  V30 2750 O 466.657 3.84128 -9.44797 0
M  V30 2751 O 467.227 1.51947 -8.68712 0
M  V30 2752 O 466.687 3.29363 -6.99321 0
M  V30 2753 C 465.747 4.24011 -6.4274 0
M  V30 2754 C 466.477 5.20775 -5.52155 0
M  V30 2755 O 466.687 4.56534 -4.22446 0
M  V30 2756 C 467.877 5.62629 -5.96531 0
M  V30 2757 O 468.267 6.87667 -5.41053 0
M  V30 2758 C 468.757 4.52537 -5.39283 0
M  V30 2759 C 468.047 4.20027 -4.08623 0
M  V30 2760 N 468.097 2.76189 -3.71603 0
M  V30 2761 H 465.258 4.797 -7.24003 0
M  V30 2762 H 464.988 3.69856 -5.84513 0
M  V30 2763 H 465.855 6.10356 -5.41441 0
M  V30 2764 P 469.817 7.20834 -5.23717 0
M  V30 2765 O 470.037 8.66104 -5.38572 0
M  V30 2766 O 470.607 6.33544 -6.1349 0
M  V30 2767 O 470.067 6.7751 -3.72168 0
M  V30 2768 C 469.127 7.20825 -2.7076 0
M  V30 2769 C 469.857 7.45864 -1.40599 0
M  V30 2770 O 470.067 6.17651 -0.734225 0
M  V30 2771 C 471.257 8.05808 -1.51899 0
M  V30 2772 O 471.647 8.74358 -0.335205 0
M  V30 2773 C 472.137 6.83093 -1.70294 0
M  V30 2774 C 471.427 5.79992 -0.836974 0
M  V30 2775 N 471.477 4.41864 -1.38293 0
M  V30 2776 H 468.638 8.13644 -3.0377 0
M  V30 2777 H 468.368 6.42788 -2.55485 0
M  V30 2778 H 469.235 8.12039 -0.792769 0
M  V30 2779 P 473.197 8.91 2.75506e-12 0
M  V30 2780 O 473.417 10.1726 0.733694 0
M  V30 2781 O 473.987 8.73148 -1.23936 0
M  V30 2782 O 473.447 7.66872 0.971405 0
M  V30 2783 C 472.507 7.42309 2.04641 0
M  V30 2784 C 473.237 6.86059 3.24661 0
M  V30 2785 O 473.447 5.42847 3.03646 0
M  V30 2786 C 474.637 7.41196 3.50753 0
M  V30 2787 O 475.027 7.27073 4.86816 0
M  V30 2788 C 475.517 6.5273 2.63741 0
M  V30 2789 C 474.807 5.1842 2.73198 0
M  V30 2790 N 474.857 4.38762 1.4784 0
M  V30 2791 H 472.018 8.36803 2.32493 0
M  V30 2792 H 471.748 6.70197 1.71129 0
M  V30 2793 H 472.615 7.03551 4.13168 0
M  V30 2794 P 476.577 7.20834 5.23717 0
M  V30 2795 O 476.797 7.79853 6.57286 0
M  V30 2796 O 477.367 7.79239 4.12957 0
M  V30 2797 O 476.827 5.63315 5.29344 0
M  V30 2798 C 475.887 4.80255 6.01876 0
M  V30 2799 C 476.617 3.64202 6.65911 0
M  V30 2800 O 476.827 2.60694 5.64732 0
M  V30 2801 C 478.017 3.93473 7.1943 0
M  V30 2802 O 478.407 3.02071 8.21205 0
M  V30 2803 C 478.897 3.73047 5.97036 0
M  V30 2804 C 478.187 2.58828 5.25741 0
M  V30 2805 N 478.237 2.68068 3.77503 0
M  V30 2806 H 475.398 5.40332 6.79951 0
M  V30 2807 H 475.128 4.41613 5.32378 0
M  V30 2808 H 475.995 3.26331 7.47797 0
M  V30 2809 P 479.957 2.75334 8.47391 0
M  V30 2810 O 480.177 2.44571 9.90142 0
M  V30 2811 O 480.747 3.87688 7.92115 0
M  V30 2812 O 480.207 1.4459 7.59357 0
M  V30 2813 C 479.267 0.347608 7.69215 0
M  V30 2814 C 479.997 -0.96767 7.52806 0
M  V30 2815 O 480.207 -1.21036 6.1011 0
M  V30 2816 C 481.397 -1.04544 8.13308 0
M  V30 2817 O 481.787 -2.38311 8.41922 0
M  V30 2818 C 482.277 -0.491279 7.02284 0
M  V30 2819 C 481.567 -0.996264 5.77469 0
M  V30 2820 N 481.617 -0.0501916 4.62973 0
M  V30 2821 H 478.778 0.374722 8.67691 0
M  V30 2822 H 478.508 0.443485 6.90277 0
M  V30 2823 H 479.375 -1.75537 7.96793 0
M  V30 2824 P 483.337 -2.75334 8.47391 0
M  V30 2825 O 483.557 -3.84128 9.44797 0
M  V30 2826 O 484.127 -1.51947 8.68712 0
M  V30 2827 O 483.587 -3.29363 6.99321 0
M  V30 2828 C 482.647 -4.24011 6.4274 0
M  V30 2829 C 483.377 -5.20775 5.52155 0
M  V30 2830 O 483.587 -4.56534 4.22446 0
M  V30 2831 C 484.777 -5.62629 5.96531 0
M  V30 2832 O 485.167 -6.87667 5.41053 0
M  V30 2833 C 485.657 -4.52537 5.39283 0
M  V30 2834 C 484.947 -4.20027 4.08623 0
M  V30 2835 N 484.997 -2.76189 3.71603 0
M  V30 2836 H 482.158 -4.797 7.24003 0
M  V30 2837 H 481.888 -3.69856 5.84513 0
M  V30 2838 H 482.755 -6.10356 5.41441 0
M  V30 2839 P 486.717 -7.20834 5.23717 0
M  V30 2840 O 486.937 -8.66104 5.38572 0
M  V30 2841 O 487.507 -6.33544 6.1349 0
M  V30 2842 O 486.967 -6.7751 3.72168 0
M  V30 2843 C 486.027 -7.20825 2.7076 0
M  V30 2844 C 486.757 -7.45864 1.40599 0
M  V30 2845 O 486.967 -6.17651 0.734225 0
M  V30 2846 C 488.157 -8.05808 1.51899 0
M  V30 2847 O 488.547 -8.74358 0.335205 0
M  V30 2848 C 489.037 -6.83093 1.70294 0
M  V30 2849 C 488.327 -5.79992 0.836974 0
M  V30 2850 N 488.377 -4.41864 1.38293 0
M  V30 2851 H 485.538 -8.13644 3.0377 0
M  V30 2852 H 485.268 -6.42788 2.55485 0
M  V30 2853 H 486.135 -8.12039 0.792769 0
M  V30 2854 P 490.097 -8.91 -2.91224e-12 0
M  V30 2855 O 490.317 -10.1736 -0.733766 0
M  V30 2856 O 490.887 -8.73247 1.2395 0
M  V30 2857 O 490.347 -7.66872 -0.971405 0
M  V30 2858 C 489.407 -7.42309 -2.04641 0
M  V30 2859 C 490.137 -6.86059 -3.24661 0
M  V30 2860 O 490.347 -5.42847 -3.03646 0
M  V30 2861 C 491.537 -7.41196 -3.50753 0
M  V30 2862 O 491.927 -7.27073 -4.86816 0
M  V30 2863 C 492.417 -6.5273 -2.63741 0
M  V30 2864 C 491.707 -5.1842 -2.73198 0
M  V30 2865 N 491.757 -4.38668 -1.47808 0
M  V30 2866 C 491.907 -3.00789 -1.58511 0
M  V30 2867 O 491.997 -2.50116 -2.71298 0
M  V30 2868 N 491.957 -2.29703 -0.253698 0
M  V30 2869 C 491.857 -2.84269 0.750133 0
M  V30 2870 N 491.907 -2.06951 1.82612 0
M  V30 2871 C 491.707 -4.25803 0.889776 0
M  V30 2872 C 491.657 -4.98326 -0.259363 0
M  V30 2873 H 488.917 -8.36707 -2.32466 0
M  V30 2874 H 488.648 -6.701 -1.71105 0
M  V30 2875 H 489.515 -7.03638 -4.13219 0
M  V30 2876 H 492.17 -4.59852 -3.53955 0
M  V30 2877 H 492.449 -6.88995 -1.59871 0
M  V30 2878 H 493.441 -6.46749 -3.03687 0
M  V30 2879 H 491.607 -8.46908 -3.20714 0
M  V30 2880 H 491.535 -6.06349 -0.206238 0
M  V30 2881 H 491.637 -4.73163 1.86796 0
M  V30 2882 H 492.025 -1.05099 1.72271 0
M  V30 2883 H 491.828 -2.48716 2.76361 0
M  V30 2884 P 493.477 -7.20834 -5.23717 0
M  V30 2885 O 493.697 -7.7993 -6.57351 0
M  V30 2886 O 494.267 -7.79328 -4.13004 0
M  V30 2887 O 493.727 -5.63315 -5.29344 0
M  V30 2888 C 492.787 -4.80193 -6.01798 0
M  V30 2889 C 493.517 -3.64202 -6.65911 0
M  V30 2890 O 493.727 -2.60694 -5.64732 0
M  V30 2891 C 494.917 -3.93473 -7.1943 0
M  V30 2892 O 495.307 -3.02071 -8.21205 0
M  V30 2893 C 495.797 -3.73047 -5.97036 0
M  V30 2894 C 495.087 -2.58828 -5.25741 0
M  V30 2895 N 495.137 -2.6801 -3.77422 0
M  V30 2896 C 495.287 -1.50443 -3.07133 0
M  V30 2897 O 495.377 -0.419406 -3.61576 0
M  V30 2898 N 495.327 -1.6403 -1.69677 0
M  V30 2899 C 495.237 -2.81206 -0.986255 0
M  V30 2900 C 495.087 -3.99158 -1.80325 0
M  V30 2901 C 495.037 -3.89779 -3.1476 0
M  V30 2902 H 492.297 -5.40332 -6.79951 0
M  V30 2903 H 492.028 -4.41549 -5.32301 0
M  V30 2904 H 492.895 -3.26331 -7.47797 0
M  V30 2905 H 495.55 -1.6395 -5.56554 0
M  V30 2906 H 495.829 -4.63439 -5.3432 0
M  V30 2907 H 496.821 -3.44728 -6.25838 0
M  V30 2908 H 494.987 -4.96652 -7.57263 0
M  V30 2909 H 494.916 -4.80159 -3.74441 0
M  V30 2910 P 496.857 -2.75334 -8.47391 0
M  V30 2911 O 497.077 -2.44571 -9.90142 0
M  V30 2912 O 497.647 -3.87688 -7.92115 0
M  V30 2913 O 497.107 -1.4459 -7.59357 0
M  V30 2914 C 496.167 -0.347608 -7.69215 0
M  V30 2915 C 496.897 0.96767 -7.52806 0
M  V30 2916 O 497.107 1.21036 -6.1011 0
M  V30 2917 C 498.297 1.04544 -8.13308 0
M  V30 2918 O 498.687 2.38311 -8.41922 0
M  V30 2919 C 499.177 0.491279 -7.02284 0
M  V30 2920 C 498.467 0.996264 -5.77469 0
M  V30 2921 N 498.517 0.0501916 -4.62973 0
M  V30 2922 H 495.678 -0.374722 -8.67691 0
M  V30 2923 H 495.408 -0.443485 -6.90277 0
M  V30 2924 H 496.275 1.75537 -7.96793 0
M  V30 2925 P 500.237 2.75334 -8.47391 0
M  V30 2926 O 500.457 3.84128 -9.44797 0
M  V30 2927 O 501.027 1.51947 -8.68712 0
M  V30 2928 O 500.487 3.29363 -6.99321 0
M  V30 2929 C 499.547 4.24011 -6.4274 0
M  V30 2930 C 500.277 5.20775 -5.52155 0
M  V30 2931 O 500.487 4.56534 -4.22446 0
M  V30 2932 C 501.677 5.62629 -5.96531 0
M  V30 2933 O 502.067 6.87667 -5.41053 0
M  V30 2934 C 502.557 4.52537 -5.39283 0
M  V30 2935 C 501.847 4.20027 -4.08623 0
M  V30 2936 N 501.897 2.76189 -3.71603 0
M  V30 2937 C 501.817 1.64862 -4.52822 0
M  V30 2938 N 501.897 0.512671 -3.88633 0
M  V30 2939 C 502.037 0.888083 -2.54977 0
M  V30 2940 C 502.167 0.094668 -1.38677 0
M  V30 2941 N 502.287 0.890102 -0.232633 0
M  V30 2942 C 502.287 2.26958 -0.21772 0
M  V30 2943 N 502.417 2.84626 0.97925 0
M  V30 2944 N 502.157 3.0178 -1.31033 0
M  V30 2945 C 502.037 2.26781 -2.43843 0
M  V30 2946 H 499.058 4.797 -7.24003 0
M  V30 2947 H 498.788 3.69856 -5.84513 0
M  V30 2948 H 499.655 6.10356 -5.41441 0
M  V30 2949 P 503.617 7.20834 -5.23717 0
M  V30 2950 O 503.837 8.66189 -5.38625 0
M  V30 2951 O 504.407 6.33615 -6.1356 0
M  V30 2952 O 503.867 6.7751 -3.72168 0
M  V30 2953 C 502.927 7.20732 -2.70725 0
M  V30 2954 C 503.657 7.45864 -1.40599 0
M  V30 2955 O 503.867 6.17651 -0.734225 0
M  V30 2956 C 505.057 8.05808 -1.51899 0
M  V30 2957 O 505.447 8.74358 -0.335205 0
M  V30 2958 C 505.937 6.83093 -1.70294 0
M  V30 2959 C 505.227 5.79992 -0.836974 0
M  V30 2960 N 505.277 4.41769 -1.38263 0
M  V30 2961 C 505.427 3.38591 -0.481702 0
M  V30 2962 O 505.517 3.56839 0.718452 0
M  V30 2963 N 505.467 2.1206 -1.03569 0
M  V30 2964 C 505.377 1.80696 -2.36966 0
M  V30 2965 C 505.227 2.94845 -3.23898 0
M  V30 2966 C 505.177 4.19803 -2.73435 0
M  V30 2967 H 502.437 8.13644 -3.0377 0
M  V30 2968 H 502.168 6.42695 -2.55448 0
M  V30 2969 H 503.035 8.12039 -0.792769 0
M  V30 2970 H 505.69 5.79978 0.160587 0
M  V30 2971 H 505.969 6.51379 -2.75643 0
M  V30 2972 H 506.961 7.01734 -1.34462 0
M  V30 2973 H 505.127 8.73674 -2.38337 0
M  V30 2974 H 505.056 5.04492 -3.4095 0
M  V30 2975 P 506.997 8.91 3.06942e-12 0
M  V30 2976 O 507.217 10.1726 0.733694 0
M  V30 2977 O 507.787 8.73148 -1.23936 0
M  V30 2978 O 507.247 7.66872 0.971405 0
M  V30 2979 C 506.307 7.42309 2.04641 0
M  V30 2980 C 507.037 6.86059 3.24661 0
M  V30 2981 O 507.247 5.42847 3.03646 0
M  V30 2982 C 508.437 7.41196 3.50753 0
M  V30 2983 O 508.827 7.27073 4.86816 0
M  V30 2984 C 509.317 6.5273 2.63741 0
M  V30 2985 C 508.607 5.1842 2.73198 0
M  V30 2986 N 508.657 4.38762 1.4784 0
M  V30 2987 H 505.818 8.36803 2.32493 0
M  V30 2988 H 505.548 6.70197 1.71129 0
M  V30 2989 H 506.415 7.03551 4.13168 0
M  V30 2990 P 510.377 7.20834 5.23717 0
M  V30 2991 O 510.597 7.79853 6.57286 0
M  V30 2992 O 511.167 7.79239 4.12957 0
M  V30 2993 O 510.627 5.63315 5.29344 0
M  V30 2994 C 509.687 4.80255 6.01876 0
M  V30 2995 C 510.417 3.64202 6.65911 0
M  V30 2996 O 510.627 2.60694 5.64732 0
M  V30 2997 C 511.817 3.93473 7.1943 0
M  V30 2998 O 512.207 3.02071 8.21205 0
M  V30 2999 C 512.697 3.73047 5.97036 0
M  V30 3000 C 511.987 2.58828 5.25741 0
M  V30 3001 N 512.037 2.68068 3.77503 0
M  V30 3002 C 511.957 3.79715 2.96723 0
M  V30 3003 N 512.037 3.5377 1.68852 0
M  V30 3004 C 512.177 2.15054 1.63254 0
M  V30 3005 C 512.307 1.28964 0.518571 0
M  V30 3006 N 512.427 -0.0538097 0.918425 0
M  V30 3007 C 512.427 -0.494275 2.22578 0
M  V30 3008 N 512.557 -1.81086 2.40434 0
M  V30 3009 N 512.297 0.313645 3.27502 0
M  V30 3010 C 512.177 1.61829 2.91033 0
M  V30 3011 H 509.198 5.40332 6.79951 0
M  V30 3012 H 508.928 4.41613 5.32378 0
M  V30 3013 H 509.795 3.26331 7.47797 0
M  V30 3014 P 513.757 2.75334 8.47391 0
M  V30 3015 O 513.977 2.44571 9.90142 0
M  V30 3016 O 514.547 3.87688 7.92115 0
M  V30 3017 O 514.007 1.4459 7.59357 0
M  V30 3018 C 513.067 0.347608 7.69215 0
M  V30 3019 C 513.797 -0.96767 7.52806 0
M  V30 3020 O 514.007 -1.21036 6.1011 0
M  V30 3021 C 515.197 -1.04544 8.13308 0
M  V30 3022 O 515.587 -2.38311 8.41922 0
M  V30 3023 C 516.077 -0.491279 7.02284 0
M  V30 3024 C 515.367 -0.996264 5.77469 0
M  V30 3025 N 515.417 -0.0501916 4.62973 0
M  V30 3026 H 512.578 0.374722 8.67691 0
M  V30 3027 H 512.308 0.443485 6.90277 0
M  V30 3028 H 513.175 -1.75537 7.96793 0
M  V30 3029 P 517.137 -2.75334 8.47391 0
M  V30 3030 O 517.357 -3.84128 9.44797 0
M  V30 3031 O 517.927 -1.51947 8.68712 0
M  V30 3032 O 517.387 -3.29363 6.99321 0
M  V30 3033 C 516.447 -4.24011 6.4274 0
M  V30 3034 C 517.177 -5.20775 5.52155 0
M  V30 3035 O 517.387 -4.56534 4.22446 0
M  V30 3036 C 518.577 -5.62629 5.96531 0
M  V30 3037 O 518.967 -6.87667 5.41053 0
M  V30 3038 C 519.457 -4.52537 5.39283 0
M  V30 3039 C 518.747 -4.20027 4.08623 0
M  V30 3040 N 518.797 -2.76189 3.71603 0
M  V30 3041 H 515.958 -4.797 7.24003 0
M  V30 3042 H 515.688 -3.69856 5.84513 0
M  V30 3043 H 516.555 -6.10356 5.41441 0
M  V30 3044 P 520.517 -7.20834 5.23717 0
M  V30 3045 O 520.737 -8.66189 5.38625 0
M  V30 3046 O 521.307 -6.33615 6.1356 0
M  V30 3047 O 520.767 -6.7751 3.72168 0
M  V30 3048 C 519.827 -7.20732 2.70725 0
M  V30 3049 C 520.557 -7.45864 1.40599 0
M  V30 3050 O 520.767 -6.17651 0.734225 0
M  V30 3051 C 521.957 -8.05808 1.51899 0
M  V30 3052 O 522.347 -8.74358 0.335205 0
M  V30 3053 C 522.837 -6.83093 1.70294 0
M  V30 3054 C 522.127 -5.79992 0.836974 0
M  V30 3055 N 522.177 -4.41769 1.38263 0
M  V30 3056 C 522.327 -3.38591 0.481702 0
M  V30 3057 O 522.417 -3.56839 -0.718452 0
M  V30 3058 N 522.367 -2.1206 1.03569 0
M  V30 3059 C 522.277 -1.80696 2.36966 0
M  V30 3060 O 522.327 -0.630473 2.74862 0
M  V30 3061 C 522.127 -2.94845 3.23898 0
M  V30 3062 C 522.017 -2.65253 4.70362 0
M  V30 3063 C 522.077 -4.19803 2.73435 0
M  V30 3064 H 519.337 -8.13644 3.0377 0
M  V30 3065 H 519.068 -6.42695 2.55448 0
M  V30 3066 H 519.935 -8.12039 0.792769 0
M  V30 3067 H 522.59 -5.79978 -0.160587 0
M  V30 3068 H 522.869 -6.51379 2.75643 0
M  V30 3069 H 523.861 -7.01734 1.34462 0
M  V30 3070 H 522.027 -8.73674 2.38337 0
M  V30 3071 H 521.956 -5.04492 3.4095 0
M  V30 3072 H 522.986 -2.83924 5.1913 0
M  V30 3073 H 521.249 -3.29824 5.15163 0
M  V30 3074 H 521.737 -1.59723 4.84449 0
M  V30 3075 H 522.473 -1.35644 0.399345 0
M  V30 3076 P 523.897 -8.91 -3.22661e-12 0
M  V30 3077 O 524.117 -10.1726 -0.733694 0
M  V30 3078 O 524.687 -8.73148 1.23936 0
M  V30 3079 O 524.147 -7.66872 -0.971405 0
M  V30 3080 C 523.207 -7.42309 -2.04641 0
M  V30 3081 C 523.937 -6.86059 -3.24661 0
M  V30 3082 O 524.147 -5.42847 -3.03646 0
M  V30 3083 C 525.337 -7.41196 -3.50753 0
M  V30 3084 O 525.727 -7.27073 -4.86816 0
M  V30 3085 C 526.217 -6.5273 -2.63741 0
M  V30 3086 C 525.507 -5.1842 -2.73198 0
M  V30 3087 N 525.557 -4.38762 -1.4784 0
M  V30 3088 C 525.477 -4.81605 -0.168631 0
M  V30 3089 N 525.557 -3.85454 0.713363 0
M  V30 3090 C 525.697 -2.6994 -0.0566958 0
M  V30 3091 C 525.827 -1.34815 0.338502 0
M  V30 3092 N 525.947 -0.496304 -0.77465 0
M  V30 3093 C 525.947 -0.908403 -2.09122 0
M  V30 3094 N 526.077 0.0517805 -3.00955 0
M  V30 3095 N 525.817 -2.17875 -2.46519 0
M  V30 3096 C 525.697 -3.01988 -1.4033 0
M  V30 3097 H 522.718 -8.36803 -2.32493 0
M  V30 3098 H 522.448 -6.70197 -1.71129 0
M  V30 3099 H 523.315 -7.03551 -4.13168 0
M  V30 3100 P 527.277 -7.20834 -5.23717 0
M  V30 3101 O 527.497 -7.79853 -6.57286 0
M  V30 3102 O 528.067 -7.79239 -4.12957 0
M  V30 3103 O 527.527 -5.63315 -5.29344 0
M  V30 3104 C 526.587 -4.80255 -6.01876 0
M  V30 3105 C 527.317 -3.64202 -6.65911 0
M  V30 3106 O 527.527 -2.60694 -5.64732 0
M  V30 3107 C 528.717 -3.93473 -7.1943 0
M  V30 3108 O 529.107 -3.02071 -8.21205 0
M  V30 3109 C 529.597 -3.73047 -5.97036 0
M  V30 3110 C 528.887 -2.58828 -5.25741 0
M  V30 3111 N 528.937 -2.68068 -3.77503 0
M  V30 3112 H 526.098 -5.40332 -6.79951 0
M  V30 3113 H 525.828 -4.41613 -5.32378 0
M  V30 3114 H 526.695 -3.26331 -7.47797 0
M  V30 3115 P 530.657 -2.75334 -8.47391 0
M  V30 3116 O 530.877 -2.44571 -9.90142 0
M  V30 3117 O 531.447 -3.87688 -7.92115 0
M  V30 3118 O 530.907 -1.4459 -7.59357 0
M  V30 3119 C 529.967 -0.347608 -7.69215 0
M  V30 3120 C 530.697 0.96767 -7.52806 0
M  V30 3121 O 530.907 1.21036 -6.1011 0
M  V30 3122 C 532.097 1.04544 -8.13308 0
M  V30 3123 O 532.487 2.38311 -8.41922 0
M  V30 3124 C 532.977 0.491279 -7.02284 0
M  V30 3125 C 532.267 0.996264 -5.77469 0
M  V30 3126 N 532.317 0.0501916 -4.62973 0
M  V30 3127 C 532.237 -1.32786 -4.63244 0
M  V30 3128 N 532.317 -1.86957 -3.44545 0
M  V30 3129 C 532.457 -0.780241 -2.58481 0
M  V30 3130 C 532.587 -0.738536 -1.17757 0
M  V30 3131 N 532.707 0.58337 -0.711393 0
M  V30 3132 C 532.707 1.70816 -1.51017 0
M  V30 3133 N 532.837 2.87826 -0.880757 0
M  V30 3134 N 532.577 1.67126 -2.8339 0
M  V30 3135 C 532.457 0.401421 -3.30572 0
M  V30 3136 H 529.478 -0.374722 -8.67691 0
M  V30 3137 H 529.208 -0.443485 -6.90277 0
M  V30 3138 H 530.075 1.75537 -7.96793 0
M  V30 3139 P 534.037 2.75334 -8.47391 0
M  V30 3140 O 534.257 3.84166 -9.4489 0
M  V30 3141 O 534.827 1.51964 -8.6881 0
M  V30 3142 O 534.287 3.29363 -6.99321 0
M  V30 3143 C 533.347 4.23956 -6.42656 0
M  V30 3144 C 534.077 5.20775 -5.52155 0
M  V30 3145 O 534.287 4.56534 -4.22446 0
M  V30 3146 C 535.477 5.62629 -5.96531 0
M  V30 3147 O 535.867 6.87667 -5.41053 0
M  V30 3148 C 536.357 4.52537 -5.39283 0
M  V30 3149 C 535.647 4.20027 -4.08623 0
M  V30 3150 N 535.697 2.7613 -3.71522 0
M  V30 3151 C 535.847 2.45612 -2.37989 0
M  V30 3152 O 535.937 3.30919 -1.51621 0
M  V30 3153 N 535.887 1.10684 -2.08435 0
M  V30 3154 C 535.797 0.0690084 -2.9792 0
M  V30 3155 C 535.647 0.481522 -4.35345 0
M  V30 3156 C 535.597 1.78906 -4.67968 0
M  V30 3157 H 532.857 4.797 -7.24003 0
M  V30 3158 H 532.588 3.69802 -5.84429 0
M  V30 3159 H 533.455 6.10356 -5.41441 0
M  V30 3160 H 536.11 4.78651 -3.27911 0
M  V30 3161 H 536.389 3.64957 -6.05871 0
M  V30 3162 H 537.381 4.8868 -5.2125 0
M  V30 3163 H 535.547 5.66726 -7.06352 0
M  V30 3164 H 535.476 2.07737 -5.72367 0
M  V30 3165 P 537.417 7.20834 -5.23717 0
M  V30 3166 O 537.637 8.66104 -5.38572 0
M  V30 3167 O 538.207 6.33544 -6.1349 0
M  V30 3168 O 537.667 6.7751 -3.72168 0
M  V30 3169 C 536.727 7.20825 -2.7076 0
M  V30 3170 C 537.457 7.45864 -1.40599 0
M  V30 3171 O 537.667 6.17651 -0.734225 0
M  V30 3172 C 538.857 8.05808 -1.51899 0
M  V30 3173 O 539.247 8.74358 -0.335205 0
M  V30 3174 C 539.737 6.83093 -1.70294 0
M  V30 3175 C 539.027 5.79992 -0.836974 0
M  V30 3176 N 539.077 4.41864 -1.38293 0
M  V30 3177 H 536.238 8.13644 -3.0377 0
M  V30 3178 H 535.968 6.42788 -2.55485 0
M  V30 3179 H 536.835 8.12039 -0.792769 0
M  V30 3180 P 540.797 8.91 3.38379e-12 0
M  V30 3181 O 541.017 10.1726 0.733694 0
M  V30 3182 O 541.587 8.73148 -1.23936 0
M  V30 3183 O 541.047 7.66872 0.971405 0
M  V30 3184 C 540.107 7.42309 2.04641 0
M  V30 3185 C 540.837 6.86059 3.24661 0
M  V30 3186 O 541.047 5.42847 3.03646 0
M  V30 3187 C 542.237 7.41196 3.50753 0
M  V30 3188 O 542.627 7.27073 4.86816 0
M  V30 3189 C 543.117 6.5273 2.63741 0
M  V30 3190 C 542.407 5.1842 2.73198 0
M  V30 3191 N 542.457 4.38762 1.4784 0
M  V30 3192 H 539.618 8.36803 2.32493 0
M  V30 3193 H 539.348 6.70197 1.71129 0
M  V30 3194 H 540.215 7.03551 4.13168 0
M  V30 3195 P 544.177 7.20834 5.23717 0
M  V30 3196 O 544.397 7.79853 6.57286 0
M  V30 3197 O 544.967 7.79239 4.12957 0
M  V30 3198 O 544.427 5.63315 5.29344 0
M  V30 3199 C 543.487 4.80255 6.01876 0
M  V30 3200 C 544.217 3.64202 6.65911 0
M  V30 3201 O 544.427 2.60694 5.64732 0
M  V30 3202 C 545.617 3.93473 7.1943 0
M  V30 3203 O 546.007 3.02071 8.21205 0
M  V30 3204 C 546.497 3.73047 5.97036 0
M  V30 3205 C 545.787 2.58828 5.25741 0
M  V30 3206 N 545.837 2.68068 3.77503 0
M  V30 3207 C 545.757 3.79715 2.96723 0
M  V30 3208 N 545.837 3.5377 1.68852 0
M  V30 3209 C 545.977 2.15054 1.63254 0
M  V30 3210 C 546.107 1.28964 0.518571 0
M  V30 3211 O 546.127 1.56826 -0.679156 0
M  V30 3212 N 546.227 -0.0538097 0.918425 0
M  V30 3213 C 546.227 -0.494275 2.22578 0
M  V30 3214 N 546.357 -1.81086 2.40434 0
M  V30 3215 N 546.097 0.313645 3.27502 0
M  V30 3216 C 545.977 1.61829 2.91033 0
M  V30 3217 H 542.998 5.40332 6.79951 0
M  V30 3218 H 542.728 4.41613 5.32378 0
M  V30 3219 H 543.595 3.26331 7.47797 0
M  V30 3220 H 546.25 1.63422 5.56814 0
M  V30 3221 H 546.529 4.63374 5.34244 0
M  V30 3222 H 547.521 3.44728 6.25838 0
M  V30 3223 H 545.687 4.96652 7.57263 0
M  V30 3224 H 545.638 4.80617 3.3614 0
M  V30 3225 H 546.32 -0.742702 0.199384 0
M  V30 3226 H 546.357 -2.20598 3.35588 0
M  V30 3227 H 546.458 -2.43518 1.58945 0
M  V30 3228 P 547.557 2.75334 8.47391 0
M  V30 3229 O 547.777 2.44571 9.90142 0
M  V30 3230 O 548.347 3.87688 7.92115 0
M  V30 3231 O 547.807 1.4459 7.59357 0
M  V30 3232 C 546.867 0.347608 7.69215 0
M  V30 3233 C 547.597 -0.96767 7.52806 0
M  V30 3234 O 547.807 -1.21036 6.1011 0
M  V30 3235 C 548.997 -1.04544 8.13308 0
M  V30 3236 O 549.387 -2.38311 8.41922 0
M  V30 3237 C 549.877 -0.491279 7.02284 0
M  V30 3238 C 549.167 -0.996264 5.77469 0
M  V30 3239 N 549.217 -0.0501916 4.62973 0
M  V30 3240 H 546.378 0.374722 8.67691 0
M  V30 3241 H 546.108 0.443485 6.90277 0
M  V30 3242 H 546.975 -1.75537 7.96793 0
M  V30 3243 P 550.937 -2.75334 8.47391 0
M  V30 3244 O 551.157 -3.84128 9.44797 0
M  V30 3245 O 551.727 -1.51947 8.68712 0
M  V30 3246 O 551.187 -3.29363 6.99321 0
M  V30 3247 C 550.247 -4.24011 6.4274 0
M  V30 3248 C 550.977 -5.20775 5.52155 0
M  V30 3249 O 551.187 -4.56534 4.22446 0
M  V30 3250 C 552.377 -5.62629 5.96531 0
M  V30 3251 O 552.767 -6.87667 5.41053 0
M  V30 3252 C 553.257 -4.52537 5.39283 0
M  V30 3253 C 552.547 -4.20027 4.08623 0
M  V30 3254 N 552.597 -2.76189 3.71603 0
M  V30 3255 H 549.758 -4.797 7.24003 0
M  V30 3256 H 549.488 -3.69856 5.84513 0
M  V30 3257 H 550.355 -6.10356 5.41441 0
M  V30 3258 P 554.317 -7.20834 5.23717 0
M  V30 3259 O 554.537 -8.66104 5.38572 0
M  V30 3260 O 555.107 -6.33544 6.1349 0
M  V30 3261 O 554.567 -6.7751 3.72168 0
M  V30 3262 C 553.627 -7.20825 2.7076 0
M  V30 3263 C 554.357 -7.45864 1.40599 0
M  V30 3264 O 554.567 -6.17651 0.734225 0
M  V30 3265 C 555.757 -8.05808 1.51899 0
M  V30 3266 O 556.147 -8.74358 0.335205 0
M  V30 3267 C 556.637 -6.83093 1.70294 0
M  V30 3268 C 555.927 -5.79992 0.836974 0
M  V30 3269 N 555.977 -4.41864 1.38293 0
M  V30 3270 H 553.138 -8.13644 3.0377 0
M  V30 3271 H 552.868 -6.42788 2.55485 0
M  V30 3272 H 553.735 -8.12039 0.792769 0
M  V30 3273 P 557.697 -8.91 -3.54097e-12 0
M  V30 3274 O 557.917 -10.1726 -0.733694 0
M  V30 3275 O 558.487 -8.73148 1.23936 0
M  V30 3276 O 557.947 -7.66872 -0.971405 0
M  V30 3277 C 557.007 -7.42309 -2.04641 0
M  V30 3278 C 557.737 -6.86059 -3.24661 0
M  V30 3279 O 557.947 -5.42847 -3.03646 0
M  V30 3280 C 559.137 -7.41196 -3.50753 0
M  V30 3281 O 559.527 -7.27073 -4.86816 0
M  V30 3282 C 560.017 -6.5273 -2.63741 0
M  V30 3283 C 559.307 -5.1842 -2.73198 0
M  V30 3284 N 559.357 -4.38762 -1.4784 0
M  V30 3285 H 556.518 -8.36803 -2.32493 0
M  V30 3286 H 556.248 -6.70197 -1.71129 0
M  V30 3287 H 557.115 -7.03551 -4.13168 0
M  V30 3288 P 561.077 -7.20834 -5.23717 0
M  V30 3289 O 561.297 -7.79853 -6.57286 0
M  V30 3290 O 561.867 -7.79239 -4.12957 0
M  V30 3291 O 561.327 -5.63315 -5.29344 0
M  V30 3292 C 560.387 -4.80255 -6.01876 0
M  V30 3293 C 561.117 -3.64202 -6.65911 0
M  V30 3294 O 561.327 -2.60694 -5.64732 0
M  V30 3295 C 562.517 -3.93473 -7.1943 0
M  V30 3296 O 562.907 -3.02071 -8.21205 0
M  V30 3297 C 563.397 -3.73047 -5.97036 0
M  V30 3298 C 562.687 -2.58828 -5.25741 0
M  V30 3299 N 562.737 -2.68068 -3.77503 0
M  V30 3300 H 559.898 -5.40332 -6.79951 0
M  V30 3301 H 559.628 -4.41613 -5.32378 0
M  V30 3302 H 560.495 -3.26331 -7.47797 0
M  V30 3303 P 564.457 -2.75334 -8.47391 0
M  V30 3304 O 564.677 -2.44595 -9.90239 0
M  V30 3305 O 565.247 -3.87732 -7.92204 0
M  V30 3306 O 564.707 -1.4459 -7.59357 0
M  V30 3307 C 563.767 -0.347563 -7.69115 0
M  V30 3308 C 564.497 0.96767 -7.52806 0
M  V30 3309 O 564.707 1.21036 -6.1011 0
M  V30 3310 C 565.897 1.04544 -8.13308 0
M  V30 3311 O 566.287 2.38311 -8.41922 0
M  V30 3312 C 566.777 0.491279 -7.02284 0
M  V30 3313 C 566.067 0.996264 -5.77469 0
M  V30 3314 N 566.117 0.0501808 -4.62873 0
M  V30 3315 C 566.267 0.588177 -3.36904 0
M  V30 3316 O 566.357 1.78598 -3.17173 0
M  V30 3317 N 566.307 -0.329694 -2.33686 0
M  V30 3318 C 566.217 -1.6953 -2.45079 0
M  V30 3319 O 566.267 -2.41926 -1.44899 0
M  V30 3320 C 566.067 -2.16933 -3.80505 0
M  V30 3321 C 565.957 -3.65373 -3.97621 0
M  V30 3322 C 566.017 -1.30326 -4.83752 0
M  V30 3323 H 563.277 -0.374722 -8.67691 0
M  V30 3324 H 563.008 -0.443421 -6.90177 0
M  V30 3325 H 563.875 1.75537 -7.96793 0
M  V30 3326 H 566.53 1.94496 -5.46629 0
M  V30 3327 H 566.809 -0.608651 -7.04676 0
M  V30 3328 H 567.801 0.889672 -7.08939 0
M  V30 3329 H 565.967 0.43308 -9.04564 0
M  V30 3330 H 565.896 -1.68366 -5.8516 0
M  V30 3331 H 566.926 -4.05985 -4.30448 0
M  V30 3332 H 565.189 -3.88028 -4.72875 0
M  V30 3333 H 565.677 -4.11381 -3.01609 0
M  V30 3334 H 566.413 0.0393617 -1.41345 0
M  V30 3335 P 567.837 2.75334 -8.47391 0
M  V30 3336 O 568.057 3.84166 -9.4489 0
M  V30 3337 O 568.627 1.51964 -8.6881 0
M  V30 3338 O 568.087 3.29363 -6.99321 0
M  V30 3339 C 567.147 4.23956 -6.42656 0
M  V30 3340 C 567.877 5.20775 -5.52155 0
M  V30 3341 O 568.087 4.56534 -4.22446 0
M  V30 3342 C 569.277 5.62629 -5.96531 0
M  V30 3343 O 569.667 6.87667 -5.41053 0
M  V30 3344 C 570.157 4.52537 -5.39283 0
M  V30 3345 C 569.447 4.20027 -4.08623 0
M  V30 3346 N 569.497 2.7613 -3.71522 0
M  V30 3347 C 569.647 2.45612 -2.37989 0
M  V30 3348 O 569.737 3.30919 -1.51621 0
M  V30 3349 N 569.687 1.10684 -2.08435 0
M  V30 3350 C 569.597 0.0690084 -2.9792 0
M  V30 3351 C 569.447 0.481522 -4.35345 0
M  V30 3352 C 569.397 1.78906 -4.67968 0
M  V30 3353 H 566.657 4.797 -7.24003 0
M  V30 3354 H 566.388 3.69802 -5.84429 0
M  V30 3355 H 567.255 6.10356 -5.41441 0
M  V30 3356 H 569.91 4.78651 -3.27911 0
M  V30 3357 H 570.189 3.64957 -6.05871 0
M  V30 3358 H 571.181 4.8868 -5.2125 0
M  V30 3359 H 569.347 5.66726 -7.06352 0
M  V30 3360 H 569.276 2.07737 -5.72367 0
M  V30 3361 P 571.217 7.20834 -5.23717 0
M  V30 3362 O 571.437 8.66104 -5.38572 0
M  V30 3363 O 572.007 6.33544 -6.1349 0
M  V30 3364 O 571.467 6.7751 -3.72168 0
M  V30 3365 C 570.527 7.20825 -2.7076 0
M  V30 3366 C 571.257 7.45864 -1.40599 0
M  V30 3367 O 571.467 6.17651 -0.734225 0
M  V30 3368 C 572.657 8.05808 -1.51899 0
M  V30 3369 O 573.047 8.74358 -0.335205 0
M  V30 3370 C 573.537 6.83093 -1.70294 0
M  V30 3371 C 572.827 5.79992 -0.836974 0
M  V30 3372 N 572.877 4.41864 -1.38293 0
M  V30 3373 H 570.038 8.13644 -3.0377 0
M  V30 3374 H 569.768 6.42788 -2.55485 0
M  V30 3375 H 570.635 8.12039 -0.792769 0
M  V30 3376 P 574.597 8.91 3.69815e-12 0
M  V30 3377 O 574.817 10.1726 0.733694 0
M  V30 3378 O 575.387 8.73148 -1.23936 0
M  V30 3379 O 574.847 7.66872 0.971405 0
M  V30 3380 C 573.907 7.42309 2.04641 0
M  V30 3381 C 574.637 6.86059 3.24661 0
M  V30 3382 O 574.847 5.42847 3.03646 0
M  V30 3383 C 576.037 7.41196 3.50753 0
M  V30 3384 O 576.427 7.27073 4.86816 0
M  V30 3385 C 576.917 6.5273 2.63741 0
M  V30 3386 C 576.207 5.1842 2.73198 0
M  V30 3387 N 576.257 4.38762 1.4784 0
M  V30 3388 H 573.418 8.36803 2.32493 0
M  V30 3389 H 573.148 6.70197 1.71129 0
M  V30 3390 H 574.015 7.03551 4.13168 0
M  V30 3391 P 577.977 7.20834 5.23717 0
M  V30 3392 O 578.197 7.79853 6.57286 0
M  V30 3393 O 578.767 7.79239 4.12957 0
M  V30 3394 O 578.227 5.63315 5.29344 0
M  V30 3395 C 577.287 4.80255 6.01876 0
M  V30 3396 C 578.017 3.64202 6.65911 0
M  V30 3397 O 578.227 2.60694 5.64732 0
M  V30 3398 C 579.417 3.93473 7.1943 0
M  V30 3399 O 579.807 3.02071 8.21205 0
M  V30 3400 C 580.297 3.73047 5.97036 0
M  V30 3401 C 579.587 2.58828 5.25741 0
M  V30 3402 N 579.637 2.68068 3.77503 0
M  V30 3403 H 576.798 5.40332 6.79951 0
M  V30 3404 H 576.528 4.41613 5.32378 0
M  V30 3405 H 577.395 3.26331 7.47797 0
M  V30 3406 P 581.357 2.75334 8.47391 0
M  V30 3407 O 581.577 2.44571 9.90142 0
M  V30 3408 O 582.147 3.87688 7.92115 0
M  V30 3409 O 581.607 1.4459 7.59357 0
M  V30 3410 C 580.667 0.347608 7.69215 0
M  V30 3411 C 581.397 -0.96767 7.52806 0
M  V30 3412 O 581.607 -1.21036 6.1011 0
M  V30 3413 C 582.797 -1.04544 8.13308 0
M  V30 3414 O 583.187 -2.38311 8.41922 0
M  V30 3415 C 583.677 -0.491279 7.02284 0
M  V30 3416 C 582.967 -0.996264 5.77469 0
M  V30 3417 N 583.017 -0.0501916 4.62973 0
M  V30 3418 C 582.937 1.32786 4.63244 0
M  V30 3419 N 583.017 1.86957 3.44545 0
M  V30 3420 C 583.157 0.780241 2.58481 0
M  V30 3421 C 583.287 0.738536 1.17757 0
M  V30 3422 O 583.307 1.66794 0.372349 0
M  V30 3423 N 583.407 -0.58337 0.711393 0
M  V30 3424 C 583.407 -1.70816 1.51017 0
M  V30 3425 N 583.537 -2.87826 0.880757 0
M  V30 3426 N 583.277 -1.67126 2.8339 0
M  V30 3427 C 583.157 -0.401421 3.30572 0
M  V30 3428 H 580.178 0.374722 8.67691 0
M  V30 3429 H 579.908 0.443485 6.90277 0
M  V30 3430 H 580.775 -1.75537 7.96793 0
M  V30 3431 H 583.43 -1.95076 5.46529 0
M  V30 3432 H 583.709 0.608565 7.04577 0
M  V30 3433 H 584.701 -0.889672 7.08939 0
M  V30 3434 H 582.867 -0.43308 9.04564 0
M  V30 3435 H 582.818 1.91249 5.54442 0
M  V30 3436 H 583.5 -0.718054 -0.275244 0
M  V30 3437 H 583.537 -3.75721 1.41832 0
M  V30 3438 H 583.638 -2.90436 -0.145468 0
M  V30 3439 P 584.737 -2.75334 8.47391 0
M  V30 3440 O 584.957 -3.84128 9.44797 0
M  V30 3441 O 585.527 -1.51947 8.68712 0
M  V30 3442 O 584.987 -3.29363 6.99321 0
M  V30 3443 C 584.047 -4.24011 6.4274 0
M  V30 3444 C 584.777 -5.20775 5.52155 0
M  V30 3445 O 584.987 -4.56534 4.22446 0
M  V30 3446 C 586.177 -5.62629 5.96531 0
M  V30 3447 O 586.567 -6.87667 5.41053 0
M  V30 3448 C 587.057 -4.52537 5.39283 0
M  V30 3449 C 586.347 -4.20027 4.08623 0
M  V30 3450 N 586.397 -2.76189 3.71603 0
M  V30 3451 H 583.558 -4.797 7.24003 0
M  V30 3452 H 583.288 -3.69856 5.84513 0
M  V30 3453 H 584.155 -6.10356 5.41441 0
M  V30 3454 P 588.117 -7.20834 5.23717 0
M  V30 3455 O 588.337 -8.66104 5.38572 0
M  V30 3456 O 588.907 -6.33544 6.1349 0
M  V30 3457 O 588.367 -6.7751 3.72168 0
M  V30 3458 C 587.427 -7.20825 2.7076 0
M  V30 3459 C 588.157 -7.45864 1.40599 0
M  V30 3460 O 588.367 -6.17651 0.734225 0
M  V30 3461 C 589.557 -8.05808 1.51899 0
M  V30 3462 O 589.947 -8.74358 0.335205 0
M  V30 3463 C 590.437 -6.83093 1.70294 0
M  V30 3464 C 589.727 -5.79992 0.836974 0
M  V30 3465 N 589.777 -4.41864 1.38293 0
M  V30 3466 H 586.938 -8.13644 3.0377 0
M  V30 3467 H 586.668 -6.42788 2.55485 0
M  V30 3468 H 587.535 -8.12039 0.792769 0
M  V30 3469 P 591.496 -8.91 -3.85533e-12 0
M  V30 3470 O 591.716 -10.1726 -0.733694 0
M  V30 3471 O 592.286 -8.73148 1.23936 0
M  V30 3472 O 591.746 -7.66872 -0.971405 0
M  V30 3473 C 590.806 -7.42309 -2.04641 0
M  V30 3474 C 591.536 -6.86059 -3.24661 0
M  V30 3475 O 591.746 -5.42847 -3.03646 0
M  V30 3476 C 592.937 -7.41196 -3.50753 0
M  V30 3477 O 593.327 -7.27073 -4.86816 0
M  V30 3478 C 593.817 -6.5273 -2.63741 0
M  V30 3479 C 593.106 -5.1842 -2.73198 0
M  V30 3480 N 593.156 -4.38762 -1.4784 0
M  V30 3481 H 590.317 -8.36803 -2.32493 0
M  V30 3482 H 590.048 -6.70197 -1.71129 0
M  V30 3483 H 590.914 -7.03551 -4.13168 0
M  V30 3484 P 594.876 -7.20834 -5.23717 0
M  V30 3485 O 595.096 -7.79853 -6.57286 0
M  V30 3486 O 595.666 -7.79239 -4.12957 0
M  V30 3487 O 595.126 -5.63315 -5.29344 0
M  V30 3488 C 594.186 -4.80255 -6.01876 0
M  V30 3489 C 594.916 -3.64202 -6.65911 0
M  V30 3490 O 595.126 -2.60694 -5.64732 0
M  V30 3491 C 596.316 -3.93473 -7.1943 0
M  V30 3492 O 596.706 -3.02071 -8.21205 0
M  V30 3493 C 597.196 -3.73047 -5.97036 0
M  V30 3494 C 596.486 -2.58828 -5.25741 0
M  V30 3495 N 596.536 -2.68068 -3.77503 0
M  V30 3496 C 596.456 -3.79715 -2.96723 0
M  V30 3497 N 596.536 -3.5377 -1.68852 0
M  V30 3498 C 596.676 -2.15054 -1.63254 0
M  V30 3499 C 596.806 -1.28964 -0.518571 0
M  V30 3500 N 596.926 0.0538097 -0.918425 0
M  V30 3501 C 596.926 0.494275 -2.22578 0
M  V30 3502 N 597.056 1.81086 -2.40434 0
M  V30 3503 N 596.796 -0.313645 -3.27502 0
M  V30 3504 C 596.676 -1.61829 -2.91033 0
M  V30 3505 H 593.697 -5.40332 -6.79951 0
M  V30 3506 H 593.427 -4.41613 -5.32378 0
M  V30 3507 H 594.294 -3.26331 -7.47797 0
M  V30 3508 P 598.256 -2.75334 -8.47391 0
M  V30 3509 O 598.476 -2.44571 -9.90142 0
M  V30 3510 O 599.046 -3.87688 -7.92115 0
M  V30 3511 O 598.506 -1.4459 -7.59357 0
M  V30 3512 C 597.566 -0.347608 -7.69215 0
M  V30 3513 C 598.296 0.96767 -7.52806 0
M  V30 3514 O 598.506 1.21036 -6.1011 0
M  V30 3515 C 599.696 1.04544 -8.13308 0
M  V30 3516 O 600.086 2.38311 -8.41922 0
M  V30 3517 C 600.576 0.491279 -7.02284 0
M  V30 3518 C 599.866 0.996264 -5.77469 0
M  V30 3519 N 599.916 0.0501916 -4.62973 0
M  V30 3520 H 597.077 -0.374722 -8.67691 0
M  V30 3521 H 596.807 -0.443485 -6.90277 0
M  V30 3522 H 597.674 1.75537 -7.96793 0
M  V30 3523 P 601.636 2.75334 -8.47391 0
M  V30 3524 O 601.856 3.84128 -9.44797 0
M  V30 3525 O 602.426 1.51947 -8.68712 0
M  V30 3526 O 601.886 3.29363 -6.99321 0
M  V30 3527 C 600.946 4.24011 -6.4274 0
M  V30 3528 C 601.676 5.20775 -5.52155 0
M  V30 3529 O 601.886 4.56534 -4.22446 0
M  V30 3530 C 603.076 5.62629 -5.96531 0
M  V30 3531 O 603.466 6.87667 -5.41053 0
M  V30 3532 C 603.956 4.52537 -5.39283 0
M  V30 3533 C 603.246 4.20027 -4.08623 0
M  V30 3534 N 603.296 2.76189 -3.71603 0
M  V30 3535 H 600.457 4.797 -7.24003 0
M  V30 3536 H 600.187 3.69856 -5.84513 0
M  V30 3537 H 601.054 6.10356 -5.41441 0
M  V30 3538 P 605.016 7.20834 -5.23717 0
M  V30 3539 O 605.236 8.66104 -5.38572 0
M  V30 3540 O 605.806 6.33544 -6.1349 0
M  V30 3541 O 605.266 6.7751 -3.72168 0
M  V30 3542 C 604.326 7.20825 -2.7076 0
M  V30 3543 C 605.056 7.45864 -1.40599 0
M  V30 3544 O 605.266 6.17651 -0.734225 0
M  V30 3545 C 606.456 8.05808 -1.51899 0
M  V30 3546 O 606.846 8.74358 -0.335205 0
M  V30 3547 C 607.336 6.83093 -1.70294 0
M  V30 3548 C 606.626 5.79992 -0.836974 0
M  V30 3549 N 606.676 4.41864 -1.38293 0
M  V30 3550 H 603.837 8.13644 -3.0377 0
M  V30 3551 H 603.567 6.42788 -2.55485 0
M  V30 3552 H 604.434 8.12039 -0.792769 0
M  V30 3553 P 608.396 8.91 4.01252e-12 0
M  V30 3554 O 608.616 10.1726 0.733694 0
M  V30 3555 O 609.186 8.73148 -1.23936 0
M  V30 3556 O 608.646 7.66872 0.971405 0
M  V30 3557 C 607.706 7.42309 2.04641 0
M  V30 3558 C 608.436 6.86059 3.24661 0
M  V30 3559 O 608.646 5.42847 3.03646 0
M  V30 3560 C 609.836 7.41196 3.50753 0
M  V30 3561 O 610.226 7.27073 4.86816 0
M  V30 3562 C 610.716 6.5273 2.63741 0
M  V30 3563 C 610.006 5.1842 2.73198 0
M  V30 3564 N 610.056 4.38762 1.4784 0
M  V30 3565 H 607.217 8.36803 2.32493 0
M  V30 3566 H 606.947 6.70197 1.71129 0
M  V30 3567 H 607.814 7.03551 4.13168 0
M  V30 3568 P 611.776 7.20834 5.23717 0
M  V30 3569 O 611.996 7.79853 6.57286 0
M  V30 3570 O 612.566 7.79239 4.12957 0
M  V30 3571 O 612.026 5.63315 5.29344 0
M  V30 3572 C 611.086 4.80255 6.01876 0
M  V30 3573 C 611.816 3.64202 6.65911 0
M  V30 3574 O 612.026 2.60694 5.64732 0
M  V30 3575 C 613.216 3.93473 7.1943 0
M  V30 3576 O 613.606 3.02071 8.21205 0
M  V30 3577 C 614.096 3.73047 5.97036 0
M  V30 3578 C 613.386 2.58828 5.25741 0
M  V30 3579 N 613.436 2.68068 3.77503 0
M  V30 3580 H 610.597 5.40332 6.79951 0
M  V30 3581 H 610.327 4.41613 5.32378 0
M  V30 3582 H 611.194 3.26331 7.47797 0
M  V30 3583 P 615.156 2.75334 8.47391 0
M  V30 3584 O 615.376 2.44571 9.90142 0
M  V30 3585 O 615.946 3.87688 7.92115 0
M  V30 3586 O 615.406 1.4459 7.59357 0
M  V30 3587 C 614.466 0.347608 7.69215 0
M  V30 3588 C 615.196 -0.96767 7.52806 0
M  V30 3589 O 615.406 -1.21036 6.1011 0
M  V30 3590 C 616.596 -1.04544 8.13308 0
M  V30 3591 O 616.986 -2.38311 8.41922 0
M  V30 3592 C 617.476 -0.491279 7.02284 0
M  V30 3593 C 616.766 -0.996264 5.77469 0
M  V30 3594 N 616.816 -0.0501916 4.62973 0
M  V30 3595 H 613.977 0.374722 8.67691 0
M  V30 3596 H 613.707 0.443485 6.90277 0
M  V30 3597 H 614.574 -1.75537 7.96793 0
M  V30 3598 P 618.536 -2.75334 8.47391 0
M  V30 3599 O 618.756 -3.84128 9.44797 0
M  V30 3600 O 619.326 -1.51947 8.68712 0
M  V30 3601 O 618.786 -3.29363 6.99321 0
M  V30 3602 C 617.846 -4.24011 6.4274 0
M  V30 3603 C 618.576 -5.20775 5.52155 0
M  V30 3604 O 618.786 -4.56534 4.22446 0
M  V30 3605 C 619.976 -5.62629 5.96531 0
M  V30 3606 O 620.366 -6.87667 5.41053 0
M  V30 3607 C 620.856 -4.52537 5.39283 0
M  V30 3608 C 620.146 -4.20027 4.08623 0
M  V30 3609 N 620.196 -2.76189 3.71603 0
M  V30 3610 H 617.357 -4.797 7.24003 0
M  V30 3611 H 617.087 -3.69856 5.84513 0
M  V30 3612 H 617.954 -6.10356 5.41441 0
M  V30 3613 P 621.916 -7.20834 5.23717 0
M  V30 3614 O 622.136 -8.66104 5.38572 0
M  V30 3615 O 622.706 -6.33544 6.1349 0
M  V30 3616 O 622.166 -6.7751 3.72168 0
M  V30 3617 C 621.226 -7.20825 2.7076 0
M  V30 3618 C 621.956 -7.45864 1.40599 0
M  V30 3619 O 622.166 -6.17651 0.734225 0
M  V30 3620 C 623.356 -8.05808 1.51899 0
M  V30 3621 O 623.746 -8.74358 0.335205 0
M  V30 3622 C 624.236 -6.83093 1.70294 0
M  V30 3623 C 623.526 -5.79992 0.836974 0
M  V30 3624 N 623.576 -4.41864 1.38293 0
M  V30 3625 H 620.737 -8.13644 3.0377 0
M  V30 3626 H 620.467 -6.42788 2.55485 0
M  V30 3627 H 621.334 -8.12039 0.792769 0
M  V30 3628 P 625.296 -8.91 -4.1697e-12 0
M  V30 3629 O 625.516 -10.1726 -0.733694 0
M  V30 3630 O 626.086 -8.73148 1.23936 0
M  V30 3631 O 625.546 -7.66872 -0.971405 0
M  V30 3632 C 624.606 -7.42309 -2.04641 0
M  V30 3633 C 625.336 -6.86059 -3.24661 0
M  V30 3634 O 625.546 -5.42847 -3.03646 0
M  V30 3635 C 626.736 -7.41196 -3.50753 0
M  V30 3636 O 627.126 -7.27073 -4.86816 0
M  V30 3637 C 627.616 -6.5273 -2.63741 0
M  V30 3638 C 626.906 -5.1842 -2.73198 0
M  V30 3639 N 626.956 -4.38762 -1.4784 0
M  V30 3640 H 624.117 -8.36803 -2.32493 0
M  V30 3641 H 623.847 -6.70197 -1.71129 0
M  V30 3642 H 624.714 -7.03551 -4.13168 0
M  V30 3643 P 628.676 -7.20834 -5.23717 0
M  V30 3644 O 628.896 -7.79853 -6.57286 0
M  V30 3645 O 629.466 -7.79239 -4.12957 0
M  V30 3646 O 628.926 -5.63315 -5.29344 0
M  V30 3647 C 627.986 -4.80255 -6.01876 0
M  V30 3648 C 628.716 -3.64202 -6.65911 0
M  V30 3649 O 628.926 -2.60694 -5.64732 0
M  V30 3650 C 630.116 -3.93473 -7.1943 0
M  V30 3651 O 630.506 -3.02071 -8.21205 0
M  V30 3652 C 630.996 -3.73047 -5.97036 0
M  V30 3653 C 630.286 -2.58828 -5.25741 0
M  V30 3654 N 630.336 -2.68068 -3.77503 0
M  V30 3655 C 630.256 -3.79715 -2.96723 0
M  V30 3656 N 630.336 -3.5377 -1.68852 0
M  V30 3657 C 630.476 -2.15054 -1.63254 0
M  V30 3658 C 630.606 -1.28964 -0.518571 0
M  V30 3659 O 630.626 -1.56826 0.679156 0
M  V30 3660 N 630.726 0.0538097 -0.918425 0
M  V30 3661 C 630.726 0.494275 -2.22578 0
M  V30 3662 N 630.856 1.81086 -2.40434 0
M  V30 3663 N 630.596 -0.313645 -3.27502 0
M  V30 3664 C 630.476 -1.61829 -2.91033 0
M  V30 3665 H 627.497 -5.40332 -6.79951 0
M  V30 3666 H 627.227 -4.41613 -5.32378 0
M  V30 3667 H 628.094 -3.26331 -7.47797 0
M  V30 3668 H 630.749 -1.63422 -5.56814 0
M  V30 3669 H 631.028 -4.63374 -5.34244 0
M  V30 3670 H 632.02 -3.44728 -6.25838 0
M  V30 3671 H 630.186 -4.96652 -7.57263 0
M  V30 3672 H 630.137 -4.80617 -3.3614 0
M  V30 3673 H 630.819 0.742702 -0.199384 0
M  V30 3674 H 630.856 2.20598 -3.35588 0
M  V30 3675 H 630.957 2.43518 -1.58945 0
M  V30 3676 P 632.056 -2.75334 -8.47391 0
M  V30 3677 O 632.276 -2.44571 -9.90142 0
M  V30 3678 O 632.846 -3.87688 -7.92115 0
M  V30 3679 O 632.306 -1.4459 -7.59357 0
M  V30 3680 C 631.366 -0.347608 -7.69215 0
M  V30 3681 C 632.096 0.96767 -7.52806 0
M  V30 3682 O 632.306 1.21036 -6.1011 0
M  V30 3683 C 633.496 1.04544 -8.13308 0
M  V30 3684 O 633.886 2.38311 -8.41922 0
M  V30 3685 C 634.376 0.491279 -7.02284 0
M  V30 3686 C 633.666 0.996264 -5.77469 0
M  V30 3687 N 633.716 0.0501916 -4.62973 0
M  V30 3688 H 630.877 -0.374722 -8.67691 0
M  V30 3689 H 630.607 -0.443485 -6.90277 0
M  V30 3690 H 631.474 1.75537 -7.96793 0
M  V30 3691 P 635.436 2.75334 -8.47391 0
M  V30 3692 O 635.656 3.84128 -9.44797 0
M  V30 3693 O 636.226 1.51947 -8.68712 0
M  V30 3694 O 635.686 3.29363 -6.99321 0
M  V30 3695 C 634.746 4.24011 -6.4274 0
M  V30 3696 C 635.476 5.20775 -5.52155 0
M  V30 3697 O 635.686 4.56534 -4.22446 0
M  V30 3698 C 636.876 5.62629 -5.96531 0
M  V30 3699 O 637.266 6.87667 -5.41053 0
M  V30 3700 C 637.756 4.52537 -5.39283 0
M  V30 3701 C 637.046 4.20027 -4.08623 0
M  V30 3702 N 637.096 2.76189 -3.71603 0
M  V30 3703 C 637.016 1.64862 -4.52822 0
M  V30 3704 N 637.096 0.512671 -3.88633 0
M  V30 3705 C 637.236 0.888083 -2.54977 0
M  V30 3706 C 637.366 0.094668 -1.38677 0
M  V30 3707 O 637.386 -1.13053 -1.28163 0
M  V30 3708 N 637.486 0.890102 -0.232633 0
M  V30 3709 C 637.486 2.26958 -0.21772 0
M  V30 3710 N 637.616 2.84626 0.97925 0
M  V30 3711 N 637.356 3.0178 -1.31033 0
M  V30 3712 C 637.236 2.26781 -2.43843 0
M  V30 3713 H 634.257 4.797 -7.24003 0
M  V30 3714 H 633.987 3.69856 -5.84513 0
M  V30 3715 H 634.854 6.10356 -5.41441 0
M  V30 3716 H 637.509 4.79061 -3.27488 0
M  V30 3717 H 637.788 3.64906 -6.05785 0
M  V30 3718 H 638.78 4.8868 -5.2125 0
M  V30 3719 H 636.946 5.66726 -7.06352 0
M  V30 3720 H 636.897 1.71169 -5.60966 0
M  V30 3721 H 637.579 0.419134 0.644739 0
M  V30 3722 H 637.616 3.87332 1.06098 0
M  V30 3723 H 637.717 2.26417 1.82483 0
M  V30 3724 P 638.816 7.20834 -5.23717 0
M  V30 3725 O 639.036 8.66104 -5.38572 0
M  V30 3726 O 639.606 6.33544 -6.1349 0
M  V30 3727 O 639.066 6.7751 -3.72168 0
M  V30 3728 C 638.126 7.20825 -2.7076 0
M  V30 3729 C 638.856 7.45864 -1.40599 0
M  V30 3730 O 639.066 6.17651 -0.734225 0
M  V30 3731 C 640.256 8.05808 -1.51899 0
M  V30 3732 O 640.646 8.74358 -0.335205 0
M  V30 3733 C 641.136 6.83093 -1.70294 0
M  V30 3734 C 640.426 5.79992 -0.836974 0
M  V30 3735 N 640.476 4.41864 -1.38293 0
M  V30 3736 H 637.637 8.13644 -3.0377 0
M  V30 3737 H 637.367 6.42788 -2.55485 0
M  V30 3738 H 638.234 8.12039 -0.792769 0
M  V30 3739 P 642.196 8.91 4.32688e-12 0
M  V30 3740 O 642.416 10.1726 0.733694 0
M  V30 3741 O 642.986 8.73148 -1.23936 0
M  V30 3742 O 642.446 7.66872 0.971405 0
M  V30 3743 C 641.506 7.42309 2.04641 0
M  V30 3744 C 642.236 6.86059 3.24661 0
M  V30 3745 O 642.446 5.42847 3.03646 0
M  V30 3746 C 643.636 7.41196 3.50753 0
M  V30 3747 O 644.026 7.27073 4.86816 0
M  V30 3748 C 644.516 6.5273 2.63741 0
M  V30 3749 C 643.806 5.1842 2.73198 0
M  V30 3750 N 643.856 4.38762 1.4784 0
M  V30 3751 C 643.776 4.81605 0.168631 0
M  V30 3752 N 643.856 3.85454 -0.713363 0
M  V30 3753 C 643.996 2.6994 0.0566958 0
M  V30 3754 C 644.126 1.34815 -0.338502 0
M  V30 3755 O 644.146 0.869548 -1.47125 0
M  V30 3756 N 644.246 0.496304 0.77465 0
M  V30 3757 C 644.246 0.908403 2.09122 0
M  V30 3758 N 644.376 -0.0517805 3.00955 0
M  V30 3759 N 644.116 2.17875 2.46519 0
M  V30 3760 C 643.996 3.01988 1.4033 0
M  V30 3761 H 641.017 8.36803 2.32493 0
M  V30 3762 H 640.747 6.70197 1.71129 0
M  V30 3763 H 641.614 7.03551 4.13168 0
M  V30 3764 H 644.269 4.59498 3.54415 0
M  V30 3765 H 644.548 6.88898 1.59848 0
M  V30 3766 H 645.54 6.46749 3.03687 0
M  V30 3767 H 643.706 8.46908 3.20714 0
M  V30 3768 H 643.657 5.86405 -0.105564 0
M  V30 3769 H 644.339 -0.483664 0.597855 0
M  V30 3770 H 644.376 0.187865 4.0116 0
M  V30 3771 H 644.477 -1.03585 2.71726 0
M  V30 3772 P 645.576 7.20834 5.23717 0
M  V30 3773 O 645.796 7.79853 6.57286 0
M  V30 3774 O 646.366 7.79239 4.12957 0
M  V30 3775 O 645.826 5.63315 5.29344 0
M  V30 3776 C 644.886 4.80255 6.01876 0
M  V30 3777 C 645.616 3.64202 6.65911 0
M  V30 3778 O 645.826 2.60694 5.64732 0
M  V30 3779 C 647.016 3.93473 7.1943 0
M  V30 3780 O 647.406 3.02071 8.21205 0
M  V30 3781 C 647.896 3.73047 5.97036 0
M  V30 3782 C 647.186 2.58828 5.25741 0
M  V30 3783 N 647.236 2.68068 3.77503 0
M  V30 3784 H 644.397 5.40332 6.79951 0
M  V30 3785 H 644.127 4.41613 5.32378 0
M  V30 3786 H 644.994 3.26331 7.47797 0
M  V30 3787 P 648.956 2.75334 8.47391 0
M  V30 3788 O 649.176 2.44571 9.90142 0
M  V30 3789 O 649.746 3.87688 7.92115 0
M  V30 3790 O 649.206 1.4459 7.59357 0
M  V30 3791 C 648.266 0.347608 7.69215 0
M  V30 3792 C 648.996 -0.96767 7.52806 0
M  V30 3793 O 649.206 -1.21036 6.1011 0
M  V30 3794 C 650.396 -1.04544 8.13308 0
M  V30 3795 O 650.786 -2.38311 8.41922 0
M  V30 3796 C 651.276 -0.491279 7.02284 0
M  V30 3797 C 650.566 -0.996264 5.77469 0
M  V30 3798 N 650.616 -0.0501916 4.62973 0
M  V30 3799 H 647.777 0.374722 8.67691 0
M  V30 3800 H 647.507 0.443485 6.90277 0
M  V30 3801 H 648.374 -1.75537 7.96793 0
M  V30 3802 P 652.336 -2.75334 8.47391 0
M  V30 3803 O 652.556 -3.84128 9.44797 0
M  V30 3804 O 653.126 -1.51947 8.68712 0
M  V30 3805 O 652.586 -3.29363 6.99321 0
M  V30 3806 C 651.646 -4.24011 6.4274 0
M  V30 3807 C 652.376 -5.20775 5.52155 0
M  V30 3808 O 652.586 -4.56534 4.22446 0
M  V30 3809 C 653.776 -5.62629 5.96531 0
M  V30 3810 O 654.166 -6.87667 5.41053 0
M  V30 3811 C 654.656 -4.52537 5.39283 0
M  V30 3812 C 653.946 -4.20027 4.08623 0
M  V30 3813 N 653.996 -2.76189 3.71603 0
M  V30 3814 H 651.157 -4.797 7.24003 0
M  V30 3815 H 650.887 -3.69856 5.84513 0
M  V30 3816 H 651.754 -6.10356 5.41441 0
M  V30 3817 P 655.716 -7.20834 5.23717 0
M  V30 3818 O 655.936 -8.66104 5.38572 0
M  V30 3819 O 656.506 -6.33544 6.1349 0
M  V30 3820 O 655.966 -6.7751 3.72168 0
M  V30 3821 C 655.026 -7.20825 2.7076 0
M  V30 3822 C 655.756 -7.45864 1.40599 0
M  V30 3823 O 655.966 -6.17651 0.734225 0
M  V30 3824 C 657.156 -8.05808 1.51899 0
M  V30 3825 O 657.546 -8.74358 0.335205 0
M  V30 3826 C 658.036 -6.83093 1.70294 0
M  V30 3827 C 657.326 -5.79992 0.836974 0
M  V30 3828 N 657.376 -4.41864 1.38293 0
M  V30 3829 H 654.537 -8.13644 3.0377 0
M  V30 3830 H 654.267 -6.42788 2.55485 0
M  V30 3831 H 655.134 -8.12039 0.792769 0
M  V30 3832 P 659.096 -8.91 -4.48406e-12 0
M  V30 3833 O 659.316 -10.1726 -0.733694 0
M  V30 3834 O 659.886 -8.73148 1.23936 0
M  V30 3835 O 659.346 -7.66872 -0.971405 0
M  V30 3836 C 658.406 -7.42309 -2.04641 0
M  V30 3837 C 659.136 -6.86059 -3.24661 0
M  V30 3838 O 659.346 -5.42847 -3.03646 0
M  V30 3839 C 660.536 -7.41196 -3.50753 0
M  V30 3840 O 660.926 -7.27073 -4.86816 0
M  V30 3841 C 661.416 -6.5273 -2.63741 0
M  V30 3842 C 660.706 -5.1842 -2.73198 0
M  V30 3843 N 660.756 -4.38762 -1.4784 0
M  V30 3844 H 657.917 -8.36803 -2.32493 0
M  V30 3845 H 657.647 -6.70197 -1.71129 0
M  V30 3846 H 658.514 -7.03551 -4.13168 0
M  V30 3847 P 662.476 -7.20834 -5.23717 0
M  V30 3848 O 662.696 -7.79853 -6.57286 0
M  V30 3849 O 663.266 -7.79239 -4.12957 0
M  V30 3850 O 662.726 -5.63315 -5.29344 0
M  V30 3851 C 661.786 -4.80255 -6.01876 0
M  V30 3852 C 662.516 -3.64202 -6.65911 0
M  V30 3853 O 662.726 -2.60694 -5.64732 0
M  V30 3854 C 663.916 -3.93473 -7.1943 0
M  V30 3855 O 664.306 -3.02071 -8.21205 0
M  V30 3856 C 664.796 -3.73047 -5.97036 0
M  V30 3857 C 664.086 -2.58828 -5.25741 0
M  V30 3858 N 664.136 -2.68068 -3.77503 0
M  V30 3859 H 661.297 -5.40332 -6.79951 0
M  V30 3860 H 661.027 -4.41613 -5.32378 0
M  V30 3861 H 661.894 -3.26331 -7.47797 0
M  V30 3862 P 665.856 -2.75334 -8.47391 0
M  V30 3863 O 666.076 -2.44571 -9.90142 0
M  V30 3864 O 666.646 -3.87688 -7.92115 0
M  V30 3865 O 666.106 -1.4459 -7.59357 0
M  V30 3866 C 665.166 -0.347608 -7.69215 0
M  V30 3867 C 665.896 0.96767 -7.52806 0
M  V30 3868 O 666.106 1.21036 -6.1011 0
M  V30 3869 C 667.296 1.04544 -8.13308 0
M  V30 3870 O 667.686 2.38311 -8.41922 0
M  V30 3871 C 668.176 0.491279 -7.02284 0
M  V30 3872 C 667.466 0.996264 -5.77469 0
M  V30 3873 N 667.516 0.0501916 -4.62973 0
M  V30 3874 C 667.436 -1.32786 -4.63244 0
M  V30 3875 N 667.516 -1.86957 -3.44545 0
M  V30 3876 C 667.656 -0.780241 -2.58481 0
M  V30 3877 C 667.786 -0.738536 -1.17757 0
M  V30 3878 N 667.906 0.58337 -0.711393 0
M  V30 3879 C 667.906 1.70816 -1.51017 0
M  V30 3880 N 668.036 2.87826 -0.880757 0
M  V30 3881 N 667.776 1.67126 -2.8339 0
M  V30 3882 C 667.656 0.401421 -3.30572 0
M  V30 3883 H 664.677 -0.374722 -8.67691 0
M  V30 3884 H 664.407 -0.443485 -6.90277 0
M  V30 3885 H 665.274 1.75537 -7.96793 0
M  V30 3886 P 669.236 2.75334 -8.47391 0
M  V30 3887 O 669.456 3.84166 -9.4489 0
M  V30 3888 O 670.026 1.51964 -8.6881 0
M  V30 3889 O 669.486 3.29363 -6.99321 0
M  V30 3890 C 668.546 4.23956 -6.42656 0
M  V30 3891 C 669.276 5.20775 -5.52155 0
M  V30 3892 O 669.486 4.56534 -4.22446 0
M  V30 3893 C 670.676 5.62629 -5.96531 0
M  V30 3894 O 671.066 6.87667 -5.41053 0
M  V30 3895 C 671.556 4.52537 -5.39283 0
M  V30 3896 C 670.846 4.20027 -4.08623 0
M  V30 3897 N 670.896 2.7613 -3.71522 0
M  V30 3898 C 671.046 2.45612 -2.37989 0
M  V30 3899 O 671.136 3.30919 -1.51621 0
M  V30 3900 N 671.086 1.10684 -2.08435 0
M  V30 3901 C 670.996 0.0690084 -2.9792 0
M  V30 3902 O 671.046 -1.10553 -2.59426 0
M  V30 3903 C 670.846 0.481522 -4.35345 0
M  V30 3904 C 670.736 -0.618778 -5.36443 0
M  V30 3905 C 670.796 1.78906 -4.67968 0
M  V30 3906 H 668.056 4.797 -7.24003 0
M  V30 3907 H 667.787 3.69802 -5.84429 0
M  V30 3908 H 668.654 6.10356 -5.41441 0
M  V30 3909 H 671.309 4.78651 -3.27911 0
M  V30 3910 H 671.588 3.64957 -6.05871 0
M  V30 3911 H 672.58 4.8868 -5.2125 0
M  V30 3912 H 670.746 5.66726 -7.06352 0
M  V30 3913 H 670.675 2.07737 -5.72367 0
M  V30 3914 H 671.705 -0.754375 -5.86871 0
M  V30 3915 H 669.968 -0.359721 -6.10641 0
M  V30 3916 H 670.456 -1.55533 -4.8581 0
M  V30 3917 H 671.192 0.862651 -1.12037 0
M  V30 3918 P 672.616 7.20834 -5.23717 0
M  V30 3919 O 672.836 8.66104 -5.38572 0
M  V30 3920 O 673.406 6.33544 -6.1349 0
M  V30 3921 O 672.866 6.7751 -3.72168 0
M  V30 3922 C 671.926 7.20825 -2.7076 0
M  V30 3923 C 672.656 7.45864 -1.40599 0
M  V30 3924 O 672.866 6.17651 -0.734225 0
M  V30 3925 C 674.056 8.05808 -1.51899 0
M  V30 3926 O 674.446 8.74358 -0.335205 0
M  V30 3927 C 674.936 6.83093 -1.70294 0
M  V30 3928 C 674.226 5.79992 -0.836974 0
M  V30 3929 N 674.276 4.41864 -1.38293 0
M  V30 3930 H 671.437 8.13644 -3.0377 0
M  V30 3931 H 671.167 6.42788 -2.55485 0
M  V30 3932 H 672.034 8.12039 -0.792769 0
M  V30 3933 P 675.996 8.91 4.64125e-12 0
M  V30 3934 O 676.216 10.1746 0.733838 0
M  V30 3935 O 676.786 8.73346 -1.23964 0
M  V30 3936 O 676.246 7.66872 0.971405 0
M  V30 3937 C 675.306 7.42405 2.04668 0
M  V30 3938 C 676.036 6.86059 3.24661 0
M  V30 3939 O 676.246 5.42934 3.03695 0
M  V30 3940 C 677.436 7.41287 3.50796 0
M  V30 3941 O 677.826 7.27073 4.86816 0
M  V30 3942 C 678.316 6.5273 2.63741 0
M  V30 3943 C 677.606 5.1842 2.73198 0
M  V30 3944 N 677.656 4.38762 1.4784 0
M  V30 3945 C 677.576 4.83651 0.183876 0
M  V30 3946 N 677.646 3.88759 -0.699393 0
M  V30 3947 C 677.796 2.7404 0.0575568 0
M  V30 3948 C 677.926 1.37902 -0.293928 0
M  V30 3949 N 677.936 0.938021 -1.54797 0
M  V30 3950 N 678.046 0.491817 0.70549 0
M  V30 3951 C 678.036 0.931735 1.95979 0
M  V30 3952 N 677.916 2.16017 2.41481 0
M  V30 3953 C 677.796 3.02547 1.39121 0
M  V30 3954 H 674.818 8.36899 2.3252 0
M  V30 3955 H 674.546 6.70391 1.71179 0
M  V30 3956 H 675.414 7.03638 4.13219 0
M  V30 3957 H 678.069 4.59931 3.54016 0
M  V30 3958 H 678.349 6.88995 1.59871 0
M  V30 3959 H 679.34 6.4684 3.0373 0
M  V30 3960 H 677.506 8.47002 3.20749 0
M  V30 3961 H 677.465 5.8885 -0.0765548 0
M  V30 3962 H 677.846 1.60276 -2.32875 0
M  V30 3963 H 678.035 -0.0699355 -1.73859 0
M  V30 3964 H 678.143 0.165507 2.71897 0
M  V30 3965 P 679.376 7.20834 5.23717 0
M  V30 3966 O 679.596 7.79853 6.57286 0
M  V30 3967 O 680.166 7.79239 4.12957 0
M  V30 3968 O 679.626 5.63315 5.29344 0
M  V30 3969 C 678.686 4.80255 6.01876 0
M  V30 3970 C 679.416 3.64202 6.65911 0
M  V30 3971 O 679.626 2.60694 5.64732 0
M  V30 3972 C 680.816 3.93473 7.1943 0
M  V30 3973 O 681.206 3.02071 8.21205 0
M  V30 3974 C 681.696 3.73047 5.97036 0
M  V30 3975 C 680.986 2.58828 5.25741 0
M  V30 3976 N 681.036 2.68068 3.77503 0
M  V30 3977 H 678.197 5.40332 6.79951 0
M  V30 3978 H 677.927 4.41613 5.32378 0
M  V30 3979 H 678.794 3.26331 7.47797 0
M  V30 3980 P 682.756 2.75334 8.47391 0
M  V30 3981 O 682.976 2.44571 9.90142 0
M  V30 3982 O 683.546 3.87688 7.92115 0
M  V30 3983 O 683.006 1.4459 7.59357 0
M  V30 3984 C 682.066 0.347608 7.69215 0
M  V30 3985 C 682.796 -0.96767 7.52806 0
M  V30 3986 O 683.006 -1.21036 6.1011 0
M  V30 3987 C 684.196 -1.04544 8.13308 0
M  V30 3988 O 684.586 -2.38311 8.41922 0
M  V30 3989 C 685.076 -0.491279 7.02284 0
M  V30 3990 C 684.366 -0.996264 5.77469 0
M  V30 3991 N 684.416 -0.0501916 4.62973 0
M  V30 3992 H 681.577 0.374722 8.67691 0
M  V30 3993 H 681.307 0.443485 6.90277 0
M  V30 3994 H 682.174 -1.75537 7.96793 0
M  V30 3995 P 686.136 -2.75334 8.47391 0
M  V30 3996 O 686.356 -3.84128 9.44797 0
M  V30 3997 O 686.926 -1.51947 8.68712 0
M  V30 3998 O 686.386 -3.29363 6.99321 0
M  V30 3999 C 685.446 -4.24011 6.4274 0
M  V30 4000 C 686.176 -5.20775 5.52155 0
M  V30 4001 O 686.386 -4.56534 4.22446 0
M  V30 4002 C 687.576 -5.62629 5.96531 0
M  V30 4003 O 687.966 -6.87667 5.41053 0
M  V30 4004 C 688.456 -4.52537 5.39283 0
M  V30 4005 C 687.746 -4.20027 4.08623 0
M  V30 4006 N 687.796 -2.76189 3.71603 0
M  V30 4007 H 684.957 -4.797 7.24003 0
M  V30 4008 H 684.687 -3.69856 5.84513 0
M  V30 4009 H 685.554 -6.10356 5.41441 0
M  V30 4010 P 689.516 -7.20834 5.23717 0
M  V30 4011 O 689.736 -8.66104 5.38572 0
M  V30 4012 O 690.306 -6.33544 6.1349 0
M  V30 4013 O 689.766 -6.7751 3.72168 0
M  V30 4014 C 688.826 -7.20825 2.7076 0
M  V30 4015 C 689.556 -7.45864 1.40599 0
M  V30 4016 O 689.766 -6.17651 0.734225 0
M  V30 4017 C 690.956 -8.05808 1.51899 0
M  V30 4018 O 691.346 -8.74358 0.335205 0
M  V30 4019 C 691.836 -6.83093 1.70294 0
M  V30 4020 C 691.126 -5.79992 0.836974 0
M  V30 4021 N 691.176 -4.41864 1.38293 0
M  V30 4022 H 688.337 -8.13644 3.0377 0
M  V30 4023 H 688.067 -6.42788 2.55485 0
M  V30 4024 H 688.934 -8.12039 0.792769 0
M  V30 4025 P 692.896 -8.91 -4.67181e-12 0
M  V30 4026 O 693.116 -10.1746 -0.733838 0
M  V30 4027 O 693.686 -8.73346 1.23964 0
M  V30 4028 O 693.146 -7.66872 -0.971405 0
M  V30 4029 C 692.206 -7.42405 -2.04668 0
M  V30 4030 C 692.936 -6.86059 -3.24661 0
M  V30 4031 O 693.146 -5.42934 -3.03695 0
M  V30 4032 C 694.336 -7.41287 -3.50796 0
M  V30 4033 O 694.726 -7.27073 -4.86816 0
M  V30 4034 C 695.216 -6.5273 -2.63741 0
M  V30 4035 C 694.506 -5.1842 -2.73198 0
M  V30 4036 N 694.556 -4.38762 -1.4784 0
M  V30 4037 H 691.718 -8.36899 -2.3252 0
M  V30 4038 H 691.446 -6.70391 -1.71179 0
M  V30 4039 H 692.314 -7.03638 -4.13219 0
M  V30 4040 H 694.969 -4.59931 -3.54016 0
M  V30 4041 H 695.249 -6.88995 -1.59871 0
M  V30 4042 H 696.24 -6.4684 -3.0373 0
M  V30 4043 H 694.406 -8.47002 -3.20749 0
M  V30 4044 P 696.276 -7.20834 -5.23717 0
M  V30 4045 O 696.496 -7.79853 -6.57286 0
M  V30 4046 O 697.066 -7.79239 -4.12957 0
M  V30 4047 O 696.526 -5.63315 -5.29344 0
M  V30 4048 C 695.586 -4.80255 -6.01876 0
M  V30 4049 C 696.316 -3.64202 -6.65911 0
M  V30 4050 O 696.526 -2.60694 -5.64732 0
M  V30 4051 C 697.716 -3.93473 -7.1943 0
M  V30 4052 O 698.106 -3.02071 -8.21205 0
M  V30 4053 C 698.596 -3.73047 -5.97036 0
M  V30 4054 C 697.886 -2.58828 -5.25741 0
M  V30 4055 N 697.936 -2.68068 -3.77503 0
M  V30 4056 H 695.097 -5.40332 -6.79951 0
M  V30 4057 H 694.827 -4.41613 -5.32378 0
M  V30 4058 H 695.694 -3.26331 -7.47797 0
M  V30 4059 P 699.656 -2.75334 -8.47391 0
M  V30 4060 O 699.876 -2.44571 -9.90142 0
M  V30 4061 O 700.446 -3.87688 -7.92115 0
M  V30 4062 O 699.906 -1.4459 -7.59357 0
M  V30 4063 C 698.966 -0.347608 -7.69215 0
M  V30 4064 C 699.696 0.96767 -7.52806 0
M  V30 4065 O 699.906 1.21036 -6.1011 0
M  V30 4066 C 701.096 1.04544 -8.13308 0
M  V30 4067 O 701.486 2.38311 -8.41922 0
M  V30 4068 C 701.976 0.491279 -7.02284 0
M  V30 4069 C 701.266 0.996264 -5.77469 0
M  V30 4070 N 701.316 0.0501916 -4.62973 0
M  V30 4071 H 698.477 -0.374722 -8.67691 0
M  V30 4072 H 698.207 -0.443485 -6.90277 0
M  V30 4073 H 699.074 1.75537 -7.96793 0
M  V30 4074 P 703.036 2.75334 -8.47391 0
M  V30 4075 O 703.256 3.84128 -9.44797 0
M  V30 4076 O 703.826 1.51947 -8.68712 0
M  V30 4077 O 703.286 3.29363 -6.99321 0
M  V30 4078 C 702.346 4.24011 -6.4274 0
M  V30 4079 C 703.076 5.20775 -5.52155 0
M  V30 4080 O 703.286 4.56534 -4.22446 0
M  V30 4081 C 704.476 5.62629 -5.96531 0
M  V30 4082 O 704.866 6.87667 -5.41053 0
M  V30 4083 C 705.356 4.52537 -5.39283 0
M  V30 4084 C 704.646 4.20027 -4.08623 0
M  V30 4085 N 704.696 2.76189 -3.71603 0
M  V30 4086 H 701.857 4.797 -7.24003 0
M  V30 4087 H 701.587 3.69856 -5.84513 0
M  V30 4088 H 702.454 6.10356 -5.41441 0
M  V30 4089 P 706.416 7.20834 -5.23717 0
M  V30 4090 O 706.636 8.66104 -5.38572 0
M  V30 4091 O 707.206 6.33544 -6.1349 0
M  V30 4092 O 706.666 6.7751 -3.72168 0
M  V30 4093 C 705.726 7.20825 -2.7076 0
M  V30 4094 C 706.456 7.45864 -1.40599 0
M  V30 4095 O 706.666 6.17651 -0.734225 0
M  V30 4096 C 707.856 8.05808 -1.51899 0
M  V30 4097 O 708.246 8.74358 -0.335205 0
M  V30 4098 C 708.736 6.83093 -1.70294 0
M  V30 4099 C 708.026 5.79992 -0.836974 0
M  V30 4100 N 708.076 4.41864 -1.38293 0
M  V30 4101 H 705.237 8.13644 -3.0377 0
M  V30 4102 H 704.967 6.42788 -2.55485 0
M  V30 4103 H 705.834 8.12039 -0.792769 0
M  V30 4104 P 709.796 8.91 4.82899e-12 0
M  V30 4105 O 710.016 10.1726 0.733694 0
M  V30 4106 O 710.586 8.73148 -1.23936 0
M  V30 4107 O 710.046 7.66872 0.971405 0
M  V30 4108 C 709.106 7.42309 2.04641 0
M  V30 4109 C 709.836 6.86059 3.24661 0
M  V30 4110 O 710.046 5.42847 3.03646 0
M  V30 4111 C 711.236 7.41196 3.50753 0
M  V30 4112 O 711.626 7.27073 4.86816 0
M  V30 4113 C 712.116 6.5273 2.63741 0
M  V30 4114 C 711.406 5.1842 2.73198 0
M  V30 4115 N 711.456 4.38762 1.4784 0
M  V30 4116 C 711.376 4.81605 0.168631 0
M  V30 4117 N 711.456 3.85454 -0.713363 0
M  V30 4118 C 711.596 2.6994 0.0566958 0
M  V30 4119 C 711.726 1.34815 -0.338502 0
M  V30 4120 O 711.746 0.869548 -1.47125 0
M  V30 4121 N 711.846 0.496304 0.77465 0
M  V30 4122 C 711.846 0.908403 2.09122 0
M  V30 4123 N 711.976 -0.0517805 3.00955 0
M  V30 4124 N 711.716 2.17875 2.46519 0
M  V30 4125 C 711.596 3.01988 1.4033 0
M  V30 4126 H 708.617 8.36803 2.32493 0
M  V30 4127 H 708.347 6.70197 1.71129 0
M  V30 4128 H 709.214 7.03551 4.13168 0
M  V30 4129 H 711.869 4.59498 3.54415 0
M  V30 4130 H 712.148 6.88898 1.59848 0
M  V30 4131 H 713.14 6.46749 3.03687 0
M  V30 4132 H 711.306 8.46908 3.20714 0
M  V30 4133 H 711.257 5.86405 -0.105564 0
M  V30 4134 H 711.939 -0.483664 0.597855 0
M  V30 4135 H 711.976 0.187865 4.0116 0
M  V30 4136 H 712.077 -1.03585 2.71726 0
M  V30 4137 P 713.176 7.20834 5.23717 0
M  V30 4138 O 713.396 7.79853 6.57286 0
M  V30 4139 O 713.966 7.79239 4.12957 0
M  V30 4140 O 713.426 5.63315 5.29344 0
M  V30 4141 C 712.486 4.80255 6.01876 0
M  V30 4142 C 713.216 3.64202 6.65911 0
M  V30 4143 O 713.426 2.60694 5.64732 0
M  V30 4144 C 714.616 3.93473 7.1943 0
M  V30 4145 O 715.006 3.02071 8.21205 0
M  V30 4146 C 715.496 3.73047 5.97036 0
M  V30 4147 C 714.786 2.58828 5.25741 0
M  V30 4148 N 714.836 2.68068 3.77503 0
M  V30 4149 H 711.997 5.40332 6.79951 0
M  V30 4150 H 711.727 4.41613 5.32378 0
M  V30 4151 H 712.594 3.26331 7.47797 0
M  V30 4152 P 716.556 2.75334 8.47391 0
M  V30 4153 O 716.776 2.44571 9.90142 0
M  V30 4154 O 717.346 3.87688 7.92115 0
M  V30 4155 O 716.806 1.4459 7.59357 0
M  V30 4156 C 715.866 0.347608 7.69215 0
M  V30 4157 C 716.596 -0.96767 7.52806 0
M  V30 4158 O 716.806 -1.21036 6.1011 0
M  V30 4159 C 717.996 -1.04544 8.13308 0
M  V30 4160 O 718.386 -2.38311 8.41922 0
M  V30 4161 C 718.876 -0.491279 7.02284 0
M  V30 4162 C 718.166 -0.996264 5.77469 0
M  V30 4163 N 718.216 -0.0501916 4.62973 0
M  V30 4164 C 718.136 1.32786 4.63244 0
M  V30 4165 N 718.216 1.86957 3.44545 0
M  V30 4166 C 718.356 0.780241 2.58481 0
M  V30 4167 C 718.486 0.738536 1.17757 0
M  V30 4168 O 718.506 1.66794 0.372349 0
M  V30 4169 N 718.606 -0.58337 0.711393 0
M  V30 4170 C 718.606 -1.70816 1.51017 0
M  V30 4171 N 718.736 -2.87826 0.880757 0
M  V30 4172 N 718.476 -1.67126 2.8339 0
M  V30 4173 C 718.356 -0.401421 3.30572 0
M  V30 4174 H 715.377 0.374722 8.67691 0
M  V30 4175 H 715.107 0.443485 6.90277 0
M  V30 4176 H 715.974 -1.75537 7.96793 0
M  V30 4177 H 718.629 -1.95076 5.46529 0
M  V30 4178 H 718.908 0.608565 7.04577 0
M  V30 4179 H 719.9 -0.889672 7.08939 0
M  V30 4180 H 718.066 -0.43308 9.04564 0
M  V30 4181 H 718.017 1.91249 5.54442 0
M  V30 4182 H 718.699 -0.718054 -0.275244 0
M  V30 4183 H 718.736 -3.75721 1.41832 0
M  V30 4184 H 718.837 -2.90436 -0.145468 0
M  V30 4185 P 719.936 -2.75334 8.47391 0
M  V30 4186 O 720.156 -3.84128 9.44797 0
M  V30 4187 O 720.726 -1.51947 8.68712 0
M  V30 4188 O 720.186 -3.29363 6.99321 0
M  V30 4189 C 719.246 -4.24011 6.4274 0
M  V30 4190 C 719.976 -5.20775 5.52155 0
M  V30 4191 O 720.186 -4.56534 4.22446 0
M  V30 4192 C 721.376 -5.62629 5.96531 0
M  V30 4193 O 721.766 -6.87667 5.41053 0
M  V30 4194 C 722.256 -4.52537 5.39283 0
M  V30 4195 C 721.546 -4.20027 4.08623 0
M  V30 4196 N 721.596 -2.76189 3.71603 0
M  V30 4197 C 721.516 -1.64862 4.52822 0
M  V30 4198 N 721.596 -0.512671 3.88633 0
M  V30 4199 C 721.736 -0.888083 2.54977 0
M  V30 4200 C 721.866 -0.094668 1.38677 0
M  V30 4201 N 721.986 -0.890102 0.232633 0
M  V30 4202 C 721.986 -2.26958 0.21772 0
M  V30 4203 N 722.116 -2.84626 -0.97925 0
M  V30 4204 N 721.856 -3.0178 1.31033 0
M  V30 4205 C 721.736 -2.26781 2.43843 0
M  V30 4206 H 718.757 -4.797 7.24003 0
M  V30 4207 H 718.487 -3.69856 5.84513 0
M  V30 4208 H 719.354 -6.10356 5.41441 0
M  V30 4209 P 723.316 -7.20834 5.23717 0
M  V30 4210 O 723.536 -8.66189 5.38625 0
M  V30 4211 O 724.106 -6.33615 6.1356 0
M  V30 4212 O 723.566 -6.7751 3.72168 0
M  V30 4213 C 722.626 -7.20732 2.70725 0
M  V30 4214 C 723.356 -7.45864 1.40599 0
M  V30 4215 O 723.566 -6.17651 0.734225 0
M  V30 4216 C 724.756 -8.05808 1.51899 0
M  V30 4217 O 725.146 -8.74358 0.335205 0
M  V30 4218 C 725.636 -6.83093 1.70294 0
M  V30 4219 C 724.926 -5.79992 0.836974 0
M  V30 4220 N 724.976 -4.41769 1.38263 0
M  V30 4221 C 725.126 -3.38591 0.481702 0
M  V30 4222 O 725.216 -3.56839 -0.718452 0
M  V30 4223 N 725.166 -2.1206 1.03569 0
M  V30 4224 C 725.076 -1.80696 2.36966 0
M  V30 4225 C 724.926 -2.94845 3.23898 0
M  V30 4226 C 724.876 -4.19803 2.73435 0
M  V30 4227 H 722.136 -8.13644 3.0377 0
M  V30 4228 H 721.867 -6.42695 2.55448 0
M  V30 4229 H 722.734 -8.12039 0.792769 0
M  V30 4230 H 725.389 -5.79978 -0.160587 0
M  V30 4231 H 725.668 -6.51379 2.75643 0
M  V30 4232 H 726.66 -7.01734 1.34462 0
M  V30 4233 H 724.826 -8.73674 2.38337 0
M  V30 4234 H 724.755 -5.04492 3.4095 0
M  V30 4235 P 726.696 -8.91 -4.98617e-12 0
M  V30 4236 O 726.916 -10.1726 -0.733694 0
M  V30 4237 O 727.486 -8.73148 1.23936 0
M  V30 4238 O 726.946 -7.66872 -0.971405 0
M  V30 4239 C 726.006 -7.42309 -2.04641 0
M  V30 4240 C 726.736 -6.86059 -3.24661 0
M  V30 4241 O 726.946 -5.42847 -3.03646 0
M  V30 4242 C 728.136 -7.41196 -3.50753 0
M  V30 4243 O 728.526 -7.27073 -4.86816 0
M  V30 4244 C 729.016 -6.5273 -2.63741 0
M  V30 4245 C 728.306 -5.1842 -2.73198 0
M  V30 4246 N 728.356 -4.38762 -1.4784 0
M  V30 4247 C 728.276 -4.81605 -0.168631 0
M  V30 4248 N 728.356 -3.85454 0.713363 0
M  V30 4249 C 728.496 -2.6994 -0.0566958 0
M  V30 4250 C 728.626 -1.34815 0.338502 0
M  V30 4251 O 728.646 -0.869548 1.47125 0
M  V30 4252 N 728.746 -0.496304 -0.77465 0
M  V30 4253 C 728.746 -0.908403 -2.09122 0
M  V30 4254 N 728.876 0.0517805 -3.00955 0
M  V30 4255 N 728.616 -2.17875 -2.46519 0
M  V30 4256 C 728.496 -3.01988 -1.4033 0
M  V30 4257 H 725.517 -8.36803 -2.32493 0
M  V30 4258 H 725.247 -6.70197 -1.71129 0
M  V30 4259 H 726.114 -7.03551 -4.13168 0
M  V30 4260 H 728.769 -4.59498 -3.54415 0
M  V30 4261 H 729.048 -6.88898 -1.59848 0
M  V30 4262 H 730.04 -6.46749 -3.03687 0
M  V30 4263 H 728.206 -8.46908 -3.20714 0
M  V30 4264 H 728.157 -5.86405 0.105564 0
M  V30 4265 H 728.839 0.483664 -0.597855 0
M  V30 4266 H 728.876 -0.187865 -4.0116 0
M  V30 4267 H 728.977 1.03585 -2.71726 0
M  V30 4268 P 730.076 -7.20834 -5.23717 0
M  V30 4269 O 730.296 -7.79853 -6.57286 0
M  V30 4270 O 730.866 -7.79239 -4.12957 0
M  V30 4271 O 730.326 -5.63315 -5.29344 0
M  V30 4272 C 729.386 -4.80255 -6.01876 0
M  V30 4273 C 730.116 -3.64202 -6.65911 0
M  V30 4274 O 730.326 -2.60694 -5.64732 0
M  V30 4275 C 731.516 -3.93473 -7.1943 0
M  V30 4276 O 731.906 -3.02071 -8.21205 0
M  V30 4277 C 732.396 -3.73047 -5.97036 0
M  V30 4278 C 731.686 -2.58828 -5.25741 0
M  V30 4279 N 731.736 -2.68068 -3.77503 0
M  V30 4280 H 728.897 -5.40332 -6.79951 0
M  V30 4281 H 728.627 -4.41613 -5.32378 0
M  V30 4282 H 729.494 -3.26331 -7.47797 0
M  V30 4283 P 733.456 -2.75334 -8.47391 0
M  V30 4284 O 733.676 -2.44571 -9.90142 0
M  V30 4285 O 734.246 -3.87688 -7.92115 0
M  V30 4286 O 733.706 -1.4459 -7.59357 0
M  V30 4287 C 732.766 -0.347608 -7.69215 0
M  V30 4288 C 733.496 0.96767 -7.52806 0
M  V30 4289 O 733.706 1.21036 -6.1011 0
M  V30 4290 C 734.896 1.04544 -8.13308 0
M  V30 4291 O 735.286 2.38311 -8.41922 0
M  V30 4292 C 735.776 0.491279 -7.02284 0
M  V30 4293 C 735.066 0.996264 -5.77469 0
M  V30 4294 N 735.116 0.0501916 -4.62973 0
M  V30 4295 H 732.277 -0.374722 -8.67691 0
M  V30 4296 H 732.007 -0.443485 -6.90277 0
M  V30 4297 H 732.874 1.75537 -7.96793 0
M  V30 4298 P 736.836 2.75334 -8.47391 0
M  V30 4299 O 737.056 3.84204 -9.44982 0
M  V30 4300 O 737.626 1.51982 -8.68909 0
M  V30 4301 O 737.086 3.29363 -6.99321 0
M  V30 4302 C 736.146 4.24066 -6.42823 0
M  V30 4303 C 736.876 5.20775 -5.52155 0
M  V30 4304 O 737.086 4.56607 -4.22514 0
M  V30 4305 C 738.276 5.62697 -5.96604 0
M  V30 4306 O 738.666 6.87667 -5.41053 0
M  V30 4307 C 739.156 4.52537 -5.39283 0
M  V30 4308 C 738.446 4.20027 -4.08623 0
M  V30 4309 N 738.496 2.76189 -3.71603 0
M  V30 4310 H 735.658 4.79756 -7.24086 0
M  V30 4311 H 735.386 3.69963 -5.84682 0
M  V30 4312 H 736.254 6.10431 -5.41508 0
M  V30 4313 H 738.909 4.78816 -3.28024 0
M  V30 4314 H 739.189 3.64957 -6.05871 0
M  V30 4315 H 740.18 4.88748 -5.21323 0
M  V30 4316 H 738.346 5.66789 -7.0643 0
M  V30 4317 P 740.216 7.20834 -5.23717 0
M  V30 4318 O 740.436 8.66274 -5.38678 0
M  V30 4319 O 741.006 6.33687 -6.13629 0
M  V30 4320 O 740.466 6.7751 -3.72168 0
M  V30 4321 C 739.526 7.20919 -2.70795 0
M  V30 4322 C 740.256 7.45864 -1.40599 0
M  V30 4323 O 740.466 6.17751 -0.734343 0
M  V30 4324 C 741.656 8.05906 -1.51917 0
M  V30 4325 O 742.046 8.74358 -0.335205 0
M  V30 4326 C 742.536 6.83093 -1.70294 0
M  V30 4327 C 741.826 5.79992 -0.836974 0
M  V30 4328 N 741.876 4.41864 -1.38293 0
M  V30 4329 H 739.038 8.13738 -3.03804 0
M  V30 4330 H 738.766 6.42974 -2.55559 0
M  V30 4331 H 739.634 8.12139 -0.792866 0
M  V30 4332 H 742.289 5.80178 0.160643 0
M  V30 4333 H 742.569 6.51379 -2.75643 0
M  V30 4334 H 743.56 7.01832 -1.3448 0
M  V30 4335 H 741.726 8.73771 -2.38364 0
M  V30 4336 P 743.596 8.91 5.14336e-12 0
M  V30 4337 O 743.816 10.1726 0.733694 0
M  V30 4338 O 744.386 8.73148 -1.23936 0
M  V30 4339 O 743.846 7.66872 0.971405 0
M  V30 4340 C 742.906 7.42309 2.04641 0
M  V30 4341 C 743.636 6.86059 3.24661 0
M  V30 4342 O 743.846 5.42847 3.03646 0
M  V30 4343 C 745.036 7.41196 3.50753 0
M  V30 4344 O 745.426 7.27073 4.86816 0
M  V30 4345 C 745.916 6.5273 2.63741 0
M  V30 4346 C 745.206 5.1842 2.73198 0
M  V30 4347 N 745.256 4.38762 1.4784 0
M  V30 4348 C 745.176 4.81605 0.168631 0
M  V30 4349 N 745.256 3.85454 -0.713363 0
M  V30 4350 C 745.396 2.6994 0.0566958 0
M  V30 4351 C 745.526 1.34815 -0.338502 0
M  V30 4352 O 745.546 0.869548 -1.47125 0
M  V30 4353 N 745.646 0.496304 0.77465 0
M  V30 4354 C 745.646 0.908403 2.09122 0
M  V30 4355 N 745.776 -0.0517805 3.00955 0
M  V30 4356 N 745.516 2.17875 2.46519 0
M  V30 4357 C 745.396 3.01988 1.4033 0
M  V30 4358 H 742.417 8.36803 2.32493 0
M  V30 4359 H 742.147 6.70197 1.71129 0
M  V30 4360 H 743.014 7.03551 4.13168 0
M  V30 4361 H 745.669 4.59498 3.54415 0
M  V30 4362 H 745.948 6.88898 1.59848 0
M  V30 4363 H 746.94 6.46749 3.03687 0
M  V30 4364 H 745.106 8.46908 3.20714 0
M  V30 4365 H 745.057 5.86405 -0.105564 0
M  V30 4366 H 745.739 -0.483664 0.597855 0
M  V30 4367 H 745.776 0.187865 4.0116 0
M  V30 4368 H 745.877 -1.03585 2.71726 0
M  V30 4369 P 746.976 7.20834 5.23717 0
M  V30 4370 O 747.196 7.79853 6.57286 0
M  V30 4371 O 747.766 7.79239 4.12957 0
M  V30 4372 O 747.226 5.63315 5.29344 0
M  V30 4373 C 746.286 4.80255 6.01876 0
M  V30 4374 C 747.016 3.64202 6.65911 0
M  V30 4375 O 747.226 2.60694 5.64732 0
M  V30 4376 C 748.416 3.93473 7.1943 0
M  V30 4377 O 748.806 3.02071 8.21205 0
M  V30 4378 C 749.296 3.73047 5.97036 0
M  V30 4379 C 748.586 2.58828 5.25741 0
M  V30 4380 N 748.636 2.68068 3.77503 0
M  V30 4381 H 745.797 5.40332 6.79951 0
M  V30 4382 H 745.527 4.41613 5.32378 0
M  V30 4383 H 746.394 3.26331 7.47797 0
M  V30 4384 P 750.356 2.75334 8.47391 0
M  V30 4385 O 750.576 2.44619 9.90336 0
M  V30 4386 O 751.146 3.87776 7.92294 0
M  V30 4387 O 750.606 1.4459 7.59357 0
M  V30 4388 C 749.666 0.347653 7.69315 0
M  V30 4389 C 750.396 -0.96767 7.52806 0
M  V30 4390 O 750.606 -1.21055 6.10208 0
M  V30 4391 C 751.796 -1.04557 8.13408 0
M  V30 4392 O 752.186 -2.38311 8.41922 0
M  V30 4393 C 752.676 -0.491279 7.02284 0
M  V30 4394 C 751.966 -0.996264 5.77469 0
M  V30 4395 N 752.016 -0.0501916 4.62973 0
M  V30 4396 H 749.178 0.374765 8.67791 0
M  V30 4397 H 748.906 0.443613 6.90476 0
M  V30 4398 H 749.774 -1.75559 7.96891 0
M  V30 4399 H 752.429 -1.94563 5.46818 0
M  V30 4400 H 752.709 0.608651 7.04676 0
M  V30 4401 H 753.7 -0.889796 7.09039 0
M  V30 4402 H 751.866 -0.433128 9.04664 0
M  V30 4403 P 753.736 -2.75334 8.47391 0
M  V30 4404 O 753.956 -3.84128 9.44797 0
M  V30 4405 O 754.526 -1.51947 8.68712 0
M  V30 4406 O 753.986 -3.29363 6.99321 0
M  V30 4407 C 753.046 -4.24011 6.4274 0
M  V30 4408 C 753.776 -5.20775 5.52155 0
M  V30 4409 O 753.986 -4.56534 4.22446 0
M  V30 4410 C 755.176 -5.62629 5.96531 0
M  V30 4411 O 755.566 -6.87667 5.41053 0
M  V30 4412 C 756.056 -4.52537 5.39283 0
M  V30 4413 C 755.346 -4.20027 4.08623 0
M  V30 4414 N 755.396 -2.76189 3.71603 0
M  V30 4415 C 755.316 -1.64862 4.52822 0
M  V30 4416 N 755.396 -0.512671 3.88633 0
M  V30 4417 C 755.536 -0.888083 2.54977 0
M  V30 4418 C 755.666 -0.094668 1.38677 0
M  V30 4419 N 755.786 -0.890102 0.232633 0
M  V30 4420 C 755.786 -2.26958 0.21772 0
M  V30 4421 N 755.916 -2.84626 -0.97925 0
M  V30 4422 N 755.656 -3.0178 1.31033 0
M  V30 4423 C 755.536 -2.26781 2.43843 0
M  V30 4424 H 752.557 -4.797 7.24003 0
M  V30 4425 H 752.287 -3.69856 5.84513 0
M  V30 4426 H 753.154 -6.10356 5.41441 0
M  V30 4427 P 757.116 -7.20834 5.23717 0
M  V30 4428 O 757.336 -8.66104 5.38572 0
M  V30 4429 O 757.906 -6.33544 6.1349 0
M  V30 4430 O 757.366 -6.7751 3.72168 0
M  V30 4431 C 756.426 -7.20825 2.7076 0
M  V30 4432 C 757.156 -7.45864 1.40599 0
M  V30 4433 O 757.366 -6.17651 0.734225 0
M  V30 4434 C 758.556 -8.05808 1.51899 0
M  V30 4435 O 758.946 -8.74358 0.335205 0
M  V30 4436 C 759.436 -6.83093 1.70294 0
M  V30 4437 C 758.726 -5.79992 0.836974 0
M  V30 4438 N 758.776 -4.41864 1.38293 0
M  V30 4439 C 758.696 -3.99538 2.69438 0
M  V30 4440 N 758.776 -2.69909 2.84277 0
M  V30 4441 C 758.916 -2.21719 1.5408 0
M  V30 4442 C 759.046 -0.891712 1.06628 0
M  V30 4443 O 759.066 0.161298 1.70137 0
M  V30 4444 N 759.166 -0.856846 -0.334985 0
M  V30 4445 C 759.166 -1.9641 -1.15789 0
M  V30 4446 N 759.296 -1.72708 -2.46522 0
M  V30 4447 N 759.036 -3.21165 -0.713741 0
M  V30 4448 C 758.916 -3.26797 0.639748 0
M  V30 4449 H 755.937 -8.13644 3.0377 0
M  V30 4450 H 755.667 -6.42788 2.55485 0
M  V30 4451 H 756.534 -8.12039 0.792769 0
M  V30 4452 H 759.189 -5.80061 -0.166416 0
M  V30 4453 H 759.468 -6.51287 2.75604 0
M  V30 4454 H 760.46 -7.01734 1.34462 0
M  V30 4455 H 758.626 -8.73674 2.38337 0
M  V30 4456 H 758.577 -4.68207 3.53221 0
M  V30 4457 H 759.259 0.0398818 -0.767965 0
M  V30 4458 H 759.296 -2.50995 -3.13503 0
M  V30 4459 H 759.397 -0.759148 -2.80716 0
M  V30 4460 P 760.496 -8.91 -5.30054e-12 0
M  V30 4461 O 760.716 -10.1726 -0.733694 0
M  V30 4462 O 761.286 -8.73148 1.23936 0
M  V30 4463 O 760.746 -7.66872 -0.971405 0
M  V30 4464 C 759.806 -7.42309 -2.04641 0
M  V30 4465 C 760.536 -6.86059 -3.24661 0
M  V30 4466 O 760.746 -5.42847 -3.03646 0
M  V30 4467 C 761.936 -7.41196 -3.50753 0
M  V30 4468 O 762.326 -7.27073 -4.86816 0
M  V30 4469 C 762.816 -6.5273 -2.63741 0
M  V30 4470 C 762.106 -5.1842 -2.73198 0
M  V30 4471 N 762.156 -4.38762 -1.4784 0
M  V30 4472 H 759.317 -8.36803 -2.32493 0
M  V30 4473 H 759.047 -6.70197 -1.71129 0
M  V30 4474 H 759.914 -7.03551 -4.13168 0
M  V30 4475 P 763.875 -7.20834 -5.23717 0
M  V30 4476 O 764.095 -7.79853 -6.57286 0
M  V30 4477 O 764.665 -7.79239 -4.12957 0
M  V30 4478 O 764.125 -5.63315 -5.29344 0
M  V30 4479 C 763.185 -4.80255 -6.01876 0
M  V30 4480 C 763.915 -3.64202 -6.65911 0
M  V30 4481 O 764.125 -2.60694 -5.64732 0
M  V30 4482 C 765.315 -3.93473 -7.1943 0
M  V30 4483 O 765.705 -3.02071 -8.21205 0
M  V30 4484 C 766.195 -3.73047 -5.97036 0
M  V30 4485 C 765.485 -2.58828 -5.25741 0
M  V30 4486 N 765.535 -2.68068 -3.77503 0
M  V30 4487 H 762.696 -5.40332 -6.79951 0
M  V30 4488 H 762.426 -4.41613 -5.32378 0
M  V30 4489 H 763.293 -3.26331 -7.47797 0
M  V30 4490 P 767.255 -2.75334 -8.47391 0
M  V30 4491 O 767.475 -2.44571 -9.90142 0
M  V30 4492 O 768.045 -3.87688 -7.92115 0
M  V30 4493 O 767.505 -1.4459 -7.59357 0
M  V30 4494 C 766.565 -0.347608 -7.69215 0
M  V30 4495 C 767.295 0.96767 -7.52806 0
M  V30 4496 O 767.505 1.21036 -6.1011 0
M  V30 4497 C 768.695 1.04544 -8.13308 0
M  V30 4498 O 769.085 2.38311 -8.41922 0
M  V30 4499 C 769.575 0.491279 -7.02284 0
M  V30 4500 C 768.865 0.996264 -5.77469 0
M  V30 4501 N 768.915 0.0501916 -4.62973 0
M  V30 4502 H 766.076 -0.374722 -8.67691 0
M  V30 4503 H 765.806 -0.443485 -6.90277 0
M  V30 4504 H 766.673 1.75537 -7.96793 0
M  V30 4505 P 770.635 2.75334 -8.47391 0
M  V30 4506 O 770.855 3.84204 -9.44982 0
M  V30 4507 O 771.425 1.51982 -8.68909 0
M  V30 4508 O 770.885 3.29363 -6.99321 0
M  V30 4509 C 769.945 4.24066 -6.42823 0
M  V30 4510 C 770.675 5.20775 -5.52155 0
M  V30 4511 O 770.885 4.56607 -4.22514 0
M  V30 4512 C 772.075 5.62697 -5.96604 0
M  V30 4513 O 772.465 6.87667 -5.41053 0
M  V30 4514 C 772.955 4.52537 -5.39283 0
M  V30 4515 C 772.245 4.20027 -4.08623 0
M  V30 4516 N 772.295 2.76189 -3.71603 0
M  V30 4517 C 772.215 1.66944 -4.54297 0
M  V30 4518 N 772.285 0.536169 -3.91344 0
M  V30 4519 C 772.435 0.901569 -2.58849 0
M  V30 4520 C 772.565 0.146599 -1.40236 0
M  V30 4521 N 772.575 -1.18234 -1.37046 0
M  V30 4522 N 772.685 0.822941 -0.249738 0
M  V30 4523 C 772.675 2.15179 -0.280525 0
M  V30 4524 N 772.555 2.96414 -1.30822 0
M  V30 4525 C 772.435 2.25804 -2.44748 0
M  V30 4526 H 769.457 4.79756 -7.24086 0
M  V30 4527 H 769.185 3.69963 -5.84682 0
M  V30 4528 H 770.053 6.10431 -5.41508 0
M  V30 4529 H 772.708 4.78816 -3.28024 0
M  V30 4530 H 772.988 3.64957 -6.05871 0
M  V30 4531 H 773.979 4.88748 -5.21323 0
M  V30 4532 H 772.145 5.66789 -7.0643 0
M  V30 4533 H 772.104 1.74684 -5.62396 0
M  V30 4534 H 772.485 -1.71949 -2.24394 0
M  V30 4535 H 772.674 -1.67511 -0.470742 0
M  V30 4536 H 772.782 2.63704 0.6828 0
M  V30 4537 P 774.015 7.20834 -5.23717 0
M  V30 4538 O 774.235 8.66104 -5.38572 0
M  V30 4539 O 774.805 6.33544 -6.1349 0
M  V30 4540 O 774.265 6.7751 -3.72168 0
M  V30 4541 C 773.325 7.20825 -2.7076 0
M  V30 4542 C 774.055 7.45864 -1.40599 0
M  V30 4543 O 774.265 6.17651 -0.734225 0
M  V30 4544 C 775.455 8.05808 -1.51899 0
M  V30 4545 O 775.845 8.74358 -0.335205 0
M  V30 4546 C 776.335 6.83093 -1.70294 0
M  V30 4547 C 775.625 5.79992 -0.836974 0
M  V30 4548 N 775.675 4.41864 -1.38293 0
M  V30 4549 H 772.836 8.13644 -3.0377 0
M  V30 4550 H 772.566 6.42788 -2.55485 0
M  V30 4551 H 773.433 8.12039 -0.792769 0
M  V30 4552 P 777.395 8.91 5.45772e-12 0
M  V30 4553 O 777.615 10.1726 0.733694 0
M  V30 4554 O 778.185 8.73148 -1.23936 0
M  V30 4555 O 777.645 7.66872 0.971405 0
M  V30 4556 C 776.705 7.42309 2.04641 0
M  V30 4557 C 777.435 6.86059 3.24661 0
M  V30 4558 O 777.645 5.42847 3.03646 0
M  V30 4559 C 778.835 7.41196 3.50753 0
M  V30 4560 O 779.225 7.27073 4.86816 0
M  V30 4561 C 779.715 6.5273 2.63741 0
M  V30 4562 C 779.005 5.1842 2.73198 0
M  V30 4563 N 779.055 4.38762 1.4784 0
M  V30 4564 H 776.216 8.36803 2.32493 0
M  V30 4565 H 775.946 6.70197 1.71129 0
M  V30 4566 H 776.813 7.03551 4.13168 0
M  V30 4567 P 780.775 7.20834 5.23717 0
M  V30 4568 O 780.995 7.79853 6.57286 0
M  V30 4569 O 781.565 7.79239 4.12957 0
M  V30 4570 O 781.025 5.63315 5.29344 0
M  V30 4571 C 780.085 4.80255 6.01876 0
M  V30 4572 C 780.815 3.64202 6.65911 0
M  V30 4573 O 781.025 2.60694 5.64732 0
M  V30 4574 C 782.215 3.93473 7.1943 0
M  V30 4575 O 782.605 3.02071 8.21205 0
M  V30 4576 C 783.095 3.73047 5.97036 0
M  V30 4577 C 782.385 2.58828 5.25741 0
M  V30 4578 N 782.435 2.68068 3.77503 0
M  V30 4579 H 779.596 5.40332 6.79951 0
M  V30 4580 H 779.326 4.41613 5.32378 0
M  V30 4581 H 780.193 3.26331 7.47797 0
M  V30 4582 P 784.155 2.75334 8.47391 0
M  V30 4583 O 784.375 2.44571 9.90142 0
M  V30 4584 O 784.945 3.87688 7.92115 0
M  V30 4585 O 784.405 1.4459 7.59357 0
M  V30 4586 C 783.465 0.347608 7.69215 0
M  V30 4587 C 784.195 -0.96767 7.52806 0
M  V30 4588 O 784.405 -1.21036 6.1011 0
M  V30 4589 C 785.595 -1.04544 8.13308 0
M  V30 4590 O 785.985 -2.38311 8.41922 0
M  V30 4591 C 786.475 -0.491279 7.02284 0
M  V30 4592 C 785.765 -0.996264 5.77469 0
M  V30 4593 N 785.815 -0.0501916 4.62973 0
M  V30 4594 H 782.976 0.374722 8.67691 0
M  V30 4595 H 782.706 0.443485 6.90277 0
M  V30 4596 H 783.573 -1.75537 7.96793 0
M  V30 4597 P 787.535 -2.75334 8.47391 0
M  V30 4598 O 787.755 -3.84128 9.44797 0
M  V30 4599 O 788.325 -1.51947 8.68712 0
M  V30 4600 O 787.785 -3.29363 6.99321 0
M  V30 4601 C 786.845 -4.24011 6.4274 0
M  V30 4602 C 787.575 -5.20775 5.52155 0
M  V30 4603 O 787.785 -4.56534 4.22446 0
M  V30 4604 C 788.975 -5.62629 5.96531 0
M  V30 4605 O 789.365 -6.87667 5.41053 0
M  V30 4606 C 789.855 -4.52537 5.39283 0
M  V30 4607 C 789.145 -4.20027 4.08623 0
M  V30 4608 N 789.195 -2.76189 3.71603 0
M  V30 4609 H 786.356 -4.797 7.24003 0
M  V30 4610 H 786.086 -3.69856 5.84513 0
M  V30 4611 H 786.953 -6.10356 5.41441 0
M  V30 4612 P 790.915 -7.20834 5.23717 0
M  V30 4613 O 791.135 -8.66189 5.38625 0
M  V30 4614 O 791.705 -6.33615 6.1356 0
M  V30 4615 O 791.165 -6.7751 3.72168 0
M  V30 4616 C 790.225 -7.20732 2.70725 0
M  V30 4617 C 790.955 -7.45864 1.40599 0
M  V30 4618 O 791.165 -6.17651 0.734225 0
M  V30 4619 C 792.355 -8.05808 1.51899 0
M  V30 4620 O 792.745 -8.74358 0.335205 0
M  V30 4621 C 793.235 -6.83093 1.70294 0
M  V30 4622 C 792.525 -5.79992 0.836974 0
M  V30 4623 N 792.575 -4.41769 1.38263 0
M  V30 4624 C 792.725 -3.38591 0.481702 0
M  V30 4625 O 792.815 -3.56839 -0.718452 0
M  V30 4626 N 792.765 -2.1206 1.03569 0
M  V30 4627 C 792.675 -1.80696 2.36966 0
M  V30 4628 O 792.725 -0.630473 2.74862 0
M  V30 4629 C 792.525 -2.94845 3.23898 0
M  V30 4630 C 792.415 -2.65253 4.70362 0
M  V30 4631 C 792.475 -4.19803 2.73435 0
M  V30 4632 H 789.735 -8.13644 3.0377 0
M  V30 4633 H 789.466 -6.42695 2.55448 0
M  V30 4634 H 790.333 -8.12039 0.792769 0
M  V30 4635 H 792.988 -5.79978 -0.160587 0
M  V30 4636 H 793.267 -6.51379 2.75643 0
M  V30 4637 H 794.259 -7.01734 1.34462 0
M  V30 4638 H 792.425 -8.73674 2.38337 0
M  V30 4639 H 792.354 -5.04492 3.4095 0
M  V30 4640 H 793.384 -2.83924 5.1913 0
M  V30 4641 H 791.647 -3.29824 5.15163 0
M  V30 4642 H 792.135 -1.59723 4.84449 0
M  V30 4643 H 792.871 -1.35644 0.399345 0
M  V30 4644 P 794.295 -8.91 -5.6149e-12 0
M  V30 4645 O 794.515 -10.1736 -0.733766 0
M  V30 4646 O 795.085 -8.73247 1.2395 0
M  V30 4647 O 794.545 -7.66872 -0.971405 0
M  V30 4648 C 793.605 -7.42212 -2.04614 0
M  V30 4649 C 794.335 -6.86059 -3.24661 0
M  V30 4650 O 794.545 -5.42847 -3.03646 0
M  V30 4651 C 795.735 -7.41196 -3.50753 0
M  V30 4652 O 796.125 -7.27073 -4.86816 0
M  V30 4653 C 796.615 -6.5273 -2.63741 0
M  V30 4654 C 795.905 -5.1842 -2.73198 0
M  V30 4655 N 795.955 -4.38668 -1.47808 0
M  V30 4656 C 796.105 -3.02239 -1.60048 0
M  V30 4657 O 796.195 -2.46459 -2.67869 0
M  V30 4658 N 796.145 -2.32436 -0.408571 0
M  V30 4659 C 796.055 -2.85471 0.854993 0
M  V30 4660 O 796.105 -2.12566 1.8531 0
M  V30 4661 C 795.905 -4.28918 0.887335 0
M  V30 4662 C 795.795 -4.91066 2.24619 0
M  V30 4663 C 795.855 -5.00349 -0.255399 0
M  V30 4664 H 793.115 -8.36803 -2.32493 0
M  V30 4665 H 792.846 -6.701 -1.71105 0
M  V30 4666 H 793.713 -7.03551 -4.13168 0
M  V30 4667 H 796.368 -4.59773 -3.53894 0
M  V30 4668 H 796.647 -6.88995 -1.59871 0
M  V30 4669 H 797.639 -6.46749 -3.03687 0
M  V30 4670 H 795.805 -8.46908 -3.20714 0
M  V30 4671 H 795.734 -6.08548 -0.206986 0
M  V30 4672 H 796.764 -5.34836 2.53099 0
M  V30 4673 H 795.027 -5.69638 2.2291 0
M  V30 4674 H 795.515 -4.13971 2.98044 0
M  V30 4675 H 796.251 -1.33211 -0.474216 0
M  V30 4676 P 797.675 -7.20834 -5.23717 0
M  V30 4677 O 797.895 -7.79853 -6.57286 0
M  V30 4678 O 798.465 -7.79239 -4.12957 0
M  V30 4679 O 797.925 -5.63315 -5.29344 0
M  V30 4680 C 796.985 -4.80255 -6.01876 0
M  V30 4681 C 797.715 -3.64202 -6.65911 0
M  V30 4682 O 797.925 -2.60694 -5.64732 0
M  V30 4683 C 799.115 -3.93473 -7.1943 0
M  V30 4684 O 799.505 -3.02071 -8.21205 0
M  V30 4685 C 799.995 -3.73047 -5.97036 0
M  V30 4686 C 799.285 -2.58828 -5.25741 0
M  V30 4687 N 799.335 -2.68068 -3.77503 0
M  V30 4688 H 796.496 -5.40332 -6.79951 0
M  V30 4689 H 796.226 -4.41613 -5.32378 0
M  V30 4690 H 797.093 -3.26331 -7.47797 0
M  V30 4691 P 801.055 -2.75334 -8.47391 0
M  V30 4692 O 801.275 -2.44571 -9.90142 0
M  V30 4693 O 801.845 -3.87688 -7.92115 0
M  V30 4694 O 801.305 -1.4459 -7.59357 0
M  V30 4695 C 800.365 -0.347608 -7.69215 0
M  V30 4696 C 801.095 0.96767 -7.52806 0
M  V30 4697 O 801.305 1.21036 -6.1011 0
M  V30 4698 C 802.495 1.04544 -8.13308 0
M  V30 4699 O 802.885 2.38311 -8.41922 0
M  V30 4700 C 803.375 0.491279 -7.02284 0
M  V30 4701 C 802.665 0.996264 -5.77469 0
M  V30 4702 N 802.715 0.0501916 -4.62973 0
M  V30 4703 H 799.876 -0.374722 -8.67691 0
M  V30 4704 H 799.606 -0.443485 -6.90277 0
M  V30 4705 H 800.473 1.75537 -7.96793 0
M  V30 4706 P 804.435 2.75334 -8.47391 0
M  V30 4707 O 804.655 3.84204 -9.44982 0
M  V30 4708 O 805.225 1.51982 -8.68909 0
M  V30 4709 O 804.685 3.29363 -6.99321 0
M  V30 4710 C 803.745 4.24066 -6.42823 0
M  V30 4711 C 804.475 5.20775 -5.52155 0
M  V30 4712 O 804.685 4.56607 -4.22514 0
M  V30 4713 C 805.875 5.62697 -5.96604 0
M  V30 4714 O 806.265 6.87667 -5.41053 0
M  V30 4715 C 806.755 4.52537 -5.39283 0
M  V30 4716 C 806.045 4.20027 -4.08623 0
M  V30 4717 N 806.095 2.76189 -3.71603 0
M  V30 4718 C 806.015 1.66944 -4.54297 0
M  V30 4719 N 806.085 0.536169 -3.91344 0
M  V30 4720 C 806.235 0.901569 -2.58849 0
M  V30 4721 C 806.365 0.146599 -1.40236 0
M  V30 4722 N 806.375 -1.18234 -1.37046 0
M  V30 4723 N 806.485 0.822941 -0.249738 0
M  V30 4724 C 806.475 2.15179 -0.280525 0
M  V30 4725 N 806.355 2.96414 -1.30822 0
M  V30 4726 C 806.235 2.25804 -2.44748 0
M  V30 4727 H 803.257 4.79756 -7.24086 0
M  V30 4728 H 802.985 3.69963 -5.84682 0
M  V30 4729 H 803.853 6.10431 -5.41508 0
M  V30 4730 H 806.508 4.78816 -3.28024 0
M  V30 4731 H 806.788 3.64957 -6.05871 0
M  V30 4732 H 807.779 4.88748 -5.21323 0
M  V30 4733 H 805.945 5.66789 -7.0643 0
M  V30 4734 H 805.904 1.74684 -5.62396 0
M  V30 4735 H 806.285 -1.71949 -2.24394 0
M  V30 4736 H 806.474 -1.67511 -0.470742 0
M  V30 4737 H 806.582 2.63704 0.6828 0
M  V30 4738 P 807.815 7.20834 -5.23717 0
M  V30 4739 O 808.035 8.66104 -5.38572 0
M  V30 4740 O 808.605 6.33544 -6.1349 0
M  V30 4741 O 808.065 6.7751 -3.72168 0
M  V30 4742 C 807.125 7.20825 -2.7076 0
M  V30 4743 C 807.855 7.45864 -1.40599 0
M  V30 4744 O 808.065 6.17651 -0.734225 0
M  V30 4745 C 809.255 8.05808 -1.51899 0
M  V30 4746 O 809.645 8.74358 -0.335205 0
M  V30 4747 C 810.135 6.83093 -1.70294 0
M  V30 4748 C 809.425 5.79992 -0.836974 0
M  V30 4749 N 809.475 4.41864 -1.38293 0
M  V30 4750 H 806.636 8.13644 -3.0377 0
M  V30 4751 H 806.366 6.42788 -2.55485 0
M  V30 4752 H 807.233 8.12039 -0.792769 0
M  V30 4753 P 811.195 8.91 5.77209e-12 0
M  V30 4754 O 811.415 10.1746 0.733838 0
M  V30 4755 O 811.985 8.73346 -1.23964 0
M  V30 4756 O 811.445 7.66872 0.971405 0
M  V30 4757 C 810.505 7.42405 2.04668 0
M  V30 4758 C 811.235 6.86059 3.24661 0
M  V30 4759 O 811.445 5.42934 3.03695 0
M  V30 4760 C 812.635 7.41287 3.50796 0
M  V30 4761 O 813.025 7.27073 4.86816 0
M  V30 4762 C 813.515 6.5273 2.63741 0
M  V30 4763 C 812.805 5.1842 2.73198 0
M  V30 4764 N 812.855 4.38762 1.4784 0
M  V30 4765 H 810.017 8.36899 2.3252 0
M  V30 4766 H 809.745 6.70391 1.71179 0
M  V30 4767 H 810.613 7.03638 4.13219 0
M  V30 4768 H 813.268 4.59931 3.54016 0
M  V30 4769 H 813.548 6.88995 1.59871 0
M  V30 4770 H 814.539 6.4684 3.0373 0
M  V30 4771 H 812.705 8.47002 3.20749 0
M  V30 4772 P 814.575 7.20834 5.23717 0
M  V30 4773 O 814.795 7.79853 6.57286 0
M  V30 4774 O 815.365 7.79239 4.12957 0
M  V30 4775 O 814.825 5.63315 5.29344 0
M  V30 4776 C 813.885 4.80255 6.01876 0
M  V30 4777 C 814.615 3.64202 6.65911 0
M  V30 4778 O 814.825 2.60694 5.64732 0
M  V30 4779 C 816.015 3.93473 7.1943 0
M  V30 4780 O 816.405 3.02071 8.21205 0
M  V30 4781 C 816.895 3.73047 5.97036 0
M  V30 4782 C 816.185 2.58828 5.25741 0
M  V30 4783 N 816.235 2.68068 3.77503 0
M  V30 4784 H 813.396 5.40332 6.79951 0
M  V30 4785 H 813.126 4.41613 5.32378 0
M  V30 4786 H 813.993 3.26331 7.47797 0
M  V30 4787 P 817.955 2.75334 8.47391 0
M  V30 4788 O 818.175 2.44571 9.90142 0
M  V30 4789 O 818.745 3.87688 7.92115 0
M  V30 4790 O 818.205 1.4459 7.59357 0
M  V30 4791 C 817.265 0.347608 7.69215 0
M  V30 4792 C 817.995 -0.96767 7.52806 0
M  V30 4793 O 818.205 -1.21036 6.1011 0
M  V30 4794 C 819.395 -1.04544 8.13308 0
M  V30 4795 O 819.785 -2.38311 8.41922 0
M  V30 4796 C 820.275 -0.491279 7.02284 0
M  V30 4797 C 819.565 -0.996264 5.77469 0
M  V30 4798 N 819.615 -0.0501916 4.62973 0
M  V30 4799 C 819.535 1.32786 4.63244 0
M  V30 4800 N 819.615 1.86957 3.44545 0
M  V30 4801 C 819.755 0.780241 2.58481 0
M  V30 4802 C 819.885 0.738536 1.17757 0
M  V30 4803 N 820.005 -0.58337 0.711393 0
M  V30 4804 C 820.005 -1.70816 1.51017 0
M  V30 4805 N 820.135 -2.87826 0.880757 0
M  V30 4806 N 819.875 -1.67126 2.8339 0
M  V30 4807 C 819.755 -0.401421 3.30572 0
M  V30 4808 H 816.776 0.374722 8.67691 0
M  V30 4809 H 816.506 0.443485 6.90277 0
M  V30 4810 H 817.373 -1.75537 7.96793 0
M  V30 4811 P 821.335 -2.75334 8.47391 0
M  V30 4812 O 821.555 -3.84128 9.44797 0
M  V30 4813 O 822.125 -1.51947 8.68712 0
M  V30 4814 O 821.585 -3.29363 6.99321 0
M  V30 4815 C 820.645 -4.24011 6.4274 0
M  V30 4816 C 821.375 -5.20775 5.52155 0
M  V30 4817 O 821.585 -4.56534 4.22446 0
M  V30 4818 C 822.775 -5.62629 5.96531 0
M  V30 4819 O 823.165 -6.87667 5.41053 0
M  V30 4820 C 823.655 -4.52537 5.39283 0
M  V30 4821 C 822.945 -4.20027 4.08623 0
M  V30 4822 N 822.995 -2.76189 3.71603 0
M  V30 4823 H 820.156 -4.797 7.24003 0
M  V30 4824 H 819.886 -3.69856 5.84513 0
M  V30 4825 H 820.753 -6.10356 5.41441 0
M  V30 4826 P 824.715 -7.20834 5.23717 0
M  V30 4827 O 824.935 -8.66189 5.38625 0
M  V30 4828 O 825.505 -6.33615 6.1356 0
M  V30 4829 O 824.965 -6.7751 3.72168 0
M  V30 4830 C 824.025 -7.20732 2.70725 0
M  V30 4831 C 824.755 -7.45864 1.40599 0
M  V30 4832 O 824.965 -6.17651 0.734225 0
M  V30 4833 C 826.155 -8.05808 1.51899 0
M  V30 4834 O 826.545 -8.74358 0.335205 0
M  V30 4835 C 827.035 -6.83093 1.70294 0
M  V30 4836 C 826.325 -5.79992 0.836974 0
M  V30 4837 N 826.375 -4.41769 1.38263 0
M  V30 4838 C 826.525 -3.38591 0.481702 0
M  V30 4839 O 826.615 -3.56839 -0.718452 0
M  V30 4840 N 826.565 -2.1206 1.03569 0
M  V30 4841 C 826.475 -1.80696 2.36966 0
M  V30 4842 O 826.525 -0.630473 2.74862 0
M  V30 4843 C 826.325 -2.94845 3.23898 0
M  V30 4844 C 826.215 -2.65253 4.70362 0
M  V30 4845 C 826.275 -4.19803 2.73435 0
M  V30 4846 H 823.535 -8.13644 3.0377 0
M  V30 4847 H 823.266 -6.42695 2.55448 0
M  V30 4848 H 824.133 -8.12039 0.792769 0
M  V30 4849 H 826.788 -5.79978 -0.160587 0
M  V30 4850 H 827.067 -6.51379 2.75643 0
M  V30 4851 H 828.059 -7.01734 1.34462 0
M  V30 4852 H 826.225 -8.73674 2.38337 0
M  V30 4853 H 826.154 -5.04492 3.4095 0
M  V30 4854 H 827.184 -2.83924 5.1913 0
M  V30 4855 H 825.447 -3.29824 5.15163 0
M  V30 4856 H 825.935 -1.59723 4.84449 0
M  V30 4857 H 826.671 -1.35644 0.399345 0
M  V30 4858 P 828.095 -8.91 -5.92927e-12 0
M  V30 4859 O 828.315 -10.1726 -0.733694 0
M  V30 4860 O 828.885 -8.73148 1.23936 0
M  V30 4861 O 828.345 -7.66872 -0.971405 0
M  V30 4862 C 827.405 -7.42309 -2.04641 0
M  V30 4863 C 828.135 -6.86059 -3.24661 0
M  V30 4864 O 828.345 -5.42847 -3.03646 0
M  V30 4865 C 829.535 -7.41196 -3.50753 0
M  V30 4866 O 829.925 -7.27073 -4.86816 0
M  V30 4867 C 830.415 -6.5273 -2.63741 0
M  V30 4868 C 829.705 -5.1842 -2.73198 0
M  V30 4869 N 829.755 -4.38762 -1.4784 0
M  V30 4870 H 826.916 -8.36803 -2.32493 0
M  V30 4871 H 826.646 -6.70197 -1.71129 0
M  V30 4872 H 827.513 -7.03551 -4.13168 0
M  V30 4873 P 831.475 -7.20834 -5.23717 0
M  V30 4874 O 831.695 -7.79853 -6.57286 0
M  V30 4875 O 832.265 -7.79239 -4.12957 0
M  V30 4876 O 831.725 -5.63315 -5.29344 0
M  V30 4877 C 830.785 -4.80255 -6.01876 0
M  V30 4878 C 831.515 -3.64202 -6.65911 0
M  V30 4879 O 831.725 -2.60694 -5.64732 0
M  V30 4880 C 832.915 -3.93473 -7.1943 0
M  V30 4881 O 833.305 -3.02071 -8.21205 0
M  V30 4882 C 833.795 -3.73047 -5.97036 0
M  V30 4883 C 833.085 -2.58828 -5.25741 0
M  V30 4884 N 833.135 -2.68068 -3.77503 0
M  V30 4885 H 830.296 -5.40332 -6.79951 0
M  V30 4886 H 830.026 -4.41613 -5.32378 0
M  V30 4887 H 830.893 -3.26331 -7.47797 0
M  V30 4888 P 834.855 -2.75334 -8.47391 0
M  V30 4889 O 835.075 -2.44595 -9.90239 0
M  V30 4890 O 835.645 -3.87732 -7.92204 0
M  V30 4891 O 835.105 -1.4459 -7.59357 0
M  V30 4892 C 834.165 -0.347563 -7.69115 0
M  V30 4893 C 834.895 0.96767 -7.52806 0
M  V30 4894 O 835.105 1.21036 -6.1011 0
M  V30 4895 C 836.295 1.04544 -8.13308 0
M  V30 4896 O 836.685 2.38311 -8.41922 0
M  V30 4897 C 837.175 0.491279 -7.02284 0
M  V30 4898 C 836.465 0.996264 -5.77469 0
M  V30 4899 N 836.515 0.0501808 -4.62873 0
M  V30 4900 C 836.665 0.588177 -3.36904 0
M  V30 4901 O 836.755 1.78598 -3.17173 0
M  V30 4902 N 836.705 -0.329694 -2.33686 0
M  V30 4903 C 836.615 -1.6953 -2.45079 0
M  V30 4904 C 836.465 -2.16933 -3.80505 0
M  V30 4905 C 836.415 -1.30326 -4.83752 0
M  V30 4906 H 833.675 -0.374722 -8.67691 0
M  V30 4907 H 833.406 -0.443421 -6.90177 0
M  V30 4908 H 834.273 1.75537 -7.96793 0
M  V30 4909 H 836.928 1.94496 -5.46629 0
M  V30 4910 H 837.207 -0.608651 -7.04676 0
M  V30 4911 H 838.199 0.889672 -7.08939 0
M  V30 4912 H 836.365 0.43308 -9.04564 0
M  V30 4913 H 836.294 -1.68366 -5.8516 0
M  V30 4914 P 838.235 2.75334 -8.47391 0
M  V30 4915 O 838.455 3.84128 -9.44797 0
M  V30 4916 O 839.025 1.51947 -8.68712 0
M  V30 4917 O 838.485 3.29363 -6.99321 0
M  V30 4918 C 837.545 4.24011 -6.4274 0
M  V30 4919 C 838.275 5.20775 -5.52155 0
M  V30 4920 O 838.485 4.56534 -4.22446 0
M  V30 4921 C 839.675 5.62629 -5.96531 0
M  V30 4922 O 840.065 6.87667 -5.41053 0
M  V30 4923 C 840.555 4.52537 -5.39283 0
M  V30 4924 C 839.845 4.20027 -4.08623 0
M  V30 4925 N 839.895 2.76189 -3.71603 0
M  V30 4926 H 837.056 4.797 -7.24003 0
M  V30 4927 H 836.786 3.69856 -5.84513 0
M  V30 4928 H 837.653 6.10356 -5.41441 0
M  V30 4929 P 841.615 7.20834 -5.23717 0
M  V30 4930 O 841.835 8.66189 -5.38625 0
M  V30 4931 O 842.405 6.33615 -6.1356 0
M  V30 4932 O 841.865 6.7751 -3.72168 0
M  V30 4933 C 840.925 7.20732 -2.70725 0
M  V30 4934 C 841.655 7.45864 -1.40599 0
M  V30 4935 O 841.865 6.17651 -0.734225 0
M  V30 4936 C 843.055 8.05808 -1.51899 0
M  V30 4937 O 843.445 8.74358 -0.335205 0
M  V30 4938 C 843.935 6.83093 -1.70294 0
M  V30 4939 C 843.225 5.79992 -0.836974 0
M  V30 4940 N 843.275 4.41769 -1.38263 0
M  V30 4941 C 843.425 3.38591 -0.481702 0
M  V30 4942 O 843.515 3.56839 0.718452 0
M  V30 4943 N 843.465 2.1206 -1.03569 0
M  V30 4944 C 843.375 1.80696 -2.36966 0
M  V30 4945 O 843.425 0.630473 -2.74862 0
M  V30 4946 C 843.225 2.94845 -3.23898 0
M  V30 4947 C 843.115 2.65253 -4.70362 0
M  V30 4948 C 843.175 4.19803 -2.73435 0
M  V30 4949 H 840.435 8.13644 -3.0377 0
M  V30 4950 H 840.166 6.42695 -2.55448 0
M  V30 4951 H 841.033 8.12039 -0.792769 0
M  V30 4952 H 843.688 5.79978 0.160587 0
M  V30 4953 H 843.967 6.51379 -2.75643 0
M  V30 4954 H 844.959 7.01734 -1.34462 0
M  V30 4955 H 843.125 8.73674 -2.38337 0
M  V30 4956 H 843.054 5.04492 -3.4095 0
M  V30 4957 H 844.084 2.83924 -5.1913 0
M  V30 4958 H 842.347 3.29824 -5.15163 0
M  V30 4959 H 842.835 1.59723 -4.84449 0
M  V30 4960 H 843.571 1.35644 -0.399345 0
M  V30 4961 P 844.995 8.91 6.08645e-12 0
M  V30 4962 O 845.215 10.1726 0.733694 0
M  V30 4963 O 845.785 8.73148 -1.23936 0
M  V30 4964 O 845.245 7.66872 0.971405 0
M  V30 4965 C 844.305 7.42309 2.04641 0
M  V30 4966 C 845.035 6.86059 3.24661 0
M  V30 4967 O 845.245 5.42847 3.03646 0
M  V30 4968 C 846.435 7.41196 3.50753 0
M  V30 4969 O 846.825 7.27073 4.86816 0
M  V30 4970 C 847.315 6.5273 2.63741 0
M  V30 4971 C 846.605 5.1842 2.73198 0
M  V30 4972 N 846.655 4.38762 1.4784 0
M  V30 4973 H 843.816 8.36803 2.32493 0
M  V30 4974 H 843.546 6.70197 1.71129 0
M  V30 4975 H 844.413 7.03551 4.13168 0
M  V30 4976 P 848.375 7.20834 5.23717 0
M  V30 4977 O 848.595 7.79853 6.57286 0
M  V30 4978 O 849.165 7.79239 4.12957 0
M  V30 4979 O 848.625 5.63315 5.29344 0
M  V30 4980 C 847.685 4.80255 6.01876 0
M  V30 4981 C 848.415 3.64202 6.65911 0
M  V30 4982 O 848.625 2.60694 5.64732 0
M  V30 4983 C 849.815 3.93473 7.1943 0
M  V30 4984 O 850.205 3.02071 8.21205 0
M  V30 4985 C 850.695 3.73047 5.97036 0
M  V30 4986 C 849.985 2.58828 5.25741 0
M  V30 4987 N 850.035 2.68068 3.77503 0
M  V30 4988 H 847.196 5.40332 6.79951 0
M  V30 4989 H 846.926 4.41613 5.32378 0
M  V30 4990 H 847.793 3.26331 7.47797 0
M  V30 4991 P 851.755 2.75334 8.47391 0
M  V30 4992 O 851.975 2.44619 9.90336 0
M  V30 4993 O 852.545 3.87776 7.92294 0
M  V30 4994 O 852.005 1.4459 7.59357 0
M  V30 4995 C 851.065 0.347653 7.69315 0
M  V30 4996 C 851.795 -0.96767 7.52806 0
M  V30 4997 O 852.005 -1.21055 6.10208 0
M  V30 4998 C 853.195 -1.04557 8.13408 0
M  V30 4999 O 853.585 -2.38311 8.41922 0
M  V30 5000 C 854.075 -0.491279 7.02284 0
M  V30 5001 C 853.365 -0.996264 5.77469 0
M  V30 5002 N 853.415 -0.0501916 4.62973 0
M  V30 5003 H 850.577 0.374765 8.67791 0
M  V30 5004 H 850.305 0.443613 6.90476 0
M  V30 5005 H 851.173 -1.75559 7.96891 0
M  V30 5006 H 853.828 -1.94563 5.46818 0
M  V30 5007 H 854.108 0.608651 7.04676 0
M  V30 5008 H 855.099 -0.889796 7.09039 0
M  V30 5009 H 853.265 -0.433128 9.04664 0
M  V30 5010 P 855.135 -2.75334 8.47391 0
M  V30 5011 O 855.355 -3.84128 9.44797 0
M  V30 5012 O 855.925 -1.51947 8.68712 0
M  V30 5013 O 855.385 -3.29363 6.99321 0
M  V30 5014 C 854.445 -4.24011 6.4274 0
M  V30 5015 C 855.175 -5.20775 5.52155 0
M  V30 5016 O 855.385 -4.56534 4.22446 0
M  V30 5017 C 856.575 -5.62629 5.96531 0
M  V30 5018 O 856.965 -6.87667 5.41053 0
M  V30 5019 C 857.455 -4.52537 5.39283 0
M  V30 5020 C 856.745 -4.20027 4.08623 0
M  V30 5021 N 856.795 -2.76189 3.71603 0
M  V30 5022 C 856.715 -1.64862 4.52822 0
M  V30 5023 N 856.795 -0.512671 3.88633 0
M  V30 5024 C 856.935 -0.888083 2.54977 0
M  V30 5025 C 857.065 -0.094668 1.38677 0
M  V30 5026 N 857.185 -0.890102 0.232633 0
M  V30 5027 C 857.185 -2.26958 0.21772 0
M  V30 5028 N 857.315 -2.84626 -0.97925 0
M  V30 5029 N 857.055 -3.0178 1.31033 0
M  V30 5030 C 856.935 -2.26781 2.43843 0
M  V30 5031 H 853.956 -4.797 7.24003 0
M  V30 5032 H 853.686 -3.69856 5.84513 0
M  V30 5033 H 854.553 -6.10356 5.41441 0
M  V30 5034 P 858.515 -7.20834 5.23717 0
M  V30 5035 O 858.735 -8.66274 5.38678 0
M  V30 5036 O 859.305 -6.33687 6.13629 0
M  V30 5037 O 858.765 -6.7751 3.72168 0
M  V30 5038 C 857.825 -7.20919 2.70795 0
M  V30 5039 C 858.555 -7.45864 1.40599 0
M  V30 5040 O 858.765 -6.17751 0.734343 0
M  V30 5041 C 859.955 -8.05906 1.51917 0
M  V30 5042 O 860.345 -8.74358 0.335205 0
M  V30 5043 C 860.835 -6.83093 1.70294 0
M  V30 5044 C 860.125 -5.79992 0.836974 0
M  V30 5045 N 860.175 -4.41864 1.38293 0
M  V30 5046 H 857.337 -8.13738 3.03804 0
M  V30 5047 H 857.065 -6.42974 2.55559 0
M  V30 5048 H 857.933 -8.12139 0.792866 0
M  V30 5049 H 860.588 -5.80178 -0.160643 0
M  V30 5050 H 860.868 -6.51379 2.75643 0
M  V30 5051 H 861.859 -7.01832 1.3448 0
M  V30 5052 H 860.025 -8.73771 2.38364 0
M  V30 5053 P 861.895 -8.91 -6.24363e-12 0
M  V30 5054 O 862.115 -10.1726 -0.733694 0
M  V30 5055 O 862.685 -8.73148 1.23936 0
M  V30 5056 O 862.145 -7.66872 -0.971405 0
M  V30 5057 C 861.205 -7.42309 -2.04641 0
M  V30 5058 C 861.935 -6.86059 -3.24661 0
M  V30 5059 O 862.145 -5.42847 -3.03646 0
M  V30 5060 C 863.335 -7.41196 -3.50753 0
M  V30 5061 O 863.725 -7.27073 -4.86816 0
M  V30 5062 C 864.215 -6.5273 -2.63741 0
M  V30 5063 C 863.505 -5.1842 -2.73198 0
M  V30 5064 N 863.555 -4.38762 -1.4784 0
M  V30 5065 H 860.716 -8.36803 -2.32493 0
M  V30 5066 H 860.446 -6.70197 -1.71129 0
M  V30 5067 H 861.313 -7.03551 -4.13168 0
M  V30 5068 P 865.275 -7.20834 -5.23717 0
M  V30 5069 O 865.495 -7.79853 -6.57286 0
M  V30 5070 O 866.065 -7.79239 -4.12957 0
M  V30 5071 O 865.525 -5.63315 -5.29344 0
M  V30 5072 C 864.585 -4.80255 -6.01876 0
M  V30 5073 C 865.315 -3.64202 -6.65911 0
M  V30 5074 O 865.525 -2.60694 -5.64732 0
M  V30 5075 C 866.715 -3.93473 -7.1943 0
M  V30 5076 O 867.105 -3.02071 -8.21205 0
M  V30 5077 C 867.595 -3.73047 -5.97036 0
M  V30 5078 C 866.885 -2.58828 -5.25741 0
M  V30 5079 N 866.935 -2.68068 -3.77503 0
M  V30 5080 H 864.096 -5.40332 -6.79951 0
M  V30 5081 H 863.826 -4.41613 -5.32378 0
M  V30 5082 H 864.693 -3.26331 -7.47797 0
M  V30 5083 P 868.655 -2.75334 -8.47391 0
M  V30 5084 O 868.875 -2.44571 -9.90142 0
M  V30 5085 O 869.445 -3.87688 -7.92115 0
M  V30 5086 O 868.905 -1.4459 -7.59357 0
M  V30 5087 C 867.965 -0.347608 -7.69215 0
M  V30 5088 C 868.695 0.96767 -7.52806 0
M  V30 5089 O 868.905 1.21036 -6.1011 0
M  V30 5090 C 870.095 1.04544 -8.13308 0
M  V30 5091 O 870.485 2.38311 -8.41922 0
M  V30 5092 C 870.975 0.491279 -7.02284 0
M  V30 5093 C 870.265 0.996264 -5.77469 0
M  V30 5094 N 870.315 0.0501916 -4.62973 0
M  V30 5095 H 867.476 -0.374722 -8.67691 0
M  V30 5096 H 867.206 -0.443485 -6.90277 0
M  V30 5097 H 868.073 1.75537 -7.96793 0
M  V30 5098 P 872.035 2.75334 -8.47391 0
M  V30 5099 O 872.255 3.84128 -9.44797 0
M  V30 5100 O 872.825 1.51947 -8.68712 0
M  V30 5101 O 872.285 3.29363 -6.99321 0
M  V30 5102 C 871.345 4.24011 -6.4274 0
M  V30 5103 C 872.075 5.20775 -5.52155 0
M  V30 5104 O 872.285 4.56534 -4.22446 0
M  V30 5105 C 873.475 5.62629 -5.96531 0
M  V30 5106 O 873.865 6.87667 -5.41053 0
M  V30 5107 C 874.355 4.52537 -5.39283 0
M  V30 5108 C 873.645 4.20027 -4.08623 0
M  V30 5109 N 873.695 2.76189 -3.71603 0
M  V30 5110 H 870.856 4.797 -7.24003 0
M  V30 5111 H 870.586 3.69856 -5.84513 0
M  V30 5112 H 871.453 6.10356 -5.41441 0
M  V30 5113 P 875.415 7.20834 -5.23717 0
M  V30 5114 O 875.635 8.66104 -5.38572 0
M  V30 5115 O 876.205 6.33544 -6.1349 0
M  V30 5116 O 875.665 6.7751 -3.72168 0
M  V30 5117 C 874.725 7.20825 -2.7076 0
M  V30 5118 C 875.455 7.45864 -1.40599 0
M  V30 5119 O 875.665 6.17651 -0.734225 0
M  V30 5120 C 876.855 8.05808 -1.51899 0
M  V30 5121 O 877.245 8.74358 -0.335205 0
M  V30 5122 C 877.735 6.83093 -1.70294 0
M  V30 5123 C 877.025 5.79992 -0.836974 0
M  V30 5124 N 877.075 4.41864 -1.38293 0
M  V30 5125 C 876.995 3.99538 -2.69438 0
M  V30 5126 N 877.075 2.69909 -2.84277 0
M  V30 5127 C 877.215 2.21719 -1.5408 0
M  V30 5128 C 877.345 0.891712 -1.06628 0
M  V30 5129 O 877.365 -0.161298 -1.70137 0
M  V30 5130 N 877.465 0.856846 0.334985 0
M  V30 5131 C 877.465 1.9641 1.15789 0
M  V30 5132 N 877.595 1.72708 2.46522 0
M  V30 5133 N 877.335 3.21165 0.713741 0
M  V30 5134 C 877.215 3.26797 -0.639748 0
M  V30 5135 H 874.236 8.13644 -3.0377 0
M  V30 5136 H 873.966 6.42788 -2.55485 0
M  V30 5137 H 874.833 8.12039 -0.792769 0
M  V30 5138 H 877.488 5.80061 0.166416 0
M  V30 5139 H 877.767 6.51287 -2.75604 0
M  V30 5140 H 878.759 7.01734 -1.34462 0
M  V30 5141 H 876.925 8.73674 -2.38337 0
M  V30 5142 H 876.876 4.68207 -3.53221 0
M  V30 5143 H 877.558 -0.0398818 0.767965 0
M  V30 5144 H 877.595 2.50995 3.13503 0
M  V30 5145 H 877.696 0.759148 2.80716 0
M  V30 5146 P 878.795 8.91 6.40081e-12 0
M  V30 5147 O 879.015 10.1726 0.733694 0
M  V30 5148 O 879.585 8.73148 -1.23936 0
M  V30 5149 O 879.045 7.66872 0.971405 0
M  V30 5150 C 878.105 7.42309 2.04641 0
M  V30 5151 C 878.835 6.86059 3.24661 0
M  V30 5152 O 879.045 5.42847 3.03646 0
M  V30 5153 C 880.235 7.41196 3.50753 0
M  V30 5154 O 880.625 7.27073 4.86816 0
M  V30 5155 C 881.115 6.5273 2.63741 0
M  V30 5156 C 880.405 5.1842 2.73198 0
M  V30 5157 N 880.455 4.38762 1.4784 0
M  V30 5158 H 877.616 8.36803 2.32493 0
M  V30 5159 H 877.346 6.70197 1.71129 0
M  V30 5160 H 878.213 7.03551 4.13168 0
M  V30 5161 P 882.175 7.20834 5.23717 0
M  V30 5162 O 882.395 7.79853 6.57286 0
M  V30 5163 O 882.965 7.79239 4.12957 0
M  V30 5164 O 882.425 5.63315 5.29344 0
M  V30 5165 C 881.485 4.80255 6.01876 0
M  V30 5166 C 882.215 3.64202 6.65911 0
M  V30 5167 O 882.425 2.60694 5.64732 0
M  V30 5168 C 883.615 3.93473 7.1943 0
M  V30 5169 O 884.005 3.02071 8.21205 0
M  V30 5170 C 884.495 3.73047 5.97036 0
M  V30 5171 C 883.785 2.58828 5.25741 0
M  V30 5172 N 883.835 2.68068 3.77503 0
M  V30 5173 H 880.996 5.40332 6.79951 0
M  V30 5174 H 880.726 4.41613 5.32378 0
M  V30 5175 H 881.593 3.26331 7.47797 0
M  V30 5176 P 885.555 2.75334 8.47391 0
M  V30 5177 O 885.775 2.44619 9.90336 0
M  V30 5178 O 886.345 3.87776 7.92294 0
M  V30 5179 O 885.805 1.4459 7.59357 0
M  V30 5180 C 884.865 0.347653 7.69315 0
M  V30 5181 C 885.595 -0.96767 7.52806 0
M  V30 5182 O 885.805 -1.21055 6.10208 0
M  V30 5183 C 886.995 -1.04557 8.13408 0
M  V30 5184 O 887.385 -2.38311 8.41922 0
M  V30 5185 C 887.875 -0.491279 7.02284 0
M  V30 5186 C 887.165 -0.996264 5.77469 0
M  V30 5187 N 887.215 -0.0501916 4.62973 0
M  V30 5188 C 887.135 1.31969 4.65661 0
M  V30 5189 N 887.205 1.86649 3.48119 0
M  V30 5190 C 887.355 0.792089 2.62406 0
M  V30 5191 C 887.485 0.705684 1.2207 0
M  V30 5192 N 887.495 1.76207 0.413762 0
M  V30 5193 N 887.605 -0.518981 0.685754 0
M  V30 5194 C 887.595 -1.57595 1.49174 0
M  V30 5195 N 887.475 -1.62909 2.80066 0
M  V30 5196 C 887.355 -0.388195 3.3073 0
M  V30 5197 H 884.377 0.374765 8.67791 0
M  V30 5198 H 884.105 0.443613 6.90476 0
M  V30 5199 H 884.973 -1.75559 7.96891 0
M  V30 5200 H 887.628 -1.94563 5.46818 0
M  V30 5201 H 887.908 0.608651 7.04676 0
M  V30 5202 H 888.899 -0.889796 7.09039 0
M  V30 5203 H 887.065 -0.433128 9.04664 0
M  V30 5204 H 887.024 1.89246 5.57664 0
M  V30 5205 H 887.405 2.71005 0.804694 0
M  V30 5206 H 887.594 1.63189 -0.603768 0
M  V30 5207 H 887.702 -2.53475 0.997614 0
M  V30 5208 P 888.935 -2.75334 8.47391 0
M  V30 5209 O 889.155 -3.84204 9.44982 0
M  V30 5210 O 889.725 -1.51982 8.68909 0
M  V30 5211 O 889.185 -3.29363 6.99321 0
M  V30 5212 C 888.245 -4.24066 6.42823 0
M  V30 5213 C 888.975 -5.20775 5.52155 0
M  V30 5214 O 889.185 -4.56607 4.22514 0
M  V30 5215 C 890.375 -5.62697 5.96604 0
M  V30 5216 O 890.765 -6.87667 5.41053 0
M  V30 5217 C 891.255 -4.52537 5.39283 0
M  V30 5218 C 890.545 -4.20027 4.08623 0
M  V30 5219 N 890.595 -2.76189 3.71603 0
M  V30 5220 C 890.515 -1.66944 4.54297 0
M  V30 5221 N 890.585 -0.536169 3.91344 0
M  V30 5222 C 890.735 -0.901569 2.58849 0
M  V30 5223 C 890.865 -0.146599 1.40236 0
M  V30 5224 N 890.875 1.18234 1.37046 0
M  V30 5225 N 890.985 -0.822941 0.249738 0
M  V30 5226 C 890.975 -2.15179 0.280525 0
M  V30 5227 N 890.855 -2.96414 1.30822 0
M  V30 5228 C 890.735 -2.25804 2.44748 0
M  V30 5229 H 887.757 -4.79756 7.24086 0
M  V30 5230 H 887.485 -3.69963 5.84682 0
M  V30 5231 H 888.353 -6.10431 5.41508 0
M  V30 5232 H 891.008 -4.78816 3.28024 0
M  V30 5233 H 891.288 -3.64957 6.05871 0
M  V30 5234 H 892.279 -4.88748 5.21323 0
M  V30 5235 H 890.445 -5.66789 7.0643 0
M  V30 5236 H 890.404 -1.74684 5.62396 0
M  V30 5237 H 890.785 1.71949 2.24394 0
M  V30 5238 H 890.974 1.67511 0.470742 0
M  V30 5239 H 891.082 -2.63704 -0.6828 0
M  V30 5240 P 892.315 -7.20834 5.23717 0
M  V30 5241 O 892.535 -8.66104 5.38572 0
M  V30 5242 O 893.105 -6.33544 6.1349 0
M  V30 5243 O 892.565 -6.7751 3.72168 0
M  V30 5244 C 891.625 -7.20825 2.7076 0
M  V30 5245 C 892.355 -7.45864 1.40599 0
M  V30 5246 O 892.565 -6.17651 0.734225 0
M  V30 5247 C 893.755 -8.05808 1.51899 0
M  V30 5248 O 894.145 -8.74358 0.335205 0
M  V30 5249 C 894.635 -6.83093 1.70294 0
M  V30 5250 C 893.925 -5.79992 0.836974 0
M  V30 5251 N 893.975 -4.41864 1.38293 0
M  V30 5252 H 891.136 -8.13644 3.0377 0
M  V30 5253 H 890.866 -6.42788 2.55485 0
M  V30 5254 H 891.733 -8.12039 0.792769 0
M  V30 5255 P 895.695 -8.91 -6.558e-12 0
M  V30 5256 O 895.915 -10.1726 -0.733694 0
M  V30 5257 O 896.485 -8.73148 1.23936 0
M  V30 5258 O 895.945 -7.66872 -0.971405 0
M  V30 5259 C 895.005 -7.42309 -2.04641 0
M  V30 5260 C 895.735 -6.86059 -3.24661 0
M  V30 5261 O 895.945 -5.42847 -3.03646 0
M  V30 5262 C 897.135 -7.41196 -3.50753 0
M  V30 5263 O 897.525 -7.27073 -4.86816 0
M  V30 5264 C 898.015 -6.5273 -2.63741 0
M  V30 5265 C 897.305 -5.1842 -2.73198 0
M  V30 5266 N 897.355 -4.38762 -1.4784 0
M  V30 5267 H 894.516 -8.36803 -2.32493 0
M  V30 5268 H 894.246 -6.70197 -1.71129 0
M  V30 5269 H 895.113 -7.03551 -4.13168 0
M  V30 5270 P 899.075 -7.20834 -5.23717 0
M  V30 5271 O 899.295 -7.79853 -6.57286 0
M  V30 5272 O 899.865 -7.79239 -4.12957 0
M  V30 5273 O 899.325 -5.63315 -5.29344 0
M  V30 5274 C 898.385 -4.80255 -6.01876 0
M  V30 5275 C 899.115 -3.64202 -6.65911 0
M  V30 5276 O 899.325 -2.60694 -5.64732 0
M  V30 5277 C 900.515 -3.93473 -7.1943 0
M  V30 5278 O 900.905 -3.02071 -8.21205 0
M  V30 5279 C 901.395 -3.73047 -5.97036 0
M  V30 5280 C 900.685 -2.58828 -5.25741 0
M  V30 5281 N 900.735 -2.68068 -3.77503 0
M  V30 5282 H 897.896 -5.40332 -6.79951 0
M  V30 5283 H 897.626 -4.41613 -5.32378 0
M  V30 5284 H 898.493 -3.26331 -7.47797 0
M  V30 5285 P 902.455 -2.75334 -8.47391 0
M  V30 5286 O 902.675 -2.44571 -9.90142 0
M  V30 5287 O 903.245 -3.87688 -7.92115 0
M  V30 5288 O 902.705 -1.4459 -7.59357 0
M  V30 5289 C 901.765 -0.347608 -7.69215 0
M  V30 5290 C 902.495 0.96767 -7.52806 0
M  V30 5291 O 902.705 1.21036 -6.1011 0
M  V30 5292 C 903.895 1.04544 -8.13308 0
M  V30 5293 O 904.285 2.38311 -8.41922 0
M  V30 5294 C 904.775 0.491279 -7.02284 0
M  V30 5295 C 904.065 0.996264 -5.77469 0
M  V30 5296 N 904.115 0.0501916 -4.62973 0
M  V30 5297 C 904.035 -1.32786 -4.63244 0
M  V30 5298 N 904.115 -1.86957 -3.44545 0
M  V30 5299 C 904.255 -0.780241 -2.58481 0
M  V30 5300 C 904.385 -0.738536 -1.17757 0
M  V30 5301 O 904.405 -1.66794 -0.372349 0
M  V30 5302 N 904.505 0.58337 -0.711393 0
M  V30 5303 C 904.505 1.70816 -1.51017 0
M  V30 5304 N 904.635 2.87826 -0.880757 0
M  V30 5305 N 904.375 1.67126 -2.8339 0
M  V30 5306 C 904.255 0.401421 -3.30572 0
M  V30 5307 H 901.276 -0.374722 -8.67691 0
M  V30 5308 H 901.006 -0.443485 -6.90277 0
M  V30 5309 H 901.873 1.75537 -7.96793 0
M  V30 5310 H 904.528 1.95076 -5.46529 0
M  V30 5311 H 904.807 -0.608565 -7.04577 0
M  V30 5312 H 905.799 0.889672 -7.08939 0
M  V30 5313 H 903.965 0.43308 -9.04564 0
M  V30 5314 H 903.916 -1.91249 -5.54442 0
M  V30 5315 H 904.598 0.718054 0.275244 0
M  V30 5316 H 904.635 3.75721 -1.41832 0
M  V30 5317 H 904.736 2.90436 0.145468 0
M  V30 5318 P 905.835 2.75334 -8.47391 0
M  V30 5319 O 906.055 3.84166 -9.4489 0
M  V30 5320 O 906.625 1.51964 -8.6881 0
M  V30 5321 O 906.085 3.29363 -6.99321 0
M  V30 5322 C 905.145 4.23956 -6.42656 0
M  V30 5323 C 905.875 5.20775 -5.52155 0
M  V30 5324 O 906.085 4.56534 -4.22446 0
M  V30 5325 C 907.275 5.62629 -5.96531 0
M  V30 5326 O 907.665 6.87667 -5.41053 0
M  V30 5327 C 908.155 4.52537 -5.39283 0
M  V30 5328 C 907.445 4.20027 -4.08623 0
M  V30 5329 N 907.495 2.7613 -3.71522 0
M  V30 5330 C 907.645 2.45612 -2.37989 0
M  V30 5331 O 907.735 3.30919 -1.51621 0
M  V30 5332 N 907.685 1.10684 -2.08435 0
M  V30 5333 C 907.595 0.0690084 -2.9792 0
M  V30 5334 O 907.645 -1.10553 -2.59426 0
M  V30 5335 C 907.445 0.481522 -4.35345 0
M  V30 5336 C 907.335 -0.618778 -5.36443 0
M  V30 5337 C 907.395 1.78906 -4.67968 0
M  V30 5338 H 904.655 4.797 -7.24003 0
M  V30 5339 H 904.386 3.69802 -5.84429 0
M  V30 5340 H 905.253 6.10356 -5.41441 0
M  V30 5341 H 907.908 4.78651 -3.27911 0
M  V30 5342 H 908.187 3.64957 -6.05871 0
M  V30 5343 H 909.179 4.8868 -5.2125 0
M  V30 5344 H 907.345 5.66726 -7.06352 0
M  V30 5345 H 907.274 2.07737 -5.72367 0
M  V30 5346 H 908.304 -0.754375 -5.86871 0
M  V30 5347 H 906.567 -0.359721 -6.10641 0
M  V30 5348 H 907.055 -1.55533 -4.8581 0
M  V30 5349 H 907.791 0.862651 -1.12037 0
M  V30 5350 P 909.215 7.20834 -5.23717 0
M  V30 5351 O 909.435 8.66104 -5.38572 0
M  V30 5352 O 910.005 6.33544 -6.1349 0
M  V30 5353 O 909.465 6.7751 -3.72168 0
M  V30 5354 C 908.525 7.20825 -2.7076 0
M  V30 5355 C 909.255 7.45864 -1.40599 0
M  V30 5356 O 909.465 6.17651 -0.734225 0
M  V30 5357 C 910.655 8.05808 -1.51899 0
M  V30 5358 O 911.045 8.74358 -0.335205 0
M  V30 5359 C 911.535 6.83093 -1.70294 0
M  V30 5360 C 910.825 5.79992 -0.836974 0
M  V30 5361 N 910.875 4.41864 -1.38293 0
M  V30 5362 C 910.795 3.99538 -2.69438 0
M  V30 5363 N 910.875 2.69909 -2.84277 0
M  V30 5364 C 911.015 2.21719 -1.5408 0
M  V30 5365 C 911.145 0.891712 -1.06628 0
M  V30 5366 O 911.165 -0.161298 -1.70137 0
M  V30 5367 N 911.265 0.856846 0.334985 0
M  V30 5368 C 911.265 1.9641 1.15789 0
M  V30 5369 N 911.395 1.72708 2.46522 0
M  V30 5370 N 911.135 3.21165 0.713741 0
M  V30 5371 C 911.015 3.26797 -0.639748 0
M  V30 5372 H 908.036 8.13644 -3.0377 0
M  V30 5373 H 907.766 6.42788 -2.55485 0
M  V30 5374 H 908.633 8.12039 -0.792769 0
M  V30 5375 H 911.288 5.80061 0.166416 0
M  V30 5376 H 911.567 6.51287 -2.75604 0
M  V30 5377 H 912.559 7.01734 -1.34462 0
M  V30 5378 H 910.725 8.73674 -2.38337 0
M  V30 5379 H 910.676 4.68207 -3.53221 0
M  V30 5380 H 911.358 -0.0398818 0.767965 0
M  V30 5381 H 911.395 2.50995 3.13503 0
M  V30 5382 H 911.496 0.759148 2.80716 0
M  V30 5383 P 912.595 8.91 6.71518e-12 0
M  V30 5384 O 912.815 10.1726 0.733694 0
M  V30 5385 O 913.385 8.73148 -1.23936 0
M  V30 5386 O 912.845 7.66872 0.971405 0
M  V30 5387 C 911.905 7.42309 2.04641 0
M  V30 5388 C 912.635 6.86059 3.24661 0
M  V30 5389 O 912.845 5.42847 3.03646 0
M  V30 5390 C 914.035 7.41196 3.50753 0
M  V30 5391 O 914.425 7.27073 4.86816 0
M  V30 5392 C 914.915 6.5273 2.63741 0
M  V30 5393 C 914.205 5.1842 2.73198 0
M  V30 5394 N 914.255 4.38762 1.4784 0
M  V30 5395 H 911.416 8.36803 2.32493 0
M  V30 5396 H 911.146 6.70197 1.71129 0
M  V30 5397 H 912.013 7.03551 4.13168 0
M  V30 5398 P 915.975 7.20834 5.23717 0
M  V30 5399 O 916.195 7.80006 6.57415 0
M  V30 5400 O 916.765 7.79416 4.13051 0
M  V30 5401 O 916.225 5.63315 5.29344 0
M  V30 5402 C 915.285 4.80318 6.01954 0
M  V30 5403 C 916.015 3.64202 6.65911 0
M  V30 5404 O 916.225 2.60736 5.64823 0
M  V30 5405 C 917.415 3.93521 7.19518 0
M  V30 5406 O 917.805 3.02071 8.21205 0
M  V30 5407 C 918.295 3.73047 5.97036 0
M  V30 5408 C 917.585 2.58828 5.25741 0
M  V30 5409 N 917.635 2.68068 3.77503 0
M  V30 5410 H 914.797 5.40394 6.8003 0
M  V30 5411 H 914.525 4.41741 5.32532 0
M  V30 5412 H 915.393 3.26371 7.47889 0
M  V30 5413 H 918.048 1.64007 5.56746 0
M  V30 5414 H 918.328 4.63439 5.3432 0
M  V30 5415 H 919.319 3.44776 6.25925 0
M  V30 5416 H 917.485 4.96707 7.57347 0
M  V30 5417 P 919.355 2.75334 8.47391 0
M  V30 5418 O 919.575 2.44595 9.90239 0
M  V30 5419 O 920.145 3.87732 7.92204 0
M  V30 5420 O 919.605 1.4459 7.59357 0
M  V30 5421 C 918.665 0.347563 7.69115 0
M  V30 5422 C 919.395 -0.96767 7.52806 0
M  V30 5423 O 919.605 -1.21036 6.1011 0
M  V30 5424 C 920.795 -1.04544 8.13308 0
M  V30 5425 O 921.185 -2.38311 8.41922 0
M  V30 5426 C 921.675 -0.491279 7.02284 0
M  V30 5427 C 920.965 -0.996264 5.77469 0
M  V30 5428 N 921.015 -0.0501808 4.62873 0
M  V30 5429 C 921.165 -0.588177 3.36904 0
M  V30 5430 O 921.255 -1.78598 3.17173 0
M  V30 5431 N 921.205 0.329694 2.33686 0
M  V30 5432 C 921.115 1.6953 2.45079 0
M  V30 5433 O 921.165 2.41926 1.44899 0
M  V30 5434 C 920.965 2.16933 3.80505 0
M  V30 5435 C 920.855 3.65373 3.97621 0
M  V30 5436 C 920.915 1.30326 4.83752 0
M  V30 5437 H 918.175 0.374722 8.67691 0
M  V30 5438 H 917.906 0.443421 6.90177 0
M  V30 5439 H 918.773 -1.75537 7.96793 0
M  V30 5440 H 921.428 -1.94496 5.46629 0
M  V30 5441 H 921.707 0.608651 7.04676 0
M  V30 5442 H 922.699 -0.889672 7.08939 0
M  V30 5443 H 920.865 -0.43308 9.04564 0
M  V30 5444 H 920.794 1.68366 5.8516 0
M  V30 5445 H 921.824 4.05985 4.30448 0
M  V30 5446 H 920.087 3.88028 4.72875 0
M  V30 5447 H 920.575 4.11381 3.01609 0
M  V30 5448 H 921.311 -0.0393617 1.41345 0
M  V30 5449 P 922.735 -2.75334 8.47391 0
M  V30 5450 O 922.955 -3.84128 9.44797 0
M  V30 5451 O 923.525 -1.51947 8.68712 0
M  V30 5452 O 922.985 -3.29363 6.99321 0
M  V30 5453 C 922.045 -4.24011 6.4274 0
M  V30 5454 C 922.775 -5.20775 5.52155 0
M  V30 5455 O 922.985 -4.56534 4.22446 0
M  V30 5456 C 924.175 -5.62629 5.96531 0
M  V30 5457 O 924.565 -6.87667 5.41053 0
M  V30 5458 C 925.055 -4.52537 5.39283 0
M  V30 5459 C 924.345 -4.20027 4.08623 0
M  V30 5460 N 924.395 -2.76189 3.71603 0
M  V30 5461 H 921.556 -4.797 7.24003 0
M  V30 5462 H 921.286 -3.69856 5.84513 0
M  V30 5463 H 922.153 -6.10356 5.41441 0
M  V30 5464 P 926.115 -7.20834 5.23717 0
M  V30 5465 O 926.335 -8.66104 5.38572 0
M  V30 5466 O 926.905 -6.33544 6.1349 0
M  V30 5467 O 926.365 -6.7751 3.72168 0
M  V30 5468 C 925.425 -7.20825 2.7076 0
M  V30 5469 C 926.155 -7.45864 1.40599 0
M  V30 5470 O 926.365 -6.17651 0.734225 0
M  V30 5471 C 927.555 -8.05808 1.51899 0
M  V30 5472 O 927.945 -8.74358 0.335205 0
M  V30 5473 C 928.435 -6.83093 1.70294 0
M  V30 5474 C 927.725 -5.79992 0.836974 0
M  V30 5475 N 927.775 -4.41864 1.38293 0
M  V30 5476 H 924.936 -8.13644 3.0377 0
M  V30 5477 H 924.666 -6.42788 2.55485 0
M  V30 5478 H 925.533 -8.12039 0.792769 0
M  V30 5479 P 929.495 -8.91 -6.87236e-12 0
M  V30 5480 O 929.715 -10.1736 -0.733766 0
M  V30 5481 O 930.285 -8.73247 1.2395 0
M  V30 5482 O 929.745 -7.66872 -0.971405 0
M  V30 5483 C 928.805 -7.42212 -2.04614 0
M  V30 5484 C 929.535 -6.86059 -3.24661 0
M  V30 5485 O 929.745 -5.42847 -3.03646 0
M  V30 5486 C 930.935 -7.41196 -3.50753 0
M  V30 5487 O 931.325 -7.27073 -4.86816 0
M  V30 5488 C 931.815 -6.5273 -2.63741 0
M  V30 5489 C 931.105 -5.1842 -2.73198 0
M  V30 5490 N 931.155 -4.38668 -1.47808 0
M  V30 5491 C 931.305 -3.02239 -1.60048 0
M  V30 5492 O 931.395 -2.46459 -2.67869 0
M  V30 5493 N 931.345 -2.32436 -0.408571 0
M  V30 5494 C 931.255 -2.85471 0.854993 0
M  V30 5495 C 931.105 -4.28918 0.887335 0
M  V30 5496 C 931.055 -5.00349 -0.255399 0
M  V30 5497 H 928.315 -8.36803 -2.32493 0
M  V30 5498 H 928.046 -6.701 -1.71105 0
M  V30 5499 H 928.913 -7.03551 -4.13168 0
M  V30 5500 H 931.568 -4.59773 -3.53894 0
M  V30 5501 H 931.847 -6.88995 -1.59871 0
M  V30 5502 H 932.839 -6.46749 -3.03687 0
M  V30 5503 H 931.005 -8.46908 -3.20714 0
M  V30 5504 H 930.934 -6.08548 -0.206986 0
M  V30 5505 P 932.874 -7.20834 -5.23717 0
M  V30 5506 O 933.094 -7.79853 -6.57286 0
M  V30 5507 O 933.664 -7.79239 -4.12957 0
M  V30 5508 O 933.124 -5.63315 -5.29344 0
M  V30 5509 C 932.184 -4.80255 -6.01876 0
M  V30 5510 C 932.914 -3.64202 -6.65911 0
M  V30 5511 O 933.124 -2.60694 -5.64732 0
M  V30 5512 C 934.314 -3.93473 -7.1943 0
M  V30 5513 O 934.704 -3.02071 -8.21205 0
M  V30 5514 C 935.194 -3.73047 -5.97036 0
M  V30 5515 C 934.484 -2.58828 -5.25741 0
M  V30 5516 N 934.534 -2.68068 -3.77503 0
M  V30 5517 H 931.695 -5.40332 -6.79951 0
M  V30 5518 H 931.425 -4.41613 -5.32378 0
M  V30 5519 H 932.292 -3.26331 -7.47797 0
M  V30 5520 P 936.254 -2.75334 -8.47391 0
M  V30 5521 O 936.474 -2.44571 -9.90142 0
M  V30 5522 O 937.044 -3.87688 -7.92115 0
M  V30 5523 O 936.504 -1.4459 -7.59357 0
M  V30 5524 C 935.564 -0.347608 -7.69215 0
M  V30 5525 C 936.294 0.96767 -7.52806 0
M  V30 5526 O 936.504 1.21036 -6.1011 0
M  V30 5527 C 937.694 1.04544 -8.13308 0
M  V30 5528 O 938.084 2.38311 -8.41922 0
M  V30 5529 C 938.574 0.491279 -7.02284 0
M  V30 5530 C 937.864 0.996264 -5.77469 0
M  V30 5531 N 937.914 0.0501916 -4.62973 0
M  V30 5532 H 935.075 -0.374722 -8.67691 0
M  V30 5533 H 934.805 -0.443485 -6.90277 0
M  V30 5534 H 935.672 1.75537 -7.96793 0
M  V30 5535 P 939.634 2.75334 -8.47391 0
M  V30 5536 O 939.854 3.84166 -9.4489 0
M  V30 5537 O 940.424 1.51964 -8.6881 0
M  V30 5538 O 939.884 3.29363 -6.99321 0
M  V30 5539 C 938.944 4.23956 -6.42656 0
M  V30 5540 C 939.674 5.20775 -5.52155 0
M  V30 5541 O 939.884 4.56534 -4.22446 0
M  V30 5542 C 941.074 5.62629 -5.96531 0
M  V30 5543 O 941.464 6.87667 -5.41053 0
M  V30 5544 C 941.954 4.52537 -5.39283 0
M  V30 5545 C 941.244 4.20027 -4.08623 0
M  V30 5546 N 941.294 2.7613 -3.71522 0
M  V30 5547 C 941.444 2.45612 -2.37989 0
M  V30 5548 O 941.534 3.30919 -1.51621 0
M  V30 5549 N 941.484 1.10684 -2.08435 0
M  V30 5550 C 941.394 0.0690084 -2.9792 0
M  V30 5551 O 941.444 -1.10553 -2.59426 0
M  V30 5552 C 941.244 0.481522 -4.35345 0
M  V30 5553 C 941.134 -0.618778 -5.36443 0
M  V30 5554 C 941.194 1.78906 -4.67968 0
M  V30 5555 H 938.454 4.797 -7.24003 0
M  V30 5556 H 938.185 3.69802 -5.84429 0
M  V30 5557 H 939.052 6.10356 -5.41441 0
M  V30 5558 H 941.707 4.78651 -3.27911 0
M  V30 5559 H 941.986 3.64957 -6.05871 0
M  V30 5560 H 942.978 4.8868 -5.2125 0
M  V30 5561 H 941.144 5.66726 -7.06352 0
M  V30 5562 H 941.073 2.07737 -5.72367 0
M  V30 5563 H 942.103 -0.754375 -5.86871 0
M  V30 5564 H 940.366 -0.359721 -6.10641 0
M  V30 5565 H 940.854 -1.55533 -4.8581 0
M  V30 5566 H 941.59 0.862651 -1.12037 0
M  V30 5567 P 943.014 7.20834 -5.23717 0
M  V30 5568 O 943.234 8.66104 -5.38572 0
M  V30 5569 O 943.804 6.33544 -6.1349 0
M  V30 5570 O 943.264 6.7751 -3.72168 0
M  V30 5571 C 942.324 7.20825 -2.7076 0
M  V30 5572 C 943.054 7.45864 -1.40599 0
M  V30 5573 O 943.264 6.17651 -0.734225 0
M  V30 5574 C 944.454 8.05808 -1.51899 0
M  V30 5575 O 944.844 8.74358 -0.335205 0
M  V30 5576 C 945.334 6.83093 -1.70294 0
M  V30 5577 C 944.624 5.79992 -0.836974 0
M  V30 5578 N 944.674 4.41864 -1.38293 0
M  V30 5579 H 941.835 8.13644 -3.0377 0
M  V30 5580 H 941.565 6.42788 -2.55485 0
M  V30 5581 H 942.432 8.12039 -0.792769 0
M  V30 5582 P 946.394 8.91 7.02954e-12 0
M  V30 5583 O 946.614 10.1736 0.733766 0
M  V30 5584 O 947.184 8.73247 -1.2395 0
M  V30 5585 O 946.644 7.66872 0.971405 0
M  V30 5586 C 945.704 7.42212 2.04614 0
M  V30 5587 C 946.434 6.86059 3.24661 0
M  V30 5588 O 946.644 5.42847 3.03646 0
M  V30 5589 C 947.834 7.41196 3.50753 0
M  V30 5590 O 948.224 7.27073 4.86816 0
M  V30 5591 C 948.714 6.5273 2.63741 0
M  V30 5592 C 948.004 5.1842 2.73198 0
M  V30 5593 N 948.054 4.38668 1.47808 0
M  V30 5594 C 948.204 3.02239 1.60048 0
M  V30 5595 O 948.294 2.46459 2.67869 0
M  V30 5596 N 948.244 2.32436 0.408571 0
M  V30 5597 C 948.154 2.85471 -0.854993 0
M  V30 5598 C 948.004 4.28918 -0.887335 0
M  V30 5599 C 947.954 5.00349 0.255399 0
M  V30 5600 H 945.214 8.36803 2.32493 0
M  V30 5601 H 944.945 6.701 1.71105 0
M  V30 5602 H 945.812 7.03551 4.13168 0
M  V30 5603 H 948.467 4.59773 3.53894 0
M  V30 5604 H 948.746 6.88995 1.59871 0
M  V30 5605 H 949.738 6.46749 3.03687 0
M  V30 5606 H 947.904 8.46908 3.20714 0
M  V30 5607 H 947.833 6.08548 0.206986 0
M  V30 5608 P 949.774 7.20834 5.23717 0
M  V30 5609 O 949.994 7.80006 6.57415 0
M  V30 5610 O 950.564 7.79416 4.13051 0
M  V30 5611 O 950.024 5.63315 5.29344 0
M  V30 5612 C 949.084 4.80318 6.01954 0
M  V30 5613 C 949.814 3.64202 6.65911 0
M  V30 5614 O 950.024 2.60736 5.64823 0
M  V30 5615 C 951.214 3.93521 7.19518 0
M  V30 5616 O 951.604 3.02071 8.21205 0
M  V30 5617 C 952.094 3.73047 5.97036 0
M  V30 5618 C 951.384 2.58828 5.25741 0
M  V30 5619 N 951.434 2.68068 3.77503 0
M  V30 5620 H 948.596 5.40394 6.8003 0
M  V30 5621 H 948.324 4.41741 5.32532 0
M  V30 5622 H 949.192 3.26371 7.47889 0
M  V30 5623 H 951.847 1.64007 5.56746 0
M  V30 5624 H 952.127 4.63439 5.3432 0
M  V30 5625 H 953.118 3.44776 6.25925 0
M  V30 5626 H 951.284 4.96707 7.57347 0
M  V30 5627 P 953.154 2.75334 8.47391 0
M  V30 5628 O 953.374 2.44571 9.90142 0
M  V30 5629 O 953.944 3.87688 7.92115 0
M  V30 5630 O 953.404 1.4459 7.59357 0
M  V30 5631 C 952.464 0.347608 7.69215 0
M  V30 5632 C 953.194 -0.96767 7.52806 0
M  V30 5633 O 953.404 -1.21036 6.1011 0
M  V30 5634 C 954.594 -1.04544 8.13308 0
M  V30 5635 O 954.984 -2.38311 8.41922 0
M  V30 5636 C 955.474 -0.491279 7.02284 0
M  V30 5637 C 954.764 -0.996264 5.77469 0
M  V30 5638 N 954.814 -0.0501916 4.62973 0
M  V30 5639 H 951.975 0.374722 8.67691 0
M  V30 5640 H 951.705 0.443485 6.90277 0
M  V30 5641 H 952.572 -1.75537 7.96793 0
M  V30 5642 P 956.534 -2.75334 8.47391 0
M  V30 5643 O 956.754 -3.84128 9.44797 0
M  V30 5644 O 957.324 -1.51947 8.68712 0
M  V30 5645 O 956.784 -3.29363 6.99321 0
M  V30 5646 C 955.844 -4.24011 6.4274 0
M  V30 5647 C 956.574 -5.20775 5.52155 0
M  V30 5648 O 956.784 -4.56534 4.22446 0
M  V30 5649 C 957.974 -5.62629 5.96531 0
M  V30 5650 O 958.364 -6.87667 5.41053 0
M  V30 5651 C 958.854 -4.52537 5.39283 0
M  V30 5652 C 958.144 -4.20027 4.08623 0
M  V30 5653 N 958.194 -2.76189 3.71603 0
M  V30 5654 H 955.355 -4.797 7.24003 0
M  V30 5655 H 955.085 -3.69856 5.84513 0
M  V30 5656 H 955.952 -6.10356 5.41441 0
M  V30 5657 P 959.914 -7.20834 5.23717 0
M  V30 5658 O 960.134 -8.66104 5.38572 0
M  V30 5659 O 960.704 -6.33544 6.1349 0
M  V30 5660 O 960.164 -6.7751 3.72168 0
M  V30 5661 C 959.224 -7.20825 2.7076 0
M  V30 5662 C 959.954 -7.45864 1.40599 0
M  V30 5663 O 960.164 -6.17651 0.734225 0
M  V30 5664 C 961.354 -8.05808 1.51899 0
M  V30 5665 O 961.744 -8.74358 0.335205 0
M  V30 5666 C 962.234 -6.83093 1.70294 0
M  V30 5667 C 961.524 -5.79992 0.836974 0
M  V30 5668 N 961.574 -4.41864 1.38293 0
M  V30 5669 C 961.494 -3.99538 2.69438 0
M  V30 5670 N 961.574 -2.69909 2.84277 0
M  V30 5671 C 961.714 -2.21719 1.5408 0
M  V30 5672 C 961.844 -0.891712 1.06628 0
M  V30 5673 O 961.864 0.161298 1.70137 0
M  V30 5674 N 961.964 -0.856846 -0.334985 0
M  V30 5675 C 961.964 -1.9641 -1.15789 0
M  V30 5676 N 962.094 -1.72708 -2.46522 0
M  V30 5677 N 961.834 -3.21165 -0.713741 0
M  V30 5678 C 961.714 -3.26797 0.639748 0
M  V30 5679 H 958.735 -8.13644 3.0377 0
M  V30 5680 H 958.465 -6.42788 2.55485 0
M  V30 5681 H 959.332 -8.12039 0.792769 0
M  V30 5682 H 961.987 -5.80061 -0.166416 0
M  V30 5683 H 962.266 -6.51287 2.75604 0
M  V30 5684 H 963.258 -7.01734 1.34462 0
M  V30 5685 H 961.424 -8.73674 2.38337 0
M  V30 5686 H 961.375 -4.68207 3.53221 0
M  V30 5687 H 962.057 0.0398818 -0.767965 0
M  V30 5688 H 962.094 -2.50995 -3.13503 0
M  V30 5689 H 962.195 -0.759148 -2.80716 0
M  V30 5690 P 963.294 -8.91 -7.18673e-12 0
M  V30 5691 O 963.514 -10.1726 -0.733694 0
M  V30 5692 O 964.084 -8.73148 1.23936 0
M  V30 5693 O 963.544 -7.66872 -0.971405 0
M  V30 5694 C 962.604 -7.42309 -2.04641 0
M  V30 5695 C 963.334 -6.86059 -3.24661 0
M  V30 5696 O 963.544 -5.42847 -3.03646 0
M  V30 5697 C 964.734 -7.41196 -3.50753 0
M  V30 5698 O 965.124 -7.27073 -4.86816 0
M  V30 5699 C 965.614 -6.5273 -2.63741 0
M  V30 5700 C 964.904 -5.1842 -2.73198 0
M  V30 5701 N 964.954 -4.38762 -1.4784 0
M  V30 5702 H 962.115 -8.36803 -2.32493 0
M  V30 5703 H 961.845 -6.70197 -1.71129 0
M  V30 5704 H 962.712 -7.03551 -4.13168 0
M  V30 5705 P 966.674 -7.20834 -5.23717 0
M  V30 5706 O 966.894 -7.79853 -6.57286 0
M  V30 5707 O 967.464 -7.79239 -4.12957 0
M  V30 5708 O 966.924 -5.63315 -5.29344 0
M  V30 5709 C 965.984 -4.80255 -6.01876 0
M  V30 5710 C 966.714 -3.64202 -6.65911 0
M  V30 5711 O 966.924 -2.60694 -5.64732 0
M  V30 5712 C 968.114 -3.93473 -7.1943 0
M  V30 5713 O 968.504 -3.02071 -8.21205 0
M  V30 5714 C 968.994 -3.73047 -5.97036 0
M  V30 5715 C 968.284 -2.58828 -5.25741 0
M  V30 5716 N 968.334 -2.68068 -3.77503 0
M  V30 5717 H 965.495 -5.40332 -6.79951 0
M  V30 5718 H 965.225 -4.41613 -5.32378 0
M  V30 5719 H 966.092 -3.26331 -7.47797 0
M  V30 5720 P 970.054 -2.75334 -8.47391 0
M  V30 5721 O 970.274 -2.44595 -9.90239 0
M  V30 5722 O 970.844 -3.87732 -7.92204 0
M  V30 5723 O 970.304 -1.4459 -7.59357 0
M  V30 5724 C 969.364 -0.347563 -7.69115 0
M  V30 5725 C 970.094 0.96767 -7.52806 0
M  V30 5726 O 970.304 1.21036 -6.1011 0
M  V30 5727 C 971.494 1.04544 -8.13308 0
M  V30 5728 O 971.884 2.38311 -8.41922 0
M  V30 5729 C 972.374 0.491279 -7.02284 0
M  V30 5730 C 971.664 0.996264 -5.77469 0
M  V30 5731 N 971.714 0.0501808 -4.62873 0
M  V30 5732 C 971.864 0.588177 -3.36904 0
M  V30 5733 O 971.954 1.78598 -3.17173 0
M  V30 5734 N 971.904 -0.329694 -2.33686 0
M  V30 5735 C 971.814 -1.6953 -2.45079 0
M  V30 5736 C 971.664 -2.16933 -3.80505 0
M  V30 5737 C 971.614 -1.30326 -4.83752 0
M  V30 5738 H 968.874 -0.374722 -8.67691 0
M  V30 5739 H 968.605 -0.443421 -6.90177 0
M  V30 5740 H 969.472 1.75537 -7.96793 0
M  V30 5741 H 972.127 1.94496 -5.46629 0
M  V30 5742 H 972.406 -0.608651 -7.04676 0
M  V30 5743 H 973.398 0.889672 -7.08939 0
M  V30 5744 H 971.564 0.43308 -9.04564 0
M  V30 5745 H 971.493 -1.68366 -5.8516 0
M  V30 5746 P 973.434 2.75334 -8.47391 0
M  V30 5747 O 973.654 3.84128 -9.44797 0
M  V30 5748 O 974.224 1.51947 -8.68712 0
M  V30 5749 O 973.684 3.29363 -6.99321 0
M  V30 5750 C 972.744 4.24011 -6.4274 0
M  V30 5751 C 973.474 5.20775 -5.52155 0
M  V30 5752 O 973.684 4.56534 -4.22446 0
M  V30 5753 C 974.874 5.62629 -5.96531 0
M  V30 5754 O 975.264 6.87667 -5.41053 0
M  V30 5755 C 975.754 4.52537 -5.39283 0
M  V30 5756 C 975.044 4.20027 -4.08623 0
M  V30 5757 N 975.094 2.76189 -3.71603 0
M  V30 5758 H 972.255 4.797 -7.24003 0
M  V30 5759 H 971.985 3.69856 -5.84513 0
M  V30 5760 H 972.852 6.10356 -5.41441 0
M  V30 5761 P 976.814 7.20834 -5.23717 0
M  V30 5762 O 977.034 8.66189 -5.38625 0
M  V30 5763 O 977.604 6.33615 -6.1356 0
M  V30 5764 O 977.064 6.7751 -3.72168 0
M  V30 5765 C 976.124 7.20732 -2.70725 0
M  V30 5766 C 976.854 7.45864 -1.40599 0
M  V30 5767 O 977.064 6.17651 -0.734225 0
M  V30 5768 C 978.254 8.05808 -1.51899 0
M  V30 5769 O 978.644 8.74358 -0.335205 0
M  V30 5770 C 979.134 6.83093 -1.70294 0
M  V30 5771 C 978.424 5.79992 -0.836974 0
M  V30 5772 N 978.474 4.41769 -1.38263 0
M  V30 5773 C 978.624 3.38591 -0.481702 0
M  V30 5774 O 978.714 3.56839 0.718452 0
M  V30 5775 N 978.664 2.1206 -1.03569 0
M  V30 5776 C 978.574 1.80696 -2.36966 0
M  V30 5777 C 978.424 2.94845 -3.23898 0
M  V30 5778 C 978.374 4.19803 -2.73435 0
M  V30 5779 H 975.634 8.13644 -3.0377 0
M  V30 5780 H 975.365 6.42695 -2.55448 0
M  V30 5781 H 976.232 8.12039 -0.792769 0
M  V30 5782 H 978.887 5.79978 0.160587 0
M  V30 5783 H 979.166 6.51379 -2.75643 0
M  V30 5784 H 980.158 7.01734 -1.34462 0
M  V30 5785 H 978.324 8.73674 -2.38337 0
M  V30 5786 H 978.253 5.04492 -3.4095 0
M  V30 5787 P 980.194 8.91 7.34391e-12 0
M  V30 5788 O 980.414 10.1726 0.733694 0
M  V30 5789 O 980.984 8.73148 -1.23936 0
M  V30 5790 O 980.444 7.66872 0.971405 0
M  V30 5791 C 979.504 7.42309 2.04641 0
M  V30 5792 C 980.234 6.86059 3.24661 0
M  V30 5793 O 980.444 5.42847 3.03646 0
M  V30 5794 C 981.634 7.41196 3.50753 0
M  V30 5795 O 982.024 7.27073 4.86816 0
M  V30 5796 C 982.514 6.5273 2.63741 0
M  V30 5797 C 981.804 5.1842 2.73198 0
M  V30 5798 N 981.854 4.38762 1.4784 0
M  V30 5799 H 979.015 8.36803 2.32493 0
M  V30 5800 H 978.745 6.70197 1.71129 0
M  V30 5801 H 979.612 7.03551 4.13168 0
M  V30 5802 P 983.574 7.20834 5.23717 0
M  V30 5803 O 983.794 7.79853 6.57286 0
M  V30 5804 O 984.364 7.79239 4.12957 0
M  V30 5805 O 983.824 5.63315 5.29344 0
M  V30 5806 C 982.884 4.80255 6.01876 0
M  V30 5807 C 983.614 3.64202 6.65911 0
M  V30 5808 O 983.824 2.60694 5.64732 0
M  V30 5809 C 985.014 3.93473 7.1943 0
M  V30 5810 O 985.404 3.02071 8.21205 0
M  V30 5811 C 985.894 3.73047 5.97036 0
M  V30 5812 C 985.184 2.58828 5.25741 0
M  V30 5813 N 985.234 2.68068 3.77503 0
M  V30 5814 H 982.395 5.40332 6.79951 0
M  V30 5815 H 982.125 4.41613 5.32378 0
M  V30 5816 H 982.992 3.26331 7.47797 0
M  V30 5817 P 986.954 2.75334 8.47391 0
M  V30 5818 O 987.174 2.44571 9.90142 0
M  V30 5819 O 987.744 3.87688 7.92115 0
M  V30 5820 O 987.204 1.4459 7.59357 0
M  V30 5821 C 986.264 0.347608 7.69215 0
M  V30 5822 C 986.994 -0.96767 7.52806 0
M  V30 5823 O 987.204 -1.21036 6.1011 0
M  V30 5824 C 988.394 -1.04544 8.13308 0
M  V30 5825 O 988.784 -2.38311 8.41922 0
M  V30 5826 C 989.274 -0.491279 7.02284 0
M  V30 5827 C 988.564 -0.996264 5.77469 0
M  V30 5828 N 988.614 -0.0501916 4.62973 0
M  V30 5829 H 985.775 0.374722 8.67691 0
M  V30 5830 H 985.505 0.443485 6.90277 0
M  V30 5831 H 986.372 -1.75537 7.96793 0
M  V30 5832 P 990.334 -2.75334 8.47391 0
M  V30 5833 O 990.554 -3.84166 9.4489 0
M  V30 5834 O 991.124 -1.51964 8.6881 0
M  V30 5835 O 990.584 -3.29363 6.99321 0
M  V30 5836 C 989.644 -4.23956 6.42656 0
M  V30 5837 C 990.374 -5.20775 5.52155 0
M  V30 5838 O 990.584 -4.56534 4.22446 0
M  V30 5839 C 991.774 -5.62629 5.96531 0
M  V30 5840 O 992.164 -6.87667 5.41053 0
M  V30 5841 C 992.654 -4.52537 5.39283 0
M  V30 5842 C 991.944 -4.20027 4.08623 0
M  V30 5843 N 991.994 -2.7613 3.71522 0
M  V30 5844 C 992.144 -2.45612 2.37989 0
M  V30 5845 O 992.234 -3.30919 1.51621 0
M  V30 5846 N 992.184 -1.10684 2.08435 0
M  V30 5847 C 992.094 -0.0690084 2.9792 0
M  V30 5848 O 992.144 1.10553 2.59426 0
M  V30 5849 C 991.944 -0.481522 4.35345 0
M  V30 5850 C 991.834 0.618778 5.36443 0
M  V30 5851 C 991.894 -1.78906 4.67968 0
M  V30 5852 H 989.154 -4.797 7.24003 0
M  V30 5853 H 988.885 -3.69802 5.84429 0
M  V30 5854 H 989.752 -6.10356 5.41441 0
M  V30 5855 H 992.407 -4.78651 3.27911 0
M  V30 5856 H 992.686 -3.64957 6.05871 0
M  V30 5857 H 993.678 -4.8868 5.2125 0
M  V30 5858 H 991.844 -5.66726 7.06352 0
M  V30 5859 H 991.773 -2.07737 5.72367 0
M  V30 5860 H 992.803 0.754375 5.86871 0
M  V30 5861 H 991.066 0.359721 6.10641 0
M  V30 5862 H 991.554 1.55533 4.8581 0
M  V30 5863 H 992.29 -0.862651 1.12037 0
M  V30 5864 P 993.714 -7.20834 5.23717 0
M  V30 5865 O 993.934 -8.66189 5.38625 0
M  V30 5866 O 994.504 -6.33615 6.1356 0
M  V30 5867 O 993.964 -6.7751 3.72168 0
M  V30 5868 C 993.024 -7.20732 2.70725 0
M  V30 5869 C 993.754 -7.45864 1.40599 0
M  V30 5870 O 993.964 -6.17651 0.734225 0
M  V30 5871 C 995.154 -8.05808 1.51899 0
M  V30 5872 O 995.544 -8.74358 0.335205 0
M  V30 5873 C 996.034 -6.83093 1.70294 0
M  V30 5874 C 995.324 -5.79992 0.836974 0
M  V30 5875 N 995.374 -4.41769 1.38263 0
M  V30 5876 C 995.524 -3.38591 0.481702 0
M  V30 5877 O 995.614 -3.56839 -0.718452 0
M  V30 5878 N 995.564 -2.1206 1.03569 0
M  V30 5879 C 995.474 -1.80696 2.36966 0
M  V30 5880 O 995.524 -0.630473 2.74862 0
M  V30 5881 C 995.324 -2.94845 3.23898 0
M  V30 5882 C 995.214 -2.65253 4.70362 0
M  V30 5883 C 995.274 -4.19803 2.73435 0
M  V30 5884 H 992.534 -8.13644 3.0377 0
M  V30 5885 H 992.265 -6.42695 2.55448 0
M  V30 5886 H 993.132 -8.12039 0.792769 0
M  V30 5887 H 995.787 -5.79978 -0.160587 0
M  V30 5888 H 996.066 -6.51379 2.75643 0
M  V30 5889 H 997.058 -7.01734 1.34462 0
M  V30 5890 H 995.224 -8.73674 2.38337 0
M  V30 5891 H 995.153 -5.04492 3.4095 0
M  V30 5892 H 996.183 -2.83924 5.1913 0
M  V30 5893 H 994.446 -3.29824 5.15163 0
M  V30 5894 H 994.934 -1.59723 4.84449 0
M  V30 5895 H 995.67 -1.35644 0.399345 0
M  V30 5896 P 997.094 -8.91 -7.50109e-12 0
M  V30 5897 O 997.314 -10.1726 -0.733694 0
M  V30 5898 O 997.884 -8.73148 1.23936 0
M  V30 5899 O 997.344 -7.66872 -0.971405 0
M  V30 5900 C 996.404 -7.42309 -2.04641 0
M  V30 5901 C 997.134 -6.86059 -3.24661 0
M  V30 5902 O 997.344 -5.42847 -3.03646 0
M  V30 5903 C 998.534 -7.41196 -3.50753 0
M  V30 5904 O 998.924 -7.27073 -4.86816 0
M  V30 5905 C 999.414 -6.5273 -2.63741 0
M  V30 5906 C 998.704 -5.1842 -2.73198 0
M  V30 5907 N 998.754 -4.38762 -1.4784 0
M  V30 5908 H 995.915 -8.36803 -2.32493 0
M  V30 5909 H 995.645 -6.70197 -1.71129 0
M  V30 5910 H 996.512 -7.03551 -4.13168 0
M  V30 5911 P 1000.47 -7.20834 -5.23717 0
M  V30 5912 O 1000.69 -7.79853 -6.57286 0
M  V30 5913 O 1001.26 -7.79239 -4.12957 0
M  V30 5914 O 1000.72 -5.63315 -5.29344 0
M  V30 5915 C 999.784 -4.80255 -6.01876 0
M  V30 5916 C 1000.51 -3.64202 -6.65911 0
M  V30 5917 O 1000.72 -2.60694 -5.64732 0
M  V30 5918 C 1001.91 -3.93473 -7.1943 0
M  V30 5919 O 1002.3 -3.02071 -8.21205 0
M  V30 5920 C 1002.79 -3.73047 -5.97036 0
M  V30 5921 C 1002.08 -2.58828 -5.25741 0
M  V30 5922 N 1002.13 -2.68068 -3.77503 0
M  V30 5923 H 999.295 -5.40332 -6.79951 0
M  V30 5924 H 999.025 -4.41613 -5.32378 0
M  V30 5925 H 999.892 -3.26331 -7.47797 0
M  V30 5926 P 1003.85 -2.75334 -8.47391 0
M  V30 5927 O 1004.07 -2.44619 -9.90336 0
M  V30 5928 O 1004.64 -3.87776 -7.92294 0
M  V30 5929 O 1004.1 -1.4459 -7.59357 0
M  V30 5930 C 1003.16 -0.347653 -7.69315 0
M  V30 5931 C 1003.89 0.96767 -7.52806 0
M  V30 5932 O 1004.1 1.21055 -6.10208 0
M  V30 5933 C 1005.29 1.04557 -8.13408 0
M  V30 5934 O 1005.68 2.38311 -8.41922 0
M  V30 5935 C 1006.17 0.491279 -7.02284 0
M  V30 5936 C 1005.46 0.996264 -5.77469 0
M  V30 5937 N 1005.51 0.0501916 -4.62973 0
M  V30 5938 C 1005.43 -1.31969 -4.65661 0
M  V30 5939 N 1005.5 -1.86649 -3.48119 0
M  V30 5940 C 1005.65 -0.792089 -2.62406 0
M  V30 5941 C 1005.78 -0.705684 -1.2207 0
M  V30 5942 N 1005.79 -1.76207 -0.413762 0
M  V30 5943 N 1005.9 0.518981 -0.685754 0
M  V30 5944 C 1005.89 1.57595 -1.49174 0
M  V30 5945 N 1005.77 1.62909 -2.80066 0
M  V30 5946 C 1005.65 0.388195 -3.3073 0
M  V30 5947 H 1002.68 -0.374765 -8.67791 0
M  V30 5948 H 1002.4 -0.443613 -6.90476 0
M  V30 5949 H 1003.27 1.75559 -7.96891 0
M  V30 5950 H 1005.93 1.94563 -5.46818 0
M  V30 5951 H 1006.21 -0.608651 -7.04676 0
M  V30 5952 H 1007.2 0.889796 -7.09039 0
M  V30 5953 H 1005.36 0.433128 -9.04664 0
M  V30 5954 H 1005.32 -1.89246 -5.57664 0
M  V30 5955 H 1005.7 -2.71005 -0.804694 0
M  V30 5956 H 1005.89 -1.63189 0.603768 0
M  V30 5957 H 1006 2.53475 -0.997614 0
M  V30 5958 P 1007.23 2.75334 -8.47391 0
M  V30 5959 O 1007.45 3.84128 -9.44797 0
M  V30 5960 O 1008.02 1.51947 -8.68712 0
M  V30 5961 O 1007.48 3.29363 -6.99321 0
M  V30 5962 C 1006.54 4.24011 -6.4274 0
M  V30 5963 C 1007.27 5.20775 -5.52155 0
M  V30 5964 O 1007.48 4.56534 -4.22446 0
M  V30 5965 C 1008.67 5.62629 -5.96531 0
M  V30 5966 O 1009.06 6.87667 -5.41053 0
M  V30 5967 C 1009.55 4.52537 -5.39283 0
M  V30 5968 C 1008.84 4.20027 -4.08623 0
M  V30 5969 N 1008.89 2.76189 -3.71603 0
M  V30 5970 H 1006.06 4.797 -7.24003 0
M  V30 5971 H 1005.79 3.69856 -5.84513 0
M  V30 5972 H 1006.65 6.10356 -5.41441 0
M  V30 5973 P 1010.61 7.20834 -5.23717 0
M  V30 5974 O 1010.83 8.66104 -5.38572 0
M  V30 5975 O 1011.4 6.33544 -6.1349 0
M  V30 5976 O 1010.86 6.7751 -3.72168 0
M  V30 5977 C 1009.92 7.20825 -2.7076 0
M  V30 5978 C 1010.65 7.45864 -1.40599 0
M  V30 5979 O 1010.86 6.17651 -0.734225 0
M  V30 5980 C 1012.05 8.05808 -1.51899 0
M  V30 5981 O 1012.44 8.74358 -0.335205 0
M  V30 5982 C 1012.93 6.83093 -1.70294 0
M  V30 5983 C 1012.22 5.79992 -0.836974 0
M  V30 5984 N 1012.27 4.41864 -1.38293 0
M  V30 5985 H 1009.44 8.13644 -3.0377 0
M  V30 5986 H 1009.17 6.42788 -2.55485 0
M  V30 5987 H 1010.03 8.12039 -0.792769 0
M  V30 5988 P 1013.99 8.91 7.65827e-12 0
M  V30 5989 O 1014.21 10.1746 0.733838 0
M  V30 5990 O 1014.78 8.73346 -1.23964 0
M  V30 5991 O 1014.24 7.66872 0.971405 0
M  V30 5992 C 1013.3 7.42405 2.04668 0
M  V30 5993 C 1014.03 6.86059 3.24661 0
M  V30 5994 O 1014.24 5.42934 3.03695 0
M  V30 5995 C 1015.43 7.41287 3.50796 0
M  V30 5996 O 1015.82 7.27073 4.86816 0
M  V30 5997 C 1016.31 6.5273 2.63741 0
M  V30 5998 C 1015.6 5.1842 2.73198 0
M  V30 5999 N 1015.65 4.38762 1.4784 0
M  V30 6000 H 1012.82 8.36899 2.3252 0
M  V30 6001 H 1012.54 6.70391 1.71179 0
M  V30 6002 H 1013.41 7.03638 4.13219 0
M  V30 6003 H 1016.07 4.59931 3.54016 0
M  V30 6004 H 1016.35 6.88995 1.59871 0
M  V30 6005 H 1017.34 6.4684 3.0373 0
M  V30 6006 H 1015.5 8.47002 3.20749 0
M  V30 6007 P 1017.37 7.20834 5.23717 0
M  V30 6008 O 1017.59 7.79853 6.57286 0
M  V30 6009 O 1018.16 7.79239 4.12957 0
M  V30 6010 O 1017.62 5.63315 5.29344 0
M  V30 6011 C 1016.68 4.80255 6.01876 0
M  V30 6012 C 1017.41 3.64202 6.65911 0
M  V30 6013 O 1017.62 2.60694 5.64732 0
M  V30 6014 C 1018.81 3.93473 7.1943 0
M  V30 6015 O 1019.2 3.02071 8.21205 0
M  V30 6016 C 1019.69 3.73047 5.97036 0
M  V30 6017 C 1018.98 2.58828 5.25741 0
M  V30 6018 N 1019.03 2.68068 3.77503 0
M  V30 6019 H 1016.19 5.40332 6.79951 0
M  V30 6020 H 1015.92 4.41613 5.32378 0
M  V30 6021 H 1016.79 3.26331 7.47797 0
M  V30 6022 P 1020.75 2.75334 8.47391 0
M  V30 6023 O 1020.97 2.44571 9.90142 0
M  V30 6024 O 1021.54 3.87688 7.92115 0
M  V30 6025 O 1021 1.4459 7.59357 0
M  V30 6026 C 1020.06 0.347608 7.69215 0
M  V30 6027 C 1020.79 -0.96767 7.52806 0
M  V30 6028 O 1021 -1.21036 6.1011 0
M  V30 6029 C 1022.19 -1.04544 8.13308 0
M  V30 6030 O 1022.58 -2.38311 8.41922 0
M  V30 6031 C 1023.07 -0.491279 7.02284 0
M  V30 6032 C 1022.36 -0.996264 5.77469 0
M  V30 6033 N 1022.41 -0.0501916 4.62973 0
M  V30 6034 H 1019.57 0.374722 8.67691 0
M  V30 6035 H 1019.3 0.443485 6.90277 0
M  V30 6036 H 1020.17 -1.75537 7.96793 0
M  V30 6037 P 1024.13 -2.75334 8.47391 0
M  V30 6038 O 1024.35 -3.84128 9.44797 0
M  V30 6039 O 1024.92 -1.51947 8.68712 0
M  V30 6040 O 1024.38 -3.29363 6.99321 0
M  V30 6041 C 1023.44 -4.24011 6.4274 0
M  V30 6042 C 1024.17 -5.20775 5.52155 0
M  V30 6043 O 1024.38 -4.56534 4.22446 0
M  V30 6044 C 1025.57 -5.62629 5.96531 0
M  V30 6045 O 1025.96 -6.87667 5.41053 0
M  V30 6046 C 1026.45 -4.52537 5.39283 0
M  V30 6047 C 1025.74 -4.20027 4.08623 0
M  V30 6048 N 1025.79 -2.76189 3.71603 0
M  V30 6049 H 1022.95 -4.797 7.24003 0
M  V30 6050 H 1022.68 -3.69856 5.84513 0
M  V30 6051 H 1023.55 -6.10356 5.41441 0
M  V30 6052 P 1027.51 -7.20834 5.23717 0
M  V30 6053 O 1027.73 -8.66274 5.38678 0
M  V30 6054 O 1028.3 -6.33687 6.13629 0
M  V30 6055 O 1027.76 -6.7751 3.72168 0
M  V30 6056 C 1026.82 -7.20919 2.70795 0
M  V30 6057 C 1027.55 -7.45864 1.40599 0
M  V30 6058 O 1027.76 -6.17751 0.734343 0
M  V30 6059 C 1028.95 -8.05906 1.51917 0
M  V30 6060 O 1029.34 -8.74358 0.335205 0
M  V30 6061 C 1029.83 -6.83093 1.70294 0
M  V30 6062 C 1029.12 -5.79992 0.836974 0
M  V30 6063 N 1029.17 -4.41864 1.38293 0
M  V30 6064 C 1029.09 -4.02089 2.69407 0
M  V30 6065 N 1029.16 -2.73403 2.85089 0
M  V30 6066 C 1029.31 -2.25086 1.5642 0
M  V30 6067 C 1029.44 -0.942887 1.04836 0
M  V30 6068 N 1029.45 0.150999 1.80369 0
M  V30 6069 N 1029.56 -0.812565 -0.28167 0
M  V30 6070 C 1029.55 -1.90572 -1.03784 0
M  V30 6071 N 1029.43 -3.167 -0.683905 0
M  V30 6072 C 1029.31 -3.26538 0.652815 0
M  V30 6073 H 1026.34 -8.13738 3.03804 0
M  V30 6074 H 1026.06 -6.42974 2.55559 0
M  V30 6075 H 1026.93 -8.12139 0.792866 0
M  V30 6076 H 1029.59 -5.80178 -0.160643 0
M  V30 6077 H 1029.87 -6.51379 2.75643 0
M  V30 6078 H 1030.86 -7.01832 1.3448 0
M  V30 6079 H 1029.02 -8.73771 2.38364 0
M  V30 6080 H 1028.98 -4.7189 3.52311 0
M  V30 6081 H 1029.36 0.0721434 2.82608 0
M  V30 6082 H 1029.55 1.0785 1.36544 0
M  V30 6083 H 1029.66 -1.73207 -2.10241 0
M  V30 6084 P 1030.89 -8.91 -7.81545e-12 0
M  V30 6085 O 1031.11 -10.1736 -0.733766 0
M  V30 6086 O 1031.68 -8.73247 1.2395 0
M  V30 6087 O 1031.14 -7.66872 -0.971405 0
M  V30 6088 C 1030.2 -7.42212 -2.04614 0
M  V30 6089 C 1030.93 -6.86059 -3.24661 0
M  V30 6090 O 1031.14 -5.42847 -3.03646 0
M  V30 6091 C 1032.33 -7.41196 -3.50753 0
M  V30 6092 O 1032.72 -7.27073 -4.86816 0
M  V30 6093 C 1033.21 -6.5273 -2.63741 0
M  V30 6094 C 1032.5 -5.1842 -2.73198 0
M  V30 6095 N 1032.55 -4.38668 -1.47808 0
M  V30 6096 C 1032.7 -3.02239 -1.60048 0
M  V30 6097 O 1032.79 -2.46459 -2.67869 0
M  V30 6098 N 1032.74 -2.32436 -0.408571 0
M  V30 6099 C 1032.65 -2.85471 0.854993 0
M  V30 6100 C 1032.5 -4.28918 0.887335 0
M  V30 6101 C 1032.45 -5.00349 -0.255399 0
M  V30 6102 H 1029.71 -8.36803 -2.32493 0
M  V30 6103 H 1029.44 -6.701 -1.71105 0
M  V30 6104 H 1030.31 -7.03551 -4.13168 0
M  V30 6105 H 1032.97 -4.59773 -3.53894 0
M  V30 6106 H 1033.25 -6.88995 -1.59871 0
M  V30 6107 H 1034.24 -6.46749 -3.03687 0
M  V30 6108 H 1032.4 -8.46908 -3.20714 0
M  V30 6109 H 1032.33 -6.08548 -0.206986 0
M  V30 6110 P 1034.27 -7.20834 -5.23717 0
M  V30 6111 O 1034.49 -7.79853 -6.57286 0
M  V30 6112 O 1035.06 -7.79239 -4.12957 0
M  V30 6113 O 1034.52 -5.63315 -5.29344 0
M  V30 6114 C 1033.58 -4.80255 -6.01876 0
M  V30 6115 C 1034.31 -3.64202 -6.65911 0
M  V30 6116 O 1034.52 -2.60694 -5.64732 0
M  V30 6117 C 1035.71 -3.93473 -7.1943 0
M  V30 6118 O 1036.1 -3.02071 -8.21205 0
M  V30 6119 C 1036.59 -3.73047 -5.97036 0
M  V30 6120 C 1035.88 -2.58828 -5.25741 0
M  V30 6121 N 1035.93 -2.68068 -3.77503 0
M  V30 6122 H 1033.09 -5.40332 -6.79951 0
M  V30 6123 H 1032.82 -4.41613 -5.32378 0
M  V30 6124 H 1033.69 -3.26331 -7.47797 0
M  V30 6125 P 1037.65 -2.75334 -8.47391 0
M  V30 6126 O 1037.87 -2.44571 -9.90142 0
M  V30 6127 O 1038.44 -3.87688 -7.92115 0
M  V30 6128 O 1037.9 -1.4459 -7.59357 0
M  V30 6129 C 1036.96 -0.347608 -7.69215 0
M  V30 6130 C 1037.69 0.96767 -7.52806 0
M  V30 6131 O 1037.9 1.21036 -6.1011 0
M  V30 6132 C 1039.09 1.04544 -8.13308 0
M  V30 6133 O 1039.48 2.38311 -8.41922 0
M  V30 6134 C 1039.97 0.491279 -7.02284 0
M  V30 6135 C 1039.26 0.996264 -5.77469 0
M  V30 6136 N 1039.31 0.0501916 -4.62973 0
M  V30 6137 H 1036.47 -0.374722 -8.67691 0
M  V30 6138 H 1036.2 -0.443485 -6.90277 0
M  V30 6139 H 1037.07 1.75537 -7.96793 0
M  V30 6140 P 1041.03 2.75334 -8.47391 0
M  V30 6141 O 1041.25 3.84128 -9.44797 0
M  V30 6142 O 1041.82 1.51947 -8.68712 0
M  V30 6143 O 1041.28 3.29363 -6.99321 0
M  V30 6144 C 1040.34 4.24011 -6.4274 0
M  V30 6145 C 1041.07 5.20775 -5.52155 0
M  V30 6146 O 1041.28 4.56534 -4.22446 0
M  V30 6147 C 1042.47 5.62629 -5.96531 0
M  V30 6148 O 1042.86 6.87667 -5.41053 0
M  V30 6149 C 1043.35 4.52537 -5.39283 0
M  V30 6150 C 1042.64 4.20027 -4.08623 0
M  V30 6151 N 1042.69 2.76189 -3.71603 0
M  V30 6152 H 1039.85 4.797 -7.24003 0
M  V30 6153 H 1039.58 3.69856 -5.84513 0
M  V30 6154 H 1040.45 6.10356 -5.41441 0
M  V30 6155 P 1044.41 7.20834 -5.23717 0
M  V30 6156 O 1044.63 8.66104 -5.38572 0
M  V30 6157 O 1045.2 6.33544 -6.1349 0
M  V30 6158 O 1044.66 6.7751 -3.72168 0
M  V30 6159 C 1043.72 7.20825 -2.7076 0
M  V30 6160 C 1044.45 7.45864 -1.40599 0
M  V30 6161 O 1044.66 6.17651 -0.734225 0
M  V30 6162 C 1045.85 8.05808 -1.51899 0
M  V30 6163 O 1046.24 8.74358 -0.335205 0
M  V30 6164 C 1046.73 6.83093 -1.70294 0
M  V30 6165 C 1046.02 5.79992 -0.836974 0
M  V30 6166 N 1046.07 4.41864 -1.38293 0
M  V30 6167 H 1043.23 8.13644 -3.0377 0
M  V30 6168 H 1042.96 6.42788 -2.55485 0
M  V30 6169 H 1043.83 8.12039 -0.792769 0
M  V30 6170 P 1047.79 8.91 7.97264e-12 0
M  V30 6171 O 1048.01 10.1726 0.733694 0
M  V30 6172 O 1048.58 8.73148 -1.23936 0
M  V30 6173 O 1048.04 7.66872 0.971405 0
M  V30 6174 C 1047.1 7.42309 2.04641 0
M  V30 6175 C 1047.83 6.86059 3.24661 0
M  V30 6176 O 1048.04 5.42847 3.03646 0
M  V30 6177 C 1049.23 7.41196 3.50753 0
M  V30 6178 O 1049.62 7.27073 4.86816 0
M  V30 6179 C 1050.11 6.5273 2.63741 0
M  V30 6180 C 1049.4 5.1842 2.73198 0
M  V30 6181 N 1049.45 4.38762 1.4784 0
M  V30 6182 C 1049.37 4.81605 0.168631 0
M  V30 6183 N 1049.45 3.85454 -0.713363 0
M  V30 6184 C 1049.59 2.6994 0.0566958 0
M  V30 6185 C 1049.72 1.34815 -0.338502 0
M  V30 6186 O 1049.74 0.869548 -1.47125 0
M  V30 6187 N 1049.84 0.496304 0.77465 0
M  V30 6188 C 1049.84 0.908403 2.09122 0
M  V30 6189 N 1049.97 -0.0517805 3.00955 0
M  V30 6190 N 1049.71 2.17875 2.46519 0
M  V30 6191 C 1049.59 3.01988 1.4033 0
M  V30 6192 H 1046.61 8.36803 2.32493 0
M  V30 6193 H 1046.34 6.70197 1.71129 0
M  V30 6194 H 1047.21 7.03551 4.13168 0
M  V30 6195 H 1049.87 4.59498 3.54415 0
M  V30 6196 H 1050.15 6.88898 1.59848 0
M  V30 6197 H 1051.14 6.46749 3.03687 0
M  V30 6198 H 1049.3 8.46908 3.20714 0
M  V30 6199 H 1049.25 5.86405 -0.105564 0
M  V30 6200 H 1049.94 -0.483664 0.597855 0
M  V30 6201 H 1049.97 0.187865 4.0116 0
M  V30 6202 H 1050.07 -1.03585 2.71726 0
M  V30 6203 P 1051.17 7.20834 5.23717 0
M  V30 6204 O 1051.39 7.79853 6.57286 0
M  V30 6205 O 1051.96 7.79239 4.12957 0
M  V30 6206 O 1051.42 5.63315 5.29344 0
M  V30 6207 C 1050.48 4.80255 6.01876 0
M  V30 6208 C 1051.21 3.64202 6.65911 0
M  V30 6209 O 1051.42 2.60694 5.64732 0
M  V30 6210 C 1052.61 3.93473 7.1943 0
M  V30 6211 O 1053 3.02071 8.21205 0
M  V30 6212 C 1053.49 3.73047 5.97036 0
M  V30 6213 C 1052.78 2.58828 5.25741 0
M  V30 6214 N 1052.83 2.68068 3.77503 0
M  V30 6215 H 1049.99 5.40332 6.79951 0
M  V30 6216 H 1049.72 4.41613 5.32378 0
M  V30 6217 H 1050.59 3.26331 7.47797 0
M  V30 6218 P 1054.55 2.75334 8.47391 0
M  V30 6219 O 1054.77 2.44595 9.90239 0
M  V30 6220 O 1055.34 3.87732 7.92204 0
M  V30 6221 O 1054.8 1.4459 7.59357 0
M  V30 6222 C 1053.86 0.347608 7.69215 0
M  V30 6223 C 1054.59 -0.96767 7.52806 0
M  V30 6224 O 1054.8 -1.21036 6.1011 0
M  V30 6225 C 1055.99 -1.04544 8.13308 0
M  V30 6226 O 1056.38 -2.38311 8.41922 0
M  V30 6227 C 1056.87 -0.491279 7.02284 0
M  V30 6228 C 1056.16 -0.996264 5.77469 0
M  V30 6229 N 1056.21 -0.0501808 4.62873 0
M  V30 6230 C 1056.36 -0.578037 3.3505 0
M  V30 6231 O 1056.45 -1.8073 3.21711 0
M  V30 6232 N 1056.41 0.468541 2.263 0
M  V30 6233 C 1056.31 1.59186 2.47176 0
M  V30 6234 N 1056.36 2.37626 1.40392 0
M  V30 6235 C 1056.16 2.16203 3.77467 0
M  V30 6236 C 1056.11 1.29324 4.8195 0
M  V30 6237 H 1053.37 0.374679 8.67591 0
M  V30 6238 H 1053.1 0.443421 6.90177 0
M  V30 6239 H 1053.97 -1.75559 7.96891 0
M  V30 6240 H 1056.63 -1.94529 5.46723 0
M  V30 6241 H 1056.91 0.608651 7.04676 0
M  V30 6242 H 1057.9 -0.889672 7.08939 0
M  V30 6243 H 1056.06 -0.43308 9.04564 0
M  V30 6244 H 1055.99 1.67758 5.83046 0
M  V30 6245 H 1056.09 3.23869 3.92281 0
M  V30 6246 H 1056.48 1.96317 0.467202 0
M  V30 6247 H 1056.28 3.39693 1.51142 0
M  V30 6248 P 1057.93 -2.75334 8.47391 0
M  V30 6249 O 1058.15 -3.84204 9.44982 0
M  V30 6250 O 1058.72 -1.51982 8.68909 0
M  V30 6251 O 1058.18 -3.29363 6.99321 0
M  V30 6252 C 1057.24 -4.24066 6.42823 0
M  V30 6253 C 1057.97 -5.20775 5.52155 0
M  V30 6254 O 1058.18 -4.56607 4.22514 0
M  V30 6255 C 1059.37 -5.62697 5.96604 0
M  V30 6256 O 1059.76 -6.87667 5.41053 0
M  V30 6257 C 1060.25 -4.52537 5.39283 0
M  V30 6258 C 1059.54 -4.20027 4.08623 0
M  V30 6259 N 1059.59 -2.76189 3.71603 0
M  V30 6260 H 1056.76 -4.79756 7.24086 0
M  V30 6261 H 1056.48 -3.69963 5.84682 0
M  V30 6262 H 1057.35 -6.10431 5.41508 0
M  V30 6263 H 1060.01 -4.78816 3.28024 0
M  V30 6264 H 1060.29 -3.64957 6.05871 0
M  V30 6265 H 1061.28 -4.88748 5.21323 0
M  V30 6266 H 1059.44 -5.66789 7.0643 0
M  V30 6267 P 1061.31 -7.20834 5.23717 0
M  V30 6268 O 1061.53 -8.66104 5.38572 0
M  V30 6269 O 1062.1 -6.33544 6.1349 0
M  V30 6270 O 1061.56 -6.7751 3.72168 0
M  V30 6271 C 1060.62 -7.20825 2.7076 0
M  V30 6272 C 1061.35 -7.45864 1.40599 0
M  V30 6273 O 1061.56 -6.17651 0.734225 0
M  V30 6274 C 1062.75 -8.05808 1.51899 0
M  V30 6275 O 1063.14 -8.74358 0.335205 0
M  V30 6276 C 1063.63 -6.83093 1.70294 0
M  V30 6277 C 1062.92 -5.79992 0.836974 0
M  V30 6278 N 1062.97 -4.41864 1.38293 0
M  V30 6279 H 1060.13 -8.13644 3.0377 0
M  V30 6280 H 1059.86 -6.42788 2.55485 0
M  V30 6281 H 1060.73 -8.12039 0.792769 0
M  V30 6282 P 1064.69 -8.91 -8.12982e-12 0
M  V30 6283 O 1064.91 -10.1746 -0.733838 0
M  V30 6284 O 1065.48 -8.73346 1.23964 0
M  V30 6285 O 1064.94 -7.66872 -0.971405 0
M  V30 6286 C 1064 -7.42405 -2.04668 0
M  V30 6287 C 1064.73 -6.86059 -3.24661 0
M  V30 6288 O 1064.94 -5.42934 -3.03695 0
M  V30 6289 C 1066.13 -7.41287 -3.50796 0
M  V30 6290 O 1066.52 -7.27073 -4.86816 0
M  V30 6291 C 1067.01 -6.5273 -2.63741 0
M  V30 6292 C 1066.3 -5.1842 -2.73198 0
M  V30 6293 N 1066.35 -4.38762 -1.4784 0
M  V30 6294 H 1063.52 -8.36899 -2.3252 0
M  V30 6295 H 1063.24 -6.70391 -1.71179 0
M  V30 6296 H 1064.11 -7.03638 -4.13219 0
M  V30 6297 H 1066.77 -4.59931 -3.54016 0
M  V30 6298 H 1067.05 -6.88995 -1.59871 0
M  V30 6299 H 1068.04 -6.4684 -3.0373 0
M  V30 6300 H 1066.2 -8.47002 -3.20749 0
M  V30 6301 P 1068.07 -7.20834 -5.23717 0
M  V30 6302 O 1068.29 -7.7993 -6.57351 0
M  V30 6303 O 1068.86 -7.79328 -4.13004 0
M  V30 6304 O 1068.32 -5.63315 -5.29344 0
M  V30 6305 C 1067.38 -4.80193 -6.01798 0
M  V30 6306 C 1068.11 -3.64202 -6.65911 0
M  V30 6307 O 1068.32 -2.60694 -5.64732 0
M  V30 6308 C 1069.51 -3.93473 -7.1943 0
M  V30 6309 O 1069.9 -3.02071 -8.21205 0
M  V30 6310 C 1070.39 -3.73047 -5.97036 0
M  V30 6311 C 1069.68 -2.58828 -5.25741 0
M  V30 6312 N 1069.73 -2.6801 -3.77422 0
M  V30 6313 C 1069.88 -1.50443 -3.07133 0
M  V30 6314 O 1069.97 -0.419406 -3.61576 0
M  V30 6315 N 1069.92 -1.6403 -1.69677 0
M  V30 6316 C 1069.83 -2.81206 -0.986255 0
M  V30 6317 O 1069.88 -2.80892 0.249754 0
M  V30 6318 C 1069.68 -3.99158 -1.80325 0
M  V30 6319 C 1069.57 -5.29309 -1.06921 0
M  V30 6320 C 1069.63 -3.89779 -3.1476 0
M  V30 6321 H 1066.89 -5.40332 -6.79951 0
M  V30 6322 H 1066.62 -4.41549 -5.32301 0
M  V30 6323 H 1067.49 -3.26331 -7.47797 0
M  V30 6324 H 1070.15 -1.6395 -5.56554 0
M  V30 6325 H 1070.43 -4.63439 -5.3432 0
M  V30 6326 H 1071.42 -3.44728 -6.25838 0
M  V30 6327 H 1069.58 -4.96652 -7.57263 0
M  V30 6328 H 1069.51 -4.80159 -3.74441 0
M  V30 6329 H 1070.54 -5.81459 -1.09608 0
M  V30 6330 H 1068.81 -5.9187 -1.54487 0
M  V30 6331 H 1069.29 -5.10095 -0.0220288 0
M  V30 6332 H 1070.03 -0.798962 -1.16664 0
M  V30 6333 P 1071.45 -2.75334 -8.47391 0
M  V30 6334 O 1071.67 -2.44571 -9.90142 0
M  V30 6335 O 1072.24 -3.87688 -7.92115 0
M  V30 6336 O 1071.7 -1.4459 -7.59357 0
M  V30 6337 C 1070.76 -0.347608 -7.69215 0
M  V30 6338 C 1071.49 0.96767 -7.52806 0
M  V30 6339 O 1071.7 1.21036 -6.1011 0
M  V30 6340 C 1072.89 1.04544 -8.13308 0
M  V30 6341 O 1073.28 2.38311 -8.41922 0
M  V30 6342 C 1073.77 0.491279 -7.02284 0
M  V30 6343 C 1073.06 0.996264 -5.77469 0
M  V30 6344 N 1073.11 0.0501916 -4.62973 0
M  V30 6345 H 1070.27 -0.374722 -8.67691 0
M  V30 6346 H 1070 -0.443485 -6.90277 0
M  V30 6347 H 1070.87 1.75537 -7.96793 0
M  V30 6348 P 1074.83 2.75334 -8.47391 0
M  V30 6349 O 1075.05 3.84128 -9.44797 0
M  V30 6350 O 1075.62 1.51947 -8.68712 0
M  V30 6351 O 1075.08 3.29363 -6.99321 0
M  V30 6352 C 1074.14 4.24011 -6.4274 0
M  V30 6353 C 1074.87 5.20775 -5.52155 0
M  V30 6354 O 1075.08 4.56534 -4.22446 0
M  V30 6355 C 1076.27 5.62629 -5.96531 0
M  V30 6356 O 1076.66 6.87667 -5.41053 0
M  V30 6357 C 1077.15 4.52537 -5.39283 0
M  V30 6358 C 1076.44 4.20027 -4.08623 0
M  V30 6359 N 1076.49 2.76189 -3.71603 0
M  V30 6360 H 1073.65 4.797 -7.24003 0
M  V30 6361 H 1073.38 3.69856 -5.84513 0
M  V30 6362 H 1074.25 6.10356 -5.41441 0
M  V30 6363 P 1078.21 7.20834 -5.23717 0
M  V30 6364 O 1078.43 8.66104 -5.38572 0
M  V30 6365 O 1079 6.33544 -6.1349 0
M  V30 6366 O 1078.46 6.7751 -3.72168 0
M  V30 6367 C 1077.52 7.20825 -2.7076 0
M  V30 6368 C 1078.25 7.45864 -1.40599 0
M  V30 6369 O 1078.46 6.17651 -0.734225 0
M  V30 6370 C 1079.65 8.05808 -1.51899 0
M  V30 6371 O 1080.04 8.74358 -0.335205 0
M  V30 6372 C 1080.53 6.83093 -1.70294 0
M  V30 6373 C 1079.82 5.79992 -0.836974 0
M  V30 6374 N 1079.87 4.41864 -1.38293 0
M  V30 6375 H 1077.03 8.13644 -3.0377 0
M  V30 6376 H 1076.76 6.42788 -2.55485 0
M  V30 6377 H 1077.63 8.12039 -0.792769 0
M  V30 6378 P 1081.59 8.91 8.287e-12 0
M  V30 6379 O 1081.81 10.1726 0.733694 0
M  V30 6380 O 1082.38 8.73148 -1.23936 0
M  V30 6381 O 1081.84 7.66872 0.971405 0
M  V30 6382 C 1080.9 7.42309 2.04641 0
M  V30 6383 C 1081.63 6.86059 3.24661 0
M  V30 6384 O 1081.84 5.42847 3.03646 0
M  V30 6385 C 1083.03 7.41196 3.50753 0
M  V30 6386 O 1083.42 7.27073 4.86816 0
M  V30 6387 C 1083.91 6.5273 2.63741 0
M  V30 6388 C 1083.2 5.1842 2.73198 0
M  V30 6389 N 1083.25 4.38762 1.4784 0
M  V30 6390 H 1080.41 8.36803 2.32493 0
M  V30 6391 H 1080.14 6.70197 1.71129 0
M  V30 6392 H 1081.01 7.03551 4.13168 0
M  V30 6393 P 1084.97 7.20834 5.23717 0
M  V30 6394 O 1085.19 7.7993 6.57351 0
M  V30 6395 O 1085.76 7.79328 4.13004 0
M  V30 6396 O 1085.22 5.63315 5.29344 0
M  V30 6397 C 1084.28 4.80193 6.01798 0
M  V30 6398 C 1085.01 3.64202 6.65911 0
M  V30 6399 O 1085.22 2.60694 5.64732 0
M  V30 6400 C 1086.41 3.93473 7.1943 0
M  V30 6401 O 1086.8 3.02071 8.21205 0
M  V30 6402 C 1087.29 3.73047 5.97036 0
M  V30 6403 C 1086.58 2.58828 5.25741 0
M  V30 6404 N 1086.63 2.6801 3.77422 0
M  V30 6405 C 1086.78 1.50443 3.07133 0
M  V30 6406 O 1086.87 0.419406 3.61576 0
M  V30 6407 N 1086.82 1.6403 1.69677 0
M  V30 6408 C 1086.73 2.81206 0.986255 0
M  V30 6409 O 1086.78 2.80892 -0.249754 0
M  V30 6410 C 1086.58 3.99158 1.80325 0
M  V30 6411 C 1086.47 5.29309 1.06921 0
M  V30 6412 C 1086.53 3.89779 3.1476 0
M  V30 6413 H 1083.79 5.40332 6.79951 0
M  V30 6414 H 1083.52 4.41549 5.32301 0
M  V30 6415 H 1084.39 3.26331 7.47797 0
M  V30 6416 H 1087.05 1.6395 5.56554 0
M  V30 6417 H 1087.33 4.63439 5.3432 0
M  V30 6418 H 1088.32 3.44728 6.25838 0
M  V30 6419 H 1086.48 4.96652 7.57263 0
M  V30 6420 H 1086.41 4.80159 3.74441 0
M  V30 6421 H 1087.44 5.81459 1.09608 0
M  V30 6422 H 1085.71 5.9187 1.54487 0
M  V30 6423 H 1086.19 5.10095 0.0220288 0
M  V30 6424 H 1086.93 0.798962 1.16664 0
M  V30 6425 P 1088.35 2.75334 8.47391 0
M  V30 6426 O 1088.57 2.44571 9.90142 0
M  V30 6427 O 1089.14 3.87688 7.92115 0
M  V30 6428 O 1088.6 1.4459 7.59357 0
M  V30 6429 C 1087.66 0.347608 7.69215 0
M  V30 6430 C 1088.39 -0.96767 7.52806 0
M  V30 6431 O 1088.6 -1.21036 6.1011 0
M  V30 6432 C 1089.79 -1.04544 8.13308 0
M  V30 6433 O 1090.18 -2.38311 8.41922 0
M  V30 6434 C 1090.67 -0.491279 7.02284 0
M  V30 6435 C 1089.96 -0.996264 5.77469 0
M  V30 6436 N 1090.01 -0.0501916 4.62973 0
M  V30 6437 H 1087.17 0.374722 8.67691 0
M  V30 6438 H 1086.9 0.443485 6.90277 0
M  V30 6439 H 1087.77 -1.75537 7.96793 0
M  V30 6440 P 1091.73 -2.75334 8.47391 0
M  V30 6441 O 1091.95 -3.84128 9.44797 0
M  V30 6442 O 1092.52 -1.51947 8.68712 0
M  V30 6443 O 1091.98 -3.29363 6.99321 0
M  V30 6444 C 1091.04 -4.24011 6.4274 0
M  V30 6445 C 1091.77 -5.20775 5.52155 0
M  V30 6446 O 1091.98 -4.56534 4.22446 0
M  V30 6447 C 1093.17 -5.62629 5.96531 0
M  V30 6448 O 1093.56 -6.87667 5.41053 0
M  V30 6449 C 1094.05 -4.52537 5.39283 0
M  V30 6450 C 1093.34 -4.20027 4.08623 0
M  V30 6451 N 1093.39 -2.76189 3.71603 0
M  V30 6452 C 1093.31 -1.64862 4.52822 0
M  V30 6453 N 1093.39 -0.512671 3.88633 0
M  V30 6454 C 1093.53 -0.888083 2.54977 0
M  V30 6455 C 1093.66 -0.094668 1.38677 0
M  V30 6456 O 1093.68 1.13053 1.28163 0
M  V30 6457 N 1093.78 -0.890102 0.232633 0
M  V30 6458 C 1093.78 -2.26958 0.21772 0
M  V30 6459 N 1093.91 -2.84626 -0.97925 0
M  V30 6460 N 1093.65 -3.0178 1.31033 0
M  V30 6461 C 1093.53 -2.26781 2.43843 0
M  V30 6462 H 1090.55 -4.797 7.24003 0
M  V30 6463 H 1090.28 -3.69856 5.84513 0
M  V30 6464 H 1091.15 -6.10356 5.41441 0
M  V30 6465 H 1093.81 -4.79061 3.27488 0
M  V30 6466 H 1094.09 -3.64906 6.05785 0
M  V30 6467 H 1095.08 -4.8868 5.2125 0
M  V30 6468 H 1093.24 -5.66726 7.06352 0
M  V30 6469 H 1093.19 -1.71169 5.60966 0
M  V30 6470 H 1093.88 -0.419134 -0.644739 0
M  V30 6471 H 1093.91 -3.87332 -1.06098 0
M  V30 6472 H 1094.01 -2.26417 -1.82483 0
M  V30 6473 P 1095.11 -7.20834 5.23717 0
M  V30 6474 O 1095.33 -8.66104 5.38572 0
M  V30 6475 O 1095.9 -6.33544 6.1349 0
M  V30 6476 O 1095.36 -6.7751 3.72168 0
M  V30 6477 C 1094.42 -7.20825 2.7076 0
M  V30 6478 C 1095.15 -7.45864 1.40599 0
M  V30 6479 O 1095.36 -6.17651 0.734225 0
M  V30 6480 C 1096.55 -8.05808 1.51899 0
M  V30 6481 O 1096.94 -8.74358 0.335205 0
M  V30 6482 C 1097.43 -6.83093 1.70294 0
M  V30 6483 C 1096.72 -5.79992 0.836974 0
M  V30 6484 N 1096.77 -4.41864 1.38293 0
M  V30 6485 H 1093.93 -8.13644 3.0377 0
M  V30 6486 H 1093.66 -6.42788 2.55485 0
M  V30 6487 H 1094.53 -8.12039 0.792769 0
M  V30 6488 P 1098.49 -8.91 -8.44418e-12 0
M  V30 6489 O 1098.71 -10.1726 -0.733694 0
M  V30 6490 O 1099.28 -8.73148 1.23936 0
M  V30 6491 O 1098.74 -7.66872 -0.971405 0
M  V30 6492 C 1097.8 -7.42309 -2.04641 0
M  V30 6493 C 1098.53 -6.86059 -3.24661 0
M  V30 6494 O 1098.74 -5.42847 -3.03646 0
M  V30 6495 C 1099.93 -7.41196 -3.50753 0
M  V30 6496 O 1100.32 -7.27073 -4.86816 0
M  V30 6497 C 1100.81 -6.5273 -2.63741 0
M  V30 6498 C 1100.1 -5.1842 -2.73198 0
M  V30 6499 N 1100.15 -4.38762 -1.4784 0
M  V30 6500 H 1097.31 -8.36803 -2.32493 0
M  V30 6501 H 1097.04 -6.70197 -1.71129 0
M  V30 6502 H 1097.91 -7.03551 -4.13168 0
M  V30 6503 P 1101.87 -7.20834 -5.23717 0
M  V30 6504 O 1102.09 -7.80006 -6.57415 0
M  V30 6505 O 1102.66 -7.79416 -4.13051 0
M  V30 6506 O 1102.12 -5.63315 -5.29344 0
M  V30 6507 C 1101.18 -4.80318 -6.01954 0
M  V30 6508 C 1101.91 -3.64202 -6.65911 0
M  V30 6509 O 1102.12 -2.60736 -5.64823 0
M  V30 6510 C 1103.31 -3.93521 -7.19518 0
M  V30 6511 O 1103.7 -3.02071 -8.21205 0
M  V30 6512 C 1104.19 -3.73047 -5.97036 0
M  V30 6513 C 1103.48 -2.58828 -5.25741 0
M  V30 6514 N 1103.53 -2.68068 -3.77503 0
M  V30 6515 C 1103.45 -3.80474 -2.99159 0
M  V30 6516 N 1103.52 -3.55622 -1.71925 0
M  V30 6517 C 1103.67 -2.1832 -1.65733 0
M  V30 6518 C 1103.8 -1.28842 -0.572777 0
M  V30 6519 N 1103.81 -1.66875 0.70098 0
M  V30 6520 N 1103.92 0.016788 -0.859836 0
M  V30 6521 C 1103.91 0.398145 -2.13316 0
M  V30 6522 N 1103.79 -0.328224 -3.22333 0
M  V30 6523 C 1103.67 -1.62992 -2.90383 0
M  V30 6524 H 1100.7 -5.40394 -6.8003 0
M  V30 6525 H 1100.42 -4.41741 -5.32532 0
M  V30 6526 H 1101.29 -3.26371 -7.47889 0
M  V30 6527 H 1103.95 -1.64007 -5.56746 0
M  V30 6528 H 1104.23 -4.63439 -5.3432 0
M  V30 6529 H 1105.22 -3.44776 -6.25925 0
M  V30 6530 H 1103.38 -4.96707 -7.57347 0
M  V30 6531 H 1103.34 -4.8089 -3.39924 0
M  V30 6532 H 1103.72 -2.66547 0.941919 0
M  V30 6533 H 1103.91 -0.965341 1.44766 0
M  V30 6534 H 1104.02 1.46427 -2.29697 0
M  V30 6535 P 1105.25 -2.75334 -8.47391 0
M  V30 6536 O 1105.47 -2.44571 -9.90142 0
M  V30 6537 O 1106.04 -3.87688 -7.92115 0
M  V30 6538 O 1105.5 -1.4459 -7.59357 0
M  V30 6539 C 1104.56 -0.347608 -7.69215 0
M  V30 6540 C 1105.29 0.96767 -7.52806 0
M  V30 6541 O 1105.5 1.21036 -6.1011 0
M  V30 6542 C 1106.69 1.04544 -8.13308 0
M  V30 6543 O 1107.08 2.38311 -8.41922 0
M  V30 6544 C 1107.57 0.491279 -7.02284 0
M  V30 6545 C 1106.86 0.996264 -5.77469 0
M  V30 6546 N 1106.91 0.0501916 -4.62973 0
M  V30 6547 H 1104.07 -0.374722 -8.67691 0
M  V30 6548 H 1103.8 -0.443485 -6.90277 0
M  V30 6549 H 1104.67 1.75537 -7.96793 0
M  V30 6550 P 1108.63 2.75334 -8.47391 0
M  V30 6551 O 1108.85 3.84204 -9.44982 0
M  V30 6552 O 1109.42 1.51982 -8.68909 0
M  V30 6553 O 1108.88 3.29363 -6.99321 0
M  V30 6554 C 1107.94 4.24066 -6.42823 0
M  V30 6555 C 1108.67 5.20775 -5.52155 0
M  V30 6556 O 1108.88 4.56607 -4.22514 0
M  V30 6557 C 1110.07 5.62697 -5.96604 0
M  V30 6558 O 1110.46 6.87667 -5.41053 0
M  V30 6559 C 1110.95 4.52537 -5.39283 0
M  V30 6560 C 1110.24 4.20027 -4.08623 0
M  V30 6561 N 1110.29 2.76189 -3.71603 0
M  V30 6562 C 1110.21 1.66944 -4.54297 0
M  V30 6563 N 1110.28 0.536169 -3.91344 0
M  V30 6564 C 1110.43 0.901569 -2.58849 0
M  V30 6565 C 1110.56 0.146599 -1.40236 0
M  V30 6566 N 1110.57 -1.18234 -1.37046 0
M  V30 6567 N 1110.68 0.822941 -0.249738 0
M  V30 6568 C 1110.67 2.15179 -0.280525 0
M  V30 6569 N 1110.55 2.96414 -1.30822 0
M  V30 6570 C 1110.43 2.25804 -2.44748 0
M  V30 6571 H 1107.46 4.79756 -7.24086 0
M  V30 6572 H 1107.18 3.69963 -5.84682 0
M  V30 6573 H 1108.05 6.10431 -5.41508 0
M  V30 6574 H 1110.71 4.78816 -3.28024 0
M  V30 6575 H 1110.99 3.64957 -6.05871 0
M  V30 6576 H 1111.98 4.88748 -5.21323 0
M  V30 6577 H 1110.14 5.66789 -7.0643 0
M  V30 6578 H 1110.1 1.74684 -5.62396 0
M  V30 6579 H 1110.48 -1.71949 -2.24394 0
M  V30 6580 H 1110.67 -1.67511 -0.470742 0
M  V30 6581 H 1110.78 2.63704 0.6828 0
M  V30 6582 P 1112.01 7.20834 -5.23717 0
M  V30 6583 O 1112.23 8.66274 -5.38678 0
M  V30 6584 O 1112.8 6.33687 -6.13629 0
M  V30 6585 O 1112.26 6.7751 -3.72168 0
M  V30 6586 C 1111.32 7.20919 -2.70795 0
M  V30 6587 C 1112.05 7.45864 -1.40599 0
M  V30 6588 O 1112.26 6.17751 -0.734343 0
M  V30 6589 C 1113.45 8.05906 -1.51917 0
M  V30 6590 O 1113.84 8.74358 -0.335205 0
M  V30 6591 C 1114.33 6.83093 -1.70294 0
M  V30 6592 C 1113.62 5.79992 -0.836974 0
M  V30 6593 N 1113.67 4.41864 -1.38293 0
M  V30 6594 H 1110.84 8.13738 -3.03804 0
M  V30 6595 H 1110.56 6.42974 -2.55559 0
M  V30 6596 H 1111.43 8.12139 -0.792866 0
M  V30 6597 H 1114.09 5.80178 0.160643 0
M  V30 6598 H 1114.37 6.51379 -2.75643 0
M  V30 6599 H 1115.36 7.01832 -1.3448 0
M  V30 6600 H 1113.52 8.73771 -2.38364 0
M  V30 6601 P 1115.39 8.91 8.60137e-12 0
M  V30 6602 O 1115.61 10.1726 0.733694 0
M  V30 6603 O 1116.18 8.73148 -1.23936 0
M  V30 6604 O 1115.64 7.66872 0.971405 0
M  V30 6605 C 1114.7 7.42309 2.04641 0
M  V30 6606 C 1115.43 6.86059 3.24661 0
M  V30 6607 O 1115.64 5.42847 3.03646 0
M  V30 6608 C 1116.83 7.41196 3.50753 0
M  V30 6609 O 1117.22 7.27073 4.86816 0
M  V30 6610 C 1117.71 6.5273 2.63741 0
M  V30 6611 C 1117 5.1842 2.73198 0
M  V30 6612 N 1117.05 4.38762 1.4784 0
M  V30 6613 C 1116.97 4.81605 0.168631 0
M  V30 6614 N 1117.05 3.85454 -0.713363 0
M  V30 6615 C 1117.19 2.6994 0.0566958 0
M  V30 6616 C 1117.32 1.34815 -0.338502 0
M  V30 6617 N 1117.44 0.496304 0.77465 0
M  V30 6618 C 1117.44 0.908403 2.09122 0
M  V30 6619 N 1117.57 -0.0517805 3.00955 0
M  V30 6620 N 1117.31 2.17875 2.46519 0
M  V30 6621 C 1117.19 3.01988 1.4033 0
M  V30 6622 H 1114.21 8.36803 2.32493 0
M  V30 6623 H 1113.94 6.70197 1.71129 0
M  V30 6624 H 1114.81 7.03551 4.13168 0
M  V30 6625 P 1118.77 7.20834 5.23717 0
M  V30 6626 O 1118.99 7.79853 6.57286 0
M  V30 6627 O 1119.56 7.79239 4.12957 0
M  V30 6628 O 1119.02 5.63315 5.29344 0
M  V30 6629 C 1118.08 4.80255 6.01876 0
M  V30 6630 C 1118.81 3.64202 6.65911 0
M  V30 6631 O 1119.02 2.60694 5.64732 0
M  V30 6632 C 1120.21 3.93473 7.1943 0
M  V30 6633 O 1120.6 3.02071 8.21205 0
M  V30 6634 C 1121.09 3.73047 5.97036 0
M  V30 6635 C 1120.38 2.58828 5.25741 0
M  V30 6636 N 1120.43 2.68068 3.77503 0
M  V30 6637 H 1117.59 5.40332 6.79951 0
M  V30 6638 H 1117.32 4.41613 5.32378 0
M  V30 6639 H 1118.19 3.26331 7.47797 0
M  V30 6640 P 1122.15 2.75334 8.47391 0
M  V30 6641 O 1122.37 2.44571 9.90142 0
M  V30 6642 O 1122.94 3.87688 7.92115 0
M  V30 6643 O 1122.4 1.4459 7.59357 0
M  V30 6644 C 1121.46 0.347608 7.69215 0
M  V30 6645 C 1122.19 -0.96767 7.52806 0
M  V30 6646 O 1122.4 -1.21036 6.1011 0
M  V30 6647 C 1123.59 -1.04544 8.13308 0
M  V30 6648 O 1123.98 -2.38311 8.41922 0
M  V30 6649 C 1124.47 -0.491279 7.02284 0
M  V30 6650 C 1123.76 -0.996264 5.77469 0
M  V30 6651 N 1123.81 -0.0501916 4.62973 0
M  V30 6652 H 1120.97 0.374722 8.67691 0
M  V30 6653 H 1120.7 0.443485 6.90277 0
M  V30 6654 H 1121.57 -1.75537 7.96793 0
M  V30 6655 P 1125.53 -2.75334 8.47391 0
M  V30 6656 O 1125.75 -3.84128 9.44797 0
M  V30 6657 O 1126.32 -1.51947 8.68712 0
M  V30 6658 O 1125.78 -3.29363 6.99321 0
M  V30 6659 C 1124.84 -4.24011 6.4274 0
M  V30 6660 C 1125.57 -5.20775 5.52155 0
M  V30 6661 O 1125.78 -4.56534 4.22446 0
M  V30 6662 C 1126.97 -5.62629 5.96531 0
M  V30 6663 O 1127.36 -6.87667 5.41053 0
M  V30 6664 C 1127.85 -4.52537 5.39283 0
M  V30 6665 C 1127.14 -4.20027 4.08623 0
M  V30 6666 N 1127.19 -2.76189 3.71603 0
M  V30 6667 H 1124.35 -4.797 7.24003 0
M  V30 6668 H 1124.08 -3.69856 5.84513 0
M  V30 6669 H 1124.95 -6.10356 5.41441 0
M  V30 6670 P 1128.91 -7.20834 5.23717 0
M  V30 6671 O 1129.13 -8.66104 5.38572 0
M  V30 6672 O 1129.7 -6.33544 6.1349 0
M  V30 6673 O 1129.16 -6.7751 3.72168 0
M  V30 6674 C 1128.22 -7.20825 2.7076 0
M  V30 6675 C 1128.95 -7.45864 1.40599 0
M  V30 6676 O 1129.16 -6.17651 0.734225 0
M  V30 6677 C 1130.35 -8.05808 1.51899 0
M  V30 6678 O 1130.74 -8.74358 0.335205 0
M  V30 6679 C 1131.23 -6.83093 1.70294 0
M  V30 6680 C 1130.52 -5.79992 0.836974 0
M  V30 6681 N 1130.57 -4.41864 1.38293 0
M  V30 6682 H 1127.73 -8.13644 3.0377 0
M  V30 6683 H 1127.46 -6.42788 2.55485 0
M  V30 6684 H 1128.33 -8.12039 0.792769 0
M  V30 6685 P 1132.29 -8.91 -8.75855e-12 0
M  V30 6686 O 1132.51 -10.1726 -0.733694 0
M  V30 6687 O 1133.08 -8.73148 1.23936 0
M  V30 6688 O 1132.54 -7.66872 -0.971405 0
M  V30 6689 C 1131.6 -7.42309 -2.04641 0
M  V30 6690 C 1132.33 -6.86059 -3.24661 0
M  V30 6691 O 1132.54 -5.42847 -3.03646 0
M  V30 6692 C 1133.73 -7.41196 -3.50753 0
M  V30 6693 O 1134.12 -7.27073 -4.86816 0
M  V30 6694 C 1134.61 -6.5273 -2.63741 0
M  V30 6695 C 1133.9 -5.1842 -2.73198 0
M  V30 6696 N 1133.95 -4.38762 -1.4784 0
M  V30 6697 H 1131.11 -8.36803 -2.32493 0
M  V30 6698 H 1130.84 -6.70197 -1.71129 0
M  V30 6699 H 1131.71 -7.03551 -4.13168 0
M  V30 6700 P 1135.67 -7.20834 -5.23717 0
M  V30 6701 O 1135.89 -7.79853 -6.57286 0
M  V30 6702 O 1136.46 -7.79239 -4.12957 0
M  V30 6703 O 1135.92 -5.63315 -5.29344 0
M  V30 6704 C 1134.98 -4.80255 -6.01876 0
M  V30 6705 C 1135.71 -3.64202 -6.65911 0
M  V30 6706 O 1135.92 -2.60694 -5.64732 0
M  V30 6707 C 1137.11 -3.93473 -7.1943 0
M  V30 6708 O 1137.5 -3.02071 -8.21205 0
M  V30 6709 C 1137.99 -3.73047 -5.97036 0
M  V30 6710 C 1137.28 -2.58828 -5.25741 0
M  V30 6711 N 1137.33 -2.68068 -3.77503 0
M  V30 6712 H 1134.49 -5.40332 -6.79951 0
M  V30 6713 H 1134.22 -4.41613 -5.32378 0
M  V30 6714 H 1135.09 -3.26331 -7.47797 0
M  V30 6715 P 1139.05 -2.75334 -8.47391 0
M  V30 6716 O 1139.27 -2.44571 -9.90142 0
M  V30 6717 O 1139.84 -3.87688 -7.92115 0
M  V30 6718 O 1139.3 -1.4459 -7.59357 0
M  V30 6719 C 1138.36 -0.347608 -7.69215 0
M  V30 6720 C 1139.09 0.96767 -7.52806 0
M  V30 6721 O 1139.3 1.21036 -6.1011 0
M  V30 6722 C 1140.49 1.04544 -8.13308 0
M  V30 6723 O 1140.88 2.38311 -8.41922 0
M  V30 6724 C 1141.37 0.491279 -7.02284 0
M  V30 6725 C 1140.66 0.996264 -5.77469 0
M  V30 6726 N 1140.71 0.0501916 -4.62973 0
M  V30 6727 H 1137.87 -0.374722 -8.67691 0
M  V30 6728 H 1137.6 -0.443485 -6.90277 0
M  V30 6729 H 1138.47 1.75537 -7.96793 0
M  V30 6730 P 1142.43 2.75334 -8.47391 0
M  V30 6731 O 1142.65 3.84128 -9.44797 0
M  V30 6732 O 1143.22 1.51947 -8.68712 0
M  V30 6733 O 1142.68 3.29363 -6.99321 0
M  V30 6734 C 1141.74 4.24011 -6.4274 0
M  V30 6735 C 1142.47 5.20775 -5.52155 0
M  V30 6736 O 1142.68 4.56534 -4.22446 0
M  V30 6737 C 1143.87 5.62629 -5.96531 0
M  V30 6738 O 1144.26 6.87667 -5.41053 0
M  V30 6739 C 1144.75 4.52537 -5.39283 0
M  V30 6740 C 1144.04 4.20027 -4.08623 0
M  V30 6741 N 1144.09 2.76189 -3.71603 0
M  V30 6742 H 1141.25 4.797 -7.24003 0
M  V30 6743 H 1140.98 3.69856 -5.84513 0
M  V30 6744 H 1141.85 6.10356 -5.41441 0
M  V30 6745 P 1145.81 7.20834 -5.23717 0
M  V30 6746 O 1146.03 8.66104 -5.38572 0
M  V30 6747 O 1146.6 6.33544 -6.1349 0
M  V30 6748 O 1146.06 6.7751 -3.72168 0
M  V30 6749 C 1145.12 7.20825 -2.7076 0
M  V30 6750 C 1145.85 7.45864 -1.40599 0
M  V30 6751 O 1146.06 6.17651 -0.734225 0
M  V30 6752 C 1147.25 8.05808 -1.51899 0
M  V30 6753 O 1147.64 8.74358 -0.335205 0
M  V30 6754 C 1148.13 6.83093 -1.70294 0
M  V30 6755 C 1147.42 5.79992 -0.836974 0
M  V30 6756 N 1147.47 4.41864 -1.38293 0
M  V30 6757 H 1144.63 8.13644 -3.0377 0
M  V30 6758 H 1144.36 6.42788 -2.55485 0
M  V30 6759 H 1145.23 8.12039 -0.792769 0
M  V30 6760 P 1149.19 8.91 8.91573e-12 0
M  V30 6761 O 1149.41 10.1726 0.733694 0
M  V30 6762 O 1149.98 8.73148 -1.23936 0
M  V30 6763 O 1149.44 7.66872 0.971405 0
M  V30 6764 C 1148.5 7.42309 2.04641 0
M  V30 6765 C 1149.23 6.86059 3.24661 0
M  V30 6766 O 1149.44 5.42847 3.03646 0
M  V30 6767 C 1150.63 7.41196 3.50753 0
M  V30 6768 O 1151.02 7.27073 4.86816 0
M  V30 6769 C 1151.51 6.5273 2.63741 0
M  V30 6770 C 1150.8 5.1842 2.73198 0
M  V30 6771 N 1150.85 4.38762 1.4784 0
M  V30 6772 H 1148.01 8.36803 2.32493 0
M  V30 6773 H 1147.74 6.70197 1.71129 0
M  V30 6774 H 1148.61 7.03551 4.13168 0
M  V30 6775 P 1152.57 7.20834 5.23717 0
M  V30 6776 O 1152.79 7.79853 6.57286 0
M  V30 6777 O 1153.36 7.79239 4.12957 0
M  V30 6778 O 1152.82 5.63315 5.29344 0
M  V30 6779 C 1151.88 4.80255 6.01876 0
M  V30 6780 C 1152.61 3.64202 6.65911 0
M  V30 6781 O 1152.82 2.60694 5.64732 0
M  V30 6782 C 1154.01 3.93473 7.1943 0
M  V30 6783 O 1154.4 3.02071 8.21205 0
M  V30 6784 C 1154.89 3.73047 5.97036 0
M  V30 6785 C 1154.18 2.58828 5.25741 0
M  V30 6786 N 1154.23 2.68068 3.77503 0
M  V30 6787 H 1151.39 5.40332 6.79951 0
M  V30 6788 H 1151.12 4.41613 5.32378 0
M  V30 6789 H 1151.99 3.26331 7.47797 0
M  V30 6790 P 1155.95 2.75334 8.47391 0
M  V30 6791 O 1156.17 2.44571 9.90142 0
M  V30 6792 O 1156.74 3.87688 7.92115 0
M  V30 6793 O 1156.2 1.4459 7.59357 0
M  V30 6794 C 1155.26 0.347608 7.69215 0
M  V30 6795 C 1155.99 -0.96767 7.52806 0
M  V30 6796 O 1156.2 -1.21036 6.1011 0
M  V30 6797 C 1157.39 -1.04544 8.13308 0
M  V30 6798 O 1157.78 -2.38311 8.41922 0
M  V30 6799 C 1158.27 -0.491279 7.02284 0
M  V30 6800 C 1157.56 -0.996264 5.77469 0
M  V30 6801 N 1157.61 -0.0501916 4.62973 0
M  V30 6802 H 1154.77 0.374722 8.67691 0
M  V30 6803 H 1154.5 0.443485 6.90277 0
M  V30 6804 H 1155.37 -1.75537 7.96793 0
M  V30 6805 P 1159.33 -2.75334 8.47391 0
M  V30 6806 O 1159.55 -3.84128 9.44797 0
M  V30 6807 O 1160.12 -1.51947 8.68712 0
M  V30 6808 O 1159.58 -3.29363 6.99321 0
M  V30 6809 C 1158.64 -4.24011 6.4274 0
M  V30 6810 C 1159.37 -5.20775 5.52155 0
M  V30 6811 O 1159.58 -4.56534 4.22446 0
M  V30 6812 C 1160.77 -5.62629 5.96531 0
M  V30 6813 O 1161.16 -6.87667 5.41053 0
M  V30 6814 C 1161.65 -4.52537 5.39283 0
M  V30 6815 C 1160.94 -4.20027 4.08623 0
M  V30 6816 N 1160.99 -2.76189 3.71603 0
M  V30 6817 C 1160.91 -1.64862 4.52822 0
M  V30 6818 N 1160.99 -0.512671 3.88633 0
M  V30 6819 C 1161.13 -0.888083 2.54977 0
M  V30 6820 C 1161.26 -0.094668 1.38677 0
M  V30 6821 O 1161.28 1.13053 1.28163 0
M  V30 6822 N 1161.38 -0.890102 0.232633 0
M  V30 6823 C 1161.38 -2.26958 0.21772 0
M  V30 6824 N 1161.51 -2.84626 -0.97925 0
M  V30 6825 N 1161.25 -3.0178 1.31033 0
M  V30 6826 C 1161.13 -2.26781 2.43843 0
M  V30 6827 H 1158.15 -4.797 7.24003 0
M  V30 6828 H 1157.88 -3.69856 5.84513 0
M  V30 6829 H 1158.75 -6.10356 5.41441 0
M  V30 6830 H 1161.41 -4.79061 3.27488 0
M  V30 6831 H 1161.69 -3.64906 6.05785 0
M  V30 6832 H 1162.68 -4.8868 5.2125 0
M  V30 6833 H 1160.84 -5.66726 7.06352 0
M  V30 6834 H 1160.79 -1.71169 5.60966 0
M  V30 6835 H 1161.48 -0.419134 -0.644739 0
M  V30 6836 H 1161.51 -3.87332 -1.06098 0
M  V30 6837 H 1161.61 -2.26417 -1.82483 0
M  V30 6838 P 1162.71 -7.20834 5.23717 0
M  V30 6839 O 1162.93 -8.66189 5.38625 0
M  V30 6840 O 1163.5 -6.33615 6.1356 0
M  V30 6841 O 1162.96 -6.7751 3.72168 0
M  V30 6842 C 1162.02 -7.20732 2.70725 0
M  V30 6843 C 1162.75 -7.45864 1.40599 0
M  V30 6844 O 1162.96 -6.17651 0.734225 0
M  V30 6845 C 1164.15 -8.05808 1.51899 0
M  V30 6846 O 1164.54 -8.74358 0.335205 0
M  V30 6847 C 1165.03 -6.83093 1.70294 0
M  V30 6848 C 1164.32 -5.79992 0.836974 0
M  V30 6849 N 1164.37 -4.41769 1.38263 0
M  V30 6850 C 1164.52 -3.38591 0.481702 0
M  V30 6851 O 1164.61 -3.56839 -0.718452 0
M  V30 6852 N 1164.56 -2.1206 1.03569 0
M  V30 6853 C 1164.47 -1.80696 2.36966 0
M  V30 6854 O 1164.52 -0.630473 2.74862 0
M  V30 6855 C 1164.32 -2.94845 3.23898 0
M  V30 6856 C 1164.21 -2.65253 4.70362 0
M  V30 6857 C 1164.27 -4.19803 2.73435 0
M  V30 6858 H 1161.53 -8.13644 3.0377 0
M  V30 6859 H 1161.26 -6.42695 2.55448 0
M  V30 6860 H 1162.13 -8.12039 0.792769 0
M  V30 6861 H 1164.79 -5.79978 -0.160587 0
M  V30 6862 H 1165.07 -6.51379 2.75643 0
M  V30 6863 H 1166.06 -7.01734 1.34462 0
M  V30 6864 H 1164.22 -8.73674 2.38337 0
M  V30 6865 H 1164.15 -5.04492 3.4095 0
M  V30 6866 H 1165.18 -2.83924 5.1913 0
M  V30 6867 H 1163.45 -3.29824 5.15163 0
M  V30 6868 H 1163.93 -1.59723 4.84449 0
M  V30 6869 H 1164.67 -1.35644 0.399345 0
M  V30 6870 P 1166.09 -8.91 -9.07291e-12 0
M  V30 6871 O 1166.31 -10.1736 -0.733766 0
M  V30 6872 O 1166.88 -8.73247 1.2395 0
M  V30 6873 O 1166.34 -7.66872 -0.971405 0
M  V30 6874 C 1165.4 -7.42309 -2.04641 0
M  V30 6875 C 1166.13 -6.86059 -3.24661 0
M  V30 6876 O 1166.34 -5.42847 -3.03646 0
M  V30 6877 C 1167.53 -7.41196 -3.50753 0
M  V30 6878 O 1167.92 -7.27073 -4.86816 0
M  V30 6879 C 1168.41 -6.5273 -2.63741 0
M  V30 6880 C 1167.7 -5.1842 -2.73198 0
M  V30 6881 N 1167.75 -4.38668 -1.47808 0
M  V30 6882 C 1167.9 -3.00789 -1.58511 0
M  V30 6883 O 1167.99 -2.50116 -2.71298 0
M  V30 6884 N 1167.95 -2.29703 -0.253698 0
M  V30 6885 C 1167.85 -2.84269 0.750133 0
M  V30 6886 N 1167.9 -2.06951 1.82612 0
M  V30 6887 C 1167.7 -4.25803 0.889776 0
M  V30 6888 C 1167.65 -4.98326 -0.259363 0
M  V30 6889 H 1164.91 -8.36707 -2.32466 0
M  V30 6890 H 1164.64 -6.701 -1.71105 0
M  V30 6891 H 1165.51 -7.03638 -4.13219 0
M  V30 6892 H 1168.17 -4.59852 -3.53955 0
M  V30 6893 H 1168.45 -6.88995 -1.59871 0
M  V30 6894 H 1169.44 -6.46749 -3.03687 0
M  V30 6895 H 1167.6 -8.46908 -3.20714 0
M  V30 6896 H 1167.53 -6.06349 -0.206238 0
M  V30 6897 H 1167.63 -4.73163 1.86796 0
M  V30 6898 H 1168.02 -1.05099 1.72271 0
M  V30 6899 H 1167.82 -2.48716 2.76361 0
M  V30 6900 P 1169.47 -7.20834 -5.23717 0
M  V30 6901 O 1169.69 -7.7993 -6.57351 0
M  V30 6902 O 1170.26 -7.79328 -4.13004 0
M  V30 6903 O 1169.72 -5.63315 -5.29344 0
M  V30 6904 C 1168.78 -4.80255 -6.01876 0
M  V30 6905 C 1169.51 -3.64202 -6.65911 0
M  V30 6906 O 1169.72 -2.60694 -5.64732 0
M  V30 6907 C 1170.91 -3.93473 -7.1943 0
M  V30 6908 O 1171.3 -3.02071 -8.21205 0
M  V30 6909 C 1171.79 -3.73047 -5.97036 0
M  V30 6910 C 1171.08 -2.58828 -5.25741 0
M  V30 6911 N 1171.13 -2.6801 -3.77422 0
M  V30 6912 C 1171.28 -1.50173 -3.05038 0
M  V30 6913 O 1171.37 -0.428832 -3.665 0
M  V30 6914 N 1171.33 -1.70922 -1.55541 0
M  V30 6915 C 1171.23 -2.7407 -1.06402 0
M  V30 6916 N 1171.28 -2.74764 0.260931 0
M  V30 6917 C 1171.08 -3.96781 -1.78296 0
M  V30 6918 C 1171.03 -3.87909 -3.13891 0
M  V30 6919 H 1168.29 -5.4027 -6.79873 0
M  V30 6920 H 1168.02 -4.41549 -5.32301 0
M  V30 6921 H 1168.89 -3.26371 -7.47889 0
M  V30 6922 H 1171.55 -1.63978 -5.5665 0
M  V30 6923 H 1171.83 -4.63439 -5.3432 0
M  V30 6924 H 1172.82 -3.44728 -6.25838 0
M  V30 6925 H 1170.98 -4.96652 -7.57263 0
M  V30 6926 H 1170.91 -4.78425 -3.73088 0
M  V30 6927 H 1171.01 -4.92593 -1.26997 0
M  V30 6928 H 1171.4 -1.86285 0.77595 0
M  V30 6929 H 1171.2 -3.63657 0.773896 0
M  V30 6930 P 1172.85 -2.75334 -8.47391 0
M  V30 6931 O 1173.07 -2.44571 -9.90142 0
M  V30 6932 O 1173.64 -3.87688 -7.92115 0
M  V30 6933 O 1173.1 -1.4459 -7.59357 0
M  V30 6934 C 1172.16 -0.347608 -7.69215 0
M  V30 6935 C 1172.89 0.96767 -7.52806 0
M  V30 6936 O 1173.1 1.21036 -6.1011 0
M  V30 6937 C 1174.29 1.04544 -8.13308 0
M  V30 6938 O 1174.68 2.38311 -8.41922 0
M  V30 6939 C 1175.17 0.491279 -7.02284 0
M  V30 6940 C 1174.46 0.996264 -5.77469 0
M  V30 6941 N 1174.51 0.0501916 -4.62973 0
M  V30 6942 H 1171.67 -0.374722 -8.67691 0
M  V30 6943 H 1171.4 -0.443485 -6.90277 0
M  V30 6944 H 1172.27 1.75537 -7.96793 0
M  V30 6945 P 1176.23 2.75334 -8.47391 0
M  V30 6946 O 1176.45 3.84204 -9.44982 0
M  V30 6947 O 1177.02 1.51982 -8.68909 0
M  V30 6948 O 1176.48 3.29363 -6.99321 0
M  V30 6949 C 1175.54 4.24066 -6.42823 0
M  V30 6950 C 1176.27 5.20775 -5.52155 0
M  V30 6951 O 1176.48 4.56607 -4.22514 0
M  V30 6952 C 1177.67 5.62697 -5.96604 0
M  V30 6953 O 1178.06 6.87667 -5.41053 0
M  V30 6954 C 1178.55 4.52537 -5.39283 0
M  V30 6955 C 1177.84 4.20027 -4.08623 0
M  V30 6956 N 1177.89 2.76189 -3.71603 0
M  V30 6957 C 1177.81 1.66944 -4.54297 0
M  V30 6958 N 1177.88 0.536169 -3.91344 0
M  V30 6959 C 1178.03 0.901569 -2.58849 0
M  V30 6960 C 1178.16 0.146599 -1.40236 0
M  V30 6961 N 1178.17 -1.18234 -1.37046 0
M  V30 6962 N 1178.28 0.822941 -0.249738 0
M  V30 6963 C 1178.27 2.15179 -0.280525 0
M  V30 6964 N 1178.15 2.96414 -1.30822 0
M  V30 6965 C 1178.03 2.25804 -2.44748 0
M  V30 6966 H 1175.06 4.79756 -7.24086 0
M  V30 6967 H 1174.78 3.69963 -5.84682 0
M  V30 6968 H 1175.65 6.10431 -5.41508 0
M  V30 6969 H 1178.31 4.78816 -3.28024 0
M  V30 6970 H 1178.59 3.64957 -6.05871 0
M  V30 6971 H 1179.58 4.88748 -5.21323 0
M  V30 6972 H 1177.74 5.66789 -7.0643 0
M  V30 6973 H 1177.7 1.74684 -5.62396 0
M  V30 6974 H 1178.08 -1.71949 -2.24394 0
M  V30 6975 H 1178.27 -1.67511 -0.470742 0
M  V30 6976 H 1178.38 2.63704 0.6828 0
M  V30 6977 P 1179.61 7.20834 -5.23717 0
M  V30 6978 O 1179.83 8.66104 -5.38572 0
M  V30 6979 O 1180.4 6.33544 -6.1349 0
M  V30 6980 O 1179.86 6.7751 -3.72168 0
M  V30 6981 C 1178.92 7.20825 -2.7076 0
M  V30 6982 C 1179.65 7.45864 -1.40599 0
M  V30 6983 O 1179.86 6.17651 -0.734225 0
M  V30 6984 C 1181.05 8.05808 -1.51899 0
M  V30 6985 O 1181.44 8.74358 -0.335205 0
M  V30 6986 C 1181.93 6.83093 -1.70294 0
M  V30 6987 C 1181.22 5.79992 -0.836974 0
M  V30 6988 N 1181.27 4.41864 -1.38293 0
M  V30 6989 H 1178.43 8.13644 -3.0377 0
M  V30 6990 H 1178.16 6.42788 -2.55485 0
M  V30 6991 H 1179.03 8.12039 -0.792769 0
M  V30 6992 P 1182.99 8.91 9.23009e-12 0
M  V30 6993 O 1183.21 10.1726 0.733694 0
M  V30 6994 O 1183.78 8.73148 -1.23936 0
M  V30 6995 O 1183.24 7.66872 0.971405 0
M  V30 6996 C 1182.3 7.42309 2.04641 0
M  V30 6997 C 1183.03 6.86059 3.24661 0
M  V30 6998 O 1183.24 5.42847 3.03646 0
M  V30 6999 C 1184.43 7.41196 3.50753 0
M  V30 7000 O 1184.82 7.27073 4.86816 0
M  V30 7001 C 1185.31 6.5273 2.63741 0
M  V30 7002 C 1184.6 5.1842 2.73198 0
M  V30 7003 N 1184.65 4.38762 1.4784 0
M  V30 7004 H 1181.81 8.36803 2.32493 0
M  V30 7005 H 1181.54 6.70197 1.71129 0
M  V30 7006 H 1182.41 7.03551 4.13168 0
M  V30 7007 P 1186.37 7.20834 5.23717 0
M  V30 7008 O 1186.59 7.79853 6.57286 0
M  V30 7009 O 1187.16 7.79239 4.12957 0
M  V30 7010 O 1186.62 5.63315 5.29344 0
M  V30 7011 C 1185.68 4.80255 6.01876 0
M  V30 7012 C 1186.41 3.64202 6.65911 0
M  V30 7013 O 1186.62 2.60694 5.64732 0
M  V30 7014 C 1187.81 3.93473 7.1943 0
M  V30 7015 O 1188.2 3.02071 8.21205 0
M  V30 7016 C 1188.69 3.73047 5.97036 0
M  V30 7017 C 1187.98 2.58828 5.25741 0
M  V30 7018 N 1188.03 2.68068 3.77503 0
M  V30 7019 C 1187.95 3.79715 2.96723 0
M  V30 7020 N 1188.03 3.5377 1.68852 0
M  V30 7021 C 1188.17 2.15054 1.63254 0
M  V30 7022 C 1188.3 1.28964 0.518571 0
M  V30 7023 O 1188.32 1.56826 -0.679156 0
M  V30 7024 N 1188.42 -0.0538097 0.918425 0
M  V30 7025 C 1188.42 -0.494275 2.22578 0
M  V30 7026 N 1188.55 -1.81086 2.40434 0
M  V30 7027 N 1188.29 0.313645 3.27502 0
M  V30 7028 C 1188.17 1.61829 2.91033 0
M  V30 7029 H 1185.19 5.40332 6.79951 0
M  V30 7030 H 1184.92 4.41613 5.32378 0
M  V30 7031 H 1185.79 3.26331 7.47797 0
M  V30 7032 H 1188.45 1.63422 5.56814 0
M  V30 7033 H 1188.72 4.63374 5.34244 0
M  V30 7034 H 1189.72 3.44728 6.25838 0
M  V30 7035 H 1187.88 4.96652 7.57263 0
M  V30 7036 H 1187.83 4.80617 3.3614 0
M  V30 7037 H 1188.52 -0.742702 0.199384 0
M  V30 7038 H 1188.55 -2.20598 3.35588 0
M  V30 7039 H 1188.65 -2.43518 1.58945 0
M  V30 7040 P 1189.75 2.75334 8.47391 0
M  V30 7041 O 1189.97 2.44571 9.90142 0
M  V30 7042 O 1190.54 3.87688 7.92115 0
M  V30 7043 O 1190 1.4459 7.59357 0
M  V30 7044 C 1189.06 0.347608 7.69215 0
M  V30 7045 C 1189.79 -0.96767 7.52806 0
M  V30 7046 O 1190 -1.21036 6.1011 0
M  V30 7047 C 1191.19 -1.04544 8.13308 0
M  V30 7048 O 1191.58 -2.38311 8.41922 0
M  V30 7049 C 1192.07 -0.491279 7.02284 0
M  V30 7050 C 1191.36 -0.996264 5.77469 0
M  V30 7051 N 1191.41 -0.0501916 4.62973 0
M  V30 7052 H 1188.57 0.374722 8.67691 0
M  V30 7053 H 1188.3 0.443485 6.90277 0
M  V30 7054 H 1189.17 -1.75537 7.96793 0
M  V30 7055 P 1193.13 -2.75334 8.47391 0
M  V30 7056 O 1193.35 -3.84204 9.44982 0
M  V30 7057 O 1193.92 -1.51982 8.68909 0
M  V30 7058 O 1193.38 -3.29363 6.99321 0
M  V30 7059 C 1192.44 -4.24066 6.42823 0
M  V30 7060 C 1193.17 -5.20775 5.52155 0
M  V30 7061 O 1193.38 -4.56607 4.22514 0
M  V30 7062 C 1194.57 -5.62697 5.96604 0
M  V30 7063 O 1194.96 -6.87667 5.41053 0
M  V30 7064 C 1195.45 -4.52537 5.39283 0
M  V30 7065 C 1194.74 -4.20027 4.08623 0
M  V30 7066 N 1194.79 -2.76189 3.71603 0
M  V30 7067 C 1194.71 -1.66944 4.54297 0
M  V30 7068 N 1194.78 -0.536169 3.91344 0
M  V30 7069 C 1194.93 -0.901569 2.58849 0
M  V30 7070 C 1195.06 -0.146599 1.40236 0
M  V30 7071 N 1195.07 1.18234 1.37046 0
M  V30 7072 N 1195.18 -0.822941 0.249738 0
M  V30 7073 C 1195.17 -2.15179 0.280525 0
M  V30 7074 N 1195.05 -2.96414 1.30822 0
M  V30 7075 C 1194.93 -2.25804 2.44748 0
M  V30 7076 H 1191.95 -4.79756 7.24086 0
M  V30 7077 H 1191.68 -3.69963 5.84682 0
M  V30 7078 H 1192.55 -6.10431 5.41508 0
M  V30 7079 H 1195.21 -4.78816 3.28024 0
M  V30 7080 H 1195.49 -3.64957 6.05871 0
M  V30 7081 H 1196.48 -4.88748 5.21323 0
M  V30 7082 H 1194.64 -5.66789 7.0643 0
M  V30 7083 H 1194.6 -1.74684 5.62396 0
M  V30 7084 H 1194.98 1.71949 2.24394 0
M  V30 7085 H 1195.17 1.67511 0.470742 0
M  V30 7086 H 1195.28 -2.63704 -0.6828 0
M  V30 7087 P 1196.51 -7.20834 5.23717 0
M  V30 7088 O 1196.73 -8.66104 5.38572 0
M  V30 7089 O 1197.3 -6.33544 6.1349 0
M  V30 7090 O 1196.76 -6.7751 3.72168 0
M  V30 7091 C 1195.82 -7.20825 2.7076 0
M  V30 7092 C 1196.55 -7.45864 1.40599 0
M  V30 7093 O 1196.76 -6.17651 0.734225 0
M  V30 7094 C 1197.95 -8.05808 1.51899 0
M  V30 7095 O 1198.34 -8.74358 0.335205 0
M  V30 7096 C 1198.83 -6.83093 1.70294 0
M  V30 7097 C 1198.12 -5.79992 0.836974 0
M  V30 7098 N 1198.17 -4.41864 1.38293 0
M  V30 7099 H 1195.33 -8.13644 3.0377 0
M  V30 7100 H 1195.06 -6.42788 2.55485 0
M  V30 7101 H 1195.93 -8.12039 0.792769 0
M  V30 7102 P 1199.89 -8.91 -9.38728e-12 0
M  V30 7103 O 1200.11 -10.1726 -0.733694 0
M  V30 7104 O 1200.68 -8.73148 1.23936 0
M  V30 7105 O 1200.14 -7.66872 -0.971405 0
M  V30 7106 C 1199.2 -7.42309 -2.04641 0
M  V30 7107 C 1199.93 -6.86059 -3.24661 0
M  V30 7108 O 1200.14 -5.42847 -3.03646 0
M  V30 7109 C 1201.33 -7.41196 -3.50753 0
M  V30 7110 O 1201.72 -7.27073 -4.86816 0
M  V30 7111 C 1202.21 -6.5273 -2.63741 0
M  V30 7112 C 1201.5 -5.1842 -2.73198 0
M  V30 7113 N 1201.55 -4.38762 -1.4784 0
M  V30 7114 H 1198.71 -8.36803 -2.32493 0
M  V30 7115 H 1198.44 -6.70197 -1.71129 0
M  V30 7116 H 1199.31 -7.03551 -4.13168 0
M  V30 7117 P 1203.27 -7.20834 -5.23717 0
M  V30 7118 O 1203.49 -7.79853 -6.57286 0
M  V30 7119 O 1204.06 -7.79239 -4.12957 0
M  V30 7120 O 1203.52 -5.63315 -5.29344 0
M  V30 7121 C 1202.58 -4.80255 -6.01876 0
M  V30 7122 C 1203.31 -3.64202 -6.65911 0
M  V30 7123 O 1203.52 -2.60694 -5.64732 0
M  V30 7124 C 1204.71 -3.93473 -7.1943 0
M  V30 7125 O 1205.1 -3.02071 -8.21205 0
M  V30 7126 C 1205.59 -3.73047 -5.97036 0
M  V30 7127 C 1204.88 -2.58828 -5.25741 0
M  V30 7128 N 1204.93 -2.68068 -3.77503 0
M  V30 7129 H 1202.09 -5.40332 -6.79951 0
M  V30 7130 H 1201.82 -4.41613 -5.32378 0
M  V30 7131 H 1202.69 -3.26331 -7.47797 0
M  V30 7132 P 1206.65 -2.75334 -8.47391 0
M  V30 7133 O 1206.87 -2.44571 -9.90142 0
M  V30 7134 O 1207.44 -3.87688 -7.92115 0
M  V30 7135 O 1206.9 -1.4459 -7.59357 0
M  V30 7136 C 1205.96 -0.347608 -7.69215 0
M  V30 7137 C 1206.69 0.96767 -7.52806 0
M  V30 7138 O 1206.9 1.21036 -6.1011 0
M  V30 7139 C 1208.09 1.04544 -8.13308 0
M  V30 7140 O 1208.48 2.38311 -8.41922 0
M  V30 7141 C 1208.97 0.491279 -7.02284 0
M  V30 7142 C 1208.26 0.996264 -5.77469 0
M  V30 7143 N 1208.31 0.0501916 -4.62973 0
M  V30 7144 H 1205.47 -0.374722 -8.67691 0
M  V30 7145 H 1205.2 -0.443485 -6.90277 0
M  V30 7146 H 1206.07 1.75537 -7.96793 0
M  V30 7147 P 1210.03 2.75334 -8.47391 0
M  V30 7148 O 1210.25 3.84128 -9.44797 0
M  V30 7149 O 1210.82 1.51947 -8.68712 0
M  V30 7150 O 1210.28 3.29363 -6.99321 0
M  V30 7151 C 1209.34 4.24011 -6.4274 0
M  V30 7152 C 1210.07 5.20775 -5.52155 0
M  V30 7153 O 1210.28 4.56534 -4.22446 0
M  V30 7154 C 1211.47 5.62629 -5.96531 0
M  V30 7155 O 1211.86 6.87667 -5.41053 0
M  V30 7156 C 1212.35 4.52537 -5.39283 0
M  V30 7157 C 1211.64 4.20027 -4.08623 0
M  V30 7158 N 1211.69 2.76189 -3.71603 0
M  V30 7159 H 1208.85 4.797 -7.24003 0
M  V30 7160 H 1208.58 3.69856 -5.84513 0
M  V30 7161 H 1209.45 6.10356 -5.41441 0
M  V30 7162 P 1213.41 7.20834 -5.23717 0
M  V30 7163 O 1213.63 8.66104 -5.38572 0
M  V30 7164 O 1214.2 6.33544 -6.1349 0
M  V30 7165 O 1213.66 6.7751 -3.72168 0
M  V30 7166 C 1212.72 7.20825 -2.7076 0
M  V30 7167 C 1213.45 7.45864 -1.40599 0
M  V30 7168 O 1213.66 6.17651 -0.734225 0
M  V30 7169 C 1214.85 8.05808 -1.51899 0
M  V30 7170 O 1215.24 8.74358 -0.335205 0
M  V30 7171 C 1215.73 6.83093 -1.70294 0
M  V30 7172 C 1215.02 5.79992 -0.836974 0
M  V30 7173 N 1215.07 4.41864 -1.38293 0
M  V30 7174 H 1212.23 8.13644 -3.0377 0
M  V30 7175 H 1211.96 6.42788 -2.55485 0
M  V30 7176 H 1212.83 8.12039 -0.792769 0
M  V30 7177 P 1216.79 8.91 9.54446e-12 0
M  V30 7178 O 1217.01 10.1736 0.733766 0
M  V30 7179 O 1217.58 8.73247 -1.2395 0
M  V30 7180 O 1217.04 7.66872 0.971405 0
M  V30 7181 C 1216.1 7.42212 2.04614 0
M  V30 7182 C 1216.83 6.86059 3.24661 0
M  V30 7183 O 1217.04 5.42847 3.03646 0
M  V30 7184 C 1218.23 7.41196 3.50753 0
M  V30 7185 O 1218.62 7.27073 4.86816 0
M  V30 7186 C 1219.11 6.5273 2.63741 0
M  V30 7187 C 1218.4 5.1842 2.73198 0
M  V30 7188 N 1218.45 4.38668 1.47808 0
M  V30 7189 C 1218.6 3.02239 1.60048 0
M  V30 7190 O 1218.69 2.46459 2.67869 0
M  V30 7191 N 1218.64 2.32436 0.408571 0
M  V30 7192 C 1218.55 2.85471 -0.854993 0
M  V30 7193 O 1218.6 2.12566 -1.8531 0
M  V30 7194 C 1218.4 4.28918 -0.887335 0
M  V30 7195 C 1218.29 4.91066 -2.24619 0
M  V30 7196 C 1218.35 5.00349 0.255399 0
M  V30 7197 H 1215.61 8.36803 2.32493 0
M  V30 7198 H 1215.34 6.701 1.71105 0
M  V30 7199 H 1216.21 7.03551 4.13168 0
M  V30 7200 H 1218.87 4.59773 3.53894 0
M  V30 7201 H 1219.14 6.88995 1.59871 0
M  V30 7202 H 1220.14 6.46749 3.03687 0
M  V30 7203 H 1218.3 8.46908 3.20714 0
M  V30 7204 H 1218.23 6.08548 0.206986 0
M  V30 7205 H 1219.26 5.34836 -2.53099 0
M  V30 7206 H 1217.52 5.69638 -2.2291 0
M  V30 7207 H 1218.01 4.13971 -2.98044 0
M  V30 7208 H 1218.75 1.33211 0.474216 0
M  V30 7209 P 1220.17 7.20834 5.23717 0
M  V30 7210 O 1220.39 7.79853 6.57286 0
M  V30 7211 O 1220.96 7.79239 4.12957 0
M  V30 7212 O 1220.42 5.63315 5.29344 0
M  V30 7213 C 1219.48 4.80255 6.01876 0
M  V30 7214 C 1220.21 3.64202 6.65911 0
M  V30 7215 O 1220.42 2.60694 5.64732 0
M  V30 7216 C 1221.61 3.93473 7.1943 0
M  V30 7217 O 1222 3.02071 8.21205 0
M  V30 7218 C 1222.49 3.73047 5.97036 0
M  V30 7219 C 1221.78 2.58828 5.25741 0
M  V30 7220 N 1221.83 2.68068 3.77503 0
M  V30 7221 H 1218.99 5.40332 6.79951 0
M  V30 7222 H 1218.72 4.41613 5.32378 0
M  V30 7223 H 1219.59 3.26331 7.47797 0
M  V30 7224 P 1223.55 2.75334 8.47391 0
M  V30 7225 O 1223.77 2.44571 9.90142 0
M  V30 7226 O 1224.34 3.87688 7.92115 0
M  V30 7227 O 1223.8 1.4459 7.59357 0
M  V30 7228 C 1222.86 0.347608 7.69215 0
M  V30 7229 C 1223.59 -0.96767 7.52806 0
M  V30 7230 O 1223.8 -1.21036 6.1011 0
M  V30 7231 C 1224.99 -1.04544 8.13308 0
M  V30 7232 O 1225.38 -2.38311 8.41922 0
M  V30 7233 C 1225.87 -0.491279 7.02284 0
M  V30 7234 C 1225.16 -0.996264 5.77469 0
M  V30 7235 N 1225.21 -0.0501916 4.62973 0
M  V30 7236 H 1222.37 0.374722 8.67691 0
M  V30 7237 H 1222.1 0.443485 6.90277 0
M  V30 7238 H 1222.97 -1.75537 7.96793 0
M  V30 7239 P 1226.93 -2.75334 8.47391 0
M  V30 7240 O 1227.15 -3.84128 9.44797 0
M  V30 7241 O 1227.72 -1.51947 8.68712 0
M  V30 7242 O 1227.18 -3.29363 6.99321 0
M  V30 7243 C 1226.24 -4.24011 6.4274 0
M  V30 7244 C 1226.97 -5.20775 5.52155 0
M  V30 7245 O 1227.18 -4.56534 4.22446 0
M  V30 7246 C 1228.37 -5.62629 5.96531 0
M  V30 7247 O 1228.76 -6.87667 5.41053 0
M  V30 7248 C 1229.25 -4.52537 5.39283 0
M  V30 7249 C 1228.54 -4.20027 4.08623 0
M  V30 7250 N 1228.59 -2.76189 3.71603 0
M  V30 7251 H 1225.75 -4.797 7.24003 0
M  V30 7252 H 1225.48 -3.69856 5.84513 0
M  V30 7253 H 1226.35 -6.10356 5.41441 0
M  V30 7254 P 1230.31 -7.20834 5.23717 0
M  V30 7255 O 1230.53 -8.66104 5.38572 0
M  V30 7256 O 1231.1 -6.33544 6.1349 0
M  V30 7257 O 1230.56 -6.7751 3.72168 0
M  V30 7258 C 1229.62 -7.20825 2.7076 0
M  V30 7259 C 1230.35 -7.45864 1.40599 0
M  V30 7260 O 1230.56 -6.17651 0.734225 0
M  V30 7261 C 1231.75 -8.05808 1.51899 0
M  V30 7262 O 1232.14 -8.74358 0.335205 0
M  V30 7263 C 1232.63 -6.83093 1.70294 0
M  V30 7264 C 1231.92 -5.79992 0.836974 0
M  V30 7265 N 1231.97 -4.41864 1.38293 0
M  V30 7266 H 1229.13 -8.13644 3.0377 0
M  V30 7267 H 1228.86 -6.42788 2.55485 0
M  V30 7268 H 1229.73 -8.12039 0.792769 0
M  V30 7269 P 1233.69 -8.91 -9.70164e-12 0
M  V30 7270 O 1233.91 -10.1726 -0.733694 0
M  V30 7271 O 1234.48 -8.73148 1.23936 0
M  V30 7272 O 1233.94 -7.66872 -0.971405 0
M  V30 7273 C 1233 -7.42309 -2.04641 0
M  V30 7274 C 1233.73 -6.86059 -3.24661 0
M  V30 7275 O 1233.94 -5.42847 -3.03646 0
M  V30 7276 C 1235.13 -7.41196 -3.50753 0
M  V30 7277 O 1235.52 -7.27073 -4.86816 0
M  V30 7278 C 1236.01 -6.5273 -2.63741 0
M  V30 7279 C 1235.3 -5.1842 -2.73198 0
M  V30 7280 N 1235.35 -4.38762 -1.4784 0
M  V30 7281 H 1232.51 -8.36803 -2.32493 0
M  V30 7282 H 1232.24 -6.70197 -1.71129 0
M  V30 7283 H 1233.11 -7.03551 -4.13168 0
M  V30 7284 P 1237.07 -7.20834 -5.23717 0
M  V30 7285 O 1237.29 -7.79853 -6.57286 0
M  V30 7286 O 1237.86 -7.79239 -4.12957 0
M  V30 7287 O 1237.32 -5.63315 -5.29344 0
M  V30 7288 C 1236.38 -4.80255 -6.01876 0
M  V30 7289 C 1237.11 -3.64202 -6.65911 0
M  V30 7290 O 1237.32 -2.60694 -5.64732 0
M  V30 7291 C 1238.51 -3.93473 -7.1943 0
M  V30 7292 O 1238.9 -3.02071 -8.21205 0
M  V30 7293 C 1239.39 -3.73047 -5.97036 0
M  V30 7294 C 1238.68 -2.58828 -5.25741 0
M  V30 7295 N 1238.73 -2.68068 -3.77503 0
M  V30 7296 H 1235.89 -5.40332 -6.79951 0
M  V30 7297 H 1235.62 -4.41613 -5.32378 0
M  V30 7298 H 1236.49 -3.26331 -7.47797 0
M  V30 7299 P 1240.45 -2.75334 -8.47391 0
M  V30 7300 O 1240.67 -2.44571 -9.90142 0
M  V30 7301 O 1241.24 -3.87688 -7.92115 0
M  V30 7302 O 1240.7 -1.4459 -7.59357 0
M  V30 7303 C 1239.76 -0.347608 -7.69215 0
M  V30 7304 C 1240.49 0.96767 -7.52806 0
M  V30 7305 O 1240.7 1.21036 -6.1011 0
M  V30 7306 C 1241.89 1.04544 -8.13308 0
M  V30 7307 O 1242.28 2.38311 -8.41922 0
M  V30 7308 C 1242.77 0.491279 -7.02284 0
M  V30 7309 C 1242.06 0.996264 -5.77469 0
M  V30 7310 N 1242.11 0.0501916 -4.62973 0
M  V30 7311 H 1239.27 -0.374722 -8.67691 0
M  V30 7312 H 1239 -0.443485 -6.90277 0
M  V30 7313 H 1239.87 1.75537 -7.96793 0
M  V30 7314 P 1243.83 2.75334 -8.47391 0
M  V30 7315 O 1244.05 3.84128 -9.44797 0
M  V30 7316 O 1244.62 1.51947 -8.68712 0
M  V30 7317 O 1244.08 3.29363 -6.99321 0
M  V30 7318 C 1243.14 4.24011 -6.4274 0
M  V30 7319 C 1243.87 5.20775 -5.52155 0
M  V30 7320 O 1244.08 4.56534 -4.22446 0
M  V30 7321 C 1245.27 5.62629 -5.96531 0
M  V30 7322 O 1245.66 6.87667 -5.41053 0
M  V30 7323 C 1246.15 4.52537 -5.39283 0
M  V30 7324 C 1245.44 4.20027 -4.08623 0
M  V30 7325 N 1245.49 2.76189 -3.71603 0
M  V30 7326 H 1242.65 4.797 -7.24003 0
M  V30 7327 H 1242.38 3.69856 -5.84513 0
M  V30 7328 H 1243.25 6.10356 -5.41441 0
M  V30 7329 P 1247.21 7.20834 -5.23717 0
M  V30 7330 O 1247.43 8.66189 -5.38625 0
M  V30 7331 O 1248 6.33615 -6.1356 0
M  V30 7332 O 1247.46 6.7751 -3.72168 0
M  V30 7333 C 1246.52 7.20732 -2.70725 0
M  V30 7334 C 1247.25 7.45864 -1.40599 0
M  V30 7335 O 1247.46 6.17651 -0.734225 0
M  V30 7336 C 1248.65 8.05808 -1.51899 0
M  V30 7337 O 1249.04 8.74358 -0.335205 0
M  V30 7338 C 1249.53 6.83093 -1.70294 0
M  V30 7339 C 1248.82 5.79992 -0.836974 0
M  V30 7340 N 1248.87 4.41769 -1.38263 0
M  V30 7341 C 1249.02 3.38591 -0.481702 0
M  V30 7342 O 1249.11 3.56839 0.718452 0
M  V30 7343 N 1249.06 2.1206 -1.03569 0
M  V30 7344 C 1248.97 1.80696 -2.36966 0
M  V30 7345 O 1249.02 0.630473 -2.74862 0
M  V30 7346 C 1248.82 2.94845 -3.23898 0
M  V30 7347 C 1248.71 2.65253 -4.70362 0
M  V30 7348 C 1248.77 4.19803 -2.73435 0
M  V30 7349 H 1246.03 8.13644 -3.0377 0
M  V30 7350 H 1245.76 6.42695 -2.55448 0
M  V30 7351 H 1246.63 8.12039 -0.792769 0
M  V30 7352 H 1249.29 5.79978 0.160587 0
M  V30 7353 H 1249.56 6.51379 -2.75643 0
M  V30 7354 H 1250.56 7.01734 -1.34462 0
M  V30 7355 H 1248.72 8.73674 -2.38337 0
M  V30 7356 H 1248.65 5.04492 -3.4095 0
M  V30 7357 H 1249.68 2.83924 -5.1913 0
M  V30 7358 H 1247.94 3.29824 -5.15163 0
M  V30 7359 H 1248.43 1.59723 -4.84449 0
M  V30 7360 H 1249.17 1.35644 -0.399345 0
M  V30 7361 P 1250.59 8.91 9.85882e-12 0
M  V30 7362 O 1250.81 10.1726 0.733694 0
M  V30 7363 O 1251.38 8.73148 -1.23936 0
M  V30 7364 O 1250.84 7.66872 0.971405 0
M  V30 7365 C 1249.9 7.42309 2.04641 0
M  V30 7366 C 1250.63 6.86059 3.24661 0
M  V30 7367 O 1250.84 5.42847 3.03646 0
M  V30 7368 C 1252.03 7.41196 3.50753 0
M  V30 7369 O 1252.42 7.27073 4.86816 0
M  V30 7370 C 1252.91 6.5273 2.63741 0
M  V30 7371 C 1252.2 5.1842 2.73198 0
M  V30 7372 N 1252.25 4.38762 1.4784 0
M  V30 7373 C 1252.17 4.81605 0.168631 0
M  V30 7374 N 1252.25 3.85454 -0.713363 0
M  V30 7375 C 1252.39 2.6994 0.0566958 0
M  V30 7376 C 1252.52 1.34815 -0.338502 0
M  V30 7377 N 1252.64 0.496304 0.77465 0
M  V30 7378 C 1252.64 0.908403 2.09122 0
M  V30 7379 N 1252.77 -0.0517805 3.00955 0
M  V30 7380 N 1252.51 2.17875 2.46519 0
M  V30 7381 C 1252.39 3.01988 1.4033 0
M  V30 7382 H 1249.41 8.36803 2.32493 0
M  V30 7383 H 1249.14 6.70197 1.71129 0
M  V30 7384 H 1250.01 7.03551 4.13168 0
M  V30 7385 P 1253.97 7.20834 5.23717 0
M  V30 7386 O 1254.19 7.79853 6.57286 0
M  V30 7387 O 1254.76 7.79239 4.12957 0
M  V30 7388 O 1254.22 5.63315 5.29344 0
M  V30 7389 C 1253.28 4.80255 6.01876 0
M  V30 7390 C 1254.01 3.64202 6.65911 0
M  V30 7391 O 1254.22 2.60694 5.64732 0
M  V30 7392 C 1255.41 3.93473 7.1943 0
M  V30 7393 O 1255.8 3.02071 8.21205 0
M  V30 7394 C 1256.29 3.73047 5.97036 0
M  V30 7395 C 1255.58 2.58828 5.25741 0
M  V30 7396 N 1255.63 2.68068 3.77503 0
M  V30 7397 H 1252.79 5.40332 6.79951 0
M  V30 7398 H 1252.52 4.41613 5.32378 0
M  V30 7399 H 1253.39 3.26331 7.47797 0
M  V30 7400 P 1257.35 2.75334 8.47391 0
M  V30 7401 O 1257.57 2.44571 9.90142 0
M  V30 7402 O 1258.14 3.87688 7.92115 0
M  V30 7403 O 1257.6 1.4459 7.59357 0
M  V30 7404 C 1256.66 0.347608 7.69215 0
M  V30 7405 C 1257.39 -0.96767 7.52806 0
M  V30 7406 O 1257.6 -1.21036 6.1011 0
M  V30 7407 C 1258.79 -1.04544 8.13308 0
M  V30 7408 O 1259.18 -2.38311 8.41922 0
M  V30 7409 C 1259.67 -0.491279 7.02284 0
M  V30 7410 C 1258.96 -0.996264 5.77469 0
M  V30 7411 N 1259.01 -0.0501916 4.62973 0
M  V30 7412 C 1258.93 1.32786 4.63244 0
M  V30 7413 N 1259.01 1.86957 3.44545 0
M  V30 7414 C 1259.15 0.780241 2.58481 0
M  V30 7415 C 1259.28 0.738536 1.17757 0
M  V30 7416 O 1259.3 1.66794 0.372349 0
M  V30 7417 N 1259.4 -0.58337 0.711393 0
M  V30 7418 C 1259.4 -1.70816 1.51017 0
M  V30 7419 N 1259.53 -2.87826 0.880757 0
M  V30 7420 N 1259.27 -1.67126 2.8339 0
M  V30 7421 C 1259.15 -0.401421 3.30572 0
M  V30 7422 H 1256.17 0.374722 8.67691 0
M  V30 7423 H 1255.9 0.443485 6.90277 0
M  V30 7424 H 1256.77 -1.75537 7.96793 0
M  V30 7425 H 1259.43 -1.95076 5.46529 0
M  V30 7426 H 1259.7 0.608565 7.04577 0
M  V30 7427 H 1260.7 -0.889672 7.08939 0
M  V30 7428 H 1258.86 -0.43308 9.04564 0
M  V30 7429 H 1258.81 1.91249 5.54442 0
M  V30 7430 H 1259.5 -0.718054 -0.275244 0
M  V30 7431 H 1259.53 -3.75721 1.41832 0
M  V30 7432 H 1259.63 -2.90436 -0.145468 0
M  V30 7433 P 1260.73 -2.75334 8.47391 0
M  V30 7434 O 1260.95 -3.84166 9.4489 0
M  V30 7435 O 1261.52 -1.51964 8.6881 0
M  V30 7436 O 1260.98 -3.29363 6.99321 0
M  V30 7437 C 1260.04 -4.23956 6.42656 0
M  V30 7438 C 1260.77 -5.20775 5.52155 0
M  V30 7439 O 1260.98 -4.56534 4.22446 0
M  V30 7440 C 1262.17 -5.62629 5.96531 0
M  V30 7441 O 1262.56 -6.87667 5.41053 0
M  V30 7442 C 1263.05 -4.52537 5.39283 0
M  V30 7443 C 1262.34 -4.20027 4.08623 0
M  V30 7444 N 1262.39 -2.7613 3.71522 0
M  V30 7445 C 1262.54 -2.45612 2.37989 0
M  V30 7446 O 1262.63 -3.30919 1.51621 0
M  V30 7447 N 1262.58 -1.10684 2.08435 0
M  V30 7448 C 1262.49 -0.0690084 2.9792 0
M  V30 7449 O 1262.54 1.10553 2.59426 0
M  V30 7450 C 1262.34 -0.481522 4.35345 0
M  V30 7451 C 1262.23 0.618778 5.36443 0
M  V30 7452 C 1262.29 -1.78906 4.67968 0
M  V30 7453 H 1259.55 -4.797 7.24003 0
M  V30 7454 H 1259.28 -3.69802 5.84429 0
M  V30 7455 H 1260.15 -6.10356 5.41441 0
M  V30 7456 H 1262.81 -4.78651 3.27911 0
M  V30 7457 H 1263.08 -3.64957 6.05871 0
M  V30 7458 H 1264.08 -4.8868 5.2125 0
M  V30 7459 H 1262.24 -5.66726 7.06352 0
M  V30 7460 H 1262.17 -2.07737 5.72367 0
M  V30 7461 H 1263.2 0.754375 5.86871 0
M  V30 7462 H 1261.46 0.359721 6.10641 0
M  V30 7463 H 1261.95 1.55533 4.8581 0
M  V30 7464 H 1262.69 -0.862651 1.12037 0
M  V30 7465 P 1264.11 -7.20834 5.23717 0
M  V30 7466 O 1264.33 -8.66104 5.38572 0
M  V30 7467 O 1264.9 -6.33544 6.1349 0
M  V30 7468 O 1264.36 -6.7751 3.72168 0
M  V30 7469 C 1263.42 -7.20825 2.7076 0
M  V30 7470 C 1264.15 -7.45864 1.40599 0
M  V30 7471 O 1264.36 -6.17651 0.734225 0
M  V30 7472 C 1265.55 -8.05808 1.51899 0
M  V30 7473 O 1265.94 -8.74358 0.335205 0
M  V30 7474 C 1266.43 -6.83093 1.70294 0
M  V30 7475 C 1265.72 -5.79992 0.836974 0
M  V30 7476 N 1265.77 -4.41864 1.38293 0
M  V30 7477 H 1262.93 -8.13644 3.0377 0
M  V30 7478 H 1262.66 -6.42788 2.55485 0
M  V30 7479 H 1263.53 -8.12039 0.792769 0
M  V30 7480 P 1267.49 -8.91 -1.0016e-11 0
M  V30 7481 O 1267.71 -10.1726 -0.733694 0
M  V30 7482 O 1268.28 -8.73148 1.23936 0
M  V30 7483 O 1267.74 -7.66872 -0.971405 0
M  V30 7484 C 1266.8 -7.42309 -2.04641 0
M  V30 7485 C 1267.53 -6.86059 -3.24661 0
M  V30 7486 O 1267.74 -5.42847 -3.03646 0
M  V30 7487 C 1268.93 -7.41196 -3.50753 0
M  V30 7488 O 1269.32 -7.27073 -4.86816 0
M  V30 7489 C 1269.81 -6.5273 -2.63741 0
M  V30 7490 C 1269.1 -5.1842 -2.73198 0
M  V30 7491 N 1269.15 -4.38762 -1.4784 0
M  V30 7492 C 1269.07 -4.81605 -0.168631 0
M  V30 7493 N 1269.15 -3.85454 0.713363 0
M  V30 7494 C 1269.29 -2.6994 -0.0566958 0
M  V30 7495 C 1269.42 -1.34815 0.338502 0
M  V30 7496 N 1269.54 -0.496304 -0.77465 0
M  V30 7497 C 1269.54 -0.908403 -2.09122 0
M  V30 7498 N 1269.67 0.0517805 -3.00955 0
M  V30 7499 N 1269.41 -2.17875 -2.46519 0
M  V30 7500 C 1269.29 -3.01988 -1.4033 0
M  V30 7501 H 1266.31 -8.36803 -2.32493 0
M  V30 7502 H 1266.04 -6.70197 -1.71129 0
M  V30 7503 H 1266.91 -7.03551 -4.13168 0
M  V30 7504 P 1270.87 -7.20834 -5.23717 0
M  V30 7505 O 1271.09 -7.7993 -6.57351 0
M  V30 7506 O 1271.66 -7.79328 -4.13004 0
M  V30 7507 O 1271.12 -5.63315 -5.29344 0
M  V30 7508 C 1270.18 -4.80193 -6.01798 0
M  V30 7509 C 1270.91 -3.64202 -6.65911 0
M  V30 7510 O 1271.12 -2.60694 -5.64732 0
M  V30 7511 C 1272.31 -3.93473 -7.1943 0
M  V30 7512 O 1272.7 -3.02071 -8.21205 0
M  V30 7513 C 1273.19 -3.73047 -5.97036 0
M  V30 7514 C 1272.48 -2.58828 -5.25741 0
M  V30 7515 N 1272.53 -2.6801 -3.77422 0
M  V30 7516 C 1272.68 -1.50443 -3.07133 0
M  V30 7517 O 1272.77 -0.419406 -3.61576 0
M  V30 7518 N 1272.72 -1.6403 -1.69677 0
M  V30 7519 C 1272.63 -2.81206 -0.986255 0
M  V30 7520 C 1272.48 -3.99158 -1.80325 0
M  V30 7521 C 1272.43 -3.89779 -3.1476 0
M  V30 7522 H 1269.69 -5.40332 -6.79951 0
M  V30 7523 H 1269.42 -4.41549 -5.32301 0
M  V30 7524 H 1270.29 -3.26331 -7.47797 0
M  V30 7525 H 1272.95 -1.6395 -5.56554 0
M  V30 7526 H 1273.22 -4.63439 -5.3432 0
M  V30 7527 H 1274.22 -3.44728 -6.25838 0
M  V30 7528 H 1272.38 -4.96652 -7.57263 0
M  V30 7529 H 1272.31 -4.80159 -3.74441 0
M  V30 7530 P 1274.25 -2.75334 -8.47391 0
M  V30 7531 O 1274.47 -2.44619 -9.90336 0
M  V30 7532 O 1275.04 -3.87776 -7.92294 0
M  V30 7533 O 1274.5 -1.4459 -7.59357 0
M  V30 7534 C 1273.56 -0.347653 -7.69315 0
M  V30 7535 C 1274.29 0.96767 -7.52806 0
M  V30 7536 O 1274.5 1.21055 -6.10208 0
M  V30 7537 C 1275.69 1.04557 -8.13408 0
M  V30 7538 O 1276.08 2.38311 -8.41922 0
M  V30 7539 C 1276.57 0.491279 -7.02284 0
M  V30 7540 C 1275.86 0.996264 -5.77469 0
M  V30 7541 N 1275.91 0.0501916 -4.62973 0
M  V30 7542 H 1273.07 -0.374765 -8.67791 0
M  V30 7543 H 1272.8 -0.443613 -6.90476 0
M  V30 7544 H 1273.67 1.75559 -7.96891 0
M  V30 7545 H 1276.33 1.94563 -5.46818 0
M  V30 7546 H 1276.61 -0.608651 -7.04676 0
M  V30 7547 H 1277.6 0.889796 -7.09039 0
M  V30 7548 H 1275.76 0.433128 -9.04664 0
M  V30 7549 P 1277.63 2.75334 -8.47391 0
M  V30 7550 O 1277.85 3.84128 -9.44797 0
M  V30 7551 O 1278.42 1.51947 -8.68712 0
M  V30 7552 O 1277.88 3.29363 -6.99321 0
M  V30 7553 C 1276.94 4.24011 -6.4274 0
M  V30 7554 C 1277.67 5.20775 -5.52155 0
M  V30 7555 O 1277.88 4.56534 -4.22446 0
M  V30 7556 C 1279.07 5.62629 -5.96531 0
M  V30 7557 O 1279.46 6.87667 -5.41053 0
M  V30 7558 C 1279.95 4.52537 -5.39283 0
M  V30 7559 C 1279.24 4.20027 -4.08623 0
M  V30 7560 N 1279.29 2.76189 -3.71603 0
M  V30 7561 H 1276.45 4.797 -7.24003 0
M  V30 7562 H 1276.18 3.69856 -5.84513 0
M  V30 7563 H 1277.05 6.10356 -5.41441 0
M  V30 7564 P 1281.01 7.20834 -5.23717 0
M  V30 7565 O 1281.23 8.66104 -5.38572 0
M  V30 7566 O 1281.8 6.33544 -6.1349 0
M  V30 7567 O 1281.26 6.7751 -3.72168 0
M  V30 7568 C 1280.32 7.20825 -2.7076 0
M  V30 7569 C 1281.05 7.45864 -1.40599 0
M  V30 7570 O 1281.26 6.17651 -0.734225 0
M  V30 7571 C 1282.45 8.05808 -1.51899 0
M  V30 7572 O 1282.84 8.74358 -0.335205 0
M  V30 7573 C 1283.33 6.83093 -1.70294 0
M  V30 7574 C 1282.62 5.79992 -0.836974 0
M  V30 7575 N 1282.67 4.41864 -1.38293 0
M  V30 7576 H 1279.83 8.13644 -3.0377 0
M  V30 7577 H 1279.56 6.42788 -2.55485 0
M  V30 7578 H 1280.43 8.12039 -0.792769 0
M  V30 7579 P 1284.39 8.91 1.01732e-11 0
M  V30 7580 O 1284.61 10.1726 0.733694 0
M  V30 7581 O 1285.18 8.73148 -1.23936 0
M  V30 7582 O 1284.64 7.66872 0.971405 0
M  V30 7583 C 1283.7 7.42309 2.04641 0
M  V30 7584 C 1284.43 6.86059 3.24661 0
M  V30 7585 O 1284.64 5.42847 3.03646 0
M  V30 7586 C 1285.83 7.41196 3.50753 0
M  V30 7587 O 1286.22 7.27073 4.86816 0
M  V30 7588 C 1286.71 6.5273 2.63741 0
M  V30 7589 C 1286 5.1842 2.73198 0
M  V30 7590 N 1286.05 4.38762 1.4784 0
M  V30 7591 H 1283.21 8.36803 2.32493 0
M  V30 7592 H 1282.94 6.70197 1.71129 0
M  V30 7593 H 1283.81 7.03551 4.13168 0
M  V30 7594 P 1287.77 7.20834 5.23717 0
M  V30 7595 O 1287.99 7.79853 6.57286 0
M  V30 7596 O 1288.56 7.79239 4.12957 0
M  V30 7597 O 1288.02 5.63315 5.29344 0
M  V30 7598 C 1287.08 4.80255 6.01876 0
M  V30 7599 C 1287.81 3.64202 6.65911 0
M  V30 7600 O 1288.02 2.60694 5.64732 0
M  V30 7601 C 1289.21 3.93473 7.1943 0
M  V30 7602 O 1289.6 3.02071 8.21205 0
M  V30 7603 C 1290.09 3.73047 5.97036 0
M  V30 7604 C 1289.38 2.58828 5.25741 0
M  V30 7605 N 1289.43 2.68068 3.77503 0
M  V30 7606 H 1286.59 5.40332 6.79951 0
M  V30 7607 H 1286.32 4.41613 5.32378 0
M  V30 7608 H 1287.19 3.26331 7.47797 0
M  V30 7609 P 1291.15 2.75334 8.47391 0
M  V30 7610 O 1291.37 2.44571 9.90142 0
M  V30 7611 O 1291.94 3.87688 7.92115 0
M  V30 7612 O 1291.4 1.4459 7.59357 0
M  V30 7613 C 1290.46 0.347608 7.69215 0
M  V30 7614 C 1291.19 -0.96767 7.52806 0
M  V30 7615 O 1291.4 -1.21036 6.1011 0
M  V30 7616 C 1292.59 -1.04544 8.13308 0
M  V30 7617 O 1292.98 -2.38311 8.41922 0
M  V30 7618 C 1293.47 -0.491279 7.02284 0
M  V30 7619 C 1292.76 -0.996264 5.77469 0
M  V30 7620 N 1292.81 -0.0501916 4.62973 0
M  V30 7621 H 1289.97 0.374722 8.67691 0
M  V30 7622 H 1289.7 0.443485 6.90277 0
M  V30 7623 H 1290.57 -1.75537 7.96793 0
M  V30 7624 P 1294.53 -2.75334 8.47391 0
M  V30 7625 O 1294.75 -3.84128 9.44797 0
M  V30 7626 O 1295.32 -1.51947 8.68712 0
M  V30 7627 O 1294.78 -3.29363 6.99321 0
M  V30 7628 C 1293.84 -4.24011 6.4274 0
M  V30 7629 C 1294.57 -5.20775 5.52155 0
M  V30 7630 O 1294.78 -4.56534 4.22446 0
M  V30 7631 C 1295.97 -5.62629 5.96531 0
M  V30 7632 O 1296.36 -6.87667 5.41053 0
M  V30 7633 C 1296.85 -4.52537 5.39283 0
M  V30 7634 C 1296.14 -4.20027 4.08623 0
M  V30 7635 N 1296.19 -2.76189 3.71603 0
M  V30 7636 H 1293.35 -4.797 7.24003 0
M  V30 7637 H 1293.08 -3.69856 5.84513 0
M  V30 7638 H 1293.95 -6.10356 5.41441 0
M  V30 7639 P 1297.91 -7.20834 5.23717 0
M  V30 7640 O 1298.13 -8.66104 5.38572 0
M  V30 7641 O 1298.7 -6.33544 6.1349 0
M  V30 7642 O 1298.16 -6.7751 3.72168 0
M  V30 7643 C 1297.22 -7.20825 2.7076 0
M  V30 7644 C 1297.95 -7.45864 1.40599 0
M  V30 7645 O 1298.16 -6.17651 0.734225 0
M  V30 7646 C 1299.35 -8.05808 1.51899 0
M  V30 7647 O 1299.74 -8.74358 0.335205 0
M  V30 7648 C 1300.23 -6.83093 1.70294 0
M  V30 7649 C 1299.52 -5.79992 0.836974 0
M  V30 7650 N 1299.57 -4.41864 1.38293 0
M  V30 7651 H 1296.73 -8.13644 3.0377 0
M  V30 7652 H 1296.46 -6.42788 2.55485 0
M  V30 7653 H 1297.33 -8.12039 0.792769 0
M  V30 7654 P 1301.29 -8.91 -1.03304e-11 0
M  V30 7655 O 1301.51 -10.1726 -0.733694 0
M  V30 7656 O 1302.08 -8.73148 1.23936 0
M  V30 7657 O 1301.54 -7.66872 -0.971405 0
M  V30 7658 C 1300.6 -7.42309 -2.04641 0
M  V30 7659 C 1301.33 -6.86059 -3.24661 0
M  V30 7660 O 1301.54 -5.42847 -3.03646 0
M  V30 7661 C 1302.73 -7.41196 -3.50753 0
M  V30 7662 O 1303.12 -7.27073 -4.86816 0
M  V30 7663 C 1303.61 -6.5273 -2.63741 0
M  V30 7664 C 1302.9 -5.1842 -2.73198 0
M  V30 7665 N 1302.95 -4.38762 -1.4784 0
M  V30 7666 H 1300.11 -8.36803 -2.32493 0
M  V30 7667 H 1299.84 -6.70197 -1.71129 0
M  V30 7668 H 1300.71 -7.03551 -4.13168 0
M  V30 7669 P 1304.67 -7.20834 -5.23717 0
M  V30 7670 O 1304.89 -7.79853 -6.57286 0
M  V30 7671 O 1305.46 -7.79239 -4.12957 0
M  V30 7672 O 1304.92 -5.63315 -5.29344 0
M  V30 7673 C 1303.98 -4.80255 -6.01876 0
M  V30 7674 C 1304.71 -3.64202 -6.65911 0
M  V30 7675 O 1304.92 -2.60694 -5.64732 0
M  V30 7676 C 1306.11 -3.93473 -7.1943 0
M  V30 7677 O 1306.5 -3.02071 -8.21205 0
M  V30 7678 C 1306.99 -3.73047 -5.97036 0
M  V30 7679 C 1306.28 -2.58828 -5.25741 0
M  V30 7680 N 1306.33 -2.68068 -3.77503 0
M  V30 7681 H 1303.49 -5.40332 -6.79951 0
M  V30 7682 H 1303.22 -4.41613 -5.32378 0
M  V30 7683 H 1304.09 -3.26331 -7.47797 0
M  V30 7684 P 1308.05 -2.75334 -8.47391 0
M  V30 7685 O 1308.27 -2.44571 -9.90142 0
M  V30 7686 O 1308.84 -3.87688 -7.92115 0
M  V30 7687 O 1308.3 -1.4459 -7.59357 0
M  V30 7688 C 1307.36 -0.347608 -7.69215 0
M  V30 7689 C 1308.09 0.96767 -7.52806 0
M  V30 7690 O 1308.3 1.21036 -6.1011 0
M  V30 7691 C 1309.49 1.04544 -8.13308 0
M  V30 7692 O 1309.88 2.38311 -8.41922 0
M  V30 7693 C 1310.37 0.491279 -7.02284 0
M  V30 7694 C 1309.66 0.996264 -5.77469 0
M  V30 7695 N 1309.71 0.0501916 -4.62973 0
M  V30 7696 H 1306.87 -0.374722 -8.67691 0
M  V30 7697 H 1306.6 -0.443485 -6.90277 0
M  V30 7698 H 1307.47 1.75537 -7.96793 0
M  V30 7699 P 1311.43 2.75334 -8.47391 0
M  V30 7700 O 1311.65 3.84128 -9.44797 0
M  V30 7701 O 1312.22 1.51947 -8.68712 0
M  V30 7702 O 1311.68 3.29363 -6.99321 0
M  V30 7703 C 1310.74 4.24011 -6.4274 0
M  V30 7704 C 1311.47 5.20775 -5.52155 0
M  V30 7705 O 1311.68 4.56534 -4.22446 0
M  V30 7706 C 1312.87 5.62629 -5.96531 0
M  V30 7707 O 1313.26 6.87667 -5.41053 0
M  V30 7708 C 1313.75 4.52537 -5.39283 0
M  V30 7709 C 1313.04 4.20027 -4.08623 0
M  V30 7710 N 1313.09 2.76189 -3.71603 0
M  V30 7711 C 1313.01 1.64862 -4.52822 0
M  V30 7712 N 1313.09 0.512671 -3.88633 0
M  V30 7713 C 1313.23 0.888083 -2.54977 0
M  V30 7714 C 1313.36 0.094668 -1.38677 0
M  V30 7715 N 1313.48 0.890102 -0.232633 0
M  V30 7716 C 1313.48 2.26958 -0.21772 0
M  V30 7717 N 1313.61 2.84626 0.97925 0
M  V30 7718 N 1313.35 3.0178 -1.31033 0
M  V30 7719 C 1313.23 2.26781 -2.43843 0
M  V30 7720 H 1310.25 4.797 -7.24003 0
M  V30 7721 H 1309.98 3.69856 -5.84513 0
M  V30 7722 H 1310.85 6.10356 -5.41441 0
M  V30 7723 P 1314.81 7.20834 -5.23717 0
M  V30 7724 O 1315.03 8.66104 -5.38572 0
M  V30 7725 O 1315.6 6.33544 -6.1349 0
M  V30 7726 O 1315.06 6.7751 -3.72168 0
M  V30 7727 C 1314.12 7.20825 -2.7076 0
M  V30 7728 C 1314.85 7.45864 -1.40599 0
M  V30 7729 O 1315.06 6.17651 -0.734225 0
M  V30 7730 C 1316.25 8.05808 -1.51899 0
M  V30 7731 O 1316.64 8.74358 -0.335205 0
M  V30 7732 C 1317.13 6.83093 -1.70294 0
M  V30 7733 C 1316.42 5.79992 -0.836974 0
M  V30 7734 N 1316.47 4.41864 -1.38293 0
M  V30 7735 H 1313.63 8.13644 -3.0377 0
M  V30 7736 H 1313.36 6.42788 -2.55485 0
M  V30 7737 H 1314.23 8.12039 -0.792769 0
M  V30 7738 P 1318.19 8.91 1.04876e-11 0
M  V30 7739 O 1318.41 10.1746 0.733838 0
M  V30 7740 O 1318.98 8.73346 -1.23964 0
M  V30 7741 O 1318.44 7.66872 0.971405 0
M  V30 7742 C 1317.5 7.42405 2.04668 0
M  V30 7743 C 1318.23 6.86059 3.24661 0
M  V30 7744 O 1318.44 5.42934 3.03695 0
M  V30 7745 C 1319.63 7.41287 3.50796 0
M  V30 7746 O 1320.02 7.27073 4.86816 0
M  V30 7747 C 1320.51 6.5273 2.63741 0
M  V30 7748 C 1319.8 5.1842 2.73198 0
M  V30 7749 N 1319.85 4.38762 1.4784 0
M  V30 7750 H 1317.01 8.36899 2.3252 0
M  V30 7751 H 1316.74 6.70391 1.71179 0
M  V30 7752 H 1317.61 7.03638 4.13219 0
M  V30 7753 H 1320.27 4.59931 3.54016 0
M  V30 7754 H 1320.55 6.88995 1.59871 0
M  V30 7755 H 1321.54 6.4684 3.0373 0
M  V30 7756 H 1319.7 8.47002 3.20749 0
M  V30 7757 P 1321.57 7.20834 5.23717 0
M  V30 7758 O 1321.79 7.79853 6.57286 0
M  V30 7759 O 1322.36 7.79239 4.12957 0
M  V30 7760 O 1321.82 5.63315 5.29344 0
M  V30 7761 C 1320.88 4.80255 6.01876 0
M  V30 7762 C 1321.61 3.64202 6.65911 0
M  V30 7763 O 1321.82 2.60694 5.64732 0
M  V30 7764 C 1323.01 3.93473 7.1943 0
M  V30 7765 O 1323.4 3.02071 8.21205 0
M  V30 7766 C 1323.89 3.73047 5.97036 0
M  V30 7767 C 1323.18 2.58828 5.25741 0
M  V30 7768 N 1323.23 2.68068 3.77503 0
M  V30 7769 H 1320.39 5.40332 6.79951 0
M  V30 7770 H 1320.12 4.41613 5.32378 0
M  V30 7771 H 1320.99 3.26331 7.47797 0
M  V30 7772 P 1324.95 2.75334 8.47391 0
M  V30 7773 O 1325.17 2.44571 9.90142 0
M  V30 7774 O 1325.74 3.87688 7.92115 0
M  V30 7775 O 1325.2 1.4459 7.59357 0
M  V30 7776 C 1324.26 0.347608 7.69215 0
M  V30 7777 C 1324.99 -0.96767 7.52806 0
M  V30 7778 O 1325.2 -1.21036 6.1011 0
M  V30 7779 C 1326.39 -1.04544 8.13308 0
M  V30 7780 O 1326.78 -2.38311 8.41922 0
M  V30 7781 C 1327.27 -0.491279 7.02284 0
M  V30 7782 C 1326.56 -0.996264 5.77469 0
M  V30 7783 N 1326.61 -0.0501916 4.62973 0
M  V30 7784 H 1323.77 0.374722 8.67691 0
M  V30 7785 H 1323.5 0.443485 6.90277 0
M  V30 7786 H 1324.37 -1.75537 7.96793 0
M  V30 7787 P 1328.33 -2.75334 8.47391 0
M  V30 7788 O 1328.55 -3.84128 9.44797 0
M  V30 7789 O 1329.12 -1.51947 8.68712 0
M  V30 7790 O 1328.58 -3.29363 6.99321 0
M  V30 7791 C 1327.64 -4.24011 6.4274 0
M  V30 7792 C 1328.37 -5.20775 5.52155 0
M  V30 7793 O 1328.58 -4.56534 4.22446 0
M  V30 7794 C 1329.77 -5.62629 5.96531 0
M  V30 7795 O 1330.16 -6.87667 5.41053 0
M  V30 7796 C 1330.65 -4.52537 5.39283 0
M  V30 7797 C 1329.94 -4.20027 4.08623 0
M  V30 7798 N 1329.99 -2.76189 3.71603 0
M  V30 7799 H 1327.15 -4.797 7.24003 0
M  V30 7800 H 1326.88 -3.69856 5.84513 0
M  V30 7801 H 1327.75 -6.10356 5.41441 0
M  V30 7802 P 1331.71 -7.20834 5.23717 0
M  V30 7803 O 1331.93 -8.66189 5.38625 0
M  V30 7804 O 1332.5 -6.33615 6.1356 0
M  V30 7805 O 1331.96 -6.7751 3.72168 0
M  V30 7806 C 1331.02 -7.20732 2.70725 0
M  V30 7807 C 1331.75 -7.45864 1.40599 0
M  V30 7808 O 1331.96 -6.17651 0.734225 0
M  V30 7809 C 1333.15 -8.05808 1.51899 0
M  V30 7810 O 1333.54 -8.74358 0.335205 0
M  V30 7811 C 1334.03 -6.83093 1.70294 0
M  V30 7812 C 1333.32 -5.79992 0.836974 0
M  V30 7813 N 1333.37 -4.41769 1.38263 0
M  V30 7814 C 1333.52 -3.38591 0.481702 0
M  V30 7815 O 1333.61 -3.56839 -0.718452 0
M  V30 7816 N 1333.56 -2.1206 1.03569 0
M  V30 7817 C 1333.47 -1.80696 2.36966 0
M  V30 7818 C 1333.32 -2.94845 3.23898 0
M  V30 7819 C 1333.27 -4.19803 2.73435 0
M  V30 7820 H 1330.53 -8.13644 3.0377 0
M  V30 7821 H 1330.26 -6.42695 2.55448 0
M  V30 7822 H 1331.13 -8.12039 0.792769 0
M  V30 7823 H 1333.79 -5.79978 -0.160587 0
M  V30 7824 H 1334.06 -6.51379 2.75643 0
M  V30 7825 H 1335.06 -7.01734 1.34462 0
M  V30 7826 H 1333.22 -8.73674 2.38337 0
M  V30 7827 H 1333.15 -5.04492 3.4095 0
M  V30 7828 P 1335.09 -8.91 -1.06447e-11 0
M  V30 7829 O 1335.31 -10.1726 -0.733694 0
M  V30 7830 O 1335.88 -8.73148 1.23936 0
M  V30 7831 O 1335.34 -7.66872 -0.971405 0
M  V30 7832 C 1334.4 -7.42309 -2.04641 0
M  V30 7833 C 1335.13 -6.86059 -3.24661 0
M  V30 7834 O 1335.34 -5.42847 -3.03646 0
M  V30 7835 C 1336.53 -7.41196 -3.50753 0
M  V30 7836 O 1336.92 -7.27073 -4.86816 0
M  V30 7837 C 1337.41 -6.5273 -2.63741 0
M  V30 7838 C 1336.7 -5.1842 -2.73198 0
M  V30 7839 N 1336.75 -4.38762 -1.4784 0
M  V30 7840 H 1333.91 -8.36803 -2.32493 0
M  V30 7841 H 1333.64 -6.70197 -1.71129 0
M  V30 7842 H 1334.51 -7.03551 -4.13168 0
M  V30 7843 P 1338.47 -7.20834 -5.23717 0
M  V30 7844 O 1338.69 -7.80006 -6.57415 0
M  V30 7845 O 1339.26 -7.79416 -4.13051 0
M  V30 7846 O 1338.72 -5.63315 -5.29344 0
M  V30 7847 C 1337.78 -4.80318 -6.01954 0
M  V30 7848 C 1338.51 -3.64202 -6.65911 0
M  V30 7849 O 1338.72 -2.60736 -5.64823 0
M  V30 7850 C 1339.91 -3.93521 -7.19518 0
M  V30 7851 O 1340.3 -3.02071 -8.21205 0
M  V30 7852 C 1340.79 -3.73047 -5.97036 0
M  V30 7853 C 1340.08 -2.58828 -5.25741 0
M  V30 7854 N 1340.13 -2.68068 -3.77503 0
M  V30 7855 H 1337.29 -5.40394 -6.8003 0
M  V30 7856 H 1337.02 -4.41741 -5.32532 0
M  V30 7857 H 1337.89 -3.26371 -7.47889 0
M  V30 7858 H 1340.55 -1.64007 -5.56746 0
M  V30 7859 H 1340.83 -4.63439 -5.3432 0
M  V30 7860 H 1341.82 -3.44776 -6.25925 0
M  V30 7861 H 1339.98 -4.96707 -7.57347 0
M  V30 7862 P 1341.85 -2.75334 -8.47391 0
M  V30 7863 O 1342.07 -2.44619 -9.90336 0
M  V30 7864 O 1342.64 -3.87776 -7.92294 0
M  V30 7865 O 1342.1 -1.4459 -7.59357 0
M  V30 7866 C 1341.16 -0.347653 -7.69315 0
M  V30 7867 C 1341.89 0.96767 -7.52806 0
M  V30 7868 O 1342.1 1.21055 -6.10208 0
M  V30 7869 C 1343.29 1.04557 -8.13408 0
M  V30 7870 O 1343.68 2.38311 -8.41922 0
M  V30 7871 C 1344.17 0.491279 -7.02284 0
M  V30 7872 C 1343.46 0.996264 -5.77469 0
M  V30 7873 N 1343.51 0.0501916 -4.62973 0
M  V30 7874 C 1343.43 -1.31969 -4.65661 0
M  V30 7875 N 1343.5 -1.86649 -3.48119 0
M  V30 7876 C 1343.65 -0.792089 -2.62406 0
M  V30 7877 C 1343.78 -0.705684 -1.2207 0
M  V30 7878 N 1343.79 -1.76207 -0.413762 0
M  V30 7879 N 1343.9 0.518981 -0.685754 0
M  V30 7880 C 1343.89 1.57595 -1.49174 0
M  V30 7881 N 1343.77 1.62909 -2.80066 0
M  V30 7882 C 1343.65 0.388195 -3.3073 0
M  V30 7883 H 1340.67 -0.374765 -8.67791 0
M  V30 7884 H 1340.4 -0.443613 -6.90476 0
M  V30 7885 H 1341.27 1.75559 -7.96891 0
M  V30 7886 H 1343.93 1.94563 -5.46818 0
M  V30 7887 H 1344.21 -0.608651 -7.04676 0
M  V30 7888 H 1345.2 0.889796 -7.09039 0
M  V30 7889 H 1343.36 0.433128 -9.04664 0
M  V30 7890 H 1343.32 -1.89246 -5.57664 0
M  V30 7891 H 1343.7 -2.71005 -0.804694 0
M  V30 7892 H 1343.89 -1.63189 0.603768 0
M  V30 7893 H 1344 2.53475 -0.997614 0
M  V30 7894 P 1345.23 2.75334 -8.47391 0
M  V30 7895 O 1345.45 3.84128 -9.44797 0
M  V30 7896 O 1346.02 1.51947 -8.68712 0
M  V30 7897 O 1345.48 3.29363 -6.99321 0
M  V30 7898 C 1344.54 4.24011 -6.4274 0
M  V30 7899 C 1345.27 5.20775 -5.52155 0
M  V30 7900 O 1345.48 4.56534 -4.22446 0
M  V30 7901 C 1346.67 5.62629 -5.96531 0
M  V30 7902 O 1347.06 6.87667 -5.41053 0
M  V30 7903 C 1347.55 4.52537 -5.39283 0
M  V30 7904 C 1346.84 4.20027 -4.08623 0
M  V30 7905 N 1346.89 2.76189 -3.71603 0
M  V30 7906 H 1344.05 4.797 -7.24003 0
M  V30 7907 H 1343.78 3.69856 -5.84513 0
M  V30 7908 H 1344.65 6.10356 -5.41441 0
M  V30 7909 P 1348.61 7.20834 -5.23717 0
M  V30 7910 O 1348.83 8.66274 -5.38678 0
M  V30 7911 O 1349.4 6.33687 -6.13629 0
M  V30 7912 O 1348.86 6.7751 -3.72168 0
M  V30 7913 C 1347.92 7.20919 -2.70795 0
M  V30 7914 C 1348.65 7.45864 -1.40599 0
M  V30 7915 O 1348.86 6.17751 -0.734343 0
M  V30 7916 C 1350.05 8.05906 -1.51917 0
M  V30 7917 O 1350.44 8.74358 -0.335205 0
M  V30 7918 C 1350.93 6.83093 -1.70294 0
M  V30 7919 C 1350.22 5.79992 -0.836974 0
M  V30 7920 N 1350.27 4.41864 -1.38293 0
M  V30 7921 H 1347.43 8.13738 -3.03804 0
M  V30 7922 H 1347.16 6.42974 -2.55559 0
M  V30 7923 H 1348.03 8.12139 -0.792866 0
M  V30 7924 H 1350.69 5.80178 0.160643 0
M  V30 7925 H 1350.97 6.51379 -2.75643 0
M  V30 7926 H 1351.96 7.01832 -1.3448 0
M  V30 7927 H 1350.12 8.73771 -2.38364 0
M  V30 7928 P 1351.99 8.91 1.08019e-11 0
M  V30 7929 O 1352.21 10.1736 0.733766 0
M  V30 7930 O 1352.78 8.73247 -1.2395 0
M  V30 7931 O 1352.24 7.66872 0.971405 0
M  V30 7932 C 1351.3 7.42212 2.04614 0
M  V30 7933 C 1352.03 6.86059 3.24661 0
M  V30 7934 O 1352.24 5.42847 3.03646 0
M  V30 7935 C 1353.43 7.41196 3.50753 0
M  V30 7936 O 1353.82 7.27073 4.86816 0
M  V30 7937 C 1354.31 6.5273 2.63741 0
M  V30 7938 C 1353.6 5.1842 2.73198 0
M  V30 7939 N 1353.65 4.38668 1.47808 0
M  V30 7940 C 1353.8 3.02239 1.60048 0
M  V30 7941 O 1353.89 2.46459 2.67869 0
M  V30 7942 N 1353.84 2.32436 0.408571 0
M  V30 7943 C 1353.75 2.85471 -0.854993 0
M  V30 7944 C 1353.6 4.28918 -0.887335 0
M  V30 7945 C 1353.55 5.00349 0.255399 0
M  V30 7946 H 1350.81 8.36803 2.32493 0
M  V30 7947 H 1350.54 6.701 1.71105 0
M  V30 7948 H 1351.41 7.03551 4.13168 0
M  V30 7949 H 1354.06 4.59773 3.53894 0
M  V30 7950 H 1354.34 6.88995 1.59871 0
M  V30 7951 H 1355.34 6.46749 3.03687 0
M  V30 7952 H 1353.5 8.46908 3.20714 0
M  V30 7953 H 1353.43 6.08548 0.206986 0
M  V30 7954 P 1355.37 7.20834 5.23717 0
M  V30 7955 O 1355.59 7.79853 6.57286 0
M  V30 7956 O 1356.16 7.79239 4.12957 0
M  V30 7957 O 1355.62 5.63315 5.29344 0
M  V30 7958 C 1354.68 4.80255 6.01876 0
M  V30 7959 C 1355.41 3.64202 6.65911 0
M  V30 7960 O 1355.62 2.60694 5.64732 0
M  V30 7961 C 1356.81 3.93473 7.1943 0
M  V30 7962 O 1357.2 3.02071 8.21205 0
M  V30 7963 C 1357.69 3.73047 5.97036 0
M  V30 7964 C 1356.98 2.58828 5.25741 0
M  V30 7965 N 1357.03 2.68068 3.77503 0
M  V30 7966 H 1354.19 5.40332 6.79951 0
M  V30 7967 H 1353.92 4.41613 5.32378 0
M  V30 7968 H 1354.79 3.26331 7.47797 0
M  V30 7969 P 1358.75 2.75334 8.47391 0
M  V30 7970 O 1358.97 2.44571 9.90142 0
M  V30 7971 O 1359.54 3.87688 7.92115 0
M  V30 7972 O 1359 1.4459 7.59357 0
M  V30 7973 C 1358.06 0.347608 7.69215 0
M  V30 7974 C 1358.79 -0.96767 7.52806 0
M  V30 7975 O 1359 -1.21036 6.1011 0
M  V30 7976 C 1360.19 -1.04544 8.13308 0
M  V30 7977 O 1360.58 -2.38311 8.41922 0
M  V30 7978 C 1361.07 -0.491279 7.02284 0
M  V30 7979 C 1360.36 -0.996264 5.77469 0
M  V30 7980 N 1360.41 -0.0501916 4.62973 0
M  V30 7981 H 1357.57 0.374722 8.67691 0
M  V30 7982 H 1357.3 0.443485 6.90277 0
M  V30 7983 H 1358.17 -1.75537 7.96793 0
M  V30 7984 P 1362.13 -2.75334 8.47391 0
M  V30 7985 O 1362.35 -3.84128 9.44797 0
M  V30 7986 O 1362.92 -1.51947 8.68712 0
M  V30 7987 O 1362.38 -3.29363 6.99321 0
M  V30 7988 C 1361.44 -4.24011 6.4274 0
M  V30 7989 C 1362.17 -5.20775 5.52155 0
M  V30 7990 O 1362.38 -4.56534 4.22446 0
M  V30 7991 C 1363.57 -5.62629 5.96531 0
M  V30 7992 O 1363.96 -6.87667 5.41053 0
M  V30 7993 C 1364.45 -4.52537 5.39283 0
M  V30 7994 C 1363.74 -4.20027 4.08623 0
M  V30 7995 N 1363.79 -2.76189 3.71603 0
M  V30 7996 C 1363.71 -1.64862 4.52822 0
M  V30 7997 N 1363.79 -0.512671 3.88633 0
M  V30 7998 C 1363.93 -0.888083 2.54977 0
M  V30 7999 C 1364.06 -0.094668 1.38677 0
M  V30 8000 O 1364.08 1.13053 1.28163 0
M  V30 8001 N 1364.18 -0.890102 0.232633 0
M  V30 8002 C 1364.18 -2.26958 0.21772 0
M  V30 8003 N 1364.31 -2.84626 -0.97925 0
M  V30 8004 N 1364.05 -3.0178 1.31033 0
M  V30 8005 C 1363.93 -2.26781 2.43843 0
M  V30 8006 H 1360.95 -4.797 7.24003 0
M  V30 8007 H 1360.68 -3.69856 5.84513 0
M  V30 8008 H 1361.55 -6.10356 5.41441 0
M  V30 8009 H 1364.2 -4.79061 3.27488 0
M  V30 8010 H 1364.48 -3.64906 6.05785 0
M  V30 8011 H 1365.48 -4.8868 5.2125 0
M  V30 8012 H 1363.64 -5.66726 7.06352 0
M  V30 8013 H 1363.59 -1.71169 5.60966 0
M  V30 8014 H 1364.27 -0.419134 -0.644739 0
M  V30 8015 H 1364.31 -3.87332 -1.06098 0
M  V30 8016 H 1364.41 -2.26417 -1.82483 0
M  V30 8017 P 1365.51 -7.20834 5.23717 0
M  V30 8018 O 1365.73 -8.66104 5.38572 0
M  V30 8019 O 1366.3 -6.33544 6.1349 0
M  V30 8020 O 1365.76 -6.7751 3.72168 0
M  V30 8021 C 1364.82 -7.20825 2.7076 0
M  V30 8022 C 1365.55 -7.45864 1.40599 0
M  V30 8023 O 1365.76 -6.17651 0.734225 0
M  V30 8024 C 1366.95 -8.05808 1.51899 0
M  V30 8025 O 1367.34 -8.74358 0.335205 0
M  V30 8026 C 1367.83 -6.83093 1.70294 0
M  V30 8027 C 1367.12 -5.79992 0.836974 0
M  V30 8028 N 1367.17 -4.41864 1.38293 0
M  V30 8029 H 1364.33 -8.13644 3.0377 0
M  V30 8030 H 1364.06 -6.42788 2.55485 0
M  V30 8031 H 1364.93 -8.12039 0.792769 0
M  V30 8032 P 1368.89 -8.91 -1.09591e-11 0
M  V30 8033 O 1369.11 -10.1726 -0.733694 0
M  V30 8034 O 1369.68 -8.73148 1.23936 0
M  V30 8035 O 1369.14 -7.66872 -0.971405 0
M  V30 8036 C 1368.2 -7.42309 -2.04641 0
M  V30 8037 C 1368.93 -6.86059 -3.24661 0
M  V30 8038 O 1369.14 -5.42847 -3.03646 0
M  V30 8039 C 1370.33 -7.41196 -3.50753 0
M  V30 8040 O 1370.72 -7.27073 -4.86816 0
M  V30 8041 C 1371.21 -6.5273 -2.63741 0
M  V30 8042 C 1370.5 -5.1842 -2.73198 0
M  V30 8043 N 1370.55 -4.38762 -1.4784 0
M  V30 8044 H 1367.71 -8.36803 -2.32493 0
M  V30 8045 H 1367.44 -6.70197 -1.71129 0
M  V30 8046 H 1368.31 -7.03551 -4.13168 0
M  V30 8047 P 1372.27 -7.20834 -5.23717 0
M  V30 8048 O 1372.49 -7.79853 -6.57286 0
M  V30 8049 O 1373.06 -7.79239 -4.12957 0
M  V30 8050 O 1372.52 -5.63315 -5.29344 0
M  V30 8051 C 1371.58 -4.80255 -6.01876 0
M  V30 8052 C 1372.31 -3.64202 -6.65911 0
M  V30 8053 O 1372.52 -2.60694 -5.64732 0
M  V30 8054 C 1373.71 -3.93473 -7.1943 0
M  V30 8055 O 1374.1 -3.02071 -8.21205 0
M  V30 8056 C 1374.59 -3.73047 -5.97036 0
M  V30 8057 C 1373.88 -2.58828 -5.25741 0
M  V30 8058 N 1373.93 -2.68068 -3.77503 0
M  V30 8059 H 1371.09 -5.40332 -6.79951 0
M  V30 8060 H 1370.82 -4.41613 -5.32378 0
M  V30 8061 H 1371.69 -3.26331 -7.47797 0
M  V30 8062 P 1375.65 -2.75334 -8.47391 0
M  V30 8063 O 1375.87 -2.44619 -9.90336 0
M  V30 8064 O 1376.44 -3.87776 -7.92294 0
M  V30 8065 O 1375.9 -1.4459 -7.59357 0
M  V30 8066 C 1374.96 -0.347653 -7.69315 0
M  V30 8067 C 1375.69 0.96767 -7.52806 0
M  V30 8068 O 1375.9 1.21055 -6.10208 0
M  V30 8069 C 1377.09 1.04557 -8.13408 0
M  V30 8070 O 1377.48 2.38311 -8.41922 0
M  V30 8071 C 1377.97 0.491279 -7.02284 0
M  V30 8072 C 1377.26 0.996264 -5.77469 0
M  V30 8073 N 1377.31 0.0501916 -4.62973 0
M  V30 8074 H 1374.47 -0.374765 -8.67791 0
M  V30 8075 H 1374.2 -0.443613 -6.90476 0
M  V30 8076 H 1375.07 1.75559 -7.96891 0
M  V30 8077 H 1377.72 1.94563 -5.46818 0
M  V30 8078 H 1378 -0.608651 -7.04676 0
M  V30 8079 H 1379 0.889796 -7.09039 0
M  V30 8080 H 1377.16 0.433128 -9.04664 0
M  V30 8081 P 1379.03 2.75334 -8.47391 0
M  V30 8082 O 1379.25 3.84128 -9.44797 0
M  V30 8083 O 1379.82 1.51947 -8.68712 0
M  V30 8084 O 1379.28 3.29363 -6.99321 0
M  V30 8085 C 1378.34 4.24011 -6.4274 0
M  V30 8086 C 1379.07 5.20775 -5.52155 0
M  V30 8087 O 1379.28 4.56534 -4.22446 0
M  V30 8088 C 1380.47 5.62629 -5.96531 0
M  V30 8089 O 1380.86 6.87667 -5.41053 0
M  V30 8090 C 1381.35 4.52537 -5.39283 0
M  V30 8091 C 1380.64 4.20027 -4.08623 0
M  V30 8092 N 1380.69 2.76189 -3.71603 0
M  V30 8093 H 1377.85 4.797 -7.24003 0
M  V30 8094 H 1377.58 3.69856 -5.84513 0
M  V30 8095 H 1378.45 6.10356 -5.41441 0
M  V30 8096 P 1382.41 7.20834 -5.23717 0
M  V30 8097 O 1382.63 8.66104 -5.38572 0
M  V30 8098 O 1383.2 6.33544 -6.1349 0
M  V30 8099 O 1382.66 6.7751 -3.72168 0
M  V30 8100 C 1381.72 7.20825 -2.7076 0
M  V30 8101 C 1382.45 7.45864 -1.40599 0
M  V30 8102 O 1382.66 6.17651 -0.734225 0
M  V30 8103 C 1383.85 8.05808 -1.51899 0
M  V30 8104 O 1384.24 8.74358 -0.335205 0
M  V30 8105 C 1384.73 6.83093 -1.70294 0
M  V30 8106 C 1384.02 5.79992 -0.836974 0
M  V30 8107 N 1384.07 4.41864 -1.38293 0
M  V30 8108 H 1381.23 8.13644 -3.0377 0
M  V30 8109 H 1380.96 6.42788 -2.55485 0
M  V30 8110 H 1381.83 8.12039 -0.792769 0
M  V30 8111 P 1385.79 8.91 1.03566e-11 0
M  V30 8112 O 1386.01 10.1746 0.733838 0
M  V30 8113 O 1386.58 8.73346 -1.23964 0
M  V30 8114 O 1386.04 7.66872 0.971405 0
M  V30 8115 C 1385.1 7.42405 2.04668 0
M  V30 8116 C 1385.83 6.86059 3.24661 0
M  V30 8117 O 1386.04 5.42934 3.03695 0
M  V30 8118 C 1387.23 7.41287 3.50796 0
M  V30 8119 O 1387.62 7.27073 4.86816 0
M  V30 8120 C 1388.11 6.5273 2.63741 0
M  V30 8121 C 1387.4 5.1842 2.73198 0
M  V30 8122 N 1387.45 4.38762 1.4784 0
M  V30 8123 C 1387.37 4.83651 0.183876 0
M  V30 8124 N 1387.44 3.88759 -0.699393 0
M  V30 8125 C 1387.59 2.7404 0.0575568 0
M  V30 8126 C 1387.72 1.37902 -0.293928 0
M  V30 8127 N 1387.73 0.938021 -1.54797 0
M  V30 8128 N 1387.84 0.491817 0.70549 0
M  V30 8129 C 1387.83 0.931735 1.95979 0
M  V30 8130 N 1387.71 2.16017 2.41481 0
M  V30 8131 C 1387.59 3.02547 1.39121 0
M  V30 8132 H 1384.61 8.36899 2.3252 0
M  V30 8133 H 1384.34 6.70391 1.71179 0
M  V30 8134 H 1385.21 7.03638 4.13219 0
M  V30 8135 H 1387.86 4.59931 3.54016 0
M  V30 8136 H 1388.14 6.88995 1.59871 0
M  V30 8137 H 1389.14 6.4684 3.0373 0
M  V30 8138 H 1387.3 8.47002 3.20749 0
M  V30 8139 H 1387.26 5.8885 -0.0765548 0
M  V30 8140 H 1387.64 1.60276 -2.32875 0
M  V30 8141 H 1387.83 -0.0699355 -1.73859 0
M  V30 8142 H 1387.94 0.165507 2.71897 0
M  V30 8143 P 1389.17 7.20834 5.23717 0
M  V30 8144 O 1389.39 7.79853 6.57286 0
M  V30 8145 O 1389.96 7.79239 4.12957 0
M  V30 8146 O 1389.42 5.63315 5.29344 0
M  V30 8147 C 1388.48 4.80255 6.01876 0
M  V30 8148 C 1389.21 3.64202 6.65911 0
M  V30 8149 O 1389.42 2.60694 5.64732 0
M  V30 8150 C 1390.61 3.93473 7.1943 0
M  V30 8151 O 1391 3.02071 8.21205 0
M  V30 8152 C 1391.49 3.73047 5.97036 0
M  V30 8153 C 1390.78 2.58828 5.25741 0
M  V30 8154 N 1390.83 2.68068 3.77503 0
M  V30 8155 C 1390.75 3.79715 2.96723 0
M  V30 8156 N 1390.83 3.5377 1.68852 0
M  V30 8157 C 1390.97 2.15054 1.63254 0
M  V30 8158 C 1391.1 1.28964 0.518571 0
M  V30 8159 N 1391.22 -0.0538097 0.918425 0
M  V30 8160 C 1391.22 -0.494275 2.22578 0
M  V30 8161 N 1391.35 -1.81086 2.40434 0
M  V30 8162 N 1391.09 0.313645 3.27502 0
M  V30 8163 C 1390.97 1.61829 2.91033 0
M  V30 8164 H 1387.99 5.40332 6.79951 0
M  V30 8165 H 1387.72 4.41613 5.32378 0
M  V30 8166 H 1388.59 3.26331 7.47797 0
M  V30 8167 P 1392.55 2.75334 8.47391 0
M  V30 8168 O 1392.77 2.44571 9.90142 0
M  V30 8169 O 1393.34 3.87688 7.92115 0
M  V30 8170 O 1392.8 1.4459 7.59357 0
M  V30 8171 C 1391.86 0.347608 7.69215 0
M  V30 8172 C 1392.59 -0.96767 7.52806 0
M  V30 8173 O 1392.8 -1.21036 6.1011 0
M  V30 8174 C 1393.99 -1.04544 8.13308 0
M  V30 8175 O 1394.38 -2.38311 8.41922 0
M  V30 8176 C 1394.87 -0.491279 7.02284 0
M  V30 8177 C 1394.16 -0.996264 5.77469 0
M  V30 8178 N 1394.21 -0.0501916 4.62973 0
M  V30 8179 C 1394.13 1.32786 4.63244 0
M  V30 8180 N 1394.21 1.86957 3.44545 0
M  V30 8181 C 1394.35 0.780241 2.58481 0
M  V30 8182 C 1394.48 0.738536 1.17757 0
M  V30 8183 N 1394.6 -0.58337 0.711393 0
M  V30 8184 C 1394.6 -1.70816 1.51017 0
M  V30 8185 N 1394.73 -2.87826 0.880757 0
M  V30 8186 N 1394.47 -1.67126 2.8339 0
M  V30 8187 C 1394.35 -0.401421 3.30572 0
M  V30 8188 H 1391.37 0.374722 8.67691 0
M  V30 8189 H 1391.1 0.443485 6.90277 0
M  V30 8190 H 1391.97 -1.75537 7.96793 0
M  V30 8191 P 1395.93 -2.75334 8.47391 0
M  V30 8192 O 1396.15 -3.84166 9.4489 0
M  V30 8193 O 1396.72 -1.51964 8.6881 0
M  V30 8194 O 1396.18 -3.29363 6.99321 0
M  V30 8195 C 1395.24 -4.24011 6.4274 0
M  V30 8196 C 1395.97 -5.20775 5.52155 0
M  V30 8197 O 1396.18 -4.56534 4.22446 0
M  V30 8198 C 1397.37 -5.62629 5.96531 0
M  V30 8199 O 1397.76 -6.87667 5.41053 0
M  V30 8200 C 1398.25 -4.52537 5.39283 0
M  V30 8201 C 1397.54 -4.20027 4.08623 0
M  V30 8202 N 1397.59 -2.7613 3.71522 0
M  V30 8203 C 1397.74 -2.43702 2.37085 0
M  V30 8204 O 1397.83 -3.3531 1.54039 0
M  V30 8205 N 1397.79 -0.951103 2.10621 0
M  V30 8206 C 1397.69 -0.165021 2.93537 0
M  V30 8207 N 1397.74 1.09723 2.53253 0
M  V30 8208 C 1397.54 -0.469576 4.32458 0
M  V30 8209 C 1397.49 -1.78658 4.65921 0
M  V30 8210 H 1394.75 -4.79645 7.23919 0
M  V30 8211 H 1394.48 -3.69802 5.84429 0
M  V30 8212 H 1395.35 -6.10431 5.41508 0
M  V30 8213 H 1398 -4.78733 3.27967 0
M  V30 8214 H 1398.28 -3.64957 6.05871 0
M  V30 8215 H 1399.28 -4.8868 5.2125 0
M  V30 8216 H 1397.44 -5.66726 7.06352 0
M  V30 8217 H 1397.37 -2.06987 5.70299 0
M  V30 8218 H 1397.47 0.314383 5.07728 0
M  V30 8219 H 1397.86 1.31363 1.5319 0
M  V30 8220 H 1397.66 1.85978 3.21943 0
M  V30 8221 P 1399.31 -7.20834 5.23717 0
M  V30 8222 O 1399.53 -8.66104 5.38572 0
M  V30 8223 O 1400.1 -6.33544 6.1349 0
M  V30 8224 O 1399.56 -6.7751 3.72168 0
M  V30 8225 C 1398.62 -7.20825 2.7076 0
M  V30 8226 C 1399.35 -7.45864 1.40599 0
M  V30 8227 O 1399.56 -6.17651 0.734225 0
M  V30 8228 C 1400.75 -8.05808 1.51899 0
M  V30 8229 O 1401.14 -8.74358 0.335205 0
M  V30 8230 C 1401.63 -6.83093 1.70294 0
M  V30 8231 C 1400.92 -5.79992 0.836974 0
M  V30 8232 N 1400.97 -4.41864 1.38293 0
M  V30 8233 H 1398.13 -8.13644 3.0377 0
M  V30 8234 H 1397.86 -6.42788 2.55485 0
M  V30 8235 H 1398.73 -8.12039 0.792769 0
M  V30 8236 P 1402.69 -8.91 -9.24756e-12 0
M  V30 8237 O 1402.91 -10.1726 -0.733694 0
M  V30 8238 O 1403.48 -8.73148 1.23936 0
M  V30 8239 O 1402.94 -7.66872 -0.971405 0
M  V30 8240 C 1402 -7.42309 -2.04641 0
M  V30 8241 C 1402.73 -6.86059 -3.24661 0
M  V30 8242 O 1402.94 -5.42847 -3.03646 0
M  V30 8243 C 1404.13 -7.41196 -3.50753 0
M  V30 8244 O 1404.52 -7.27073 -4.86816 0
M  V30 8245 C 1405.01 -6.5273 -2.63741 0
M  V30 8246 C 1404.3 -5.1842 -2.73198 0
M  V30 8247 N 1404.35 -4.38762 -1.4784 0
M  V30 8248 H 1401.51 -8.36803 -2.32493 0
M  V30 8249 H 1401.24 -6.70197 -1.71129 0
M  V30 8250 H 1402.11 -7.03551 -4.13168 0
M  V30 8251 P 1406.07 -7.20834 -5.23717 0
M  V30 8252 O 1406.29 -7.79853 -6.57286 0
M  V30 8253 O 1406.86 -7.79239 -4.12957 0
M  V30 8254 O 1406.32 -5.63315 -5.29344 0
M  V30 8255 C 1405.38 -4.80255 -6.01876 0
M  V30 8256 C 1406.11 -3.64202 -6.65911 0
M  V30 8257 O 1406.32 -2.60694 -5.64732 0
M  V30 8258 C 1407.51 -3.93473 -7.1943 0
M  V30 8259 O 1407.9 -3.02071 -8.21205 0
M  V30 8260 C 1408.39 -3.73047 -5.97036 0
M  V30 8261 C 1407.68 -2.58828 -5.25741 0
M  V30 8262 N 1407.73 -2.68068 -3.77503 0
M  V30 8263 C 1407.65 -3.79715 -2.96723 0
M  V30 8264 N 1407.73 -3.5377 -1.68852 0
M  V30 8265 C 1407.87 -2.15054 -1.63254 0
M  V30 8266 C 1408 -1.28964 -0.518571 0
M  V30 8267 O 1408.02 -1.56826 0.679156 0
M  V30 8268 N 1408.12 0.0538097 -0.918425 0
M  V30 8269 C 1408.12 0.494275 -2.22578 0
M  V30 8270 N 1408.25 1.81086 -2.40434 0
M  V30 8271 N 1407.99 -0.313645 -3.27502 0
M  V30 8272 C 1407.87 -1.61829 -2.91033 0
M  V30 8273 H 1404.89 -5.40332 -6.79951 0
M  V30 8274 H 1404.62 -4.41613 -5.32378 0
M  V30 8275 H 1405.49 -3.26331 -7.47797 0
M  V30 8276 H 1408.14 -1.63422 -5.56814 0
M  V30 8277 H 1408.42 -4.63374 -5.34244 0
M  V30 8278 H 1409.42 -3.44728 -6.25838 0
M  V30 8279 H 1407.58 -4.96652 -7.57263 0
M  V30 8280 H 1407.53 -4.80617 -3.3614 0
M  V30 8281 H 1408.21 0.742702 -0.199384 0
M  V30 8282 H 1408.25 2.20598 -3.35588 0
M  V30 8283 H 1408.35 2.43518 -1.58945 0
M  V30 8284 P 1409.45 -2.75334 -8.47391 0
M  V30 8285 O 1409.67 -2.44571 -9.90142 0
M  V30 8286 O 1410.24 -3.87688 -7.92115 0
M  V30 8287 O 1409.7 -1.4459 -7.59357 0
M  V30 8288 C 1408.76 -0.347608 -7.69215 0
M  V30 8289 C 1409.49 0.96767 -7.52806 0
M  V30 8290 O 1409.7 1.21036 -6.1011 0
M  V30 8291 C 1410.89 1.04544 -8.13308 0
M  V30 8292 O 1411.28 2.38311 -8.41922 0
M  V30 8293 C 1411.77 0.491279 -7.02284 0
M  V30 8294 C 1411.06 0.996264 -5.77469 0
M  V30 8295 N 1411.11 0.0501916 -4.62973 0
M  V30 8296 C 1411.03 -1.32786 -4.63244 0
M  V30 8297 N 1411.11 -1.86957 -3.44545 0
M  V30 8298 C 1411.25 -0.780241 -2.58481 0
M  V30 8299 C 1411.38 -0.738536 -1.17757 0
M  V30 8300 O 1411.4 -1.66794 -0.372349 0
M  V30 8301 N 1411.5 0.58337 -0.711393 0
M  V30 8302 C 1411.5 1.70816 -1.51017 0
M  V30 8303 N 1411.63 2.87826 -0.880757 0
M  V30 8304 N 1411.37 1.67126 -2.8339 0
M  V30 8305 C 1411.25 0.401421 -3.30572 0
M  V30 8306 H 1408.27 -0.374722 -8.67691 0
M  V30 8307 H 1408 -0.443485 -6.90277 0
M  V30 8308 H 1408.87 1.75537 -7.96793 0
M  V30 8309 H 1411.52 1.95076 -5.46529 0
M  V30 8310 H 1411.8 -0.608565 -7.04577 0
M  V30 8311 H 1412.8 0.889672 -7.08939 0
M  V30 8312 H 1410.96 0.43308 -9.04564 0
M  V30 8313 H 1410.91 -1.91249 -5.54442 0
M  V30 8314 H 1411.59 0.718054 0.275244 0
M  V30 8315 H 1411.63 3.75721 -1.41832 0
M  V30 8316 H 1411.73 2.90436 0.145468 0
M  V30 8317 P 1412.83 2.75334 -8.47391 0
M  V30 8318 O 1413.05 3.84128 -9.44797 0
M  V30 8319 O 1413.62 1.51947 -8.68712 0
M  V30 8320 O 1413.08 3.29363 -6.99321 0
M  V30 8321 C 1412.14 4.24011 -6.4274 0
M  V30 8322 C 1412.87 5.20775 -5.52155 0
M  V30 8323 O 1413.08 4.56534 -4.22446 0
M  V30 8324 C 1414.27 5.62629 -5.96531 0
M  V30 8325 O 1414.66 6.87667 -5.41053 0
M  V30 8326 C 1415.15 4.52537 -5.39283 0
M  V30 8327 C 1414.44 4.20027 -4.08623 0
M  V30 8328 N 1414.49 2.76189 -3.71603 0
M  V30 8329 H 1411.65 4.797 -7.24003 0
M  V30 8330 H 1411.38 3.69856 -5.84513 0
M  V30 8331 H 1412.25 6.10356 -5.41441 0
M  V30 8332 P 1416.21 7.20834 -5.23717 0
M  V30 8333 O 1416.43 8.66104 -5.38572 0
M  V30 8334 O 1417 6.33544 -6.1349 0
M  V30 8335 O 1416.46 6.7751 -3.72168 0
M  V30 8336 C 1415.52 7.20825 -2.7076 0
M  V30 8337 C 1416.25 7.45864 -1.40599 0
M  V30 8338 O 1416.46 6.17651 -0.734225 0
M  V30 8339 C 1417.65 8.05808 -1.51899 0
M  V30 8340 O 1418.04 8.74358 -0.335205 0
M  V30 8341 C 1418.53 6.83093 -1.70294 0
M  V30 8342 C 1417.82 5.79992 -0.836974 0
M  V30 8343 N 1417.87 4.41864 -1.38293 0
M  V30 8344 H 1415.03 8.13644 -3.0377 0
M  V30 8345 H 1414.76 6.42788 -2.55485 0
M  V30 8346 H 1415.63 8.12039 -0.792769 0
M  V30 8347 P 1419.59 8.91 8.13856e-12 0
M  V30 8348 O 1419.81 10.1726 0.733694 0
M  V30 8349 O 1420.38 8.73148 -1.23936 0
M  V30 8350 O 1419.84 7.66872 0.971405 0
M  V30 8351 C 1418.9 7.42309 2.04641 0
M  V30 8352 C 1419.63 6.86059 3.24661 0
M  V30 8353 O 1419.84 5.42847 3.03646 0
M  V30 8354 C 1421.03 7.41196 3.50753 0
M  V30 8355 O 1421.42 7.27073 4.86816 0
M  V30 8356 C 1421.91 6.5273 2.63741 0
M  V30 8357 C 1421.2 5.1842 2.73198 0
M  V30 8358 N 1421.25 4.38762 1.4784 0
M  V30 8359 H 1418.41 8.36803 2.32493 0
M  V30 8360 H 1418.14 6.70197 1.71129 0
M  V30 8361 H 1419.01 7.03551 4.13168 0
M  V30 8362 P 1422.97 7.20834 5.23717 0
M  V30 8363 O 1423.19 7.79853 6.57286 0
M  V30 8364 O 1423.76 7.79239 4.12957 0
M  V30 8365 O 1423.22 5.63315 5.29344 0
M  V30 8366 C 1422.28 4.80255 6.01876 0
M  V30 8367 C 1423.01 3.64202 6.65911 0
M  V30 8368 O 1423.22 2.60694 5.64732 0
M  V30 8369 C 1424.41 3.93473 7.1943 0
M  V30 8370 O 1424.8 3.02071 8.21205 0
M  V30 8371 C 1425.29 3.73047 5.97036 0
M  V30 8372 C 1424.58 2.58828 5.25741 0
M  V30 8373 N 1424.63 2.68068 3.77503 0
M  V30 8374 H 1421.79 5.40332 6.79951 0
M  V30 8375 H 1421.52 4.41613 5.32378 0
M  V30 8376 H 1422.39 3.26331 7.47797 0
M  V30 8377 P 1426.35 2.75334 8.47391 0
M  V30 8378 O 1426.57 2.44595 9.90239 0
M  V30 8379 O 1427.14 3.87732 7.92204 0
M  V30 8380 O 1426.6 1.4459 7.59357 0
M  V30 8381 C 1425.66 0.347563 7.69115 0
M  V30 8382 C 1426.39 -0.96767 7.52806 0
M  V30 8383 O 1426.6 -1.21036 6.1011 0
M  V30 8384 C 1427.79 -1.04544 8.13308 0
M  V30 8385 O 1428.18 -2.38311 8.41922 0
M  V30 8386 C 1428.67 -0.491279 7.02284 0
M  V30 8387 C 1427.96 -0.996264 5.77469 0
M  V30 8388 N 1428.01 -0.0501808 4.62873 0
M  V30 8389 C 1428.16 -0.588177 3.36904 0
M  V30 8390 O 1428.25 -1.78598 3.17173 0
M  V30 8391 N 1428.2 0.329694 2.33686 0
M  V30 8392 C 1428.11 1.6953 2.45079 0
M  V30 8393 C 1427.96 2.16933 3.80505 0
M  V30 8394 C 1427.91 1.30326 4.83752 0
M  V30 8395 H 1425.17 0.374722 8.67691 0
M  V30 8396 H 1424.9 0.443421 6.90177 0
M  V30 8397 H 1425.77 -1.75537 7.96793 0
M  V30 8398 H 1428.42 -1.94496 5.46629 0
M  V30 8399 H 1428.7 0.608651 7.04676 0
M  V30 8400 H 1429.7 -0.889672 7.08939 0
M  V30 8401 H 1427.86 -0.43308 9.04564 0
M  V30 8402 H 1427.79 1.68366 5.8516 0
M  V30 8403 P 1429.73 -2.75334 8.47391 0
M  V30 8404 O 1429.95 -3.84128 9.44797 0
M  V30 8405 O 1430.52 -1.51947 8.68712 0
M  V30 8406 O 1429.98 -3.29363 6.99321 0
M  V30 8407 C 1429.04 -4.24011 6.4274 0
M  V30 8408 C 1429.77 -5.20775 5.52155 0
M  V30 8409 O 1429.98 -4.56534 4.22446 0
M  V30 8410 C 1431.17 -5.62629 5.96531 0
M  V30 8411 O 1431.56 -6.87667 5.41053 0
M  V30 8412 C 1432.05 -4.52537 5.39283 0
M  V30 8413 C 1431.34 -4.20027 4.08623 0
M  V30 8414 N 1431.39 -2.76189 3.71603 0
M  V30 8415 H 1428.55 -4.797 7.24003 0
M  V30 8416 H 1428.28 -3.69856 5.84513 0
M  V30 8417 H 1429.15 -6.10356 5.41441 0
M  V30 8418 P 1433.11 -7.20834 5.23717 0
M  V30 8419 O 1433.33 -8.66104 5.38572 0
M  V30 8420 O 1433.9 -6.33544 6.1349 0
M  V30 8421 O 1433.36 -6.7751 3.72168 0
M  V30 8422 C 1432.42 -7.20825 2.7076 0
M  V30 8423 C 1433.15 -7.45864 1.40599 0
M  V30 8424 O 1433.36 -6.17651 0.734225 0
M  V30 8425 C 1434.55 -8.05808 1.51899 0
M  V30 8426 O 1434.94 -8.74358 0.335205 0
M  V30 8427 C 1435.43 -6.83093 1.70294 0
M  V30 8428 C 1434.72 -5.79992 0.836974 0
M  V30 8429 N 1434.77 -4.41864 1.38293 0
M  V30 8430 H 1431.93 -8.13644 3.0377 0
M  V30 8431 H 1431.66 -6.42788 2.55485 0
M  V30 8432 H 1432.53 -8.12039 0.792769 0
M  V30 8433 P 1436.49 -8.91 -7.02955e-12 0
M  V30 8434 O 1436.71 -10.1726 -0.733694 0
M  V30 8435 O 1437.28 -8.73148 1.23936 0
M  V30 8436 O 1436.74 -7.66872 -0.971405 0
M  V30 8437 C 1435.8 -7.42309 -2.04641 0
M  V30 8438 C 1436.53 -6.86059 -3.24661 0
M  V30 8439 O 1436.74 -5.42847 -3.03646 0
M  V30 8440 C 1437.93 -7.41196 -3.50753 0
M  V30 8441 O 1438.32 -7.27073 -4.86816 0
M  V30 8442 C 1438.81 -6.5273 -2.63741 0
M  V30 8443 C 1438.1 -5.1842 -2.73198 0
M  V30 8444 N 1438.15 -4.38762 -1.4784 0
M  V30 8445 H 1435.31 -8.36803 -2.32493 0
M  V30 8446 H 1435.04 -6.70197 -1.71129 0
M  V30 8447 H 1435.91 -7.03551 -4.13168 0
M  V30 8448 P 1439.87 -7.20834 -5.23717 0
M  V30 8449 O 1440.09 -7.7993 -6.57351 0
M  V30 8450 O 1440.66 -7.79328 -4.13004 0
M  V30 8451 O 1440.12 -5.63315 -5.29344 0
M  V30 8452 C 1439.18 -4.80193 -6.01798 0
M  V30 8453 C 1439.91 -3.64202 -6.65911 0
M  V30 8454 O 1440.12 -2.60694 -5.64732 0
M  V30 8455 C 1441.31 -3.93473 -7.1943 0
M  V30 8456 O 1441.7 -3.02071 -8.21205 0
M  V30 8457 C 1442.19 -3.73047 -5.97036 0
M  V30 8458 C 1441.48 -2.58828 -5.25741 0
M  V30 8459 N 1441.53 -2.6801 -3.77422 0
M  V30 8460 C 1441.68 -1.50443 -3.07133 0
M  V30 8461 O 1441.77 -0.419406 -3.61576 0
M  V30 8462 N 1441.72 -1.6403 -1.69677 0
M  V30 8463 C 1441.63 -2.81206 -0.986255 0
M  V30 8464 C 1441.48 -3.99158 -1.80325 0
M  V30 8465 C 1441.43 -3.89779 -3.1476 0
M  V30 8466 H 1438.69 -5.40332 -6.79951 0
M  V30 8467 H 1438.42 -4.41549 -5.32301 0
M  V30 8468 H 1439.29 -3.26331 -7.47797 0
M  V30 8469 H 1441.94 -1.6395 -5.56554 0
M  V30 8470 H 1442.22 -4.63439 -5.3432 0
M  V30 8471 H 1443.22 -3.44728 -6.25838 0
M  V30 8472 H 1441.38 -4.96652 -7.57263 0
M  V30 8473 H 1441.31 -4.80159 -3.74441 0
M  V30 8474 P 1443.25 -2.75334 -8.47391 0
M  V30 8475 O 1443.47 -2.44619 -9.90336 0
M  V30 8476 O 1444.04 -3.87776 -7.92294 0
M  V30 8477 O 1443.5 -1.4459 -7.59357 0
M  V30 8478 C 1442.56 -0.347653 -7.69315 0
M  V30 8479 C 1443.29 0.96767 -7.52806 0
M  V30 8480 O 1443.5 1.21055 -6.10208 0
M  V30 8481 C 1444.69 1.04557 -8.13408 0
M  V30 8482 O 1445.08 2.38311 -8.41922 0
M  V30 8483 C 1445.57 0.491279 -7.02284 0
M  V30 8484 C 1444.86 0.996264 -5.77469 0
M  V30 8485 N 1444.91 0.0501916 -4.62973 0
M  V30 8486 H 1442.07 -0.374765 -8.67791 0
M  V30 8487 H 1441.8 -0.443613 -6.90476 0
M  V30 8488 H 1442.67 1.75559 -7.96891 0
M  V30 8489 H 1445.32 1.94563 -5.46818 0
M  V30 8490 H 1445.6 -0.608651 -7.04676 0
M  V30 8491 H 1446.6 0.889796 -7.09039 0
M  V30 8492 H 1444.76 0.433128 -9.04664 0
M  V30 8493 P 1446.63 2.75334 -8.47391 0
M  V30 8494 O 1446.85 3.84128 -9.44797 0
M  V30 8495 O 1447.42 1.51947 -8.68712 0
M  V30 8496 O 1446.88 3.29363 -6.99321 0
M  V30 8497 C 1445.94 4.24011 -6.4274 0
M  V30 8498 C 1446.67 5.20775 -5.52155 0
M  V30 8499 O 1446.88 4.56534 -4.22446 0
M  V30 8500 C 1448.07 5.62629 -5.96531 0
M  V30 8501 O 1448.46 6.87667 -5.41053 0
M  V30 8502 C 1448.95 4.52537 -5.39283 0
M  V30 8503 C 1448.24 4.20027 -4.08623 0
M  V30 8504 N 1448.29 2.76189 -3.71603 0
M  V30 8505 H 1445.45 4.797 -7.24003 0
M  V30 8506 H 1445.18 3.69856 -5.84513 0
M  V30 8507 H 1446.05 6.10356 -5.41441 0
M  V30 8508 P 1450.01 7.20834 -5.23717 0
M  V30 8509 O 1450.23 8.66104 -5.38572 0
M  V30 8510 O 1450.8 6.33544 -6.1349 0
M  V30 8511 O 1450.26 6.7751 -3.72168 0
M  V30 8512 C 1449.32 7.20825 -2.7076 0
M  V30 8513 C 1450.05 7.45864 -1.40599 0
M  V30 8514 O 1450.26 6.17651 -0.734225 0
M  V30 8515 C 1451.45 8.05808 -1.51899 0
M  V30 8516 O 1451.84 8.74358 -0.335205 0
M  V30 8517 C 1452.33 6.83093 -1.70294 0
M  V30 8518 C 1451.62 5.79992 -0.836974 0
M  V30 8519 N 1451.67 4.41864 -1.38293 0
M  V30 8520 H 1448.83 8.13644 -3.0377 0
M  V30 8521 H 1448.56 6.42788 -2.55485 0
M  V30 8522 H 1449.43 8.12039 -0.792769 0
M  V30 8523 P 1453.39 8.91 5.92055e-12 0
M  V30 8524 O 1453.61 10.1726 0.733694 0
M  V30 8525 O 1454.18 8.73148 -1.23936 0
M  V30 8526 O 1453.64 7.66872 0.971405 0
M  V30 8527 C 1452.7 7.42309 2.04641 0
M  V30 8528 C 1453.43 6.86059 3.24661 0
M  V30 8529 O 1453.64 5.42847 3.03646 0
M  V30 8530 C 1454.83 7.41196 3.50753 0
M  V30 8531 O 1455.22 7.27073 4.86816 0
M  V30 8532 C 1455.71 6.5273 2.63741 0
M  V30 8533 C 1455 5.1842 2.73198 0
M  V30 8534 N 1455.05 4.38762 1.4784 0
M  V30 8535 H 1452.21 8.36803 2.32493 0
M  V30 8536 H 1451.94 6.70197 1.71129 0
M  V30 8537 H 1452.81 7.03551 4.13168 0
M  V30 8538 P 1456.77 7.20834 5.23717 0
M  V30 8539 O 1456.99 7.79853 6.57286 0
M  V30 8540 O 1457.56 7.79239 4.12957 0
M  V30 8541 O 1457.02 5.63315 5.29344 0
M  V30 8542 C 1456.08 4.80255 6.01876 0
M  V30 8543 C 1456.81 3.64202 6.65911 0
M  V30 8544 O 1457.02 2.60694 5.64732 0
M  V30 8545 C 1458.21 3.93473 7.1943 0
M  V30 8546 O 1458.6 3.02071 8.21205 0
M  V30 8547 C 1459.09 3.73047 5.97036 0
M  V30 8548 C 1458.38 2.58828 5.25741 0
M  V30 8549 N 1458.43 2.68068 3.77503 0
M  V30 8550 H 1455.59 5.40332 6.79951 0
M  V30 8551 H 1455.32 4.41613 5.32378 0
M  V30 8552 H 1456.19 3.26331 7.47797 0
M  V30 8553 P 1460.15 2.75334 8.47391 0
M  V30 8554 O 1460.37 2.44571 9.90142 0
M  V30 8555 O 1460.94 3.87688 7.92115 0
M  V30 8556 O 1460.4 1.4459 7.59357 0
M  V30 8557 C 1459.46 0.347608 7.69215 0
M  V30 8558 C 1460.19 -0.96767 7.52806 0
M  V30 8559 O 1460.4 -1.21036 6.1011 0
M  V30 8560 C 1461.59 -1.04544 8.13308 0
M  V30 8561 O 1461.98 -2.38311 8.41922 0
M  V30 8562 C 1462.47 -0.491279 7.02284 0
M  V30 8563 C 1461.76 -0.996264 5.77469 0
M  V30 8564 N 1461.81 -0.0501916 4.62973 0
M  V30 8565 H 1458.97 0.374722 8.67691 0
M  V30 8566 H 1458.7 0.443485 6.90277 0
M  V30 8567 H 1459.57 -1.75537 7.96793 0
M  V30 8568 P 1463.53 -2.75334 8.47391 0
M  V30 8569 O 1463.75 -3.84128 9.44797 0
M  V30 8570 O 1464.32 -1.51947 8.68712 0
M  V30 8571 O 1463.78 -3.29363 6.99321 0
M  V30 8572 C 1462.84 -4.24011 6.4274 0
M  V30 8573 C 1463.57 -5.20775 5.52155 0
M  V30 8574 O 1463.78 -4.56534 4.22446 0
M  V30 8575 C 1464.97 -5.62629 5.96531 0
M  V30 8576 O 1465.36 -6.87667 5.41053 0
M  V30 8577 C 1465.85 -4.52537 5.39283 0
M  V30 8578 C 1465.14 -4.20027 4.08623 0
M  V30 8579 N 1465.19 -2.76189 3.71603 0
M  V30 8580 H 1462.35 -4.797 7.24003 0
M  V30 8581 H 1462.08 -3.69856 5.84513 0
M  V30 8582 H 1462.95 -6.10356 5.41441 0
M  V30 8583 P 1466.91 -7.20834 5.23717 0
M  V30 8584 O 1467.13 -8.66104 5.38572 0
M  V30 8585 O 1467.7 -6.33544 6.1349 0
M  V30 8586 O 1467.16 -6.7751 3.72168 0
M  V30 8587 C 1466.22 -7.20825 2.7076 0
M  V30 8588 C 1466.95 -7.45864 1.40599 0
M  V30 8589 O 1467.16 -6.17651 0.734225 0
M  V30 8590 C 1468.35 -8.05808 1.51899 0
M  V30 8591 O 1468.74 -8.74358 0.335205 0
M  V30 8592 C 1469.23 -6.83093 1.70294 0
M  V30 8593 C 1468.52 -5.79992 0.836974 0
M  V30 8594 N 1468.57 -4.41864 1.38293 0
M  V30 8595 H 1465.73 -8.13644 3.0377 0
M  V30 8596 H 1465.46 -6.42788 2.55485 0
M  V30 8597 H 1466.33 -8.12039 0.792769 0
M  V30 8598 P 1470.29 -8.91 -4.81154e-12 0
M  V30 8599 O 1470.51 -10.1726 -0.733694 0
M  V30 8600 O 1471.08 -8.73148 1.23936 0
M  V30 8601 O 1470.54 -7.66872 -0.971405 0
M  V30 8602 C 1469.6 -7.42309 -2.04641 0
M  V30 8603 C 1470.33 -6.86059 -3.24661 0
M  V30 8604 O 1470.54 -5.42847 -3.03646 0
M  V30 8605 C 1471.73 -7.41196 -3.50753 0
M  V30 8606 O 1472.12 -7.27073 -4.86816 0
M  V30 8607 C 1472.61 -6.5273 -2.63741 0
M  V30 8608 C 1471.9 -5.1842 -2.73198 0
M  V30 8609 N 1471.95 -4.38762 -1.4784 0
M  V30 8610 H 1469.11 -8.36803 -2.32493 0
M  V30 8611 H 1468.84 -6.70197 -1.71129 0
M  V30 8612 H 1469.71 -7.03551 -4.13168 0
M  V30 8613 P 1473.67 -7.20834 -5.23717 0
M  V30 8614 O 1473.89 -7.7993 -6.57351 0
M  V30 8615 O 1474.46 -7.79328 -4.13004 0
M  V30 8616 O 1473.92 -5.63315 -5.29344 0
M  V30 8617 C 1472.98 -4.80193 -6.01798 0
M  V30 8618 C 1473.71 -3.64202 -6.65911 0
M  V30 8619 O 1473.92 -2.60694 -5.64732 0
M  V30 8620 C 1475.11 -3.93473 -7.1943 0
M  V30 8621 O 1475.5 -3.02071 -8.21205 0
M  V30 8622 C 1475.99 -3.73047 -5.97036 0
M  V30 8623 C 1475.28 -2.58828 -5.25741 0
M  V30 8624 N 1475.33 -2.6801 -3.77422 0
M  V30 8625 C 1475.48 -1.50443 -3.07133 0
M  V30 8626 O 1475.57 -0.419406 -3.61576 0
M  V30 8627 N 1475.52 -1.6403 -1.69677 0
M  V30 8628 C 1475.43 -2.81206 -0.986255 0
M  V30 8629 C 1475.28 -3.99158 -1.80325 0
M  V30 8630 C 1475.23 -3.89779 -3.1476 0
M  V30 8631 H 1472.49 -5.40332 -6.79951 0
M  V30 8632 H 1472.22 -4.41549 -5.32301 0
M  V30 8633 H 1473.09 -3.26331 -7.47797 0
M  V30 8634 H 1475.74 -1.6395 -5.56554 0
M  V30 8635 H 1476.02 -4.63439 -5.3432 0
M  V30 8636 H 1477.02 -3.44728 -6.25838 0
M  V30 8637 H 1475.18 -4.96652 -7.57263 0
M  V30 8638 H 1475.11 -4.80159 -3.74441 0
M  V30 8639 P 1477.05 -2.75334 -8.47391 0
M  V30 8640 O 1477.27 -2.44571 -9.90142 0
M  V30 8641 O 1477.84 -3.87688 -7.92115 0
M  V30 8642 O 1477.3 -1.4459 -7.59357 0
M  V30 8643 C 1476.36 -0.347608 -7.69215 0
M  V30 8644 C 1477.09 0.96767 -7.52806 0
M  V30 8645 O 1477.3 1.21036 -6.1011 0
M  V30 8646 C 1478.49 1.04544 -8.13308 0
M  V30 8647 O 1478.88 2.38311 -8.41922 0
M  V30 8648 C 1479.37 0.491279 -7.02284 0
M  V30 8649 C 1478.66 0.996264 -5.77469 0
M  V30 8650 N 1478.71 0.0501916 -4.62973 0
M  V30 8651 H 1475.87 -0.374722 -8.67691 0
M  V30 8652 H 1475.6 -0.443485 -6.90277 0
M  V30 8653 H 1476.47 1.75537 -7.96793 0
M  V30 8654 P 1480.43 2.75334 -8.47391 0
M  V30 8655 O 1480.65 3.84128 -9.44797 0
M  V30 8656 O 1481.22 1.51947 -8.68712 0
M  V30 8657 O 1480.68 3.29363 -6.99321 0
M  V30 8658 C 1479.74 4.24011 -6.4274 0
M  V30 8659 C 1480.47 5.20775 -5.52155 0
M  V30 8660 O 1480.68 4.56534 -4.22446 0
M  V30 8661 C 1481.87 5.62629 -5.96531 0
M  V30 8662 O 1482.26 6.87667 -5.41053 0
M  V30 8663 C 1482.75 4.52537 -5.39283 0
M  V30 8664 C 1482.04 4.20027 -4.08623 0
M  V30 8665 N 1482.09 2.76189 -3.71603 0
M  V30 8666 H 1479.25 4.797 -7.24003 0
M  V30 8667 H 1478.98 3.69856 -5.84513 0
M  V30 8668 H 1479.85 6.10356 -5.41441 0
M  V30 8669 P 1483.81 7.20834 -5.23717 0
M  V30 8670 O 1484.03 8.66274 -5.38678 0
M  V30 8671 O 1484.6 6.33687 -6.13629 0
M  V30 8672 O 1484.06 6.7751 -3.72168 0
M  V30 8673 C 1483.12 7.20919 -2.70795 0
M  V30 8674 C 1483.85 7.45864 -1.40599 0
M  V30 8675 O 1484.06 6.17751 -0.734343 0
M  V30 8676 C 1485.25 8.05906 -1.51917 0
M  V30 8677 O 1485.64 8.74358 -0.335205 0
M  V30 8678 C 1486.13 6.83093 -1.70294 0
M  V30 8679 C 1485.42 5.79992 -0.836974 0
M  V30 8680 N 1485.47 4.41864 -1.38293 0
M  V30 8681 H 1482.63 8.13738 -3.03804 0
M  V30 8682 H 1482.36 6.42974 -2.55559 0
M  V30 8683 H 1483.23 8.12139 -0.792866 0
M  V30 8684 H 1485.88 5.80178 0.160643 0
M  V30 8685 H 1486.16 6.51379 -2.75643 0
M  V30 8686 H 1487.16 7.01832 -1.3448 0
M  V30 8687 H 1485.32 8.73771 -2.38364 0
M  V30 8688 P 1487.19 8.91 3.70254e-12 0
M  V30 8689 O 1487.41 10.1726 0.733694 0
M  V30 8690 O 1487.98 8.73148 -1.23936 0
M  V30 8691 O 1487.44 7.66872 0.971405 0
M  V30 8692 C 1486.5 7.42309 2.04641 0
M  V30 8693 C 1487.23 6.86059 3.24661 0
M  V30 8694 O 1487.44 5.42847 3.03646 0
M  V30 8695 C 1488.63 7.41196 3.50753 0
M  V30 8696 O 1489.02 7.27073 4.86816 0
M  V30 8697 C 1489.51 6.5273 2.63741 0
M  V30 8698 C 1488.8 5.1842 2.73198 0
M  V30 8699 N 1488.85 4.38762 1.4784 0
M  V30 8700 C 1488.77 4.81605 0.168631 0
M  V30 8701 N 1488.85 3.85454 -0.713363 0
M  V30 8702 C 1488.99 2.6994 0.0566958 0
M  V30 8703 C 1489.12 1.34815 -0.338502 0
M  V30 8704 N 1489.24 0.496304 0.77465 0
M  V30 8705 C 1489.24 0.908403 2.09122 0
M  V30 8706 N 1489.37 -0.0517805 3.00955 0
M  V30 8707 N 1489.11 2.17875 2.46519 0
M  V30 8708 C 1488.99 3.01988 1.4033 0
M  V30 8709 H 1486.01 8.36803 2.32493 0
M  V30 8710 H 1485.74 6.70197 1.71129 0
M  V30 8711 H 1486.61 7.03551 4.13168 0
M  V30 8712 P 1490.57 7.20834 5.23717 0
M  V30 8713 O 1490.79 7.79853 6.57286 0
M  V30 8714 O 1491.36 7.79239 4.12957 0
M  V30 8715 O 1490.82 5.63315 5.29344 0
M  V30 8716 C 1489.88 4.80255 6.01876 0
M  V30 8717 C 1490.61 3.64202 6.65911 0
M  V30 8718 O 1490.82 2.60694 5.64732 0
M  V30 8719 C 1492.01 3.93473 7.1943 0
M  V30 8720 O 1492.4 3.02071 8.21205 0
M  V30 8721 C 1492.89 3.73047 5.97036 0
M  V30 8722 C 1492.18 2.58828 5.25741 0
M  V30 8723 N 1492.23 2.68068 3.77503 0
M  V30 8724 H 1489.39 5.40332 6.79951 0
M  V30 8725 H 1489.12 4.41613 5.32378 0
M  V30 8726 H 1489.99 3.26331 7.47797 0
M  V30 8727 P 1493.95 2.75334 8.47391 0
M  V30 8728 O 1494.17 2.44571 9.90142 0
M  V30 8729 O 1494.74 3.87688 7.92115 0
M  V30 8730 O 1494.2 1.4459 7.59357 0
M  V30 8731 C 1493.26 0.347608 7.69215 0
M  V30 8732 C 1493.99 -0.96767 7.52806 0
M  V30 8733 O 1494.2 -1.21036 6.1011 0
M  V30 8734 C 1495.39 -1.04544 8.13308 0
M  V30 8735 O 1495.78 -2.38311 8.41922 0
M  V30 8736 C 1496.27 -0.491279 7.02284 0
M  V30 8737 C 1495.56 -0.996264 5.77469 0
M  V30 8738 N 1495.61 -0.0501916 4.62973 0
M  V30 8739 H 1492.77 0.374722 8.67691 0
M  V30 8740 H 1492.5 0.443485 6.90277 0
M  V30 8741 H 1493.37 -1.75537 7.96793 0
M  V30 8742 P 1497.33 -2.75334 8.47391 0
M  V30 8743 O 1497.55 -3.84128 9.44797 0
M  V30 8744 O 1498.12 -1.51947 8.68712 0
M  V30 8745 O 1497.58 -3.29363 6.99321 0
M  V30 8746 C 1496.64 -4.24011 6.4274 0
M  V30 8747 C 1497.37 -5.20775 5.52155 0
M  V30 8748 O 1497.58 -4.56534 4.22446 0
M  V30 8749 C 1498.77 -5.62629 5.96531 0
M  V30 8750 O 1499.16 -6.87667 5.41053 0
M  V30 8751 C 1499.65 -4.52537 5.39283 0
M  V30 8752 C 1498.94 -4.20027 4.08623 0
M  V30 8753 N 1498.99 -2.76189 3.71603 0
M  V30 8754 H 1496.15 -4.797 7.24003 0
M  V30 8755 H 1495.88 -3.69856 5.84513 0
M  V30 8756 H 1496.75 -6.10356 5.41441 0
M  V30 8757 P 1500.71 -7.20834 5.23717 0
M  V30 8758 O 1500.93 -8.66189 5.38625 0
M  V30 8759 O 1501.5 -6.33615 6.1356 0
M  V30 8760 O 1500.96 -6.7751 3.72168 0
M  V30 8761 C 1500.02 -7.20825 2.7076 0
M  V30 8762 C 1500.75 -7.45864 1.40599 0
M  V30 8763 O 1500.96 -6.17651 0.734225 0
M  V30 8764 C 1502.15 -8.05808 1.51899 0
M  V30 8765 O 1502.54 -8.74358 0.335205 0
M  V30 8766 C 1503.03 -6.83093 1.70294 0
M  V30 8767 C 1502.32 -5.79992 0.836974 0
M  V30 8768 N 1502.37 -4.41769 1.38263 0
M  V30 8769 C 1502.52 -3.36514 0.485617 0
M  V30 8770 O 1502.61 -3.61814 -0.724703 0
M  V30 8771 N 1502.57 -2.00746 1.14492 0
M  V30 8772 C 1502.47 -1.85887 2.27776 0
M  V30 8773 N 1502.52 -0.600907 2.69379 0
M  V30 8774 C 1502.32 -2.92182 3.22265 0
M  V30 8775 C 1502.27 -4.18399 2.71925 0
M  V30 8776 H 1499.53 -8.1355 3.03735 0
M  V30 8777 H 1499.26 -6.42695 2.55448 0
M  V30 8778 H 1500.13 -8.12139 0.792866 0
M  V30 8779 H 1502.78 -5.80078 -0.160615 0
M  V30 8780 H 1503.06 -6.51379 2.75643 0
M  V30 8781 H 1504.06 -7.01734 1.34462 0
M  V30 8782 H 1502.22 -8.73674 2.38337 0
M  V30 8783 H 1502.15 -5.02669 3.39718 0
M  V30 8784 H 1502.25 -2.73001 4.29239 0
M  V30 8785 H 1502.64 0.162318 2.01146 0
M  V30 8786 H 1502.44 -0.387742 3.69773 0
M  V30 8787 P 1504.09 -8.91 -2.59353e-12 0
M  V30 8788 O 1504.31 -10.1726 -0.733694 0
M  V30 8789 O 1504.88 -8.73148 1.23936 0
M  V30 8790 O 1504.34 -7.66872 -0.971405 0
M  V30 8791 C 1503.4 -7.42309 -2.04641 0
M  V30 8792 C 1504.13 -6.86059 -3.24661 0
M  V30 8793 O 1504.34 -5.42847 -3.03646 0
M  V30 8794 C 1505.53 -7.41196 -3.50753 0
M  V30 8795 O 1505.92 -7.27073 -4.86816 0
M  V30 8796 C 1506.41 -6.5273 -2.63741 0
M  V30 8797 C 1505.7 -5.1842 -2.73198 0
M  V30 8798 N 1505.75 -4.38762 -1.4784 0
M  V30 8799 H 1502.91 -8.36803 -2.32493 0
M  V30 8800 H 1502.64 -6.70197 -1.71129 0
M  V30 8801 H 1503.51 -7.03551 -4.13168 0
M  V30 8802 P 1507.47 -7.20834 -5.23717 0
M  V30 8803 O 1507.69 -7.79853 -6.57286 0
M  V30 8804 O 1508.26 -7.79239 -4.12957 0
M  V30 8805 O 1507.72 -5.63315 -5.29344 0
M  V30 8806 C 1506.78 -4.80255 -6.01876 0
M  V30 8807 C 1507.51 -3.64202 -6.65911 0
M  V30 8808 O 1507.72 -2.60694 -5.64732 0
M  V30 8809 C 1508.91 -3.93473 -7.1943 0
M  V30 8810 O 1509.3 -3.02071 -8.21205 0
M  V30 8811 C 1509.79 -3.73047 -5.97036 0
M  V30 8812 C 1509.08 -2.58828 -5.25741 0
M  V30 8813 N 1509.13 -2.68068 -3.77503 0
M  V30 8814 H 1506.29 -5.40332 -6.79951 0
M  V30 8815 H 1506.02 -4.41613 -5.32378 0
M  V30 8816 H 1506.89 -3.26331 -7.47797 0
M  V30 8817 P 1510.85 -2.75334 -8.47391 0
M  V30 8818 O 1511.07 -2.44571 -9.90142 0
M  V30 8819 O 1511.64 -3.87688 -7.92115 0
M  V30 8820 O 1511.1 -1.4459 -7.59357 0
M  V30 8821 C 1510.16 -0.347608 -7.69215 0
M  V30 8822 C 1510.89 0.96767 -7.52806 0
M  V30 8823 O 1511.1 1.21036 -6.1011 0
M  V30 8824 C 1512.29 1.04544 -8.13308 0
M  V30 8825 O 1512.68 2.38311 -8.41922 0
M  V30 8826 C 1513.17 0.491279 -7.02284 0
M  V30 8827 C 1512.46 0.996264 -5.77469 0
M  V30 8828 N 1512.51 0.0501916 -4.62973 0
M  V30 8829 H 1509.67 -0.374722 -8.67691 0
M  V30 8830 H 1509.4 -0.443485 -6.90277 0
M  V30 8831 H 1510.27 1.75537 -7.96793 0
M  V30 8832 P 1514.23 2.75334 -8.47391 0
M  V30 8833 O 1514.45 3.84128 -9.44797 0
M  V30 8834 O 1515.02 1.51947 -8.68712 0
M  V30 8835 O 1514.48 3.29363 -6.99321 0
M  V30 8836 C 1513.54 4.24011 -6.4274 0
M  V30 8837 C 1514.27 5.20775 -5.52155 0
M  V30 8838 O 1514.48 4.56534 -4.22446 0
M  V30 8839 C 1515.67 5.62629 -5.96531 0
M  V30 8840 O 1516.06 6.87667 -5.41053 0
M  V30 8841 C 1516.55 4.52537 -5.39283 0
M  V30 8842 C 1515.84 4.20027 -4.08623 0
M  V30 8843 N 1515.89 2.76189 -3.71603 0
M  V30 8844 H 1513.05 4.797 -7.24003 0
M  V30 8845 H 1512.78 3.69856 -5.84513 0
M  V30 8846 H 1513.65 6.10356 -5.41441 0
M  V30 8847 P 1517.61 7.20834 -5.23717 0
M  V30 8848 O 1517.83 8.66104 -5.38572 0
M  V30 8849 O 1518.4 6.33544 -6.1349 0
M  V30 8850 O 1517.86 6.7751 -3.72168 0
M  V30 8851 C 1516.92 7.20825 -2.7076 0
M  V30 8852 C 1517.65 7.45864 -1.40599 0
M  V30 8853 O 1517.86 6.17651 -0.734225 0
M  V30 8854 C 1519.05 8.05808 -1.51899 0
M  V30 8855 O 1519.44 8.74358 -0.335205 0
M  V30 8856 C 1519.93 6.83093 -1.70294 0
M  V30 8857 C 1519.22 5.79992 -0.836974 0
M  V30 8858 N 1519.27 4.41864 -1.38293 0
M  V30 8859 C 1519.19 3.99538 -2.69438 0
M  V30 8860 N 1519.27 2.69909 -2.84277 0
M  V30 8861 C 1519.41 2.21719 -1.5408 0
M  V30 8862 C 1519.54 0.891712 -1.06628 0
M  V30 8863 N 1519.66 0.856846 0.334985 0
M  V30 8864 C 1519.66 1.9641 1.15789 0
M  V30 8865 N 1519.79 1.72708 2.46522 0
M  V30 8866 N 1519.53 3.21165 0.713741 0
M  V30 8867 C 1519.41 3.26797 -0.639748 0
M  V30 8868 H 1516.43 8.13644 -3.0377 0
M  V30 8869 H 1516.16 6.42788 -2.55485 0
M  V30 8870 H 1517.03 8.12039 -0.792769 0
M  V30 8871 P 1520.99 8.91 1.48453e-12 0
M  V30 8872 O 1521.21 10.1726 0.733694 0
M  V30 8873 O 1521.78 8.73148 -1.23936 0
M  V30 8874 O 1521.24 7.66872 0.971405 0
M  V30 8875 C 1520.3 7.42309 2.04641 0
M  V30 8876 C 1521.03 6.86059 3.24661 0
M  V30 8877 O 1521.24 5.42847 3.03646 0
M  V30 8878 C 1522.43 7.41196 3.50753 0
M  V30 8879 O 1522.82 7.27073 4.86816 0
M  V30 8880 C 1523.31 6.5273 2.63741 0
M  V30 8881 C 1522.6 5.1842 2.73198 0
M  V30 8882 N 1522.65 4.38762 1.4784 0
M  V30 8883 H 1519.81 8.36803 2.32493 0
M  V30 8884 H 1519.54 6.70197 1.71129 0
M  V30 8885 H 1520.41 7.03551 4.13168 0
M  V30 8886 P 1524.37 7.20834 5.23717 0
M  V30 8887 O 1524.59 7.79853 6.57286 0
M  V30 8888 O 1525.16 7.79239 4.12957 0
M  V30 8889 O 1524.62 5.63315 5.29344 0
M  V30 8890 C 1523.68 4.80255 6.01876 0
M  V30 8891 C 1524.41 3.64202 6.65911 0
M  V30 8892 O 1524.62 2.60694 5.64732 0
M  V30 8893 C 1525.81 3.93473 7.1943 0
M  V30 8894 O 1526.2 3.02071 8.21205 0
M  V30 8895 C 1526.69 3.73047 5.97036 0
M  V30 8896 C 1525.98 2.58828 5.25741 0
M  V30 8897 N 1526.03 2.68068 3.77503 0
M  V30 8898 H 1523.19 5.40332 6.79951 0
M  V30 8899 H 1522.92 4.41613 5.32378 0
M  V30 8900 H 1523.79 3.26331 7.47797 0
M  V30 8901 P 1527.75 2.75334 8.47391 0
M  V30 8902 O 1527.97 2.44571 9.90142 0
M  V30 8903 O 1528.54 3.87688 7.92115 0
M  V30 8904 O 1528 1.4459 7.59357 0
M  V30 8905 C 1527.06 0.347608 7.69215 0
M  V30 8906 C 1527.79 -0.96767 7.52806 0
M  V30 8907 O 1528 -1.21036 6.1011 0
M  V30 8908 C 1529.19 -1.04544 8.13308 0
M  V30 8909 O 1529.58 -2.38311 8.41922 0
M  V30 8910 C 1530.07 -0.491279 7.02284 0
M  V30 8911 C 1529.36 -0.996264 5.77469 0
M  V30 8912 N 1529.41 -0.0501916 4.62973 0
M  V30 8913 H 1526.57 0.374722 8.67691 0
M  V30 8914 H 1526.3 0.443485 6.90277 0
M  V30 8915 H 1527.17 -1.75537 7.96793 0
M  V30 8916 P 1531.13 -2.75334 8.47391 0
M  V30 8917 O 1531.35 -3.84128 9.44797 0
M  V30 8918 O 1531.92 -1.51947 8.68712 0
M  V30 8919 O 1531.38 -3.29363 6.99321 0
M  V30 8920 C 1530.44 -4.24011 6.4274 0
M  V30 8921 C 1531.17 -5.20775 5.52155 0
M  V30 8922 O 1531.38 -4.56534 4.22446 0
M  V30 8923 C 1532.57 -5.62629 5.96531 0
M  V30 8924 O 1532.96 -6.87667 5.41053 0
M  V30 8925 C 1533.45 -4.52537 5.39283 0
M  V30 8926 C 1532.74 -4.20027 4.08623 0
M  V30 8927 N 1532.79 -2.76189 3.71603 0
M  V30 8928 H 1529.95 -4.797 7.24003 0
M  V30 8929 H 1529.68 -3.69856 5.84513 0
M  V30 8930 H 1530.55 -6.10356 5.41441 0
M  V30 8931 P 1534.51 -7.20834 5.23717 0
M  V30 8932 O 1534.73 -8.66104 5.38572 0
M  V30 8933 O 1535.3 -6.33544 6.1349 0
M  V30 8934 O 1534.76 -6.7751 3.72168 0
M  V30 8935 C 1533.82 -7.20825 2.7076 0
M  V30 8936 C 1534.55 -7.45864 1.40599 0
M  V30 8937 O 1534.76 -6.17651 0.734225 0
M  V30 8938 C 1535.95 -8.05808 1.51899 0
M  V30 8939 O 1536.34 -8.74358 0.335205 0
M  V30 8940 C 1536.83 -6.83093 1.70294 0
M  V30 8941 C 1536.12 -5.79992 0.836974 0
M  V30 8942 N 1536.17 -4.41864 1.38293 0
M  V30 8943 H 1533.33 -8.13644 3.0377 0
M  V30 8944 H 1533.06 -6.42788 2.55485 0
M  V30 8945 H 1533.93 -8.12039 0.792769 0
M  V30 8946 P 1537.89 -8.91 -3.75525e-13 0
M  V30 8947 O 1538.11 -10.1726 -0.733694 0
M  V30 8948 O 1538.68 -8.73148 1.23936 0
M  V30 8949 O 1538.14 -7.66872 -0.971405 0
M  V30 8950 C 1537.2 -7.42309 -2.04641 0
M  V30 8951 C 1537.93 -6.86059 -3.24661 0
M  V30 8952 O 1538.14 -5.42847 -3.03646 0
M  V30 8953 C 1539.33 -7.41196 -3.50753 0
M  V30 8954 O 1539.72 -7.27073 -4.86816 0
M  V30 8955 C 1540.21 -6.5273 -2.63741 0
M  V30 8956 C 1539.5 -5.1842 -2.73198 0
M  V30 8957 N 1539.55 -4.38762 -1.4784 0
M  V30 8958 C 1539.47 -4.81605 -0.168631 0
M  V30 8959 N 1539.55 -3.85454 0.713363 0
M  V30 8960 C 1539.69 -2.6994 -0.0566958 0
M  V30 8961 C 1539.82 -1.34815 0.338502 0
M  V30 8962 N 1539.94 -0.496304 -0.77465 0
M  V30 8963 C 1539.94 -0.908403 -2.09122 0
M  V30 8964 N 1540.07 0.0517805 -3.00955 0
M  V30 8965 N 1539.81 -2.17875 -2.46519 0
M  V30 8966 C 1539.69 -3.01988 -1.4033 0
M  V30 8967 H 1536.71 -8.36803 -2.32493 0
M  V30 8968 H 1536.44 -6.70197 -1.71129 0
M  V30 8969 H 1537.31 -7.03551 -4.13168 0
M  V30 8970 P 1541.27 -7.20834 -5.23717 0
M  V30 8971 O 1541.49 -7.80006 -6.57415 0
M  V30 8972 O 1542.06 -7.79416 -4.13051 0
M  V30 8973 O 1541.52 -5.63315 -5.29344 0
M  V30 8974 C 1540.58 -4.80318 -6.01954 0
M  V30 8975 C 1541.31 -3.64202 -6.65911 0
M  V30 8976 O 1541.52 -2.60736 -5.64823 0
M  V30 8977 C 1542.71 -3.93521 -7.19518 0
M  V30 8978 O 1543.1 -3.02071 -8.21205 0
M  V30 8979 C 1543.59 -3.73047 -5.97036 0
M  V30 8980 C 1542.88 -2.58828 -5.25741 0
M  V30 8981 N 1542.93 -2.68068 -3.77503 0
M  V30 8982 H 1540.09 -5.40394 -6.8003 0
M  V30 8983 H 1539.82 -4.41741 -5.32532 0
M  V30 8984 H 1540.69 -3.26371 -7.47889 0
M  V30 8985 H 1543.34 -1.64007 -5.56746 0
M  V30 8986 H 1543.62 -4.63439 -5.3432 0
M  V30 8987 H 1544.61 -3.44776 -6.25925 0
M  V30 8988 H 1542.78 -4.96707 -7.57347 0
M  V30 8989 P 1544.65 -2.75334 -8.47391 0
M  V30 8990 O 1544.87 -2.44571 -9.90142 0
M  V30 8991 O 1545.44 -3.87688 -7.92115 0
M  V30 8992 O 1544.9 -1.4459 -7.59357 0
M  V30 8993 C 1543.96 -0.347608 -7.69215 0
M  V30 8994 C 1544.69 0.96767 -7.52806 0
M  V30 8995 O 1544.9 1.21036 -6.1011 0
M  V30 8996 C 1546.09 1.04544 -8.13308 0
M  V30 8997 O 1546.48 2.38311 -8.41922 0
M  V30 8998 C 1546.97 0.491279 -7.02284 0
M  V30 8999 C 1546.26 0.996264 -5.77469 0
M  V30 9000 N 1546.31 0.0501916 -4.62973 0
M  V30 9001 H 1543.47 -0.374722 -8.67691 0
M  V30 9002 H 1543.2 -0.443485 -6.90277 0
M  V30 9003 H 1544.07 1.75537 -7.96793 0
M  V30 9004 P 1548.03 2.75334 -8.47391 0
M  V30 9005 O 1548.25 3.84128 -9.44797 0
M  V30 9006 O 1548.82 1.51947 -8.68712 0
M  V30 9007 O 1548.28 3.29363 -6.99321 0
M  V30 9008 C 1547.34 4.24011 -6.4274 0
M  V30 9009 C 1548.07 5.20775 -5.52155 0
M  V30 9010 O 1548.28 4.56534 -4.22446 0
M  V30 9011 C 1549.47 5.62629 -5.96531 0
M  V30 9012 O 1549.86 6.87667 -5.41053 0
M  V30 9013 C 1550.35 4.52537 -5.39283 0
M  V30 9014 C 1549.64 4.20027 -4.08623 0
M  V30 9015 N 1549.69 2.76189 -3.71603 0
M  V30 9016 H 1546.85 4.797 -7.24003 0
M  V30 9017 H 1546.58 3.69856 -5.84513 0
M  V30 9018 H 1547.45 6.10356 -5.41441 0
M  V30 9019 P 1551.41 7.20834 -5.23717 0
M  V30 9020 O 1551.63 8.66104 -5.38572 0
M  V30 9021 O 1552.2 6.33544 -6.1349 0
M  V30 9022 O 1551.66 6.7751 -3.72168 0
M  V30 9023 C 1550.72 7.20825 -2.7076 0
M  V30 9024 C 1551.45 7.45864 -1.40599 0
M  V30 9025 O 1551.66 6.17651 -0.734225 0
M  V30 9026 C 1552.85 8.05808 -1.51899 0
M  V30 9027 O 1553.24 8.74358 -0.335205 0
M  V30 9028 C 1553.73 6.83093 -1.70294 0
M  V30 9029 C 1553.02 5.79992 -0.836974 0
M  V30 9030 N 1553.07 4.41864 -1.38293 0
M  V30 9031 H 1550.23 8.13644 -3.0377 0
M  V30 9032 H 1549.96 6.42788 -2.55485 0
M  V30 9033 H 1550.83 8.12039 -0.792769 0
M  V30 9034 P 1554.79 8.91 -7.3348e-13 0
M  V30 9035 O 1555.01 10.1726 0.733694 0
M  V30 9036 O 1555.58 8.73148 -1.23936 0
M  V30 9037 O 1555.04 7.66872 0.971405 0
M  V30 9038 C 1554.1 7.42309 2.04641 0
M  V30 9039 C 1554.83 6.86059 3.24661 0
M  V30 9040 O 1555.04 5.42847 3.03646 0
M  V30 9041 C 1556.23 7.41196 3.50753 0
M  V30 9042 O 1556.62 7.27073 4.86816 0
M  V30 9043 C 1557.11 6.5273 2.63741 0
M  V30 9044 C 1556.4 5.1842 2.73198 0
M  V30 9045 N 1556.45 4.38762 1.4784 0
M  V30 9046 H 1553.61 8.36803 2.32493 0
M  V30 9047 H 1553.34 6.70197 1.71129 0
M  V30 9048 H 1554.21 7.03551 4.13168 0
M  V30 9049 P 1558.17 7.20834 5.23717 0
M  V30 9050 O 1558.39 7.7993 6.57351 0
M  V30 9051 O 1558.96 7.79328 4.13004 0
M  V30 9052 O 1558.42 5.63315 5.29344 0
M  V30 9053 C 1557.48 4.80255 6.01876 0
M  V30 9054 C 1558.21 3.64202 6.65911 0
M  V30 9055 O 1558.42 2.60694 5.64732 0
M  V30 9056 C 1559.61 3.93473 7.1943 0
M  V30 9057 O 1560 3.02071 8.21205 0
M  V30 9058 C 1560.49 3.73047 5.97036 0
M  V30 9059 C 1559.78 2.58828 5.25741 0
M  V30 9060 N 1559.83 2.6801 3.77422 0
M  V30 9061 C 1559.98 1.50173 3.05038 0
M  V30 9062 O 1560.07 0.428832 3.665 0
M  V30 9063 N 1560.03 1.70922 1.55541 0
M  V30 9064 C 1559.93 2.7407 1.06402 0
M  V30 9065 N 1559.98 2.74764 -0.260931 0
M  V30 9066 C 1559.78 3.96781 1.78296 0
M  V30 9067 C 1559.73 3.87909 3.13891 0
M  V30 9068 H 1556.99 5.4027 6.79873 0
M  V30 9069 H 1556.72 4.41549 5.32301 0
M  V30 9070 H 1557.59 3.26371 7.47889 0
M  V30 9071 H 1560.24 1.63978 5.5665 0
M  V30 9072 H 1560.52 4.63439 5.3432 0
M  V30 9073 H 1561.51 3.44728 6.25838 0
M  V30 9074 H 1559.68 4.96652 7.57263 0
M  V30 9075 H 1559.61 4.78425 3.73088 0
M  V30 9076 H 1559.71 4.92593 1.26997 0
M  V30 9077 H 1560.1 1.86285 -0.77595 0
M  V30 9078 H 1559.9 3.63657 -0.773896 0
M  V30 9079 P 1561.55 2.75334 8.47391 0
M  V30 9080 O 1561.77 2.44571 9.90142 0
M  V30 9081 O 1562.34 3.87688 7.92115 0
M  V30 9082 O 1561.8 1.4459 7.59357 0
M  V30 9083 C 1560.86 0.347608 7.69215 0
M  V30 9084 C 1561.59 -0.96767 7.52806 0
M  V30 9085 O 1561.8 -1.21036 6.1011 0
M  V30 9086 C 1562.99 -1.04544 8.13308 0
M  V30 9087 O 1563.38 -2.38311 8.41922 0
M  V30 9088 C 1563.87 -0.491279 7.02284 0
M  V30 9089 C 1563.16 -0.996264 5.77469 0
M  V30 9090 N 1563.21 -0.0501916 4.62973 0
M  V30 9091 H 1560.37 0.374722 8.67691 0
M  V30 9092 H 1560.1 0.443485 6.90277 0
M  V30 9093 H 1560.97 -1.75537 7.96793 0
M  V30 9094 P 1564.93 -2.75334 8.47391 0
M  V30 9095 O 1565.15 -3.84128 9.44797 0
M  V30 9096 O 1565.72 -1.51947 8.68712 0
M  V30 9097 O 1565.18 -3.29363 6.99321 0
M  V30 9098 C 1564.24 -4.24011 6.4274 0
M  V30 9099 C 1564.97 -5.20775 5.52155 0
M  V30 9100 O 1565.18 -4.56534 4.22446 0
M  V30 9101 C 1566.37 -5.62629 5.96531 0
M  V30 9102 O 1566.76 -6.87667 5.41053 0
M  V30 9103 C 1567.25 -4.52537 5.39283 0
M  V30 9104 C 1566.54 -4.20027 4.08623 0
M  V30 9105 N 1566.59 -2.76189 3.71603 0
M  V30 9106 C 1566.51 -1.64862 4.52822 0
M  V30 9107 N 1566.59 -0.512671 3.88633 0
M  V30 9108 C 1566.73 -0.888083 2.54977 0
M  V30 9109 C 1566.86 -0.094668 1.38677 0
M  V30 9110 N 1566.98 -0.890102 0.232633 0
M  V30 9111 C 1566.98 -2.26958 0.21772 0
M  V30 9112 N 1567.11 -2.84626 -0.97925 0
M  V30 9113 N 1566.85 -3.0178 1.31033 0
M  V30 9114 C 1566.73 -2.26781 2.43843 0
M  V30 9115 H 1563.75 -4.797 7.24003 0
M  V30 9116 H 1563.48 -3.69856 5.84513 0
M  V30 9117 H 1564.35 -6.10356 5.41441 0
M  V30 9118 P 1568.31 -7.20834 5.23717 0
M  V30 9119 O 1568.53 -8.66104 5.38572 0
M  V30 9120 O 1569.1 -6.33544 6.1349 0
M  V30 9121 O 1568.56 -6.7751 3.72168 0
M  V30 9122 C 1567.62 -7.20825 2.7076 0
M  V30 9123 C 1568.35 -7.45864 1.40599 0
M  V30 9124 O 1568.56 -6.17651 0.734225 0
M  V30 9125 C 1569.75 -8.05808 1.51899 0
M  V30 9126 O 1570.14 -8.74358 0.335205 0
M  V30 9127 C 1570.63 -6.83093 1.70294 0
M  V30 9128 C 1569.92 -5.79992 0.836974 0
M  V30 9129 N 1569.97 -4.41864 1.38293 0
M  V30 9130 H 1567.13 -8.13644 3.0377 0
M  V30 9131 H 1566.86 -6.42788 2.55485 0
M  V30 9132 H 1567.73 -8.12039 0.792769 0
M  V30 9133 P 1571.69 -8.91 1.84249e-12 0
M  V30 9134 O 1571.91 -10.1746 -0.733838 0
M  V30 9135 O 1572.48 -8.73346 1.23964 0
M  V30 9136 O 1571.94 -7.66872 -0.971405 0
M  V30 9137 C 1571 -7.42405 -2.04668 0
M  V30 9138 C 1571.73 -6.86059 -3.24661 0
M  V30 9139 O 1571.94 -5.42934 -3.03695 0
M  V30 9140 C 1573.13 -7.41287 -3.50796 0
M  V30 9141 O 1573.52 -7.27073 -4.86816 0
M  V30 9142 C 1574.01 -6.5273 -2.63741 0
M  V30 9143 C 1573.3 -5.1842 -2.73198 0
M  V30 9144 N 1573.35 -4.38762 -1.4784 0
M  V30 9145 H 1570.51 -8.36899 -2.3252 0
M  V30 9146 H 1570.24 -6.70391 -1.71179 0
M  V30 9147 H 1571.11 -7.03638 -4.13219 0
M  V30 9148 H 1573.76 -4.59931 -3.54016 0
M  V30 9149 H 1574.04 -6.88995 -1.59871 0
M  V30 9150 H 1575.03 -6.4684 -3.0373 0
M  V30 9151 H 1573.2 -8.47002 -3.20749 0
M  V30 9152 P 1575.07 -7.20834 -5.23717 0
M  V30 9153 O 1575.29 -7.79853 -6.57286 0
M  V30 9154 O 1575.86 -7.79239 -4.12957 0
M  V30 9155 O 1575.32 -5.63315 -5.29344 0
M  V30 9156 C 1574.38 -4.80255 -6.01876 0
M  V30 9157 C 1575.11 -3.64202 -6.65911 0
M  V30 9158 O 1575.32 -2.60694 -5.64732 0
M  V30 9159 C 1576.51 -3.93473 -7.1943 0
M  V30 9160 O 1576.9 -3.02071 -8.21205 0
M  V30 9161 C 1577.39 -3.73047 -5.97036 0
M  V30 9162 C 1576.68 -2.58828 -5.25741 0
M  V30 9163 N 1576.73 -2.68068 -3.77503 0
M  V30 9164 C 1576.65 -3.79715 -2.96723 0
M  V30 9165 N 1576.73 -3.5377 -1.68852 0
M  V30 9166 C 1576.87 -2.15054 -1.63254 0
M  V30 9167 C 1577 -1.28964 -0.518571 0
M  V30 9168 O 1577.02 -1.56826 0.679156 0
M  V30 9169 N 1577.12 0.0538097 -0.918425 0
M  V30 9170 C 1577.12 0.494275 -2.22578 0
M  V30 9171 N 1577.25 1.81086 -2.40434 0
M  V30 9172 N 1576.99 -0.313645 -3.27502 0
M  V30 9173 C 1576.87 -1.61829 -2.91033 0
M  V30 9174 H 1573.89 -5.40332 -6.79951 0
M  V30 9175 H 1573.62 -4.41613 -5.32378 0
M  V30 9176 H 1574.49 -3.26331 -7.47797 0
M  V30 9177 H 1577.14 -1.63422 -5.56814 0
M  V30 9178 H 1577.42 -4.63374 -5.34244 0
M  V30 9179 H 1578.41 -3.44728 -6.25838 0
M  V30 9180 H 1576.58 -4.96652 -7.57263 0
M  V30 9181 H 1576.53 -4.80617 -3.3614 0
M  V30 9182 H 1577.21 0.742702 -0.199384 0
M  V30 9183 H 1577.25 2.20598 -3.35588 0
M  V30 9184 H 1577.35 2.43518 -1.58945 0
M  V30 9185 P 1578.45 -2.75334 -8.47391 0
M  V30 9186 O 1578.67 -2.44571 -9.90142 0
M  V30 9187 O 1579.24 -3.87688 -7.92115 0
M  V30 9188 O 1578.7 -1.4459 -7.59357 0
M  V30 9189 C 1577.76 -0.347608 -7.69215 0
M  V30 9190 C 1578.49 0.96767 -7.52806 0
M  V30 9191 O 1578.7 1.21036 -6.1011 0
M  V30 9192 C 1579.89 1.04544 -8.13308 0
M  V30 9193 O 1580.28 2.38311 -8.41922 0
M  V30 9194 C 1580.77 0.491279 -7.02284 0
M  V30 9195 C 1580.06 0.996264 -5.77469 0
M  V30 9196 N 1580.11 0.0501916 -4.62973 0
M  V30 9197 H 1577.27 -0.374722 -8.67691 0
M  V30 9198 H 1577 -0.443485 -6.90277 0
M  V30 9199 H 1577.87 1.75537 -7.96793 0
M  V30 9200 P 1581.83 2.75334 -8.47391 0
M  V30 9201 O 1582.05 3.84128 -9.44797 0
M  V30 9202 O 1582.62 1.51947 -8.68712 0
M  V30 9203 O 1582.08 3.29363 -6.99321 0
M  V30 9204 C 1581.14 4.24011 -6.4274 0
M  V30 9205 C 1581.87 5.20775 -5.52155 0
M  V30 9206 O 1582.08 4.56534 -4.22446 0
M  V30 9207 C 1583.27 5.62629 -5.96531 0
M  V30 9208 O 1583.66 6.87667 -5.41053 0
M  V30 9209 C 1584.15 4.52537 -5.39283 0
M  V30 9210 C 1583.44 4.20027 -4.08623 0
M  V30 9211 N 1583.49 2.76189 -3.71603 0
M  V30 9212 H 1580.65 4.797 -7.24003 0
M  V30 9213 H 1580.38 3.69856 -5.84513 0
M  V30 9214 H 1581.25 6.10356 -5.41441 0
M  V30 9215 P 1585.21 7.20834 -5.23717 0
M  V30 9216 O 1585.43 8.66274 -5.38678 0
M  V30 9217 O 1586 6.33687 -6.13629 0
M  V30 9218 O 1585.46 6.7751 -3.72168 0
M  V30 9219 C 1584.52 7.20919 -2.70795 0
M  V30 9220 C 1585.25 7.45864 -1.40599 0
M  V30 9221 O 1585.46 6.17751 -0.734343 0
M  V30 9222 C 1586.65 8.05906 -1.51917 0
M  V30 9223 O 1587.04 8.74358 -0.335205 0
M  V30 9224 C 1587.53 6.83093 -1.70294 0
M  V30 9225 C 1586.82 5.79992 -0.836974 0
M  V30 9226 N 1586.87 4.41864 -1.38293 0
M  V30 9227 H 1584.03 8.13738 -3.03804 0
M  V30 9228 H 1583.76 6.42974 -2.55559 0
M  V30 9229 H 1584.63 8.12139 -0.792866 0
M  V30 9230 H 1587.28 5.80178 0.160643 0
M  V30 9231 H 1587.56 6.51379 -2.75643 0
M  V30 9232 H 1588.55 7.01832 -1.3448 0
M  V30 9233 H 1586.72 8.73771 -2.38364 0
M  V30 9234 P 1588.59 8.91 -2.95149e-12 0
M  V30 9235 O 1588.81 10.1736 0.733766 0
M  V30 9236 O 1589.38 8.73247 -1.2395 0
M  V30 9237 O 1588.84 7.66872 0.971405 0
M  V30 9238 C 1587.9 7.42212 2.04614 0
M  V30 9239 C 1588.63 6.86059 3.24661 0
M  V30 9240 O 1588.84 5.42847 3.03646 0
M  V30 9241 C 1590.03 7.41196 3.50753 0
M  V30 9242 O 1590.42 7.27073 4.86816 0
M  V30 9243 C 1590.91 6.5273 2.63741 0
M  V30 9244 C 1590.2 5.1842 2.73198 0
M  V30 9245 N 1590.25 4.38668 1.47808 0
M  V30 9246 C 1590.4 3.02239 1.60048 0
M  V30 9247 O 1590.49 2.46459 2.67869 0
M  V30 9248 N 1590.44 2.32436 0.408571 0
M  V30 9249 C 1590.35 2.85471 -0.854993 0
M  V30 9250 O 1590.4 2.12566 -1.8531 0
M  V30 9251 C 1590.2 4.28918 -0.887335 0
M  V30 9252 C 1590.09 4.91066 -2.24619 0
M  V30 9253 C 1590.15 5.00349 0.255399 0
M  V30 9254 H 1587.41 8.36803 2.32493 0
M  V30 9255 H 1587.14 6.701 1.71105 0
M  V30 9256 H 1588.01 7.03551 4.13168 0
M  V30 9257 H 1590.66 4.59773 3.53894 0
M  V30 9258 H 1590.94 6.88995 1.59871 0
M  V30 9259 H 1591.93 6.46749 3.03687 0
M  V30 9260 H 1590.1 8.46908 3.20714 0
M  V30 9261 H 1590.03 6.08548 0.206986 0
M  V30 9262 H 1591.06 5.34836 -2.53099 0
M  V30 9263 H 1589.32 5.69638 -2.2291 0
M  V30 9264 H 1589.81 4.13971 -2.98044 0
M  V30 9265 H 1590.55 1.33211 0.474216 0
M  V30 9266 P 1591.97 7.20834 5.23717 0
M  V30 9267 O 1592.19 7.79853 6.57286 0
M  V30 9268 O 1592.76 7.79239 4.12957 0
M  V30 9269 O 1592.22 5.63315 5.29344 0
M  V30 9270 C 1591.28 4.80255 6.01876 0
M  V30 9271 C 1592.01 3.64202 6.65911 0
M  V30 9272 O 1592.22 2.60694 5.64732 0
M  V30 9273 C 1593.41 3.93473 7.1943 0
M  V30 9274 O 1593.8 3.02071 8.21205 0
M  V30 9275 C 1594.29 3.73047 5.97036 0
M  V30 9276 C 1593.58 2.58828 5.25741 0
M  V30 9277 N 1593.63 2.68068 3.77503 0
M  V30 9278 H 1590.79 5.40332 6.79951 0
M  V30 9279 H 1590.52 4.41613 5.32378 0
M  V30 9280 H 1591.39 3.26331 7.47797 0
M  V30 9281 P 1595.35 2.75334 8.47391 0
M  V30 9282 O 1595.57 2.44595 9.90239 0
M  V30 9283 O 1596.14 3.87732 7.92204 0
M  V30 9284 O 1595.6 1.4459 7.59357 0
M  V30 9285 C 1594.66 0.347608 7.69215 0
M  V30 9286 C 1595.39 -0.96767 7.52806 0
M  V30 9287 O 1595.6 -1.21036 6.1011 0
M  V30 9288 C 1596.79 -1.04544 8.13308 0
M  V30 9289 O 1597.18 -2.38311 8.41922 0
M  V30 9290 C 1597.67 -0.491279 7.02284 0
M  V30 9291 C 1596.96 -0.996264 5.77469 0
M  V30 9292 N 1597.01 -0.0501808 4.62873 0
M  V30 9293 C 1597.16 -0.578037 3.3505 0
M  V30 9294 O 1597.25 -1.8073 3.21711 0
M  V30 9295 N 1597.21 0.468541 2.263 0
M  V30 9296 C 1597.11 1.59186 2.47176 0
M  V30 9297 N 1597.16 2.37626 1.40392 0
M  V30 9298 C 1596.96 2.16203 3.77467 0
M  V30 9299 C 1596.91 1.29324 4.8195 0
M  V30 9300 H 1594.17 0.374679 8.67591 0
M  V30 9301 H 1593.9 0.443421 6.90177 0
M  V30 9302 H 1594.77 -1.75559 7.96891 0
M  V30 9303 H 1597.42 -1.94529 5.46723 0
M  V30 9304 H 1597.7 0.608651 7.04676 0
M  V30 9305 H 1598.69 -0.889672 7.08939 0
M  V30 9306 H 1596.86 -0.43308 9.04564 0
M  V30 9307 H 1596.79 1.67758 5.83046 0
M  V30 9308 H 1596.89 3.23869 3.92281 0
M  V30 9309 H 1597.28 1.96317 0.467202 0
M  V30 9310 H 1597.08 3.39693 1.51142 0
M  V30 9311 P 1598.73 -2.75334 8.47391 0
M  V30 9312 O 1598.95 -3.84204 9.44982 0
M  V30 9313 O 1599.52 -1.51982 8.68909 0
M  V30 9314 O 1598.98 -3.29363 6.99321 0
M  V30 9315 C 1598.04 -4.24066 6.42823 0
M  V30 9316 C 1598.77 -5.20775 5.52155 0
M  V30 9317 O 1598.98 -4.56607 4.22514 0
M  V30 9318 C 1600.17 -5.62697 5.96604 0
M  V30 9319 O 1600.56 -6.87667 5.41053 0
M  V30 9320 C 1601.05 -4.52537 5.39283 0
M  V30 9321 C 1600.34 -4.20027 4.08623 0
M  V30 9322 N 1600.39 -2.76189 3.71603 0
M  V30 9323 H 1597.55 -4.79756 7.24086 0
M  V30 9324 H 1597.28 -3.69963 5.84682 0
M  V30 9325 H 1598.15 -6.10431 5.41508 0
M  V30 9326 H 1600.8 -4.78816 3.28024 0
M  V30 9327 H 1601.08 -3.64957 6.05871 0
M  V30 9328 H 1602.07 -4.88748 5.21323 0
M  V30 9329 H 1600.24 -5.66789 7.0643 0
M  V30 9330 P 1602.11 -7.20834 5.23717 0
M  V30 9331 O 1602.33 -8.66274 5.38678 0
M  V30 9332 O 1602.9 -6.33687 6.13629 0
M  V30 9333 O 1602.36 -6.7751 3.72168 0
M  V30 9334 C 1601.42 -7.20919 2.70795 0
M  V30 9335 C 1602.15 -7.45864 1.40599 0
M  V30 9336 O 1602.36 -6.17751 0.734343 0
M  V30 9337 C 1603.55 -8.05906 1.51917 0
M  V30 9338 O 1603.94 -8.74358 0.335205 0
M  V30 9339 C 1604.43 -6.83093 1.70294 0
M  V30 9340 C 1603.72 -5.79992 0.836974 0
M  V30 9341 N 1603.77 -4.41864 1.38293 0
M  V30 9342 C 1603.69 -4.02089 2.69407 0
M  V30 9343 N 1603.76 -2.73403 2.85089 0
M  V30 9344 C 1603.91 -2.25086 1.5642 0
M  V30 9345 C 1604.04 -0.942887 1.04836 0
M  V30 9346 N 1604.05 0.150999 1.80369 0
M  V30 9347 N 1604.16 -0.812565 -0.28167 0
M  V30 9348 C 1604.15 -1.90572 -1.03784 0
M  V30 9349 N 1604.03 -3.167 -0.683905 0
M  V30 9350 C 1603.91 -3.26538 0.652815 0
M  V30 9351 H 1600.93 -8.13738 3.03804 0
M  V30 9352 H 1600.66 -6.42974 2.55559 0
M  V30 9353 H 1601.53 -8.12139 0.792866 0
M  V30 9354 H 1604.18 -5.80178 -0.160643 0
M  V30 9355 H 1604.46 -6.51379 2.75643 0
M  V30 9356 H 1605.45 -7.01832 1.3448 0
M  V30 9357 H 1603.62 -8.73771 2.38364 0
M  V30 9358 H 1603.58 -4.7189 3.52311 0
M  V30 9359 H 1603.96 0.0721434 2.82608 0
M  V30 9360 H 1604.15 1.0785 1.36544 0
M  V30 9361 H 1604.26 -1.73207 -2.10241 0
M  V30 9362 P 1605.49 -8.91 4.0605e-12 0
M  V30 9363 O 1605.71 -10.1746 -0.733838 0
M  V30 9364 O 1606.28 -8.73346 1.23964 0
M  V30 9365 O 1605.74 -7.66872 -0.971405 0
M  V30 9366 C 1604.8 -7.42405 -2.04668 0
M  V30 9367 C 1605.53 -6.86059 -3.24661 0
M  V30 9368 O 1605.74 -5.42934 -3.03695 0
M  V30 9369 C 1606.93 -7.41287 -3.50796 0
M  V30 9370 O 1607.32 -7.27073 -4.86816 0
M  V30 9371 C 1607.81 -6.5273 -2.63741 0
M  V30 9372 C 1607.1 -5.1842 -2.73198 0
M  V30 9373 N 1607.15 -4.38762 -1.4784 0
M  V30 9374 H 1604.31 -8.36899 -2.3252 0
M  V30 9375 H 1604.04 -6.70391 -1.71179 0
M  V30 9376 H 1604.91 -7.03638 -4.13219 0
M  V30 9377 H 1607.56 -4.59931 -3.54016 0
M  V30 9378 H 1607.84 -6.88995 -1.59871 0
M  V30 9379 H 1608.83 -6.4684 -3.0373 0
M  V30 9380 H 1607 -8.47002 -3.20749 0
M  V30 9381 P 1608.87 -7.20834 -5.23717 0
M  V30 9382 O 1609.09 -7.79853 -6.57286 0
M  V30 9383 O 1609.66 -7.79239 -4.12957 0
M  V30 9384 O 1609.12 -5.63315 -5.29344 0
M  V30 9385 C 1608.18 -4.80255 -6.01876 0
M  V30 9386 C 1608.91 -3.64202 -6.65911 0
M  V30 9387 O 1609.12 -2.60694 -5.64732 0
M  V30 9388 C 1610.31 -3.93473 -7.1943 0
M  V30 9389 O 1610.7 -3.02071 -8.21205 0
M  V30 9390 C 1611.19 -3.73047 -5.97036 0
M  V30 9391 C 1610.48 -2.58828 -5.25741 0
M  V30 9392 N 1610.53 -2.68068 -3.77503 0
M  V30 9393 H 1607.69 -5.40332 -6.79951 0
M  V30 9394 H 1607.42 -4.41613 -5.32378 0
M  V30 9395 H 1608.29 -3.26331 -7.47797 0
M  V30 9396 P 1612.25 -2.75334 -8.47391 0
M  V30 9397 O 1612.47 -2.44571 -9.90142 0
M  V30 9398 O 1613.04 -3.87688 -7.92115 0
M  V30 9399 O 1612.5 -1.4459 -7.59357 0
M  V30 9400 C 1611.56 -0.347608 -7.69215 0
M  V30 9401 C 1612.29 0.96767 -7.52806 0
M  V30 9402 O 1612.5 1.21036 -6.1011 0
M  V30 9403 C 1613.69 1.04544 -8.13308 0
M  V30 9404 O 1614.08 2.38311 -8.41922 0
M  V30 9405 C 1614.57 0.491279 -7.02284 0
M  V30 9406 C 1613.86 0.996264 -5.77469 0
M  V30 9407 N 1613.91 0.0501916 -4.62973 0
M  V30 9408 H 1611.07 -0.374722 -8.67691 0
M  V30 9409 H 1610.8 -0.443485 -6.90277 0
M  V30 9410 H 1611.67 1.75537 -7.96793 0
M  V30 9411 P 1615.63 2.75334 -8.47391 0
M  V30 9412 O 1615.85 3.84204 -9.44982 0
M  V30 9413 O 1616.42 1.51982 -8.68909 0
M  V30 9414 O 1615.88 3.29363 -6.99321 0
M  V30 9415 C 1614.94 4.24066 -6.42823 0
M  V30 9416 C 1615.67 5.20775 -5.52155 0
M  V30 9417 O 1615.88 4.56607 -4.22514 0
M  V30 9418 C 1617.07 5.62697 -5.96604 0
M  V30 9419 O 1617.46 6.87667 -5.41053 0
M  V30 9420 C 1617.95 4.52537 -5.39283 0
M  V30 9421 C 1617.24 4.20027 -4.08623 0
M  V30 9422 N 1617.29 2.76189 -3.71603 0
M  V30 9423 C 1617.21 1.66944 -4.54297 0
M  V30 9424 N 1617.28 0.536169 -3.91344 0
M  V30 9425 C 1617.43 0.901569 -2.58849 0
M  V30 9426 C 1617.56 0.146599 -1.40236 0
M  V30 9427 N 1617.57 -1.18234 -1.37046 0
M  V30 9428 N 1617.68 0.822941 -0.249738 0
M  V30 9429 C 1617.67 2.15179 -0.280525 0
M  V30 9430 N 1617.55 2.96414 -1.30822 0
M  V30 9431 C 1617.43 2.25804 -2.44748 0
M  V30 9432 H 1614.45 4.79756 -7.24086 0
M  V30 9433 H 1614.18 3.69963 -5.84682 0
M  V30 9434 H 1615.05 6.10431 -5.41508 0
M  V30 9435 H 1617.7 4.78816 -3.28024 0
M  V30 9436 H 1617.98 3.64957 -6.05871 0
M  V30 9437 H 1618.97 4.88748 -5.21323 0
M  V30 9438 H 1617.14 5.66789 -7.0643 0
M  V30 9439 H 1617.1 1.74684 -5.62396 0
M  V30 9440 H 1617.48 -1.71949 -2.24394 0
M  V30 9441 H 1617.67 -1.67511 -0.470742 0
M  V30 9442 H 1617.78 2.63704 0.6828 0
M  V30 9443 P 1619.01 7.20834 -5.23717 0
M  V30 9444 O 1619.23 8.66104 -5.38572 0
M  V30 9445 O 1619.8 6.33544 -6.1349 0
M  V30 9446 O 1619.26 6.7751 -3.72168 0
M  V30 9447 C 1618.32 7.20825 -2.7076 0
M  V30 9448 C 1619.05 7.45864 -1.40599 0
M  V30 9449 O 1619.26 6.17651 -0.734225 0
M  V30 9450 C 1620.45 8.05808 -1.51899 0
M  V30 9451 O 1620.84 8.74358 -0.335205 0
M  V30 9452 C 1621.33 6.83093 -1.70294 0
M  V30 9453 C 1620.62 5.79992 -0.836974 0
M  V30 9454 N 1620.67 4.41864 -1.38293 0
M  V30 9455 H 1617.83 8.13644 -3.0377 0
M  V30 9456 H 1617.56 6.42788 -2.55485 0
M  V30 9457 H 1618.43 8.12039 -0.792769 0
M  V30 9458 P 1622.39 8.91 -5.1695e-12 0
M  V30 9459 O 1622.61 10.1726 0.733694 0
M  V30 9460 O 1623.18 8.73148 -1.23936 0
M  V30 9461 O 1622.64 7.66872 0.971405 0
M  V30 9462 C 1621.7 7.42309 2.04641 0
M  V30 9463 C 1622.43 6.86059 3.24661 0
M  V30 9464 O 1622.64 5.42847 3.03646 0
M  V30 9465 C 1623.83 7.41196 3.50753 0
M  V30 9466 O 1624.22 7.27073 4.86816 0
M  V30 9467 C 1624.71 6.5273 2.63741 0
M  V30 9468 C 1624 5.1842 2.73198 0
M  V30 9469 N 1624.05 4.38762 1.4784 0
M  V30 9470 C 1623.97 4.81605 0.168631 0
M  V30 9471 N 1624.05 3.85454 -0.713363 0
M  V30 9472 C 1624.19 2.6994 0.0566958 0
M  V30 9473 C 1624.32 1.34815 -0.338502 0
M  V30 9474 N 1624.44 0.496304 0.77465 0
M  V30 9475 C 1624.44 0.908403 2.09122 0
M  V30 9476 N 1624.57 -0.0517805 3.00955 0
M  V30 9477 N 1624.31 2.17875 2.46519 0
M  V30 9478 C 1624.19 3.01988 1.4033 0
M  V30 9479 H 1621.21 8.36803 2.32493 0
M  V30 9480 H 1620.94 6.70197 1.71129 0
M  V30 9481 H 1621.81 7.03551 4.13168 0
M  V30 9482 P 1625.77 7.20834 5.23717 0
M  V30 9483 O 1625.99 7.79853 6.57286 0
M  V30 9484 O 1626.56 7.79239 4.12957 0
M  V30 9485 O 1626.02 5.63315 5.29344 0
M  V30 9486 C 1625.08 4.80255 6.01876 0
M  V30 9487 C 1625.81 3.64202 6.65911 0
M  V30 9488 O 1626.02 2.60694 5.64732 0
M  V30 9489 C 1627.21 3.93473 7.1943 0
M  V30 9490 O 1627.6 3.02071 8.21205 0
M  V30 9491 C 1628.09 3.73047 5.97036 0
M  V30 9492 C 1627.38 2.58828 5.25741 0
M  V30 9493 N 1627.43 2.68068 3.77503 0
M  V30 9494 H 1624.59 5.40332 6.79951 0
M  V30 9495 H 1624.32 4.41613 5.32378 0
M  V30 9496 H 1625.19 3.26331 7.47797 0
M  V30 9497 P 1629.15 2.75334 8.47391 0
M  V30 9498 O 1629.37 2.44595 9.90239 0
M  V30 9499 O 1629.94 3.87732 7.92204 0
M  V30 9500 O 1629.4 1.4459 7.59357 0
M  V30 9501 C 1628.46 0.347563 7.69115 0
M  V30 9502 C 1629.19 -0.96767 7.52806 0
M  V30 9503 O 1629.4 -1.21036 6.1011 0
M  V30 9504 C 1630.59 -1.04544 8.13308 0
M  V30 9505 O 1630.98 -2.38311 8.41922 0
M  V30 9506 C 1631.47 -0.491279 7.02284 0
M  V30 9507 C 1630.76 -0.996264 5.77469 0
M  V30 9508 N 1630.81 -0.0501808 4.62873 0
M  V30 9509 C 1630.96 -0.588177 3.36904 0
M  V30 9510 O 1631.05 -1.78598 3.17173 0
M  V30 9511 N 1631 0.329694 2.33686 0
M  V30 9512 C 1630.91 1.6953 2.45079 0
M  V30 9513 O 1630.96 2.41926 1.44899 0
M  V30 9514 C 1630.76 2.16933 3.80505 0
M  V30 9515 C 1630.65 3.65373 3.97621 0
M  V30 9516 C 1630.71 1.30326 4.83752 0
M  V30 9517 H 1627.97 0.374722 8.67691 0
M  V30 9518 H 1627.7 0.443421 6.90177 0
M  V30 9519 H 1628.57 -1.75537 7.96793 0
M  V30 9520 H 1631.22 -1.94496 5.46629 0
M  V30 9521 H 1631.5 0.608651 7.04676 0
M  V30 9522 H 1632.49 -0.889672 7.08939 0
M  V30 9523 H 1630.66 -0.43308 9.04564 0
M  V30 9524 H 1630.59 1.68366 5.8516 0
M  V30 9525 H 1631.62 4.05985 4.30448 0
M  V30 9526 H 1629.88 3.88028 4.72875 0
M  V30 9527 H 1630.37 4.11381 3.01609 0
M  V30 9528 H 1631.11 -0.0393617 1.41345 0
M  V30 9529 P 1632.53 -2.75334 8.47391 0
M  V30 9530 O 1632.75 -3.84204 9.44982 0
M  V30 9531 O 1633.32 -1.51982 8.68909 0
M  V30 9532 O 1632.78 -3.29363 6.99321 0
M  V30 9533 C 1631.84 -4.24066 6.42823 0
M  V30 9534 C 1632.57 -5.20775 5.52155 0
M  V30 9535 O 1632.78 -4.56607 4.22514 0
M  V30 9536 C 1633.97 -5.62697 5.96604 0
M  V30 9537 O 1634.36 -6.87667 5.41053 0
M  V30 9538 C 1634.85 -4.52537 5.39283 0
M  V30 9539 C 1634.14 -4.20027 4.08623 0
M  V30 9540 N 1634.19 -2.76189 3.71603 0
M  V30 9541 C 1634.11 -1.66944 4.54297 0
M  V30 9542 N 1634.18 -0.536169 3.91344 0
M  V30 9543 C 1634.33 -0.901569 2.58849 0
M  V30 9544 C 1634.46 -0.146599 1.40236 0
M  V30 9545 N 1634.47 1.18234 1.37046 0
M  V30 9546 N 1634.58 -0.822941 0.249738 0
M  V30 9547 C 1634.57 -2.15179 0.280525 0
M  V30 9548 N 1634.45 -2.96414 1.30822 0
M  V30 9549 C 1634.33 -2.25804 2.44748 0
M  V30 9550 H 1631.35 -4.79756 7.24086 0
M  V30 9551 H 1631.08 -3.69963 5.84682 0
M  V30 9552 H 1631.95 -6.10431 5.41508 0
M  V30 9553 H 1634.6 -4.78816 3.28024 0
M  V30 9554 H 1634.88 -3.64957 6.05871 0
M  V30 9555 H 1635.87 -4.88748 5.21323 0
M  V30 9556 H 1634.04 -5.66789 7.0643 0
M  V30 9557 H 1634 -1.74684 5.62396 0
M  V30 9558 H 1634.38 1.71949 2.24394 0
M  V30 9559 H 1634.57 1.67511 0.470742 0
M  V30 9560 H 1634.68 -2.63704 -0.6828 0
M  V30 9561 P 1635.91 -7.20834 5.23717 0
M  V30 9562 O 1636.13 -8.66104 5.38572 0
M  V30 9563 O 1636.7 -6.33544 6.1349 0
M  V30 9564 O 1636.16 -6.7751 3.72168 0
M  V30 9565 C 1635.22 -7.20825 2.7076 0
M  V30 9566 C 1635.95 -7.45864 1.40599 0
M  V30 9567 O 1636.16 -6.17651 0.734225 0
M  V30 9568 C 1637.35 -8.05808 1.51899 0
M  V30 9569 O 1637.74 -8.74358 0.335205 0
M  V30 9570 C 1638.23 -6.83093 1.70294 0
M  V30 9571 C 1637.52 -5.79992 0.836974 0
M  V30 9572 N 1637.57 -4.41864 1.38293 0
M  V30 9573 H 1634.73 -8.13644 3.0377 0
M  V30 9574 H 1634.46 -6.42788 2.55485 0
M  V30 9575 H 1635.33 -8.12039 0.792769 0
M  V30 9576 P 1639.29 -8.91 6.2785e-12 0
M  V30 9577 O 1639.51 -10.1726 -0.733694 0
M  V30 9578 O 1640.08 -8.73148 1.23936 0
M  V30 9579 O 1639.54 -7.66872 -0.971405 0
M  V30 9580 C 1638.6 -7.42309 -2.04641 0
M  V30 9581 C 1639.33 -6.86059 -3.24661 0
M  V30 9582 O 1639.54 -5.42847 -3.03646 0
M  V30 9583 C 1640.73 -7.41196 -3.50753 0
M  V30 9584 O 1641.12 -7.27073 -4.86816 0
M  V30 9585 C 1641.61 -6.5273 -2.63741 0
M  V30 9586 C 1640.9 -5.1842 -2.73198 0
M  V30 9587 N 1640.95 -4.38762 -1.4784 0
M  V30 9588 C 1640.87 -4.81605 -0.168631 0
M  V30 9589 N 1640.95 -3.85454 0.713363 0
M  V30 9590 C 1641.09 -2.6994 -0.0566958 0
M  V30 9591 C 1641.22 -1.34815 0.338502 0
M  V30 9592 N 1641.34 -0.496304 -0.77465 0
M  V30 9593 C 1641.34 -0.908403 -2.09122 0
M  V30 9594 N 1641.47 0.0517805 -3.00955 0
M  V30 9595 N 1641.21 -2.17875 -2.46519 0
M  V30 9596 C 1641.09 -3.01988 -1.4033 0
M  V30 9597 H 1638.11 -8.36803 -2.32493 0
M  V30 9598 H 1637.84 -6.70197 -1.71129 0
M  V30 9599 H 1638.71 -7.03551 -4.13168 0
M  V30 9600 P 1642.67 -7.20834 -5.23717 0
M  V30 9601 O 1642.89 -7.79853 -6.57286 0
M  V30 9602 O 1643.46 -7.79239 -4.12957 0
M  V30 9603 O 1642.92 -5.63315 -5.29344 0
M  V30 9604 C 1641.98 -4.80255 -6.01876 0
M  V30 9605 C 1642.71 -3.64202 -6.65911 0
M  V30 9606 O 1642.92 -2.60694 -5.64732 0
M  V30 9607 C 1644.11 -3.93473 -7.1943 0
M  V30 9608 O 1644.5 -3.02071 -8.21205 0
M  V30 9609 C 1644.99 -3.73047 -5.97036 0
M  V30 9610 C 1644.28 -2.58828 -5.25741 0
M  V30 9611 N 1644.33 -2.68068 -3.77503 0
M  V30 9612 H 1641.49 -5.40332 -6.79951 0
M  V30 9613 H 1641.22 -4.41613 -5.32378 0
M  V30 9614 H 1642.09 -3.26331 -7.47797 0
M  V30 9615 P 1646.05 -2.75334 -8.47391 0
M  V30 9616 O 1646.27 -2.44571 -9.90142 0
M  V30 9617 O 1646.84 -3.87688 -7.92115 0
M  V30 9618 O 1646.3 -1.4459 -7.59357 0
M  V30 9619 C 1645.36 -0.347608 -7.69215 0
M  V30 9620 C 1646.09 0.96767 -7.52806 0
M  V30 9621 O 1646.3 1.21036 -6.1011 0
M  V30 9622 C 1647.49 1.04544 -8.13308 0
M  V30 9623 O 1647.88 2.38311 -8.41922 0
M  V30 9624 C 1648.37 0.491279 -7.02284 0
M  V30 9625 C 1647.66 0.996264 -5.77469 0
M  V30 9626 N 1647.71 0.0501916 -4.62973 0
M  V30 9627 H 1644.87 -0.374722 -8.67691 0
M  V30 9628 H 1644.6 -0.443485 -6.90277 0
M  V30 9629 H 1645.47 1.75537 -7.96793 0
M  V30 9630 P 1649.43 2.75334 -8.47391 0
M  V30 9631 O 1649.65 3.84128 -9.44797 0
M  V30 9632 O 1650.22 1.51947 -8.68712 0
M  V30 9633 O 1649.68 3.29363 -6.99321 0
M  V30 9634 C 1648.74 4.24011 -6.4274 0
M  V30 9635 C 1649.47 5.20775 -5.52155 0
M  V30 9636 O 1649.68 4.56534 -4.22446 0
M  V30 9637 C 1650.87 5.62629 -5.96531 0
M  V30 9638 O 1651.26 6.87667 -5.41053 0
M  V30 9639 C 1651.75 4.52537 -5.39283 0
M  V30 9640 C 1651.04 4.20027 -4.08623 0
M  V30 9641 N 1651.09 2.76189 -3.71603 0
M  V30 9642 H 1648.25 4.797 -7.24003 0
M  V30 9643 H 1647.98 3.69856 -5.84513 0
M  V30 9644 H 1648.85 6.10356 -5.41441 0
M  V30 9645 P 1652.81 7.20834 -5.23717 0
M  V30 9646 O 1653.03 8.66189 -5.38625 0
M  V30 9647 O 1653.6 6.33615 -6.1356 0
M  V30 9648 O 1653.06 6.7751 -3.72168 0
M  V30 9649 C 1652.12 7.20732 -2.70725 0
M  V30 9650 C 1652.85 7.45864 -1.40599 0
M  V30 9651 O 1653.06 6.17651 -0.734225 0
M  V30 9652 C 1654.25 8.05808 -1.51899 0
M  V30 9653 O 1654.64 8.74358 -0.335205 0
M  V30 9654 C 1655.13 6.83093 -1.70294 0
M  V30 9655 C 1654.42 5.79992 -0.836974 0
M  V30 9656 N 1654.47 4.41769 -1.38263 0
M  V30 9657 C 1654.62 3.38591 -0.481702 0
M  V30 9658 O 1654.71 3.56839 0.718452 0
M  V30 9659 N 1654.66 2.1206 -1.03569 0
M  V30 9660 C 1654.57 1.80696 -2.36966 0
M  V30 9661 O 1654.62 0.630473 -2.74862 0
M  V30 9662 C 1654.42 2.94845 -3.23898 0
M  V30 9663 C 1654.31 2.65253 -4.70362 0
M  V30 9664 C 1654.37 4.19803 -2.73435 0
M  V30 9665 H 1651.63 8.13644 -3.0377 0
M  V30 9666 H 1651.36 6.42695 -2.55448 0
M  V30 9667 H 1652.23 8.12039 -0.792769 0
M  V30 9668 H 1654.88 5.79978 0.160587 0
M  V30 9669 H 1655.16 6.51379 -2.75643 0
M  V30 9670 H 1656.15 7.01734 -1.34462 0
M  V30 9671 H 1654.32 8.73674 -2.38337 0
M  V30 9672 H 1654.25 5.04492 -3.4095 0
M  V30 9673 H 1655.28 2.83924 -5.1913 0
M  V30 9674 H 1653.54 3.29824 -5.15163 0
M  V30 9675 H 1654.03 1.59723 -4.84449 0
M  V30 9676 H 1654.77 1.35644 -0.399345 0
M  V30 9677 P 1656.19 8.91 -7.38751e-12 0
M  V30 9678 O 1656.41 10.1726 0.733694 0
M  V30 9679 O 1656.98 8.73148 -1.23936 0
M  V30 9680 O 1656.44 7.66872 0.971405 0
M  V30 9681 C 1655.5 7.42309 2.04641 0
M  V30 9682 C 1656.23 6.86059 3.24661 0
M  V30 9683 O 1656.44 5.42847 3.03646 0
M  V30 9684 C 1657.63 7.41196 3.50753 0
M  V30 9685 O 1658.02 7.27073 4.86816 0
M  V30 9686 C 1658.51 6.5273 2.63741 0
M  V30 9687 C 1657.8 5.1842 2.73198 0
M  V30 9688 N 1657.85 4.38762 1.4784 0
M  V30 9689 H 1655.01 8.36803 2.32493 0
M  V30 9690 H 1654.74 6.70197 1.71129 0
M  V30 9691 H 1655.61 7.03551 4.13168 0
M  V30 9692 P 1659.57 7.20834 5.23717 0
M  V30 9693 O 1659.79 7.80006 6.57415 0
M  V30 9694 O 1660.36 7.79416 4.13051 0
M  V30 9695 O 1659.82 5.63315 5.29344 0
M  V30 9696 C 1658.88 4.80318 6.01954 0
M  V30 9697 C 1659.61 3.64202 6.65911 0
M  V30 9698 O 1659.82 2.60736 5.64823 0
M  V30 9699 C 1661.01 3.93521 7.19518 0
M  V30 9700 O 1661.4 3.02071 8.21205 0
M  V30 9701 C 1661.89 3.73047 5.97036 0
M  V30 9702 C 1661.18 2.58828 5.25741 0
M  V30 9703 N 1661.23 2.68068 3.77503 0
M  V30 9704 C 1661.15 3.80474 2.99159 0
M  V30 9705 N 1661.22 3.55622 1.71925 0
M  V30 9706 C 1661.37 2.1832 1.65733 0
M  V30 9707 C 1661.5 1.28842 0.572777 0
M  V30 9708 N 1661.51 1.66875 -0.70098 0
M  V30 9709 N 1661.62 -0.016788 0.859836 0
M  V30 9710 C 1661.61 -0.398145 2.13316 0
M  V30 9711 N 1661.49 0.328224 3.22333 0
M  V30 9712 C 1661.37 1.62992 2.90383 0
M  V30 9713 H 1658.39 5.40394 6.8003 0
M  V30 9714 H 1658.12 4.41741 5.32532 0
M  V30 9715 H 1658.99 3.26371 7.47889 0
M  V30 9716 H 1661.64 1.64007 5.56746 0
M  V30 9717 H 1661.92 4.63439 5.3432 0
M  V30 9718 H 1662.91 3.44776 6.25925 0
M  V30 9719 H 1661.08 4.96707 7.57347 0
M  V30 9720 H 1661.04 4.8089 3.39924 0
M  V30 9721 H 1661.42 2.66547 -0.941919 0
M  V30 9722 H 1661.61 0.965341 -1.44766 0
M  V30 9723 H 1661.72 -1.46427 2.29697 0
M  V30 9724 P 1662.95 2.75334 8.47391 0
M  V30 9725 O 1663.17 2.44571 9.90142 0
M  V30 9726 O 1663.74 3.87688 7.92115 0
M  V30 9727 O 1663.2 1.4459 7.59357 0
M  V30 9728 C 1662.26 0.347608 7.69215 0
M  V30 9729 C 1662.99 -0.96767 7.52806 0
M  V30 9730 O 1663.2 -1.21036 6.1011 0
M  V30 9731 C 1664.39 -1.04544 8.13308 0
M  V30 9732 O 1664.78 -2.38311 8.41922 0
M  V30 9733 C 1665.27 -0.491279 7.02284 0
M  V30 9734 C 1664.56 -0.996264 5.77469 0
M  V30 9735 N 1664.61 -0.0501916 4.62973 0
M  V30 9736 H 1661.77 0.374722 8.67691 0
M  V30 9737 H 1661.5 0.443485 6.90277 0
M  V30 9738 H 1662.37 -1.75537 7.96793 0
M  V30 9739 P 1666.33 -2.75334 8.47391 0
M  V30 9740 O 1666.55 -3.84204 9.44982 0
M  V30 9741 O 1667.12 -1.51982 8.68909 0
M  V30 9742 O 1666.58 -3.29363 6.99321 0
M  V30 9743 C 1665.64 -4.24066 6.42823 0
M  V30 9744 C 1666.37 -5.20775 5.52155 0
M  V30 9745 O 1666.58 -4.56607 4.22514 0
M  V30 9746 C 1667.77 -5.62697 5.96604 0
M  V30 9747 O 1668.16 -6.87667 5.41053 0
M  V30 9748 C 1668.65 -4.52537 5.39283 0
M  V30 9749 C 1667.94 -4.20027 4.08623 0
M  V30 9750 N 1667.99 -2.76189 3.71603 0
M  V30 9751 H 1665.15 -4.79756 7.24086 0
M  V30 9752 H 1664.88 -3.69963 5.84682 0
M  V30 9753 H 1665.75 -6.10431 5.41508 0
M  V30 9754 H 1668.4 -4.78816 3.28024 0
M  V30 9755 H 1668.68 -3.64957 6.05871 0
M  V30 9756 H 1669.67 -4.88748 5.21323 0
M  V30 9757 H 1667.84 -5.66789 7.0643 0
M  V30 9758 P 1669.71 -7.20834 5.23717 0
M  V30 9759 O 1669.93 -8.66104 5.38572 0
M  V30 9760 O 1670.5 -6.33544 6.1349 0
M  V30 9761 O 1669.96 -6.7751 3.72168 0
M  V30 9762 C 1669.02 -7.20825 2.7076 0
M  V30 9763 C 1669.75 -7.45864 1.40599 0
M  V30 9764 O 1669.96 -6.17651 0.734225 0
M  V30 9765 C 1671.15 -8.05808 1.51899 0
M  V30 9766 O 1671.54 -8.74358 0.335205 0
M  V30 9767 C 1672.03 -6.83093 1.70294 0
M  V30 9768 C 1671.32 -5.79992 0.836974 0
M  V30 9769 N 1671.37 -4.41864 1.38293 0
M  V30 9770 H 1668.53 -8.13644 3.0377 0
M  V30 9771 H 1668.26 -6.42788 2.55485 0
M  V30 9772 H 1669.13 -8.12039 0.792769 0
M  V30 9773 P 1673.09 -8.91 8.49651e-12 0
M  V30 9774 O 1673.31 -10.1726 -0.733694 0
M  V30 9775 O 1673.88 -8.73148 1.23936 0
M  V30 9776 O 1673.34 -7.66872 -0.971405 0
M  V30 9777 C 1672.4 -7.42309 -2.04641 0
M  V30 9778 C 1673.13 -6.86059 -3.24661 0
M  V30 9779 O 1673.34 -5.42847 -3.03646 0
M  V30 9780 C 1674.53 -7.41196 -3.50753 0
M  V30 9781 O 1674.92 -7.27073 -4.86816 0
M  V30 9782 C 1675.41 -6.5273 -2.63741 0
M  V30 9783 C 1674.7 -5.1842 -2.73198 0
M  V30 9784 N 1674.75 -4.38762 -1.4784 0
M  V30 9785 H 1671.91 -8.36803 -2.32493 0
M  V30 9786 H 1671.64 -6.70197 -1.71129 0
M  V30 9787 H 1672.51 -7.03551 -4.13168 0
M  V30 9788 P 1676.47 -7.20834 -5.23717 0
M  V30 9789 O 1676.69 -7.79853 -6.57286 0
M  V30 9790 O 1677.26 -7.79239 -4.12957 0
M  V30 9791 O 1676.72 -5.63315 -5.29344 0
M  V30 9792 C 1675.78 -4.80255 -6.01876 0
M  V30 9793 C 1676.51 -3.64202 -6.65911 0
M  V30 9794 O 1676.72 -2.60694 -5.64732 0
M  V30 9795 C 1677.91 -3.93473 -7.1943 0
M  V30 9796 O 1678.3 -3.02071 -8.21205 0
M  V30 9797 C 1678.79 -3.73047 -5.97036 0
M  V30 9798 C 1678.08 -2.58828 -5.25741 0
M  V30 9799 N 1678.13 -2.68068 -3.77503 0
M  V30 9800 H 1675.29 -5.40332 -6.79951 0
M  V30 9801 H 1675.02 -4.41613 -5.32378 0
M  V30 9802 H 1675.89 -3.26331 -7.47797 0
M  V30 9803 P 1679.85 -2.75334 -8.47391 0
M  V30 9804 O 1680.07 -2.44571 -9.90142 0
M  V30 9805 O 1680.64 -3.87688 -7.92115 0
M  V30 9806 O 1680.1 -1.4459 -7.59357 0
M  V30 9807 C 1679.16 -0.347608 -7.69215 0
M  V30 9808 C 1679.89 0.96767 -7.52806 0
M  V30 9809 O 1680.1 1.21036 -6.1011 0
M  V30 9810 C 1681.29 1.04544 -8.13308 0
M  V30 9811 O 1681.68 2.38311 -8.41922 0
M  V30 9812 C 1682.17 0.491279 -7.02284 0
M  V30 9813 C 1681.46 0.996264 -5.77469 0
M  V30 9814 N 1681.51 0.0501916 -4.62973 0
M  V30 9815 H 1678.67 -0.374722 -8.67691 0
M  V30 9816 H 1678.4 -0.443485 -6.90277 0
M  V30 9817 H 1679.27 1.75537 -7.96793 0
M  V30 9818 P 1683.23 2.75334 -8.47391 0
M  V30 9819 O 1683.45 3.84128 -9.44797 0
M  V30 9820 O 1684.02 1.51947 -8.68712 0
M  V30 9821 O 1683.48 3.29363 -6.99321 0
M  V30 9822 C 1682.54 4.24011 -6.4274 0
M  V30 9823 C 1683.27 5.20775 -5.52155 0
M  V30 9824 O 1683.48 4.56534 -4.22446 0
M  V30 9825 C 1684.67 5.62629 -5.96531 0
M  V30 9826 O 1685.06 6.87667 -5.41053 0
M  V30 9827 C 1685.55 4.52537 -5.39283 0
M  V30 9828 C 1684.84 4.20027 -4.08623 0
M  V30 9829 N 1684.89 2.76189 -3.71603 0
M  V30 9830 H 1682.05 4.797 -7.24003 0
M  V30 9831 H 1681.78 3.69856 -5.84513 0
M  V30 9832 H 1682.65 6.10356 -5.41441 0
M  V30 9833 P 1686.61 7.20834 -5.23717 0
M  V30 9834 O 1686.83 8.66104 -5.38572 0
M  V30 9835 O 1687.4 6.33544 -6.1349 0
M  V30 9836 O 1686.86 6.7751 -3.72168 0
M  V30 9837 C 1685.92 7.20825 -2.7076 0
M  V30 9838 C 1686.65 7.45864 -1.40599 0
M  V30 9839 O 1686.86 6.17651 -0.734225 0
M  V30 9840 C 1688.05 8.05808 -1.51899 0
M  V30 9841 O 1688.44 8.74358 -0.335205 0
M  V30 9842 C 1688.93 6.83093 -1.70294 0
M  V30 9843 C 1688.22 5.79992 -0.836974 0
M  V30 9844 N 1688.27 4.41864 -1.38293 0
M  V30 9845 H 1685.43 8.13644 -3.0377 0
M  V30 9846 H 1685.16 6.42788 -2.55485 0
M  V30 9847 H 1686.03 8.12039 -0.792769 0
M  V30 9848 P 1689.99 8.91 -9.60552e-12 0
M  V30 9849 O 1690.21 10.1726 0.733694 0
M  V30 9850 O 1690.78 8.73148 -1.23936 0
M  V30 9851 O 1690.24 7.66872 0.971405 0
M  V30 9852 C 1689.3 7.42309 2.04641 0
M  V30 9853 C 1690.03 6.86059 3.24661 0
M  V30 9854 O 1690.24 5.42847 3.03646 0
M  V30 9855 C 1691.43 7.41196 3.50753 0
M  V30 9856 O 1691.82 7.27073 4.86816 0
M  V30 9857 C 1692.31 6.5273 2.63741 0
M  V30 9858 C 1691.6 5.1842 2.73198 0
M  V30 9859 N 1691.65 4.38762 1.4784 0
M  V30 9860 H 1688.81 8.36803 2.32493 0
M  V30 9861 H 1688.54 6.70197 1.71129 0
M  V30 9862 H 1689.41 7.03551 4.13168 0
M  V30 9863 P 1693.37 7.20834 5.23717 0
M  V30 9864 O 1693.59 7.79853 6.57286 0
M  V30 9865 O 1694.16 7.79239 4.12957 0
M  V30 9866 O 1693.62 5.63315 5.29344 0
M  V30 9867 C 1692.68 4.80255 6.01876 0
M  V30 9868 C 1693.41 3.64202 6.65911 0
M  V30 9869 O 1693.62 2.60694 5.64732 0
M  V30 9870 C 1694.81 3.93473 7.1943 0
M  V30 9871 O 1695.2 3.02071 8.21205 0
M  V30 9872 C 1695.69 3.73047 5.97036 0
M  V30 9873 C 1694.98 2.58828 5.25741 0
M  V30 9874 N 1695.03 2.68068 3.77503 0
M  V30 9875 H 1692.19 5.40332 6.79951 0
M  V30 9876 H 1691.92 4.41613 5.32378 0
M  V30 9877 H 1692.79 3.26331 7.47797 0
M  V30 9878 H 1695.07 2.12276 7.9008 0
M  V30 9879 H 1699.09 -5.66378 -7.64073 0
M  V30 9880 O 1698.97 -5.84357 -6.71818 0
M  V30 9881 P 1697.53 -6.144 -6.45285 0
M  V30 9882 O 1697.31 -7.54673 -6.86199 0
M  V30 9883 O 1696.74 -5.12391 -7.179 0
M  V30 9884 O 1697.28 -5.99158 -4.88404 0
M  V30 9885 C 1698.22 -6.60234 -3.96415 0
M  V30 9886 C 1697.49 -7.08259 -2.72856 0
M  V30 9887 O 1697.28 -5.9427 -1.83651 0
M  V30 9888 C 1696.09 -7.64886 -2.9555 0
M  V30 9889 O 1695.7 -8.53963 -1.90717 0
M  V30 9890 C 1695.21 -6.4116 -2.90739 0
M  V30 9891 C 1695.92 -5.55375 -1.86963 0
M  V30 9892 N 1695.87 -4.09664 -2.15742 0
M  V30 9893 H 1698.71 -7.45574 -4.45629 0
M  V30 9894 H 1698.98 -5.86232 -3.67314 0
M  V30 9895 H 1698.11 -7.84412 -2.24479 0
M  V30 9896 P 1694.15 -8.7635 -1.60911 0
M  V30 9897 O 1693.93 -10.1388 -1.11561 0
M  V30 9898 O 1693.36 -8.36503 -2.79617 0
M  V30 9899 O 1693.9 -7.71806 -0.42951 0
M  V30 9900 C 1694.84 -7.67148 0.673689 0
M  V30 9901 C 1694.11 -7.33374 1.95559 0
M  V30 9902 O 1693.9 -5.88721 2.00726 0
M  V30 9903 C 1692.71 -7.92526 2.10483 0
M  V30 9904 O 1692.32 -8.02971 3.47653 0
M  V30 9905 C 1691.83 -6.89602 1.41652 0
M  V30 9906 C 1692.54 -5.59201 1.75185 0
M  V30 9907 N 1692.49 -4.58301 0.657969 0
M  V30 9908 H 1695.33 -8.65116 0.777161 0
M  V30 9909 H 1695.6 -6.9022 0.46725 0
M  V30 9910 H 1694.73 -7.66548 2.79458 0
M  V30 9911 H 1692.08 -5.16165 2.65183 0
M  V30 9912 H 1691.8 -7.06433 0.329384 0
M  V30 9913 H 1690.81 -6.90926 1.82021 0
M  V30 9914 H 1692.64 -8.90873 1.62657 0
M  V30 9915 P 1690.77 -8.03563 3.84925 0
M  V30 9916 O 1690.55 -8.85821 5.0569 0
M  V30 9917 O 1689.98 -8.41101 2.65469 0
M  V30 9918 O 1690.52 -6.4965 4.18908 0
M  V30 9919 C 1691.46 -5.81037 5.05421 0
M  V30 9920 C 1690.73 -4.78366 5.89277 0
M  V30 9921 O 1690.52 -3.58302 5.08433 0
M  V30 9922 C 1689.33 -5.17448 6.36119 0
M  V30 9923 O 1688.94 -4.45271 7.53232 0
M  V30 9924 C 1688.45 -4.74639 5.19936 0
M  V30 9925 C 1689.16 -3.49432 4.70418 0
M  V30 9926 N 1689.11 -3.31776 3.22945 0
M  V30 9927 H 1691.95 -6.54213 5.71376 0
M  V30 9928 H 1692.22 -5.30492 4.44033 0
M  V30 9929 H 1691.35 -4.55889 6.76652 0
M  V30 9930 P 1687.39 -4.23843 7.83734 0
M  V30 9931 O 1687.17 -4.19407 9.29784 0
M  V30 9932 O 1686.6 -5.24426 7.09156 0
M  V30 9933 O 1687.14 -2.7935 7.20758 0
M  V30 9934 C 1688.08 -1.7299 7.50419 0
M  V30 9935 C 1687.35 -0.406376 7.57911 0
M  V30 9936 O 1687.14 0.0897726 6.21935 0
M  V30 9937 C 1685.95 -0.447224 8.1878 0
M  V30 9938 O 1685.56 0.825065 8.71101 0
M  V30 9939 C 1685.07 -0.783801 6.99623 0
M  V30 9940 C 1685.78 -0.0619192 5.85967 0
M  V30 9941 N 1685.73 -0.790462 4.56202 0
M  V30 9942 H 1688.57 -1.93423 8.4679 0
M  V30 9943 H 1688.84 -1.68852 6.70877 0
M  V30 9944 H 1687.97 0.289041 8.15388 0
M  V30 9945 H 1685.32 0.927006 5.72848 0
M  V30 9946 H 1685.04 -1.86973 6.82036 0
M  V30 9947 H 1684.05 -0.403953 7.13357 0
M  V30 9948 H 1685.88 -1.20599 8.97534 0
M  V30 9949 P 1684.01 1.17771 8.83182 0
M  V30 9950 O 1683.79 2.07206 9.98732 0
M  V30 9951 O 1683.22 -0.0743816 8.81969 0
M  V30 9952 O 1683.76 1.97652 7.47304 0
M  V30 9953 C 1684.7 3.01133 7.08783 0
M  V30 9954 C 1683.97 4.12613 6.37049 0
M  V30 9955 O 1683.76 3.72827 4.97879 0
M  V30 9956 C 1682.57 4.45085 6.88694 0
M  V30 9957 O 1682.18 5.7877 6.5624 0
M  V30 9958 C 1681.69 3.47817 6.12078 0
M  V30 9959 C 1682.4 3.39414 4.77697 0
M  V30 9960 N 1682.35 2.04615 4.15333 0
M  V30 9961 H 1685.19 3.41248 7.98759 0
M  V30 9962 H 1685.46 2.5837 6.41742 0
M  V30 9963 H 1684.59 5.02657 6.42673 0
M  V30 9964 P 1680.63 6.144 6.45285 0
M  V30 9965 O 1680.41 7.54673 6.86199 0
M  V30 9966 O 1679.84 5.12391 7.179 0
M  V30 9967 O 1680.38 5.99158 4.88404 0
M  V30 9968 C 1681.32 6.60234 3.96415 0
M  V30 9969 C 1680.59 7.08259 2.72856 0
M  V30 9970 O 1680.38 5.9427 1.83651 0
M  V30 9971 C 1679.19 7.64886 2.9555 0
M  V30 9972 O 1678.8 8.53963 1.90717 0
M  V30 9973 C 1678.31 6.4116 2.90739 0
M  V30 9974 C 1679.02 5.55375 1.86963 0
M  V30 9975 N 1678.97 4.09448 2.16152 0
M  V30 9976 H 1681.81 7.45574 4.45629 0
M  V30 9977 H 1682.08 5.85864 3.679 0
M  V30 9978 H 1681.21 7.84412 2.24479 0
M  V30 9979 H 1678.56 5.73457 0.888562 0
M  V30 9980 H 1678.28 5.90877 3.88583 0
M  V30 9981 H 1677.29 6.6596 2.58858 0
M  V30 9982 H 1679.12 8.16339 3.92049 0
M  V30 9983 P 1677.25 8.7635 1.60911 0
M  V30 9984 O 1677.03 10.1388 1.11561 0
M  V30 9985 O 1676.46 8.36503 2.79617 0
M  V30 9986 O 1677 7.71806 0.42951 0
M  V30 9987 C 1677.94 7.67148 -0.673689 0
M  V30 9988 C 1677.21 7.33374 -1.95559 0
M  V30 9989 O 1677 5.88721 -2.00726 0
M  V30 9990 C 1675.81 7.92526 -2.10483 0
M  V30 9991 O 1675.42 8.02971 -3.47653 0
M  V30 9992 C 1674.93 6.89602 -1.41652 0
M  V30 9993 C 1675.64 5.59201 -1.75185 0
M  V30 9994 N 1675.59 4.58235 -0.662552 0
M  V30 9995 H 1678.43 8.65116 -0.777161 0
M  V30 9996 H 1678.7 6.90173 -0.474152 0
M  V30 9997 H 1677.83 7.66548 -2.79458 0
M  V30 9998 P 1673.87 8.03563 -3.84925 0
M  V30 9999 O 1673.65 8.85821 -5.0569 0
M  V30 10000 O 1673.08 8.41101 -2.65469 0
M  V30 10001 O 1673.62 6.4965 -4.18908 0
M  V30 10002 C 1674.56 5.81037 -5.05421 0
M  V30 10003 C 1673.83 4.78366 -5.89277 0
M  V30 10004 O 1673.62 3.58302 -5.08433 0
M  V30 10005 C 1672.43 5.17448 -6.36119 0
M  V30 10006 O 1672.04 4.45271 -7.53232 0
M  V30 10007 C 1671.55 4.74639 -5.19936 0
M  V30 10008 C 1672.26 3.49432 -4.70418 0
M  V30 10009 N 1672.21 3.32099 -3.22613 0
M  V30 10010 H 1675.05 6.54213 -5.71376 0
M  V30 10011 H 1675.32 5.30936 -4.43503 0
M  V30 10012 H 1674.45 4.55889 -6.76652 0
M  V30 10013 H 1671.8 2.61715 -5.17932 0
M  V30 10014 H 1671.52 5.52155 -4.41878 0
M  V30 10015 H 1670.53 4.51981 -5.53374 0
M  V30 10016 H 1672.36 6.25124 -6.55234 0
M  V30 10017 P 1670.49 4.23843 -7.83734 0
M  V30 10018 O 1670.27 4.19407 -9.29784 0
M  V30 10019 O 1669.7 5.24426 -7.09156 0
M  V30 10020 O 1670.24 2.7935 -7.20758 0
M  V30 10021 C 1671.18 1.7299 -7.50419 0
M  V30 10022 C 1670.45 0.406376 -7.57911 0
M  V30 10023 O 1670.24 -0.0897726 -6.21935 0
M  V30 10024 C 1669.05 0.447224 -8.1878 0
M  V30 10025 O 1668.66 -0.825065 -8.71101 0
M  V30 10026 C 1668.17 0.783801 -6.99623 0
M  V30 10027 C 1668.88 0.0619192 -5.85967 0
M  V30 10028 N 1668.83 0.7859 -4.56281 0
M  V30 10029 H 1671.67 1.93423 -8.4679 0
M  V30 10030 H 1671.94 1.68181 -6.71046 0
M  V30 10031 H 1671.07 -0.289041 -8.15388 0
M  V30 10032 P 1667.11 -1.17771 -8.83182 0
M  V30 10033 O 1666.89 -2.07206 -9.98732 0
M  V30 10034 O 1666.32 0.0743816 -8.81969 0
M  V30 10035 O 1666.86 -1.97652 -7.47304 0
M  V30 10036 C 1667.8 -3.01133 -7.08783 0
M  V30 10037 C 1667.07 -4.12613 -6.37049 0
M  V30 10038 O 1666.86 -3.72827 -4.97879 0
M  V30 10039 C 1665.67 -4.45085 -6.88694 0
M  V30 10040 O 1665.28 -5.7877 -6.5624 0
M  V30 10041 C 1664.79 -3.47817 -6.12078 0
M  V30 10042 C 1665.5 -3.39414 -4.77697 0
M  V30 10043 N 1665.45 -2.04199 -4.15538 0
M  V30 10044 H 1668.29 -3.41248 -7.98759 0
M  V30 10045 H 1668.56 -2.57728 -6.42 0
M  V30 10046 H 1667.69 -5.02657 -6.42673 0
M  V30 10047 H 1665.04 -4.11708 -4.08956 0
M  V30 10048 H 1664.76 -2.49626 -6.61679 0
M  V30 10049 H 1663.77 -3.8662 -6.00862 0
M  V30 10050 H 1665.6 -4.29991 -7.97006 0
M  V30 10051 P 1663.73 -6.144 -6.45285 0
M  V30 10052 O 1663.51 -7.54673 -6.86199 0
M  V30 10053 O 1662.94 -5.12391 -7.179 0
M  V30 10054 O 1663.48 -5.99158 -4.88404 0
M  V30 10055 C 1664.42 -6.60062 -3.96313 0
M  V30 10056 C 1663.69 -7.08259 -2.72856 0
M  V30 10057 O 1663.48 -5.9427 -1.83651 0
M  V30 10058 C 1662.29 -7.65087 -2.94749 0
M  V30 10059 O 1661.9 -8.53963 -1.90717 0
M  V30 10060 C 1661.41 -6.41069 -2.90698 0
M  V30 10061 C 1662.12 -5.5528 -1.86931 0
M  V30 10062 N 1662.07 -4.09575 -2.15696 0
M  V30 10063 C 1661.92 -3.24249 -1.08435 0
M  V30 10064 O 1661.83 -3.63946 0.0628747 0
M  V30 10065 N 1661.88 -1.90009 -1.39973 0
M  V30 10066 C 1661.97 -1.34884 -2.65614 0
M  V30 10067 O 1661.92 -0.123716 -2.81728 0
M  V30 10068 C 1662.12 -2.3145 -3.71736 0
M  V30 10069 C 1662.23 -1.75913 -5.10438 0
M  V30 10070 C 1662.17 -3.63518 -3.44754 0
M  V30 10071 H 1664.91 -7.45402 -4.45526 0
M  V30 10072 H 1665.18 -5.86062 -3.67208 0
M  V30 10073 H 1664.31 -7.84412 -2.24479 0
M  V30 10074 H 1661.66 -5.73358 -0.888409 0
M  V30 10075 H 1661.38 -5.90877 -3.88583 0
M  V30 10076 H 1660.39 -6.65867 -2.58821 0
M  V30 10077 H 1662.22 -8.16248 -3.92006 0
M  V30 10078 H 1662.29 -4.34551 -4.26383 0
M  V30 10079 H 1661.26 -1.85471 -5.61775 0
M  V30 10080 H 1663 -2.31364 -5.66257 0
M  V30 10081 H 1662.51 -0.695936 -5.05229 0
M  V30 10082 H 1661.78 -1.26277 -0.63625 0
M  V30 10083 P 1660.35 -8.7635 -1.60911 0
M  V30 10084 O 1660.13 -10.1388 -1.11561 0
M  V30 10085 O 1659.56 -8.36503 -2.79617 0
M  V30 10086 O 1660.1 -7.71806 -0.42951 0
M  V30 10087 C 1661.04 -7.67148 0.673689 0
M  V30 10088 C 1660.31 -7.33374 1.95559 0
M  V30 10089 O 1660.1 -5.88721 2.00726 0
M  V30 10090 C 1658.91 -7.92526 2.10483 0
M  V30 10091 O 1658.52 -8.02971 3.47653 0
M  V30 10092 C 1658.03 -6.89602 1.41652 0
M  V30 10093 C 1658.74 -5.59201 1.75185 0
M  V30 10094 N 1658.69 -4.58235 0.662552 0
M  V30 10095 H 1661.53 -8.65116 0.777161 0
M  V30 10096 H 1661.8 -6.90173 0.474152 0
M  V30 10097 H 1660.93 -7.66548 2.79458 0
M  V30 10098 P 1656.97 -8.03563 3.84925 0
M  V30 10099 O 1656.75 -8.85821 5.0569 0
M  V30 10100 O 1656.18 -8.41101 2.65469 0
M  V30 10101 O 1656.72 -6.4965 4.18908 0
M  V30 10102 C 1657.66 -5.81037 5.05421 0
M  V30 10103 C 1656.93 -4.78366 5.89277 0
M  V30 10104 O 1656.72 -3.58302 5.08433 0
M  V30 10105 C 1655.53 -5.17448 6.36119 0
M  V30 10106 O 1655.14 -4.45271 7.53232 0
M  V30 10107 C 1654.65 -4.74639 5.19936 0
M  V30 10108 C 1655.36 -3.49432 4.70418 0
M  V30 10109 N 1655.31 -3.32099 3.22613 0
M  V30 10110 C 1655.39 -4.28245 2.25527 0
M  V30 10111 N 1655.32 -3.80823 1.04874 0
M  V30 10112 C 1655.17 -2.44571 1.23535 0
M  V30 10113 C 1655.04 -1.37068 0.330675 0
M  V30 10114 N 1655.03 -1.51472 -0.990824 0
M  V30 10115 N 1654.92 -0.138614 0.848756 0
M  V30 10116 C 1654.93 0.00675923 2.16999 0
M  V30 10117 N 1655.05 -0.904372 3.11122 0
M  V30 10118 C 1655.17 -2.12707 2.56212 0
M  V30 10119 H 1658.15 -6.54213 5.71376 0
M  V30 10120 H 1658.42 -5.30936 4.43503 0
M  V30 10121 H 1657.55 -4.55889 6.76652 0
M  V30 10122 H 1654.9 -2.61715 5.17932 0
M  V30 10123 H 1654.62 -5.52155 4.41878 0
M  V30 10124 H 1653.63 -4.51981 5.53374 0
M  V30 10125 H 1655.46 -6.25124 6.55234 0
M  V30 10126 H 1655.5 -5.34372 2.47488 0
M  V30 10127 H 1655.12 -2.45153 -1.4078 0
M  V30 10128 H 1654.93 -0.688422 -1.59911 0
M  V30 10129 H 1654.82 1.02584 2.52346 0
M  V30 10130 P 1653.59 -4.23843 7.83734 0
M  V30 10131 O 1653.37 -4.19407 9.29784 0
M  V30 10132 O 1652.8 -5.24426 7.09156 0
M  V30 10133 O 1653.34 -2.7935 7.20758 0
M  V30 10134 C 1654.28 -1.7299 7.50419 0
M  V30 10135 C 1653.55 -0.406376 7.57911 0
M  V30 10136 O 1653.34 0.0897726 6.21935 0
M  V30 10137 C 1652.15 -0.447224 8.1878 0
M  V30 10138 O 1651.76 0.825065 8.71101 0
M  V30 10139 C 1651.27 -0.783801 6.99623 0
M  V30 10140 C 1651.98 -0.0619192 5.85967 0
M  V30 10141 N 1651.93 -0.790462 4.56202 0
M  V30 10142 H 1654.77 -1.93423 8.4679 0
M  V30 10143 H 1655.04 -1.68852 6.70877 0
M  V30 10144 H 1654.17 0.289041 8.15388 0
M  V30 10145 H 1651.52 0.927006 5.72848 0
M  V30 10146 H 1651.24 -1.86973 6.82036 0
M  V30 10147 H 1650.25 -0.403953 7.13357 0
M  V30 10148 H 1652.08 -1.20599 8.97534 0
M  V30 10149 P 1650.21 1.17771 8.83182 0
M  V30 10150 O 1649.99 2.07206 9.98732 0
M  V30 10151 O 1649.42 -0.0743816 8.81969 0
M  V30 10152 O 1649.96 1.97652 7.47304 0
M  V30 10153 C 1650.9 3.01133 7.08783 0
M  V30 10154 C 1650.17 4.12613 6.37049 0
M  V30 10155 O 1649.96 3.72827 4.97879 0
M  V30 10156 C 1648.77 4.45085 6.88694 0
M  V30 10157 O 1648.38 5.7877 6.5624 0
M  V30 10158 C 1647.89 3.47817 6.12078 0
M  V30 10159 C 1648.6 3.39414 4.77697 0
M  V30 10160 N 1648.55 2.04199 4.15538 0
M  V30 10161 H 1651.39 3.41248 7.98759 0
M  V30 10162 H 1651.66 2.57728 6.42 0
M  V30 10163 H 1650.79 5.02657 6.42673 0
M  V30 10164 H 1648.14 4.11708 4.08956 0
M  V30 10165 H 1647.86 2.49626 6.61679 0
M  V30 10166 H 1646.87 3.8662 6.00862 0
M  V30 10167 H 1648.7 4.29991 7.97006 0
M  V30 10168 P 1646.83 6.144 6.45285 0
M  V30 10169 O 1646.61 7.54673 6.86199 0
M  V30 10170 O 1646.04 5.12391 7.179 0
M  V30 10171 O 1646.58 5.99158 4.88404 0
M  V30 10172 C 1647.52 6.60234 3.96415 0
M  V30 10173 C 1646.79 7.08259 2.72856 0
M  V30 10174 O 1646.58 5.9427 1.83651 0
M  V30 10175 C 1645.39 7.64886 2.9555 0
M  V30 10176 O 1645 8.53963 1.90717 0
M  V30 10177 C 1644.51 6.4116 2.90739 0
M  V30 10178 C 1645.22 5.55375 1.86963 0
M  V30 10179 N 1645.17 4.09664 2.15742 0
M  V30 10180 H 1648.01 7.45574 4.45629 0
M  V30 10181 H 1648.28 5.86232 3.67314 0
M  V30 10182 H 1647.41 7.84412 2.24479 0
M  V30 10183 P 1643.45 8.7635 1.60911 0
M  V30 10184 O 1643.23 10.1388 1.11561 0
M  V30 10185 O 1642.66 8.36503 2.79617 0
M  V30 10186 O 1643.2 7.71806 0.42951 0
M  V30 10187 C 1644.14 7.66948 -0.673514 0
M  V30 10188 C 1643.41 7.33374 -1.95559 0
M  V30 10189 O 1643.2 5.88721 -2.00726 0
M  V30 10190 C 1642.01 7.92218 -2.1125 0
M  V30 10191 O 1641.62 8.02971 -3.47653 0
M  V30 10192 C 1641.13 6.89504 -1.41631 0
M  V30 10193 C 1641.84 5.59106 -1.75155 0
M  V30 10194 N 1641.79 4.58136 -0.662409 0
M  V30 10195 C 1641.64 3.26059 -1.02863 0
M  V30 10196 O 1641.55 2.90743 -2.19009 0
M  V30 10197 N 1641.6 2.35995 0.0155585 0
M  V30 10198 C 1641.69 2.65248 1.35603 0
M  V30 10199 C 1641.84 4.05747 1.64698 0
M  V30 10200 C 1641.89 4.96734 0.652411 0
M  V30 10201 H 1644.63 8.64917 -0.776982 0
M  V30 10202 H 1644.9 6.89974 -0.474015 0
M  V30 10203 H 1644.03 7.66548 -2.79458 0
M  V30 10204 H 1641.38 5.16076 -2.65138 0
M  V30 10205 H 1641.1 7.06433 -0.329384 0
M  V30 10206 H 1640.11 6.90829 -1.81996 0
M  V30 10207 H 1641.94 8.90774 -1.62639 0
M  V30 10208 H 1642.01 6.02181 0.895285 0
M  V30 10209 P 1640.07 8.03563 -3.84925 0
M  V30 10210 O 1639.85 8.85821 -5.0569 0
M  V30 10211 O 1639.28 8.41101 -2.65469 0
M  V30 10212 O 1639.82 6.4965 -4.18908 0
M  V30 10213 C 1640.76 5.81037 -5.05421 0
M  V30 10214 C 1640.03 4.78366 -5.89277 0
M  V30 10215 O 1639.82 3.58302 -5.08433 0
M  V30 10216 C 1638.63 5.17448 -6.36119 0
M  V30 10217 O 1638.24 4.45271 -7.53232 0
M  V30 10218 C 1637.75 4.74639 -5.19936 0
M  V30 10219 C 1638.46 3.49432 -4.70418 0
M  V30 10220 N 1638.41 3.31776 -3.22945 0
M  V30 10221 H 1641.25 6.54213 -5.71376 0
M  V30 10222 H 1641.52 5.30492 -4.44033 0
M  V30 10223 H 1640.65 4.55889 -6.76652 0
M  V30 10224 P 1636.69 4.23843 -7.83734 0
M  V30 10225 O 1636.47 4.19407 -9.29784 0
M  V30 10226 O 1635.9 5.24426 -7.09156 0
M  V30 10227 O 1636.44 2.7935 -7.20758 0
M  V30 10228 C 1637.38 1.72945 -7.50224 0
M  V30 10229 C 1636.65 0.406376 -7.57911 0
M  V30 10230 O 1636.44 -0.0897726 -6.21935 0
M  V30 10231 C 1635.25 0.438983 -8.18724 0
M  V30 10232 O 1634.86 -0.825065 -8.71101 0
M  V30 10233 C 1634.37 0.783689 -6.99524 0
M  V30 10234 C 1635.08 0.0619086 -5.85867 0
M  V30 10235 N 1635.03 0.78573 -4.56183 0
M  V30 10236 C 1634.88 0.0292889 -3.41887 0
M  V30 10237 O 1634.79 -1.18445 -3.4419 0
M  V30 10238 N 1634.84 0.744061 -2.23964 0
M  V30 10239 C 1634.93 2.10932 -2.10362 0
M  V30 10240 O 1634.88 2.64117 -0.98825 0
M  V30 10241 C 1635.08 2.8202 -3.34994 0
M  V30 10242 C 1635.19 4.31095 -3.25037 0
M  V30 10243 C 1635.13 2.15547 -4.52261 0
M  V30 10244 H 1637.87 1.93379 -8.46595 0
M  V30 10245 H 1638.14 1.68132 -6.70852 0
M  V30 10246 H 1637.27 -0.289041 -8.15388 0
M  V30 10247 H 1634.62 -0.926847 -5.72749 0
M  V30 10248 H 1634.34 1.86973 -6.82036 0
M  V30 10249 H 1633.35 0.403896 -7.13257 0
M  V30 10250 H 1635.18 1.20585 -8.97435 0
M  V30 10251 H 1635.25 2.71231 -5.45042 0
M  V30 10252 H 1634.22 4.76966 -3.49992 0
M  V30 10253 H 1635.96 4.67047 -3.95024 0
M  V30 10254 H 1635.47 4.58996 -2.22312 0
M  V30 10255 H 1634.74 0.214893 -1.39758 0
M  V30 10256 P 1633.31 -1.17771 -8.83182 0
M  V30 10257 O 1633.09 -2.07206 -9.98732 0
M  V30 10258 O 1632.52 0.0743816 -8.81969 0
M  V30 10259 O 1633.06 -1.97652 -7.47304 0
M  V30 10260 C 1634 -3.01133 -7.08783 0
M  V30 10261 C 1633.27 -4.12613 -6.37049 0
M  V30 10262 O 1633.06 -3.72827 -4.97879 0
M  V30 10263 C 1631.87 -4.45085 -6.88694 0
M  V30 10264 O 1631.48 -5.7877 -6.5624 0
M  V30 10265 C 1630.99 -3.47817 -6.12078 0
M  V30 10266 C 1631.7 -3.39414 -4.77697 0
M  V30 10267 N 1631.65 -2.04199 -4.15538 0
M  V30 10268 C 1631.73 -0.821545 -4.76977 0
M  V30 10269 N 1631.66 0.1794 -3.94592 0
M  V30 10270 C 1631.51 -0.419121 -2.70776 0
M  V30 10271 C 1631.38 0.109072 -1.40577 0
M  V30 10272 N 1631.37 1.4104 -1.1344 0
M  V30 10273 N 1631.26 -0.764381 -0.39411 0
M  V30 10274 C 1631.27 -2.06587 -0.664135 0
M  V30 10275 N 1631.39 -2.67948 -1.82153 0
M  V30 10276 C 1631.51 -1.77942 -2.8147 0
M  V30 10277 H 1634.49 -3.41248 -7.98759 0
M  V30 10278 H 1634.76 -2.57728 -6.42 0
M  V30 10279 H 1633.89 -5.02657 -6.42673 0
M  V30 10280 H 1631.24 -4.11708 -4.08956 0
M  V30 10281 H 1630.96 -2.49626 -6.61679 0
M  V30 10282 H 1629.97 -3.8662 -6.00862 0
M  V30 10283 H 1631.8 -4.29991 -7.97006 0
M  V30 10284 H 1631.84 -0.702451 -5.84696 0
M  V30 10285 H 1631.46 2.09647 -1.89651 0
M  V30 10286 H 1631.27 1.73358 -0.160575 0
M  V30 10287 H 1631.16 -2.71695 0.195838 0
M  V30 10288 P 1629.93 -6.144 -6.45285 0
M  V30 10289 O 1629.71 -7.54673 -6.86199 0
M  V30 10290 O 1629.14 -5.12391 -7.179 0
M  V30 10291 O 1629.68 -5.99158 -4.88404 0
M  V30 10292 C 1630.62 -6.60234 -3.96415 0
M  V30 10293 C 1629.89 -7.08259 -2.72856 0
M  V30 10294 O 1629.68 -5.9427 -1.83651 0
M  V30 10295 C 1628.49 -7.64886 -2.9555 0
M  V30 10296 O 1628.1 -8.53963 -1.90717 0
M  V30 10297 C 1627.61 -6.4116 -2.90739 0
M  V30 10298 C 1628.32 -5.55375 -1.86963 0
M  V30 10299 N 1628.27 -4.09664 -2.15742 0
M  V30 10300 H 1631.11 -7.45574 -4.45629 0
M  V30 10301 H 1631.38 -5.86232 -3.67314 0
M  V30 10302 H 1630.51 -7.84412 -2.24479 0
M  V30 10303 P 1626.55 -8.7635 -1.60911 0
M  V30 10304 O 1626.33 -10.1388 -1.11561 0
M  V30 10305 O 1625.76 -8.36503 -2.79617 0
M  V30 10306 O 1626.3 -7.71806 -0.42951 0
M  V30 10307 C 1627.24 -7.66948 0.673514 0
M  V30 10308 C 1626.51 -7.33374 1.95559 0
M  V30 10309 O 1626.3 -5.88721 2.00726 0
M  V30 10310 C 1625.11 -7.92218 2.1125 0
M  V30 10311 O 1624.72 -8.02971 3.47653 0
M  V30 10312 C 1624.23 -6.89504 1.41631 0
M  V30 10313 C 1624.94 -5.59106 1.75155 0
M  V30 10314 N 1624.89 -4.58136 0.662409 0
M  V30 10315 C 1624.74 -3.26059 1.02863 0
M  V30 10316 O 1624.65 -2.90743 2.19009 0
M  V30 10317 N 1624.7 -2.35995 -0.0155585 0
M  V30 10318 C 1624.79 -2.65248 -1.35603 0
M  V30 10319 C 1624.94 -4.05747 -1.64698 0
M  V30 10320 C 1624.99 -4.96734 -0.652411 0
M  V30 10321 H 1627.73 -8.64917 0.776982 0
M  V30 10322 H 1628 -6.89974 0.474015 0
M  V30 10323 H 1627.13 -7.66548 2.79458 0
M  V30 10324 H 1624.48 -5.16076 2.65138 0
M  V30 10325 H 1624.2 -7.06433 0.329384 0
M  V30 10326 H 1623.21 -6.90829 1.81996 0
M  V30 10327 H 1625.04 -8.90774 1.62639 0
M  V30 10328 H 1625.11 -6.02181 -0.895285 0
M  V30 10329 P 1623.17 -8.03563 3.84925 0
M  V30 10330 O 1622.95 -8.85821 5.0569 0
M  V30 10331 O 1622.38 -8.41101 2.65469 0
M  V30 10332 O 1622.92 -6.4965 4.18908 0
M  V30 10333 C 1623.86 -5.81037 5.05421 0
M  V30 10334 C 1623.13 -4.78366 5.89277 0
M  V30 10335 O 1622.92 -3.58302 5.08433 0
M  V30 10336 C 1621.73 -5.17448 6.36119 0
M  V30 10337 O 1621.34 -4.45271 7.53232 0
M  V30 10338 C 1620.85 -4.74639 5.19936 0
M  V30 10339 C 1621.56 -3.49432 4.70418 0
M  V30 10340 N 1621.51 -3.32099 3.22613 0
M  V30 10341 H 1624.35 -6.54213 5.71376 0
M  V30 10342 H 1624.62 -5.30936 4.43503 0
M  V30 10343 H 1623.75 -4.55889 6.76652 0
M  V30 10344 H 1621.1 -2.61715 5.17932 0
M  V30 10345 H 1620.82 -5.52155 4.41878 0
M  V30 10346 H 1619.83 -4.51981 5.53374 0
M  V30 10347 H 1621.66 -6.25124 6.55234 0
M  V30 10348 P 1619.79 -4.23843 7.83734 0
M  V30 10349 O 1619.57 -4.19407 9.29784 0
M  V30 10350 O 1619 -5.24426 7.09156 0
M  V30 10351 O 1619.54 -2.7935 7.20758 0
M  V30 10352 C 1620.48 -1.72945 7.50224 0
M  V30 10353 C 1619.75 -0.406376 7.57911 0
M  V30 10354 O 1619.54 0.0897726 6.21935 0
M  V30 10355 C 1618.35 -0.438983 8.18724 0
M  V30 10356 O 1617.96 0.825065 8.71101 0
M  V30 10357 C 1617.47 -0.783689 6.99524 0
M  V30 10358 C 1618.18 -0.0619086 5.85867 0
M  V30 10359 N 1618.13 -0.78573 4.56183 0
M  V30 10360 C 1617.98 -0.0292889 3.41887 0
M  V30 10361 O 1617.89 1.18445 3.4419 0
M  V30 10362 N 1617.94 -0.744061 2.23964 0
M  V30 10363 C 1618.03 -2.10932 2.10362 0
M  V30 10364 O 1617.98 -2.64117 0.98825 0
M  V30 10365 C 1618.18 -2.8202 3.34994 0
M  V30 10366 C 1618.29 -4.31095 3.25037 0
M  V30 10367 C 1618.23 -2.15547 4.52261 0
M  V30 10368 H 1620.97 -1.93379 8.46595 0
M  V30 10369 H 1621.24 -1.68132 6.70852 0
M  V30 10370 H 1620.37 0.289041 8.15388 0
M  V30 10371 H 1617.72 0.926847 5.72749 0
M  V30 10372 H 1617.44 -1.86973 6.82036 0
M  V30 10373 H 1616.45 -0.403896 7.13257 0
M  V30 10374 H 1618.28 -1.20585 8.97435 0
M  V30 10375 H 1618.35 -2.71231 5.45042 0
M  V30 10376 H 1617.32 -4.76966 3.49992 0
M  V30 10377 H 1619.06 -4.67047 3.95024 0
M  V30 10378 H 1618.57 -4.58996 2.22312 0
M  V30 10379 H 1617.84 -0.214893 1.39758 0
M  V30 10380 P 1616.41 1.17771 8.83182 0
M  V30 10381 O 1616.19 2.07206 9.98732 0
M  V30 10382 O 1615.62 -0.0743816 8.81969 0
M  V30 10383 O 1616.16 1.97652 7.47304 0
M  V30 10384 C 1617.1 3.01133 7.08783 0
M  V30 10385 C 1616.37 4.12613 6.37049 0
M  V30 10386 O 1616.16 3.72827 4.97879 0
M  V30 10387 C 1614.97 4.45085 6.88694 0
M  V30 10388 O 1614.58 5.7877 6.5624 0
M  V30 10389 C 1614.09 3.47817 6.12078 0
M  V30 10390 C 1614.8 3.39414 4.77697 0
M  V30 10391 N 1614.75 2.04615 4.15333 0
M  V30 10392 H 1617.59 3.41248 7.98759 0
M  V30 10393 H 1617.86 2.5837 6.41742 0
M  V30 10394 H 1616.99 5.02657 6.42673 0
M  V30 10395 P 1613.03 6.144 6.45285 0
M  V30 10396 O 1612.81 7.54673 6.86199 0
M  V30 10397 O 1612.24 5.12391 7.179 0
M  V30 10398 O 1612.78 5.99158 4.88404 0
M  V30 10399 C 1613.72 6.60234 3.96415 0
M  V30 10400 C 1612.99 7.08259 2.72856 0
M  V30 10401 O 1612.78 5.9427 1.83651 0
M  V30 10402 C 1611.59 7.64886 2.9555 0
M  V30 10403 O 1611.2 8.53963 1.90717 0
M  V30 10404 C 1610.71 6.4116 2.90739 0
M  V30 10405 C 1611.42 5.55375 1.86963 0
M  V30 10406 N 1611.37 4.09664 2.15742 0
M  V30 10407 H 1614.21 7.45574 4.45629 0
M  V30 10408 H 1614.48 5.86232 3.67314 0
M  V30 10409 H 1613.61 7.84412 2.24479 0
M  V30 10410 P 1609.65 8.7635 1.60911 0
M  V30 10411 O 1609.43 10.1388 1.11561 0
M  V30 10412 O 1608.86 8.36503 2.79617 0
M  V30 10413 O 1609.4 7.71806 0.42951 0
M  V30 10414 C 1610.34 7.67148 -0.673689 0
M  V30 10415 C 1609.61 7.33374 -1.95559 0
M  V30 10416 O 1609.4 5.88721 -2.00726 0
M  V30 10417 C 1608.21 7.92526 -2.10483 0
M  V30 10418 O 1607.82 8.02971 -3.47653 0
M  V30 10419 C 1607.33 6.89602 -1.41652 0
M  V30 10420 C 1608.04 5.59201 -1.75185 0
M  V30 10421 N 1607.99 4.58235 -0.662552 0
M  V30 10422 H 1610.83 8.65116 -0.777161 0
M  V30 10423 H 1611.1 6.90173 -0.474152 0
M  V30 10424 H 1610.23 7.66548 -2.79458 0
M  V30 10425 P 1606.27 8.03563 -3.84925 0
M  V30 10426 O 1606.05 8.85821 -5.0569 0
M  V30 10427 O 1605.48 8.41101 -2.65469 0
M  V30 10428 O 1606.02 6.4965 -4.18908 0
M  V30 10429 C 1606.96 5.80886 -5.05289 0
M  V30 10430 C 1606.23 4.78366 -5.89277 0
M  V30 10431 O 1606.02 3.58302 -5.08433 0
M  V30 10432 C 1604.83 5.16748 -6.36559 0
M  V30 10433 O 1604.44 4.45271 -7.53232 0
M  V30 10434 C 1603.95 4.74572 -5.19863 0
M  V30 10435 C 1604.66 3.49373 -4.70338 0
M  V30 10436 N 1604.61 3.31704 -3.22876 0
M  V30 10437 C 1604.46 2.03326 -2.74871 0
M  V30 10438 O 1604.37 1.06486 -3.48076 0
M  V30 10439 N 1604.42 1.91838 -1.37456 0
M  V30 10440 C 1604.51 2.94295 -0.462035 0
M  V30 10441 O 1604.46 2.71763 0.752928 0
M  V30 10442 C 1604.66 4.25064 -1.05249 0
M  V30 10443 C 1604.77 5.39815 -0.095697 0
M  V30 10444 C 1604.71 4.40214 -2.39192 0
M  V30 10445 H 1607.45 6.54063 -5.71245 0
M  V30 10446 H 1607.72 5.30339 -4.43905 0
M  V30 10447 H 1606.85 4.55889 -6.76652 0
M  V30 10448 H 1604.2 2.6167 -5.17842 0
M  V30 10449 H 1603.92 5.52155 -4.41878 0
M  V30 10450 H 1602.93 4.51918 -5.53297 0
M  V30 10451 H 1604.76 6.25055 -6.55162 0
M  V30 10452 H 1604.83 5.39798 -2.81523 0
M  V30 10453 H 1603.8 5.91593 -0.0279582 0
M  V30 10454 H 1605.54 6.10038 -0.450573 0
M  V30 10455 H 1605.05 5.02007 0.89937 0
M  V30 10456 H 1604.32 0.995326 -1.00435 0
M  V30 10457 P 1602.89 4.23843 -7.83734 0
M  V30 10458 O 1602.67 4.19407 -9.29784 0
M  V30 10459 O 1602.1 5.24426 -7.09156 0
M  V30 10460 O 1602.64 2.7935 -7.20758 0
M  V30 10461 C 1603.58 1.7299 -7.50419 0
M  V30 10462 C 1602.85 0.406376 -7.57911 0
M  V30 10463 O 1602.64 -0.0897726 -6.21935 0
M  V30 10464 C 1601.45 0.447224 -8.1878 0
M  V30 10465 O 1601.06 -0.825065 -8.71101 0
M  V30 10466 C 1600.57 0.783801 -6.99623 0
M  V30 10467 C 1601.28 0.0619192 -5.85967 0
M  V30 10468 N 1601.23 0.7859 -4.56281 0
M  V30 10469 H 1604.07 1.93423 -8.4679 0
M  V30 10470 H 1604.34 1.68181 -6.71046 0
M  V30 10471 H 1603.47 -0.289041 -8.15388 0
M  V30 10472 P 1599.51 -1.17771 -8.83182 0
M  V30 10473 O 1599.29 -2.07206 -9.98732 0
M  V30 10474 O 1598.72 0.0743816 -8.81969 0
M  V30 10475 O 1599.26 -1.97652 -7.47304 0
M  V30 10476 C 1600.2 -3.01133 -7.08783 0
M  V30 10477 C 1599.47 -4.12613 -6.37049 0
M  V30 10478 O 1599.26 -3.72827 -4.97879 0
M  V30 10479 C 1598.07 -4.45085 -6.88694 0
M  V30 10480 O 1597.68 -5.7877 -6.5624 0
M  V30 10481 C 1597.19 -3.47817 -6.12078 0
M  V30 10482 C 1597.9 -3.39414 -4.77697 0
M  V30 10483 N 1597.85 -2.04615 -4.15333 0
M  V30 10484 C 1597.93 -0.803897 -4.75249 0
M  V30 10485 N 1597.85 0.197615 -3.91502 0
M  V30 10486 C 1597.71 -0.413002 -2.66823 0
M  V30 10487 C 1597.58 0.157221 -1.38007 0
M  V30 10488 O 1597.56 1.34419 -1.057 0
M  V30 10489 N 1597.46 -0.833136 -0.390236 0
M  V30 10490 C 1597.46 -2.19402 -0.623885 0
M  V30 10491 N 1597.33 -2.97622 0.449677 0
M  V30 10492 N 1597.59 -2.73005 -1.83601 0
M  V30 10493 C 1597.71 -1.78786 -2.80935 0
M  V30 10494 H 1600.69 -3.41248 -7.98759 0
M  V30 10495 H 1600.96 -2.5837 -6.41742 0
M  V30 10496 H 1600.09 -5.02657 -6.42673 0
M  V30 10497 H 1597.44 -4.11779 -4.09026 0
M  V30 10498 H 1597.16 -2.49661 -6.61772 0
M  V30 10499 H 1596.17 -3.86674 -6.00946 0
M  V30 10500 H 1598 -4.30038 -7.97094 0
M  V30 10501 H 1598.05 -0.670579 -5.82754 0
M  V30 10502 H 1597.37 -0.528446 0.557287 0
M  V30 10503 H 1597.33 -4.00117 0.344773 0
M  V30 10504 H 1597.23 -2.55448 1.38544 0
M  V30 10505 P 1596.13 -6.144 -6.45285 0
M  V30 10506 O 1595.91 -7.54673 -6.86199 0
M  V30 10507 O 1595.34 -5.12391 -7.179 0
M  V30 10508 O 1595.88 -5.99158 -4.88404 0
M  V30 10509 C 1596.82 -6.60234 -3.96415 0
M  V30 10510 C 1596.09 -7.08259 -2.72856 0
M  V30 10511 O 1595.88 -5.9427 -1.83651 0
M  V30 10512 C 1594.69 -7.64886 -2.9555 0
M  V30 10513 O 1594.3 -8.53963 -1.90717 0
M  V30 10514 C 1593.81 -6.4116 -2.90739 0
M  V30 10515 C 1594.52 -5.55375 -1.86963 0
M  V30 10516 N 1594.47 -4.09664 -2.15742 0
M  V30 10517 H 1597.31 -7.45574 -4.45629 0
M  V30 10518 H 1597.58 -5.86232 -3.67314 0
M  V30 10519 H 1596.71 -7.84412 -2.24479 0
M  V30 10520 P 1592.75 -8.7635 -1.60911 0
M  V30 10521 O 1592.53 -10.1388 -1.11561 0
M  V30 10522 O 1591.96 -8.36503 -2.79617 0
M  V30 10523 O 1592.5 -7.71806 -0.42951 0
M  V30 10524 C 1593.44 -7.67148 0.673689 0
M  V30 10525 C 1592.71 -7.33374 1.95559 0
M  V30 10526 O 1592.5 -5.88721 2.00726 0
M  V30 10527 C 1591.31 -7.92526 2.10483 0
M  V30 10528 O 1590.92 -8.02971 3.47653 0
M  V30 10529 C 1590.43 -6.89602 1.41652 0
M  V30 10530 C 1591.14 -5.59201 1.75185 0
M  V30 10531 N 1591.09 -4.58301 0.657969 0
M  V30 10532 C 1591.17 -4.79019 -0.692603 0
M  V30 10533 N 1591.1 -3.69736 -1.38998 0
M  V30 10534 C 1590.95 -2.70474 -0.438135 0
M  V30 10535 C 1590.82 -1.30327 -0.538142 0
M  V30 10536 N 1590.81 -0.64304 -1.69192 0
M  V30 10537 N 1590.7 -0.611027 0.605183 0
M  V30 10538 C 1590.71 -1.27002 1.75953 0
M  V30 10539 N 1590.83 -2.56038 1.98546 0
M  V30 10540 C 1590.95 -3.22681 0.822541 0
M  V30 10541 H 1593.93 -8.65116 0.777161 0
M  V30 10542 H 1594.2 -6.9022 0.46725 0
M  V30 10543 H 1593.33 -7.66548 2.79458 0
M  V30 10544 H 1590.68 -5.16165 2.65183 0
M  V30 10545 H 1590.4 -7.06433 0.329384 0
M  V30 10546 H 1589.41 -6.90926 1.82021 0
M  V30 10547 H 1591.24 -8.90873 1.62657 0
M  V30 10548 H 1591.28 -5.77785 -1.13874 0
M  V30 10549 H 1590.9 -1.15585 -2.57991 0
M  V30 10550 H 1590.71 0.382989 -1.69835 0
M  V30 10551 H 1590.6 -0.653331 2.64449 0
M  V30 10552 P 1589.37 -8.03563 3.84925 0
M  V30 10553 O 1589.15 -8.85821 5.0569 0
M  V30 10554 O 1588.58 -8.41101 2.65469 0
M  V30 10555 O 1589.12 -6.4965 4.18908 0
M  V30 10556 C 1590.06 -5.81037 5.05421 0
M  V30 10557 C 1589.33 -4.78366 5.89277 0
M  V30 10558 O 1589.12 -3.58302 5.08433 0
M  V30 10559 C 1587.93 -5.17448 6.36119 0
M  V30 10560 O 1587.54 -4.45271 7.53232 0
M  V30 10561 C 1587.05 -4.74639 5.19936 0
M  V30 10562 C 1587.76 -3.49432 4.70418 0
M  V30 10563 N 1587.71 -3.31776 3.22945 0
M  V30 10564 H 1590.55 -6.54213 5.71376 0
M  V30 10565 H 1590.82 -5.30492 4.44033 0
M  V30 10566 H 1589.95 -4.55889 6.76652 0
M  V30 10567 P 1585.99 -4.23843 7.83734 0
M  V30 10568 O 1585.77 -4.19407 9.29784 0
M  V30 10569 O 1585.2 -5.24426 7.09156 0
M  V30 10570 O 1585.74 -2.7935 7.20758 0
M  V30 10571 C 1586.68 -1.7299 7.50419 0
M  V30 10572 C 1585.95 -0.406376 7.57911 0
M  V30 10573 O 1585.74 0.0897726 6.21935 0
M  V30 10574 C 1584.55 -0.447224 8.1878 0
M  V30 10575 O 1584.16 0.825065 8.71101 0
M  V30 10576 C 1583.67 -0.783801 6.99623 0
M  V30 10577 C 1584.38 -0.0619192 5.85967 0
M  V30 10578 N 1584.33 -0.7859 4.56281 0
M  V30 10579 H 1587.17 -1.93423 8.4679 0
M  V30 10580 H 1587.44 -1.68181 6.71046 0
M  V30 10581 H 1586.57 0.289041 8.15388 0
M  V30 10582 P 1582.61 1.17771 8.83182 0
M  V30 10583 O 1582.39 2.07206 9.98732 0
M  V30 10584 O 1581.82 -0.0743816 8.81969 0
M  V30 10585 O 1582.36 1.97652 7.47304 0
M  V30 10586 C 1583.3 3.01133 7.08783 0
M  V30 10587 C 1582.57 4.12613 6.37049 0
M  V30 10588 O 1582.36 3.72827 4.97879 0
M  V30 10589 C 1581.17 4.45085 6.88694 0
M  V30 10590 O 1580.78 5.7877 6.5624 0
M  V30 10591 C 1580.29 3.47817 6.12078 0
M  V30 10592 C 1581 3.39414 4.77697 0
M  V30 10593 N 1580.95 2.04199 4.15538 0
M  V30 10594 H 1583.79 3.41248 7.98759 0
M  V30 10595 H 1584.06 2.57728 6.42 0
M  V30 10596 H 1583.19 5.02657 6.42673 0
M  V30 10597 H 1580.54 4.11708 4.08956 0
M  V30 10598 H 1580.26 2.49626 6.61679 0
M  V30 10599 H 1579.27 3.8662 6.00862 0
M  V30 10600 H 1581.1 4.29991 7.97006 0
M  V30 10601 P 1579.23 6.144 6.45285 0
M  V30 10602 O 1579.01 7.54673 6.86199 0
M  V30 10603 O 1578.44 5.12391 7.179 0
M  V30 10604 O 1578.98 5.99236 4.88467 0
M  V30 10605 C 1579.92 6.60234 3.96415 0
M  V30 10606 C 1579.19 7.08079 2.736 0
M  V30 10607 O 1578.98 5.94365 1.8368 0
M  V30 10608 C 1577.79 7.64886 2.9555 0
M  V30 10609 O 1577.4 8.5406 1.90739 0
M  V30 10610 C 1576.91 6.4116 2.90739 0
M  V30 10611 C 1577.62 5.55375 1.86963 0
M  V30 10612 N 1577.57 4.09664 2.15742 0
M  V30 10613 C 1577.42 3.22231 1.08477 0
M  V30 10614 O 1577.33 3.68951 -0.0600489 0
M  V30 10615 N 1577.37 1.76692 1.48799 0
M  V30 10616 C 1577.47 1.41695 2.57602 0
M  V30 10617 N 1577.42 0.107296 2.75791 0
M  V30 10618 C 1577.62 2.29178 3.69733 0
M  V30 10619 C 1577.67 3.62753 3.42653 0
M  V30 10620 H 1580.41 7.45488 4.45578 0
M  V30 10621 H 1580.68 5.86232 3.67314 0
M  V30 10622 H 1579.81 7.84508 2.24507 0
M  V30 10623 H 1577.16 5.73556 0.888715 0
M  V30 10624 H 1576.88 5.9096 3.88638 0
M  V30 10625 H 1575.89 6.66053 2.58894 0
M  V30 10626 H 1577.72 8.16339 3.92049 0
M  V30 10627 H 1577.79 4.33052 4.24913 0
M  V30 10628 H 1577.69 1.9103 4.71577 0
M  V30 10629 H 1577.3 -0.521221 1.95056 0
M  V30 10630 H 1577.5 -0.286429 3.70695 0
M  V30 10631 P 1575.85 8.7635 1.60911 0
M  V30 10632 O 1575.63 10.1388 1.11561 0
M  V30 10633 O 1575.06 8.36503 2.79617 0
M  V30 10634 O 1575.6 7.71806 0.42951 0
M  V30 10635 C 1576.54 7.67148 -0.673689 0
M  V30 10636 C 1575.81 7.33374 -1.95559 0
M  V30 10637 O 1575.6 5.88721 -2.00726 0
M  V30 10638 C 1574.41 7.92526 -2.10483 0
M  V30 10639 O 1574.02 8.02971 -3.47653 0
M  V30 10640 C 1573.53 6.89602 -1.41652 0
M  V30 10641 C 1574.24 5.59201 -1.75185 0
M  V30 10642 N 1574.19 4.58235 -0.662552 0
M  V30 10643 H 1577.03 8.65116 -0.777161 0
M  V30 10644 H 1577.3 6.90173 -0.474152 0
M  V30 10645 H 1576.43 7.66548 -2.79458 0
M  V30 10646 P 1572.47 8.03563 -3.84925 0
M  V30 10647 O 1572.25 8.85821 -5.0569 0
M  V30 10648 O 1571.68 8.41101 -2.65469 0
M  V30 10649 O 1572.22 6.4965 -4.18908 0
M  V30 10650 C 1573.16 5.81037 -5.05421 0
M  V30 10651 C 1572.43 4.78366 -5.89277 0
M  V30 10652 O 1572.22 3.58302 -5.08433 0
M  V30 10653 C 1571.03 5.17448 -6.36119 0
M  V30 10654 O 1570.64 4.45271 -7.53232 0
M  V30 10655 C 1570.15 4.74639 -5.19936 0
M  V30 10656 C 1570.86 3.49432 -4.70418 0
M  V30 10657 N 1570.81 3.31776 -3.22945 0
M  V30 10658 H 1573.65 6.54213 -5.71376 0
M  V30 10659 H 1573.92 5.30492 -4.44033 0
M  V30 10660 H 1573.05 4.55889 -6.76652 0
M  V30 10661 P 1569.09 4.23843 -7.83734 0
M  V30 10662 O 1568.87 4.19407 -9.29784 0
M  V30 10663 O 1568.3 5.24426 -7.09156 0
M  V30 10664 O 1568.84 2.7935 -7.20758 0
M  V30 10665 C 1569.78 1.72945 -7.50224 0
M  V30 10666 C 1569.05 0.406376 -7.57911 0
M  V30 10667 O 1568.84 -0.0897726 -6.21935 0
M  V30 10668 C 1567.65 0.438983 -8.18724 0
M  V30 10669 O 1567.26 -0.825065 -8.71101 0
M  V30 10670 C 1566.77 0.783689 -6.99524 0
M  V30 10671 C 1567.48 0.0619086 -5.85867 0
M  V30 10672 N 1567.43 0.78573 -4.56183 0
M  V30 10673 C 1567.28 0.0292889 -3.41887 0
M  V30 10674 O 1567.19 -1.18445 -3.4419 0
M  V30 10675 N 1567.24 0.744061 -2.23964 0
M  V30 10676 C 1567.33 2.10932 -2.10362 0
M  V30 10677 C 1567.48 2.8202 -3.34994 0
M  V30 10678 C 1567.53 2.15547 -4.52261 0
M  V30 10679 H 1570.27 1.93379 -8.46595 0
M  V30 10680 H 1570.54 1.68132 -6.70852 0
M  V30 10681 H 1569.67 -0.289041 -8.15388 0
M  V30 10682 H 1567.02 -0.926847 -5.72749 0
M  V30 10683 H 1566.74 1.86973 -6.82036 0
M  V30 10684 H 1565.75 0.403896 -7.13257 0
M  V30 10685 H 1567.58 1.20585 -8.97435 0
M  V30 10686 H 1567.65 2.71231 -5.45042 0
M  V30 10687 P 1565.71 -1.17771 -8.83182 0
M  V30 10688 O 1565.49 -2.07206 -9.98732 0
M  V30 10689 O 1564.92 0.0743816 -8.81969 0
M  V30 10690 O 1565.46 -1.97652 -7.47304 0
M  V30 10691 C 1566.4 -3.01133 -7.08783 0
M  V30 10692 C 1565.67 -4.12613 -6.37049 0
M  V30 10693 O 1565.46 -3.72827 -4.97879 0
M  V30 10694 C 1564.27 -4.45085 -6.88694 0
M  V30 10695 O 1563.88 -5.7877 -6.5624 0
M  V30 10696 C 1563.39 -3.47817 -6.12078 0
M  V30 10697 C 1564.1 -3.39414 -4.77697 0
M  V30 10698 N 1564.05 -2.04615 -4.15333 0
M  V30 10699 H 1566.89 -3.41248 -7.98759 0
M  V30 10700 H 1567.16 -2.5837 -6.41742 0
M  V30 10701 H 1566.29 -5.02657 -6.42673 0
M  V30 10702 P 1562.33 -6.144 -6.45285 0
M  V30 10703 O 1562.11 -7.54673 -6.86199 0
M  V30 10704 O 1561.54 -5.12391 -7.179 0
M  V30 10705 O 1562.08 -5.99158 -4.88404 0
M  V30 10706 C 1563.02 -6.60234 -3.96415 0
M  V30 10707 C 1562.29 -7.08259 -2.72856 0
M  V30 10708 O 1562.08 -5.9427 -1.83651 0
M  V30 10709 C 1560.89 -7.64886 -2.9555 0
M  V30 10710 O 1560.5 -8.53963 -1.90717 0
M  V30 10711 C 1560.01 -6.4116 -2.90739 0
M  V30 10712 C 1560.72 -5.55375 -1.86963 0
M  V30 10713 N 1560.67 -4.09664 -2.15742 0
M  V30 10714 C 1560.75 -3.44381 -3.37233 0
M  V30 10715 N 1560.67 -2.14131 -3.28347 0
M  V30 10716 C 1560.53 -1.90247 -1.91588 0
M  V30 10717 C 1560.4 -0.683992 -1.20892 0
M  V30 10718 O 1560.38 0.46618 -1.64523 0
M  V30 10719 N 1560.28 -0.903396 0.173998 0
M  V30 10720 C 1560.28 -2.14171 0.784879 0
M  V30 10721 N 1560.15 -2.1435 2.11317 0
M  V30 10722 N 1560.41 -3.28784 0.119316 0
M  V30 10723 C 1560.53 -3.0977 -1.22194 0
M  V30 10724 H 1563.51 -7.45574 -4.45629 0
M  V30 10725 H 1563.78 -5.86232 -3.67314 0
M  V30 10726 H 1562.91 -7.84412 -2.24479 0
M  V30 10727 H 1560.26 -5.73556 -0.888715 0
M  V30 10728 H 1559.98 -5.9096 -3.88638 0
M  V30 10729 H 1558.99 -6.66053 -2.58894 0
M  V30 10730 H 1560.82 -8.16429 -3.92093 0
M  V30 10731 H 1560.87 -3.96785 -4.32043 0
M  V30 10732 H 1560.19 -0.0999567 0.761467 0
M  V30 10733 H 1560.15 -3.03436 2.63076 0
M  V30 10734 H 1560.05 -1.25228 2.62233 0
M  V30 10735 P 1558.95 -8.7635 -1.60911 0
M  V30 10736 O 1558.73 -10.1388 -1.11561 0
M  V30 10737 O 1558.16 -8.36503 -2.79617 0
M  V30 10738 O 1558.7 -7.71806 -0.42951 0
M  V30 10739 C 1559.64 -7.67148 0.673689 0
M  V30 10740 C 1558.91 -7.33374 1.95559 0
M  V30 10741 O 1558.7 -5.88721 2.00726 0
M  V30 10742 C 1557.51 -7.92526 2.10483 0
M  V30 10743 O 1557.12 -8.02971 3.47653 0
M  V30 10744 C 1556.63 -6.89602 1.41652 0
M  V30 10745 C 1557.34 -5.59201 1.75185 0
M  V30 10746 N 1557.29 -4.58235 0.662552 0
M  V30 10747 H 1560.13 -8.65116 0.777161 0
M  V30 10748 H 1560.4 -6.90173 0.474152 0
M  V30 10749 H 1559.53 -7.66548 2.79458 0
M  V30 10750 P 1555.57 -8.03563 3.84925 0
M  V30 10751 O 1555.35 -8.85821 5.0569 0
M  V30 10752 O 1554.78 -8.41101 2.65469 0
M  V30 10753 O 1555.32 -6.4965 4.18908 0
M  V30 10754 C 1556.26 -5.81037 5.05421 0
M  V30 10755 C 1555.53 -4.78366 5.89277 0
M  V30 10756 O 1555.32 -3.58302 5.08433 0
M  V30 10757 C 1554.13 -5.17448 6.36119 0
M  V30 10758 O 1553.74 -4.45271 7.53232 0
M  V30 10759 C 1553.25 -4.74639 5.19936 0
M  V30 10760 C 1553.96 -3.49432 4.70418 0
M  V30 10761 N 1553.91 -3.32099 3.22613 0
M  V30 10762 H 1556.75 -6.54213 5.71376 0
M  V30 10763 H 1557.02 -5.30936 4.43503 0
M  V30 10764 H 1556.15 -4.55889 6.76652 0
M  V30 10765 H 1553.5 -2.61715 5.17932 0
M  V30 10766 H 1553.22 -5.52155 4.41878 0
M  V30 10767 H 1552.23 -4.51981 5.53374 0
M  V30 10768 H 1554.06 -6.25124 6.55234 0
M  V30 10769 P 1552.19 -4.23843 7.83734 0
M  V30 10770 O 1551.97 -4.19407 9.29784 0
M  V30 10771 O 1551.4 -5.24426 7.09156 0
M  V30 10772 O 1551.94 -2.7935 7.20758 0
M  V30 10773 C 1552.88 -1.7299 7.50419 0
M  V30 10774 C 1552.15 -0.406376 7.57911 0
M  V30 10775 O 1551.94 0.0897726 6.21935 0
M  V30 10776 C 1550.75 -0.447224 8.1878 0
M  V30 10777 O 1550.36 0.825065 8.71101 0
M  V30 10778 C 1549.87 -0.783801 6.99623 0
M  V30 10779 C 1550.58 -0.0619192 5.85967 0
M  V30 10780 N 1550.53 -0.790462 4.56202 0
M  V30 10781 H 1553.37 -1.93423 8.4679 0
M  V30 10782 H 1553.64 -1.68852 6.70877 0
M  V30 10783 H 1552.77 0.289041 8.15388 0
M  V30 10784 H 1550.12 0.927006 5.72848 0
M  V30 10785 H 1549.84 -1.86973 6.82036 0
M  V30 10786 H 1548.85 -0.403953 7.13357 0
M  V30 10787 H 1550.68 -1.20599 8.97534 0
M  V30 10788 P 1548.81 1.17771 8.83182 0
M  V30 10789 O 1548.59 2.07206 9.98732 0
M  V30 10790 O 1548.02 -0.0743816 8.81969 0
M  V30 10791 O 1548.56 1.97652 7.47304 0
M  V30 10792 C 1549.5 3.01133 7.08783 0
M  V30 10793 C 1548.77 4.12613 6.37049 0
M  V30 10794 O 1548.56 3.72827 4.97879 0
M  V30 10795 C 1547.37 4.45085 6.88694 0
M  V30 10796 O 1546.98 5.7877 6.5624 0
M  V30 10797 C 1546.49 3.47817 6.12078 0
M  V30 10798 C 1547.2 3.39414 4.77697 0
M  V30 10799 N 1547.15 2.04199 4.15538 0
M  V30 10800 H 1549.99 3.41248 7.98759 0
M  V30 10801 H 1550.26 2.57728 6.42 0
M  V30 10802 H 1549.39 5.02657 6.42673 0
M  V30 10803 H 1546.74 4.11708 4.08956 0
M  V30 10804 H 1546.46 2.49626 6.61679 0
M  V30 10805 H 1545.47 3.8662 6.00862 0
M  V30 10806 H 1547.3 4.29991 7.97006 0
M  V30 10807 P 1545.43 6.144 6.45285 0
M  V30 10808 O 1545.21 7.54673 6.86199 0
M  V30 10809 O 1544.64 5.12391 7.179 0
M  V30 10810 O 1545.18 5.99158 4.88404 0
M  V30 10811 C 1546.12 6.60234 3.96415 0
M  V30 10812 C 1545.39 7.08259 2.72856 0
M  V30 10813 O 1545.18 5.9427 1.83651 0
M  V30 10814 C 1543.99 7.64886 2.9555 0
M  V30 10815 O 1543.6 8.53963 1.90717 0
M  V30 10816 C 1543.11 6.4116 2.90739 0
M  V30 10817 C 1543.82 5.55375 1.86963 0
M  V30 10818 N 1543.77 4.09664 2.15742 0
M  V30 10819 H 1546.61 7.45574 4.45629 0
M  V30 10820 H 1546.88 5.86232 3.67314 0
M  V30 10821 H 1546.01 7.84412 2.24479 0
M  V30 10822 P 1542.05 8.7635 1.60911 0
M  V30 10823 O 1541.83 10.1388 1.11561 0
M  V30 10824 O 1541.26 8.36503 2.79617 0
M  V30 10825 O 1541.8 7.71806 0.42951 0
M  V30 10826 C 1542.74 7.66948 -0.673514 0
M  V30 10827 C 1542.01 7.33374 -1.95559 0
M  V30 10828 O 1541.8 5.88721 -2.00726 0
M  V30 10829 C 1540.61 7.92218 -2.1125 0
M  V30 10830 O 1540.22 8.02971 -3.47653 0
M  V30 10831 C 1539.73 6.89504 -1.41631 0
M  V30 10832 C 1540.44 5.59106 -1.75155 0
M  V30 10833 N 1540.39 4.58136 -0.662409 0
M  V30 10834 C 1540.24 3.26059 -1.02863 0
M  V30 10835 O 1540.15 2.90743 -2.19009 0
M  V30 10836 N 1540.2 2.35995 0.0155585 0
M  V30 10837 C 1540.29 2.65248 1.35603 0
M  V30 10838 C 1540.44 4.05747 1.64698 0
M  V30 10839 C 1540.49 4.96734 0.652411 0
M  V30 10840 H 1543.23 8.64917 -0.776982 0
M  V30 10841 H 1543.5 6.89974 -0.474015 0
M  V30 10842 H 1542.63 7.66548 -2.79458 0
M  V30 10843 H 1539.98 5.16076 -2.65138 0
M  V30 10844 H 1539.7 7.06433 -0.329384 0
M  V30 10845 H 1538.71 6.90829 -1.81996 0
M  V30 10846 H 1540.54 8.90774 -1.62639 0
M  V30 10847 H 1540.61 6.02181 0.895285 0
M  V30 10848 P 1538.67 8.03563 -3.84925 0
M  V30 10849 O 1538.45 8.85821 -5.0569 0
M  V30 10850 O 1537.88 8.41101 -2.65469 0
M  V30 10851 O 1538.42 6.4965 -4.18908 0
M  V30 10852 C 1539.36 5.81037 -5.05421 0
M  V30 10853 C 1538.63 4.78366 -5.89277 0
M  V30 10854 O 1538.42 3.58302 -5.08433 0
M  V30 10855 C 1537.23 5.17448 -6.36119 0
M  V30 10856 O 1536.84 4.45271 -7.53232 0
M  V30 10857 C 1536.35 4.74639 -5.19936 0
M  V30 10858 C 1537.06 3.49432 -4.70418 0
M  V30 10859 N 1537.01 3.31776 -3.22945 0
M  V30 10860 H 1539.85 6.54213 -5.71376 0
M  V30 10861 H 1540.12 5.30492 -4.44033 0
M  V30 10862 H 1539.25 4.55889 -6.76652 0
M  V30 10863 P 1535.29 4.23843 -7.83734 0
M  V30 10864 O 1535.07 4.19407 -9.29784 0
M  V30 10865 O 1534.5 5.24426 -7.09156 0
M  V30 10866 O 1535.04 2.7935 -7.20758 0
M  V30 10867 C 1535.98 1.7299 -7.50419 0
M  V30 10868 C 1535.25 0.406376 -7.57911 0
M  V30 10869 O 1535.04 -0.0897726 -6.21935 0
M  V30 10870 C 1533.85 0.447224 -8.1878 0
M  V30 10871 O 1533.46 -0.825065 -8.71101 0
M  V30 10872 C 1532.97 0.783801 -6.99623 0
M  V30 10873 C 1533.68 0.0619192 -5.85967 0
M  V30 10874 N 1533.63 0.7859 -4.56281 0
M  V30 10875 H 1536.47 1.93423 -8.4679 0
M  V30 10876 H 1536.74 1.68181 -6.71046 0
M  V30 10877 H 1535.87 -0.289041 -8.15388 0
M  V30 10878 P 1531.91 -1.17771 -8.83182 0
M  V30 10879 O 1531.69 -2.07206 -9.98732 0
M  V30 10880 O 1531.12 0.0743816 -8.81969 0
M  V30 10881 O 1531.66 -1.97652 -7.47304 0
M  V30 10882 C 1532.6 -3.01133 -7.08783 0
M  V30 10883 C 1531.87 -4.12613 -6.37049 0
M  V30 10884 O 1531.66 -3.72827 -4.97879 0
M  V30 10885 C 1530.47 -4.45085 -6.88694 0
M  V30 10886 O 1530.08 -5.7877 -6.5624 0
M  V30 10887 C 1529.59 -3.47817 -6.12078 0
M  V30 10888 C 1530.3 -3.39414 -4.77697 0
M  V30 10889 N 1530.25 -2.04615 -4.15333 0
M  V30 10890 H 1533.09 -3.41248 -7.98759 0
M  V30 10891 H 1533.36 -2.5837 -6.41742 0
M  V30 10892 H 1532.49 -5.02657 -6.42673 0
M  V30 10893 P 1528.53 -6.144 -6.45285 0
M  V30 10894 O 1528.31 -7.54673 -6.86199 0
M  V30 10895 O 1527.74 -5.12391 -7.179 0
M  V30 10896 O 1528.28 -5.99158 -4.88404 0
M  V30 10897 C 1529.22 -6.60234 -3.96415 0
M  V30 10898 C 1528.49 -7.08259 -2.72856 0
M  V30 10899 O 1528.28 -5.9427 -1.83651 0
M  V30 10900 C 1527.09 -7.64886 -2.9555 0
M  V30 10901 O 1526.7 -8.53963 -1.90717 0
M  V30 10902 C 1526.21 -6.4116 -2.90739 0
M  V30 10903 C 1526.92 -5.55375 -1.86963 0
M  V30 10904 N 1526.87 -4.09448 -2.16152 0
M  V30 10905 H 1529.71 -7.45574 -4.45629 0
M  V30 10906 H 1529.98 -5.85864 -3.679 0
M  V30 10907 H 1529.11 -7.84412 -2.24479 0
M  V30 10908 H 1526.46 -5.73457 -0.888562 0
M  V30 10909 H 1526.18 -5.90877 -3.88583 0
M  V30 10910 H 1525.19 -6.6596 -2.58858 0
M  V30 10911 H 1527.02 -8.16339 -3.92049 0
M  V30 10912 P 1525.15 -8.7635 -1.60911 0
M  V30 10913 O 1524.93 -10.1388 -1.11561 0
M  V30 10914 O 1524.36 -8.36503 -2.79617 0
M  V30 10915 O 1524.9 -7.71806 -0.42951 0
M  V30 10916 C 1525.84 -7.67148 0.673689 0
M  V30 10917 C 1525.11 -7.33374 1.95559 0
M  V30 10918 O 1524.9 -5.88721 2.00726 0
M  V30 10919 C 1523.71 -7.92526 2.10483 0
M  V30 10920 O 1523.32 -8.02971 3.47653 0
M  V30 10921 C 1522.83 -6.89602 1.41652 0
M  V30 10922 C 1523.54 -5.59201 1.75185 0
M  V30 10923 N 1523.49 -4.58235 0.662552 0
M  V30 10924 H 1526.33 -8.65116 0.777161 0
M  V30 10925 H 1526.6 -6.90173 0.474152 0
M  V30 10926 H 1525.73 -7.66548 2.79458 0
M  V30 10927 P 1521.77 -8.03563 3.84925 0
M  V30 10928 O 1521.55 -8.85821 5.0569 0
M  V30 10929 O 1520.98 -8.41101 2.65469 0
M  V30 10930 O 1521.52 -6.4965 4.18908 0
M  V30 10931 C 1522.46 -5.80886 5.05289 0
M  V30 10932 C 1521.73 -4.78366 5.89277 0
M  V30 10933 O 1521.52 -3.58302 5.08433 0
M  V30 10934 C 1520.33 -5.16748 6.36559 0
M  V30 10935 O 1519.94 -4.45271 7.53232 0
M  V30 10936 C 1519.45 -4.74572 5.19863 0
M  V30 10937 C 1520.16 -3.49373 4.70338 0
M  V30 10938 N 1520.11 -3.31704 3.22876 0
M  V30 10939 C 1519.96 -2.03326 2.74871 0
M  V30 10940 O 1519.87 -1.06486 3.48076 0
M  V30 10941 N 1519.92 -1.91838 1.37456 0
M  V30 10942 C 1520.01 -2.94295 0.462035 0
M  V30 10943 C 1520.16 -4.25064 1.05249 0
M  V30 10944 C 1520.21 -4.40214 2.39192 0
M  V30 10945 H 1522.95 -6.54063 5.71245 0
M  V30 10946 H 1523.22 -5.30339 4.43905 0
M  V30 10947 H 1522.35 -4.55889 6.76652 0
M  V30 10948 H 1519.7 -2.6167 5.17842 0
M  V30 10949 H 1519.42 -5.52155 4.41878 0
M  V30 10950 H 1518.43 -4.51918 5.53297 0
M  V30 10951 H 1520.26 -6.25055 6.55162 0
M  V30 10952 H 1520.33 -5.39798 2.81523 0
M  V30 10953 P 1518.39 -4.23843 7.83734 0
M  V30 10954 O 1518.17 -4.19407 9.29784 0
M  V30 10955 O 1517.6 -5.24426 7.09156 0
M  V30 10956 O 1518.14 -2.7935 7.20758 0
M  V30 10957 C 1519.08 -1.7299 7.50419 0
M  V30 10958 C 1518.35 -0.406376 7.57911 0
M  V30 10959 O 1518.14 0.0897726 6.21935 0
M  V30 10960 C 1516.95 -0.447224 8.1878 0
M  V30 10961 O 1516.56 0.825065 8.71101 0
M  V30 10962 C 1516.07 -0.783801 6.99623 0
M  V30 10963 C 1516.78 -0.0619192 5.85967 0
M  V30 10964 N 1516.73 -0.7859 4.56281 0
M  V30 10965 H 1519.57 -1.93423 8.4679 0
M  V30 10966 H 1519.84 -1.68181 6.71046 0
M  V30 10967 H 1518.97 0.289041 8.15388 0
M  V30 10968 P 1515.01 1.17771 8.83182 0
M  V30 10969 O 1514.79 2.07206 9.98732 0
M  V30 10970 O 1514.22 -0.0743816 8.81969 0
M  V30 10971 O 1514.76 1.97652 7.47304 0
M  V30 10972 C 1515.7 3.01133 7.08783 0
M  V30 10973 C 1514.97 4.12613 6.37049 0
M  V30 10974 O 1514.76 3.72827 4.97879 0
M  V30 10975 C 1513.57 4.45085 6.88694 0
M  V30 10976 O 1513.18 5.7877 6.5624 0
M  V30 10977 C 1512.69 3.47817 6.12078 0
M  V30 10978 C 1513.4 3.39414 4.77697 0
M  V30 10979 N 1513.35 2.04199 4.15538 0
M  V30 10980 H 1516.19 3.41248 7.98759 0
M  V30 10981 H 1516.46 2.57728 6.42 0
M  V30 10982 H 1515.59 5.02657 6.42673 0
M  V30 10983 H 1512.94 4.11708 4.08956 0
M  V30 10984 H 1512.66 2.49626 6.61679 0
M  V30 10985 H 1511.67 3.8662 6.00862 0
M  V30 10986 H 1513.5 4.29991 7.97006 0
M  V30 10987 P 1511.63 6.144 6.45285 0
M  V30 10988 O 1511.41 7.54673 6.86199 0
M  V30 10989 O 1510.84 5.12391 7.179 0
M  V30 10990 O 1511.38 5.99158 4.88404 0
M  V30 10991 C 1512.32 6.60234 3.96415 0
M  V30 10992 C 1511.59 7.08259 2.72856 0
M  V30 10993 O 1511.38 5.9427 1.83651 0
M  V30 10994 C 1510.19 7.64886 2.9555 0
M  V30 10995 O 1509.8 8.53963 1.90717 0
M  V30 10996 C 1509.31 6.4116 2.90739 0
M  V30 10997 C 1510.02 5.55375 1.86963 0
M  V30 10998 N 1509.97 4.09448 2.16152 0
M  V30 10999 H 1512.81 7.45574 4.45629 0
M  V30 11000 H 1513.08 5.85864 3.679 0
M  V30 11001 H 1512.21 7.84412 2.24479 0
M  V30 11002 H 1509.56 5.73457 0.888562 0
M  V30 11003 H 1509.28 5.90877 3.88583 0
M  V30 11004 H 1508.29 6.6596 2.58858 0
M  V30 11005 H 1510.12 8.16339 3.92049 0
M  V30 11006 P 1508.25 8.7635 1.60911 0
M  V30 11007 O 1508.03 10.1388 1.11561 0
M  V30 11008 O 1507.46 8.36503 2.79617 0
M  V30 11009 O 1508 7.71806 0.42951 0
M  V30 11010 C 1508.94 7.67148 -0.673689 0
M  V30 11011 C 1508.21 7.33374 -1.95559 0
M  V30 11012 O 1508 5.88721 -2.00726 0
M  V30 11013 C 1506.81 7.92526 -2.10483 0
M  V30 11014 O 1506.42 8.02971 -3.47653 0
M  V30 11015 C 1505.93 6.89602 -1.41652 0
M  V30 11016 C 1506.64 5.59201 -1.75185 0
M  V30 11017 N 1506.59 4.58235 -0.662552 0
M  V30 11018 H 1509.43 8.65116 -0.777161 0
M  V30 11019 H 1509.7 6.90173 -0.474152 0
M  V30 11020 H 1508.83 7.66548 -2.79458 0
M  V30 11021 P 1504.87 8.03563 -3.84925 0
M  V30 11022 O 1504.65 8.85821 -5.0569 0
M  V30 11023 O 1504.08 8.41101 -2.65469 0
M  V30 11024 O 1504.62 6.4965 -4.18908 0
M  V30 11025 C 1505.56 5.81037 -5.05421 0
M  V30 11026 C 1504.83 4.78366 -5.89277 0
M  V30 11027 O 1504.62 3.58302 -5.08433 0
M  V30 11028 C 1503.43 5.17448 -6.36119 0
M  V30 11029 O 1503.04 4.45271 -7.53232 0
M  V30 11030 C 1502.55 4.74639 -5.19936 0
M  V30 11031 C 1503.26 3.49432 -4.70418 0
M  V30 11032 N 1503.21 3.31776 -3.22945 0
M  V30 11033 C 1503.29 4.27147 -2.23315 0
M  V30 11034 N 1503.21 3.78447 -1.02186 0
M  V30 11035 C 1503.07 2.41001 -1.21732 0
M  V30 11036 C 1502.94 1.36111 -0.27694 0
M  V30 11037 O 1502.92 1.42065 0.951767 0
M  V30 11038 N 1502.82 0.113683 -0.912949 0
M  V30 11039 C 1502.82 -0.0846396 -2.27943 0
M  V30 11040 N 1502.69 -1.34737 -2.6916 0
M  V30 11041 N 1502.95 0.902521 -3.16379 0
M  V30 11042 C 1503.07 2.11937 -2.56849 0
M  V30 11043 H 1506.05 6.54213 -5.71376 0
M  V30 11044 H 1506.32 5.30492 -4.44033 0
M  V30 11045 H 1505.45 4.55889 -6.76652 0
M  V30 11046 H 1502.8 2.6176 -5.18021 0
M  V30 11047 H 1502.52 5.52233 -4.41941 0
M  V30 11048 H 1501.53 4.52045 -5.53452 0
M  V30 11049 H 1503.36 6.25193 -6.55307 0
M  V30 11050 H 1503.41 5.3351 -2.43857 0
M  V30 11051 H 1502.73 -0.69331 -0.330371 0
M  V30 11052 H 1502.69 -1.56433 -3.6988 0
M  V30 11053 H 1502.59 -2.10701 -2.00133 0
M  V30 11054 P 1501.49 4.23843 -7.83734 0
M  V30 11055 O 1501.27 4.19407 -9.29784 0
M  V30 11056 O 1500.7 5.24426 -7.09156 0
M  V30 11057 O 1501.24 2.7935 -7.20758 0
M  V30 11058 C 1502.18 1.7299 -7.50419 0
M  V30 11059 C 1501.45 0.406376 -7.57911 0
M  V30 11060 O 1501.24 -0.0897726 -6.21935 0
M  V30 11061 C 1500.05 0.447224 -8.1878 0
M  V30 11062 O 1499.66 -0.825065 -8.71101 0
M  V30 11063 C 1499.17 0.783801 -6.99623 0
M  V30 11064 C 1499.88 0.0619192 -5.85967 0
M  V30 11065 N 1499.83 0.7859 -4.56281 0
M  V30 11066 H 1502.67 1.93423 -8.4679 0
M  V30 11067 H 1502.94 1.68181 -6.71046 0
M  V30 11068 H 1502.07 -0.289041 -8.15388 0
M  V30 11069 P 1498.11 -1.17771 -8.83182 0
M  V30 11070 O 1497.89 -2.07206 -9.98732 0
M  V30 11071 O 1497.32 0.0743816 -8.81969 0
M  V30 11072 O 1497.86 -1.97652 -7.47304 0
M  V30 11073 C 1498.8 -3.01133 -7.08783 0
M  V30 11074 C 1498.07 -4.12613 -6.37049 0
M  V30 11075 O 1497.86 -3.72827 -4.97879 0
M  V30 11076 C 1496.67 -4.45085 -6.88694 0
M  V30 11077 O 1496.28 -5.7877 -6.5624 0
M  V30 11078 C 1495.79 -3.47817 -6.12078 0
M  V30 11079 C 1496.5 -3.39414 -4.77697 0
M  V30 11080 N 1496.45 -2.04615 -4.15333 0
M  V30 11081 H 1499.29 -3.41248 -7.98759 0
M  V30 11082 H 1499.56 -2.5837 -6.41742 0
M  V30 11083 H 1498.69 -5.02657 -6.42673 0
M  V30 11084 P 1494.73 -6.144 -6.45285 0
M  V30 11085 O 1494.51 -7.54673 -6.86199 0
M  V30 11086 O 1493.94 -5.12391 -7.179 0
M  V30 11087 O 1494.48 -5.99158 -4.88404 0
M  V30 11088 C 1495.42 -6.60234 -3.96415 0
M  V30 11089 C 1494.69 -7.08259 -2.72856 0
M  V30 11090 O 1494.48 -5.9427 -1.83651 0
M  V30 11091 C 1493.29 -7.64886 -2.9555 0
M  V30 11092 O 1492.9 -8.53963 -1.90717 0
M  V30 11093 C 1492.41 -6.4116 -2.90739 0
M  V30 11094 C 1493.12 -5.55375 -1.86963 0
M  V30 11095 N 1493.07 -4.09664 -2.15742 0
M  V30 11096 H 1495.91 -7.45574 -4.45629 0
M  V30 11097 H 1496.18 -5.86232 -3.67314 0
M  V30 11098 H 1495.31 -7.84412 -2.24479 0
M  V30 11099 P 1491.35 -8.7635 -1.60911 0
M  V30 11100 O 1491.13 -10.1388 -1.11561 0
M  V30 11101 O 1490.56 -8.36503 -2.79617 0
M  V30 11102 O 1491.1 -7.71806 -0.42951 0
M  V30 11103 C 1492.04 -7.66948 0.673514 0
M  V30 11104 C 1491.31 -7.33374 1.95559 0
M  V30 11105 O 1491.1 -5.88721 2.00726 0
M  V30 11106 C 1489.91 -7.92218 2.1125 0
M  V30 11107 O 1489.52 -8.02971 3.47653 0
M  V30 11108 C 1489.03 -6.89504 1.41631 0
M  V30 11109 C 1489.74 -5.59106 1.75155 0
M  V30 11110 N 1489.69 -4.58136 0.662409 0
M  V30 11111 C 1489.54 -3.26059 1.02863 0
M  V30 11112 O 1489.45 -2.90743 2.19009 0
M  V30 11113 N 1489.5 -2.35995 -0.0155585 0
M  V30 11114 C 1489.59 -2.65248 -1.35603 0
M  V30 11115 C 1489.74 -4.05747 -1.64698 0
M  V30 11116 C 1489.79 -4.96734 -0.652411 0
M  V30 11117 H 1492.53 -8.64917 0.776982 0
M  V30 11118 H 1492.8 -6.89974 0.474015 0
M  V30 11119 H 1491.93 -7.66548 2.79458 0
M  V30 11120 H 1489.28 -5.16076 2.65138 0
M  V30 11121 H 1489 -7.06433 0.329384 0
M  V30 11122 H 1488.01 -6.90829 1.81996 0
M  V30 11123 H 1489.84 -8.90774 1.62639 0
M  V30 11124 H 1489.91 -6.02181 -0.895285 0
M  V30 11125 P 1487.97 -8.03563 3.84925 0
M  V30 11126 O 1487.75 -8.85821 5.0569 0
M  V30 11127 O 1487.18 -8.41101 2.65469 0
M  V30 11128 O 1487.72 -6.4965 4.18908 0
M  V30 11129 C 1488.66 -5.81037 5.05421 0
M  V30 11130 C 1487.93 -4.78366 5.89277 0
M  V30 11131 O 1487.72 -3.58302 5.08433 0
M  V30 11132 C 1486.53 -5.17448 6.36119 0
M  V30 11133 O 1486.14 -4.45271 7.53232 0
M  V30 11134 C 1485.65 -4.74639 5.19936 0
M  V30 11135 C 1486.36 -3.49432 4.70418 0
M  V30 11136 N 1486.31 -3.31776 3.22945 0
M  V30 11137 H 1489.15 -6.54213 5.71376 0
M  V30 11138 H 1489.42 -5.30492 4.44033 0
M  V30 11139 H 1488.55 -4.55889 6.76652 0
M  V30 11140 P 1484.59 -4.23843 7.83734 0
M  V30 11141 O 1484.37 -4.19407 9.29784 0
M  V30 11142 O 1483.8 -5.24426 7.09156 0
M  V30 11143 O 1484.34 -2.7935 7.20758 0
M  V30 11144 C 1485.28 -1.7299 7.50419 0
M  V30 11145 C 1484.55 -0.406376 7.57911 0
M  V30 11146 O 1484.34 0.0897726 6.21935 0
M  V30 11147 C 1483.15 -0.447224 8.1878 0
M  V30 11148 O 1482.76 0.825065 8.71101 0
M  V30 11149 C 1482.27 -0.783801 6.99623 0
M  V30 11150 C 1482.98 -0.0619192 5.85967 0
M  V30 11151 N 1482.93 -0.790462 4.56202 0
M  V30 11152 H 1485.77 -1.93423 8.4679 0
M  V30 11153 H 1486.04 -1.68852 6.70877 0
M  V30 11154 H 1485.17 0.289041 8.15388 0
M  V30 11155 H 1482.52 0.927006 5.72848 0
M  V30 11156 H 1482.24 -1.86973 6.82036 0
M  V30 11157 H 1481.25 -0.403953 7.13357 0
M  V30 11158 H 1483.08 -1.20599 8.97534 0
M  V30 11159 P 1481.21 1.17771 8.83182 0
M  V30 11160 O 1480.99 2.07206 9.98732 0
M  V30 11161 O 1480.42 -0.0743816 8.81969 0
M  V30 11162 O 1480.96 1.97652 7.47304 0
M  V30 11163 C 1481.9 3.01133 7.08783 0
M  V30 11164 C 1481.17 4.12613 6.37049 0
M  V30 11165 O 1480.96 3.72827 4.97879 0
M  V30 11166 C 1479.77 4.45085 6.88694 0
M  V30 11167 O 1479.38 5.7877 6.5624 0
M  V30 11168 C 1478.89 3.47817 6.12078 0
M  V30 11169 C 1479.6 3.39414 4.77697 0
M  V30 11170 N 1479.55 2.04615 4.15333 0
M  V30 11171 H 1482.39 3.41248 7.98759 0
M  V30 11172 H 1482.66 2.5837 6.41742 0
M  V30 11173 H 1481.79 5.02657 6.42673 0
M  V30 11174 P 1477.83 6.144 6.45285 0
M  V30 11175 O 1477.61 7.54673 6.86199 0
M  V30 11176 O 1477.04 5.12391 7.179 0
M  V30 11177 O 1477.58 5.99158 4.88404 0
M  V30 11178 C 1478.52 6.60234 3.96415 0
M  V30 11179 C 1477.79 7.08259 2.72856 0
M  V30 11180 O 1477.58 5.9427 1.83651 0
M  V30 11181 C 1476.39 7.64886 2.9555 0
M  V30 11182 O 1476 8.53963 1.90717 0
M  V30 11183 C 1475.51 6.4116 2.90739 0
M  V30 11184 C 1476.22 5.55375 1.86963 0
M  V30 11185 N 1476.17 4.09664 2.15742 0
M  V30 11186 C 1476.25 3.44381 3.37233 0
M  V30 11187 N 1476.17 2.14131 3.28347 0
M  V30 11188 C 1476.03 1.90247 1.91588 0
M  V30 11189 C 1475.9 0.683992 1.20892 0
M  V30 11190 N 1475.78 0.903396 -0.173998 0
M  V30 11191 C 1475.78 2.14171 -0.784879 0
M  V30 11192 N 1475.65 2.1435 -2.11317 0
M  V30 11193 N 1475.91 3.28784 -0.119316 0
M  V30 11194 C 1476.03 3.0977 1.22194 0
M  V30 11195 H 1479.01 7.45574 4.45629 0
M  V30 11196 H 1479.28 5.86232 3.67314 0
M  V30 11197 H 1478.41 7.84412 2.24479 0
M  V30 11198 P 1474.45 8.7635 1.60911 0
M  V30 11199 O 1474.23 10.1388 1.11561 0
M  V30 11200 O 1473.66 8.36503 2.79617 0
M  V30 11201 O 1474.2 7.71806 0.42951 0
M  V30 11202 C 1475.14 7.67148 -0.673689 0
M  V30 11203 C 1474.41 7.33374 -1.95559 0
M  V30 11204 O 1474.2 5.88721 -2.00726 0
M  V30 11205 C 1473.01 7.92526 -2.10483 0
M  V30 11206 O 1472.62 8.02971 -3.47653 0
M  V30 11207 C 1472.13 6.89602 -1.41652 0
M  V30 11208 C 1472.84 5.59201 -1.75185 0
M  V30 11209 N 1472.79 4.58301 -0.657969 0
M  V30 11210 H 1475.63 8.65116 -0.777161 0
M  V30 11211 H 1475.9 6.9022 -0.46725 0
M  V30 11212 H 1475.03 7.66548 -2.79458 0
M  V30 11213 H 1472.38 5.16165 -2.65183 0
M  V30 11214 H 1472.1 7.06433 -0.329384 0
M  V30 11215 H 1471.11 6.90926 -1.82021 0
M  V30 11216 H 1472.94 8.90873 -1.62657 0
M  V30 11217 P 1471.07 8.03563 -3.84925 0
M  V30 11218 O 1470.85 8.85821 -5.0569 0
M  V30 11219 O 1470.28 8.41101 -2.65469 0
M  V30 11220 O 1470.82 6.4965 -4.18908 0
M  V30 11221 C 1471.76 5.81037 -5.05421 0
M  V30 11222 C 1471.03 4.78366 -5.89277 0
M  V30 11223 O 1470.82 3.58302 -5.08433 0
M  V30 11224 C 1469.63 5.17448 -6.36119 0
M  V30 11225 O 1469.24 4.45271 -7.53232 0
M  V30 11226 C 1468.75 4.74639 -5.19936 0
M  V30 11227 C 1469.46 3.49432 -4.70418 0
M  V30 11228 N 1469.41 3.31776 -3.22945 0
M  V30 11229 H 1472.25 6.54213 -5.71376 0
M  V30 11230 H 1472.52 5.30492 -4.44033 0
M  V30 11231 H 1471.65 4.55889 -6.76652 0
M  V30 11232 P 1467.69 4.23843 -7.83734 0
M  V30 11233 O 1467.47 4.19407 -9.29784 0
M  V30 11234 O 1466.9 5.24426 -7.09156 0
M  V30 11235 O 1467.44 2.7935 -7.20758 0
M  V30 11236 C 1468.38 1.7299 -7.50419 0
M  V30 11237 C 1467.65 0.406376 -7.57911 0
M  V30 11238 O 1467.44 -0.0897726 -6.21935 0
M  V30 11239 C 1466.25 0.447224 -8.1878 0
M  V30 11240 O 1465.86 -0.825065 -8.71101 0
M  V30 11241 C 1465.37 0.783801 -6.99623 0
M  V30 11242 C 1466.08 0.0619192 -5.85967 0
M  V30 11243 N 1466.03 0.790462 -4.56202 0
M  V30 11244 H 1468.87 1.93423 -8.4679 0
M  V30 11245 H 1469.14 1.68852 -6.70877 0
M  V30 11246 H 1468.27 -0.289041 -8.15388 0
M  V30 11247 H 1465.62 -0.927006 -5.72848 0
M  V30 11248 H 1465.34 1.86973 -6.82036 0
M  V30 11249 H 1464.35 0.403953 -7.13357 0
M  V30 11250 H 1466.18 1.20599 -8.97534 0
M  V30 11251 P 1464.31 -1.17771 -8.83182 0
M  V30 11252 O 1464.09 -2.07206 -9.98732 0
M  V30 11253 O 1463.52 0.0743816 -8.81969 0
M  V30 11254 O 1464.06 -1.97652 -7.47304 0
M  V30 11255 C 1465 -3.01133 -7.08783 0
M  V30 11256 C 1464.27 -4.12613 -6.37049 0
M  V30 11257 O 1464.06 -3.72827 -4.97879 0
M  V30 11258 C 1462.87 -4.45085 -6.88694 0
M  V30 11259 O 1462.48 -5.7877 -6.5624 0
M  V30 11260 C 1461.99 -3.47817 -6.12078 0
M  V30 11261 C 1462.7 -3.39414 -4.77697 0
M  V30 11262 N 1462.65 -2.04199 -4.15538 0
M  V30 11263 H 1465.49 -3.41248 -7.98759 0
M  V30 11264 H 1465.76 -2.57728 -6.42 0
M  V30 11265 H 1464.89 -5.02657 -6.42673 0
M  V30 11266 H 1462.24 -4.11708 -4.08956 0
M  V30 11267 H 1461.96 -2.49626 -6.61679 0
M  V30 11268 H 1460.97 -3.8662 -6.00862 0
M  V30 11269 H 1462.8 -4.29991 -7.97006 0
M  V30 11270 P 1460.93 -6.144 -6.45285 0
M  V30 11271 O 1460.71 -7.54673 -6.86199 0
M  V30 11272 O 1460.14 -5.12391 -7.179 0
M  V30 11273 O 1460.68 -5.99158 -4.88404 0
M  V30 11274 C 1461.62 -6.60234 -3.96415 0
M  V30 11275 C 1460.89 -7.08259 -2.72856 0
M  V30 11276 O 1460.68 -5.9427 -1.83651 0
M  V30 11277 C 1459.49 -7.64886 -2.9555 0
M  V30 11278 O 1459.1 -8.53963 -1.90717 0
M  V30 11279 C 1458.61 -6.4116 -2.90739 0
M  V30 11280 C 1459.32 -5.55375 -1.86963 0
M  V30 11281 N 1459.27 -4.09664 -2.15742 0
M  V30 11282 H 1462.11 -7.45574 -4.45629 0
M  V30 11283 H 1462.38 -5.86232 -3.67314 0
M  V30 11284 H 1461.51 -7.84412 -2.24479 0
M  V30 11285 P 1457.55 -8.7635 -1.60911 0
M  V30 11286 O 1457.33 -10.1388 -1.11561 0
M  V30 11287 O 1456.76 -8.36503 -2.79617 0
M  V30 11288 O 1457.3 -7.71806 -0.42951 0
M  V30 11289 C 1458.24 -7.67148 0.673689 0
M  V30 11290 C 1457.51 -7.33374 1.95559 0
M  V30 11291 O 1457.3 -5.88721 2.00726 0
M  V30 11292 C 1456.11 -7.92526 2.10483 0
M  V30 11293 O 1455.72 -8.02971 3.47653 0
M  V30 11294 C 1455.23 -6.89602 1.41652 0
M  V30 11295 C 1455.94 -5.59201 1.75185 0
M  V30 11296 N 1455.89 -4.58235 0.662552 0
M  V30 11297 H 1458.73 -8.65116 0.777161 0
M  V30 11298 H 1459 -6.90173 0.474152 0
M  V30 11299 H 1458.13 -7.66548 2.79458 0
M  V30 11300 P 1454.17 -8.03563 3.84925 0
M  V30 11301 O 1453.95 -8.85821 5.0569 0
M  V30 11302 O 1453.38 -8.41101 2.65469 0
M  V30 11303 O 1453.92 -6.4965 4.18908 0
M  V30 11304 C 1454.86 -5.81037 5.05421 0
M  V30 11305 C 1454.13 -4.78366 5.89277 0
M  V30 11306 O 1453.92 -3.58302 5.08433 0
M  V30 11307 C 1452.73 -5.17448 6.36119 0
M  V30 11308 O 1452.34 -4.45271 7.53232 0
M  V30 11309 C 1451.85 -4.74639 5.19936 0
M  V30 11310 C 1452.56 -3.49432 4.70418 0
M  V30 11311 N 1452.51 -3.31776 3.22945 0
M  V30 11312 H 1455.35 -6.54213 5.71376 0
M  V30 11313 H 1455.62 -5.30492 4.44033 0
M  V30 11314 H 1454.75 -4.55889 6.76652 0
M  V30 11315 P 1450.79 -4.23843 7.83734 0
M  V30 11316 O 1450.57 -4.19407 9.29784 0
M  V30 11317 O 1450 -5.24426 7.09156 0
M  V30 11318 O 1450.54 -2.7935 7.20758 0
M  V30 11319 C 1451.48 -1.7299 7.50419 0
M  V30 11320 C 1450.75 -0.406376 7.57911 0
M  V30 11321 O 1450.54 0.0897726 6.21935 0
M  V30 11322 C 1449.35 -0.447224 8.1878 0
M  V30 11323 O 1448.96 0.825065 8.71101 0
M  V30 11324 C 1448.47 -0.783801 6.99623 0
M  V30 11325 C 1449.18 -0.0619192 5.85967 0
M  V30 11326 N 1449.13 -0.790462 4.56202 0
M  V30 11327 H 1451.97 -1.93423 8.4679 0
M  V30 11328 H 1452.24 -1.68852 6.70877 0
M  V30 11329 H 1451.37 0.289041 8.15388 0
M  V30 11330 H 1448.72 0.927006 5.72848 0
M  V30 11331 H 1448.44 -1.86973 6.82036 0
M  V30 11332 H 1447.45 -0.403953 7.13357 0
M  V30 11333 H 1449.28 -1.20599 8.97534 0
M  V30 11334 P 1447.41 1.17771 8.83182 0
M  V30 11335 O 1447.19 2.07206 9.98732 0
M  V30 11336 O 1446.62 -0.0743816 8.81969 0
M  V30 11337 O 1447.16 1.97652 7.47304 0
M  V30 11338 C 1448.1 3.01133 7.08783 0
M  V30 11339 C 1447.37 4.12613 6.37049 0
M  V30 11340 O 1447.16 3.72827 4.97879 0
M  V30 11341 C 1445.97 4.45085 6.88694 0
M  V30 11342 O 1445.58 5.7877 6.5624 0
M  V30 11343 C 1445.09 3.47817 6.12078 0
M  V30 11344 C 1445.8 3.39414 4.77697 0
M  V30 11345 N 1445.75 2.04615 4.15333 0
M  V30 11346 H 1448.59 3.41248 7.98759 0
M  V30 11347 H 1448.86 2.5837 6.41742 0
M  V30 11348 H 1447.99 5.02657 6.42673 0
M  V30 11349 P 1444.03 6.144 6.45285 0
M  V30 11350 O 1443.81 7.54673 6.86199 0
M  V30 11351 O 1443.24 5.12391 7.179 0
M  V30 11352 O 1443.78 5.99158 4.88404 0
M  V30 11353 C 1444.72 6.60234 3.96415 0
M  V30 11354 C 1443.99 7.08259 2.72856 0
M  V30 11355 O 1443.78 5.9427 1.83651 0
M  V30 11356 C 1442.59 7.64886 2.9555 0
M  V30 11357 O 1442.2 8.53963 1.90717 0
M  V30 11358 C 1441.71 6.4116 2.90739 0
M  V30 11359 C 1442.42 5.55375 1.86963 0
M  V30 11360 N 1442.37 4.09664 2.15742 0
M  V30 11361 C 1442.45 3.44381 3.37233 0
M  V30 11362 N 1442.37 2.14131 3.28347 0
M  V30 11363 C 1442.23 1.90247 1.91588 0
M  V30 11364 C 1442.1 0.683992 1.20892 0
M  V30 11365 N 1441.98 0.903396 -0.173998 0
M  V30 11366 C 1441.98 2.14171 -0.784879 0
M  V30 11367 N 1441.85 2.1435 -2.11317 0
M  V30 11368 N 1442.11 3.28784 -0.119316 0
M  V30 11369 C 1442.23 3.0977 1.22194 0
M  V30 11370 H 1445.21 7.45574 4.45629 0
M  V30 11371 H 1445.48 5.86232 3.67314 0
M  V30 11372 H 1444.61 7.84412 2.24479 0
M  V30 11373 P 1440.65 8.7635 1.60911 0
M  V30 11374 O 1440.43 10.1388 1.11561 0
M  V30 11375 O 1439.86 8.36503 2.79617 0
M  V30 11376 O 1440.4 7.71806 0.42951 0
M  V30 11377 C 1441.34 7.67148 -0.673689 0
M  V30 11378 C 1440.61 7.33374 -1.95559 0
M  V30 11379 O 1440.4 5.88721 -2.00726 0
M  V30 11380 C 1439.21 7.92526 -2.10483 0
M  V30 11381 O 1438.82 8.02971 -3.47653 0
M  V30 11382 C 1438.33 6.89602 -1.41652 0
M  V30 11383 C 1439.04 5.59201 -1.75185 0
M  V30 11384 N 1438.99 4.58235 -0.662552 0
M  V30 11385 H 1441.83 8.65116 -0.777161 0
M  V30 11386 H 1442.1 6.90173 -0.474152 0
M  V30 11387 H 1441.23 7.66548 -2.79458 0
M  V30 11388 P 1437.27 8.03563 -3.84925 0
M  V30 11389 O 1437.05 8.85821 -5.0569 0
M  V30 11390 O 1436.48 8.41101 -2.65469 0
M  V30 11391 O 1437.02 6.4965 -4.18908 0
M  V30 11392 C 1437.96 5.81037 -5.05421 0
M  V30 11393 C 1437.23 4.78366 -5.89277 0
M  V30 11394 O 1437.02 3.58302 -5.08433 0
M  V30 11395 C 1435.83 5.17448 -6.36119 0
M  V30 11396 O 1435.44 4.45271 -7.53232 0
M  V30 11397 C 1434.95 4.74639 -5.19936 0
M  V30 11398 C 1435.66 3.49432 -4.70418 0
M  V30 11399 N 1435.61 3.31776 -3.22945 0
M  V30 11400 H 1438.45 6.54213 -5.71376 0
M  V30 11401 H 1438.72 5.30492 -4.44033 0
M  V30 11402 H 1437.85 4.55889 -6.76652 0
M  V30 11403 P 1433.89 4.23843 -7.83734 0
M  V30 11404 O 1433.67 4.19407 -9.29784 0
M  V30 11405 O 1433.1 5.24426 -7.09156 0
M  V30 11406 O 1433.64 2.7935 -7.20758 0
M  V30 11407 C 1434.58 1.7299 -7.50419 0
M  V30 11408 C 1433.85 0.406376 -7.57911 0
M  V30 11409 O 1433.64 -0.0897726 -6.21935 0
M  V30 11410 C 1432.45 0.447224 -8.1878 0
M  V30 11411 O 1432.06 -0.825065 -8.71101 0
M  V30 11412 C 1431.57 0.783801 -6.99623 0
M  V30 11413 C 1432.28 0.0619192 -5.85967 0
M  V30 11414 N 1432.23 0.7859 -4.56281 0
M  V30 11415 H 1435.07 1.93423 -8.4679 0
M  V30 11416 H 1435.34 1.68181 -6.71046 0
M  V30 11417 H 1434.47 -0.289041 -8.15388 0
M  V30 11418 P 1430.51 -1.17771 -8.83182 0
M  V30 11419 O 1430.29 -2.07206 -9.98732 0
M  V30 11420 O 1429.72 0.0743816 -8.81969 0
M  V30 11421 O 1430.26 -1.97652 -7.47304 0
M  V30 11422 C 1431.2 -3.01133 -7.08783 0
M  V30 11423 C 1430.47 -4.12613 -6.37049 0
M  V30 11424 O 1430.26 -3.72827 -4.97879 0
M  V30 11425 C 1429.07 -4.45085 -6.88694 0
M  V30 11426 O 1428.68 -5.7877 -6.5624 0
M  V30 11427 C 1428.19 -3.47817 -6.12078 0
M  V30 11428 C 1428.9 -3.39414 -4.77697 0
M  V30 11429 N 1428.85 -2.04615 -4.15333 0
M  V30 11430 C 1428.93 -0.803897 -4.75249 0
M  V30 11431 N 1428.85 0.197615 -3.91502 0
M  V30 11432 C 1428.71 -0.413002 -2.66823 0
M  V30 11433 C 1428.58 0.157221 -1.38007 0
M  V30 11434 N 1428.46 -0.833136 -0.390236 0
M  V30 11435 C 1428.46 -2.19402 -0.623885 0
M  V30 11436 N 1428.33 -2.97622 0.449677 0
M  V30 11437 N 1428.59 -2.73005 -1.83601 0
M  V30 11438 C 1428.71 -1.78786 -2.80935 0
M  V30 11439 H 1431.69 -3.41248 -7.98759 0
M  V30 11440 H 1431.96 -2.5837 -6.41742 0
M  V30 11441 H 1431.09 -5.02657 -6.42673 0
M  V30 11442 P 1427.13 -6.144 -6.45285 0
M  V30 11443 O 1426.91 -7.54673 -6.86199 0
M  V30 11444 O 1426.34 -5.12391 -7.179 0
M  V30 11445 O 1426.88 -5.99158 -4.88404 0
M  V30 11446 C 1427.82 -6.60234 -3.96415 0
M  V30 11447 C 1427.09 -7.08259 -2.72856 0
M  V30 11448 O 1426.88 -5.9427 -1.83651 0
M  V30 11449 C 1425.69 -7.64886 -2.9555 0
M  V30 11450 O 1425.3 -8.53963 -1.90717 0
M  V30 11451 C 1424.81 -6.4116 -2.90739 0
M  V30 11452 C 1425.52 -5.55375 -1.86963 0
M  V30 11453 N 1425.47 -4.09664 -2.15742 0
M  V30 11454 H 1428.31 -7.45574 -4.45629 0
M  V30 11455 H 1428.58 -5.86232 -3.67314 0
M  V30 11456 H 1427.71 -7.84412 -2.24479 0
M  V30 11457 P 1423.75 -8.7635 -1.60911 0
M  V30 11458 O 1423.53 -10.1388 -1.11561 0
M  V30 11459 O 1422.96 -8.36503 -2.79617 0
M  V30 11460 O 1423.5 -7.71806 -0.42951 0
M  V30 11461 C 1424.44 -7.67148 0.673689 0
M  V30 11462 C 1423.71 -7.33374 1.95559 0
M  V30 11463 O 1423.5 -5.88721 2.00726 0
M  V30 11464 C 1422.31 -7.92526 2.10483 0
M  V30 11465 O 1421.92 -8.02971 3.47653 0
M  V30 11466 C 1421.43 -6.89602 1.41652 0
M  V30 11467 C 1422.14 -5.59201 1.75185 0
M  V30 11468 N 1422.09 -4.58235 0.662552 0
M  V30 11469 H 1424.93 -8.65116 0.777161 0
M  V30 11470 H 1425.2 -6.90173 0.474152 0
M  V30 11471 H 1424.33 -7.66548 2.79458 0
M  V30 11472 P 1420.37 -8.03563 3.84925 0
M  V30 11473 O 1420.15 -8.85821 5.0569 0
M  V30 11474 O 1419.58 -8.41101 2.65469 0
M  V30 11475 O 1420.12 -6.4965 4.18908 0
M  V30 11476 C 1421.06 -5.81037 5.05421 0
M  V30 11477 C 1420.33 -4.78366 5.89277 0
M  V30 11478 O 1420.12 -3.58302 5.08433 0
M  V30 11479 C 1418.93 -5.17448 6.36119 0
M  V30 11480 O 1418.54 -4.45271 7.53232 0
M  V30 11481 C 1418.05 -4.74639 5.19936 0
M  V30 11482 C 1418.76 -3.49432 4.70418 0
M  V30 11483 N 1418.71 -3.31776 3.22945 0
M  V30 11484 H 1421.55 -6.54213 5.71376 0
M  V30 11485 H 1421.82 -5.30492 4.44033 0
M  V30 11486 H 1420.95 -4.55889 6.76652 0
M  V30 11487 P 1416.99 -4.23843 7.83734 0
M  V30 11488 O 1416.77 -4.19407 9.29784 0
M  V30 11489 O 1416.2 -5.24426 7.09156 0
M  V30 11490 O 1416.74 -2.7935 7.20758 0
M  V30 11491 C 1417.68 -1.7299 7.50419 0
M  V30 11492 C 1416.95 -0.406376 7.57911 0
M  V30 11493 O 1416.74 0.0897726 6.21935 0
M  V30 11494 C 1415.55 -0.447224 8.1878 0
M  V30 11495 O 1415.16 0.825065 8.71101 0
M  V30 11496 C 1414.67 -0.783801 6.99623 0
M  V30 11497 C 1415.38 -0.0619192 5.85967 0
M  V30 11498 N 1415.33 -0.7859 4.56281 0
M  V30 11499 H 1418.17 -1.93423 8.4679 0
M  V30 11500 H 1418.44 -1.68181 6.71046 0
M  V30 11501 H 1417.57 0.289041 8.15388 0
M  V30 11502 P 1413.61 1.17771 8.83182 0
M  V30 11503 O 1413.39 2.07206 9.98732 0
M  V30 11504 O 1412.82 -0.0743816 8.81969 0
M  V30 11505 O 1413.36 1.97678 7.474 0
M  V30 11506 C 1414.3 3.01133 7.08783 0
M  V30 11507 C 1413.57 4.1203 6.37546 0
M  V30 11508 O 1413.36 3.72887 4.9796 0
M  V30 11509 C 1412.17 4.45085 6.88694 0
M  V30 11510 O 1411.78 5.78836 6.56315 0
M  V30 11511 C 1411.29 3.47817 6.12078 0
M  V30 11512 C 1412 3.39414 4.77697 0
M  V30 11513 N 1411.95 2.04615 4.15333 0
M  V30 11514 C 1411.8 1.96929 2.77162 0
M  V30 11515 O 1411.71 3.02017 2.12006 0
M  V30 11516 N 1411.75 0.55485 2.24237 0
M  V30 11517 C 1411.85 -0.367808 2.9169 0
M  V30 11518 N 1411.8 -1.53426 2.29427 0
M  V30 11519 C 1412 -0.319148 4.33828 0
M  V30 11520 C 1412.05 0.920672 4.90433 0
M  V30 11521 H 1414.79 3.41209 7.98667 0
M  V30 11522 H 1415.06 2.5837 6.41742 0
M  V30 11523 H 1414.19 5.02718 6.42752 0
M  V30 11524 H 1411.54 4.11779 4.09026 0
M  V30 11525 H 1411.26 2.49661 6.61772 0
M  V30 11526 H 1410.27 3.86674 6.00946 0
M  V30 11527 H 1412.1 4.29991 7.97006 0
M  V30 11528 H 1412.17 1.00589 5.98303 0
M  V30 11529 H 1412.07 -1.22639 4.93799 0
M  V30 11530 H 1411.68 -1.56819 1.27167 0
M  V30 11531 H 1411.88 -2.41062 2.83063 0
M  V30 11532 P 1410.23 6.144 6.45285 0
M  V30 11533 O 1410.01 7.54673 6.86199 0
M  V30 11534 O 1409.44 5.12391 7.179 0
M  V30 11535 O 1409.98 5.99236 4.88467 0
M  V30 11536 C 1410.92 6.60234 3.96415 0
M  V30 11537 C 1410.19 7.08079 2.736 0
M  V30 11538 O 1409.98 5.94365 1.8368 0
M  V30 11539 C 1408.79 7.64886 2.9555 0
M  V30 11540 O 1408.4 8.5406 1.90739 0
M  V30 11541 C 1407.91 6.4116 2.90739 0
M  V30 11542 C 1408.62 5.55375 1.86963 0
M  V30 11543 N 1408.57 4.09664 2.15742 0
M  V30 11544 C 1408.42 3.22231 1.08477 0
M  V30 11545 O 1408.33 3.68951 -0.0600489 0
M  V30 11546 N 1408.37 1.76692 1.48799 0
M  V30 11547 C 1408.47 1.41695 2.57602 0
M  V30 11548 N 1408.42 0.107296 2.75791 0
M  V30 11549 C 1408.62 2.29178 3.69733 0
M  V30 11550 C 1408.67 3.62753 3.42653 0
M  V30 11551 H 1411.41 7.45488 4.45578 0
M  V30 11552 H 1411.68 5.86232 3.67314 0
M  V30 11553 H 1410.81 7.84508 2.24507 0
M  V30 11554 H 1408.16 5.73556 0.888715 0
M  V30 11555 H 1407.88 5.9096 3.88638 0
M  V30 11556 H 1406.89 6.66053 2.58894 0
M  V30 11557 H 1408.72 8.16339 3.92049 0
M  V30 11558 H 1408.79 4.33052 4.24913 0
M  V30 11559 H 1408.69 1.9103 4.71577 0
M  V30 11560 H 1408.3 -0.521221 1.95056 0
M  V30 11561 H 1408.5 -0.286429 3.70695 0
M  V30 11562 P 1406.85 8.7635 1.60911 0
M  V30 11563 O 1406.63 10.1388 1.11561 0
M  V30 11564 O 1406.06 8.36503 2.79617 0
M  V30 11565 O 1406.6 7.71806 0.42951 0
M  V30 11566 C 1407.54 7.67148 -0.673689 0
M  V30 11567 C 1406.81 7.33374 -1.95559 0
M  V30 11568 O 1406.6 5.88721 -2.00726 0
M  V30 11569 C 1405.41 7.92526 -2.10483 0
M  V30 11570 O 1405.02 8.02971 -3.47653 0
M  V30 11571 C 1404.53 6.89602 -1.41652 0
M  V30 11572 C 1405.24 5.59201 -1.75185 0
M  V30 11573 N 1405.19 4.58301 -0.657969 0
M  V30 11574 H 1408.03 8.65116 -0.777161 0
M  V30 11575 H 1408.3 6.9022 -0.46725 0
M  V30 11576 H 1407.43 7.66548 -2.79458 0
M  V30 11577 H 1404.78 5.16165 -2.65183 0
M  V30 11578 H 1404.5 7.06433 -0.329384 0
M  V30 11579 H 1403.51 6.90926 -1.82021 0
M  V30 11580 H 1405.34 8.90873 -1.62657 0
M  V30 11581 P 1403.47 8.03563 -3.84925 0
M  V30 11582 O 1403.25 8.85821 -5.0569 0
M  V30 11583 O 1402.68 8.41101 -2.65469 0
M  V30 11584 O 1403.22 6.4965 -4.18908 0
M  V30 11585 C 1404.16 5.81037 -5.05421 0
M  V30 11586 C 1403.43 4.78366 -5.89277 0
M  V30 11587 O 1403.22 3.58302 -5.08433 0
M  V30 11588 C 1402.03 5.17448 -6.36119 0
M  V30 11589 O 1401.64 4.45271 -7.53232 0
M  V30 11590 C 1401.15 4.74639 -5.19936 0
M  V30 11591 C 1401.86 3.49432 -4.70418 0
M  V30 11592 N 1401.81 3.31776 -3.22945 0
M  V30 11593 H 1404.65 6.54213 -5.71376 0
M  V30 11594 H 1404.92 5.30492 -4.44033 0
M  V30 11595 H 1404.05 4.55889 -6.76652 0
M  V30 11596 P 1400.09 4.23843 -7.83734 0
M  V30 11597 O 1399.87 4.19407 -9.29784 0
M  V30 11598 O 1399.3 5.24426 -7.09156 0
M  V30 11599 O 1399.84 2.7935 -7.20758 0
M  V30 11600 C 1400.78 1.7299 -7.50419 0
M  V30 11601 C 1400.05 0.406376 -7.57911 0
M  V30 11602 O 1399.84 -0.0897726 -6.21935 0
M  V30 11603 C 1398.65 0.447224 -8.1878 0
M  V30 11604 O 1398.26 -0.825065 -8.71101 0
M  V30 11605 C 1397.77 0.783801 -6.99623 0
M  V30 11606 C 1398.48 0.0619192 -5.85967 0
M  V30 11607 N 1398.43 0.7859 -4.56281 0
M  V30 11608 C 1398.51 2.14308 -4.31736 0
M  V30 11609 N 1398.43 2.46106 -3.05116 0
M  V30 11610 C 1398.29 1.23422 -2.4014 0
M  V30 11611 C 1398.16 0.938381 -1.02409 0
M  V30 11612 O 1398.14 1.70876 -0.0650402 0
M  V30 11613 N 1398.04 -0.444647 -0.805413 0
M  V30 11614 C 1398.04 -1.40829 -1.79435 0
M  V30 11615 N 1397.91 -2.67213 -1.38558 0
M  V30 11616 N 1398.17 -1.12947 -3.09005 0
M  V30 11617 C 1398.29 0.204887 -3.32369 0
M  V30 11618 H 1401.27 1.93423 -8.4679 0
M  V30 11619 H 1401.54 1.68181 -6.71046 0
M  V30 11620 H 1400.67 -0.289041 -8.15388 0
M  V30 11621 H 1398.02 -0.927166 -5.72947 0
M  V30 11622 H 1397.74 1.87 -6.82132 0
M  V30 11623 H 1396.75 0.404009 -7.13457 0
M  V30 11624 H 1398.58 1.20612 -8.97633 0
M  V30 11625 H 1398.63 2.88284 -5.10874 0
M  V30 11626 H 1397.95 -0.755087 0.140242 0
M  V30 11627 H 1397.91 -3.43967 -2.0729 0
M  V30 11628 H 1397.81 -2.88096 -0.380644 0
M  V30 11629 P 1396.71 -1.17771 -8.83182 0
M  V30 11630 O 1396.49 -2.07206 -9.98732 0
M  V30 11631 O 1395.92 0.0743816 -8.81969 0
M  V30 11632 O 1396.46 -1.97652 -7.47304 0
M  V30 11633 C 1397.4 -3.01055 -7.08599 0
M  V30 11634 C 1396.67 -4.12613 -6.37049 0
M  V30 11635 O 1396.46 -3.72827 -4.97879 0
M  V30 11636 C 1395.27 -4.45719 -6.88164 0
M  V30 11637 O 1394.88 -5.7877 -6.5624 0
M  V30 11638 C 1394.39 -3.47768 -6.11991 0
M  V30 11639 C 1395.1 -3.39356 -4.77615 0
M  V30 11640 N 1395.05 -2.04571 -4.15244 0
M  V30 11641 C 1394.9 -1.98587 -2.78314 0
M  V30 11642 O 1394.81 -2.98134 -2.08835 0
M  V30 11643 N 1394.86 -0.714467 -2.24925 0
M  V30 11644 C 1394.95 0.470001 -2.94169 0
M  V30 11645 C 1395.1 0.312541 -4.36783 0
M  V30 11646 C 1395.15 -0.914512 -4.92583 0
M  V30 11647 H 1397.89 -3.41169 -7.98575 0
M  V30 11648 H 1398.16 -2.58295 -6.41556 0
M  V30 11649 H 1397.29 -5.02657 -6.42673 0
M  V30 11650 H 1394.64 -4.11637 -4.08885 0
M  V30 11651 H 1394.36 -2.49626 -6.61679 0
M  V30 11652 H 1393.37 -3.86566 -6.00778 0
M  V30 11653 H 1395.2 -4.29943 -7.96918 0
M  V30 11654 H 1395.27 -1.00937 -6.00374 0
M  V30 11655 P 1393.33 -6.144 -6.45285 0
M  V30 11656 O 1393.11 -7.54673 -6.86199 0
M  V30 11657 O 1392.54 -5.12391 -7.179 0
M  V30 11658 O 1393.08 -5.99158 -4.88404 0
M  V30 11659 C 1394.02 -6.60062 -3.96313 0
M  V30 11660 C 1393.29 -7.08259 -2.72856 0
M  V30 11661 O 1393.08 -5.9427 -1.83651 0
M  V30 11662 C 1391.89 -7.65087 -2.94749 0
M  V30 11663 O 1391.5 -8.53963 -1.90717 0
M  V30 11664 C 1391.01 -6.41069 -2.90698 0
M  V30 11665 C 1391.72 -5.5528 -1.86931 0
M  V30 11666 N 1391.67 -4.09575 -2.15696 0
M  V30 11667 C 1391.52 -3.24249 -1.08435 0
M  V30 11668 O 1391.43 -3.63946 0.0628747 0
M  V30 11669 N 1391.48 -1.90009 -1.39973 0
M  V30 11670 C 1391.57 -1.34884 -2.65614 0
M  V30 11671 C 1391.72 -2.3145 -3.71736 0
M  V30 11672 C 1391.77 -3.63518 -3.44754 0
M  V30 11673 H 1394.51 -7.45402 -4.45526 0
M  V30 11674 H 1394.78 -5.86062 -3.67208 0
M  V30 11675 H 1393.91 -7.84412 -2.24479 0
M  V30 11676 H 1391.26 -5.73358 -0.888409 0
M  V30 11677 H 1390.98 -5.90877 -3.88583 0
M  V30 11678 H 1389.99 -6.65867 -2.58821 0
M  V30 11679 H 1391.82 -8.16248 -3.92006 0
M  V30 11680 H 1391.89 -4.34551 -4.26383 0
M  V30 11681 P 1389.95 -8.7635 -1.60911 0
M  V30 11682 O 1389.73 -10.1388 -1.11561 0
M  V30 11683 O 1389.16 -8.36503 -2.79617 0
M  V30 11684 O 1389.7 -7.71806 -0.42951 0
M  V30 11685 C 1390.64 -7.66948 0.673514 0
M  V30 11686 C 1389.91 -7.33374 1.95559 0
M  V30 11687 O 1389.7 -5.88721 2.00726 0
M  V30 11688 C 1388.51 -7.92218 2.1125 0
M  V30 11689 O 1388.12 -8.02971 3.47653 0
M  V30 11690 C 1387.63 -6.89504 1.41631 0
M  V30 11691 C 1388.34 -5.59106 1.75155 0
M  V30 11692 N 1388.29 -4.58136 0.662409 0
M  V30 11693 C 1388.14 -3.26059 1.02863 0
M  V30 11694 O 1388.05 -2.90743 2.19009 0
M  V30 11695 N 1388.1 -2.35995 -0.0155585 0
M  V30 11696 C 1388.19 -2.65248 -1.35603 0
M  V30 11697 O 1388.14 -1.75605 -2.20651 0
M  V30 11698 C 1388.34 -4.05747 -1.64698 0
M  V30 11699 C 1388.45 -4.42345 -3.09553 0
M  V30 11700 C 1388.39 -4.96734 -0.652411 0
M  V30 11701 H 1391.13 -8.64917 0.776982 0
M  V30 11702 H 1391.4 -6.89974 0.474015 0
M  V30 11703 H 1390.53 -7.66548 2.79458 0
M  V30 11704 H 1387.88 -5.16076 2.65138 0
M  V30 11705 H 1387.6 -7.06433 0.329384 0
M  V30 11706 H 1386.61 -6.90829 1.81996 0
M  V30 11707 H 1388.44 -8.90774 1.62639 0
M  V30 11708 H 1388.51 -6.02181 -0.895285 0
M  V30 11709 H 1387.48 -4.80252 -3.45468 0
M  V30 11710 H 1389.22 -5.20015 -3.22119 0
M  V30 11711 H 1388.73 -3.53269 -3.67833 0
M  V30 11712 H 1388 -1.39558 0.227499 0
M  V30 11713 P 1386.57 -8.03563 3.84925 0
M  V30 11714 O 1386.35 -8.85821 5.0569 0
M  V30 11715 O 1385.78 -8.41101 2.65469 0
M  V30 11716 O 1386.32 -6.4965 4.18908 0
M  V30 11717 C 1387.26 -5.81037 5.05421 0
M  V30 11718 C 1386.53 -4.78366 5.89277 0
M  V30 11719 O 1386.32 -3.58302 5.08433 0
M  V30 11720 C 1385.13 -5.17448 6.36119 0
M  V30 11721 O 1384.74 -4.45271 7.53232 0
M  V30 11722 C 1384.25 -4.74639 5.19936 0
M  V30 11723 C 1384.96 -3.49432 4.70418 0
M  V30 11724 N 1384.91 -3.31776 3.22945 0
M  V30 11725 H 1387.75 -6.54213 5.71376 0
M  V30 11726 H 1388.02 -5.30492 4.44033 0
M  V30 11727 H 1387.15 -4.55889 6.76652 0
M  V30 11728 P 1383.19 -4.23843 7.83734 0
M  V30 11729 O 1382.97 -4.19407 9.29784 0
M  V30 11730 O 1382.4 -5.24426 7.09156 0
M  V30 11731 O 1382.94 -2.7935 7.20758 0
M  V30 11732 C 1383.88 -1.7299 7.50419 0
M  V30 11733 C 1383.15 -0.406376 7.57911 0
M  V30 11734 O 1382.94 0.0897726 6.21935 0
M  V30 11735 C 1381.75 -0.447224 8.1878 0
M  V30 11736 O 1381.36 0.825065 8.71101 0
M  V30 11737 C 1380.87 -0.783801 6.99623 0
M  V30 11738 C 1381.58 -0.0619192 5.85967 0
M  V30 11739 N 1381.53 -0.7859 4.56281 0
M  V30 11740 H 1384.37 -1.93423 8.4679 0
M  V30 11741 H 1384.64 -1.68181 6.71046 0
M  V30 11742 H 1383.77 0.289041 8.15388 0
M  V30 11743 P 1379.81 1.17771 8.83182 0
M  V30 11744 O 1379.59 2.07206 9.98732 0
M  V30 11745 O 1379.02 -0.0743816 8.81969 0
M  V30 11746 O 1379.56 1.97652 7.47304 0
M  V30 11747 C 1380.5 3.01133 7.08783 0
M  V30 11748 C 1379.77 4.12613 6.37049 0
M  V30 11749 O 1379.56 3.72827 4.97879 0
M  V30 11750 C 1378.37 4.45085 6.88694 0
M  V30 11751 O 1377.98 5.7877 6.5624 0
M  V30 11752 C 1377.49 3.47817 6.12078 0
M  V30 11753 C 1378.2 3.39414 4.77697 0
M  V30 11754 N 1378.15 2.04615 4.15333 0
M  V30 11755 H 1380.99 3.41248 7.98759 0
M  V30 11756 H 1381.26 2.5837 6.41742 0
M  V30 11757 H 1380.39 5.02657 6.42673 0
M  V30 11758 P 1376.43 6.144 6.45285 0
M  V30 11759 O 1376.21 7.54673 6.86199 0
M  V30 11760 O 1375.64 5.12391 7.179 0
M  V30 11761 O 1376.18 5.99158 4.88404 0
M  V30 11762 C 1377.12 6.60234 3.96415 0
M  V30 11763 C 1376.39 7.08259 2.72856 0
M  V30 11764 O 1376.18 5.9427 1.83651 0
M  V30 11765 C 1374.99 7.64886 2.9555 0
M  V30 11766 O 1374.6 8.53963 1.90717 0
M  V30 11767 C 1374.11 6.4116 2.90739 0
M  V30 11768 C 1374.82 5.55375 1.86963 0
M  V30 11769 N 1374.77 4.09664 2.15742 0
M  V30 11770 H 1377.61 7.45574 4.45629 0
M  V30 11771 H 1377.88 5.86232 3.67314 0
M  V30 11772 H 1377.01 7.84412 2.24479 0
M  V30 11773 P 1373.05 8.7635 1.60911 0
M  V30 11774 O 1372.83 10.1388 1.11561 0
M  V30 11775 O 1372.26 8.36503 2.79617 0
M  V30 11776 O 1372.8 7.71806 0.42951 0
M  V30 11777 C 1373.74 7.67148 -0.673689 0
M  V30 11778 C 1373.01 7.33374 -1.95559 0
M  V30 11779 O 1372.8 5.88721 -2.00726 0
M  V30 11780 C 1371.61 7.92526 -2.10483 0
M  V30 11781 O 1371.22 8.02971 -3.47653 0
M  V30 11782 C 1370.73 6.89602 -1.41652 0
M  V30 11783 C 1371.44 5.59201 -1.75185 0
M  V30 11784 N 1371.39 4.58235 -0.662552 0
M  V30 11785 H 1374.23 8.65116 -0.777161 0
M  V30 11786 H 1374.5 6.90173 -0.474152 0
M  V30 11787 H 1373.63 7.66548 -2.79458 0
M  V30 11788 P 1369.67 8.03563 -3.84925 0
M  V30 11789 O 1369.45 8.85821 -5.0569 0
M  V30 11790 O 1368.88 8.41101 -2.65469 0
M  V30 11791 O 1369.42 6.4965 -4.18908 0
M  V30 11792 C 1370.36 5.81037 -5.05421 0
M  V30 11793 C 1369.63 4.78366 -5.89277 0
M  V30 11794 O 1369.42 3.58302 -5.08433 0
M  V30 11795 C 1368.23 5.17448 -6.36119 0
M  V30 11796 O 1367.84 4.45271 -7.53232 0
M  V30 11797 C 1367.35 4.74639 -5.19936 0
M  V30 11798 C 1368.06 3.49432 -4.70418 0
M  V30 11799 N 1368.01 3.31776 -3.22945 0
M  V30 11800 H 1370.85 6.54213 -5.71376 0
M  V30 11801 H 1371.12 5.30492 -4.44033 0
M  V30 11802 H 1370.25 4.55889 -6.76652 0
M  V30 11803 P 1366.29 4.23843 -7.83734 0
M  V30 11804 O 1366.07 4.19407 -9.29784 0
M  V30 11805 O 1365.5 5.24426 -7.09156 0
M  V30 11806 O 1366.04 2.79386 -7.20852 0
M  V30 11807 C 1366.98 1.7299 -7.50419 0
M  V30 11808 C 1366.25 0.41401 -7.5797 0
M  V30 11809 O 1366.04 -0.089787 -6.22035 0
M  V30 11810 C 1364.85 0.447224 -8.1878 0
M  V30 11811 O 1364.46 -0.825159 -8.71201 0
M  V30 11812 C 1363.97 0.783801 -6.99623 0
M  V30 11813 C 1364.68 0.0619192 -5.85967 0
M  V30 11814 N 1364.63 0.7859 -4.56281 0
M  V30 11815 C 1364.48 0.0359258 -3.39981 0
M  V30 11816 O 1364.39 -1.19723 -3.49038 0
M  V30 11817 N 1364.43 0.869151 -2.14025 0
M  V30 11818 C 1364.53 2.01207 -2.14363 0
M  V30 11819 N 1364.48 2.58978 -0.954287 0
M  V30 11820 C 1364.68 2.80817 -3.32215 0
M  V30 11821 C 1364.73 2.13785 -4.50884 0
M  V30 11822 H 1367.47 1.93401 -8.46693 0
M  V30 11823 H 1367.74 1.68181 -6.71046 0
M  V30 11824 H 1366.87 -0.289076 -8.15488 0
M  V30 11825 H 1364.22 -0.927166 -5.72947 0
M  V30 11826 H 1363.94 1.87 -6.82132 0
M  V30 11827 H 1362.95 0.404009 -7.13457 0
M  V30 11828 H 1364.78 1.20599 -8.97534 0
M  V30 11829 H 1364.85 2.70295 -5.43162 0
M  V30 11830 H 1364.75 3.89465 -3.27406 0
M  V30 11831 H 1364.36 2.01616 -0.107046 0
M  V30 11832 H 1364.56 3.61403 -0.873101 0
M  V30 11833 P 1362.91 -1.17771 -8.83182 0
M  V30 11834 O 1362.69 -2.07206 -9.98732 0
M  V30 11835 O 1362.12 0.0743816 -8.81969 0
M  V30 11836 O 1362.66 -1.97652 -7.47304 0
M  V30 11837 C 1363.6 -3.01133 -7.08783 0
M  V30 11838 C 1362.87 -4.12613 -6.37049 0
M  V30 11839 O 1362.66 -3.72827 -4.97879 0
M  V30 11840 C 1361.47 -4.45085 -6.88694 0
M  V30 11841 O 1361.08 -5.7877 -6.5624 0
M  V30 11842 C 1360.59 -3.47817 -6.12078 0
M  V30 11843 C 1361.3 -3.39414 -4.77697 0
M  V30 11844 N 1361.25 -2.04615 -4.15333 0
M  V30 11845 H 1364.09 -3.41248 -7.98759 0
M  V30 11846 H 1364.36 -2.5837 -6.41742 0
M  V30 11847 H 1363.49 -5.02657 -6.42673 0
M  V30 11848 P 1359.53 -6.144 -6.45285 0
M  V30 11849 O 1359.31 -7.54673 -6.86199 0
M  V30 11850 O 1358.74 -5.12391 -7.179 0
M  V30 11851 O 1359.28 -5.99158 -4.88404 0
M  V30 11852 C 1360.22 -6.60234 -3.96415 0
M  V30 11853 C 1359.49 -7.08259 -2.72856 0
M  V30 11854 O 1359.28 -5.9427 -1.83651 0
M  V30 11855 C 1358.09 -7.64886 -2.9555 0
M  V30 11856 O 1357.7 -8.53963 -1.90717 0
M  V30 11857 C 1357.21 -6.4116 -2.90739 0
M  V30 11858 C 1357.92 -5.55375 -1.86963 0
M  V30 11859 N 1357.87 -4.09448 -2.16152 0
M  V30 11860 H 1360.71 -7.45574 -4.45629 0
M  V30 11861 H 1360.98 -5.85864 -3.679 0
M  V30 11862 H 1360.11 -7.84412 -2.24479 0
M  V30 11863 H 1357.46 -5.73457 -0.888562 0
M  V30 11864 H 1357.18 -5.90877 -3.88583 0
M  V30 11865 H 1356.19 -6.6596 -2.58858 0
M  V30 11866 H 1358.02 -8.16339 -3.92049 0
M  V30 11867 P 1356.15 -8.7635 -1.60911 0
M  V30 11868 O 1355.93 -10.1388 -1.11561 0
M  V30 11869 O 1355.36 -8.36503 -2.79617 0
M  V30 11870 O 1355.9 -7.71806 -0.42951 0
M  V30 11871 C 1356.84 -7.67148 0.673689 0
M  V30 11872 C 1356.11 -7.33374 1.95559 0
M  V30 11873 O 1355.9 -5.88721 2.00726 0
M  V30 11874 C 1354.71 -7.92526 2.10483 0
M  V30 11875 O 1354.32 -8.02971 3.47653 0
M  V30 11876 C 1353.83 -6.89602 1.41652 0
M  V30 11877 C 1354.54 -5.59201 1.75185 0
M  V30 11878 N 1354.49 -4.58235 0.662552 0
M  V30 11879 C 1354.57 -4.7683 -0.704049 0
M  V30 11880 N 1354.49 -3.66233 -1.39775 0
M  V30 11881 C 1354.35 -2.66526 -0.431739 0
M  V30 11882 C 1354.22 -1.26394 -0.575992 0
M  V30 11883 N 1354.1 -0.62859 0.67177 0
M  V30 11884 C 1354.1 -1.27134 1.89385 0
M  V30 11885 N 1353.97 -0.492035 2.96951 0
M  V30 11886 N 1354.23 -2.58978 2.02907 0
M  V30 11887 C 1354.35 -3.22433 0.832218 0
M  V30 11888 H 1357.33 -8.65116 0.777161 0
M  V30 11889 H 1357.6 -6.90173 0.474152 0
M  V30 11890 H 1356.73 -7.66548 2.79458 0
M  V30 11891 P 1352.77 -8.03563 3.84925 0
M  V30 11892 O 1352.55 -8.85821 5.0569 0
M  V30 11893 O 1351.98 -8.41101 2.65469 0
M  V30 11894 O 1352.52 -6.4965 4.18908 0
M  V30 11895 C 1353.46 -5.81037 5.05421 0
M  V30 11896 C 1352.73 -4.78366 5.89277 0
M  V30 11897 O 1352.52 -3.58302 5.08433 0
M  V30 11898 C 1351.33 -5.17448 6.36119 0
M  V30 11899 O 1350.94 -4.45271 7.53232 0
M  V30 11900 C 1350.45 -4.74639 5.19936 0
M  V30 11901 C 1351.16 -3.49432 4.70418 0
M  V30 11902 N 1351.11 -3.31776 3.22945 0
M  V30 11903 H 1353.95 -6.54213 5.71376 0
M  V30 11904 H 1354.22 -5.30492 4.44033 0
M  V30 11905 H 1353.36 -4.55889 6.76652 0
M  V30 11906 P 1349.39 -4.23843 7.83734 0
M  V30 11907 O 1349.17 -4.19407 9.29784 0
M  V30 11908 O 1348.6 -5.24426 7.09156 0
M  V30 11909 O 1349.14 -2.7935 7.20758 0
M  V30 11910 C 1350.08 -1.7299 7.50419 0
M  V30 11911 C 1349.35 -0.406376 7.57911 0
M  V30 11912 O 1349.14 0.0897726 6.21935 0
M  V30 11913 C 1347.95 -0.447224 8.1878 0
M  V30 11914 O 1347.56 0.825065 8.71101 0
M  V30 11915 C 1347.07 -0.783801 6.99623 0
M  V30 11916 C 1347.78 -0.0619192 5.85967 0
M  V30 11917 N 1347.73 -0.790462 4.56202 0
M  V30 11918 H 1350.57 -1.93423 8.4679 0
M  V30 11919 H 1350.84 -1.68852 6.70877 0
M  V30 11920 H 1349.98 0.289041 8.15388 0
M  V30 11921 H 1347.32 0.927006 5.72848 0
M  V30 11922 H 1347.04 -1.86973 6.82036 0
M  V30 11923 H 1346.05 -0.403953 7.13357 0
M  V30 11924 H 1347.88 -1.20599 8.97534 0
M  V30 11925 P 1346.01 1.17771 8.83182 0
M  V30 11926 O 1345.79 2.07206 9.98732 0
M  V30 11927 O 1345.22 -0.0743816 8.81969 0
M  V30 11928 O 1345.76 1.97652 7.47304 0
M  V30 11929 C 1346.7 3.01055 7.08599 0
M  V30 11930 C 1345.97 4.12613 6.37049 0
M  V30 11931 O 1345.76 3.72827 4.97879 0
M  V30 11932 C 1344.57 4.45719 6.88164 0
M  V30 11933 O 1344.18 5.7877 6.5624 0
M  V30 11934 C 1343.69 3.47768 6.11991 0
M  V30 11935 C 1344.4 3.39356 4.77615 0
M  V30 11936 N 1344.35 2.04571 4.15244 0
M  V30 11937 C 1344.2 1.98587 2.78314 0
M  V30 11938 O 1344.11 2.98134 2.08835 0
M  V30 11939 N 1344.16 0.714467 2.24925 0
M  V30 11940 C 1344.25 -0.470001 2.94169 0
M  V30 11941 O 1344.2 -1.55587 2.35195 0
M  V30 11942 C 1344.4 -0.312541 4.36783 0
M  V30 11943 C 1344.51 -1.57711 5.16352 0
M  V30 11944 C 1344.45 0.914512 4.92583 0
M  V30 11945 H 1347.19 3.41169 7.98575 0
M  V30 11946 H 1347.46 2.58295 6.41556 0
M  V30 11947 H 1346.6 5.02657 6.42673 0
M  V30 11948 H 1343.94 4.11637 4.08885 0
M  V30 11949 H 1343.66 2.49626 6.61679 0
M  V30 11950 H 1342.67 3.86566 6.00778 0
M  V30 11951 H 1344.5 4.29943 7.96918 0
M  V30 11952 H 1344.57 1.00937 6.00374 0
M  V30 11953 H 1343.54 -1.80153 5.63503 0
M  V30 11954 H 1345.28 -1.4566 5.94104 0
M  V30 11955 H 1344.79 -2.40664 4.49645 0
M  V30 11956 H 1344.06 0.647622 1.25697 0
M  V30 11957 P 1342.63 6.144 6.45285 0
M  V30 11958 O 1342.41 7.54673 6.86199 0
M  V30 11959 O 1341.84 5.12391 7.179 0
M  V30 11960 O 1342.38 5.99158 4.88404 0
M  V30 11961 C 1343.32 6.60234 3.96415 0
M  V30 11962 C 1342.59 7.08259 2.72856 0
M  V30 11963 O 1342.38 5.9427 1.83651 0
M  V30 11964 C 1341.19 7.64886 2.9555 0
M  V30 11965 O 1340.8 8.53963 1.90717 0
M  V30 11966 C 1340.31 6.4116 2.90739 0
M  V30 11967 C 1341.02 5.55375 1.86963 0
M  V30 11968 N 1340.97 4.09664 2.15742 0
M  V30 11969 H 1343.81 7.45574 4.45629 0
M  V30 11970 H 1344.08 5.86232 3.67314 0
M  V30 11971 H 1343.22 7.84412 2.24479 0
M  V30 11972 P 1339.25 8.7635 1.60911 0
M  V30 11973 O 1339.03 10.1388 1.11561 0
M  V30 11974 O 1338.46 8.36503 2.79617 0
M  V30 11975 O 1339 7.71806 0.42951 0
M  V30 11976 C 1339.94 7.67148 -0.673689 0
M  V30 11977 C 1339.21 7.33374 -1.95559 0
M  V30 11978 O 1339 5.88721 -2.00726 0
M  V30 11979 C 1337.81 7.92526 -2.10483 0
M  V30 11980 O 1337.42 8.02971 -3.47653 0
M  V30 11981 C 1336.93 6.89602 -1.41652 0
M  V30 11982 C 1337.64 5.59201 -1.75185 0
M  V30 11983 N 1337.59 4.58235 -0.662552 0
M  V30 11984 H 1340.43 8.65116 -0.777161 0
M  V30 11985 H 1340.7 6.90173 -0.474152 0
M  V30 11986 H 1339.84 7.66548 -2.79458 0
M  V30 11987 P 1335.87 8.03563 -3.84925 0
M  V30 11988 O 1335.65 8.85821 -5.0569 0
M  V30 11989 O 1335.08 8.41101 -2.65469 0
M  V30 11990 O 1335.62 6.4965 -4.18908 0
M  V30 11991 C 1336.56 5.81037 -5.05421 0
M  V30 11992 C 1335.83 4.78366 -5.89277 0
M  V30 11993 O 1335.62 3.58302 -5.08433 0
M  V30 11994 C 1334.43 5.17448 -6.36119 0
M  V30 11995 O 1334.04 4.45271 -7.53232 0
M  V30 11996 C 1333.55 4.74639 -5.19936 0
M  V30 11997 C 1334.26 3.49432 -4.70418 0
M  V30 11998 N 1334.21 3.31776 -3.22945 0
M  V30 11999 C 1334.29 4.27147 -2.23315 0
M  V30 12000 N 1334.21 3.78447 -1.02186 0
M  V30 12001 C 1334.07 2.41001 -1.21732 0
M  V30 12002 C 1333.94 1.36111 -0.27694 0
M  V30 12003 N 1333.82 0.113683 -0.912949 0
M  V30 12004 C 1333.82 -0.0846396 -2.27943 0
M  V30 12005 N 1333.69 -1.34737 -2.6916 0
M  V30 12006 N 1333.95 0.902521 -3.16379 0
M  V30 12007 C 1334.07 2.11937 -2.56849 0
M  V30 12008 H 1337.05 6.54213 -5.71376 0
M  V30 12009 H 1337.32 5.30492 -4.44033 0
M  V30 12010 H 1336.46 4.55889 -6.76652 0
M  V30 12011 P 1332.49 4.23843 -7.83734 0
M  V30 12012 O 1332.27 4.19407 -9.29784 0
M  V30 12013 O 1331.7 5.24426 -7.09156 0
M  V30 12014 O 1332.24 2.7935 -7.20758 0
M  V30 12015 C 1333.18 1.7299 -7.50419 0
M  V30 12016 C 1332.45 0.406376 -7.57911 0
M  V30 12017 O 1332.24 -0.0897726 -6.21935 0
M  V30 12018 C 1331.05 0.447224 -8.1878 0
M  V30 12019 O 1330.66 -0.825065 -8.71101 0
M  V30 12020 C 1330.17 0.783801 -6.99623 0
M  V30 12021 C 1330.88 0.0619192 -5.85967 0
M  V30 12022 N 1330.83 0.790462 -4.56202 0
M  V30 12023 H 1333.67 1.93423 -8.4679 0
M  V30 12024 H 1333.94 1.68852 -6.70877 0
M  V30 12025 H 1333.08 -0.289041 -8.15388 0
M  V30 12026 H 1330.42 -0.927006 -5.72848 0
M  V30 12027 H 1330.14 1.86973 -6.82036 0
M  V30 12028 H 1329.15 0.403953 -7.13357 0
M  V30 12029 H 1330.98 1.20599 -8.97534 0
M  V30 12030 P 1329.11 -1.17771 -8.83182 0
M  V30 12031 O 1328.89 -2.07206 -9.98732 0
M  V30 12032 O 1328.32 0.0743816 -8.81969 0
M  V30 12033 O 1328.86 -1.97652 -7.47304 0
M  V30 12034 C 1329.8 -3.01133 -7.08783 0
M  V30 12035 C 1329.07 -4.12613 -6.37049 0
M  V30 12036 O 1328.86 -3.72827 -4.97879 0
M  V30 12037 C 1327.67 -4.45085 -6.88694 0
M  V30 12038 O 1327.28 -5.7877 -6.5624 0
M  V30 12039 C 1326.79 -3.47817 -6.12078 0
M  V30 12040 C 1327.5 -3.39414 -4.77697 0
M  V30 12041 N 1327.45 -2.04615 -4.15333 0
M  V30 12042 H 1330.29 -3.41248 -7.98759 0
M  V30 12043 H 1330.56 -2.5837 -6.41742 0
M  V30 12044 H 1329.7 -5.02657 -6.42673 0
M  V30 12045 P 1325.73 -6.144 -6.45285 0
M  V30 12046 O 1325.51 -7.54673 -6.86199 0
M  V30 12047 O 1324.94 -5.12391 -7.179 0
M  V30 12048 O 1325.48 -5.99158 -4.88404 0
M  V30 12049 C 1326.42 -6.60234 -3.96415 0
M  V30 12050 C 1325.69 -7.08259 -2.72856 0
M  V30 12051 O 1325.48 -5.9427 -1.83651 0
M  V30 12052 C 1324.29 -7.64886 -2.9555 0
M  V30 12053 O 1323.9 -8.53963 -1.90717 0
M  V30 12054 C 1323.41 -6.4116 -2.90739 0
M  V30 12055 C 1324.12 -5.55375 -1.86963 0
M  V30 12056 N 1324.07 -4.09664 -2.15742 0
M  V30 12057 H 1326.91 -7.45574 -4.45629 0
M  V30 12058 H 1327.18 -5.86232 -3.67314 0
M  V30 12059 H 1326.32 -7.84412 -2.24479 0
M  V30 12060 P 1322.35 -8.7635 -1.60911 0
M  V30 12061 O 1322.13 -10.1388 -1.11561 0
M  V30 12062 O 1321.56 -8.36503 -2.79617 0
M  V30 12063 O 1322.1 -7.71806 -0.42951 0
M  V30 12064 C 1323.04 -7.67148 0.673689 0
M  V30 12065 C 1322.31 -7.33374 1.95559 0
M  V30 12066 O 1322.1 -5.88721 2.00726 0
M  V30 12067 C 1320.91 -7.92526 2.10483 0
M  V30 12068 O 1320.52 -8.02971 3.47653 0
M  V30 12069 C 1320.03 -6.89602 1.41652 0
M  V30 12070 C 1320.74 -5.59201 1.75185 0
M  V30 12071 N 1320.69 -4.58235 0.662552 0
M  V30 12072 H 1323.53 -8.65116 0.777161 0
M  V30 12073 H 1323.8 -6.90173 0.474152 0
M  V30 12074 H 1322.94 -7.66548 2.79458 0
M  V30 12075 P 1318.97 -8.03563 3.84925 0
M  V30 12076 O 1318.75 -8.85821 5.0569 0
M  V30 12077 O 1318.18 -8.41101 2.65469 0
M  V30 12078 O 1318.72 -6.4965 4.18908 0
M  V30 12079 C 1319.66 -5.81037 5.05421 0
M  V30 12080 C 1318.93 -4.78366 5.89277 0
M  V30 12081 O 1318.72 -3.58302 5.08433 0
M  V30 12082 C 1317.53 -5.17448 6.36119 0
M  V30 12083 O 1317.14 -4.45271 7.53232 0
M  V30 12084 C 1316.65 -4.74639 5.19936 0
M  V30 12085 C 1317.36 -3.49432 4.70418 0
M  V30 12086 N 1317.31 -3.31776 3.22945 0
M  V30 12087 H 1320.15 -6.54213 5.71376 0
M  V30 12088 H 1320.42 -5.30492 4.44033 0
M  V30 12089 H 1319.56 -4.55889 6.76652 0
M  V30 12090 P 1315.59 -4.23843 7.83734 0
M  V30 12091 O 1315.37 -4.19407 9.29784 0
M  V30 12092 O 1314.8 -5.24426 7.09156 0
M  V30 12093 O 1315.34 -2.7935 7.20758 0
M  V30 12094 C 1316.28 -1.72945 7.50224 0
M  V30 12095 C 1315.55 -0.406376 7.57911 0
M  V30 12096 O 1315.34 0.0897726 6.21935 0
M  V30 12097 C 1314.15 -0.438983 8.18724 0
M  V30 12098 O 1313.76 0.825065 8.71101 0
M  V30 12099 C 1313.27 -0.783689 6.99524 0
M  V30 12100 C 1313.98 -0.0619086 5.85867 0
M  V30 12101 N 1313.93 -0.78573 4.56183 0
M  V30 12102 C 1313.78 -0.0292889 3.41887 0
M  V30 12103 O 1313.69 1.18445 3.4419 0
M  V30 12104 N 1313.74 -0.744061 2.23964 0
M  V30 12105 C 1313.83 -2.10932 2.10362 0
M  V30 12106 C 1313.98 -2.8202 3.34994 0
M  V30 12107 C 1314.03 -2.15547 4.52261 0
M  V30 12108 H 1316.77 -1.93379 8.46595 0
M  V30 12109 H 1317.04 -1.68132 6.70852 0
M  V30 12110 H 1316.18 0.289041 8.15388 0
M  V30 12111 H 1313.52 0.926847 5.72749 0
M  V30 12112 H 1313.24 -1.86973 6.82036 0
M  V30 12113 H 1312.25 -0.403896 7.13257 0
M  V30 12114 H 1314.08 -1.20585 8.97435 0
M  V30 12115 H 1314.15 -2.71231 5.45042 0
M  V30 12116 P 1312.21 1.17771 8.83182 0
M  V30 12117 O 1311.99 2.07206 9.98732 0
M  V30 12118 O 1311.42 -0.0743816 8.81969 0
M  V30 12119 O 1311.96 1.97652 7.47304 0
M  V30 12120 C 1312.9 3.01133 7.08783 0
M  V30 12121 C 1312.17 4.12613 6.37049 0
M  V30 12122 O 1311.96 3.72827 4.97879 0
M  V30 12123 C 1310.77 4.45085 6.88694 0
M  V30 12124 O 1310.38 5.7877 6.5624 0
M  V30 12125 C 1309.89 3.47817 6.12078 0
M  V30 12126 C 1310.6 3.39414 4.77697 0
M  V30 12127 N 1310.55 2.04615 4.15333 0
M  V30 12128 H 1313.39 3.41248 7.98759 0
M  V30 12129 H 1313.66 2.5837 6.41742 0
M  V30 12130 H 1312.8 5.02657 6.42673 0
M  V30 12131 P 1308.83 6.144 6.45285 0
M  V30 12132 O 1308.61 7.54673 6.86199 0
M  V30 12133 O 1308.04 5.12391 7.179 0
M  V30 12134 O 1308.58 5.99158 4.88404 0
M  V30 12135 C 1309.52 6.60234 3.96415 0
M  V30 12136 C 1308.79 7.08259 2.72856 0
M  V30 12137 O 1308.58 5.9427 1.83651 0
M  V30 12138 C 1307.39 7.64886 2.9555 0
M  V30 12139 O 1307 8.53963 1.90717 0
M  V30 12140 C 1306.51 6.4116 2.90739 0
M  V30 12141 C 1307.22 5.55375 1.86963 0
M  V30 12142 N 1307.17 4.09664 2.15742 0
M  V30 12143 H 1310.01 7.45574 4.45629 0
M  V30 12144 H 1310.28 5.86232 3.67314 0
M  V30 12145 H 1309.42 7.84412 2.24479 0
M  V30 12146 P 1305.45 8.7635 1.60911 0
M  V30 12147 O 1305.23 10.1388 1.11561 0
M  V30 12148 O 1304.66 8.36503 2.79617 0
M  V30 12149 O 1305.2 7.71806 0.42951 0
M  V30 12150 C 1306.14 7.67148 -0.673689 0
M  V30 12151 C 1305.41 7.33374 -1.95559 0
M  V30 12152 O 1305.2 5.88721 -2.00726 0
M  V30 12153 C 1304.01 7.92526 -2.10483 0
M  V30 12154 O 1303.62 8.02971 -3.47653 0
M  V30 12155 C 1303.13 6.89602 -1.41652 0
M  V30 12156 C 1303.84 5.59201 -1.75185 0
M  V30 12157 N 1303.79 4.58301 -0.657969 0
M  V30 12158 H 1306.63 8.65116 -0.777161 0
M  V30 12159 H 1306.9 6.9022 -0.46725 0
M  V30 12160 H 1306.04 7.66548 -2.79458 0
M  V30 12161 H 1303.38 5.16165 -2.65183 0
M  V30 12162 H 1303.1 7.06433 -0.329384 0
M  V30 12163 H 1302.11 6.90926 -1.82021 0
M  V30 12164 H 1303.94 8.90873 -1.62657 0
M  V30 12165 P 1302.07 8.03563 -3.84925 0
M  V30 12166 O 1301.85 8.85821 -5.0569 0
M  V30 12167 O 1301.28 8.41101 -2.65469 0
M  V30 12168 O 1301.82 6.4965 -4.18908 0
M  V30 12169 C 1302.76 5.81037 -5.05421 0
M  V30 12170 C 1302.03 4.78366 -5.89277 0
M  V30 12171 O 1301.82 3.58302 -5.08433 0
M  V30 12172 C 1300.63 5.17448 -6.36119 0
M  V30 12173 O 1300.24 4.45271 -7.53232 0
M  V30 12174 C 1299.75 4.74639 -5.19936 0
M  V30 12175 C 1300.46 3.49432 -4.70418 0
M  V30 12176 N 1300.41 3.31776 -3.22945 0
M  V30 12177 H 1303.25 6.54213 -5.71376 0
M  V30 12178 H 1303.52 5.30492 -4.44033 0
M  V30 12179 H 1302.66 4.55889 -6.76652 0
M  V30 12180 P 1298.69 4.23843 -7.83734 0
M  V30 12181 O 1298.47 4.19407 -9.29784 0
M  V30 12182 O 1297.9 5.24426 -7.09156 0
M  V30 12183 O 1298.44 2.7935 -7.20758 0
M  V30 12184 C 1299.38 1.7299 -7.50419 0
M  V30 12185 C 1298.65 0.406376 -7.57911 0
M  V30 12186 O 1298.44 -0.0897726 -6.21935 0
M  V30 12187 C 1297.25 0.447224 -8.1878 0
M  V30 12188 O 1296.86 -0.825065 -8.71101 0
M  V30 12189 C 1296.37 0.783801 -6.99623 0
M  V30 12190 C 1297.08 0.0619192 -5.85967 0
M  V30 12191 N 1297.03 0.790462 -4.56202 0
M  V30 12192 H 1299.87 1.93423 -8.4679 0
M  V30 12193 H 1300.14 1.68852 -6.70877 0
M  V30 12194 H 1299.28 -0.289041 -8.15388 0
M  V30 12195 H 1296.62 -0.927006 -5.72848 0
M  V30 12196 H 1296.34 1.86973 -6.82036 0
M  V30 12197 H 1295.35 0.403953 -7.13357 0
M  V30 12198 H 1297.18 1.20599 -8.97534 0
M  V30 12199 P 1295.31 -1.17771 -8.83182 0
M  V30 12200 O 1295.09 -2.07206 -9.98732 0
M  V30 12201 O 1294.52 0.0743816 -8.81969 0
M  V30 12202 O 1295.06 -1.97652 -7.47304 0
M  V30 12203 C 1296 -3.01133 -7.08783 0
M  V30 12204 C 1295.27 -4.12613 -6.37049 0
M  V30 12205 O 1295.06 -3.72827 -4.97879 0
M  V30 12206 C 1293.87 -4.45085 -6.88694 0
M  V30 12207 O 1293.48 -5.7877 -6.5624 0
M  V30 12208 C 1292.99 -3.47817 -6.12078 0
M  V30 12209 C 1293.7 -3.39414 -4.77697 0
M  V30 12210 N 1293.65 -2.04615 -4.15333 0
M  V30 12211 H 1296.49 -3.41248 -7.98759 0
M  V30 12212 H 1296.76 -2.5837 -6.41742 0
M  V30 12213 H 1295.9 -5.02657 -6.42673 0
M  V30 12214 P 1291.93 -6.144 -6.45285 0
M  V30 12215 O 1291.71 -7.54673 -6.86199 0
M  V30 12216 O 1291.14 -5.12391 -7.179 0
M  V30 12217 O 1291.68 -5.99158 -4.88404 0
M  V30 12218 C 1292.62 -6.60234 -3.96415 0
M  V30 12219 C 1291.89 -7.08259 -2.72856 0
M  V30 12220 O 1291.68 -5.9427 -1.83651 0
M  V30 12221 C 1290.49 -7.64886 -2.9555 0
M  V30 12222 O 1290.1 -8.53963 -1.90717 0
M  V30 12223 C 1289.61 -6.4116 -2.90739 0
M  V30 12224 C 1290.32 -5.55375 -1.86963 0
M  V30 12225 N 1290.27 -4.09664 -2.15742 0
M  V30 12226 H 1293.11 -7.45574 -4.45629 0
M  V30 12227 H 1293.38 -5.86232 -3.67314 0
M  V30 12228 H 1292.52 -7.84412 -2.24479 0
M  V30 12229 P 1288.55 -8.7635 -1.60911 0
M  V30 12230 O 1288.33 -10.1388 -1.11561 0
M  V30 12231 O 1287.76 -8.36503 -2.79617 0
M  V30 12232 O 1288.3 -7.71806 -0.42951 0
M  V30 12233 C 1289.24 -7.67148 0.673689 0
M  V30 12234 C 1288.51 -7.33374 1.95559 0
M  V30 12235 O 1288.3 -5.88721 2.00726 0
M  V30 12236 C 1287.11 -7.92526 2.10483 0
M  V30 12237 O 1286.72 -8.02971 3.47653 0
M  V30 12238 C 1286.23 -6.89602 1.41652 0
M  V30 12239 C 1286.94 -5.59201 1.75185 0
M  V30 12240 N 1286.89 -4.58235 0.662552 0
M  V30 12241 H 1289.73 -8.65116 0.777161 0
M  V30 12242 H 1290 -6.90173 0.474152 0
M  V30 12243 H 1289.14 -7.66548 2.79458 0
M  V30 12244 P 1285.17 -8.03563 3.84925 0
M  V30 12245 O 1284.95 -8.85821 5.0569 0
M  V30 12246 O 1284.38 -8.41101 2.65469 0
M  V30 12247 O 1284.92 -6.4965 4.18908 0
M  V30 12248 C 1285.86 -5.81037 5.05421 0
M  V30 12249 C 1285.13 -4.78366 5.89277 0
M  V30 12250 O 1284.92 -3.58302 5.08433 0
M  V30 12251 C 1283.73 -5.17448 6.36119 0
M  V30 12252 O 1283.34 -4.45271 7.53232 0
M  V30 12253 C 1282.85 -4.74639 5.19936 0
M  V30 12254 C 1283.56 -3.49432 4.70418 0
M  V30 12255 N 1283.51 -3.31776 3.22945 0
M  V30 12256 H 1286.35 -6.54213 5.71376 0
M  V30 12257 H 1286.62 -5.30492 4.44033 0
M  V30 12258 H 1285.76 -4.55889 6.76652 0
M  V30 12259 P 1281.79 -4.23843 7.83734 0
M  V30 12260 O 1281.57 -4.19407 9.29784 0
M  V30 12261 O 1281 -5.24426 7.09156 0
M  V30 12262 O 1281.54 -2.7935 7.20758 0
M  V30 12263 C 1282.48 -1.7299 7.50419 0
M  V30 12264 C 1281.75 -0.406376 7.57911 0
M  V30 12265 O 1281.54 0.0897726 6.21935 0
M  V30 12266 C 1280.35 -0.447224 8.1878 0
M  V30 12267 O 1279.96 0.825065 8.71101 0
M  V30 12268 C 1279.47 -0.783801 6.99623 0
M  V30 12269 C 1280.18 -0.0619192 5.85967 0
M  V30 12270 N 1280.13 -0.7859 4.56281 0
M  V30 12271 H 1282.97 -1.93423 8.4679 0
M  V30 12272 H 1283.24 -1.68181 6.71046 0
M  V30 12273 H 1282.38 0.289041 8.15388 0
M  V30 12274 P 1278.41 1.17771 8.83182 0
M  V30 12275 O 1278.19 2.07206 9.98732 0
M  V30 12276 O 1277.62 -0.0743816 8.81969 0
M  V30 12277 O 1278.16 1.97652 7.47304 0
M  V30 12278 C 1279.1 3.01133 7.08783 0
M  V30 12279 C 1278.37 4.12613 6.37049 0
M  V30 12280 O 1278.16 3.72827 4.97879 0
M  V30 12281 C 1276.97 4.45085 6.88694 0
M  V30 12282 O 1276.58 5.7877 6.5624 0
M  V30 12283 C 1276.09 3.47817 6.12078 0
M  V30 12284 C 1276.8 3.39414 4.77697 0
M  V30 12285 N 1276.75 2.04615 4.15333 0
M  V30 12286 H 1279.59 3.41248 7.98759 0
M  V30 12287 H 1279.86 2.5837 6.41742 0
M  V30 12288 H 1279 5.02657 6.42673 0
M  V30 12289 P 1275.03 6.144 6.45285 0
M  V30 12290 O 1274.81 7.54673 6.86199 0
M  V30 12291 O 1274.24 5.12391 7.179 0
M  V30 12292 O 1274.78 5.99158 4.88404 0
M  V30 12293 C 1275.72 6.60234 3.96415 0
M  V30 12294 C 1274.99 7.08259 2.72856 0
M  V30 12295 O 1274.78 5.9427 1.83651 0
M  V30 12296 C 1273.59 7.64886 2.9555 0
M  V30 12297 O 1273.2 8.53963 1.90717 0
M  V30 12298 C 1272.71 6.4116 2.90739 0
M  V30 12299 C 1273.42 5.55375 1.86963 0
M  V30 12300 N 1273.37 4.09664 2.15742 0
M  V30 12301 C 1273.45 3.44381 3.37233 0
M  V30 12302 N 1273.37 2.14131 3.28347 0
M  V30 12303 C 1273.23 1.90247 1.91588 0
M  V30 12304 C 1273.1 0.683992 1.20892 0
M  V30 12305 N 1272.98 0.903396 -0.173998 0
M  V30 12306 C 1272.98 2.14171 -0.784879 0
M  V30 12307 N 1272.85 2.1435 -2.11317 0
M  V30 12308 N 1273.11 3.28784 -0.119316 0
M  V30 12309 C 1273.23 3.0977 1.22194 0
M  V30 12310 H 1276.21 7.45574 4.45629 0
M  V30 12311 H 1276.48 5.86232 3.67314 0
M  V30 12312 H 1275.62 7.84412 2.24479 0
M  V30 12313 P 1271.65 8.7635 1.60911 0
M  V30 12314 O 1271.43 10.1388 1.11561 0
M  V30 12315 O 1270.86 8.36503 2.79617 0
M  V30 12316 O 1271.4 7.71806 0.42951 0
M  V30 12317 C 1272.34 7.66948 -0.673514 0
M  V30 12318 C 1271.61 7.33374 -1.95559 0
M  V30 12319 O 1271.4 5.88721 -2.00726 0
M  V30 12320 C 1270.21 7.92218 -2.1125 0
M  V30 12321 O 1269.82 8.02971 -3.47653 0
M  V30 12322 C 1269.33 6.89504 -1.41631 0
M  V30 12323 C 1270.04 5.59106 -1.75155 0
M  V30 12324 N 1269.99 4.58136 -0.662409 0
M  V30 12325 C 1269.84 3.26059 -1.02863 0
M  V30 12326 O 1269.75 2.90743 -2.19009 0
M  V30 12327 N 1269.8 2.35995 0.0155585 0
M  V30 12328 C 1269.89 2.65248 1.35603 0
M  V30 12329 C 1270.04 4.05747 1.64698 0
M  V30 12330 C 1270.09 4.96734 0.652411 0
M  V30 12331 H 1272.83 8.64917 -0.776982 0
M  V30 12332 H 1273.1 6.89974 -0.474015 0
M  V30 12333 H 1272.24 7.66548 -2.79458 0
M  V30 12334 H 1269.58 5.16076 -2.65138 0
M  V30 12335 H 1269.3 7.06433 -0.329384 0
M  V30 12336 H 1268.31 6.90829 -1.81996 0
M  V30 12337 H 1270.14 8.90774 -1.62639 0
M  V30 12338 H 1270.21 6.02181 0.895285 0
M  V30 12339 P 1268.27 8.03563 -3.84925 0
M  V30 12340 O 1268.05 8.85821 -5.0569 0
M  V30 12341 O 1267.48 8.41101 -2.65469 0
M  V30 12342 O 1268.02 6.4965 -4.18908 0
M  V30 12343 C 1268.96 5.81037 -5.05421 0
M  V30 12344 C 1268.23 4.78366 -5.89277 0
M  V30 12345 O 1268.02 3.58302 -5.08433 0
M  V30 12346 C 1266.83 5.17448 -6.36119 0
M  V30 12347 O 1266.44 4.45271 -7.53232 0
M  V30 12348 C 1265.95 4.74639 -5.19936 0
M  V30 12349 C 1266.66 3.49432 -4.70418 0
M  V30 12350 N 1266.61 3.32099 -3.22613 0
M  V30 12351 H 1269.45 6.54213 -5.71376 0
M  V30 12352 H 1269.72 5.30936 -4.43503 0
M  V30 12353 H 1268.86 4.55889 -6.76652 0
M  V30 12354 H 1266.2 2.61715 -5.17932 0
M  V30 12355 H 1265.92 5.52155 -4.41878 0
M  V30 12356 H 1264.93 4.51981 -5.53374 0
M  V30 12357 H 1266.76 6.25124 -6.55234 0
M  V30 12358 P 1264.89 4.23843 -7.83734 0
M  V30 12359 O 1264.67 4.19407 -9.29784 0
M  V30 12360 O 1264.1 5.24426 -7.09156 0
M  V30 12361 O 1264.64 2.7935 -7.20758 0
M  V30 12362 C 1265.58 1.7299 -7.50419 0
M  V30 12363 C 1264.85 0.406376 -7.57911 0
M  V30 12364 O 1264.64 -0.0897726 -6.21935 0
M  V30 12365 C 1263.45 0.447224 -8.1878 0
M  V30 12366 O 1263.06 -0.825065 -8.71101 0
M  V30 12367 C 1262.57 0.783801 -6.99623 0
M  V30 12368 C 1263.28 0.0619192 -5.85967 0
M  V30 12369 N 1263.23 0.790462 -4.56202 0
M  V30 12370 C 1263.31 2.13895 -4.34171 0
M  V30 12371 N 1263.24 2.46449 -3.08687 0
M  V30 12372 C 1263.09 1.2525 -2.43697 0
M  V30 12373 C 1262.96 0.914535 -1.07318 0
M  V30 12374 N 1262.95 1.80782 -0.0887348 0
M  V30 12375 N 1262.84 -0.386745 -0.768133 0
M  V30 12376 C 1262.85 -1.28096 -1.75159 0
M  V30 12377 N 1262.97 -1.09708 -3.04861 0
M  V30 12378 C 1263.09 0.214857 -3.32306 0
M  V30 12379 H 1266.07 1.93423 -8.4679 0
M  V30 12380 H 1266.34 1.68852 -6.70877 0
M  V30 12381 H 1265.48 -0.289041 -8.15388 0
M  V30 12382 H 1262.82 -0.927006 -5.72848 0
M  V30 12383 H 1262.54 1.86973 -6.82036 0
M  V30 12384 H 1261.55 0.403953 -7.13357 0
M  V30 12385 H 1263.38 1.20599 -8.97534 0
M  V30 12386 H 1263.42 2.86846 -5.14318 0
M  V30 12387 H 1263.04 2.81082 -0.302037 0
M  V30 12388 H 1262.85 1.49688 0.889064 0
M  V30 12389 H 1262.75 -2.31317 -1.43855 0
M  V30 12390 P 1261.51 -1.17771 -8.83182 0
M  V30 12391 O 1261.29 -2.07206 -9.98732 0
M  V30 12392 O 1260.72 0.0743816 -8.81969 0
M  V30 12393 O 1261.26 -1.97678 -7.474 0
M  V30 12394 C 1262.2 -3.01133 -7.08783 0
M  V30 12395 C 1261.47 -4.1203 -6.37546 0
M  V30 12396 O 1261.26 -3.72887 -4.9796 0
M  V30 12397 C 1260.07 -4.45085 -6.88694 0
M  V30 12398 O 1259.68 -5.78836 -6.56315 0
M  V30 12399 C 1259.19 -3.47817 -6.12078 0
M  V30 12400 C 1259.9 -3.39414 -4.77697 0
M  V30 12401 N 1259.85 -2.04615 -4.15333 0
M  V30 12402 C 1259.7 -1.96929 -2.77162 0
M  V30 12403 O 1259.61 -3.02017 -2.12006 0
M  V30 12404 N 1259.65 -0.55485 -2.24237 0
M  V30 12405 C 1259.75 0.367808 -2.9169 0
M  V30 12406 N 1259.7 1.53426 -2.29427 0
M  V30 12407 C 1259.9 0.319148 -4.33828 0
M  V30 12408 C 1259.95 -0.920672 -4.90433 0
M  V30 12409 H 1262.69 -3.41209 -7.98667 0
M  V30 12410 H 1262.96 -2.5837 -6.41742 0
M  V30 12411 H 1262.1 -5.02718 -6.42752 0
M  V30 12412 H 1259.44 -4.11779 -4.09026 0
M  V30 12413 H 1259.16 -2.49661 -6.61772 0
M  V30 12414 H 1258.17 -3.86674 -6.00946 0
M  V30 12415 H 1260 -4.29991 -7.97006 0
M  V30 12416 H 1260.08 -1.00589 -5.98303 0
M  V30 12417 H 1259.97 1.22639 -4.93799 0
M  V30 12418 H 1259.59 1.56819 -1.27167 0
M  V30 12419 H 1259.78 2.41062 -2.83063 0
M  V30 12420 P 1258.13 -6.144 -6.45285 0
M  V30 12421 O 1257.91 -7.54673 -6.86199 0
M  V30 12422 O 1257.34 -5.12391 -7.179 0
M  V30 12423 O 1257.88 -5.99158 -4.88404 0
M  V30 12424 C 1258.82 -6.60234 -3.96415 0
M  V30 12425 C 1258.09 -7.08259 -2.72856 0
M  V30 12426 O 1257.88 -5.9427 -1.83651 0
M  V30 12427 C 1256.69 -7.64886 -2.9555 0
M  V30 12428 O 1256.3 -8.53963 -1.90717 0
M  V30 12429 C 1255.81 -6.4116 -2.90739 0
M  V30 12430 C 1256.52 -5.55375 -1.86963 0
M  V30 12431 N 1256.47 -4.09664 -2.15742 0
M  V30 12432 H 1259.31 -7.45574 -4.45629 0
M  V30 12433 H 1259.58 -5.86232 -3.67314 0
M  V30 12434 H 1258.72 -7.84412 -2.24479 0
M  V30 12435 P 1254.75 -8.7635 -1.60911 0
M  V30 12436 O 1254.53 -10.1388 -1.11561 0
M  V30 12437 O 1253.96 -8.36503 -2.79617 0
M  V30 12438 O 1254.5 -7.71806 -0.42951 0
M  V30 12439 C 1255.44 -7.66948 0.673514 0
M  V30 12440 C 1254.71 -7.33374 1.95559 0
M  V30 12441 O 1254.5 -5.88721 2.00726 0
M  V30 12442 C 1253.31 -7.92218 2.1125 0
M  V30 12443 O 1252.92 -8.02971 3.47653 0
M  V30 12444 C 1252.43 -6.89504 1.41631 0
M  V30 12445 C 1253.14 -5.59106 1.75155 0
M  V30 12446 N 1253.09 -4.58136 0.662409 0
M  V30 12447 C 1252.94 -3.26059 1.02863 0
M  V30 12448 O 1252.85 -2.90743 2.19009 0
M  V30 12449 N 1252.9 -2.35995 -0.0155585 0
M  V30 12450 C 1252.99 -2.65248 -1.35603 0
M  V30 12451 C 1253.14 -4.05747 -1.64698 0
M  V30 12452 C 1253.19 -4.96734 -0.652411 0
M  V30 12453 H 1255.93 -8.64917 0.776982 0
M  V30 12454 H 1256.2 -6.89974 0.474015 0
M  V30 12455 H 1255.34 -7.66548 2.79458 0
M  V30 12456 H 1252.68 -5.16076 2.65138 0
M  V30 12457 H 1252.4 -7.06433 0.329384 0
M  V30 12458 H 1251.41 -6.90829 1.81996 0
M  V30 12459 H 1253.24 -8.90774 1.62639 0
M  V30 12460 H 1253.31 -6.02181 -0.895285 0
M  V30 12461 P 1251.37 -8.03563 3.84925 0
M  V30 12462 O 1251.15 -8.85821 5.0569 0
M  V30 12463 O 1250.58 -8.41101 2.65469 0
M  V30 12464 O 1251.12 -6.4965 4.18908 0
M  V30 12465 C 1252.06 -5.81037 5.05421 0
M  V30 12466 C 1251.33 -4.78366 5.89277 0
M  V30 12467 O 1251.12 -3.58302 5.08433 0
M  V30 12468 C 1249.93 -5.17448 6.36119 0
M  V30 12469 O 1249.54 -4.45271 7.53232 0
M  V30 12470 C 1249.05 -4.74639 5.19936 0
M  V30 12471 C 1249.76 -3.49432 4.70418 0
M  V30 12472 N 1249.71 -3.32099 3.22613 0
M  V30 12473 C 1249.79 -4.28245 2.25527 0
M  V30 12474 N 1249.72 -3.80823 1.04874 0
M  V30 12475 C 1249.57 -2.44571 1.23535 0
M  V30 12476 C 1249.44 -1.37068 0.330675 0
M  V30 12477 N 1249.43 -1.51472 -0.990824 0
M  V30 12478 N 1249.32 -0.138614 0.848756 0
M  V30 12479 C 1249.33 0.00675923 2.16999 0
M  V30 12480 N 1249.45 -0.904372 3.11122 0
M  V30 12481 C 1249.57 -2.12707 2.56212 0
M  V30 12482 H 1252.55 -6.54213 5.71376 0
M  V30 12483 H 1252.82 -5.30936 4.43503 0
M  V30 12484 H 1251.96 -4.55889 6.76652 0
M  V30 12485 H 1249.3 -2.61715 5.17932 0
M  V30 12486 H 1249.02 -5.52155 4.41878 0
M  V30 12487 H 1248.03 -4.51981 5.53374 0
M  V30 12488 H 1249.86 -6.25124 6.55234 0
M  V30 12489 H 1249.9 -5.34372 2.47488 0
M  V30 12490 H 1249.52 -2.45153 -1.4078 0
M  V30 12491 H 1249.33 -0.688422 -1.59911 0
M  V30 12492 H 1249.23 1.02584 2.52346 0
M  V30 12493 P 1247.99 -4.23843 7.83734 0
M  V30 12494 O 1247.77 -4.19407 9.29784 0
M  V30 12495 O 1247.2 -5.24426 7.09156 0
M  V30 12496 O 1247.74 -2.7935 7.20758 0
M  V30 12497 C 1248.68 -1.7299 7.50419 0
M  V30 12498 C 1247.95 -0.406376 7.57911 0
M  V30 12499 O 1247.74 0.0897726 6.21935 0
M  V30 12500 C 1246.55 -0.447224 8.1878 0
M  V30 12501 O 1246.16 0.825065 8.71101 0
M  V30 12502 C 1245.67 -0.783801 6.99623 0
M  V30 12503 C 1246.38 -0.0619192 5.85967 0
M  V30 12504 N 1246.33 -0.7859 4.56281 0
M  V30 12505 H 1249.17 -1.93423 8.4679 0
M  V30 12506 H 1249.44 -1.68181 6.71046 0
M  V30 12507 H 1248.58 0.289041 8.15388 0
M  V30 12508 P 1244.61 1.17771 8.83182 0
M  V30 12509 O 1244.39 2.07206 9.98732 0
M  V30 12510 O 1243.82 -0.0743816 8.81969 0
M  V30 12511 O 1244.36 1.97652 7.47304 0
M  V30 12512 C 1245.3 3.01133 7.08783 0
M  V30 12513 C 1244.57 4.12613 6.37049 0
M  V30 12514 O 1244.36 3.72827 4.97879 0
M  V30 12515 C 1243.17 4.45085 6.88694 0
M  V30 12516 O 1242.78 5.7877 6.5624 0
M  V30 12517 C 1242.29 3.47817 6.12078 0
M  V30 12518 C 1243 3.39414 4.77697 0
M  V30 12519 N 1242.95 2.04615 4.15333 0
M  V30 12520 H 1245.79 3.41248 7.98759 0
M  V30 12521 H 1246.06 2.5837 6.41742 0
M  V30 12522 H 1245.2 5.02657 6.42673 0
M  V30 12523 P 1241.23 6.144 6.45285 0
M  V30 12524 O 1241.01 7.54673 6.86199 0
M  V30 12525 O 1240.44 5.12391 7.179 0
M  V30 12526 O 1240.98 5.99158 4.88404 0
M  V30 12527 C 1241.92 6.60234 3.96415 0
M  V30 12528 C 1241.19 7.08259 2.72856 0
M  V30 12529 O 1240.98 5.9427 1.83651 0
M  V30 12530 C 1239.79 7.64886 2.9555 0
M  V30 12531 O 1239.4 8.53963 1.90717 0
M  V30 12532 C 1238.91 6.4116 2.90739 0
M  V30 12533 C 1239.62 5.55375 1.86963 0
M  V30 12534 N 1239.57 4.09664 2.15742 0
M  V30 12535 H 1242.41 7.45574 4.45629 0
M  V30 12536 H 1242.68 5.86232 3.67314 0
M  V30 12537 H 1241.82 7.84412 2.24479 0
M  V30 12538 P 1237.85 8.7635 1.60911 0
M  V30 12539 O 1237.63 10.1388 1.11561 0
M  V30 12540 O 1237.06 8.36503 2.79617 0
M  V30 12541 O 1237.6 7.71806 0.42951 0
M  V30 12542 C 1238.54 7.67148 -0.673689 0
M  V30 12543 C 1237.81 7.33374 -1.95559 0
M  V30 12544 O 1237.6 5.88721 -2.00726 0
M  V30 12545 C 1236.41 7.92526 -2.10483 0
M  V30 12546 O 1236.02 8.02971 -3.47653 0
M  V30 12547 C 1235.53 6.89602 -1.41652 0
M  V30 12548 C 1236.24 5.59201 -1.75185 0
M  V30 12549 N 1236.19 4.58235 -0.662552 0
M  V30 12550 H 1239.03 8.65116 -0.777161 0
M  V30 12551 H 1239.3 6.90173 -0.474152 0
M  V30 12552 H 1238.44 7.66548 -2.79458 0
M  V30 12553 P 1234.47 8.03563 -3.84925 0
M  V30 12554 O 1234.25 8.85821 -5.0569 0
M  V30 12555 O 1233.68 8.41101 -2.65469 0
M  V30 12556 O 1234.22 6.4965 -4.18908 0
M  V30 12557 C 1235.16 5.81037 -5.05421 0
M  V30 12558 C 1234.43 4.78366 -5.89277 0
M  V30 12559 O 1234.22 3.58302 -5.08433 0
M  V30 12560 C 1233.03 5.17448 -6.36119 0
M  V30 12561 O 1232.64 4.45271 -7.53232 0
M  V30 12562 C 1232.15 4.74639 -5.19936 0
M  V30 12563 C 1232.86 3.49432 -4.70418 0
M  V30 12564 N 1232.81 3.32099 -3.22613 0
M  V30 12565 H 1235.65 6.54213 -5.71376 0
M  V30 12566 H 1235.92 5.30936 -4.43503 0
M  V30 12567 H 1235.06 4.55889 -6.76652 0
M  V30 12568 H 1232.4 2.61715 -5.17932 0
M  V30 12569 H 1232.12 5.52155 -4.41878 0
M  V30 12570 H 1231.13 4.51981 -5.53374 0
M  V30 12571 H 1232.96 6.25124 -6.55234 0
M  V30 12572 P 1231.09 4.23843 -7.83734 0
M  V30 12573 O 1230.87 4.19407 -9.29784 0
M  V30 12574 O 1230.3 5.24426 -7.09156 0
M  V30 12575 O 1230.84 2.7935 -7.20758 0
M  V30 12576 C 1231.78 1.7299 -7.50419 0
M  V30 12577 C 1231.05 0.406376 -7.57911 0
M  V30 12578 O 1230.84 -0.0897726 -6.21935 0
M  V30 12579 C 1229.65 0.447224 -8.1878 0
M  V30 12580 O 1229.26 -0.825065 -8.71101 0
M  V30 12581 C 1228.77 0.783801 -6.99623 0
M  V30 12582 C 1229.48 0.0619192 -5.85967 0
M  V30 12583 N 1229.43 0.7859 -4.56281 0
M  V30 12584 H 1232.27 1.93423 -8.4679 0
M  V30 12585 H 1232.54 1.68181 -6.71046 0
M  V30 12586 H 1231.68 -0.289041 -8.15388 0
M  V30 12587 P 1227.71 -1.17771 -8.83182 0
M  V30 12588 O 1227.49 -2.07206 -9.98732 0
M  V30 12589 O 1226.92 0.0743816 -8.81969 0
M  V30 12590 O 1227.46 -1.97652 -7.47304 0
M  V30 12591 C 1228.4 -3.01133 -7.08783 0
M  V30 12592 C 1227.67 -4.12613 -6.37049 0
M  V30 12593 O 1227.46 -3.72827 -4.97879 0
M  V30 12594 C 1226.27 -4.45085 -6.88694 0
M  V30 12595 O 1225.88 -5.7877 -6.5624 0
M  V30 12596 C 1225.39 -3.47817 -6.12078 0
M  V30 12597 C 1226.1 -3.39414 -4.77697 0
M  V30 12598 N 1226.05 -2.04615 -4.15333 0
M  V30 12599 H 1228.89 -3.41248 -7.98759 0
M  V30 12600 H 1229.16 -2.5837 -6.41742 0
M  V30 12601 H 1228.3 -5.02657 -6.42673 0
M  V30 12602 P 1224.33 -6.144 -6.45285 0
M  V30 12603 O 1224.11 -7.54673 -6.86199 0
M  V30 12604 O 1223.54 -5.12391 -7.179 0
M  V30 12605 O 1224.08 -5.99158 -4.88404 0
M  V30 12606 C 1225.02 -6.60234 -3.96415 0
M  V30 12607 C 1224.29 -7.08259 -2.72856 0
M  V30 12608 O 1224.08 -5.9427 -1.83651 0
M  V30 12609 C 1222.89 -7.64886 -2.9555 0
M  V30 12610 O 1222.5 -8.53963 -1.90717 0
M  V30 12611 C 1222.01 -6.4116 -2.90739 0
M  V30 12612 C 1222.72 -5.55375 -1.86963 0
M  V30 12613 N 1222.67 -4.09664 -2.15742 0
M  V30 12614 H 1225.51 -7.45574 -4.45629 0
M  V30 12615 H 1225.78 -5.86232 -3.67314 0
M  V30 12616 H 1224.92 -7.84412 -2.24479 0
M  V30 12617 P 1220.95 -8.7635 -1.60911 0
M  V30 12618 O 1220.73 -10.1388 -1.11561 0
M  V30 12619 O 1220.16 -8.36503 -2.79617 0
M  V30 12620 O 1220.7 -7.71806 -0.42951 0
M  V30 12621 C 1221.64 -7.67148 0.673689 0
M  V30 12622 C 1220.91 -7.33374 1.95559 0
M  V30 12623 O 1220.7 -5.88721 2.00726 0
M  V30 12624 C 1219.51 -7.92526 2.10483 0
M  V30 12625 O 1219.12 -8.02971 3.47653 0
M  V30 12626 C 1218.63 -6.89602 1.41652 0
M  V30 12627 C 1219.34 -5.59201 1.75185 0
M  V30 12628 N 1219.29 -4.58301 0.657969 0
M  V30 12629 C 1219.37 -4.79019 -0.692603 0
M  V30 12630 N 1219.3 -3.69736 -1.38998 0
M  V30 12631 C 1219.15 -2.70474 -0.438135 0
M  V30 12632 C 1219.02 -1.30327 -0.538142 0
M  V30 12633 N 1219.01 -0.64304 -1.69192 0
M  V30 12634 N 1218.9 -0.611027 0.605183 0
M  V30 12635 C 1218.91 -1.27002 1.75953 0
M  V30 12636 N 1219.03 -2.56038 1.98546 0
M  V30 12637 C 1219.15 -3.22681 0.822541 0
M  V30 12638 H 1222.13 -8.65116 0.777161 0
M  V30 12639 H 1222.4 -6.9022 0.46725 0
M  V30 12640 H 1221.54 -7.66548 2.79458 0
M  V30 12641 H 1218.88 -5.16165 2.65183 0
M  V30 12642 H 1218.6 -7.06433 0.329384 0
M  V30 12643 H 1217.61 -6.90926 1.82021 0
M  V30 12644 H 1219.44 -8.90873 1.62657 0
M  V30 12645 H 1219.48 -5.77785 -1.13874 0
M  V30 12646 H 1219.1 -1.15585 -2.57991 0
M  V30 12647 H 1218.91 0.382989 -1.69835 0
M  V30 12648 H 1218.81 -0.653331 2.64449 0
M  V30 12649 P 1217.57 -8.03563 3.84925 0
M  V30 12650 O 1217.35 -8.85821 5.0569 0
M  V30 12651 O 1216.78 -8.41101 2.65469 0
M  V30 12652 O 1217.32 -6.4965 4.18908 0
M  V30 12653 C 1218.26 -5.81037 5.05421 0
M  V30 12654 C 1217.53 -4.78366 5.89277 0
M  V30 12655 O 1217.32 -3.58302 5.08433 0
M  V30 12656 C 1216.13 -5.17448 6.36119 0
M  V30 12657 O 1215.74 -4.45271 7.53232 0
M  V30 12658 C 1215.25 -4.74639 5.19936 0
M  V30 12659 C 1215.96 -3.49432 4.70418 0
M  V30 12660 N 1215.91 -3.32099 3.22613 0
M  V30 12661 H 1218.75 -6.54213 5.71376 0
M  V30 12662 H 1219.02 -5.30936 4.43503 0
M  V30 12663 H 1218.16 -4.55889 6.76652 0
M  V30 12664 H 1215.5 -2.61715 5.17932 0
M  V30 12665 H 1215.22 -5.52155 4.41878 0
M  V30 12666 H 1214.23 -4.51981 5.53374 0
M  V30 12667 H 1216.06 -6.25124 6.55234 0
M  V30 12668 P 1214.19 -4.23843 7.83734 0
M  V30 12669 O 1213.97 -4.19407 9.29784 0
M  V30 12670 O 1213.4 -5.24426 7.09156 0
M  V30 12671 O 1213.94 -2.7935 7.20758 0
M  V30 12672 C 1214.88 -1.7299 7.50419 0
M  V30 12673 C 1214.15 -0.406376 7.57911 0
M  V30 12674 O 1213.94 0.0897726 6.21935 0
M  V30 12675 C 1212.75 -0.447224 8.1878 0
M  V30 12676 O 1212.36 0.825065 8.71101 0
M  V30 12677 C 1211.87 -0.783801 6.99623 0
M  V30 12678 C 1212.58 -0.0619192 5.85967 0
M  V30 12679 N 1212.53 -0.790462 4.56202 0
M  V30 12680 H 1215.37 -1.93423 8.4679 0
M  V30 12681 H 1215.64 -1.68852 6.70877 0
M  V30 12682 H 1214.78 0.289041 8.15388 0
M  V30 12683 H 1212.12 0.927006 5.72848 0
M  V30 12684 H 1211.84 -1.86973 6.82036 0
M  V30 12685 H 1210.85 -0.403953 7.13357 0
M  V30 12686 H 1212.68 -1.20599 8.97534 0
M  V30 12687 P 1210.81 1.17771 8.83182 0
M  V30 12688 O 1210.59 2.07206 9.98732 0
M  V30 12689 O 1210.02 -0.0743816 8.81969 0
M  V30 12690 O 1210.56 1.97652 7.47304 0
M  V30 12691 C 1211.5 3.01133 7.08783 0
M  V30 12692 C 1210.77 4.12613 6.37049 0
M  V30 12693 O 1210.56 3.72827 4.97879 0
M  V30 12694 C 1209.37 4.45085 6.88694 0
M  V30 12695 O 1208.98 5.7877 6.5624 0
M  V30 12696 C 1208.49 3.47817 6.12078 0
M  V30 12697 C 1209.2 3.39414 4.77697 0
M  V30 12698 N 1209.15 2.04615 4.15333 0
M  V30 12699 H 1211.99 3.41248 7.98759 0
M  V30 12700 H 1212.26 2.5837 6.41742 0
M  V30 12701 H 1211.4 5.02657 6.42673 0
M  V30 12702 P 1207.43 6.144 6.45285 0
M  V30 12703 O 1207.21 7.54673 6.86199 0
M  V30 12704 O 1206.64 5.12391 7.179 0
M  V30 12705 O 1207.18 5.99158 4.88404 0
M  V30 12706 C 1208.12 6.60234 3.96415 0
M  V30 12707 C 1207.39 7.08259 2.72856 0
M  V30 12708 O 1207.18 5.9427 1.83651 0
M  V30 12709 C 1205.99 7.64886 2.9555 0
M  V30 12710 O 1205.6 8.53963 1.90717 0
M  V30 12711 C 1205.11 6.4116 2.90739 0
M  V30 12712 C 1205.82 5.55375 1.86963 0
M  V30 12713 N 1205.77 4.09664 2.15742 0
M  V30 12714 H 1208.61 7.45574 4.45629 0
M  V30 12715 H 1208.88 5.86232 3.67314 0
M  V30 12716 H 1208.02 7.84412 2.24479 0
M  V30 12717 P 1204.05 8.7635 1.60911 0
M  V30 12718 O 1203.83 10.1388 1.11561 0
M  V30 12719 O 1203.26 8.36503 2.79617 0
M  V30 12720 O 1203.8 7.71806 0.42951 0
M  V30 12721 C 1204.74 7.67148 -0.673689 0
M  V30 12722 C 1204.01 7.33374 -1.95559 0
M  V30 12723 O 1203.8 5.88721 -2.00726 0
M  V30 12724 C 1202.61 7.92526 -2.10483 0
M  V30 12725 O 1202.22 8.02971 -3.47653 0
M  V30 12726 C 1201.73 6.89602 -1.41652 0
M  V30 12727 C 1202.44 5.59201 -1.75185 0
M  V30 12728 N 1202.39 4.58301 -0.657969 0
M  V30 12729 H 1205.23 8.65116 -0.777161 0
M  V30 12730 H 1205.5 6.9022 -0.46725 0
M  V30 12731 H 1204.64 7.66548 -2.79458 0
M  V30 12732 H 1201.98 5.16165 -2.65183 0
M  V30 12733 H 1201.7 7.06433 -0.329384 0
M  V30 12734 H 1200.71 6.90926 -1.82021 0
M  V30 12735 H 1202.54 8.90873 -1.62657 0
M  V30 12736 P 1200.67 8.03563 -3.84925 0
M  V30 12737 O 1200.45 8.85821 -5.0569 0
M  V30 12738 O 1199.88 8.41101 -2.65469 0
M  V30 12739 O 1200.42 6.4965 -4.18908 0
M  V30 12740 C 1201.36 5.81037 -5.05421 0
M  V30 12741 C 1200.63 4.78366 -5.89277 0
M  V30 12742 O 1200.42 3.58302 -5.08433 0
M  V30 12743 C 1199.23 5.17448 -6.36119 0
M  V30 12744 O 1198.84 4.45271 -7.53232 0
M  V30 12745 C 1198.35 4.74639 -5.19936 0
M  V30 12746 C 1199.06 3.49432 -4.70418 0
M  V30 12747 N 1199.01 3.31776 -3.22945 0
M  V30 12748 H 1201.85 6.54213 -5.71376 0
M  V30 12749 H 1202.12 5.30492 -4.44033 0
M  V30 12750 H 1201.26 4.55889 -6.76652 0
M  V30 12751 P 1197.29 4.23843 -7.83734 0
M  V30 12752 O 1197.07 4.19407 -9.29784 0
M  V30 12753 O 1196.5 5.24426 -7.09156 0
M  V30 12754 O 1197.04 2.7935 -7.20758 0
M  V30 12755 C 1197.98 1.72945 -7.50224 0
M  V30 12756 C 1197.25 0.406376 -7.57911 0
M  V30 12757 O 1197.04 -0.0897726 -6.21935 0
M  V30 12758 C 1195.85 0.438983 -8.18724 0
M  V30 12759 O 1195.46 -0.825065 -8.71101 0
M  V30 12760 C 1194.97 0.783689 -6.99524 0
M  V30 12761 C 1195.68 0.0619086 -5.85867 0
M  V30 12762 N 1195.63 0.78573 -4.56183 0
M  V30 12763 C 1195.48 0.0292889 -3.41887 0
M  V30 12764 O 1195.39 -1.18445 -3.4419 0
M  V30 12765 N 1195.44 0.744061 -2.23964 0
M  V30 12766 C 1195.53 2.10932 -2.10362 0
M  V30 12767 O 1195.48 2.64117 -0.98825 0
M  V30 12768 C 1195.68 2.8202 -3.34994 0
M  V30 12769 C 1195.79 4.31095 -3.25037 0
M  V30 12770 C 1195.73 2.15547 -4.52261 0
M  V30 12771 H 1198.47 1.93379 -8.46595 0
M  V30 12772 H 1198.74 1.68132 -6.70852 0
M  V30 12773 H 1197.88 -0.289041 -8.15388 0
M  V30 12774 H 1195.22 -0.926847 -5.72749 0
M  V30 12775 H 1194.94 1.86973 -6.82036 0
M  V30 12776 H 1193.95 0.403896 -7.13257 0
M  V30 12777 H 1195.78 1.20585 -8.97435 0
M  V30 12778 H 1195.85 2.71231 -5.45042 0
M  V30 12779 H 1194.82 4.76966 -3.49992 0
M  V30 12780 H 1196.56 4.67047 -3.95024 0
M  V30 12781 H 1196.07 4.58996 -2.22312 0
M  V30 12782 H 1195.34 0.214893 -1.39758 0
M  V30 12783 P 1193.91 -1.17771 -8.83182 0
M  V30 12784 O 1193.69 -2.07206 -9.98732 0
M  V30 12785 O 1193.12 0.0743816 -8.81969 0
M  V30 12786 O 1193.66 -1.97652 -7.47304 0
M  V30 12787 C 1194.6 -3.01133 -7.08783 0
M  V30 12788 C 1193.87 -4.12613 -6.37049 0
M  V30 12789 O 1193.66 -3.72827 -4.97879 0
M  V30 12790 C 1192.47 -4.45085 -6.88694 0
M  V30 12791 O 1192.08 -5.7877 -6.5624 0
M  V30 12792 C 1191.59 -3.47817 -6.12078 0
M  V30 12793 C 1192.3 -3.39414 -4.77697 0
M  V30 12794 N 1192.25 -2.04615 -4.15333 0
M  V30 12795 H 1195.09 -3.41248 -7.98759 0
M  V30 12796 H 1195.36 -2.5837 -6.41742 0
M  V30 12797 H 1194.5 -5.02657 -6.42673 0
M  V30 12798 P 1190.53 -6.144 -6.45285 0
M  V30 12799 O 1190.31 -7.54673 -6.86199 0
M  V30 12800 O 1189.74 -5.12391 -7.179 0
M  V30 12801 O 1190.28 -5.99236 -4.88467 0
M  V30 12802 C 1191.22 -6.60234 -3.96415 0
M  V30 12803 C 1190.49 -7.08079 -2.736 0
M  V30 12804 O 1190.28 -5.94365 -1.8368 0
M  V30 12805 C 1189.09 -7.64886 -2.9555 0
M  V30 12806 O 1188.7 -8.5406 -1.90739 0
M  V30 12807 C 1188.21 -6.4116 -2.90739 0
M  V30 12808 C 1188.92 -5.55375 -1.86963 0
M  V30 12809 N 1188.87 -4.09664 -2.15742 0
M  V30 12810 C 1188.72 -3.22231 -1.08477 0
M  V30 12811 O 1188.63 -3.68951 0.0600489 0
M  V30 12812 N 1188.67 -1.76692 -1.48799 0
M  V30 12813 C 1188.77 -1.41695 -2.57602 0
M  V30 12814 N 1188.72 -0.107296 -2.75791 0
M  V30 12815 C 1188.92 -2.29178 -3.69733 0
M  V30 12816 C 1188.97 -3.62753 -3.42653 0
M  V30 12817 H 1191.71 -7.45488 -4.45578 0
M  V30 12818 H 1191.98 -5.86232 -3.67314 0
M  V30 12819 H 1191.12 -7.84508 -2.24507 0
M  V30 12820 H 1188.46 -5.73556 -0.888715 0
M  V30 12821 H 1188.18 -5.9096 -3.88638 0
M  V30 12822 H 1187.19 -6.66053 -2.58894 0
M  V30 12823 H 1189.02 -8.16339 -3.92049 0
M  V30 12824 H 1189.1 -4.33052 -4.24913 0
M  V30 12825 H 1188.99 -1.9103 -4.71577 0
M  V30 12826 H 1188.61 0.521221 -1.95056 0
M  V30 12827 H 1188.8 0.286429 -3.70695 0
M  V30 12828 P 1187.15 -8.7635 -1.60911 0
M  V30 12829 O 1186.93 -10.1388 -1.11561 0
M  V30 12830 O 1186.36 -8.36503 -2.79617 0
M  V30 12831 O 1186.9 -7.71806 -0.42951 0
M  V30 12832 C 1187.84 -7.67148 0.673689 0
M  V30 12833 C 1187.11 -7.33374 1.95559 0
M  V30 12834 O 1186.9 -5.88721 2.00726 0
M  V30 12835 C 1185.71 -7.92526 2.10483 0
M  V30 12836 O 1185.32 -8.02971 3.47653 0
M  V30 12837 C 1184.83 -6.89602 1.41652 0
M  V30 12838 C 1185.54 -5.59201 1.75185 0
M  V30 12839 N 1185.49 -4.58235 0.662552 0
M  V30 12840 H 1188.33 -8.65116 0.777161 0
M  V30 12841 H 1188.6 -6.90173 0.474152 0
M  V30 12842 H 1187.74 -7.66548 2.79458 0
M  V30 12843 P 1183.77 -8.03563 3.84925 0
M  V30 12844 O 1183.55 -8.85821 5.0569 0
M  V30 12845 O 1182.98 -8.41101 2.65469 0
M  V30 12846 O 1183.52 -6.4965 4.18908 0
M  V30 12847 C 1184.46 -5.81037 5.05421 0
M  V30 12848 C 1183.73 -4.78366 5.89277 0
M  V30 12849 O 1183.52 -3.58302 5.08433 0
M  V30 12850 C 1182.33 -5.17448 6.36119 0
M  V30 12851 O 1181.94 -4.45271 7.53232 0
M  V30 12852 C 1181.45 -4.74639 5.19936 0
M  V30 12853 C 1182.16 -3.49432 4.70418 0
M  V30 12854 N 1182.11 -3.32099 3.22613 0
M  V30 12855 H 1184.95 -6.54213 5.71376 0
M  V30 12856 H 1185.22 -5.30936 4.43503 0
M  V30 12857 H 1184.36 -4.55889 6.76652 0
M  V30 12858 H 1181.7 -2.61715 5.17932 0
M  V30 12859 H 1181.42 -5.52155 4.41878 0
M  V30 12860 H 1180.43 -4.51981 5.53374 0
M  V30 12861 H 1182.26 -6.25124 6.55234 0
M  V30 12862 P 1180.39 -4.23843 7.83734 0
M  V30 12863 O 1180.17 -4.19407 9.29784 0
M  V30 12864 O 1179.6 -5.24426 7.09156 0
M  V30 12865 O 1180.14 -2.7935 7.20758 0
M  V30 12866 C 1181.08 -1.72945 7.50224 0
M  V30 12867 C 1180.35 -0.406376 7.57911 0
M  V30 12868 O 1180.14 0.0897726 6.21935 0
M  V30 12869 C 1178.95 -0.438983 8.18724 0
M  V30 12870 O 1178.56 0.825065 8.71101 0
M  V30 12871 C 1178.07 -0.783689 6.99524 0
M  V30 12872 C 1178.78 -0.0619086 5.85867 0
M  V30 12873 N 1178.73 -0.78573 4.56183 0
M  V30 12874 C 1178.58 -0.0292889 3.41887 0
M  V30 12875 O 1178.49 1.18445 3.4419 0
M  V30 12876 N 1178.54 -0.744061 2.23964 0
M  V30 12877 C 1178.63 -2.10932 2.10362 0
M  V30 12878 O 1178.58 -2.64117 0.98825 0
M  V30 12879 C 1178.78 -2.8202 3.34994 0
M  V30 12880 C 1178.89 -4.31095 3.25037 0
M  V30 12881 C 1178.83 -2.15547 4.52261 0
M  V30 12882 H 1181.57 -1.93379 8.46595 0
M  V30 12883 H 1181.84 -1.68132 6.70852 0
M  V30 12884 H 1180.98 0.289041 8.15388 0
M  V30 12885 H 1178.32 0.926847 5.72749 0
M  V30 12886 H 1178.04 -1.86973 6.82036 0
M  V30 12887 H 1177.05 -0.403896 7.13257 0
M  V30 12888 H 1178.88 -1.20585 8.97435 0
M  V30 12889 H 1178.96 -2.71231 5.45042 0
M  V30 12890 H 1177.93 -4.76966 3.49992 0
M  V30 12891 H 1179.66 -4.67047 3.95024 0
M  V30 12892 H 1179.17 -4.58996 2.22312 0
M  V30 12893 H 1178.44 -0.214893 1.39758 0
M  V30 12894 P 1177.01 1.17771 8.83182 0
M  V30 12895 O 1176.79 2.07206 9.98732 0
M  V30 12896 O 1176.22 -0.0743816 8.81969 0
M  V30 12897 O 1176.76 1.97652 7.47304 0
M  V30 12898 C 1177.7 3.01133 7.08783 0
M  V30 12899 C 1176.97 4.12613 6.37049 0
M  V30 12900 O 1176.76 3.72827 4.97879 0
M  V30 12901 C 1175.57 4.45085 6.88694 0
M  V30 12902 O 1175.18 5.7877 6.5624 0
M  V30 12903 C 1174.69 3.47817 6.12078 0
M  V30 12904 C 1175.4 3.39414 4.77697 0
M  V30 12905 N 1175.35 2.04615 4.15333 0
M  V30 12906 H 1178.19 3.41248 7.98759 0
M  V30 12907 H 1178.46 2.5837 6.41742 0
M  V30 12908 H 1177.6 5.02657 6.42673 0
M  V30 12909 P 1173.63 6.144 6.45285 0
M  V30 12910 O 1173.41 7.54673 6.86199 0
M  V30 12911 O 1172.84 5.12391 7.179 0
M  V30 12912 O 1173.38 5.99158 4.88404 0
M  V30 12913 C 1174.32 6.60234 3.96415 0
M  V30 12914 C 1173.59 7.08259 2.72856 0
M  V30 12915 O 1173.38 5.9427 1.83651 0
M  V30 12916 C 1172.19 7.64886 2.9555 0
M  V30 12917 O 1171.8 8.53963 1.90717 0
M  V30 12918 C 1171.31 6.4116 2.90739 0
M  V30 12919 C 1172.02 5.55375 1.86963 0
M  V30 12920 N 1171.97 4.09664 2.15742 0
M  V30 12921 C 1172.05 3.44381 3.37233 0
M  V30 12922 N 1171.97 2.14131 3.28347 0
M  V30 12923 C 1171.83 1.90247 1.91588 0
M  V30 12924 C 1171.7 0.683992 1.20892 0
M  V30 12925 O 1171.68 -0.46618 1.64523 0
M  V30 12926 N 1171.58 0.903396 -0.173998 0
M  V30 12927 C 1171.58 2.14171 -0.784879 0
M  V30 12928 N 1171.45 2.1435 -2.11317 0
M  V30 12929 N 1171.71 3.28784 -0.119316 0
M  V30 12930 C 1171.83 3.0977 1.22194 0
M  V30 12931 H 1174.81 7.45574 4.45629 0
M  V30 12932 H 1175.08 5.86232 3.67314 0
M  V30 12933 H 1174.22 7.84412 2.24479 0
M  V30 12934 H 1171.56 5.73556 0.888715 0
M  V30 12935 H 1171.28 5.9096 3.88638 0
M  V30 12936 H 1170.29 6.66053 2.58894 0
M  V30 12937 H 1172.12 8.16429 3.92093 0
M  V30 12938 H 1172.17 3.96785 4.32043 0
M  V30 12939 H 1171.49 0.0999567 -0.761467 0
M  V30 12940 H 1171.45 3.03436 -2.63076 0
M  V30 12941 H 1171.35 1.25228 -2.62233 0
M  V30 12942 P 1170.25 8.7635 1.60911 0
M  V30 12943 O 1170.03 10.1388 1.11561 0
M  V30 12944 O 1169.46 8.36503 2.79617 0
M  V30 12945 O 1170 7.71806 0.42951 0
M  V30 12946 C 1170.94 7.67148 -0.673689 0
M  V30 12947 C 1170.21 7.33374 -1.95559 0
M  V30 12948 O 1170 5.88721 -2.00726 0
M  V30 12949 C 1168.81 7.92526 -2.10483 0
M  V30 12950 O 1168.42 8.02971 -3.47653 0
M  V30 12951 C 1167.93 6.89602 -1.41652 0
M  V30 12952 C 1168.64 5.59201 -1.75185 0
M  V30 12953 N 1168.59 4.58235 -0.662552 0
M  V30 12954 C 1168.67 4.7683 0.704049 0
M  V30 12955 N 1168.59 3.66233 1.39775 0
M  V30 12956 C 1168.45 2.66526 0.431739 0
M  V30 12957 C 1168.32 1.26394 0.575992 0
M  V30 12958 O 1168.3 0.589894 1.60503 0
M  V30 12959 N 1168.2 0.62859 -0.67177 0
M  V30 12960 C 1168.2 1.27134 -1.89385 0
M  V30 12961 N 1168.07 0.492035 -2.96951 0
M  V30 12962 N 1168.33 2.58978 -2.02907 0
M  V30 12963 C 1168.45 3.22433 -0.832218 0
M  V30 12964 H 1171.43 8.65116 -0.777161 0
M  V30 12965 H 1171.7 6.90173 -0.474152 0
M  V30 12966 H 1170.84 7.66548 -2.79458 0
M  V30 12967 H 1168.18 5.16254 -2.65229 0
M  V30 12968 H 1167.9 7.06532 -0.329431 0
M  V30 12969 H 1166.91 6.91023 -1.82047 0
M  V30 12970 H 1168.74 8.90971 -1.62675 0
M  V30 12971 H 1168.79 5.74954 1.16305 0
M  V30 12972 H 1168.11 -0.366713 -0.674793 0
M  V30 12973 H 1168.07 0.908532 -3.91188 0
M  V30 12974 H 1167.97 -0.528253 -2.85758 0
M  V30 12975 P 1166.87 8.03563 -3.84925 0
M  V30 12976 O 1166.65 8.85821 -5.0569 0
M  V30 12977 O 1166.08 8.41101 -2.65469 0
M  V30 12978 O 1166.62 6.4965 -4.18908 0
M  V30 12979 C 1167.56 5.81037 -5.05421 0
M  V30 12980 C 1166.83 4.78366 -5.89277 0
M  V30 12981 O 1166.62 3.58302 -5.08433 0
M  V30 12982 C 1165.43 5.17448 -6.36119 0
M  V30 12983 O 1165.04 4.45271 -7.53232 0
M  V30 12984 C 1164.55 4.74639 -5.19936 0
M  V30 12985 C 1165.26 3.49432 -4.70418 0
M  V30 12986 N 1165.21 3.32099 -3.22613 0
M  V30 12987 C 1165.29 4.28245 -2.25527 0
M  V30 12988 N 1165.22 3.80823 -1.04874 0
M  V30 12989 C 1165.07 2.44571 -1.23535 0
M  V30 12990 C 1164.94 1.37068 -0.330675 0
M  V30 12991 N 1164.93 1.51472 0.990824 0
M  V30 12992 N 1164.82 0.138614 -0.848756 0
M  V30 12993 C 1164.83 -0.00675923 -2.16999 0
M  V30 12994 N 1164.95 0.904372 -3.11122 0
M  V30 12995 C 1165.07 2.12707 -2.56212 0
M  V30 12996 H 1168.05 6.54213 -5.71376 0
M  V30 12997 H 1168.32 5.30936 -4.43503 0
M  V30 12998 H 1167.46 4.55889 -6.76652 0
M  V30 12999 H 1164.8 2.61715 -5.17932 0
M  V30 13000 H 1164.52 5.52155 -4.41878 0
M  V30 13001 H 1163.53 4.51981 -5.53374 0
M  V30 13002 H 1165.36 6.25124 -6.55234 0
M  V30 13003 H 1165.41 5.34372 -2.47488 0
M  V30 13004 H 1165.02 2.45153 1.4078 0
M  V30 13005 H 1164.84 0.688422 1.59911 0
M  V30 13006 H 1164.73 -1.02584 -2.52346 0
M  V30 13007 P 1163.49 4.23843 -7.83734 0
M  V30 13008 O 1163.27 4.19407 -9.29784 0
M  V30 13009 O 1162.7 5.24426 -7.09156 0
M  V30 13010 O 1163.24 2.79386 -7.20852 0
M  V30 13011 C 1164.18 1.7299 -7.50419 0
M  V30 13012 C 1163.45 0.41401 -7.5797 0
M  V30 13013 O 1163.24 -0.089787 -6.22035 0
M  V30 13014 C 1162.05 0.447224 -8.1878 0
M  V30 13015 O 1161.66 -0.825159 -8.71201 0
M  V30 13016 C 1161.17 0.783801 -6.99623 0
M  V30 13017 C 1161.88 0.0619192 -5.85967 0
M  V30 13018 N 1161.83 0.7859 -4.56281 0
M  V30 13019 C 1161.68 0.0359258 -3.39981 0
M  V30 13020 O 1161.59 -1.19723 -3.49038 0
M  V30 13021 N 1161.63 0.869151 -2.14025 0
M  V30 13022 C 1161.73 2.01207 -2.14363 0
M  V30 13023 N 1161.68 2.58978 -0.954287 0
M  V30 13024 C 1161.88 2.80817 -3.32215 0
M  V30 13025 C 1161.93 2.13785 -4.50884 0
M  V30 13026 H 1164.67 1.93401 -8.46693 0
M  V30 13027 H 1164.94 1.68181 -6.71046 0
M  V30 13028 H 1164.08 -0.289076 -8.15488 0
M  V30 13029 H 1161.42 -0.927166 -5.72947 0
M  V30 13030 H 1161.14 1.87 -6.82132 0
M  V30 13031 H 1160.15 0.404009 -7.13457 0
M  V30 13032 H 1161.98 1.20599 -8.97534 0
M  V30 13033 H 1162.06 2.70295 -5.43162 0
M  V30 13034 H 1161.95 3.89465 -3.27406 0
M  V30 13035 H 1161.57 2.01616 -0.107046 0
M  V30 13036 H 1161.76 3.61403 -0.873101 0
M  V30 13037 P 1160.11 -1.17771 -8.83182 0
M  V30 13038 O 1159.89 -2.07206 -9.98732 0
M  V30 13039 O 1159.32 0.0743816 -8.81969 0
M  V30 13040 O 1159.86 -1.97652 -7.47304 0
M  V30 13041 C 1160.8 -3.01133 -7.08783 0
M  V30 13042 C 1160.07 -4.12613 -6.37049 0
M  V30 13043 O 1159.86 -3.72827 -4.97879 0
M  V30 13044 C 1158.67 -4.45085 -6.88694 0
M  V30 13045 O 1158.28 -5.7877 -6.5624 0
M  V30 13046 C 1157.79 -3.47817 -6.12078 0
M  V30 13047 C 1158.5 -3.39414 -4.77697 0
M  V30 13048 N 1158.45 -2.04615 -4.15333 0
M  V30 13049 H 1161.29 -3.41248 -7.98759 0
M  V30 13050 H 1161.56 -2.5837 -6.41742 0
M  V30 13051 H 1160.7 -5.02657 -6.42673 0
M  V30 13052 P 1156.73 -6.144 -6.45285 0
M  V30 13053 O 1156.51 -7.54673 -6.86199 0
M  V30 13054 O 1155.94 -5.12391 -7.179 0
M  V30 13055 O 1156.48 -5.99158 -4.88404 0
M  V30 13056 C 1157.42 -6.60234 -3.96415 0
M  V30 13057 C 1156.69 -7.08259 -2.72856 0
M  V30 13058 O 1156.48 -5.9427 -1.83651 0
M  V30 13059 C 1155.29 -7.64886 -2.9555 0
M  V30 13060 O 1154.9 -8.53963 -1.90717 0
M  V30 13061 C 1154.41 -6.4116 -2.90739 0
M  V30 13062 C 1155.12 -5.55375 -1.86963 0
M  V30 13063 N 1155.07 -4.09448 -2.16152 0
M  V30 13064 H 1157.91 -7.45574 -4.45629 0
M  V30 13065 H 1158.18 -5.85864 -3.679 0
M  V30 13066 H 1157.32 -7.84412 -2.24479 0
M  V30 13067 H 1154.66 -5.73457 -0.888562 0
M  V30 13068 H 1154.38 -5.90877 -3.88583 0
M  V30 13069 H 1153.39 -6.6596 -2.58858 0
M  V30 13070 H 1155.22 -8.16339 -3.92049 0
M  V30 13071 P 1153.35 -8.7635 -1.60911 0
M  V30 13072 O 1153.13 -10.1388 -1.11561 0
M  V30 13073 O 1152.56 -8.36503 -2.79617 0
M  V30 13074 O 1153.1 -7.71806 -0.42951 0
M  V30 13075 C 1154.04 -7.67148 0.673689 0
M  V30 13076 C 1153.31 -7.33374 1.95559 0
M  V30 13077 O 1153.1 -5.88721 2.00726 0
M  V30 13078 C 1151.91 -7.92526 2.10483 0
M  V30 13079 O 1151.52 -8.02971 3.47653 0
M  V30 13080 C 1151.03 -6.89602 1.41652 0
M  V30 13081 C 1151.74 -5.59201 1.75185 0
M  V30 13082 N 1151.69 -4.58301 0.657969 0
M  V30 13083 H 1154.53 -8.65116 0.777161 0
M  V30 13084 H 1154.8 -6.9022 0.46725 0
M  V30 13085 H 1153.94 -7.66548 2.79458 0
M  V30 13086 H 1151.28 -5.16165 2.65183 0
M  V30 13087 H 1151 -7.06433 0.329384 0
M  V30 13088 H 1150.01 -6.90926 1.82021 0
M  V30 13089 H 1151.84 -8.90873 1.62657 0
M  V30 13090 P 1149.97 -8.03563 3.84925 0
M  V30 13091 O 1149.75 -8.85821 5.0569 0
M  V30 13092 O 1149.18 -8.41101 2.65469 0
M  V30 13093 O 1149.72 -6.4965 4.18908 0
M  V30 13094 C 1150.66 -5.81037 5.05421 0
M  V30 13095 C 1149.93 -4.78366 5.89277 0
M  V30 13096 O 1149.72 -3.58302 5.08433 0
M  V30 13097 C 1148.53 -5.17448 6.36119 0
M  V30 13098 O 1148.14 -4.45271 7.53232 0
M  V30 13099 C 1147.65 -4.74639 5.19936 0
M  V30 13100 C 1148.36 -3.49432 4.70418 0
M  V30 13101 N 1148.31 -3.31776 3.22945 0
M  V30 13102 H 1151.15 -6.54213 5.71376 0
M  V30 13103 H 1151.42 -5.30492 4.44033 0
M  V30 13104 H 1150.56 -4.55889 6.76652 0
M  V30 13105 P 1146.59 -4.23843 7.83734 0
M  V30 13106 O 1146.37 -4.19407 9.29784 0
M  V30 13107 O 1145.8 -5.24426 7.09156 0
M  V30 13108 O 1146.34 -2.7935 7.20758 0
M  V30 13109 C 1147.28 -1.7299 7.50419 0
M  V30 13110 C 1146.55 -0.406376 7.57911 0
M  V30 13111 O 1146.34 0.0897726 6.21935 0
M  V30 13112 C 1145.15 -0.447224 8.1878 0
M  V30 13113 O 1144.76 0.825065 8.71101 0
M  V30 13114 C 1144.27 -0.783801 6.99623 0
M  V30 13115 C 1144.98 -0.0619192 5.85967 0
M  V30 13116 N 1144.93 -0.7859 4.56281 0
M  V30 13117 H 1147.77 -1.93423 8.4679 0
M  V30 13118 H 1148.04 -1.68181 6.71046 0
M  V30 13119 H 1147.18 0.289041 8.15388 0
M  V30 13120 P 1143.21 1.17771 8.83182 0
M  V30 13121 O 1142.99 2.07206 9.98732 0
M  V30 13122 O 1142.42 -0.0743816 8.81969 0
M  V30 13123 O 1142.96 1.97652 7.47304 0
M  V30 13124 C 1143.9 3.01133 7.08783 0
M  V30 13125 C 1143.17 4.12613 6.37049 0
M  V30 13126 O 1142.96 3.72827 4.97879 0
M  V30 13127 C 1141.77 4.45085 6.88694 0
M  V30 13128 O 1141.38 5.7877 6.5624 0
M  V30 13129 C 1140.89 3.47817 6.12078 0
M  V30 13130 C 1141.6 3.39414 4.77697 0
M  V30 13131 N 1141.55 2.04615 4.15333 0
M  V30 13132 H 1144.39 3.41248 7.98759 0
M  V30 13133 H 1144.66 2.5837 6.41742 0
M  V30 13134 H 1143.8 5.02657 6.42673 0
M  V30 13135 P 1139.83 6.144 6.45285 0
M  V30 13136 O 1139.61 7.54673 6.86199 0
M  V30 13137 O 1139.04 5.12391 7.179 0
M  V30 13138 O 1139.58 5.99158 4.88404 0
M  V30 13139 C 1140.52 6.60234 3.96415 0
M  V30 13140 C 1139.79 7.08259 2.72856 0
M  V30 13141 O 1139.58 5.9427 1.83651 0
M  V30 13142 C 1138.39 7.64886 2.9555 0
M  V30 13143 O 1138 8.53963 1.90717 0
M  V30 13144 C 1137.51 6.4116 2.90739 0
M  V30 13145 C 1138.22 5.55375 1.86963 0
M  V30 13146 N 1138.17 4.09664 2.15742 0
M  V30 13147 H 1141.01 7.45574 4.45629 0
M  V30 13148 H 1141.28 5.86232 3.67314 0
M  V30 13149 H 1140.42 7.84412 2.24479 0
M  V30 13150 P 1136.45 8.7635 1.60911 0
M  V30 13151 O 1136.23 10.1388 1.11561 0
M  V30 13152 O 1135.66 8.36503 2.79617 0
M  V30 13153 O 1136.2 7.71806 0.42951 0
M  V30 13154 C 1137.14 7.67148 -0.673689 0
M  V30 13155 C 1136.41 7.33374 -1.95559 0
M  V30 13156 O 1136.2 5.88721 -2.00726 0
M  V30 13157 C 1135.01 7.92526 -2.10483 0
M  V30 13158 O 1134.62 8.02971 -3.47653 0
M  V30 13159 C 1134.13 6.89602 -1.41652 0
M  V30 13160 C 1134.84 5.59201 -1.75185 0
M  V30 13161 N 1134.79 4.58301 -0.657969 0
M  V30 13162 H 1137.63 8.65116 -0.777161 0
M  V30 13163 H 1137.9 6.9022 -0.46725 0
M  V30 13164 H 1137.04 7.66548 -2.79458 0
M  V30 13165 H 1134.38 5.16165 -2.65183 0
M  V30 13166 H 1134.1 7.06433 -0.329384 0
M  V30 13167 H 1133.11 6.90926 -1.82021 0
M  V30 13168 H 1134.94 8.90873 -1.62657 0
M  V30 13169 P 1133.07 8.03563 -3.84925 0
M  V30 13170 O 1132.85 8.85821 -5.0569 0
M  V30 13171 O 1132.28 8.41101 -2.65469 0
M  V30 13172 O 1132.82 6.4965 -4.18908 0
M  V30 13173 C 1133.76 5.81037 -5.05421 0
M  V30 13174 C 1133.03 4.78366 -5.89277 0
M  V30 13175 O 1132.82 3.58302 -5.08433 0
M  V30 13176 C 1131.63 5.17448 -6.36119 0
M  V30 13177 O 1131.24 4.45271 -7.53232 0
M  V30 13178 C 1130.75 4.74639 -5.19936 0
M  V30 13179 C 1131.46 3.49432 -4.70418 0
M  V30 13180 N 1131.41 3.32099 -3.22613 0
M  V30 13181 H 1134.25 6.54213 -5.71376 0
M  V30 13182 H 1134.52 5.30936 -4.43503 0
M  V30 13183 H 1133.66 4.55889 -6.76652 0
M  V30 13184 H 1131 2.61715 -5.17932 0
M  V30 13185 H 1130.72 5.52155 -4.41878 0
M  V30 13186 H 1129.73 4.51981 -5.53374 0
M  V30 13187 H 1131.56 6.25124 -6.55234 0
M  V30 13188 P 1129.69 4.23843 -7.83734 0
M  V30 13189 O 1129.47 4.19407 -9.29784 0
M  V30 13190 O 1128.9 5.24426 -7.09156 0
M  V30 13191 O 1129.44 2.7935 -7.20758 0
M  V30 13192 C 1130.38 1.7299 -7.50419 0
M  V30 13193 C 1129.65 0.406376 -7.57911 0
M  V30 13194 O 1129.44 -0.0897726 -6.21935 0
M  V30 13195 C 1128.25 0.447224 -8.1878 0
M  V30 13196 O 1127.86 -0.825065 -8.71101 0
M  V30 13197 C 1127.37 0.783801 -6.99623 0
M  V30 13198 C 1128.08 0.0619192 -5.85967 0
M  V30 13199 N 1128.03 0.790462 -4.56202 0
M  V30 13200 H 1130.87 1.93423 -8.4679 0
M  V30 13201 H 1131.14 1.68852 -6.70877 0
M  V30 13202 H 1130.28 -0.289041 -8.15388 0
M  V30 13203 H 1127.62 -0.927006 -5.72848 0
M  V30 13204 H 1127.34 1.86973 -6.82036 0
M  V30 13205 H 1126.35 0.403953 -7.13357 0
M  V30 13206 H 1128.18 1.20599 -8.97534 0
M  V30 13207 P 1126.31 -1.17771 -8.83182 0
M  V30 13208 O 1126.09 -2.07206 -9.98732 0
M  V30 13209 O 1125.52 0.0743816 -8.81969 0
M  V30 13210 O 1126.06 -1.97652 -7.47304 0
M  V30 13211 C 1127 -3.01133 -7.08783 0
M  V30 13212 C 1126.27 -4.12613 -6.37049 0
M  V30 13213 O 1126.06 -3.72827 -4.97879 0
M  V30 13214 C 1124.87 -4.45085 -6.88694 0
M  V30 13215 O 1124.48 -5.7877 -6.5624 0
M  V30 13216 C 1123.99 -3.47817 -6.12078 0
M  V30 13217 C 1124.7 -3.39414 -4.77697 0
M  V30 13218 N 1124.65 -2.04615 -4.15333 0
M  V30 13219 H 1127.49 -3.41248 -7.98759 0
M  V30 13220 H 1127.76 -2.5837 -6.41742 0
M  V30 13221 H 1126.9 -5.02657 -6.42673 0
M  V30 13222 P 1122.93 -6.144 -6.45285 0
M  V30 13223 O 1122.71 -7.54673 -6.86199 0
M  V30 13224 O 1122.14 -5.12391 -7.179 0
M  V30 13225 O 1122.68 -5.99158 -4.88404 0
M  V30 13226 C 1123.62 -6.60234 -3.96415 0
M  V30 13227 C 1122.89 -7.08259 -2.72856 0
M  V30 13228 O 1122.68 -5.9427 -1.83651 0
M  V30 13229 C 1121.49 -7.64886 -2.9555 0
M  V30 13230 O 1121.1 -8.53963 -1.90717 0
M  V30 13231 C 1120.61 -6.4116 -2.90739 0
M  V30 13232 C 1121.32 -5.55375 -1.86963 0
M  V30 13233 N 1121.27 -4.09448 -2.16152 0
M  V30 13234 H 1124.11 -7.45574 -4.45629 0
M  V30 13235 H 1124.38 -5.85864 -3.679 0
M  V30 13236 H 1123.52 -7.84412 -2.24479 0
M  V30 13237 H 1120.86 -5.73457 -0.888562 0
M  V30 13238 H 1120.58 -5.90877 -3.88583 0
M  V30 13239 H 1119.59 -6.6596 -2.58858 0
M  V30 13240 H 1121.42 -8.16339 -3.92049 0
M  V30 13241 P 1119.55 -8.7635 -1.60911 0
M  V30 13242 O 1119.33 -10.1388 -1.11561 0
M  V30 13243 O 1118.76 -8.36503 -2.79617 0
M  V30 13244 O 1119.3 -7.71806 -0.42951 0
M  V30 13245 C 1120.24 -7.66948 0.673514 0
M  V30 13246 C 1119.51 -7.33374 1.95559 0
M  V30 13247 O 1119.3 -5.88721 2.00726 0
M  V30 13248 C 1118.11 -7.92218 2.1125 0
M  V30 13249 O 1117.72 -8.02971 3.47653 0
M  V30 13250 C 1117.23 -6.89504 1.41631 0
M  V30 13251 C 1117.94 -5.59106 1.75155 0
M  V30 13252 N 1117.89 -4.58136 0.662409 0
M  V30 13253 C 1117.74 -3.26059 1.02863 0
M  V30 13254 O 1117.65 -2.90743 2.19009 0
M  V30 13255 N 1117.7 -2.35995 -0.0155585 0
M  V30 13256 C 1117.79 -2.65248 -1.35603 0
M  V30 13257 C 1117.94 -4.05747 -1.64698 0
M  V30 13258 C 1117.99 -4.96734 -0.652411 0
M  V30 13259 H 1120.73 -8.64917 0.776982 0
M  V30 13260 H 1121 -6.89974 0.474015 0
M  V30 13261 H 1120.14 -7.66548 2.79458 0
M  V30 13262 H 1117.48 -5.16076 2.65138 0
M  V30 13263 H 1117.2 -7.06433 0.329384 0
M  V30 13264 H 1116.21 -6.90829 1.81996 0
M  V30 13265 H 1118.04 -8.90774 1.62639 0
M  V30 13266 H 1118.12 -6.02181 -0.895285 0
M  V30 13267 P 1116.17 -8.03563 3.84925 0
M  V30 13268 O 1115.95 -8.85821 5.0569 0
M  V30 13269 O 1115.38 -8.41101 2.65469 0
M  V30 13270 O 1115.92 -6.4965 4.18908 0
M  V30 13271 C 1116.86 -5.81037 5.05421 0
M  V30 13272 C 1116.13 -4.78366 5.89277 0
M  V30 13273 O 1115.92 -3.58302 5.08433 0
M  V30 13274 C 1114.73 -5.17448 6.36119 0
M  V30 13275 O 1114.34 -4.45271 7.53232 0
M  V30 13276 C 1113.85 -4.74639 5.19936 0
M  V30 13277 C 1114.56 -3.49432 4.70418 0
M  V30 13278 N 1114.51 -3.31776 3.22945 0
M  V30 13279 H 1117.35 -6.54213 5.71376 0
M  V30 13280 H 1117.62 -5.30492 4.44033 0
M  V30 13281 H 1116.76 -4.55889 6.76652 0
M  V30 13282 P 1112.79 -4.23843 7.83734 0
M  V30 13283 O 1112.57 -4.19407 9.29784 0
M  V30 13284 O 1112 -5.24426 7.09156 0
M  V30 13285 O 1112.54 -2.7935 7.20758 0
M  V30 13286 C 1113.48 -1.72945 7.50224 0
M  V30 13287 C 1112.75 -0.406376 7.57911 0
M  V30 13288 O 1112.54 0.0897726 6.21935 0
M  V30 13289 C 1111.35 -0.438983 8.18724 0
M  V30 13290 O 1110.96 0.825065 8.71101 0
M  V30 13291 C 1110.47 -0.783689 6.99524 0
M  V30 13292 C 1111.18 -0.0619086 5.85867 0
M  V30 13293 N 1111.13 -0.78573 4.56183 0
M  V30 13294 C 1110.98 -0.0292889 3.41887 0
M  V30 13295 O 1110.89 1.18445 3.4419 0
M  V30 13296 N 1110.94 -0.744061 2.23964 0
M  V30 13297 C 1111.03 -2.10932 2.10362 0
M  V30 13298 O 1110.98 -2.64117 0.98825 0
M  V30 13299 C 1111.18 -2.8202 3.34994 0
M  V30 13300 C 1111.29 -4.31095 3.25037 0
M  V30 13301 C 1111.23 -2.15547 4.52261 0
M  V30 13302 H 1113.97 -1.93379 8.46595 0
M  V30 13303 H 1114.24 -1.68132 6.70852 0
M  V30 13304 H 1113.38 0.289041 8.15388 0
M  V30 13305 H 1110.72 0.926847 5.72749 0
M  V30 13306 H 1110.44 -1.86973 6.82036 0
M  V30 13307 H 1109.45 -0.403896 7.13257 0
M  V30 13308 H 1111.28 -1.20585 8.97435 0
M  V30 13309 H 1111.36 -2.71231 5.45042 0
M  V30 13310 H 1110.33 -4.76966 3.49992 0
M  V30 13311 H 1112.06 -4.67047 3.95024 0
M  V30 13312 H 1111.57 -4.58996 2.22312 0
M  V30 13313 H 1110.84 -0.214893 1.39758 0
M  V30 13314 P 1109.41 1.17771 8.83182 0
M  V30 13315 O 1109.19 2.07206 9.98732 0
M  V30 13316 O 1108.62 -0.0743816 8.81969 0
M  V30 13317 O 1109.16 1.97652 7.47304 0
M  V30 13318 C 1110.1 3.01133 7.08783 0
M  V30 13319 C 1109.37 4.12613 6.37049 0
M  V30 13320 O 1109.16 3.72827 4.97879 0
M  V30 13321 C 1107.97 4.45085 6.88694 0
M  V30 13322 O 1107.58 5.7877 6.5624 0
M  V30 13323 C 1107.09 3.47817 6.12078 0
M  V30 13324 C 1107.8 3.39414 4.77697 0
M  V30 13325 N 1107.75 2.04615 4.15333 0
M  V30 13326 H 1110.59 3.41248 7.98759 0
M  V30 13327 H 1110.86 2.5837 6.41742 0
M  V30 13328 H 1110 5.02657 6.42673 0
M  V30 13329 P 1106.03 6.144 6.45285 0
M  V30 13330 O 1105.81 7.54673 6.86199 0
M  V30 13331 O 1105.24 5.12391 7.179 0
M  V30 13332 O 1105.78 5.99158 4.88404 0
M  V30 13333 C 1106.72 6.60062 3.96313 0
M  V30 13334 C 1105.99 7.08259 2.72856 0
M  V30 13335 O 1105.78 5.9427 1.83651 0
M  V30 13336 C 1104.59 7.65087 2.94749 0
M  V30 13337 O 1104.2 8.53963 1.90717 0
M  V30 13338 C 1103.71 6.41069 2.90698 0
M  V30 13339 C 1104.42 5.5528 1.86931 0
M  V30 13340 N 1104.37 4.09575 2.15696 0
M  V30 13341 C 1104.22 3.24249 1.08435 0
M  V30 13342 O 1104.13 3.63946 -0.0628747 0
M  V30 13343 N 1104.18 1.90009 1.39973 0
M  V30 13344 C 1104.27 1.34884 2.65614 0
M  V30 13345 O 1104.22 0.123716 2.81728 0
M  V30 13346 C 1104.42 2.3145 3.71736 0
M  V30 13347 C 1104.53 1.75913 5.10438 0
M  V30 13348 C 1104.47 3.63518 3.44754 0
M  V30 13349 H 1107.21 7.45402 4.45526 0
M  V30 13350 H 1107.48 5.86062 3.67208 0
M  V30 13351 H 1106.62 7.84412 2.24479 0
M  V30 13352 H 1103.96 5.73358 0.888409 0
M  V30 13353 H 1103.68 5.90877 3.88583 0
M  V30 13354 H 1102.69 6.65867 2.58821 0
M  V30 13355 H 1104.52 8.16248 3.92006 0
M  V30 13356 H 1104.6 4.34551 4.26383 0
M  V30 13357 H 1103.57 1.85471 5.61775 0
M  V30 13358 H 1105.3 2.31364 5.66257 0
M  V30 13359 H 1104.81 0.695936 5.05229 0
M  V30 13360 H 1104.08 1.26277 0.63625 0
M  V30 13361 P 1102.65 8.7635 1.60911 0
M  V30 13362 O 1102.43 10.1388 1.11561 0
M  V30 13363 O 1101.86 8.36503 2.79617 0
M  V30 13364 O 1102.4 7.71806 0.42951 0
M  V30 13365 C 1103.34 7.67148 -0.673689 0
M  V30 13366 C 1102.61 7.33374 -1.95559 0
M  V30 13367 O 1102.4 5.88721 -2.00726 0
M  V30 13368 C 1101.21 7.92526 -2.10483 0
M  V30 13369 O 1100.82 8.02971 -3.47653 0
M  V30 13370 C 1100.33 6.89602 -1.41652 0
M  V30 13371 C 1101.04 5.59201 -1.75185 0
M  V30 13372 N 1100.99 4.58235 -0.662552 0
M  V30 13373 H 1103.83 8.65116 -0.777161 0
M  V30 13374 H 1104.1 6.90173 -0.474152 0
M  V30 13375 H 1103.24 7.66548 -2.79458 0
M  V30 13376 P 1099.27 8.03563 -3.84925 0
M  V30 13377 O 1099.05 8.85821 -5.0569 0
M  V30 13378 O 1098.48 8.41101 -2.65469 0
M  V30 13379 O 1099.02 6.4965 -4.18908 0
M  V30 13380 C 1099.96 5.81037 -5.05421 0
M  V30 13381 C 1099.23 4.78366 -5.89277 0
M  V30 13382 O 1099.02 3.58302 -5.08433 0
M  V30 13383 C 1097.83 5.17448 -6.36119 0
M  V30 13384 O 1097.44 4.45271 -7.53232 0
M  V30 13385 C 1096.95 4.74639 -5.19936 0
M  V30 13386 C 1097.66 3.49432 -4.70418 0
M  V30 13387 N 1097.61 3.32099 -3.22613 0
M  V30 13388 H 1100.45 6.54213 -5.71376 0
M  V30 13389 H 1100.72 5.30936 -4.43503 0
M  V30 13390 H 1099.86 4.55889 -6.76652 0
M  V30 13391 H 1097.2 2.61715 -5.17932 0
M  V30 13392 H 1096.92 5.52155 -4.41878 0
M  V30 13393 H 1095.93 4.51981 -5.53374 0
M  V30 13394 H 1097.76 6.25124 -6.55234 0
M  V30 13395 P 1095.89 4.23843 -7.83734 0
M  V30 13396 O 1095.67 4.19407 -9.29784 0
M  V30 13397 O 1095.1 5.24426 -7.09156 0
M  V30 13398 O 1095.64 2.79386 -7.20852 0
M  V30 13399 C 1096.58 1.7299 -7.50419 0
M  V30 13400 C 1095.85 0.41401 -7.5797 0
M  V30 13401 O 1095.64 -0.089787 -6.22035 0
M  V30 13402 C 1094.45 0.447224 -8.1878 0
M  V30 13403 O 1094.06 -0.825159 -8.71201 0
M  V30 13404 C 1093.57 0.783801 -6.99623 0
M  V30 13405 C 1094.28 0.0619192 -5.85967 0
M  V30 13406 N 1094.23 0.7859 -4.56281 0
M  V30 13407 C 1094.08 0.0359258 -3.39981 0
M  V30 13408 O 1093.99 -1.19723 -3.49038 0
M  V30 13409 N 1094.03 0.869151 -2.14025 0
M  V30 13410 C 1094.13 2.01207 -2.14363 0
M  V30 13411 N 1094.08 2.58978 -0.954287 0
M  V30 13412 C 1094.28 2.80817 -3.32215 0
M  V30 13413 C 1094.33 2.13785 -4.50884 0
M  V30 13414 H 1097.07 1.93401 -8.46693 0
M  V30 13415 H 1097.34 1.68181 -6.71046 0
M  V30 13416 H 1096.48 -0.289076 -8.15488 0
M  V30 13417 H 1093.82 -0.927166 -5.72947 0
M  V30 13418 H 1093.54 1.87 -6.82132 0
M  V30 13419 H 1092.55 0.404009 -7.13457 0
M  V30 13420 H 1094.38 1.20599 -8.97534 0
M  V30 13421 H 1094.46 2.70295 -5.43162 0
M  V30 13422 H 1094.35 3.89465 -3.27406 0
M  V30 13423 H 1093.97 2.01616 -0.107046 0
M  V30 13424 H 1094.16 3.61403 -0.873101 0
M  V30 13425 P 1092.51 -1.17771 -8.83182 0
M  V30 13426 O 1092.29 -2.07206 -9.98732 0
M  V30 13427 O 1091.72 0.0743816 -8.81969 0
M  V30 13428 O 1092.26 -1.97652 -7.47304 0
M  V30 13429 C 1093.2 -3.01133 -7.08783 0
M  V30 13430 C 1092.47 -4.12613 -6.37049 0
M  V30 13431 O 1092.26 -3.72827 -4.97879 0
M  V30 13432 C 1091.07 -4.45085 -6.88694 0
M  V30 13433 O 1090.68 -5.7877 -6.5624 0
M  V30 13434 C 1090.19 -3.47817 -6.12078 0
M  V30 13435 C 1090.9 -3.39414 -4.77697 0
M  V30 13436 N 1090.85 -2.04615 -4.15333 0
M  V30 13437 H 1093.69 -3.41248 -7.98759 0
M  V30 13438 H 1093.96 -2.5837 -6.41742 0
M  V30 13439 H 1093.1 -5.02657 -6.42673 0
M  V30 13440 P 1089.13 -6.144 -6.45285 0
M  V30 13441 O 1088.91 -7.54673 -6.86199 0
M  V30 13442 O 1088.34 -5.12391 -7.179 0
M  V30 13443 O 1088.88 -5.99158 -4.88404 0
M  V30 13444 C 1089.82 -6.60234 -3.96415 0
M  V30 13445 C 1089.09 -7.08259 -2.72856 0
M  V30 13446 O 1088.88 -5.9427 -1.83651 0
M  V30 13447 C 1087.69 -7.64886 -2.9555 0
M  V30 13448 O 1087.3 -8.53963 -1.90717 0
M  V30 13449 C 1086.81 -6.4116 -2.90739 0
M  V30 13450 C 1087.52 -5.55375 -1.86963 0
M  V30 13451 N 1087.47 -4.09448 -2.16152 0
M  V30 13452 C 1087.55 -3.46824 -3.37593 0
M  V30 13453 N 1087.48 -2.17422 -3.29777 0
M  V30 13454 C 1087.33 -1.93065 -1.94427 0
M  V30 13455 C 1087.2 -0.738053 -1.20141 0
M  V30 13456 N 1087.19 0.474256 -1.74676 0
M  V30 13457 N 1087.08 -0.850049 0.13045 0
M  V30 13458 C 1087.09 -2.06169 0.676992 0
M  V30 13459 N 1087.21 -3.23842 0.101312 0
M  V30 13460 C 1087.33 -3.09402 -1.23122 0
M  V30 13461 H 1090.31 -7.45574 -4.45629 0
M  V30 13462 H 1090.58 -5.85864 -3.679 0
M  V30 13463 H 1089.72 -7.84412 -2.24479 0
M  V30 13464 H 1087.06 -5.73457 -0.888562 0
M  V30 13465 H 1086.78 -5.90877 -3.88583 0
M  V30 13466 H 1085.79 -6.6596 -2.58858 0
M  V30 13467 H 1087.62 -8.16339 -3.92049 0
M  V30 13468 H 1087.67 -4.00505 -4.3174 0
M  V30 13469 H 1087.28 0.581337 -2.76658 0
M  V30 13470 H 1087.1 1.30811 -1.14888 0
M  V30 13471 H 1086.99 -2.08295 1.75542 0
M  V30 13472 P 1085.75 -8.7635 -1.60911 0
M  V30 13473 O 1085.53 -10.1388 -1.11561 0
M  V30 13474 O 1084.96 -8.36503 -2.79617 0
M  V30 13475 O 1085.5 -7.71806 -0.42951 0
M  V30 13476 C 1086.44 -7.67148 0.673689 0
M  V30 13477 C 1085.71 -7.33374 1.95559 0
M  V30 13478 O 1085.5 -5.88721 2.00726 0
M  V30 13479 C 1084.31 -7.92526 2.10483 0
M  V30 13480 O 1083.92 -8.02971 3.47653 0
M  V30 13481 C 1083.43 -6.89602 1.41652 0
M  V30 13482 C 1084.14 -5.59201 1.75185 0
M  V30 13483 N 1084.09 -4.58301 0.657969 0
M  V30 13484 H 1086.93 -8.65116 0.777161 0
M  V30 13485 H 1087.2 -6.9022 0.46725 0
M  V30 13486 H 1086.34 -7.66548 2.79458 0
M  V30 13487 H 1083.68 -5.16165 2.65183 0
M  V30 13488 H 1083.4 -7.06433 0.329384 0
M  V30 13489 H 1082.41 -6.90926 1.82021 0
M  V30 13490 H 1084.24 -8.90873 1.62657 0
M  V30 13491 P 1082.37 -8.03563 3.84925 0
M  V30 13492 O 1082.15 -8.85821 5.0569 0
M  V30 13493 O 1081.58 -8.41101 2.65469 0
M  V30 13494 O 1082.12 -6.4965 4.18908 0
M  V30 13495 C 1083.06 -5.81037 5.05421 0
M  V30 13496 C 1082.33 -4.78366 5.89277 0
M  V30 13497 O 1082.12 -3.58302 5.08433 0
M  V30 13498 C 1080.93 -5.17448 6.36119 0
M  V30 13499 O 1080.54 -4.45271 7.53232 0
M  V30 13500 C 1080.05 -4.74639 5.19936 0
M  V30 13501 C 1080.76 -3.49432 4.70418 0
M  V30 13502 N 1080.71 -3.31776 3.22945 0
M  V30 13503 H 1083.55 -6.54213 5.71376 0
M  V30 13504 H 1083.82 -5.30492 4.44033 0
M  V30 13505 H 1082.96 -4.55889 6.76652 0
M  V30 13506 P 1078.99 -4.23843 7.83734 0
M  V30 13507 O 1078.77 -4.19407 9.29784 0
M  V30 13508 O 1078.2 -5.24426 7.09156 0
M  V30 13509 O 1078.74 -2.7935 7.20758 0
M  V30 13510 C 1079.68 -1.7299 7.50419 0
M  V30 13511 C 1078.95 -0.406376 7.57911 0
M  V30 13512 O 1078.74 0.0897726 6.21935 0
M  V30 13513 C 1077.55 -0.447224 8.1878 0
M  V30 13514 O 1077.16 0.825065 8.71101 0
M  V30 13515 C 1076.67 -0.783801 6.99623 0
M  V30 13516 C 1077.38 -0.0619192 5.85967 0
M  V30 13517 N 1077.33 -0.7859 4.56281 0
M  V30 13518 H 1080.17 -1.93423 8.4679 0
M  V30 13519 H 1080.44 -1.68181 6.71046 0
M  V30 13520 H 1079.58 0.289041 8.15388 0
M  V30 13521 P 1075.61 1.17771 8.83182 0
M  V30 13522 O 1075.39 2.07206 9.98732 0
M  V30 13523 O 1074.82 -0.0743816 8.81969 0
M  V30 13524 O 1075.36 1.97652 7.47304 0
M  V30 13525 C 1076.3 3.01133 7.08783 0
M  V30 13526 C 1075.57 4.12613 6.37049 0
M  V30 13527 O 1075.36 3.72827 4.97879 0
M  V30 13528 C 1074.17 4.45085 6.88694 0
M  V30 13529 O 1073.78 5.7877 6.5624 0
M  V30 13530 C 1073.29 3.47817 6.12078 0
M  V30 13531 C 1074 3.39414 4.77697 0
M  V30 13532 N 1073.95 2.04615 4.15333 0
M  V30 13533 H 1076.79 3.41248 7.98759 0
M  V30 13534 H 1077.06 2.5837 6.41742 0
M  V30 13535 H 1076.2 5.02657 6.42673 0
M  V30 13536 P 1072.23 6.144 6.45285 0
M  V30 13537 O 1072.01 7.54673 6.86199 0
M  V30 13538 O 1071.44 5.12391 7.179 0
M  V30 13539 O 1071.98 5.99158 4.88404 0
M  V30 13540 C 1072.92 6.60234 3.96415 0
M  V30 13541 C 1072.19 7.08259 2.72856 0
M  V30 13542 O 1071.98 5.9427 1.83651 0
M  V30 13543 C 1070.79 7.64886 2.9555 0
M  V30 13544 O 1070.4 8.53963 1.90717 0
M  V30 13545 C 1069.91 6.4116 2.90739 0
M  V30 13546 C 1070.62 5.55375 1.86963 0
M  V30 13547 N 1070.57 4.09448 2.16152 0
M  V30 13548 C 1070.65 3.46824 3.37593 0
M  V30 13549 N 1070.58 2.17422 3.29777 0
M  V30 13550 C 1070.43 1.93065 1.94427 0
M  V30 13551 C 1070.3 0.738053 1.20141 0
M  V30 13552 N 1070.29 -0.474256 1.74676 0
M  V30 13553 N 1070.18 0.850049 -0.13045 0
M  V30 13554 C 1070.19 2.06169 -0.676992 0
M  V30 13555 N 1070.31 3.23842 -0.101312 0
M  V30 13556 C 1070.43 3.09402 1.23122 0
M  V30 13557 H 1073.41 7.45574 4.45629 0
M  V30 13558 H 1073.68 5.85864 3.679 0
M  V30 13559 H 1072.82 7.84412 2.24479 0
M  V30 13560 H 1070.16 5.73457 0.888562 0
M  V30 13561 H 1069.88 5.90877 3.88583 0
M  V30 13562 H 1068.89 6.6596 2.58858 0
M  V30 13563 H 1070.72 8.16339 3.92049 0
M  V30 13564 H 1070.77 4.00505 4.3174 0
M  V30 13565 H 1070.38 -0.581337 2.76658 0
M  V30 13566 H 1070.2 -1.30811 1.14888 0
M  V30 13567 H 1070.09 2.08295 -1.75542 0
M  V30 13568 P 1068.85 8.7635 1.60911 0
M  V30 13569 O 1068.63 10.1388 1.11561 0
M  V30 13570 O 1068.06 8.36503 2.79617 0
M  V30 13571 O 1068.6 7.71806 0.42951 0
M  V30 13572 C 1069.54 7.67148 -0.673689 0
M  V30 13573 C 1068.81 7.33374 -1.95559 0
M  V30 13574 O 1068.6 5.88721 -2.00726 0
M  V30 13575 C 1067.41 7.92526 -2.10483 0
M  V30 13576 O 1067.02 8.02971 -3.47653 0
M  V30 13577 C 1066.53 6.89602 -1.41652 0
M  V30 13578 C 1067.24 5.59201 -1.75185 0
M  V30 13579 N 1067.19 4.58235 -0.662552 0
M  V30 13580 H 1070.03 8.65116 -0.777161 0
M  V30 13581 H 1070.3 6.90173 -0.474152 0
M  V30 13582 H 1069.44 7.66548 -2.79458 0
M  V30 13583 P 1065.47 8.03563 -3.84925 0
M  V30 13584 O 1065.25 8.85821 -5.0569 0
M  V30 13585 O 1064.68 8.41101 -2.65469 0
M  V30 13586 O 1065.22 6.4965 -4.18908 0
M  V30 13587 C 1066.16 5.81037 -5.05421 0
M  V30 13588 C 1065.43 4.78366 -5.89277 0
M  V30 13589 O 1065.22 3.58302 -5.08433 0
M  V30 13590 C 1064.03 5.17448 -6.36119 0
M  V30 13591 O 1063.64 4.45271 -7.53232 0
M  V30 13592 C 1063.15 4.74639 -5.19936 0
M  V30 13593 C 1063.86 3.49432 -4.70418 0
M  V30 13594 N 1063.81 3.31776 -3.22945 0
M  V30 13595 H 1066.65 6.54213 -5.71376 0
M  V30 13596 H 1066.92 5.30492 -4.44033 0
M  V30 13597 H 1066.06 4.55889 -6.76652 0
M  V30 13598 P 1062.09 4.23843 -7.83734 0
M  V30 13599 O 1061.87 4.19407 -9.29784 0
M  V30 13600 O 1061.3 5.24426 -7.09156 0
M  V30 13601 O 1061.84 2.7935 -7.20758 0
M  V30 13602 C 1062.78 1.7299 -7.50419 0
M  V30 13603 C 1062.05 0.406376 -7.57911 0
M  V30 13604 O 1061.84 -0.0897726 -6.21935 0
M  V30 13605 C 1060.65 0.447224 -8.1878 0
M  V30 13606 O 1060.26 -0.825065 -8.71101 0
M  V30 13607 C 1059.77 0.783801 -6.99623 0
M  V30 13608 C 1060.48 0.0619192 -5.85967 0
M  V30 13609 N 1060.43 0.7859 -4.56281 0
M  V30 13610 H 1063.27 1.93423 -8.4679 0
M  V30 13611 H 1063.54 1.68181 -6.71046 0
M  V30 13612 H 1062.68 -0.289041 -8.15388 0
M  V30 13613 P 1058.71 -1.17771 -8.83182 0
M  V30 13614 O 1058.49 -2.07206 -9.98732 0
M  V30 13615 O 1057.92 0.0743816 -8.81969 0
M  V30 13616 O 1058.46 -1.97652 -7.47304 0
M  V30 13617 C 1059.4 -3.01133 -7.08783 0
M  V30 13618 C 1058.67 -4.12613 -6.37049 0
M  V30 13619 O 1058.46 -3.72827 -4.97879 0
M  V30 13620 C 1057.27 -4.45085 -6.88694 0
M  V30 13621 O 1056.88 -5.7877 -6.5624 0
M  V30 13622 C 1056.39 -3.47817 -6.12078 0
M  V30 13623 C 1057.1 -3.39414 -4.77697 0
M  V30 13624 N 1057.05 -2.04615 -4.15333 0
M  V30 13625 C 1057.13 -0.803897 -4.75249 0
M  V30 13626 N 1057.05 0.197615 -3.91502 0
M  V30 13627 C 1056.91 -0.413002 -2.66823 0
M  V30 13628 C 1056.78 0.157221 -1.38007 0
M  V30 13629 O 1056.76 1.34419 -1.057 0
M  V30 13630 N 1056.66 -0.833136 -0.390236 0
M  V30 13631 C 1056.66 -2.19402 -0.623885 0
M  V30 13632 N 1056.53 -2.97622 0.449677 0
M  V30 13633 N 1056.79 -2.73005 -1.83601 0
M  V30 13634 C 1056.91 -1.78786 -2.80935 0
M  V30 13635 H 1059.89 -3.41248 -7.98759 0
M  V30 13636 H 1060.16 -2.5837 -6.41742 0
M  V30 13637 H 1059.3 -5.02657 -6.42673 0
M  V30 13638 H 1056.64 -4.11779 -4.09026 0
M  V30 13639 H 1056.36 -2.49661 -6.61772 0
M  V30 13640 H 1055.37 -3.86674 -6.00946 0
M  V30 13641 H 1057.2 -4.30038 -7.97094 0
M  V30 13642 H 1057.25 -0.670579 -5.82754 0
M  V30 13643 H 1056.57 -0.528446 0.557287 0
M  V30 13644 H 1056.53 -4.00117 0.344773 0
M  V30 13645 H 1056.43 -2.55448 1.38544 0
M  V30 13646 P 1055.33 -6.144 -6.45285 0
M  V30 13647 O 1055.11 -7.54673 -6.86199 0
M  V30 13648 O 1054.54 -5.12391 -7.179 0
M  V30 13649 O 1055.08 -5.99158 -4.88404 0
M  V30 13650 C 1056.02 -6.60234 -3.96415 0
M  V30 13651 C 1055.29 -7.08259 -2.72856 0
M  V30 13652 O 1055.08 -5.9427 -1.83651 0
M  V30 13653 C 1053.89 -7.64886 -2.9555 0
M  V30 13654 O 1053.5 -8.53963 -1.90717 0
M  V30 13655 C 1053.01 -6.4116 -2.90739 0
M  V30 13656 C 1053.72 -5.55375 -1.86963 0
M  V30 13657 N 1053.67 -4.09664 -2.15742 0
M  V30 13658 H 1056.51 -7.45574 -4.45629 0
M  V30 13659 H 1056.78 -5.86232 -3.67314 0
M  V30 13660 H 1055.92 -7.84412 -2.24479 0
M  V30 13661 P 1051.95 -8.7635 -1.60911 0
M  V30 13662 O 1051.73 -10.1388 -1.11561 0
M  V30 13663 O 1051.16 -8.36503 -2.79617 0
M  V30 13664 O 1051.7 -7.71906 -0.429565 0
M  V30 13665 C 1052.64 -7.67148 0.673689 0
M  V30 13666 C 1051.91 -7.33666 1.94851 0
M  V30 13667 O 1051.7 -5.88816 2.00759 0
M  V30 13668 C 1050.51 -7.92526 2.10483 0
M  V30 13669 O 1050.12 -8.03063 3.47693 0
M  V30 13670 C 1049.63 -6.89602 1.41652 0
M  V30 13671 C 1050.34 -5.59201 1.75185 0
M  V30 13672 N 1050.29 -4.58235 0.662552 0
M  V30 13673 C 1050.14 -3.24451 1.01643 0
M  V30 13674 O 1050.05 -2.94958 2.21722 0
M  V30 13675 N 1050.09 -2.30408 -0.165238 0
M  V30 13676 C 1050.19 -2.66048 -1.25118 0
M  V30 13677 N 1050.14 -1.70787 -2.16813 0
M  V30 13678 C 1050.34 -4.02732 -1.64413 0
M  V30 13679 C 1050.39 -4.9488 -0.63991 0
M  V30 13680 H 1053.13 -8.65017 0.777072 0
M  V30 13681 H 1053.4 -6.90173 0.474152 0
M  V30 13682 H 1052.54 -7.66642 2.79492 0
M  V30 13683 H 1049.88 -5.16254 2.65229 0
M  V30 13684 H 1049.6 -7.06532 0.329431 0
M  V30 13685 H 1048.61 -6.91023 1.82047 0
M  V30 13686 H 1050.44 -8.90873 1.62657 0
M  V30 13687 H 1050.52 -6.00104 -0.892197 0
M  V30 13688 H 1050.41 -4.31733 -2.69229 0
M  V30 13689 H 1050.03 -0.724835 -1.8844 0
M  V30 13690 H 1050.22 -1.94716 -3.16734 0
M  V30 13691 P 1048.57 -8.03563 3.84925 0
M  V30 13692 O 1048.35 -8.85821 5.0569 0
M  V30 13693 O 1047.78 -8.41101 2.65469 0
M  V30 13694 O 1048.32 -6.4965 4.18908 0
M  V30 13695 C 1049.26 -5.81037 5.05421 0
M  V30 13696 C 1048.53 -4.78366 5.89277 0
M  V30 13697 O 1048.32 -3.58302 5.08433 0
M  V30 13698 C 1047.13 -5.17448 6.36119 0
M  V30 13699 O 1046.74 -4.45271 7.53232 0
M  V30 13700 C 1046.25 -4.74639 5.19936 0
M  V30 13701 C 1046.96 -3.49432 4.70418 0
M  V30 13702 N 1046.91 -3.32099 3.22613 0
M  V30 13703 H 1049.75 -6.54213 5.71376 0
M  V30 13704 H 1050.02 -5.30936 4.43503 0
M  V30 13705 H 1049.16 -4.55889 6.76652 0
M  V30 13706 H 1046.5 -2.61715 5.17932 0
M  V30 13707 H 1046.22 -5.52155 4.41878 0
M  V30 13708 H 1045.23 -4.51981 5.53374 0
M  V30 13709 H 1047.06 -6.25124 6.55234 0
M  V30 13710 P 1045.19 -4.23843 7.83734 0
M  V30 13711 O 1044.97 -4.19407 9.29784 0
M  V30 13712 O 1044.4 -5.24426 7.09156 0
M  V30 13713 O 1044.94 -2.7935 7.20758 0
M  V30 13714 C 1045.88 -1.7299 7.50419 0
M  V30 13715 C 1045.15 -0.406376 7.57911 0
M  V30 13716 O 1044.94 0.0897726 6.21935 0
M  V30 13717 C 1043.75 -0.447224 8.1878 0
M  V30 13718 O 1043.36 0.825065 8.71101 0
M  V30 13719 C 1042.87 -0.783801 6.99623 0
M  V30 13720 C 1043.58 -0.0619192 5.85967 0
M  V30 13721 N 1043.53 -0.7859 4.56281 0
M  V30 13722 H 1046.37 -1.93423 8.4679 0
M  V30 13723 H 1046.64 -1.68181 6.71046 0
M  V30 13724 H 1045.78 0.289041 8.15388 0
M  V30 13725 P 1041.81 1.17771 8.83182 0
M  V30 13726 O 1041.59 2.07206 9.98732 0
M  V30 13727 O 1041.02 -0.0743816 8.81969 0
M  V30 13728 O 1041.56 1.97652 7.47304 0
M  V30 13729 C 1042.5 3.01133 7.08783 0
M  V30 13730 C 1041.77 4.12613 6.37049 0
M  V30 13731 O 1041.56 3.72827 4.97879 0
M  V30 13732 C 1040.37 4.45085 6.88694 0
M  V30 13733 O 1039.98 5.7877 6.5624 0
M  V30 13734 C 1039.49 3.47817 6.12078 0
M  V30 13735 C 1040.2 3.39414 4.77697 0
M  V30 13736 N 1040.15 2.04199 4.15538 0
M  V30 13737 H 1042.99 3.41248 7.98759 0
M  V30 13738 H 1043.26 2.57728 6.42 0
M  V30 13739 H 1042.4 5.02657 6.42673 0
M  V30 13740 H 1039.74 4.11708 4.08956 0
M  V30 13741 H 1039.46 2.49626 6.61679 0
M  V30 13742 H 1038.47 3.8662 6.00862 0
M  V30 13743 H 1040.3 4.29991 7.97006 0
M  V30 13744 P 1038.43 6.144 6.45285 0
M  V30 13745 O 1038.21 7.54673 6.86199 0
M  V30 13746 O 1037.64 5.12391 7.179 0
M  V30 13747 O 1038.18 5.99158 4.88404 0
M  V30 13748 C 1039.12 6.60234 3.96415 0
M  V30 13749 C 1038.39 7.08259 2.72856 0
M  V30 13750 O 1038.18 5.9427 1.83651 0
M  V30 13751 C 1036.99 7.64886 2.9555 0
M  V30 13752 O 1036.6 8.53963 1.90717 0
M  V30 13753 C 1036.11 6.4116 2.90739 0
M  V30 13754 C 1036.82 5.55375 1.86963 0
M  V30 13755 N 1036.77 4.09448 2.16152 0
M  V30 13756 H 1039.61 7.45574 4.45629 0
M  V30 13757 H 1039.88 5.85864 3.679 0
M  V30 13758 H 1039.02 7.84412 2.24479 0
M  V30 13759 H 1036.36 5.73457 0.888562 0
M  V30 13760 H 1036.08 5.90877 3.88583 0
M  V30 13761 H 1035.09 6.6596 2.58858 0
M  V30 13762 H 1036.92 8.16339 3.92049 0
M  V30 13763 P 1035.05 8.7635 1.60911 0
M  V30 13764 O 1034.83 10.1388 1.11561 0
M  V30 13765 O 1034.26 8.36503 2.79617 0
M  V30 13766 O 1034.8 7.71806 0.42951 0
M  V30 13767 C 1035.74 7.67148 -0.673689 0
M  V30 13768 C 1035.01 7.33374 -1.95559 0
M  V30 13769 O 1034.8 5.88721 -2.00726 0
M  V30 13770 C 1033.61 7.92526 -2.10483 0
M  V30 13771 O 1033.22 8.02971 -3.47653 0
M  V30 13772 C 1032.73 6.89602 -1.41652 0
M  V30 13773 C 1033.44 5.59201 -1.75185 0
M  V30 13774 N 1033.39 4.58235 -0.662552 0
M  V30 13775 C 1033.47 4.7683 0.704049 0
M  V30 13776 N 1033.39 3.66233 1.39775 0
M  V30 13777 C 1033.25 2.66526 0.431739 0
M  V30 13778 C 1033.12 1.26394 0.575992 0
M  V30 13779 N 1033 0.62859 -0.67177 0
M  V30 13780 C 1033 1.27134 -1.89385 0
M  V30 13781 N 1032.87 0.492035 -2.96951 0
M  V30 13782 N 1033.13 2.58978 -2.02907 0
M  V30 13783 C 1033.25 3.22433 -0.832218 0
M  V30 13784 H 1036.23 8.65116 -0.777161 0
M  V30 13785 H 1036.5 6.90173 -0.474152 0
M  V30 13786 H 1035.64 7.66548 -2.79458 0
M  V30 13787 P 1031.67 8.03563 -3.84925 0
M  V30 13788 O 1031.45 8.85821 -5.0569 0
M  V30 13789 O 1030.88 8.41101 -2.65469 0
M  V30 13790 O 1031.42 6.4965 -4.18908 0
M  V30 13791 C 1032.36 5.80886 -5.05289 0
M  V30 13792 C 1031.63 4.78366 -5.89277 0
M  V30 13793 O 1031.42 3.58302 -5.08433 0
M  V30 13794 C 1030.23 5.16748 -6.36559 0
M  V30 13795 O 1029.84 4.45271 -7.53232 0
M  V30 13796 C 1029.35 4.74572 -5.19863 0
M  V30 13797 C 1030.06 3.49373 -4.70338 0
M  V30 13798 N 1030.01 3.31704 -3.22876 0
M  V30 13799 C 1029.86 2.03326 -2.74871 0
M  V30 13800 O 1029.77 1.06486 -3.48076 0
M  V30 13801 N 1029.82 1.91838 -1.37456 0
M  V30 13802 C 1029.91 2.94295 -0.462035 0
M  V30 13803 O 1029.86 2.71763 0.752928 0
M  V30 13804 C 1030.06 4.25064 -1.05249 0
M  V30 13805 C 1030.17 5.39815 -0.095697 0
M  V30 13806 C 1030.11 4.40214 -2.39192 0
M  V30 13807 H 1032.85 6.54063 -5.71245 0
M  V30 13808 H 1033.12 5.30339 -4.43905 0
M  V30 13809 H 1032.26 4.55889 -6.76652 0
M  V30 13810 H 1029.6 2.6167 -5.17842 0
M  V30 13811 H 1029.32 5.52155 -4.41878 0
M  V30 13812 H 1028.33 4.51918 -5.53297 0
M  V30 13813 H 1030.16 6.25055 -6.55162 0
M  V30 13814 H 1030.24 5.39798 -2.81523 0
M  V30 13815 H 1029.21 5.91593 -0.0279582 0
M  V30 13816 H 1030.94 6.10038 -0.450573 0
M  V30 13817 H 1030.45 5.02007 0.89937 0
M  V30 13818 H 1029.72 0.995326 -1.00435 0
M  V30 13819 P 1028.29 4.23843 -7.83734 0
M  V30 13820 O 1028.07 4.19407 -9.29784 0
M  V30 13821 O 1027.5 5.24426 -7.09156 0
M  V30 13822 O 1028.04 2.7935 -7.20758 0
M  V30 13823 C 1028.98 1.7299 -7.50419 0
M  V30 13824 C 1028.25 0.406376 -7.57911 0
M  V30 13825 O 1028.04 -0.0897726 -6.21935 0
M  V30 13826 C 1026.85 0.447224 -8.1878 0
M  V30 13827 O 1026.46 -0.825065 -8.71101 0
M  V30 13828 C 1025.97 0.783801 -6.99623 0
M  V30 13829 C 1026.68 0.0619192 -5.85967 0
M  V30 13830 N 1026.63 0.7859 -4.56281 0
M  V30 13831 H 1029.47 1.93423 -8.4679 0
M  V30 13832 H 1029.74 1.68181 -6.71046 0
M  V30 13833 H 1028.88 -0.289041 -8.15388 0
M  V30 13834 P 1024.91 -1.17771 -8.83182 0
M  V30 13835 O 1024.69 -2.07206 -9.98732 0
M  V30 13836 O 1024.12 0.0743816 -8.81969 0
M  V30 13837 O 1024.66 -1.97652 -7.47304 0
M  V30 13838 C 1025.6 -3.01133 -7.08783 0
M  V30 13839 C 1024.87 -4.12613 -6.37049 0
M  V30 13840 O 1024.66 -3.72827 -4.97879 0
M  V30 13841 C 1023.47 -4.45085 -6.88694 0
M  V30 13842 O 1023.08 -5.7877 -6.5624 0
M  V30 13843 C 1022.59 -3.47817 -6.12078 0
M  V30 13844 C 1023.3 -3.39414 -4.77697 0
M  V30 13845 N 1023.25 -2.04199 -4.15538 0
M  V30 13846 H 1026.09 -3.41248 -7.98759 0
M  V30 13847 H 1026.36 -2.57728 -6.42 0
M  V30 13848 H 1025.5 -5.02657 -6.42673 0
M  V30 13849 H 1022.84 -4.11708 -4.08956 0
M  V30 13850 H 1022.56 -2.49626 -6.61679 0
M  V30 13851 H 1021.57 -3.8662 -6.00862 0
M  V30 13852 H 1023.4 -4.29991 -7.97006 0
M  V30 13853 P 1021.53 -6.144 -6.45285 0
M  V30 13854 O 1021.31 -7.54673 -6.86199 0
M  V30 13855 O 1020.74 -5.12391 -7.179 0
M  V30 13856 O 1021.28 -5.99158 -4.88404 0
M  V30 13857 C 1022.22 -6.60234 -3.96415 0
M  V30 13858 C 1021.49 -7.08259 -2.72856 0
M  V30 13859 O 1021.28 -5.9427 -1.83651 0
M  V30 13860 C 1020.09 -7.64886 -2.9555 0
M  V30 13861 O 1019.7 -8.53963 -1.90717 0
M  V30 13862 C 1019.21 -6.4116 -2.90739 0
M  V30 13863 C 1019.92 -5.55375 -1.86963 0
M  V30 13864 N 1019.87 -4.09664 -2.15742 0
M  V30 13865 H 1022.71 -7.45574 -4.45629 0
M  V30 13866 H 1022.98 -5.86232 -3.67314 0
M  V30 13867 H 1022.12 -7.84412 -2.24479 0
M  V30 13868 P 1018.15 -8.7635 -1.60911 0
M  V30 13869 O 1017.93 -10.1388 -1.11561 0
M  V30 13870 O 1017.36 -8.36503 -2.79617 0
M  V30 13871 O 1017.9 -7.71806 -0.42951 0
M  V30 13872 C 1018.84 -7.67148 0.673689 0
M  V30 13873 C 1018.11 -7.33374 1.95559 0
M  V30 13874 O 1017.9 -5.88721 2.00726 0
M  V30 13875 C 1016.71 -7.92526 2.10483 0
M  V30 13876 O 1016.32 -8.02971 3.47653 0
M  V30 13877 C 1015.83 -6.89602 1.41652 0
M  V30 13878 C 1016.54 -5.59201 1.75185 0
M  V30 13879 N 1016.49 -4.58235 0.662552 0
M  V30 13880 H 1019.33 -8.65116 0.777161 0
M  V30 13881 H 1019.61 -6.90173 0.474152 0
M  V30 13882 H 1018.74 -7.66548 2.79458 0
M  V30 13883 P 1014.77 -8.03563 3.84925 0
M  V30 13884 O 1014.55 -8.85821 5.0569 0
M  V30 13885 O 1013.98 -8.41101 2.65469 0
M  V30 13886 O 1014.52 -6.4965 4.18908 0
M  V30 13887 C 1015.46 -5.81037 5.05421 0
M  V30 13888 C 1014.73 -4.78366 5.89277 0
M  V30 13889 O 1014.52 -3.58302 5.08433 0
M  V30 13890 C 1013.33 -5.17448 6.36119 0
M  V30 13891 O 1012.94 -4.45271 7.53232 0
M  V30 13892 C 1012.45 -4.74639 5.19936 0
M  V30 13893 C 1013.16 -3.49432 4.70418 0
M  V30 13894 N 1013.11 -3.32099 3.22613 0
M  V30 13895 H 1015.95 -6.54213 5.71376 0
M  V30 13896 H 1016.23 -5.30936 4.43503 0
M  V30 13897 H 1015.36 -4.55889 6.76652 0
M  V30 13898 H 1012.7 -2.61715 5.17932 0
M  V30 13899 H 1012.42 -5.52155 4.41878 0
M  V30 13900 H 1011.43 -4.51981 5.53374 0
M  V30 13901 H 1013.27 -6.25124 6.55234 0
M  V30 13902 P 1011.39 -4.23843 7.83734 0
M  V30 13903 O 1011.17 -4.19407 9.29784 0
M  V30 13904 O 1010.6 -5.24426 7.09156 0
M  V30 13905 O 1011.14 -2.7935 7.20758 0
M  V30 13906 C 1012.08 -1.7299 7.50419 0
M  V30 13907 C 1011.35 -0.406376 7.57911 0
M  V30 13908 O 1011.14 0.0897726 6.21935 0
M  V30 13909 C 1009.95 -0.447224 8.1878 0
M  V30 13910 O 1009.56 0.825065 8.71101 0
M  V30 13911 C 1009.07 -0.783801 6.99623 0
M  V30 13912 C 1009.78 -0.0619192 5.85967 0
M  V30 13913 N 1009.73 -0.790462 4.56202 0
M  V30 13914 H 1012.57 -1.93423 8.4679 0
M  V30 13915 H 1012.85 -1.68852 6.70877 0
M  V30 13916 H 1011.98 0.289041 8.15388 0
M  V30 13917 H 1009.32 0.927006 5.72848 0
M  V30 13918 H 1009.04 -1.86973 6.82036 0
M  V30 13919 H 1008.05 -0.403953 7.13357 0
M  V30 13920 H 1009.89 -1.20599 8.97534 0
M  V30 13921 P 1008.01 1.17771 8.83182 0
M  V30 13922 O 1007.79 2.07206 9.98732 0
M  V30 13923 O 1007.22 -0.0743816 8.81969 0
M  V30 13924 O 1007.76 1.97652 7.47304 0
M  V30 13925 C 1008.7 3.01055 7.08599 0
M  V30 13926 C 1007.97 4.12613 6.37049 0
M  V30 13927 O 1007.76 3.72827 4.97879 0
M  V30 13928 C 1006.57 4.45719 6.88164 0
M  V30 13929 O 1006.18 5.7877 6.5624 0
M  V30 13930 C 1005.69 3.47768 6.11991 0
M  V30 13931 C 1006.4 3.39356 4.77615 0
M  V30 13932 N 1006.35 2.04571 4.15244 0
M  V30 13933 C 1006.2 1.98587 2.78314 0
M  V30 13934 O 1006.11 2.98134 2.08835 0
M  V30 13935 N 1006.16 0.714467 2.24925 0
M  V30 13936 C 1006.25 -0.470001 2.94169 0
M  V30 13937 O 1006.2 -1.55587 2.35195 0
M  V30 13938 C 1006.4 -0.312541 4.36783 0
M  V30 13939 C 1006.51 -1.57711 5.16352 0
M  V30 13940 C 1006.45 0.914512 4.92583 0
M  V30 13941 H 1009.2 3.41169 7.98575 0
M  V30 13942 H 1009.46 2.58295 6.41556 0
M  V30 13943 H 1008.6 5.02657 6.42673 0
M  V30 13944 H 1005.94 4.11637 4.08885 0
M  V30 13945 H 1005.66 2.49626 6.61679 0
M  V30 13946 H 1004.67 3.86566 6.00778 0
M  V30 13947 H 1006.51 4.29943 7.96918 0
M  V30 13948 H 1006.58 1.00937 6.00374 0
M  V30 13949 H 1005.55 -1.80153 5.63503 0
M  V30 13950 H 1007.28 -1.4566 5.94104 0
M  V30 13951 H 1006.8 -2.40664 4.49645 0
M  V30 13952 H 1006.06 0.647622 1.25697 0
M  V30 13953 P 1004.63 6.144 6.45285 0
M  V30 13954 O 1004.41 7.54673 6.86199 0
M  V30 13955 O 1003.84 5.12391 7.179 0
M  V30 13956 O 1004.38 5.99158 4.88404 0
M  V30 13957 C 1005.32 6.60234 3.96415 0
M  V30 13958 C 1004.59 7.08259 2.72856 0
M  V30 13959 O 1004.38 5.9427 1.83651 0
M  V30 13960 C 1003.19 7.64886 2.9555 0
M  V30 13961 O 1002.8 8.53963 1.90717 0
M  V30 13962 C 1002.31 6.4116 2.90739 0
M  V30 13963 C 1003.02 5.55375 1.86963 0
M  V30 13964 N 1002.97 4.09448 2.16152 0
M  V30 13965 H 1005.81 7.45574 4.45629 0
M  V30 13966 H 1006.09 5.85864 3.679 0
M  V30 13967 H 1005.22 7.84412 2.24479 0
M  V30 13968 H 1002.56 5.73457 0.888562 0
M  V30 13969 H 1002.28 5.90877 3.88583 0
M  V30 13970 H 1001.29 6.6596 2.58858 0
M  V30 13971 H 1003.13 8.16339 3.92049 0
M  V30 13972 P 1001.25 8.7635 1.60911 0
M  V30 13973 O 1001.03 10.1388 1.11561 0
M  V30 13974 O 1000.46 8.36503 2.79617 0
M  V30 13975 O 1001 7.71806 0.42951 0
M  V30 13976 C 1001.94 7.67148 -0.673689 0
M  V30 13977 C 1001.21 7.33374 -1.95559 0
M  V30 13978 O 1001 5.88721 -2.00726 0
M  V30 13979 C 999.814 7.92526 -2.10483 0
M  V30 13980 O 999.424 8.02971 -3.47653 0
M  V30 13981 C 998.934 6.89602 -1.41652 0
M  V30 13982 C 999.644 5.59201 -1.75185 0
M  V30 13983 N 999.594 4.58235 -0.662552 0
M  V30 13984 H 1002.43 8.65116 -0.777161 0
M  V30 13985 H 1002.71 6.90173 -0.474152 0
M  V30 13986 H 1001.84 7.66548 -2.79458 0
M  V30 13987 P 997.874 8.03563 -3.84925 0
M  V30 13988 O 997.654 8.85821 -5.0569 0
M  V30 13989 O 997.084 8.41101 -2.65469 0
M  V30 13990 O 997.624 6.4965 -4.18908 0
M  V30 13991 C 998.564 5.81037 -5.05421 0
M  V30 13992 C 997.834 4.78366 -5.89277 0
M  V30 13993 O 997.624 3.58302 -5.08433 0
M  V30 13994 C 996.434 5.17448 -6.36119 0
M  V30 13995 O 996.044 4.45271 -7.53232 0
M  V30 13996 C 995.554 4.74639 -5.19936 0
M  V30 13997 C 996.264 3.49432 -4.70418 0
M  V30 13998 N 996.214 3.32099 -3.22613 0
M  V30 13999 C 996.294 4.28245 -2.25527 0
M  V30 14000 N 996.224 3.80823 -1.04874 0
M  V30 14001 C 996.074 2.44571 -1.23535 0
M  V30 14002 C 995.944 1.37068 -0.330675 0
M  V30 14003 N 995.934 1.51472 0.990824 0
M  V30 14004 N 995.824 0.138614 -0.848756 0
M  V30 14005 C 995.834 -0.00675923 -2.16999 0
M  V30 14006 N 995.954 0.904372 -3.11122 0
M  V30 14007 C 996.074 2.12707 -2.56212 0
M  V30 14008 H 999.053 6.54213 -5.71376 0
M  V30 14009 H 999.325 5.30936 -4.43503 0
M  V30 14010 H 998.457 4.55889 -6.76652 0
M  V30 14011 H 995.802 2.61715 -5.17932 0
M  V30 14012 H 995.522 5.52155 -4.41878 0
M  V30 14013 H 994.531 4.51981 -5.53374 0
M  V30 14014 H 996.365 6.25124 -6.55234 0
M  V30 14015 H 996.406 5.34372 -2.47488 0
M  V30 14016 H 996.025 2.45153 1.4078 0
M  V30 14017 H 995.836 0.688422 1.59911 0
M  V30 14018 H 995.728 -1.02584 -2.52346 0
M  V30 14019 P 994.494 4.23843 -7.83734 0
M  V30 14020 O 994.274 4.19407 -9.29784 0
M  V30 14021 O 993.704 5.24426 -7.09156 0
M  V30 14022 O 994.244 2.7935 -7.20758 0
M  V30 14023 C 995.184 1.7299 -7.50419 0
M  V30 14024 C 994.454 0.406376 -7.57911 0
M  V30 14025 O 994.244 -0.0897726 -6.21935 0
M  V30 14026 C 993.054 0.447224 -8.1878 0
M  V30 14027 O 992.664 -0.825065 -8.71101 0
M  V30 14028 C 992.174 0.783801 -6.99623 0
M  V30 14029 C 992.884 0.0619192 -5.85967 0
M  V30 14030 N 992.834 0.790462 -4.56202 0
M  V30 14031 C 992.914 2.13895 -4.34171 0
M  V30 14032 N 992.844 2.46449 -3.08687 0
M  V30 14033 C 992.694 1.2525 -2.43697 0
M  V30 14034 C 992.564 0.914535 -1.07318 0
M  V30 14035 N 992.554 1.80782 -0.0887348 0
M  V30 14036 N 992.444 -0.386745 -0.768133 0
M  V30 14037 C 992.454 -1.28096 -1.75159 0
M  V30 14038 N 992.574 -1.09708 -3.04861 0
M  V30 14039 C 992.694 0.214857 -3.32306 0
M  V30 14040 H 995.673 1.93423 -8.4679 0
M  V30 14041 H 995.945 1.68852 -6.70877 0
M  V30 14042 H 995.077 -0.289041 -8.15388 0
M  V30 14043 H 992.422 -0.927006 -5.72848 0
M  V30 14044 H 992.142 1.86973 -6.82036 0
M  V30 14045 H 991.151 0.403953 -7.13357 0
M  V30 14046 H 992.985 1.20599 -8.97534 0
M  V30 14047 H 993.026 2.86846 -5.14318 0
M  V30 14048 H 992.645 2.81082 -0.302037 0
M  V30 14049 H 992.456 1.49688 0.889064 0
M  V30 14050 H 992.348 -2.31317 -1.43855 0
M  V30 14051 P 991.114 -1.17771 -8.83182 0
M  V30 14052 O 990.894 -2.07206 -9.98732 0
M  V30 14053 O 990.324 0.0743816 -8.81969 0
M  V30 14054 O 990.864 -1.97652 -7.47304 0
M  V30 14055 C 991.804 -3.01133 -7.08783 0
M  V30 14056 C 991.074 -4.12613 -6.37049 0
M  V30 14057 O 990.864 -3.72827 -4.97879 0
M  V30 14058 C 989.674 -4.45085 -6.88694 0
M  V30 14059 O 989.284 -5.7877 -6.5624 0
M  V30 14060 C 988.794 -3.47817 -6.12078 0
M  V30 14061 C 989.504 -3.39414 -4.77697 0
M  V30 14062 N 989.454 -2.04199 -4.15538 0
M  V30 14063 H 992.293 -3.41248 -7.98759 0
M  V30 14064 H 992.565 -2.57728 -6.42 0
M  V30 14065 H 991.697 -5.02657 -6.42673 0
M  V30 14066 H 989.042 -4.11708 -4.08956 0
M  V30 14067 H 988.762 -2.49626 -6.61679 0
M  V30 14068 H 987.771 -3.8662 -6.00862 0
M  V30 14069 H 989.605 -4.29991 -7.97006 0
M  V30 14070 P 987.734 -6.144 -6.45285 0
M  V30 14071 O 987.514 -7.54673 -6.86199 0
M  V30 14072 O 986.944 -5.12391 -7.179 0
M  V30 14073 O 987.484 -5.99158 -4.88404 0
M  V30 14074 C 988.424 -6.60234 -3.96415 0
M  V30 14075 C 987.694 -7.08259 -2.72856 0
M  V30 14076 O 987.484 -5.9427 -1.83651 0
M  V30 14077 C 986.294 -7.64886 -2.9555 0
M  V30 14078 O 985.904 -8.53963 -1.90717 0
M  V30 14079 C 985.414 -6.4116 -2.90739 0
M  V30 14080 C 986.124 -5.55375 -1.86963 0
M  V30 14081 N 986.074 -4.09448 -2.16152 0
M  V30 14082 H 988.913 -7.45574 -4.45629 0
M  V30 14083 H 989.185 -5.85864 -3.679 0
M  V30 14084 H 988.317 -7.84412 -2.24479 0
M  V30 14085 H 985.662 -5.73457 -0.888562 0
M  V30 14086 H 985.382 -5.90877 -3.88583 0
M  V30 14087 H 984.391 -6.6596 -2.58858 0
M  V30 14088 H 986.225 -8.16339 -3.92049 0
M  V30 14089 P 984.354 -8.7635 -1.60911 0
M  V30 14090 O 984.134 -10.1388 -1.11561 0
M  V30 14091 O 983.564 -8.36503 -2.79617 0
M  V30 14092 O 984.104 -7.71806 -0.42951 0
M  V30 14093 C 985.044 -7.67148 0.673689 0
M  V30 14094 C 984.314 -7.33374 1.95559 0
M  V30 14095 O 984.104 -5.88721 2.00726 0
M  V30 14096 C 982.914 -7.92526 2.10483 0
M  V30 14097 O 982.524 -8.02971 3.47653 0
M  V30 14098 C 982.034 -6.89602 1.41652 0
M  V30 14099 C 982.744 -5.59201 1.75185 0
M  V30 14100 N 982.694 -4.58235 0.662552 0
M  V30 14101 H 985.533 -8.65116 0.777161 0
M  V30 14102 H 985.805 -6.90173 0.474152 0
M  V30 14103 H 984.937 -7.66548 2.79458 0
M  V30 14104 P 980.974 -8.03563 3.84925 0
M  V30 14105 O 980.754 -8.85821 5.0569 0
M  V30 14106 O 980.184 -8.41101 2.65469 0
M  V30 14107 O 980.724 -6.4965 4.18908 0
M  V30 14108 C 981.664 -5.81037 5.05421 0
M  V30 14109 C 980.934 -4.78366 5.89277 0
M  V30 14110 O 980.724 -3.58302 5.08433 0
M  V30 14111 C 979.534 -5.17448 6.36119 0
M  V30 14112 O 979.144 -4.45271 7.53232 0
M  V30 14113 C 978.654 -4.74639 5.19936 0
M  V30 14114 C 979.364 -3.49432 4.70418 0
M  V30 14115 N 979.314 -3.31776 3.22945 0
M  V30 14116 C 979.394 -4.27147 2.23315 0
M  V30 14117 N 979.314 -3.78447 1.02186 0
M  V30 14118 C 979.174 -2.41001 1.21732 0
M  V30 14119 C 979.044 -1.36111 0.27694 0
M  V30 14120 N 978.924 -0.113683 0.912949 0
M  V30 14121 C 978.924 0.0846396 2.27943 0
M  V30 14122 N 978.794 1.34737 2.6916 0
M  V30 14123 N 979.054 -0.902521 3.16379 0
M  V30 14124 C 979.174 -2.11937 2.56849 0
M  V30 14125 H 982.153 -6.54213 5.71376 0
M  V30 14126 H 982.425 -5.30492 4.44033 0
M  V30 14127 H 981.557 -4.55889 6.76652 0
M  V30 14128 P 977.594 -4.23843 7.83734 0
M  V30 14129 O 977.374 -4.19407 9.29784 0
M  V30 14130 O 976.804 -5.24426 7.09156 0
M  V30 14131 O 977.344 -2.7935 7.20758 0
M  V30 14132 C 978.284 -1.7299 7.50419 0
M  V30 14133 C 977.554 -0.406376 7.57911 0
M  V30 14134 O 977.344 0.0897726 6.21935 0
M  V30 14135 C 976.154 -0.447224 8.1878 0
M  V30 14136 O 975.764 0.825065 8.71101 0
M  V30 14137 C 975.274 -0.783801 6.99623 0
M  V30 14138 C 975.984 -0.0619192 5.85967 0
M  V30 14139 N 975.934 -0.790462 4.56202 0
M  V30 14140 H 978.773 -1.93423 8.4679 0
M  V30 14141 H 979.045 -1.68852 6.70877 0
M  V30 14142 H 978.177 0.289041 8.15388 0
M  V30 14143 H 975.522 0.927006 5.72848 0
M  V30 14144 H 975.242 -1.86973 6.82036 0
M  V30 14145 H 974.251 -0.403953 7.13357 0
M  V30 14146 H 976.085 -1.20599 8.97534 0
M  V30 14147 P 974.214 1.17771 8.83182 0
M  V30 14148 O 973.994 2.07206 9.98732 0
M  V30 14149 O 973.424 -0.0743816 8.81969 0
M  V30 14150 O 973.964 1.97652 7.47304 0
M  V30 14151 C 974.904 3.01133 7.08783 0
M  V30 14152 C 974.174 4.12613 6.37049 0
M  V30 14153 O 973.964 3.72827 4.97879 0
M  V30 14154 C 972.774 4.45085 6.88694 0
M  V30 14155 O 972.384 5.7877 6.5624 0
M  V30 14156 C 971.894 3.47817 6.12078 0
M  V30 14157 C 972.604 3.39414 4.77697 0
M  V30 14158 N 972.554 2.04615 4.15333 0
M  V30 14159 C 972.634 0.803897 4.75249 0
M  V30 14160 N 972.554 -0.197615 3.91502 0
M  V30 14161 C 972.414 0.413002 2.66823 0
M  V30 14162 C 972.284 -0.157221 1.38007 0
M  V30 14163 N 972.164 0.833136 0.390236 0
M  V30 14164 C 972.164 2.19402 0.623885 0
M  V30 14165 N 972.034 2.97622 -0.449677 0
M  V30 14166 N 972.294 2.73005 1.83601 0
M  V30 14167 C 972.414 1.78786 2.80935 0
M  V30 14168 H 975.393 3.41248 7.98759 0
M  V30 14169 H 975.665 2.5837 6.41742 0
M  V30 14170 H 974.797 5.02657 6.42673 0
M  V30 14171 P 970.834 6.144 6.45285 0
M  V30 14172 O 970.614 7.54673 6.86199 0
M  V30 14173 O 970.044 5.12391 7.179 0
M  V30 14174 O 970.584 5.99158 4.88404 0
M  V30 14175 C 971.524 6.60234 3.96415 0
M  V30 14176 C 970.794 7.08259 2.72856 0
M  V30 14177 O 970.584 5.9427 1.83651 0
M  V30 14178 C 969.394 7.64886 2.9555 0
M  V30 14179 O 969.004 8.53963 1.90717 0
M  V30 14180 C 968.514 6.4116 2.90739 0
M  V30 14181 C 969.224 5.55375 1.86963 0
M  V30 14182 N 969.174 4.09664 2.15742 0
M  V30 14183 H 972.013 7.45574 4.45629 0
M  V30 14184 H 972.285 5.86232 3.67314 0
M  V30 14185 H 971.417 7.84412 2.24479 0
M  V30 14186 P 967.454 8.7635 1.60911 0
M  V30 14187 O 967.234 10.1388 1.11561 0
M  V30 14188 O 966.664 8.36503 2.79617 0
M  V30 14189 O 967.204 7.71806 0.42951 0
M  V30 14190 C 968.144 7.67148 -0.673689 0
M  V30 14191 C 967.414 7.33374 -1.95559 0
M  V30 14192 O 967.204 5.88721 -2.00726 0
M  V30 14193 C 966.014 7.92526 -2.10483 0
M  V30 14194 O 965.624 8.02971 -3.47653 0
M  V30 14195 C 965.134 6.89602 -1.41652 0
M  V30 14196 C 965.844 5.59201 -1.75185 0
M  V30 14197 N 965.794 4.58301 -0.657969 0
M  V30 14198 H 968.633 8.65116 -0.777161 0
M  V30 14199 H 968.905 6.9022 -0.46725 0
M  V30 14200 H 968.037 7.66548 -2.79458 0
M  V30 14201 H 965.382 5.16165 -2.65183 0
M  V30 14202 H 965.102 7.06433 -0.329384 0
M  V30 14203 H 964.111 6.90926 -1.82021 0
M  V30 14204 H 965.945 8.90873 -1.62657 0
M  V30 14205 P 964.074 8.03563 -3.84925 0
M  V30 14206 O 963.854 8.85821 -5.0569 0
M  V30 14207 O 963.284 8.41101 -2.65469 0
M  V30 14208 O 963.824 6.49734 -4.18962 0
M  V30 14209 C 964.764 5.81037 -5.05421 0
M  V30 14210 C 964.034 4.79018 -5.88876 0
M  V30 14211 O 963.824 3.58359 -5.08515 0
M  V30 14212 C 962.634 5.17448 -6.36119 0
M  V30 14213 O 962.244 4.45322 -7.53318 0
M  V30 14214 C 961.754 4.74639 -5.19936 0
M  V30 14215 C 962.464 3.49432 -4.70418 0
M  V30 14216 N 962.414 3.31776 -3.22945 0
M  V30 14217 C 962.264 2.02742 -2.72939 0
M  V30 14218 O 962.174 1.08301 -3.52749 0
M  V30 14219 N 962.214 1.96117 -1.22063 0
M  V30 14220 C 962.314 2.8878 -0.551566 0
M  V30 14221 N 962.264 2.65609 0.750198 0
M  V30 14222 C 962.464 4.22457 -1.03707 0
M  V30 14223 C 962.514 4.37979 -2.39113 0
M  V30 14224 H 965.254 6.54138 -5.7131 0
M  V30 14225 H 965.524 5.30492 -4.44033 0
M  V30 14226 H 964.657 4.55945 -6.76735 0
M  V30 14227 H 962.002 2.6176 -5.18021 0
M  V30 14228 H 961.722 5.52233 -4.41941 0
M  V30 14229 H 960.731 4.52045 -5.53452 0
M  V30 14230 H 962.565 6.25124 -6.55234 0
M  V30 14231 H 962.637 5.37936 -2.80552 0
M  V30 14232 H 962.535 5.07528 -0.359553 0
M  V30 14233 H 962.147 1.69403 1.09847 0
M  V30 14234 H 962.343 3.43701 1.41792 0
M  V30 14235 P 960.694 4.23843 -7.83734 0
M  V30 14236 O 960.474 4.19407 -9.29784 0
M  V30 14237 O 959.904 5.24426 -7.09156 0
M  V30 14238 O 960.444 2.7935 -7.20758 0
M  V30 14239 C 961.384 1.7299 -7.50419 0
M  V30 14240 C 960.654 0.406376 -7.57911 0
M  V30 14241 O 960.444 -0.0897726 -6.21935 0
M  V30 14242 C 959.254 0.447224 -8.1878 0
M  V30 14243 O 958.864 -0.825065 -8.71101 0
M  V30 14244 C 958.374 0.783801 -6.99623 0
M  V30 14245 C 959.084 0.0619192 -5.85967 0
M  V30 14246 N 959.034 0.7859 -4.56281 0
M  V30 14247 H 961.873 1.93423 -8.4679 0
M  V30 14248 H 962.145 1.68181 -6.71046 0
M  V30 14249 H 961.277 -0.289041 -8.15388 0
M  V30 14250 P 957.314 -1.17771 -8.83182 0
M  V30 14251 O 957.094 -2.07206 -9.98732 0
M  V30 14252 O 956.524 0.0743816 -8.81969 0
M  V30 14253 O 957.064 -1.97652 -7.47304 0
M  V30 14254 C 958.004 -3.01133 -7.08783 0
M  V30 14255 C 957.274 -4.12613 -6.37049 0
M  V30 14256 O 957.064 -3.72827 -4.97879 0
M  V30 14257 C 955.874 -4.45085 -6.88694 0
M  V30 14258 O 955.484 -5.7877 -6.5624 0
M  V30 14259 C 954.994 -3.47817 -6.12078 0
M  V30 14260 C 955.704 -3.39414 -4.77697 0
M  V30 14261 N 955.654 -2.04615 -4.15333 0
M  V30 14262 H 958.493 -3.41248 -7.98759 0
M  V30 14263 H 958.765 -2.5837 -6.41742 0
M  V30 14264 H 957.897 -5.02657 -6.42673 0
M  V30 14265 P 953.934 -6.144 -6.45285 0
M  V30 14266 O 953.714 -7.54673 -6.86199 0
M  V30 14267 O 953.144 -5.12391 -7.179 0
M  V30 14268 O 953.684 -5.99158 -4.88404 0
M  V30 14269 C 954.624 -6.60234 -3.96415 0
M  V30 14270 C 953.894 -7.08259 -2.72856 0
M  V30 14271 O 953.684 -5.9427 -1.83651 0
M  V30 14272 C 952.494 -7.64886 -2.9555 0
M  V30 14273 O 952.104 -8.53963 -1.90717 0
M  V30 14274 C 951.614 -6.4116 -2.90739 0
M  V30 14275 C 952.324 -5.55375 -1.86963 0
M  V30 14276 N 952.274 -4.09664 -2.15742 0
M  V30 14277 H 955.113 -7.45574 -4.45629 0
M  V30 14278 H 955.385 -5.86232 -3.67314 0
M  V30 14279 H 954.517 -7.84412 -2.24479 0
M  V30 14280 P 950.554 -8.7635 -1.60911 0
M  V30 14281 O 950.334 -10.1388 -1.11561 0
M  V30 14282 O 949.764 -8.36503 -2.79617 0
M  V30 14283 O 950.304 -7.71806 -0.42951 0
M  V30 14284 C 951.244 -7.67148 0.673689 0
M  V30 14285 C 950.514 -7.33374 1.95559 0
M  V30 14286 O 950.304 -5.88721 2.00726 0
M  V30 14287 C 949.114 -7.92526 2.10483 0
M  V30 14288 O 948.724 -8.02971 3.47653 0
M  V30 14289 C 948.234 -6.89602 1.41652 0
M  V30 14290 C 948.944 -5.59201 1.75185 0
M  V30 14291 N 948.894 -4.58235 0.662552 0
M  V30 14292 C 948.974 -4.7683 -0.704049 0
M  V30 14293 N 948.894 -3.66233 -1.39775 0
M  V30 14294 C 948.754 -2.66526 -0.431739 0
M  V30 14295 C 948.624 -1.26394 -0.575992 0
M  V30 14296 N 948.504 -0.62859 0.67177 0
M  V30 14297 C 948.504 -1.27134 1.89385 0
M  V30 14298 N 948.374 -0.492035 2.96951 0
M  V30 14299 N 948.634 -2.58978 2.02907 0
M  V30 14300 C 948.754 -3.22433 0.832218 0
M  V30 14301 H 951.733 -8.65116 0.777161 0
M  V30 14302 H 952.005 -6.90173 0.474152 0
M  V30 14303 H 951.137 -7.66548 2.79458 0
M  V30 14304 P 947.174 -8.03563 3.84925 0
M  V30 14305 O 946.954 -8.85821 5.0569 0
M  V30 14306 O 946.384 -8.41101 2.65469 0
M  V30 14307 O 946.924 -6.4965 4.18908 0
M  V30 14308 C 947.864 -5.81037 5.05421 0
M  V30 14309 C 947.134 -4.78366 5.89277 0
M  V30 14310 O 946.924 -3.58302 5.08433 0
M  V30 14311 C 945.734 -5.17448 6.36119 0
M  V30 14312 O 945.344 -4.45271 7.53232 0
M  V30 14313 C 944.854 -4.74639 5.19936 0
M  V30 14314 C 945.564 -3.49432 4.70418 0
M  V30 14315 N 945.514 -3.32099 3.22613 0
M  V30 14316 H 948.353 -6.54213 5.71376 0
M  V30 14317 H 948.625 -5.30936 4.43503 0
M  V30 14318 H 947.757 -4.55889 6.76652 0
M  V30 14319 H 945.102 -2.61715 5.17932 0
M  V30 14320 H 944.822 -5.52155 4.41878 0
M  V30 14321 H 943.831 -4.51981 5.53374 0
M  V30 14322 H 945.665 -6.25124 6.55234 0
M  V30 14323 P 943.794 -4.23843 7.83734 0
M  V30 14324 O 943.574 -4.19407 9.29784 0
M  V30 14325 O 943.004 -5.24426 7.09156 0
M  V30 14326 O 943.544 -2.7935 7.20758 0
M  V30 14327 C 944.484 -1.7299 7.50419 0
M  V30 14328 C 943.754 -0.406376 7.57911 0
M  V30 14329 O 943.544 0.0897726 6.21935 0
M  V30 14330 C 942.354 -0.447224 8.1878 0
M  V30 14331 O 941.964 0.825065 8.71101 0
M  V30 14332 C 941.474 -0.783801 6.99623 0
M  V30 14333 C 942.184 -0.0619192 5.85967 0
M  V30 14334 N 942.134 -0.790462 4.56202 0
M  V30 14335 C 942.214 -2.13895 4.34171 0
M  V30 14336 N 942.144 -2.46449 3.08687 0
M  V30 14337 C 941.994 -1.2525 2.43697 0
M  V30 14338 C 941.864 -0.914535 1.07318 0
M  V30 14339 N 941.854 -1.80782 0.0887348 0
M  V30 14340 N 941.744 0.386745 0.768133 0
M  V30 14341 C 941.754 1.28096 1.75159 0
M  V30 14342 N 941.874 1.09708 3.04861 0
M  V30 14343 C 941.994 -0.214857 3.32306 0
M  V30 14344 H 944.973 -1.93423 8.4679 0
M  V30 14345 H 945.245 -1.68852 6.70877 0
M  V30 14346 H 944.377 0.289041 8.15388 0
M  V30 14347 H 941.722 0.927006 5.72848 0
M  V30 14348 H 941.442 -1.86973 6.82036 0
M  V30 14349 H 940.451 -0.403953 7.13357 0
M  V30 14350 H 942.285 -1.20599 8.97534 0
M  V30 14351 H 942.326 -2.86846 5.14318 0
M  V30 14352 H 941.945 -2.81082 0.302037 0
M  V30 14353 H 941.756 -1.49688 -0.889064 0
M  V30 14354 H 941.648 2.31317 1.43855 0
M  V30 14355 P 940.414 1.17771 8.83182 0
M  V30 14356 O 940.194 2.07206 9.98732 0
M  V30 14357 O 939.624 -0.0743816 8.81969 0
M  V30 14358 O 940.164 1.97652 7.47304 0
M  V30 14359 C 941.104 3.01133 7.08783 0
M  V30 14360 C 940.374 4.12613 6.37049 0
M  V30 14361 O 940.164 3.72827 4.97879 0
M  V30 14362 C 938.974 4.45085 6.88694 0
M  V30 14363 O 938.584 5.7877 6.5624 0
M  V30 14364 C 938.094 3.47817 6.12078 0
M  V30 14365 C 938.804 3.39414 4.77697 0
M  V30 14366 N 938.754 2.04615 4.15333 0
M  V30 14367 H 941.593 3.41248 7.98759 0
M  V30 14368 H 941.865 2.5837 6.41742 0
M  V30 14369 H 940.997 5.02657 6.42673 0
M  V30 14370 P 937.034 6.144 6.45285 0
M  V30 14371 O 936.814 7.54673 6.86199 0
M  V30 14372 O 936.244 5.12391 7.179 0
M  V30 14373 O 936.784 5.99158 4.88404 0
M  V30 14374 C 937.724 6.60234 3.96415 0
M  V30 14375 C 936.994 7.08259 2.72856 0
M  V30 14376 O 936.784 5.9427 1.83651 0
M  V30 14377 C 935.594 7.64886 2.9555 0
M  V30 14378 O 935.204 8.53963 1.90717 0
M  V30 14379 C 934.714 6.4116 2.90739 0
M  V30 14380 C 935.424 5.55375 1.86963 0
M  V30 14381 N 935.374 4.09664 2.15742 0
M  V30 14382 H 938.213 7.45574 4.45629 0
M  V30 14383 H 938.485 5.86232 3.67314 0
M  V30 14384 H 937.617 7.84412 2.24479 0
M  V30 14385 P 933.655 8.7635 1.60911 0
M  V30 14386 O 933.435 10.1388 1.11561 0
M  V30 14387 O 932.865 8.36503 2.79617 0
M  V30 14388 O 933.405 7.71806 0.42951 0
M  V30 14389 C 934.345 7.67148 -0.673689 0
M  V30 14390 C 933.615 7.33374 -1.95559 0
M  V30 14391 O 933.405 5.88721 -2.00726 0
M  V30 14392 C 932.215 7.92526 -2.10483 0
M  V30 14393 O 931.825 8.02971 -3.47653 0
M  V30 14394 C 931.335 6.89602 -1.41652 0
M  V30 14395 C 932.045 5.59201 -1.75185 0
M  V30 14396 N 931.995 4.58235 -0.662552 0
M  V30 14397 C 932.075 4.7683 0.704049 0
M  V30 14398 N 931.995 3.66233 1.39775 0
M  V30 14399 C 931.855 2.66526 0.431739 0
M  V30 14400 C 931.725 1.26394 0.575992 0
M  V30 14401 N 931.605 0.62859 -0.67177 0
M  V30 14402 C 931.605 1.27134 -1.89385 0
M  V30 14403 N 931.475 0.492035 -2.96951 0
M  V30 14404 N 931.735 2.58978 -2.02907 0
M  V30 14405 C 931.855 3.22433 -0.832218 0
M  V30 14406 H 934.834 8.65116 -0.777161 0
M  V30 14407 H 935.106 6.90173 -0.474152 0
M  V30 14408 H 934.238 7.66548 -2.79458 0
M  V30 14409 P 930.275 8.03563 -3.84925 0
M  V30 14410 O 930.055 8.85821 -5.0569 0
M  V30 14411 O 929.485 8.41101 -2.65469 0
M  V30 14412 O 930.025 6.4965 -4.18908 0
M  V30 14413 C 930.965 5.81037 -5.05421 0
M  V30 14414 C 930.235 4.78366 -5.89277 0
M  V30 14415 O 930.025 3.58302 -5.08433 0
M  V30 14416 C 928.835 5.17448 -6.36119 0
M  V30 14417 O 928.445 4.45271 -7.53232 0
M  V30 14418 C 927.955 4.74639 -5.19936 0
M  V30 14419 C 928.665 3.49432 -4.70418 0
M  V30 14420 N 928.615 3.31776 -3.22945 0
M  V30 14421 H 931.454 6.54213 -5.71376 0
M  V30 14422 H 931.726 5.30492 -4.44033 0
M  V30 14423 H 930.858 4.55889 -6.76652 0
M  V30 14424 P 926.895 4.23843 -7.83734 0
M  V30 14425 O 926.675 4.19407 -9.29784 0
M  V30 14426 O 926.105 5.24426 -7.09156 0
M  V30 14427 O 926.645 2.7935 -7.20758 0
M  V30 14428 C 927.585 1.7299 -7.50419 0
M  V30 14429 C 926.855 0.406376 -7.57911 0
M  V30 14430 O 926.645 -0.0897726 -6.21935 0
M  V30 14431 C 925.455 0.447224 -8.1878 0
M  V30 14432 O 925.065 -0.825065 -8.71101 0
M  V30 14433 C 924.575 0.783801 -6.99623 0
M  V30 14434 C 925.285 0.0619192 -5.85967 0
M  V30 14435 N 925.235 0.7859 -4.56281 0
M  V30 14436 H 928.074 1.93423 -8.4679 0
M  V30 14437 H 928.346 1.68181 -6.71046 0
M  V30 14438 H 927.478 -0.289041 -8.15388 0
M  V30 14439 P 923.515 -1.17771 -8.83182 0
M  V30 14440 O 923.295 -2.07206 -9.98732 0
M  V30 14441 O 922.725 0.0743816 -8.81969 0
M  V30 14442 O 923.265 -1.97652 -7.47304 0
M  V30 14443 C 924.205 -3.01133 -7.08783 0
M  V30 14444 C 923.475 -4.12613 -6.37049 0
M  V30 14445 O 923.265 -3.72827 -4.97879 0
M  V30 14446 C 922.075 -4.45085 -6.88694 0
M  V30 14447 O 921.685 -5.7877 -6.5624 0
M  V30 14448 C 921.195 -3.47817 -6.12078 0
M  V30 14449 C 921.905 -3.39414 -4.77697 0
M  V30 14450 N 921.855 -2.04199 -4.15538 0
M  V30 14451 C 921.935 -0.821545 -4.76977 0
M  V30 14452 N 921.865 0.1794 -3.94592 0
M  V30 14453 C 921.715 -0.419121 -2.70776 0
M  V30 14454 C 921.585 0.109072 -1.40577 0
M  V30 14455 N 921.575 1.4104 -1.1344 0
M  V30 14456 N 921.465 -0.764381 -0.39411 0
M  V30 14457 C 921.475 -2.06587 -0.664135 0
M  V30 14458 N 921.595 -2.67948 -1.82153 0
M  V30 14459 C 921.715 -1.77942 -2.8147 0
M  V30 14460 H 924.694 -3.41248 -7.98759 0
M  V30 14461 H 924.966 -2.57728 -6.42 0
M  V30 14462 H 924.098 -5.02657 -6.42673 0
M  V30 14463 H 921.443 -4.11708 -4.08956 0
M  V30 14464 H 921.163 -2.49626 -6.61679 0
M  V30 14465 H 920.172 -3.8662 -6.00862 0
M  V30 14466 H 922.006 -4.29991 -7.97006 0
M  V30 14467 H 922.047 -0.702451 -5.84696 0
M  V30 14468 H 921.666 2.09647 -1.89651 0
M  V30 14469 H 921.477 1.73358 -0.160575 0
M  V30 14470 H 921.369 -2.71695 0.195838 0
M  V30 14471 P 920.135 -6.144 -6.45285 0
M  V30 14472 O 919.915 -7.54673 -6.86199 0
M  V30 14473 O 919.345 -5.12391 -7.179 0
M  V30 14474 O 919.885 -5.99158 -4.88404 0
M  V30 14475 C 920.825 -6.60234 -3.96415 0
M  V30 14476 C 920.095 -7.08259 -2.72856 0
M  V30 14477 O 919.885 -5.9427 -1.83651 0
M  V30 14478 C 918.695 -7.64886 -2.9555 0
M  V30 14479 O 918.305 -8.53963 -1.90717 0
M  V30 14480 C 917.815 -6.4116 -2.90739 0
M  V30 14481 C 918.525 -5.55375 -1.86963 0
M  V30 14482 N 918.475 -4.09664 -2.15742 0
M  V30 14483 H 921.314 -7.45574 -4.45629 0
M  V30 14484 H 921.586 -5.86232 -3.67314 0
M  V30 14485 H 920.718 -7.84412 -2.24479 0
M  V30 14486 P 916.755 -8.7635 -1.60911 0
M  V30 14487 O 916.535 -10.1388 -1.11561 0
M  V30 14488 O 915.965 -8.36503 -2.79617 0
M  V30 14489 O 916.505 -7.71806 -0.42951 0
M  V30 14490 C 917.445 -7.67148 0.673689 0
M  V30 14491 C 916.715 -7.33374 1.95559 0
M  V30 14492 O 916.505 -5.88721 2.00726 0
M  V30 14493 C 915.315 -7.92526 2.10483 0
M  V30 14494 O 914.925 -8.02971 3.47653 0
M  V30 14495 C 914.435 -6.89602 1.41652 0
M  V30 14496 C 915.145 -5.59201 1.75185 0
M  V30 14497 N 915.095 -4.58301 0.657969 0
M  V30 14498 H 917.934 -8.65116 0.777161 0
M  V30 14499 H 918.206 -6.9022 0.46725 0
M  V30 14500 H 917.338 -7.66548 2.79458 0
M  V30 14501 H 914.683 -5.16165 2.65183 0
M  V30 14502 H 914.403 -7.06433 0.329384 0
M  V30 14503 H 913.412 -6.90926 1.82021 0
M  V30 14504 H 915.246 -8.90873 1.62657 0
M  V30 14505 P 913.375 -8.03563 3.84925 0
M  V30 14506 O 913.155 -8.85821 5.0569 0
M  V30 14507 O 912.585 -8.41101 2.65469 0
M  V30 14508 O 913.125 -6.49734 4.18962 0
M  V30 14509 C 914.065 -5.81037 5.05421 0
M  V30 14510 C 913.335 -4.79018 5.88876 0
M  V30 14511 O 913.125 -3.58359 5.08515 0
M  V30 14512 C 911.935 -5.17448 6.36119 0
M  V30 14513 O 911.545 -4.45322 7.53318 0
M  V30 14514 C 911.055 -4.74639 5.19936 0
M  V30 14515 C 911.765 -3.49432 4.70418 0
M  V30 14516 N 911.715 -3.31776 3.22945 0
M  V30 14517 C 911.565 -2.02742 2.72939 0
M  V30 14518 O 911.475 -1.08301 3.52749 0
M  V30 14519 N 911.515 -1.96117 1.22063 0
M  V30 14520 C 911.615 -2.8878 0.551566 0
M  V30 14521 N 911.565 -2.65609 -0.750198 0
M  V30 14522 C 911.765 -4.22457 1.03707 0
M  V30 14523 C 911.815 -4.37979 2.39113 0
M  V30 14524 H 914.555 -6.54138 5.7131 0
M  V30 14525 H 914.825 -5.30492 4.44033 0
M  V30 14526 H 913.958 -4.55945 6.76735 0
M  V30 14527 H 911.303 -2.6176 5.18021 0
M  V30 14528 H 911.023 -5.52233 4.41941 0
M  V30 14529 H 910.032 -4.52045 5.53452 0
M  V30 14530 H 911.866 -6.25124 6.55234 0
M  V30 14531 H 911.938 -5.37936 2.80552 0
M  V30 14532 H 911.836 -5.07528 0.359553 0
M  V30 14533 H 911.448 -1.69403 -1.09847 0
M  V30 14534 H 911.644 -3.43701 -1.41792 0
M  V30 14535 P 909.995 -4.23843 7.83734 0
M  V30 14536 O 909.775 -4.19407 9.29784 0
M  V30 14537 O 909.205 -5.24426 7.09156 0
M  V30 14538 O 909.745 -2.7935 7.20758 0
M  V30 14539 C 910.685 -1.7299 7.50419 0
M  V30 14540 C 909.955 -0.406376 7.57911 0
M  V30 14541 O 909.745 0.0897726 6.21935 0
M  V30 14542 C 908.555 -0.447224 8.1878 0
M  V30 14543 O 908.165 0.825065 8.71101 0
M  V30 14544 C 907.675 -0.783801 6.99623 0
M  V30 14545 C 908.385 -0.0619192 5.85967 0
M  V30 14546 N 908.335 -0.790462 4.56202 0
M  V30 14547 C 908.415 -2.13895 4.34171 0
M  V30 14548 N 908.345 -2.46449 3.08687 0
M  V30 14549 C 908.195 -1.2525 2.43697 0
M  V30 14550 C 908.065 -0.914535 1.07318 0
M  V30 14551 N 908.055 -1.80782 0.0887348 0
M  V30 14552 N 907.945 0.386745 0.768133 0
M  V30 14553 C 907.955 1.28096 1.75159 0
M  V30 14554 N 908.075 1.09708 3.04861 0
M  V30 14555 C 908.195 -0.214857 3.32306 0
M  V30 14556 H 911.174 -1.93423 8.4679 0
M  V30 14557 H 911.446 -1.68852 6.70877 0
M  V30 14558 H 910.578 0.289041 8.15388 0
M  V30 14559 H 907.923 0.927006 5.72848 0
M  V30 14560 H 907.643 -1.86973 6.82036 0
M  V30 14561 H 906.652 -0.403953 7.13357 0
M  V30 14562 H 908.486 -1.20599 8.97534 0
M  V30 14563 H 908.527 -2.86846 5.14318 0
M  V30 14564 H 908.146 -2.81082 0.302037 0
M  V30 14565 H 907.957 -1.49688 -0.889064 0
M  V30 14566 H 907.849 2.31317 1.43855 0
M  V30 14567 P 906.615 1.17771 8.83182 0
M  V30 14568 O 906.395 2.07206 9.98732 0
M  V30 14569 O 905.825 -0.0743816 8.81969 0
M  V30 14570 O 906.365 1.97678 7.474 0
M  V30 14571 C 907.305 3.01133 7.08783 0
M  V30 14572 C 906.575 4.1203 6.37546 0
M  V30 14573 O 906.365 3.72887 4.9796 0
M  V30 14574 C 905.175 4.45085 6.88694 0
M  V30 14575 O 904.785 5.78836 6.56315 0
M  V30 14576 C 904.295 3.47817 6.12078 0
M  V30 14577 C 905.005 3.39414 4.77697 0
M  V30 14578 N 904.955 2.04615 4.15333 0
M  V30 14579 C 904.805 1.96929 2.77162 0
M  V30 14580 O 904.715 3.02017 2.12006 0
M  V30 14581 N 904.755 0.55485 2.24237 0
M  V30 14582 C 904.855 -0.367808 2.9169 0
M  V30 14583 N 904.805 -1.53426 2.29427 0
M  V30 14584 C 905.005 -0.319148 4.33828 0
M  V30 14585 C 905.055 0.920672 4.90433 0
M  V30 14586 H 907.795 3.41209 7.98667 0
M  V30 14587 H 908.065 2.5837 6.41742 0
M  V30 14588 H 907.198 5.02718 6.42752 0
M  V30 14589 H 904.543 4.11779 4.09026 0
M  V30 14590 H 904.263 2.49661 6.61772 0
M  V30 14591 H 903.272 3.86674 6.00946 0
M  V30 14592 H 905.106 4.29991 7.97006 0
M  V30 14593 H 905.178 1.00589 5.98303 0
M  V30 14594 H 905.076 -1.22639 4.93799 0
M  V30 14595 H 904.688 -1.56819 1.27167 0
M  V30 14596 H 904.884 -2.41062 2.83063 0
M  V30 14597 P 903.235 6.144 6.45285 0
M  V30 14598 O 903.015 7.54673 6.86199 0
M  V30 14599 O 902.445 5.12391 7.179 0
M  V30 14600 O 902.985 5.99158 4.88404 0
M  V30 14601 C 903.925 6.60234 3.96415 0
M  V30 14602 C 903.195 7.08259 2.72856 0
M  V30 14603 O 902.985 5.9427 1.83651 0
M  V30 14604 C 901.795 7.64886 2.9555 0
M  V30 14605 O 901.405 8.53963 1.90717 0
M  V30 14606 C 900.915 6.4116 2.90739 0
M  V30 14607 C 901.625 5.55375 1.86963 0
M  V30 14608 N 901.575 4.09448 2.16152 0
M  V30 14609 H 904.414 7.45574 4.45629 0
M  V30 14610 H 904.686 5.85864 3.679 0
M  V30 14611 H 903.818 7.84412 2.24479 0
M  V30 14612 H 901.163 5.73457 0.888562 0
M  V30 14613 H 900.883 5.90877 3.88583 0
M  V30 14614 H 899.892 6.6596 2.58858 0
M  V30 14615 H 901.726 8.16339 3.92049 0
M  V30 14616 P 899.855 8.7635 1.60911 0
M  V30 14617 O 899.635 10.1388 1.11561 0
M  V30 14618 O 899.065 8.36503 2.79617 0
M  V30 14619 O 899.605 7.71806 0.42951 0
M  V30 14620 C 900.545 7.67148 -0.673689 0
M  V30 14621 C 899.815 7.33374 -1.95559 0
M  V30 14622 O 899.605 5.88721 -2.00726 0
M  V30 14623 C 898.415 7.92526 -2.10483 0
M  V30 14624 O 898.025 8.02971 -3.47653 0
M  V30 14625 C 897.535 6.89602 -1.41652 0
M  V30 14626 C 898.245 5.59201 -1.75185 0
M  V30 14627 N 898.195 4.58235 -0.662552 0
M  V30 14628 H 901.034 8.65116 -0.777161 0
M  V30 14629 H 901.306 6.90173 -0.474152 0
M  V30 14630 H 900.438 7.66548 -2.79458 0
M  V30 14631 P 896.475 8.03563 -3.84925 0
M  V30 14632 O 896.255 8.85821 -5.0569 0
M  V30 14633 O 895.685 8.41101 -2.65469 0
M  V30 14634 O 896.225 6.4965 -4.18908 0
M  V30 14635 C 897.165 5.81037 -5.05421 0
M  V30 14636 C 896.435 4.78366 -5.89277 0
M  V30 14637 O 896.225 3.58302 -5.08433 0
M  V30 14638 C 895.035 5.17448 -6.36119 0
M  V30 14639 O 894.645 4.45271 -7.53232 0
M  V30 14640 C 894.155 4.74639 -5.19936 0
M  V30 14641 C 894.865 3.49432 -4.70418 0
M  V30 14642 N 894.815 3.32099 -3.22613 0
M  V30 14643 H 897.654 6.54213 -5.71376 0
M  V30 14644 H 897.926 5.30936 -4.43503 0
M  V30 14645 H 897.058 4.55889 -6.76652 0
M  V30 14646 H 894.403 2.61715 -5.17932 0
M  V30 14647 H 894.123 5.52155 -4.41878 0
M  V30 14648 H 893.132 4.51981 -5.53374 0
M  V30 14649 H 894.966 6.25124 -6.55234 0
M  V30 14650 P 893.095 4.23843 -7.83734 0
M  V30 14651 O 892.875 4.19407 -9.29784 0
M  V30 14652 O 892.305 5.24426 -7.09156 0
M  V30 14653 O 892.845 2.7935 -7.20758 0
M  V30 14654 C 893.785 1.72945 -7.50224 0
M  V30 14655 C 893.055 0.406376 -7.57911 0
M  V30 14656 O 892.845 -0.0897726 -6.21935 0
M  V30 14657 C 891.655 0.438983 -8.18724 0
M  V30 14658 O 891.265 -0.825065 -8.71101 0
M  V30 14659 C 890.775 0.783689 -6.99524 0
M  V30 14660 C 891.485 0.0619086 -5.85867 0
M  V30 14661 N 891.435 0.78573 -4.56183 0
M  V30 14662 C 891.285 0.0292889 -3.41887 0
M  V30 14663 O 891.195 -1.18445 -3.4419 0
M  V30 14664 N 891.245 0.744061 -2.23964 0
M  V30 14665 C 891.335 2.10932 -2.10362 0
M  V30 14666 O 891.285 2.64117 -0.98825 0
M  V30 14667 C 891.485 2.8202 -3.34994 0
M  V30 14668 C 891.595 4.31095 -3.25037 0
M  V30 14669 C 891.535 2.15547 -4.52261 0
M  V30 14670 H 894.276 1.93379 -8.46595 0
M  V30 14671 H 894.545 1.68132 -6.70852 0
M  V30 14672 H 893.678 -0.289041 -8.15388 0
M  V30 14673 H 891.023 -0.926847 -5.72749 0
M  V30 14674 H 890.744 1.86973 -6.82036 0
M  V30 14675 H 889.752 0.403896 -7.13257 0
M  V30 14676 H 891.586 1.20585 -8.97435 0
M  V30 14677 H 891.657 2.71231 -5.45042 0
M  V30 14678 H 890.627 4.76966 -3.49992 0
M  V30 14679 H 892.364 4.67047 -3.95024 0
M  V30 14680 H 891.876 4.58996 -2.22312 0
M  V30 14681 H 891.14 0.214893 -1.39758 0
M  V30 14682 P 889.715 -1.17771 -8.83182 0
M  V30 14683 O 889.495 -2.07206 -9.98732 0
M  V30 14684 O 888.925 0.0743816 -8.81969 0
M  V30 14685 O 889.465 -1.97652 -7.47304 0
M  V30 14686 C 890.405 -3.01055 -7.08599 0
M  V30 14687 C 889.675 -4.12613 -6.37049 0
M  V30 14688 O 889.465 -3.72827 -4.97879 0
M  V30 14689 C 888.275 -4.45719 -6.88164 0
M  V30 14690 O 887.885 -5.7877 -6.5624 0
M  V30 14691 C 887.395 -3.47768 -6.11991 0
M  V30 14692 C 888.105 -3.39356 -4.77615 0
M  V30 14693 N 888.055 -2.04571 -4.15244 0
M  V30 14694 C 887.905 -1.98587 -2.78314 0
M  V30 14695 O 887.815 -2.98134 -2.08835 0
M  V30 14696 N 887.865 -0.714467 -2.24925 0
M  V30 14697 C 887.955 0.470001 -2.94169 0
M  V30 14698 O 887.905 1.55587 -2.35195 0
M  V30 14699 C 888.105 0.312541 -4.36783 0
M  V30 14700 C 888.215 1.57711 -5.16352 0
M  V30 14701 C 888.155 -0.914512 -4.92583 0
M  V30 14702 H 890.896 -3.41169 -7.98575 0
M  V30 14703 H 891.165 -2.58295 -6.41556 0
M  V30 14704 H 890.298 -5.02657 -6.42673 0
M  V30 14705 H 887.643 -4.11637 -4.08885 0
M  V30 14706 H 887.364 -2.49626 -6.61679 0
M  V30 14707 H 886.372 -3.86566 -6.00778 0
M  V30 14708 H 888.206 -4.29943 -7.96918 0
M  V30 14709 H 888.277 -1.00937 -6.00374 0
M  V30 14710 H 887.247 1.80153 -5.63503 0
M  V30 14711 H 888.984 1.4566 -5.94104 0
M  V30 14712 H 888.496 2.40664 -4.49645 0
M  V30 14713 H 887.76 -0.647622 -1.25697 0
M  V30 14714 P 886.335 -6.144 -6.45285 0
M  V30 14715 O 886.115 -7.54673 -6.86199 0
M  V30 14716 O 885.545 -5.12391 -7.179 0
M  V30 14717 O 886.085 -5.99158 -4.88404 0
M  V30 14718 C 887.025 -6.60234 -3.96415 0
M  V30 14719 C 886.295 -7.08259 -2.72856 0
M  V30 14720 O 886.085 -5.9427 -1.83651 0
M  V30 14721 C 884.895 -7.64886 -2.9555 0
M  V30 14722 O 884.505 -8.53963 -1.90717 0
M  V30 14723 C 884.015 -6.4116 -2.90739 0
M  V30 14724 C 884.725 -5.55375 -1.86963 0
M  V30 14725 N 884.675 -4.09664 -2.15742 0
M  V30 14726 H 887.514 -7.45574 -4.45629 0
M  V30 14727 H 887.786 -5.86232 -3.67314 0
M  V30 14728 H 886.918 -7.84412 -2.24479 0
M  V30 14729 P 882.955 -8.7635 -1.60911 0
M  V30 14730 O 882.735 -10.1388 -1.11561 0
M  V30 14731 O 882.165 -8.36503 -2.79617 0
M  V30 14732 O 882.705 -7.71806 -0.42951 0
M  V30 14733 C 883.645 -7.67148 0.673689 0
M  V30 14734 C 882.915 -7.33374 1.95559 0
M  V30 14735 O 882.705 -5.88721 2.00726 0
M  V30 14736 C 881.515 -7.92526 2.10483 0
M  V30 14737 O 881.125 -8.02971 3.47653 0
M  V30 14738 C 880.635 -6.89602 1.41652 0
M  V30 14739 C 881.345 -5.59201 1.75185 0
M  V30 14740 N 881.295 -4.58235 0.662552 0
M  V30 14741 H 884.134 -8.65116 0.777161 0
M  V30 14742 H 884.406 -6.90173 0.474152 0
M  V30 14743 H 883.538 -7.66548 2.79458 0
M  V30 14744 P 879.575 -8.03563 3.84925 0
M  V30 14745 O 879.355 -8.85821 5.0569 0
M  V30 14746 O 878.785 -8.41101 2.65469 0
M  V30 14747 O 879.325 -6.49734 4.18962 0
M  V30 14748 C 880.265 -5.81037 5.05421 0
M  V30 14749 C 879.535 -4.79018 5.88876 0
M  V30 14750 O 879.325 -3.58359 5.08515 0
M  V30 14751 C 878.135 -5.17448 6.36119 0
M  V30 14752 O 877.745 -4.45322 7.53318 0
M  V30 14753 C 877.255 -4.74639 5.19936 0
M  V30 14754 C 877.965 -3.49432 4.70418 0
M  V30 14755 N 877.915 -3.31776 3.22945 0
M  V30 14756 C 877.765 -2.02742 2.72939 0
M  V30 14757 O 877.675 -1.08301 3.52749 0
M  V30 14758 N 877.715 -1.96117 1.22063 0
M  V30 14759 C 877.815 -2.8878 0.551566 0
M  V30 14760 N 877.765 -2.65609 -0.750198 0
M  V30 14761 C 877.965 -4.22457 1.03707 0
M  V30 14762 C 878.015 -4.37979 2.39113 0
M  V30 14763 H 880.755 -6.54138 5.7131 0
M  V30 14764 H 881.025 -5.30492 4.44033 0
M  V30 14765 H 880.158 -4.55945 6.76735 0
M  V30 14766 H 877.503 -2.6176 5.18021 0
M  V30 14767 H 877.223 -5.52233 4.41941 0
M  V30 14768 H 876.232 -4.52045 5.53452 0
M  V30 14769 H 878.066 -6.25124 6.55234 0
M  V30 14770 H 878.138 -5.37936 2.80552 0
M  V30 14771 H 878.036 -5.07528 0.359553 0
M  V30 14772 H 877.648 -1.69403 -1.09847 0
M  V30 14773 H 877.844 -3.43701 -1.41792 0
M  V30 14774 P 876.195 -4.23843 7.83734 0
M  V30 14775 O 875.975 -4.19407 9.29784 0
M  V30 14776 O 875.405 -5.24426 7.09156 0
M  V30 14777 O 875.945 -2.7935 7.20758 0
M  V30 14778 C 876.885 -1.7299 7.50419 0
M  V30 14779 C 876.155 -0.406376 7.57911 0
M  V30 14780 O 875.945 0.0897726 6.21935 0
M  V30 14781 C 874.755 -0.447224 8.1878 0
M  V30 14782 O 874.365 0.825065 8.71101 0
M  V30 14783 C 873.875 -0.783801 6.99623 0
M  V30 14784 C 874.585 -0.0619192 5.85967 0
M  V30 14785 N 874.535 -0.7859 4.56281 0
M  V30 14786 H 877.374 -1.93423 8.4679 0
M  V30 14787 H 877.646 -1.68181 6.71046 0
M  V30 14788 H 876.778 0.289041 8.15388 0
M  V30 14789 P 872.815 1.17771 8.83182 0
M  V30 14790 O 872.595 2.07206 9.98732 0
M  V30 14791 O 872.025 -0.0743816 8.81969 0
M  V30 14792 O 872.565 1.97652 7.47304 0
M  V30 14793 C 873.505 3.01133 7.08783 0
M  V30 14794 C 872.775 4.12613 6.37049 0
M  V30 14795 O 872.565 3.72827 4.97879 0
M  V30 14796 C 871.375 4.45085 6.88694 0
M  V30 14797 O 870.985 5.7877 6.5624 0
M  V30 14798 C 870.495 3.47817 6.12078 0
M  V30 14799 C 871.205 3.39414 4.77697 0
M  V30 14800 N 871.155 2.04615 4.15333 0
M  V30 14801 H 873.994 3.41248 7.98759 0
M  V30 14802 H 874.266 2.5837 6.41742 0
M  V30 14803 H 873.398 5.02657 6.42673 0
M  V30 14804 P 869.435 6.144 6.45285 0
M  V30 14805 O 869.215 7.54673 6.86199 0
M  V30 14806 O 868.645 5.12391 7.179 0
M  V30 14807 O 869.185 5.99158 4.88404 0
M  V30 14808 C 870.125 6.60234 3.96415 0
M  V30 14809 C 869.395 7.08259 2.72856 0
M  V30 14810 O 869.185 5.9427 1.83651 0
M  V30 14811 C 867.995 7.64886 2.9555 0
M  V30 14812 O 867.605 8.53963 1.90717 0
M  V30 14813 C 867.115 6.4116 2.90739 0
M  V30 14814 C 867.825 5.55375 1.86963 0
M  V30 14815 N 867.775 4.09664 2.15742 0
M  V30 14816 H 870.614 7.45574 4.45629 0
M  V30 14817 H 870.886 5.86232 3.67314 0
M  V30 14818 H 870.018 7.84412 2.24479 0
M  V30 14819 P 866.055 8.7635 1.60911 0
M  V30 14820 O 865.835 10.1388 1.11561 0
M  V30 14821 O 865.265 8.36503 2.79617 0
M  V30 14822 O 865.805 7.71806 0.42951 0
M  V30 14823 C 866.745 7.67148 -0.673689 0
M  V30 14824 C 866.015 7.33374 -1.95559 0
M  V30 14825 O 865.805 5.88721 -2.00726 0
M  V30 14826 C 864.615 7.92526 -2.10483 0
M  V30 14827 O 864.225 8.02971 -3.47653 0
M  V30 14828 C 863.735 6.89602 -1.41652 0
M  V30 14829 C 864.445 5.59201 -1.75185 0
M  V30 14830 N 864.395 4.58235 -0.662552 0
M  V30 14831 H 867.234 8.65116 -0.777161 0
M  V30 14832 H 867.506 6.90173 -0.474152 0
M  V30 14833 H 866.638 7.66548 -2.79458 0
M  V30 14834 P 862.675 8.03563 -3.84925 0
M  V30 14835 O 862.455 8.85821 -5.0569 0
M  V30 14836 O 861.885 8.41101 -2.65469 0
M  V30 14837 O 862.425 6.4965 -4.18908 0
M  V30 14838 C 863.365 5.81037 -5.05421 0
M  V30 14839 C 862.635 4.78366 -5.89277 0
M  V30 14840 O 862.425 3.58302 -5.08433 0
M  V30 14841 C 861.235 5.17448 -6.36119 0
M  V30 14842 O 860.845 4.45271 -7.53232 0
M  V30 14843 C 860.355 4.74639 -5.19936 0
M  V30 14844 C 861.065 3.49432 -4.70418 0
M  V30 14845 N 861.015 3.31776 -3.22945 0
M  V30 14846 H 863.854 6.54213 -5.71376 0
M  V30 14847 H 864.126 5.30492 -4.44033 0
M  V30 14848 H 863.258 4.55889 -6.76652 0
M  V30 14849 P 859.295 4.23843 -7.83734 0
M  V30 14850 O 859.075 4.19407 -9.29784 0
M  V30 14851 O 858.505 5.24426 -7.09156 0
M  V30 14852 O 859.045 2.7935 -7.20758 0
M  V30 14853 C 859.985 1.72945 -7.50224 0
M  V30 14854 C 859.255 0.406376 -7.57911 0
M  V30 14855 O 859.045 -0.0897726 -6.21935 0
M  V30 14856 C 857.855 0.438983 -8.18724 0
M  V30 14857 O 857.465 -0.825065 -8.71101 0
M  V30 14858 C 856.975 0.783689 -6.99524 0
M  V30 14859 C 857.685 0.0619086 -5.85867 0
M  V30 14860 N 857.635 0.78573 -4.56183 0
M  V30 14861 C 857.485 0.0292889 -3.41887 0
M  V30 14862 O 857.395 -1.18445 -3.4419 0
M  V30 14863 N 857.445 0.744061 -2.23964 0
M  V30 14864 C 857.535 2.10932 -2.10362 0
M  V30 14865 C 857.685 2.8202 -3.34994 0
M  V30 14866 C 857.735 2.15547 -4.52261 0
M  V30 14867 H 860.476 1.93379 -8.46595 0
M  V30 14868 H 860.745 1.68132 -6.70852 0
M  V30 14869 H 859.878 -0.289041 -8.15388 0
M  V30 14870 H 857.223 -0.926847 -5.72749 0
M  V30 14871 H 856.944 1.86973 -6.82036 0
M  V30 14872 H 855.952 0.403896 -7.13257 0
M  V30 14873 H 857.786 1.20585 -8.97435 0
M  V30 14874 H 857.857 2.71231 -5.45042 0
M  V30 14875 P 855.915 -1.17771 -8.83182 0
M  V30 14876 O 855.695 -2.07206 -9.98732 0
M  V30 14877 O 855.125 0.0743816 -8.81969 0
M  V30 14878 O 855.665 -1.97652 -7.47304 0
M  V30 14879 C 856.605 -3.01133 -7.08783 0
M  V30 14880 C 855.875 -4.12613 -6.37049 0
M  V30 14881 O 855.665 -3.72827 -4.97879 0
M  V30 14882 C 854.475 -4.45085 -6.88694 0
M  V30 14883 O 854.085 -5.7877 -6.5624 0
M  V30 14884 C 853.595 -3.47817 -6.12078 0
M  V30 14885 C 854.305 -3.39414 -4.77697 0
M  V30 14886 N 854.255 -2.04615 -4.15333 0
M  V30 14887 H 857.094 -3.41248 -7.98759 0
M  V30 14888 H 857.366 -2.5837 -6.41742 0
M  V30 14889 H 856.498 -5.02657 -6.42673 0
M  V30 14890 P 852.535 -6.144 -6.45285 0
M  V30 14891 O 852.315 -7.54673 -6.86199 0
M  V30 14892 O 851.745 -5.12391 -7.179 0
M  V30 14893 O 852.285 -5.99158 -4.88404 0
M  V30 14894 C 853.225 -6.60234 -3.96415 0
M  V30 14895 C 852.495 -7.08259 -2.72856 0
M  V30 14896 O 852.285 -5.9427 -1.83651 0
M  V30 14897 C 851.095 -7.64886 -2.9555 0
M  V30 14898 O 850.705 -8.53963 -1.90717 0
M  V30 14899 C 850.215 -6.4116 -2.90739 0
M  V30 14900 C 850.925 -5.55375 -1.86963 0
M  V30 14901 N 850.875 -4.09664 -2.15742 0
M  V30 14902 H 853.714 -7.45574 -4.45629 0
M  V30 14903 H 853.986 -5.86232 -3.67314 0
M  V30 14904 H 853.118 -7.84412 -2.24479 0
M  V30 14905 P 849.155 -8.7635 -1.60911 0
M  V30 14906 O 848.935 -10.1388 -1.11561 0
M  V30 14907 O 848.365 -8.36503 -2.79617 0
M  V30 14908 O 848.905 -7.71806 -0.42951 0
M  V30 14909 C 849.845 -7.67148 0.673689 0
M  V30 14910 C 849.115 -7.33374 1.95559 0
M  V30 14911 O 848.905 -5.88721 2.00726 0
M  V30 14912 C 847.715 -7.92526 2.10483 0
M  V30 14913 O 847.325 -8.02971 3.47653 0
M  V30 14914 C 846.835 -6.89602 1.41652 0
M  V30 14915 C 847.545 -5.59201 1.75185 0
M  V30 14916 N 847.495 -4.58235 0.662552 0
M  V30 14917 H 850.334 -8.65116 0.777161 0
M  V30 14918 H 850.606 -6.90173 0.474152 0
M  V30 14919 H 849.738 -7.66548 2.79458 0
M  V30 14920 P 845.775 -8.03563 3.84925 0
M  V30 14921 O 845.555 -8.85821 5.0569 0
M  V30 14922 O 844.985 -8.41101 2.65469 0
M  V30 14923 O 845.525 -6.4965 4.18908 0
M  V30 14924 C 846.465 -5.81037 5.05421 0
M  V30 14925 C 845.735 -4.78366 5.89277 0
M  V30 14926 O 845.525 -3.58302 5.08433 0
M  V30 14927 C 844.335 -5.17448 6.36119 0
M  V30 14928 O 843.945 -4.45271 7.53232 0
M  V30 14929 C 843.455 -4.74639 5.19936 0
M  V30 14930 C 844.165 -3.49432 4.70418 0
M  V30 14931 N 844.115 -3.32099 3.22613 0
M  V30 14932 C 844.195 -4.28245 2.25527 0
M  V30 14933 N 844.125 -3.80823 1.04874 0
M  V30 14934 C 843.975 -2.44571 1.23535 0
M  V30 14935 C 843.845 -1.37068 0.330675 0
M  V30 14936 N 843.835 -1.51472 -0.990824 0
M  V30 14937 N 843.725 -0.138614 0.848756 0
M  V30 14938 C 843.735 0.00675923 2.16999 0
M  V30 14939 N 843.855 -0.904372 3.11122 0
M  V30 14940 C 843.975 -2.12707 2.56212 0
M  V30 14941 H 846.954 -6.54213 5.71376 0
M  V30 14942 H 847.226 -5.30936 4.43503 0
M  V30 14943 H 846.358 -4.55889 6.76652 0
M  V30 14944 H 843.703 -2.61715 5.17932 0
M  V30 14945 H 843.423 -5.52155 4.41878 0
M  V30 14946 H 842.432 -4.51981 5.53374 0
M  V30 14947 H 844.266 -6.25124 6.55234 0
M  V30 14948 H 844.307 -5.34372 2.47488 0
M  V30 14949 H 843.926 -2.45153 -1.4078 0
M  V30 14950 H 843.737 -0.688422 -1.59911 0
M  V30 14951 H 843.629 1.02584 2.52346 0
M  V30 14952 P 842.395 -4.23843 7.83734 0
M  V30 14953 O 842.175 -4.19407 9.29784 0
M  V30 14954 O 841.605 -5.24426 7.09156 0
M  V30 14955 O 842.145 -2.7935 7.20758 0
M  V30 14956 C 843.085 -1.7299 7.50419 0
M  V30 14957 C 842.355 -0.406376 7.57911 0
M  V30 14958 O 842.145 0.0897726 6.21935 0
M  V30 14959 C 840.955 -0.447224 8.1878 0
M  V30 14960 O 840.565 0.825065 8.71101 0
M  V30 14961 C 840.075 -0.783801 6.99623 0
M  V30 14962 C 840.785 -0.0619192 5.85967 0
M  V30 14963 N 840.735 -0.7859 4.56281 0
M  V30 14964 H 843.574 -1.93423 8.4679 0
M  V30 14965 H 843.846 -1.68181 6.71046 0
M  V30 14966 H 842.978 0.289041 8.15388 0
M  V30 14967 P 839.015 1.17771 8.83182 0
M  V30 14968 O 838.795 2.07206 9.98732 0
M  V30 14969 O 838.225 -0.0743816 8.81969 0
M  V30 14970 O 838.765 1.97652 7.47304 0
M  V30 14971 C 839.705 3.01133 7.08783 0
M  V30 14972 C 838.975 4.12613 6.37049 0
M  V30 14973 O 838.765 3.72827 4.97879 0
M  V30 14974 C 837.575 4.45085 6.88694 0
M  V30 14975 O 837.185 5.7877 6.5624 0
M  V30 14976 C 836.695 3.47817 6.12078 0
M  V30 14977 C 837.405 3.39414 4.77697 0
M  V30 14978 N 837.355 2.04615 4.15333 0
M  V30 14979 C 837.435 0.803897 4.75249 0
M  V30 14980 N 837.355 -0.197615 3.91502 0
M  V30 14981 C 837.215 0.413002 2.66823 0
M  V30 14982 C 837.085 -0.157221 1.38007 0
M  V30 14983 N 836.965 0.833136 0.390236 0
M  V30 14984 C 836.965 2.19402 0.623885 0
M  V30 14985 N 836.835 2.97622 -0.449677 0
M  V30 14986 N 837.095 2.73005 1.83601 0
M  V30 14987 C 837.215 1.78786 2.80935 0
M  V30 14988 H 840.194 3.41248 7.98759 0
M  V30 14989 H 840.466 2.5837 6.41742 0
M  V30 14990 H 839.598 5.02657 6.42673 0
M  V30 14991 P 835.635 6.144 6.45285 0
M  V30 14992 O 835.415 7.54673 6.86199 0
M  V30 14993 O 834.845 5.12391 7.179 0
M  V30 14994 O 835.385 5.99158 4.88404 0
M  V30 14995 C 836.325 6.60234 3.96415 0
M  V30 14996 C 835.595 7.08259 2.72856 0
M  V30 14997 O 835.385 5.9427 1.83651 0
M  V30 14998 C 834.195 7.64886 2.9555 0
M  V30 14999 O 833.805 8.53963 1.90717 0
M  V30 15000 C 833.315 6.4116 2.90739 0
M  V30 15001 C 834.025 5.55375 1.86963 0
M  V30 15002 N 833.975 4.09664 2.15742 0
M  V30 15003 H 836.814 7.45574 4.45629 0
M  V30 15004 H 837.086 5.86232 3.67314 0
M  V30 15005 H 836.218 7.84412 2.24479 0
M  V30 15006 P 832.255 8.7635 1.60911 0
M  V30 15007 O 832.035 10.1388 1.11561 0
M  V30 15008 O 831.465 8.36503 2.79617 0
M  V30 15009 O 832.005 7.71806 0.42951 0
M  V30 15010 C 832.945 7.67148 -0.673689 0
M  V30 15011 C 832.215 7.33374 -1.95559 0
M  V30 15012 O 832.005 5.88721 -2.00726 0
M  V30 15013 C 830.815 7.92526 -2.10483 0
M  V30 15014 O 830.425 8.02971 -3.47653 0
M  V30 15015 C 829.935 6.89602 -1.41652 0
M  V30 15016 C 830.645 5.59201 -1.75185 0
M  V30 15017 N 830.595 4.58235 -0.662552 0
M  V30 15018 H 833.434 8.65116 -0.777161 0
M  V30 15019 H 833.706 6.90173 -0.474152 0
M  V30 15020 H 832.838 7.66548 -2.79458 0
M  V30 15021 P 828.875 8.03563 -3.84925 0
M  V30 15022 O 828.655 8.85821 -5.0569 0
M  V30 15023 O 828.085 8.41101 -2.65469 0
M  V30 15024 O 828.625 6.4965 -4.18908 0
M  V30 15025 C 829.565 5.81037 -5.05421 0
M  V30 15026 C 828.835 4.78366 -5.89277 0
M  V30 15027 O 828.625 3.58302 -5.08433 0
M  V30 15028 C 827.435 5.17448 -6.36119 0
M  V30 15029 O 827.045 4.45271 -7.53232 0
M  V30 15030 C 826.555 4.74639 -5.19936 0
M  V30 15031 C 827.265 3.49432 -4.70418 0
M  V30 15032 N 827.215 3.32099 -3.22613 0
M  V30 15033 C 827.295 4.28245 -2.25527 0
M  V30 15034 N 827.225 3.80823 -1.04874 0
M  V30 15035 C 827.075 2.44571 -1.23535 0
M  V30 15036 C 826.945 1.37068 -0.330675 0
M  V30 15037 N 826.935 1.51472 0.990824 0
M  V30 15038 N 826.825 0.138614 -0.848756 0
M  V30 15039 C 826.835 -0.00675923 -2.16999 0
M  V30 15040 N 826.955 0.904372 -3.11122 0
M  V30 15041 C 827.075 2.12707 -2.56212 0
M  V30 15042 H 830.054 6.54213 -5.71376 0
M  V30 15043 H 830.326 5.30936 -4.43503 0
M  V30 15044 H 829.458 4.55889 -6.76652 0
M  V30 15045 H 826.803 2.61715 -5.17932 0
M  V30 15046 H 826.523 5.52155 -4.41878 0
M  V30 15047 H 825.532 4.51981 -5.53374 0
M  V30 15048 H 827.366 6.25124 -6.55234 0
M  V30 15049 H 827.407 5.34372 -2.47488 0
M  V30 15050 H 827.026 2.45153 1.4078 0
M  V30 15051 H 826.837 0.688422 1.59911 0
M  V30 15052 H 826.729 -1.02584 -2.52346 0
M  V30 15053 P 825.495 4.23843 -7.83734 0
M  V30 15054 O 825.275 4.19407 -9.29784 0
M  V30 15055 O 824.705 5.24426 -7.09156 0
M  V30 15056 O 825.245 2.7935 -7.20758 0
M  V30 15057 C 826.185 1.7299 -7.50419 0
M  V30 15058 C 825.455 0.406376 -7.57911 0
M  V30 15059 O 825.245 -0.0897726 -6.21935 0
M  V30 15060 C 824.055 0.447224 -8.1878 0
M  V30 15061 O 823.665 -0.825065 -8.71101 0
M  V30 15062 C 823.175 0.783801 -6.99623 0
M  V30 15063 C 823.885 0.0619192 -5.85967 0
M  V30 15064 N 823.835 0.7859 -4.56281 0
M  V30 15065 H 826.674 1.93423 -8.4679 0
M  V30 15066 H 826.946 1.68181 -6.71046 0
M  V30 15067 H 826.078 -0.289041 -8.15388 0
M  V30 15068 P 822.115 -1.17771 -8.83182 0
M  V30 15069 O 821.895 -2.07206 -9.98732 0
M  V30 15070 O 821.325 0.0743816 -8.81969 0
M  V30 15071 O 821.865 -1.97652 -7.47304 0
M  V30 15072 C 822.805 -3.01055 -7.08599 0
M  V30 15073 C 822.075 -4.12613 -6.37049 0
M  V30 15074 O 821.865 -3.72827 -4.97879 0
M  V30 15075 C 820.675 -4.45719 -6.88164 0
M  V30 15076 O 820.285 -5.7877 -6.5624 0
M  V30 15077 C 819.795 -3.47768 -6.11991 0
M  V30 15078 C 820.505 -3.39356 -4.77615 0
M  V30 15079 N 820.455 -2.04571 -4.15244 0
M  V30 15080 C 820.305 -1.98587 -2.78314 0
M  V30 15081 O 820.215 -2.98134 -2.08835 0
M  V30 15082 N 820.265 -0.714467 -2.24925 0
M  V30 15083 C 820.355 0.470001 -2.94169 0
M  V30 15084 C 820.505 0.312541 -4.36783 0
M  V30 15085 C 820.555 -0.914512 -4.92583 0
M  V30 15086 H 823.296 -3.41169 -7.98575 0
M  V30 15087 H 823.565 -2.58295 -6.41556 0
M  V30 15088 H 822.698 -5.02657 -6.42673 0
M  V30 15089 H 820.043 -4.11637 -4.08885 0
M  V30 15090 H 819.764 -2.49626 -6.61679 0
M  V30 15091 H 818.772 -3.86566 -6.00778 0
M  V30 15092 H 820.606 -4.29943 -7.96918 0
M  V30 15093 H 820.677 -1.00937 -6.00374 0
M  V30 15094 P 818.735 -6.144 -6.45285 0
M  V30 15095 O 818.515 -7.54673 -6.86199 0
M  V30 15096 O 817.945 -5.12391 -7.179 0
M  V30 15097 O 818.485 -5.99158 -4.88404 0
M  V30 15098 C 819.425 -6.60234 -3.96415 0
M  V30 15099 C 818.695 -7.08259 -2.72856 0
M  V30 15100 O 818.485 -5.9427 -1.83651 0
M  V30 15101 C 817.295 -7.64886 -2.9555 0
M  V30 15102 O 816.905 -8.53963 -1.90717 0
M  V30 15103 C 816.415 -6.4116 -2.90739 0
M  V30 15104 C 817.125 -5.55375 -1.86963 0
M  V30 15105 N 817.075 -4.09664 -2.15742 0
M  V30 15106 H 819.914 -7.45574 -4.45629 0
M  V30 15107 H 820.186 -5.86232 -3.67314 0
M  V30 15108 H 819.318 -7.84412 -2.24479 0
M  V30 15109 P 815.355 -8.7635 -1.60911 0
M  V30 15110 O 815.135 -10.1388 -1.11561 0
M  V30 15111 O 814.565 -8.36503 -2.79617 0
M  V30 15112 O 815.105 -7.71806 -0.42951 0
M  V30 15113 C 816.045 -7.67148 0.673689 0
M  V30 15114 C 815.315 -7.33374 1.95559 0
M  V30 15115 O 815.105 -5.88721 2.00726 0
M  V30 15116 C 813.915 -7.92526 2.10483 0
M  V30 15117 O 813.525 -8.02971 3.47653 0
M  V30 15118 C 813.035 -6.89602 1.41652 0
M  V30 15119 C 813.745 -5.59201 1.75185 0
M  V30 15120 N 813.695 -4.58235 0.662552 0
M  V30 15121 H 816.534 -8.65116 0.777161 0
M  V30 15122 H 816.806 -6.90173 0.474152 0
M  V30 15123 H 815.938 -7.66548 2.79458 0
M  V30 15124 P 811.975 -8.03563 3.84925 0
M  V30 15125 O 811.755 -8.85821 5.0569 0
M  V30 15126 O 811.185 -8.41101 2.65469 0
M  V30 15127 O 811.725 -6.4965 4.18908 0
M  V30 15128 C 812.665 -5.81037 5.05421 0
M  V30 15129 C 811.935 -4.78366 5.89277 0
M  V30 15130 O 811.725 -3.58302 5.08433 0
M  V30 15131 C 810.535 -5.17448 6.36119 0
M  V30 15132 O 810.145 -4.45271 7.53232 0
M  V30 15133 C 809.655 -4.74639 5.19936 0
M  V30 15134 C 810.365 -3.49432 4.70418 0
M  V30 15135 N 810.315 -3.32099 3.22613 0
M  V30 15136 H 813.154 -6.54213 5.71376 0
M  V30 15137 H 813.426 -5.30936 4.43503 0
M  V30 15138 H 812.558 -4.55889 6.76652 0
M  V30 15139 H 809.903 -2.61715 5.17932 0
M  V30 15140 H 809.623 -5.52155 4.41878 0
M  V30 15141 H 808.632 -4.51981 5.53374 0
M  V30 15142 H 810.466 -6.25124 6.55234 0
M  V30 15143 P 808.595 -4.23843 7.83734 0
M  V30 15144 O 808.375 -4.19407 9.29784 0
M  V30 15145 O 807.805 -5.24426 7.09156 0
M  V30 15146 O 808.345 -2.7935 7.20758 0
M  V30 15147 C 809.285 -1.72945 7.50224 0
M  V30 15148 C 808.555 -0.406376 7.57911 0
M  V30 15149 O 808.345 0.0897726 6.21935 0
M  V30 15150 C 807.155 -0.438983 8.18724 0
M  V30 15151 O 806.765 0.825065 8.71101 0
M  V30 15152 C 806.275 -0.783689 6.99524 0
M  V30 15153 C 806.985 -0.0619086 5.85867 0
M  V30 15154 N 806.935 -0.78573 4.56183 0
M  V30 15155 C 806.785 -0.0292889 3.41887 0
M  V30 15156 O 806.695 1.18445 3.4419 0
M  V30 15157 N 806.745 -0.744061 2.23964 0
M  V30 15158 C 806.835 -2.10932 2.10362 0
M  V30 15159 O 806.785 -2.64117 0.98825 0
M  V30 15160 C 806.985 -2.8202 3.34994 0
M  V30 15161 C 807.095 -4.31095 3.25037 0
M  V30 15162 C 807.035 -2.15547 4.52261 0
M  V30 15163 H 809.776 -1.93379 8.46595 0
M  V30 15164 H 810.045 -1.68132 6.70852 0
M  V30 15165 H 809.178 0.289041 8.15388 0
M  V30 15166 H 806.523 0.926847 5.72749 0
M  V30 15167 H 806.244 -1.86973 6.82036 0
M  V30 15168 H 805.252 -0.403896 7.13257 0
M  V30 15169 H 807.086 -1.20585 8.97435 0
M  V30 15170 H 807.157 -2.71231 5.45042 0
M  V30 15171 H 806.127 -4.76966 3.49992 0
M  V30 15172 H 807.864 -4.67047 3.95024 0
M  V30 15173 H 807.376 -4.58996 2.22312 0
M  V30 15174 H 806.64 -0.214893 1.39758 0
M  V30 15175 P 805.215 1.17771 8.83182 0
M  V30 15176 O 804.995 2.07206 9.98732 0
M  V30 15177 O 804.425 -0.0743816 8.81969 0
M  V30 15178 O 804.965 1.97652 7.47304 0
M  V30 15179 C 805.905 3.01133 7.08783 0
M  V30 15180 C 805.175 4.12613 6.37049 0
M  V30 15181 O 804.965 3.72827 4.97879 0
M  V30 15182 C 803.775 4.45085 6.88694 0
M  V30 15183 O 803.385 5.7877 6.5624 0
M  V30 15184 C 802.895 3.47817 6.12078 0
M  V30 15185 C 803.605 3.39414 4.77697 0
M  V30 15186 N 803.555 2.04615 4.15333 0
M  V30 15187 H 806.394 3.41248 7.98759 0
M  V30 15188 H 806.666 2.5837 6.41742 0
M  V30 15189 H 805.798 5.02657 6.42673 0
M  V30 15190 P 801.835 6.144 6.45285 0
M  V30 15191 O 801.615 7.54673 6.86199 0
M  V30 15192 O 801.045 5.12391 7.179 0
M  V30 15193 O 801.585 5.99158 4.88404 0
M  V30 15194 C 802.525 6.60234 3.96415 0
M  V30 15195 C 801.795 7.08259 2.72856 0
M  V30 15196 O 801.585 5.9427 1.83651 0
M  V30 15197 C 800.395 7.64886 2.9555 0
M  V30 15198 O 800.005 8.53963 1.90717 0
M  V30 15199 C 799.515 6.4116 2.90739 0
M  V30 15200 C 800.225 5.55375 1.86963 0
M  V30 15201 N 800.175 4.09664 2.15742 0
M  V30 15202 H 803.014 7.45574 4.45629 0
M  V30 15203 H 803.286 5.86232 3.67314 0
M  V30 15204 H 802.418 7.84412 2.24479 0
M  V30 15205 P 798.455 8.7635 1.60911 0
M  V30 15206 O 798.235 10.1388 1.11561 0
M  V30 15207 O 797.665 8.36503 2.79617 0
M  V30 15208 O 798.205 7.71806 0.42951 0
M  V30 15209 C 799.145 7.67148 -0.673689 0
M  V30 15210 C 798.415 7.33374 -1.95559 0
M  V30 15211 O 798.205 5.88721 -2.00726 0
M  V30 15212 C 797.015 7.92526 -2.10483 0
M  V30 15213 O 796.625 8.02971 -3.47653 0
M  V30 15214 C 796.135 6.89602 -1.41652 0
M  V30 15215 C 796.845 5.59201 -1.75185 0
M  V30 15216 N 796.795 4.58301 -0.657969 0
M  V30 15217 C 796.875 4.79019 0.692603 0
M  V30 15218 N 796.805 3.69736 1.38998 0
M  V30 15219 C 796.655 2.70474 0.438135 0
M  V30 15220 C 796.525 1.30327 0.538142 0
M  V30 15221 N 796.515 0.64304 1.69192 0
M  V30 15222 N 796.405 0.611027 -0.605183 0
M  V30 15223 C 796.415 1.27002 -1.75953 0
M  V30 15224 N 796.535 2.56038 -1.98546 0
M  V30 15225 C 796.655 3.22681 -0.822541 0
M  V30 15226 H 799.634 8.65116 -0.777161 0
M  V30 15227 H 799.906 6.9022 -0.46725 0
M  V30 15228 H 799.038 7.66548 -2.79458 0
M  V30 15229 H 796.383 5.16165 -2.65183 0
M  V30 15230 H 796.103 7.06433 -0.329384 0
M  V30 15231 H 795.112 6.90926 -1.82021 0
M  V30 15232 H 796.946 8.90873 -1.62657 0
M  V30 15233 H 796.987 5.77785 1.13874 0
M  V30 15234 H 796.606 1.15585 2.57991 0
M  V30 15235 H 796.417 -0.382989 1.69835 0
M  V30 15236 H 796.309 0.653331 -2.64449 0
M  V30 15237 P 795.075 8.03563 -3.84925 0
M  V30 15238 O 794.855 8.85821 -5.0569 0
M  V30 15239 O 794.285 8.41101 -2.65469 0
M  V30 15240 O 794.825 6.4965 -4.18908 0
M  V30 15241 C 795.765 5.81037 -5.05421 0
M  V30 15242 C 795.035 4.78366 -5.89277 0
M  V30 15243 O 794.825 3.58302 -5.08433 0
M  V30 15244 C 793.635 5.17448 -6.36119 0
M  V30 15245 O 793.245 4.45271 -7.53232 0
M  V30 15246 C 792.755 4.74639 -5.19936 0
M  V30 15247 C 793.465 3.49432 -4.70418 0
M  V30 15248 N 793.415 3.32099 -3.22613 0
M  V30 15249 C 793.495 4.28245 -2.25527 0
M  V30 15250 N 793.425 3.80823 -1.04874 0
M  V30 15251 C 793.275 2.44571 -1.23535 0
M  V30 15252 C 793.145 1.37068 -0.330675 0
M  V30 15253 N 793.135 1.51472 0.990824 0
M  V30 15254 N 793.025 0.138614 -0.848756 0
M  V30 15255 C 793.035 -0.00675923 -2.16999 0
M  V30 15256 N 793.155 0.904372 -3.11122 0
M  V30 15257 C 793.275 2.12707 -2.56212 0
M  V30 15258 H 796.254 6.54213 -5.71376 0
M  V30 15259 H 796.526 5.30936 -4.43503 0
M  V30 15260 H 795.658 4.55889 -6.76652 0
M  V30 15261 H 793.003 2.61715 -5.17932 0
M  V30 15262 H 792.723 5.52155 -4.41878 0
M  V30 15263 H 791.732 4.51981 -5.53374 0
M  V30 15264 H 793.566 6.25124 -6.55234 0
M  V30 15265 H 793.607 5.34372 -2.47488 0
M  V30 15266 H 793.226 2.45153 1.4078 0
M  V30 15267 H 793.037 0.688422 1.59911 0
M  V30 15268 H 792.929 -1.02584 -2.52346 0
M  V30 15269 P 791.695 4.23843 -7.83734 0
M  V30 15270 O 791.475 4.19407 -9.29784 0
M  V30 15271 O 790.905 5.24426 -7.09156 0
M  V30 15272 O 791.445 2.7935 -7.20758 0
M  V30 15273 C 792.385 1.7299 -7.50419 0
M  V30 15274 C 791.655 0.406376 -7.57911 0
M  V30 15275 O 791.445 -0.0897726 -6.21935 0
M  V30 15276 C 790.255 0.447224 -8.1878 0
M  V30 15277 O 789.865 -0.825065 -8.71101 0
M  V30 15278 C 789.375 0.783801 -6.99623 0
M  V30 15279 C 790.085 0.0619192 -5.85967 0
M  V30 15280 N 790.035 0.7859 -4.56281 0
M  V30 15281 H 792.874 1.93423 -8.4679 0
M  V30 15282 H 793.146 1.68181 -6.71046 0
M  V30 15283 H 792.278 -0.289041 -8.15388 0
M  V30 15284 P 788.315 -1.17771 -8.83182 0
M  V30 15285 O 788.095 -2.07206 -9.98732 0
M  V30 15286 O 787.525 0.0743816 -8.81969 0
M  V30 15287 O 788.065 -1.97652 -7.47304 0
M  V30 15288 C 789.005 -3.01133 -7.08783 0
M  V30 15289 C 788.275 -4.12613 -6.37049 0
M  V30 15290 O 788.065 -3.72827 -4.97879 0
M  V30 15291 C 786.875 -4.45085 -6.88694 0
M  V30 15292 O 786.485 -5.7877 -6.5624 0
M  V30 15293 C 785.995 -3.47817 -6.12078 0
M  V30 15294 C 786.705 -3.39414 -4.77697 0
M  V30 15295 N 786.655 -2.04615 -4.15333 0
M  V30 15296 H 789.494 -3.41248 -7.98759 0
M  V30 15297 H 789.766 -2.5837 -6.41742 0
M  V30 15298 H 788.898 -5.02657 -6.42673 0
M  V30 15299 P 784.935 -6.144 -6.45285 0
M  V30 15300 O 784.715 -7.54673 -6.86199 0
M  V30 15301 O 784.145 -5.12391 -7.179 0
M  V30 15302 O 784.685 -5.99158 -4.88404 0
M  V30 15303 C 785.625 -6.60234 -3.96415 0
M  V30 15304 C 784.895 -7.08259 -2.72856 0
M  V30 15305 O 784.685 -5.9427 -1.83651 0
M  V30 15306 C 783.495 -7.64886 -2.9555 0
M  V30 15307 O 783.105 -8.53963 -1.90717 0
M  V30 15308 C 782.615 -6.4116 -2.90739 0
M  V30 15309 C 783.325 -5.55375 -1.86963 0
M  V30 15310 N 783.275 -4.09664 -2.15742 0
M  V30 15311 H 786.114 -7.45574 -4.45629 0
M  V30 15312 H 786.386 -5.86232 -3.67314 0
M  V30 15313 H 785.518 -7.84412 -2.24479 0
M  V30 15314 P 781.555 -8.7635 -1.60911 0
M  V30 15315 O 781.335 -10.1388 -1.11561 0
M  V30 15316 O 780.765 -8.36503 -2.79617 0
M  V30 15317 O 781.305 -7.71806 -0.42951 0
M  V30 15318 C 782.245 -7.67148 0.673689 0
M  V30 15319 C 781.515 -7.33374 1.95559 0
M  V30 15320 O 781.305 -5.88721 2.00726 0
M  V30 15321 C 780.115 -7.92526 2.10483 0
M  V30 15322 O 779.725 -8.02971 3.47653 0
M  V30 15323 C 779.235 -6.89602 1.41652 0
M  V30 15324 C 779.945 -5.59201 1.75185 0
M  V30 15325 N 779.895 -4.58301 0.657969 0
M  V30 15326 H 782.734 -8.65116 0.777161 0
M  V30 15327 H 783.006 -6.9022 0.46725 0
M  V30 15328 H 782.138 -7.66548 2.79458 0
M  V30 15329 H 779.483 -5.16165 2.65183 0
M  V30 15330 H 779.203 -7.06433 0.329384 0
M  V30 15331 H 778.212 -6.90926 1.82021 0
M  V30 15332 H 780.046 -8.90873 1.62657 0
M  V30 15333 P 778.175 -8.03563 3.84925 0
M  V30 15334 O 777.955 -8.85821 5.0569 0
M  V30 15335 O 777.385 -8.41101 2.65469 0
M  V30 15336 O 777.925 -6.4965 4.18908 0
M  V30 15337 C 778.865 -5.81037 5.05421 0
M  V30 15338 C 778.135 -4.78366 5.89277 0
M  V30 15339 O 777.925 -3.58302 5.08433 0
M  V30 15340 C 776.735 -5.17448 6.36119 0
M  V30 15341 O 776.345 -4.45271 7.53232 0
M  V30 15342 C 775.855 -4.74639 5.19936 0
M  V30 15343 C 776.565 -3.49432 4.70418 0
M  V30 15344 N 776.515 -3.31776 3.22945 0
M  V30 15345 H 779.354 -6.54213 5.71376 0
M  V30 15346 H 779.626 -5.30492 4.44033 0
M  V30 15347 H 778.758 -4.55889 6.76652 0
M  V30 15348 P 774.795 -4.23843 7.83734 0
M  V30 15349 O 774.575 -4.19407 9.29784 0
M  V30 15350 O 774.005 -5.24426 7.09156 0
M  V30 15351 O 774.545 -2.7935 7.20758 0
M  V30 15352 C 775.485 -1.72945 7.50224 0
M  V30 15353 C 774.755 -0.406376 7.57911 0
M  V30 15354 O 774.545 0.0897726 6.21935 0
M  V30 15355 C 773.355 -0.438983 8.18724 0
M  V30 15356 O 772.965 0.825065 8.71101 0
M  V30 15357 C 772.475 -0.783689 6.99524 0
M  V30 15358 C 773.185 -0.0619086 5.85867 0
M  V30 15359 N 773.135 -0.78573 4.56183 0
M  V30 15360 C 772.985 -0.0292889 3.41887 0
M  V30 15361 O 772.895 1.18445 3.4419 0
M  V30 15362 N 772.945 -0.744061 2.23964 0
M  V30 15363 C 773.035 -2.10932 2.10362 0
M  V30 15364 O 772.985 -2.64117 0.98825 0
M  V30 15365 C 773.185 -2.8202 3.34994 0
M  V30 15366 C 773.295 -4.31095 3.25037 0
M  V30 15367 C 773.235 -2.15547 4.52261 0
M  V30 15368 H 775.976 -1.93379 8.46595 0
M  V30 15369 H 776.245 -1.68132 6.70852 0
M  V30 15370 H 775.378 0.289041 8.15388 0
M  V30 15371 H 772.723 0.926847 5.72749 0
M  V30 15372 H 772.444 -1.86973 6.82036 0
M  V30 15373 H 771.452 -0.403896 7.13257 0
M  V30 15374 H 773.286 -1.20585 8.97435 0
M  V30 15375 H 773.357 -2.71231 5.45042 0
M  V30 15376 H 772.327 -4.76966 3.49992 0
M  V30 15377 H 774.064 -4.67047 3.95024 0
M  V30 15378 H 773.576 -4.58996 2.22312 0
M  V30 15379 H 772.84 -0.214893 1.39758 0
M  V30 15380 P 771.415 1.17771 8.83182 0
M  V30 15381 O 771.195 2.07206 9.98732 0
M  V30 15382 O 770.625 -0.0743816 8.81969 0
M  V30 15383 O 771.165 1.97652 7.47304 0
M  V30 15384 C 772.105 3.01133 7.08783 0
M  V30 15385 C 771.375 4.12613 6.37049 0
M  V30 15386 O 771.165 3.72827 4.97879 0
M  V30 15387 C 769.975 4.45085 6.88694 0
M  V30 15388 O 769.585 5.7877 6.5624 0
M  V30 15389 C 769.095 3.47817 6.12078 0
M  V30 15390 C 769.805 3.39414 4.77697 0
M  V30 15391 N 769.755 2.04615 4.15333 0
M  V30 15392 H 772.594 3.41248 7.98759 0
M  V30 15393 H 772.866 2.5837 6.41742 0
M  V30 15394 H 771.998 5.02657 6.42673 0
M  V30 15395 P 768.035 6.144 6.45285 0
M  V30 15396 O 767.815 7.54673 6.86199 0
M  V30 15397 O 767.245 5.12391 7.179 0
M  V30 15398 O 767.785 5.99158 4.88404 0
M  V30 15399 C 768.725 6.60234 3.96415 0
M  V30 15400 C 767.995 7.08259 2.72856 0
M  V30 15401 O 767.785 5.9427 1.83651 0
M  V30 15402 C 766.595 7.64886 2.9555 0
M  V30 15403 O 766.205 8.53963 1.90717 0
M  V30 15404 C 765.715 6.4116 2.90739 0
M  V30 15405 C 766.425 5.55375 1.86963 0
M  V30 15406 N 766.375 4.09448 2.16152 0
M  V30 15407 H 769.214 7.45574 4.45629 0
M  V30 15408 H 769.486 5.85864 3.679 0
M  V30 15409 H 768.618 7.84412 2.24479 0
M  V30 15410 H 765.963 5.73457 0.888562 0
M  V30 15411 H 765.683 5.90877 3.88583 0
M  V30 15412 H 764.692 6.6596 2.58858 0
M  V30 15413 H 766.526 8.16339 3.92049 0
M  V30 15414 P 764.656 8.7635 1.60911 0
M  V30 15415 O 764.436 10.1388 1.11561 0
M  V30 15416 O 763.866 8.36503 2.79617 0
M  V30 15417 O 764.406 7.71806 0.42951 0
M  V30 15418 C 765.346 7.67148 -0.673689 0
M  V30 15419 C 764.616 7.33374 -1.95559 0
M  V30 15420 O 764.406 5.88721 -2.00726 0
M  V30 15421 C 763.216 7.92526 -2.10483 0
M  V30 15422 O 762.826 8.02971 -3.47653 0
M  V30 15423 C 762.336 6.89602 -1.41652 0
M  V30 15424 C 763.046 5.59201 -1.75185 0
M  V30 15425 N 762.996 4.58235 -0.662552 0
M  V30 15426 H 765.835 8.65116 -0.777161 0
M  V30 15427 H 766.107 6.90173 -0.474152 0
M  V30 15428 H 765.239 7.66548 -2.79458 0
M  V30 15429 P 761.276 8.03563 -3.84925 0
M  V30 15430 O 761.056 8.85821 -5.0569 0
M  V30 15431 O 760.486 8.41101 -2.65469 0
M  V30 15432 O 761.026 6.49734 -4.18962 0
M  V30 15433 C 761.966 5.81037 -5.05421 0
M  V30 15434 C 761.236 4.79018 -5.88876 0
M  V30 15435 O 761.026 3.58359 -5.08515 0
M  V30 15436 C 759.836 5.17448 -6.36119 0
M  V30 15437 O 759.446 4.45322 -7.53318 0
M  V30 15438 C 758.956 4.74639 -5.19936 0
M  V30 15439 C 759.666 3.49432 -4.70418 0
M  V30 15440 N 759.616 3.31776 -3.22945 0
M  V30 15441 C 759.466 2.02742 -2.72939 0
M  V30 15442 O 759.376 1.08301 -3.52749 0
M  V30 15443 N 759.416 1.96117 -1.22063 0
M  V30 15444 C 759.516 2.8878 -0.551566 0
M  V30 15445 N 759.466 2.65609 0.750198 0
M  V30 15446 C 759.666 4.22457 -1.03707 0
M  V30 15447 C 759.716 4.37979 -2.39113 0
M  V30 15448 H 762.456 6.54138 -5.7131 0
M  V30 15449 H 762.726 5.30492 -4.44033 0
M  V30 15450 H 761.859 4.55945 -6.76735 0
M  V30 15451 H 759.204 2.6176 -5.18021 0
M  V30 15452 H 758.924 5.52233 -4.41941 0
M  V30 15453 H 757.933 4.52045 -5.53452 0
M  V30 15454 H 759.767 6.25124 -6.55234 0
M  V30 15455 H 759.839 5.37936 -2.80552 0
M  V30 15456 H 759.737 5.07528 -0.359553 0
M  V30 15457 H 759.349 1.69403 1.09847 0
M  V30 15458 H 759.545 3.43701 1.41792 0
M  V30 15459 P 757.896 4.23843 -7.83734 0
M  V30 15460 O 757.676 4.19407 -9.29784 0
M  V30 15461 O 757.106 5.24426 -7.09156 0
M  V30 15462 O 757.646 2.7935 -7.20758 0
M  V30 15463 C 758.586 1.72945 -7.50224 0
M  V30 15464 C 757.856 0.406376 -7.57911 0
M  V30 15465 O 757.646 -0.0897726 -6.21935 0
M  V30 15466 C 756.456 0.438983 -8.18724 0
M  V30 15467 O 756.066 -0.825065 -8.71101 0
M  V30 15468 C 755.576 0.783689 -6.99524 0
M  V30 15469 C 756.286 0.0619086 -5.85867 0
M  V30 15470 N 756.236 0.78573 -4.56183 0
M  V30 15471 C 756.086 0.0292889 -3.41887 0
M  V30 15472 O 755.996 -1.18445 -3.4419 0
M  V30 15473 N 756.046 0.744061 -2.23964 0
M  V30 15474 C 756.136 2.10932 -2.10362 0
M  V30 15475 C 756.286 2.8202 -3.34994 0
M  V30 15476 C 756.336 2.15547 -4.52261 0
M  V30 15477 H 759.077 1.93379 -8.46595 0
M  V30 15478 H 759.346 1.68132 -6.70852 0
M  V30 15479 H 758.479 -0.289041 -8.15388 0
M  V30 15480 H 755.824 -0.926847 -5.72749 0
M  V30 15481 H 755.545 1.86973 -6.82036 0
M  V30 15482 H 754.553 0.403896 -7.13257 0
M  V30 15483 H 756.387 1.20585 -8.97435 0
M  V30 15484 H 756.458 2.71231 -5.45042 0
M  V30 15485 P 754.516 -1.17771 -8.83182 0
M  V30 15486 O 754.296 -2.07206 -9.98732 0
M  V30 15487 O 753.726 0.0743816 -8.81969 0
M  V30 15488 O 754.266 -1.97652 -7.47304 0
M  V30 15489 C 755.206 -3.01133 -7.08783 0
M  V30 15490 C 754.476 -4.12613 -6.37049 0
M  V30 15491 O 754.266 -3.72827 -4.97879 0
M  V30 15492 C 753.076 -4.45085 -6.88694 0
M  V30 15493 O 752.686 -5.7877 -6.5624 0
M  V30 15494 C 752.196 -3.47817 -6.12078 0
M  V30 15495 C 752.906 -3.39414 -4.77697 0
M  V30 15496 N 752.856 -2.04615 -4.15333 0
M  V30 15497 H 755.695 -3.41248 -7.98759 0
M  V30 15498 H 755.967 -2.5837 -6.41742 0
M  V30 15499 H 755.099 -5.02657 -6.42673 0
M  V30 15500 P 751.136 -6.144 -6.45285 0
M  V30 15501 O 750.916 -7.54673 -6.86199 0
M  V30 15502 O 750.346 -5.12391 -7.179 0
M  V30 15503 O 750.886 -5.99158 -4.88404 0
M  V30 15504 C 751.826 -6.60234 -3.96415 0
M  V30 15505 C 751.096 -7.08259 -2.72856 0
M  V30 15506 O 750.886 -5.9427 -1.83651 0
M  V30 15507 C 749.696 -7.64886 -2.9555 0
M  V30 15508 O 749.306 -8.53963 -1.90717 0
M  V30 15509 C 748.816 -6.4116 -2.90739 0
M  V30 15510 C 749.526 -5.55375 -1.86963 0
M  V30 15511 N 749.476 -4.09448 -2.16152 0
M  V30 15512 H 752.315 -7.45574 -4.45629 0
M  V30 15513 H 752.587 -5.85864 -3.679 0
M  V30 15514 H 751.719 -7.84412 -2.24479 0
M  V30 15515 H 749.064 -5.73457 -0.888562 0
M  V30 15516 H 748.784 -5.90877 -3.88583 0
M  V30 15517 H 747.793 -6.6596 -2.58858 0
M  V30 15518 H 749.627 -8.16339 -3.92049 0
M  V30 15519 P 747.756 -8.7635 -1.60911 0
M  V30 15520 O 747.536 -10.1388 -1.11561 0
M  V30 15521 O 746.966 -8.36503 -2.79617 0
M  V30 15522 O 747.506 -7.71906 -0.429565 0
M  V30 15523 C 748.446 -7.67148 0.673689 0
M  V30 15524 C 747.716 -7.33666 1.94851 0
M  V30 15525 O 747.506 -5.88816 2.00759 0
M  V30 15526 C 746.316 -7.92526 2.10483 0
M  V30 15527 O 745.926 -8.03063 3.47693 0
M  V30 15528 C 745.436 -6.89602 1.41652 0
M  V30 15529 C 746.146 -5.59201 1.75185 0
M  V30 15530 N 746.096 -4.58235 0.662552 0
M  V30 15531 C 745.946 -3.24451 1.01643 0
M  V30 15532 O 745.856 -2.94958 2.21722 0
M  V30 15533 N 745.896 -2.30408 -0.165238 0
M  V30 15534 C 745.996 -2.66048 -1.25118 0
M  V30 15535 N 745.946 -1.70787 -2.16813 0
M  V30 15536 C 746.146 -4.02732 -1.64413 0
M  V30 15537 C 746.196 -4.9488 -0.63991 0
M  V30 15538 H 748.936 -8.65017 0.777072 0
M  V30 15539 H 749.206 -6.90173 0.474152 0
M  V30 15540 H 748.339 -7.66642 2.79492 0
M  V30 15541 H 745.684 -5.16254 2.65229 0
M  V30 15542 H 745.404 -7.06532 0.329431 0
M  V30 15543 H 744.413 -6.91023 1.82047 0
M  V30 15544 H 746.247 -8.90873 1.62657 0
M  V30 15545 H 746.319 -6.00104 -0.892197 0
M  V30 15546 H 746.217 -4.31733 -2.69229 0
M  V30 15547 H 745.829 -0.724835 -1.8844 0
M  V30 15548 H 746.025 -1.94716 -3.16734 0
M  V30 15549 P 744.376 -8.03563 3.84925 0
M  V30 15550 O 744.156 -8.85821 5.0569 0
M  V30 15551 O 743.586 -8.41101 2.65469 0
M  V30 15552 O 744.126 -6.4965 4.18908 0
M  V30 15553 C 745.066 -5.81037 5.05421 0
M  V30 15554 C 744.336 -4.78366 5.89277 0
M  V30 15555 O 744.126 -3.58302 5.08433 0
M  V30 15556 C 742.936 -5.17448 6.36119 0
M  V30 15557 O 742.546 -4.45271 7.53232 0
M  V30 15558 C 742.056 -4.74639 5.19936 0
M  V30 15559 C 742.766 -3.49432 4.70418 0
M  V30 15560 N 742.716 -3.31776 3.22945 0
M  V30 15561 H 745.555 -6.54213 5.71376 0
M  V30 15562 H 745.827 -5.30492 4.44033 0
M  V30 15563 H 744.959 -4.55889 6.76652 0
M  V30 15564 P 740.996 -4.23843 7.83734 0
M  V30 15565 O 740.776 -4.19407 9.29784 0
M  V30 15566 O 740.206 -5.24426 7.09156 0
M  V30 15567 O 740.746 -2.7935 7.20758 0
M  V30 15568 C 741.686 -1.7299 7.50419 0
M  V30 15569 C 740.956 -0.406376 7.57911 0
M  V30 15570 O 740.746 0.0897726 6.21935 0
M  V30 15571 C 739.556 -0.447224 8.1878 0
M  V30 15572 O 739.166 0.825065 8.71101 0
M  V30 15573 C 738.676 -0.783801 6.99623 0
M  V30 15574 C 739.386 -0.0619192 5.85967 0
M  V30 15575 N 739.336 -0.7859 4.56281 0
M  V30 15576 H 742.175 -1.93423 8.4679 0
M  V30 15577 H 742.447 -1.68181 6.71046 0
M  V30 15578 H 741.579 0.289041 8.15388 0
M  V30 15579 P 737.616 1.17771 8.83182 0
M  V30 15580 O 737.396 2.07206 9.98732 0
M  V30 15581 O 736.826 -0.0743816 8.81969 0
M  V30 15582 O 737.366 1.97652 7.47304 0
M  V30 15583 C 738.306 3.01133 7.08783 0
M  V30 15584 C 737.576 4.12613 6.37049 0
M  V30 15585 O 737.366 3.72827 4.97879 0
M  V30 15586 C 736.176 4.45085 6.88694 0
M  V30 15587 O 735.786 5.7877 6.5624 0
M  V30 15588 C 735.296 3.47817 6.12078 0
M  V30 15589 C 736.006 3.39414 4.77697 0
M  V30 15590 N 735.956 2.04615 4.15333 0
M  V30 15591 H 738.795 3.41248 7.98759 0
M  V30 15592 H 739.067 2.5837 6.41742 0
M  V30 15593 H 738.199 5.02657 6.42673 0
M  V30 15594 P 734.236 6.144 6.45285 0
M  V30 15595 O 734.016 7.54673 6.86199 0
M  V30 15596 O 733.446 5.12391 7.179 0
M  V30 15597 O 733.986 5.99158 4.88404 0
M  V30 15598 C 734.926 6.60234 3.96415 0
M  V30 15599 C 734.196 7.08259 2.72856 0
M  V30 15600 O 733.986 5.9427 1.83651 0
M  V30 15601 C 732.796 7.64886 2.9555 0
M  V30 15602 O 732.406 8.53963 1.90717 0
M  V30 15603 C 731.916 6.4116 2.90739 0
M  V30 15604 C 732.626 5.55375 1.86963 0
M  V30 15605 N 732.576 4.09664 2.15742 0
M  V30 15606 H 735.415 7.45574 4.45629 0
M  V30 15607 H 735.687 5.86232 3.67314 0
M  V30 15608 H 734.819 7.84412 2.24479 0
M  V30 15609 P 730.856 8.7635 1.60911 0
M  V30 15610 O 730.636 10.1388 1.11561 0
M  V30 15611 O 730.066 8.36503 2.79617 0
M  V30 15612 O 730.606 7.71906 0.429565 0
M  V30 15613 C 731.546 7.67148 -0.673689 0
M  V30 15614 C 730.816 7.33666 -1.94851 0
M  V30 15615 O 730.606 5.88816 -2.00759 0
M  V30 15616 C 729.416 7.92526 -2.10483 0
M  V30 15617 O 729.026 8.03063 -3.47693 0
M  V30 15618 C 728.536 6.89602 -1.41652 0
M  V30 15619 C 729.246 5.59201 -1.75185 0
M  V30 15620 N 729.196 4.58235 -0.662552 0
M  V30 15621 C 729.046 3.24451 -1.01643 0
M  V30 15622 O 728.956 2.94958 -2.21722 0
M  V30 15623 N 728.996 2.30408 0.165238 0
M  V30 15624 C 729.096 2.66048 1.25118 0
M  V30 15625 N 729.046 1.70787 2.16813 0
M  V30 15626 C 729.246 4.02732 1.64413 0
M  V30 15627 C 729.296 4.9488 0.63991 0
M  V30 15628 H 732.036 8.65017 -0.777072 0
M  V30 15629 H 732.306 6.90173 -0.474152 0
M  V30 15630 H 731.439 7.66642 -2.79492 0
M  V30 15631 H 728.784 5.16254 -2.65229 0
M  V30 15632 H 728.504 7.06532 -0.329431 0
M  V30 15633 H 727.513 6.91023 -1.82047 0
M  V30 15634 H 729.347 8.90873 -1.62657 0
M  V30 15635 H 729.419 6.00104 0.892197 0
M  V30 15636 H 729.317 4.31733 2.69229 0
M  V30 15637 H 728.929 0.724835 1.8844 0
M  V30 15638 H 729.125 1.94716 3.16734 0
M  V30 15639 P 727.476 8.03563 -3.84925 0
M  V30 15640 O 727.256 8.85821 -5.0569 0
M  V30 15641 O 726.686 8.41101 -2.65469 0
M  V30 15642 O 727.226 6.4965 -4.18908 0
M  V30 15643 C 728.166 5.81037 -5.05421 0
M  V30 15644 C 727.436 4.78366 -5.89277 0
M  V30 15645 O 727.226 3.58302 -5.08433 0
M  V30 15646 C 726.036 5.17448 -6.36119 0
M  V30 15647 O 725.646 4.45271 -7.53232 0
M  V30 15648 C 725.156 4.74639 -5.19936 0
M  V30 15649 C 725.866 3.49432 -4.70418 0
M  V30 15650 N 725.816 3.31776 -3.22945 0
M  V30 15651 C 725.896 4.27147 -2.23315 0
M  V30 15652 N 725.816 3.78447 -1.02186 0
M  V30 15653 C 725.676 2.41001 -1.21732 0
M  V30 15654 C 725.546 1.36111 -0.27694 0
M  V30 15655 N 725.426 0.113683 -0.912949 0
M  V30 15656 C 725.426 -0.0846396 -2.27943 0
M  V30 15657 N 725.296 -1.34737 -2.6916 0
M  V30 15658 N 725.556 0.902521 -3.16379 0
M  V30 15659 C 725.676 2.11937 -2.56849 0
M  V30 15660 H 728.655 6.54213 -5.71376 0
M  V30 15661 H 728.927 5.30492 -4.44033 0
M  V30 15662 H 728.059 4.55889 -6.76652 0
M  V30 15663 P 724.096 4.23843 -7.83734 0
M  V30 15664 O 723.876 4.19407 -9.29784 0
M  V30 15665 O 723.306 5.24426 -7.09156 0
M  V30 15666 O 723.846 2.7935 -7.20758 0
M  V30 15667 C 724.786 1.72945 -7.50224 0
M  V30 15668 C 724.056 0.406376 -7.57911 0
M  V30 15669 O 723.846 -0.0897726 -6.21935 0
M  V30 15670 C 722.656 0.438983 -8.18724 0
M  V30 15671 O 722.266 -0.825065 -8.71101 0
M  V30 15672 C 721.776 0.783689 -6.99524 0
M  V30 15673 C 722.486 0.0619086 -5.85867 0
M  V30 15674 N 722.436 0.78573 -4.56183 0
M  V30 15675 C 722.286 0.0292889 -3.41887 0
M  V30 15676 O 722.196 -1.18445 -3.4419 0
M  V30 15677 N 722.246 0.744061 -2.23964 0
M  V30 15678 C 722.336 2.10932 -2.10362 0
M  V30 15679 C 722.486 2.8202 -3.34994 0
M  V30 15680 C 722.536 2.15547 -4.52261 0
M  V30 15681 H 725.277 1.93379 -8.46595 0
M  V30 15682 H 725.546 1.68132 -6.70852 0
M  V30 15683 H 724.679 -0.289041 -8.15388 0
M  V30 15684 H 722.024 -0.926847 -5.72749 0
M  V30 15685 H 721.745 1.86973 -6.82036 0
M  V30 15686 H 720.753 0.403896 -7.13257 0
M  V30 15687 H 722.587 1.20585 -8.97435 0
M  V30 15688 H 722.658 2.71231 -5.45042 0
M  V30 15689 P 720.716 -1.17771 -8.83182 0
M  V30 15690 O 720.496 -2.07206 -9.98732 0
M  V30 15691 O 719.926 0.0743816 -8.81969 0
M  V30 15692 O 720.466 -1.97678 -7.474 0
M  V30 15693 C 721.406 -3.01133 -7.08783 0
M  V30 15694 C 720.676 -4.1203 -6.37546 0
M  V30 15695 O 720.466 -3.72887 -4.9796 0
M  V30 15696 C 719.276 -4.45085 -6.88694 0
M  V30 15697 O 718.886 -5.78836 -6.56315 0
M  V30 15698 C 718.396 -3.47817 -6.12078 0
M  V30 15699 C 719.106 -3.39414 -4.77697 0
M  V30 15700 N 719.056 -2.04615 -4.15333 0
M  V30 15701 C 718.906 -1.96929 -2.77162 0
M  V30 15702 O 718.816 -3.02017 -2.12006 0
M  V30 15703 N 718.856 -0.55485 -2.24237 0
M  V30 15704 C 718.956 0.367808 -2.9169 0
M  V30 15705 N 718.906 1.53426 -2.29427 0
M  V30 15706 C 719.106 0.319148 -4.33828 0
M  V30 15707 C 719.156 -0.920672 -4.90433 0
M  V30 15708 H 721.896 -3.41209 -7.98667 0
M  V30 15709 H 722.166 -2.5837 -6.41742 0
M  V30 15710 H 721.299 -5.02718 -6.42752 0
M  V30 15711 H 718.644 -4.11779 -4.09026 0
M  V30 15712 H 718.364 -2.49661 -6.61772 0
M  V30 15713 H 717.373 -3.86674 -6.00946 0
M  V30 15714 H 719.207 -4.29991 -7.97006 0
M  V30 15715 H 719.279 -1.00589 -5.98303 0
M  V30 15716 H 719.177 1.22639 -4.93799 0
M  V30 15717 H 718.789 1.56819 -1.27167 0
M  V30 15718 H 718.985 2.41062 -2.83063 0
M  V30 15719 P 717.336 -6.144 -6.45285 0
M  V30 15720 O 717.116 -7.54673 -6.86199 0
M  V30 15721 O 716.546 -5.12391 -7.179 0
M  V30 15722 O 717.086 -5.99158 -4.88404 0
M  V30 15723 C 718.026 -6.60234 -3.96415 0
M  V30 15724 C 717.296 -7.08259 -2.72856 0
M  V30 15725 O 717.086 -5.9427 -1.83651 0
M  V30 15726 C 715.896 -7.64886 -2.9555 0
M  V30 15727 O 715.506 -8.53963 -1.90717 0
M  V30 15728 C 715.016 -6.4116 -2.90739 0
M  V30 15729 C 715.726 -5.55375 -1.86963 0
M  V30 15730 N 715.676 -4.09448 -2.16152 0
M  V30 15731 H 718.515 -7.45574 -4.45629 0
M  V30 15732 H 718.787 -5.85864 -3.679 0
M  V30 15733 H 717.919 -7.84412 -2.24479 0
M  V30 15734 H 715.264 -5.73457 -0.888562 0
M  V30 15735 H 714.984 -5.90877 -3.88583 0
M  V30 15736 H 713.993 -6.6596 -2.58858 0
M  V30 15737 H 715.827 -8.16339 -3.92049 0
M  V30 15738 P 713.956 -8.7635 -1.60911 0
M  V30 15739 O 713.736 -10.1388 -1.11561 0
M  V30 15740 O 713.166 -8.36503 -2.79617 0
M  V30 15741 O 713.706 -7.71906 -0.429565 0
M  V30 15742 C 714.646 -7.67148 0.673689 0
M  V30 15743 C 713.916 -7.33666 1.94851 0
M  V30 15744 O 713.706 -5.88816 2.00759 0
M  V30 15745 C 712.516 -7.92526 2.10483 0
M  V30 15746 O 712.126 -8.03063 3.47693 0
M  V30 15747 C 711.636 -6.89602 1.41652 0
M  V30 15748 C 712.346 -5.59201 1.75185 0
M  V30 15749 N 712.296 -4.58235 0.662552 0
M  V30 15750 C 712.146 -3.24451 1.01643 0
M  V30 15751 O 712.056 -2.94958 2.21722 0
M  V30 15752 N 712.096 -2.30408 -0.165238 0
M  V30 15753 C 712.196 -2.66048 -1.25118 0
M  V30 15754 N 712.146 -1.70787 -2.16813 0
M  V30 15755 C 712.346 -4.02732 -1.64413 0
M  V30 15756 C 712.396 -4.9488 -0.63991 0
M  V30 15757 H 715.136 -8.65017 0.777072 0
M  V30 15758 H 715.406 -6.90173 0.474152 0
M  V30 15759 H 714.539 -7.66642 2.79492 0
M  V30 15760 H 711.884 -5.16254 2.65229 0
M  V30 15761 H 711.604 -7.06532 0.329431 0
M  V30 15762 H 710.613 -6.91023 1.82047 0
M  V30 15763 H 712.447 -8.90873 1.62657 0
M  V30 15764 H 712.519 -6.00104 -0.892197 0
M  V30 15765 H 712.417 -4.31733 -2.69229 0
M  V30 15766 H 712.029 -0.724835 -1.8844 0
M  V30 15767 H 712.225 -1.94716 -3.16734 0
M  V30 15768 P 710.576 -8.03563 3.84925 0
M  V30 15769 O 710.356 -8.85821 5.0569 0
M  V30 15770 O 709.786 -8.41101 2.65469 0
M  V30 15771 O 710.326 -6.4965 4.18908 0
M  V30 15772 C 711.266 -5.81037 5.05421 0
M  V30 15773 C 710.536 -4.78366 5.89277 0
M  V30 15774 O 710.326 -3.58302 5.08433 0
M  V30 15775 C 709.136 -5.17448 6.36119 0
M  V30 15776 O 708.746 -4.45271 7.53232 0
M  V30 15777 C 708.256 -4.74639 5.19936 0
M  V30 15778 C 708.966 -3.49432 4.70418 0
M  V30 15779 N 708.916 -3.31776 3.22945 0
M  V30 15780 H 711.755 -6.54213 5.71376 0
M  V30 15781 H 712.027 -5.30492 4.44033 0
M  V30 15782 H 711.159 -4.55889 6.76652 0
M  V30 15783 P 707.196 -4.23843 7.83734 0
M  V30 15784 O 706.976 -4.19407 9.29784 0
M  V30 15785 O 706.406 -5.24426 7.09156 0
M  V30 15786 O 706.946 -2.7935 7.20758 0
M  V30 15787 C 707.886 -1.7299 7.50419 0
M  V30 15788 C 707.156 -0.406376 7.57911 0
M  V30 15789 O 706.946 0.0897726 6.21935 0
M  V30 15790 C 705.756 -0.447224 8.1878 0
M  V30 15791 O 705.366 0.825065 8.71101 0
M  V30 15792 C 704.876 -0.783801 6.99623 0
M  V30 15793 C 705.586 -0.0619192 5.85967 0
M  V30 15794 N 705.536 -0.7859 4.56281 0
M  V30 15795 H 708.375 -1.93423 8.4679 0
M  V30 15796 H 708.647 -1.68181 6.71046 0
M  V30 15797 H 707.779 0.289041 8.15388 0
M  V30 15798 P 703.816 1.17771 8.83182 0
M  V30 15799 O 703.596 2.07206 9.98732 0
M  V30 15800 O 703.026 -0.0743816 8.81969 0
M  V30 15801 O 703.566 1.97652 7.47304 0
M  V30 15802 C 704.506 3.01133 7.08783 0
M  V30 15803 C 703.776 4.12613 6.37049 0
M  V30 15804 O 703.566 3.72827 4.97879 0
M  V30 15805 C 702.376 4.45085 6.88694 0
M  V30 15806 O 701.986 5.7877 6.5624 0
M  V30 15807 C 701.496 3.47817 6.12078 0
M  V30 15808 C 702.206 3.39414 4.77697 0
M  V30 15809 N 702.156 2.04199 4.15538 0
M  V30 15810 H 704.995 3.41248 7.98759 0
M  V30 15811 H 705.267 2.57728 6.42 0
M  V30 15812 H 704.399 5.02657 6.42673 0
M  V30 15813 H 701.744 4.11708 4.08956 0
M  V30 15814 H 701.464 2.49626 6.61679 0
M  V30 15815 H 700.473 3.8662 6.00862 0
M  V30 15816 H 702.307 4.29991 7.97006 0
M  V30 15817 P 700.436 6.144 6.45285 0
M  V30 15818 O 700.216 7.54673 6.86199 0
M  V30 15819 O 699.646 5.12391 7.179 0
M  V30 15820 O 700.186 5.99158 4.88404 0
M  V30 15821 C 701.126 6.60234 3.96415 0
M  V30 15822 C 700.396 7.08259 2.72856 0
M  V30 15823 O 700.186 5.9427 1.83651 0
M  V30 15824 C 698.996 7.64886 2.9555 0
M  V30 15825 O 698.606 8.53963 1.90717 0
M  V30 15826 C 698.116 6.4116 2.90739 0
M  V30 15827 C 698.826 5.55375 1.86963 0
M  V30 15828 N 698.776 4.09664 2.15742 0
M  V30 15829 H 701.615 7.45574 4.45629 0
M  V30 15830 H 701.887 5.86232 3.67314 0
M  V30 15831 H 701.019 7.84412 2.24479 0
M  V30 15832 P 697.056 8.7635 1.60911 0
M  V30 15833 O 696.836 10.1388 1.11561 0
M  V30 15834 O 696.266 8.36503 2.79617 0
M  V30 15835 O 696.806 7.71806 0.42951 0
M  V30 15836 C 697.746 7.67148 -0.673689 0
M  V30 15837 C 697.016 7.33374 -1.95559 0
M  V30 15838 O 696.806 5.88721 -2.00726 0
M  V30 15839 C 695.616 7.92526 -2.10483 0
M  V30 15840 O 695.226 8.02971 -3.47653 0
M  V30 15841 C 694.736 6.89602 -1.41652 0
M  V30 15842 C 695.446 5.59201 -1.75185 0
M  V30 15843 N 695.396 4.58235 -0.662552 0
M  V30 15844 H 698.235 8.65116 -0.777161 0
M  V30 15845 H 698.507 6.90173 -0.474152 0
M  V30 15846 H 697.639 7.66548 -2.79458 0
M  V30 15847 P 693.676 8.03563 -3.84925 0
M  V30 15848 O 693.456 8.85821 -5.0569 0
M  V30 15849 O 692.886 8.41101 -2.65469 0
M  V30 15850 O 693.426 6.4965 -4.18908 0
M  V30 15851 C 694.366 5.81037 -5.05421 0
M  V30 15852 C 693.636 4.78366 -5.89277 0
M  V30 15853 O 693.426 3.58302 -5.08433 0
M  V30 15854 C 692.236 5.17448 -6.36119 0
M  V30 15855 O 691.846 4.45271 -7.53232 0
M  V30 15856 C 691.356 4.74639 -5.19936 0
M  V30 15857 C 692.066 3.49432 -4.70418 0
M  V30 15858 N 692.016 3.31776 -3.22945 0
M  V30 15859 H 694.855 6.54213 -5.71376 0
M  V30 15860 H 695.127 5.30492 -4.44033 0
M  V30 15861 H 694.259 4.55889 -6.76652 0
M  V30 15862 P 690.296 4.23843 -7.83734 0
M  V30 15863 O 690.076 4.19407 -9.29784 0
M  V30 15864 O 689.506 5.24426 -7.09156 0
M  V30 15865 O 690.046 2.7935 -7.20758 0
M  V30 15866 C 690.986 1.7299 -7.50419 0
M  V30 15867 C 690.256 0.406376 -7.57911 0
M  V30 15868 O 690.046 -0.0897726 -6.21935 0
M  V30 15869 C 688.856 0.447224 -8.1878 0
M  V30 15870 O 688.466 -0.825065 -8.71101 0
M  V30 15871 C 687.976 0.783801 -6.99623 0
M  V30 15872 C 688.686 0.0619192 -5.85967 0
M  V30 15873 N 688.636 0.7859 -4.56281 0
M  V30 15874 H 691.475 1.93423 -8.4679 0
M  V30 15875 H 691.747 1.68181 -6.71046 0
M  V30 15876 H 690.879 -0.289041 -8.15388 0
M  V30 15877 P 686.916 -1.17771 -8.83182 0
M  V30 15878 O 686.696 -2.07206 -9.98732 0
M  V30 15879 O 686.126 0.0743816 -8.81969 0
M  V30 15880 O 686.666 -1.97652 -7.47304 0
M  V30 15881 C 687.606 -3.01133 -7.08783 0
M  V30 15882 C 686.876 -4.12613 -6.37049 0
M  V30 15883 O 686.666 -3.72827 -4.97879 0
M  V30 15884 C 685.476 -4.45085 -6.88694 0
M  V30 15885 O 685.086 -5.7877 -6.5624 0
M  V30 15886 C 684.596 -3.47817 -6.12078 0
M  V30 15887 C 685.306 -3.39414 -4.77697 0
M  V30 15888 N 685.256 -2.04615 -4.15333 0
M  V30 15889 H 688.095 -3.41248 -7.98759 0
M  V30 15890 H 688.367 -2.5837 -6.41742 0
M  V30 15891 H 687.499 -5.02657 -6.42673 0
M  V30 15892 P 683.536 -6.144 -6.45285 0
M  V30 15893 O 683.316 -7.54673 -6.86199 0
M  V30 15894 O 682.746 -5.12391 -7.179 0
M  V30 15895 O 683.286 -5.99158 -4.88404 0
M  V30 15896 C 684.226 -6.60234 -3.96415 0
M  V30 15897 C 683.496 -7.08259 -2.72856 0
M  V30 15898 O 683.286 -5.9427 -1.83651 0
M  V30 15899 C 682.096 -7.64886 -2.9555 0
M  V30 15900 O 681.706 -8.53963 -1.90717 0
M  V30 15901 C 681.216 -6.4116 -2.90739 0
M  V30 15902 C 681.926 -5.55375 -1.86963 0
M  V30 15903 N 681.876 -4.09448 -2.16152 0
M  V30 15904 H 684.715 -7.45574 -4.45629 0
M  V30 15905 H 684.987 -5.85864 -3.679 0
M  V30 15906 H 684.119 -7.84412 -2.24479 0
M  V30 15907 H 681.464 -5.73457 -0.888562 0
M  V30 15908 H 681.184 -5.90877 -3.88583 0
M  V30 15909 H 680.193 -6.6596 -2.58858 0
M  V30 15910 H 682.027 -8.16339 -3.92049 0
M  V30 15911 P 680.156 -8.7635 -1.60911 0
M  V30 15912 O 679.936 -10.1388 -1.11561 0
M  V30 15913 O 679.366 -8.36503 -2.79617 0
M  V30 15914 O 679.906 -7.71806 -0.42951 0
M  V30 15915 C 680.846 -7.66948 0.673514 0
M  V30 15916 C 680.116 -7.33374 1.95559 0
M  V30 15917 O 679.906 -5.88721 2.00726 0
M  V30 15918 C 678.716 -7.92218 2.1125 0
M  V30 15919 O 678.326 -8.02971 3.47653 0
M  V30 15920 C 677.836 -6.89504 1.41631 0
M  V30 15921 C 678.546 -5.59106 1.75155 0
M  V30 15922 N 678.496 -4.58136 0.662409 0
M  V30 15923 C 678.346 -3.26059 1.02863 0
M  V30 15924 O 678.256 -2.90743 2.19009 0
M  V30 15925 N 678.306 -2.35995 -0.0155585 0
M  V30 15926 C 678.396 -2.65248 -1.35603 0
M  V30 15927 O 678.346 -1.75605 -2.20651 0
M  V30 15928 C 678.546 -4.05747 -1.64698 0
M  V30 15929 C 678.656 -4.42345 -3.09553 0
M  V30 15930 C 678.596 -4.96734 -0.652411 0
M  V30 15931 H 681.337 -8.64917 0.776982 0
M  V30 15932 H 681.606 -6.89974 0.474015 0
M  V30 15933 H 680.739 -7.66548 2.79458 0
M  V30 15934 H 678.084 -5.16076 2.65138 0
M  V30 15935 H 677.805 -7.06433 0.329384 0
M  V30 15936 H 676.813 -6.90829 1.81996 0
M  V30 15937 H 678.647 -8.90774 1.62639 0
M  V30 15938 H 678.718 -6.02181 -0.895285 0
M  V30 15939 H 677.688 -4.80252 -3.45468 0
M  V30 15940 H 679.425 -5.20015 -3.22119 0
M  V30 15941 H 678.937 -3.53269 -3.67833 0
M  V30 15942 H 678.201 -1.39558 0.227499 0
M  V30 15943 P 676.776 -8.03563 3.84925 0
M  V30 15944 O 676.556 -8.85821 5.0569 0
M  V30 15945 O 675.986 -8.41101 2.65469 0
M  V30 15946 O 676.526 -6.4965 4.18908 0
M  V30 15947 C 677.466 -5.81037 5.05421 0
M  V30 15948 C 676.736 -4.78366 5.89277 0
M  V30 15949 O 676.526 -3.58302 5.08433 0
M  V30 15950 C 675.336 -5.17448 6.36119 0
M  V30 15951 O 674.946 -4.45271 7.53232 0
M  V30 15952 C 674.456 -4.74639 5.19936 0
M  V30 15953 C 675.166 -3.49432 4.70418 0
M  V30 15954 N 675.116 -3.31776 3.22945 0
M  V30 15955 H 677.955 -6.54213 5.71376 0
M  V30 15956 H 678.227 -5.30492 4.44033 0
M  V30 15957 H 677.359 -4.55889 6.76652 0
M  V30 15958 P 673.396 -4.23843 7.83734 0
M  V30 15959 O 673.176 -4.19407 9.29784 0
M  V30 15960 O 672.606 -5.24426 7.09156 0
M  V30 15961 O 673.146 -2.7935 7.20758 0
M  V30 15962 C 674.086 -1.7299 7.50419 0
M  V30 15963 C 673.356 -0.406376 7.57911 0
M  V30 15964 O 673.146 0.0897726 6.21935 0
M  V30 15965 C 671.956 -0.447224 8.1878 0
M  V30 15966 O 671.566 0.825065 8.71101 0
M  V30 15967 C 671.076 -0.783801 6.99623 0
M  V30 15968 C 671.786 -0.0619192 5.85967 0
M  V30 15969 N 671.736 -0.790462 4.56202 0
M  V30 15970 C 671.816 -2.13895 4.34171 0
M  V30 15971 N 671.746 -2.46449 3.08687 0
M  V30 15972 C 671.596 -1.2525 2.43697 0
M  V30 15973 C 671.466 -0.914535 1.07318 0
M  V30 15974 N 671.456 -1.80782 0.0887348 0
M  V30 15975 N 671.346 0.386745 0.768133 0
M  V30 15976 C 671.356 1.28096 1.75159 0
M  V30 15977 N 671.476 1.09708 3.04861 0
M  V30 15978 C 671.596 -0.214857 3.32306 0
M  V30 15979 H 674.575 -1.93423 8.4679 0
M  V30 15980 H 674.847 -1.68852 6.70877 0
M  V30 15981 H 673.979 0.289041 8.15388 0
M  V30 15982 H 671.324 0.927006 5.72848 0
M  V30 15983 H 671.044 -1.86973 6.82036 0
M  V30 15984 H 670.053 -0.403953 7.13357 0
M  V30 15985 H 671.887 -1.20599 8.97534 0
M  V30 15986 H 671.928 -2.86846 5.14318 0
M  V30 15987 H 671.547 -2.81082 0.302037 0
M  V30 15988 H 671.358 -1.49688 -0.889064 0
M  V30 15989 H 671.25 2.31317 1.43855 0
M  V30 15990 P 670.016 1.17771 8.83182 0
M  V30 15991 O 669.796 2.07206 9.98732 0
M  V30 15992 O 669.226 -0.0743816 8.81969 0
M  V30 15993 O 669.766 1.97652 7.47304 0
M  V30 15994 C 670.706 3.01055 7.08599 0
M  V30 15995 C 669.976 4.12613 6.37049 0
M  V30 15996 O 669.766 3.72827 4.97879 0
M  V30 15997 C 668.576 4.45719 6.88164 0
M  V30 15998 O 668.186 5.7877 6.5624 0
M  V30 15999 C 667.696 3.47768 6.11991 0
M  V30 16000 C 668.406 3.39356 4.77615 0
M  V30 16001 N 668.356 2.04571 4.15244 0
M  V30 16002 C 668.206 1.98587 2.78314 0
M  V30 16003 O 668.116 2.98134 2.08835 0
M  V30 16004 N 668.166 0.714467 2.24925 0
M  V30 16005 C 668.256 -0.470001 2.94169 0
M  V30 16006 C 668.406 -0.312541 4.36783 0
M  V30 16007 C 668.456 0.914512 4.92583 0
M  V30 16008 H 671.197 3.41169 7.98575 0
M  V30 16009 H 671.466 2.58295 6.41556 0
M  V30 16010 H 670.599 5.02657 6.42673 0
M  V30 16011 H 667.944 4.11637 4.08885 0
M  V30 16012 H 667.665 2.49626 6.61679 0
M  V30 16013 H 666.673 3.86566 6.00778 0
M  V30 16014 H 668.507 4.29943 7.96918 0
M  V30 16015 H 668.578 1.00937 6.00374 0
M  V30 16016 P 666.636 6.144 6.45285 0
M  V30 16017 O 666.416 7.54673 6.86199 0
M  V30 16018 O 665.846 5.12391 7.179 0
M  V30 16019 O 666.386 5.99158 4.88404 0
M  V30 16020 C 667.326 6.60234 3.96415 0
M  V30 16021 C 666.596 7.08259 2.72856 0
M  V30 16022 O 666.386 5.9427 1.83651 0
M  V30 16023 C 665.196 7.64886 2.9555 0
M  V30 16024 O 664.806 8.53963 1.90717 0
M  V30 16025 C 664.316 6.4116 2.90739 0
M  V30 16026 C 665.026 5.55375 1.86963 0
M  V30 16027 N 664.976 4.09664 2.15742 0
M  V30 16028 H 667.815 7.45574 4.45629 0
M  V30 16029 H 668.087 5.86232 3.67314 0
M  V30 16030 H 667.219 7.84412 2.24479 0
M  V30 16031 P 663.256 8.7635 1.60911 0
M  V30 16032 O 663.036 10.1388 1.11561 0
M  V30 16033 O 662.466 8.36503 2.79617 0
M  V30 16034 O 663.006 7.71806 0.42951 0
M  V30 16035 C 663.946 7.67148 -0.673689 0
M  V30 16036 C 663.216 7.33374 -1.95559 0
M  V30 16037 O 663.006 5.88721 -2.00726 0
M  V30 16038 C 661.816 7.92526 -2.10483 0
M  V30 16039 O 661.426 8.02971 -3.47653 0
M  V30 16040 C 660.936 6.89602 -1.41652 0
M  V30 16041 C 661.646 5.59201 -1.75185 0
M  V30 16042 N 661.596 4.58235 -0.662552 0
M  V30 16043 H 664.435 8.65116 -0.777161 0
M  V30 16044 H 664.707 6.90173 -0.474152 0
M  V30 16045 H 663.839 7.66548 -2.79458 0
M  V30 16046 P 659.876 8.03563 -3.84925 0
M  V30 16047 O 659.656 8.85821 -5.0569 0
M  V30 16048 O 659.086 8.41101 -2.65469 0
M  V30 16049 O 659.626 6.4965 -4.18908 0
M  V30 16050 C 660.566 5.81037 -5.05421 0
M  V30 16051 C 659.836 4.78366 -5.89277 0
M  V30 16052 O 659.626 3.58302 -5.08433 0
M  V30 16053 C 658.436 5.17448 -6.36119 0
M  V30 16054 O 658.046 4.45271 -7.53232 0
M  V30 16055 C 657.556 4.74639 -5.19936 0
M  V30 16056 C 658.266 3.49432 -4.70418 0
M  V30 16057 N 658.216 3.31776 -3.22945 0
M  V30 16058 H 661.055 6.54213 -5.71376 0
M  V30 16059 H 661.327 5.30492 -4.44033 0
M  V30 16060 H 660.459 4.55889 -6.76652 0
M  V30 16061 P 656.496 4.23843 -7.83734 0
M  V30 16062 O 656.276 4.19407 -9.29784 0
M  V30 16063 O 655.706 5.24426 -7.09156 0
M  V30 16064 O 656.246 2.7935 -7.20758 0
M  V30 16065 C 657.186 1.7299 -7.50419 0
M  V30 16066 C 656.456 0.406376 -7.57911 0
M  V30 16067 O 656.246 -0.0897726 -6.21935 0
M  V30 16068 C 655.056 0.447224 -8.1878 0
M  V30 16069 O 654.666 -0.825065 -8.71101 0
M  V30 16070 C 654.176 0.783801 -6.99623 0
M  V30 16071 C 654.886 0.0619192 -5.85967 0
M  V30 16072 N 654.836 0.7859 -4.56281 0
M  V30 16073 H 657.675 1.93423 -8.4679 0
M  V30 16074 H 657.947 1.68181 -6.71046 0
M  V30 16075 H 657.079 -0.289041 -8.15388 0
M  V30 16076 P 653.116 -1.17771 -8.83182 0
M  V30 16077 O 652.896 -2.07206 -9.98732 0
M  V30 16078 O 652.326 0.0743816 -8.81969 0
M  V30 16079 O 652.866 -1.97652 -7.47304 0
M  V30 16080 C 653.806 -3.01133 -7.08783 0
M  V30 16081 C 653.076 -4.12613 -6.37049 0
M  V30 16082 O 652.866 -3.72827 -4.97879 0
M  V30 16083 C 651.676 -4.45085 -6.88694 0
M  V30 16084 O 651.286 -5.7877 -6.5624 0
M  V30 16085 C 650.796 -3.47817 -6.12078 0
M  V30 16086 C 651.506 -3.39414 -4.77697 0
M  V30 16087 N 651.456 -2.04615 -4.15333 0
M  V30 16088 H 654.295 -3.41248 -7.98759 0
M  V30 16089 H 654.567 -2.5837 -6.41742 0
M  V30 16090 H 653.699 -5.02657 -6.42673 0
M  V30 16091 P 649.736 -6.144 -6.45285 0
M  V30 16092 O 649.516 -7.54673 -6.86199 0
M  V30 16093 O 648.946 -5.12391 -7.179 0
M  V30 16094 O 649.486 -5.99158 -4.88404 0
M  V30 16095 C 650.426 -6.60234 -3.96415 0
M  V30 16096 C 649.696 -7.08259 -2.72856 0
M  V30 16097 O 649.486 -5.9427 -1.83651 0
M  V30 16098 C 648.296 -7.64886 -2.9555 0
M  V30 16099 O 647.906 -8.53963 -1.90717 0
M  V30 16100 C 647.416 -6.4116 -2.90739 0
M  V30 16101 C 648.126 -5.55375 -1.86963 0
M  V30 16102 N 648.076 -4.09664 -2.15742 0
M  V30 16103 H 650.915 -7.45574 -4.45629 0
M  V30 16104 H 651.187 -5.86232 -3.67314 0
M  V30 16105 H 650.319 -7.84412 -2.24479 0
M  V30 16106 P 646.356 -8.7635 -1.60911 0
M  V30 16107 O 646.136 -10.1388 -1.11561 0
M  V30 16108 O 645.566 -8.36503 -2.79617 0
M  V30 16109 O 646.106 -7.71906 -0.429565 0
M  V30 16110 C 647.046 -7.67148 0.673689 0
M  V30 16111 C 646.316 -7.33666 1.94851 0
M  V30 16112 O 646.106 -5.88816 2.00759 0
M  V30 16113 C 644.916 -7.92526 2.10483 0
M  V30 16114 O 644.526 -8.03063 3.47693 0
M  V30 16115 C 644.036 -6.89602 1.41652 0
M  V30 16116 C 644.746 -5.59201 1.75185 0
M  V30 16117 N 644.696 -4.58235 0.662552 0
M  V30 16118 C 644.546 -3.24451 1.01643 0
M  V30 16119 O 644.456 -2.94958 2.21722 0
M  V30 16120 N 644.496 -2.30408 -0.165238 0
M  V30 16121 C 644.596 -2.66048 -1.25118 0
M  V30 16122 N 644.546 -1.70787 -2.16813 0
M  V30 16123 C 644.746 -4.02732 -1.64413 0
M  V30 16124 C 644.796 -4.9488 -0.63991 0
M  V30 16125 H 647.536 -8.65017 0.777072 0
M  V30 16126 H 647.806 -6.90173 0.474152 0
M  V30 16127 H 646.939 -7.66642 2.79492 0
M  V30 16128 H 644.284 -5.16254 2.65229 0
M  V30 16129 H 644.004 -7.06532 0.329431 0
M  V30 16130 H 643.013 -6.91023 1.82047 0
M  V30 16131 H 644.847 -8.90873 1.62657 0
M  V30 16132 H 644.919 -6.00104 -0.892197 0
M  V30 16133 H 644.817 -4.31733 -2.69229 0
M  V30 16134 H 644.429 -0.724835 -1.8844 0
M  V30 16135 H 644.625 -1.94716 -3.16734 0
M  V30 16136 P 642.976 -8.03563 3.84925 0
M  V30 16137 O 642.756 -8.85821 5.0569 0
M  V30 16138 O 642.186 -8.41101 2.65469 0
M  V30 16139 O 642.726 -6.4965 4.18908 0
M  V30 16140 C 643.666 -5.81037 5.05421 0
M  V30 16141 C 642.936 -4.78366 5.89277 0
M  V30 16142 O 642.726 -3.58302 5.08433 0
M  V30 16143 C 641.536 -5.17448 6.36119 0
M  V30 16144 O 641.146 -4.45271 7.53232 0
M  V30 16145 C 640.656 -4.74639 5.19936 0
M  V30 16146 C 641.366 -3.49432 4.70418 0
M  V30 16147 N 641.316 -3.32099 3.22613 0
M  V30 16148 H 644.155 -6.54213 5.71376 0
M  V30 16149 H 644.427 -5.30936 4.43503 0
M  V30 16150 H 643.559 -4.55889 6.76652 0
M  V30 16151 H 640.904 -2.61715 5.17932 0
M  V30 16152 H 640.624 -5.52155 4.41878 0
M  V30 16153 H 639.633 -4.51981 5.53374 0
M  V30 16154 H 641.467 -6.25124 6.55234 0
M  V30 16155 P 639.596 -4.23843 7.83734 0
M  V30 16156 O 639.376 -4.19407 9.29784 0
M  V30 16157 O 638.806 -5.24426 7.09156 0
M  V30 16158 O 639.346 -2.79386 7.20852 0
M  V30 16159 C 640.286 -1.7299 7.50419 0
M  V30 16160 C 639.556 -0.41401 7.5797 0
M  V30 16161 O 639.346 0.089787 6.22035 0
M  V30 16162 C 638.156 -0.447224 8.1878 0
M  V30 16163 O 637.766 0.825159 8.71201 0
M  V30 16164 C 637.276 -0.783801 6.99623 0
M  V30 16165 C 637.986 -0.0619192 5.85967 0
M  V30 16166 N 637.936 -0.7859 4.56281 0
M  V30 16167 C 637.786 -0.0359258 3.39981 0
M  V30 16168 O 637.696 1.19723 3.49038 0
M  V30 16169 N 637.736 -0.869151 2.14025 0
M  V30 16170 C 637.836 -2.01207 2.14363 0
M  V30 16171 N 637.786 -2.58978 0.954287 0
M  V30 16172 C 637.986 -2.80817 3.32215 0
M  V30 16173 C 638.036 -2.13785 4.50884 0
M  V30 16174 H 640.776 -1.93401 8.46693 0
M  V30 16175 H 641.046 -1.68181 6.71046 0
M  V30 16176 H 640.179 0.289076 8.15488 0
M  V30 16177 H 637.524 0.927166 5.72947 0
M  V30 16178 H 637.244 -1.87 6.82132 0
M  V30 16179 H 636.253 -0.404009 7.13457 0
M  V30 16180 H 638.087 -1.20599 8.97534 0
M  V30 16181 H 638.159 -2.70295 5.43162 0
M  V30 16182 H 638.057 -3.89465 3.27406 0
M  V30 16183 H 637.669 -2.01616 0.107046 0
M  V30 16184 H 637.865 -3.61403 0.873101 0
M  V30 16185 P 636.216 1.17771 8.83182 0
M  V30 16186 O 635.996 2.07206 9.98732 0
M  V30 16187 O 635.426 -0.0743816 8.81969 0
M  V30 16188 O 635.966 1.97652 7.47304 0
M  V30 16189 C 636.906 3.01133 7.08783 0
M  V30 16190 C 636.176 4.12613 6.37049 0
M  V30 16191 O 635.966 3.72827 4.97879 0
M  V30 16192 C 634.776 4.45085 6.88694 0
M  V30 16193 O 634.386 5.7877 6.5624 0
M  V30 16194 C 633.896 3.47817 6.12078 0
M  V30 16195 C 634.606 3.39414 4.77697 0
M  V30 16196 N 634.556 2.04199 4.15538 0
M  V30 16197 H 637.395 3.41248 7.98759 0
M  V30 16198 H 637.667 2.57728 6.42 0
M  V30 16199 H 636.799 5.02657 6.42673 0
M  V30 16200 H 634.144 4.11708 4.08956 0
M  V30 16201 H 633.864 2.49626 6.61679 0
M  V30 16202 H 632.873 3.8662 6.00862 0
M  V30 16203 H 634.707 4.29991 7.97006 0
M  V30 16204 P 632.836 6.144 6.45285 0
M  V30 16205 O 632.616 7.54673 6.86199 0
M  V30 16206 O 632.046 5.12391 7.179 0
M  V30 16207 O 632.586 5.99236 4.88467 0
M  V30 16208 C 633.526 6.60234 3.96415 0
M  V30 16209 C 632.796 7.08079 2.736 0
M  V30 16210 O 632.586 5.94365 1.8368 0
M  V30 16211 C 631.396 7.64886 2.9555 0
M  V30 16212 O 631.006 8.5406 1.90739 0
M  V30 16213 C 630.516 6.4116 2.90739 0
M  V30 16214 C 631.226 5.55375 1.86963 0
M  V30 16215 N 631.176 4.09664 2.15742 0
M  V30 16216 C 631.026 3.22231 1.08477 0
M  V30 16217 O 630.936 3.68951 -0.0600489 0
M  V30 16218 N 630.976 1.76692 1.48799 0
M  V30 16219 C 631.076 1.41695 2.57602 0
M  V30 16220 N 631.026 0.107296 2.75791 0
M  V30 16221 C 631.226 2.29178 3.69733 0
M  V30 16222 C 631.276 3.62753 3.42653 0
M  V30 16223 H 634.016 7.45488 4.45578 0
M  V30 16224 H 634.286 5.86232 3.67314 0
M  V30 16225 H 633.419 7.84508 2.24507 0
M  V30 16226 H 630.764 5.73556 0.888715 0
M  V30 16227 H 630.484 5.9096 3.88638 0
M  V30 16228 H 629.493 6.66053 2.58894 0
M  V30 16229 H 631.327 8.16339 3.92049 0
M  V30 16230 H 631.399 4.33052 4.24913 0
M  V30 16231 H 631.297 1.9103 4.71577 0
M  V30 16232 H 630.909 -0.521221 1.95056 0
M  V30 16233 H 631.105 -0.286429 3.70695 0
M  V30 16234 P 629.456 8.7635 1.60911 0
M  V30 16235 O 629.236 10.1388 1.11561 0
M  V30 16236 O 628.666 8.36503 2.79617 0
M  V30 16237 O 629.206 7.71806 0.42951 0
M  V30 16238 C 630.146 7.67148 -0.673689 0
M  V30 16239 C 629.416 7.33374 -1.95559 0
M  V30 16240 O 629.206 5.88721 -2.00726 0
M  V30 16241 C 628.016 7.92526 -2.10483 0
M  V30 16242 O 627.626 8.02971 -3.47653 0
M  V30 16243 C 627.136 6.89602 -1.41652 0
M  V30 16244 C 627.846 5.59201 -1.75185 0
M  V30 16245 N 627.796 4.58301 -0.657969 0
M  V30 16246 H 630.635 8.65116 -0.777161 0
M  V30 16247 H 630.907 6.9022 -0.46725 0
M  V30 16248 H 630.039 7.66548 -2.79458 0
M  V30 16249 H 627.384 5.16165 -2.65183 0
M  V30 16250 H 627.104 7.06433 -0.329384 0
M  V30 16251 H 626.113 6.90926 -1.82021 0
M  V30 16252 H 627.947 8.90873 -1.62657 0
M  V30 16253 P 626.076 8.03563 -3.84925 0
M  V30 16254 O 625.856 8.85821 -5.0569 0
M  V30 16255 O 625.286 8.41101 -2.65469 0
M  V30 16256 O 625.826 6.4965 -4.18908 0
M  V30 16257 C 626.766 5.81037 -5.05421 0
M  V30 16258 C 626.036 4.78366 -5.89277 0
M  V30 16259 O 625.826 3.58302 -5.08433 0
M  V30 16260 C 624.636 5.17448 -6.36119 0
M  V30 16261 O 624.246 4.45271 -7.53232 0
M  V30 16262 C 623.756 4.74639 -5.19936 0
M  V30 16263 C 624.466 3.49432 -4.70418 0
M  V30 16264 N 624.416 3.32099 -3.22613 0
M  V30 16265 H 627.255 6.54213 -5.71376 0
M  V30 16266 H 627.527 5.30936 -4.43503 0
M  V30 16267 H 626.659 4.55889 -6.76652 0
M  V30 16268 H 624.004 2.61715 -5.17932 0
M  V30 16269 H 623.724 5.52155 -4.41878 0
M  V30 16270 H 622.733 4.51981 -5.53374 0
M  V30 16271 H 624.567 6.25124 -6.55234 0
M  V30 16272 P 622.696 4.23843 -7.83734 0
M  V30 16273 O 622.476 4.19407 -9.29784 0
M  V30 16274 O 621.906 5.24426 -7.09156 0
M  V30 16275 O 622.446 2.7935 -7.20758 0
M  V30 16276 C 623.386 1.7299 -7.50419 0
M  V30 16277 C 622.656 0.406376 -7.57911 0
M  V30 16278 O 622.446 -0.0897726 -6.21935 0
M  V30 16279 C 621.256 0.447224 -8.1878 0
M  V30 16280 O 620.866 -0.825065 -8.71101 0
M  V30 16281 C 620.376 0.783801 -6.99623 0
M  V30 16282 C 621.086 0.0619192 -5.85967 0
M  V30 16283 N 621.036 0.7859 -4.56281 0
M  V30 16284 H 623.875 1.93423 -8.4679 0
M  V30 16285 H 624.147 1.68181 -6.71046 0
M  V30 16286 H 623.279 -0.289041 -8.15388 0
M  V30 16287 P 619.316 -1.17771 -8.83182 0
M  V30 16288 O 619.096 -2.07206 -9.98732 0
M  V30 16289 O 618.526 0.0743816 -8.81969 0
M  V30 16290 O 619.066 -1.97652 -7.47304 0
M  V30 16291 C 620.006 -3.01133 -7.08783 0
M  V30 16292 C 619.276 -4.12613 -6.37049 0
M  V30 16293 O 619.066 -3.72827 -4.97879 0
M  V30 16294 C 617.876 -4.45085 -6.88694 0
M  V30 16295 O 617.486 -5.7877 -6.5624 0
M  V30 16296 C 616.996 -3.47817 -6.12078 0
M  V30 16297 C 617.706 -3.39414 -4.77697 0
M  V30 16298 N 617.656 -2.04199 -4.15538 0
M  V30 16299 H 620.495 -3.41248 -7.98759 0
M  V30 16300 H 620.767 -2.57728 -6.42 0
M  V30 16301 H 619.899 -5.02657 -6.42673 0
M  V30 16302 H 617.244 -4.11708 -4.08956 0
M  V30 16303 H 616.964 -2.49626 -6.61679 0
M  V30 16304 H 615.973 -3.8662 -6.00862 0
M  V30 16305 H 617.807 -4.29991 -7.97006 0
M  V30 16306 P 615.936 -6.144 -6.45285 0
M  V30 16307 O 615.716 -7.54673 -6.86199 0
M  V30 16308 O 615.146 -5.12391 -7.179 0
M  V30 16309 O 615.686 -5.99158 -4.88404 0
M  V30 16310 C 616.626 -6.60234 -3.96415 0
M  V30 16311 C 615.896 -7.08259 -2.72856 0
M  V30 16312 O 615.686 -5.9427 -1.83651 0
M  V30 16313 C 614.496 -7.64886 -2.9555 0
M  V30 16314 O 614.106 -8.53963 -1.90717 0
M  V30 16315 C 613.616 -6.4116 -2.90739 0
M  V30 16316 C 614.326 -5.55375 -1.86963 0
M  V30 16317 N 614.276 -4.09664 -2.15742 0
M  V30 16318 H 617.115 -7.45574 -4.45629 0
M  V30 16319 H 617.387 -5.86232 -3.67314 0
M  V30 16320 H 616.519 -7.84412 -2.24479 0
M  V30 16321 P 612.556 -8.7635 -1.60911 0
M  V30 16322 O 612.336 -10.1388 -1.11561 0
M  V30 16323 O 611.766 -8.36503 -2.79617 0
M  V30 16324 O 612.306 -7.71806 -0.42951 0
M  V30 16325 C 613.246 -7.67148 0.673689 0
M  V30 16326 C 612.516 -7.33374 1.95559 0
M  V30 16327 O 612.306 -5.88721 2.00726 0
M  V30 16328 C 611.116 -7.92526 2.10483 0
M  V30 16329 O 610.726 -8.02971 3.47653 0
M  V30 16330 C 610.236 -6.89602 1.41652 0
M  V30 16331 C 610.946 -5.59201 1.75185 0
M  V30 16332 N 610.896 -4.58235 0.662552 0
M  V30 16333 H 613.735 -8.65116 0.777161 0
M  V30 16334 H 614.007 -6.90173 0.474152 0
M  V30 16335 H 613.139 -7.66548 2.79458 0
M  V30 16336 P 609.176 -8.03563 3.84925 0
M  V30 16337 O 608.956 -8.85821 5.0569 0
M  V30 16338 O 608.386 -8.41101 2.65469 0
M  V30 16339 O 608.926 -6.4965 4.18908 0
M  V30 16340 C 609.866 -5.81037 5.05421 0
M  V30 16341 C 609.136 -4.78366 5.89277 0
M  V30 16342 O 608.926 -3.58302 5.08433 0
M  V30 16343 C 607.736 -5.17448 6.36119 0
M  V30 16344 O 607.346 -4.45271 7.53232 0
M  V30 16345 C 606.856 -4.74639 5.19936 0
M  V30 16346 C 607.566 -3.49432 4.70418 0
M  V30 16347 N 607.516 -3.31776 3.22945 0
M  V30 16348 H 610.355 -6.54213 5.71376 0
M  V30 16349 H 610.627 -5.30492 4.44033 0
M  V30 16350 H 609.759 -4.55889 6.76652 0
M  V30 16351 P 605.796 -4.23843 7.83734 0
M  V30 16352 O 605.576 -4.19407 9.29784 0
M  V30 16353 O 605.006 -5.24426 7.09156 0
M  V30 16354 O 605.546 -2.7935 7.20758 0
M  V30 16355 C 606.486 -1.7299 7.50419 0
M  V30 16356 C 605.756 -0.406376 7.57911 0
M  V30 16357 O 605.546 0.0897726 6.21935 0
M  V30 16358 C 604.356 -0.447224 8.1878 0
M  V30 16359 O 603.966 0.825065 8.71101 0
M  V30 16360 C 603.476 -0.783801 6.99623 0
M  V30 16361 C 604.186 -0.0619192 5.85967 0
M  V30 16362 N 604.136 -0.7859 4.56281 0
M  V30 16363 H 606.975 -1.93423 8.4679 0
M  V30 16364 H 607.247 -1.68181 6.71046 0
M  V30 16365 H 606.379 0.289041 8.15388 0
M  V30 16366 P 602.416 1.17771 8.83182 0
M  V30 16367 O 602.196 2.07206 9.98732 0
M  V30 16368 O 601.626 -0.0743816 8.81969 0
M  V30 16369 O 602.166 1.97652 7.47304 0
M  V30 16370 C 603.106 3.01133 7.08783 0
M  V30 16371 C 602.376 4.12613 6.37049 0
M  V30 16372 O 602.166 3.72827 4.97879 0
M  V30 16373 C 600.976 4.45085 6.88694 0
M  V30 16374 O 600.586 5.7877 6.5624 0
M  V30 16375 C 600.096 3.47817 6.12078 0
M  V30 16376 C 600.806 3.39414 4.77697 0
M  V30 16377 N 600.756 2.04199 4.15538 0
M  V30 16378 H 603.595 3.41248 7.98759 0
M  V30 16379 H 603.867 2.57728 6.42 0
M  V30 16380 H 602.999 5.02657 6.42673 0
M  V30 16381 H 600.344 4.11708 4.08956 0
M  V30 16382 H 600.064 2.49626 6.61679 0
M  V30 16383 H 599.073 3.8662 6.00862 0
M  V30 16384 H 600.907 4.29991 7.97006 0
M  V30 16385 P 599.036 6.144 6.45285 0
M  V30 16386 O 598.816 7.54673 6.86199 0
M  V30 16387 O 598.246 5.12391 7.179 0
M  V30 16388 O 598.786 5.99158 4.88404 0
M  V30 16389 C 599.726 6.60062 3.96313 0
M  V30 16390 C 598.996 7.08259 2.72856 0
M  V30 16391 O 598.786 5.9427 1.83651 0
M  V30 16392 C 597.596 7.65087 2.94749 0
M  V30 16393 O 597.206 8.53963 1.90717 0
M  V30 16394 C 596.716 6.41069 2.90698 0
M  V30 16395 C 597.426 5.5528 1.86931 0
M  V30 16396 N 597.376 4.09575 2.15696 0
M  V30 16397 C 597.226 3.24249 1.08435 0
M  V30 16398 O 597.136 3.63946 -0.0628747 0
M  V30 16399 N 597.186 1.90009 1.39973 0
M  V30 16400 C 597.276 1.34884 2.65614 0
M  V30 16401 C 597.426 2.3145 3.71736 0
M  V30 16402 C 597.476 3.63518 3.44754 0
M  V30 16403 H 600.217 7.45402 4.45526 0
M  V30 16404 H 600.486 5.86062 3.67208 0
M  V30 16405 H 599.619 7.84412 2.24479 0
M  V30 16406 H 596.964 5.73358 0.888409 0
M  V30 16407 H 596.685 5.90877 3.88583 0
M  V30 16408 H 595.693 6.65867 2.58821 0
M  V30 16409 H 597.527 8.16248 3.92006 0
M  V30 16410 H 597.598 4.34551 4.26383 0
M  V30 16411 P 595.656 8.7635 1.60911 0
M  V30 16412 O 595.437 10.1388 1.11561 0
M  V30 16413 O 594.866 8.36503 2.79617 0
M  V30 16414 O 595.406 7.71806 0.42951 0
M  V30 16415 C 596.346 7.67148 -0.673689 0
M  V30 16416 C 595.616 7.33374 -1.95559 0
M  V30 16417 O 595.406 5.88721 -2.00726 0
M  V30 16418 C 594.216 7.92526 -2.10483 0
M  V30 16419 O 593.827 8.02971 -3.47653 0
M  V30 16420 C 593.337 6.89602 -1.41652 0
M  V30 16421 C 594.046 5.59201 -1.75185 0
M  V30 16422 N 593.996 4.58235 -0.662552 0
M  V30 16423 H 596.836 8.65116 -0.777161 0
M  V30 16424 H 597.107 6.90173 -0.474152 0
M  V30 16425 H 596.24 7.66548 -2.79458 0
M  V30 16426 P 592.277 8.03563 -3.84925 0
M  V30 16427 O 592.057 8.85821 -5.0569 0
M  V30 16428 O 591.487 8.41101 -2.65469 0
M  V30 16429 O 592.027 6.4965 -4.18908 0
M  V30 16430 C 592.967 5.81037 -5.05421 0
M  V30 16431 C 592.237 4.78366 -5.89277 0
M  V30 16432 O 592.027 3.58302 -5.08433 0
M  V30 16433 C 590.837 5.17448 -6.36119 0
M  V30 16434 O 590.447 4.45271 -7.53232 0
M  V30 16435 C 589.957 4.74639 -5.19936 0
M  V30 16436 C 590.667 3.49432 -4.70418 0
M  V30 16437 N 590.617 3.32099 -3.22613 0
M  V30 16438 H 593.456 6.54213 -5.71376 0
M  V30 16439 H 593.728 5.30936 -4.43503 0
M  V30 16440 H 592.86 4.55889 -6.76652 0
M  V30 16441 H 590.205 2.61715 -5.17932 0
M  V30 16442 H 589.925 5.52155 -4.41878 0
M  V30 16443 H 588.934 4.51981 -5.53374 0
M  V30 16444 H 590.768 6.25124 -6.55234 0
M  V30 16445 P 588.897 4.23843 -7.83734 0
M  V30 16446 O 588.677 4.19407 -9.29784 0
M  V30 16447 O 588.107 5.24426 -7.09156 0
M  V30 16448 O 588.647 2.7935 -7.20758 0
M  V30 16449 C 589.587 1.7299 -7.50419 0
M  V30 16450 C 588.857 0.406376 -7.57911 0
M  V30 16451 O 588.647 -0.0897726 -6.21935 0
M  V30 16452 C 587.457 0.447224 -8.1878 0
M  V30 16453 O 587.067 -0.825065 -8.71101 0
M  V30 16454 C 586.577 0.783801 -6.99623 0
M  V30 16455 C 587.287 0.0619192 -5.85967 0
M  V30 16456 N 587.237 0.7859 -4.56281 0
M  V30 16457 H 590.076 1.93423 -8.4679 0
M  V30 16458 H 590.348 1.68181 -6.71046 0
M  V30 16459 H 589.48 -0.289041 -8.15388 0
M  V30 16460 P 585.517 -1.17771 -8.83182 0
M  V30 16461 O 585.297 -2.07206 -9.98732 0
M  V30 16462 O 584.727 0.0743816 -8.81969 0
M  V30 16463 O 585.267 -1.97678 -7.474 0
M  V30 16464 C 586.207 -3.01133 -7.08783 0
M  V30 16465 C 585.477 -4.1203 -6.37546 0
M  V30 16466 O 585.267 -3.72887 -4.9796 0
M  V30 16467 C 584.077 -4.45085 -6.88694 0
M  V30 16468 O 583.687 -5.78836 -6.56315 0
M  V30 16469 C 583.197 -3.47817 -6.12078 0
M  V30 16470 C 583.907 -3.39414 -4.77697 0
M  V30 16471 N 583.857 -2.04615 -4.15333 0
M  V30 16472 C 583.707 -1.96929 -2.77162 0
M  V30 16473 O 583.617 -3.02017 -2.12006 0
M  V30 16474 N 583.657 -0.55485 -2.24237 0
M  V30 16475 C 583.757 0.367808 -2.9169 0
M  V30 16476 N 583.707 1.53426 -2.29427 0
M  V30 16477 C 583.907 0.319148 -4.33828 0
M  V30 16478 C 583.957 -0.920672 -4.90433 0
M  V30 16479 H 586.697 -3.41209 -7.98667 0
M  V30 16480 H 586.967 -2.5837 -6.41742 0
M  V30 16481 H 586.1 -5.02718 -6.42752 0
M  V30 16482 H 583.445 -4.11779 -4.09026 0
M  V30 16483 H 583.165 -2.49661 -6.61772 0
M  V30 16484 H 582.174 -3.86674 -6.00946 0
M  V30 16485 H 584.008 -4.29991 -7.97006 0
M  V30 16486 H 584.08 -1.00589 -5.98303 0
M  V30 16487 H 583.978 1.22639 -4.93799 0
M  V30 16488 H 583.59 1.56819 -1.27167 0
M  V30 16489 H 583.786 2.41062 -2.83063 0
M  V30 16490 P 582.137 -6.144 -6.45285 0
M  V30 16491 O 581.917 -7.54673 -6.86199 0
M  V30 16492 O 581.347 -5.12391 -7.179 0
M  V30 16493 O 581.887 -5.99158 -4.88404 0
M  V30 16494 C 582.827 -6.60234 -3.96415 0
M  V30 16495 C 582.097 -7.08259 -2.72856 0
M  V30 16496 O 581.887 -5.9427 -1.83651 0
M  V30 16497 C 580.697 -7.64886 -2.9555 0
M  V30 16498 O 580.307 -8.53963 -1.90717 0
M  V30 16499 C 579.817 -6.4116 -2.90739 0
M  V30 16500 C 580.527 -5.55375 -1.86963 0
M  V30 16501 N 580.477 -4.09664 -2.15742 0
M  V30 16502 H 583.316 -7.45574 -4.45629 0
M  V30 16503 H 583.588 -5.86232 -3.67314 0
M  V30 16504 H 582.72 -7.84412 -2.24479 0
M  V30 16505 P 578.757 -8.7635 -1.60911 0
M  V30 16506 O 578.537 -10.1388 -1.11561 0
M  V30 16507 O 577.967 -8.36503 -2.79617 0
M  V30 16508 O 578.507 -7.71806 -0.42951 0
M  V30 16509 C 579.447 -7.67148 0.673689 0
M  V30 16510 C 578.717 -7.33374 1.95559 0
M  V30 16511 O 578.507 -5.88721 2.00726 0
M  V30 16512 C 577.317 -7.92526 2.10483 0
M  V30 16513 O 576.927 -8.02971 3.47653 0
M  V30 16514 C 576.437 -6.89602 1.41652 0
M  V30 16515 C 577.147 -5.59201 1.75185 0
M  V30 16516 N 577.097 -4.58235 0.662552 0
M  V30 16517 H 579.936 -8.65116 0.777161 0
M  V30 16518 H 580.208 -6.90173 0.474152 0
M  V30 16519 H 579.34 -7.66548 2.79458 0
M  V30 16520 P 575.377 -8.03563 3.84925 0
M  V30 16521 O 575.157 -8.85821 5.0569 0
M  V30 16522 O 574.587 -8.41101 2.65469 0
M  V30 16523 O 575.127 -6.4965 4.18908 0
M  V30 16524 C 576.067 -5.81037 5.05421 0
M  V30 16525 C 575.337 -4.78366 5.89277 0
M  V30 16526 O 575.127 -3.58302 5.08433 0
M  V30 16527 C 573.937 -5.17448 6.36119 0
M  V30 16528 O 573.547 -4.45271 7.53232 0
M  V30 16529 C 573.057 -4.74639 5.19936 0
M  V30 16530 C 573.767 -3.49432 4.70418 0
M  V30 16531 N 573.717 -3.31776 3.22945 0
M  V30 16532 H 576.556 -6.54213 5.71376 0
M  V30 16533 H 576.828 -5.30492 4.44033 0
M  V30 16534 H 575.96 -4.55889 6.76652 0
M  V30 16535 P 571.997 -4.23843 7.83734 0
M  V30 16536 O 571.777 -4.19407 9.29784 0
M  V30 16537 O 571.207 -5.24426 7.09156 0
M  V30 16538 O 571.747 -2.7935 7.20758 0
M  V30 16539 C 572.687 -1.7299 7.50419 0
M  V30 16540 C 571.957 -0.406376 7.57911 0
M  V30 16541 O 571.747 0.0897726 6.21935 0
M  V30 16542 C 570.557 -0.447224 8.1878 0
M  V30 16543 O 570.167 0.825065 8.71101 0
M  V30 16544 C 569.677 -0.783801 6.99623 0
M  V30 16545 C 570.387 -0.0619192 5.85967 0
M  V30 16546 N 570.337 -0.7859 4.56281 0
M  V30 16547 C 570.417 -2.14308 4.31736 0
M  V30 16548 N 570.337 -2.46106 3.05116 0
M  V30 16549 C 570.197 -1.23422 2.4014 0
M  V30 16550 C 570.067 -0.938381 1.02409 0
M  V30 16551 N 569.947 0.444647 0.805413 0
M  V30 16552 C 569.947 1.40829 1.79435 0
M  V30 16553 N 569.817 2.67213 1.38558 0
M  V30 16554 N 570.077 1.12947 3.09005 0
M  V30 16555 C 570.197 -0.204887 3.32369 0
M  V30 16556 H 573.176 -1.93423 8.4679 0
M  V30 16557 H 573.448 -1.68181 6.71046 0
M  V30 16558 H 572.58 0.289041 8.15388 0
M  V30 16559 P 568.617 1.17771 8.83182 0
M  V30 16560 O 568.397 2.07206 9.98732 0
M  V30 16561 O 567.827 -0.0743816 8.81969 0
M  V30 16562 O 568.367 1.97652 7.47304 0
M  V30 16563 C 569.307 3.01133 7.08783 0
M  V30 16564 C 568.577 4.12613 6.37049 0
M  V30 16565 O 568.367 3.72827 4.97879 0
M  V30 16566 C 567.177 4.45085 6.88694 0
M  V30 16567 O 566.787 5.7877 6.5624 0
M  V30 16568 C 566.297 3.47817 6.12078 0
M  V30 16569 C 567.007 3.39414 4.77697 0
M  V30 16570 N 566.957 2.04199 4.15538 0
M  V30 16571 C 567.037 0.821545 4.76977 0
M  V30 16572 N 566.967 -0.1794 3.94592 0
M  V30 16573 C 566.817 0.419121 2.70776 0
M  V30 16574 C 566.687 -0.109072 1.40577 0
M  V30 16575 N 566.677 -1.4104 1.1344 0
M  V30 16576 N 566.567 0.764381 0.39411 0
M  V30 16577 C 566.577 2.06587 0.664135 0
M  V30 16578 N 566.697 2.67948 1.82153 0
M  V30 16579 C 566.817 1.77942 2.8147 0
M  V30 16580 H 569.796 3.41248 7.98759 0
M  V30 16581 H 570.068 2.57728 6.42 0
M  V30 16582 H 569.2 5.02657 6.42673 0
M  V30 16583 H 566.545 4.11708 4.08956 0
M  V30 16584 H 566.265 2.49626 6.61679 0
M  V30 16585 H 565.274 3.8662 6.00862 0
M  V30 16586 H 567.108 4.29991 7.97006 0
M  V30 16587 H 567.149 0.702451 5.84696 0
M  V30 16588 H 566.768 -2.09647 1.89651 0
M  V30 16589 H 566.579 -1.73358 0.160575 0
M  V30 16590 H 566.471 2.71695 -0.195838 0
M  V30 16591 P 565.237 6.144 6.45285 0
M  V30 16592 O 565.017 7.54673 6.86199 0
M  V30 16593 O 564.447 5.12391 7.179 0
M  V30 16594 O 564.987 5.99158 4.88404 0
M  V30 16595 C 565.927 6.60234 3.96415 0
M  V30 16596 C 565.197 7.08259 2.72856 0
M  V30 16597 O 564.987 5.9427 1.83651 0
M  V30 16598 C 563.797 7.64886 2.9555 0
M  V30 16599 O 563.407 8.53963 1.90717 0
M  V30 16600 C 562.917 6.4116 2.90739 0
M  V30 16601 C 563.627 5.55375 1.86963 0
M  V30 16602 N 563.577 4.09664 2.15742 0
M  V30 16603 H 566.416 7.45574 4.45629 0
M  V30 16604 H 566.688 5.86232 3.67314 0
M  V30 16605 H 565.82 7.84412 2.24479 0
M  V30 16606 P 561.857 8.7635 1.60911 0
M  V30 16607 O 561.637 10.1388 1.11561 0
M  V30 16608 O 561.067 8.36503 2.79617 0
M  V30 16609 O 561.607 7.71806 0.42951 0
M  V30 16610 C 562.547 7.67148 -0.673689 0
M  V30 16611 C 561.817 7.33374 -1.95559 0
M  V30 16612 O 561.607 5.88721 -2.00726 0
M  V30 16613 C 560.417 7.92526 -2.10483 0
M  V30 16614 O 560.027 8.02971 -3.47653 0
M  V30 16615 C 559.537 6.89602 -1.41652 0
M  V30 16616 C 560.247 5.59201 -1.75185 0
M  V30 16617 N 560.197 4.58301 -0.657969 0
M  V30 16618 H 563.036 8.65116 -0.777161 0
M  V30 16619 H 563.308 6.9022 -0.46725 0
M  V30 16620 H 562.44 7.66548 -2.79458 0
M  V30 16621 H 559.785 5.16165 -2.65183 0
M  V30 16622 H 559.505 7.06433 -0.329384 0
M  V30 16623 H 558.514 6.90926 -1.82021 0
M  V30 16624 H 560.348 8.90873 -1.62657 0
M  V30 16625 P 558.477 8.03563 -3.84925 0
M  V30 16626 O 558.257 8.85821 -5.0569 0
M  V30 16627 O 557.687 8.41101 -2.65469 0
M  V30 16628 O 558.227 6.4965 -4.18908 0
M  V30 16629 C 559.167 5.81037 -5.05421 0
M  V30 16630 C 558.437 4.78366 -5.89277 0
M  V30 16631 O 558.227 3.58302 -5.08433 0
M  V30 16632 C 557.037 5.17448 -6.36119 0
M  V30 16633 O 556.647 4.45271 -7.53232 0
M  V30 16634 C 556.157 4.74639 -5.19936 0
M  V30 16635 C 556.867 3.49432 -4.70418 0
M  V30 16636 N 556.817 3.31776 -3.22945 0
M  V30 16637 H 559.656 6.54213 -5.71376 0
M  V30 16638 H 559.928 5.30492 -4.44033 0
M  V30 16639 H 559.06 4.55889 -6.76652 0
M  V30 16640 P 555.097 4.23843 -7.83734 0
M  V30 16641 O 554.877 4.19407 -9.29784 0
M  V30 16642 O 554.307 5.24426 -7.09156 0
M  V30 16643 O 554.847 2.7935 -7.20758 0
M  V30 16644 C 555.787 1.7299 -7.50419 0
M  V30 16645 C 555.057 0.406376 -7.57911 0
M  V30 16646 O 554.847 -0.0897726 -6.21935 0
M  V30 16647 C 553.657 0.447224 -8.1878 0
M  V30 16648 O 553.267 -0.825065 -8.71101 0
M  V30 16649 C 552.777 0.783801 -6.99623 0
M  V30 16650 C 553.487 0.0619192 -5.85967 0
M  V30 16651 N 553.437 0.7859 -4.56281 0
M  V30 16652 H 556.276 1.93423 -8.4679 0
M  V30 16653 H 556.548 1.68181 -6.71046 0
M  V30 16654 H 555.68 -0.289041 -8.15388 0
M  V30 16655 P 551.717 -1.17771 -8.83182 0
M  V30 16656 O 551.497 -2.07206 -9.98732 0
M  V30 16657 O 550.927 0.0743816 -8.81969 0
M  V30 16658 O 551.467 -1.97652 -7.47304 0
M  V30 16659 C 552.407 -3.01133 -7.08783 0
M  V30 16660 C 551.677 -4.12613 -6.37049 0
M  V30 16661 O 551.467 -3.72827 -4.97879 0
M  V30 16662 C 550.277 -4.45085 -6.88694 0
M  V30 16663 O 549.887 -5.7877 -6.5624 0
M  V30 16664 C 549.397 -3.47817 -6.12078 0
M  V30 16665 C 550.107 -3.39414 -4.77697 0
M  V30 16666 N 550.057 -2.04615 -4.15333 0
M  V30 16667 H 552.896 -3.41248 -7.98759 0
M  V30 16668 H 553.168 -2.5837 -6.41742 0
M  V30 16669 H 552.3 -5.02657 -6.42673 0
M  V30 16670 P 548.337 -6.144 -6.45285 0
M  V30 16671 O 548.117 -7.54673 -6.86199 0
M  V30 16672 O 547.547 -5.12391 -7.179 0
M  V30 16673 O 548.087 -5.99236 -4.88467 0
M  V30 16674 C 549.027 -6.60234 -3.96415 0
M  V30 16675 C 548.297 -7.08079 -2.736 0
M  V30 16676 O 548.087 -5.94365 -1.8368 0
M  V30 16677 C 546.897 -7.64886 -2.9555 0
M  V30 16678 O 546.507 -8.5406 -1.90739 0
M  V30 16679 C 546.017 -6.4116 -2.90739 0
M  V30 16680 C 546.727 -5.55375 -1.86963 0
M  V30 16681 N 546.677 -4.09664 -2.15742 0
M  V30 16682 C 546.527 -3.22231 -1.08477 0
M  V30 16683 O 546.437 -3.68951 0.0600489 0
M  V30 16684 N 546.477 -1.76692 -1.48799 0
M  V30 16685 C 546.577 -1.41695 -2.57602 0
M  V30 16686 N 546.527 -0.107296 -2.75791 0
M  V30 16687 C 546.727 -2.29178 -3.69733 0
M  V30 16688 C 546.777 -3.62753 -3.42653 0
M  V30 16689 H 549.517 -7.45488 -4.45578 0
M  V30 16690 H 549.787 -5.86232 -3.67314 0
M  V30 16691 H 548.92 -7.84508 -2.24507 0
M  V30 16692 H 546.265 -5.73556 -0.888715 0
M  V30 16693 H 545.985 -5.9096 -3.88638 0
M  V30 16694 H 544.994 -6.66053 -2.58894 0
M  V30 16695 H 546.828 -8.16339 -3.92049 0
M  V30 16696 H 546.9 -4.33052 -4.24913 0
M  V30 16697 H 546.798 -1.9103 -4.71577 0
M  V30 16698 H 546.41 0.521221 -1.95056 0
M  V30 16699 H 546.606 0.286429 -3.70695 0
M  V30 16700 P 544.957 -8.7635 -1.60911 0
M  V30 16701 O 544.737 -10.1388 -1.11561 0
M  V30 16702 O 544.167 -8.36503 -2.79617 0
M  V30 16703 O 544.707 -7.71806 -0.42951 0
M  V30 16704 C 545.647 -7.67148 0.673689 0
M  V30 16705 C 544.917 -7.33374 1.95559 0
M  V30 16706 O 544.707 -5.88721 2.00726 0
M  V30 16707 C 543.517 -7.92526 2.10483 0
M  V30 16708 O 543.127 -8.02971 3.47653 0
M  V30 16709 C 542.637 -6.89602 1.41652 0
M  V30 16710 C 543.347 -5.59201 1.75185 0
M  V30 16711 N 543.297 -4.58235 0.662552 0
M  V30 16712 H 546.136 -8.65116 0.777161 0
M  V30 16713 H 546.408 -6.90173 0.474152 0
M  V30 16714 H 545.54 -7.66548 2.79458 0
M  V30 16715 P 541.577 -8.03563 3.84925 0
M  V30 16716 O 541.357 -8.85821 5.0569 0
M  V30 16717 O 540.787 -8.41101 2.65469 0
M  V30 16718 O 541.327 -6.4965 4.18908 0
M  V30 16719 C 542.267 -5.81037 5.05421 0
M  V30 16720 C 541.537 -4.78366 5.89277 0
M  V30 16721 O 541.327 -3.58302 5.08433 0
M  V30 16722 C 540.137 -5.17448 6.36119 0
M  V30 16723 O 539.747 -4.45271 7.53232 0
M  V30 16724 C 539.257 -4.74639 5.19936 0
M  V30 16725 C 539.967 -3.49432 4.70418 0
M  V30 16726 N 539.917 -3.32099 3.22613 0
M  V30 16727 H 542.756 -6.54213 5.71376 0
M  V30 16728 H 543.028 -5.30936 4.43503 0
M  V30 16729 H 542.16 -4.55889 6.76652 0
M  V30 16730 H 539.505 -2.61715 5.17932 0
M  V30 16731 H 539.225 -5.52155 4.41878 0
M  V30 16732 H 538.234 -4.51981 5.53374 0
M  V30 16733 H 540.068 -6.25124 6.55234 0
M  V30 16734 P 538.197 -4.23843 7.83734 0
M  V30 16735 O 537.977 -4.19407 9.29784 0
M  V30 16736 O 537.407 -5.24426 7.09156 0
M  V30 16737 O 537.947 -2.7935 7.20758 0
M  V30 16738 C 538.887 -1.7299 7.50419 0
M  V30 16739 C 538.157 -0.406376 7.57911 0
M  V30 16740 O 537.947 0.0897726 6.21935 0
M  V30 16741 C 536.757 -0.447224 8.1878 0
M  V30 16742 O 536.367 0.825065 8.71101 0
M  V30 16743 C 535.877 -0.783801 6.99623 0
M  V30 16744 C 536.587 -0.0619192 5.85967 0
M  V30 16745 N 536.537 -0.7859 4.56281 0
M  V30 16746 C 536.617 -2.14308 4.31736 0
M  V30 16747 N 536.537 -2.46106 3.05116 0
M  V30 16748 C 536.397 -1.23422 2.4014 0
M  V30 16749 C 536.267 -0.938381 1.02409 0
M  V30 16750 N 536.147 0.444647 0.805413 0
M  V30 16751 C 536.147 1.40829 1.79435 0
M  V30 16752 N 536.017 2.67213 1.38558 0
M  V30 16753 N 536.277 1.12947 3.09005 0
M  V30 16754 C 536.397 -0.204887 3.32369 0
M  V30 16755 H 539.376 -1.93423 8.4679 0
M  V30 16756 H 539.648 -1.68181 6.71046 0
M  V30 16757 H 538.78 0.289041 8.15388 0
M  V30 16758 P 534.817 1.17771 8.83182 0
M  V30 16759 O 534.597 2.07206 9.98732 0
M  V30 16760 O 534.027 -0.0743816 8.81969 0
M  V30 16761 O 534.567 1.97652 7.47304 0
M  V30 16762 C 535.507 3.01055 7.08599 0
M  V30 16763 C 534.777 4.12613 6.37049 0
M  V30 16764 O 534.567 3.72827 4.97879 0
M  V30 16765 C 533.377 4.45719 6.88164 0
M  V30 16766 O 532.987 5.7877 6.5624 0
M  V30 16767 C 532.497 3.47768 6.11991 0
M  V30 16768 C 533.207 3.39356 4.77615 0
M  V30 16769 N 533.157 2.04571 4.15244 0
M  V30 16770 C 533.007 1.98587 2.78314 0
M  V30 16771 O 532.917 2.98134 2.08835 0
M  V30 16772 N 532.967 0.714467 2.24925 0
M  V30 16773 C 533.057 -0.470001 2.94169 0
M  V30 16774 C 533.207 -0.312541 4.36783 0
M  V30 16775 C 533.257 0.914512 4.92583 0
M  V30 16776 H 535.998 3.41169 7.98575 0
M  V30 16777 H 536.267 2.58295 6.41556 0
M  V30 16778 H 535.4 5.02657 6.42673 0
M  V30 16779 H 532.745 4.11637 4.08885 0
M  V30 16780 H 532.466 2.49626 6.61679 0
M  V30 16781 H 531.474 3.86566 6.00778 0
M  V30 16782 H 533.308 4.29943 7.96918 0
M  V30 16783 H 533.379 1.00937 6.00374 0
M  V30 16784 P 531.437 6.144 6.45285 0
M  V30 16785 O 531.217 7.54673 6.86199 0
M  V30 16786 O 530.647 5.12391 7.179 0
M  V30 16787 O 531.187 5.99158 4.88404 0
M  V30 16788 C 532.127 6.60234 3.96415 0
M  V30 16789 C 531.397 7.08259 2.72856 0
M  V30 16790 O 531.187 5.9427 1.83651 0
M  V30 16791 C 529.997 7.64886 2.9555 0
M  V30 16792 O 529.607 8.53963 1.90717 0
M  V30 16793 C 529.117 6.4116 2.90739 0
M  V30 16794 C 529.827 5.55375 1.86963 0
M  V30 16795 N 529.777 4.09664 2.15742 0
M  V30 16796 H 532.616 7.45574 4.45629 0
M  V30 16797 H 532.888 5.86232 3.67314 0
M  V30 16798 H 532.02 7.84412 2.24479 0
M  V30 16799 P 528.057 8.7635 1.60911 0
M  V30 16800 O 527.837 10.1388 1.11561 0
M  V30 16801 O 527.267 8.36503 2.79617 0
M  V30 16802 O 527.807 7.71806 0.42951 0
M  V30 16803 C 528.747 7.66948 -0.673514 0
M  V30 16804 C 528.017 7.33374 -1.95559 0
M  V30 16805 O 527.807 5.88721 -2.00726 0
M  V30 16806 C 526.617 7.92218 -2.1125 0
M  V30 16807 O 526.227 8.02971 -3.47653 0
M  V30 16808 C 525.737 6.89504 -1.41631 0
M  V30 16809 C 526.447 5.59106 -1.75155 0
M  V30 16810 N 526.397 4.58136 -0.662409 0
M  V30 16811 C 526.247 3.26059 -1.02863 0
M  V30 16812 O 526.157 2.90743 -2.19009 0
M  V30 16813 N 526.207 2.35995 0.0155585 0
M  V30 16814 C 526.297 2.65248 1.35603 0
M  V30 16815 C 526.447 4.05747 1.64698 0
M  V30 16816 C 526.497 4.96734 0.652411 0
M  V30 16817 H 529.238 8.64917 -0.776982 0
M  V30 16818 H 529.507 6.89974 -0.474015 0
M  V30 16819 H 528.64 7.66548 -2.79458 0
M  V30 16820 H 525.985 5.16076 -2.65138 0
M  V30 16821 H 525.706 7.06433 -0.329384 0
M  V30 16822 H 524.714 6.90829 -1.81996 0
M  V30 16823 H 526.548 8.90774 -1.62639 0
M  V30 16824 H 526.619 6.02181 0.895285 0
M  V30 16825 P 524.677 8.03563 -3.84925 0
M  V30 16826 O 524.457 8.85821 -5.0569 0
M  V30 16827 O 523.887 8.41101 -2.65469 0
M  V30 16828 O 524.427 6.4965 -4.18908 0
M  V30 16829 C 525.367 5.81037 -5.05421 0
M  V30 16830 C 524.637 4.78366 -5.89277 0
M  V30 16831 O 524.427 3.58302 -5.08433 0
M  V30 16832 C 523.237 5.17448 -6.36119 0
M  V30 16833 O 522.847 4.45271 -7.53232 0
M  V30 16834 C 522.357 4.74639 -5.19936 0
M  V30 16835 C 523.067 3.49432 -4.70418 0
M  V30 16836 N 523.017 3.32099 -3.22613 0
M  V30 16837 C 523.097 4.28245 -2.25527 0
M  V30 16838 N 523.027 3.80823 -1.04874 0
M  V30 16839 C 522.877 2.44571 -1.23535 0
M  V30 16840 C 522.747 1.37068 -0.330675 0
M  V30 16841 N 522.737 1.51472 0.990824 0
M  V30 16842 N 522.627 0.138614 -0.848756 0
M  V30 16843 C 522.637 -0.00675923 -2.16999 0
M  V30 16844 N 522.757 0.904372 -3.11122 0
M  V30 16845 C 522.877 2.12707 -2.56212 0
M  V30 16846 H 525.856 6.54213 -5.71376 0
M  V30 16847 H 526.128 5.30936 -4.43503 0
M  V30 16848 H 525.26 4.55889 -6.76652 0
M  V30 16849 H 522.605 2.61715 -5.17932 0
M  V30 16850 H 522.325 5.52155 -4.41878 0
M  V30 16851 H 521.334 4.51981 -5.53374 0
M  V30 16852 H 523.168 6.25124 -6.55234 0
M  V30 16853 H 523.209 5.34372 -2.47488 0
M  V30 16854 H 522.828 2.45153 1.4078 0
M  V30 16855 H 522.639 0.688422 1.59911 0
M  V30 16856 H 522.531 -1.02584 -2.52346 0
M  V30 16857 P 521.297 4.23843 -7.83734 0
M  V30 16858 O 521.077 4.19407 -9.29784 0
M  V30 16859 O 520.507 5.24426 -7.09156 0
M  V30 16860 O 521.047 2.7935 -7.20758 0
M  V30 16861 C 521.987 1.7299 -7.50419 0
M  V30 16862 C 521.257 0.406376 -7.57911 0
M  V30 16863 O 521.047 -0.0897726 -6.21935 0
M  V30 16864 C 519.857 0.447224 -8.1878 0
M  V30 16865 O 519.467 -0.825065 -8.71101 0
M  V30 16866 C 518.977 0.783801 -6.99623 0
M  V30 16867 C 519.687 0.0619192 -5.85967 0
M  V30 16868 N 519.637 0.7859 -4.56281 0
M  V30 16869 H 522.476 1.93423 -8.4679 0
M  V30 16870 H 522.748 1.68181 -6.71046 0
M  V30 16871 H 521.88 -0.289041 -8.15388 0
M  V30 16872 P 517.917 -1.17771 -8.83182 0
M  V30 16873 O 517.697 -2.07206 -9.98732 0
M  V30 16874 O 517.127 0.0743816 -8.81969 0
M  V30 16875 O 517.667 -1.97652 -7.47304 0
M  V30 16876 C 518.607 -3.01133 -7.08783 0
M  V30 16877 C 517.877 -4.12613 -6.37049 0
M  V30 16878 O 517.667 -3.72827 -4.97879 0
M  V30 16879 C 516.477 -4.45085 -6.88694 0
M  V30 16880 O 516.087 -5.7877 -6.5624 0
M  V30 16881 C 515.597 -3.47817 -6.12078 0
M  V30 16882 C 516.307 -3.39414 -4.77697 0
M  V30 16883 N 516.257 -2.04615 -4.15333 0
M  V30 16884 H 519.096 -3.41248 -7.98759 0
M  V30 16885 H 519.368 -2.5837 -6.41742 0
M  V30 16886 H 518.5 -5.02657 -6.42673 0
M  V30 16887 P 514.537 -6.144 -6.45285 0
M  V30 16888 O 514.317 -7.54673 -6.86199 0
M  V30 16889 O 513.747 -5.12391 -7.179 0
M  V30 16890 O 514.287 -5.99158 -4.88404 0
M  V30 16891 C 515.227 -6.60062 -3.96313 0
M  V30 16892 C 514.497 -7.08259 -2.72856 0
M  V30 16893 O 514.287 -5.9427 -1.83651 0
M  V30 16894 C 513.097 -7.65087 -2.94749 0
M  V30 16895 O 512.707 -8.53963 -1.90717 0
M  V30 16896 C 512.217 -6.41069 -2.90698 0
M  V30 16897 C 512.927 -5.5528 -1.86931 0
M  V30 16898 N 512.877 -4.09575 -2.15696 0
M  V30 16899 C 512.727 -3.24249 -1.08435 0
M  V30 16900 O 512.637 -3.63946 0.0628747 0
M  V30 16901 N 512.687 -1.90009 -1.39973 0
M  V30 16902 C 512.777 -1.34884 -2.65614 0
M  V30 16903 C 512.927 -2.3145 -3.71736 0
M  V30 16904 C 512.977 -3.63518 -3.44754 0
M  V30 16905 H 515.718 -7.45402 -4.45526 0
M  V30 16906 H 515.987 -5.86062 -3.67208 0
M  V30 16907 H 515.12 -7.84412 -2.24479 0
M  V30 16908 H 512.465 -5.73358 -0.888409 0
M  V30 16909 H 512.186 -5.90877 -3.88583 0
M  V30 16910 H 511.194 -6.65867 -2.58821 0
M  V30 16911 H 513.028 -8.16248 -3.92006 0
M  V30 16912 H 513.099 -4.34551 -4.26383 0
M  V30 16913 P 511.157 -8.7635 -1.60911 0
M  V30 16914 O 510.937 -10.1388 -1.11561 0
M  V30 16915 O 510.367 -8.36503 -2.79617 0
M  V30 16916 O 510.907 -7.71806 -0.42951 0
M  V30 16917 C 511.847 -7.67148 0.673689 0
M  V30 16918 C 511.117 -7.33374 1.95559 0
M  V30 16919 O 510.907 -5.88721 2.00726 0
M  V30 16920 C 509.717 -7.92526 2.10483 0
M  V30 16921 O 509.327 -8.02971 3.47653 0
M  V30 16922 C 508.837 -6.89602 1.41652 0
M  V30 16923 C 509.547 -5.59201 1.75185 0
M  V30 16924 N 509.497 -4.58301 0.657969 0
M  V30 16925 H 512.336 -8.65116 0.777161 0
M  V30 16926 H 512.608 -6.9022 0.46725 0
M  V30 16927 H 511.74 -7.66548 2.79458 0
M  V30 16928 H 509.085 -5.16165 2.65183 0
M  V30 16929 H 508.805 -7.06433 0.329384 0
M  V30 16930 H 507.814 -6.90926 1.82021 0
M  V30 16931 H 509.648 -8.90873 1.62657 0
M  V30 16932 P 507.777 -8.03563 3.84925 0
M  V30 16933 O 507.557 -8.85821 5.0569 0
M  V30 16934 O 506.987 -8.41101 2.65469 0
M  V30 16935 O 507.527 -6.4965 4.18908 0
M  V30 16936 C 508.467 -5.81037 5.05421 0
M  V30 16937 C 507.737 -4.78366 5.89277 0
M  V30 16938 O 507.527 -3.58302 5.08433 0
M  V30 16939 C 506.337 -5.17448 6.36119 0
M  V30 16940 O 505.947 -4.45271 7.53232 0
M  V30 16941 C 505.457 -4.74639 5.19936 0
M  V30 16942 C 506.167 -3.49432 4.70418 0
M  V30 16943 N 506.117 -3.31776 3.22945 0
M  V30 16944 C 506.197 -4.27147 2.23315 0
M  V30 16945 N 506.117 -3.78447 1.02186 0
M  V30 16946 C 505.977 -2.41001 1.21732 0
M  V30 16947 C 505.847 -1.36111 0.27694 0
M  V30 16948 N 505.727 -0.113683 0.912949 0
M  V30 16949 C 505.727 0.0846396 2.27943 0
M  V30 16950 N 505.597 1.34737 2.6916 0
M  V30 16951 N 505.857 -0.902521 3.16379 0
M  V30 16952 C 505.977 -2.11937 2.56849 0
M  V30 16953 H 508.956 -6.54213 5.71376 0
M  V30 16954 H 509.228 -5.30492 4.44033 0
M  V30 16955 H 508.36 -4.55889 6.76652 0
M  V30 16956 P 504.397 -4.23843 7.83734 0
M  V30 16957 O 504.177 -4.19407 9.29784 0
M  V30 16958 O 503.607 -5.24426 7.09156 0
M  V30 16959 O 504.147 -2.7935 7.20758 0
M  V30 16960 C 505.087 -1.72945 7.50224 0
M  V30 16961 C 504.357 -0.406376 7.57911 0
M  V30 16962 O 504.147 0.0897726 6.21935 0
M  V30 16963 C 502.957 -0.438983 8.18724 0
M  V30 16964 O 502.567 0.825065 8.71101 0
M  V30 16965 C 502.077 -0.783689 6.99524 0
M  V30 16966 C 502.787 -0.0619086 5.85867 0
M  V30 16967 N 502.737 -0.78573 4.56183 0
M  V30 16968 C 502.587 -0.0292889 3.41887 0
M  V30 16969 O 502.497 1.18445 3.4419 0
M  V30 16970 N 502.547 -0.744061 2.23964 0
M  V30 16971 C 502.637 -2.10932 2.10362 0
M  V30 16972 C 502.787 -2.8202 3.34994 0
M  V30 16973 C 502.837 -2.15547 4.52261 0
M  V30 16974 H 505.578 -1.93379 8.46595 0
M  V30 16975 H 505.847 -1.68132 6.70852 0
M  V30 16976 H 504.98 0.289041 8.15388 0
M  V30 16977 H 502.325 0.926847 5.72749 0
M  V30 16978 H 502.046 -1.86973 6.82036 0
M  V30 16979 H 501.054 -0.403896 7.13257 0
M  V30 16980 H 502.888 -1.20585 8.97435 0
M  V30 16981 H 502.959 -2.71231 5.45042 0
M  V30 16982 P 501.017 1.17771 8.83182 0
M  V30 16983 O 500.797 2.07206 9.98732 0
M  V30 16984 O 500.227 -0.0743816 8.81969 0
M  V30 16985 O 500.767 1.97652 7.47304 0
M  V30 16986 C 501.707 3.01133 7.08783 0
M  V30 16987 C 500.977 4.12613 6.37049 0
M  V30 16988 O 500.767 3.72827 4.97879 0
M  V30 16989 C 499.577 4.45085 6.88694 0
M  V30 16990 O 499.187 5.7877 6.5624 0
M  V30 16991 C 498.697 3.47817 6.12078 0
M  V30 16992 C 499.407 3.39414 4.77697 0
M  V30 16993 N 499.357 2.04615 4.15333 0
M  V30 16994 H 502.196 3.41248 7.98759 0
M  V30 16995 H 502.468 2.5837 6.41742 0
M  V30 16996 H 501.6 5.02657 6.42673 0
M  V30 16997 P 497.637 6.144 6.45285 0
M  V30 16998 O 497.417 7.54673 6.86199 0
M  V30 16999 O 496.847 5.12391 7.179 0
M  V30 17000 O 497.387 5.99158 4.88404 0
M  V30 17001 C 498.327 6.60234 3.96415 0
M  V30 17002 C 497.597 7.08259 2.72856 0
M  V30 17003 O 497.387 5.9427 1.83651 0
M  V30 17004 C 496.197 7.64886 2.9555 0
M  V30 17005 O 495.807 8.53963 1.90717 0
M  V30 17006 C 495.317 6.4116 2.90739 0
M  V30 17007 C 496.027 5.55375 1.86963 0
M  V30 17008 N 495.977 4.09664 2.15742 0
M  V30 17009 C 496.057 3.44381 3.37233 0
M  V30 17010 N 495.977 2.14131 3.28347 0
M  V30 17011 C 495.837 1.90247 1.91588 0
M  V30 17012 C 495.707 0.683992 1.20892 0
M  V30 17013 N 495.587 0.903396 -0.173998 0
M  V30 17014 C 495.587 2.14171 -0.784879 0
M  V30 17015 N 495.457 2.1435 -2.11317 0
M  V30 17016 N 495.717 3.28784 -0.119316 0
M  V30 17017 C 495.837 3.0977 1.22194 0
M  V30 17018 H 498.816 7.45574 4.45629 0
M  V30 17019 H 499.088 5.86232 3.67314 0
M  V30 17020 H 498.22 7.84412 2.24479 0
M  V30 17021 P 494.257 8.7635 1.60911 0
M  V30 17022 O 494.037 10.1388 1.11561 0
M  V30 17023 O 493.467 8.36503 2.79617 0
M  V30 17024 O 494.007 7.71806 0.42951 0
M  V30 17025 C 494.947 7.67148 -0.673689 0
M  V30 17026 C 494.217 7.33374 -1.95559 0
M  V30 17027 O 494.007 5.88721 -2.00726 0
M  V30 17028 C 492.817 7.92526 -2.10483 0
M  V30 17029 O 492.427 8.02971 -3.47653 0
M  V30 17030 C 491.937 6.89602 -1.41652 0
M  V30 17031 C 492.647 5.59201 -1.75185 0
M  V30 17032 N 492.597 4.58235 -0.662552 0
M  V30 17033 C 492.677 4.7683 0.704049 0
M  V30 17034 N 492.597 3.66233 1.39775 0
M  V30 17035 C 492.457 2.66526 0.431739 0
M  V30 17036 C 492.327 1.26394 0.575992 0
M  V30 17037 O 492.307 0.589894 1.60503 0
M  V30 17038 N 492.207 0.62859 -0.67177 0
M  V30 17039 C 492.207 1.27134 -1.89385 0
M  V30 17040 N 492.077 0.492035 -2.96951 0
M  V30 17041 N 492.337 2.58978 -2.02907 0
M  V30 17042 C 492.457 3.22433 -0.832218 0
M  V30 17043 H 495.436 8.65116 -0.777161 0
M  V30 17044 H 495.708 6.90173 -0.474152 0
M  V30 17045 H 494.84 7.66548 -2.79458 0
M  V30 17046 H 492.185 5.16254 -2.65229 0
M  V30 17047 H 491.905 7.06532 -0.329431 0
M  V30 17048 H 490.914 6.91023 -1.82047 0
M  V30 17049 H 492.748 8.90971 -1.62675 0
M  V30 17050 H 492.797 5.74954 1.16305 0
M  V30 17051 H 492.115 -0.366713 -0.674793 0
M  V30 17052 H 492.078 0.908532 -3.91188 0
M  V30 17053 H 491.977 -0.528253 -2.85758 0
M  V30 17054 P 490.877 8.03563 -3.84925 0
M  V30 17055 O 490.657 8.85821 -5.0569 0
M  V30 17056 O 490.087 8.41101 -2.65469 0
M  V30 17057 O 490.627 6.4965 -4.18908 0
M  V30 17058 C 491.567 5.81037 -5.05421 0
M  V30 17059 C 490.837 4.78366 -5.89277 0
M  V30 17060 O 490.627 3.58302 -5.08433 0
M  V30 17061 C 489.437 5.17448 -6.36119 0
M  V30 17062 O 489.047 4.45271 -7.53232 0
M  V30 17063 C 488.557 4.74639 -5.19936 0
M  V30 17064 C 489.267 3.49432 -4.70418 0
M  V30 17065 N 489.217 3.31776 -3.22945 0
M  V30 17066 H 492.056 6.54213 -5.71376 0
M  V30 17067 H 492.328 5.30492 -4.44033 0
M  V30 17068 H 491.46 4.55889 -6.76652 0
M  V30 17069 P 487.497 4.23843 -7.83734 0
M  V30 17070 O 487.277 4.19407 -9.29784 0
M  V30 17071 O 486.707 5.24426 -7.09156 0
M  V30 17072 O 487.247 2.7935 -7.20758 0
M  V30 17073 C 488.187 1.7299 -7.50419 0
M  V30 17074 C 487.457 0.406376 -7.57911 0
M  V30 17075 O 487.247 -0.0897726 -6.21935 0
M  V30 17076 C 486.057 0.447224 -8.1878 0
M  V30 17077 O 485.667 -0.825065 -8.71101 0
M  V30 17078 C 485.177 0.783801 -6.99623 0
M  V30 17079 C 485.887 0.0619192 -5.85967 0
M  V30 17080 N 485.837 0.7859 -4.56281 0
M  V30 17081 H 488.676 1.93423 -8.4679 0
M  V30 17082 H 488.948 1.68181 -6.71046 0
M  V30 17083 H 488.08 -0.289041 -8.15388 0
M  V30 17084 P 484.117 -1.17771 -8.83182 0
M  V30 17085 O 483.897 -2.07206 -9.98732 0
M  V30 17086 O 483.327 0.0743816 -8.81969 0
M  V30 17087 O 483.867 -1.97652 -7.47304 0
M  V30 17088 C 484.807 -3.01133 -7.08783 0
M  V30 17089 C 484.077 -4.12613 -6.37049 0
M  V30 17090 O 483.867 -3.72827 -4.97879 0
M  V30 17091 C 482.677 -4.45085 -6.88694 0
M  V30 17092 O 482.287 -5.7877 -6.5624 0
M  V30 17093 C 481.797 -3.47817 -6.12078 0
M  V30 17094 C 482.507 -3.39414 -4.77697 0
M  V30 17095 N 482.457 -2.04615 -4.15333 0
M  V30 17096 H 485.296 -3.41248 -7.98759 0
M  V30 17097 H 485.568 -2.5837 -6.41742 0
M  V30 17098 H 484.7 -5.02657 -6.42673 0
M  V30 17099 P 480.737 -6.144 -6.45285 0
M  V30 17100 O 480.517 -7.54673 -6.86199 0
M  V30 17101 O 479.947 -5.12391 -7.179 0
M  V30 17102 O 480.487 -5.99158 -4.88404 0
M  V30 17103 C 481.427 -6.60234 -3.96415 0
M  V30 17104 C 480.697 -7.08259 -2.72856 0
M  V30 17105 O 480.487 -5.9427 -1.83651 0
M  V30 17106 C 479.297 -7.64886 -2.9555 0
M  V30 17107 O 478.907 -8.53963 -1.90717 0
M  V30 17108 C 478.417 -6.4116 -2.90739 0
M  V30 17109 C 479.127 -5.55375 -1.86963 0
M  V30 17110 N 479.077 -4.09664 -2.15742 0
M  V30 17111 H 481.916 -7.45574 -4.45629 0
M  V30 17112 H 482.188 -5.86232 -3.67314 0
M  V30 17113 H 481.32 -7.84412 -2.24479 0
M  V30 17114 P 477.357 -8.7635 -1.60911 0
M  V30 17115 O 477.137 -10.1388 -1.11561 0
M  V30 17116 O 476.567 -8.36503 -2.79617 0
M  V30 17117 O 477.107 -7.71806 -0.42951 0
M  V30 17118 C 478.047 -7.67148 0.673689 0
M  V30 17119 C 477.317 -7.33374 1.95559 0
M  V30 17120 O 477.107 -5.88721 2.00726 0
M  V30 17121 C 475.917 -7.92526 2.10483 0
M  V30 17122 O 475.527 -8.02971 3.47653 0
M  V30 17123 C 475.037 -6.89602 1.41652 0
M  V30 17124 C 475.747 -5.59201 1.75185 0
M  V30 17125 N 475.697 -4.58235 0.662552 0
M  V30 17126 H 478.536 -8.65116 0.777161 0
M  V30 17127 H 478.808 -6.90173 0.474152 0
M  V30 17128 H 477.94 -7.66548 2.79458 0
M  V30 17129 P 473.977 -8.03563 3.84925 0
M  V30 17130 O 473.757 -8.85821 5.0569 0
M  V30 17131 O 473.187 -8.41101 2.65469 0
M  V30 17132 O 473.727 -6.4965 4.18908 0
M  V30 17133 C 474.667 -5.81037 5.05421 0
M  V30 17134 C 473.937 -4.78366 5.89277 0
M  V30 17135 O 473.727 -3.58302 5.08433 0
M  V30 17136 C 472.537 -5.17448 6.36119 0
M  V30 17137 O 472.147 -4.45271 7.53232 0
M  V30 17138 C 471.657 -4.74639 5.19936 0
M  V30 17139 C 472.367 -3.49432 4.70418 0
M  V30 17140 N 472.317 -3.31776 3.22945 0
M  V30 17141 H 475.156 -6.54213 5.71376 0
M  V30 17142 H 475.428 -5.30492 4.44033 0
M  V30 17143 H 474.56 -4.55889 6.76652 0
M  V30 17144 P 470.597 -4.23843 7.83734 0
M  V30 17145 O 470.377 -4.19407 9.29784 0
M  V30 17146 O 469.807 -5.24426 7.09156 0
M  V30 17147 O 470.347 -2.7935 7.20758 0
M  V30 17148 C 471.287 -1.7299 7.50419 0
M  V30 17149 C 470.557 -0.406376 7.57911 0
M  V30 17150 O 470.347 0.0897726 6.21935 0
M  V30 17151 C 469.157 -0.447224 8.1878 0
M  V30 17152 O 468.767 0.825065 8.71101 0
M  V30 17153 C 468.277 -0.783801 6.99623 0
M  V30 17154 C 468.987 -0.0619192 5.85967 0
M  V30 17155 N 468.937 -0.7859 4.56281 0
M  V30 17156 H 471.776 -1.93423 8.4679 0
M  V30 17157 H 472.048 -1.68181 6.71046 0
M  V30 17158 H 471.18 0.289041 8.15388 0
M  V30 17159 P 467.217 1.17771 8.83182 0
M  V30 17160 O 466.997 2.07206 9.98732 0
M  V30 17161 O 466.427 -0.0743816 8.81969 0
M  V30 17162 O 466.967 1.97652 7.47304 0
M  V30 17163 C 467.907 3.01133 7.08783 0
M  V30 17164 C 467.177 4.12613 6.37049 0
M  V30 17165 O 466.967 3.72827 4.97879 0
M  V30 17166 C 465.777 4.45085 6.88694 0
M  V30 17167 O 465.387 5.7877 6.5624 0
M  V30 17168 C 464.897 3.47817 6.12078 0
M  V30 17169 C 465.607 3.39414 4.77697 0
M  V30 17170 N 465.557 2.04615 4.15333 0
M  V30 17171 H 468.396 3.41248 7.98759 0
M  V30 17172 H 468.668 2.5837 6.41742 0
M  V30 17173 H 467.8 5.02657 6.42673 0
M  V30 17174 P 463.837 6.144 6.45285 0
M  V30 17175 O 463.617 7.54673 6.86199 0
M  V30 17176 O 463.047 5.12391 7.179 0
M  V30 17177 O 463.587 5.99158 4.88404 0
M  V30 17178 C 464.527 6.60234 3.96415 0
M  V30 17179 C 463.797 7.08259 2.72856 0
M  V30 17180 O 463.587 5.9427 1.83651 0
M  V30 17181 C 462.397 7.64886 2.9555 0
M  V30 17182 O 462.007 8.53963 1.90717 0
M  V30 17183 C 461.517 6.4116 2.90739 0
M  V30 17184 C 462.227 5.55375 1.86963 0
M  V30 17185 N 462.177 4.09664 2.15742 0
M  V30 17186 H 465.016 7.45574 4.45629 0
M  V30 17187 H 465.288 5.86232 3.67314 0
M  V30 17188 H 464.42 7.84412 2.24479 0
M  V30 17189 P 460.457 8.7635 1.60911 0
M  V30 17190 O 460.237 10.1388 1.11561 0
M  V30 17191 O 459.667 8.36503 2.79617 0
M  V30 17192 O 460.207 7.71806 0.42951 0
M  V30 17193 C 461.147 7.67148 -0.673689 0
M  V30 17194 C 460.417 7.33374 -1.95559 0
M  V30 17195 O 460.207 5.88721 -2.00726 0
M  V30 17196 C 459.017 7.92526 -2.10483 0
M  V30 17197 O 458.627 8.02971 -3.47653 0
M  V30 17198 C 458.137 6.89602 -1.41652 0
M  V30 17199 C 458.847 5.59201 -1.75185 0
M  V30 17200 N 458.797 4.58301 -0.657969 0
M  V30 17201 H 461.636 8.65116 -0.777161 0
M  V30 17202 H 461.908 6.9022 -0.46725 0
M  V30 17203 H 461.04 7.66548 -2.79458 0
M  V30 17204 H 458.385 5.16165 -2.65183 0
M  V30 17205 H 458.105 7.06433 -0.329384 0
M  V30 17206 H 457.114 6.90926 -1.82021 0
M  V30 17207 H 458.948 8.90873 -1.62657 0
M  V30 17208 P 457.077 8.03563 -3.84925 0
M  V30 17209 O 456.857 8.85821 -5.0569 0
M  V30 17210 O 456.287 8.41101 -2.65469 0
M  V30 17211 O 456.827 6.4965 -4.18908 0
M  V30 17212 C 457.767 5.81037 -5.05421 0
M  V30 17213 C 457.037 4.78366 -5.89277 0
M  V30 17214 O 456.827 3.58302 -5.08433 0
M  V30 17215 C 455.637 5.17448 -6.36119 0
M  V30 17216 O 455.247 4.45271 -7.53232 0
M  V30 17217 C 454.757 4.74639 -5.19936 0
M  V30 17218 C 455.467 3.49432 -4.70418 0
M  V30 17219 N 455.417 3.31776 -3.22945 0
M  V30 17220 C 455.497 4.27147 -2.23315 0
M  V30 17221 N 455.417 3.78447 -1.02186 0
M  V30 17222 C 455.277 2.41001 -1.21732 0
M  V30 17223 C 455.147 1.36111 -0.27694 0
M  V30 17224 O 455.127 1.42065 0.951767 0
M  V30 17225 N 455.027 0.113683 -0.912949 0
M  V30 17226 C 455.027 -0.0846396 -2.27943 0
M  V30 17227 N 454.897 -1.34737 -2.6916 0
M  V30 17228 N 455.157 0.902521 -3.16379 0
M  V30 17229 C 455.277 2.11937 -2.56849 0
M  V30 17230 H 458.256 6.54213 -5.71376 0
M  V30 17231 H 458.528 5.30492 -4.44033 0
M  V30 17232 H 457.66 4.55889 -6.76652 0
M  V30 17233 H 455.005 2.6176 -5.18021 0
M  V30 17234 H 454.725 5.52233 -4.41941 0
M  V30 17235 H 453.734 4.52045 -5.53452 0
M  V30 17236 H 455.568 6.25193 -6.55307 0
M  V30 17237 H 455.617 5.3351 -2.43857 0
M  V30 17238 H 454.935 -0.69331 -0.330371 0
M  V30 17239 H 454.898 -1.56433 -3.6988 0
M  V30 17240 H 454.797 -2.10701 -2.00133 0
M  V30 17241 P 453.697 4.23843 -7.83734 0
M  V30 17242 O 453.477 4.19407 -9.29784 0
M  V30 17243 O 452.907 5.24426 -7.09156 0
M  V30 17244 O 453.447 2.7935 -7.20758 0
M  V30 17245 C 454.387 1.7299 -7.50419 0
M  V30 17246 C 453.657 0.406376 -7.57911 0
M  V30 17247 O 453.447 -0.0897726 -6.21935 0
M  V30 17248 C 452.257 0.447224 -8.1878 0
M  V30 17249 O 451.867 -0.825065 -8.71101 0
M  V30 17250 C 451.377 0.783801 -6.99623 0
M  V30 17251 C 452.087 0.0619192 -5.85967 0
M  V30 17252 N 452.037 0.7859 -4.56281 0
M  V30 17253 H 454.876 1.93423 -8.4679 0
M  V30 17254 H 455.148 1.68181 -6.71046 0
M  V30 17255 H 454.28 -0.289041 -8.15388 0
M  V30 17256 P 450.317 -1.17771 -8.83182 0
M  V30 17257 O 450.097 -2.07206 -9.98732 0
M  V30 17258 O 449.527 0.0743816 -8.81969 0
M  V30 17259 O 450.067 -1.97652 -7.47304 0
M  V30 17260 C 451.007 -3.01133 -7.08783 0
M  V30 17261 C 450.277 -4.12613 -6.37049 0
M  V30 17262 O 450.067 -3.72827 -4.97879 0
M  V30 17263 C 448.877 -4.45085 -6.88694 0
M  V30 17264 O 448.487 -5.7877 -6.5624 0
M  V30 17265 C 447.997 -3.47817 -6.12078 0
M  V30 17266 C 448.707 -3.39414 -4.77697 0
M  V30 17267 N 448.657 -2.04199 -4.15538 0
M  V30 17268 C 448.737 -0.821545 -4.76977 0
M  V30 17269 N 448.667 0.1794 -3.94592 0
M  V30 17270 C 448.517 -0.419121 -2.70776 0
M  V30 17271 C 448.387 0.109072 -1.40577 0
M  V30 17272 N 448.377 1.4104 -1.1344 0
M  V30 17273 N 448.267 -0.764381 -0.39411 0
M  V30 17274 C 448.277 -2.06587 -0.664135 0
M  V30 17275 N 448.397 -2.67948 -1.82153 0
M  V30 17276 C 448.517 -1.77942 -2.8147 0
M  V30 17277 H 451.496 -3.41248 -7.98759 0
M  V30 17278 H 451.768 -2.57728 -6.42 0
M  V30 17279 H 450.9 -5.02657 -6.42673 0
M  V30 17280 H 448.245 -4.11708 -4.08956 0
M  V30 17281 H 447.965 -2.49626 -6.61679 0
M  V30 17282 H 446.974 -3.8662 -6.00862 0
M  V30 17283 H 448.808 -4.29991 -7.97006 0
M  V30 17284 H 448.849 -0.702451 -5.84696 0
M  V30 17285 H 448.468 2.09647 -1.89651 0
M  V30 17286 H 448.279 1.73358 -0.160575 0
M  V30 17287 H 448.171 -2.71695 0.195838 0
M  V30 17288 P 446.937 -6.144 -6.45285 0
M  V30 17289 O 446.717 -7.54673 -6.86199 0
M  V30 17290 O 446.147 -5.12391 -7.179 0
M  V30 17291 O 446.687 -5.99158 -4.88404 0
M  V30 17292 C 447.627 -6.60234 -3.96415 0
M  V30 17293 C 446.897 -7.08259 -2.72856 0
M  V30 17294 O 446.687 -5.9427 -1.83651 0
M  V30 17295 C 445.497 -7.64886 -2.9555 0
M  V30 17296 O 445.107 -8.53963 -1.90717 0
M  V30 17297 C 444.617 -6.4116 -2.90739 0
M  V30 17298 C 445.327 -5.55375 -1.86963 0
M  V30 17299 N 445.277 -4.09664 -2.15742 0
M  V30 17300 H 448.116 -7.45574 -4.45629 0
M  V30 17301 H 448.388 -5.86232 -3.67314 0
M  V30 17302 H 447.52 -7.84412 -2.24479 0
M  V30 17303 P 443.557 -8.7635 -1.60911 0
M  V30 17304 O 443.337 -10.1388 -1.11561 0
M  V30 17305 O 442.767 -8.36503 -2.79617 0
M  V30 17306 O 443.307 -7.71806 -0.42951 0
M  V30 17307 C 444.247 -7.67148 0.673689 0
M  V30 17308 C 443.517 -7.33374 1.95559 0
M  V30 17309 O 443.307 -5.88721 2.00726 0
M  V30 17310 C 442.117 -7.92526 2.10483 0
M  V30 17311 O 441.727 -8.02971 3.47653 0
M  V30 17312 C 441.237 -6.89602 1.41652 0
M  V30 17313 C 441.947 -5.59201 1.75185 0
M  V30 17314 N 441.897 -4.58301 0.657969 0
M  V30 17315 H 444.736 -8.65116 0.777161 0
M  V30 17316 H 445.008 -6.9022 0.46725 0
M  V30 17317 H 444.14 -7.66548 2.79458 0
M  V30 17318 H 441.485 -5.16165 2.65183 0
M  V30 17319 H 441.205 -7.06433 0.329384 0
M  V30 17320 H 440.214 -6.90926 1.82021 0
M  V30 17321 H 442.048 -8.90873 1.62657 0
M  V30 17322 P 440.177 -8.03563 3.84925 0
M  V30 17323 O 439.957 -8.85821 5.0569 0
M  V30 17324 O 439.387 -8.41101 2.65469 0
M  V30 17325 O 439.927 -6.4965 4.18908 0
M  V30 17326 C 440.867 -5.81037 5.05421 0
M  V30 17327 C 440.137 -4.78366 5.89277 0
M  V30 17328 O 439.927 -3.58302 5.08433 0
M  V30 17329 C 438.737 -5.17448 6.36119 0
M  V30 17330 O 438.347 -4.45271 7.53232 0
M  V30 17331 C 437.857 -4.74639 5.19936 0
M  V30 17332 C 438.567 -3.49432 4.70418 0
M  V30 17333 N 438.517 -3.31776 3.22945 0
M  V30 17334 H 441.356 -6.54213 5.71376 0
M  V30 17335 H 441.628 -5.30492 4.44033 0
M  V30 17336 H 440.76 -4.55889 6.76652 0
M  V30 17337 P 436.797 -4.23843 7.83734 0
M  V30 17338 O 436.577 -4.19407 9.29784 0
M  V30 17339 O 436.007 -5.24426 7.09156 0
M  V30 17340 O 436.547 -2.7935 7.20758 0
M  V30 17341 C 437.487 -1.7299 7.50419 0
M  V30 17342 C 436.757 -0.406376 7.57911 0
M  V30 17343 O 436.547 0.0897726 6.21935 0
M  V30 17344 C 435.357 -0.447224 8.1878 0
M  V30 17345 O 434.967 0.825065 8.71101 0
M  V30 17346 C 434.477 -0.783801 6.99623 0
M  V30 17347 C 435.187 -0.0619192 5.85967 0
M  V30 17348 N 435.137 -0.7859 4.56281 0
M  V30 17349 H 437.976 -1.93423 8.4679 0
M  V30 17350 H 438.248 -1.68181 6.71046 0
M  V30 17351 H 437.38 0.289041 8.15388 0
M  V30 17352 P 433.417 1.17771 8.83182 0
M  V30 17353 O 433.197 2.07206 9.98732 0
M  V30 17354 O 432.627 -0.0743816 8.81969 0
M  V30 17355 O 433.167 1.97652 7.47304 0
M  V30 17356 C 434.107 3.01133 7.08783 0
M  V30 17357 C 433.377 4.12613 6.37049 0
M  V30 17358 O 433.167 3.72827 4.97879 0
M  V30 17359 C 431.977 4.45085 6.88694 0
M  V30 17360 O 431.587 5.7877 6.5624 0
M  V30 17361 C 431.097 3.47817 6.12078 0
M  V30 17362 C 431.807 3.39414 4.77697 0
M  V30 17363 N 431.757 2.04615 4.15333 0
M  V30 17364 H 434.596 3.41248 7.98759 0
M  V30 17365 H 434.868 2.5837 6.41742 0
M  V30 17366 H 434 5.02657 6.42673 0
M  V30 17367 P 430.037 6.144 6.45285 0
M  V30 17368 O 429.817 7.54673 6.86199 0
M  V30 17369 O 429.247 5.12391 7.179 0
M  V30 17370 O 429.787 5.99158 4.88404 0
M  V30 17371 C 430.727 6.60062 3.96313 0
M  V30 17372 C 429.997 7.08259 2.72856 0
M  V30 17373 O 429.787 5.9427 1.83651 0
M  V30 17374 C 428.597 7.65087 2.94749 0
M  V30 17375 O 428.207 8.53963 1.90717 0
M  V30 17376 C 427.717 6.41069 2.90698 0
M  V30 17377 C 428.427 5.5528 1.86931 0
M  V30 17378 N 428.377 4.09575 2.15696 0
M  V30 17379 C 428.227 3.24249 1.08435 0
M  V30 17380 O 428.137 3.63946 -0.0628747 0
M  V30 17381 N 428.187 1.90009 1.39973 0
M  V30 17382 C 428.277 1.34884 2.65614 0
M  V30 17383 O 428.227 0.123716 2.81728 0
M  V30 17384 C 428.427 2.3145 3.71736 0
M  V30 17385 C 428.537 1.75913 5.10438 0
M  V30 17386 C 428.477 3.63518 3.44754 0
M  V30 17387 H 431.218 7.45402 4.45526 0
M  V30 17388 H 431.487 5.86062 3.67208 0
M  V30 17389 H 430.62 7.84412 2.24479 0
M  V30 17390 H 427.965 5.73358 0.888409 0
M  V30 17391 H 427.686 5.90877 3.88583 0
M  V30 17392 H 426.694 6.65867 2.58821 0
M  V30 17393 H 428.528 8.16248 3.92006 0
M  V30 17394 H 428.599 4.34551 4.26383 0
M  V30 17395 H 427.569 1.85471 5.61775 0
M  V30 17396 H 429.306 2.31364 5.66257 0
M  V30 17397 H 428.818 0.695936 5.05229 0
M  V30 17398 H 428.082 1.26277 0.63625 0
M  V30 17399 P 426.657 8.7635 1.60911 0
M  V30 17400 O 426.437 10.1388 1.11561 0
M  V30 17401 O 425.867 8.36503 2.79617 0
M  V30 17402 O 426.407 7.71806 0.42951 0
M  V30 17403 C 427.347 7.66948 -0.673514 0
M  V30 17404 C 426.617 7.33374 -1.95559 0
M  V30 17405 O 426.407 5.88721 -2.00726 0
M  V30 17406 C 425.217 7.92218 -2.1125 0
M  V30 17407 O 424.827 8.02971 -3.47653 0
M  V30 17408 C 424.337 6.89504 -1.41631 0
M  V30 17409 C 425.047 5.59106 -1.75155 0
M  V30 17410 N 424.997 4.58136 -0.662409 0
M  V30 17411 C 424.847 3.26059 -1.02863 0
M  V30 17412 O 424.757 2.90743 -2.19009 0
M  V30 17413 N 424.807 2.35995 0.0155585 0
M  V30 17414 C 424.897 2.65248 1.35603 0
M  V30 17415 C 425.047 4.05747 1.64698 0
M  V30 17416 C 425.097 4.96734 0.652411 0
M  V30 17417 H 427.838 8.64917 -0.776982 0
M  V30 17418 H 428.107 6.89974 -0.474015 0
M  V30 17419 H 427.24 7.66548 -2.79458 0
M  V30 17420 H 424.585 5.16076 -2.65138 0
M  V30 17421 H 424.306 7.06433 -0.329384 0
M  V30 17422 H 423.314 6.90829 -1.81996 0
M  V30 17423 H 425.148 8.90774 -1.62639 0
M  V30 17424 H 425.219 6.02181 0.895285 0
M  V30 17425 P 423.278 8.03563 -3.84925 0
M  V30 17426 O 423.058 8.85821 -5.0569 0
M  V30 17427 O 422.488 8.41101 -2.65469 0
M  V30 17428 O 423.028 6.4965 -4.18908 0
M  V30 17429 C 423.968 5.81037 -5.05421 0
M  V30 17430 C 423.238 4.78366 -5.89277 0
M  V30 17431 O 423.028 3.58302 -5.08433 0
M  V30 17432 C 421.838 5.17448 -6.36119 0
M  V30 17433 O 421.448 4.45271 -7.53232 0
M  V30 17434 C 420.958 4.74639 -5.19936 0
M  V30 17435 C 421.668 3.49432 -4.70418 0
M  V30 17436 N 421.618 3.31776 -3.22945 0
M  V30 17437 H 424.457 6.54213 -5.71376 0
M  V30 17438 H 424.729 5.30492 -4.44033 0
M  V30 17439 H 423.861 4.55889 -6.76652 0
M  V30 17440 P 419.898 4.23843 -7.83734 0
M  V30 17441 O 419.678 4.19407 -9.29784 0
M  V30 17442 O 419.108 5.24426 -7.09156 0
M  V30 17443 O 419.648 2.7935 -7.20758 0
M  V30 17444 C 420.588 1.7299 -7.50419 0
M  V30 17445 C 419.858 0.406376 -7.57911 0
M  V30 17446 O 419.648 -0.0897726 -6.21935 0
M  V30 17447 C 418.458 0.447224 -8.1878 0
M  V30 17448 O 418.068 -0.825065 -8.71101 0
M  V30 17449 C 417.578 0.783801 -6.99623 0
M  V30 17450 C 418.288 0.0619192 -5.85967 0
M  V30 17451 N 418.238 0.7859 -4.56281 0
M  V30 17452 H 421.077 1.93423 -8.4679 0
M  V30 17453 H 421.349 1.68181 -6.71046 0
M  V30 17454 H 420.481 -0.289041 -8.15388 0
M  V30 17455 P 416.518 -1.17771 -8.83182 0
M  V30 17456 O 416.298 -2.07206 -9.98732 0
M  V30 17457 O 415.728 0.0743816 -8.81969 0
M  V30 17458 O 416.268 -1.97652 -7.47304 0
M  V30 17459 C 417.208 -3.01133 -7.08783 0
M  V30 17460 C 416.478 -4.12613 -6.37049 0
M  V30 17461 O 416.268 -3.72827 -4.97879 0
M  V30 17462 C 415.078 -4.45085 -6.88694 0
M  V30 17463 O 414.688 -5.7877 -6.5624 0
M  V30 17464 C 414.198 -3.47817 -6.12078 0
M  V30 17465 C 414.908 -3.39414 -4.77697 0
M  V30 17466 N 414.858 -2.04615 -4.15333 0
M  V30 17467 H 417.697 -3.41248 -7.98759 0
M  V30 17468 H 417.969 -2.5837 -6.41742 0
M  V30 17469 H 417.101 -5.02657 -6.42673 0
M  V30 17470 P 413.138 -6.144 -6.45285 0
M  V30 17471 O 412.918 -7.54673 -6.86199 0
M  V30 17472 O 412.348 -5.12391 -7.179 0
M  V30 17473 O 412.888 -5.99158 -4.88404 0
M  V30 17474 C 413.828 -6.60234 -3.96415 0
M  V30 17475 C 413.098 -7.08259 -2.72856 0
M  V30 17476 O 412.888 -5.9427 -1.83651 0
M  V30 17477 C 411.698 -7.64886 -2.9555 0
M  V30 17478 O 411.308 -8.53963 -1.90717 0
M  V30 17479 C 410.818 -6.4116 -2.90739 0
M  V30 17480 C 411.528 -5.55375 -1.86963 0
M  V30 17481 N 411.478 -4.09664 -2.15742 0
M  V30 17482 H 414.317 -7.45574 -4.45629 0
M  V30 17483 H 414.589 -5.86232 -3.67314 0
M  V30 17484 H 413.721 -7.84412 -2.24479 0
M  V30 17485 P 409.758 -8.7635 -1.60911 0
M  V30 17486 O 409.538 -10.1388 -1.11561 0
M  V30 17487 O 408.968 -8.36503 -2.79617 0
M  V30 17488 O 409.508 -7.71906 -0.429565 0
M  V30 17489 C 410.448 -7.67148 0.673689 0
M  V30 17490 C 409.718 -7.33666 1.94851 0
M  V30 17491 O 409.508 -5.88816 2.00759 0
M  V30 17492 C 408.318 -7.92526 2.10483 0
M  V30 17493 O 407.928 -8.03063 3.47693 0
M  V30 17494 C 407.438 -6.89602 1.41652 0
M  V30 17495 C 408.148 -5.59201 1.75185 0
M  V30 17496 N 408.098 -4.58235 0.662552 0
M  V30 17497 C 407.948 -3.24451 1.01643 0
M  V30 17498 O 407.858 -2.94958 2.21722 0
M  V30 17499 N 407.898 -2.30408 -0.165238 0
M  V30 17500 C 407.998 -2.66048 -1.25118 0
M  V30 17501 N 407.948 -1.70787 -2.16813 0
M  V30 17502 C 408.148 -4.02732 -1.64413 0
M  V30 17503 C 408.198 -4.9488 -0.63991 0
M  V30 17504 H 410.938 -8.65017 0.777072 0
M  V30 17505 H 411.208 -6.90173 0.474152 0
M  V30 17506 H 410.341 -7.66642 2.79492 0
M  V30 17507 H 407.686 -5.16254 2.65229 0
M  V30 17508 H 407.406 -7.06532 0.329431 0
M  V30 17509 H 406.415 -6.91023 1.82047 0
M  V30 17510 H 408.249 -8.90873 1.62657 0
M  V30 17511 H 408.321 -6.00104 -0.892197 0
M  V30 17512 H 408.219 -4.31733 -2.69229 0
M  V30 17513 H 407.831 -0.724835 -1.8844 0
M  V30 17514 H 408.027 -1.94716 -3.16734 0
M  V30 17515 P 406.378 -8.03563 3.84925 0
M  V30 17516 O 406.158 -8.85821 5.0569 0
M  V30 17517 O 405.588 -8.41101 2.65469 0
M  V30 17518 O 406.128 -6.4965 4.18908 0
M  V30 17519 C 407.068 -5.81037 5.05421 0
M  V30 17520 C 406.338 -4.78366 5.89277 0
M  V30 17521 O 406.128 -3.58302 5.08433 0
M  V30 17522 C 404.938 -5.17448 6.36119 0
M  V30 17523 O 404.548 -4.45271 7.53232 0
M  V30 17524 C 404.058 -4.74639 5.19936 0
M  V30 17525 C 404.768 -3.49432 4.70418 0
M  V30 17526 N 404.718 -3.32099 3.22613 0
M  V30 17527 H 407.557 -6.54213 5.71376 0
M  V30 17528 H 407.829 -5.30936 4.43503 0
M  V30 17529 H 406.961 -4.55889 6.76652 0
M  V30 17530 H 404.306 -2.61715 5.17932 0
M  V30 17531 H 404.026 -5.52155 4.41878 0
M  V30 17532 H 403.035 -4.51981 5.53374 0
M  V30 17533 H 404.869 -6.25124 6.55234 0
M  V30 17534 P 402.998 -4.23843 7.83734 0
M  V30 17535 O 402.778 -4.19407 9.29784 0
M  V30 17536 O 402.208 -5.24426 7.09156 0
M  V30 17537 O 402.748 -2.7935 7.20758 0
M  V30 17538 C 403.688 -1.7299 7.50419 0
M  V30 17539 C 402.958 -0.406376 7.57911 0
M  V30 17540 O 402.748 0.0897726 6.21935 0
M  V30 17541 C 401.558 -0.447224 8.1878 0
M  V30 17542 O 401.168 0.825065 8.71101 0
M  V30 17543 C 400.678 -0.783801 6.99623 0
M  V30 17544 C 401.388 -0.0619192 5.85967 0
M  V30 17545 N 401.338 -0.7859 4.56281 0
M  V30 17546 H 404.177 -1.93423 8.4679 0
M  V30 17547 H 404.449 -1.68181 6.71046 0
M  V30 17548 H 403.581 0.289041 8.15388 0
M  V30 17549 P 399.618 1.17771 8.83182 0
M  V30 17550 O 399.398 2.07206 9.98732 0
M  V30 17551 O 398.828 -0.0743816 8.81969 0
M  V30 17552 O 399.368 1.97652 7.47304 0
M  V30 17553 C 400.308 3.01133 7.08783 0
M  V30 17554 C 399.578 4.12613 6.37049 0
M  V30 17555 O 399.368 3.72827 4.97879 0
M  V30 17556 C 398.178 4.45085 6.88694 0
M  V30 17557 O 397.788 5.7877 6.5624 0
M  V30 17558 C 397.298 3.47817 6.12078 0
M  V30 17559 C 398.008 3.39414 4.77697 0
M  V30 17560 N 397.958 2.04615 4.15333 0
M  V30 17561 H 400.797 3.41248 7.98759 0
M  V30 17562 H 401.069 2.5837 6.41742 0
M  V30 17563 H 400.201 5.02657 6.42673 0
M  V30 17564 P 396.238 6.144 6.45285 0
M  V30 17565 O 396.018 7.54673 6.86199 0
M  V30 17566 O 395.448 5.12391 7.179 0
M  V30 17567 O 395.988 5.99158 4.88404 0
M  V30 17568 C 396.928 6.60234 3.96415 0
M  V30 17569 C 396.198 7.08259 2.72856 0
M  V30 17570 O 395.988 5.9427 1.83651 0
M  V30 17571 C 394.798 7.64886 2.9555 0
M  V30 17572 O 394.408 8.53963 1.90717 0
M  V30 17573 C 393.918 6.4116 2.90739 0
M  V30 17574 C 394.628 5.55375 1.86963 0
M  V30 17575 N 394.578 4.09448 2.16152 0
M  V30 17576 H 397.417 7.45574 4.45629 0
M  V30 17577 H 397.689 5.85864 3.679 0
M  V30 17578 H 396.821 7.84412 2.24479 0
M  V30 17579 H 394.166 5.73457 0.888562 0
M  V30 17580 H 393.886 5.90877 3.88583 0
M  V30 17581 H 392.895 6.6596 2.58858 0
M  V30 17582 H 394.729 8.16339 3.92049 0
M  V30 17583 P 392.858 8.7635 1.60911 0
M  V30 17584 O 392.638 10.1388 1.11561 0
M  V30 17585 O 392.068 8.36503 2.79617 0
M  V30 17586 O 392.608 7.71806 0.42951 0
M  V30 17587 C 393.548 7.66948 -0.673514 0
M  V30 17588 C 392.818 7.33374 -1.95559 0
M  V30 17589 O 392.608 5.88721 -2.00726 0
M  V30 17590 C 391.418 7.92218 -2.1125 0
M  V30 17591 O 391.028 8.02971 -3.47653 0
M  V30 17592 C 390.538 6.89504 -1.41631 0
M  V30 17593 C 391.248 5.59106 -1.75155 0
M  V30 17594 N 391.198 4.58136 -0.662409 0
M  V30 17595 C 391.048 3.26059 -1.02863 0
M  V30 17596 O 390.958 2.90743 -2.19009 0
M  V30 17597 N 391.008 2.35995 0.0155585 0
M  V30 17598 C 391.098 2.65248 1.35603 0
M  V30 17599 C 391.248 4.05747 1.64698 0
M  V30 17600 C 391.298 4.96734 0.652411 0
M  V30 17601 H 394.039 8.64917 -0.776982 0
M  V30 17602 H 394.308 6.89974 -0.474015 0
M  V30 17603 H 393.441 7.66548 -2.79458 0
M  V30 17604 H 390.786 5.16076 -2.65138 0
M  V30 17605 H 390.507 7.06433 -0.329384 0
M  V30 17606 H 389.515 6.90829 -1.81996 0
M  V30 17607 H 391.349 8.90774 -1.62639 0
M  V30 17608 H 391.42 6.02181 0.895285 0
M  V30 17609 P 389.478 8.03563 -3.84925 0
M  V30 17610 O 389.258 8.85821 -5.0569 0
M  V30 17611 O 388.688 8.41101 -2.65469 0
M  V30 17612 O 389.228 6.4965 -4.18908 0
M  V30 17613 C 390.168 5.81037 -5.05421 0
M  V30 17614 C 389.438 4.78366 -5.89277 0
M  V30 17615 O 389.228 3.58302 -5.08433 0
M  V30 17616 C 388.038 5.17448 -6.36119 0
M  V30 17617 O 387.648 4.45271 -7.53232 0
M  V30 17618 C 387.158 4.74639 -5.19936 0
M  V30 17619 C 387.868 3.49432 -4.70418 0
M  V30 17620 N 387.818 3.31776 -3.22945 0
M  V30 17621 H 390.657 6.54213 -5.71376 0
M  V30 17622 H 390.929 5.30492 -4.44033 0
M  V30 17623 H 390.061 4.55889 -6.76652 0
M  V30 17624 P 386.098 4.23843 -7.83734 0
M  V30 17625 O 385.878 4.19407 -9.29784 0
M  V30 17626 O 385.308 5.24426 -7.09156 0
M  V30 17627 O 385.848 2.7935 -7.20758 0
M  V30 17628 C 386.788 1.7299 -7.50419 0
M  V30 17629 C 386.058 0.406376 -7.57911 0
M  V30 17630 O 385.848 -0.0897726 -6.21935 0
M  V30 17631 C 384.658 0.447224 -8.1878 0
M  V30 17632 O 384.268 -0.825065 -8.71101 0
M  V30 17633 C 383.778 0.783801 -6.99623 0
M  V30 17634 C 384.488 0.0619192 -5.85967 0
M  V30 17635 N 384.438 0.790462 -4.56202 0
M  V30 17636 H 387.277 1.93423 -8.4679 0
M  V30 17637 H 387.549 1.68852 -6.70877 0
M  V30 17638 H 386.681 -0.289041 -8.15388 0
M  V30 17639 H 384.026 -0.927006 -5.72848 0
M  V30 17640 H 383.746 1.86973 -6.82036 0
M  V30 17641 H 382.755 0.403953 -7.13357 0
M  V30 17642 H 384.589 1.20599 -8.97534 0
M  V30 17643 P 382.718 -1.17771 -8.83182 0
M  V30 17644 O 382.498 -2.07206 -9.98732 0
M  V30 17645 O 381.928 0.0743816 -8.81969 0
M  V30 17646 O 382.468 -1.97652 -7.47304 0
M  V30 17647 C 383.408 -3.01133 -7.08783 0
M  V30 17648 C 382.678 -4.12613 -6.37049 0
M  V30 17649 O 382.468 -3.72827 -4.97879 0
M  V30 17650 C 381.278 -4.45085 -6.88694 0
M  V30 17651 O 380.888 -5.7877 -6.5624 0
M  V30 17652 C 380.398 -3.47817 -6.12078 0
M  V30 17653 C 381.108 -3.39414 -4.77697 0
M  V30 17654 N 381.058 -2.04615 -4.15333 0
M  V30 17655 H 383.897 -3.41248 -7.98759 0
M  V30 17656 H 384.169 -2.5837 -6.41742 0
M  V30 17657 H 383.301 -5.02657 -6.42673 0
M  V30 17658 P 379.338 -6.144 -6.45285 0
M  V30 17659 O 379.118 -7.54673 -6.86199 0
M  V30 17660 O 378.548 -5.12391 -7.179 0
M  V30 17661 O 379.088 -5.99158 -4.88404 0
M  V30 17662 C 380.028 -6.60234 -3.96415 0
M  V30 17663 C 379.298 -7.08259 -2.72856 0
M  V30 17664 O 379.088 -5.9427 -1.83651 0
M  V30 17665 C 377.898 -7.64886 -2.9555 0
M  V30 17666 O 377.508 -8.53963 -1.90717 0
M  V30 17667 C 377.018 -6.4116 -2.90739 0
M  V30 17668 C 377.728 -5.55375 -1.86963 0
M  V30 17669 N 377.678 -4.09664 -2.15742 0
M  V30 17670 H 380.517 -7.45574 -4.45629 0
M  V30 17671 H 380.789 -5.86232 -3.67314 0
M  V30 17672 H 379.921 -7.84412 -2.24479 0
M  V30 17673 P 375.958 -8.7635 -1.60911 0
M  V30 17674 O 375.738 -10.1388 -1.11561 0
M  V30 17675 O 375.168 -8.36503 -2.79617 0
M  V30 17676 O 375.708 -7.71806 -0.42951 0
M  V30 17677 C 376.648 -7.67148 0.673689 0
M  V30 17678 C 375.918 -7.33374 1.95559 0
M  V30 17679 O 375.708 -5.88721 2.00726 0
M  V30 17680 C 374.518 -7.92526 2.10483 0
M  V30 17681 O 374.128 -8.02971 3.47653 0
M  V30 17682 C 373.638 -6.89602 1.41652 0
M  V30 17683 C 374.348 -5.59201 1.75185 0
M  V30 17684 N 374.298 -4.58235 0.662552 0
M  V30 17685 H 377.137 -8.65116 0.777161 0
M  V30 17686 H 377.409 -6.90173 0.474152 0
M  V30 17687 H 376.541 -7.66548 2.79458 0
M  V30 17688 P 372.578 -8.03563 3.84925 0
M  V30 17689 O 372.358 -8.85821 5.0569 0
M  V30 17690 O 371.788 -8.41101 2.65469 0
M  V30 17691 O 372.328 -6.4965 4.18908 0
M  V30 17692 C 373.268 -5.81037 5.05421 0
M  V30 17693 C 372.538 -4.78366 5.89277 0
M  V30 17694 O 372.328 -3.58302 5.08433 0
M  V30 17695 C 371.138 -5.17448 6.36119 0
M  V30 17696 O 370.748 -4.45271 7.53232 0
M  V30 17697 C 370.258 -4.74639 5.19936 0
M  V30 17698 C 370.968 -3.49432 4.70418 0
M  V30 17699 N 370.918 -3.31776 3.22945 0
M  V30 17700 H 373.757 -6.54213 5.71376 0
M  V30 17701 H 374.029 -5.30492 4.44033 0
M  V30 17702 H 373.161 -4.55889 6.76652 0
M  V30 17703 P 369.198 -4.23843 7.83734 0
M  V30 17704 O 368.978 -4.19407 9.29784 0
M  V30 17705 O 368.408 -5.24426 7.09156 0
M  V30 17706 O 368.948 -2.7935 7.20758 0
M  V30 17707 C 369.888 -1.7299 7.50419 0
M  V30 17708 C 369.158 -0.406376 7.57911 0
M  V30 17709 O 368.948 0.0897726 6.21935 0
M  V30 17710 C 367.758 -0.447224 8.1878 0
M  V30 17711 O 367.368 0.825065 8.71101 0
M  V30 17712 C 366.878 -0.783801 6.99623 0
M  V30 17713 C 367.588 -0.0619192 5.85967 0
M  V30 17714 N 367.538 -0.790462 4.56202 0
M  V30 17715 C 367.618 -2.13895 4.34171 0
M  V30 17716 N 367.548 -2.46449 3.08687 0
M  V30 17717 C 367.398 -1.2525 2.43697 0
M  V30 17718 C 367.268 -0.914535 1.07318 0
M  V30 17719 N 367.258 -1.80782 0.0887348 0
M  V30 17720 N 367.148 0.386745 0.768133 0
M  V30 17721 C 367.158 1.28096 1.75159 0
M  V30 17722 N 367.278 1.09708 3.04861 0
M  V30 17723 C 367.398 -0.214857 3.32306 0
M  V30 17724 H 370.377 -1.93423 8.4679 0
M  V30 17725 H 370.649 -1.68852 6.70877 0
M  V30 17726 H 369.781 0.289041 8.15388 0
M  V30 17727 H 367.126 0.927006 5.72848 0
M  V30 17728 H 366.846 -1.86973 6.82036 0
M  V30 17729 H 365.855 -0.403953 7.13357 0
M  V30 17730 H 367.689 -1.20599 8.97534 0
M  V30 17731 H 367.73 -2.86846 5.14318 0
M  V30 17732 H 367.349 -2.81082 0.302037 0
M  V30 17733 H 367.16 -1.49688 -0.889064 0
M  V30 17734 H 367.052 2.31317 1.43855 0
M  V30 17735 P 365.818 1.17771 8.83182 0
M  V30 17736 O 365.598 2.07206 9.98732 0
M  V30 17737 O 365.028 -0.0743816 8.81969 0
M  V30 17738 O 365.568 1.97652 7.47304 0
M  V30 17739 C 366.508 3.01133 7.08783 0
M  V30 17740 C 365.778 4.12613 6.37049 0
M  V30 17741 O 365.568 3.72827 4.97879 0
M  V30 17742 C 364.378 4.45085 6.88694 0
M  V30 17743 O 363.988 5.7877 6.5624 0
M  V30 17744 C 363.498 3.47817 6.12078 0
M  V30 17745 C 364.208 3.39414 4.77697 0
M  V30 17746 N 364.158 2.04615 4.15333 0
M  V30 17747 H 366.997 3.41248 7.98759 0
M  V30 17748 H 367.269 2.5837 6.41742 0
M  V30 17749 H 366.401 5.02657 6.42673 0
M  V30 17750 P 362.438 6.144 6.45285 0
M  V30 17751 O 362.218 7.54673 6.86199 0
M  V30 17752 O 361.648 5.12391 7.179 0
M  V30 17753 O 362.188 5.99158 4.88404 0
M  V30 17754 C 363.128 6.60234 3.96415 0
M  V30 17755 C 362.398 7.08259 2.72856 0
M  V30 17756 O 362.188 5.9427 1.83651 0
M  V30 17757 C 360.998 7.64886 2.9555 0
M  V30 17758 O 360.608 8.53963 1.90717 0
M  V30 17759 C 360.118 6.4116 2.90739 0
M  V30 17760 C 360.828 5.55375 1.86963 0
M  V30 17761 N 360.778 4.09664 2.15742 0
M  V30 17762 H 363.617 7.45574 4.45629 0
M  V30 17763 H 363.889 5.86232 3.67314 0
M  V30 17764 H 363.021 7.84412 2.24479 0
M  V30 17765 P 359.058 8.7635 1.60911 0
M  V30 17766 O 358.838 10.1388 1.11561 0
M  V30 17767 O 358.268 8.36503 2.79617 0
M  V30 17768 O 358.808 7.71806 0.42951 0
M  V30 17769 C 359.748 7.67148 -0.673689 0
M  V30 17770 C 359.018 7.33374 -1.95559 0
M  V30 17771 O 358.808 5.88721 -2.00726 0
M  V30 17772 C 357.618 7.92526 -2.10483 0
M  V30 17773 O 357.228 8.02971 -3.47653 0
M  V30 17774 C 356.738 6.89602 -1.41652 0
M  V30 17775 C 357.448 5.59201 -1.75185 0
M  V30 17776 N 357.398 4.58235 -0.662552 0
M  V30 17777 H 360.237 8.65116 -0.777161 0
M  V30 17778 H 360.509 6.90173 -0.474152 0
M  V30 17779 H 359.641 7.66548 -2.79458 0
M  V30 17780 P 355.678 8.03563 -3.84925 0
M  V30 17781 O 355.458 8.85821 -5.0569 0
M  V30 17782 O 354.888 8.41101 -2.65469 0
M  V30 17783 O 355.428 6.4965 -4.18908 0
M  V30 17784 C 356.368 5.81037 -5.05421 0
M  V30 17785 C 355.638 4.78366 -5.89277 0
M  V30 17786 O 355.428 3.58302 -5.08433 0
M  V30 17787 C 354.238 5.17448 -6.36119 0
M  V30 17788 O 353.848 4.45271 -7.53232 0
M  V30 17789 C 353.358 4.74639 -5.19936 0
M  V30 17790 C 354.068 3.49432 -4.70418 0
M  V30 17791 N 354.018 3.32099 -3.22613 0
M  V30 17792 H 356.857 6.54213 -5.71376 0
M  V30 17793 H 357.129 5.30936 -4.43503 0
M  V30 17794 H 356.261 4.55889 -6.76652 0
M  V30 17795 H 353.606 2.61715 -5.17932 0
M  V30 17796 H 353.326 5.52155 -4.41878 0
M  V30 17797 H 352.335 4.51981 -5.53374 0
M  V30 17798 H 354.169 6.25124 -6.55234 0
M  V30 17799 P 352.298 4.23843 -7.83734 0
M  V30 17800 O 352.078 4.19407 -9.29784 0
M  V30 17801 O 351.508 5.24426 -7.09156 0
M  V30 17802 O 352.048 2.7935 -7.20758 0
M  V30 17803 C 352.988 1.7299 -7.50419 0
M  V30 17804 C 352.258 0.406376 -7.57911 0
M  V30 17805 O 352.048 -0.0897726 -6.21935 0
M  V30 17806 C 350.858 0.447224 -8.1878 0
M  V30 17807 O 350.468 -0.825065 -8.71101 0
M  V30 17808 C 349.978 0.783801 -6.99623 0
M  V30 17809 C 350.688 0.0619192 -5.85967 0
M  V30 17810 N 350.638 0.790462 -4.56202 0
M  V30 17811 H 353.477 1.93423 -8.4679 0
M  V30 17812 H 353.749 1.68852 -6.70877 0
M  V30 17813 H 352.881 -0.289041 -8.15388 0
M  V30 17814 H 350.226 -0.927006 -5.72848 0
M  V30 17815 H 349.946 1.86973 -6.82036 0
M  V30 17816 H 348.955 0.403953 -7.13357 0
M  V30 17817 H 350.789 1.20599 -8.97534 0
M  V30 17818 P 348.918 -1.17771 -8.83182 0
M  V30 17819 O 348.698 -2.07206 -9.98732 0
M  V30 17820 O 348.128 0.0743816 -8.81969 0
M  V30 17821 O 348.668 -1.97652 -7.47304 0
M  V30 17822 C 349.608 -3.01133 -7.08783 0
M  V30 17823 C 348.878 -4.12613 -6.37049 0
M  V30 17824 O 348.668 -3.72827 -4.97879 0
M  V30 17825 C 347.478 -4.45085 -6.88694 0
M  V30 17826 O 347.088 -5.7877 -6.5624 0
M  V30 17827 C 346.598 -3.47817 -6.12078 0
M  V30 17828 C 347.308 -3.39414 -4.77697 0
M  V30 17829 N 347.258 -2.04615 -4.15333 0
M  V30 17830 H 350.097 -3.41248 -7.98759 0
M  V30 17831 H 350.369 -2.5837 -6.41742 0
M  V30 17832 H 349.501 -5.02657 -6.42673 0
M  V30 17833 P 345.538 -6.144 -6.45285 0
M  V30 17834 O 345.318 -7.54673 -6.86199 0
M  V30 17835 O 344.748 -5.12391 -7.179 0
M  V30 17836 O 345.288 -5.99158 -4.88404 0
M  V30 17837 C 346.228 -6.60234 -3.96415 0
M  V30 17838 C 345.498 -7.08259 -2.72856 0
M  V30 17839 O 345.288 -5.9427 -1.83651 0
M  V30 17840 C 344.098 -7.64886 -2.9555 0
M  V30 17841 O 343.708 -8.53963 -1.90717 0
M  V30 17842 C 343.218 -6.4116 -2.90739 0
M  V30 17843 C 343.928 -5.55375 -1.86963 0
M  V30 17844 N 343.878 -4.09664 -2.15742 0
M  V30 17845 C 343.958 -3.44381 -3.37233 0
M  V30 17846 N 343.878 -2.14131 -3.28347 0
M  V30 17847 C 343.738 -1.90247 -1.91588 0
M  V30 17848 C 343.608 -0.683992 -1.20892 0
M  V30 17849 O 343.588 0.46618 -1.64523 0
M  V30 17850 N 343.488 -0.903396 0.173998 0
M  V30 17851 C 343.488 -2.14171 0.784879 0
M  V30 17852 N 343.358 -2.1435 2.11317 0
M  V30 17853 N 343.618 -3.28784 0.119316 0
M  V30 17854 C 343.738 -3.0977 -1.22194 0
M  V30 17855 H 346.717 -7.45574 -4.45629 0
M  V30 17856 H 346.989 -5.86232 -3.67314 0
M  V30 17857 H 346.121 -7.84412 -2.24479 0
M  V30 17858 H 343.466 -5.73556 -0.888715 0
M  V30 17859 H 343.186 -5.9096 -3.88638 0
M  V30 17860 H 342.195 -6.66053 -2.58894 0
M  V30 17861 H 344.029 -8.16429 -3.92093 0
M  V30 17862 H 344.078 -3.96785 -4.32043 0
M  V30 17863 H 343.396 -0.0999567 0.761467 0
M  V30 17864 H 343.359 -3.03436 2.63076 0
M  V30 17865 H 343.258 -1.25228 2.62233 0
M  V30 17866 P 342.158 -8.7635 -1.60911 0
M  V30 17867 O 341.938 -10.1388 -1.11561 0
M  V30 17868 O 341.368 -8.36503 -2.79617 0
M  V30 17869 O 341.908 -7.71806 -0.42951 0
M  V30 17870 C 342.848 -7.67148 0.673689 0
M  V30 17871 C 342.118 -7.33374 1.95559 0
M  V30 17872 O 341.908 -5.88721 2.00726 0
M  V30 17873 C 340.718 -7.92526 2.10483 0
M  V30 17874 O 340.328 -8.02971 3.47653 0
M  V30 17875 C 339.838 -6.89602 1.41652 0
M  V30 17876 C 340.548 -5.59201 1.75185 0
M  V30 17877 N 340.498 -4.58235 0.662552 0
M  V30 17878 H 343.337 -8.65116 0.777161 0
M  V30 17879 H 343.609 -6.90173 0.474152 0
M  V30 17880 H 342.741 -7.66548 2.79458 0
M  V30 17881 P 338.778 -8.03563 3.84925 0
M  V30 17882 O 338.558 -8.85821 5.0569 0
M  V30 17883 O 337.988 -8.41101 2.65469 0
M  V30 17884 O 338.528 -6.4965 4.18908 0
M  V30 17885 C 339.468 -5.81037 5.05421 0
M  V30 17886 C 338.738 -4.78366 5.89277 0
M  V30 17887 O 338.528 -3.58302 5.08433 0
M  V30 17888 C 337.338 -5.17448 6.36119 0
M  V30 17889 O 336.948 -4.45271 7.53232 0
M  V30 17890 C 336.458 -4.74639 5.19936 0
M  V30 17891 C 337.168 -3.49432 4.70418 0
M  V30 17892 N 337.118 -3.31776 3.22945 0
M  V30 17893 H 339.957 -6.54213 5.71376 0
M  V30 17894 H 340.229 -5.30492 4.44033 0
M  V30 17895 H 339.361 -4.55889 6.76652 0
M  V30 17896 P 335.398 -4.23843 7.83734 0
M  V30 17897 O 335.178 -4.19407 9.29784 0
M  V30 17898 O 334.608 -5.24426 7.09156 0
M  V30 17899 O 335.148 -2.7935 7.20758 0
M  V30 17900 C 336.088 -1.72945 7.50224 0
M  V30 17901 C 335.358 -0.406376 7.57911 0
M  V30 17902 O 335.148 0.0897726 6.21935 0
M  V30 17903 C 333.958 -0.438983 8.18724 0
M  V30 17904 O 333.568 0.825065 8.71101 0
M  V30 17905 C 333.078 -0.783689 6.99524 0
M  V30 17906 C 333.788 -0.0619086 5.85867 0
M  V30 17907 N 333.738 -0.78573 4.56183 0
M  V30 17908 C 333.588 -0.0292889 3.41887 0
M  V30 17909 O 333.498 1.18445 3.4419 0
M  V30 17910 N 333.548 -0.744061 2.23964 0
M  V30 17911 C 333.638 -2.10932 2.10362 0
M  V30 17912 C 333.788 -2.8202 3.34994 0
M  V30 17913 C 333.838 -2.15547 4.52261 0
M  V30 17914 H 336.579 -1.93379 8.46595 0
M  V30 17915 H 336.848 -1.68132 6.70852 0
M  V30 17916 H 335.981 0.289041 8.15388 0
M  V30 17917 H 333.326 0.926847 5.72749 0
M  V30 17918 H 333.047 -1.86973 6.82036 0
M  V30 17919 H 332.055 -0.403896 7.13257 0
M  V30 17920 H 333.889 -1.20585 8.97435 0
M  V30 17921 H 333.96 -2.71231 5.45042 0
M  V30 17922 P 332.018 1.17771 8.83182 0
M  V30 17923 O 331.798 2.07206 9.98732 0
M  V30 17924 O 331.228 -0.0743816 8.81969 0
M  V30 17925 O 331.768 1.97652 7.47304 0
M  V30 17926 C 332.708 3.01133 7.08783 0
M  V30 17927 C 331.978 4.12613 6.37049 0
M  V30 17928 O 331.768 3.72827 4.97879 0
M  V30 17929 C 330.578 4.45085 6.88694 0
M  V30 17930 O 330.188 5.7877 6.5624 0
M  V30 17931 C 329.698 3.47817 6.12078 0
M  V30 17932 C 330.408 3.39414 4.77697 0
M  V30 17933 N 330.358 2.04615 4.15333 0
M  V30 17934 H 333.197 3.41248 7.98759 0
M  V30 17935 H 333.469 2.5837 6.41742 0
M  V30 17936 H 332.601 5.02657 6.42673 0
M  V30 17937 P 328.638 6.144 6.45285 0
M  V30 17938 O 328.418 7.54673 6.86199 0
M  V30 17939 O 327.848 5.12391 7.179 0
M  V30 17940 O 328.388 5.99158 4.88404 0
M  V30 17941 C 329.328 6.60234 3.96415 0
M  V30 17942 C 328.598 7.08259 2.72856 0
M  V30 17943 O 328.388 5.9427 1.83651 0
M  V30 17944 C 327.198 7.64886 2.9555 0
M  V30 17945 O 326.808 8.53963 1.90717 0
M  V30 17946 C 326.318 6.4116 2.90739 0
M  V30 17947 C 327.028 5.55375 1.86963 0
M  V30 17948 N 326.978 4.09448 2.16152 0
M  V30 17949 C 327.058 3.46824 3.37593 0
M  V30 17950 N 326.988 2.17422 3.29777 0
M  V30 17951 C 326.838 1.93065 1.94427 0
M  V30 17952 C 326.708 0.738053 1.20141 0
M  V30 17953 N 326.698 -0.474256 1.74676 0
M  V30 17954 N 326.588 0.850049 -0.13045 0
M  V30 17955 C 326.598 2.06169 -0.676992 0
M  V30 17956 N 326.718 3.23842 -0.101312 0
M  V30 17957 C 326.838 3.09402 1.23122 0
M  V30 17958 H 329.817 7.45574 4.45629 0
M  V30 17959 H 330.089 5.85864 3.679 0
M  V30 17960 H 329.221 7.84412 2.24479 0
M  V30 17961 H 326.566 5.73457 0.888562 0
M  V30 17962 H 326.286 5.90877 3.88583 0
M  V30 17963 H 325.295 6.6596 2.58858 0
M  V30 17964 H 327.129 8.16339 3.92049 0
M  V30 17965 H 327.17 4.00505 4.3174 0
M  V30 17966 H 326.789 -0.581337 2.76658 0
M  V30 17967 H 326.6 -1.30811 1.14888 0
M  V30 17968 H 326.492 2.08295 -1.75542 0
M  V30 17969 P 325.258 8.7635 1.60911 0
M  V30 17970 O 325.038 10.1388 1.11561 0
M  V30 17971 O 324.468 8.36503 2.79617 0
M  V30 17972 O 325.008 7.71806 0.42951 0
M  V30 17973 C 325.948 7.67148 -0.673689 0
M  V30 17974 C 325.218 7.33374 -1.95559 0
M  V30 17975 O 325.008 5.88721 -2.00726 0
M  V30 17976 C 323.818 7.92526 -2.10483 0
M  V30 17977 O 323.428 8.02971 -3.47653 0
M  V30 17978 C 322.938 6.89602 -1.41652 0
M  V30 17979 C 323.648 5.59201 -1.75185 0
M  V30 17980 N 323.598 4.58235 -0.662552 0
M  V30 17981 C 323.678 4.7683 0.704049 0
M  V30 17982 N 323.598 3.66233 1.39775 0
M  V30 17983 C 323.458 2.66526 0.431739 0
M  V30 17984 C 323.328 1.26394 0.575992 0
M  V30 17985 O 323.308 0.589894 1.60503 0
M  V30 17986 N 323.208 0.62859 -0.67177 0
M  V30 17987 C 323.208 1.27134 -1.89385 0
M  V30 17988 N 323.078 0.492035 -2.96951 0
M  V30 17989 N 323.338 2.58978 -2.02907 0
M  V30 17990 C 323.458 3.22433 -0.832218 0
M  V30 17991 H 326.437 8.65116 -0.777161 0
M  V30 17992 H 326.709 6.90173 -0.474152 0
M  V30 17993 H 325.841 7.66548 -2.79458 0
M  V30 17994 H 323.186 5.16254 -2.65229 0
M  V30 17995 H 322.906 7.06532 -0.329431 0
M  V30 17996 H 321.915 6.91023 -1.82047 0
M  V30 17997 H 323.749 8.90971 -1.62675 0
M  V30 17998 H 323.798 5.74954 1.16305 0
M  V30 17999 H 323.116 -0.366713 -0.674793 0
M  V30 18000 H 323.079 0.908532 -3.91188 0
M  V30 18001 H 322.978 -0.528253 -2.85758 0
M  V30 18002 P 321.878 8.03563 -3.84925 0
M  V30 18003 O 321.658 8.85821 -5.0569 0
M  V30 18004 O 321.088 8.41101 -2.65469 0
M  V30 18005 O 321.628 6.4965 -4.18908 0
M  V30 18006 C 322.568 5.81037 -5.05421 0
M  V30 18007 C 321.838 4.78366 -5.89277 0
M  V30 18008 O 321.628 3.58302 -5.08433 0
M  V30 18009 C 320.438 5.17448 -6.36119 0
M  V30 18010 O 320.048 4.45271 -7.53232 0
M  V30 18011 C 319.558 4.74639 -5.19936 0
M  V30 18012 C 320.268 3.49432 -4.70418 0
M  V30 18013 N 320.218 3.31776 -3.22945 0
M  V30 18014 C 320.298 4.27147 -2.23315 0
M  V30 18015 N 320.218 3.78447 -1.02186 0
M  V30 18016 C 320.078 2.41001 -1.21732 0
M  V30 18017 C 319.948 1.36111 -0.27694 0
M  V30 18018 O 319.928 1.42065 0.951767 0
M  V30 18019 N 319.828 0.113683 -0.912949 0
M  V30 18020 C 319.828 -0.0846396 -2.27943 0
M  V30 18021 N 319.698 -1.34737 -2.6916 0
M  V30 18022 N 319.958 0.902521 -3.16379 0
M  V30 18023 C 320.078 2.11937 -2.56849 0
M  V30 18024 H 323.057 6.54213 -5.71376 0
M  V30 18025 H 323.329 5.30492 -4.44033 0
M  V30 18026 H 322.461 4.55889 -6.76652 0
M  V30 18027 H 319.806 2.6176 -5.18021 0
M  V30 18028 H 319.526 5.52233 -4.41941 0
M  V30 18029 H 318.535 4.52045 -5.53452 0
M  V30 18030 H 320.369 6.25193 -6.55307 0
M  V30 18031 H 320.418 5.3351 -2.43857 0
M  V30 18032 H 319.736 -0.69331 -0.330371 0
M  V30 18033 H 319.699 -1.56433 -3.6988 0
M  V30 18034 H 319.598 -2.10701 -2.00133 0
M  V30 18035 P 318.498 4.23843 -7.83734 0
M  V30 18036 O 318.278 4.19407 -9.29784 0
M  V30 18037 O 317.708 5.24426 -7.09156 0
M  V30 18038 O 318.248 2.7935 -7.20758 0
M  V30 18039 C 319.188 1.7299 -7.50419 0
M  V30 18040 C 318.458 0.406376 -7.57911 0
M  V30 18041 O 318.248 -0.0897726 -6.21935 0
M  V30 18042 C 317.058 0.447224 -8.1878 0
M  V30 18043 O 316.668 -0.825065 -8.71101 0
M  V30 18044 C 316.178 0.783801 -6.99623 0
M  V30 18045 C 316.888 0.0619192 -5.85967 0
M  V30 18046 N 316.838 0.7859 -4.56281 0
M  V30 18047 H 319.677 1.93423 -8.4679 0
M  V30 18048 H 319.949 1.68181 -6.71046 0
M  V30 18049 H 319.081 -0.289041 -8.15388 0
M  V30 18050 P 315.118 -1.17771 -8.83182 0
M  V30 18051 O 314.898 -2.07206 -9.98732 0
M  V30 18052 O 314.328 0.0743816 -8.81969 0
M  V30 18053 O 314.868 -1.97652 -7.47304 0
M  V30 18054 C 315.808 -3.01133 -7.08783 0
M  V30 18055 C 315.078 -4.12613 -6.37049 0
M  V30 18056 O 314.868 -3.72827 -4.97879 0
M  V30 18057 C 313.678 -4.45085 -6.88694 0
M  V30 18058 O 313.288 -5.7877 -6.5624 0
M  V30 18059 C 312.798 -3.47817 -6.12078 0
M  V30 18060 C 313.508 -3.39414 -4.77697 0
M  V30 18061 N 313.458 -2.04615 -4.15333 0
M  V30 18062 H 316.297 -3.41248 -7.98759 0
M  V30 18063 H 316.569 -2.5837 -6.41742 0
M  V30 18064 H 315.701 -5.02657 -6.42673 0
M  V30 18065 P 311.738 -6.144 -6.45285 0
M  V30 18066 O 311.518 -7.54673 -6.86199 0
M  V30 18067 O 310.948 -5.12391 -7.179 0
M  V30 18068 O 311.488 -5.99158 -4.88404 0
M  V30 18069 C 312.428 -6.60234 -3.96415 0
M  V30 18070 C 311.698 -7.08259 -2.72856 0
M  V30 18071 O 311.488 -5.9427 -1.83651 0
M  V30 18072 C 310.298 -7.64886 -2.9555 0
M  V30 18073 O 309.908 -8.53963 -1.90717 0
M  V30 18074 C 309.418 -6.4116 -2.90739 0
M  V30 18075 C 310.128 -5.55375 -1.86963 0
M  V30 18076 N 310.078 -4.09448 -2.16152 0
M  V30 18077 H 312.917 -7.45574 -4.45629 0
M  V30 18078 H 313.189 -5.85864 -3.679 0
M  V30 18079 H 312.321 -7.84412 -2.24479 0
M  V30 18080 H 309.666 -5.73457 -0.888562 0
M  V30 18081 H 309.386 -5.90877 -3.88583 0
M  V30 18082 H 308.395 -6.6596 -2.58858 0
M  V30 18083 H 310.229 -8.16339 -3.92049 0
M  V30 18084 P 308.358 -8.7635 -1.60911 0
M  V30 18085 O 308.138 -10.1388 -1.11561 0
M  V30 18086 O 307.568 -8.36503 -2.79617 0
M  V30 18087 O 308.108 -7.71806 -0.42951 0
M  V30 18088 C 309.048 -7.66948 0.673514 0
M  V30 18089 C 308.318 -7.33374 1.95559 0
M  V30 18090 O 308.108 -5.88721 2.00726 0
M  V30 18091 C 306.918 -7.92218 2.1125 0
M  V30 18092 O 306.528 -8.02971 3.47653 0
M  V30 18093 C 306.038 -6.89504 1.41631 0
M  V30 18094 C 306.748 -5.59106 1.75155 0
M  V30 18095 N 306.698 -4.58136 0.662409 0
M  V30 18096 C 306.548 -3.26059 1.02863 0
M  V30 18097 O 306.458 -2.90743 2.19009 0
M  V30 18098 N 306.508 -2.35995 -0.0155585 0
M  V30 18099 C 306.598 -2.65248 -1.35603 0
M  V30 18100 C 306.748 -4.05747 -1.64698 0
M  V30 18101 C 306.798 -4.96734 -0.652411 0
M  V30 18102 H 309.539 -8.64917 0.776982 0
M  V30 18103 H 309.808 -6.89974 0.474015 0
M  V30 18104 H 308.941 -7.66548 2.79458 0
M  V30 18105 H 306.286 -5.16076 2.65138 0
M  V30 18106 H 306.007 -7.06433 0.329384 0
M  V30 18107 H 305.015 -6.90829 1.81996 0
M  V30 18108 H 306.849 -8.90774 1.62639 0
M  V30 18109 H 306.92 -6.02181 -0.895285 0
M  V30 18110 P 304.978 -8.03563 3.84925 0
M  V30 18111 O 304.758 -8.85821 5.0569 0
M  V30 18112 O 304.188 -8.41101 2.65469 0
M  V30 18113 O 304.728 -6.4965 4.18908 0
M  V30 18114 C 305.668 -5.80886 5.05289 0
M  V30 18115 C 304.938 -4.78366 5.89277 0
M  V30 18116 O 304.728 -3.58302 5.08433 0
M  V30 18117 C 303.538 -5.16748 6.36559 0
M  V30 18118 O 303.148 -4.45271 7.53232 0
M  V30 18119 C 302.658 -4.74572 5.19863 0
M  V30 18120 C 303.368 -3.49373 4.70338 0
M  V30 18121 N 303.318 -3.31704 3.22876 0
M  V30 18122 C 303.168 -2.03326 2.74871 0
M  V30 18123 O 303.078 -1.06486 3.48076 0
M  V30 18124 N 303.128 -1.91838 1.37456 0
M  V30 18125 C 303.218 -2.94295 0.462035 0
M  V30 18126 C 303.368 -4.25064 1.05249 0
M  V30 18127 C 303.418 -4.40214 2.39192 0
M  V30 18128 H 306.159 -6.54063 5.71245 0
M  V30 18129 H 306.428 -5.30339 4.43905 0
M  V30 18130 H 305.561 -4.55889 6.76652 0
M  V30 18131 H 302.906 -2.6167 5.17842 0
M  V30 18132 H 302.627 -5.52155 4.41878 0
M  V30 18133 H 301.635 -4.51918 5.53297 0
M  V30 18134 H 303.469 -6.25055 6.55162 0
M  V30 18135 H 303.54 -5.39798 2.81523 0
M  V30 18136 P 301.598 -4.23843 7.83734 0
M  V30 18137 O 301.378 -4.19407 9.29784 0
M  V30 18138 O 300.808 -5.24426 7.09156 0
M  V30 18139 O 301.348 -2.7935 7.20758 0
M  V30 18140 C 302.288 -1.7299 7.50419 0
M  V30 18141 C 301.558 -0.406376 7.57911 0
M  V30 18142 O 301.348 0.0897726 6.21935 0
M  V30 18143 C 300.158 -0.447224 8.1878 0
M  V30 18144 O 299.768 0.825065 8.71101 0
M  V30 18145 C 299.278 -0.783801 6.99623 0
M  V30 18146 C 299.988 -0.0619192 5.85967 0
M  V30 18147 N 299.938 -0.7859 4.56281 0
M  V30 18148 H 302.777 -1.93423 8.4679 0
M  V30 18149 H 303.049 -1.68181 6.71046 0
M  V30 18150 H 302.181 0.289041 8.15388 0
M  V30 18151 P 298.218 1.17771 8.83182 0
M  V30 18152 O 297.998 2.07206 9.98732 0
M  V30 18153 O 297.428 -0.0743816 8.81969 0
M  V30 18154 O 297.968 1.97652 7.47304 0
M  V30 18155 C 298.908 3.01133 7.08783 0
M  V30 18156 C 298.178 4.12613 6.37049 0
M  V30 18157 O 297.968 3.72827 4.97879 0
M  V30 18158 C 296.778 4.45085 6.88694 0
M  V30 18159 O 296.388 5.7877 6.5624 0
M  V30 18160 C 295.898 3.47817 6.12078 0
M  V30 18161 C 296.608 3.39414 4.77697 0
M  V30 18162 N 296.558 2.04615 4.15333 0
M  V30 18163 H 299.397 3.41248 7.98759 0
M  V30 18164 H 299.669 2.5837 6.41742 0
M  V30 18165 H 298.801 5.02657 6.42673 0
M  V30 18166 P 294.838 6.144 6.45285 0
M  V30 18167 O 294.618 7.54673 6.86199 0
M  V30 18168 O 294.048 5.12391 7.179 0
M  V30 18169 O 294.588 5.99158 4.88404 0
M  V30 18170 C 295.528 6.60234 3.96415 0
M  V30 18171 C 294.798 7.08259 2.72856 0
M  V30 18172 O 294.588 5.9427 1.83651 0
M  V30 18173 C 293.398 7.64886 2.9555 0
M  V30 18174 O 293.008 8.53963 1.90717 0
M  V30 18175 C 292.518 6.4116 2.90739 0
M  V30 18176 C 293.228 5.55375 1.86963 0
M  V30 18177 N 293.178 4.09664 2.15742 0
M  V30 18178 H 296.017 7.45574 4.45629 0
M  V30 18179 H 296.289 5.86232 3.67314 0
M  V30 18180 H 295.421 7.84412 2.24479 0
M  V30 18181 P 291.458 8.7635 1.60911 0
M  V30 18182 O 291.238 10.1388 1.11561 0
M  V30 18183 O 290.668 8.36503 2.79617 0
M  V30 18184 O 291.208 7.71806 0.42951 0
M  V30 18185 C 292.148 7.67148 -0.673689 0
M  V30 18186 C 291.418 7.33374 -1.95559 0
M  V30 18187 O 291.208 5.88721 -2.00726 0
M  V30 18188 C 290.018 7.92526 -2.10483 0
M  V30 18189 O 289.628 8.02971 -3.47653 0
M  V30 18190 C 289.138 6.89602 -1.41652 0
M  V30 18191 C 289.848 5.59201 -1.75185 0
M  V30 18192 N 289.798 4.58235 -0.662552 0
M  V30 18193 H 292.637 8.65116 -0.777161 0
M  V30 18194 H 292.909 6.90173 -0.474152 0
M  V30 18195 H 292.041 7.66548 -2.79458 0
M  V30 18196 P 288.078 8.03563 -3.84925 0
M  V30 18197 O 287.858 8.85821 -5.0569 0
M  V30 18198 O 287.288 8.41101 -2.65469 0
M  V30 18199 O 287.828 6.4965 -4.18908 0
M  V30 18200 C 288.768 5.81037 -5.05421 0
M  V30 18201 C 288.038 4.78366 -5.89277 0
M  V30 18202 O 287.828 3.58302 -5.08433 0
M  V30 18203 C 286.638 5.17448 -6.36119 0
M  V30 18204 O 286.248 4.45271 -7.53232 0
M  V30 18205 C 285.758 4.74639 -5.19936 0
M  V30 18206 C 286.468 3.49432 -4.70418 0
M  V30 18207 N 286.418 3.31776 -3.22945 0
M  V30 18208 H 289.257 6.54213 -5.71376 0
M  V30 18209 H 289.529 5.30492 -4.44033 0
M  V30 18210 H 288.661 4.55889 -6.76652 0
M  V30 18211 P 284.698 4.23843 -7.83734 0
M  V30 18212 O 284.478 4.19407 -9.29784 0
M  V30 18213 O 283.908 5.24426 -7.09156 0
M  V30 18214 O 284.448 2.7935 -7.20758 0
M  V30 18215 C 285.388 1.7299 -7.50419 0
M  V30 18216 C 284.658 0.406376 -7.57911 0
M  V30 18217 O 284.448 -0.0897726 -6.21935 0
M  V30 18218 C 283.258 0.447224 -8.1878 0
M  V30 18219 O 282.868 -0.825065 -8.71101 0
M  V30 18220 C 282.378 0.783801 -6.99623 0
M  V30 18221 C 283.088 0.0619192 -5.85967 0
M  V30 18222 N 283.038 0.790462 -4.56202 0
M  V30 18223 C 283.118 2.13895 -4.34171 0
M  V30 18224 N 283.048 2.46449 -3.08687 0
M  V30 18225 C 282.898 1.2525 -2.43697 0
M  V30 18226 C 282.768 0.914535 -1.07318 0
M  V30 18227 N 282.758 1.80782 -0.0887348 0
M  V30 18228 N 282.648 -0.386745 -0.768133 0
M  V30 18229 C 282.658 -1.28096 -1.75159 0
M  V30 18230 N 282.778 -1.09708 -3.04861 0
M  V30 18231 C 282.898 0.214857 -3.32306 0
M  V30 18232 H 285.877 1.93423 -8.4679 0
M  V30 18233 H 286.149 1.68852 -6.70877 0
M  V30 18234 H 285.281 -0.289041 -8.15388 0
M  V30 18235 H 282.626 -0.927006 -5.72848 0
M  V30 18236 H 282.346 1.86973 -6.82036 0
M  V30 18237 H 281.355 0.403953 -7.13357 0
M  V30 18238 H 283.189 1.20599 -8.97534 0
M  V30 18239 H 283.23 2.86846 -5.14318 0
M  V30 18240 H 282.849 2.81082 -0.302037 0
M  V30 18241 H 282.66 1.49688 0.889064 0
M  V30 18242 H 282.552 -2.31317 -1.43855 0
M  V30 18243 P 281.318 -1.17771 -8.83182 0
M  V30 18244 O 281.098 -2.07206 -9.98732 0
M  V30 18245 O 280.528 0.0743816 -8.81969 0
M  V30 18246 O 281.068 -1.97652 -7.47304 0
M  V30 18247 C 282.008 -3.01133 -7.08783 0
M  V30 18248 C 281.278 -4.12613 -6.37049 0
M  V30 18249 O 281.068 -3.72827 -4.97879 0
M  V30 18250 C 279.878 -4.45085 -6.88694 0
M  V30 18251 O 279.488 -5.7877 -6.5624 0
M  V30 18252 C 278.998 -3.47817 -6.12078 0
M  V30 18253 C 279.708 -3.39414 -4.77697 0
M  V30 18254 N 279.658 -2.04199 -4.15538 0
M  V30 18255 H 282.497 -3.41248 -7.98759 0
M  V30 18256 H 282.769 -2.57728 -6.42 0
M  V30 18257 H 281.901 -5.02657 -6.42673 0
M  V30 18258 H 279.246 -4.11708 -4.08956 0
M  V30 18259 H 278.966 -2.49626 -6.61679 0
M  V30 18260 H 277.975 -3.8662 -6.00862 0
M  V30 18261 H 279.809 -4.29991 -7.97006 0
M  V30 18262 P 277.938 -6.144 -6.45285 0
M  V30 18263 O 277.718 -7.54673 -6.86199 0
M  V30 18264 O 277.148 -5.12391 -7.179 0
M  V30 18265 O 277.688 -5.99158 -4.88404 0
M  V30 18266 C 278.628 -6.60062 -3.96313 0
M  V30 18267 C 277.898 -7.08259 -2.72856 0
M  V30 18268 O 277.688 -5.9427 -1.83651 0
M  V30 18269 C 276.498 -7.65087 -2.94749 0
M  V30 18270 O 276.108 -8.53963 -1.90717 0
M  V30 18271 C 275.618 -6.41069 -2.90698 0
M  V30 18272 C 276.328 -5.5528 -1.86931 0
M  V30 18273 N 276.278 -4.09575 -2.15696 0
M  V30 18274 C 276.128 -3.24249 -1.08435 0
M  V30 18275 O 276.038 -3.63946 0.0628747 0
M  V30 18276 N 276.088 -1.90009 -1.39973 0
M  V30 18277 C 276.178 -1.34884 -2.65614 0
M  V30 18278 C 276.328 -2.3145 -3.71736 0
M  V30 18279 C 276.378 -3.63518 -3.44754 0
M  V30 18280 H 279.119 -7.45402 -4.45526 0
M  V30 18281 H 279.388 -5.86062 -3.67208 0
M  V30 18282 H 278.521 -7.84412 -2.24479 0
M  V30 18283 H 275.866 -5.73358 -0.888409 0
M  V30 18284 H 275.587 -5.90877 -3.88583 0
M  V30 18285 H 274.595 -6.65867 -2.58821 0
M  V30 18286 H 276.429 -8.16248 -3.92006 0
M  V30 18287 H 276.5 -4.34551 -4.26383 0
M  V30 18288 P 274.558 -8.7635 -1.60911 0
M  V30 18289 O 274.338 -10.1388 -1.11561 0
M  V30 18290 O 273.768 -8.36503 -2.79617 0
M  V30 18291 O 274.308 -7.71806 -0.42951 0
M  V30 18292 C 275.248 -7.67148 0.673689 0
M  V30 18293 C 274.518 -7.33374 1.95559 0
M  V30 18294 O 274.308 -5.88721 2.00726 0
M  V30 18295 C 273.118 -7.92526 2.10483 0
M  V30 18296 O 272.728 -8.02971 3.47653 0
M  V30 18297 C 272.238 -6.89602 1.41652 0
M  V30 18298 C 272.948 -5.59201 1.75185 0
M  V30 18299 N 272.898 -4.58235 0.662552 0
M  V30 18300 C 272.978 -4.7683 -0.704049 0
M  V30 18301 N 272.898 -3.66233 -1.39775 0
M  V30 18302 C 272.758 -2.66526 -0.431739 0
M  V30 18303 C 272.628 -1.26394 -0.575992 0
M  V30 18304 O 272.608 -0.589894 -1.60503 0
M  V30 18305 N 272.508 -0.62859 0.67177 0
M  V30 18306 C 272.508 -1.27134 1.89385 0
M  V30 18307 N 272.378 -0.492035 2.96951 0
M  V30 18308 N 272.638 -2.58978 2.02907 0
M  V30 18309 C 272.758 -3.22433 0.832218 0
M  V30 18310 H 275.737 -8.65116 0.777161 0
M  V30 18311 H 276.009 -6.90173 0.474152 0
M  V30 18312 H 275.141 -7.66548 2.79458 0
M  V30 18313 H 272.486 -5.16254 2.65229 0
M  V30 18314 H 272.206 -7.06532 0.329431 0
M  V30 18315 H 271.215 -6.91023 1.82047 0
M  V30 18316 H 273.049 -8.90971 1.62675 0
M  V30 18317 H 273.098 -5.74954 -1.16305 0
M  V30 18318 H 272.416 0.366713 0.674793 0
M  V30 18319 H 272.379 -0.908532 3.91188 0
M  V30 18320 H 272.278 0.528253 2.85758 0
M  V30 18321 P 271.178 -8.03563 3.84925 0
M  V30 18322 O 270.958 -8.85821 5.0569 0
M  V30 18323 O 270.388 -8.41101 2.65469 0
M  V30 18324 O 270.928 -6.4965 4.18908 0
M  V30 18325 C 271.868 -5.81037 5.05421 0
M  V30 18326 C 271.138 -4.78366 5.89277 0
M  V30 18327 O 270.928 -3.58302 5.08433 0
M  V30 18328 C 269.738 -5.17448 6.36119 0
M  V30 18329 O 269.348 -4.45271 7.53232 0
M  V30 18330 C 268.858 -4.74639 5.19936 0
M  V30 18331 C 269.568 -3.49432 4.70418 0
M  V30 18332 N 269.518 -3.31776 3.22945 0
M  V30 18333 H 272.357 -6.54213 5.71376 0
M  V30 18334 H 272.629 -5.30492 4.44033 0
M  V30 18335 H 271.761 -4.55889 6.76652 0
M  V30 18336 P 267.798 -4.23843 7.83734 0
M  V30 18337 O 267.578 -4.19407 9.29784 0
M  V30 18338 O 267.008 -5.24426 7.09156 0
M  V30 18339 O 267.548 -2.7935 7.20758 0
M  V30 18340 C 268.488 -1.7299 7.50419 0
M  V30 18341 C 267.758 -0.406376 7.57911 0
M  V30 18342 O 267.548 0.0897726 6.21935 0
M  V30 18343 C 266.358 -0.447224 8.1878 0
M  V30 18344 O 265.968 0.825065 8.71101 0
M  V30 18345 C 265.478 -0.783801 6.99623 0
M  V30 18346 C 266.188 -0.0619192 5.85967 0
M  V30 18347 N 266.138 -0.7859 4.56281 0
M  V30 18348 H 268.977 -1.93423 8.4679 0
M  V30 18349 H 269.249 -1.68181 6.71046 0
M  V30 18350 H 268.381 0.289041 8.15388 0
M  V30 18351 P 264.418 1.17771 8.83182 0
M  V30 18352 O 264.198 2.07206 9.98732 0
M  V30 18353 O 263.628 -0.0743816 8.81969 0
M  V30 18354 O 264.168 1.97652 7.47304 0
M  V30 18355 C 265.108 3.01133 7.08783 0
M  V30 18356 C 264.378 4.12613 6.37049 0
M  V30 18357 O 264.168 3.72827 4.97879 0
M  V30 18358 C 262.978 4.45085 6.88694 0
M  V30 18359 O 262.588 5.7877 6.5624 0
M  V30 18360 C 262.098 3.47817 6.12078 0
M  V30 18361 C 262.808 3.39414 4.77697 0
M  V30 18362 N 262.758 2.04199 4.15538 0
M  V30 18363 H 265.597 3.41248 7.98759 0
M  V30 18364 H 265.869 2.57728 6.42 0
M  V30 18365 H 265.001 5.02657 6.42673 0
M  V30 18366 H 262.346 4.11708 4.08956 0
M  V30 18367 H 262.066 2.49626 6.61679 0
M  V30 18368 H 261.075 3.8662 6.00862 0
M  V30 18369 H 262.909 4.29991 7.97006 0
M  V30 18370 P 261.038 6.144 6.45285 0
M  V30 18371 O 260.818 7.54673 6.86199 0
M  V30 18372 O 260.248 5.12391 7.179 0
M  V30 18373 O 260.788 5.99158 4.88404 0
M  V30 18374 C 261.728 6.60234 3.96415 0
M  V30 18375 C 260.998 7.08259 2.72856 0
M  V30 18376 O 260.788 5.9427 1.83651 0
M  V30 18377 C 259.598 7.64886 2.9555 0
M  V30 18378 O 259.208 8.53963 1.90717 0
M  V30 18379 C 258.718 6.4116 2.90739 0
M  V30 18380 C 259.428 5.55375 1.86963 0
M  V30 18381 N 259.378 4.09448 2.16152 0
M  V30 18382 H 262.217 7.45574 4.45629 0
M  V30 18383 H 262.489 5.85864 3.679 0
M  V30 18384 H 261.621 7.84412 2.24479 0
M  V30 18385 H 258.966 5.73457 0.888562 0
M  V30 18386 H 258.686 5.90877 3.88583 0
M  V30 18387 H 257.695 6.6596 2.58858 0
M  V30 18388 H 259.529 8.16339 3.92049 0
M  V30 18389 P 257.658 8.7635 1.60911 0
M  V30 18390 O 257.438 10.1388 1.11561 0
M  V30 18391 O 256.868 8.36503 2.79617 0
M  V30 18392 O 257.408 7.71906 0.429565 0
M  V30 18393 C 258.348 7.67148 -0.673689 0
M  V30 18394 C 257.618 7.33666 -1.94851 0
M  V30 18395 O 257.408 5.88816 -2.00759 0
M  V30 18396 C 256.218 7.92526 -2.10483 0
M  V30 18397 O 255.828 8.03063 -3.47693 0
M  V30 18398 C 255.338 6.89602 -1.41652 0
M  V30 18399 C 256.048 5.59201 -1.75185 0
M  V30 18400 N 255.998 4.58235 -0.662552 0
M  V30 18401 C 255.848 3.24451 -1.01643 0
M  V30 18402 O 255.758 2.94958 -2.21722 0
M  V30 18403 N 255.798 2.30408 0.165238 0
M  V30 18404 C 255.898 2.66048 1.25118 0
M  V30 18405 N 255.848 1.70787 2.16813 0
M  V30 18406 C 256.048 4.02732 1.64413 0
M  V30 18407 C 256.098 4.9488 0.63991 0
M  V30 18408 H 258.838 8.65017 -0.777072 0
M  V30 18409 H 259.108 6.90173 -0.474152 0
M  V30 18410 H 258.241 7.66642 -2.79492 0
M  V30 18411 H 255.586 5.16254 -2.65229 0
M  V30 18412 H 255.306 7.06532 -0.329431 0
M  V30 18413 H 254.315 6.91023 -1.82047 0
M  V30 18414 H 256.149 8.90873 -1.62657 0
M  V30 18415 H 256.221 6.00104 0.892197 0
M  V30 18416 H 256.119 4.31733 2.69229 0
M  V30 18417 H 255.731 0.724835 1.8844 0
M  V30 18418 H 255.927 1.94716 3.16734 0
M  V30 18419 P 254.279 8.03563 -3.84925 0
M  V30 18420 O 254.059 8.85821 -5.0569 0
M  V30 18421 O 253.489 8.41101 -2.65469 0
M  V30 18422 O 254.029 6.4965 -4.18908 0
M  V30 18423 C 254.969 5.81037 -5.05421 0
M  V30 18424 C 254.239 4.78366 -5.89277 0
M  V30 18425 O 254.029 3.58302 -5.08433 0
M  V30 18426 C 252.839 5.17448 -6.36119 0
M  V30 18427 O 252.449 4.45271 -7.53232 0
M  V30 18428 C 251.959 4.74639 -5.19936 0
M  V30 18429 C 252.669 3.49432 -4.70418 0
M  V30 18430 N 252.619 3.31776 -3.22945 0
M  V30 18431 H 255.458 6.54213 -5.71376 0
M  V30 18432 H 255.73 5.30492 -4.44033 0
M  V30 18433 H 254.862 4.55889 -6.76652 0
M  V30 18434 P 250.899 4.23843 -7.83734 0
M  V30 18435 O 250.679 4.19407 -9.29784 0
M  V30 18436 O 250.109 5.24426 -7.09156 0
M  V30 18437 O 250.649 2.7935 -7.20758 0
M  V30 18438 C 251.589 1.7299 -7.50419 0
M  V30 18439 C 250.859 0.406376 -7.57911 0
M  V30 18440 O 250.649 -0.0897726 -6.21935 0
M  V30 18441 C 249.459 0.447224 -8.1878 0
M  V30 18442 O 249.069 -0.825065 -8.71101 0
M  V30 18443 C 248.579 0.783801 -6.99623 0
M  V30 18444 C 249.289 0.0619192 -5.85967 0
M  V30 18445 N 249.239 0.7859 -4.56281 0
M  V30 18446 H 252.078 1.93423 -8.4679 0
M  V30 18447 H 252.35 1.68181 -6.71046 0
M  V30 18448 H 251.482 -0.289041 -8.15388 0
M  V30 18449 P 247.519 -1.17771 -8.83182 0
M  V30 18450 O 247.299 -2.07206 -9.98732 0
M  V30 18451 O 246.729 0.0743816 -8.81969 0
M  V30 18452 O 247.269 -1.97678 -7.474 0
M  V30 18453 C 248.209 -3.01133 -7.08783 0
M  V30 18454 C 247.479 -4.1203 -6.37546 0
M  V30 18455 O 247.269 -3.72887 -4.9796 0
M  V30 18456 C 246.079 -4.45085 -6.88694 0
M  V30 18457 O 245.689 -5.78836 -6.56315 0
M  V30 18458 C 245.199 -3.47817 -6.12078 0
M  V30 18459 C 245.909 -3.39414 -4.77697 0
M  V30 18460 N 245.859 -2.04615 -4.15333 0
M  V30 18461 C 245.709 -1.96929 -2.77162 0
M  V30 18462 O 245.619 -3.02017 -2.12006 0
M  V30 18463 N 245.659 -0.55485 -2.24237 0
M  V30 18464 C 245.759 0.367808 -2.9169 0
M  V30 18465 N 245.709 1.53426 -2.29427 0
M  V30 18466 C 245.909 0.319148 -4.33828 0
M  V30 18467 C 245.959 -0.920672 -4.90433 0
M  V30 18468 H 248.699 -3.41209 -7.98667 0
M  V30 18469 H 248.969 -2.5837 -6.41742 0
M  V30 18470 H 248.102 -5.02718 -6.42752 0
M  V30 18471 H 245.447 -4.11779 -4.09026 0
M  V30 18472 H 245.167 -2.49661 -6.61772 0
M  V30 18473 H 244.176 -3.86674 -6.00946 0
M  V30 18474 H 246.01 -4.29991 -7.97006 0
M  V30 18475 H 246.082 -1.00589 -5.98303 0
M  V30 18476 H 245.98 1.22639 -4.93799 0
M  V30 18477 H 245.592 1.56819 -1.27167 0
M  V30 18478 H 245.788 2.41062 -2.83063 0
M  V30 18479 P 244.139 -6.144 -6.45285 0
M  V30 18480 O 243.919 -7.54673 -6.86199 0
M  V30 18481 O 243.349 -5.12391 -7.179 0
M  V30 18482 O 243.889 -5.99158 -4.88404 0
M  V30 18483 C 244.829 -6.60234 -3.96415 0
M  V30 18484 C 244.099 -7.08259 -2.72856 0
M  V30 18485 O 243.889 -5.9427 -1.83651 0
M  V30 18486 C 242.699 -7.64886 -2.9555 0
M  V30 18487 O 242.309 -8.53963 -1.90717 0
M  V30 18488 C 241.819 -6.4116 -2.90739 0
M  V30 18489 C 242.529 -5.55375 -1.86963 0
M  V30 18490 N 242.479 -4.09664 -2.15742 0
M  V30 18491 H 245.318 -7.45574 -4.45629 0
M  V30 18492 H 245.59 -5.86232 -3.67314 0
M  V30 18493 H 244.722 -7.84412 -2.24479 0
M  V30 18494 P 240.759 -8.7635 -1.60911 0
M  V30 18495 O 240.539 -10.1388 -1.11561 0
M  V30 18496 O 239.969 -8.36503 -2.79617 0
M  V30 18497 O 240.509 -7.71806 -0.42951 0
M  V30 18498 C 241.449 -7.67148 0.673689 0
M  V30 18499 C 240.719 -7.33374 1.95559 0
M  V30 18500 O 240.509 -5.88721 2.00726 0
M  V30 18501 C 239.319 -7.92526 2.10483 0
M  V30 18502 O 238.929 -8.02971 3.47653 0
M  V30 18503 C 238.439 -6.89602 1.41652 0
M  V30 18504 C 239.149 -5.59201 1.75185 0
M  V30 18505 N 239.099 -4.58235 0.662552 0
M  V30 18506 C 239.179 -4.7683 -0.704049 0
M  V30 18507 N 239.099 -3.66233 -1.39775 0
M  V30 18508 C 238.959 -2.66526 -0.431739 0
M  V30 18509 C 238.829 -1.26394 -0.575992 0
M  V30 18510 O 238.809 -0.589894 -1.60503 0
M  V30 18511 N 238.709 -0.62859 0.67177 0
M  V30 18512 C 238.709 -1.27134 1.89385 0
M  V30 18513 N 238.579 -0.492035 2.96951 0
M  V30 18514 N 238.839 -2.58978 2.02907 0
M  V30 18515 C 238.959 -3.22433 0.832218 0
M  V30 18516 H 241.938 -8.65116 0.777161 0
M  V30 18517 H 242.21 -6.90173 0.474152 0
M  V30 18518 H 241.342 -7.66548 2.79458 0
M  V30 18519 H 238.687 -5.16254 2.65229 0
M  V30 18520 H 238.407 -7.06532 0.329431 0
M  V30 18521 H 237.416 -6.91023 1.82047 0
M  V30 18522 H 239.25 -8.90971 1.62675 0
M  V30 18523 H 239.299 -5.74954 -1.16305 0
M  V30 18524 H 238.617 0.366713 0.674793 0
M  V30 18525 H 238.58 -0.908532 3.91188 0
M  V30 18526 H 238.479 0.528253 2.85758 0
M  V30 18527 P 237.379 -8.03563 3.84925 0
M  V30 18528 O 237.159 -8.85821 5.0569 0
M  V30 18529 O 236.589 -8.41101 2.65469 0
M  V30 18530 O 237.129 -6.49734 4.18962 0
M  V30 18531 C 238.069 -5.81037 5.05421 0
M  V30 18532 C 237.339 -4.79018 5.88876 0
M  V30 18533 O 237.129 -3.58359 5.08515 0
M  V30 18534 C 235.939 -5.17448 6.36119 0
M  V30 18535 O 235.549 -4.45322 7.53318 0
M  V30 18536 C 235.059 -4.74639 5.19936 0
M  V30 18537 C 235.769 -3.49432 4.70418 0
M  V30 18538 N 235.719 -3.31776 3.22945 0
M  V30 18539 C 235.569 -2.02742 2.72939 0
M  V30 18540 O 235.479 -1.08301 3.52749 0
M  V30 18541 N 235.519 -1.96117 1.22063 0
M  V30 18542 C 235.619 -2.8878 0.551566 0
M  V30 18543 N 235.569 -2.65609 -0.750198 0
M  V30 18544 C 235.769 -4.22457 1.03707 0
M  V30 18545 C 235.819 -4.37979 2.39113 0
M  V30 18546 H 238.559 -6.54138 5.7131 0
M  V30 18547 H 238.829 -5.30492 4.44033 0
M  V30 18548 H 237.962 -4.55945 6.76735 0
M  V30 18549 H 235.307 -2.6176 5.18021 0
M  V30 18550 H 235.027 -5.52233 4.41941 0
M  V30 18551 H 234.036 -4.52045 5.53452 0
M  V30 18552 H 235.87 -6.25124 6.55234 0
M  V30 18553 H 235.942 -5.37936 2.80552 0
M  V30 18554 H 235.84 -5.07528 0.359553 0
M  V30 18555 H 235.452 -1.69403 -1.09847 0
M  V30 18556 H 235.648 -3.43701 -1.41792 0
M  V30 18557 P 233.999 -4.23843 7.83734 0
M  V30 18558 O 233.779 -4.19407 9.29784 0
M  V30 18559 O 233.209 -5.24426 7.09156 0
M  V30 18560 O 233.749 -2.7935 7.20758 0
M  V30 18561 C 234.689 -1.7299 7.50419 0
M  V30 18562 C 233.959 -0.406376 7.57911 0
M  V30 18563 O 233.749 0.0897726 6.21935 0
M  V30 18564 C 232.559 -0.447224 8.1878 0
M  V30 18565 O 232.169 0.825065 8.71101 0
M  V30 18566 C 231.679 -0.783801 6.99623 0
M  V30 18567 C 232.389 -0.0619192 5.85967 0
M  V30 18568 N 232.339 -0.790462 4.56202 0
M  V30 18569 H 235.178 -1.93423 8.4679 0
M  V30 18570 H 235.45 -1.68852 6.70877 0
M  V30 18571 H 234.582 0.289041 8.15388 0
M  V30 18572 H 231.927 0.927006 5.72848 0
M  V30 18573 H 231.647 -1.86973 6.82036 0
M  V30 18574 H 230.656 -0.403953 7.13357 0
M  V30 18575 H 232.49 -1.20599 8.97534 0
M  V30 18576 P 230.619 1.17771 8.83182 0
M  V30 18577 O 230.399 2.07206 9.98732 0
M  V30 18578 O 229.829 -0.0743816 8.81969 0
M  V30 18579 O 230.369 1.97652 7.47304 0
M  V30 18580 C 231.309 3.01133 7.08783 0
M  V30 18581 C 230.579 4.12613 6.37049 0
M  V30 18582 O 230.369 3.72827 4.97879 0
M  V30 18583 C 229.179 4.45085 6.88694 0
M  V30 18584 O 228.789 5.7877 6.5624 0
M  V30 18585 C 228.299 3.47817 6.12078 0
M  V30 18586 C 229.009 3.39414 4.77697 0
M  V30 18587 N 228.959 2.04199 4.15538 0
M  V30 18588 C 229.039 0.821545 4.76977 0
M  V30 18589 N 228.969 -0.1794 3.94592 0
M  V30 18590 C 228.819 0.419121 2.70776 0
M  V30 18591 C 228.689 -0.109072 1.40577 0
M  V30 18592 N 228.679 -1.4104 1.1344 0
M  V30 18593 N 228.569 0.764381 0.39411 0
M  V30 18594 C 228.579 2.06587 0.664135 0
M  V30 18595 N 228.699 2.67948 1.82153 0
M  V30 18596 C 228.819 1.77942 2.8147 0
M  V30 18597 H 231.798 3.41248 7.98759 0
M  V30 18598 H 232.07 2.57728 6.42 0
M  V30 18599 H 231.202 5.02657 6.42673 0
M  V30 18600 H 228.547 4.11708 4.08956 0
M  V30 18601 H 228.267 2.49626 6.61679 0
M  V30 18602 H 227.276 3.8662 6.00862 0
M  V30 18603 H 229.11 4.29991 7.97006 0
M  V30 18604 H 229.151 0.702451 5.84696 0
M  V30 18605 H 228.77 -2.09647 1.89651 0
M  V30 18606 H 228.581 -1.73358 0.160575 0
M  V30 18607 H 228.473 2.71695 -0.195838 0
M  V30 18608 P 227.239 6.144 6.45285 0
M  V30 18609 O 227.019 7.54673 6.86199 0
M  V30 18610 O 226.449 5.12391 7.179 0
M  V30 18611 O 226.989 5.99158 4.88404 0
M  V30 18612 C 227.929 6.60234 3.96415 0
M  V30 18613 C 227.199 7.08259 2.72856 0
M  V30 18614 O 226.989 5.9427 1.83651 0
M  V30 18615 C 225.799 7.64886 2.9555 0
M  V30 18616 O 225.409 8.53963 1.90717 0
M  V30 18617 C 224.919 6.4116 2.90739 0
M  V30 18618 C 225.629 5.55375 1.86963 0
M  V30 18619 N 225.579 4.09664 2.15742 0
M  V30 18620 H 228.418 7.45574 4.45629 0
M  V30 18621 H 228.69 5.86232 3.67314 0
M  V30 18622 H 227.822 7.84412 2.24479 0
M  V30 18623 P 223.859 8.7635 1.60911 0
M  V30 18624 O 223.639 10.1388 1.11561 0
M  V30 18625 O 223.069 8.36503 2.79617 0
M  V30 18626 O 223.609 7.71806 0.42951 0
M  V30 18627 C 224.549 7.67148 -0.673689 0
M  V30 18628 C 223.819 7.33374 -1.95559 0
M  V30 18629 O 223.609 5.88721 -2.00726 0
M  V30 18630 C 222.419 7.92526 -2.10483 0
M  V30 18631 O 222.029 8.02971 -3.47653 0
M  V30 18632 C 221.539 6.89602 -1.41652 0
M  V30 18633 C 222.249 5.59201 -1.75185 0
M  V30 18634 N 222.199 4.58235 -0.662552 0
M  V30 18635 H 225.038 8.65116 -0.777161 0
M  V30 18636 H 225.31 6.90173 -0.474152 0
M  V30 18637 H 224.442 7.66548 -2.79458 0
M  V30 18638 P 220.479 8.03563 -3.84925 0
M  V30 18639 O 220.259 8.85821 -5.0569 0
M  V30 18640 O 219.689 8.41101 -2.65469 0
M  V30 18641 O 220.229 6.4965 -4.18908 0
M  V30 18642 C 221.169 5.81037 -5.05421 0
M  V30 18643 C 220.439 4.78366 -5.89277 0
M  V30 18644 O 220.229 3.58302 -5.08433 0
M  V30 18645 C 219.039 5.17448 -6.36119 0
M  V30 18646 O 218.649 4.45271 -7.53232 0
M  V30 18647 C 218.159 4.74639 -5.19936 0
M  V30 18648 C 218.869 3.49432 -4.70418 0
M  V30 18649 N 218.819 3.31776 -3.22945 0
M  V30 18650 H 221.658 6.54213 -5.71376 0
M  V30 18651 H 221.93 5.30492 -4.44033 0
M  V30 18652 H 221.062 4.55889 -6.76652 0
M  V30 18653 P 217.099 4.23843 -7.83734 0
M  V30 18654 O 216.879 4.19407 -9.29784 0
M  V30 18655 O 216.309 5.24426 -7.09156 0
M  V30 18656 O 216.849 2.7935 -7.20758 0
M  V30 18657 C 217.789 1.7299 -7.50419 0
M  V30 18658 C 217.059 0.406376 -7.57911 0
M  V30 18659 O 216.849 -0.0897726 -6.21935 0
M  V30 18660 C 215.659 0.447224 -8.1878 0
M  V30 18661 O 215.269 -0.825065 -8.71101 0
M  V30 18662 C 214.779 0.783801 -6.99623 0
M  V30 18663 C 215.489 0.0619192 -5.85967 0
M  V30 18664 N 215.439 0.7859 -4.56281 0
M  V30 18665 H 218.278 1.93423 -8.4679 0
M  V30 18666 H 218.55 1.68181 -6.71046 0
M  V30 18667 H 217.682 -0.289041 -8.15388 0
M  V30 18668 P 213.719 -1.17771 -8.83182 0
M  V30 18669 O 213.499 -2.07206 -9.98732 0
M  V30 18670 O 212.929 0.0743816 -8.81969 0
M  V30 18671 O 213.469 -1.97678 -7.474 0
M  V30 18672 C 214.409 -3.01133 -7.08783 0
M  V30 18673 C 213.679 -4.1203 -6.37546 0
M  V30 18674 O 213.469 -3.72887 -4.9796 0
M  V30 18675 C 212.279 -4.45085 -6.88694 0
M  V30 18676 O 211.889 -5.78836 -6.56315 0
M  V30 18677 C 211.399 -3.47817 -6.12078 0
M  V30 18678 C 212.109 -3.39414 -4.77697 0
M  V30 18679 N 212.059 -2.04615 -4.15333 0
M  V30 18680 C 211.909 -1.96929 -2.77162 0
M  V30 18681 O 211.819 -3.02017 -2.12006 0
M  V30 18682 N 211.859 -0.55485 -2.24237 0
M  V30 18683 C 211.959 0.367808 -2.9169 0
M  V30 18684 N 211.909 1.53426 -2.29427 0
M  V30 18685 C 212.109 0.319148 -4.33828 0
M  V30 18686 C 212.159 -0.920672 -4.90433 0
M  V30 18687 H 214.899 -3.41209 -7.98667 0
M  V30 18688 H 215.169 -2.5837 -6.41742 0
M  V30 18689 H 214.302 -5.02718 -6.42752 0
M  V30 18690 H 211.647 -4.11779 -4.09026 0
M  V30 18691 H 211.367 -2.49661 -6.61772 0
M  V30 18692 H 210.376 -3.86674 -6.00946 0
M  V30 18693 H 212.21 -4.29991 -7.97006 0
M  V30 18694 H 212.282 -1.00589 -5.98303 0
M  V30 18695 H 212.18 1.22639 -4.93799 0
M  V30 18696 H 211.792 1.56819 -1.27167 0
M  V30 18697 H 211.988 2.41062 -2.83063 0
M  V30 18698 P 210.339 -6.144 -6.45285 0
M  V30 18699 O 210.119 -7.54673 -6.86199 0
M  V30 18700 O 209.549 -5.12391 -7.179 0
M  V30 18701 O 210.089 -5.99158 -4.88404 0
M  V30 18702 C 211.029 -6.60234 -3.96415 0
M  V30 18703 C 210.299 -7.08259 -2.72856 0
M  V30 18704 O 210.089 -5.9427 -1.83651 0
M  V30 18705 C 208.899 -7.64886 -2.9555 0
M  V30 18706 O 208.509 -8.53963 -1.90717 0
M  V30 18707 C 208.019 -6.4116 -2.90739 0
M  V30 18708 C 208.729 -5.55375 -1.86963 0
M  V30 18709 N 208.679 -4.09448 -2.16152 0
M  V30 18710 H 211.518 -7.45574 -4.45629 0
M  V30 18711 H 211.79 -5.85864 -3.679 0
M  V30 18712 H 210.922 -7.84412 -2.24479 0
M  V30 18713 H 208.267 -5.73457 -0.888562 0
M  V30 18714 H 207.987 -5.90877 -3.88583 0
M  V30 18715 H 206.996 -6.6596 -2.58858 0
M  V30 18716 H 208.83 -8.16339 -3.92049 0
M  V30 18717 P 206.959 -8.7635 -1.60911 0
M  V30 18718 O 206.739 -10.1388 -1.11561 0
M  V30 18719 O 206.169 -8.36503 -2.79617 0
M  V30 18720 O 206.709 -7.71806 -0.42951 0
M  V30 18721 C 207.649 -7.67148 0.673689 0
M  V30 18722 C 206.919 -7.33374 1.95559 0
M  V30 18723 O 206.709 -5.88721 2.00726 0
M  V30 18724 C 205.519 -7.92526 2.10483 0
M  V30 18725 O 205.129 -8.02971 3.47653 0
M  V30 18726 C 204.639 -6.89602 1.41652 0
M  V30 18727 C 205.349 -5.59201 1.75185 0
M  V30 18728 N 205.299 -4.58301 0.657969 0
M  V30 18729 H 208.138 -8.65116 0.777161 0
M  V30 18730 H 208.41 -6.9022 0.46725 0
M  V30 18731 H 207.542 -7.66548 2.79458 0
M  V30 18732 H 204.887 -5.16165 2.65183 0
M  V30 18733 H 204.607 -7.06433 0.329384 0
M  V30 18734 H 203.616 -6.90926 1.82021 0
M  V30 18735 H 205.45 -8.90873 1.62657 0
M  V30 18736 P 203.579 -8.03563 3.84925 0
M  V30 18737 O 203.359 -8.85821 5.0569 0
M  V30 18738 O 202.789 -8.41101 2.65469 0
M  V30 18739 O 203.329 -6.4965 4.18908 0
M  V30 18740 C 204.269 -5.81037 5.05421 0
M  V30 18741 C 203.539 -4.78366 5.89277 0
M  V30 18742 O 203.329 -3.58302 5.08433 0
M  V30 18743 C 202.139 -5.17448 6.36119 0
M  V30 18744 O 201.749 -4.45271 7.53232 0
M  V30 18745 C 201.259 -4.74639 5.19936 0
M  V30 18746 C 201.969 -3.49432 4.70418 0
M  V30 18747 N 201.919 -3.32099 3.22613 0
M  V30 18748 H 204.758 -6.54213 5.71376 0
M  V30 18749 H 205.03 -5.30936 4.43503 0
M  V30 18750 H 204.162 -4.55889 6.76652 0
M  V30 18751 H 201.507 -2.61715 5.17932 0
M  V30 18752 H 201.227 -5.52155 4.41878 0
M  V30 18753 H 200.236 -4.51981 5.53374 0
M  V30 18754 H 202.07 -6.25124 6.55234 0
M  V30 18755 P 200.199 -4.23843 7.83734 0
M  V30 18756 O 199.979 -4.19407 9.29784 0
M  V30 18757 O 199.409 -5.24426 7.09156 0
M  V30 18758 O 199.949 -2.7935 7.20758 0
M  V30 18759 C 200.889 -1.7299 7.50419 0
M  V30 18760 C 200.159 -0.406376 7.57911 0
M  V30 18761 O 199.949 0.0897726 6.21935 0
M  V30 18762 C 198.759 -0.447224 8.1878 0
M  V30 18763 O 198.369 0.825065 8.71101 0
M  V30 18764 C 197.879 -0.783801 6.99623 0
M  V30 18765 C 198.589 -0.0619192 5.85967 0
M  V30 18766 N 198.539 -0.7859 4.56281 0
M  V30 18767 H 201.378 -1.93423 8.4679 0
M  V30 18768 H 201.65 -1.68181 6.71046 0
M  V30 18769 H 200.782 0.289041 8.15388 0
M  V30 18770 P 196.819 1.17771 8.83182 0
M  V30 18771 O 196.599 2.07206 9.98732 0
M  V30 18772 O 196.029 -0.0743816 8.81969 0
M  V30 18773 O 196.569 1.97652 7.47304 0
M  V30 18774 C 197.509 3.01133 7.08783 0
M  V30 18775 C 196.779 4.12613 6.37049 0
M  V30 18776 O 196.569 3.72827 4.97879 0
M  V30 18777 C 195.379 4.45085 6.88694 0
M  V30 18778 O 194.989 5.7877 6.5624 0
M  V30 18779 C 194.499 3.47817 6.12078 0
M  V30 18780 C 195.209 3.39414 4.77697 0
M  V30 18781 N 195.159 2.04615 4.15333 0
M  V30 18782 H 197.998 3.41248 7.98759 0
M  V30 18783 H 198.27 2.5837 6.41742 0
M  V30 18784 H 197.402 5.02657 6.42673 0
M  V30 18785 P 193.439 6.144 6.45285 0
M  V30 18786 O 193.219 7.54673 6.86199 0
M  V30 18787 O 192.649 5.12391 7.179 0
M  V30 18788 O 193.189 5.99158 4.88404 0
M  V30 18789 C 194.129 6.60234 3.96415 0
M  V30 18790 C 193.399 7.08259 2.72856 0
M  V30 18791 O 193.189 5.9427 1.83651 0
M  V30 18792 C 191.999 7.64886 2.9555 0
M  V30 18793 O 191.609 8.53963 1.90717 0
M  V30 18794 C 191.119 6.4116 2.90739 0
M  V30 18795 C 191.829 5.55375 1.86963 0
M  V30 18796 N 191.779 4.09664 2.15742 0
M  V30 18797 H 194.618 7.45574 4.45629 0
M  V30 18798 H 194.89 5.86232 3.67314 0
M  V30 18799 H 194.022 7.84412 2.24479 0
M  V30 18800 P 190.059 8.7635 1.60911 0
M  V30 18801 O 189.839 10.1388 1.11561 0
M  V30 18802 O 189.269 8.36503 2.79617 0
M  V30 18803 O 189.809 7.71806 0.42951 0
M  V30 18804 C 190.749 7.67148 -0.673689 0
M  V30 18805 C 190.019 7.33374 -1.95559 0
M  V30 18806 O 189.809 5.88721 -2.00726 0
M  V30 18807 C 188.619 7.92526 -2.10483 0
M  V30 18808 O 188.229 8.02971 -3.47653 0
M  V30 18809 C 187.739 6.89602 -1.41652 0
M  V30 18810 C 188.449 5.59201 -1.75185 0
M  V30 18811 N 188.399 4.58235 -0.662552 0
M  V30 18812 H 191.238 8.65116 -0.777161 0
M  V30 18813 H 191.51 6.90173 -0.474152 0
M  V30 18814 H 190.642 7.66548 -2.79458 0
M  V30 18815 P 186.679 8.03563 -3.84925 0
M  V30 18816 O 186.459 8.85821 -5.0569 0
M  V30 18817 O 185.889 8.41101 -2.65469 0
M  V30 18818 O 186.429 6.4965 -4.18908 0
M  V30 18819 C 187.369 5.81037 -5.05421 0
M  V30 18820 C 186.639 4.78366 -5.89277 0
M  V30 18821 O 186.429 3.58302 -5.08433 0
M  V30 18822 C 185.239 5.17448 -6.36119 0
M  V30 18823 O 184.849 4.45271 -7.53232 0
M  V30 18824 C 184.359 4.74639 -5.19936 0
M  V30 18825 C 185.069 3.49432 -4.70418 0
M  V30 18826 N 185.019 3.32099 -3.22613 0
M  V30 18827 C 185.099 4.28245 -2.25527 0
M  V30 18828 N 185.029 3.80823 -1.04874 0
M  V30 18829 C 184.879 2.44571 -1.23535 0
M  V30 18830 C 184.749 1.37068 -0.330675 0
M  V30 18831 N 184.739 1.51472 0.990824 0
M  V30 18832 N 184.629 0.138614 -0.848756 0
M  V30 18833 C 184.639 -0.00675923 -2.16999 0
M  V30 18834 N 184.759 0.904372 -3.11122 0
M  V30 18835 C 184.879 2.12707 -2.56212 0
M  V30 18836 H 187.858 6.54213 -5.71376 0
M  V30 18837 H 188.13 5.30936 -4.43503 0
M  V30 18838 H 187.262 4.55889 -6.76652 0
M  V30 18839 H 184.607 2.61715 -5.17932 0
M  V30 18840 H 184.327 5.52155 -4.41878 0
M  V30 18841 H 183.336 4.51981 -5.53374 0
M  V30 18842 H 185.17 6.25124 -6.55234 0
M  V30 18843 H 185.211 5.34372 -2.47488 0
M  V30 18844 H 184.83 2.45153 1.4078 0
M  V30 18845 H 184.641 0.688422 1.59911 0
M  V30 18846 H 184.533 -1.02584 -2.52346 0
M  V30 18847 P 183.299 4.23843 -7.83734 0
M  V30 18848 O 183.079 4.19407 -9.29784 0
M  V30 18849 O 182.509 5.24426 -7.09156 0
M  V30 18850 O 183.049 2.7935 -7.20758 0
M  V30 18851 C 183.989 1.7299 -7.50419 0
M  V30 18852 C 183.259 0.406376 -7.57911 0
M  V30 18853 O 183.049 -0.0897726 -6.21935 0
M  V30 18854 C 181.859 0.447224 -8.1878 0
M  V30 18855 O 181.469 -0.825065 -8.71101 0
M  V30 18856 C 180.979 0.783801 -6.99623 0
M  V30 18857 C 181.689 0.0619192 -5.85967 0
M  V30 18858 N 181.639 0.7859 -4.56281 0
M  V30 18859 H 184.478 1.93423 -8.4679 0
M  V30 18860 H 184.75 1.68181 -6.71046 0
M  V30 18861 H 183.882 -0.289041 -8.15388 0
M  V30 18862 P 179.919 -1.17771 -8.83182 0
M  V30 18863 O 179.699 -2.07206 -9.98732 0
M  V30 18864 O 179.129 0.0743816 -8.81969 0
M  V30 18865 O 179.669 -1.97652 -7.47304 0
M  V30 18866 C 180.609 -3.01133 -7.08783 0
M  V30 18867 C 179.879 -4.12613 -6.37049 0
M  V30 18868 O 179.669 -3.72827 -4.97879 0
M  V30 18869 C 178.479 -4.45085 -6.88694 0
M  V30 18870 O 178.089 -5.7877 -6.5624 0
M  V30 18871 C 177.599 -3.47817 -6.12078 0
M  V30 18872 C 178.309 -3.39414 -4.77697 0
M  V30 18873 N 178.259 -2.04615 -4.15333 0
M  V30 18874 C 178.339 -0.803897 -4.75249 0
M  V30 18875 N 178.259 0.197615 -3.91502 0
M  V30 18876 C 178.119 -0.413002 -2.66823 0
M  V30 18877 C 177.989 0.157221 -1.38007 0
M  V30 18878 O 177.969 1.34419 -1.057 0
M  V30 18879 N 177.869 -0.833136 -0.390236 0
M  V30 18880 C 177.869 -2.19402 -0.623885 0
M  V30 18881 N 177.739 -2.97622 0.449677 0
M  V30 18882 N 177.999 -2.73005 -1.83601 0
M  V30 18883 C 178.119 -1.78786 -2.80935 0
M  V30 18884 H 181.098 -3.41248 -7.98759 0
M  V30 18885 H 181.37 -2.5837 -6.41742 0
M  V30 18886 H 180.502 -5.02657 -6.42673 0
M  V30 18887 H 177.847 -4.11779 -4.09026 0
M  V30 18888 H 177.567 -2.49661 -6.61772 0
M  V30 18889 H 176.576 -3.86674 -6.00946 0
M  V30 18890 H 178.41 -4.30038 -7.97094 0
M  V30 18891 H 178.459 -0.670579 -5.82754 0
M  V30 18892 H 177.777 -0.528446 0.557287 0
M  V30 18893 H 177.74 -4.00117 0.344773 0
M  V30 18894 H 177.639 -2.55448 1.38544 0
M  V30 18895 P 176.539 -6.144 -6.45285 0
M  V30 18896 O 176.319 -7.54673 -6.86199 0
M  V30 18897 O 175.749 -5.12391 -7.179 0
M  V30 18898 O 176.289 -5.99158 -4.88404 0
M  V30 18899 C 177.229 -6.60234 -3.96415 0
M  V30 18900 C 176.499 -7.08259 -2.72856 0
M  V30 18901 O 176.289 -5.9427 -1.83651 0
M  V30 18902 C 175.099 -7.64886 -2.9555 0
M  V30 18903 O 174.709 -8.53963 -1.90717 0
M  V30 18904 C 174.219 -6.4116 -2.90739 0
M  V30 18905 C 174.929 -5.55375 -1.86963 0
M  V30 18906 N 174.879 -4.09664 -2.15742 0
M  V30 18907 C 174.959 -3.44381 -3.37233 0
M  V30 18908 N 174.879 -2.14131 -3.28347 0
M  V30 18909 C 174.739 -1.90247 -1.91588 0
M  V30 18910 C 174.609 -0.683992 -1.20892 0
M  V30 18911 N 174.489 -0.903396 0.173998 0
M  V30 18912 C 174.489 -2.14171 0.784879 0
M  V30 18913 N 174.359 -2.1435 2.11317 0
M  V30 18914 N 174.619 -3.28784 0.119316 0
M  V30 18915 C 174.739 -3.0977 -1.22194 0
M  V30 18916 H 177.718 -7.45574 -4.45629 0
M  V30 18917 H 177.99 -5.86232 -3.67314 0
M  V30 18918 H 177.122 -7.84412 -2.24479 0
M  V30 18919 P 173.159 -8.7635 -1.60911 0
M  V30 18920 O 172.939 -10.1388 -1.11561 0
M  V30 18921 O 172.369 -8.36503 -2.79617 0
M  V30 18922 O 172.909 -7.71906 -0.429565 0
M  V30 18923 C 173.849 -7.67148 0.673689 0
M  V30 18924 C 173.119 -7.33666 1.94851 0
M  V30 18925 O 172.909 -5.88816 2.00759 0
M  V30 18926 C 171.719 -7.92526 2.10483 0
M  V30 18927 O 171.329 -8.03063 3.47693 0
M  V30 18928 C 170.839 -6.89602 1.41652 0
M  V30 18929 C 171.549 -5.59201 1.75185 0
M  V30 18930 N 171.499 -4.58235 0.662552 0
M  V30 18931 C 171.349 -3.24451 1.01643 0
M  V30 18932 O 171.259 -2.94958 2.21722 0
M  V30 18933 N 171.299 -2.30408 -0.165238 0
M  V30 18934 C 171.399 -2.66048 -1.25118 0
M  V30 18935 N 171.349 -1.70787 -2.16813 0
M  V30 18936 C 171.549 -4.02732 -1.64413 0
M  V30 18937 C 171.599 -4.9488 -0.63991 0
M  V30 18938 H 174.339 -8.65017 0.777072 0
M  V30 18939 H 174.609 -6.90173 0.474152 0
M  V30 18940 H 173.742 -7.66642 2.79492 0
M  V30 18941 H 171.087 -5.16254 2.65229 0
M  V30 18942 H 170.807 -7.06532 0.329431 0
M  V30 18943 H 169.816 -6.91023 1.82047 0
M  V30 18944 H 171.65 -8.90873 1.62657 0
M  V30 18945 H 171.722 -6.00104 -0.892197 0
M  V30 18946 H 171.62 -4.31733 -2.69229 0
M  V30 18947 H 171.232 -0.724835 -1.8844 0
M  V30 18948 H 171.428 -1.94716 -3.16734 0
M  V30 18949 P 169.779 -8.03563 3.84925 0
M  V30 18950 O 169.559 -8.85821 5.0569 0
M  V30 18951 O 168.989 -8.41101 2.65469 0
M  V30 18952 O 169.529 -6.4965 4.18908 0
M  V30 18953 C 170.469 -5.81037 5.05421 0
M  V30 18954 C 169.739 -4.78366 5.89277 0
M  V30 18955 O 169.529 -3.58302 5.08433 0
M  V30 18956 C 168.339 -5.17448 6.36119 0
M  V30 18957 O 167.949 -4.45271 7.53232 0
M  V30 18958 C 167.459 -4.74639 5.19936 0
M  V30 18959 C 168.169 -3.49432 4.70418 0
M  V30 18960 N 168.119 -3.32099 3.22613 0
M  V30 18961 H 170.958 -6.54213 5.71376 0
M  V30 18962 H 171.23 -5.30936 4.43503 0
M  V30 18963 H 170.362 -4.55889 6.76652 0
M  V30 18964 H 167.707 -2.61715 5.17932 0
M  V30 18965 H 167.427 -5.52155 4.41878 0
M  V30 18966 H 166.436 -4.51981 5.53374 0
M  V30 18967 H 168.27 -6.25124 6.55234 0
M  V30 18968 P 166.399 -4.23843 7.83734 0
M  V30 18969 O 166.179 -4.19407 9.29784 0
M  V30 18970 O 165.609 -5.24426 7.09156 0
M  V30 18971 O 166.149 -2.7935 7.20758 0
M  V30 18972 C 167.089 -1.7299 7.50419 0
M  V30 18973 C 166.359 -0.406376 7.57911 0
M  V30 18974 O 166.149 0.0897726 6.21935 0
M  V30 18975 C 164.959 -0.447224 8.1878 0
M  V30 18976 O 164.569 0.825065 8.71101 0
M  V30 18977 C 164.079 -0.783801 6.99623 0
M  V30 18978 C 164.789 -0.0619192 5.85967 0
M  V30 18979 N 164.739 -0.790462 4.56202 0
M  V30 18980 C 164.819 -2.13895 4.34171 0
M  V30 18981 N 164.749 -2.46449 3.08687 0
M  V30 18982 C 164.599 -1.2525 2.43697 0
M  V30 18983 C 164.469 -0.914535 1.07318 0
M  V30 18984 N 164.459 -1.80782 0.0887348 0
M  V30 18985 N 164.349 0.386745 0.768133 0
M  V30 18986 C 164.359 1.28096 1.75159 0
M  V30 18987 N 164.479 1.09708 3.04861 0
M  V30 18988 C 164.599 -0.214857 3.32306 0
M  V30 18989 H 167.578 -1.93423 8.4679 0
M  V30 18990 H 167.85 -1.68852 6.70877 0
M  V30 18991 H 166.982 0.289041 8.15388 0
M  V30 18992 H 164.327 0.927006 5.72848 0
M  V30 18993 H 164.047 -1.86973 6.82036 0
M  V30 18994 H 163.056 -0.403953 7.13357 0
M  V30 18995 H 164.89 -1.20599 8.97534 0
M  V30 18996 H 164.931 -2.86846 5.14318 0
M  V30 18997 H 164.55 -2.81082 0.302037 0
M  V30 18998 H 164.361 -1.49688 -0.889064 0
M  V30 18999 H 164.253 2.31317 1.43855 0
M  V30 19000 P 163.019 1.17771 8.83182 0
M  V30 19001 O 162.799 2.07206 9.98732 0
M  V30 19002 O 162.229 -0.0743816 8.81969 0
M  V30 19003 O 162.769 1.97652 7.47304 0
M  V30 19004 C 163.709 3.01133 7.08783 0
M  V30 19005 C 162.979 4.12613 6.37049 0
M  V30 19006 O 162.769 3.72827 4.97879 0
M  V30 19007 C 161.579 4.45085 6.88694 0
M  V30 19008 O 161.189 5.7877 6.5624 0
M  V30 19009 C 160.699 3.47817 6.12078 0
M  V30 19010 C 161.409 3.39414 4.77697 0
M  V30 19011 N 161.359 2.04199 4.15538 0
M  V30 19012 H 164.198 3.41248 7.98759 0
M  V30 19013 H 164.47 2.57728 6.42 0
M  V30 19014 H 163.602 5.02657 6.42673 0
M  V30 19015 H 160.947 4.11708 4.08956 0
M  V30 19016 H 160.667 2.49626 6.61679 0
M  V30 19017 H 159.676 3.8662 6.00862 0
M  V30 19018 H 161.51 4.29991 7.97006 0
M  V30 19019 P 159.639 6.144 6.45285 0
M  V30 19020 O 159.419 7.54673 6.86199 0
M  V30 19021 O 158.849 5.12391 7.179 0
M  V30 19022 O 159.389 5.99158 4.88404 0
M  V30 19023 C 160.329 6.60234 3.96415 0
M  V30 19024 C 159.599 7.08259 2.72856 0
M  V30 19025 O 159.389 5.9427 1.83651 0
M  V30 19026 C 158.199 7.64886 2.9555 0
M  V30 19027 O 157.809 8.53963 1.90717 0
M  V30 19028 C 157.319 6.4116 2.90739 0
M  V30 19029 C 158.029 5.55375 1.86963 0
M  V30 19030 N 157.979 4.09664 2.15742 0
M  V30 19031 C 158.059 3.44381 3.37233 0
M  V30 19032 N 157.979 2.14131 3.28347 0
M  V30 19033 C 157.839 1.90247 1.91588 0
M  V30 19034 C 157.709 0.683992 1.20892 0
M  V30 19035 O 157.689 -0.46618 1.64523 0
M  V30 19036 N 157.589 0.903396 -0.173998 0
M  V30 19037 C 157.589 2.14171 -0.784879 0
M  V30 19038 N 157.459 2.1435 -2.11317 0
M  V30 19039 N 157.719 3.28784 -0.119316 0
M  V30 19040 C 157.839 3.0977 1.22194 0
M  V30 19041 H 160.818 7.45574 4.45629 0
M  V30 19042 H 161.09 5.86232 3.67314 0
M  V30 19043 H 160.222 7.84412 2.24479 0
M  V30 19044 H 157.567 5.73556 0.888715 0
M  V30 19045 H 157.287 5.9096 3.88638 0
M  V30 19046 H 156.296 6.66053 2.58894 0
M  V30 19047 H 158.13 8.16429 3.92093 0
M  V30 19048 H 158.179 3.96785 4.32043 0
M  V30 19049 H 157.497 0.0999567 -0.761467 0
M  V30 19050 H 157.46 3.03436 -2.63076 0
M  V30 19051 H 157.359 1.25228 -2.62233 0
M  V30 19052 P 156.259 8.7635 1.60911 0
M  V30 19053 O 156.039 10.1388 1.11561 0
M  V30 19054 O 155.469 8.36503 2.79617 0
M  V30 19055 O 156.009 7.71806 0.42951 0
M  V30 19056 C 156.949 7.67148 -0.673689 0
M  V30 19057 C 156.219 7.33374 -1.95559 0
M  V30 19058 O 156.009 5.88721 -2.00726 0
M  V30 19059 C 154.819 7.92526 -2.10483 0
M  V30 19060 O 154.429 8.02971 -3.47653 0
M  V30 19061 C 153.939 6.89602 -1.41652 0
M  V30 19062 C 154.649 5.59201 -1.75185 0
M  V30 19063 N 154.599 4.58235 -0.662552 0
M  V30 19064 H 157.438 8.65116 -0.777161 0
M  V30 19065 H 157.71 6.90173 -0.474152 0
M  V30 19066 H 156.842 7.66548 -2.79458 0
M  V30 19067 P 152.879 8.03563 -3.84925 0
M  V30 19068 O 152.659 8.85821 -5.0569 0
M  V30 19069 O 152.089 8.41101 -2.65469 0
M  V30 19070 O 152.629 6.4965 -4.18908 0
M  V30 19071 C 153.569 5.81037 -5.05421 0
M  V30 19072 C 152.839 4.78366 -5.89277 0
M  V30 19073 O 152.629 3.58302 -5.08433 0
M  V30 19074 C 151.439 5.17448 -6.36119 0
M  V30 19075 O 151.049 4.45271 -7.53232 0
M  V30 19076 C 150.559 4.74639 -5.19936 0
M  V30 19077 C 151.269 3.49432 -4.70418 0
M  V30 19078 N 151.219 3.31776 -3.22945 0
M  V30 19079 H 154.058 6.54213 -5.71376 0
M  V30 19080 H 154.33 5.30492 -4.44033 0
M  V30 19081 H 153.462 4.55889 -6.76652 0
M  V30 19082 P 149.499 4.23843 -7.83734 0
M  V30 19083 O 149.279 4.19407 -9.29784 0
M  V30 19084 O 148.709 5.24426 -7.09156 0
M  V30 19085 O 149.249 2.7935 -7.20758 0
M  V30 19086 C 150.189 1.7299 -7.50419 0
M  V30 19087 C 149.459 0.406376 -7.57911 0
M  V30 19088 O 149.249 -0.0897726 -6.21935 0
M  V30 19089 C 148.059 0.447224 -8.1878 0
M  V30 19090 O 147.669 -0.825065 -8.71101 0
M  V30 19091 C 147.179 0.783801 -6.99623 0
M  V30 19092 C 147.889 0.0619192 -5.85967 0
M  V30 19093 N 147.839 0.7859 -4.56281 0
M  V30 19094 H 150.678 1.93423 -8.4679 0
M  V30 19095 H 150.95 1.68181 -6.71046 0
M  V30 19096 H 150.082 -0.289041 -8.15388 0
M  V30 19097 P 146.119 -1.17771 -8.83182 0
M  V30 19098 O 145.899 -2.07206 -9.98732 0
M  V30 19099 O 145.329 0.0743816 -8.81969 0
M  V30 19100 O 145.869 -1.97652 -7.47304 0
M  V30 19101 C 146.809 -3.01133 -7.08783 0
M  V30 19102 C 146.079 -4.12613 -6.37049 0
M  V30 19103 O 145.869 -3.72827 -4.97879 0
M  V30 19104 C 144.679 -4.45085 -6.88694 0
M  V30 19105 O 144.289 -5.7877 -6.5624 0
M  V30 19106 C 143.799 -3.47817 -6.12078 0
M  V30 19107 C 144.509 -3.39414 -4.77697 0
M  V30 19108 N 144.459 -2.04615 -4.15333 0
M  V30 19109 H 147.298 -3.41248 -7.98759 0
M  V30 19110 H 147.57 -2.5837 -6.41742 0
M  V30 19111 H 146.702 -5.02657 -6.42673 0
M  V30 19112 P 142.739 -6.144 -6.45285 0
M  V30 19113 O 142.519 -7.54673 -6.86199 0
M  V30 19114 O 141.949 -5.12391 -7.179 0
M  V30 19115 O 142.489 -5.99158 -4.88404 0
M  V30 19116 C 143.429 -6.60234 -3.96415 0
M  V30 19117 C 142.699 -7.08259 -2.72856 0
M  V30 19118 O 142.489 -5.9427 -1.83651 0
M  V30 19119 C 141.299 -7.64886 -2.9555 0
M  V30 19120 O 140.909 -8.53963 -1.90717 0
M  V30 19121 C 140.419 -6.4116 -2.90739 0
M  V30 19122 C 141.129 -5.55375 -1.86963 0
M  V30 19123 N 141.079 -4.09448 -2.16152 0
M  V30 19124 H 143.918 -7.45574 -4.45629 0
M  V30 19125 H 144.19 -5.85864 -3.679 0
M  V30 19126 H 143.322 -7.84412 -2.24479 0
M  V30 19127 H 140.667 -5.73457 -0.888562 0
M  V30 19128 H 140.387 -5.90877 -3.88583 0
M  V30 19129 H 139.396 -6.6596 -2.58858 0
M  V30 19130 H 141.23 -8.16339 -3.92049 0
M  V30 19131 P 139.359 -8.7635 -1.60911 0
M  V30 19132 O 139.139 -10.1388 -1.11561 0
M  V30 19133 O 138.569 -8.36503 -2.79617 0
M  V30 19134 O 139.109 -7.71806 -0.42951 0
M  V30 19135 C 140.049 -7.67148 0.673689 0
M  V30 19136 C 139.319 -7.33374 1.95559 0
M  V30 19137 O 139.109 -5.88721 2.00726 0
M  V30 19138 C 137.919 -7.92526 2.10483 0
M  V30 19139 O 137.529 -8.02971 3.47653 0
M  V30 19140 C 137.039 -6.89602 1.41652 0
M  V30 19141 C 137.749 -5.59201 1.75185 0
M  V30 19142 N 137.699 -4.58301 0.657969 0
M  V30 19143 H 140.538 -8.65116 0.777161 0
M  V30 19144 H 140.81 -6.9022 0.46725 0
M  V30 19145 H 139.942 -7.66548 2.79458 0
M  V30 19146 H 137.287 -5.16165 2.65183 0
M  V30 19147 H 137.007 -7.06433 0.329384 0
M  V30 19148 H 136.016 -6.90926 1.82021 0
M  V30 19149 H 137.85 -8.90873 1.62657 0
M  V30 19150 P 135.979 -8.03563 3.84925 0
M  V30 19151 O 135.759 -8.85821 5.0569 0
M  V30 19152 O 135.189 -8.41101 2.65469 0
M  V30 19153 O 135.729 -6.4965 4.18908 0
M  V30 19154 C 136.669 -5.81037 5.05421 0
M  V30 19155 C 135.939 -4.78366 5.89277 0
M  V30 19156 O 135.729 -3.58302 5.08433 0
M  V30 19157 C 134.539 -5.17448 6.36119 0
M  V30 19158 O 134.149 -4.45271 7.53232 0
M  V30 19159 C 133.659 -4.74639 5.19936 0
M  V30 19160 C 134.369 -3.49432 4.70418 0
M  V30 19161 N 134.319 -3.31776 3.22945 0
M  V30 19162 H 137.158 -6.54213 5.71376 0
M  V30 19163 H 137.43 -5.30492 4.44033 0
M  V30 19164 H 136.562 -4.55889 6.76652 0
M  V30 19165 P 132.599 -4.23843 7.83734 0
M  V30 19166 O 132.379 -4.19407 9.29784 0
M  V30 19167 O 131.809 -5.24426 7.09156 0
M  V30 19168 O 132.349 -2.7935 7.20758 0
M  V30 19169 C 133.289 -1.7299 7.50419 0
M  V30 19170 C 132.559 -0.406376 7.57911 0
M  V30 19171 O 132.349 0.0897726 6.21935 0
M  V30 19172 C 131.159 -0.447224 8.1878 0
M  V30 19173 O 130.769 0.825065 8.71101 0
M  V30 19174 C 130.279 -0.783801 6.99623 0
M  V30 19175 C 130.989 -0.0619192 5.85967 0
M  V30 19176 N 130.939 -0.7859 4.56281 0
M  V30 19177 H 133.778 -1.93423 8.4679 0
M  V30 19178 H 134.05 -1.68181 6.71046 0
M  V30 19179 H 133.182 0.289041 8.15388 0
M  V30 19180 P 129.219 1.17771 8.83182 0
M  V30 19181 O 128.999 2.07206 9.98732 0
M  V30 19182 O 128.429 -0.0743816 8.81969 0
M  V30 19183 O 128.969 1.97652 7.47304 0
M  V30 19184 C 129.909 3.01133 7.08783 0
M  V30 19185 C 129.179 4.12613 6.37049 0
M  V30 19186 O 128.969 3.72827 4.97879 0
M  V30 19187 C 127.779 4.45085 6.88694 0
M  V30 19188 O 127.389 5.7877 6.5624 0
M  V30 19189 C 126.899 3.47817 6.12078 0
M  V30 19190 C 127.609 3.39414 4.77697 0
M  V30 19191 N 127.559 2.04615 4.15333 0
M  V30 19192 C 127.639 0.803897 4.75249 0
M  V30 19193 N 127.559 -0.197615 3.91502 0
M  V30 19194 C 127.419 0.413002 2.66823 0
M  V30 19195 C 127.289 -0.157221 1.38007 0
M  V30 19196 O 127.269 -1.34419 1.057 0
M  V30 19197 N 127.169 0.833136 0.390236 0
M  V30 19198 C 127.169 2.19402 0.623885 0
M  V30 19199 N 127.039 2.97622 -0.449677 0
M  V30 19200 N 127.299 2.73005 1.83601 0
M  V30 19201 C 127.419 1.78786 2.80935 0
M  V30 19202 H 130.398 3.41248 7.98759 0
M  V30 19203 H 130.67 2.5837 6.41742 0
M  V30 19204 H 129.802 5.02657 6.42673 0
M  V30 19205 H 127.147 4.11779 4.09026 0
M  V30 19206 H 126.867 2.49661 6.61772 0
M  V30 19207 H 125.876 3.86674 6.00946 0
M  V30 19208 H 127.71 4.30038 7.97094 0
M  V30 19209 H 127.759 0.670579 5.82754 0
M  V30 19210 H 127.077 0.528446 -0.557287 0
M  V30 19211 H 127.04 4.00117 -0.344773 0
M  V30 19212 H 126.939 2.55448 -1.38544 0
M  V30 19213 P 125.839 6.144 6.45285 0
M  V30 19214 O 125.619 7.54673 6.86199 0
M  V30 19215 O 125.049 5.12391 7.179 0
M  V30 19216 O 125.589 5.99158 4.88404 0
M  V30 19217 C 126.529 6.60234 3.96415 0
M  V30 19218 C 125.799 7.08259 2.72856 0
M  V30 19219 O 125.589 5.9427 1.83651 0
M  V30 19220 C 124.399 7.64886 2.9555 0
M  V30 19221 O 124.009 8.53963 1.90717 0
M  V30 19222 C 123.519 6.4116 2.90739 0
M  V30 19223 C 124.229 5.55375 1.86963 0
M  V30 19224 N 124.179 4.09664 2.15742 0
M  V30 19225 H 127.018 7.45574 4.45629 0
M  V30 19226 H 127.29 5.86232 3.67314 0
M  V30 19227 H 126.422 7.84412 2.24479 0
M  V30 19228 P 122.459 8.7635 1.60911 0
M  V30 19229 O 122.239 10.1388 1.11561 0
M  V30 19230 O 121.669 8.36503 2.79617 0
M  V30 19231 O 122.209 7.71806 0.42951 0
M  V30 19232 C 123.149 7.67148 -0.673689 0
M  V30 19233 C 122.419 7.33374 -1.95559 0
M  V30 19234 O 122.209 5.88721 -2.00726 0
M  V30 19235 C 121.019 7.92526 -2.10483 0
M  V30 19236 O 120.629 8.02971 -3.47653 0
M  V30 19237 C 120.139 6.89602 -1.41652 0
M  V30 19238 C 120.849 5.59201 -1.75185 0
M  V30 19239 N 120.799 4.58235 -0.662552 0
M  V30 19240 H 123.638 8.65116 -0.777161 0
M  V30 19241 H 123.91 6.90173 -0.474152 0
M  V30 19242 H 123.042 7.66548 -2.79458 0
M  V30 19243 P 119.079 8.03563 -3.84925 0
M  V30 19244 O 118.859 8.85821 -5.0569 0
M  V30 19245 O 118.289 8.41101 -2.65469 0
M  V30 19246 O 118.829 6.4965 -4.18908 0
M  V30 19247 C 119.769 5.81037 -5.05421 0
M  V30 19248 C 119.039 4.78366 -5.89277 0
M  V30 19249 O 118.829 3.58302 -5.08433 0
M  V30 19250 C 117.639 5.17448 -6.36119 0
M  V30 19251 O 117.249 4.45271 -7.53232 0
M  V30 19252 C 116.759 4.74639 -5.19936 0
M  V30 19253 C 117.469 3.49432 -4.70418 0
M  V30 19254 N 117.419 3.31776 -3.22945 0
M  V30 19255 H 120.258 6.54213 -5.71376 0
M  V30 19256 H 120.53 5.30492 -4.44033 0
M  V30 19257 H 119.662 4.55889 -6.76652 0
M  V30 19258 P 115.699 4.23843 -7.83734 0
M  V30 19259 O 115.479 4.19407 -9.29784 0
M  V30 19260 O 114.909 5.24426 -7.09156 0
M  V30 19261 O 115.449 2.7935 -7.20758 0
M  V30 19262 C 116.389 1.7299 -7.50419 0
M  V30 19263 C 115.659 0.406376 -7.57911 0
M  V30 19264 O 115.449 -0.0897726 -6.21935 0
M  V30 19265 C 114.259 0.447224 -8.1878 0
M  V30 19266 O 113.869 -0.825065 -8.71101 0
M  V30 19267 C 113.379 0.783801 -6.99623 0
M  V30 19268 C 114.089 0.0619192 -5.85967 0
M  V30 19269 N 114.039 0.7859 -4.56281 0
M  V30 19270 C 114.119 2.14308 -4.31736 0
M  V30 19271 N 114.039 2.46106 -3.05116 0
M  V30 19272 C 113.899 1.23422 -2.4014 0
M  V30 19273 C 113.769 0.938381 -1.02409 0
M  V30 19274 O 113.749 1.70876 -0.0650402 0
M  V30 19275 N 113.649 -0.444647 -0.805413 0
M  V30 19276 C 113.649 -1.40829 -1.79435 0
M  V30 19277 N 113.519 -2.67213 -1.38558 0
M  V30 19278 N 113.779 -1.12947 -3.09005 0
M  V30 19279 C 113.899 0.204887 -3.32369 0
M  V30 19280 H 116.878 1.93423 -8.4679 0
M  V30 19281 H 117.15 1.68181 -6.71046 0
M  V30 19282 H 116.282 -0.289041 -8.15388 0
M  V30 19283 H 113.627 -0.927166 -5.72947 0
M  V30 19284 H 113.347 1.87 -6.82132 0
M  V30 19285 H 112.356 0.404009 -7.13457 0
M  V30 19286 H 114.19 1.20612 -8.97633 0
M  V30 19287 H 114.239 2.88284 -5.10874 0
M  V30 19288 H 113.557 -0.755087 0.140242 0
M  V30 19289 H 113.52 -3.43967 -2.0729 0
M  V30 19290 H 113.419 -2.88096 -0.380644 0
M  V30 19291 P 112.319 -1.17771 -8.83182 0
M  V30 19292 O 112.099 -2.07206 -9.98732 0
M  V30 19293 O 111.529 0.0743816 -8.81969 0
M  V30 19294 O 112.069 -1.97652 -7.47304 0
M  V30 19295 C 113.009 -3.01133 -7.08783 0
M  V30 19296 C 112.279 -4.12613 -6.37049 0
M  V30 19297 O 112.069 -3.72827 -4.97879 0
M  V30 19298 C 110.879 -4.45085 -6.88694 0
M  V30 19299 O 110.489 -5.7877 -6.5624 0
M  V30 19300 C 109.999 -3.47817 -6.12078 0
M  V30 19301 C 110.709 -3.39414 -4.77697 0
M  V30 19302 N 110.659 -2.04199 -4.15538 0
M  V30 19303 H 113.498 -3.41248 -7.98759 0
M  V30 19304 H 113.77 -2.57728 -6.42 0
M  V30 19305 H 112.902 -5.02657 -6.42673 0
M  V30 19306 H 110.247 -4.11708 -4.08956 0
M  V30 19307 H 109.967 -2.49626 -6.61679 0
M  V30 19308 H 108.976 -3.8662 -6.00862 0
M  V30 19309 H 110.81 -4.29991 -7.97006 0
M  V30 19310 P 108.939 -6.144 -6.45285 0
M  V30 19311 O 108.719 -7.54673 -6.86199 0
M  V30 19312 O 108.149 -5.12391 -7.179 0
M  V30 19313 O 108.689 -5.99158 -4.88404 0
M  V30 19314 C 109.629 -6.60234 -3.96415 0
M  V30 19315 C 108.899 -7.08259 -2.72856 0
M  V30 19316 O 108.689 -5.9427 -1.83651 0
M  V30 19317 C 107.499 -7.64886 -2.9555 0
M  V30 19318 O 107.109 -8.53963 -1.90717 0
M  V30 19319 C 106.619 -6.4116 -2.90739 0
M  V30 19320 C 107.329 -5.55375 -1.86963 0
M  V30 19321 N 107.279 -4.09664 -2.15742 0
M  V30 19322 C 107.359 -3.44381 -3.37233 0
M  V30 19323 N 107.279 -2.14131 -3.28347 0
M  V30 19324 C 107.139 -1.90247 -1.91588 0
M  V30 19325 C 107.009 -0.683992 -1.20892 0
M  V30 19326 O 106.989 0.46618 -1.64523 0
M  V30 19327 N 106.889 -0.903396 0.173998 0
M  V30 19328 C 106.889 -2.14171 0.784879 0
M  V30 19329 N 106.759 -2.1435 2.11317 0
M  V30 19330 N 107.019 -3.28784 0.119316 0
M  V30 19331 C 107.139 -3.0977 -1.22194 0
M  V30 19332 H 110.118 -7.45574 -4.45629 0
M  V30 19333 H 110.39 -5.86232 -3.67314 0
M  V30 19334 H 109.522 -7.84412 -2.24479 0
M  V30 19335 H 106.867 -5.73556 -0.888715 0
M  V30 19336 H 106.587 -5.9096 -3.88638 0
M  V30 19337 H 105.596 -6.66053 -2.58894 0
M  V30 19338 H 107.43 -8.16429 -3.92093 0
M  V30 19339 H 107.479 -3.96785 -4.32043 0
M  V30 19340 H 106.797 -0.0999567 0.761467 0
M  V30 19341 H 106.76 -3.03436 2.63076 0
M  V30 19342 H 106.659 -1.25228 2.62233 0
M  V30 19343 P 105.559 -8.7635 -1.60911 0
M  V30 19344 O 105.339 -10.1388 -1.11561 0
M  V30 19345 O 104.769 -8.36503 -2.79617 0
M  V30 19346 O 105.309 -7.71806 -0.42951 0
M  V30 19347 C 106.249 -7.66948 0.673514 0
M  V30 19348 C 105.519 -7.33374 1.95559 0
M  V30 19349 O 105.309 -5.88721 2.00726 0
M  V30 19350 C 104.119 -7.92218 2.1125 0
M  V30 19351 O 103.729 -8.02971 3.47653 0
M  V30 19352 C 103.239 -6.89504 1.41631 0
M  V30 19353 C 103.949 -5.59106 1.75155 0
M  V30 19354 N 103.899 -4.58136 0.662409 0
M  V30 19355 C 103.749 -3.26059 1.02863 0
M  V30 19356 O 103.659 -2.90743 2.19009 0
M  V30 19357 N 103.709 -2.35995 -0.0155585 0
M  V30 19358 C 103.799 -2.65248 -1.35603 0
M  V30 19359 C 103.949 -4.05747 -1.64698 0
M  V30 19360 C 103.999 -4.96734 -0.652411 0
M  V30 19361 H 106.74 -8.64917 0.776982 0
M  V30 19362 H 107.009 -6.89974 0.474015 0
M  V30 19363 H 106.142 -7.66548 2.79458 0
M  V30 19364 H 103.487 -5.16076 2.65138 0
M  V30 19365 H 103.208 -7.06433 0.329384 0
M  V30 19366 H 102.216 -6.90829 1.81996 0
M  V30 19367 H 104.05 -8.90774 1.62639 0
M  V30 19368 H 104.121 -6.02181 -0.895285 0
M  V30 19369 P 102.179 -8.03563 3.84925 0
M  V30 19370 O 101.959 -8.85821 5.0569 0
M  V30 19371 O 101.389 -8.41101 2.65469 0
M  V30 19372 O 101.929 -6.4965 4.18908 0
M  V30 19373 C 102.869 -5.81037 5.05421 0
M  V30 19374 C 102.139 -4.78366 5.89277 0
M  V30 19375 O 101.929 -3.58302 5.08433 0
M  V30 19376 C 100.739 -5.17448 6.36119 0
M  V30 19377 O 100.349 -4.45271 7.53232 0
M  V30 19378 C 99.8594 -4.74639 5.19936 0
M  V30 19379 C 100.569 -3.49432 4.70418 0
M  V30 19380 N 100.519 -3.31776 3.22945 0
M  V30 19381 H 103.358 -6.54213 5.71376 0
M  V30 19382 H 103.63 -5.30492 4.44033 0
M  V30 19383 H 102.762 -4.55889 6.76652 0
M  V30 19384 P 98.7994 -4.23843 7.83734 0
M  V30 19385 O 98.5794 -4.19407 9.29784 0
M  V30 19386 O 98.0094 -5.24426 7.09156 0
M  V30 19387 O 98.5494 -2.7935 7.20758 0
M  V30 19388 C 99.4894 -1.7299 7.50419 0
M  V30 19389 C 98.7594 -0.406376 7.57911 0
M  V30 19390 O 98.5494 0.0897726 6.21935 0
M  V30 19391 C 97.3594 -0.447224 8.1878 0
M  V30 19392 O 96.9694 0.825065 8.71101 0
M  V30 19393 C 96.4794 -0.783801 6.99623 0
M  V30 19394 C 97.1894 -0.0619192 5.85967 0
M  V30 19395 N 97.1394 -0.7859 4.56281 0
M  V30 19396 H 99.9784 -1.93423 8.4679 0
M  V30 19397 H 100.25 -1.68181 6.71046 0
M  V30 19398 H 99.3824 0.289041 8.15388 0
M  V30 19399 P 95.4195 1.17771 8.83182 0
M  V30 19400 O 95.1995 2.07206 9.98732 0
M  V30 19401 O 94.6295 -0.0743816 8.81969 0
M  V30 19402 O 95.1695 1.97652 7.47304 0
M  V30 19403 C 96.1095 3.01133 7.08783 0
M  V30 19404 C 95.3795 4.12613 6.37049 0
M  V30 19405 O 95.1695 3.72827 4.97879 0
M  V30 19406 C 93.9795 4.45085 6.88694 0
M  V30 19407 O 93.5895 5.7877 6.5624 0
M  V30 19408 C 93.0995 3.47817 6.12078 0
M  V30 19409 C 93.8095 3.39414 4.77697 0
M  V30 19410 N 93.7595 2.04199 4.15538 0
M  V30 19411 H 96.5985 3.41248 7.98759 0
M  V30 19412 H 96.8705 2.57728 6.42 0
M  V30 19413 H 96.0025 5.02657 6.42673 0
M  V30 19414 H 93.3475 4.11708 4.08956 0
M  V30 19415 H 93.0675 2.49626 6.61679 0
M  V30 19416 H 92.0765 3.8662 6.00862 0
M  V30 19417 H 93.9105 4.29991 7.97006 0
M  V30 19418 P 92.0395 6.144 6.45285 0
M  V30 19419 O 91.8195 7.54673 6.86199 0
M  V30 19420 O 91.2495 5.12391 7.179 0
M  V30 19421 O 91.7895 5.99158 4.88404 0
M  V30 19422 C 92.7295 6.60234 3.96415 0
M  V30 19423 C 91.9995 7.08259 2.72856 0
M  V30 19424 O 91.7895 5.9427 1.83651 0
M  V30 19425 C 90.5995 7.64886 2.9555 0
M  V30 19426 O 90.2095 8.53963 1.90717 0
M  V30 19427 C 89.7195 6.4116 2.90739 0
M  V30 19428 C 90.4295 5.55375 1.86963 0
M  V30 19429 N 90.3795 4.09664 2.15742 0
M  V30 19430 H 93.2185 7.45574 4.45629 0
M  V30 19431 H 93.4905 5.86232 3.67314 0
M  V30 19432 H 92.6225 7.84412 2.24479 0
M  V30 19433 P 88.6595 8.7635 1.60911 0
M  V30 19434 O 88.4395 10.1388 1.11561 0
M  V30 19435 O 87.8695 8.36503 2.79617 0
M  V30 19436 O 88.4095 7.71806 0.42951 0
M  V30 19437 C 89.3495 7.66948 -0.673514 0
M  V30 19438 C 88.6195 7.33374 -1.95559 0
M  V30 19439 O 88.4095 5.88721 -2.00726 0
M  V30 19440 C 87.2195 7.92218 -2.1125 0
M  V30 19441 O 86.8295 8.02971 -3.47653 0
M  V30 19442 C 86.3395 6.89504 -1.41631 0
M  V30 19443 C 87.0495 5.59106 -1.75155 0
M  V30 19444 N 86.9995 4.58136 -0.662409 0
M  V30 19445 C 86.8495 3.26059 -1.02863 0
M  V30 19446 O 86.7595 2.90743 -2.19009 0
M  V30 19447 N 86.8095 2.35995 0.0155585 0
M  V30 19448 C 86.8995 2.65248 1.35603 0
M  V30 19449 C 87.0495 4.05747 1.64698 0
M  V30 19450 C 87.0995 4.96734 0.652411 0
M  V30 19451 H 89.8405 8.64917 -0.776982 0
M  V30 19452 H 90.1095 6.89974 -0.474015 0
M  V30 19453 H 89.2425 7.66548 -2.79458 0
M  V30 19454 H 86.5875 5.16076 -2.65138 0
M  V30 19455 H 86.3085 7.06433 -0.329384 0
M  V30 19456 H 85.3165 6.90829 -1.81996 0
M  V30 19457 H 87.1505 8.90774 -1.62639 0
M  V30 19458 H 87.2215 6.02181 0.895285 0
M  V30 19459 P 85.2795 8.03563 -3.84925 0
M  V30 19460 O 85.0595 8.85821 -5.0569 0
M  V30 19461 O 84.4895 8.41101 -2.65469 0
M  V30 19462 O 85.0295 6.4965 -4.18908 0
M  V30 19463 C 85.9695 5.81037 -5.05421 0
M  V30 19464 C 85.2395 4.78366 -5.89277 0
M  V30 19465 O 85.0295 3.58302 -5.08433 0
M  V30 19466 C 83.8395 5.17448 -6.36119 0
M  V30 19467 O 83.4495 4.45271 -7.53232 0
M  V30 19468 C 82.9595 4.74639 -5.19936 0
M  V30 19469 C 83.6695 3.49432 -4.70418 0
M  V30 19470 N 83.6195 3.31776 -3.22945 0
M  V30 19471 H 86.4585 6.54213 -5.71376 0
M  V30 19472 H 86.7305 5.30492 -4.44033 0
M  V30 19473 H 85.8625 4.55889 -6.76652 0
M  V30 19474 P 81.8995 4.23843 -7.83734 0
M  V30 19475 O 81.6795 4.19407 -9.29784 0
M  V30 19476 O 81.1095 5.24426 -7.09156 0
M  V30 19477 O 81.6495 2.7935 -7.20758 0
M  V30 19478 C 82.5895 1.7299 -7.50419 0
M  V30 19479 C 81.8595 0.406376 -7.57911 0
M  V30 19480 O 81.6495 -0.0897726 -6.21935 0
M  V30 19481 C 80.4595 0.447224 -8.1878 0
M  V30 19482 O 80.0695 -0.825065 -8.71101 0
M  V30 19483 C 79.5795 0.783801 -6.99623 0
M  V30 19484 C 80.2895 0.0619192 -5.85967 0
M  V30 19485 N 80.2395 0.790462 -4.56202 0
M  V30 19486 C 80.3195 2.13895 -4.34171 0
M  V30 19487 N 80.2495 2.46449 -3.08687 0
M  V30 19488 C 80.0995 1.2525 -2.43697 0
M  V30 19489 C 79.9695 0.914535 -1.07318 0
M  V30 19490 N 79.9595 1.80782 -0.0887348 0
M  V30 19491 N 79.8495 -0.386745 -0.768133 0
M  V30 19492 C 79.8595 -1.28096 -1.75159 0
M  V30 19493 N 79.9795 -1.09708 -3.04861 0
M  V30 19494 C 80.0995 0.214857 -3.32306 0
M  V30 19495 H 83.0785 1.93423 -8.4679 0
M  V30 19496 H 83.3505 1.68852 -6.70877 0
M  V30 19497 H 82.4825 -0.289041 -8.15388 0
M  V30 19498 H 79.8275 -0.927006 -5.72848 0
M  V30 19499 H 79.5475 1.86973 -6.82036 0
M  V30 19500 H 78.5565 0.403953 -7.13357 0
M  V30 19501 H 80.3905 1.20599 -8.97534 0
M  V30 19502 H 80.4315 2.86846 -5.14318 0
M  V30 19503 H 80.0505 2.81082 -0.302037 0
M  V30 19504 H 79.8615 1.49688 0.889064 0
M  V30 19505 H 79.7535 -2.31317 -1.43855 0
M  V30 19506 P 78.5196 -1.17771 -8.83182 0
M  V30 19507 O 78.2996 -2.07206 -9.98732 0
M  V30 19508 O 77.7296 0.0743816 -8.81969 0
M  V30 19509 O 78.2696 -1.97652 -7.47304 0
M  V30 19510 C 79.2096 -3.01133 -7.08783 0
M  V30 19511 C 78.4796 -4.12613 -6.37049 0
M  V30 19512 O 78.2696 -3.72827 -4.97879 0
M  V30 19513 C 77.0796 -4.45085 -6.88694 0
M  V30 19514 O 76.6896 -5.7877 -6.5624 0
M  V30 19515 C 76.1996 -3.47817 -6.12078 0
M  V30 19516 C 76.9096 -3.39414 -4.77697 0
M  V30 19517 N 76.8596 -2.04615 -4.15333 0
M  V30 19518 H 79.6986 -3.41248 -7.98759 0
M  V30 19519 H 79.9706 -2.5837 -6.41742 0
M  V30 19520 H 79.1026 -5.02657 -6.42673 0
M  V30 19521 P 75.1396 -6.144 -6.45285 0
M  V30 19522 O 74.9196 -7.54673 -6.86199 0
M  V30 19523 O 74.3496 -5.12391 -7.179 0
M  V30 19524 O 74.8896 -5.99158 -4.88404 0
M  V30 19525 C 75.8296 -6.60062 -3.96313 0
M  V30 19526 C 75.0996 -7.08259 -2.72856 0
M  V30 19527 O 74.8896 -5.9427 -1.83651 0
M  V30 19528 C 73.6996 -7.65087 -2.94749 0
M  V30 19529 O 73.3096 -8.53963 -1.90717 0
M  V30 19530 C 72.8196 -6.41069 -2.90698 0
M  V30 19531 C 73.5296 -5.5528 -1.86931 0
M  V30 19532 N 73.4796 -4.09575 -2.15696 0
M  V30 19533 C 73.3296 -3.24249 -1.08435 0
M  V30 19534 O 73.2396 -3.63946 0.0628747 0
M  V30 19535 N 73.2896 -1.90009 -1.39973 0
M  V30 19536 C 73.3796 -1.34884 -2.65614 0
M  V30 19537 O 73.3296 -0.123716 -2.81728 0
M  V30 19538 C 73.5296 -2.3145 -3.71736 0
M  V30 19539 C 73.6396 -1.75913 -5.10438 0
M  V30 19540 C 73.5796 -3.63518 -3.44754 0
M  V30 19541 H 76.3206 -7.45402 -4.45526 0
M  V30 19542 H 76.5896 -5.86062 -3.67208 0
M  V30 19543 H 75.7226 -7.84412 -2.24479 0
M  V30 19544 H 73.0676 -5.73358 -0.888409 0
M  V30 19545 H 72.7886 -5.90877 -3.88583 0
M  V30 19546 H 71.7966 -6.65867 -2.58821 0
M  V30 19547 H 73.6306 -8.16248 -3.92006 0
M  V30 19548 H 73.7016 -4.34551 -4.26383 0
M  V30 19549 H 72.6716 -1.85471 -5.61775 0
M  V30 19550 H 74.4086 -2.31364 -5.66257 0
M  V30 19551 H 73.9206 -0.695936 -5.05229 0
M  V30 19552 H 73.1846 -1.26277 -0.63625 0
M  V30 19553 P 71.7596 -8.7635 -1.60911 0
M  V30 19554 O 71.5396 -10.1388 -1.11561 0
M  V30 19555 O 70.9696 -8.36503 -2.79617 0
M  V30 19556 O 71.5096 -7.71806 -0.42951 0
M  V30 19557 C 72.4496 -7.67148 0.673689 0
M  V30 19558 C 71.7196 -7.33374 1.95559 0
M  V30 19559 O 71.5096 -5.88721 2.00726 0
M  V30 19560 C 70.3196 -7.92526 2.10483 0
M  V30 19561 O 69.9296 -8.02971 3.47653 0
M  V30 19562 C 69.4396 -6.89602 1.41652 0
M  V30 19563 C 70.1496 -5.59201 1.75185 0
M  V30 19564 N 70.0996 -4.58301 0.657969 0
M  V30 19565 C 70.1796 -4.79019 -0.692603 0
M  V30 19566 N 70.1096 -3.69736 -1.38998 0
M  V30 19567 C 69.9596 -2.70474 -0.438135 0
M  V30 19568 C 69.8296 -1.30327 -0.538142 0
M  V30 19569 N 69.8196 -0.64304 -1.69192 0
M  V30 19570 N 69.7096 -0.611027 0.605183 0
M  V30 19571 C 69.7196 -1.27002 1.75953 0
M  V30 19572 N 69.8396 -2.56038 1.98546 0
M  V30 19573 C 69.9596 -3.22681 0.822541 0
M  V30 19574 H 72.9386 -8.65116 0.777161 0
M  V30 19575 H 73.2106 -6.9022 0.46725 0
M  V30 19576 H 72.3426 -7.66548 2.79458 0
M  V30 19577 H 69.6876 -5.16165 2.65183 0
M  V30 19578 H 69.4076 -7.06433 0.329384 0
M  V30 19579 H 68.4166 -6.90926 1.82021 0
M  V30 19580 H 70.2506 -8.90873 1.62657 0
M  V30 19581 H 70.2916 -5.77785 -1.13874 0
M  V30 19582 H 69.9106 -1.15585 -2.57991 0
M  V30 19583 H 69.7216 0.382989 -1.69835 0
M  V30 19584 H 69.6136 -0.653331 2.64449 0
M  V30 19585 P 68.3796 -8.03563 3.84925 0
M  V30 19586 O 68.1596 -8.85821 5.0569 0
M  V30 19587 O 67.5896 -8.41101 2.65469 0
M  V30 19588 O 68.1296 -6.4965 4.18908 0
M  V30 19589 C 69.0696 -5.81037 5.05421 0
M  V30 19590 C 68.3396 -4.78366 5.89277 0
M  V30 19591 O 68.1296 -3.58302 5.08433 0
M  V30 19592 C 66.9396 -5.17448 6.36119 0
M  V30 19593 O 66.5496 -4.45271 7.53232 0
M  V30 19594 C 66.0596 -4.74639 5.19936 0
M  V30 19595 C 66.7696 -3.49432 4.70418 0
M  V30 19596 N 66.7196 -3.32099 3.22613 0
M  V30 19597 H 69.5586 -6.54213 5.71376 0
M  V30 19598 H 69.8306 -5.30936 4.43503 0
M  V30 19599 H 68.9626 -4.55889 6.76652 0
M  V30 19600 H 66.3076 -2.61715 5.17932 0
M  V30 19601 H 66.0276 -5.52155 4.41878 0
M  V30 19602 H 65.0366 -4.51981 5.53374 0
M  V30 19603 H 66.8706 -6.25124 6.55234 0
M  V30 19604 P 64.9996 -4.23843 7.83734 0
M  V30 19605 O 64.7796 -4.19407 9.29784 0
M  V30 19606 O 64.2096 -5.24426 7.09156 0
M  V30 19607 O 64.7496 -2.7935 7.20758 0
M  V30 19608 C 65.6896 -1.7299 7.50419 0
M  V30 19609 C 64.9596 -0.406376 7.57911 0
M  V30 19610 O 64.7496 0.0897726 6.21935 0
M  V30 19611 C 63.5596 -0.447224 8.1878 0
M  V30 19612 O 63.1696 0.825065 8.71101 0
M  V30 19613 C 62.6796 -0.783801 6.99623 0
M  V30 19614 C 63.3896 -0.0619192 5.85967 0
M  V30 19615 N 63.3396 -0.7859 4.56281 0
M  V30 19616 H 66.1786 -1.93423 8.4679 0
M  V30 19617 H 66.4506 -1.68181 6.71046 0
M  V30 19618 H 65.5826 0.289041 8.15388 0
M  V30 19619 P 61.6197 1.17771 8.83182 0
M  V30 19620 O 61.3997 2.07206 9.98732 0
M  V30 19621 O 60.8297 -0.0743816 8.81969 0
M  V30 19622 O 61.3697 1.97678 7.474 0
M  V30 19623 C 62.3097 3.01133 7.08783 0
M  V30 19624 C 61.5797 4.1203 6.37546 0
M  V30 19625 O 61.3697 3.72887 4.9796 0
M  V30 19626 C 60.1797 4.45085 6.88694 0
M  V30 19627 O 59.7897 5.78836 6.56315 0
M  V30 19628 C 59.2997 3.47817 6.12078 0
M  V30 19629 C 60.0097 3.39414 4.77697 0
M  V30 19630 N 59.9597 2.04615 4.15333 0
M  V30 19631 C 59.8097 1.96929 2.77162 0
M  V30 19632 O 59.7197 3.02017 2.12006 0
M  V30 19633 N 59.7597 0.55485 2.24237 0
M  V30 19634 C 59.8597 -0.367808 2.9169 0
M  V30 19635 N 59.8097 -1.53426 2.29427 0
M  V30 19636 C 60.0097 -0.319148 4.33828 0
M  V30 19637 C 60.0597 0.920672 4.90433 0
M  V30 19638 H 62.7997 3.41209 7.98667 0
M  V30 19639 H 63.0697 2.5837 6.41742 0
M  V30 19640 H 62.2027 5.02718 6.42752 0
M  V30 19641 H 59.5477 4.11779 4.09026 0
M  V30 19642 H 59.2677 2.49661 6.61772 0
M  V30 19643 H 58.2767 3.86674 6.00946 0
M  V30 19644 H 60.1107 4.29991 7.97006 0
M  V30 19645 H 60.1827 1.00589 5.98303 0
M  V30 19646 H 60.0807 -1.22639 4.93799 0
M  V30 19647 H 59.6927 -1.56819 1.27167 0
M  V30 19648 H 59.8887 -2.41062 2.83063 0
M  V30 19649 P 58.2397 6.144 6.45285 0
M  V30 19650 O 58.0197 7.54673 6.86199 0
M  V30 19651 O 57.4497 5.12391 7.179 0
M  V30 19652 O 57.9897 5.99158 4.88404 0
M  V30 19653 C 58.9297 6.60234 3.96415 0
M  V30 19654 C 58.1997 7.08259 2.72856 0
M  V30 19655 O 57.9897 5.9427 1.83651 0
M  V30 19656 C 56.7997 7.64886 2.9555 0
M  V30 19657 O 56.4097 8.53963 1.90717 0
M  V30 19658 C 55.9197 6.4116 2.90739 0
M  V30 19659 C 56.6297 5.55375 1.86963 0
M  V30 19660 N 56.5797 4.09448 2.16152 0
M  V30 19661 H 59.4187 7.45574 4.45629 0
M  V30 19662 H 59.6907 5.85864 3.679 0
M  V30 19663 H 58.8227 7.84412 2.24479 0
M  V30 19664 H 56.1677 5.73457 0.888562 0
M  V30 19665 H 55.8877 5.90877 3.88583 0
M  V30 19666 H 54.8967 6.6596 2.58858 0
M  V30 19667 H 56.7307 8.16339 3.92049 0
M  V30 19668 P 54.8597 8.7635 1.60911 0
M  V30 19669 O 54.6397 10.1388 1.11561 0
M  V30 19670 O 54.0697 8.36503 2.79617 0
M  V30 19671 O 54.6097 7.71806 0.42951 0
M  V30 19672 C 55.5497 7.67148 -0.673689 0
M  V30 19673 C 54.8197 7.33374 -1.95559 0
M  V30 19674 O 54.6097 5.88721 -2.00726 0
M  V30 19675 C 53.4197 7.92526 -2.10483 0
M  V30 19676 O 53.0297 8.02971 -3.47653 0
M  V30 19677 C 52.5397 6.89602 -1.41652 0
M  V30 19678 C 53.2497 5.59201 -1.75185 0
M  V30 19679 N 53.1997 4.58235 -0.662552 0
M  V30 19680 H 56.0387 8.65116 -0.777161 0
M  V30 19681 H 56.3107 6.90173 -0.474152 0
M  V30 19682 H 55.4427 7.66548 -2.79458 0
M  V30 19683 P 51.4797 8.03563 -3.84925 0
M  V30 19684 O 51.2597 8.85821 -5.0569 0
M  V30 19685 O 50.6897 8.41101 -2.65469 0
M  V30 19686 O 51.2297 6.4965 -4.18908 0
M  V30 19687 C 52.1697 5.81037 -5.05421 0
M  V30 19688 C 51.4397 4.78366 -5.89277 0
M  V30 19689 O 51.2297 3.58302 -5.08433 0
M  V30 19690 C 50.0397 5.17448 -6.36119 0
M  V30 19691 O 49.6497 4.45271 -7.53232 0
M  V30 19692 C 49.1597 4.74639 -5.19936 0
M  V30 19693 C 49.8697 3.49432 -4.70418 0
M  V30 19694 N 49.8197 3.32099 -3.22613 0
M  V30 19695 H 52.6587 6.54213 -5.71376 0
M  V30 19696 H 52.9307 5.30936 -4.43503 0
M  V30 19697 H 52.0627 4.55889 -6.76652 0
M  V30 19698 H 49.4077 2.61715 -5.17932 0
M  V30 19699 H 49.1277 5.52155 -4.41878 0
M  V30 19700 H 48.1367 4.51981 -5.53374 0
M  V30 19701 H 49.9707 6.25124 -6.55234 0
M  V30 19702 P 48.0997 4.23843 -7.83734 0
M  V30 19703 O 47.8797 4.19407 -9.29784 0
M  V30 19704 O 47.3097 5.24426 -7.09156 0
M  V30 19705 O 47.8497 2.7935 -7.20758 0
M  V30 19706 C 48.7897 1.7299 -7.50419 0
M  V30 19707 C 48.0597 0.406376 -7.57911 0
M  V30 19708 O 47.8497 -0.0897726 -6.21935 0
M  V30 19709 C 46.6597 0.447224 -8.1878 0
M  V30 19710 O 46.2697 -0.825065 -8.71101 0
M  V30 19711 C 45.7797 0.783801 -6.99623 0
M  V30 19712 C 46.4897 0.0619192 -5.85967 0
M  V30 19713 N 46.4397 0.790462 -4.56202 0
M  V30 19714 H 49.2787 1.93423 -8.4679 0
M  V30 19715 H 49.5507 1.68852 -6.70877 0
M  V30 19716 H 48.6827 -0.289041 -8.15388 0
M  V30 19717 H 46.0277 -0.927006 -5.72848 0
M  V30 19718 H 45.7477 1.86973 -6.82036 0
M  V30 19719 H 44.7567 0.403953 -7.13357 0
M  V30 19720 H 46.5907 1.20599 -8.97534 0
M  V30 19721 P 44.7198 -1.17771 -8.83182 0
M  V30 19722 O 44.4998 -2.07206 -9.98732 0
M  V30 19723 O 43.9298 0.0743816 -8.81969 0
M  V30 19724 O 44.4698 -1.97652 -7.47304 0
M  V30 19725 C 45.4098 -3.01133 -7.08783 0
M  V30 19726 C 44.6798 -4.12613 -6.37049 0
M  V30 19727 O 44.4698 -3.72827 -4.97879 0
M  V30 19728 C 43.2798 -4.45085 -6.88694 0
M  V30 19729 O 42.8898 -5.7877 -6.5624 0
M  V30 19730 C 42.3998 -3.47817 -6.12078 0
M  V30 19731 C 43.1098 -3.39414 -4.77697 0
M  V30 19732 N 43.0598 -2.04199 -4.15538 0
M  V30 19733 C 43.1398 -0.821545 -4.76977 0
M  V30 19734 N 43.0698 0.1794 -3.94592 0
M  V30 19735 C 42.9198 -0.419121 -2.70776 0
M  V30 19736 C 42.7898 0.109072 -1.40577 0
M  V30 19737 N 42.7798 1.4104 -1.1344 0
M  V30 19738 N 42.6698 -0.764381 -0.39411 0
M  V30 19739 C 42.6798 -2.06587 -0.664135 0
M  V30 19740 N 42.7998 -2.67948 -1.82153 0
M  V30 19741 C 42.9198 -1.77942 -2.8147 0
M  V30 19742 H 45.8988 -3.41248 -7.98759 0
M  V30 19743 H 46.1708 -2.57728 -6.42 0
M  V30 19744 H 45.3028 -5.02657 -6.42673 0
M  V30 19745 H 42.6478 -4.11708 -4.08956 0
M  V30 19746 H 42.3678 -2.49626 -6.61679 0
M  V30 19747 H 41.3768 -3.8662 -6.00862 0
M  V30 19748 H 43.2108 -4.29991 -7.97006 0
M  V30 19749 H 43.2518 -0.702451 -5.84696 0
M  V30 19750 H 42.8708 2.09647 -1.89651 0
M  V30 19751 H 42.6818 1.73358 -0.160575 0
M  V30 19752 H 42.5738 -2.71695 0.195838 0
M  V30 19753 P 41.3398 -6.144 -6.45285 0
M  V30 19754 O 41.1198 -7.54673 -6.86199 0
M  V30 19755 O 40.5498 -5.12391 -7.179 0
M  V30 19756 O 41.0898 -5.99236 -4.88467 0
M  V30 19757 C 42.0298 -6.60234 -3.96415 0
M  V30 19758 C 41.2998 -7.08079 -2.736 0
M  V30 19759 O 41.0898 -5.94365 -1.8368 0
M  V30 19760 C 39.8998 -7.64886 -2.9555 0
M  V30 19761 O 39.5098 -8.5406 -1.90739 0
M  V30 19762 C 39.0198 -6.4116 -2.90739 0
M  V30 19763 C 39.7298 -5.55375 -1.86963 0
M  V30 19764 N 39.6798 -4.09664 -2.15742 0
M  V30 19765 C 39.5298 -3.22231 -1.08477 0
M  V30 19766 O 39.4398 -3.68951 0.0600489 0
M  V30 19767 N 39.4798 -1.76692 -1.48799 0
M  V30 19768 C 39.5798 -1.41695 -2.57602 0
M  V30 19769 N 39.5298 -0.107296 -2.75791 0
M  V30 19770 C 39.7298 -2.29178 -3.69733 0
M  V30 19771 C 39.7798 -3.62753 -3.42653 0
M  V30 19772 H 42.5198 -7.45488 -4.45578 0
M  V30 19773 H 42.7898 -5.86232 -3.67314 0
M  V30 19774 H 41.9228 -7.84508 -2.24507 0
M  V30 19775 H 39.2678 -5.73556 -0.888715 0
M  V30 19776 H 38.9878 -5.9096 -3.88638 0
M  V30 19777 H 37.9968 -6.66053 -2.58894 0
M  V30 19778 H 39.8308 -8.16339 -3.92049 0
M  V30 19779 H 39.9028 -4.33052 -4.24913 0
M  V30 19780 H 39.8008 -1.9103 -4.71577 0
M  V30 19781 H 39.4128 0.521221 -1.95056 0
M  V30 19782 H 39.6088 0.286429 -3.70695 0
M  V30 19783 P 37.9598 -8.7635 -1.60911 0
M  V30 19784 O 37.7398 -10.1388 -1.11561 0
M  V30 19785 O 37.1698 -8.36503 -2.79617 0
M  V30 19786 O 37.7098 -7.71806 -0.42951 0
M  V30 19787 C 38.6498 -7.67148 0.673689 0
M  V30 19788 C 37.9198 -7.33374 1.95559 0
M  V30 19789 O 37.7098 -5.88721 2.00726 0
M  V30 19790 C 36.5198 -7.92526 2.10483 0
M  V30 19791 O 36.1298 -8.02971 3.47653 0
M  V30 19792 C 35.6398 -6.89602 1.41652 0
M  V30 19793 C 36.3498 -5.59201 1.75185 0
M  V30 19794 N 36.2998 -4.58235 0.662552 0
M  V30 19795 H 39.1388 -8.65116 0.777161 0
M  V30 19796 H 39.4108 -6.90173 0.474152 0
M  V30 19797 H 38.5428 -7.66548 2.79458 0
M  V30 19798 P 34.5798 -8.03563 3.84925 0
M  V30 19799 O 34.3598 -8.85821 5.0569 0
M  V30 19800 O 33.7898 -8.41101 2.65469 0
M  V30 19801 O 34.3298 -6.4965 4.18908 0
M  V30 19802 C 35.2698 -5.81037 5.05421 0
M  V30 19803 C 34.5398 -4.78366 5.89277 0
M  V30 19804 O 34.3298 -3.58302 5.08433 0
M  V30 19805 C 33.1398 -5.17448 6.36119 0
M  V30 19806 O 32.7498 -4.45271 7.53232 0
M  V30 19807 C 32.2598 -4.74639 5.19936 0
M  V30 19808 C 32.9698 -3.49432 4.70418 0
M  V30 19809 N 32.9198 -3.31776 3.22945 0
M  V30 19810 H 35.7588 -6.54213 5.71376 0
M  V30 19811 H 36.0308 -5.30492 4.44033 0
M  V30 19812 H 35.1628 -4.55889 6.76652 0
M  V30 19813 P 31.1998 -4.23843 7.83734 0
M  V30 19814 O 30.9798 -4.19407 9.29784 0
M  V30 19815 O 30.4098 -5.24426 7.09156 0
M  V30 19816 O 30.9498 -2.7935 7.20758 0
M  V30 19817 C 31.8898 -1.7299 7.50419 0
M  V30 19818 C 31.1598 -0.406376 7.57911 0
M  V30 19819 O 30.9498 0.0897726 6.21935 0
M  V30 19820 C 29.7598 -0.447224 8.1878 0
M  V30 19821 O 29.3698 0.825065 8.71101 0
M  V30 19822 C 28.8798 -0.783801 6.99623 0
M  V30 19823 C 29.5898 -0.0619192 5.85967 0
M  V30 19824 N 29.5398 -0.7859 4.56281 0
M  V30 19825 H 32.3788 -1.93423 8.4679 0
M  V30 19826 H 32.6508 -1.68181 6.71046 0
M  V30 19827 H 31.7828 0.289041 8.15388 0
M  V30 19828 P 27.8199 1.17771 8.83182 0
M  V30 19829 O 27.5999 2.07206 9.98732 0
M  V30 19830 O 27.0299 -0.0743816 8.81969 0
M  V30 19831 O 27.5699 1.97652 7.47304 0
M  V30 19832 C 28.5099 3.01133 7.08783 0
M  V30 19833 C 27.7799 4.12613 6.37049 0
M  V30 19834 O 27.5699 3.72827 4.97879 0
M  V30 19835 C 26.3799 4.45085 6.88694 0
M  V30 19836 O 25.9899 5.7877 6.5624 0
M  V30 19837 C 25.4999 3.47817 6.12078 0
M  V30 19838 C 26.2099 3.39414 4.77697 0
M  V30 19839 N 26.1599 2.04199 4.15538 0
M  V30 19840 H 28.9989 3.41248 7.98759 0
M  V30 19841 H 29.2709 2.57728 6.42 0
M  V30 19842 H 28.4029 5.02657 6.42673 0
M  V30 19843 H 25.7479 4.11708 4.08956 0
M  V30 19844 H 25.4679 2.49626 6.61679 0
M  V30 19845 H 24.4769 3.8662 6.00862 0
M  V30 19846 H 26.3109 4.29991 7.97006 0
M  V30 19847 P 24.4399 6.144 6.45285 0
M  V30 19848 O 24.2199 7.54673 6.86199 0
M  V30 19849 O 23.6499 5.12391 7.179 0
M  V30 19850 O 24.1899 5.99236 4.88467 0
M  V30 19851 C 25.1299 6.60234 3.96415 0
M  V30 19852 C 24.3999 7.08079 2.736 0
M  V30 19853 O 24.1899 5.94365 1.8368 0
M  V30 19854 C 22.9999 7.64886 2.9555 0
M  V30 19855 O 22.6099 8.5406 1.90739 0
M  V30 19856 C 22.1199 6.4116 2.90739 0
M  V30 19857 C 22.8299 5.55375 1.86963 0
M  V30 19858 N 22.7799 4.09664 2.15742 0
M  V30 19859 C 22.6299 3.22231 1.08477 0
M  V30 19860 O 22.5399 3.68951 -0.0600489 0
M  V30 19861 N 22.5799 1.76692 1.48799 0
M  V30 19862 C 22.6799 1.41695 2.57602 0
M  V30 19863 N 22.6299 0.107296 2.75791 0
M  V30 19864 C 22.8299 2.29178 3.69733 0
M  V30 19865 C 22.8799 3.62753 3.42653 0
M  V30 19866 H 25.6199 7.45488 4.45578 0
M  V30 19867 H 25.8899 5.86232 3.67314 0
M  V30 19868 H 25.0229 7.84508 2.24507 0
M  V30 19869 H 22.3679 5.73556 0.888715 0
M  V30 19870 H 22.0879 5.9096 3.88638 0
M  V30 19871 H 21.0969 6.66053 2.58894 0
M  V30 19872 H 22.9309 8.16339 3.92049 0
M  V30 19873 H 23.0029 4.33052 4.24913 0
M  V30 19874 H 22.9009 1.9103 4.71577 0
M  V30 19875 H 22.5129 -0.521221 1.95056 0
M  V30 19876 H 22.7089 -0.286429 3.70695 0
M  V30 19877 P 21.0599 8.7635 1.60911 0
M  V30 19878 O 20.8399 10.1388 1.11561 0
M  V30 19879 O 20.2699 8.36503 2.79617 0
M  V30 19880 O 20.8099 7.71806 0.42951 0
M  V30 19881 C 21.7499 7.66948 -0.673514 0
M  V30 19882 C 21.0199 7.33374 -1.95559 0
M  V30 19883 O 20.8099 5.88721 -2.00726 0
M  V30 19884 C 19.6199 7.92218 -2.1125 0
M  V30 19885 O 19.2299 8.02971 -3.47653 0
M  V30 19886 C 18.7399 6.89504 -1.41631 0
M  V30 19887 C 19.4499 5.59106 -1.75155 0
M  V30 19888 N 19.3999 4.58136 -0.662409 0
M  V30 19889 C 19.2499 3.26059 -1.02863 0
M  V30 19890 O 19.1599 2.90743 -2.19009 0
M  V30 19891 N 19.2099 2.35995 0.0155585 0
M  V30 19892 C 19.2999 2.65248 1.35603 0
M  V30 19893 O 19.2499 1.75605 2.20651 0
M  V30 19894 C 19.4499 4.05747 1.64698 0
M  V30 19895 C 19.5599 4.42345 3.09553 0
M  V30 19896 C 19.4999 4.96734 0.652411 0
M  V30 19897 H 22.2409 8.64917 -0.776982 0
M  V30 19898 H 22.5099 6.89974 -0.474015 0
M  V30 19899 H 21.6429 7.66548 -2.79458 0
M  V30 19900 H 18.9879 5.16076 -2.65138 0
M  V30 19901 H 18.7089 7.06433 -0.329384 0
M  V30 19902 H 17.7169 6.90829 -1.81996 0
M  V30 19903 H 19.5509 8.90774 -1.62639 0
M  V30 19904 H 19.6219 6.02181 0.895285 0
M  V30 19905 H 18.5919 4.80252 3.45468 0
M  V30 19906 H 20.3289 5.20015 3.22119 0
M  V30 19907 H 19.8409 3.53269 3.67833 0
M  V30 19908 H 19.1049 1.39558 -0.227499 0
M  V30 19909 P 17.6799 8.03563 -3.84925 0
M  V30 19910 O 17.4599 8.85821 -5.0569 0
M  V30 19911 O 16.8899 8.41101 -2.65469 0
M  V30 19912 O 17.4299 6.4965 -4.18908 0
M  V30 19913 C 18.3699 5.81037 -5.05421 0
M  V30 19914 C 17.6399 4.78366 -5.89277 0
M  V30 19915 O 17.4299 3.58302 -5.08433 0
M  V30 19916 C 16.2399 5.17448 -6.36119 0
M  V30 19917 O 15.8499 4.45271 -7.53232 0
M  V30 19918 C 15.3599 4.74639 -5.19936 0
M  V30 19919 C 16.0699 3.49432 -4.70418 0
M  V30 19920 N 16.0199 3.32099 -3.22613 0
M  V30 19921 H 18.8589 6.54213 -5.71376 0
M  V30 19922 H 19.1309 5.30936 -4.43503 0
M  V30 19923 H 18.2629 4.55889 -6.76652 0
M  V30 19924 H 15.6079 2.61715 -5.17932 0
M  V30 19925 H 15.3279 5.52155 -4.41878 0
M  V30 19926 H 14.3369 4.51981 -5.53374 0
M  V30 19927 H 16.1709 6.25124 -6.55234 0
M  V30 19928 P 14.2999 4.23843 -7.83734 0
M  V30 19929 O 14.0799 4.19407 -9.29784 0
M  V30 19930 O 13.5099 5.24426 -7.09156 0
M  V30 19931 O 14.0499 2.7935 -7.20758 0
M  V30 19932 C 14.9899 1.72945 -7.50224 0
M  V30 19933 C 14.2599 0.406376 -7.57911 0
M  V30 19934 O 14.0499 -0.0897726 -6.21935 0
M  V30 19935 C 12.8599 0.438983 -8.18724 0
M  V30 19936 O 12.4699 -0.825065 -8.71101 0
M  V30 19937 C 11.9799 0.783689 -6.99524 0
M  V30 19938 C 12.6899 0.0619086 -5.85867 0
M  V30 19939 N 12.6399 0.78573 -4.56183 0
M  V30 19940 C 12.4899 0.0292889 -3.41887 0
M  V30 19941 O 12.3999 -1.18445 -3.4419 0
M  V30 19942 N 12.4499 0.744061 -2.23964 0
M  V30 19943 C 12.5399 2.10932 -2.10362 0
M  V30 19944 C 12.6899 2.8202 -3.34994 0
M  V30 19945 C 12.7399 2.15547 -4.52261 0
M  V30 19946 H 15.4809 1.93379 -8.46595 0
M  V30 19947 H 15.7499 1.68132 -6.70852 0
M  V30 19948 H 14.8829 -0.289041 -8.15388 0
M  V30 19949 H 12.2279 -0.926847 -5.72749 0
M  V30 19950 H 11.9489 1.86973 -6.82036 0
M  V30 19951 H 10.9569 0.403896 -7.13257 0
M  V30 19952 H 12.7909 1.20585 -8.97435 0
M  V30 19953 H 12.8619 2.71231 -5.45042 0
M  V30 19954 P 10.92 -1.17771 -8.83182 0
M  V30 19955 O 10.7 -2.07206 -9.98732 0
M  V30 19956 O 10.13 0.0743816 -8.81969 0
M  V30 19957 O 10.67 -1.97652 -7.47304 0
M  V30 19958 C 11.61 -3.01133 -7.08783 0
M  V30 19959 C 10.88 -4.12613 -6.37049 0
M  V30 19960 O 10.67 -3.72827 -4.97879 0
M  V30 19961 C 9.47996 -4.45085 -6.88694 0
M  V30 19962 O 9.08996 -5.7877 -6.5624 0
M  V30 19963 C 8.59996 -3.47817 -6.12078 0
M  V30 19964 C 9.30996 -3.39414 -4.77697 0
M  V30 19965 N 9.25996 -2.04615 -4.15333 0
M  V30 19966 H 12.099 -3.41248 -7.98759 0
M  V30 19967 H 12.371 -2.5837 -6.41742 0
M  V30 19968 H 11.503 -5.02657 -6.42673 0
M  V30 19969 P 7.53998 -6.144 -6.45285 0
M  V30 19970 O 7.31998 -7.54673 -6.86199 0
M  V30 19971 O 6.74998 -5.12391 -7.179 0
M  V30 19972 O 7.28998 -5.99158 -4.88404 0
M  V30 19973 C 8.22998 -6.60234 -3.96415 0
M  V30 19974 C 7.49998 -7.08259 -2.72856 0
M  V30 19975 O 7.28998 -5.9427 -1.83651 0
M  V30 19976 C 6.09998 -7.64886 -2.9555 0
M  V30 19977 O 5.70998 -8.53963 -1.90717 0
M  V30 19978 C 5.21998 -6.4116 -2.90739 0
M  V30 19979 C 5.92998 -5.55375 -1.86963 0
M  V30 19980 N 5.87998 -4.09664 -2.15742 0
M  V30 19981 H 8.71898 -7.45574 -4.45629 0
M  V30 19982 H 8.99098 -5.86232 -3.67314 0
M  V30 19983 H 8.12298 -7.84412 -2.24479 0
M  V30 19984 P 4.16 -8.7635 -1.60911 0
M  V30 19985 O 3.94 -10.1388 -1.11561 0
M  V30 19986 O 3.37 -8.36503 -2.79617 0
M  V30 19987 O 3.91 -7.71806 -0.42951 0
M  V30 19988 C 4.85 -7.67148 0.673689 0
M  V30 19989 C 4.12 -7.33374 1.95559 0
M  V30 19990 O 3.91 -5.88721 2.00726 0
M  V30 19991 C 2.72 -7.92526 2.10483 0
M  V30 19992 O 2.33 -8.02971 3.47653 0
M  V30 19993 C 1.84 -6.89602 1.41652 0
M  V30 19994 C 2.55 -5.59201 1.75185 0
M  V30 19995 N 2.5 -4.58235 0.662552 0
M  V30 19996 H 5.339 -8.65116 0.777161 0
M  V30 19997 H 5.611 -6.90173 0.474152 0
M  V30 19998 H 4.743 -7.66548 2.79458 0
M  V30 19999 H 1.613 -8.66322 3.55694 0
M  V30 END ATOM
M  V30 BEGIN BOND
M  V30 END BOND
M  V30 END CTAB
M  END
$$$$
