drugbank_target|Q9BXA7 Testis-specific serine/threonine-protein kinase 1 (DB12010)
 OpenBabel12092121143D

  0  0  0     0  0            999 V3000
M  V30 BEGIN CTAB
M  V30 COUNTS 5862 5925 0 0 0
M  V30 BEGIN ATOM
M  V30 1 H -0.908 1.98254 -0.117106 0
M  V30 2 N 0 1.576 0 0
M  V30 3 C 0.933 2.03868 1.02534 0
M  V30 4 C 1.911 0.928543 1.3348 0
M  V30 5 O 3.095 1.19667 1.45644 0
M  V30 6 C 0.222 2.43627 2.35294 0
M  V30 7 C -0.732 3.65373 2.2001 0
M  V30 8 S 0.101 5.13292 1.52614 0
M  V30 9 C 1.257 5.56322 2.86805 0
M  V30 10 H 1.49 2.90518 0.631377 0
M  V30 11 H -0.977 1.52953 0.210867 0
M  V30 12 H 0.981 2.67203 3.11629 0
M  V30 13 H -0.358 1.57376 2.7183 0
M  V30 14 H -1.165 3.90944 3.18086 0
M  V30 15 H -1.563 3.418 1.51819 0
M  V30 16 H 0.729 5.58782 3.83104 0
M  V30 17 H 1.672 6.56266 2.65933 0
M  V30 18 H 2.08 4.83886 2.90714 0
M  V30 19 N 1.4781 -0.272755 1.55222 0
M  V30 20 C 2.7551 -1.02562 1.66555 0
M  V30 21 C 3.1351 -2.04282 0.532189 0
M  V30 22 O 2.4831 -2.23662 -0.467717 0
M  V30 23 C 2.6931 -1.6822 3.05782 0
M  V30 24 C 4.0411 -2.19373 3.63539 0
M  V30 25 O 5.0651 -1.78206 3.08417 0
M  V30 26 O 3.9241 -2.94883 4.60115 0
M  V30 27 H 1.0181 -0.475755 0.676451 0
M  V30 28 H 3.5641 -0.268593 1.67561 0
M  V30 29 H 2.3361 -0.945112 3.79715 0
M  V30 30 H 1.9591 -2.50609 3.08676 0
M  V30 31 N 2.9562 -1.48159 -0.537278 0
M  V30 32 C 4.2332 -1.46291 -1.29839 0
M  V30 33 C 4.6132 -0.170613 -2.10409 0
M  V30 34 O 3.9612 0.847746 -2.12192 0
M  V30 35 C 4.1712 -2.72055 -2.18603 0
M  V30 36 C 5.5192 -3.20087 -2.7898 0
M  V30 37 O 6.5432 -2.72921 -2.28894 0
M  V30 38 O 5.4022 -4.02138 -3.70064 0
M  V30 39 H 2.4962 -0.583906 -0.585647 0
M  V30 40 H 5.0422 -1.60384 -0.554534 0
M  V30 41 H 3.8142 -3.57628 -1.58801 0
M  V30 42 H 3.4372 -2.60646 -3.00249 0
M  V30 43 N 4.4343 0.785586 -1.36625 0
M  V30 44 C 5.3973 1.87999 -1.31107 0
M  V30 45 C 6.3973 1.59316 -0.217959 0
M  V30 46 O 7.5873 1.67656 -0.472977 0
M  V30 47 C 4.7193 3.24861 -1.03334 0
M  V30 48 H 5.9123 1.94307 -2.2844 0
M  V30 49 H 3.4653 0.983813 -1.21453 0
M  V30 50 H 4.2003 3.24235 -0.0647432 0
M  V30 51 H 3.9853 3.4707 -1.82441 0
M  V30 52 H 5.4753 4.04929 -1.02088 0
M  V30 53 N 5.9124 1.20967 1.01018 0
M  V30 54 C 6.8754 0.965918 2.07853 0
M  V30 55 C 7.8754 -0.0610545 1.60684 0
M  V30 56 O 9.0654 0.175681 1.73312 0
M  V30 57 C 6.1974 0.455513 3.37843 0
M  V30 58 H 7.3904 1.91365 2.3091 0
M  V30 59 H 4.9434 1.02594 1.17916 0
M  V30 60 H 5.6784 -0.497381 3.20463 0
M  V30 61 H 5.4634 1.19622 3.73407 0
M  V30 62 H 6.9534 0.304667 4.16487 0
M  V30 63 N 7.3905 -1.2043 1.01659 0
M  V30 64 C 8.6365 -1.90079 0.706963 0
M  V30 65 C 8.9695 -1.78648 -0.761474 0
M  V30 66 O 8.2445 -1.17069 -1.55323 0
M  V30 67 C 8.5275 -3.41469 1.14327 0
M  V30 68 C 8.3805 -3.61833 2.67201 0
M  V30 69 C 9.6995 -4.34261 0.714529 0
M  V30 70 H 6.8185 -0.690254 0.2583 0
M  V30 71 H 9.4605 -1.41826 1.26433 0
M  V30 72 H 7.6105 -3.82696 0.669056 0
M  V30 73 H 9.2825 -3.2986 3.22475 0
M  V30 74 H 7.5255 -3.05304 3.08175 0
M  V30 75 H 8.1965 -4.67955 2.92783 0
M  V30 76 H 10.6725 -4.00682 1.12221 0
M  V30 77 H 9.5485 -5.38806 1.04784 0
M  V30 78 H 9.8095 -4.40431 -0.383799 0
M  V30 79 N 8.8686 -0.792821 -1.36206 0
M  V30 80 C 9.7986 -0.207853 -2.32573 0
M  V30 81 C 10.7796 0.659055 -1.56813 0
M  V30 82 O 11.9646 0.592176 -1.84951 0
M  V30 83 C 9.0946 0.655449 -3.41059 0
M  V30 84 C 8.0486 -0.111842 -4.27854 0
M  V30 85 C 7.3746 0.872274 -5.27537 0
M  V30 86 C 8.6746 -1.30299 -5.05786 0
M  V30 87 H 10.3686 -1.01294 -2.81744 0
M  V30 88 H 7.9146 -0.48854 -1.3546 0
M  V30 89 H 9.8676 1.07464 -4.07467 0
M  V30 90 H 8.5916 1.49328 -2.90463 0
M  V30 91 H 7.2506 -0.512053 -3.63006 0
M  V30 92 H 6.8986 1.70523 -4.73214 0
M  V30 93 H 6.5986 0.363291 -5.86476 0
M  V30 94 H 8.1226 1.28996 -5.96818 0
M  V30 95 H 9.5366 -0.959379 -5.65216 0
M  V30 96 H 7.9336 -1.7455 -5.74154 0
M  V30 97 H 9.0036 -2.09663 -4.37229 0
M  V30 98 N 10.3467 1.47872 -0.545128 0
M  V30 99 C 11.2937 2.29849 0.2093 0
M  V30 100 C 12.2637 1.38313 0.919707 0
M  V30 101 O 13.4487 1.67277 0.917772 0
M  V30 102 C 10.5887 3.22019 1.24088 0
M  V30 103 C 9.7017 4.2864 0.537778 0
M  V30 104 C 8.8367 5.07973 1.5536 0
M  V30 105 C 7.8757 6.06381 0.8348 0
M  V30 106 N 7.0127 6.78717 1.79688 0
M  V30 107 H 11.8527 2.93845 -0.49591 0
M  V30 108 H 9.3897 1.44848 -0.256389 0
M  V30 109 H 11.3477 3.73868 1.85144 0
M  V30 110 H 9.9777 2.59914 1.91428 0
M  V30 111 H 9.0297 3.7994 -0.187046 0
M  V30 112 H 10.3417 4.98793 -0.0258907 0
M  V30 113 H 9.4957 5.63912 2.23803 0
M  V30 114 H 8.2347 4.37693 2.15118 0
M  V30 115 H 7.2397 5.49631 0.136388 0
M  V30 116 H 8.4647 6.78665 0.24313 0
M  V30 117 H 6.4107 6.11177 2.38326 0
M  V30 118 H 6.3277 7.44998 1.28505 0
M  V30 119 H 7.5957 7.39237 2.47282 0
M  V30 120 N 11.8248 0.280983 1.55075 0
M  V30 121 C 13.2408 -0.0729964 1.59433 0
M  V30 122 C 13.4408 -1.5411 1.29817 0
M  V30 123 O 12.4968 -2.29086 1.06187 0
M  V30 124 C 13.8098 0.306921 2.9913 0
M  V30 125 C 15.3578 0.254023 3.11968 0
M  V30 126 C 15.8328 0.608467 4.5394 0
M  V30 127 N 17.3238 0.560241 4.59799 0
M  V30 128 C 18.0588 0.80722 5.6769 0
M  V30 129 N 17.5548 1.11912 6.83701 0
M  V30 130 N 19.3478 0.735623 5.57266 0
M  V30 131 H 11.4988 1.238 1.7259 0
M  V30 132 H 13.7618 0.500547 0.805082 0
M  V30 133 H 13.4678 1.32816 3.25657 0
M  V30 134 H 13.3418 -0.349363 3.75579 0
M  V30 135 H 15.7288 -0.75794 2.852 0
M  V30 136 H 15.8098 0.944649 2.37718 0
M  V30 137 H 15.4538 1.61814 4.81434 0
M  V30 138 H 15.3838 -0.104013 5.26497 0
M  V30 139 H 17.8748 0.329288 3.76463 0
M  V30 140 H 18.1878 1.29409 7.61888 0
M  V30 141 H 16.5328 1.15695 6.85303 0
M  V30 142 H 19.7238 0.491752 4.6551 0
M  V30 143 H 19.8968 0.931482 6.4127 0
M  V30 144 N 13.3029 -1.57598 0.00835791 0
M  V30 145 C 14.7189 -1.55764 -0.347822 0
M  V30 146 C 14.9189 -1.01186 -1.74252 0
M  V30 147 O 13.9749 -0.649371 -2.44007 0
M  V30 148 C 15.2879 -2.99927 -0.215407 0
M  V30 149 C 16.8359 -3.11656 -0.289725 0
M  V30 150 C 17.3109 -4.57621 -0.18634 0
M  V30 151 N 18.8019 -4.62557 -0.243978 0
M  V30 152 C 19.5369 -5.73094 -0.18745 0
M  V30 153 N 19.0329 -6.92753 -0.0810331 0
M  V30 154 N 20.8259 -5.61588 -0.239925 0
M  V30 155 H 12.9769 -1.91411 0.92062 0
M  V30 156 H 15.2399 -0.879562 0.353659 0
M  V30 157 H 14.9459 -3.43729 0.744512 0
M  V30 158 H 14.8199 -3.63865 -0.994097 0
M  V30 159 H 17.2069 -2.67779 -1.24009 0
M  V30 160 H 17.2879 -2.5048 0.51898 0
M  V30 161 H 16.9319 -5.02174 0.760519 0
M  V30 162 H 16.8619 -5.16752 -1.01364 0
M  V30 163 H 19.3529 -3.76481 -0.327217 0
M  V30 164 H 19.6659 -7.72787 -0.0440241 0
M  V30 165 H 18.0109 -6.94984 -0.0465419 0
M  V30 166 H 21.2019 -4.66996 -0.321317 0
M  V30 167 H 21.3749 -6.47714 -0.192407 0
M  V30 168 N 14.781 0.264519 -1.55364 0
M  V30 169 C 16.029 0.993021 -1.76021 0
M  V30 170 C 16.35 1.86511 -0.569099 0
M  V30 171 O 15.62 1.91438 0.415735 0
M  V30 172 H 14.2 0.369639 -0.649135 0
M  V30 173 H 16.862 0.286707 -1.9278 0
M  V30 174 H 15.958 1.62502 -2.66457 0
M  V30 175 N 16.2591 1.48442 0.529413 0
M  V30 176 C 17.4891 1.59919 1.30804 0
M  V30 177 C 17.8971 0.258792 1.87422 0
M  V30 178 O 17.2401 -0.762096 1.67146 0
M  V30 179 C 17.3021 2.58693 2.49636 0
M  V30 180 C 16.9661 4.03745 2.14101 0
M  V30 181 C 17.9631 4.9141 1.6974 0
M  V30 182 C 15.6481 4.49285 2.24607 0
M  V30 183 C 17.6421 6.22645 1.36351 0
M  V30 184 C 15.3291 5.8054 1.9083 0
M  V30 185 C 16.3271 6.67043 1.46773 0
M  V30 186 O 16.0151 7.95856 1.1344 0
M  V30 187 H 15.7471 0.541981 0.404021 0
M  V30 188 H 18.3011 1.95 0.645309 0
M  V30 189 H 16.5311 2.18734 3.18892 0
M  V30 190 H 18.2201 2.59999 3.11698 0
M  V30 191 H 18.9861 4.57465 1.61094 0
M  V30 192 H 14.8651 3.82142 2.57854 0
M  V30 193 H 18.4091 6.90119 1.01891 0
M  V30 194 H 14.3061 6.14022 1.99117 0
M  V30 195 H 15.0741 8.08613 1.26832 0
M  V30 196 N 17.7372 -0.778329 1.37039 0
M  V30 197 C 18.6672 -1.90546 1.34962 0
M  V30 198 C 19.6482 -1.68681 0.219274 0
M  V30 199 O 20.8332 -1.89634 0.418624 0
M  V30 200 C 17.9632 -3.27734 1.14925 0
M  V30 201 C 16.9172 -3.64147 2.24902 0
M  V30 202 C 16.2432 -4.99806 1.89996 0
M  V30 203 C 17.5432 -3.71579 3.67051 0
M  V30 204 H 19.2372 -1.92541 2.29277 0
M  V30 205 H 16.7832 -0.924948 1.10366 0
M  V30 206 H 18.7362 -4.06215 1.12104 0
M  V30 207 H 17.4602 -3.26154 0.170631 0
M  V30 208 H 16.1192 -2.8797 2.26868 0
M  V30 209 H 15.7672 -4.94759 0.906796 0
M  V30 210 H 15.4672 -5.25139 2.63634 0
M  V30 211 H 16.9912 -5.80694 1.88749 0
M  V30 212 H 18.4052 -4.40227 3.67251 0
M  V30 213 H 16.8022 -4.08405 4.39688 0
M  V30 214 H 17.8722 -2.72404 4.01154 0
M  V30 215 N 19.2153 -1.21501 -1.00376 0
M  V30 216 C 20.1453 -0.999478 -2.11028 0
M  V30 217 C 21.1263 0.0759671 -1.6993 0
M  V30 218 O 22.3113 -0.0841106 -1.94018 0
M  V30 219 C 19.4413 -0.564709 -3.42678 0
M  V30 220 C 18.3953 -1.58486 -3.97576 0
M  V30 221 C 17.7213 -1.00628 -5.25146 0
M  V30 222 C 19.0213 -2.97204 -4.29496 0
M  V30 223 H 20.7153 -1.92495 -2.29317 0
M  V30 224 H 18.2613 -0.92693 -1.102 0
M  V30 225 H 20.2143 -0.401091 -4.19487 0
M  V30 226 H 18.9383 0.396411 -3.24185 0
M  V30 227 H 17.5973 -1.73606 -3.22888 0
M  V30 228 H 17.2453 -0.0368439 -5.02987 0
M  V30 229 H 16.9453 -1.68771 -5.62841 0
M  V30 230 H 18.4693 -0.854015 -6.04598 0
M  V30 231 H 19.8833 -2.8552 -4.97143 0
M  V30 232 H 18.2803 -3.62372 -4.78338 0
M  V30 233 H 19.3503 -3.47956 -3.3772 0
M  V30 234 N 20.6934 1.19889 -1.02296 0
M  V30 235 C 21.9414 1.89046 -0.714558 0
M  V30 236 C 22.2624 1.79636 0.758681 0
M  V30 237 O 21.5324 1.20292 1.54618 0
M  V30 238 H 20.1124 0.699802 -0.261317 0
M  V30 239 H 22.7744 1.45574 -1.29592 0
M  V30 240 H 21.8704 2.95524 -1.0036 0
M  V30 241 N 22.1715 0.800033 1.35784 0
M  V30 242 C 23.4205 0.37387 1.98205 0
M  V30 243 C 23.7335 -1.06302 1.64193 0
M  V30 244 O 24.9395 -1.59198 2.19928 0
M  V30 245 C 23.3955 0.617532 3.54562 0
M  V30 246 C 23.0035 2.06654 3.9749 0
M  V30 247 C 24.7475 0.256401 4.23725 0
M  V30 248 C 22.6545 2.2563 5.46667 0
M  V30 249 H 21.5845 0.136055 0.741623 0
M  V30 250 H 24.2355 0.983166 1.54939 0
M  V30 251 H 22.6175 -0.0616248 3.95952 0
M  V30 252 H 23.7915 2.78296 3.67271 0
M  V30 253 H 22.1065 2.38691 3.41197 0
M  V30 254 H 24.7035 0.376318 5.33374 0
M  V30 255 H 25.0465 -0.796692 4.08606 0
M  V30 256 H 25.5795 0.889214 3.87734 0
M  V30 257 H 22.3185 3.2936 5.66747 0
M  V30 258 H 21.8385 1.58504 5.78478 0
M  V30 259 H 23.5175 2.06861 6.1304 0
M  V30 260 N 23.6496 -1.47581 0.552962 0
M  V30 261 C 24.5976 -2.31648 -0.21023 0
M  V30 262 C 25.5916 -1.42663 -0.913432 0
M  V30 263 O 26.7976 -1.5945 -0.835201 0
M  V30 264 H 23.1726 -0.746989 -0.0866676 0
M  V30 265 H 25.1436 -2.93869 0.518051 0
M  V30 266 C 23.8926 -3.25226 -1.22976 0
M  V30 267 H 23.2156 -3.93658 -0.698077 0
M  V30 268 H 24.6556 -3.86889 -1.73473 0
M  V30 269 C 23.1146 -2.48448 -2.27542 0
M  V30 270 O 23.6446 -2.22585 -3.34393 0
M  V30 271 N 21.8506 -2.09532 -2.01357 0
M  V30 272 H 21.3976 -2.30765 -1.14478 0
M  V30 273 H 21.3556 -1.58476 -2.71538 0
M  V30 274 N 25.1277 -0.289203 -1.54924 0
M  V30 275 C 26.0577 0.58549 -2.2604 0
M  V30 276 C 27.0387 1.14753 -1.25562 0
M  V30 277 O 28.2237 1.17906 -1.54311 0
M  V30 278 C 25.3537 1.76305 -2.99222 0
M  V30 279 C 24.3077 1.33191 -4.06748 0
M  V30 280 C 23.6337 2.5937 -4.6758 0
M  V30 281 C 24.9337 0.471775 -5.20165 0
M  V30 282 H 26.6277 -0.00763532 -2.99399 0
M  V30 283 H 24.1737 -0.00511229 -1.43999 0
M  V30 284 H 26.1267 2.38097 -3.47689 0
M  V30 285 H 24.8507 2.38223 -2.23422 0
M  V30 286 H 23.5097 0.737121 -3.59113 0
M  V30 287 H 23.1577 3.19576 -3.88433 0
M  V30 288 H 22.8577 2.31228 -5.40192 0
M  V30 289 H 24.3817 3.21985 -5.18804 0
M  V30 290 H 25.7957 0.995056 -5.64599 0
M  V30 291 H 24.1927 0.284639 -5.99425 0
M  V30 292 H 25.2627 -0.506041 -4.82252 0
M  V30 293 N 26.6058 1.57591 -0.0167156 0
M  V30 294 C 27.8538 1.90906 0.663285 0
M  V30 295 C 28.1748 0.892509 1.73376 0
M  V30 296 O 27.4448 -0.0677623 1.95783 0
M  V30 297 H 26.0248 0.704637 0.247983 0
M  V30 298 H 28.6868 1.94803 -0.0615909 0
M  V30 299 H 27.7828 2.9116 1.12393 0
M  V30 300 N 28.0839 -0.256276 1.55502 0
M  V30 301 C 28.9939 -1.33882 1.92647 0
M  V30 302 C 30.0099 -1.53159 0.825727 0
M  V30 303 O 31.1859 -1.66963 1.12629 0
M  V30 304 C 28.2509 -2.6751 2.20543 0
M  V30 305 C 27.3119 -2.56836 3.43997 0
M  V30 306 C 26.5449 -3.84092 3.70553 0
M  V30 307 O 26.7679 -4.85545 2.99336 0
M  V30 308 O 25.7019 -3.83288 4.64084 0
M  V30 309 H 29.5279 -1.05374 2.84833 0
M  V30 310 H 27.1129 -0.456237 1.42263 0
M  V30 311 H 28.9949 -3.46492 2.39835 0
M  V30 312 H 27.6699 -2.9577 1.31536 0
M  V30 313 H 26.5769 -1.76172 3.30021 0
M  V30 314 H 27.9099 -2.33523 4.33275 0
M  V30 315 N 29.562 -1.4872 -0.521534 0
M  V30 316 C 30.81 -1.56857 -1.27437 0
M  V30 317 C 31.131 -0.247982 -1.93417 0
M  V30 318 O 30.401 0.731151 -1.81744 0
M  V30 319 H 28.981 -0.577885 -0.473347 0
M  V30 320 H 31.643 -1.85233 -0.606205 0
M  V30 321 H 30.739 -2.35402 -2.0492 0
M  V30 322 N 31.0401 0.771051 -1.3745 0
M  V30 323 C 32.2651 1.56529 -1.36065 0
M  V30 324 C 32.6901 1.88029 0.0515859 0
M  V30 325 O 32.0481 1.49282 1.02882 0
M  V30 326 C 32.0961 2.85187 -2.20683 0
M  V30 327 O 31.2001 3.79593 -1.61193 0
M  V30 328 H 30.5411 0.47411 -0.464883 0
M  V30 329 H 33.0711 0.954269 -1.80983 0
M  V30 330 H 33.0811 3.34283 -2.33921 0
M  V30 331 H 31.7561 2.61588 -3.23334 0
M  V30 332 H 30.3331 3.38239 -1.56999 0
M  V30 333 N 32.5182 1.22032 0.997298 0
M  V30 334 C 33.7482 1.06686 1.76923 0
M  V30 335 C 34.1562 -0.385838 1.85224 0
M  V30 336 O 33.4992 -1.27929 1.31833 0
M  V30 337 C 33.5612 1.59802 3.22031 0
M  V30 338 C 33.2252 3.08362 3.37286 0
M  V30 339 C 34.2222 4.05835 3.24952 0
M  V30 340 C 31.9072 3.47727 3.6248 0
M  V30 341 C 33.9012 5.4066 3.37588 0
M  V30 342 C 31.5882 4.82701 3.74757 0
M  V30 343 C 32.5862 5.78977 3.62319 0
M  V30 344 O 32.2742 7.11502 3.74193 0
M  V30 345 H 32.0062 0.374767 0.562606 0
M  V30 346 H 34.5602 1.61991 1.26286 0
M  V30 347 H 32.7902 0.989003 3.73839 0
M  V30 348 H 34.4792 1.40184 3.80924 0
M  V30 349 H 35.2452 3.76766 3.05405 0
M  V30 350 H 31.1242 2.73317 3.7124 0
M  V30 351 H 34.6682 6.15788 3.27796 0
M  V30 352 H 30.5652 5.11453 3.9381 0
M  V30 353 H 31.3332 7.19019 3.91093 0
M  V30 354 N 33.9963 -1.19345 1.0293 0
M  V30 355 C 34.9593 -2.20793 0.615069 0
M  V30 356 C 35.9593 -1.57553 -0.321533 0
M  V30 357 O 37.1493 -1.73862 -0.108483 0
M  V30 358 C 34.2813 -3.40754 -0.0999222 0
M  V30 359 H 35.4743 -2.58955 1.51269 0
M  V30 360 H 33.0273 -1.3303 0.820534 0
M  V30 361 H 33.7623 -3.0811 -1.01187 0
M  V30 362 H 33.5473 -3.87889 0.57309 0
M  V30 363 H 35.0373 -4.15898 -0.376645 0
M  V30 364 N 35.4744 -0.807222 -1.35358 0
M  V30 365 C 36.4214 -0.216037 -2.29787 0
M  V30 366 C 37.3914 0.650278 -1.52842 0
M  V30 367 O 38.5764 0.595227 -1.81278 0
M  V30 368 C 35.7164 0.628893 -3.39321 0
M  V30 369 C 34.8294 -0.257927 -4.31229 0
M  V30 370 C 33.9644 0.595069 -5.27856 0
M  V30 371 C 33.0034 -0.292111 -6.11403 0
M  V30 372 N 32.1404 0.520895 -7.00165 0
M  V30 373 H 36.9804 -1.02671 -2.79755 0
M  V30 374 H 34.5174 -0.517839 -1.37684 0
M  V30 375 H 36.4754 1.13393 -4.01494 0
M  V30 376 H 35.1054 1.40482 -2.90628 0
M  V30 377 H 34.1574 -0.881076 -3.70056 0
M  V30 378 H 35.4694 -0.940759 -4.89848 0
M  V30 379 H 34.6234 1.16522 -5.95405 0
M  V30 380 H 33.3624 1.31146 -4.69736 0
M  V30 381 H 32.3674 -0.874525 -5.428 0
M  V30 382 H 33.5924 -1.00638 -6.71602 0
M  V30 383 H 31.5384 1.22125 -6.44532 0
M  V30 384 H 31.4554 -0.103877 -7.55929 0
M  V30 385 H 32.7234 1.0743 -7.72062 0
M  V30 386 N 36.9525 1.47285 -0.560781 0
M  V30 387 C 38.1985 2.02764 -0.0381184 0
M  V30 388 C 38.5315 1.43384 1.30976 0
M  V30 389 O 37.8065 0.590733 1.85312 0
M  V30 390 C 38.0895 3.60064 0.0511427 0
M  V30 391 C 37.9425 4.2987 -1.32408 0
M  V30 392 C 39.2615 4.33439 0.762795 0
M  V30 393 H 36.3805 0.736841 -0.0153264 0
M  V30 394 H 39.0225 1.75675 -0.723759 0
M  V30 395 H 37.1725 3.83274 0.635065 0
M  V30 396 H 38.8445 4.17989 -1.95148 0
M  V30 397 H 37.0875 3.90085 -1.8978 0
M  V30 398 H 37.7585 5.38478 -1.21431 0
M  V30 399 H 40.2345 4.15243 0.266965 0
M  V30 400 H 39.1105 5.43124 0.794221 0
M  V30 401 H 39.3715 4.02915 1.81966 0
M  V30 402 N 38.4306 0.297415 1.54768 0
M  V30 403 C 39.3776 -0.580276 2.23386 0
M  V30 404 C 40.3476 -1.13238 1.21517 0
M  V30 405 O 41.5326 -1.17757 1.50126 0
M  V30 406 C 38.6726 -1.74801 2.97555 0
M  V30 407 C 37.7856 -1.22764 4.1419 0
M  V30 408 C 36.9206 -2.35895 4.75949 0
M  V30 409 C 35.9596 -1.80974 5.84735 0
M  V30 410 N 35.0966 -2.87664 6.40464 0
M  V30 411 H 39.9366 0.0114833 2.97998 0
M  V30 412 H 37.4736 0.0174361 1.4709 0
M  V30 413 H 39.4316 -2.43475 3.38786 0
M  V30 414 H 38.0616 -2.31145 2.25326 0
M  V30 415 H 37.1136 -0.433271 3.77924 0
M  V30 416 H 38.4256 -0.785551 4.92575 0
M  V30 417 H 37.5796 -3.12523 5.20014 0
M  V30 418 H 36.3186 -2.83429 3.96887 0
M  V30 419 H 35.3236 -1.02834 5.40097 0
M  V30 420 H 36.5486 -1.34348 6.65678 0
M  V30 421 H 34.4946 -3.34538 5.64287 0
M  V30 422 H 34.4116 -2.4794 7.14186 0
M  V30 423 H 35.6796 -3.642 6.89187 0
M  V30 424 N 39.9087 -1.5758 0.0250728 0
M  V30 425 C 41.1337 -1.96337 -0.668317 0
M  V30 426 C 41.5587 -0.901314 -1.651 0
M  V30 427 O 40.9167 0.138187 -1.80773 0
M  V30 428 C 40.9647 -3.34191 -1.35457 0
M  V30 429 O 40.0687 -3.30269 -2.46974 0
M  V30 430 H 39.4097 -0.640281 -0.175887 0
M  V30 431 H 41.9397 -2.0442 0.0857224 0
M  V30 432 H 41.9497 -3.70331 -1.71228 0
M  V30 433 H 40.6247 -4.11036 -0.634218 0
M  V30 434 H 39.2017 -3.05841 -2.13344 0
M  V30 435 N 41.3868 0.248026 -1.55636 0
M  V30 436 C 42.3498 1.29044 -1.89421 0
M  V30 437 C 43.3498 1.41134 -0.770581 0
M  V30 438 O 44.5398 1.39854 -1.03858 0
M  V30 439 C 41.6718 2.66831 -2.12165 0
M  V30 440 H 42.8648 1.00305 -2.82629 0
M  V30 441 H 40.4178 0.487265 -1.48511 0
M  V30 442 H 41.1528 3.00711 -1.21422 0
M  V30 443 H 40.9378 2.59438 -2.93997 0
M  V30 444 H 42.4278 3.42103 -2.3949 0
M  V30 445 N 42.8649 1.48995 0.513639 0
M  V30 446 C 44.0949 1.61297 1.291 0
M  V30 447 C 44.5029 0.278656 1.87137 0
M  V30 448 O 43.8459 -0.744325 1.67945 0
M  V30 449 C 43.9079 2.61326 2.46879 0
M  V30 450 C 43.5719 4.05993 2.09807 0
M  V30 451 C 44.5689 4.93183 1.64519 0
M  V30 452 C 42.2539 4.51642 2.19829 0
M  V30 453 C 44.2479 6.24056 1.2974 0
M  V30 454 C 41.9349 5.82532 1.84662 0
M  V30 455 C 42.9329 6.68562 1.3969 0
M  V30 456 O 42.6209 7.97014 1.04992 0
M  V30 457 H 42.3529 0.546236 0.39825 0
M  V30 458 H 44.9069 1.95673 0.62459 0
M  V30 459 H 43.1369 2.22104 3.16554 0
M  V30 460 H 44.8259 2.6329 3.08923 0
M  V30 461 H 45.5919 4.59147 1.56233 0
M  V30 462 H 41.4709 3.84855 2.53786 0
M  V30 463 H 45.0149 6.91161 0.945659 0
M  V30 464 H 40.9119 6.16099 1.92594 0
M  V30 465 H 41.6799 8.09913 1.18249 0
M  V30 466 N 44.343 -0.763751 1.37857 0
M  V30 467 C 45.568 -1.55805 1.36893 0
M  V30 468 C 45.993 -1.88054 -0.0416135 0
M  V30 469 O 45.351 -1.49825 -1.02089 0
M  V30 470 C 45.399 -2.84012 2.22192 0
M  V30 471 O 44.503 -3.78732 1.63204 0
M  V30 472 H 43.844 -0.471638 0.46739 0
M  V30 473 H 46.374 -0.944657 1.81487 0
M  V30 474 H 46.384 -3.33037 2.35691 0
M  V30 475 H 45.059 -2.59869 3.24716 0
M  V30 476 H 43.636 -3.37402 1.58791 0
M  V30 477 N 45.8211 -1.22559 -0.990812 0
M  V30 478 C 46.7311 -1.01394 -2.11557 0
M  V30 479 C 47.7471 0.0383962 -1.73958 0
M  V30 480 O 48.9231 -0.154787 -2.00804 0
M  V30 481 C 45.9881 -0.596569 -3.41529 0
M  V30 482 C 45.0491 -1.72276 -3.93217 0
M  V30 483 C 44.2821 -1.32521 -5.16985 0
M  V30 484 O 44.5051 -0.204909 -5.70032 0
M  V30 485 O 43.4391 -2.14247 -5.62478 0
M  V30 486 H 47.2651 -1.95633 -2.32296 0
M  V30 487 H 44.8501 -1.01172 -1.0993 0
M  V30 488 H 46.7321 -0.374263 -4.19735 0
M  V30 489 H 45.4071 0.316939 -3.22145 0
M  V30 490 H 44.3141 -1.99961 -3.16174 0
M  V30 491 H 45.6471 -2.61421 -4.17037 0
M  V30 492 N 47.2992 1.18797 -1.03562 0
M  V30 493 C 48.7152 1.40671 -0.753917 0
M  V30 494 C 48.9152 1.9043 0.658686 0
M  V30 495 O 47.9712 2.08538 1.42366 0
M  V30 496 C 49.2842 2.41192 -1.79574 0
M  V30 497 C 50.8322 2.54928 -1.81606 0
M  V30 498 C 51.3072 3.58709 -2.84766 0
M  V30 499 N 52.7982 3.66212 -2.83625 0
M  V30 500 C 53.5332 4.46225 -3.60098 0
M  V30 501 N 53.0292 5.29888 -4.46308 0
M  V30 502 N 54.8222 4.40939 -3.4861 0
M  V30 503 H 46.9732 0.848221 -1.94728 0
M  V30 504 H 49.2362 0.435081 -0.842264 0
M  V30 505 H 48.9422 2.11669 -2.80872 0
M  V30 506 H 48.8162 3.40467 -1.62365 0
M  V30 507 H 51.2032 2.83771 -0.809817 0
M  V30 508 H 51.2842 1.55784 -2.02891 0
M  V30 509 H 50.9282 3.30607 -3.85566 0
M  V30 510 H 50.8582 4.57519 -2.60737 0
M  V30 511 H 53.3492 3.06466 -2.21105 0
M  V30 512 H 53.6622 5.88078 -5.01382 0
M  V30 513 H 52.0072 5.29326 -4.50377 0
M  V30 514 H 55.1982 3.74624 -2.80668 0
M  V30 515 H 55.3712 5.03056 -4.08459 0
M  V30 516 N 48.7773 0.814389 1.34928 0
M  V30 517 C 49.7073 0.244827 2.32213 0
M  V30 518 C 50.6883 -0.634024 1.57842 0
M  V30 519 O 51.8733 -0.562676 1.8587 0
M  V30 520 C 49.0033 -0.601106 3.42058 0
M  V30 521 C 47.9573 0.179896 4.27622 0
M  V30 522 C 47.2833 -0.788237 5.28858 0
M  V30 523 C 48.5833 1.38329 5.03649 0
M  V30 524 H 50.2773 1.05763 2.80097 0
M  V30 525 H 47.8233 0.510029 1.34665 0
M  V30 526 H 49.7763 -1.00968 4.09125 0
M  V30 527 H 48.5003 -1.44688 2.92802 0
M  V30 528 H 47.1593 0.569739 3.62146 0
M  V30 529 H 46.8073 -1.62973 4.75866 0
M  V30 530 H 46.5073 -0.269942 5.8698 0
M  V30 531 H 48.0313 -1.19485 5.98795 0
M  V30 532 H 49.4453 1.04918 5.63618 0
M  V30 533 H 47.8423 1.83662 5.71304 0
M  V30 534 H 48.9123 2.16592 4.33839 0
M  V30 535 N 50.2554 -1.46986 0.568584 0
M  V30 536 C 51.2024 -2.30153 -0.172707 0
M  V30 537 C 52.1724 -1.39759 -0.897586 0
M  V30 538 O 53.3574 -1.68716 -0.891044 0
M  V30 539 C 50.4974 -3.23952 -1.1895 0
M  V30 540 C 49.6104 -4.29441 -0.469517 0
M  V30 541 C 48.7454 -5.1038 -1.47259 0
M  V30 542 C 47.7844 -6.07632 -0.738225 0
M  V30 543 N 46.9214 -6.8149 -1.68868 0
M  V30 544 H 51.7614 -2.93019 0.542596 0
M  V30 545 H 49.2984 -1.44422 0.279401 0
M  V30 546 H 51.2564 -3.76767 -1.79173 0
M  V30 547 H 49.8864 -2.62926 -1.87269 0
M  V30 548 H 48.9384 -3.79594 0.247467 0
M  V30 549 H 50.2504 -4.98689 0.105241 0
M  V30 550 H 49.4044 -5.67402 -2.14803 0
M  V30 551 H 48.1434 -4.4106 -2.08128 0
M  V30 552 H 47.1484 -5.49778 -0.0489293 0
M  V30 553 H 48.3734 -6.78966 -0.135129 0
M  V30 554 H 46.3194 -6.14891 -2.28573 0
M  V30 555 H 46.2364 -7.46948 -1.16636 0
M  V30 556 H 47.5044 -7.43078 -2.3549 0
M  V30 557 N 51.7335 -0.305618 -1.54608 0
M  V30 558 C 52.9805 0.302298 -2.00231 0
M  V30 559 C 53.3085 1.5354 -1.19398 0
M  V30 560 O 52.5635 1.93973 -0.259423 0
M  V30 561 C 52.8625 0.698983 -3.50498 0
M  V30 562 C 52.5285 -0.432903 -4.48817 0
M  V30 563 C 51.1905 -0.743622 -4.75419 0
M  V30 564 C 53.5425 -1.19409 -5.07337 0
M  V30 565 C 50.8705 -1.81857 -5.57804 0
M  V30 566 C 53.2225 -2.25899 -5.90891 0
M  V30 567 C 51.8865 -2.57572 -6.15803 0
M  V30 568 H 51.1565 0.110619 -0.732697 0
M  V30 569 H 53.8035 -0.425674 -1.86709 0
M  V30 570 H 52.1085 1.50711 -3.61654 0
M  V30 571 H 53.8055 1.1806 -3.83227 0
M  V30 572 H 50.3955 -0.18063 -4.28219 0
M  V30 573 H 54.5795 -0.967295 -4.86782 0
M  V30 574 H 49.8355 -2.06864 -5.75341 0
M  V30 575 H 54.0095 -2.85335 -6.35261 0
M  V30 576 H 51.6365 -3.40998 -6.7943 0
M  V30 577 N 53.2116 1.57565 -0.0334293 0
M  V30 578 C 54.1596 2.1164 0.96496 0
M  V30 579 C 55.1536 1.04398 1.33407 0
M  V30 580 O 56.3596 1.22828 1.3158 0
M  V30 581 H 52.7346 0.676222 0.32898 0
M  V30 582 H 54.7056 2.94455 0.483614 0
M  V30 583 C 53.4546 2.66207 2.23672 0
M  V30 584 H 52.7776 3.48378 1.96145 0
M  V30 585 H 54.2176 3.07685 2.9173 0
M  V30 586 C 52.6766 1.59151 2.96939 0
M  V30 587 O 53.2066 0.993858 3.89211 0
M  V30 588 N 51.4126 1.31093 2.59351 0
M  V30 589 H 50.9596 1.7988 1.84393 0
M  V30 590 H 50.9176 0.596889 3.08682 0
M  V30 591 N 54.6897 -0.239769 1.55765 0
M  V30 592 C 55.9357 -0.968234 1.78194 0
M  V30 593 C 56.2687 -1.84701 0.599938 0
M  V30 594 O 55.5437 -1.9031 -0.401524 0
M  V30 595 C 55.8267 -1.8227 3.10564 0
M  V30 596 C 55.6797 -0.971633 4.3918 0
M  V30 597 C 56.9987 -2.80388 3.39221 0
M  V30 598 H 54.1177 -0.350572 0.648281 0
M  V30 599 H 56.7597 -0.238259 1.885 0
M  V30 600 H 54.9097 -2.44507 3.01908 0
M  V30 601 H 56.5817 -0.367408 4.59835 0
M  V30 602 H 54.8247 -0.276276 4.32919 0
M  V30 603 H 55.4957 -1.60346 5.28198 0
M  V30 604 H 57.9717 -2.28287 3.47885 0
M  V30 605 H 56.8477 -3.3729 4.33044 0
M  V30 606 H 57.1087 -3.57212 2.60484 0
M  V30 607 N 56.1678 -1.49265 -0.50573 0
M  V30 608 C 57.1308 -1.65075 -1.59006 0
M  V30 609 C 58.1308 -0.522768 -1.52065 0
M  V30 610 O 59.3208 -0.789117 -1.55302 0
M  V30 611 C 56.4528 -1.64369 -2.98656 0
M  V30 612 H 57.6458 -2.61784 -1.46319 0
M  V30 613 H 55.1988 -1.38226 -0.729616 0
M  V30 614 H 55.9338 -0.692272 -3.16825 0
M  V30 615 H 55.7188 -2.46282 -3.05103 0
M  V30 616 H 57.2088 -1.78674 -3.77446 0
M  V30 617 N 57.6459 0.756429 -1.3826 0
M  V30 618 C 58.8949 1.51082 -1.3363 0
M  V30 619 C 59.2079 1.95467 0.0720068 0
M  V30 620 O 60.4139 2.7043 0.240834 0
M  V30 621 C 58.8699 2.72893 -2.34644 0
M  V30 622 C 58.4779 2.35544 -3.81081 0
M  V30 623 C 60.2219 3.50791 -2.39052 0
M  V30 624 C 58.1289 3.53948 -4.73787 0
M  V30 625 H 57.0589 0.56727 -0.49671 0
M  V30 626 H 59.7099 0.827147 -1.638 0
M  V30 627 H 58.0919 3.43227 -1.97513 0
M  V30 628 H 59.2659 1.72894 -4.27135 0
M  V30 629 H 57.5809 1.70786 -3.79764 0
M  V30 630 H 60.1779 4.38823 -3.05513 0
M  V30 631 H 60.5209 3.91745 -1.40861 0
M  V30 632 H 61.0539 2.87467 -2.74968 0
M  V30 633 H 57.7929 3.18064 -5.73163 0
M  V30 634 H 57.3129 4.15651 -4.32428 0
M  V30 635 H 58.9919 4.20566 -4.91663 0
M  V30 636 N 59.124 1.23083 0.984299 0
M  V30 637 C 60.071 1.00854 2.07598 0
M  V30 638 C 61.041 -0.0726709 1.65941 0
M  V30 639 O 62.226 0.0786535 1.90638 0
M  V30 640 C 59.366 0.601645 3.39815 0
M  V30 641 C 58.479 1.75456 3.94765 0
M  V30 642 C 57.614 1.29482 5.15177 0
M  V30 643 C 56.653 2.41873 5.62284 0
M  V30 644 N 55.79 1.96885 6.73929 0
M  V30 645 H 60.63 1.943 2.25946 0
M  V30 646 H 58.167 0.968001 1.10762 0
M  V30 647 H 60.125 0.346854 4.15756 0
M  V30 648 H 58.755 -0.295803 3.21442 0
M  V30 649 H 57.807 2.12346 3.15616 0
M  V30 650 H 59.119 2.59965 4.25699 0
M  V30 651 H 58.273 0.997923 5.98437 0
M  V30 652 H 57.012 0.420046 4.85888 0
M  V30 653 H 56.017 2.72342 4.77608 0
M  V30 654 H 57.242 3.29881 5.93595 0
M  V30 655 H 55.188 1.11782 6.46406 0
M  V30 656 H 55.105 2.74956 7.04227 0
M  V30 657 H 56.373 1.70289 7.60672 0
M  V30 658 N 60.6021 -1.18246 1.0419 0
M  V30 659 C 61.8511 -1.87588 0.741194 0
M  V30 660 C 62.1641 -1.81303 -0.734066 0
M  V30 661 O 63.3701 -2.46019 -1.14834 0
M  V30 662 C 61.8261 -3.36538 1.27555 0
M  V30 663 C 61.4341 -3.51349 2.77953 0
M  V30 664 C 63.1781 -4.11273 1.05143 0
M  V30 665 C 61.0851 -4.94265 3.2474 0
M  V30 666 H 60.0151 -0.702622 0.273565 0
M  V30 667 H 62.6661 -1.33601 1.25789 0
M  V30 668 H 61.0481 -3.9 0.686703 0
M  V30 669 H 62.2221 -3.08153 3.42605 0
M  V30 670 H 60.5371 -2.90022 2.98791 0
M  V30 671 H 63.1341 -5.16689 1.37611 0
M  V30 672 H 63.4771 -4.16298 -0.0112774 0
M  V30 673 H 64.0101 -3.63987 1.60495 0
M  V30 674 H 60.7491 -4.94408 4.30396 0
M  V30 675 H 60.2691 -5.38172 2.64823 0
M  V30 676 H 61.9481 -5.62987 3.18834 0
M  V30 677 N 62.0802 -0.821533 -1.34494 0
M  V30 678 C 63.3292 -0.405355 -1.97585 0
M  V30 679 C 63.6422 1.03677 -1.65863 0
M  V30 680 O 64.8482 1.55679 -2.22433 0
M  V30 681 C 63.3042 -0.673861 -3.53535 0
M  V30 682 C 62.9122 -2.12951 -3.94152 0
M  V30 683 C 64.6562 -0.32378 -4.23263 0
M  V30 684 C 62.5632 -2.34298 -5.43009 0
M  V30 685 H 61.4932 -0.147836 -0.739365 0
M  V30 686 H 64.1442 -1.00769 -1.53355 0
M  V30 687 H 62.5262 -0.00137554 -3.96 0
M  V30 688 H 63.7002 -2.84104 -3.62797 0
M  V30 689 H 62.0152 -2.44089 -3.37356 0
M  V30 690 H 64.6122 -0.461126 -5.32708 0
M  V30 691 H 64.9552 0.731586 -4.09821 0
M  V30 692 H 65.4882 -0.950786 -3.8627 0
M  V30 693 H 62.2272 -3.38335 -5.61435 0
M  V30 694 H 61.7472 -1.67687 -5.75883 0
M  V30 695 H 63.4262 -2.16588 -6.09671 0
M  V30 696 N 63.5583 1.46682 -0.576371 0
M  V30 697 C 64.8353 1.95599 0.00703437 0
M  V30 698 C 65.2153 1.51904 1.46589 0
M  V30 699 O 64.5633 0.766755 2.15251 0
M  V30 700 C 64.7733 3.4864 -0.158404 0
M  V30 701 C 66.1213 4.24594 -0.0229439 0
M  V30 702 O 67.1453 3.56094 -0.0869173 0
M  V30 703 O 66.0043 5.46373 0.118015 0
M  V30 704 H 63.0983 0.825275 0.053384 0
M  V30 705 H 65.6443 1.56996 -0.644244 0
M  V30 706 H 64.4163 3.7331 -1.17282 0
M  V30 707 H 64.0393 3.94057 0.5296 0
M  V30 708 N 65.0364 0.313813 1.54444 0
M  V30 709 C 66.4524 -0.0391619 1.59552 0
M  V30 710 C 66.6524 -1.51322 1.33056 0
M  V30 711 O 65.7084 -2.26782 1.11022 0
M  V30 712 C 67.0214 0.370302 2.98411 0
M  V30 713 C 68.5694 0.320139 3.11358 0
M  V30 714 C 69.0444 0.704617 4.52547 0
M  V30 715 N 70.5354 0.657645 4.58508 0
M  V30 716 C 71.2704 0.927453 5.6585 0
M  V30 717 N 70.7664 1.26389 6.81174 0
M  V30 718 N 72.5594 0.853662 5.5558 0
M  V30 719 H 64.7104 1.27433 1.69925 0
M  V30 720 H 66.9734 0.517511 0.794284 0
M  V30 721 H 66.6794 1.39694 3.22767 0
M  V30 722 H 66.5534 -0.269619 3.76235 0
M  V30 723 H 68.9404 -0.697275 2.86744 0
M  V30 724 H 69.0214 0.99486 2.35661 0
M  V30 725 H 68.6654 1.7199 4.77893 0
M  V30 726 H 68.5954 0.00768843 5.26599 0
M  V30 727 H 71.0864 0.409067 3.75679 0
M  V30 728 H 71.3994 1.4554 7.58972 0
M  V30 729 H 69.7444 1.30206 6.82694 0
M  V30 730 H 72.9354 0.590383 4.64362 0
M  V30 731 H 73.1084 1.0673 6.3915 0
M  V30 732 N 66.5145 -1.57545 0.0417849 0
M  V30 733 C 67.4615 -2.10977 -0.935805 0
M  V30 734 C 68.4315 -1.01486 -1.31491 0
M  V30 735 O 69.6165 -1.2898 -1.40602 0
M  V30 736 C 66.7565 -2.65169 -2.2086 0
M  V30 737 C 65.8695 -3.88714 -1.88482 0
M  V30 738 C 65.0045 -4.31254 -3.1015 0
M  V30 739 C 64.0435 -5.47524 -2.7365 0
M  V30 740 N 63.1805 -5.85162 -3.87982 0
M  V30 741 H 68.0205 -2.94218 -0.473249 0
M  V30 742 H 65.5575 -1.45415 -0.221981 0
M  V30 743 H 67.5155 -2.94685 -2.95325 0
M  V30 744 H 66.1455 -1.8474 -2.64709 0
M  V30 745 H 65.1975 -3.65849 -1.04205 0
M  V30 746 H 66.5095 -4.73245 -1.57608 0
M  V30 747 H 65.6635 -4.62273 -3.92923 0
M  V30 748 H 64.4025 -3.45516 -3.44195 0
M  V30 749 H 63.4075 -5.16187 -1.89291 0
M  V30 750 H 64.6325 -6.34971 -2.40807 0
M  V30 751 H 62.5785 -5.02377 -4.21846 0
M  V30 752 H 62.4955 -6.64362 -3.60775 0
M  V30 753 H 63.7635 -6.20791 -4.71422 0
M  V30 754 N 67.9926 0.231505 -1.5589 0
M  V30 755 C 68.9396 1.28682 -1.91598 0
M  V30 756 C 69.9096 1.47071 -0.771974 0
M  V30 757 O 71.0946 1.60802 -1.027 0
M  V30 758 C 68.2346 2.6342 -2.22944 0
M  V30 759 C 67.3476 2.52912 -3.50228 0
M  V30 760 C 66.4826 3.80106 -3.7107 0
M  V30 761 C 65.5216 3.64279 -4.91902 0
M  V30 762 N 64.6586 4.834 -5.09184 0
M  V30 763 H 69.4986 0.975305 -2.81588 0
M  V30 764 H 67.0356 0.470299 -1.39379 0
M  V30 765 H 68.9936 3.41869 -2.39126 0
M  V30 766 H 67.6236 2.92687 -1.36139 0
M  V30 767 H 66.6756 1.6595 -3.42294 0
M  V30 768 H 67.9876 2.37133 -4.38827 0
M  V30 769 H 67.1416 4.66999 -3.87295 0
M  V30 770 H 65.8806 3.98799 -2.80733 0
M  V30 771 H 64.8856 2.7577 -4.75637 0
M  V30 772 H 66.1106 3.47067 -5.83714 0
M  V30 773 H 64.0566 5.02425 -4.21788 0
M  V30 774 H 63.9736 4.70311 -5.91898 0
M  V30 775 H 65.2416 5.71747 -5.29835 0
M  V30 776 N 69.4707 1.49531 0.497807 0
M  V30 777 C 70.4337 1.65916 1.58128 0
M  V30 778 C 71.4337 0.530825 1.51786 0
M  V30 779 O 72.6237 0.797342 1.54881 0
M  V30 780 C 69.7557 1.65951 2.9778 0
M  V30 781 H 70.9487 2.62556 1.44929 0
M  V30 782 H 68.5017 1.38611 0.722275 0
M  V30 783 H 69.2367 0.709065 3.16453 0
M  V30 784 H 69.0217 2.47897 3.03792 0
M  V30 785 H 70.5117 1.80673 3.76493 0
M  V30 786 N 70.9488 -0.749086 1.3866 0
M  V30 787 C 72.3598 -1.32664 1.31366 0
M  V30 788 C 72.7108 -1.96179 -0.028484 0
M  V30 789 O 71.8358 -1.9537 -0.93057 0
M  V30 790 C 72.4308 -2.41219 2.37905 0
M  V30 791 C 70.9898 -2.94684 2.34176 0
M  V30 792 C 70.1368 -1.68108 2.20533 0
M  V30 793 H 73.0878 -0.547628 1.48952 0
M  V30 794 H 73.1088 -3.21268 2.0388 0
M  V30 795 H 72.6208 -1.94962 3.35576 0
M  V30 796 H 70.7218 -3.45258 1.401 0
M  V30 797 H 70.8348 -3.48757 3.2849 0
M  V30 798 H 69.1988 -1.91907 1.67463 0
M  V30 799 H 69.9818 -1.23923 3.20153 0
M  V30 800 N 72.4269 -1.23603 -0.977757 0
M  V30 801 C 73.3899 -1.02069 -2.05218 0
M  V30 802 C 74.3899 0.0184305 -1.60789 0
M  V30 803 O 75.5799 -0.221569 -1.72785 0
M  V30 804 C 72.7119 -0.544926 -3.36517 0
M  V30 805 H 73.9049 -1.9742 -2.25755 0
M  V30 806 H 71.4579 -1.05684 -1.15155 0
M  V30 807 H 72.1929 0.412241 -3.21669 0
M  V30 808 H 71.9779 -1.2948 -3.70105 0
M  V30 809 H 73.4679 -0.414985 -4.15533 0
M  V30 810 N 73.905 1.17692 -1.04816 0
M  V30 811 C 75.182 1.83768 -0.669963 0
M  V30 812 C 75.562 1.93232 0.849986 0
M  V30 813 O 74.91 1.46397 1.75443 0
M  V30 814 C 75.12 3.21641 -1.35455 0
M  V30 815 C 76.468 3.97592 -1.49017 0
M  V30 816 O 77.492 3.31107 -1.31326 0
M  V30 817 O 76.351 5.16729 -1.77914 0
M  V30 818 H 73.445 0.792799 -0.235368 0
M  V30 819 H 75.991 1.25021 -1.14751 0
M  V30 820 H 74.763 3.097 -2.39168 0
M  V30 821 H 74.386 3.88052 -0.866107 0
M  V30 822 N 75.3831 0.828654 1.34056 0
M  V30 823 C 76.6301 0.419458 1.98108 0
M  V30 824 C 76.9581 -1.01886 1.65679 0
M  V30 825 O 76.2131 -1.72539 0.923512 0
M  V30 826 C 76.5121 0.575226 3.52741 0
M  V30 827 C 76.1781 1.98012 4.05095 0
M  V30 828 C 74.8401 2.36442 4.19104 0
M  V30 829 C 77.1921 2.89824 4.33188 0
M  V30 830 C 74.5201 3.66009 4.58535 0
M  V30 831 C 76.8721 4.1886 4.74066 0
M  V30 832 C 75.5361 4.5726 4.86281 0
M  V30 833 H 74.8061 0.153491 0.724929 0
M  V30 834 H 77.4531 1.05371 1.59904 0
M  V30 835 H 75.7581 -0.142385 3.91541 0
M  V30 836 H 77.4551 0.239057 4.00287 0
M  V30 837 H 74.0451 1.67162 3.94658 0
M  V30 838 H 78.2291 2.61375 4.21897 0
M  V30 839 H 73.4851 3.95579 4.66184 0
M  V30 840 H 77.6591 4.90086 4.94761 0
M  V30 841 H 75.2861 5.57707 5.16592 0
M  V30 842 N 76.8612 -1.46375 0.584142 0
M  V30 843 C 77.7912 -2.33103 -0.136037 0
M  V30 844 C 78.7722 -1.45431 -0.882255 0
M  V30 845 O 79.9572 -1.74246 -0.857434 0
M  V30 846 C 77.0872 -3.27731 -1.14933 0
M  V30 847 C 76.0412 -4.24855 -0.517862 0
M  V30 848 C 75.3672 -5.09001 -1.63773 0
M  V30 849 C 76.6672 -5.19439 0.545886 0
M  V30 850 H 78.3612 -2.93568 0.588086 0
M  V30 851 H 75.9072 -1.41166 0.284259 0
M  V30 852 H 77.8602 -3.87261 -1.66153 0
M  V30 853 H 76.5842 -2.65377 -1.90375 0
M  V30 854 H 75.2432 -3.6659 -0.0267361 0
M  V30 855 H 74.8912 -4.43031 -2.38185 0
M  V30 856 H 74.5912 -5.74777 -1.22085 0
M  V30 857 H 76.1152 -5.71396 -2.15266 0
M  V30 858 H 77.5292 -5.73177 0.118704 0
M  V30 859 H 75.9262 -5.93566 0.88317 0
M  V30 860 H 76.9962 -4.63285 1.43162 0
M  V30 861 N 78.3393 -0.321999 -1.54275 0
M  V30 862 C 79.2493 0.553631 -2.27974 0
M  V30 863 C 80.2653 1.13054 -1.32268 0
M  V30 864 O 81.4413 1.15084 -1.6528 0
M  V30 865 C 78.5063 1.69927 -3.02201 0
M  V30 866 C 77.5673 1.15433 -4.1349 0
M  V30 867 C 76.8003 2.24537 -4.84168 0
M  V30 868 O 77.0233 3.44852 -4.5435 0
M  V30 869 O 75.9573 1.90044 -5.7111 0
M  V30 870 H 79.7833 -0.0448345 -3.03667 0
M  V30 871 H 77.3683 -0.0877418 -1.49142 0
M  V30 872 H 79.2503 2.3663 -3.48689 0
M  V30 873 H 77.9253 2.28395 -2.29385 0
M  V30 874 H 76.8323 0.452436 -3.71354 0
M  V30 875 H 78.1653 0.614805 -4.88345 0
M  V30 876 N 79.8174 1.5752 -0.0501392 0
M  V30 877 C 80.7644 2.1147 0.924603 0
M  V30 878 C 81.7344 1.02182 1.30951 0
M  V30 879 O 82.9194 1.29723 1.39916 0
M  V30 880 C 80.0594 2.66337 2.19451 0
M  V30 881 C 79.1724 3.89708 1.86418 0
M  V30 882 C 78.3074 4.32893 3.07859 0
M  V30 883 C 77.3464 5.48967 2.70742 0
M  V30 884 N 76.4834 5.87211 3.84874 0
M  V30 885 H 81.3234 2.94465 0.457639 0
M  V30 886 H 78.8604 1.45531 0.214266 0
M  V30 887 H 80.8184 2.96247 2.93758 0
M  V30 888 H 79.4484 1.86141 2.63726 0
M  V30 889 H 78.5004 3.66396 1.02264 0
M  V30 890 H 79.8124 4.74074 1.55096 0
M  V30 891 H 78.9664 4.6435 3.90466 0
M  V30 892 H 77.7054 3.47336 3.42358 0
M  V30 893 H 76.7104 5.17183 1.86551 0
M  V30 894 H 77.9354 6.3624 2.37436 0
M  V30 895 H 75.8814 5.04607 4.19175 0
M  V30 896 H 75.7984 6.66266 3.57247 0
M  V30 897 H 77.0664 6.23282 4.68123 0
M  V30 898 N 81.2955 -0.223234 1.56011 0
M  V30 899 C 82.5425 -0.947875 1.78946 0
M  V30 900 C 82.8705 -1.844 0.618608 0
M  V30 901 O 82.1255 -1.91629 -0.397093 0
M  V30 902 C 82.4245 -1.81948 3.0762 0
M  V30 903 C 82.0905 -1.07672 4.37856 0
M  V30 904 C 80.7525 -0.871544 4.73242 0
M  V30 905 C 83.1045 -0.552081 5.18268 0
M  V30 906 C 80.4325 -0.129791 5.86556 0
M  V30 907 C 82.7845 0.17632 6.32354 0
M  V30 908 C 81.4485 0.39277 6.66343 0
M  V30 909 H 80.7185 -0.346852 0.654809 0
M  V30 910 H 83.3655 -0.216171 1.90276 0
M  V30 911 H 81.6705 -2.61899 2.91404 0
M  V30 912 H 83.3675 -2.38227 3.22566 0
M  V30 913 H 79.9575 -1.24662 4.1007 0
M  V30 914 H 84.1415 -0.698076 4.91366 0
M  V30 915 H 79.3975 0.048153 6.11381 0
M  V30 916 H 83.5715 0.590367 6.93893 0
M  V30 917 H 81.1985 0.969466 7.53993 0
M  V30 918 N 82.7736 -1.49793 -0.48987 0
M  V30 919 C 83.7036 -1.70201 -1.59856 0
M  V30 920 C 84.6846 -0.55076 -1.60937 0
M  V30 921 O 85.8696 -0.787841 -1.77501 0
M  V30 922 C 82.9996 -1.77882 -2.98287 0
M  V30 923 C 81.9536 -2.92907 -3.12073 0
M  V30 924 C 81.2796 -2.85712 -4.51965 0
M  V30 925 C 82.5796 -4.3369 -2.91051 0
M  V30 926 H 84.2736 -2.63025 -1.43032 0
M  V30 927 H 81.8196 -1.26574 -0.686664 0
M  V30 928 H 83.7726 -1.90744 -3.75759 0
M  V30 929 H 82.4966 -0.816653 -3.16225 0
M  V30 930 H 81.1556 -2.79665 -2.37029 0
M  V30 931 H 80.8036 -1.8738 -4.66795 0
M  V30 932 H 80.5036 -3.62921 -4.62128 0
M  V30 933 H 82.0276 -3.00598 -5.31482 0
M  V30 934 H 83.4416 -4.47555 -3.58284 0
M  V30 935 H 81.8386 -5.12205 -3.12675 0
M  V30 936 H 82.9086 -4.47362 -1.87071 0
M  V30 937 N 84.2517 0.741722 -1.39055 0
M  V30 938 C 85.6627 1.31966 -1.32068 0
M  V30 939 C 86.0137 1.96192 0.0180797 0
M  V30 940 O 85.1387 1.95861 0.920196 0
M  V30 941 C 85.7337 2.39954 -2.39181 0
M  V30 942 C 84.2927 2.93438 -2.35735 0
M  V30 943 C 83.4397 1.66936 -2.21422 0
M  V30 944 H 86.3907 0.539721 -1.4924 0
M  V30 945 H 86.4117 3.20182 -2.05581 0
M  V30 946 H 85.9237 1.9318 -3.36605 0
M  V30 947 H 84.0247 3.4451 -1.41929 0
M  V30 948 H 84.1377 3.4701 -3.30335 0
M  V30 949 H 82.5017 1.91016 -1.68478 0
M  V30 950 H 83.2847 1.22224 -3.20806 0
M  V30 951 N 85.7298 1.2412 0.971189 0
M  V30 952 C 87.1458 1.00584 1.23916 0
M  V30 953 C 87.3458 -0.287481 1.99439 0
M  V30 954 O 86.4018 -1.00454 2.31658 0
M  V30 955 C 87.7148 2.21864 2.0297 0
M  V30 956 C 89.2628 2.26452 2.16076 0
M  V30 957 C 89.7378 3.47343 2.98524 0
M  V30 958 N 91.2288 3.47639 3.06107 0
M  V30 959 C 91.9638 4.37837 3.70251 0
M  V30 960 N 91.4598 5.38286 4.36142 0
M  V30 961 N 93.2528 4.25558 3.67228 0
M  V30 962 H 85.4038 2.07236 0.465499 0
M  V30 963 H 87.6668 0.909236 0.268315 0
M  V30 964 H 87.3728 3.15771 1.54861 0
M  V30 965 H 87.2468 2.23698 3.03709 0
M  V30 966 H 89.6338 1.33078 2.6339 0
M  V30 967 H 89.7148 2.28645 1.14696 0
M  V30 968 H 89.3588 4.41029 2.51905 0
M  V30 969 H 89.2888 3.42393 4.00093 0
M  V30 970 H 91.7798 2.74966 2.59233 0
M  V30 971 H 92.0928 6.03352 4.82894 0
M  V30 972 H 90.4378 5.42176 4.34822 0
M  V30 973 H 93.6288 3.46322 3.14927 0
M  V30 974 H 93.8018 4.96054 4.16935 0
M  V30 975 N 87.2079 -1.17134 1.05439 0
M  V30 976 C 88.1179 -2.24878 0.668365 0
M  V30 977 C 89.1339 -1.71186 -0.311687 0
M  V30 978 O 90.3099 -2.00738 -0.163161 0
M  V30 979 C 87.3749 -3.46662 0.051648 0
M  V30 980 C 86.4359 -4.15429 1.08246 0
M  V30 981 C 85.6689 -5.31399 0.495082 0
M  V30 982 O 85.8919 -5.66153 -0.694743 0
M  V30 983 O 84.8259 -5.89187 1.23056 0
M  V30 984 H 88.6519 -2.60189 1.56637 0
M  V30 985 H 86.2369 -1.24482 0.826104 0
M  V30 986 H 88.1189 -4.20394 -0.290966 0
M  V30 987 H 86.7939 -3.13142 -0.819971 0
M  V30 988 H 85.7009 -3.43704 1.47711 0
M  V30 989 H 87.0339 -4.52982 1.92532 0
M  V30 990 N 88.686 -0.835752 -1.33615 0
M  V30 991 C 89.935 -0.426289 -1.97144 0
M  V30 992 C 90.248 1.01912 -1.66953 0
M  V30 993 O 91.454 1.53311 -2.24072 0
M  V30 994 C 89.91 -0.711321 -3.52801 0
M  V30 995 C 89.518 -2.1712 -3.91871 0
M  V30 996 C 91.262 -0.368654 -4.22896 0
M  V30 997 C 89.169 -2.40044 -5.40493 0
M  V30 998 H 88.099 -0.15567 -0.737755 0
M  V30 999 H 90.75 -1.0239 -1.52278 0
M  V30 1000 H 89.132 -0.0433766 -3.95976 0
M  V30 1001 H 90.306 -2.87936 -3.59763 0
M  V30 1002 H 88.621 -2.47654 -3.34749 0
M  V30 1003 H 91.218 -0.517601 -5.32189 0
M  V30 1004 H 91.561 0.688078 -4.10574 0
M  V30 1005 H 92.094 -0.991702 -3.8524 0
M  V30 1006 H 88.833 -3.44271 -5.57815 0
M  V30 1007 H 88.353 -1.73785 -5.74072 0
M  V30 1008 H 90.032 -2.23042 -6.0734 0
M  V30 1009 N 90.1641 1.46063 -0.591896 0
M  V30 1010 C 91.0741 2.34192 0.13831 0
M  V30 1011 C 92.0901 1.50305 0.876608 0
M  V30 1012 O 93.2661 1.8315 0.837728 0
M  V30 1013 C 90.3311 3.27656 1.13326 0
M  V30 1014 C 89.3921 4.27445 0.39863 0
M  V30 1015 C 88.6251 5.16443 1.34618 0
M  V30 1016 O 88.8481 5.08553 2.58321 0
M  V30 1017 O 87.7821 5.95843 0.851768 0
M  V30 1018 H 91.6081 2.98002 -0.58552 0
M  V30 1019 H 89.1931 1.45188 -0.352239 0
M  V30 1020 H 91.0751 3.85291 1.70671 0
M  V30 1021 H 89.7501 2.6643 1.83839 0
M  V30 1022 H 88.6571 3.73471 -0.216895 0
M  V30 1023 H 89.9901 4.91482 -0.265709 0
M  V30 1024 N 91.6422 0.330177 1.54103 0
M  V30 1025 C 92.8912 -0.271336 1.99867 0
M  V30 1026 C 93.2042 -1.52723 1.22209 0
M  V30 1027 O 94.4102 -2.20515 1.58383 0
M  V30 1028 C 92.8662 -0.534032 3.55916 0
M  V30 1029 C 92.4742 0.705193 4.42415 0
M  V30 1030 C 94.2182 -1.09514 4.1013 0
M  V30 1031 C 92.1252 0.414035 5.89949 0
M  V30 1032 H 91.0552 -0.105166 0.74663 0
M  V30 1033 H 93.7062 0.443429 1.78062 0
M  V30 1034 H 92.0882 -1.30915 3.73734 0
M  V30 1035 H 93.2622 1.4804 4.36372 0
M  V30 1036 H 91.5772 1.18698 3.99124 0
M  V30 1037 H 94.1742 -1.3277 5.17954 0
M  V30 1038 H 94.5172 -2.04656 3.62521 0
M  V30 1039 H 95.0502 -0.381038 3.95971 0
M  V30 1040 H 91.7892 1.33481 6.41766 0
M  V30 1041 H 91.3092 -0.323336 5.98928 0
M  V30 1042 H 92.9882 0.0263105 6.46995 0
M  V30 1043 N 93.1203 -1.57491 0.0584922 0
M  V30 1044 C 94.0503 -2.14988 -0.911178 0
M  V30 1045 C 95.0313 -1.07343 -1.31952 0
M  V30 1046 O 96.2163 -1.35318 -1.39294 0
M  V30 1047 C 93.3463 -2.70078 -2.18347 0
M  V30 1048 C 92.3003 -3.82771 -1.91495 0
M  V30 1049 C 91.6263 -4.24408 -3.25241 0
M  V30 1050 C 92.9263 -5.07592 -1.23075 0
M  V30 1051 H 94.6203 -2.96263 -0.432246 0
M  V30 1052 H 92.1663 -1.42512 -0.206469 0
M  V30 1053 H 94.1193 -3.08943 -2.86587 0
M  V30 1054 H 92.8433 -1.86005 -2.68458 0
M  V30 1055 H 91.5023 -3.44389 -1.25664 0
M  V30 1056 H 91.1503 -3.37275 -3.73168 0
M  V30 1057 H 90.8503 -5.00366 -3.08071 0
M  V30 1058 H 92.3743 -4.65879 -3.94701 0
M  V30 1059 H 93.7883 -5.43857 -1.81362 0
M  V30 1060 H 92.1853 -5.88741 -1.16207 0
M  V30 1061 H 93.2553 -4.84454 -0.207847 0
M  V30 1062 N 94.5984 0.214957 -1.56127 0
M  V30 1063 C 95.5614 1.24997 -1.92116 0
M  V30 1064 C 96.5614 1.39467 -0.800344 0
M  V30 1065 O 97.7514 1.37619 -1.06802 0
M  V30 1066 C 94.8834 2.62271 -2.17777 0
M  V30 1067 H 96.0764 0.942875 -2.84693 0
M  V30 1068 H 93.6294 0.455654 -1.49511 0
M  V30 1069 H 94.3644 2.98068 -1.27773 0
M  V30 1070 H 94.1494 2.53143 -2.99434 0
M  V30 1071 H 95.6394 3.36946 -2.46693 0
M  V30 1072 N 96.0765 1.50051 0.48192 0
M  V30 1073 C 97.0095 1.62749 1.59963 0
M  V30 1074 C 97.9875 0.475903 1.5548 0
M  V30 1075 O 99.1715 0.693986 1.7526 0
M  V30 1076 C 96.2985 1.60008 2.98522 0
M  V30 1077 C 95.3445 2.80596 3.21198 0
M  V30 1078 S 96.1775 4.42038 3.02262 0
M  V30 1079 C 97.3335 4.41973 4.43182 0
M  V30 1080 H 97.5665 2.57296 1.4895 0
M  V30 1081 H 95.0995 1.39179 0.668477 0
M  V30 1082 H 97.0575 1.59112 3.78409 0
M  V30 1083 H 95.7185 0.667153 3.06933 0
M  V30 1084 H 94.9115 2.74952 4.22395 0
M  V30 1085 H 94.5135 2.79003 2.49065 0
M  V30 1086 H 96.8055 4.14868 5.35622 0
M  V30 1087 H 97.7485 5.43512 4.53873 0
M  V30 1088 H 98.1565 3.71812 4.24755 0
M  V30 1089 N 97.5546 -0.734337 1.39446 0
M  V30 1090 C 98.4846 -1.86155 1.40955 0
M  V30 1091 C 99.4656 -1.67898 0.272827 0
M  V30 1092 O 100.651 -1.88207 0.478743 0
M  V30 1093 C 97.7806 -3.23912 1.25294 0
M  V30 1094 C 96.7346 -3.56808 2.36373 0
M  V30 1095 C 96.0606 -4.93508 2.058 0
M  V30 1096 C 97.3606 -3.59713 3.78687 0
M  V30 1097 H 99.0546 -1.8515 2.35287 0
M  V30 1098 H 96.6006 -0.889367 1.13253 0
M  V30 1099 H 98.5536 -4.02443 1.2497 0
M  V30 1100 H 97.2776 -3.25446 0.274308 0
M  V30 1101 H 95.9366 -2.80606 2.35914 0
M  V30 1102 H 95.5846 -4.91623 1.06374 0
M  V30 1103 H 95.2846 -5.16486 2.80208 0
M  V30 1104 H 96.8086 -5.74396 2.07128 0
M  V30 1105 H 98.2226 -4.2832 3.81071 0
M  V30 1106 H 96.6196 -3.94209 4.52459 0
M  V30 1107 H 97.6896 -2.59504 4.09617 0
M  V30 1108 N 99.0327 -1.24633 -0.964593 0
M  V30 1109 C 99.9807 -1.03917 -2.08096 0
M  V30 1110 C 100.975 0.0268581 -1.69379 0
M  V30 1111 O 102.181 -0.127952 -1.79545 0
M  V30 1112 H 98.5557 -0.319044 -0.680966 0
M  V30 1113 H 100.527 -1.98581 -2.22729 0
M  V30 1114 C 99.2757 -0.663983 -3.41301 0
M  V30 1115 H 98.5987 -1.47605 -3.71555 0
M  V30 1116 H 100.039 -0.558663 -4.20303 0
M  V30 1117 C 98.4977 0.629169 -3.30973 0
M  V30 1118 O 99.0277 1.67404 -3.65156 0
M  V30 1119 N 97.2337 0.611057 -2.84103 0
M  V30 1120 H 96.7807 -0.239593 -2.56483 0
M  V30 1121 H 96.7387 1.47647 -2.77575 0
M  V30 1122 N 100.511 1.16574 -1.06058 0
M  V30 1123 C 101.461 2.18854 -0.63929 0
M  V30 1124 C 102.445 1.57505 0.328798 0
M  V30 1125 O 103.637 1.76408 0.144623 0
M  V30 1126 C 100.766 3.43291 -0.0247203 0
M  V30 1127 C 99.8518 4.11722 -1.01716 0
M  V30 1128 N 100.243 4.55841 -2.19186 0
M  V30 1129 C 98.5408 4.37872 -0.847569 0
M  V30 1130 C 99.2418 5.08751 -2.82042 0
M  V30 1131 N 98.2178 5.01489 -2.09784 0
M  V30 1132 H 102.02 2.5068 -1.53417 0
M  V30 1133 H 99.5338 1.32999 -0.931935 0
M  V30 1134 H 101.531 4.15856 0.294915 0
M  V30 1135 H 100.191 3.12954 0.865448 0
M  V30 1136 H 101.202 4.49649 -2.56975 0
M  V30 1137 H 97.8788 4.17499 -0.00918848 0
M  V30 1138 H 99.2688 5.52944 -3.81709 0
M  V30 1139 N 101.989 0.842826 1.3317 0
M  V30 1140 C 103.229 0.446574 1.99462 0
M  V30 1141 C 103.593 -0.976818 1.65295 0
M  V30 1142 O 104.794 -1.477 2.24584 0
M  V30 1143 C 103.065 0.665353 3.51152 0
M  V30 1144 S 104.624 0.364911 4.3728 0
M  V30 1145 H 101.442 0.167803 0.690915 0
M  V30 1146 H 104.044 1.09297 1.62094 0
M  V30 1147 H 102.748 1.7006 3.73507 0
M  V30 1148 H 102.279 0.00494568 3.934 0
M  V30 1149 H 104.294 -0.813761 4.89482 0
M  V30 1150 N 103.467 -1.45747 0.599634 0
M  V30 1151 C 104.692 -2.07178 0.0960198 0
M  V30 1152 C 105.117 -1.44268 -1.207 0
M  V30 1153 O 104.475 -0.532503 -1.73303 0
M  V30 1154 C 104.523 -3.60579 -0.0385348 0
M  V30 1155 O 103.627 -3.97713 -1.0908 0
M  V30 1156 H 102.968 -0.660251 0.0704593 0
M  V30 1157 H 105.498 -1.87124 0.827385 0
M  V30 1158 H 105.508 -4.07298 -0.239304 0
M  V30 1159 H 104.183 -4.05756 0.912947 0
M  V30 1160 H 102.76 -3.62678 -0.867135 0
M  V30 1161 N 104.945 -0.338344 -1.53925 0
M  V30 1162 C 106.194 0.260732 -2.00008 0
M  V30 1163 C 106.507 1.52073 -1.23017 0
M  V30 1164 O 107.713 2.19672 -1.5955 0
M  V30 1165 C 106.169 0.51515 -3.56194 0
M  V30 1166 C 105.777 -0.728645 -4.42035 0
M  V30 1167 C 107.521 1.07337 -4.10706 0
M  V30 1168 C 105.428 -0.445315 -5.89721 0
M  V30 1169 H 104.358 0.101205 -0.747177 0
M  V30 1170 H 107.009 -0.452866 -1.77824 0
M  V30 1171 H 105.391 1.28932 -3.74423 0
M  V30 1172 H 106.565 -1.50352 -4.35581 0
M  V30 1173 H 104.88 -1.20813 -3.98489 0
M  V30 1174 H 107.477 1.30022 -5.18651 0
M  V30 1175 H 107.82 2.0273 -3.63602 0
M  V30 1176 H 108.353 0.360034 -3.96167 0
M  V30 1177 H 105.092 -1.36883 -6.41049 0
M  V30 1178 H 104.612 0.291569 -5.99091 0
M  V30 1179 H 106.291 -0.0606218 -6.46972 0
M  V30 1180 N 106.423 1.57458 -0.0668435 0
M  V30 1181 C 107.672 1.92477 0.602947 0
M  V30 1182 C 107.985 0.948419 1.71068 0
M  V30 1183 O 109.191 1.19124 2.43971 0
M  V30 1184 C 107.647 3.41903 1.12383 0
M  V30 1185 C 107.255 4.47975 0.04737 0
M  V30 1186 C 108.999 3.85931 1.76797 0
M  V30 1187 C 106.906 5.88529 0.582022 0
M  V30 1188 H 105.836 0.718387 0.22899 0
M  V30 1189 H 108.487 1.82978 -0.138276 0
M  V30 1190 H 106.869 3.46459 1.91787 0
M  V30 1191 H 108.043 4.55029 -0.726978 0
M  V30 1192 H 106.358 4.13384 -0.500243 0
M  V30 1193 H 108.955 4.88322 2.17821 0
M  V30 1194 H 109.298 3.23029 2.62599 0
M  V30 1195 H 109.831 3.83958 1.04024 0
M  V30 1196 H 106.57 6.55065 -0.238721 0
M  V30 1197 H 106.09 5.85004 1.324 0
M  V30 1198 H 107.769 6.38258 1.05999 0
M  V30 1199 N 107.901 -0.206675 1.56239 0
M  V30 1200 C 108.848 -1.25617 1.93621 0
M  V30 1201 C 109.818 -1.45824 0.795274 0
M  V30 1202 O 111.003 -1.59148 1.05245 0
M  V30 1203 C 108.143 -2.59839 2.27107 0
M  V30 1204 C 107.256 -2.47308 3.54207 0
M  V30 1205 C 106.391 -3.74155 3.7707 0
M  V30 1206 C 105.43 -3.56407 4.97635 0
M  V30 1207 N 104.567 -4.75238 5.1681 0
M  V30 1208 H 109.407 -0.930383 2.83104 0
M  V30 1209 H 106.944 -0.448065 1.4011 0
M  V30 1210 H 108.902 -3.38021 2.44535 0
M  V30 1211 H 107.532 -2.90485 1.40778 0
M  V30 1212 H 106.584 -1.60483 3.4489 0
M  V30 1213 H 107.896 -2.30122 4.42544 0
M  V30 1214 H 107.05 -4.60778 3.94675 0
M  V30 1215 H 105.789 -3.94282 2.87042 0
M  V30 1216 H 104.794 -2.68168 4.79964 0
M  V30 1217 H 106.019 -3.37736 5.89161 0
M  V30 1218 H 103.965 -4.95651 4.29728 0
M  V30 1219 H 103.882 -4.60835 5.99306 0
M  V30 1220 H 105.15 -5.63246 5.38864 0
M  V30 1221 N 109.379 -1.50304 -0.473955 0
M  V30 1222 C 110.607 -1.64902 -1.24959 0
M  V30 1223 C 111.022 -0.331198 -1.85872 0
M  V30 1224 O 110.379 0.68652 -1.69095 0
M  V30 1225 C 110.43 -2.73803 -2.36038 0
M  V30 1226 O 110.151 -4.00477 -1.77624 0
M  V30 1227 C 111.652 -2.99349 -3.26964 0
M  V30 1228 H 108.872 -0.554383 -0.378022 0
M  V30 1229 H 111.416 -1.9651 -0.566054 0
M  V30 1230 H 109.571 -2.44898 -3.00173 0
M  V30 1231 H 109.985 -4.60678 -2.5075 0
M  V30 1232 H 111.459 -3.79217 -4.01121 0
M  V30 1233 H 111.936 -2.10307 -3.85574 0
M  V30 1234 H 112.542 -3.29774 -2.68569 0
M  V30 1235 N 110.857 0.726932 -1.39834 0
M  V30 1236 C 112.087 1.51393 -1.40583 0
M  V30 1237 C 112.495 1.892 -0.000740625 0
M  V30 1238 O 111.838 1.55189 0.982951 0
M  V30 1239 C 111.9 2.82588 -2.22226 0
M  V30 1240 C 111.564 2.67169 -3.70769 0
M  V30 1241 C 112.561 2.3518 -4.63666 0
M  V30 1242 C 110.246 2.83788 -4.14451 0
M  V30 1243 C 112.24 2.20002 -5.98229 0
M  V30 1244 C 109.927 2.68229 -5.49087 0
M  V30 1245 C 110.925 2.36382 -6.4079 0
M  V30 1246 O 110.613 2.2093 -7.72946 0
M  V30 1247 H 110.345 0.474168 -0.48181 0
M  V30 1248 H 112.899 0.905247 -1.84376 0
M  V30 1249 H 111.129 3.45746 -1.73195 0
M  V30 1250 H 112.818 3.44247 -2.15055 0
M  V30 1251 H 113.584 2.21984 -4.31217 0
M  V30 1252 H 109.463 3.07566 -3.43401 0
M  V30 1253 H 113.007 1.95067 -6.69772 0
M  V30 1254 H 108.904 2.81006 -5.81125 0
M  V30 1255 H 109.672 2.35937 -7.83757 0
M  V30 1256 N 112.336 1.25143 0.95797 0
M  V30 1257 C 113.246 1.06968 2.08794 0
M  V30 1258 C 114.262 0.00773911 1.73998 0
M  V30 1259 O 115.438 0.207972 2.00323 0
M  V30 1260 C 112.503 0.68691 3.39827 0
M  V30 1261 C 111.564 1.82641 3.88511 0
M  V30 1262 C 110.797 1.46181 5.1329 0
M  V30 1263 O 111.02 0.355971 5.69288 0
M  V30 1264 O 109.954 2.29085 5.566 0
M  V30 1265 H 113.78 2.01723 2.27027 0
M  V30 1266 H 111.365 1.04051 1.07209 0
M  V30 1267 H 113.247 0.485417 4.18595 0
M  V30 1268 H 111.922 -0.231417 3.22872 0
M  V30 1269 H 110.829 2.08274 3.10762 0
M  V30 1270 H 112.162 2.72386 4.09959 0
M  V30 1271 N 113.814 -1.1601 1.06675 0
M  V30 1272 C 115.063 -1.85973 0.780818 0
M  V30 1273 C 115.376 -1.82819 -0.695444 0
M  V30 1274 O 116.582 -2.484 -1.09589 0
M  V30 1275 C 115.038 -3.33757 1.34665 0
M  V30 1276 C 114.646 -3.45374 2.85343 0
M  V30 1277 C 116.39 -4.0895 1.13843 0
M  V30 1278 C 114.297 -4.87266 3.35151 0
M  V30 1279 H 113.227 -0.696661 0.288407 0
M  V30 1280 H 115.878 -1.30903 1.28595 0
M  V30 1281 H 114.26 -3.88456 0.769274 0
M  V30 1282 H 115.434 -3.00816 3.49065 0
M  V30 1283 H 113.749 -2.83619 3.04876 0
M  V30 1284 H 116.346 -5.13654 1.4854 0
M  V30 1285 H 116.689 -4.16229 0.0770282 0
M  V30 1286 H 117.222 -3.605 1.68179 0
M  V30 1287 H 113.961 -4.85168 4.40786 0
M  V30 1288 H 113.481 -5.32433 2.76179 0
M  V30 1289 H 115.16 -5.56097 3.30704 0
M  V30 1290 N 115.292 -0.849877 -1.32721 0
M  V30 1291 C 116.539 -0.450923 -1.97416 0
M  V30 1292 C 116.867 0.992376 -1.67279 0
M  V30 1293 O 116.122 1.71048 -0.950845 0
M  V30 1294 C 116.421 -0.631272 -3.51781 0
M  V30 1295 C 116.087 -2.04432 -4.01894 0
M  V30 1296 C 114.749 -2.4308 -4.1529 0
M  V30 1297 C 117.101 -2.96679 -4.28522 0
M  V30 1298 C 114.429 -3.73257 -4.52654 0
M  V30 1299 C 116.781 -4.26349 -4.67343 0
M  V30 1300 C 115.445 -4.64939 -4.78945 0
M  V30 1301 H 114.715 -0.165004 -0.722395 0
M  V30 1302 H 117.362 -1.07901 -1.58207 0
M  V30 1303 H 115.667 0.0800767 -3.91718 0
M  V30 1304 H 117.364 -0.302709 -3.99856 0
M  V30 1305 H 113.954 -1.73419 -3.91949 0
M  V30 1306 H 118.138 -2.68054 -4.17685 0
M  V30 1307 H 113.394 -4.02946 -4.59831 0
M  V30 1308 H 117.568 -4.97895 -4.86902 0
M  V30 1309 H 115.195 -5.65855 -5.07654 0
M  V30 1310 N 116.77 1.45427 -0.607355 0
M  V30 1311 C 117.68 2.34325 0.113463 0
M  V30 1312 C 118.696 1.51226 0.860617 0
M  V30 1313 O 119.872 1.84029 0.818255 0
M  V30 1314 C 116.937 3.28839 1.09844 0
M  V30 1315 C 115.998 4.27844 0.353271 0
M  V30 1316 C 115.231 5.17842 1.29133 0
M  V30 1317 O 115.454 5.11264 2.52913 0
M  V30 1318 O 114.388 5.96713 0.788523 0
M  V30 1319 H 118.214 2.97364 -0.617094 0
M  V30 1320 H 115.799 1.44807 -0.367619 0
M  V30 1321 H 117.681 3.8708 1.66575 0
M  V30 1322 H 116.356 2.68365 1.81003 0
M  V30 1323 H 115.263 3.7322 -0.256494 0
M  V30 1324 H 116.596 4.91173 -0.317822 0
M  V30 1325 N 118.248 0.346503 1.53744 0
M  V30 1326 C 119.476 -0.25041 2.05379 0
M  V30 1327 C 119.891 -1.43979 1.22129 0
M  V30 1328 O 119.248 -1.80677 0.257321 0
M  V30 1329 C 119.299 -0.662575 3.55376 0
M  V30 1330 O 119.02 0.479515 4.35468 0
M  V30 1331 C 120.521 -1.31989 4.23195 0
M  V30 1332 H 117.741 -0.0478198 0.669294 0
M  V30 1333 H 120.285 0.499346 1.9831 0
M  V30 1334 H 118.44 -1.36227 3.62658 0
M  V30 1335 H 118.854 0.15037 5.24284 0
M  V30 1336 H 120.328 -1.55902 5.29527 0
M  V30 1337 H 120.805 -2.27436 3.75725 0
M  V30 1338 H 121.411 -0.662154 4.20114 0
M  V30 1339 N 119.726 -1.57421 0.075193 0
M  V30 1340 C 120.951 -1.98364 -0.605515 0
M  V30 1341 C 121.376 -0.953383 -1.62149 0
M  V30 1342 O 120.734 0.0806053 -1.81121 0
M  V30 1343 C 120.782 -3.38332 -1.24756 0
M  V30 1344 O 119.886 -3.37959 -2.36342 0
M  V30 1345 H 119.227 -0.645553 -0.155428 0
M  V30 1346 H 121.757 -2.04044 0.150714 0
M  V30 1347 H 121.767 -3.75591 -1.5936 0
M  V30 1348 H 120.442 -4.12846 -0.503129 0
M  V30 1349 H 119.019 -3.12474 -2.03506 0
M  V30 1350 N 121.204 0.198386 -1.56346 0
M  V30 1351 C 122.154 1.2499 -1.90687 0
M  V30 1352 C 123.138 1.41158 -0.772217 0
M  V30 1353 O 124.33 1.43584 -1.03502 0
M  V30 1354 C 121.459 2.59542 -2.24706 0
M  V30 1355 C 120.545 2.47181 -3.44619 0
M  V30 1356 N 120.936 2.04495 -4.62618 0
M  V30 1357 C 119.234 2.78082 -3.48692 0
M  V30 1358 C 119.935 2.03945 -5.44776 0
M  V30 1359 N 118.911 2.45323 -4.85095 0
M  V30 1360 H 122.713 0.911149 -2.7942 0
M  V30 1361 H 120.227 0.40684 -1.57221 0
M  V30 1362 H 122.224 3.3549 -2.47491 0
M  V30 1363 H 120.884 2.94244 -1.37298 0
M  V30 1364 H 121.895 1.75256 -4.87345 0
M  V30 1365 H 118.572 3.17002 -2.71691 0
M  V30 1366 H 119.962 1.72872 -6.4928 0
M  V30 1367 N 122.682 1.50554 0.465978 0
M  V30 1368 C 123.93 1.61479 1.21528 0
M  V30 1369 C 124.251 0.319596 1.92363 0
M  V30 1370 O 123.521 -0.663194 1.84333 0
M  V30 1371 H 122.101 0.595055 0.451573 0
M  V30 1372 H 124.763 1.87355 0.53704 0
M  V30 1373 H 123.859 2.42846 1.96042 0
M  V30 1374 N 124.16 -0.719506 1.40217 0
M  V30 1375 C 125.107 -1.83359 1.40172 0
M  V30 1376 C 126.077 -1.64065 0.259206 0
M  V30 1377 O 127.262 -1.85254 0.456677 0
M  V30 1378 C 124.402 -3.2103 1.26624 0
M  V30 1379 C 123.515 -3.51923 2.50548 0
M  V30 1380 C 122.65 -4.79079 2.29471 0
M  V30 1381 C 121.689 -5.02863 3.48992 0
M  V30 1382 N 120.826 -6.2123 3.27135 0
M  V30 1383 H 125.666 -1.82733 2.35399 0
M  V30 1384 H 123.203 -0.892688 1.16917 0
M  V30 1385 H 125.161 -4.00524 1.16776 0
M  V30 1386 H 123.791 -3.20895 0.350176 0
M  V30 1387 H 122.843 -2.67014 2.70939 0
M  V30 1388 H 124.155 -3.6541 3.39525 0
M  V30 1389 H 123.309 -5.66582 2.16955 0
M  V30 1390 H 122.048 -4.67794 1.37913 0
M  V30 1391 H 121.053 -4.13816 3.6199 0
M  V30 1392 H 122.278 -5.16023 4.41472 0
M  V30 1393 H 120.224 -6.11204 2.38256 0
M  V30 1394 H 120.141 -6.35375 4.09675 0
M  V30 1395 H 121.409 -7.11532 3.18344 0
M  V30 1396 N 125.638 -1.25649 -0.95132 0
M  V30 1397 C 126.884 -1.10757 -1.69884 0
M  V30 1398 C 127.217 0.350061 -1.91019 0
M  V30 1399 O 126.492 1.25783 -1.48354 0
M  V30 1400 C 126.775 -1.86606 -3.07978 0
M  V30 1401 C 126.628 -3.40217 -2.94232 0
M  V30 1402 C 127.947 -1.65182 -4.07925 0
M  V30 1403 H 125.066 -0.40374 -0.616574 0
M  V30 1404 H 127.708 -1.54521 -1.10558 0
M  V30 1405 H 125.858 -1.49409 -3.58621 0
M  V30 1406 H 127.53 -3.87108 -2.50889 0
M  V30 1407 H 125.773 -3.67759 -2.30078 0
M  V30 1408 H 126.444 -3.88505 -3.92133 0
M  V30 1409 H 128.92 -1.9757 -3.66204 0
M  V30 1410 H 127.796 -2.20683 -5.02583 0
M  V30 1411 H 128.057 -0.593933 -4.38092 0
M  V30 1412 N 127.117 1.15442 -1.07289 0
M  V30 1413 C 128.347 1.89821 -0.815576 0
M  V30 1414 C 128.755 1.7823 0.634867 0
M  V30 1415 O 128.098 1.13152 1.44715 0
M  V30 1416 C 128.16 3.40817 -1.14385 0
M  V30 1417 C 127.824 3.76193 -2.59476 0
M  V30 1418 C 128.821 3.77269 -3.57721 0
M  V30 1419 C 126.506 4.0652 -2.95037 0
M  V30 1420 C 128.5 4.08176 -4.89562 0
M  V30 1421 C 126.187 4.37092 -4.27076 0
M  V30 1422 C 127.185 4.37902 -5.24148 0
M  V30 1423 O 126.873 4.67741 -6.53815 0
M  V30 1424 H 126.605 0.608465 -0.294528 0
M  V30 1425 H 129.159 1.472 -1.43252 0
M  V30 1426 H 127.389 3.83835 -0.469865 0
M  V30 1427 H 129.078 3.96485 -0.869179 0
M  V30 1428 H 129.844 3.5394 -3.3159 0
M  V30 1429 H 125.723 4.05049 -2.20128 0
M  V30 1430 H 129.267 4.08723 -5.65324 0
M  V30 1431 H 125.164 4.59889 -4.5296 0
M  V30 1432 H 125.932 4.85509 -6.58957 0
M  V30 1433 N 128.595 0.856903 1.32268 0
M  V30 1434 C 129.844 0.457599 1.96441 0
M  V30 1435 C 130.157 -0.992426 1.68553 0
M  V30 1436 O 131.363 -1.49727 2.26482 0
M  V30 1437 C 129.819 0.767358 3.51624 0
M  V30 1438 C 129.427 2.23326 3.88367 0
M  V30 1439 C 131.171 0.435887 4.22256 0
M  V30 1440 C 129.078 2.48613 5.36606 0
M  V30 1441 H 128.008 0.167387 0.735185 0
M  V30 1442 H 130.659 1.048 1.5063 0
M  V30 1443 H 129.041 0.106367 3.95857 0
M  V30 1444 H 130.215 2.93623 3.55137 0
M  V30 1445 H 128.53 2.52948 3.30766 0
M  V30 1446 H 131.127 0.602202 5.31298 0
M  V30 1447 H 131.47 -0.622672 4.11617 0
M  V30 1448 H 132.003 1.05286 3.83614 0
M  V30 1449 H 128.742 3.53101 5.52268 0
M  V30 1450 H 128.262 1.82896 5.71235 0
M  V30 1451 H 129.941 2.32676 6.03714 0
M  V30 1452 N 130.073 -1.45103 0.615059 0
M  V30 1453 C 131.319 -2.02483 0.113347 0
M  V30 1454 C 131.652 -1.48146 -1.25564 0
M  V30 1455 O 130.927 -0.659104 -1.82992 0
M  V30 1456 C 131.21 -3.60005 0.0825278 0
M  V30 1457 C 131.063 -4.2466 1.48271 0
M  V30 1458 C 132.382 -4.35972 -0.601401 0
M  V30 1459 H 129.501 -0.735764 0.0426632 0
M  V30 1460 H 132.143 -1.72868 0.788461 0
M  V30 1461 H 130.293 -3.85367 -0.492378 0
M  V30 1462 H 131.965 -4.10458 2.10527 0
M  V30 1463 H 130.208 -3.82772 2.04127 0
M  V30 1464 H 130.879 -5.336 1.41332 0
M  V30 1465 H 133.355 -4.15947 -0.112666 0
M  V30 1466 H 132.231 -5.45697 -0.592097 0
M  V30 1467 H 132.492 -4.09391 -1.66887 0
M  V30 1468 N 131.551 -0.354651 -1.53558 0
M  V30 1469 C 132.484 0.540273 -2.21712 0
M  V30 1470 C 133.462 1.09161 -1.2051 0
M  V30 1471 O 134.646 1.14979 -1.49372 0
M  V30 1472 C 131.773 1.74435 -2.90328 0
M  V30 1473 C 130.819 1.32146 -4.05512 0
M  V30 1474 S 131.652 0.331924 -5.3447 0
M  V30 1475 C 132.808 1.54258 -6.06593 0
M  V30 1476 H 133.041 -0.0385776 -2.97275 0
M  V30 1477 H 130.574 -0.138736 -1.53775 0
M  V30 1478 H 132.532 2.43507 -3.30476 0
M  V30 1479 H 131.193 2.29444 -2.1451 0
M  V30 1480 H 130.386 2.21952 -4.52497 0
M  V30 1481 H 129.988 0.710091 -3.67197 0
M  V30 1482 H 132.28 2.47534 -6.30661 0
M  V30 1483 H 133.223 1.11431 -6.99277 0
M  V30 1484 H 133.631 1.74367 -5.36895 0
M  V30 1485 N 133.029 1.57378 -0.0835403 0
M  V30 1486 C 133.939 2.16897 0.894021 0
M  V30 1487 C 134.955 1.13528 1.31861 0
M  V30 1488 O 136.131 1.45848 1.3889 0
M  V30 1489 C 133.196 2.72831 2.13925 0
M  V30 1490 C 132.257 3.91115 1.76997 0
M  V30 1491 C 131.49 4.44371 2.95584 0
M  V30 1492 O 131.713 3.96596 4.09961 0
M  V30 1493 O 130.647 5.35549 2.74719 0
M  V30 1494 H 134.473 3.00814 0.417679 0
M  V30 1495 H 132.058 1.48741 0.140181 0
M  V30 1496 H 133.94 3.0863 2.86924 0
M  V30 1497 H 132.615 1.91967 2.60635 0
M  V30 1498 H 131.522 3.60148 1.01214 0
M  V30 1499 H 132.855 4.73307 1.3506 0
M  V30 1500 N 134.507 -0.190092 1.56449 0
M  V30 1501 C 135.437 -1.23816 1.97969 0
M  V30 1502 C 136.418 -1.47201 0.852395 0
M  V30 1503 O 137.603 -1.58854 1.1171 0
M  V30 1504 C 134.733 -2.5813 2.3235 0
M  V30 1505 C 133.687 -2.49348 3.47864 0
M  V30 1506 C 133.013 -3.8798 3.67934 0
M  V30 1507 C 134.313 -2.01424 4.81898 0
M  V30 1508 H 136.007 -0.89311 2.85769 0
M  V30 1509 H 133.553 -0.428177 1.37487 0
M  V30 1510 H 135.506 -3.31637 2.59991 0
M  V30 1511 H 134.23 -2.94386 1.41438 0
M  V30 1512 H 132.889 -1.78297 3.20321 0
M  V30 1513 H 132.537 -4.21597 2.74344 0
M  V30 1514 H 132.237 -3.82978 4.45648 0
M  V30 1515 H 133.761 -4.63101 3.97957 0
M  V30 1516 H 135.175 -2.64693 5.08538 0
M  V30 1517 H 133.572 -2.07413 5.63116 0
M  V30 1518 H 134.642 -0.967677 4.75146 0
M  V30 1519 N 135.985 -1.50799 -0.457987 0
M  V30 1520 C 136.948 -1.7005 -1.53674 0
M  V30 1521 C 137.948 -0.570881 -1.50325 0
M  V30 1522 O 139.138 -0.838126 -1.52712 0
M  V30 1523 C 136.27 -1.73788 -2.93276 0
M  V30 1524 H 137.463 -2.66306 -1.37917 0
M  V30 1525 H 135.016 -1.40477 -0.685271 0
M  V30 1526 H 135.751 -0.792717 -3.14462 0
M  V30 1527 H 135.536 -2.55864 -2.97113 0
M  V30 1528 H 137.026 -1.90591 -3.71571 0
M  V30 1529 N 137.463 0.71206 -1.40597 0
M  V30 1530 C 138.709 1.47416 -1.39271 0
M  V30 1531 C 139.042 1.942 0.00388791 0
M  V30 1532 O 138.317 1.68403 0.973179 0
M  V30 1533 C 138.6 2.69774 -2.38525 0
M  V30 1534 C 138.453 2.28861 -3.87224 0
M  V30 1535 C 139.772 3.71939 -2.35264 0
M  V30 1536 H 136.891 0.534713 -0.5072 0
M  V30 1537 H 139.533 0.812375 -1.71757 0
M  V30 1538 H 137.683 3.26238 -2.10953 0
M  V30 1539 H 139.355 1.77852 -4.25636 0
M  V30 1540 H 137.598 1.60824 -4.02887 0
M  V30 1541 H 138.269 3.16584 -4.52193 0
M  V30 1542 H 140.745 3.25113 -2.59694 0
M  V30 1543 H 139.621 4.55186 -3.06753 0
M  V30 1544 H 139.882 4.20484 -1.36549 0
M  V30 1545 N 138.941 1.26152 0.944643 0
M  V30 1546 C 139.873 1.03199 2.04652 0
M  V30 1547 C 140.886 -0.00642356 1.62799 0
M  V30 1548 O 142.075 0.233263 1.76969 0
M  V30 1549 C 139.175 0.540111 3.34568 0
M  V30 1550 C 138.348 1.64697 4.05208 0
M  V30 1551 C 137.407 1.15374 5.13396 0
M  V30 1552 O 136.433 1.85013 5.38293 0
M  V30 1553 N 137.635 0.00031529 5.805 0
M  V30 1554 H 140.4 1.9808 2.2491 0
M  V30 1555 H 137.961 1.17491 1.11389 0
M  V30 1556 H 139.953 0.194401 4.04233 0
M  V30 1557 H 138.523 -0.315021 3.11009 0
M  V30 1558 H 137.743 2.16379 3.29506 0
M  V30 1559 H 139.031 2.3903 4.49157 0
M  V30 1560 H 138.429 -0.581336 5.62705 0
M  V30 1561 H 136.986 -0.286346 6.51171 0
M  V30 1562 N 140.419 -1.14872 1.07899 0
M  V30 1563 C 141.667 -1.85422 0.803941 0
M  V30 1564 C 141.988 -1.83051 -0.67211 0
M  V30 1565 O 141.258 -1.27532 -1.48703 0
M  V30 1566 H 139.838 -0.686537 0.294408 0
M  V30 1567 H 142.5 -1.39226 1.3639 0
M  V30 1568 H 141.596 -2.90399 1.14346 0
M  V30 1569 N 141.898 -0.863906 -1.31812 0
M  V30 1570 C 143.175 -0.39275 -1.91616 0
M  V30 1571 C 143.555 1.12461 -1.7865 0
M  V30 1572 O 142.903 1.95045 -1.19037 0
M  V30 1573 C 143.113 -0.867385 -3.38049 0
M  V30 1574 C 144.461 -0.889966 -4.15168 0
M  V30 1575 O 145.485 -0.812635 -3.46806 0
M  V30 1576 O 144.344 -1.00079 -5.37258 0
M  V30 1577 H 141.438 -0.116358 -0.818773 0
M  V30 1578 H 143.984 -0.951418 -1.40521 0
M  V30 1579 H 142.756 -1.91081 -3.41473 0
M  V30 1580 H 142.379 -0.286687 -3.96565 0
M  V30 1581 N 143.376 1.44774 -0.622745 0
M  V30 1582 C 144.306 2.33382 0.0741861 0
M  V30 1583 C 145.287 1.47719 0.843387 0
M  V30 1584 O 146.472 1.76458 0.810934 0
M  V30 1585 C 143.602 3.30663 1.06204 0
M  V30 1586 C 142.556 4.26079 0.405037 0
M  V30 1587 C 141.882 5.13165 1.5022 0
M  V30 1588 C 143.182 5.1781 -0.683414 0
M  V30 1589 H 144.876 2.91905 -0.665713 0
M  V30 1590 H 142.422 1.40363 -0.321587 0
M  V30 1591 H 144.375 3.9153 1.55827 0
M  V30 1592 H 143.099 2.70331 1.83272 0
M  V30 1593 H 141.758 3.66532 -0.0704683 0
M  V30 1594 H 141.406 4.49191 2.26355 0
M  V30 1595 H 141.106 5.77812 1.06803 0
M  V30 1596 H 142.63 5.76902 2.00041 0
M  V30 1597 H 144.044 5.72661 -0.270631 0
M  V30 1598 H 142.441 5.91015 -1.04023 0
M  V30 1599 H 143.511 4.59326 -1.55395 0
M  V30 1600 N 144.854 0.36279 1.53368 0
M  V30 1601 C 145.784 -0.476976 2.28576 0
M  V30 1602 C 146.765 -1.08631 1.30894 0
M  V30 1603 O 147.95 -1.10409 1.59761 0
M  V30 1604 C 145.08 -1.61828 3.07293 0
M  V30 1605 C 144.034 -1.13633 4.1264 0
M  V30 1606 C 143.36 -2.36766 4.79423 0
M  V30 1607 C 144.66 -0.223061 5.21823 0
M  V30 1608 H 146.354 0.150474 2.99022 0
M  V30 1609 H 143.9 0.0738103 1.43811 0
M  V30 1610 H 145.853 -2.21237 3.58653 0
M  V30 1611 H 144.577 -2.27292 2.34533 0
M  V30 1612 H 143.236 -0.564945 3.62221 0
M  V30 1613 H 142.884 -3.0068 4.03238 0
M  V30 1614 H 142.584 -2.05192 5.50609 0
M  V30 1615 H 144.108 -2.96865 5.33576 0
M  V30 1616 H 145.522 -0.724545 5.68703 0
M  V30 1617 H 143.919 0.001678 6.001 0
M  V30 1618 H 144.989 0.735553 4.79289 0
M  V30 1619 N 146.332 -1.57332 0.0918853 0
M  V30 1620 C 147.242 -2.17368 -0.882505 0
M  V30 1621 C 148.258 -1.14226 -1.31257 0
M  V30 1622 O 149.434 -1.46582 -1.38115 0
M  V30 1623 C 146.499 -2.73962 -2.12476 0
M  V30 1624 C 145.56 -3.92048 -1.7492 0
M  V30 1625 C 144.793 -4.45933 -2.93223 0
M  V30 1626 O 145.016 -3.98764 -4.07852 0
M  V30 1627 O 143.95 -5.36999 -2.71875 0
M  V30 1628 H 147.776 -3.01031 -0.40172 0
M  V30 1629 H 145.361 -1.48813 -0.132291 0
M  V30 1630 H 147.243 -3.10147 -2.85283 0
M  V30 1631 H 145.918 -1.93347 -2.59613 0
M  V30 1632 H 144.825 -3.6068 -0.993025 0
M  V30 1633 H 146.158 -4.74017 -1.32548 0
M  V30 1634 N 147.81 0.181792 -1.56548 0
M  V30 1635 C 148.74 1.22765 -1.98623 0
M  V30 1636 C 149.721 1.46747 -0.860189 0
M  V30 1637 O 150.906 1.58259 -1.12551 0
M  V30 1638 C 148.036 2.56894 -2.33715 0
M  V30 1639 C 146.99 2.475 -3.49182 0
M  V30 1640 C 146.316 3.86023 -3.69986 0
M  V30 1641 C 147.616 1.98866 -4.82959 0
M  V30 1642 H 149.31 0.877942 -2.86239 0
M  V30 1643 H 146.856 0.42088 -1.37712 0
M  V30 1644 H 148.809 3.30253 -2.61746 0
M  V30 1645 H 147.533 2.93632 -1.42997 0
M  V30 1646 H 146.192 1.76596 -3.21262 0
M  V30 1647 H 145.84 4.20136 -2.76576 0
M  V30 1648 H 145.54 3.80609 -4.47672 0
M  V30 1649 H 147.064 4.60984 -4.00407 0
M  V30 1650 H 148.478 2.61992 -5.09934 0
M  V30 1651 H 146.875 2.04424 -5.64208 0
M  V30 1652 H 147.945 0.942465 -4.75653 0
M  V30 1653 N 149.288 1.51039 0.449983 0
M  V30 1654 C 150.537 1.62317 1.19733 0
M  V30 1655 C 150.85 0.339101 1.92638 0
M  V30 1656 O 152.056 0.331069 2.69474 0
M  V30 1657 C 150.512 2.86608 2.17678 0
M  V30 1658 C 150.12 4.21972 1.50479 0
M  V30 1659 C 151.864 3.07239 2.92924 0
M  V30 1660 C 149.771 5.37426 2.46834 0
M  V30 1661 H 148.701 0.604532 0.450619 0
M  V30 1662 H 151.352 1.77494 0.465625 0
M  V30 1663 H 149.734 2.65037 2.94231 0
M  V30 1664 H 150.908 4.53878 0.795716 0
M  V30 1665 H 149.223 4.07117 0.874344 0
M  V30 1666 H 151.82 3.90668 3.65079 0
M  V30 1667 H 152.163 2.19807 3.5354 0
M  V30 1668 H 152.696 3.29091 2.23481 0
M  V30 1669 H 149.435 6.27079 1.90926 0
M  V30 1670 H 148.955 5.09912 3.15832 0
M  V30 1671 H 150.634 5.68862 3.08228 0
M  V30 1672 N 150.766 -0.704594 1.40972 0
M  V30 1673 C 151.713 -1.81862 1.42109 0
M  V30 1674 C 152.683 -1.63781 0.276593 0
M  V30 1675 O 153.868 -1.84759 0.4763 0
M  V30 1676 C 151.008 -3.19669 1.30022 0
M  V30 1677 C 150.121 -3.49246 2.54267 0
M  V30 1678 C 149.256 -4.76618 2.3454 0
M  V30 1679 C 148.295 -4.99133 3.54306 0
M  V30 1680 N 147.432 -6.17726 3.33706 0
M  V30 1681 H 152.272 -1.80226 2.37324 0
M  V30 1682 H 149.809 -0.880238 1.17857 0
M  V30 1683 H 151.767 -3.99263 1.21018 0
M  V30 1684 H 150.397 -3.20506 0.384192 0
M  V30 1685 H 149.449 -2.64125 2.73756 0
M  V30 1686 H 150.761 -3.61788 3.43381 0
M  V30 1687 H 149.915 -5.64249 2.22952 0
M  V30 1688 H 148.654 -4.66305 1.42867 0
M  V30 1689 H 147.659 -4.09953 3.66359 0
M  V30 1690 H 148.884 -5.11311 4.4692 0
M  V30 1691 H 146.83 -6.08642 2.44725 0
M  V30 1692 H 146.747 -6.30995 4.16391 0
M  V30 1693 H 148.015 -7.08115 3.25873 0
M  V30 1694 N 152.244 -1.26651 -0.937939 0
M  V30 1695 C 153.472 -1.15173 -1.7188 0
M  V30 1696 C 153.887 0.292668 -1.86518 0
M  V30 1697 O 153.244 1.20014 -1.37488 0
M  V30 1698 C 153.295 -1.81925 -3.12387 0
M  V30 1699 O 153.016 -3.2072 -2.98446 0
M  V30 1700 C 154.517 -1.76442 -4.06673 0
M  V30 1701 H 151.737 -0.400911 -0.538063 0
M  V30 1702 H 154.281 -1.67332 -1.1756 0
M  V30 1703 H 152.436 -1.33696 -3.63599 0
M  V30 1704 H 152.85 -3.53802 -3.872 0
M  V30 1705 H 154.324 -2.27781 -5.02812 0
M  V30 1706 H 154.801 -0.731608 -4.33064 0
M  V30 1707 H 155.407 -2.24238 -3.61382 0
M  V30 1708 N 153.722 1.14298 -1.08507 0
M  V30 1709 C 155.138 1.37347 -0.812901 0
M  V30 1710 C 155.338 1.93052 0.577325 0
M  V30 1711 O 154.394 2.14389 1.33393 0
M  V30 1712 C 155.707 2.33359 -1.89642 0
M  V30 1713 C 157.255 2.46996 -1.92255 0
M  V30 1714 C 157.73 3.46309 -2.99724 0
M  V30 1715 N 159.221 3.53853 -2.98902 0
M  V30 1716 C 159.956 4.3055 -3.787 0
M  V30 1717 N 159.452 5.10482 -4.6838 0
M  V30 1718 N 161.245 4.25757 -3.66998 0
M  V30 1719 H 153.396 0.764867 -1.9815 0
M  V30 1720 H 155.659 0.398966 -0.859959 0
M  V30 1721 H 155.365 1.99565 -2.89597 0
M  V30 1722 H 155.239 3.33274 -1.76659 0
M  V30 1723 H 157.626 2.80081 -0.929445 0
M  V30 1724 H 157.707 1.47039 -2.09316 0
M  V30 1725 H 157.351 3.13957 -3.99241 0
M  V30 1726 H 157.281 4.46049 -2.79907 0
M  V30 1727 H 159.772 2.96812 -2.33904 0
M  V30 1728 H 160.085 5.66284 -5.25873 0
M  V30 1729 H 158.43 5.09747 -4.72422 0
M  V30 1730 H 161.621 3.62383 -2.96304 0
M  V30 1731 H 161.794 4.85279 -4.29427 0
M  V30 1732 N 155.201 0.870884 1.31352 0
M  V30 1733 C 156.449 0.48132 1.96285 0
M  V30 1734 C 156.77 -0.969813 1.69173 0
M  V30 1735 O 156.04 -1.67998 1.00764 0
M  V30 1736 H 154.62 0.175002 0.726212 0
M  V30 1737 H 157.282 1.11087 1.60143 0
M  V30 1738 H 156.378 0.639825 3.05471 0
M  V30 1739 N 156.679 -1.44442 0.630414 0
M  V30 1740 C 157.642 -2.29107 -0.0652523 0
M  V30 1741 C 158.642 -1.41002 -0.772995 0
M  V30 1742 O 159.832 -1.62881 -0.617692 0
M  V30 1743 C 156.964 -3.22564 -1.10296 0
M  V30 1744 H 158.157 -2.92103 0.679401 0
M  V30 1745 H 155.71 -1.51343 0.390517 0
M  V30 1746 H 156.445 -2.64416 -1.87762 0
M  V30 1747 H 156.23 -3.87491 -0.59941 0
M  V30 1748 H 157.72 -3.86167 -1.5895 0
M  V30 1749 N 158.157 -0.370918 -1.53173 0
M  V30 1750 C 159.087 0.464847 -2.28826 0
M  V30 1751 C 160.068 1.07936 -1.31468 0
M  V30 1752 O 161.253 1.0956 -1.60344 0
M  V30 1753 C 158.383 1.60196 -3.08147 0
M  V30 1754 C 157.337 1.11443 -4.13237 0
M  V30 1755 C 156.663 2.3422 -4.80672 0
M  V30 1756 C 157.963 0.195384 -5.21934 0
M  V30 1757 H 159.657 -0.166329 -2.98938 0
M  V30 1758 H 157.203 -0.0814359 -1.4377 0
M  V30 1759 H 159.156 2.19332 -3.59822 0
M  V30 1760 H 157.88 2.26045 -2.35735 0
M  V30 1761 H 156.539 0.545727 -3.62515 0
M  V30 1762 H 156.187 2.98537 -4.04827 0
M  V30 1763 H 155.887 2.02269 -5.51689 0
M  V30 1764 H 157.411 2.94032 -5.35143 0
M  V30 1765 H 158.825 0.694375 -5.69079 0
M  V30 1766 H 157.222 -0.0335027 -6.00091 0
M  V30 1767 H 158.292 -0.760961 -4.78892 0
M  V30 1768 N 159.635 1.57281 -0.100228 0
M  V30 1769 C 160.585 2.10848 0.86759 0
M  V30 1770 C 161.569 1.02473 1.24049 0
M  V30 1771 O 162.761 1.28739 1.21471 0
M  V30 1772 C 159.89 2.69648 2.12474 0
M  V30 1773 C 158.976 3.85074 1.77704 0
M  V30 1774 N 159.367 4.92897 1.13518 0
M  V30 1775 C 157.665 3.94905 2.07282 0
M  V30 1776 C 158.366 5.73475 0.974735 0
M  V30 1777 N 157.342 5.22675 1.4937 0
M  V30 1778 H 161.144 2.91594 0.367471 0
M  V30 1779 H 158.658 1.62074 0.102829 0
M  V30 1780 H 160.655 3.06356 2.82757 0
M  V30 1781 H 159.315 1.90359 2.63047 0
M  V30 1782 H 160.326 5.11662 0.801381 0
M  V30 1783 H 157.003 3.26633 2.60033 0
M  V30 1784 H 158.393 6.70238 0.472364 0
M  V30 1785 N 161.113 -0.173488 1.56642 0
M  V30 1786 C 162.023 -1.23482 1.99473 0
M  V30 1787 C 163.039 -1.48567 0.905752 0
M  V30 1788 O 164.215 -1.60758 1.21321 0
M  V30 1789 C 161.28 -2.55444 2.34413 0
M  V30 1790 C 160.341 -2.38241 3.57127 0
M  V30 1791 C 159.574 -3.63909 3.90392 0
M  V30 1792 O 159.797 -4.68996 3.24653 0
M  V30 1793 O 158.731 -3.58149 4.83749 0
M  V30 1794 H 162.557 -0.901279 2.90018 0
M  V30 1795 H 160.142 -0.380185 1.44482 0
M  V30 1796 H 162.024 -3.33292 2.57865 0
M  V30 1797 H 160.699 -2.88382 1.4703 0
M  V30 1798 H 159.606 -1.58431 3.38896 0
M  V30 1799 H 160.939 -2.10228 4.45045 0
M  V30 1800 N 162.591 -1.51276 -0.441967 0
M  V30 1801 C 163.868 -1.54252 -1.20273 0
M  V30 1802 C 164.248 -0.30408 -2.08898 0
M  V30 1803 O 163.596 0.711084 -2.17154 0
M  V30 1804 C 163.806 -2.85406 -2.00859 0
M  V30 1805 C 165.154 -3.37181 -2.58059 0
M  V30 1806 O 166.178 -2.86925 -2.11074 0
M  V30 1807 O 165.037 -4.24858 -3.43741 0
M  V30 1808 H 162.131 -0.619969 -0.547328 0
M  V30 1809 H 164.677 -1.63586 -0.451413 0
M  V30 1810 H 163.449 -3.67003 -1.35736 0
M  V30 1811 H 163.072 -2.79213 -2.83065 0
M  V30 1812 N 164.069 0.697108 -1.41344 0
M  V30 1813 C 164.979 1.84088 -1.45427 0
M  V30 1814 C 165.995 1.70545 -0.34501 0
M  V30 1815 O 167.171 1.92488 -0.592492 0
M  V30 1816 C 164.236 3.20056 -1.33286 0
M  V30 1817 C 163.297 3.45718 -2.54514 0
M  V30 1818 C 162.53 4.75199 -2.42944 0
M  V30 1819 O 162.753 5.51579 -1.45318 0
M  V30 1820 O 161.687 5.0161 -3.32672 0
M  V30 1821 H 165.513 1.836 -2.41919 0
M  V30 1822 H 163.098 0.849966 -1.22866 0
M  V30 1823 H 164.98 4.01236 -1.28794 0
M  V30 1824 H 163.655 3.2123 -0.39909 0
M  V30 1825 H 162.562 2.64474 -2.64583 0
M  V30 1826 H 163.895 3.49356 -3.46715 0
M  V30 1827 N 165.547 1.27147 0.931209 0
M  V30 1828 C 166.51 1.09615 2.01289 0
M  V30 1829 C 167.51 0.0412581 1.60747 0
M  V30 1830 O 168.7 0.285545 1.71844 0
M  V30 1831 C 165.832 0.669447 3.34262 0
M  V30 1832 H 167.025 2.05662 2.18273 0
M  V30 1833 H 164.578 1.09885 1.11153 0
M  V30 1834 H 165.313 -0.292572 3.22978 0
M  V30 1835 H 165.098 1.43127 3.65044 0
M  V30 1836 H 166.588 0.568921 4.13706 0
M  V30 1837 N 167.025 -1.13721 1.09112 0
M  V30 1838 C 168.441 -1.36914 0.820174 0
M  V30 1839 C 168.641 -1.93356 -0.567079 0
M  V30 1840 O 167.697 -2.15093 -1.32255 0
M  V30 1841 C 169.01 -2.3235 1.90877 0
M  V30 1842 C 170.558 -2.45973 1.93562 0
M  V30 1843 C 171.033 -3.44714 3.01556 0
M  V30 1844 N 172.524 -3.52263 3.00775 0
M  V30 1845 C 173.259 -4.28536 3.80978 0
M  V30 1846 N 172.755 -5.07991 4.71081 0
M  V30 1847 N 174.548 -4.23804 3.69251 0
M  V30 1848 H 166.699 -0.754348 1.98553 0
M  V30 1849 H 168.962 -0.3944 0.862063 0
M  V30 1850 H 168.668 -1.98027 2.90651 0
M  V30 1851 H 168.542 -3.32332 1.78424 0
M  V30 1852 H 170.929 -2.79584 0.944286 0
M  V30 1853 H 171.01 -1.45926 2.10093 0
M  V30 1854 H 170.654 -3.11835 4.00901 0
M  V30 1855 H 170.584 -4.44558 2.82269 0
M  V30 1856 H 173.075 -2.95567 2.35475 0
M  V30 1857 H 173.388 -5.63487 5.28869 0
M  V30 1858 H 171.733 -5.07235 4.75119 0
M  V30 1859 H 174.924 -3.60806 2.98222 0
M  V30 1860 H 175.097 -4.82995 4.31995 0
M  V30 1861 N 168.503 -0.877838 -1.30888 0
M  V30 1862 C 169.45 -0.337538 -2.28318 0
M  V30 1863 C 170.42 0.568346 -1.56074 0
M  V30 1864 O 171.605 0.498298 -1.84178 0
M  V30 1865 C 168.745 0.448142 -3.42178 0
M  V30 1866 C 167.858 -0.48615 -4.29256 0
M  V30 1867 C 166.993 0.314427 -5.30269 0
M  V30 1868 C 166.032 -0.615791 -6.08995 0
M  V30 1869 N 165.169 0.14902 -7.01942 0
M  V30 1870 H 170.009 -1.17356 -2.73919 0
M  V30 1871 H 167.546 -0.590094 -1.34745 0
M  V30 1872 H 169.504 0.919517 -4.06941 0
M  V30 1873 H 168.134 1.24879 -2.97666 0
M  V30 1874 H 167.186 -1.076 -3.64865 0
M  V30 1875 H 168.498 -1.19909 -4.84173 0
M  V30 1876 H 167.652 0.847969 -6.00745 0
M  V30 1877 H 166.391 1.06062 -4.76027 0
M  V30 1878 H 165.396 -1.16102 -5.37401 0
M  V30 1879 H 166.621 -1.36097 -6.65323 0
M  V30 1880 H 164.567 0.877884 -6.50099 0
M  V30 1881 H 164.484 -0.504433 -7.54315 0
M  V30 1882 H 165.752 0.663537 -7.76671 0
M  V30 1883 N 169.982 1.44106 -0.638065 0
M  V30 1884 C 170.929 2.30715 0.062701 0
M  V30 1885 C 171.899 1.43882 0.829883 0
M  V30 1886 O 173.084 1.72775 0.809532 0
M  V30 1887 C 170.224 3.29258 1.03358 0
M  V30 1888 C 169.337 4.31192 0.26409 0
M  V30 1889 C 168.472 5.16825 1.22741 0
M  V30 1890 C 167.511 6.10462 0.447475 0
M  V30 1891 N 166.648 6.8877 1.36161 0
M  V30 1892 H 171.488 2.90096 -0.681781 0
M  V30 1893 H 169.025 1.42925 -0.347988 0
M  V30 1894 H 170.983 3.84886 1.60992 0
M  V30 1895 H 169.613 2.71562 1.74511 0
M  V30 1896 H 168.665 3.77981 -0.428295 0
M  V30 1897 H 169.977 4.97619 -0.343052 0
M  V30 1898 H 169.131 5.77004 1.87487 0
M  V30 1899 H 167.87 4.50488 1.86847 0
M  V30 1900 H 166.875 5.49386 -0.213433 0
M  V30 1901 H 168.1 6.78837 -0.188968 0
M  V30 1902 H 166.046 6.25096 1.98975 0
M  V30 1903 H 165.963 7.51663 0.808656 0
M  V30 1904 H 167.231 7.53467 1.99769 0
M  V30 1905 N 171.46 0.379036 1.52974 0
M  V30 1906 C 172.707 -0.206421 2.01445 0
M  V30 1907 C 173.035 -1.47668 1.26587 0
M  V30 1908 O 172.29 -1.92514 0.351675 0
M  V30 1909 C 172.589 -0.53096 3.53434 0
M  V30 1910 C 172.255 0.646546 4.46241 0
M  V30 1911 C 170.917 0.969604 4.7133 0
M  V30 1912 C 173.269 1.43479 5.01062 0
M  V30 1913 C 170.597 2.08263 5.48492 0
M  V30 1914 C 172.949 2.53834 5.7944 0
M  V30 1915 C 171.613 2.86659 6.02812 0
M  V30 1916 H 170.883 -0.0755349 0.73714 0
M  V30 1917 H 173.53 0.514271 1.84465 0
M  V30 1918 H 171.835 -1.33285 3.68432 0
M  V30 1919 H 173.532 -0.996417 3.88423 0
M  V30 1920 H 170.122 0.384734 4.2687 0
M  V30 1921 H 174.306 1.19844 4.81613 0
M  V30 1922 H 169.562 2.34078 5.64816 0
M  V30 1923 H 173.736 3.15319 6.20924 0
M  V30 1924 H 171.363 3.73026 6.62387 0
M  V30 1925 N 172.938 -1.57226 0.108567 0
M  V30 1926 C 173.888 -2.11305 -0.856396 0
M  V30 1927 C 174.872 -1.03129 -1.23504 0
M  V30 1928 O 176.064 -1.29381 -1.20787 0
M  V30 1929 C 173.193 -2.70771 -2.11041 0
M  V30 1930 C 172.279 -3.86011 -1.7566 0
M  V30 1931 N 172.67 -4.93492 -1.10902 0
M  V30 1932 C 170.968 -3.95999 -2.05185 0
M  V30 1933 C 171.669 -5.73984 -0.944308 0
M  V30 1934 N 170.645 -5.2346 -1.46596 0
M  V30 1935 H 174.447 -2.91784 -0.352002 0
M  V30 1936 H 171.961 -1.62126 -0.0942324 0
M  V30 1937 H 173.958 -3.07851 -2.81128 0
M  V30 1938 H 172.618 -1.91751 -2.62034 0
M  V30 1939 H 173.629 -5.1208 -0.774235 0
M  V30 1940 H 170.306 -3.28007 -2.58298 0
M  V30 1941 H 171.696 -6.70479 -0.436813 0
M  V30 1942 N 174.416 0.165178 -1.56732 0
M  V30 1943 C 175.348 1.22911 -1.93457 0
M  V30 1944 C 176.361 1.40152 -0.828333 0
M  V30 1945 O 177.55 1.40046 -1.10677 0
M  V30 1946 C 174.65 2.59686 -2.17753 0
M  V30 1947 C 173.823 2.63663 -3.48999 0
M  V30 1948 C 172.882 3.81845 -3.62051 0
M  V30 1949 O 171.908 3.67559 -4.34613 0
M  V30 1950 N 173.11 4.98557 -2.97357 0
M  V30 1951 H 175.875 0.917118 -2.85323 0
M  V30 1952 H 173.436 0.354895 -1.57962 0
M  V30 1953 H 175.428 3.37225 -2.23743 0
M  V30 1954 H 173.998 2.83251 -1.32242 0
M  V30 1955 H 173.218 1.72173 -3.54612 0
M  V30 1956 H 174.506 2.63336 -4.35352 0
M  V30 1957 H 173.904 5.13065 -2.38287 0
M  V30 1958 H 172.461 5.73936 -3.08934 0
M  V30 1959 N 175.894 1.51508 0.433938 0
M  V30 1960 C 176.824 1.76016 1.53429 0
M  V30 1961 C 177.805 0.610112 1.58782 0
M  V30 1962 O 178.99 0.853177 1.74455 0
M  V30 1963 C 176.12 1.88831 2.9148 0
M  V30 1964 C 175.074 3.04288 3.00987 0
M  V30 1965 C 174.4 3.0229 4.4105 0
M  V30 1966 C 175.7 4.44193 2.74754 0
M  V30 1967 H 177.394 2.68152 1.33171 0
M  V30 1968 H 174.94 1.29035 0.639214 0
M  V30 1969 H 176.893 2.04559 3.6842 0
M  V30 1970 H 175.617 0.933455 3.12976 0
M  V30 1971 H 174.276 2.8827 2.26486 0
M  V30 1972 H 173.924 2.04576 4.59519 0
M  V30 1973 H 173.624 3.79822 4.4834 0
M  V30 1974 H 175.148 3.20116 5.1996 0
M  V30 1975 H 176.562 4.60544 3.41426 0
M  V30 1976 H 174.959 5.23457 2.9345 0
M  V30 1977 H 176.029 4.53996 1.70339 0
M  V30 1978 N 177.372 -0.689602 1.41712 0
M  V30 1979 C 178.597 -1.48329 1.44959 0
M  V30 1980 C 179.022 -1.8801 0.0581283 0
M  V30 1981 O 178.38 -1.55026 -0.940035 0
M  V30 1982 C 178.428 -2.71835 2.36935 0
M  V30 1983 O 177.532 -3.69549 1.8305 0
M  V30 1984 H 176.873 -0.446199 0.491734 0
M  V30 1985 H 179.403 -0.847127 1.86239 0
M  V30 1986 H 179.413 -3.20076 2.53013 0
M  V30 1987 H 178.088 -2.42291 3.38035 0
M  V30 1988 H 176.665 -3.2851 1.76452 0
M  V30 1989 N 178.85 -1.27639 -0.924453 0
M  V30 1990 C 179.78 -1.13166 -2.04244 0
M  V30 1991 C 180.761 -0.032256 -1.70069 0
M  V30 1992 O 181.946 -0.207328 -1.9309 0
M  V30 1993 C 179.076 -0.781496 -3.38393 0
M  V30 1994 C 178.03 -1.83449 -3.86692 0
M  V30 1995 C 177.356 -1.33822 -5.17683 0
M  V30 1996 C 178.656 -3.23917 -4.09726 0
M  V30 1997 H 180.35 -2.06689 -2.1661 0
M  V30 1998 H 177.896 -0.995136 -1.04082 0
M  V30 1999 H 179.849 -0.667057 -4.16087 0
M  V30 2000 H 178.573 0.189439 -3.2605 0
M  V30 2001 H 177.232 -1.93789 -3.11193 0
M  V30 2002 H 176.88 -0.35665 -5.01734 0
M  V30 2003 H 176.58 -2.04224 -5.50968 0
M  V30 2004 H 178.104 -1.23679 -5.97943 0
M  V30 2005 H 179.518 -3.16559 -4.77978 0
M  V30 2006 H 177.915 -3.92059 -4.54324 0
M  V30 2007 H 178.985 -3.68729 -3.14908 0
M  V30 2008 N 180.328 1.1314 -1.09713 0
M  V30 2009 C 181.291 2.16831 -0.742751 0
M  V30 2010 C 182.291 1.59159 0.229129 0
M  V30 2011 O 183.481 1.74199 0.00693237 0
M  V30 2012 C 180.613 3.40756 -0.0989168 0
M  V30 2013 H 181.806 2.49695 -1.66109 0
M  V30 2014 H 179.359 1.2802 -0.896699 0
M  V30 2015 H 180.094 3.13485 0.830514 0
M  V30 2016 H 179.879 3.83888 -0.798265 0
M  V30 2017 H 181.369 4.17386 0.133524 0
M  V30 2018 N 181.806 0.884767 1.30421 0
M  V30 2019 C 183.055 0.499164 1.95426 0
M  V30 2020 C 183.368 -0.95645 1.70621 0
M  V30 2021 O 184.574 -1.44889 2.29607 0
M  V30 2022 C 183.03 0.84177 3.49917 0
M  V30 2023 C 182.638 2.31514 3.83543 0
M  V30 2024 C 184.382 0.525355 4.21237 0
M  V30 2025 C 182.289 2.59939 5.31212 0
M  V30 2026 H 181.219 0.182944 0.73147 0
M  V30 2027 H 183.87 1.07971 1.48373 0
M  V30 2028 H 182.252 0.190311 3.95542 0
M  V30 2029 H 183.426 3.0109 3.48829 0
M  V30 2030 H 181.741 2.59907 3.25326 0
M  V30 2031 H 184.338 0.714762 5.29901 0
M  V30 2032 H 184.681 -0.535222 4.12845 0
M  V30 2033 H 185.214 1.134 3.81294 0
M  V30 2034 H 181.953 3.64736 5.44654 0
M  V30 2035 H 181.473 1.94972 5.67227 0
M  V30 2036 H 183.152 2.45429 5.98643 0
M  V30 2037 N 183.284 -1.43765 0.645699 0
M  V30 2038 C 184.231 -2.30745 -0.0504648 0
M  V30 2039 C 185.201 -1.4432 -0.822241 0
M  V30 2040 O 186.386 -1.73202 -0.800358 0
M  V30 2041 C 183.526 -3.29802 -1.0161 0
M  V30 2042 C 182.639 -4.31326 -0.241219 0
M  V30 2043 C 181.774 -5.17469 -1.19998 0
M  V30 2044 C 180.813 -6.10691 -0.415094 0
M  V30 2045 N 179.95 -6.89483 -1.32506 0
M  V30 2046 H 184.79 -2.8973 0.697155 0
M  V30 2047 H 182.327 -1.42738 0.355563 0
M  V30 2048 H 184.285 -3.85734 -1.58949 0
M  V30 2049 H 182.915 -2.72483 -1.73069 0
M  V30 2050 H 181.967 -3.77749 0.448334 0
M  V30 2051 H 183.279 -4.9743 0.369437 0
M  V30 2052 H 182.433 -5.7799 -1.84424 0
M  V30 2053 H 181.172 -4.51473 -1.84455 0
M  V30 2054 H 180.177 -5.49265 0.242565 0
M  V30 2055 H 181.402 -6.78727 0.224966 0
M  V30 2056 H 179.348 -6.26142 -1.95657 0
M  V30 2057 H 179.265 -7.52081 -0.768783 0
M  V30 2058 H 180.533 -7.54516 -1.9577 0
M  V30 2059 N 184.763 -0.387143 -1.52771 0
M  V30 2060 C 185.993 0.195585 -2.05672 0
M  V30 2061 C 186.401 1.41241 -1.25887 0
M  V30 2062 O 185.744 1.81265 -0.298081 0
M  V30 2063 C 185.806 0.632327 -3.53895 0
M  V30 2064 C 185.47 -0.470739 -4.54569 0
M  V30 2065 C 186.467 -1.32746 -5.02667 0
M  V30 2066 C 184.152 -0.637151 -4.98243 0
M  V30 2067 C 186.146 -2.33574 -5.93061 0
M  V30 2068 C 183.833 -1.64877 -5.88438 0
M  V30 2069 C 184.831 -2.49649 -6.35739 0
M  V30 2070 O 184.519 -3.49082 -7.24153 0
M  V30 2071 H 184.251 0.033658 -0.675162 0
M  V30 2072 H 186.805 -0.550221 -1.97893 0
M  V30 2073 H 185.035 1.43008 -3.59285 0
M  V30 2074 H 186.724 1.14048 -3.89548 0
M  V30 2075 H 187.49 -1.21019 -4.69659 0
M  V30 2076 H 183.369 0.0129567 -4.60998 0
M  V30 2077 H 186.913 -2.99777 -6.29904 0
M  V30 2078 H 182.81 -1.76643 -6.2086 0
M  V30 2079 H 183.578 -3.45065 -7.42208 0
M  V30 2080 N 186.241 1.57166 -0.116904 0
M  V30 2081 C 187.481 1.97008 0.544715 0
M  V30 2082 C 187.845 0.998713 1.63981 0
M  V30 2083 O 189.046 1.28644 2.36018 0
M  V30 2084 C 187.317 3.41145 1.06559 0
M  V30 2085 S 188.876 4.02998 1.73603 0
M  V30 2086 H 185.694 0.688587 0.177112 0
M  V30 2087 H 188.296 1.94459 -0.201487 0
M  V30 2088 H 187 4.09592 0.257374 0
M  V30 2089 H 186.531 3.4734 1.84712 0
M  V30 2090 H 188.546 3.93585 3.02168 0
M  V30 2091 N 187.719 -0.156864 1.56817 0
M  V30 2092 C 188.669 -1.19891 1.93934 0
M  V30 2093 C 189.653 -1.39061 0.809372 0
M  V30 2094 O 190.845 -1.40789 1.07273 0
M  V30 2095 C 187.974 -2.53493 2.31508 0
M  V30 2096 C 187.06 -2.37957 3.51052 0
M  V30 2097 N 187.451 -1.92158 4.67877 0
M  V30 2098 C 185.749 -2.68739 3.55943 0
M  V30 2099 C 186.45 -1.8943 5.49992 0
M  V30 2100 N 185.426 -2.32375 4.91429 0
M  V30 2101 H 189.228 -0.836746 2.81737 0
M  V30 2102 H 186.742 -0.365012 1.58245 0
M  V30 2103 H 188.739 -3.28811 2.56299 0
M  V30 2104 H 187.399 -2.905 1.45051 0
M  V30 2105 H 188.41 -1.62274 4.91821 0
M  V30 2106 H 185.087 -3.09687 2.80001 0
M  V30 2107 H 186.477 -1.55596 6.53636 0
M  V30 2108 N 189.197 -1.51736 -0.425897 0
M  V30 2109 C 190.474 -1.55519 -1.1863 0
M  V30 2110 C 190.854 -0.326219 -2.08564 0
M  V30 2111 O 190.202 0.688012 -2.17896 0
M  V30 2112 C 190.412 -2.87521 -1.9782 0
M  V30 2113 C 191.76 -3.39899 -2.54468 0
M  V30 2114 O 192.784 -2.89148 -2.08019 0
M  V30 2115 O 191.643 -4.2848 -3.39215 0
M  V30 2116 H 188.737 -0.625739 -0.540721 0
M  V30 2117 H 191.283 -1.64055 -0.434038 0
M  V30 2118 H 190.055 -3.68422 -1.31836 0
M  V30 2119 H 189.678 -2.822 -2.80088 0
M  V30 2120 N 190.675 0.682077 -1.42076 0
M  V30 2121 C 191.605 1.80796 -1.47767 0
M  V30 2122 C 192.586 1.6677 -0.334954 0
M  V30 2123 O 193.771 1.863 -0.548264 0
M  V30 2124 C 190.901 3.19038 -1.37229 0
M  V30 2125 C 189.855 3.47789 -2.49453 0
M  V30 2126 C 189.181 4.8553 -2.23975 0
M  V30 2127 C 190.481 3.45411 -3.91776 0
M  V30 2128 H 192.175 1.7629 -2.41997 0
M  V30 2129 H 189.721 0.846721 -1.16476 0
M  V30 2130 H 191.674 3.97528 -1.39821 0
M  V30 2131 H 190.398 3.24204 -0.394907 0
M  V30 2132 H 189.057 2.71657 -2.46166 0
M  V30 2133 H 188.705 4.87337 -1.24547 0
M  V30 2134 H 188.405 5.0573 -2.99184 0
M  V30 2135 H 189.929 5.66312 -2.28304 0
M  V30 2136 H 191.343 4.13882 -3.96705 0
M  V30 2137 H 189.74 3.77145 -4.66778 0
M  V30 2138 H 190.81 2.44122 -4.18966 0
M  V30 2139 N 192.153 1.28127 0.917671 0
M  V30 2140 C 193.43 1.05761 1.64542 0
M  V30 2141 C 193.81 -0.404344 2.07191 0
M  V30 2142 O 193.158 -1.38963 1.81388 0
M  V30 2143 C 193.368 2.02857 2.83989 0
M  V30 2144 C 194.716 2.32786 3.551 0
M  V30 2145 O 195.74 2.0091 2.94132 0
M  V30 2146 O 194.599 2.87169 4.64969 0
M  V30 2147 H 191.693 0.403916 0.721652 0
M  V30 2148 H 194.239 1.39431 0.967322 0
M  V30 2149 H 193.011 3.01407 2.49538 0
M  V30 2150 H 192.634 1.69809 3.59514 0
M  V30 2151 N 193.631 -1.12557 1.10312 0
M  V30 2152 C 194.877 -1.84311 0.846011 0
M  V30 2153 C 195.21 -1.83805 -0.626859 0
M  V30 2154 O 194.485 -1.28268 -1.46211 0
M  V30 2155 C 194.768 -3.32048 1.39341 0
M  V30 2156 C 194.621 -3.41016 2.93305 0
M  V30 2157 C 195.94 -4.27764 1.03468 0
M  V30 2158 H 193.059 -0.669192 0.30879 0
M  V30 2159 H 195.701 -1.32057 1.36605 0
M  V30 2160 H 193.851 -3.76678 0.951087 0
M  V30 2161 H 195.523 -3.05031 3.46055 0
M  V30 2162 H 193.766 -2.81603 3.29973 0
M  V30 2163 H 194.437 -4.44948 3.26689 0
M  V30 2164 H 196.913 -3.91253 1.41633 0
M  V30 2165 H 195.789 -5.29549 1.44463 0
M  V30 2166 H 196.05 -4.42064 -0.0560404 0
M  V30 2167 N 195.109 -0.891671 -1.2995 0
M  V30 2168 C 196.355 -0.514261 -1.96171 0
M  V30 2169 C 196.688 0.935506 -1.70182 0
M  V30 2170 O 195.963 1.66204 -1.01028 0
M  V30 2171 C 196.246 -0.797719 -3.51153 0
M  V30 2172 C 196.099 -2.2986 -3.86632 0
M  V30 2173 C 197.418 -0.278749 -4.39216 0
M  V30 2174 H 194.537 -0.188314 -0.712535 0
M  V30 2175 H 197.179 -1.11689 -1.53706 0
M  V30 2176 H 195.329 -0.284826 -3.87455 0
M  V30 2177 H 197.001 -2.88042 -3.60319 0
M  V30 2178 H 195.244 -2.76257 -3.34462 0
M  V30 2179 H 195.915 -2.44753 -4.94773 0
M  V30 2180 H 198.391 -0.717825 -4.09862 0
M  V30 2181 H 197.267 -0.506353 -5.46559 0
M  V30 2182 H 197.528 0.820266 -4.34424 0
M  V30 2183 N 196.587 1.43421 -0.653314 0
M  V30 2184 C 197.537 2.2792 0.060558 0
M  V30 2185 C 198.521 1.39906 0.794677 0
M  V30 2186 O 199.713 1.63536 0.677128 0
M  V30 2187 C 196.842 3.27603 1.0262 0
M  V30 2188 C 195.928 4.23104 0.290551 0
M  V30 2189 N 196.319 5.01031 -0.692967 0
M  V30 2190 C 194.617 4.42816 0.531984 0
M  V30 2191 C 195.318 5.70626 -1.12963 0
M  V30 2192 N 194.294 5.41617 -0.463867 0
M  V30 2193 H 198.096 2.85585 -0.694143 0
M  V30 2194 H 195.61 1.55126 -0.480602 0
M  V30 2195 H 197.607 3.86918 1.55242 0
M  V30 2196 H 196.267 2.71499 1.78096 0
M  V30 2197 H 197.278 5.0669 -1.07169 0
M  V30 2198 H 193.955 3.97782 1.26791 0
M  V30 2199 H 195.345 6.4318 -1.94343 0
M  V30 2200 N 198.065 0.39524 1.52563 0
M  V30 2201 C 199.481 0.0454682 1.59535 0
M  V30 2202 C 199.681 -1.44056 1.4089 0
M  V30 2203 O 198.737 -2.20579 1.22888 0
M  V30 2204 C 200.05 0.527963 2.96029 0
M  V30 2205 C 201.598 0.484733 3.09224 0
M  V30 2206 C 202.073 0.943512 4.48176 0
M  V30 2207 N 203.564 0.899765 4.54377 0
M  V30 2208 C 204.299 1.22609 5.60138 0
M  V30 2209 N 203.795 1.62319 6.73516 0
M  V30 2210 N 205.588 1.14696 5.50274 0
M  V30 2211 H 197.739 1.36261 1.62931 0
M  V30 2212 H 200.002 0.558887 0.765735 0
M  V30 2213 H 199.708 1.56607 3.14908 0
M  V30 2214 H 199.582 -0.0698056 3.77135 0
M  V30 2215 H 201.969 -0.544298 2.90037 0
M  V30 2216 H 202.05 1.11838 2.30056 0
M  V30 2217 H 201.694 1.9708 4.68104 0
M  V30 2218 H 201.624 0.286817 5.25818 0
M  V30 2219 H 204.115 0.607632 3.72983 0
M  V30 2220 H 204.428 1.85567 7.5019 0
M  V30 2221 H 202.773 1.66211 6.74833 0
M  V30 2222 H 205.964 0.835701 4.6058 0
M  V30 2223 H 206.137 1.40459 6.32594 0
M  V30 2224 N 199.544 -1.57102 0.125237 0
M  V30 2225 C 200.821 -1.86953 -0.575142 0
M  V30 2226 C 201.201 -1.02749 -1.84407 0
M  V30 2227 O 200.549 -0.108144 -2.28244 0
M  V30 2228 C 200.759 -3.38198 -0.861583 0
M  V30 2229 C 202.107 -4.06937 -1.21192 0
M  V30 2230 O 203.131 -3.43252 -0.951645 0
M  V30 2231 O 201.99 -5.19364 -1.70068 0
M  V30 2232 H 199.084 -0.774147 -0.290906 0
M  V30 2233 H 201.63 -1.68942 0.160211 0
M  V30 2234 H 200.402 -3.91282 0.0373647 0
M  V30 2235 H 200.025 -3.61661 -1.65188 0
M  V30 2236 N 201.022 0.148545 -1.56898 0
M  V30 2237 C 201.952 1.18524 -2.01182 0
M  V30 2238 C 202.933 1.4489 -0.891123 0
M  V30 2239 O 204.118 1.55836 -1.15882 0
M  V30 2240 C 201.248 2.51879 -2.39112 0
M  V30 2241 C 200.202 2.40038 -3.54353 0
M  V30 2242 C 199.528 3.78089 -3.78091 0
M  V30 2243 C 200.828 1.88577 -4.87069 0
M  V30 2244 H 202.522 0.817029 -2.88036 0
M  V30 2245 H 200.068 0.391575 -1.38574 0
M  V30 2246 H 202.021 3.24627 -2.68692 0
M  V30 2247 H 200.745 2.90532 -1.49193 0
M  V30 2248 H 199.404 1.69742 -3.24936 0
M  V30 2249 H 199.052 4.14175 -2.85426 0
M  V30 2250 H 198.752 3.71028 -4.55645 0
M  V30 2251 H 200.276 4.52387 -4.10095 0
M  V30 2252 H 201.69 2.51117 -5.15377 0
M  V30 2253 H 200.087 1.9241 -5.68417 0
M  V30 2254 H 201.157 0.84136 -4.77545 0
M  V30 2255 N 202.5 1.5196 0.417844 0
M  V30 2256 C 203.447 1.74678 1.50852 0
M  V30 2257 C 204.417 0.588947 1.55308 0
M  V30 2258 O 205.602 0.825544 1.72016 0
M  V30 2259 C 202.742 1.89544 2.88387 0
M  V30 2260 C 201.855 3.17166 2.93309 0
M  V30 2261 C 200.99 3.22513 4.22088 0
M  V30 2262 C 200.029 4.44372 4.20951 0
M  V30 2263 N 199.166 4.47161 5.41287 0
M  V30 2264 H 204.006 2.67768 1.30783 0
M  V30 2265 H 201.543 1.32689 0.63498 0
M  V30 2266 H 203.501 1.96146 3.68216 0
M  V30 2267 H 202.131 0.998424 3.06971 0
M  V30 2268 H 201.183 3.19778 2.06024 0
M  V30 2269 H 202.495 4.07021 2.88332 0
M  V30 2270 H 201.649 3.28139 5.10303 0
M  V30 2271 H 200.388 2.30581 4.29748 0
M  V30 2272 H 199.393 4.38902 3.31127 0
M  V30 2273 H 200.618 5.3759 4.14938 0
M  V30 2274 H 198.564 3.58108 5.49632 0
M  V30 2275 H 198.481 5.3085 5.3827 0
M  V30 2276 H 199.749 4.57005 6.3148 0
M  V30 2277 N 203.978 -0.674533 1.42435 0
M  V30 2278 C 205.218 -1.4466 1.44405 0
M  V30 2279 C 205.582 -1.91911 0.0585784 0
M  V30 2280 O 206.783 -2.68759 -0.0469991 0
M  V30 2281 C 205.054 -2.61136 2.44013 0
M  V30 2282 S 206.613 -3.49981 2.64687 0
M  V30 2283 H 203.431 -0.494074 0.511284 0
M  V30 2284 H 206.033 -0.785162 1.7904 0
M  V30 2285 H 204.737 -2.24662 3.43446 0
M  V30 2286 H 204.268 -3.32153 2.10803 0
M  V30 2287 H 206.283 -4.57124 1.93007 0
M  V30 2288 N 205.456 -1.28612 -0.910864 0
M  V30 2289 C 206.733 -1.06632 -1.63979 0
M  V30 2290 C 207.113 0.393351 -2.07403 0
M  V30 2291 O 206.461 1.37999 -1.82122 0
M  V30 2292 C 206.671 -2.0436 -2.8291 0
M  V30 2293 C 208.019 -2.34666 -3.5386 0
M  V30 2294 O 209.043 -2.02467 -2.93062 0
M  V30 2295 O 207.902 -2.89631 -4.63439 0
M  V30 2296 H 204.996 -0.407737 -0.7195 0
M  V30 2297 H 207.542 -1.39942 -0.959914 0
M  V30 2298 H 206.314 -3.02727 -2.47936 0
M  V30 2299 H 205.937 -1.71714 -3.58609 0
M  V30 2300 N 206.934 1.1197 -1.10907 0
M  V30 2301 C 207.882 2.19927 -0.757303 0
M  V30 2302 C 208.876 1.67564 0.248747 0
M  V30 2303 O 210.082 1.79672 0.108605 0
M  V30 2304 H 206.457 0.716925 -0.226987 0
M  V30 2305 H 208.428 2.46847 -1.67658 0
M  V30 2306 C 207.177 3.47061 -0.210671 0
M  V30 2307 H 206.5 3.87703 -0.976049 0
M  V30 2308 H 207.94 4.24 -0.0026584 0
M  V30 2309 C 206.399 3.19864 1.05777 0
M  V30 2310 O 206.929 3.40049 2.13845 0
M  V30 2311 N 205.135 2.73636 0.978349 0
M  V30 2312 H 204.682 2.5741 0.0988246 0
M  V30 2313 H 204.64 2.55815 1.82773 0
M  V30 2314 N 208.412 0.89855 1.29475 0
M  V30 2315 C 209.342 0.39201 2.30186 0
M  V30 2316 C 210.323 -0.532359 1.61555 0
M  V30 2317 O 211.508 -0.443331 1.89072 0
M  V30 2318 C 208.638 -0.382353 3.45189 0
M  V30 2319 C 207.592 0.451483 4.25612 0
M  V30 2320 C 206.918 -0.450307 5.328 0
M  V30 2321 C 208.218 1.70079 4.93832 0
M  V30 2322 H 209.912 1.23362 2.72804 0
M  V30 2323 H 207.458 0.594638 1.31149 0
M  V30 2324 H 209.411 -0.747451 4.14718 0
M  V30 2325 H 208.135 -1.25774 3.01411 0
M  V30 2326 H 206.794 0.798897 3.57789 0
M  V30 2327 H 206.442 -1.32379 4.85268 0
M  V30 2328 H 206.142 0.103902 5.87508 0
M  V30 2329 H 207.666 -0.811623 6.05182 0
M  V30 2330 H 209.08 1.40549 5.55805 0
M  V30 2331 H 207.477 2.19623 5.58467 0
M  V30 2332 H 208.547 2.43744 4.19186 0
M  V30 2333 N 209.89 -1.43072 0.660911 0
M  V30 2334 C 210.82 -2.33497 -0.0122829 0
M  V30 2335 C 211.801 -1.49903 -0.803925 0
M  V30 2336 O 212.986 -1.78546 -0.763864 0
M  V30 2337 C 210.116 -3.33363 -0.973994 0
M  V30 2338 C 209.07 -4.27003 -0.291928 0
M  V30 2339 C 208.396 -5.16967 -1.36562 0
M  V30 2340 C 209.696 -5.15816 0.820462 0
M  V30 2341 H 211.39 -2.90038 0.742873 0
M  V30 2342 H 208.936 -1.39461 0.358688 0
M  V30 2343 H 210.889 -3.95524 -1.45392 0
M  V30 2344 H 209.613 -2.75095 -1.7604 0
M  V30 2345 H 208.272 -3.66217 0.167623 0
M  V30 2346 H 207.92 -4.55034 -2.14366 0
M  V30 2347 H 207.62 -5.80441 -0.914454 0
M  V30 2348 H 209.144 -5.82003 -1.84675 0
M  V30 2349 H 210.558 -5.71742 0.422366 0
M  V30 2350 H 208.955 -5.8805 1.19656 0
M  V30 2351 H 210.025 -4.55045 1.67518 0
M  V30 2352 N 211.368 -0.403325 -1.52352 0
M  V30 2353 C 212.298 0.416205 -2.29761 0
M  V30 2354 C 213.279 1.05123 -1.33728 0
M  V30 2355 O 214.464 1.06134 -1.62632 0
M  V30 2356 C 211.594 1.53624 -3.11475 0
M  V30 2357 C 210.548 1.02653 -4.15507 0
M  V30 2358 C 209.874 2.23971 -4.85532 0
M  V30 2359 C 211.174 0.08463 -5.22231 0
M  V30 2360 H 212.868 -0.229701 -2.98518 0
M  V30 2361 H 210.414 -0.111913 -1.43564 0
M  V30 2362 H 212.367 2.1165 -3.64393 0
M  V30 2363 H 211.091 2.20994 -2.40477 0
M  V30 2364 H 209.75 0.46871 -3.63591 0
M  V30 2365 H 209.398 2.89883 -4.11068 0
M  V30 2366 H 209.098 1.90521 -5.55856 0
M  V30 2367 H 210.622 2.82614 -5.41259 0
M  V30 2368 H 212.036 0.573509 -5.70424 0
M  V30 2369 H 210.433 -0.160783 -5.99885 0
M  V30 2370 H 211.503 -0.86237 -4.7717 0
M  V30 2371 N 212.846 1.57033 -0.133567 0
M  V30 2372 C 214.123 1.87256 0.56522 0
M  V30 2373 C 214.503 1.03726 1.83859 0
M  V30 2374 O 213.851 0.120247 2.28183 0
M  V30 2375 C 214.061 3.3865 0.843636 0
M  V30 2376 C 215.409 4.07574 1.19032 0
M  V30 2377 O 216.433 3.43752 0.933429 0
M  V30 2378 O 215.292 5.20259 1.67312 0
M  V30 2379 H 212.386 0.775678 0.286796 0
M  V30 2380 H 214.932 1.68855 -0.169168 0
M  V30 2381 H 213.704 3.91257 -0.0581149 0
M  V30 2382 H 213.327 3.62532 1.63268 0
M  V30 2383 N 214.325 -0.140222 1.56975 0
M  V30 2384 C 215.272 -1.17292 1.98774 0
M  V30 2385 C 216.242 -1.4232 0.856408 0
M  V30 2386 O 217.427 -1.54541 1.119 0
M  V30 2387 C 214.567 -2.49973 2.37923 0
M  V30 2388 C 213.68 -2.32062 3.64378 0
M  V30 2389 C 212.815 -3.57825 3.926 0
M  V30 2390 C 211.854 -3.3498 5.12303 0
M  V30 2391 N 210.991 -4.52891 5.36502 0
M  V30 2392 H 215.831 -0.809472 2.86795 0
M  V30 2393 H 213.368 -0.388237 1.41884 0
M  V30 2394 H 215.326 -3.27346 2.58652 0
M  V30 2395 H 213.956 -2.84252 1.52972 0
M  V30 2396 H 213.008 -1.45711 3.51387 0
M  V30 2397 H 214.32 -2.11145 4.51906 0
M  V30 2398 H 213.474 -4.43624 4.13863 0
M  V30 2399 H 212.213 -3.81753 3.03506 0
M  V30 2400 H 211.218 -2.4757 4.90906 0
M  V30 2401 H 212.443 -3.12444 6.02956 0
M  V30 2402 H 210.389 -4.76979 4.50363 0
M  V30 2403 H 210.306 -4.35001 6.18312 0
M  V30 2404 H 211.574 -5.39884 5.62268 0
M  V30 2405 N 215.803 -1.52179 -0.40978 0
M  V30 2406 C 217.08 -1.56769 -1.16974 0
M  V30 2407 C 217.46 -0.348322 -2.08206 0
M  V30 2408 O 216.808 0.664862 -2.18613 0
M  V30 2409 C 217.018 -2.89603 -1.9476 0
M  V30 2410 C 218.366 -3.42579 -2.50849 0
M  V30 2411 O 219.39 -2.91338 -2.04941 0
M  V30 2412 O 218.249 -4.32054 -3.34652 0
M  V30 2413 H 215.343 -0.631439 -0.534054 0
M  V30 2414 H 217.889 -1.64507 -0.416613 0
M  V30 2415 H 216.661 -3.698 -1.27921 0
M  V30 2416 H 216.284 -2.85155 -2.77079 0
M  V30 2417 N 217.281 0.66697 -1.42791 0
M  V30 2418 C 218.528 1.42699 -1.43678 0
M  V30 2419 C 218.856 1.94419 -0.0560425 0
M  V30 2420 O 218.111 1.7182 0.936831 0
M  V30 2421 C 218.41 2.6349 -2.4147 0
M  V30 2422 C 218.076 2.30267 -3.8767 0
M  V30 2423 C 216.738 2.20918 -4.27491 0
M  V30 2424 C 219.09 2.03435 -4.79858 0
M  V30 2425 C 216.418 1.82873 -5.57471 0
M  V30 2426 C 218.77 1.66892 -6.10188 0
M  V30 2427 C 217.434 1.56058 -6.49001 0
M  V30 2428 H 216.704 0.522171 -0.525755 0
M  V30 2429 H 219.351 0.759785 -1.75783 0
M  V30 2430 H 217.656 3.35279 -2.0272 0
M  V30 2431 H 219.353 3.21684 -2.39417 0
M  V30 2432 H 215.943 2.38449 -3.56146 0
M  V30 2433 H 220.127 2.09586 -4.49875 0
M  V30 2434 H 215.383 1.7306 -5.86396 0
M  V30 2435 H 219.557 1.45157 -6.81104 0
M  V30 2436 H 217.184 1.26348 -7.49627 0
M  V30 2437 N 218.759 1.29093 0.90403 0
M  V30 2438 C 219.707 1.13727 2.02901 0
M  V30 2439 C 220.701 0.0539853 1.69314 0
M  V30 2440 O 221.907 0.213469 1.7873 0
M  V30 2441 H 218.282 0.35117 0.664969 0
M  V30 2442 H 220.253 2.08982 2.13001 0
M  V30 2443 C 219.002 0.826066 3.37745 0
M  V30 2444 H 218.325 1.65164 3.64089 0
M  V30 2445 H 219.765 0.758559 4.17159 0
M  V30 2446 C 218.224 -0.470541 3.33598 0
M  V30 2447 O 218.754 -1.49792 3.72727 0
M  V30 2448 N 216.96 -0.474812 2.86695 0
M  V30 2449 H 216.507 0.361692 2.55048 0
M  V30 2450 H 216.465 -1.34236 2.84303 0
M  V30 2451 N 220.237 -1.11381 1.11499 0
M  V30 2452 C 221.486 -1.82494 0.858993 0
M  V30 2453 C 221.799 -1.85605 -0.617278 0
M  V30 2454 O 223.005 -2.52824 -0.989552 0
M  V30 2455 C 221.461 -3.27745 1.48699 0
M  V30 2456 C 221.069 -3.32961 2.99735 0
M  V30 2457 C 222.813 -4.03754 1.31085 0
M  V30 2458 C 220.72 -4.72612 3.55516 0
M  V30 2459 H 219.65 -0.683802 0.317696 0
M  V30 2460 H 222.301 -1.25331 1.34031 0
M  V30 2461 H 220.683 -3.84844 0.933339 0
M  V30 2462 H 221.857 -2.85741 3.61509 0
M  V30 2463 H 220.172 -2.70433 3.16631 0
M  V30 2464 H 222.769 -5.06891 1.70192 0
M  V30 2465 H 223.112 -4.15527 0.253496 0
M  V30 2466 H 223.645 -3.53043 1.83318 0
M  V30 2467 H 220.384 -4.66036 4.60967 0
M  V30 2468 H 219.904 -5.2024 2.98513 0
M  V30 2469 H 221.583 -5.4157 3.53992 0
M  V30 2470 N 221.715 -0.905404 -1.28997 0
M  V30 2471 C 222.662 -0.385892 -2.27551 0
M  V30 2472 C 223.632 0.535113 -1.57244 0
M  V30 2473 O 224.817 0.459119 -1.85194 0
M  V30 2474 C 221.957 0.375461 -3.43051 0
M  V30 2475 C 221.07 -0.577092 -4.28128 0
M  V30 2476 C 220.205 0.201879 -5.30816 0
M  V30 2477 C 219.244 -0.744829 -6.07551 0
M  V30 2478 N 218.381 9.42587e-05 -7.021 0
M  V30 2479 H 223.221 -1.23139 -2.71368 0
M  V30 2480 H 220.758 -0.618542 -1.33463 0
M  V30 2481 H 222.716 0.832992 -4.088 0
M  V30 2482 H 221.346 1.18537 -3.00248 0
M  V30 2483 H 220.398 -1.15315 -3.62501 0
M  V30 2484 H 221.71 -1.30152 -4.8152 0
M  V30 2485 H 220.864 0.720351 -6.02408 0
M  V30 2486 H 219.603 0.959413 -4.7817 0
M  V30 2487 H 218.608 -1.27475 -5.34818 0
M  V30 2488 H 219.833 -1.50178 -6.62286 0
M  V30 2489 H 217.779 0.739791 -6.51815 0
M  V30 2490 H 217.696 -0.664321 -7.53076 0
M  V30 2491 H 218.964 0.498644 -7.77903 0
M  V30 2492 N 223.193 1.4272 -0.668489 0
M  V30 2493 C 224.123 2.335 -0.000100175 0
M  V30 2494 C 225.104 1.50328 0.795964 0
M  V30 2495 O 226.289 1.78949 0.754385 0
M  V30 2496 C 223.419 3.33874 0.956302 0
M  V30 2497 C 222.373 4.27152 0.269278 0
M  V30 2498 C 221.699 5.17684 1.33818 0
M  V30 2499 C 222.999 5.15373 -0.847805 0
M  V30 2500 H 224.693 2.89639 -0.758244 0
M  V30 2501 H 222.239 1.39269 -0.366079 0
M  V30 2502 H 224.192 3.9629 1.43292 0
M  V30 2503 H 222.916 2.76025 1.74579 0
M  V30 2504 H 221.575 3.66123 -0.187042 0
M  V30 2505 H 221.223 4.56165 2.1195 0
M  V30 2506 H 220.923 5.80918 0.883659 0
M  V30 2507 H 222.447 5.82974 1.81586 0
M  V30 2508 H 223.861 5.7151 -0.452681 0
M  V30 2509 H 222.258 5.87407 -1.22773 0
M  V30 2510 H 223.328 4.5415 -1.69929 0
M  V30 2511 N 224.671 0.411399 1.52136 0
M  V30 2512 C 225.896 -0.165538 2.06738 0
M  V30 2513 C 226.321 -1.379 1.27926 0
M  V30 2514 O 225.679 -1.78628 0.310114 0
M  V30 2515 C 225.727 -0.492124 3.57226 0
M  V30 2516 O 224.831 -1.58276 3.80818 0
M  V30 2517 H 224.172 -0.0132132 0.663869 0
M  V30 2518 H 226.702 0.585253 1.96051 0
M  V30 2519 H 226.712 -0.750104 4.01045 0
M  V30 2520 H 225.387 0.394922 4.14021 0
M  V30 2521 H 223.964 -1.31677 3.48877 0
M  V30 2522 N 226.149 -1.5696 0.141893 0
M  V30 2523 C 227.426 -1.87553 -0.555281 0
M  V30 2524 C 227.806 -1.04699 -1.83306 0
M  V30 2525 O 227.154 -0.132346 -2.28116 0
M  V30 2526 C 227.364 -3.39093 -0.825664 0
M  V30 2527 C 228.712 -4.08199 -1.16869 0
M  V30 2528 O 229.736 -3.44242 -0.915185 0
M  V30 2529 O 228.595 -5.21139 -1.6455 0
M  V30 2530 H 225.689 -0.777188 -0.282679 0
M  V30 2531 H 228.235 -1.68763 0.17812 0
M  V30 2532 H 227.007 -3.91221 0.0788633 0
M  V30 2533 H 226.63 -3.63393 -1.61343 0
M  V30 2534 N 227.627 0.131896 -1.57047 0
M  V30 2535 C 228.874 0.841932 -1.84168 0
M  V30 2536 C 229.202 1.8048 -0.725066 0
M  V30 2537 O 228.457 1.93618 0.284692 0
M  V30 2538 C 228.756 1.63703 -3.17704 0
M  V30 2539 C 228.422 0.81961 -4.43388 0
M  V30 2540 C 227.084 0.594148 -4.77518 0
M  V30 2541 C 229.436 0.248977 -5.20605 0
M  V30 2542 C 226.764 -0.212409 -5.86315 0
M  V30 2543 C 229.116 -0.544701 -6.30251 0
M  V30 2544 C 227.78 -0.780599 -6.6292 0
M  V30 2545 H 227.05 0.308085 -0.673917 0
M  V30 2546 H 229.697 0.104867 -1.91213 0
M  V30 2547 H 228.002 2.44464 -3.06177 0
M  V30 2548 H 229.699 2.19015 -3.35907 0
M  V30 2549 H 226.289 1.00542 -4.16641 0
M  V30 2550 H 230.473 0.410408 -4.946 0
M  V30 2551 H 225.729 -0.404524 -6.1006 0
M  V30 2552 H 229.903 -0.993922 -6.89271 0
M  V30 2553 H 227.53 -1.40742 -7.47058 0
M  V30 2554 N 229.106 1.52395 0.401703 0
M  V30 2555 C 230.331 1.70972 1.17403 0
M  V30 2556 C 230.756 0.421615 1.83314 0
M  V30 2557 O 230.114 -0.621564 1.70312 0
M  V30 2558 C 230.162 2.85151 2.20728 0
M  V30 2559 O 229.266 2.51238 3.27037 0
M  V30 2560 H 228.607 0.568927 0.342372 0
M  V30 2561 H 231.137 1.99131 0.469891 0
M  V30 2562 H 231.147 3.10279 2.64936 0
M  V30 2563 H 229.822 3.78603 1.7214 0
M  V30 2564 H 228.399 2.36808 2.88057 0
M  V30 2565 N 230.584 -0.659388 1.43143 0
M  V30 2566 C 231.831 -1.41935 1.44433 0
M  V30 2567 C 232.159 -1.94387 0.0663522 0
M  V30 2568 O 231.414 -1.72314 -0.927706 0
M  V30 2569 C 231.713 -2.62206 2.42864 0
M  V30 2570 C 231.379 -2.28208 3.88886 0
M  V30 2571 C 230.041 -2.18647 4.28657 0
M  V30 2572 C 232.393 -2.00887 4.8093 0
M  V30 2573 C 229.721 -1.79914 5.58433 0
M  V30 2574 C 232.073 -1.63653 6.11065 0
M  V30 2575 C 230.737 -1.52614 6.49819 0
M  V30 2576 H 230.007 -0.519376 0.528517 0
M  V30 2577 H 232.654 -0.750453 1.76183 0
M  V30 2578 H 230.959 -3.34199 2.04495 0
M  V30 2579 H 232.656 -3.2041 2.41119 0
M  V30 2580 H 229.246 -2.36557 3.57406 0
M  V30 2581 H 233.43 -2.07198 4.5098 0
M  V30 2582 H 228.686 -1.69948 5.87305 0
M  V30 2583 H 232.86 -1.41543 6.81864 0
M  V30 2584 H 230.487 -1.22371 7.50286 0
M  V30 2585 N 232.062 -1.29571 -0.897171 0
M  V30 2586 C 233.287 -1.20705 -1.68656 0
M  V30 2587 C 233.712 0.228582 -1.86706 0
M  V30 2588 O 233.07 1.16494 -1.3892 0
M  V30 2589 C 233.118 -1.9282 -3.04717 0
M  V30 2590 O 232.222 -1.24697 -3.93096 0
M  V30 2591 H 231.563 -0.418126 -0.515816 0
M  V30 2592 H 234.093 -1.71183 -1.12061 0
M  V30 2593 H 234.103 -2.01372 -3.54843 0
M  V30 2594 H 232.778 -2.97239 -2.90899 0
M  V30 2595 H 231.355 -1.2442 -3.51531 0
M  V30 2596 N 233.54 1.10788 -1.12088 0
M  V30 2597 C 234.487 2.17025 -0.785407 0
M  V30 2598 C 235.457 1.64265 0.246191 0
M  V30 2599 O 236.642 1.90412 0.121584 0
M  V30 2600 C 233.782 3.44249 -0.242177 0
M  V30 2601 C 232.895 4.1098 -1.33115 0
M  V30 2602 C 232.03 5.25911 -0.747741 0
M  V30 2603 C 231.069 5.84538 -1.81609 0
M  V30 2604 N 230.206 6.90853 -1.25167 0
M  V30 2605 H 235.046 2.45066 -1.69548 0
M  V30 2606 H 232.583 1.20297 -0.846582 0
M  V30 2607 H 234.541 4.17101 0.0908026 0
M  V30 2608 H 233.171 3.16571 0.631072 0
M  V30 2609 H 232.223 3.36133 -1.78097 0
M  V30 2610 H 233.535 4.50601 -2.13917 0
M  V30 2611 H 232.689 6.056 -0.365216 0
M  V30 2612 H 231.428 4.87614 0.0915188 0
M  V30 2613 H 230.433 5.03522 -2.20785 0
M  V30 2614 H 231.658 6.249 -2.6585 0
M  V30 2615 H 229.604 6.54562 -0.434174 0
M  V30 2616 H 229.521 7.29166 -1.99633 0
M  V30 2617 H 230.789 7.7433 -0.896259 0
M  V30 2618 N 235.018 0.912232 1.28515 0
M  V30 2619 C 236.434 0.610159 1.47476 0
M  V30 2620 C 236.634 -0.844955 1.82928 0
M  V30 2621 O 235.69 -1.62416 1.93332 0
M  V30 2622 C 237.003 1.54675 2.57868 0
M  V30 2623 C 238.551 1.55331 2.71738 0
M  V30 2624 C 239.026 2.47649 3.85272 0
M  V30 2625 N 240.517 2.45767 3.92623 0
M  V30 2626 C 241.252 3.13896 4.79851 0
M  V30 2627 N 240.748 3.9135 5.71679 0
M  V30 2628 N 242.541 3.02991 4.73448 0
M  V30 2629 H 234.692 1.85318 1.03783 0
M  V30 2630 H 236.955 0.794777 0.516753 0
M  V30 2631 H 236.661 2.5841 2.38574 0
M  V30 2632 H 236.535 1.27671 3.54937 0
M  V30 2633 H 238.922 0.52335 2.90422 0
M  V30 2634 H 239.003 1.86378 1.75205 0
M  V30 2635 H 238.647 3.50745 3.67342 0
M  V30 2636 H 238.577 2.13904 4.81199 0
M  V30 2637 H 241.068 1.89503 3.26951 0
M  V30 2638 H 241.381 4.40359 6.35062 0
M  V30 2639 H 239.726 3.95455 5.71524 0
M  V30 2640 H 242.917 2.41987 4.007 0
M  V30 2641 H 243.09 3.5636 5.41213 0
M  V30 2642 N 236.496 -1.42363 0.676048 0
M  V30 2643 C 237.736 -2.03392 0.20273 0
M  V30 2644 C 238.1 -1.52306 -1.16906 0
M  V30 2645 O 239.301 -2.05129 -1.73711 0
M  V30 2646 C 237.572 -3.56614 0.236947 0
M  V30 2647 S 239.131 -4.38489 -0.165186 0
M  V30 2648 H 235.949 -0.70611 0.0832418 0
M  V30 2649 H 238.551 -1.74093 0.88948 0
M  V30 2650 H 237.255 -3.91293 1.23767 0
M  V30 2651 H 236.786 -3.90587 -0.469596 0
M  V30 2652 H 238.801 -4.76093 -1.39822 0
M  V30 2653 N 237.974 -0.419461 -1.51915 0
M  V30 2654 C 238.904 0.391813 -2.30189 0
M  V30 2655 C 239.885 1.03699 -1.34836 0
M  V30 2656 O 241.07 1.04403 -1.63748 0
M  V30 2657 C 238.2 1.50312 -3.13087 0
M  V30 2658 C 237.154 0.9824 -4.16573 0
M  V30 2659 C 236.48 2.18809 -4.8788 0
M  V30 2660 C 237.78 0.0292356 -5.22292 0
M  V30 2661 H 239.474 -0.26135 -2.98257 0
M  V30 2662 H 237.02 -0.127134 -1.43438 0
M  V30 2663 H 238.973 2.07773 -3.66617 0
M  V30 2664 H 237.697 2.18431 -2.42807 0
M  V30 2665 H 236.356 0.430119 -3.64068 0
M  V30 2666 H 236.004 2.85507 -4.14119 0
M  V30 2667 H 235.704 1.84615 -5.57845 0
M  V30 2668 H 237.228 2.76858 -5.44226 0
M  V30 2669 H 238.642 0.512976 -5.71 0
M  V30 2670 H 237.039 -0.2244 -5.9968 0
M  V30 2671 H 238.109 -0.912931 -4.76228 0
M  V30 2672 N 239.452 1.56882 -0.150215 0
M  V30 2673 C 240.868 1.58263 0.20617 0
M  V30 2674 C 241.068 1.16464 1.64434 0
M  V30 2675 O 240.124 0.866422 2.3717 0
M  V30 2676 C 241.437 3.00649 -0.0555025 0
M  V30 2677 C 242.985 3.12999 0.00795388 0
M  V30 2678 C 243.46 4.5744 -0.226429 0
M  V30 2679 N 244.951 4.62875 -0.173469 0
M  V30 2680 C 245.686 5.72454 -0.329288 0
M  V30 2681 N 245.182 6.90669 -0.543005 0
M  V30 2682 N 246.975 5.61467 -0.266666 0
M  V30 2683 H 239.126 1.82345 -1.08922 0
M  V30 2684 H 241.389 0.844149 -0.431413 0
M  V30 2685 H 241.095 3.3563 -1.05096 0
M  V30 2686 H 240.969 3.71337 0.66246 0
M  V30 2687 H 243.356 2.77857 0.993966 0
M  V30 2688 H 243.437 2.4479 -0.742388 0
M  V30 2689 H 243.081 4.93287 -1.20956 0
M  V30 2690 H 243.011 5.2378 0.544274 0
M  V30 2691 H 245.502 3.77898 -0.0130709 0
M  V30 2692 H 245.815 7.70045 -0.651922 0
M  V30 2693 H 244.16 6.92581 -0.579366 0
M  V30 2694 H 247.351 4.67992 -0.100441 0
M  V30 2695 H 247.524 6.46816 -0.391535 0
M  V30 2696 N 240.93 -0.123565 1.57115 0
M  V30 2697 C 242.207 -0.862196 1.75572 0
M  V30 2698 C 242.587 -1.98279 0.724475 0
M  V30 2699 O 241.935 -2.27102 -0.252407 0
M  V30 2700 C 242.145 -1.38309 3.20424 0
M  V30 2701 C 243.493 -1.83724 3.82793 0
M  V30 2702 O 244.517 -1.47999 3.23998 0
M  V30 2703 O 243.376 -2.49685 4.86127 0
M  V30 2704 H 240.47 -0.409113 0.718718 0
M  V30 2705 H 243.016 -0.107661 1.69358 0
M  V30 2706 H 241.788 -0.578889 3.86994 0
M  V30 2707 H 241.411 -2.20046 3.31158 0
M  V30 2708 N 242.408 -1.52605 -0.393616 0
M  V30 2709 C 243.685 -1.58001 -1.15304 0
M  V30 2710 C 244.065 -0.370385 -2.07825 0
M  V30 2711 O 243.413 0.641638 -2.19306 0
M  V30 2712 C 243.623 -2.91652 -1.91677 0
M  V30 2713 C 244.971 -3.4522 -2.47201 0
M  V30 2714 O 245.995 -2.93495 -2.01839 0
M  V30 2715 O 244.854 -4.35579 -3.3005 0
M  V30 2716 H 241.948 -0.637068 -0.527327 0
M  V30 2717 H 244.494 -1.64939 -0.399141 0
M  V30 2718 H 243.266 -3.71136 -1.23992 0
M  V30 2719 H 242.889 -2.88077 -2.74039 0
M  V30 2720 N 243.887 0.651787 -1.4349 0
M  V30 2721 C 245.112 1.44434 -1.48841 0
M  V30 2722 C 245.537 1.8779 -0.107955 0
M  V30 2723 O 244.895 1.57464 0.898602 0
M  V30 2724 C 244.943 2.65458 -2.44059 0
M  V30 2725 O 244.047 3.64566 -1.92784 0
M  V30 2726 H 243.388 0.433005 -0.503391 0
M  V30 2727 H 245.918 0.797451 -1.88419 0
M  V30 2728 H 245.928 3.13255 -2.6141 0
M  V30 2729 H 244.603 2.33244 -3.4434 0
M  V30 2730 H 243.18 3.23716 -1.851 0
M  V30 2731 N 245.365 1.30045 0.890287 0
M  V30 2732 C 246.613 1.18327 1.63839 0
M  V30 2733 C 246.934 -0.263455 1.93212 0
M  V30 2734 O 246.204 -1.17856 1.56482 0
M  V30 2735 H 244.784 0.434933 0.607324 0
M  V30 2736 H 247.446 1.631 1.06698 0
M  V30 2737 H 246.542 1.74024 2.59079 0
M  V30 2738 N 246.843 -1.10192 1.12674 0
M  V30 2739 C 248.259 -1.34235 0.863317 0
M  V30 2740 C 248.459 -1.95062 -0.505277 0
M  V30 2741 O 247.515 -2.19192 -1.25345 0
M  V30 2742 C 248.828 -2.2616 1.98172 0
M  V30 2743 C 250.376 -2.3969 2.0129 0
M  V30 2744 C 250.851 -3.34946 3.1237 0
M  V30 2745 N 252.342 -3.42515 3.11829 0
M  V30 2746 C 253.077 -4.16199 3.94419 0
M  V30 2747 N 252.573 -4.92747 4.87004 0
M  V30 2748 N 254.366 -4.11843 3.82547 0
M  V30 2749 H 246.517 -0.690798 2.00853 0
M  V30 2750 H 248.78 -0.366774 0.874174 0
M  V30 2751 H 248.486 -1.8868 2.96804 0
M  V30 2752 H 248.36 -3.26488 1.88906 0
M  V30 2753 H 250.747 -2.76438 1.03276 0
M  V30 2754 H 250.828 -1.39169 2.14629 0
M  V30 2755 H 250.472 -2.98923 4.10619 0
M  V30 2756 H 250.402 -4.35353 2.96269 0
M  V30 2757 H 252.893 -2.87926 2.44759 0
M  V30 2758 H 253.206 -5.46376 5.46528 0
M  V30 2759 H 251.551 -4.91862 4.91016 0
M  V30 2760 H 254.742 -3.51136 3.0955 0
M  V30 2761 H 254.915 -4.69007 4.47142 0
M  V30 2762 N 248.321 -0.919034 -1.28029 0
M  V30 2763 C 249.254 -0.355887 -2.25408 0
M  V30 2764 C 250.232 0.542874 -1.5327 0
M  V30 2765 O 251.416 0.485338 -1.82145 0
M  V30 2766 C 248.543 0.490759 -3.35126 0
M  V30 2767 C 247.589 -0.343358 -4.25116 0
M  V30 2768 S 248.422 -1.75344 -5.05979 0
M  V30 2769 C 249.578 -0.914244 -6.19187 0
M  V30 2770 H 249.811 -1.18123 -2.72826 0
M  V30 2771 H 247.344 -0.720636 -1.36551 0
M  V30 2772 H 249.302 0.973404 -3.98792 0
M  V30 2773 H 247.963 1.29054 -2.86363 0
M  V30 2774 H 247.156 0.304266 -5.03081 0
M  V30 2775 H 246.758 -0.759851 -3.662 0
M  V30 2776 H 249.05 -0.146282 -6.77342 0
M  V30 2777 H 249.993 -1.66661 -6.88208 0
M  V30 2778 H 250.401 -0.460082 -5.62622 0
M  V30 2779 N 249.799 1.42003 -0.683588 0
M  V30 2780 C 250.762 2.29191 -0.0198243 0
M  V30 2781 C 251.762 1.43773 0.72013 0
M  V30 2782 O 252.952 1.65061 0.556815 0
M  V30 2783 C 250.084 3.26435 0.982487 0
M  V30 2784 H 251.277 2.8938 -0.787345 0
M  V30 2785 H 248.83 1.49789 -0.446418 0
M  V30 2786 H 249.565 2.71203 1.77819 0
M  V30 2787 H 249.35 3.89449 0.455182 0
M  V30 2788 H 250.84 3.918 1.44508 0
M  V30 2789 N 251.277 0.427512 1.51691 0
M  V30 2790 C 252.207 -0.3796 2.30394 0
M  V30 2791 C 253.188 -1.02982 1.35384 0
M  V30 2792 O 254.373 -1.03534 1.643 0
M  V30 2793 C 251.503 -1.48649 3.1388 0
M  V30 2794 C 250.457 -0.960294 4.17088 0
M  V30 2795 C 249.783 -2.16219 4.89033 0
M  V30 2796 C 251.083 -0.00153679 5.223 0
M  V30 2797 H 252.777 0.277164 2.98114 0
M  V30 2798 H 250.323 0.134739 1.43368 0
M  V30 2799 H 252.276 -2.05826 3.67714 0
M  V30 2800 H 251 -2.1714 2.43962 0
M  V30 2801 H 249.659 -0.410806 3.64291 0
M  V30 2802 H 249.307 -2.83307 4.15628 0
M  V30 2803 H 249.007 -1.81654 5.58816 0
M  V30 2804 H 250.531 -2.73968 5.45687 0
M  V30 2805 H 251.945 -0.482687 5.71264 0
M  V30 2806 H 250.342 0.256199 5.99553 0
M  V30 2807 H 251.412 0.938174 4.75738 0
M  V30 2808 N 252.755 -1.56801 0.158532 0
M  V30 2809 C 253.98 -2.01295 -0.499516 0
M  V30 2810 C 254.405 -1.03799 -1.56867 0
M  V30 2811 O 253.763 -0.0155162 -1.81293 0
M  V30 2812 C 253.811 -3.44469 -1.06647 0
M  V30 2813 O 252.915 -3.50012 -2.18095 0
M  V30 2814 H 252.256 -0.652884 -0.12099 0
M  V30 2815 H 254.786 -2.02958 0.258661 0
M  V30 2816 H 254.796 -3.8351 -1.39227 0
M  V30 2817 H 253.471 -4.14932 -0.283581 0
M  V30 2818 H 252.048 -3.22822 -1.86656 0
M  V30 2819 N 254.233 0.115231 -1.57178 0
M  V30 2820 C 255.18 1.14115 -2.00615 0
M  V30 2821 C 256.15 1.40939 -0.878941 0
M  V30 2822 O 257.335 1.52741 -1.14345 0
M  V30 2823 C 254.475 2.46156 -2.4187 0
M  V30 2824 C 253.588 2.26236 -3.68024 0
M  V30 2825 C 252.723 3.51534 -3.98243 0
M  V30 2826 C 251.762 3.26787 -5.17568 0
M  V30 2827 N 250.899 4.44298 -5.43639 0
M  V30 2828 H 255.739 0.763743 -2.88047 0
M  V30 2829 H 253.276 0.365615 -1.42484 0
M  V30 2830 H 255.234 3.23189 -2.63827 0
M  V30 2831 H 253.864 2.81783 -1.57475 0
M  V30 2832 H 252.916 1.40102 -3.5366 0
M  V30 2833 H 254.228 2.03929 -4.55208 0
M  V30 2834 H 253.382 4.36984 -4.20868 0
M  V30 2835 H 252.121 3.76876 -3.09541 0
M  V30 2836 H 251.126 2.39729 -4.94783 0
M  V30 2837 H 252.351 3.02812 -6.0785 0
M  V30 2838 H 250.297 4.69754 -4.57895 0
M  V30 2839 H 250.214 4.25109 -6.25154 0
M  V30 2840 H 251.482 5.3087 -5.70786 0
M  V30 2841 N 255.711 1.52812 0.385517 0
M  V30 2842 C 256.939 1.71907 1.15133 0
M  V30 2843 C 257.354 0.439004 1.83625 0
M  V30 2844 O 256.711 -0.586765 1.7281 0
M  V30 2845 C 256.762 2.87099 2.19673 0
M  V30 2846 O 256.483 4.10151 1.53973 0
M  V30 2847 C 257.984 3.17902 3.08955 0
M  V30 2848 H 255.204 0.575479 0.345057 0
M  V30 2849 H 257.748 1.99476 0.45052 0
M  V30 2850 H 255.903 2.61982 2.85384 0
M  V30 2851 H 256.317 4.74514 2.23465 0
M  V30 2852 H 257.791 4.01959 3.7833 0
M  V30 2853 H 258.268 2.3243 3.72657 0
M  V30 2854 H 258.874 3.44871 2.48885 0
M  V30 2855 N 257.189 -0.644168 1.43834 0
M  V30 2856 C 258.436 -1.40395 1.4593 0
M  V30 2857 C 258.764 -1.94305 0.0869658 0
M  V30 2858 O 258.019 -1.73288 -0.909378 0
M  V30 2859 C 258.318 -2.59615 2.45631 0
M  V30 2860 C 257.984 -2.2407 3.91284 0
M  V30 2861 C 256.646 -2.14089 4.30952 0
M  V30 2862 C 258.998 -1.95775 4.83034 0
M  V30 2863 C 256.326 -1.73981 5.6031 0
M  V30 2864 C 258.678 -1.57163 6.12766 0
M  V30 2865 C 257.342 -1.45713 6.51402 0
M  V30 2866 H 256.612 -0.513741 0.533995 0
M  V30 2867 H 259.259 -0.731724 1.76969 0
M  V30 2868 H 257.564 -3.32011 2.08028 0
M  V30 2869 H 259.261 -3.17834 2.44504 0
M  V30 2870 H 255.851 -2.32753 3.59895 0
M  V30 2871 H 260.035 -2.02403 4.53152 0
M  V30 2872 H 255.291 -1.63709 5.89075 0
M  V30 2873 H 259.465 -1.34303 6.83327 0
M  V30 2874 H 257.092 -1.14406 7.51542 0
M  V30 2875 N 258.668 -1.30515 -0.883378 0
M  V30 2876 C 259.908 -1.20716 -1.64946 0
M  V30 2877 C 260.272 0.234072 -1.90568 0
M  V30 2878 O 261.473 0.455335 -2.64915 0
M  V30 2879 C 259.744 -2.01444 -2.9522 0
M  V30 2880 S 261.303 -2.0836 -3.86175 0
M  V30 2881 H 258.121 -0.430165 -0.566109 0
M  V30 2882 H 260.723 -1.65011 -1.04841 0
M  V30 2883 H 259.427 -3.05268 -2.74298 0
M  V30 2884 H 258.958 -1.57817 -3.60357 0
M  V30 2885 H 260.973 -1.21215 -4.81167 0
M  V30 2886 N 260.146 1.09593 -1.13257 0
M  V30 2887 C 261.394 1.81375 -0.891492 0
M  V30 2888 C 261.715 1.86049 0.584009 0
M  V30 2889 O 260.985 1.34481 1.42449 0
M  V30 2890 H 259.565 0.671708 -0.326828 0
M  V30 2891 H 262.227 1.3256 -1.42877 0
M  V30 2892 H 261.323 2.84612 -1.28071 0
M  V30 2893 N 261.624 0.925811 1.2754 0
M  V30 2894 C 262.849 0.580924 1.99098 0
M  V30 2895 C 263.274 -0.833555 1.68622 0
M  V30 2896 O 262.632 -1.55903 0.925422 0
M  V30 2897 C 262.68 0.811186 3.51358 0
M  V30 2898 O 261.784 -0.124129 4.12213 0
M  V30 2899 H 261.125 0.223873 0.625122 0
M  V30 2900 H 263.655 1.24455 1.62395 0
M  V30 2901 H 263.665 0.72601 4.01489 0
M  V30 2902 H 262.34 1.84227 3.72872 0
M  V30 2903 H 260.917 0.0108006 3.72898 0
M  V30 2904 N 263.102 -1.41638 0.69111 0
M  V30 2905 C 264.513 -1.84346 0.295517 0
M  V30 2906 C 264.864 -1.57833 -1.16547 0
M  V30 2907 O 263.989 -1.04648 -1.89414 0
M  V30 2908 C 264.584 -3.34636 0.529575 0
M  V30 2909 C 263.143 -3.7593 0.187944 0
M  V30 2910 C 262.29 -2.65082 0.814052 0
M  V30 2911 H 265.241 -1.31253 0.892092 0
M  V30 2912 H 265.262 -3.79903 -0.213148 0
M  V30 2913 H 264.774 -3.53901 1.59297 0
M  V30 2914 H 262.875 -3.62268 -0.871367 0
M  V30 2915 H 262.988 -4.74808 0.63985 0
M  V30 2916 H 261.352 -2.53528 0.244017 0
M  V30 2917 H 262.135 -2.87167 1.88123 0
M  V30 2918 N 264.58 -0.43555 -1.51462 0
M  V30 2919 C 265.543 0.365137 -2.26273 0
M  V30 2920 C 266.543 0.951227 -1.29647 0
M  V30 2921 O 267.733 0.825958 -1.53374 0
M  V30 2922 C 264.865 1.51645 -3.05314 0
M  V30 2923 H 266.058 -0.290474 -2.9849 0
M  V30 2924 H 263.611 -0.188676 -1.55157 0
M  V30 2925 H 264.346 2.20816 -2.3751 0
M  V30 2926 H 264.131 1.10238 -3.76284 0
M  V30 2927 H 265.621 2.08218 -3.61987 0
M  V30 2928 N 266.058 1.56714 -0.166846 0
M  V30 2929 C 267.288 2.00828 0.48494 0
M  V30 2930 C 267.696 1.04612 1.57648 0
M  V30 2931 O 267.039 0.0383201 1.8366 0
M  V30 2932 C 267.101 3.4137 1.12723 0
M  V30 2933 C 266.765 4.56654 0.177886 0
M  V30 2934 C 267.762 5.16402 -0.60207 0
M  V30 2935 C 265.447 5.02244 0.0750139 0
M  V30 2936 C 267.441 6.20167 -1.47215 0
M  V30 2937 C 265.128 6.05859 -0.798649 0
M  V30 2938 C 266.126 6.64691 -1.57082 0
M  V30 2939 O 265.814 7.66297 -2.42989 0
M  V30 2940 H 265.546 0.663587 0.128953 0
M  V30 2941 H 268.1 2.03692 -0.264365 0
M  V30 2942 H 266.33 3.35406 1.92457 0
M  V30 2943 H 268.019 3.69466 1.68076 0
M  V30 2944 H 268.785 4.82065 -0.53274 0
M  V30 2945 H 264.664 4.56167 0.665812 0
M  V30 2946 H 268.208 6.66016 -2.07531 0
M  V30 2947 H 264.105 6.39621 -0.869199 0
M  V30 2948 H 264.873 7.83601 -2.36455 0
M  V30 2949 N 267.536 -0.106894 1.57237 0
M  V30 2950 C 268.499 -1.11466 2.0027 0
M  V30 2951 C 269.499 -1.33623 0.894519 0
M  V30 2952 O 270.689 -1.29935 1.16028 0
M  V30 2953 C 267.821 -2.46646 2.35327 0
M  V30 2954 H 269.014 -0.744516 2.90512 0
M  V30 2955 H 266.567 -0.351576 1.52295 0
M  V30 2956 H 267.302 -2.88558 1.48003 0
M  V30 2957 H 267.087 -2.31915 3.16161 0
M  V30 2958 H 268.577 -3.19151 2.69318 0
M  V30 2959 N 269.014 -1.53014 -0.377408 0
M  V30 2960 C 269.977 -1.77957 -1.44444 0
M  V30 2961 C 270.977 -0.649763 -1.47087 0
M  V30 2962 O 272.167 -0.917897 -1.48055 0
M  V30 2963 C 269.299 -1.89089 -2.83651 0
M  V30 2964 H 270.492 -2.73243 -1.23606 0
M  V30 2965 H 268.045 -1.43912 -0.609844 0
M  V30 2966 H 268.78 -0.958293 -3.09818 0
M  V30 2967 H 268.565 -2.71254 -2.83132 0
M  V30 2968 H 270.055 -2.1002 -3.60945 0
M  V30 2969 N 270.492 0.636531 -1.44174 0
M  V30 2970 C 271.903 1.21806 -1.41493 0
M  V30 2971 C 272.254 1.95785 -0.1275 0
M  V30 2972 O 271.379 2.02147 0.772376 0
M  V30 2973 C 271.974 2.21551 -2.56321 0
M  V30 2974 C 270.533 2.75143 -2.56853 0
M  V30 2975 C 269.68 1.50052 -2.33195 0
M  V30 2976 H 272.631 0.427531 -1.52833 0
M  V30 2977 H 272.652 3.0405 -2.28765 0
M  V30 2978 H 272.164 1.67679 -3.50008 0
M  V30 2979 H 270.265 3.33033 -1.67093 0
M  V30 2980 H 270.378 3.2155 -3.55165 0
M  V30 2981 H 268.742 1.77993 -1.82183 0
M  V30 2982 H 269.525 0.980903 -3.28988 0
M  V30 2983 N 271.97 1.30982 0.876444 0
M  V30 2984 C 272.88 1.2003 2.01569 0
M  V30 2985 C 273.896 0.11838 1.73597 0
M  V30 2986 O 275.072 0.33495 1.98595 0
M  V30 2987 C 272.137 0.901637 3.34771 0
M  V30 2988 C 271.198 2.06979 3.76109 0
M  V30 2989 C 270.431 1.78529 5.02954 0
M  V30 2990 O 270.654 0.717296 5.65872 0
M  V30 2991 O 269.588 2.64019 5.40905 0
M  V30 2992 H 273.414 2.15753 2.13739 0
M  V30 2993 H 270.999 1.10658 1.00375 0
M  V30 2994 H 272.881 0.750645 4.1466 0
M  V30 2995 H 271.556 -0.0256141 3.2369 0
M  V30 2996 H 270.463 2.27616 2.96887 0
M  V30 2997 H 271.796 2.97907 3.91807 0
M  V30 2998 N 273.449 -1.08991 1.13837 0
M  V30 2999 C 274.695 -1.81526 0.90422 0
M  V30 3000 C 275.028 -1.85706 -0.568066 0
M  V30 3001 O 274.303 -1.32855 -1.42056 0
M  V30 3002 C 274.586 -3.27447 1.49835 0
M  V30 3003 C 274.439 -3.31512 3.04006 0
M  V30 3004 C 275.758 -4.24256 1.17025 0
M  V30 3005 H 272.877 -0.659029 0.329923 0
M  V30 3006 H 275.519 -1.27644 1.40737 0
M  V30 3007 H 273.669 -3.73462 1.07044 0
M  V30 3008 H 275.341 -2.93867 3.55584 0
M  V30 3009 H 273.584 -2.70963 3.38765 0
M  V30 3010 H 274.255 -4.34329 3.40679 0
M  V30 3011 H 276.731 -3.86549 1.54009 0
M  V30 3012 H 275.607 -5.24684 1.61237 0
M  V30 3013 H 275.868 -4.42019 0.0846274 0
M  V30 3014 N 274.927 -0.932562 -1.27047 0
M  V30 3015 C 275.857 -0.452902 -2.29066 0
M  V30 3016 C 276.838 0.489338 -1.62909 0
M  V30 3017 O 278.023 0.393046 -1.90181 0
M  V30 3018 C 275.153 0.290698 -3.46081 0
M  V30 3019 C 274.107 -0.564168 -4.24265 0
M  V30 3020 C 273.433 0.308886 -5.33807 0
M  V30 3021 C 274.733 -1.83112 -4.89149 0
M  V30 3022 H 276.427 -1.30552 -2.69437 0
M  V30 3023 H 273.973 -0.629201 -1.29526 0
M  V30 3024 H 275.926 0.637233 -4.16554 0
M  V30 3025 H 274.65 1.17738 -3.0464 0
M  V30 3026 H 273.309 -0.893477 -3.55545 0
M  V30 3027 H 272.957 1.19467 -4.88607 0
M  V30 3028 H 272.657 -0.259633 -5.87026 0
M  V30 3029 H 274.181 0.650884 -6.07121 0
M  V30 3030 H 275.595 -1.55236 -5.51883 0
M  V30 3031 H 273.992 -2.34353 -5.52448 0
M  V30 3032 H 275.062 -2.54772 -4.12576 0
M  V30 3033 N 276.405 1.4127 -0.698611 0
M  V30 3034 C 277.337 2.292 0.00399731 0
M  V30 3035 C 278.35 1.44944 0.741279 0
M  V30 3036 O 279.539 1.68416 0.591477 0
M  V30 3037 C 276.639 3.22875 1.02979 0
M  V30 3038 C 275.812 4.35904 0.36151 0
M  V30 3039 C 274.871 5.10134 1.29033 0
M  V30 3040 O 273.897 5.63809 0.781562 0
M  V30 3041 N 275.099 5.17885 2.6225 0
M  V30 3042 H 277.864 2.9014 -0.750921 0
M  V30 3043 H 275.425 1.52455 -0.544882 0
M  V30 3044 H 277.417 3.69404 1.65296 0
M  V30 3045 H 275.987 2.63221 1.68622 0
M  V30 3046 H 275.207 3.91719 -0.441584 0
M  V30 3047 H 276.495 5.08696 -0.103055 0
M  V30 3048 H 275.893 4.7573 3.061 0
M  V30 3049 H 274.45 5.6798 3.19754 0
M  V30 3050 N 277.883 0.443576 1.51229 0
M  V30 3051 C 279.131 -0.120557 2.0174 0
M  V30 3052 C 279.452 -1.42665 1.32935 0
M  V30 3053 O 278.722 -1.9028 0.465866 0
M  V30 3054 H 277.302 -0.0475426 0.745486 0
M  V30 3055 H 279.964 0.587711 1.85828 0
M  V30 3056 H 279.06 -0.291972 3.10731 0
M  V30 3057 N 279.361 -1.56624 0.175154 0
M  V30 3058 C 280.61 -1.96173 -0.468921 0
M  V30 3059 C 280.923 -1.06401 -1.64128 0
M  V30 3060 O 282.129 -1.35648 -2.35185 0
M  V30 3061 C 280.585 -3.48833 -0.885633 0
M  V30 3062 C 280.193 -4.47237 0.261343 0
M  V30 3063 C 281.937 -3.97194 -1.49791 0
M  V30 3064 C 279.844 -5.9114 -0.175214 0
M  V30 3065 H 278.774 -0.732455 -0.178958 0
M  V30 3066 H 281.425 -1.81591 0.263997 0
M  V30 3067 H 279.807 -3.58848 -1.67464 0
M  V30 3068 H 280.981 -4.4894 1.03871 0
M  V30 3069 H 279.296 -4.08956 0.783827 0
M  V30 3070 H 281.893 -5.02167 -1.83665 0
M  V30 3071 H 282.236 -3.40351 -2.39722 0
M  V30 3072 H 282.769 -3.90212 -0.773267 0
M  V30 3073 H 279.508 -6.51865 0.689414 0
M  V30 3074 H 279.028 -5.92735 -0.91786 0
M  V30 3075 H 280.707 -6.44044 -0.617792 0
M  V30 3076 N 280.839 0.0985539 -1.57292 0
M  V30 3077 C 282.25 0.653457 -1.74891 0
M  V30 3078 C 282.601 1.7929 -0.796838 0
M  V30 3079 O 281.726 2.16385 0.0254886 0
M  V30 3080 C 282.321 1.19216 -3.17133 0
M  V30 3081 C 280.88 1.69316 -3.36168 0
M  V30 3082 C 280.027 0.601294 -2.70702 0
M  V30 3083 H 282.978 -0.127497 -1.58187 0
M  V30 3084 H 282.999 2.06154 -3.19814 0
M  V30 3085 H 282.511 0.362635 -3.86402 0
M  V30 3086 H 280.612 2.5468 -2.71972 0
M  V30 3087 H 280.725 1.78853 -4.44464 0
M  V30 3088 H 279.089 1.0399 -2.32504 0
M  V30 3089 H 279.872 -0.217592 -3.4261 0
M  V30 3090 N 282.317 1.53212 0.369288 0
M  V30 3091 C 283.547 1.72868 1.13139 0
M  V30 3092 C 283.955 0.455754 1.83629 0
M  V30 3093 O 283.298 -0.580861 1.74275 0
M  V30 3094 C 283.36 2.83667 2.20847 0
M  V30 3095 C 283.024 4.24142 1.70155 0
M  V30 3096 C 284.021 5.06619 1.16763 0
M  V30 3097 C 281.706 4.70539 1.7578 0
M  V30 3098 C 283.7 6.33581 0.696678 0
M  V30 3099 C 281.387 5.97481 1.28297 0
M  V30 3100 C 282.385 6.78833 0.753307 0
M  V30 3101 O 282.073 8.03393 0.285475 0
M  V30 3102 H 281.805 0.581707 0.344373 0
M  V30 3103 H 284.359 2.00736 0.435243 0
M  V30 3104 H 282.589 2.51265 2.93944 0
M  V30 3105 H 284.278 2.91536 2.82421 0
M  V30 3106 H 285.044 4.71948 1.11758 0
M  V30 3107 H 280.923 4.07293 2.15949 0
M  V30 3108 H 284.467 6.97027 0.282581 0
M  V30 3109 H 280.364 6.31651 1.32994 0
M  V30 3110 H 281.132 8.17497 0.405145 0
M  V30 3111 N 283.795 -0.628877 1.44509 0
M  V30 3112 C 284.727 -1.754 1.47538 0
M  V30 3113 C 285.74 -1.58575 0.368506 0
M  V30 3114 O 286.929 -1.66847 0.634376 0
M  V30 3115 C 284.029 -3.1315 1.29577 0
M  V30 3116 C 283.202 -3.56413 2.53551 0
M  V30 3117 C 282.261 -4.7305 2.30457 0
M  V30 3118 O 281.287 -4.81247 3.03957 0
M  V30 3119 N 282.489 -5.64903 1.3366 0
M  V30 3120 H 285.254 -1.73272 2.44534 0
M  V30 3121 H 282.815 -0.813512 1.39977 0
M  V30 3122 H 284.807 -3.88902 1.11971 0
M  V30 3123 H 283.377 -3.09908 0.409371 0
M  V30 3124 H 282.597 -2.70847 2.86419 0
M  V30 3125 H 283.885 -3.82071 3.36005 0
M  V30 3126 H 283.283 -5.60975 0.729604 0
M  V30 3127 H 281.84 -6.40275 1.22032 0
M  V30 3128 N 285.273 -1.31445 -0.869486 0
M  V30 3129 C 286.684 -1.19042 -1.43826 0
M  V30 3130 C 287.035 0.202919 -1.95148 0
M  V30 3131 O 286.16 1.10071 -1.86315 0
M  V30 3132 C 286.755 -2.15499 -2.6143 0
M  V30 3133 C 285.314 -2.07028 -3.14351 0
M  V30 3134 C 284.461 -2.04701 -1.87063 0
M  V30 3135 H 287.412 -1.43489 -0.677984 0
M  V30 3136 H 287.433 -1.74488 -3.38134 0
M  V30 3137 H 286.945 -3.16899 -2.24046 0
M  V30 3138 H 285.046 -1.08825 -3.56354 0
M  V30 3139 H 285.159 -2.96157 -3.766 0
M  V30 3140 H 283.523 -1.49724 -2.06046 0
M  V30 3141 H 284.306 -3.07857 -1.51917 0
M  V30 3142 N 286.751 1.08385 -1.14413 0
M  V30 3143 C 287.698 2.15311 -0.831265 0
M  V30 3144 C 288.668 1.64751 0.211292 0
M  V30 3145 O 289.853 1.90627 0.0811674 0
M  V30 3146 C 286.993 3.43658 -0.315143 0
M  V30 3147 C 286.106 4.08064 -1.41802 0
M  V30 3148 C 285.241 5.24207 -0.859126 0
M  V30 3149 C 284.28 5.80554 -1.93967 0
M  V30 3150 N 283.417 6.88042 -1.39793 0
M  V30 3151 H 288.257 2.41415 -1.74708 0
M  V30 3152 H 285.794 1.18474 -0.871909 0
M  V30 3153 H 287.752 4.172 0.00230884 0
M  V30 3154 H 286.382 3.17839 0.56378 0
M  V30 3155 H 285.434 3.3228 -1.85187 0
M  V30 3156 H 286.746 4.45962 -2.23427 0
M  V30 3157 H 285.9 6.04689 -0.49359 0
M  V30 3158 H 284.639 4.87699 -0.011932 0
M  V30 3159 H 283.644 4.98725 -2.31415 0
M  V30 3160 H 284.869 6.19121 -2.79046 0
M  V30 3161 H 282.815 6.53493 -0.572919 0
M  V30 3162 H 282.732 7.24767 -2.15054 0
M  V30 3163 H 284 7.72255 -1.0603 0
M  V30 3164 N 288.23 0.939286 1.26551 0
M  V30 3165 C 289.476 0.586715 1.94128 0
M  V30 3166 C 289.809 -0.8717 1.73537 0
M  V30 3167 O 289.084 -1.62339 1.07127 0
M  V30 3168 C 289.367 0.927497 3.4795 0
M  V30 3169 C 289.22 2.44052 3.77834 0
M  V30 3170 C 290.539 0.441569 4.37879 0
M  V30 3171 H 287.658 0.21463 0.705055 0
M  V30 3172 H 290.3 1.17316 1.49455 0
M  V30 3173 H 288.45 0.428431 3.8613 0
M  V30 3174 H 290.122 3.01216 3.4938 0
M  V30 3175 H 288.365 2.8848 3.23978 0
M  V30 3176 H 289.036 2.62947 4.85348 0
M  V30 3177 H 291.512 0.869448 4.06915 0
M  V30 3178 H 290.388 0.708856 5.44304 0
M  V30 3179 H 290.649 -0.658467 4.37169 0
M  V30 3180 N 289.708 -1.40897 0.706093 0
M  V30 3181 C 290.938 -2.05075 0.250523 0
M  V30 3182 C 291.346 -1.53275 -1.10921 0
M  V30 3183 O 290.689 -0.680281 -1.7064 0
M  V30 3184 C 290.751 -3.59219 0.142178 0
M  V30 3185 C 290.415 -4.33864 1.43566 0
M  V30 3186 C 291.412 -4.62448 2.37566 0
M  V30 3187 C 289.097 -4.72946 1.69195 0
M  V30 3188 C 291.091 -5.29088 3.5545 0
M  V30 3189 C 288.778 -5.3932 2.87362 0
M  V30 3190 C 289.776 -5.6732 3.80312 0
M  V30 3191 O 289.464 -6.32325 4.96408 0
M  V30 3192 H 289.196 -0.666645 0.112074 0
M  V30 3193 H 291.75 -1.81467 0.962239 0
M  V30 3194 H 289.98 -3.81609 -0.6254 0
M  V30 3195 H 291.669 -4.0495 -0.277584 0
M  V30 3196 H 292.435 -4.32727 2.19027 0
M  V30 3197 H 288.314 -4.50527 0.977042 0
M  V30 3198 H 291.858 -5.50859 4.28018 0
M  V30 3199 H 287.755 -5.68461 3.05814 0
M  V30 3200 H 288.523 -6.50821 4.9636 0
M  V30 3201 N 291.186 -0.45159 -1.50991 0
M  V30 3202 C 292.463 0.170707 -1.94854 0
M  V30 3203 C 292.843 1.58788 -1.39103 0
M  V30 3204 O 292.191 2.20913 -0.583921 0
M  V30 3205 C 292.401 0.133929 -3.48743 0
M  V30 3206 C 293.749 0.33248 -4.23296 0
M  V30 3207 O 294.773 0.211403 -3.55572 0
M  V30 3208 O 293.632 0.57486 -5.43468 0
M  V30 3209 H 290.726 0.122264 -0.817912 0
M  V30 3210 H 293.272 -0.510594 -1.61836 0
M  V30 3211 H 292.044 -0.856283 -3.81816 0
M  V30 3212 H 291.667 0.857529 -3.88242 0
M  V30 3213 N 292.664 1.56529 -0.183458 0
M  V30 3214 C 293.913 1.96419 0.458511 0
M  V30 3215 C 294.226 1.0727 1.63562 0
M  V30 3216 O 295.432 1.36893 2.34462 0
M  V30 3217 C 293.888 3.49298 0.867122 0
M  V30 3218 C 293.496 4.47092 -0.285057 0
M  V30 3219 C 295.24 3.97983 1.47683 0
M  V30 3220 C 293.147 5.91225 0.143862 0
M  V30 3221 H 292.077 0.733394 0.175071 0
M  V30 3222 H 294.728 1.81448 -0.273624 0
M  V30 3223 H 293.11 3.59731 1.65559 0
M  V30 3224 H 294.284 4.48383 -1.0625 0
M  V30 3225 H 292.599 4.08535 -0.805503 0
M  V30 3226 H 295.196 5.03134 1.80999 0
M  V30 3227 H 295.539 3.41618 2.37914 0
M  V30 3228 H 296.072 3.90617 0.752562 0
M  V30 3229 H 292.811 6.5149 -0.723974 0
M  V30 3230 H 292.331 5.93214 0.886413 0
M  V30 3231 H 294.01 6.44362 0.583628 0
M  V30 3232 N 294.142 -0.090211 1.57342 0
M  V30 3233 C 295.388 -0.788838 1.8748 0
M  V30 3234 C 295.743 -1.76105 0.7749 0
M  V30 3235 O 295.036 -1.90302 -0.222663 0
M  V30 3236 C 295.23 -1.55222 3.21933 0
M  V30 3237 C 295.059 -0.655441 4.44898 0
M  V30 3238 C 293.829 -0.299325 5.04413 0
M  V30 3239 C 296.027 0.0397458 5.14285 0
M  V30 3240 N 294.009 0.605108 6.10911 0
M  V30 3241 C 295.38 0.802061 6.1479 0
M  V30 3242 C 297.435 0.113154 4.97771 0
M  V30 3243 C 296.138 1.63093 7.00566 0
M  V30 3244 C 298.164 0.928942 5.84059 0
M  V30 3245 C 297.526 1.67936 6.84088 0
M  V30 3246 H 293.625 -0.26467 0.735849 0
M  V30 3247 H 296.209 -0.0511453 1.94633 0
M  V30 3248 H 294.38 -2.26076 3.15823 0
M  V30 3249 H 296.112 -2.19843 3.39781 0
M  V30 3250 H 292.867 -0.648079 4.69145 0
M  V30 3251 H 293.291 1.05002 6.68808 0
M  V30 3252 H 297.933 -0.452676 4.2037 0
M  V30 3253 H 295.651 2.20781 7.77355 0
M  V30 3254 H 299.237 0.988478 5.73341 0
M  V30 3255 H 298.117 2.30044 7.49699 0
M  V30 3256 N 295.62 -1.53406 -0.361157 0
M  V30 3257 C 296.845 -1.74024 -1.12829 0
M  V30 3258 C 297.27 -0.470069 -1.82132 0
M  V30 3259 O 296.628 0.57619 -1.719 0
M  V30 3260 C 296.676 -2.90903 -2.13091 0
M  V30 3261 O 295.78 -2.59821 -3.20261 0
M  V30 3262 H 295.121 -0.577804 -0.327168 0
M  V30 3263 H 297.651 -2.00307 -0.41693 0
M  V30 3264 H 297.661 -3.17194 -2.56616 0
M  V30 3265 H 296.336 -3.83034 -1.62042 0
M  V30 3266 H 294.913 -2.44362 -2.81677 0
M  V30 3267 N 297.098 0.621204 -1.44841 0
M  V30 3268 C 298.028 1.74366 -1.55303 0
M  V30 3269 C 299.009 1.65199 -0.405385 0
M  V30 3270 O 300.194 1.83807 -0.626787 0
M  V30 3271 C 297.324 3.12931 -1.50637 0
M  V30 3272 C 296.278 3.36896 -2.63979 0
M  V30 3273 C 295.604 4.75594 -2.44366 0
M  V30 3274 C 296.904 3.28483 -4.06074 0
M  V30 3275 H 298.598 1.65867 -2.49256 0
M  V30 3276 H 296.144 0.796558 -1.19962 0
M  V30 3277 H 298.097 3.9124 -1.56555 0
M  V30 3278 H 296.821 3.22237 -0.532057 0
M  V30 3279 H 295.48 2.60972 -2.57467 0
M  V30 3280 H 295.128 4.81616 -1.45105 0
M  V30 3281 H 294.828 4.92586 -3.20364 0
M  V30 3282 H 296.352 5.5612 -2.52117 0
M  V30 3283 H 297.766 3.96684 -4.13902 0
M  V30 3284 H 296.163 3.57008 -4.82354 0
M  V30 3285 H 297.233 2.26133 -4.28943 0
M  V30 3286 N 298.576 1.31904 0.862503 0
M  V30 3287 C 299.824 1.21776 1.61292 0
M  V30 3288 C 300.145 -0.222413 1.93727 0
M  V30 3289 O 299.415 -1.1451 1.58947 0
M  V30 3290 H 297.995 0.447717 0.597962 0
M  V30 3291 H 300.657 1.65326 1.03215 0
M  V30 3292 H 299.753 1.7948 2.5533 0
M  V30 3293 N 300.054 -1.07777 1.14986 0
M  V30 3294 C 301.3 -1.80557 0.923422 0
M  V30 3295 C 301.633 -1.86298 -0.548337 0
M  V30 3296 O 300.908 -1.34354 -1.40639 0
M  V30 3297 C 301.191 -3.25839 1.53299 0
M  V30 3298 C 301.044 -3.28269 3.07505 0
M  V30 3299 C 302.363 -4.22991 1.21518 0
M  V30 3300 H 299.482 -0.655493 0.336894 0
M  V30 3301 H 302.124 -1.26144 1.42083 0
M  V30 3302 H 300.274 -3.72306 1.10999 0
M  V30 3303 H 301.946 -2.90079 3.58681 0
M  V30 3304 H 300.189 -2.67355 3.4162 0
M  V30 3305 H 300.86 -4.30691 3.45266 0
M  V30 3306 H 303.336 -3.84894 1.581 0
M  V30 3307 H 302.212 -5.22945 1.66793 0
M  V30 3308 H 302.473 -4.41904 0.131505 0
M  V30 3309 N 301.532 -0.945985 -1.26051 0
M  V30 3310 C 302.781 -0.591836 -1.92822 0
M  V30 3311 C 303.094 0.873956 -1.7499 0
M  V30 3312 O 304.3 1.33769 -2.36259 0
M  V30 3313 C 302.756 -1.00776 -3.45503 0
M  V30 3314 C 302.364 -2.4955 -3.7206 0
M  V30 3315 C 304.108 -0.725735 -4.1825 0
M  V30 3316 C 302.015 -2.84988 -5.18205 0
M  V30 3317 H 300.945 -0.217635 -0.721908 0
M  V30 3318 H 303.596 -1.14927 -1.43052 0
M  V30 3319 H 301.978 -0.378812 -3.94184 0
M  V30 3320 H 303.152 -3.1739 -3.34066 0
M  V30 3321 H 301.467 -2.75133 -3.12555 0
M  V30 3322 H 304.064 -0.966771 -5.25887 0
M  V30 3323 H 304.407 0.337639 -4.14929 0
M  V30 3324 H 304.94 -1.31463 -3.7545 0
M  V30 3325 H 301.679 -3.90307 -5.26631 0
M  V30 3326 H 301.199 -2.21813 -5.57278 0
M  V30 3327 H 302.878 -2.73712 -5.86252 0
M  V30 3328 N 303.011 1.40521 -0.713556 0
M  V30 3329 C 303.941 2.33381 -0.0743864 0
M  V30 3330 C 304.922 1.52784 0.747735 0
M  V30 3331 O 306.107 1.81258 0.697071 0
M  V30 3332 C 303.237 3.36748 0.849598 0
M  V30 3333 C 302.191 4.27793 0.133247 0
M  V30 3334 C 301.517 5.21679 1.17281 0
M  V30 3335 C 302.817 5.12415 -1.01134 0
M  V30 3336 H 304.511 2.87081 -0.850007 0
M  V30 3337 H 302.057 1.38034 -0.410201 0
M  V30 3338 H 304.01 4.00648 1.30612 0
M  V30 3339 H 302.734 2.81439 1.65709 0
M  V30 3340 H 301.393 3.65342 -0.303426 0
M  V30 3341 H 301.041 4.62677 1.9733 0
M  V30 3342 H 300.741 5.83435 0.698397 0
M  V30 3343 H 302.265 5.88456 1.62947 0
M  V30 3344 H 303.679 5.69781 -0.634274 0
M  V30 3345 H 302.076 5.83203 -1.41399 0
M  V30 3346 H 303.146 4.48514 -1.84292 0
M  V30 3347 N 304.489 0.459591 1.5075 0
M  V30 3348 C 305.719 -0.0972338 2.06371 0
M  V30 3349 C 306.127 -1.35074 1.32483 0
M  V30 3350 O 305.47 -1.79637 0.384226 0
M  V30 3351 C 305.532 -0.462759 3.56509 0
M  V30 3352 C 305.196 0.687084 4.51805 0
M  V30 3353 C 306.193 1.56578 4.95761 0
M  V30 3354 C 303.878 0.874144 4.94635 0
M  V30 3355 C 305.872 2.61604 5.81242 0
M  V30 3356 C 303.559 1.92765 5.79901 0
M  V30 3357 C 304.557 2.79697 6.23104 0
M  V30 3358 O 304.245 3.83235 7.06673 0
M  V30 3359 H 303.977 -0.00140687 0.675999 0
M  V30 3360 H 306.531 0.644011 1.95043 0
M  V30 3361 H 304.761 -1.25703 3.65699 0
M  V30 3362 H 306.45 -0.953323 3.94546 0
M  V30 3363 H 307.216 1.4329 4.6335 0
M  V30 3364 H 303.095 0.207006 4.60535 0
M  V30 3365 H 306.639 3.29489 6.14884 0
M  V30 3366 H 302.536 2.06064 6.11725 0
M  V30 3367 H 303.304 3.80084 7.24899 0
M  V30 3368 N 305.967 -1.56429 0.191757 0
M  V30 3369 C 307.216 -1.9666 -0.448088 0
M  V30 3370 C 307.529 -1.08136 -1.62991 0
M  V30 3371 O 308.735 -1.38135 -2.33733 0
M  V30 3372 C 307.191 -3.49753 -0.848585 0
M  V30 3373 C 306.799 -4.46935 0.308764 0
M  V30 3374 C 308.543 -3.9876 -1.4557 0
M  V30 3375 C 306.45 -5.91293 -0.112506 0
M  V30 3376 H 305.38 -0.734312 -0.171179 0
M  V30 3377 H 308.031 -1.81301 0.283242 0
M  V30 3378 H 306.413 -3.60604 -1.63649 0
M  V30 3379 H 307.587 -4.47813 1.08627 0
M  V30 3380 H 305.902 -4.08102 0.827158 0
M  V30 3381 H 308.499 -5.04086 -1.78328 0
M  V30 3382 H 308.842 -3.42875 -2.36099 0
M  V30 3383 H 309.375 -3.9101 -0.731836 0
M  V30 3384 H 306.114 -6.51097 0.758514 0
M  V30 3385 H 305.634 -5.93676 -0.854941 0
M  V30 3386 H 307.313 -6.44663 -0.549448 0
M  V30 3387 N 307.445 0.0818655 -1.57387 0
M  V30 3388 C 308.378 1.12986 -1.98266 0
M  V30 3389 C 309.356 1.38123 -0.857954 0
M  V30 3390 O 310.54 1.51663 -1.1194 0
M  V30 3391 C 307.667 2.47632 -2.31076 0
M  V30 3392 C 306.713 2.38693 -3.53452 0
M  V30 3393 S 307.546 1.79071 -5.04672 0
M  V30 3394 C 308.702 3.15316 -5.40673 0
M  V30 3395 H 308.935 0.781435 -2.86846 0
M  V30 3396 H 306.468 0.290034 -1.51651 0
M  V30 3397 H 308.426 3.25089 -2.50654 0
M  V30 3398 H 307.087 2.79638 -1.43043 0
M  V30 3399 H 306.28 3.37964 -3.73893 0
M  V30 3400 H 305.882 1.69369 -3.33452 0
M  V30 3401 H 308.174 4.11613 -5.38127 0
M  V30 3402 H 309.117 2.99664 -6.41566 0
M  V30 3403 H 309.525 3.15457 -4.68132 0
M  V30 3404 N 308.923 1.53595 0.353017 0
M  V30 3405 C 310.169 1.70638 1.09593 0
M  V30 3406 C 310.502 0.463286 1.88593 0
M  V30 3407 O 309.777 -0.539597 1.86865 0
M  V30 3408 C 310.06 2.96406 2.04489 0
M  V30 3409 C 309.913 4.30901 1.29014 0
M  V30 3410 C 311.232 3.17812 3.0444 0
M  V30 3411 H 308.351 0.620913 0.397034 0
M  V30 3412 H 310.993 1.86254 0.375446 0
M  V30 3413 H 309.143 2.83223 2.65927 0
M  V30 3414 H 310.815 4.55917 0.702638 0
M  V30 3415 H 309.058 4.29741 0.592071 0
M  V30 3416 H 309.729 5.1506 1.98537 0
M  V30 3417 H 312.205 3.30263 2.53112 0
M  V30 3418 H 311.081 4.07223 3.6805 0
M  V30 3419 H 311.342 2.33669 3.75301 0
M  V30 3420 N 310.401 -0.613514 1.45168 0
M  V30 3421 C 311.641 -1.38405 1.5041 0
M  V30 3422 C 312.005 -1.91489 0.139922 0
M  V30 3423 O 313.206 -2.68716 0.067033 0
M  V30 3424 C 311.477 -2.50552 2.5487 0
M  V30 3425 S 313.036 -3.38439 2.79292 0
M  V30 3426 H 309.854 -0.471945 0.531779 0
M  V30 3427 H 312.456 -0.708518 1.82209 0
M  V30 3428 H 311.16 -2.09894 3.52665 0
M  V30 3429 H 310.691 -3.22913 2.24701 0
M  V30 3430 H 312.706 -4.48527 2.12222 0
M  V30 3431 N 311.879 -1.3236 -0.855495 0
M  V30 3432 C 313.127 -1.22629 -1.60644 0
M  V30 3433 C 313.448 0.212136 -1.93843 0
M  V30 3434 O 312.718 1.13666 -1.59552 0
M  V30 3435 H 311.298 -0.450882 -0.595579 0
M  V30 3436 H 313.96 -1.65871 -1.02337 0
M  V30 3437 H 313.056 -1.80832 -2.54374 0
M  V30 3438 N 313.357 1.07166 -1.15556 0
M  V30 3439 C 314.582 1.84053 -0.955988 0
M  V30 3440 C 315.007 1.81586 0.490739 0
M  V30 3441 O 314.365 1.21018 1.34997 0
M  V30 3442 C 314.413 3.28957 -1.47714 0
M  V30 3443 O 313.517 4.06795 -0.677593 0
M  V30 3444 H 312.858 0.569842 -0.340847 0
M  V30 3445 H 315.388 1.35178 -1.53584 0
M  V30 3446 H 315.398 3.79788 -1.4908 0
M  V30 3447 H 314.073 3.30068 -2.53037 0
M  V30 3448 H 312.65 3.6561 -0.733721 0
M  V30 3449 N 314.835 0.952656 1.25548 0
M  V30 3450 C 315.768 0.415525 2.24385 0
M  V30 3451 C 316.746 -0.502046 1.54655 0
M  V30 3452 O 317.93 -0.436875 1.83368 0
M  V30 3453 C 315.057 -0.401734 3.36309 0
M  V30 3454 C 314.103 0.455949 4.24056 0
M  V30 3455 S 314.936 1.88698 5.01152 0
M  V30 3456 C 316.092 1.07809 6.16545 0
M  V30 3457 H 316.325 1.25315 2.69599 0
M  V30 3458 H 313.858 0.756587 1.34592 0
M  V30 3459 H 315.816 -0.867329 4.01233 0
M  V30 3460 H 314.477 -1.21416 2.89684 0
M  V30 3461 H 313.67 -0.170776 5.03711 0
M  V30 3462 H 313.272 0.856675 3.64056 0
M  V30 3463 H 315.564 0.325816 6.76716 0
M  V30 3464 H 316.507 1.84849 6.83547 0
M  V30 3465 H 316.915 0.60909 5.61204 0
M  V30 3466 N 316.313 -1.40141 0.720998 0
M  V30 3467 C 317.724 -1.83678 0.334553 0
M  V30 3468 C 318.075 -1.6027 -1.13173 0
M  V30 3469 O 317.2 -1.08643 -1.87152 0
M  V30 3470 C 317.795 -3.33437 0.600437 0
M  V30 3471 C 316.354 -3.75447 0.267642 0
M  V30 3472 C 315.501 -2.63296 0.870097 0
M  V30 3473 H 318.452 -1.29331 0.919732 0
M  V30 3474 H 318.473 -3.80269 -0.132517 0
M  V30 3475 H 317.985 -3.50442 1.66768 0
M  V30 3476 H 316.086 -3.64035 -0.794329 0
M  V30 3477 H 316.199 -4.73344 0.74042 0
M  V30 3478 H 314.563 -2.52954 0.297739 0
M  V30 3479 H 315.346 -2.83112 1.94172 0
M  V30 3480 N 317.792 -0.46758 -1.50504 0
M  V30 3481 C 319.022 0.086288 -2.0642 0
M  V30 3482 C 319.43 1.34369 -1.33197 0
M  V30 3483 O 318.773 1.79431 -0.393747 0
M  V30 3484 C 318.835 0.443846 -3.5675 0
M  V30 3485 C 318.499 -0.711035 -4.51435 0
M  V30 3486 C 319.496 -1.59205 -4.94924 0
M  V30 3487 C 317.181 -0.900363 -4.94165 0
M  V30 3488 C 319.175 -2.64683 -5.79846 0
M  V30 3489 C 316.862 -1.95837 -5.7887 0
M  V30 3490 C 317.86 -2.82997 -6.21612 0
M  V30 3491 O 317.548 -3.86977 -7.0463 0
M  V30 3492 H 317.28 -0.00217814 -0.675996 0
M  V30 3493 H 319.834 -0.654346 -1.94698 0
M  V30 3494 H 318.064 1.23762 -3.6636 0
M  V30 3495 H 319.753 0.932386 -3.95046 0
M  V30 3496 H 320.519 -1.45745 -4.62583 0
M  V30 3497 H 316.398 -0.231427 -4.60419 0
M  V30 3498 H 319.942 -3.32745 -6.13128 0
M  V30 3499 H 315.839 -2.09305 -6.10624 0
M  V30 3500 H 316.607 -3.83923 -7.22873 0
M  V30 3501 N 319.27 1.56325 -0.20005 0
M  V30 3502 C 320.547 1.89484 0.48529 0
M  V30 3503 C 320.927 1.1143 1.79294 0
M  V30 3504 O 320.275 0.216919 2.27468 0
M  V30 3505 C 320.485 3.41923 0.699243 0
M  V30 3506 C 321.833 4.12256 1.01638 0
M  V30 3507 O 322.857 3.47402 0.786792 0
M  V30 3508 O 321.716 5.26887 1.45095 0
M  V30 3509 H 318.81 0.787144 0.253639 0
M  V30 3510 H 321.356 1.67985 -0.240633 0
M  V30 3511 H 320.128 3.90658 -0.224008 0
M  V30 3512 H 319.751 3.69131 1.47744 0
M  V30 3513 N 320.748 -0.0735177 1.57428 0
M  V30 3514 C 322.025 -0.805903 1.78226 0
M  V30 3515 C 322.405 -1.95874 0.787189 0
M  V30 3516 O 321.753 -2.2779 -0.180029 0
M  V30 3517 C 321.963 -1.28045 3.24662 0
M  V30 3518 C 323.311 -1.71453 3.88444 0
M  V30 3519 O 324.335 -1.37616 3.28543 0
M  V30 3520 O 323.194 -2.34093 4.93825 0
M  V30 3521 H 320.288 -0.386041 0.73137 0
M  V30 3522 H 322.834 -0.0537269 1.69615 0
M  V30 3523 H 321.606 -0.455476 3.8864 0
M  V30 3524 H 321.229 -2.094 3.37991 0
M  V30 3525 N 322.226 -1.5378 -0.344866 0
M  V30 3526 C 323.451 -1.75211 -1.10977 0
M  V30 3527 C 323.876 -0.48936 -1.81623 0
M  V30 3528 O 323.234 0.557925 -1.72502 0
M  V30 3529 C 323.282 -2.93147 -2.09993 0
M  V30 3530 O 322.386 -2.63203 -3.17487 0
M  V30 3531 H 321.727 -0.581241 -0.321021 0
M  V30 3532 H 324.257 -2.00738 -0.395661 0
M  V30 3533 H 324.267 -3.19898 -2.53237 0
M  V30 3534 H 322.942 -3.84731 -1.5797 0
M  V30 3535 H 321.519 -2.47336 -2.79069 0
M  V30 3536 N 323.704 0.605807 -1.45491 0
M  V30 3537 C 324.652 1.73754 -1.54636 0
M  V30 3538 C 325.646 1.64207 -0.416219 0
M  V30 3539 O 326.852 1.69979 -0.592199 0
M  V30 3540 H 323.227 0.574073 -0.485741 0
M  V30 3541 H 325.198 1.63169 -2.49837 0
M  V30 3542 C 323.947 3.12135 -1.53189 0
M  V30 3543 H 323.27 3.20141 -2.39478 0
M  V30 3544 H 324.71 3.91147 -1.63645 0
M  V30 3545 C 323.169 3.35921 -0.256616 0
M  V30 3546 O 323.699 3.96194 0.662798 0
M  V30 3547 N 321.905 2.90204 -0.151751 0
M  V30 3548 H 321.452 2.41336 -0.90081 0
M  V30 3549 H 321.41 3.06492 0.700699 0
M  V30 3550 N 325.182 1.32811 0.848464 0
M  V30 3551 C 326.431 1.23075 1.59798 0
M  V30 3552 C 326.744 -0.204419 1.94529 0
M  V30 3553 O 327.95 -0.423701 2.68173 0
M  V30 3554 C 326.406 2.15594 2.88179 0
M  V30 3555 C 326.014 3.64228 2.60849 0
M  V30 3556 C 327.758 2.14709 3.66197 0
M  V30 3557 C 325.665 4.48689 3.85269 0
M  V30 3558 H 324.595 0.457091 0.599653 0
M  V30 3559 H 327.246 1.57813 0.936342 0
M  V30 3560 H 325.628 1.73778 3.55833 0
M  V30 3561 H 326.802 4.14424 2.01467 0
M  V30 3562 H 325.117 3.67306 1.96151 0
M  V30 3563 H 327.714 2.75046 4.58534 0
M  V30 3564 H 328.057 1.13966 4.00397 0
M  V30 3565 H 328.59 2.54837 3.05455 0
M  V30 3566 H 325.329 5.5027 3.56207 0
M  V30 3567 H 324.849 4.03241 4.44024 0
M  V30 3568 H 326.528 4.62006 4.52946 0
M  V30 3569 N 326.66 -1.06551 1.16123 0
M  V30 3570 C 327.607 -2.13961 0.865414 0
M  V30 3571 C 328.577 -1.65066 -0.185055 0
M  V30 3572 O 329.762 -1.90732 -0.05083 0
M  V30 3573 C 326.902 -3.43113 0.369776 0
M  V30 3574 C 326.015 -4.05756 1.48276 0
M  V30 3575 C 325.15 -5.22773 0.942414 0
M  V30 3576 C 324.189 -5.77395 2.03179 0
M  V30 3577 N 323.326 -6.85731 1.50721 0
M  V30 3578 H 328.166 -2.38605 1.78527 0
M  V30 3579 H 325.703 -1.17072 0.890646 0
M  V30 3580 H 327.661 -4.17151 0.0640643 0
M  V30 3581 H 326.291 -3.18695 -0.513143 0
M  V30 3582 H 325.343 -3.29292 1.9045 0
M  V30 3583 H 326.655 -4.42351 2.30493 0
M  V30 3584 H 325.809 -6.03827 0.589729 0
M  V30 3585 H 324.548 -4.87618 0.0895191 0
M  V30 3586 H 323.553 -4.94981 2.3932 0
M  V30 3587 H 324.778 -6.14603 2.8886 0
M  V30 3588 H 322.724 -6.52499 0.676811 0
M  V30 3589 H 322.641 -7.21254 2.26557 0
M  V30 3590 H 323.909 -7.7047 1.18303 0
M  V30 3591 N 328.138 -0.959301 -1.25041 0
M  V30 3592 C 329.085 -0.482057 -2.2571 0
M  V30 3593 C 330.055 0.467939 -1.59372 0
M  V30 3594 O 331.24 0.380159 -1.86974 0
M  V30 3595 C 328.38 0.229623 -3.44335 0
M  V30 3596 C 327.493 -0.758156 -4.25295 0
M  V30 3597 C 326.628 -0.0234403 -5.31195 0
M  V30 3598 C 325.667 -1.00184 -6.03846 0
M  V30 3599 N 324.804 -0.29769 -7.01469 0
M  V30 3600 H 329.644 -1.34538 -2.65901 0
M  V30 3601 H 327.181 -0.674592 -1.3072 0
M  V30 3602 H 329.139 0.658856 -4.11965 0
M  V30 3603 H 327.769 1.05696 -3.05005 0
M  V30 3604 H 326.821 -1.30586 -3.57284 0
M  V30 3605 H 328.133 -1.50458 -4.75567 0
M  V30 3606 H 327.287 0.464201 -6.04922 0
M  V30 3607 H 326.026 0.755741 -4.81809 0
M  V30 3608 H 325.031 -1.50044 -5.2893 0
M  V30 3609 H 326.256 -1.78133 -6.55321 0
M  V30 3610 H 324.202 0.462668 -6.54366 0
M  V30 3611 H 324.119 -0.983128 -7.4958 0
M  V30 3612 H 325.387 0.16826 -7.79318 0
M  V30 3613 N 329.616 1.39756 -0.72842 0
M  V30 3614 C 330.549 2.28176 -0.0330172 0
M  V30 3615 C 331.527 1.44035 0.754501 0
M  V30 3616 O 332.711 1.73434 0.738445 0
M  V30 3617 C 329.838 3.24795 0.960504 0
M  V30 3618 C 328.884 4.25693 0.262264 0
M  V30 3619 S 329.717 5.25714 -1.01906 0
M  V30 3620 C 330.873 6.25894 -0.0279717 0
M  V30 3621 H 331.106 2.86807 -0.78287 0
M  V30 3622 H 328.639 1.45382 -0.519951 0
M  V30 3623 H 330.597 3.80983 1.52846 0
M  V30 3624 H 329.258 2.65196 1.68315 0
M  V30 3625 H 328.451 4.93699 1.01379 0
M  V30 3626 H 328.053 3.7327 -0.233482 0
M  V30 3627 H 330.345 6.72585 0.814621 0
M  V30 3628 H 331.288 7.04876 -0.67499 0
M  V30 3629 H 331.696 5.63466 0.341489 0
M  V30 3630 N 331.094 0.475555 1.50254 0
M  V30 3631 C 332.024 -0.30611 2.31485 0
M  V30 3632 C 333.005 -0.986228 1.38591 0
M  V30 3633 O 334.19 -0.982541 1.67511 0
M  V30 3634 C 331.32 -1.38588 3.1845 0
M  V30 3635 C 330.274 -0.827115 4.19932 0
M  V30 3636 C 329.6 -2.00551 4.95665 0
M  V30 3637 C 330.9 0.16463 5.2204 0
M  V30 3638 H 332.594 0.371866 2.97082 0
M  V30 3639 H 330.14 0.180282 1.42867 0
M  V30 3640 H 332.093 -1.94023 3.74076 0
M  V30 3641 H 330.817 -2.09269 2.50747 0
M  V30 3642 H 329.476 -0.294702 3.65414 0
M  V30 3643 H 329.124 -2.6994 4.2443 0
M  V30 3644 H 328.824 -1.63784 5.64313 0
M  V30 3645 H 330.348 -2.56468 5.54127 0
M  V30 3646 H 331.762 -0.300699 5.72511 0
M  V30 3647 H 330.159 0.446813 5.98434 0
M  V30 3648 H 331.229 1.08905 4.72512 0
M  V30 3649 N 332.573 -1.56217 0.208337 0
M  V30 3650 C 333.989 -1.58919 -0.14729 0
M  V30 3651 C 334.189 -1.22486 -1.59998 0
M  V30 3652 O 333.245 -0.953849 -2.3379 0
M  V30 3653 C 334.558 -3.00236 0.167048 0
M  V30 3654 C 336.106 -3.12813 0.108219 0
M  V30 3655 C 336.581 -4.56284 0.396049 0
M  V30 3656 N 338.072 -4.61912 0.345142 0
M  V30 3657 C 338.807 -5.70837 0.541523 0
M  V30 3658 N 338.303 -6.88178 0.798968 0
M  V30 3659 N 340.096 -5.60091 0.474867 0
M  V30 3660 H 332.247 -1.78177 1.15614 0
M  V30 3661 H 334.51 -0.827555 0.462446 0
M  V30 3662 H 334.216 -3.31499 1.1748 0
M  V30 3663 H 334.09 -3.7354 -0.524184 0
M  V30 3664 H 336.477 -2.81354 -0.890157 0
M  V30 3665 H 336.558 -2.41866 0.832729 0
M  V30 3666 H 336.202 -4.88458 1.3918 0
M  V30 3667 H 336.132 -5.25439 -0.349502 0
M  V30 3668 H 338.623 -3.77589 0.153316 0
M  V30 3669 H 338.936 -7.67095 0.93727 0
M  V30 3670 H 337.281 -6.89953 0.836013 0
M  V30 3671 H 340.472 -4.67297 0.274064 0
M  V30 3672 H 340.645 -6.44917 0.631326 0
M  V30 3673 N 334.051 0.0651679 -1.57465 0
M  V30 3674 C 335.3 0.761916 -1.86756 0
M  V30 3675 C 335.613 1.78406 -0.801925 0
M  V30 3676 O 336.819 2.53084 -0.982885 0
M  V30 3677 C 335.275 1.40603 -3.31299 0
M  V30 3678 C 334.883 0.422115 -4.46007 0
M  V30 3679 C 336.627 2.08476 -3.69781 0
M  V30 3680 C 334.534 1.07252 -5.81593 0
M  V30 3681 H 333.464 0.288308 -0.696702 0
M  V30 3682 H 336.115 0.015344 -1.83494 0
M  V30 3683 H 334.497 2.20109 -3.29193 0
M  V30 3684 H 335.671 -0.343613 -4.59517 0
M  V30 3685 H 333.986 -0.152527 -4.16121 0
M  V30 3686 H 336.583 2.57925 -4.68379 0
M  V30 3687 H 336.926 2.88712 -2.99919 0
M  V30 3688 H 337.459 1.35792 -3.73905 0
M  V30 3689 H 334.198 0.310342 -6.54765 0
M  V30 3690 H 333.718 1.80895 -5.71872 0
M  V30 3691 H 335.397 1.59043 -6.27148 0
M  V30 3692 N 335.529 1.53961 0.336706 0
M  V30 3693 C 336.461 1.78751 1.4346 0
M  V30 3694 C 337.474 0.669019 1.48418 0
M  V30 3695 O 338.663 0.945884 1.51378 0
M  V30 3696 C 335.763 1.87844 2.82078 0
M  V30 3697 C 334.936 3.17854 3.00479 0
M  V30 3698 C 333.995 3.17816 4.19379 0
M  V30 3699 O 333.021 3.91511 4.13168 0
M  V30 3700 N 334.223 2.40669 5.2826 0
M  V30 3701 H 336.988 2.73493 1.22563 0
M  V30 3702 H 334.549 1.53096 0.526625 0
M  V30 3703 H 336.541 1.85261 3.59806 0
M  V30 3704 H 335.111 1.00257 2.96086 0
M  V30 3705 H 334.331 3.33504 2.10163 0
M  V30 3706 H 335.619 4.03718 3.0966 0
M  V30 3707 H 335.017 1.8036 5.36178 0
M  V30 3708 H 333.574 2.43877 6.04456 0
M  V30 3709 N 337.007 -0.598083 1.45811 0
M  V30 3710 C 337.954 -1.7082 1.55207 0
M  V30 3711 C 338.924 -1.61278 0.39732 0
M  V30 3712 O 340.109 -1.80717 0.612038 0
M  V30 3713 C 337.249 -3.09144 1.53376 0
M  V30 3714 C 336.362 -3.29423 2.79472 0
M  V30 3715 C 335.497 -4.57907 2.69248 0
M  V30 3716 C 334.536 -4.71476 3.90354 0
M  V30 3717 N 333.673 -5.9127 3.78608 0
M  V30 3718 H 338.513 -1.62125 2.50039 0
M  V30 3719 H 336.05 -0.790389 1.24062 0
M  V30 3720 H 338.008 -3.89186 1.50301 0
M  V30 3721 H 336.638 -3.16773 0.620876 0
M  V30 3722 H 335.69 -2.43091 2.92594 0
M  V30 3723 H 337.002 -3.3532 3.69272 0
M  V30 3724 H 336.156 -5.46157 2.64192 0
M  V30 3725 H 334.895 -4.54423 1.77063 0
M  V30 3726 H 333.9 -3.81648 3.95759 0
M  V30 3727 H 335.125 -4.76751 4.83617 0
M  V30 3728 H 333.071 -5.88813 2.89199 0
M  V30 3729 H 332.988 -5.98369 4.6205 0
M  V30 3730 H 334.256 -6.81992 3.77501 0
M  V30 3731 N 338.485 -1.33259 -0.841409 0
M  V30 3732 C 339.395 -1.25332 -1.98316 0
M  V30 3733 C 340.411 -0.164364 -1.73222 0
M  V30 3734 O 341.587 -0.387486 -1.97637 0
M  V30 3735 C 338.652 -0.990078 -3.32262 0
M  V30 3736 C 337.713 -2.16879 -3.70489 0
M  V30 3737 C 336.946 -1.91801 -4.98044 0
M  V30 3738 O 337.169 -0.867075 -5.63771 0
M  V30 3739 O 336.103 -2.78267 -5.33714 0
M  V30 3740 H 339.929 -2.21344 -2.07944 0
M  V30 3741 H 337.514 -1.1328 -0.974058 0
M  V30 3742 H 339.396 -0.860321 -4.12524 0
M  V30 3743 H 338.071 -0.0602155 -3.23644 0
M  V30 3744 H 336.978 -2.35407 -2.90748 0
M  V30 3745 H 338.311 -3.0819 -3.8377 0
M  V30 3746 N 339.963 1.05934 -1.16686 0
M  V30 3747 C 340.913 2.11764 -0.844978 0
M  V30 3748 C 341.897 1.59922 0.177178 0
M  V30 3749 O 343.089 1.76983 -0.0241768 0
M  V30 3750 C 340.218 3.41493 -0.351812 0
M  V30 3751 C 339.304 4.00152 -1.40496 0
M  V30 3752 N 339.695 4.32874 -2.61636 0
M  V30 3753 C 337.993 4.278 -1.26106 0
M  V30 3754 C 338.694 4.79552 -3.29249 0
M  V30 3755 N 337.67 4.79211 -2.56628 0
M  V30 3756 H 341.472 2.34916 -1.76612 0
M  V30 3757 H 338.986 1.23511 -1.05446 0
M  V30 3758 H 340.983 4.16773 -0.102796 0
M  V30 3759 H 339.643 3.19778 0.56322 0
M  V30 3760 H 340.654 4.23109 -2.98663 0
M  V30 3761 H 337.331 4.15511 -0.407081 0
M  V30 3762 H 338.721 5.14045 -4.32675 0
M  V30 3763 N 341.441 0.965919 1.2453 0
M  V30 3764 C 342.857 0.67216 1.44756 0
M  V30 3765 C 343.057 -0.766609 1.86347 0
M  V30 3766 O 342.113 -1.5407 2.00047 0
M  V30 3767 C 343.426 1.65473 2.51076 0
M  V30 3768 C 344.974 1.66716 2.64905 0
M  V30 3769 C 345.449 2.63766 3.74421 0
M  V30 3770 N 346.94 2.62198 3.81846 0
M  V30 3771 C 347.675 3.33966 4.66106 0
M  V30 3772 N 347.171 4.15245 5.54566 0
M  V30 3773 N 348.964 3.22799 4.60171 0
M  V30 3774 H 341.115 1.89553 0.958293 0
M  V30 3775 H 343.378 0.815979 0.482579 0
M  V30 3776 H 343.084 2.68296 2.27399 0
M  V30 3777 H 342.958 1.4261 3.49202 0
M  V30 3778 H 345.345 0.646057 2.87941 0
M  V30 3779 H 345.426 1.93642 1.67142 0
M  V30 3780 H 345.07 3.6601 3.52135 0
M  V30 3781 H 345 2.34121 4.71694 0
M  V30 3782 H 347.491 2.032 3.18619 0
M  V30 3783 H 347.804 4.66898 6.15814 0
M  V30 3784 H 346.149 4.1934 5.54237 0
M  V30 3785 H 349.34 2.58764 3.90075 0
M  V30 3786 H 349.513 3.78994 5.25612 0
M  V30 3787 N 342.919 -1.39368 0.735821 0
M  V30 3788 C 344.165 -2.00794 0.284544 0
M  V30 3789 C 344.498 -1.58255 -1.12557 0
M  V30 3790 O 343.773 -0.811819 -1.76748 0
M  V30 3791 C 344.056 -3.58011 0.387337 0
M  V30 3792 C 343.909 -4.10566 1.83728 0
M  V30 3793 C 345.228 -4.395 -0.22975 0
M  V30 3794 H 342.347 -0.729501 0.104866 0
M  V30 3795 H 344.989 -1.65564 0.93213 0
M  V30 3796 H 343.139 -3.88154 -0.164006 0
M  V30 3797 H 344.811 -3.91139 2.44556 0
M  V30 3798 H 343.054 -3.64095 2.35833 0
M  V30 3799 H 343.725 -5.19702 1.86047 0
M  V30 3800 H 346.201 -4.15406 0.240257 0
M  V30 3801 H 345.077 -5.48752 -0.127485 0
M  V30 3802 H 345.338 -4.22062 -1.3159 0
M  V30 3803 N 344.397 -0.483516 -1.5 0
M  V30 3804 C 345.345 0.318061 -2.30415 0
M  V30 3805 C 346.339 0.978988 -1.38247 0
M  V30 3806 O 347.545 0.908673 -1.55381 0
M  V30 3807 H 343.92 0.121419 -0.742133 0
M  V30 3808 H 345.891 -0.380403 -2.95965 0
M  V30 3809 C 344.64 1.38013 -3.19136 0
M  V30 3810 H 343.963 0.880952 -3.89973 0
M  V30 3811 H 345.403 1.91332 -3.78375 0
M  V30 3812 C 343.862 2.38884 -2.37563 0
M  V30 3813 O 344.392 3.44412 -2.06744 0
M  V30 3814 N 342.598 2.10912 -1.99911 0
M  V30 3815 H 342.145 1.25118 -2.25174 0
M  V30 3816 H 342.103 2.78635 -1.45636 0
M  V30 3817 N 345.875 1.56104 -0.216619 0
M  V30 3818 C 347.122 1.98172 0.416416 0
M  V30 3819 C 347.45 1.10413 1.60122 0
M  V30 3820 O 346.705 0.147967 1.9514 0
M  V30 3821 C 347.004 3.45923 0.898464 0
M  V30 3822 C 346.67 4.50559 -0.175288 0
M  V30 3823 C 345.332 4.78897 -0.470271 0
M  V30 3824 C 347.684 5.1334 -0.901728 0
M  V30 3825 C 345.012 5.67299 -1.4963 0
M  V30 3826 C 347.364 6.02853 -1.91705 0
M  V30 3827 C 346.028 6.29537 -2.21901 0
M  V30 3828 H 345.298 0.725164 0.152377 0
M  V30 3829 H 347.945 1.88839 -0.318103 0
M  V30 3830 H 346.25 3.52434 1.71165 0
M  V30 3831 H 347.947 3.75841 1.39803 0
M  V30 3832 H 344.537 4.28551 0.0647806 0
M  V30 3833 H 348.721 4.91521 -0.687072 0
M  V30 3834 H 343.977 5.86239 -1.73592 0
M  V30 3835 H 348.151 6.50552 -2.48505 0
M  V30 3836 H 345.778 6.97835 -3.01548 0
M  V30 3837 N 347.353 -0.0568162 1.57498 0
M  V30 3838 C 348.764 -0.606858 1.76562 0
M  V30 3839 C 349.115 -1.77114 0.844094 0
M  V30 3840 O 348.24 -2.16376 0.0318911 0
M  V30 3841 C 348.835 -1.10766 3.20182 0
M  V30 3842 C 347.394 -1.60344 3.40539 0
M  V30 3843 C 346.541 -0.529311 2.72201 0
M  V30 3844 H 349.492 0.169393 1.57793 0
M  V30 3845 H 349.513 -1.97602 3.25167 0
M  V30 3846 H 349.025 -0.26006 3.87228 0
M  V30 3847 H 347.126 -2.47379 2.78629 0
M  V30 3848 H 347.239 -1.67006 4.4905 0
M  V30 3849 H 345.603 -0.977893 2.35179 0
M  V30 3850 H 346.386 0.308352 3.41912 0
M  V30 3851 N 348.832 -1.54138 -0.328536 0
M  V30 3852 C 350.248 -1.44736 -0.672574 0
M  V30 3853 C 350.448 -0.616217 -1.91846 0
M  V30 3854 O 349.504 -0.113067 -2.52247 0
M  V30 3855 C 350.817 -2.884 -0.851217 0
M  V30 3856 C 352.365 -2.98271 -0.948877 0
M  V30 3857 C 352.84 -4.43074 -1.15973 0
M  V30 3858 N 354.331 -4.46665 -1.22658 0
M  V30 3859 C 355.066 -5.55857 -1.40751 0
M  V30 3860 N 354.562 -6.75026 -1.5592 0
M  V30 3861 N 356.355 -5.43495 -1.4342 0
M  V30 3862 H 348.506 -2.06661 0.490421 0
M  V30 3863 H 350.769 -0.934812 0.157579 0
M  V30 3864 H 350.475 -3.51699 -0.00704236 0
M  V30 3865 H 350.349 -3.34225 -1.74853 0
M  V30 3866 H 352.736 -2.35102 -1.78356 0
M  V30 3867 H 352.817 -2.55785 -0.0281435 0
M  V30 3868 H 352.461 -5.06827 -0.329915 0
M  V30 3869 H 352.391 -4.83165 -2.09426 0
M  V30 3870 H 354.882 -3.60797 -1.124 0
M  V30 3871 H 355.195 -7.54004 -1.69404 0
M  V30 3872 H 353.54 -6.77944 -1.53027 0
M  V30 3873 H 356.731 -4.49349 -1.31162 0
M  V30 3874 H 356.904 -6.28649 -1.57178 0
M  V30 3875 N 350.31 0.590341 -1.46126 0
M  V30 3876 C 351.535 1.37991 -1.54833 0
M  V30 3877 C 351.96 1.87163 -0.187506 0
M  V30 3878 O 351.318 1.61133 0.831008 0
M  V30 3879 C 351.366 2.54867 -2.55098 0
M  V30 3880 O 350.47 3.56061 -2.08073 0
M  V30 3881 H 349.811 0.411265 -0.521303 0
M  V30 3882 H 352.341 0.716819 -1.91632 0
M  V30 3883 H 352.351 3.01886 -2.74461 0
M  V30 3884 H 351.026 2.18429 -3.53923 0
M  V30 3885 H 349.603 3.15574 -1.98664 0
M  V30 3886 N 351.788 1.33704 0.83433 0
M  V30 3887 C 352.735 1.24335 1.94447 0
M  V30 3888 C 353.705 0.120991 1.65659 0
M  V30 3889 O 354.89 0.300035 1.88426 0
M  V30 3890 C 352.03 0.993124 3.30501 0
M  V30 3891 C 351.143 2.20217 3.71657 0
M  V30 3892 C 350.278 1.88572 4.96602 0
M  V30 3893 C 349.317 3.05683 5.30306 0
M  V30 3894 N 348.454 2.73997 6.46429 0
M  V30 3895 H 353.294 2.1928 2.01792 0
M  V30 3896 H 350.831 1.09035 0.987404 0
M  V30 3897 H 352.789 0.828467 4.08892 0
M  V30 3898 H 351.419 0.0803902 3.227 0
M  V30 3899 H 350.471 2.47642 2.88752 0
M  V30 3900 H 351.783 3.07752 3.92543 0
M  V30 3901 H 350.937 1.68776 5.82752 0
M  V30 3902 H 349.676 0.982799 4.77695 0
M  V30 3903 H 348.681 3.26088 4.42659 0
M  V30 3904 H 349.906 3.96737 5.51159 0
M  V30 3905 H 347.852 1.86268 6.28999 0
M  V30 3906 H 347.769 3.55064 6.67432 0
M  V30 3907 H 349.037 2.57679 7.35678 0
M  V30 3908 N 353.266 -1.05314 1.17247 0
M  V30 3909 C 354.216 -2.11313 0.856196 0
M  V30 3910 C 355.2 -1.60013 -0.168694 0
M  V30 3911 O 356.392 -1.76968 0.0335624 0
M  V30 3912 C 353.521 -3.41301 0.369917 0
M  V30 3913 C 352.607 -3.99401 1.42616 0
M  V30 3914 N 352.998 -4.31481 2.63928 0
M  V30 3915 C 351.296 -4.27126 1.28373 0
M  V30 3916 C 351.997 -4.77799 3.31787 0
M  V30 3917 N 350.973 -4.77843 2.59166 0
M  V30 3918 H 354.775 -2.33976 1.77856 0
M  V30 3919 H 352.289 -1.2295 1.06099 0
M  V30 3920 H 354.286 -4.16713 0.124897 0
M  V30 3921 H 352.946 -3.20072 -0.546253 0
M  V30 3922 H 353.957 -4.21519 3.00902 0
M  V30 3923 H 350.634 -4.15289 0.429111 0
M  V30 3924 H 352.024 -5.11743 4.35395 0
M  V30 3925 N 354.744 -0.972509 -1.24016 0
M  V30 3926 C 355.674 -0.525548 -2.27509 0
M  V30 3927 C 356.655 0.437262 -1.64384 0
M  V30 3928 O 357.84 0.332343 -1.91335 0
M  V30 3929 C 354.97 0.180448 -3.46831 0
M  V30 3930 C 353.924 -0.698859 -4.22256 0
M  V30 3931 C 353.25 0.138903 -5.3452 0
M  V30 3932 C 354.55 -1.98582 -4.83076 0
M  V30 3933 H 356.244 -1.39058 -2.65148 0
M  V30 3934 H 353.79 -0.67009 -1.27459 0
M  V30 3935 H 355.743 0.504387 -4.18371 0
M  V30 3936 H 354.467 1.07987 -3.08231 0
M  V30 3937 H 353.126 -1.00614 -3.52523 0
M  V30 3938 H 352.774 1.03862 -4.9216 0
M  V30 3939 H 352.474 -0.446259 -5.85903 0
M  V30 3940 H 353.998 0.457404 -6.08884 0
M  V30 3941 H 355.412 -1.72715 -5.46665 0
M  V30 3942 H 353.809 -2.5181 -5.44713 0
M  V30 3943 H 354.879 -2.67769 -4.04262 0
M  V30 3944 N 356.222 1.38976 -0.743202 0
M  V30 3945 C 357.45 2.04636 -0.30525 0
M  V30 3946 C 357.865 1.56044 1.06281 0
M  V30 3947 O 357.222 0.728921 1.67311 0
M  V30 3948 C 357.273 3.60193 -0.307177 0
M  V30 3949 O 356.994 4.06998 -1.62124 0
M  V30 3950 C 358.495 4.4306 0.145928 0
M  V30 3951 H 355.715 0.65788 -0.132041 0
M  V30 3952 H 358.259 1.77866 -1.00915 0
M  V30 3953 H 356.414 3.85835 0.347898 0
M  V30 3954 H 356.828 5.01371 -1.54036 0
M  V30 3955 H 358.302 5.51921 0.0934183 0
M  V30 3956 H 358.779 4.22706 1.19231 0
M  V30 3957 H 359.385 4.22584 -0.479886 0
M  V30 3958 N 357.7 0.491464 1.49741 0
M  V30 3959 C 358.948 -0.0563141 2.02022 0
M  V30 3960 C 359.269 -1.38363 1.37407 0
M  V30 3961 O 358.539 -1.88702 0.526166 0
M  V30 3962 H 357.119 -0.0238014 0.746621 0
M  V30 3963 H 359.781 0.646533 1.83864 0
M  V30 3964 H 358.877 -0.192967 3.11503 0
M  V30 3965 N 359.178 -1.55987 0.224894 0
M  V30 3966 C 360.088 -2.24066 -0.69511 0
M  V30 3967 C 361.104 -1.24939 -1.21104 0
M  V30 3968 O 362.28 -1.5776 -1.25195 0
M  V30 3969 C 359.345 -2.90983 -1.88493 0
M  V30 3970 C 358.406 -4.05462 -1.41064 0
M  V30 3971 C 357.639 -4.69179 -2.54375 0
M  V30 3972 O 357.862 -4.31895 -3.72589 0
M  V30 3973 O 356.796 -5.58108 -2.25386 0
M  V30 3974 H 360.622 -3.03353 -0.145149 0
M  V30 3975 H 358.207 -1.49399 -0.00569476 0
M  V30 3976 H 360.089 -3.33209 -2.57972 0
M  V30 3977 H 358.764 -2.14653 -2.42293 0
M  V30 3978 H 357.671 -3.67798 -0.683774 0
M  V30 3979 H 359.004 -4.83545 -0.918985 0
M  V30 3980 N 360.656 0.0484629 -1.57525 0
M  V30 3981 C 361.896 0.748196 -1.90214 0
M  V30 3982 C 362.26 1.73545 -0.821347 0
M  V30 3983 O 363.461 2.48201 -1.03198 0
M  V30 3984 C 361.732 1.41727 -3.28098 0
M  V30 3985 S 363.291 2.14884 -3.82584 0
M  V30 3986 H 360.109 0.248307 -0.666232 0
M  V30 3987 H 362.711 0.00343188 -1.955 0
M  V30 3988 H 361.415 0.685244 -4.04639 0
M  V30 3989 H 360.946 2.20099 -3.26068 0
M  V30 3990 H 362.961 3.41755 -3.59747 0
M  V30 3991 N 362.134 1.5431 0.320358 0
M  V30 3992 C 363.081 1.83918 1.39438 0
M  V30 3993 C 364.051 0.686525 1.51248 0
M  V30 3994 O 365.236 0.933269 1.66417 0
M  V30 3995 C 362.376 2.075 2.75749 0
M  V30 3996 C 361.489 3.35177 2.72544 0
M  V30 3997 C 360.624 3.48704 4.00723 0
M  V30 3998 C 359.663 4.70244 3.91838 0
M  V30 3999 N 358.8 4.80679 5.11754 0
M  V30 4000 H 363.64 2.75544 1.13489 0
M  V30 4001 H 361.177 1.36459 0.549309 0
M  V30 4002 H 363.135 2.19166 3.54996 0
M  V30 4003 H 361.765 1.19163 3 0
M  V30 4004 H 360.817 3.32233 1.85271 0
M  V30 4005 H 362.129 4.24534 2.61863 0
M  V30 4006 H 361.283 3.59928 4.88402 0
M  V30 4007 H 360.022 2.57445 4.14214 0
M  V30 4008 H 359.027 4.59072 3.02544 0
M  V30 4009 H 360.252 5.6289 3.7991 0
M  V30 4010 H 358.198 3.92337 5.25745 0
M  V30 4011 H 358.115 5.64007 5.0342 0
M  V30 4012 H 359.383 4.96239 6.01138 0
M  V30 4013 N 363.613 -0.582584 1.46437 0
M  V30 4014 C 364.89 -1.34276 1.4223 0
M  V30 4015 C 365.27 -2.10835 0.10583 0
M  V30 4016 O 364.618 -2.09485 -0.912596 0
M  V30 4017 C 364.828 -2.26865 2.65204 0
M  V30 4018 C 366.176 -2.88691 3.11356 0
M  V30 4019 O 367.2 -2.37178 2.65753 0
M  V30 4020 O 366.059 -3.82255 3.90568 0
M  V30 4021 H 363.153 -0.603326 0.565621 0
M  V30 4022 H 365.699 -0.603591 1.58603 0
M  V30 4023 H 364.471 -1.69724 3.52576 0
M  V30 4024 H 364.094 -3.08122 2.5129 0
M  V30 4025 N 365.091 -1.34144 -0.827227 0
M  V30 4026 C 366.021 -1.28005 -1.95287 0
M  V30 4027 C 367.002 -0.158321 -1.69362 0
M  V30 4028 O 368.187 -0.349987 -1.9102 0
M  V30 4029 C 365.317 -1.03036 -3.31664 0
M  V30 4030 C 364.271 -2.11628 -3.72019 0
M  V30 4031 C 363.597 -1.71854 -5.0633 0
M  V30 4032 C 364.897 -3.53417 -3.8457 0
M  V30 4033 H 366.591 -2.22187 -2.00682 0
M  V30 4034 H 364.137 -1.0696 -0.964135 0
M  V30 4035 H 366.09 -0.973863 -4.09993 0
M  V30 4036 H 364.814 -0.0529391 -3.26557 0
M  V30 4037 H 363.473 -2.16339 -2.95961 0
M  V30 4038 H 363.121 -0.727841 -4.97706 0
M  V30 4039 H 362.821 -2.44531 -5.34302 0
M  V30 4040 H 364.345 -1.67692 -5.87122 0
M  V30 4041 H 365.759 -3.51142 -4.5318 0
M  V30 4042 H 364.156 -4.24679 -4.2399 0
M  V30 4043 H 365.226 -3.91072 -2.86689 0
M  V30 4044 N 366.569 1.04691 -1.17803 0
M  V30 4045 C 367.818 1.77176 -0.963931 0
M  V30 4046 C 368.131 1.88888 0.508015 0
M  V30 4047 O 369.337 2.58164 0.840465 0
M  V30 4048 C 367.793 3.18518 -1.67555 0
M  V30 4049 C 367.401 3.14919 -3.18637 0
M  V30 4050 C 369.145 3.95424 -1.54402 0
M  V30 4051 C 367.052 4.51081 -3.82466 0
M  V30 4052 H 365.982 0.664116 -0.357023 0
M  V30 4053 H 368.633 1.17303 -1.4111 0
M  V30 4054 H 367.015 3.78748 -1.15613 0
M  V30 4055 H 368.189 2.64178 -3.77554 0
M  V30 4056 H 366.504 2.51512 -3.31859 0
M  V30 4057 H 369.101 4.96106 -1.99456 0
M  V30 4058 H 369.444 4.13343 -0.495329 0
M  V30 4059 H 369.977 3.41754 -2.0359 0
M  V30 4060 H 366.716 4.38368 -4.87354 0
M  V30 4061 H 366.236 5.01951 -3.28337 0
M  V30 4062 H 367.915 5.2001 -3.84965 0
M  V30 4063 N 368.047 0.979072 1.23499 0
M  V30 4064 C 369.277 0.664237 1.95631 0
M  V30 4065 C 369.685 -0.772653 1.72704 0
M  V30 4066 O 369.028 -1.53141 1.01457 0
M  V30 4067 C 369.09 0.873115 3.48736 0
M  V30 4068 C 368.754 2.29182 3.95379 0
M  V30 4069 C 369.751 3.2704 4.04155 0
M  V30 4070 C 367.436 2.62256 4.28401 0
M  V30 4071 C 369.43 4.56052 4.45304 0
M  V30 4072 C 367.117 3.91491 4.69231 0
M  V30 4073 C 368.115 4.88201 4.77649 0
M  V30 4074 O 367.803 6.15129 5.17563 0
M  V30 4075 H 367.535 0.245915 0.629684 0
M  V30 4076 H 370.089 1.3127 1.57979 0
M  V30 4077 H 368.319 0.167476 3.86337 0
M  V30 4078 H 370.008 0.555642 4.02079 0
M  V30 4079 H 370.774 3.02819 3.78848 0
M  V30 4080 H 366.653 1.87692 4.21061 0
M  V30 4081 H 370.197 5.31538 4.51789 0
M  V30 4082 H 366.094 4.15508 4.93987 0
M  V30 4083 H 366.862 6.18862 5.35679 0
M  V30 4084 N 369.525 -1.3858 0.750561 0
M  V30 4085 C 370.475 -2.27795 0.0965949 0
M  V30 4086 C 371.459 -1.45048 -0.696411 0
M  V30 4087 O 372.651 -1.67812 -0.562863 0
M  V30 4088 C 369.78 -3.33894 -0.798085 0
M  V30 4089 C 368.866 -4.241 0.0016067 0
M  V30 4090 N 369.257 -4.95067 1.03647 0
M  V30 4091 C 367.555 -4.45429 -0.225674 0
M  V30 4092 C 368.256 -5.61489 1.52004 0
M  V30 4093 N 367.232 -5.37135 0.835874 0
M  V30 4094 H 371.034 -2.80125 0.889228 0
M  V30 4095 H 368.548 -1.51446 0.586323 0
M  V30 4096 H 370.545 -3.96693 -1.28219 0
M  V30 4097 H 369.205 -2.83123 -1.5897 0
M  V30 4098 H 370.216 -4.98104 1.41819 0
M  V30 4099 H 366.893 -4.05571 -0.990872 0
M  V30 4100 H 368.283 -6.28264 2.38188 0
M  V30 4101 N 371.003 -0.499398 -1.49478 0
M  V30 4102 C 371.936 0.326491 -2.25852 0
M  V30 4103 C 372.914 0.971776 -1.30366 0
M  V30 4104 O 374.098 1.00219 -1.59651 0
M  V30 4105 C 371.225 1.45969 -3.05632 0
M  V30 4106 C 370.271 0.928938 -4.16261 0
M  V30 4107 S 371.104 -0.179012 -5.35201 0
M  V30 4108 C 372.26 0.957389 -6.18534 0
M  V30 4109 H 372.493 -0.321746 -2.95554 0
M  V30 4110 H 370.026 -0.284674 -1.51753 0
M  V30 4111 H 371.984 2.109 -3.52181 0
M  V30 4112 H 370.645 2.07953 -2.35402 0
M  V30 4113 H 369.838 1.77813 -4.71592 0
M  V30 4114 H 369.44 0.356869 -3.72293 0
M  V30 4115 H 371.732 1.86296 -6.51383 0
M  V30 4116 H 372.675 0.442733 -7.06715 0
M  V30 4117 H 373.083 1.224 -5.5107 0
M  V30 4118 N 372.481 1.55866 -0.233164 0
M  V30 4119 C 373.411 2.23783 0.666599 0
M  V30 4120 C 374.392 1.21343 1.19205 0
M  V30 4121 O 375.577 1.4996 1.23392 0
M  V30 4122 C 372.707 2.92671 1.86978 0
M  V30 4123 C 371.661 4.01682 1.47768 0
M  V30 4124 C 370.987 4.57926 2.76058 0
M  V30 4125 C 372.287 5.18126 0.658993 0
M  V30 4126 H 373.981 2.99232 0.100306 0
M  V30 4127 H 371.527 1.43924 0.046804 0
M  V30 4128 H 373.48 3.3888 2.50476 0
M  V30 4129 H 372.204 2.14688 2.46123 0
M  V30 4130 H 370.863 3.56222 0.866106 0
M  V30 4131 H 370.511 3.76659 3.33372 0
M  V30 4132 H 370.211 5.31505 2.50552 0
M  V30 4133 H 371.735 5.06859 3.40479 0
M  V30 4134 H 373.149 5.60644 1.19795 0
M  V30 4135 H 371.546 5.98009 0.500552 0
M  V30 4136 H 372.616 4.83763 -0.331856 0
M  V30 4137 N 373.959 -0.0401083 1.57549 0
M  V30 4138 C 374.891 -1.07149 2.02612 0
M  V30 4139 C 375.904 -1.33126 0.937085 0
M  V30 4140 O 377.093 -1.30808 1.21456 0
M  V30 4141 C 374.193 -2.41561 2.37701 0
M  V30 4142 C 373.366 -2.35096 3.68848 0
M  V30 4143 C 372.425 -3.51867 3.91249 0
M  V30 4144 O 371.451 -3.3186 4.62447 0
M  V30 4145 N 372.653 -4.73351 3.36035 0
M  V30 4146 H 375.418 -0.687485 2.91708 0
M  V30 4147 H 372.979 -0.228248 1.60283 0
M  V30 4148 H 374.971 -3.18379 2.49833 0
M  V30 4149 H 373.541 -2.71846 1.54332 0
M  V30 4150 H 372.761 -1.4345 3.67173 0
M  V30 4151 H 374.049 -2.27908 4.54901 0
M  V30 4152 H 373.447 -4.92507 2.78304 0
M  V30 4153 H 372.004 -5.47572 3.53565 0
M  V30 4154 N 375.437 -1.54477 -0.31217 0
M  V30 4155 C 376.848 -1.64344 -0.885891 0
M  V30 4156 C 377.199 -0.54485 -1.88483 0
M  V30 4157 O 376.324 0.320387 -2.14015 0
M  V30 4158 C 376.919 -2.97908 -1.61357 0
M  V30 4159 C 375.478 -3.09933 -2.13585 0
M  V30 4160 C 374.625 -2.59971 -0.964897 0
M  V30 4161 H 377.576 -1.58448 -0.0894528 0
M  V30 4162 H 377.597 -2.88706 -2.47848 0
M  V30 4163 H 377.109 -3.77845 -0.886277 0
M  V30 4164 H 375.21 -2.34694 -2.89395 0
M  V30 4165 H 375.323 -4.15916 -2.37804 0
M  V30 4166 H 373.687 -2.16147 -1.34731 0
M  V30 4167 H 374.47 -3.42376 -0.251742 0
M  V30 4168 N 376.915 0.57481 -1.46744 0
M  V30 4169 C 378.192 1.3352 -1.4294 0
M  V30 4170 C 378.572 2.10775 -0.117009 0
M  V30 4171 O 377.92 2.09966 0.901474 0
M  V30 4172 C 378.13 2.25456 -2.66403 0
M  V30 4173 C 379.478 2.87035 -3.12883 0
M  V30 4174 O 380.502 2.35766 -2.67007 0
M  V30 4175 O 379.361 3.80179 -3.92589 0
M  V30 4176 H 376.455 0.600318 -0.568812 0
M  V30 4177 H 379.001 0.595171 -1.58921 0
M  V30 4178 H 377.773 1.67851 -3.53471 0
M  V30 4179 H 377.396 3.06785 -2.52921 0
M  V30 4180 N 378.394 1.34581 0.820102 0
M  V30 4181 C 379.64 1.27285 1.57881 0
M  V30 4182 C 379.973 -0.156137 1.93571 0
M  V30 4183 O 379.248 -1.10222 1.60254 0
M  V30 4184 C 379.531 2.16639 2.87645 0
M  V30 4185 C 379.384 3.68088 2.58517 0
M  V30 4186 C 380.703 2.05378 3.8924 0
M  V30 4187 H 377.822 0.463714 0.572833 0
M  V30 4188 H 380.464 1.64859 0.944539 0
M  V30 4189 H 378.614 1.84725 3.41773 0
M  V30 4190 H 380.286 4.10382 2.10676 0
M  V30 4191 H 378.529 3.89038 1.91917 0
M  V30 4192 H 379.2 4.2598 3.51063 0
M  V30 4193 H 381.676 2.33404 3.44473 0
M  V30 4194 H 380.552 2.7012 4.77835 0
M  V30 4195 H 380.813 1.0316 4.29896 0
M  V30 4196 N 379.872 -1.04064 1.18357 0
M  V30 4197 C 380.82 -2.14187 0.907007 0
M  V30 4198 C 381.814 -1.68879 -0.132725 0
M  V30 4199 O 383.02 -1.79993 0.0154248 0
M  V30 4200 H 379.395 -0.699585 0.275835 0
M  V30 4201 H 381.366 -2.34711 1.84264 0
M  V30 4202 C 380.115 -3.44785 0.449254 0
M  V30 4203 H 379.438 -3.80058 1.24081 0
M  V30 4204 H 380.878 -4.22974 0.294737 0
M  V30 4205 C 379.337 -3.26391 -0.834909 0
M  V30 4206 O 379.867 -3.53973 -1.89911 0
M  V30 4207 N 378.073 -2.79726 -0.787523 0
M  V30 4208 H 377.62 -2.5748 0.0787347 0
M  V30 4209 H 377.578 -2.67798 -1.64716 0
M  V30 4210 N 381.35 -0.985608 -1.22978 0
M  V30 4211 C 382.766 -0.695104 -1.43668 0
M  V30 4212 C 382.966 0.736866 -1.87543 0
M  V30 4213 O 382.022 1.50868 -2.02473 0
M  V30 4214 C 383.335 -1.69447 -2.48412 0
M  V30 4215 C 384.883 -1.70909 -2.62219 0
M  V30 4216 C 385.358 -2.6969 -3.70178 0
M  V30 4217 N 386.849 -2.6824 -3.77626 0
M  V30 4218 C 387.584 -3.41339 -4.60733 0
M  V30 4219 N 387.08 -4.24015 -5.4789 0
M  V30 4220 N 388.873 -3.30079 -4.54977 0
M  V30 4221 H 381.024 -1.91054 -0.928016 0
M  V30 4222 H 383.287 -0.823553 -0.469536 0
M  V30 4223 H 382.993 -2.7188 -2.23102 0
M  V30 4224 H 382.867 -1.48147 -3.46889 0
M  V30 4225 H 385.254 -0.691785 -2.86877 0
M  V30 4226 H 385.335 -1.96276 -1.6404 0
M  V30 4227 H 384.979 -3.71566 -3.46268 0
M  V30 4228 H 384.909 -2.41595 -4.67909 0
M  V30 4229 H 387.4 -2.08243 -3.15346 0
M  V30 4230 H 387.713 -4.76636 -6.08308 0
M  V30 4231 H 386.058 -4.28104 -5.47496 0
M  V30 4232 H 389.249 -2.64937 -3.85909 0
M  V30 4233 H 389.422 -3.87308 -5.19516 0
M  V30 4234 N 382.828 1.3818 -0.7579 0
M  V30 4235 C 384.244 1.5353 -0.435972 0
M  V30 4236 C 384.444 1.71961 1.05032 0
M  V30 4237 O 383.5 1.73307 1.83633 0
M  V30 4238 C 384.813 2.73989 -1.23898 0
M  V30 4239 C 386.361 2.87841 -1.22949 0
M  V30 4240 C 386.836 4.11266 -2.01554 0
M  V30 4241 N 388.327 4.18352 -1.98837 0
M  V30 4242 C 389.062 5.12856 -2.5645 0
M  V30 4243 N 388.558 6.13005 -3.22794 0
M  V30 4244 N 390.351 5.05238 -2.46356 0
M  V30 4245 H 382.502 1.24467 -1.7211 0
M  V30 4246 H 384.765 0.604982 -0.729864 0
M  V30 4247 H 384.471 2.66789 -2.29165 0
M  V30 4248 H 384.345 3.67294 -0.858764 0
M  V30 4249 H 386.732 2.9452 -0.184854 0
M  V30 4250 H 386.813 1.95534 -1.64924 0
M  V30 4251 H 386.457 4.05349 -3.06031 0
M  V30 4252 H 386.387 5.02661 -1.5697 0
M  V30 4253 H 388.878 3.46628 -1.50524 0
M  V30 4254 H 389.191 6.81619 -3.64165 0
M  V30 4255 H 387.536 6.13325 -3.2689 0
M  V30 4256 H 390.727 4.25938 -1.9415 0
M  V30 4257 H 390.9 5.78707 -2.91552 0
M  V30 4258 N 384.306 0.507319 1.49211 0
M  V30 4259 C 385.236 -0.256939 2.32082 0
M  V30 4260 C 386.217 -0.956609 1.40652 0
M  V30 4261 O 387.402 -0.946788 1.69557 0
M  V30 4262 C 384.532 -1.31802 3.21318 0
M  V30 4263 C 383.486 -0.737855 4.21592 0
M  V30 4264 C 382.812 -1.89992 4.99807 0
M  V30 4265 C 384.112 0.275325 5.21574 0
M  V30 4266 H 385.806 0.434798 2.96226 0
M  V30 4267 H 383.352 0.210546 1.42452 0
M  V30 4268 H 385.305 -1.86045 3.78107 0
M  V30 4269 H 384.029 -2.03903 2.5513 0
M  V30 4270 H 382.688 -0.217126 3.65956 0
M  V30 4271 H 382.336 -2.60877 4.30061 0
M  V30 4272 H 382.036 -1.51777 5.6766 0
M  V30 4273 H 383.56 -2.44657 5.59442 0
M  V30 4274 H 384.974 -0.179193 5.7302 0
M  V30 4275 H 383.371 0.573649 5.97352 0
M  V30 4276 H 384.441 1.18903 4.70096 0
M  V30 4277 N 385.784 -1.5574 0.241426 0
M  V30 4278 C 386.734 -2.17803 -0.674233 0
M  V30 4279 C 387.718 -1.13225 -1.14319 0
M  V30 4280 O 388.91 -1.39153 -1.09387 0
M  V30 4281 C 386.039 -2.87682 -1.87333 0
M  V30 4282 C 385.125 -3.99509 -1.42313 0
M  V30 4283 N 385.516 -5.01115 -0.686798 0
M  V30 4284 C 383.814 -4.11964 -1.70885 0
M  V30 4285 C 384.515 -5.79922 -0.454456 0
M  V30 4286 N 383.491 -5.34001 -1.01705 0
M  V30 4287 H 387.293 -2.93718 -0.103447 0
M  V30 4288 H 384.807 -1.62342 0.0435095 0
M  V30 4289 H 386.804 -3.3057 -2.54026 0
M  V30 4290 H 385.464 -2.13269 -2.4484 0
M  V30 4291 H 386.475 -5.16799 -0.337459 0
M  V30 4292 H 383.152 -3.48718 -2.2957 0
M  V30 4293 H 384.542 -6.71768 0.132992 0
M  V30 4294 N 387.262 0.0317525 -1.57568 0
M  V30 4295 C 388.511 0.722131 -1.8833 0
M  V30 4296 C 388.824 1.76664 -0.839587 0
M  V30 4297 O 390.03 2.50942 -1.03635 0
M  V30 4298 C 388.486 1.33544 -3.34207 0
M  V30 4299 C 388.094 0.327415 -4.46802 0
M  V30 4300 C 389.838 2.00585 -3.7412 0
M  V30 4301 C 387.745 0.948915 -5.83738 0
M  V30 4302 H 386.675 0.273466 -0.702661 0
M  V30 4303 H 389.326 -0.0235811 -1.83485 0
M  V30 4304 H 387.708 2.13077 -3.33788 0
M  V30 4305 H 388.882 -0.441006 -4.58685 0
M  V30 4306 H 387.197 -0.240758 -4.15703 0
M  V30 4307 H 389.794 2.47932 -4.73744 0
M  V30 4308 H 390.137 2.82285 -3.05975 0
M  V30 4309 H 390.67 1.27831 -3.76702 0
M  V30 4310 H 387.409 0.171387 -6.55276 0
M  V30 4311 H 386.929 1.68724 -5.7558 0
M  V30 4312 H 388.608 1.45705 -6.3038 0
M  V30 4313 N 388.74 1.54641 0.303973 0
M  V30 4314 C 390.017 1.64455 1.05896 0
M  V30 4315 C 390.397 0.490923 2.05312 0
M  V30 4316 O 389.745 -0.512685 2.22674 0
M  V30 4317 C 389.955 3.02331 1.74347 0
M  V30 4318 C 391.303 3.59045 2.26653 0
M  V30 4319 O 392.327 3.04764 1.84384 0
M  V30 4320 O 391.186 4.54081 3.04093 0
M  V30 4321 H 388.28 0.666729 0.489287 0
M  V30 4322 H 390.826 1.66986 0.302298 0
M  V30 4323 H 389.598 3.77734 1.02142 0
M  V30 4324 H 389.221 3.03565 2.56777 0
M  V30 4325 N 390.218 -0.567019 1.47046 0
M  V30 4326 C 391.128 -1.70247 1.6141 0
M  V30 4327 C 392.144 -1.66746 0.497157 0
M  V30 4328 O 393.32 -1.86371 0.763389 0
M  V30 4329 C 390.385 -3.06756 1.61561 0
M  V30 4330 C 389.446 -3.21399 2.84607 0
M  V30 4331 C 388.679 -4.51396 2.84741 0
M  V30 4332 O 388.902 -5.36255 1.94388 0
M  V30 4333 O 387.836 -4.69621 3.76483 0
M  V30 4334 H 391.662 -1.61073 2.57467 0
M  V30 4335 H 389.247 -0.735894 1.30019 0
M  V30 4336 H 391.129 -3.8801 1.64396 0
M  V30 4337 H 389.804 -3.16333 0.686684 0
M  V30 4338 H 388.711 -2.39579 2.8732 0
M  V30 4339 H 390.044 -3.16721 3.76761 0
M  V30 4340 N 391.696 -1.35014 -0.812953 0
M  V30 4341 C 392.945 -1.27269 -1.56479 0
M  V30 4342 C 393.258 0.152771 -1.95002 0
M  V30 4343 O 394.464 0.352451 -2.69203 0
M  V30 4344 C 392.92 -2.23159 -2.82362 0
M  V30 4345 C 392.528 -3.71016 -2.511 0
M  V30 4346 C 394.272 -2.24342 -3.60376 0
M  V30 4347 C 392.179 -4.58746 -3.73237 0
M  V30 4348 H 391.109 -0.472829 -0.587324 0
M  V30 4349 H 393.76 -1.6024 -0.894171 0
M  V30 4350 H 392.142 -1.83151 -3.51101 0
M  V30 4351 H 393.316 -4.1962 -1.90409 0
M  V30 4352 H 391.631 -3.72378 -1.86343 0
M  V30 4353 H 394.228 -2.87107 -4.51081 0
M  V30 4354 H 394.571 -1.24542 -3.97234 0
M  V30 4355 H 395.104 -2.62846 -2.98591 0
M  V30 4356 H 391.843 -5.59521 -3.41492 0
M  V30 4357 H 391.363 -4.14871 -4.33176 0
M  V30 4358 H 393.042 -4.73852 -4.40537 0
M  V30 4359 N 393.175 1.03435 -1.18907 0
M  V30 4360 C 394.105 2.13503 -0.945448 0
M  V30 4361 C 395.086 1.69682 0.119189 0
M  V30 4362 O 396.271 1.94169 -0.034707 0
M  V30 4363 C 393.401 3.44004 -0.477316 0
M  V30 4364 C 392.355 4.0148 -1.48316 0
M  V30 4365 C 391.681 5.27537 -0.872311 0
M  V30 4366 C 392.981 4.36921 -2.86177 0
M  V30 4367 H 394.675 2.34141 -1.86597 0
M  V30 4368 H 392.221 1.12523 -0.898584 0
M  V30 4369 H 394.174 4.20372 -0.294204 0
M  V30 4370 H 392.898 3.23072 0.478786 0
M  V30 4371 H 391.557 3.27201 -1.65332 0
M  V30 4372 H 391.205 5.02917 0.0911752 0
M  V30 4373 H 390.905 5.66954 -1.54393 0
M  V30 4374 H 392.429 6.06576 -0.699871 0
M  V30 4375 H 393.843 5.04248 -2.72776 0
M  V30 4376 H 392.24 4.87405 -3.50081 0
M  V30 4377 H 393.31 3.46466 -3.39248 0
M  V30 4378 N 394.653 0.992116 1.22453 0
M  V30 4379 C 395.878 0.685644 1.95739 0
M  V30 4380 C 396.303 -0.743 1.72804 0
M  V30 4381 O 395.661 -1.50778 1.00676 0
M  V30 4382 C 395.709 0.996293 3.46564 0
M  V30 4383 O 394.813 0.0945512 4.12292 0
M  V30 4384 H 394.154 0.256694 0.612376 0
M  V30 4385 H 396.684 1.32888 1.5557 0
M  V30 4386 H 396.694 0.93781 3.97076 0
M  V30 4387 H 395.369 2.03733 3.62582 0
M  V30 4388 H 393.946 0.208451 3.72317 0
M  V30 4389 N 396.131 -1.37776 0.765217 0
M  V30 4390 C 397.081 -2.2768 0.12075 0
M  V30 4391 C 398.065 -1.45778 -0.680988 0
M  V30 4392 O 399.257 -1.684 -0.545033 0
M  V30 4393 C 396.386 -3.34722 -0.762626 0
M  V30 4394 C 395.472 -4.24074 0.0465881 0
M  V30 4395 N 395.863 -4.93939 1.08892 0
M  V30 4396 C 394.161 -4.45643 -0.178418 0
M  V30 4397 C 394.862 -5.59845 1.57951 0
M  V30 4398 N 393.838 -5.36218 0.892797 0
M  V30 4399 H 397.64 -2.79166 0.918889 0
M  V30 4400 H 395.154 -1.50816 0.602353 0
M  V30 4401 H 397.151 -3.98031 -1.24005 0
M  V30 4402 H 395.811 -2.84793 -1.55959 0
M  V30 4403 H 396.822 -4.96572 1.47095 0
M  V30 4404 H 393.499 -4.06599 -0.9478 0
M  V30 4405 H 394.889 -6.25703 2.44838 0
M  V30 4406 N 397.609 -0.515225 -1.4894 0
M  V30 4407 C 398.849 0.0223983 -2.04388 0
M  V30 4408 C 399.213 1.32961 -1.38511 0
M  V30 4409 O 400.414 1.95236 -1.8476 0
M  V30 4410 C 398.685 0.157056 -3.57055 0
M  V30 4411 S 400.244 0.646875 -4.34006 0
M  V30 4412 H 397.062 -0.00500662 -0.710982 0
M  V30 4413 H 399.664 -0.69243 -1.82827 0
M  V30 4414 H 398.368 -0.799412 -4.02539 0
M  V30 4415 H 397.899 0.896704 -3.83044 0
M  V30 4416 H 399.914 1.91381 -4.57808 0
M  V30 4417 N 399.087 1.5561 -0.249682 0
M  V30 4418 C 400.333 2.00044 0.367952 0
M  V30 4419 C 400.688 1.1349 1.55363 0
M  V30 4420 O 399.981 0.191079 1.90645 0
M  V30 4421 C 400.175 3.4775 0.824887 0
M  V30 4422 C 400.004 4.48596 -0.314973 0
M  V30 4423 C 398.774 4.99077 -0.790555 0
M  V30 4424 C 400.972 5.0144 -1.14291 0
M  V30 4425 N 398.954 5.83675 -1.90254 0
M  V30 4426 C 400.325 5.83236 -2.10322 0
M  V30 4427 C 402.38 4.83736 -1.17916 0
M  V30 4428 C 401.083 6.49217 -3.09692 0
M  V30 4429 C 403.109 5.50497 -2.16117 0
M  V30 4430 C 402.471 6.32084 -3.10884 0
M  V30 4431 H 398.57 0.775512 0.100522 0
M  V30 4432 H 401.154 1.91193 -0.367896 0
M  V30 4433 H 399.325 3.56994 1.53002 0
M  V30 4434 H 401.057 3.79056 1.4177 0
M  V30 4435 H 397.812 4.72119 -0.374218 0
M  V30 4436 H 398.236 6.30671 -2.46137 0
M  V30 4437 H 402.878 4.20286 -0.460352 0
M  V30 4438 H 400.596 7.11832 -3.8252 0
M  V30 4439 H 404.182 5.38752 -2.19631 0
M  V30 4440 H 403.062 6.82832 -3.8563 0
M  V30 4441 N 400.565 -0.0233959 1.57583 0
M  V30 4442 C 401.498 -1.05549 2.02323 0
M  V30 4443 C 402.476 -1.34843 0.908626 0
M  V30 4444 O 403.66 -1.47404 1.17491 0
M  V30 4445 C 400.787 -2.38885 2.40108 0
M  V30 4446 C 399.833 -2.2541 3.62067 0
M  V30 4447 S 400.666 -1.60217 5.1097 0
M  V30 4448 C 401.822 -2.95032 5.52003 0
M  V30 4449 H 402.055 -0.674435 2.89549 0
M  V30 4450 H 399.588 -0.23355 1.52623 0
M  V30 4451 H 401.546 -3.15562 2.62547 0
M  V30 4452 H 400.207 -2.74137 1.53323 0
M  V30 4453 H 399.4 -3.23854 3.86179 0
M  V30 4454 H 399.002 -1.56876 3.39508 0
M  V30 4455 H 401.294 -3.91357 5.53033 0
M  V30 4456 H 402.237 -2.75646 6.52246 0
M  V30 4457 H 402.645 -2.97865 4.79517 0
M  V30 4458 N 402.043 -1.548 -0.295768 0
M  V30 4459 C 402.975 -1.82492 -1.3867 0
M  V30 4460 C 403.988 -0.708134 -1.46592 0
M  V30 4461 O 405.177 -0.985686 -1.48817 0
M  V30 4462 C 402.277 -1.95256 -2.76999 0
M  V30 4463 C 401.45 -3.25709 -2.91946 0
M  V30 4464 C 400.509 -3.28824 -4.10806 0
M  V30 4465 O 399.535 -4.02328 -4.02643 0
M  V30 4466 N 400.737 -2.5459 -5.21694 0
M  V30 4467 H 403.502 -2.76646 -1.15269 0
M  V30 4468 H 401.063 -1.54438 -0.485849 0
M  V30 4469 H 403.055 -1.94736 -3.54768 0
M  V30 4470 H 401.625 -1.08072 -2.93324 0
M  V30 4471 H 400.845 -3.38959 -2.01247 0
M  V30 4472 H 402.133 -4.11786 -2.98847 0
M  V30 4473 H 401.531 -1.94512 -5.31208 0
M  V30 4474 H 400.088 -2.59818 -5.97778 0
M  V30 4475 N 403.521 0.559213 -1.47345 0
M  V30 4476 C 404.932 1.14134 -1.47751 0
M  V30 4477 C 405.283 1.94834 -0.231103 0
M  V30 4478 O 404.408 2.05957 0.664137 0
M  V30 4479 C 405.003 2.07653 -2.67705 0
M  V30 4480 C 403.562 2.61141 -2.71076 0
M  V30 4481 C 402.709 1.3748 -2.40821 0
M  V30 4482 H 405.66 0.345917 -1.54884 0
M  V30 4483 H 405.681 2.91497 -2.44561 0
M  V30 4484 H 405.193 1.4889 -3.58404 0
M  V30 4485 H 403.294 3.23707 -1.84511 0
M  V30 4486 H 403.407 3.02272 -3.7171 0
M  V30 4487 H 401.771 1.68086 -1.91362 0
M  V30 4488 H 402.554 0.805135 -3.33725 0
M  V30 4489 N 404.999 1.35443 0.805782 0
M  V30 4490 C 405.946 1.28431 1.91766 0
M  V30 4491 C 406.916 0.156102 1.65365 0
M  V30 4492 O 408.101 0.339936 1.87747 0
M  V30 4493 C 405.241 1.06301 3.2832 0
M  V30 4494 C 404.354 2.2805 3.66902 0
M  V30 4495 C 403.489 1.99064 4.92491 0
M  V30 4496 C 402.528 3.16863 5.23703 0
M  V30 4497 N 401.665 2.87647 6.40471 0
M  V30 4498 H 406.505 2.23511 1.97096 0
M  V30 4499 H 404.042 1.11105 0.964054 0
M  V30 4500 H 406 0.915012 4.07042 0
M  V30 4501 H 404.63 0.148822 3.22457 0
M  V30 4502 H 403.682 2.53711 2.83434 0
M  V30 4503 H 404.994 3.1601 3.85927 0
M  V30 4504 H 404.148 1.81099 5.7904 0
M  V30 4505 H 402.887 1.0839 4.75503 0
M  V30 4506 H 401.892 3.35404 4.35642 0
M  V30 4507 H 403.117 4.08339 5.4262 0
M  V30 4508 H 401.063 1.99568 6.24907 0
M  V30 4509 H 400.98 3.69141 6.59751 0
M  V30 4510 H 402.248 2.73226 7.30047 0
M  V30 4511 N 406.477 -1.02803 1.19454 0
M  V30 4512 C 407.44 -2.09264 0.934955 0
M  V30 4513 C 408.44 -1.60576 -0.0849015 0
M  V30 4514 O 409.63 -1.73554 0.149933 0
M  V30 4515 C 406.762 -3.38482 0.40531 0
M  V30 4516 H 407.955 -2.33726 1.87916 0
M  V30 4517 H 405.508 -1.19426 1.00832 0
M  V30 4518 H 406.243 -3.19689 -0.544899 0
M  V30 4519 H 406.028 -3.75142 1.14065 0
M  V30 4520 H 407.518 -4.16894 0.242806 0
M  V30 4521 N 407.956 -0.998596 -1.21925 0
M  V30 4522 C 409.372 -0.710303 -1.42923 0
M  V30 4523 C 409.572 0.716933 -1.88314 0
M  V30 4524 O 408.628 1.48712 -2.04062 0
M  V30 4525 C 409.941 -1.72072 -2.466 0
M  V30 4526 C 411.489 -1.73681 -2.60392 0
M  V30 4527 C 411.964 -2.73601 -3.67296 0
M  V30 4528 N 413.455 -2.7223 -3.7476 0
M  V30 4529 C 414.19 -3.46206 -4.57087 0
M  V30 4530 N 413.686 -4.29802 -5.43362 0
M  V30 4531 N 415.479 -3.34886 -4.51451 0
M  V30 4532 H 407.63 -1.92028 -0.9077 0
M  V30 4533 H 409.893 -0.828487 -0.460775 0
M  V30 4534 H 409.599 -2.74231 -2.20206 0
M  V30 4535 H 409.473 -1.51818 -3.45299 0
M  V30 4536 H 411.86 -0.722173 -2.86127 0
M  V30 4537 H 411.941 -1.98005 -1.61949 0
M  V30 4538 H 411.585 -3.75217 -3.42307 0
M  V30 4539 H 411.515 -2.46545 -4.65321 0
M  V30 4540 H 414.006 -2.11576 -3.1312 0
M  V30 4541 H 414.319 -4.83061 -6.03218 0
M  V30 4542 H 412.664 -4.33887 -5.42925 0
M  V30 4543 H 415.855 -2.69015 -3.83078 0
M  V30 4544 H 416.028 -3.92796 -5.15379 0
M  V30 4545 N 409.434 1.37368 -0.772513 0
M  V30 4546 C 410.682 1.99279 -0.336516 0
M  V30 4547 C 411.003 1.6163 1.09091 0
M  V30 4548 O 410.273 0.882109 1.74916 0
M  V30 4549 H 408.853 0.737063 -0.121435 0
M  V30 4550 H 411.515 1.67836 -0.990809 0
M  V30 4551 H 410.611 3.09332 -0.414763 0
M  V30 4552 N 410.912 0.523116 1.48665 0
M  V30 4553 C 412.137 -0.0117284 2.07397 0
M  V30 4554 C 412.562 -1.28031 1.37803 0
M  V30 4555 O 411.92 -1.75836 0.441762 0
M  V30 4556 C 411.968 -0.225786 3.59892 0
M  V30 4557 O 411.072 -1.29592 3.91509 0
M  V30 4558 H 410.413 0.0360673 0.66302 0
M  V30 4559 H 412.943 0.729066 1.9117 0
M  V30 4560 H 412.953 -0.450552 4.05505 0
M  V30 4561 H 411.628 0.700944 4.09951 0
M  V30 4562 H 410.205 -1.05436 3.57684 0
M  V30 4563 N 412.39 -1.55475 0.257931 0
M  V30 4564 C 413.801 -1.8511 -0.243135 0
M  V30 4565 C 414.152 -1.17986 -1.5676 0
M  V30 4566 O 413.277 -0.462102 -2.11409 0
M  V30 4567 C 413.872 -3.35826 -0.447929 0
M  V30 4568 C 412.431 -3.65647 -0.893245 0
M  V30 4569 C 411.578 -2.7729 0.0232965 0
M  V30 4570 H 414.529 -1.51261 0.480199 0
M  V30 4571 H 414.55 -3.58002 -1.28898 0
M  V30 4572 H 414.062 -3.84652 0.516196 0
M  V30 4573 H 412.163 -3.22308 -1.86945 0
M  V30 4574 H 412.276 -4.73312 -0.742469 0
M  V30 4575 H 410.64 -2.49942 -0.490021 0
M  V30 4576 H 411.423 -3.28926 0.982994 0
M  V30 4577 N 413.868 0.0150385 -1.57593 0
M  V30 4578 C 415.093 0.718067 -1.94573 0
M  V30 4579 C 415.518 1.6734 -0.859005 0
M  V30 4580 O 414.876 1.80362 0.184147 0
M  V30 4581 C 414.924 1.43918 -3.30636 0
M  V30 4582 O 414.028 2.55299 -3.23876 0
M  V30 4583 H 413.369 0.192125 -0.635597 0
M  V30 4584 H 415.899 -0.0336708 -2.04572 0
M  V30 4585 H 415.909 1.80598 -3.65853 0
M  V30 4586 H 414.584 0.738619 -4.09289 0
M  V30 4587 H 413.161 2.21058 -3.00312 0
M  V30 4588 N 415.346 1.54954 0.287554 0
M  V30 4589 C 416.592 1.75132 1.02257 0
M  V30 4590 C 416.925 0.542858 1.86458 0
M  V30 4591 O 416.2 -0.459856 1.88986 0
M  V30 4592 C 416.483 3.04812 1.91733 0
M  V30 4593 C 416.336 4.35985 1.10622 0
M  V30 4594 C 417.655 3.30438 2.90687 0
M  V30 4595 H 414.774 0.637194 0.370341 0
M  V30 4596 H 417.416 1.87678 0.296111 0
M  V30 4597 H 415.566 2.94247 2.53675 0
M  V30 4598 H 417.238 4.58487 0.508636 0
M  V30 4599 H 415.481 4.31865 0.409271 0
M  V30 4600 H 416.152 5.23017 1.76513 0
M  V30 4601 H 418.628 3.40701 2.38877 0
M  V30 4602 H 417.504 4.22467 3.50447 0
M  V30 4603 H 417.765 2.49377 3.65053 0
M  V30 4604 N 416.824 -0.551391 1.4764 0
M  V30 4605 C 417.787 -1.64007 1.60107 0
M  V30 4606 C 418.787 -1.53601 0.47576 0
M  V30 4607 O 419.977 -1.57655 0.740988 0
M  V30 4608 C 417.109 -3.03569 1.55108 0
M  V30 4609 H 418.302 -1.543 2.57161 0
M  V30 4610 H 415.855 -0.771776 1.35917 0
M  V30 4611 H 416.59 -3.18804 0.594519 0
M  V30 4612 H 416.375 -3.12532 2.36783 0
M  V30 4613 H 417.865 -3.82762 1.66982 0
M  V30 4614 N 418.302 -1.35869 -0.798587 0
M  V30 4615 C 419.551 -1.28921 -1.5512 0
M  V30 4616 C 419.864 0.13208 -1.95154 0
M  V30 4617 O 421.07 0.323879 -2.69561 0
M  V30 4618 C 419.526 -2.26141 -2.79979 0
M  V30 4619 C 419.134 -3.73658 -2.47151 0
M  V30 4620 C 420.878 -2.28152 -3.57976 0
M  V30 4621 C 418.785 -4.62679 -3.6835 0
M  V30 4622 H 417.715 -0.479031 -0.582276 0
M  V30 4623 H 420.366 -1.61179 -0.877125 0
M  V30 4624 H 418.748 -1.86865 -3.49138 0
M  V30 4625 H 419.922 -4.21616 -1.85947 0
M  V30 4626 H 418.237 -3.74333 -1.82383 0
M  V30 4627 H 420.834 -2.91875 -4.4801 0
M  V30 4628 H 421.177 -1.28748 -3.95891 0
M  V30 4629 H 421.71 -2.65998 -2.95787 0
M  V30 4630 H 418.449 -5.63111 -3.35538 0
M  V30 4631 H 417.969 -4.19442 -4.28752 0
M  V30 4632 H 419.648 -4.78498 -4.35487 0
M  V30 4633 N 419.78 1.02168 -1.19998 0
M  V30 4634 C 420.728 2.12717 -0.940967 0
M  V30 4635 C 421.722 1.69069 0.105841 0
M  V30 4636 O 422.928 1.79946 -0.0440583 0
M  V30 4637 H 419.303 0.695108 -0.28693 0
M  V30 4638 H 421.274 2.3175 -1.87975 0
M  V30 4639 C 420.023 3.44027 -0.504049 0
M  V30 4640 H 419.346 3.78036 -1.30112 0
M  V30 4641 H 420.786 4.22452 -0.361991 0
M  V30 4642 C 419.245 3.27678 0.782878 0
M  V30 4643 O 419.775 3.56949 1.84256 0
M  V30 4644 N 417.981 2.80943 0.742921 0
M  V30 4645 H 417.528 2.57322 -0.119687 0
M  V30 4646 H 417.486 2.70385 1.60435 0
M  V30 4647 N 421.258 1.00505 1.21394 0
M  V30 4648 C 422.205 0.565496 2.23765 0
M  V30 4649 C 423.175 -0.408466 1.60999 0
M  V30 4650 O 424.36 -0.310503 1.88257 0
M  V30 4651 C 421.5 -0.101667 3.4495 0
M  V30 4652 C 420.613 0.915479 4.22188 0
M  V30 4653 C 419.748 0.220574 5.30742 0
M  V30 4654 C 418.787 1.22527 5.99711 0
M  V30 4655 N 417.924 0.557831 6.9988 0
M  V30 4656 H 422.764 1.44314 2.60725 0
M  V30 4657 H 420.301 0.722643 1.28126 0
M  V30 4658 H 422.259 -0.505504 4.14126 0
M  V30 4659 H 420.889 -0.94303 3.08718 0
M  V30 4660 H 419.941 1.43756 3.52191 0
M  V30 4661 H 421.253 1.68005 4.69655 0
M  V30 4662 H 420.407 -0.239368 6.06228 0
M  V30 4663 H 419.146 -0.576401 4.84282 0
M  V30 4664 H 418.151 1.69571 5.22997 0
M  V30 4665 H 419.376 2.02332 6.48258 0
M  V30 4666 H 417.322 -0.219486 6.55633 0
M  V30 4667 H 417.239 1.26065 7.45415 0
M  V30 4668 H 418.507 0.121095 7.79406 0
M  V30 4669 N 422.737 -1.36956 0.779787 0
M  V30 4670 C 423.647 -2.33965 0.172491 0
M  V30 4671 C 424.663 -1.60574 -0.670222 0
M  V30 4672 O 425.839 -1.92617 -0.588263 0
M  V30 4673 C 422.904 -3.39761 -0.690173 0
M  V30 4674 C 421.965 -4.28964 0.169924 0
M  V30 4675 C 421.198 -5.29707 -0.651662 0
M  V30 4676 O 421.421 -5.38238 -1.88827 0
M  V30 4677 O 420.355 -6.01873 -0.0566264 0
M  V30 4678 H 424.181 -2.87647 0.974321 0
M  V30 4679 H 421.766 -1.39258 0.541078 0
M  V30 4680 H 423.648 -4.04471 -1.1824 0
M  V30 4681 H 422.323 -2.88394 -1.47006 0
M  V30 4682 H 421.23 -3.67326 0.708696 0
M  V30 4683 H 422.563 -4.83656 0.913085 0
M  V30 4684 N 424.215 -0.530993 -1.48385 0
M  V30 4685 C 425.463 0.00273189 -2.021 0
M  V30 4686 C 425.784 1.34672 -1.41027 0
M  V30 4687 O 425.054 1.8724 -0.576012 0
M  V30 4688 H 423.634 0.00399774 -0.746989 0
M  V30 4689 H 426.296 -0.695054 -1.82085 0
M  V30 4690 H 425.392 0.11031 -3.11905 0
M  V30 4691 N 425.693 1.55336 -0.266172 0
M  V30 4692 C 426.603 2.2583 0.635458 0
M  V30 4693 C 427.619 1.28106 1.17749 0
M  V30 4694 O 428.795 1.61024 1.20968 0
M  V30 4695 C 425.86 2.95879 1.80712 0
M  V30 4696 C 424.921 4.09059 1.30265 0
M  V30 4697 C 424.154 4.75759 2.41846 0
M  V30 4698 O 424.377 4.41622 3.61007 0
M  V30 4699 O 423.311 5.63888 2.1051 0
M  V30 4700 H 427.137 3.03631 0.0646693 0
M  V30 4701 H 424.722 1.49361 -0.0339177 0
M  V30 4702 H 426.604 3.39932 2.49047 0
M  V30 4703 H 425.279 2.21002 2.36516 0
M  V30 4704 H 424.186 3.69482 0.586019 0
M  V30 4705 H 425.519 4.85811 0.790458 0
M  V30 4706 N 427.171 -0.0066808 1.57599 0
M  V30 4707 C 428.396 -0.707738 1.94951 0
M  V30 4708 C 428.821 -1.66882 0.867868 0
M  V30 4709 O 428.179 -1.80457 -0.17458 0
M  V30 4710 C 428.227 -1.42162 3.31394 0
M  V30 4711 O 427.331 -2.53578 3.25226 0
M  V30 4712 H 426.672 -0.188752 0.636607 0
M  V30 4713 H 429.202 0.0445193 2.04552 0
M  V30 4714 H 429.212 -1.78655 3.66806 0
M  V30 4715 H 427.887 -0.716903 4.09675 0
M  V30 4716 H 426.464 -2.19463 3.01481 0
M  V30 4717 N 428.649 -1.55105 -0.279332 0
M  V30 4718 C 429.874 -1.7976 -1.03446 0
M  V30 4719 C 430.299 -0.565952 -1.79384 0
M  V30 4720 O 429.657 0.484259 -1.74713 0
M  V30 4721 C 429.705 -3.0179 -1.97371 0
M  V30 4722 O 428.809 -2.76432 -3.06038 0
M  V30 4723 H 428.15 -0.594334 -0.29608 0
M  V30 4724 H 430.68 -2.02235 -0.310165 0
M  V30 4725 H 430.69 -3.30351 -2.39441 0
M  V30 4726 H 429.365 -3.91085 -1.4151 0
M  V30 4727 H 427.942 -2.58949 -2.68328 0
M  V30 4728 N 430.127 0.543554 -1.4793 0
M  V30 4729 C 431.543 0.870806 -1.3375 0
M  V30 4730 C 431.743 1.9864 -0.338261 0
M  V30 4731 O 430.799 2.51305 0.245371 0
M  V30 4732 C 432.112 1.25114 -2.73435 0
M  V30 4733 C 433.66 1.3618 -2.81823 0
M  V30 4734 C 434.135 1.77563 -4.22179 0
M  V30 4735 N 435.626 1.8469 -4.24787 0
M  V30 4736 C 436.361 2.18067 -5.30315 0
M  V30 4737 N 435.857 2.49963 -6.46135 0
M  V30 4738 N 437.65 2.18958 -5.17701 0
M  V30 4739 H 429.801 -0.19275 -2.11524 0
M  V30 4740 H 432.064 -0.0235777 -0.947707 0
M  V30 4741 H 431.77 0.50514 -3.48053 0
M  V30 4742 H 431.644 2.20431 -3.06088 0
M  V30 4743 H 434.031 2.09859 -2.07468 0
M  V30 4744 H 434.112 0.390169 -2.52807 0
M  V30 4745 H 433.756 1.04449 -4.97044 0
M  V30 4746 H 433.686 2.75753 -4.48629 0
M  V30 4747 H 436.177 1.62372 -3.41239 0
M  V30 4748 H 436.49 2.74497 -7.22406 0
M  V30 4749 H 434.835 2.47513 -6.49432 0
M  V30 4750 H 438.026 1.93488 -4.2624 0
M  V30 4751 H 438.199 2.44639 -6.00047 0
M  V30 4752 N 431.605 1.3629 0.791371 0
M  V30 4753 C 432.853 1.30154 1.5461 0
M  V30 4754 C 433.174 -0.119409 1.94634 0
M  V30 4755 O 432.444 -1.05924 1.64794 0
M  V30 4756 H 431.024 0.478784 0.573389 0
M  V30 4757 H 433.686 1.70565 0.94306 0
M  V30 4758 H 432.782 1.92762 2.45457 0
M  V30 4759 N 433.083 -1.0153 1.20538 0
M  V30 4760 C 434.311 -1.78746 1.04199 0
M  V30 4761 C 434.726 -1.84323 -0.408733 0
M  V30 4762 O 434.083 -1.29714 -1.28377 0
M  V30 4763 C 434.134 -3.23152 1.62035 0
M  V30 4764 O 433.855 -3.17918 3.0143 0
M  V30 4765 C 435.356 -4.16911 1.50666 0
M  V30 4766 H 432.576 -0.56208 0.366479 0
M  V30 4767 H 435.12 -1.27794 1.59653 0
M  V30 4768 H 433.275 -3.71248 1.10697 0
M  V30 4769 H 433.689 -4.08567 3.28897 0
M  V30 4770 H 435.163 -5.16072 1.95892 0
M  V30 4771 H 435.64 -4.36791 0.459363 0
M  V30 4772 H 436.246 -3.74698 2.01201 0
M  V30 4773 N 434.561 -1.01147 -1.20859 0
M  V30 4774 C 435.471 -0.58686 -2.27141 0
M  V30 4775 C 436.487 0.373198 -1.69951 0
M  V30 4776 O 437.663 0.235423 -2.00019 0
M  V30 4777 C 434.728 0.0733602 -3.46622 0
M  V30 4778 C 433.789 -0.931995 -4.19061 0
M  V30 4779 C 433.022 -0.303186 -5.32838 0
M  V30 4780 O 433.245 0.898395 -5.63281 0
M  V30 4781 O 432.179 -1.01735 -5.9324 0
M  V30 4782 H 436.005 -1.47155 -2.65667 0
M  V30 4783 H 433.59 -0.780689 -1.2738 0
M  V30 4784 H 435.472 0.442333 -4.19072 0
M  V30 4785 H 434.147 0.932329 -3.09983 0
M  V30 4786 H 433.054 -1.35224 -3.48805 0
M  V30 4787 H 434.387 -1.76076 -4.59628 0
M  V30 4788 N 436.039 1.36541 -0.78704 0
M  V30 4789 C 437.45 1.81873 -0.421807 0
M  V30 4790 C 437.801 1.65487 1.05397 0
M  V30 4791 O 436.926 1.17448 1.81755 0
M  V30 4792 C 437.521 3.30192 -0.758841 0
M  V30 4793 C 436.08 3.73743 -0.446468 0
M  V30 4794 C 435.227 2.58844 -0.994728 0
M  V30 4795 H 438.178 1.24796 -0.98039 0
M  V30 4796 H 438.199 3.80468 -0.0490648 0
M  V30 4797 H 437.711 3.42087 -1.83299 0
M  V30 4798 H 435.812 3.6741 0.619739 0
M  V30 4799 H 435.925 4.69272 -0.965415 0
M  V30 4800 H 434.289 2.51245 -0.418087 0
M  V30 4801 H 435.072 2.73525 -2.07458 0
M  V30 4802 N 437.518 0.538854 1.48102 0
M  V30 4803 C 438.448 -0.207654 2.32575 0
M  V30 4804 C 439.429 -0.926559 1.4265 0
M  V30 4805 O 440.614 -0.91061 1.71527 0
M  V30 4806 C 437.744 -1.24957 3.24042 0
M  V30 4807 C 436.698 -0.648263 4.23062 0
M  V30 4808 C 436.024 -1.79348 5.03725 0
M  V30 4809 C 437.324 0.385897 5.20872 0
M  V30 4810 H 439.018 0.497534 2.95237 0
M  V30 4811 H 436.564 0.240715 1.41974 0
M  V30 4812 H 438.517 -1.77983 3.81969 0
M  V30 4813 H 437.241 -1.98446 2.59397 0
M  V30 4814 H 435.9 -0.139452 3.66335 0
M  V30 4815 H 435.548 -2.51696 4.35498 0
M  V30 4816 H 435.248 -1.39702 5.70751 0
M  V30 4817 H 436.772 -2.32735 5.64506 0
M  V30 4818 H 438.186 -0.057607 5.73271 0
M  V30 4819 H 436.583 0.700227 5.96001 0
M  V30 4820 H 437.653 1.28848 4.67468 0
M  V30 4821 N 438.996 -1.55193 0.274407 0
M  V30 4822 C 440.242 -2.00604 -0.33608 0
M  V30 4823 C 440.597 -1.15948 -1.53538 0
M  V30 4824 O 439.89 -0.221385 -1.90317 0
M  V30 4825 C 440.084 -3.49019 -0.769458 0
M  V30 4826 C 439.913 -4.48038 0.386301 0
M  V30 4827 C 438.683 -4.97757 0.869854 0
M  V30 4828 C 440.881 -4.99558 1.22254 0
M  V30 4829 N 438.863 -5.80575 1.99515 0
M  V30 4830 C 440.234 -5.79816 2.19575 0
M  V30 4831 C 442.289 -4.81799 1.25597 0
M  V30 4832 C 440.992 -6.44208 3.19981 0
M  V30 4833 C 443.018 -5.46989 2.24848 0
M  V30 4834 C 442.38 -6.27058 3.20901 0
M  V30 4835 H 438.479 -0.777013 -0.088172 0
M  V30 4836 H 441.063 -1.90583 0.398266 0
M  V30 4837 H 439.234 -3.59383 -1.47303 0
M  V30 4838 H 440.966 -3.81263 -1.35722 0
M  V30 4839 H 437.721 -4.71464 0.449281 0
M  V30 4840 H 438.145 -6.26675 2.5614 0
M  V30 4841 H 442.787 -4.19501 0.527158 0
M  V30 4842 H 440.505 -7.05656 3.93796 0
M  V30 4843 H 444.091 -5.35189 2.28174 0
M  V30 4844 H 442.971 -6.7661 3.96445 0
M  V30 4845 N 440.474 -0.00167713 -1.576 0
M  V30 4846 C 441.702 0.693759 -1.94922 0
M  V30 4847 C 442.117 1.67215 -0.876626 0
M  V30 4848 O 441.474 1.81929 0.144279 0
M  V30 4849 C 441.525 1.42416 -3.32265 0
M  V30 4850 O 441.246 0.485014 -4.35407 0
M  V30 4851 C 442.747 2.21395 -3.84056 0
M  V30 4852 H 439.967 0.193118 -0.642609 0
M  V30 4853 H 442.511 -0.0532952 -2.04431 0
M  V30 4854 H 440.666 2.12284 -3.24059 0
M  V30 4855 H 441.08 1.00053 -5.14868 0
M  V30 4856 H 442.554 2.67996 -4.82578 0
M  V30 4857 H 443.031 3.04142 -3.16851 0
M  V30 4858 H 443.637 1.56542 -3.95443 0
M  V30 4859 N 441.952 1.55251 0.271103 0
M  V30 4860 C 443.363 1.66635 0.842007 0
M  V30 4861 C 443.714 0.594631 1.86972 0
M  V30 4862 O 442.839 -0.263532 2.14789 0
M  V30 4863 C 443.434 3.02082 1.53401 0
M  V30 4864 C 441.993 3.15487 2.05293 0
M  V30 4865 C 441.14 2.62438 0.895631 0
M  V30 4866 H 444.091 1.58629 0.0474117 0
M  V30 4867 H 444.112 2.95176 2.40107 0
M  V30 4868 H 443.624 3.80062 0.785786 0
M  V30 4869 H 441.725 2.42284 2.83071 0
M  V30 4870 H 441.838 4.22075 2.26693 0
M  V30 4871 H 440.202 2.19644 1.28953 0
M  V30 4872 H 440.985 3.42923 0.160878 0
M  V30 4873 N 443.43 -0.535701 1.48216 0
M  V30 4874 C 444.34 -1.66785 1.64985 0
M  V30 4875 C 445.356 -1.65654 0.532414 0
M  V30 4876 O 446.532 -1.8471 0.80275 0
M  V30 4877 C 443.597 -3.0326 1.68031 0
M  V30 4878 C 442.658 -3.1529 2.9136 0
M  V30 4879 C 441.891 -4.45255 2.94252 0
M  V30 4880 O 442.114 -5.32011 2.05719 0
M  V30 4881 O 441.048 -4.6153 3.86359 0
M  V30 4882 H 444.874 -1.55576 2.60825 0
M  V30 4883 H 442.459 -0.70815 1.31551 0
M  V30 4884 H 444.341 -3.84436 1.72589 0
M  V30 4885 H 443.016 -3.14805 0.753628 0
M  V30 4886 H 441.923 -2.3343 2.92337 0
M  V30 4887 H 443.256 -3.08658 3.83394 0
M  V30 4888 N 444.908 -1.36708 -0.784132 0
M  V30 4889 C 446.319 -1.27947 -1.35965 0
M  V30 4890 C 446.67 0.0784013 -1.96043 0
M  V30 4891 O 445.795 0.979989 -1.92938 0
M  V30 4892 C 446.39 -2.31689 -2.47195 0
M  V30 4893 C 444.949 -2.26601 -3.00548 0
M  V30 4894 C 444.096 -2.16184 -1.73666 0
M  V30 4895 H 447.047 -1.4751 -0.585358 0
M  V30 4896 H 447.068 -1.95638 -3.26352 0
M  V30 4897 H 446.58 -3.30506 -2.03439 0
M  V30 4898 H 444.681 -1.31268 -3.48711 0
M  V30 4899 H 444.794 -3.19508 -3.57004 0
M  V30 4900 H 443.158 -1.62524 -1.96107 0
M  V30 4901 H 443.941 -3.16896 -1.32031 0
M  V30 4902 N 446.386 1.0089 -1.21074 0
M  V30 4903 C 447.634 1.74262 -1.02358 0
M  V30 4904 C 447.955 1.89869 0.444393 0
M  V30 4905 O 447.225 1.44677 1.32081 0
M  V30 4906 H 445.805 0.645615 -0.375754 0
M  V30 4907 H 448.467 1.21596 -1.52317 0
M  V30 4908 H 447.563 2.74328 -1.4883 0
M  V30 4909 N 447.864 1.01787 1.20321 0
M  V30 4910 C 449.089 0.727009 1.9424 0
M  V30 4911 C 449.514 -0.706179 1.74341 0
M  V30 4912 O 448.872 -1.48609 1.03852 0
M  V30 4913 C 448.92 1.06958 3.44372 0
M  V30 4914 O 448.024 0.181983 4.11998 0
M  V30 4915 H 447.365 0.269626 0.606793 0
M  V30 4916 H 449.895 1.36158 1.52716 0
M  V30 4917 H 449.905 1.02182 3.94997 0
M  V30 4918 H 448.58 2.11378 3.58179 0
M  V30 4919 H 447.157 0.287378 3.71791 0
M  V30 4920 N 449.342 -1.36122 0.79427 0
M  V30 4921 C 450.619 -1.93398 0.292685 0
M  V30 4922 C 450.999 -1.72567 -1.21589 0
M  V30 4923 O 450.347 -1.08745 -2.00965 0
M  V30 4924 C 450.557 -3.42099 0.690614 0
M  V30 4925 C 451.905 -4.19231 0.673105 0
M  V30 4926 O 452.929 -3.50559 0.631389 0
M  V30 4927 O 451.788 -5.41732 0.720362 0
M  V30 4928 H 448.882 -0.823712 0.0736693 0
M  V30 4929 H 451.428 -1.45273 0.87714 0
M  V30 4930 H 450.2 -3.50938 1.73085 0
M  V30 4931 H 449.823 -3.97519 0.0803036 0
M  V30 4932 N 450.82 -0.546701 -1.47814 0
M  V30 4933 C 451.767 0.206854 -2.29871 0
M  V30 4934 C 452.737 0.918235 -1.38411 0
M  V30 4935 O 453.922 0.915991 -1.67375 0
M  V30 4936 C 451.062 1.23746 -3.22151 0
M  V30 4937 C 450.175 0.533216 -4.28697 0
M  V30 4938 C 449.31 1.5482 -5.08138 0
M  V30 4939 C 448.349 0.828347 -6.06469 0
M  V30 4940 N 447.486 1.78966 -6.78908 0
M  V30 4941 H 452.326 -0.499037 -2.93792 0
M  V30 4942 H 449.863 -0.25793 -1.44821 0
M  V30 4943 H 451.821 1.84746 -3.74065 0
M  V30 4944 H 450.451 1.91151 -2.60117 0
M  V30 4945 H 449.503 -0.191089 -3.7992 0
M  V30 4946 H 450.815 -0.0311987 -4.9879 0
M  V30 4947 H 449.969 2.23202 -5.6415 0
M  V30 4948 H 448.708 2.14652 -4.37922 0
M  V30 4949 H 447.713 0.130539 -5.49645 0
M  V30 4950 H 448.938 0.235907 -6.7869 0
M  V30 4951 H 446.884 2.37675 -6.1143 0
M  V30 4952 H 446.801 1.27712 -7.45135 0
M  V30 4953 H 448.069 2.46496 -7.395 0
M  V30 4954 N 452.299 1.55045 -0.282633 0
M  V30 4955 C 453.246 2.22822 0.601566 0
M  V30 4956 C 454.216 1.20431 1.14392 0
M  V30 4957 O 455.401 1.48996 1.19184 0
M  V30 4958 C 452.541 2.95873 1.77632 0
M  V30 4959 C 451.654 4.12999 1.26711 0
M  V30 4960 C 450.789 4.73676 2.40426 0
M  V30 4961 C 449.828 5.82981 1.86545 0
M  V30 4962 N 448.965 6.3769 2.93762 0
M  V30 4963 H 453.805 2.97995 0.0169528 0
M  V30 4964 H 451.342 1.471 -0.00339964 0
M  V30 4965 H 453.3 3.36447 2.46697 0
M  V30 4966 H 451.93 2.2311 2.33285 0
M  V30 4967 H 450.982 3.77494 0.469314 0
M  V30 4968 H 452.294 4.91803 0.832518 0
M  V30 4969 H 451.448 5.17008 3.17471 0
M  V30 4970 H 450.187 3.94164 2.87203 0
M  V30 4971 H 449.192 5.39092 1.07983 0
M  V30 4972 H 450.417 6.64366 1.40694 0
M  V30 4973 H 448.363 5.61069 3.39908 0
M  V30 4974 H 448.28 7.11788 2.54744 0
M  V30 4975 H 449.548 6.8568 3.7076 0
M  V30 4976 N 453.777 0.010035 1.57597 0
M  V30 4977 C 455.002 -0.687021 1.95691 0
M  V30 4978 C 455.427 -1.65952 0.885519 0
M  V30 4979 O 454.785 -1.80633 -0.15543 0
M  V30 4980 C 454.833 -1.3864 3.32884 0
M  V30 4981 O 453.937 -2.50115 3.27897 0
M  V30 4982 H 453.278 -0.181989 0.638573 0
M  V30 4983 H 455.808 0.0662122 2.04493 0
M  V30 4984 H 455.818 -1.74754 3.6868 0
M  V30 4985 H 454.493 -0.673411 4.10412 0
M  V30 4986 H 453.07 -2.16253 3.03791 0
M  V30 4987 N 455.255 -1.55392 -0.262866 0
M  V30 4988 C 456.218 -1.88181 -1.30846 0
M  V30 4989 C 457.218 -0.757079 -1.41862 0
M  V30 4990 O 458.408 -1.02519 -1.40838 0
M  V30 4991 C 455.54 -2.09609 -2.68844 0
M  V30 4992 H 456.733 -2.81659 -1.02997 0
M  V30 4993 H 454.286 -1.48039 -0.501414 0
M  V30 4994 H 455.021 -1.18547 -3.01856 0
M  V30 4995 H 454.806 -2.91508 -2.62231 0
M  V30 4996 H 456.296 -2.36215 -3.44372 0
M  V30 4997 N 456.733 0.527833 -1.48498 0
M  V30 4998 C 457.961 1.30823 -1.6029 0
M  V30 4999 C 458.376 1.86945 -0.263974 0
M  V30 5000 O 457.733 1.6651 0.747034 0
M  V30 5001 C 457.784 2.45756 -2.65116 0
M  V30 5002 O 457.505 1.91946 -3.93813 0
M  V30 5003 C 459.006 3.37543 -2.87367 0
M  V30 5004 H 456.226 0.397763 -0.540394 0
M  V30 5005 H 458.77 0.636529 -1.94341 0
M  V30 5006 H 456.925 3.08806 -2.33917 0
M  V30 5007 H 457.339 2.67195 -4.51339 0
M  V30 5008 H 458.813 4.14532 -3.6451 0
M  V30 5009 H 459.29 3.92905 -1.9627 0
M  V30 5010 H 459.896 2.80283 -3.19878 0
M  V30 5011 N 458.211 1.37122 0.776871 0
M  V30 5012 C 459.158 1.3247 1.88998 0
M  V30 5013 C 460.128 0.191143 1.64997 0
M  V30 5014 O 461.313 0.379683 1.86984 0
M  V30 5015 C 458.453 1.13241 3.25992 0
M  V30 5016 C 457.566 2.35782 3.61982 0
M  V30 5017 C 456.701 2.09465 4.88158 0
M  V30 5018 C 455.74 3.279 5.16864 0
M  V30 5019 N 454.877 3.01167 6.34226 0
M  V30 5020 H 459.717 2.27642 1.9231 0
M  V30 5021 H 457.254 1.13125 0.94027 0
M  V30 5022 H 459.212 1.00115 4.0501 0
M  V30 5023 H 457.842 0.217186 3.22069 0
M  V30 5024 H 456.894 2.59666 2.77989 0
M  V30 5025 H 458.206 3.24125 3.79137 0
M  V30 5026 H 457.36 1.93341 5.75069 0
M  V30 5027 H 456.099 1.18452 4.73097 0
M  V30 5028 H 455.104 3.44569 4.2843 0
M  V30 5029 H 456.329 4.19757 5.33836 0
M  V30 5030 H 454.275 2.12779 6.20533 0
M  V30 5031 H 454.192 3.83052 6.51772 0
M  V30 5032 H 455.46 2.88649 7.24087 0
M  V30 5033 N 459.689 -1.00246 1.21608 0
M  V30 5034 C 460.619 -2.10921 1.00172 0
M  V30 5035 C 461.6 -1.69938 -0.0741587 0
M  V30 5036 O 462.785 -1.94009 0.0861753 0
M  V30 5037 C 459.915 -3.42618 0.568355 0
M  V30 5038 C 458.869 -3.97407 1.58909 0
M  V30 5039 C 458.195 -5.25038 1.01187 0
M  V30 5040 C 459.495 -4.2918 2.97661 0
M  V30 5041 H 461.189 -2.29112 1.92739 0
M  V30 5042 H 458.735 -1.10101 0.928102 0
M  V30 5043 H 460.688 -4.19444 0.405555 0
M  V30 5044 H 459.412 -3.24227 -0.392961 0
M  V30 5045 H 458.071 -3.22703 1.73949 0
M  V30 5046 H 457.719 -5.02982 0.0421965 0
M  V30 5047 H 457.419 -5.62661 1.6937 0
M  V30 5048 H 458.943 -6.04507 0.860448 0
M  V30 5049 H 460.357 -4.96839 2.86049 0
M  V30 5050 H 458.754 -4.77952 3.6288 0
M  V30 5051 H 459.824 -3.3735 3.48315 0
M  V30 5052 N 461.167 -1.02423 -1.1978 0
M  V30 5053 C 462.077 -0.610919 -2.26506 0
M  V30 5054 C 463.093 0.355152 -1.70337 0
M  V30 5055 O 464.269 0.214195 -2.00258 0
M  V30 5056 C 461.334 0.0365921 -3.46681 0
M  V30 5057 C 460.395 -0.976389 -4.18049 0
M  V30 5058 C 459.628 -0.359683 -5.32487 0
M  V30 5059 O 459.851 0.838601 -5.64202 0
M  V30 5060 O 458.785 -1.08022 -5.92127 0
M  V30 5061 H 462.611 -1.49965 -2.64091 0
M  V30 5062 H 460.196 -0.794156 -1.26545 0
M  V30 5063 H 462.078 0.39786 -4.19518 0
M  V30 5064 H 460.753 0.899398 -3.10954 0
M  V30 5065 H 459.66 -1.38916 -3.47352 0
M  V30 5066 H 460.993 -1.80941 -4.57735 0
M  V30 5067 N 462.645 1.35699 -0.801477 0
M  V30 5068 C 464.056 1.81415 -0.441073 0
M  V30 5069 C 464.407 1.66595 1.03636 0
M  V30 5070 O 463.532 1.19369 1.80499 0
M  V30 5071 C 464.127 3.29369 -0.793819 0
M  V30 5072 C 462.686 3.73248 -0.486083 0
M  V30 5073 C 461.833 2.57775 -1.02213 0
M  V30 5074 H 464.784 1.23749 -0.993572 0
M  V30 5075 H 464.805 3.80395 -0.0894158 0
M  V30 5076 H 464.317 3.40123 -1.86917 0
M  V30 5077 H 462.418 3.68046 0.580735 0
M  V30 5078 H 462.531 4.68222 -1.01513 0
M  V30 5079 H 460.895 2.50788 -0.444712 0
M  V30 5080 H 461.678 2.71309 -2.10348 0
M  V30 5081 N 464.123 0.554532 1.47522 0
M  V30 5082 C 465.033 -0.197865 2.33764 0
M  V30 5083 C 466.049 -0.914576 1.48025 0
M  V30 5084 O 467.225 -0.884067 1.80959 0
M  V30 5085 C 464.29 -1.21628 3.24665 0
M  V30 5086 C 463.351 -0.507283 4.26292 0
M  V30 5087 C 462.584 -1.47718 5.1285 0
M  V30 5088 O 462.807 -2.7118 5.01814 0
M  V30 5089 O 461.741 -1.00313 5.93482 0
M  V30 5090 H 465.567 0.50949 2.99396 0
M  V30 5091 H 463.152 0.315176 1.46038 0
M  V30 5092 H 465.034 -1.80421 3.80823 0
M  V30 5093 H 463.709 -1.9056 2.61665 0
M  V30 5094 H 462.616 0.121778 3.73902 0
M  V30 5095 H 463.949 0.140544 4.91999 0
M  V30 5096 N 465.601 -1.54893 0.290851 0
M  V30 5097 C 466.849 -1.99538 -0.320756 0
M  V30 5098 C 467.17 -1.18075 -1.55188 0
M  V30 5099 O 466.44 -0.274162 -1.93972 0
M  V30 5100 H 465.02 -0.737052 -0.121507 0
M  V30 5101 H 467.682 -1.90755 0.399832 0
M  V30 5102 H 466.778 -3.06282 -0.599802 0
M  V30 5103 N 467.08 -0.0183926 -1.57589 0
M  V30 5104 C 467.99 0.982943 -2.13015 0
M  V30 5105 C 469.006 1.36443 -1.07979 0
M  V30 5106 O 470.182 1.44802 -1.3998 0
M  V30 5107 C 467.247 2.25024 -2.63752 0
M  V30 5108 C 466.308 1.93018 -3.83461 0
M  V30 5109 C 465.541 3.13706 -4.31769 0
M  V30 5110 O 465.764 4.2601 -3.79305 0
M  V30 5111 O 464.698 2.96629 -5.23732 0
M  V30 5112 H 468.524 0.541709 -2.9883 0
M  V30 5113 H 466.109 0.201565 -1.48034 0
M  V30 5114 H 467.991 2.99441 -2.96502 0
M  V30 5115 H 466.666 2.68349 -1.81026 0
M  V30 5116 H 465.573 1.16019 -3.55655 0
M  V30 5117 H 466.906 1.54516 -4.67317 0
M  V30 5118 N 468.558 1.5553 0.254621 0
M  V30 5119 C 469.521 1.88872 1.29846 0
M  V30 5120 C 470.521 0.764591 1.41459 0
M  V30 5121 O 471.711 1.03265 1.40293 0
M  V30 5122 C 468.843 2.11032 2.67728 0
M  V30 5123 H 470.036 2.82201 1.01502 0
M  V30 5124 H 467.589 1.48303 0.493556 0
M  V30 5125 H 468.324 1.20146 3.01223 0
M  V30 5126 H 468.109 2.92895 2.60682 0
M  V30 5127 H 469.599 2.38038 3.43115 0
M  V30 5128 N 470.036 -0.519951 1.48776 0
M  V30 5129 C 470.968 -1.63973 1.60142 0
M  V30 5130 C 471.981 -1.55404 0.485117 0
M  V30 5131 O 473.17 -1.61682 0.756391 0
M  V30 5132 C 470.27 -3.02676 1.52449 0
M  V30 5133 C 469.443 -3.36624 2.79291 0
M  V30 5134 C 468.502 -4.54652 2.64912 0
M  V30 5135 O 467.528 -4.57374 3.38818 0
M  V30 5136 N 468.73 -5.53432 1.75195 0
M  V30 5137 H 471.495 -1.54656 2.56713 0
M  V30 5138 H 469.056 -0.707439 1.45626 0
M  V30 5139 H 471.048 -3.79525 1.4051 0
M  V30 5140 H 469.618 -3.06018 0.638125 0
M  V30 5141 H 468.838 -2.48855 3.0572 0
M  V30 5142 H 470.126 -3.56094 3.6342 0
M  V30 5143 H 469.524 -5.54018 1.14371 0
M  V30 5144 H 468.081 -6.29459 1.69189 0
M  V30 5145 N 471.514 -1.37532 -0.769588 0
M  V30 5146 C 472.925 -1.29382 -1.346 0
M  V30 5147 C 473.276 0.0576039 -1.96115 0
M  V30 5148 O 472.401 0.95947 -1.93967 0
M  V30 5149 C 472.996 -2.34298 -2.44724 0
M  V30 5150 C 471.555 -2.29776 -2.98128 0
M  V30 5151 C 470.702 -2.18013 -1.71364 0
M  V30 5152 H 473.653 -1.48123 -0.56968 0
M  V30 5153 H 473.674 -1.99089 -3.24259 0
M  V30 5154 H 473.186 -3.32645 -1.99922 0
M  V30 5155 H 471.287 -1.34959 -3.47299 0
M  V30 5156 H 471.4 -3.23276 -3.53595 0
M  V30 5157 H 469.764 -1.64595 -1.94372 0
M  V30 5158 H 470.547 -3.18278 -1.28662 0
M  V30 5159 N 472.992 0.995999 -1.22138 0
M  V30 5160 C 473.924 2.08745 -0.946485 0
M  V30 5161 C 474.937 1.62633 0.0737356 0
M  V30 5162 O 476.126 1.77782 -0.159886 0
M  V30 5163 C 473.226 3.36516 -0.401305 0
M  V30 5164 C 472.399 4.11672 -1.47801 0
M  V30 5165 C 471.458 5.17728 -0.940461 0
M  V30 5166 O 470.484 5.45482 -1.62596 0
M  V30 5167 N 471.686 5.80005 0.239723 0
M  V30 5168 H 474.451 2.32908 -1.88611 0
M  V30 5169 H 472.012 1.16152 -1.12785 0
M  V30 5170 H 474.004 4.04691 -0.0270837 0
M  V30 5171 H 472.574 3.0944 0.443354 0
M  V30 5172 H 471.794 3.38171 -2.02568 0
M  V30 5173 H 473.082 4.58657 -2.20253 0
M  V30 5174 H 472.48 5.5982 0.813518 0
M  V30 5175 H 471.037 6.4943 0.555361 0
M  V30 5176 N 474.47 1.03057 1.19235 0
M  V30 5177 C 475.433 0.617418 2.20727 0
M  V30 5178 C 476.433 -0.319856 1.57587 0
M  V30 5179 O 477.623 -0.106633 1.73873 0
M  V30 5180 C 474.755 -0.096296 3.40764 0
M  V30 5181 H 475.948 1.51544 2.58794 0
M  V30 5182 H 473.501 0.821949 1.32942 0
M  V30 5183 H 474.236 -1.00859 3.08217 0
M  V30 5184 H 474.021 0.577217 3.87828 0
M  V30 5185 H 475.511 -0.372219 4.15938 0
M  V30 5186 N 475.948 -1.35272 0.808662 0
M  V30 5187 C 476.88 -2.28507 0.178149 0
M  V30 5188 C 477.893 -1.50377 -0.623754 0
M  V30 5189 O 479.082 -1.72583 -0.455774 0
M  V30 5190 C 476.182 -3.30038 -0.769959 0
M  V30 5191 C 475.355 -4.37398 -0.0139749 0
M  V30 5192 C 474.414 -5.18775 -0.880875 0
M  V30 5193 O 473.44 -5.68236 -0.331059 0
M  V30 5194 N 474.642 -5.37087 -2.20267 0
M  V30 5195 H 477.407 -2.83255 0.979106 0
M  V30 5196 H 474.968 -1.47643 0.664308 0
M  V30 5197 H 476.96 -3.81371 -1.35418 0
M  V30 5198 H 475.53 -2.75789 -1.47171 0
M  V30 5199 H 474.75 -3.86971 0.751468 0
M  V30 5200 H 476.038 -5.06268 0.506965 0
M  V30 5201 H 475.436 -4.9855 -2.67328 0
M  V30 5202 H 473.993 -5.91593 -2.73608 0
M  V30 5203 N 477.426 -0.562348 -1.47226 0
M  V30 5204 C 478.837 -0.130325 -1.86245 0
M  V30 5205 C 479.188 1.30128 -1.46838 0
M  V30 5206 O 478.313 1.97974 -0.873805 0
M  V30 5207 C 478.908 -0.229738 -3.3802 0
M  V30 5208 C 477.467 0.14728 -3.76112 0
M  V30 5209 C 476.614 -0.574971 -2.71274 0
M  V30 5210 H 479.565 -0.771773 -1.3867 0
M  V30 5211 H 479.586 0.550316 -3.76499 0
M  V30 5212 H 479.098 -1.27178 -3.66671 0
M  V30 5213 H 477.199 1.19023 -3.53078 0
M  V30 5214 H 477.312 -0.214858 -4.78618 0
M  V30 5215 H 475.676 -0.0174756 -2.54694 0
M  V30 5216 H 476.459 -1.61827 -3.02766 0
M  V30 5217 N 478.904 1.54736 -0.299062 0
M  V30 5218 C 479.814 2.27127 0.587413 0
M  V30 5219 C 480.83 1.30575 1.15005 0
M  V30 5220 O 482.006 1.63554 1.17525 0
M  V30 5221 C 479.071 2.99645 1.74395 0
M  V30 5222 C 478.132 4.11731 1.21559 0
M  V30 5223 C 477.365 4.80781 2.317 0
M  V30 5224 O 477.588 4.4918 3.51558 0
M  V30 5225 O 476.522 5.68226 1.98501 0
M  V30 5226 H 480.348 3.037 0.000250109 0
M  V30 5227 H 477.933 1.49256 -0.0655919 0
M  V30 5228 H 479.815 3.45138 2.4178 0
M  V30 5229 H 478.49 2.25969 2.31775 0
M  V30 5230 H 477.397 3.70641 0.507514 0
M  V30 5231 H 478.73 4.87379 0.687233 0
M  V30 5232 N 480.382 0.0267497 1.57577 0
M  V30 5233 C 481.61 -0.662661 1.96001 0
M  V30 5234 C 482.025 -1.65799 0.903117 0
M  V30 5235 O 481.382 -1.82135 -0.115317 0
M  V30 5236 C 481.433 -1.37112 3.34488 0
M  V30 5237 O 481.154 -0.415683 4.36123 0
M  V30 5238 C 482.655 -2.15257 3.8753 0
M  V30 5239 H 479.875 -0.18287 0.6456 0
M  V30 5240 H 482.419 0.0858116 2.0432 0
M  V30 5241 H 480.574 -2.07101 3.27395 0
M  V30 5242 H 480.988 -0.918496 5.16395 0
M  V30 5243 H 482.462 -2.60285 4.86781 0
M  V30 5244 H 482.939 -2.99063 3.21649 0
M  V30 5245 H 483.545 -1.50231 3.97883 0
M  V30 5246 N 481.861 -1.55662 -0.24637 0
M  V30 5247 C 482.808 -1.90361 -1.30504 0
M  V30 5248 C 483.778 -0.757905 -1.47801 0
M  V30 5249 O 484.963 -1.01161 -1.61775 0
M  V30 5250 C 482.103 -2.2042 -2.65535 0
M  V30 5251 C 481.216 -3.47799 -2.56242 0
M  V30 5252 C 480.351 -3.67426 -3.8363 0
M  V30 5253 C 479.39 -4.88403 -3.68956 0
M  V30 5254 N 478.527 -5.04548 -4.88237 0
M  V30 5255 H 483.367 -2.80645 -1.00213 0
M  V30 5256 H 480.904 -1.38924 -0.483577 0
M  V30 5257 H 482.862 -2.35853 -3.44135 0
M  V30 5258 H 481.492 -1.3334 -2.93973 0
M  V30 5259 H 480.544 -3.40694 -1.69208 0
M  V30 5260 H 481.856 -4.36544 -2.4131 0
M  V30 5261 H 481.01 -3.82821 -4.70673 0
M  V30 5262 H 479.749 -2.76914 -4.01459 0
M  V30 5263 H 478.754 -4.72984 -2.80296 0
M  V30 5264 H 479.979 -5.80375 -3.52621 0
M  V30 5265 H 477.925 -4.16974 -5.06427 0
M  V30 5266 H 477.842 -5.87384 -4.75937 0
M  V30 5267 H 479.11 -5.24355 -5.76777 0
M  V30 5268 N 483.339 0.512053 -1.4905 0
M  V30 5269 C 484.75 1.09376 -1.51307 0
M  V30 5270 C 485.101 1.94 -0.292971 0
M  V30 5271 O 484.226 2.07965 0.598277 0
M  V30 5272 C 484.821 1.99031 -2.74176 0
M  V30 5273 C 483.38 2.52385 -2.79247 0
M  V30 5274 C 482.527 1.29749 -2.45073 0
M  V30 5275 H 485.478 0.296467 -1.55906 0
M  V30 5276 H 485.499 2.83569 -2.53711 0
M  V30 5277 H 485.011 1.37412 -3.62959 0
M  V30 5278 H 483.112 3.17673 -1.94716 0
M  V30 5279 H 483.225 2.90293 -3.81139 0
M  V30 5280 H 481.589 1.61912 -1.96612 0
M  V30 5281 H 482.372 0.698555 -3.36118 0
M  V30 5282 N 484.817 1.37938 0.762283 0
M  V30 5283 C 485.727 1.36681 1.90671 0
M  V30 5284 C 486.743 0.265078 1.71969 0
M  V30 5285 O 487.919 0.502055 1.95042 0
M  V30 5286 C 484.984 1.18211 3.25925 0
M  V30 5287 C 484.045 2.3811 3.57214 0
M  V30 5288 C 483.278 2.20512 4.86014 0
M  V30 5289 O 483.501 1.19429 5.57757 0
M  V30 5290 O 482.435 3.08911 5.16583 0
M  V30 5291 H 486.261 2.33091 1.94685 0
M  V30 5292 H 483.846 1.18767 0.906356 0
M  V30 5293 H 485.728 1.09937 4.06807 0
M  V30 5294 H 484.403 0.248807 3.22742 0
M  V30 5295 H 483.31 2.51958 2.76529 0
M  V30 5296 H 484.643 3.30041 3.65149 0
M  V30 5297 N 486.295 -0.989507 1.22664 0
M  V30 5298 C 487.543 -1.72612 1.05117 0
M  V30 5299 C 487.864 -1.90552 -0.414131 0
M  V30 5300 O 487.134 -1.4676 -1.29762 0
M  V30 5301 H 485.714 -0.639555 0.385977 0
M  V30 5302 H 488.376 -1.19158 1.54232 0
M  V30 5303 H 487.472 -2.71926 1.53175 0
M  V30 5304 N 487.773 -1.03688 -1.18687 0
M  V30 5305 C 489.001 -0.757918 -1.92518 0
M  V30 5306 C 489.416 0.684398 -1.75959 0
M  V30 5307 O 488.773 1.46617 -1.08673 0
M  V30 5308 C 488.824 -1.10985 -3.44042 0
M  V30 5309 O 488.545 -2.49554 -3.60076 0
M  V30 5310 C 490.046 -0.854844 -4.3498 0
M  V30 5311 H 487.266 -0.276699 -0.611293 0
M  V30 5312 H 489.81 -1.38352 -1.50595 0
M  V30 5313 H 487.965 -0.529279 -3.83767 0
M  V30 5314 H 488.379 -2.6291 -4.53849 0
M  V30 5315 H 489.853 -1.15098 -5.39867 0
M  V30 5316 H 490.33 0.210507 -4.38695 0
M  V30 5317 H 490.936 -1.41853 -4.00946 0
M  V30 5318 N 489.251 1.34841 -0.815825 0
M  V30 5319 C 490.214 2.27959 -0.238185 0
M  V30 5320 C 491.214 1.49983 0.579816 0
M  V30 5321 O 492.404 1.69617 0.396953 0
M  V30 5322 C 489.536 3.34314 0.666876 0
M  V30 5323 H 490.729 2.80558 -1.05958 0
M  V30 5324 H 488.282 1.44852 -0.587156 0
M  V30 5325 H 489.017 2.86916 1.5116 0
M  V30 5326 H 488.802 3.92014 0.0819106 0
M  V30 5327 H 490.292 4.0379 1.06506 0
M  V30 5328 N 490.729 0.570148 1.46925 0
M  V30 5329 C 491.662 -0.218362 2.27153 0
M  V30 5330 C 492.64 -0.90847 1.34854 0
M  V30 5331 O 493.824 -0.924875 1.64251 0
M  V30 5332 C 490.951 -1.3122 3.12248 0
M  V30 5333 C 489.997 -0.729277 4.20219 0
M  V30 5334 S 490.83 0.434159 5.33737 0
M  V30 5335 C 491.986 -0.661188 6.22398 0
M  V30 5336 H 492.219 0.462393 2.93682 0
M  V30 5337 H 489.752 0.356753 1.50222 0
M  V30 5338 H 491.71 -1.93856 3.61842 0
M  V30 5339 H 490.371 -1.96485 2.45056 0
M  V30 5340 H 489.564 -1.5511 4.79538 0
M  V30 5341 H 489.166 -0.178836 3.73572 0
M  V30 5342 H 491.458 -1.55006 6.5953 0
M  V30 5343 H 492.401 -0.105046 7.08022 0
M  V30 5344 H 492.809 -0.959682 5.56283 0
M  V30 5345 N 492.207 -1.54576 0.307264 0
M  V30 5346 C 493.139 -2.21212 -0.599807 0
M  V30 5347 C 494.152 -1.20685 -1.09266 0
M  V30 5348 O 495.341 -1.47244 -1.00903 0
M  V30 5349 C 492.441 -2.84994 -1.83389 0
M  V30 5350 C 491.614 -4.11511 -1.48248 0
M  V30 5351 C 490.673 -4.59038 -2.57237 0
M  V30 5352 O 489.699 -5.24095 -2.22065 0
M  V30 5353 N 490.901 -4.31884 -3.87887 0
M  V30 5354 H 493.666 -2.99686 -0.0293075 0
M  V30 5355 H 491.227 -1.61379 0.129738 0
M  V30 5356 H 493.219 -3.1372 -2.5566 0
M  V30 5357 H 491.789 -2.10324 -2.31263 0
M  V30 5358 H 491.009 -3.89728 -0.592122 0
M  V30 5359 H 492.297 -4.93879 -1.22316 0
M  V30 5360 H 491.695 -3.79778 -4.19268 0
M  V30 5361 H 490.252 -4.65304 -4.56438 0
M  V30 5362 N 493.685 -0.035106 -1.57561 0
M  V30 5363 C 494.618 0.979673 -2.06101 0
M  V30 5364 C 495.596 1.31378 -0.958046 0
M  V30 5365 O 496.78 1.42942 -1.22881 0
M  V30 5366 C 493.907 2.29809 -2.48808 0
M  V30 5367 C 492.953 2.11817 -3.70184 0
M  V30 5368 S 493.786 1.41143 -5.16565 0
M  V30 5369 C 494.942 2.74341 -5.62572 0
M  V30 5370 H 495.175 0.566506 -2.91853 0
M  V30 5371 H 492.708 0.176744 -1.53385 0
M  V30 5372 H 494.666 3.056 -2.74078 0
M  V30 5373 H 493.327 2.68257 -1.63392 0
M  V30 5374 H 492.52 3.09299 -3.97933 0
M  V30 5375 H 492.122 1.44168 -3.45097 0
M  V30 5376 H 494.414 3.70562 -5.67177 0
M  V30 5377 H 495.357 2.51249 -6.62027 0
M  V30 5378 H 495.765 2.79863 -4.90242 0
M  V30 5379 N 495.163 1.55791 0.238111 0
M  V30 5380 C 496.388 1.8244 0.986432 0
M  V30 5381 C 496.813 0.613314 1.7782 0
M  V30 5382 O 496.171 -0.437767 1.75935 0
M  V30 5383 C 496.219 3.06917 1.893 0
M  V30 5384 O 495.323 2.84449 2.98601 0
M  V30 5385 H 494.664 0.601975 0.280218 0
M  V30 5386 H 497.194 2.02987 0.256437 0
M  V30 5387 H 497.204 3.36583 2.30598 0
M  V30 5388 H 495.879 3.947 1.31091 0
M  V30 5389 H 494.456 2.65972 2.61368 0
M  V30 5390 N 496.642 -0.504142 1.49319 0
M  V30 5391 C 498.058 -0.835039 1.36012 0
M  V30 5392 C 498.258 -1.97674 0.390808 0
M  V30 5393 O 497.314 -2.51867 -0.178655 0
M  V30 5394 C 498.627 -1.17821 2.76656 0
M  V30 5395 C 500.175 -1.2866 2.85334 0
M  V30 5396 C 500.65 -1.66307 4.26739 0
M  V30 5397 N 502.141 -1.73362 4.29534 0
M  V30 5398 C 502.876 -2.0393 5.35911 0
M  V30 5399 N 502.372 -2.32744 6.52535 0
M  V30 5400 N 504.165 -2.05155 5.23324 0
M  V30 5401 H 496.316 0.248764 2.10938 0
M  V30 5402 H 498.579 0.0486962 0.946748 0
M  V30 5403 H 498.285 -0.412682 3.4927 0
M  V30 5404 H 498.159 -2.12239 3.11825 0
M  V30 5405 H 500.546 -2.04285 2.1296 0
M  V30 5406 H 500.627 -0.323004 2.53752 0
M  V30 5407 H 500.271 -0.91234 4.99639 0
M  V30 5408 H 500.201 -2.63761 4.55782 0
M  V30 5409 H 502.692 -1.53268 3.45424 0
M  V30 5410 H 503.005 -2.55248 7.2943 0
M  V30 5411 H 501.35 -2.30207 6.55767 0
M  V30 5412 H 504.541 -1.82119 4.3122 0
M  V30 5413 H 504.714 -2.28644 6.06322 0
M  V30 5414 N 498.12 -1.38341 -0.754957 0
M  V30 5415 C 499.052 -1.31347 -1.87831 0
M  V30 5416 C 500.065 -0.225955 -1.61224 0
M  V30 5417 O 501.254 -0.48341 -1.7183 0
M  V30 5418 C 498.354 -1.01201 -3.23437 0
M  V30 5419 C 497.527 -2.20834 -3.77559 0
M  V30 5420 C 496.586 -1.87454 -4.91678 0
M  V30 5421 O 495.612 -2.59934 -5.06382 0
M  V30 5422 N 496.814 -0.828682 -5.74555 0
M  V30 5423 H 499.579 -2.28147 -1.94342 0
M  V30 5424 H 497.14 -1.32184 -0.934828 0
M  V30 5425 H 499.132 -0.769249 -3.97322 0
M  V30 5426 H 497.702 -0.132011 -3.12321 0
M  V30 5427 H 496.922 -2.61184 -2.95256 0
M  V30 5428 H 498.21 -3.00678 -4.10451 0
M  V30 5429 H 497.608 -0.227591 -5.65242 0
M  V30 5430 H 496.165 -0.645802 -6.48593 0
M  V30 5431 N 499.598 0.982988 -1.23187 0
M  V30 5432 C 500.823 1.76455 -1.08988 0
M  V30 5433 C 501.248 1.84726 0.354691 0
M  V30 5434 O 500.606 1.30699 1.25649 0
M  V30 5435 C 500.654 3.17094 -1.71708 0
M  V30 5436 O 499.758 4.00648 -0.977477 0
M  V30 5437 H 499.099 0.542988 -0.382177 0
M  V30 5438 H 501.629 1.23413 -1.63188 0
M  V30 5439 H 501.639 3.67684 -1.76841 0
M  V30 5440 H 500.314 3.10389 -2.76823 0
M  V30 5441 H 498.891 3.59161 -1.0029 0
M  V30 5442 N 501.076 1.04316 1.18135 0
M  V30 5443 C 501.986 0.646876 2.25505 0
M  V30 5444 C 503.002 -0.328008 1.7088 0
M  V30 5445 O 504.178 -0.182309 2.00573 0
M  V30 5446 C 501.243 0.0185664 3.46695 0
M  V30 5447 C 500.304 1.04277 4.16443 0
M  V30 5448 C 499.537 0.444352 5.31847 0
M  V30 5449 O 499.76 -0.748735 5.65465 0
M  V30 5450 O 498.694 1.17428 5.90334 0
M  V30 5451 H 502.52 1.54147 2.61672 0
M  V30 5452 H 500.105 0.814188 1.25265 0
M  V30 5453 H 501.987 -0.331068 4.20097 0
M  V30 5454 H 500.662 -0.849814 3.12346 0
M  V30 5455 H 499.569 1.44425 3.45098 0
M  V30 5456 H 500.902 1.882 4.54798 0
M  V30 5457 N 502.554 -1.34406 0.822964 0
M  V30 5458 C 503.803 -1.97542 0.407458 0
M  V30 5459 C 504.116 -1.65973 -1.035 0
M  V30 5460 O 505.322 -2.22598 -1.55442 0
M  V30 5461 C 503.778 -3.53463 0.677623 0
M  V30 5462 C 503.386 -3.93925 2.1337 0
M  V30 5463 C 505.13 -4.23229 0.328284 0
M  V30 5464 C 503.037 -5.42759 2.34876 0
M  V30 5465 H 501.967 -0.739207 0.148623 0
M  V30 5466 H 504.618 -1.53248 1.00932 0
M  V30 5467 H 503 -3.96 0.00558965 0
M  V30 5468 H 504.174 -3.62494 2.8449 0
M  V30 5469 H 502.489 -3.37097 2.44448 0
M  V30 5470 H 505.086 -5.32659 0.466794 0
M  V30 5471 H 505.429 -4.09899 -0.727224 0
M  V30 5472 H 505.962 -3.86169 0.954896 0
M  V30 5473 H 502.701 -5.61075 3.38932 0
M  V30 5474 H 502.221 -5.75704 1.68299 0
M  V30 5475 H 503.9 -6.0944 2.17236 0
M  V30 5476 N 504.032 -0.577932 -1.46621 0
M  V30 5477 C 504.962 0.145917 -2.33044 0
M  V30 5478 C 505.943 0.888412 -1.45056 0
M  V30 5479 O 507.128 0.864812 -1.73881 0
M  V30 5480 C 504.258 1.16322 -3.27241 0
M  V30 5481 C 503.212 0.535868 -4.24632 0
M  V30 5482 C 502.538 1.65929 -5.08303 0
M  V30 5483 C 503.838 -0.523861 -5.19666 0
M  V30 5484 H 505.532 -0.575636 -2.93814 0
M  V30 5485 H 503.078 -0.278272 -1.41286 0
M  V30 5486 H 505.031 1.67793 -3.86553 0
M  V30 5487 H 503.755 1.91498 -2.64567 0
M  V30 5488 H 502.414 0.0422759 -3.66576 0
M  V30 5489 H 502.062 2.40061 -4.42018 0
M  V30 5490 H 501.762 1.2452 -5.74255 0
M  V30 5491 H 503.286 2.17686 -5.70478 0
M  V30 5492 H 504.7 -0.0944059 -5.73222 0
M  V30 5493 H 503.097 -0.858 -5.93935 0
M  V30 5494 H 504.167 -1.41197 -4.63887 0
M  V30 5495 N 505.51 1.54411 -0.315457 0
M  V30 5496 C 506.758 2.00023 0.288971 0
M  V30 5497 C 507.079 1.20529 1.5329 0
M  V30 5498 O 506.349 0.304986 1.93511 0
M  V30 5499 H 504.929 0.738891 0.109766 0
M  V30 5500 H 507.591 1.90094 -0.430129 0
M  V30 5501 H 506.687 3.07198 0.550999 0
M  V30 5502 N 506.988 0.0434614 1.5754 0
M  V30 5503 C 508.235 -0.632035 1.92384 0
M  V30 5504 C 508.563 -1.71304 0.921157 0
M  V30 5505 O 507.818 -1.95583 -0.067744 0
M  V30 5506 C 508.117 -1.2738 3.3393 0
M  V30 5507 C 507.783 -0.321757 4.49751 0
M  V30 5508 C 506.445 -0.0597611 4.81163 0
M  V30 5509 C 508.797 0.331158 5.20147 0
M  V30 5510 C 506.125 0.862715 5.80322 0
M  V30 5511 C 508.477 1.24178 6.20292 0
M  V30 5512 C 507.141 1.51252 6.50138 0
M  V30 5513 H 506.411 -0.231278 0.703983 0
M  V30 5514 H 509.058 0.108294 1.91194 0
M  V30 5515 H 507.363 -2.08921 3.3145 0
M  V30 5516 H 509.06 -1.80326 3.58167 0
M  V30 5517 H 505.65 -0.53614 4.25233 0
M  V30 5518 H 509.834 0.141826 4.96097 0
M  V30 5519 H 505.09 1.08003 6.01785 0
M  V30 5520 H 509.264 1.75381 6.73954 0
M  V30 5521 H 506.891 2.22897 7.26788 0
M  V30 5522 N 508.466 -1.55915 -0.229846 0
M  V30 5523 C 509.877 -1.68809 -0.797531 0
M  V30 5524 C 510.228 -0.643995 -1.8533 0
M  V30 5525 O 509.353 0.206492 -2.15413 0
M  V30 5526 C 509.948 -3.06043 -1.45338 0
M  V30 5527 C 508.507 -3.20819 -1.96856 0
M  V30 5528 C 507.654 -2.6472 -0.825736 0
M  V30 5529 H 510.605 -1.58699 -0.00533733 0
M  V30 5530 H 510.626 -3.01438 -2.32196 0
M  V30 5531 H 510.138 -3.82012 -0.684743 0
M  V30 5532 H 508.239 -2.49704 -2.76548 0
M  V30 5533 H 508.352 -4.27937 -2.15423 0
M  V30 5534 H 506.716 -2.22985 -1.23084 0
M  V30 5535 H 507.499 -3.43229 -0.0699019 0
M  V30 5536 N 509.944 0.496216 -1.49584 0
M  V30 5537 C 511.169 1.27865 -1.63295 0
M  V30 5538 C 511.594 1.85592 -0.306156 0
M  V30 5539 O 510.952 1.66092 0.726851 0
M  V30 5540 C 511 2.38128 -2.7079 0
M  V30 5541 O 510.104 3.42108 -2.30296 0
M  V30 5542 H 509.445 0.377279 -0.546403 0
M  V30 5543 H 511.975 0.593497 -1.95803 0
M  V30 5544 H 511.985 2.8382 -2.93104 0
M  V30 5545 H 510.66 1.95479 -3.67098 0
M  V30 5546 H 509.237 3.02301 -2.18331 0
M  V30 5547 N 511.423 1.38739 0.74761 0
M  V30 5548 C 512.37 1.36449 1.86146 0
M  V30 5549 C 513.34 0.226098 1.64554 0
M  V30 5550 O 514.525 0.41926 1.86137 0
M  V30 5551 C 511.665 1.2013 3.23516 0
M  V30 5552 C 510.778 2.43407 3.56899 0
M  V30 5553 C 509.913 2.19773 4.83605 0
M  V30 5554 C 508.952 3.3879 5.09792 0
M  V30 5555 N 508.089 3.14553 6.27695 0
M  V30 5556 H 512.929 2.3167 1.87438 0
M  V30 5557 H 510.466 1.15094 0.916063 0
M  V30 5558 H 512.424 1.08683 4.02795 0
M  V30 5559 H 511.054 0.285453 3.21535 0
M  V30 5560 H 510.106 2.65504 2.72418 0
M  V30 5561 H 511.418 3.32094 3.72176 0
M  V30 5562 H 510.572 2.05496 5.70838 0
M  V30 5563 H 509.311 1.28461 4.70478 0
M  V30 5564 H 508.316 3.53579 4.21025 0
M  V30 5565 H 509.541 4.30986 5.24812 0
M  V30 5566 H 507.487 2.25893 6.1588 0
M  V30 5567 H 507.404 3.96791 6.435 0
M  V30 5568 H 508.672 3.03943 7.17801 0
M  V30 5569 N 512.901 -0.976442 1.23707 0
M  V30 5570 C 514.312 -1.53284 1.06587 0
M  V30 5571 C 514.663 -1.92765 -0.365526 0
M  V30 5572 O 513.788 -1.7645 -1.25277 0
M  V30 5573 C 514.383 -2.78548 1.92864 0
M  V30 5574 C 512.942 -3.30574 1.79994 0
M  V30 5575 C 512.089 -2.03538 1.88328 0
M  V30 5576 H 515.04 -0.795692 1.37311 0
M  V30 5577 H 515.061 -3.5155 1.45577 0
M  V30 5578 H 514.573 -2.49782 2.97037 0
M  V30 5579 H 512.674 -3.64211 0.786202 0
M  V30 5580 H 512.787 -4.00065 2.636 0
M  V30 5581 H 511.151 -2.17853 1.31954 0
M  V30 5582 H 511.934 -1.77149 2.94063 0
M  V30 5583 N 514.379 -1.04941 -1.1758 0
M  V30 5584 C 515.604 -0.778253 -1.92245 0
M  V30 5585 C 516.029 0.659707 -1.76152 0
M  V30 5586 O 515.387 1.45803 -1.07755 0
M  V30 5587 C 515.435 -1.16051 -3.41416 0
M  V30 5588 O 514.539 -0.291153 -4.11371 0
M  V30 5589 H 513.88 -0.285619 -0.599431 0
M  V30 5590 H 516.41 -1.40159 -1.49052 0
M  V30 5591 H 516.42 -1.12619 -3.92149 0
M  V30 5592 H 515.095 -2.208 -3.52449 0
M  V30 5593 H 513.672 -0.385851 -3.70898 0
M  V30 5594 N 515.857 1.33968 -0.830081 0
M  V30 5595 C 517.085 2.0228 -0.434773 0
M  V30 5596 C 517.5 1.62487 0.961419 0
M  V30 5597 O 516.857 0.833849 1.62337 0
M  V30 5598 C 516.908 3.5751 -0.535625 0
M  V30 5599 O 516.629 3.95864 -1.87679 0
M  V30 5600 C 518.13 4.43091 -0.136137 0
M  V30 5601 H 515.35 0.648151 -0.173613 0
M  V30 5602 H 517.894 1.71089 -1.12022 0
M  V30 5603 H 516.049 3.87266 0.101817 0
M  V30 5604 H 516.463 4.9056 -1.85609 0
M  V30 5605 H 517.937 5.51398 -0.257772 0
M  V30 5606 H 518.414 4.29433 0.921076 0
M  V30 5607 H 519.02 4.18677 -0.747662 0
M  V30 5608 N 517.335 0.585699 1.46312 0
M  V30 5609 C 518.268 -0.194257 2.27372 0
M  V30 5610 C 519.246 -0.894116 1.3581 0
M  V30 5611 O 520.43 -0.907402 1.65222 0
M  V30 5612 C 517.557 -1.27901 3.13622 0
M  V30 5613 C 516.603 -0.684666 4.20969 0
M  V30 5614 S 517.436 0.490745 5.33247 0
M  V30 5615 C 518.592 -0.595137 6.23064 0
M  V30 5616 H 518.825 0.493515 2.93175 0
M  V30 5617 H 516.358 0.372666 1.49835 0
M  V30 5618 H 518.316 -1.90008 3.63878 0
M  V30 5619 H 516.977 -1.93875 2.47126 0
M  V30 5620 H 516.17 -1.50015 4.81156 0
M  V30 5621 H 515.772 -0.139204 3.73741 0
M  V30 5622 H 518.064 -1.48002 6.61137 0
M  V30 5623 H 519.007 -0.0299446 7.08094 0
M  V30 5624 H 519.415 -0.900627 5.57269 0
M  V30 5625 N 518.813 -1.54241 0.323641 0
M  V30 5626 C 519.723 -2.28033 -0.551205 0
M  V30 5627 C 520.739 -1.32388 -1.12913 0
M  V30 5628 O 521.915 -1.65403 -1.14908 0
M  V30 5629 C 518.98 -3.02382 -1.69606 0
M  V30 5630 C 518.041 -4.13612 -1.14993 0
M  V30 5631 C 517.274 -4.84407 -2.24022 0
M  V30 5632 O 517.497 -4.54716 -3.44368 0
M  V30 5633 O 516.431 -5.71312 -1.89436 0
M  V30 5634 H 520.257 -3.03662 0.048066 0
M  V30 5635 H 517.842 -1.49133 0.0893289 0
M  V30 5636 H 519.724 -3.48941 -2.36259 0
M  V30 5637 H 518.399 -2.29628 -2.28151 0
M  V30 5638 H 517.306 -3.71402 -0.448484 0
M  V30 5639 H 518.639 -4.8841 -0.609608 0
M  V30 5640 N 520.291 -0.0518155 -1.57515 0
M  V30 5641 C 521.519 0.631395 -1.9703 0
M  V30 5642 C 521.934 1.64341 -0.92938 0
M  V30 5643 O 521.291 1.82296 0.0863266 0
M  V30 5644 C 521.342 1.31774 -3.36627 0
M  V30 5645 O 521.063 0.346247 -4.3673 0
M  V30 5646 C 522.564 2.09065 -3.90905 0
M  V30 5647 H 519.784 0.172576 -0.648428 0
M  V30 5648 H 522.328 -0.118306 -2.04158 0
M  V30 5649 H 520.483 2.01867 -3.30649 0
M  V30 5650 H 520.897 0.836226 -5.17791 0
M  V30 5651 H 522.371 2.52508 -4.9086 0
M  V30 5652 H 522.848 2.93908 -3.26366 0
M  V30 5653 H 523.454 1.43882 -4.00223 0
M  V30 5654 N 521.769 1.56035 0.221574 0
M  V30 5655 C 522.679 1.95581 1.29558 0
M  V30 5656 C 523.695 0.859639 1.51282 0
M  V30 5657 O 524.871 1.16321 1.64413 0
M  V30 5658 C 521.936 2.26447 2.62531 0
M  V30 5659 C 520.997 3.49632 2.4911 0
M  V30 5660 C 520.23 3.79017 3.75742 0
M  V30 5661 O 520.453 3.10077 4.78757 0
M  V30 5662 O 519.387 4.72507 3.72855 0
M  V30 5663 H 523.213 2.8711 0.990035 0
M  V30 5664 H 520.798 1.43244 0.424434 0
M  V30 5665 H 522.68 2.47494 3.41064 0
M  V30 5666 H 521.355 1.38092 2.92766 0
M  V30 5667 H 520.262 3.33864 1.68777 0
M  V30 5668 H 521.595 4.3837 2.23814 0
M  V30 5669 N 523.247 -0.488276 1.49845 0
M  V30 5670 C 524.157 -1.61451 1.70207 0
M  V30 5671 C 525.173 -1.63877 0.584846 0
M  V30 5672 O 526.349 -1.82063 0.861107 0
M  V30 5673 C 523.414 -2.9776 1.77594 0
M  V30 5674 C 522.475 -3.05861 3.01243 0
M  V30 5675 C 521.708 -4.35668 3.08268 0
M  V30 5676 O 521.931 -5.25197 2.22541 0
M  V30 5677 O 520.865 -4.49005 4.00847 0
M  V30 5678 H 524.691 -1.47199 2.65643 0
M  V30 5679 H 522.276 -0.665939 1.33737 0
M  V30 5680 H 524.158 -3.7875 1.84732 0
M  V30 5681 H 522.833 -3.12248 0.8534 0
M  V30 5682 H 521.74 -2.24012 2.99616 0
M  V30 5683 H 523.073 -2.96304 3.9302 0
M  V30 5684 N 524.725 -1.39134 -0.740242 0
M  V30 5685 C 525.973 -1.35803 -1.49673 0
M  V30 5686 C 526.294 0.0470897 -1.94943 0
M  V30 5687 O 525.564 0.997347 -1.68611 0
M  V30 5688 H 524.144 -0.499736 -0.555224 0
M  V30 5689 H 526.806 -1.73947 -0.879107 0
M  V30 5690 H 525.902 -2.0174 -2.38133 0
M  V30 5691 N 526.204 0.969867 -1.24223 0
M  V30 5692 C 527.615 1.52717 -1.07399 0
M  V30 5693 C 527.966 1.92956 0.355298 0
M  V30 5694 O 527.091 1.77112 1.2434 0
M  V30 5695 C 527.686 2.77521 -1.94339 0
M  V30 5696 C 526.245 3.29615 -1.81744 0
M  V30 5697 C 525.392 2.02537 -1.89405 0
M  V30 5698 H 528.343 0.788399 -1.37732 0
M  V30 5699 H 528.364 3.50773 -1.47439 0
M  V30 5700 H 527.876 2.48203 -2.98357 0
M  V30 5701 H 525.977 3.63789 -0.805505 0
M  V30 5702 H 526.09 3.98661 -2.65718 0
M  V30 5703 H 524.454 2.17151 -1.33108 0
M  V30 5704 H 525.237 1.75587 -2.94999 0
M  V30 5705 N 527.682 1.05563 1.17022 0
M  V30 5706 C 529.093 0.793475 1.69 0
M  V30 5707 C 529.444 -0.683882 1.83895 0
M  V30 5708 O 528.569 -1.53116 1.5292 0
M  V30 5709 C 529.164 1.43376 3.06967 0
M  V30 5710 C 527.723 1.21956 3.56095 0
M  V30 5711 C 526.87 1.51494 2.3226 0
M  V30 5712 H 529.821 1.22008 1.01487 0
M  V30 5713 H 529.842 0.845068 3.70997 0
M  V30 5714 H 529.354 2.50899 2.96093 0
M  V30 5715 H 527.455 0.163749 3.7224 0
M  V30 5716 H 527.568 1.92713 4.38633 0
M  V30 5717 H 525.932 0.935175 2.3691 0
M  V30 5718 H 526.715 2.60159 2.23992 0
M  V30 5719 N 529.16 -1.33526 0.837174 0
M  V30 5720 C 530.092 -2.28077 0.226579 0
M  V30 5721 C 531.105 -1.51666 -0.591717 0
M  V30 5722 O 532.294 -1.73511 -0.419064 0
M  V30 5723 C 529.394 -3.31597 -0.69978 0
M  V30 5724 C 528.567 -4.37329 0.0788067 0
M  V30 5725 C 527.626 -5.20526 -0.770637 0
M  V30 5726 O 526.652 -5.68811 -0.210453 0
M  V30 5727 N 527.854 -5.41639 -2.08825 0
M  V30 5728 H 530.619 -2.81115 1.03897 0
M  V30 5729 H 528.18 -1.46201 0.695476 0
M  V30 5730 H 530.172 -3.84158 -1.27298 0
M  V30 5731 H 528.742 -2.78848 -1.41288 0
M  V30 5732 H 527.962 -3.8529 0.833381 0
M  V30 5733 H 529.25 -5.05079 0.614238 0
M  V30 5734 H 528.648 -5.04108 -2.56693 0
M  V30 5735 H 527.205 -5.97263 -2.60998 0
M  V30 5736 N 530.638 -0.59345 -1.46 0
M  V30 5737 C 531.57 0.171569 -2.28557 0
M  V30 5738 C 532.583 0.845273 -1.39137 0
M  V30 5739 O 533.772 0.713033 -1.6364 0
M  V30 5740 C 530.872 1.26311 -3.14482 0
M  V30 5741 C 530.045 0.679258 -4.32094 0
M  V30 5742 C 529.104 1.65987 -4.99334 0
M  V30 5743 O 528.13 1.19171 -5.56585 0
M  V30 5744 N 529.332 2.99414 -4.97324 0
M  V30 5745 H 532.097 -0.536771 -2.94854 0
M  V30 5746 H 529.658 -0.431954 -1.56031 0
M  V30 5747 H 531.65 1.91863 -3.5633 0
M  V30 5748 H 530.22 1.87416 -2.50188 0
M  V30 5749 H 529.44 -0.153992 -3.93899 0
M  V30 5750 H 530.728 0.26916 -5.08088 0
M  V30 5751 H 530.126 3.40064 -4.52076 0
M  V30 5752 H 528.683 3.60426 -5.4308 0
M  V30 5753 N 532.116 1.54067 -0.331816 0
M  V30 5754 C 533.527 1.86059 0.15454 0
M  V30 5755 C 533.878 1.25331 1.50952 0
M  V30 5756 O 533.003 0.562441 2.08963 0
M  V30 5757 C 533.598 3.37581 0.287192 0
M  V30 5758 C 532.157 3.69493 0.717773 0
M  V30 5759 C 531.304 2.76863 -0.155569 0
M  V30 5760 H 534.255 1.48797 -0.55182 0
M  V30 5761 H 534.276 3.63744 1.11671 0
M  V30 5762 H 533.788 3.81751 -0.699131 0
M  V30 5763 H 531.889 3.3086 1.71354 0
M  V30 5764 H 532.002 4.76315 0.5158 0
M  V30 5765 H 530.366 2.51995 0.370213 0
M  V30 5766 H 531.149 3.23861 -1.13881 0
M  V30 5767 N 533.594 0.0601682 1.57485 0
M  V30 5768 C 535.005 -0.474217 1.80577 0
M  V30 5769 C 535.356 -1.70365 0.973147 0
M  V30 5770 O 534.481 -2.15544 0.192306 0
M  V30 5771 C 535.076 -0.867102 3.27516 0
M  V30 5772 C 533.635 -1.34642 3.51495 0
M  V30 5773 C 532.782 -0.32594 2.75378 0
M  V30 5774 H 535.733 0.285973 1.56102 0
M  V30 5775 H 535.754 -1.72938 3.38929 0
M  V30 5776 H 535.266 0.0278927 3.8809 0
M  V30 5777 H 533.367 -2.2603 2.96212 0
M  V30 5778 H 533.48 -1.33237 4.60201 0
M  V30 5779 H 531.844 -0.800749 2.41785 0
M  V30 5780 H 532.627 0.561125 3.38683 0
M  V30 5781 N 535.072 -1.5615 -0.213296 0
M  V30 5782 C 535.982 -1.96265 -1.28519 0
M  V30 5783 C 536.998 -0.86765 -1.50824 0
M  V30 5784 O 538.174 -1.17191 -1.63793 0
M  V30 5785 C 535.239 -2.27836 -2.61327 0
M  V30 5786 C 534.3 -3.50949 -2.47252 0
M  V30 5787 C 533.533 -3.81004 -3.73727 0
M  V30 5788 O 533.756 -3.12612 -4.77106 0
M  V30 5789 O 532.69 -4.74477 -3.70344 0
M  V30 5790 H 536.516 -2.87631 -0.974795 0
M  V30 5791 H 534.101 -1.43467 -0.416832 0
M  V30 5792 H 535.983 -2.49299 -3.39747 0
M  V30 5793 H 534.658 -1.39643 -2.9203 0
M  V30 5794 H 533.565 -3.34754 -1.67004 0
M  V30 5795 H 534.898 -4.39551 -2.21486 0
M  V30 5796 N 536.55 0.480323 -1.50102 0
M  V30 5797 C 537.778 1.25657 -1.64371 0
M  V30 5798 C 538.193 1.86011 -0.323316 0
M  V30 5799 O 537.55 1.68803 0.693682 0
M  V30 5800 C 537.601 2.37197 -2.728 0
M  V30 5801 O 537.322 1.7932 -3.9972 0
M  V30 5802 C 538.823 3.2823 -2.9796 0
M  V30 5803 H 536.043 0.380369 -0.552775 0
M  V30 5804 H 538.587 0.574379 -1.96268 0
M  V30 5805 H 536.742 3.01208 -2.43623 0
M  V30 5806 H 537.156 2.52701 -4.59611 0
M  V30 5807 H 538.63 4.02725 -3.77513 0
M  V30 5808 H 539.107 3.86462 -2.08671 0
M  V30 5809 H 539.713 2.69964 -3.28633 0
M  V30 5810 N 538.028 1.39524 0.732853 0
M  V30 5811 C 539.444 1.21176 1.03868 0
M  V30 5812 C 539.644 0.0748448 2.01361 0
M  V30 5813 O 538.7 -0.57281 2.45917 0
M  V30 5814 C 540.013 2.54667 1.59892 0
M  V30 5815 C 541.561 2.6153 1.71962 0
M  V30 5816 C 542.036 3.95248 2.31394 0
M  V30 5817 N 543.527 3.96899 2.38801 0
M  V30 5818 C 544.262 4.97138 2.85729 0
M  V30 5819 N 543.758 6.07775 3.32537 0
M  V30 5820 N 545.551 4.84516 2.84957 0
M  V30 5821 H 537.702 2.12225 0.086304 0
M  V30 5822 H 539.965 0.942614 0.100907 0
M  V30 5823 H 539.671 3.38423 0.95721 0
M  V30 5824 H 539.545 2.74538 2.58668 0
M  V30 5825 H 541.932 1.78156 2.35254 0
M  V30 5826 H 542.013 2.45507 0.718327 0
M  V30 5827 H 541.657 4.79054 1.68729 0
M  V30 5828 H 541.587 4.08593 3.32204 0
M  V30 5829 H 544.078 3.16998 2.05719 0
M  V30 5830 H 544.391 6.8017 3.66862 0
M  V30 5831 H 542.736 6.11366 3.30541 0
M  V30 5832 H 545.927 3.97185 2.47713 0
M  V30 5833 H 546.1 5.62783 3.21215 0
M  V30 5834 N 539.506 -0.963266 1.24736 0
M  V30 5835 C 540.469 -2.04013 1.04457 0
M  V30 5836 C 541.469 -1.608 0.000335555 0
M  V30 5837 O 542.659 -1.72515 0.241719 0
M  V30 5838 C 539.791 -3.35858 0.584162 0
M  V30 5839 H 540.984 -2.23436 2.00041 0
M  V30 5840 H 538.537 -1.13914 1.07021 0
M  V30 5841 H 539.272 -3.22128 -0.374673 0
M  V30 5842 H 539.057 -3.68568 1.3379 0
M  V30 5843 H 540.547 -4.1502 0.463451 0
M  V30 5844 N 540.985 -1.06182 -1.16461 0
M  V30 5845 C 541.917 -0.629584 -2.20383 0
M  V30 5846 C 542.93 0.311834 -1.59786 0
M  V30 5847 O 544.119 0.103 -1.78203 0
M  V30 5848 C 541.219 0.0973695 -3.3876 0
M  V30 5849 C 540.392 -0.857252 -4.28917 0
M  V30 5850 C 539.451 -0.169749 -5.25926 0
M  V30 5851 O 538.477 -0.807044 -5.6345 0
M  V30 5852 N 539.679 1.08911 -5.70192 0
M  V30 5853 H 542.444 -1.52352 -2.58087 0
M  V30 5854 H 540.005 -0.944993 -1.31459 0
M  V30 5855 H 541.997 0.567676 -4.00699 0
M  V30 5856 H 540.567 0.893093 -2.99571 0
M  V30 5857 H 539.787 -1.50696 -3.64259 0
M  V30 5858 H 541.075 -1.50489 -4.86035 0
M  V30 5859 H 540.473 1.62703 -5.41797 0
M  V30 5860 H 539.03 1.50331 -6.34227 0
M  V30 5861 O 542.502 1.28464 -0.97874 0
M  V30 5862 H 543.193 1.83432 -0.622284 0
M  V30 END ATOM
M  V30 BEGIN BOND
M  V30 END BOND
M  V30 END CTAB
M  END
$$$$
