drugbank_target|Q746L7 2-keto-3-deoxy-gluconate kinase (DB03489)
 OpenBabel12092120273D

  0  0  0     0  0            999 V3000
M  V30 BEGIN CTAB
M  V30 COUNTS 4736 4786 0 0 0
M  V30 BEGIN ATOM
M  V30 1 H -0.908 1.98254 -0.117106 0
M  V30 2 N 0 1.576 0 0
M  V30 3 C 0.933 2.03868 1.02534 0
M  V30 4 C 1.911 0.928543 1.3348 0
M  V30 5 O 3.095 1.19667 1.45644 0
M  V30 6 C 0.222 2.43627 2.35294 0
M  V30 7 C -0.732 3.65373 2.2001 0
M  V30 8 S 0.101 5.13292 1.52614 0
M  V30 9 C 1.257 5.56322 2.86805 0
M  V30 10 H 1.49 2.90518 0.631377 0
M  V30 11 H -0.977 1.52953 0.210867 0
M  V30 12 H 0.981 2.67203 3.11629 0
M  V30 13 H -0.358 1.57376 2.7183 0
M  V30 14 H -1.165 3.90944 3.18086 0
M  V30 15 H -1.563 3.418 1.51819 0
M  V30 16 H 0.729 5.58782 3.83104 0
M  V30 17 H 1.672 6.56266 2.65933 0
M  V30 18 H 2.08 4.83886 2.90714 0
M  V30 19 N 1.4781 -0.272755 1.55222 0
M  V30 20 C 2.4081 -1.34136 1.91127 0
M  V30 21 C 3.3891 -1.51513 0.773168 0
M  V30 22 O 4.5741 -1.64552 1.03132 0
M  V30 23 C 1.7041 -2.70083 2.1834 0
M  V30 24 C 0.6581 -2.67437 3.34158 0
M  V30 25 C -0.0159 -4.06938 3.46851 0
M  V30 26 C 1.2841 -2.26686 4.70543 0
M  V30 27 H 2.9781 -1.04333 2.80633 0
M  V30 28 H 0.5241 -0.500454 1.35024 0
M  V30 29 H 2.4771 -3.44952 2.42046 0
M  V30 30 H 1.2011 -3.01469 1.25634 0
M  V30 31 H -0.1399 -1.95026 3.1042 0
M  V30 32 H -0.4919 -4.35547 2.51611 0
M  V30 33 H -0.7919 -4.06062 4.2472 0
M  V30 34 H 0.7321 -4.83545 3.72849 0
M  V30 35 H 2.1461 -2.91277 4.93792 0
M  V30 36 H 0.5431 -2.36971 5.5133 0
M  V30 37 H 1.6131 -1.21818 4.69349 0
M  V30 38 N 2.9562 -1.48159 -0.537278 0
M  V30 39 C 3.8662 -1.64807 -1.6696 0
M  V30 40 C 4.8822 -0.530651 -1.65711 0
M  V30 41 O 6.0582 -0.800784 -1.84796 0
M  V30 42 C 3.1232 -1.67708 -3.03438 0
M  V30 43 C 2.1842 -2.91025 -3.156 0
M  V30 44 C 1.4172 -2.93778 -4.45567 0
M  V30 45 O 1.6402 -2.05153 -5.3223 0
M  V30 46 O 0.5742 -3.85868 -4.61941 0
M  V30 47 H 4.4002 -2.6066 -1.55853 0
M  V30 48 H 1.9852 -1.31475 -0.709549 0
M  V30 49 H 3.8672 -1.7218 -3.84619 0
M  V30 50 H 2.5422 -0.750278 -3.14885 0
M  V30 51 H 1.4492 -2.92089 -2.33741 0
M  V30 52 H 2.7822 -3.83065 -3.09066 0
M  V30 53 N 4.4343 0.785586 -1.36625 0
M  V30 54 C 5.6803 1.54591 -1.31261 0
M  V30 55 C 6.0133 1.93906 0.106823 0
M  V30 56 O 5.2883 1.63007 1.06108 0
M  V30 57 C 5.5713 2.82038 -2.23889 0
M  V30 58 C 5.4243 2.49066 -3.74548 0
M  V30 59 C 6.7433 3.83887 -2.15217 0
M  V30 60 H 3.8623 0.560846 -0.478143 0
M  V30 61 H 6.5043 0.902278 -1.67209 0
M  V30 62 H 4.6543 3.36961 -1.93363 0
M  V30 63 H 6.3263 2.00164 -4.15611 0
M  V30 64 H 4.5693 1.81954 -3.93796 0
M  V30 65 H 5.2403 3.40109 -4.34776 0
M  V30 66 H 7.7163 3.38421 -2.42096 0
M  V30 67 H 6.5923 4.70806 -2.82193 0
M  V30 68 H 6.8533 4.27131 -1.14068 0
M  V30 69 N 5.9124 1.20967 1.01018 0
M  V30 70 C 7.1584 1.02526 1.74975 0
M  V30 71 C 7.4914 -0.4408 1.89131 0
M  V30 72 O 6.7664 -1.32718 1.42184 0
M  V30 73 C 7.0494 1.71699 3.1653 0
M  V30 74 C 6.9024 3.25791 3.10129 0
M  V30 75 C 8.2214 1.45531 4.15342 0
M  V30 76 H 5.3404 0.373863 0.635134 0
M  V30 77 H 7.9824 1.49071 1.17805 0
M  V30 78 H 6.1324 1.32128 3.65341 0
M  V30 79 H 7.8044 3.74697 2.69072 0
M  V30 80 H 6.0474 3.56363 2.47362 0
M  V30 81 H 6.7184 3.69353 4.10222 0
M  V30 82 H 9.1944 1.79872 3.75213 0
M  V30 83 H 8.0704 1.96453 5.1254 0
M  V30 84 H 8.3314 0.384237 4.40427 0
M  V30 85 N 7.3905 -1.2043 1.01659 0
M  V30 86 C 8.6185 -1.93777 0.725132 0
M  V30 87 C 9.0335 -1.74772 -0.714166 0
M  V30 88 O 8.3905 -1.06169 -1.4844 0
M  V30 89 C 8.4415 -3.45876 1.05129 0
M  V30 90 O 8.1625 -3.6426 2.43406 0
M  V30 91 C 9.6635 -4.36368 0.780891 0
M  V30 92 H 6.8835 -0.615901 0.266284 0
M  V30 93 H 9.4275 -1.52922 1.35776 0
M  V30 94 H 7.5825 -3.8461 0.464065 0
M  V30 95 H 7.9965 -4.58246 2.55169 0
M  V30 96 H 9.4705 -5.41743 1.05918 0
M  V30 97 H 9.9475 -4.38275 -0.284937 0
M  V30 98 H 10.5535 -4.03296 1.35027 0
M  V30 99 N 8.8686 -0.792821 -1.36206 0
M  V30 100 C 9.8316 -0.199459 -2.2833 0
M  V30 101 C 10.8316 0.605189 -1.48977 0
M  V30 102 O 12.0216 0.425685 -1.68919 0
M  V30 103 C 9.1536 0.723523 -3.33134 0
M  V30 104 H 10.3466 -1.01181 -2.82316 0
M  V30 105 H 7.8996 -0.562485 -1.45828 0
M  V30 106 H 8.6346 1.56008 -2.84309 0
M  V30 107 H 8.4196 0.148436 -3.91819 0
M  V30 108 H 9.9096 1.13344 -4.01924 0
M  V30 109 N 10.3467 1.47872 -0.545128 0
M  V30 110 C 11.5947 2.02093 -0.016553 0
M  V30 111 C 11.9157 1.42305 1.3332 0
M  V30 112 O 11.1857 0.593853 1.86682 0
M  V30 113 H 9.7657 0.746993 -0.00313038 0
M  V30 114 H 12.4277 1.81414 -0.712397 0
M  V30 115 H 11.5237 3.11996 0.0805422 0
M  V30 116 N 11.8248 0.280983 1.55075 0
M  V30 117 C 12.7348 -0.61388 2.26426 0
M  V30 118 C 13.7508 -1.16521 1.29224 0
M  V30 119 O 14.9268 -1.19426 1.62171 0
M  V30 120 C 11.9918 -1.7788 2.9759 0
M  V30 121 C 11.0528 -1.26355 4.10284 0
M  V30 122 C 10.2858 -2.37295 4.78045 0
M  V30 123 O 10.5088 -3.56777 4.45047 0
M  V30 124 O 9.4428 -2.05119 5.65871 0
M  V30 125 H 13.2688 -0.0356932 3.03679 0
M  V30 126 H 10.8538 0.0481686 1.49322 0
M  V30 127 H 12.7358 -2.45791 3.42293 0
M  V30 128 H 11.4108 -2.34397 2.23249 0
M  V30 129 H 10.3178 -0.550735 3.70024 0
M  V30 130 H 11.6508 -0.744065 4.86543 0
M  V30 131 N 13.3029 -1.57598 0.00835791 0
M  V30 132 C 14.7139 -1.7892 -0.53333 0
M  V30 133 C 15.0649 -0.916609 -1.73473 0
M  V30 134 O 14.1899 -0.121336 -2.1606 0
M  V30 135 C 14.7849 -3.24488 -0.974313 0
M  V30 136 C 13.3439 -3.46878 -1.46125 0
M  V30 137 C 12.4909 -2.74157 -0.416302 0
M  V30 138 H 15.4419 -1.56958 0.234495 0
M  V30 139 H 15.4629 -3.3306 -1.83988 0
M  V30 140 H 14.9749 -3.87972 -0.099718 0
M  V30 141 H 13.0759 -2.8862 -2.35646 0
M  V30 142 H 13.1889 -4.55572 -1.48295 0
M  V30 143 H 11.5529 -2.39022 -0.87981 0
M  V30 144 H 12.3359 -3.40345 0.44947 0
M  V30 145 N 14.781 0.264519 -1.55364 0
M  V30 146 C 15.711 1.33121 -1.91836 0
M  V30 147 C 16.692 1.51101 -0.781192 0
M  V30 148 O 17.877 1.64003 -1.04003 0
M  V30 149 C 15.007 2.68921 -2.19769 0
M  V30 150 C 13.961 2.65661 -3.35571 0
M  V30 151 C 13.287 4.05093 -3.49004 0
M  V30 152 C 14.587 2.24187 -4.71739 0
M  V30 153 H 16.281 1.02844 -2.81182 0
M  V30 154 H 13.827 0.493286 -1.35287 0
M  V30 155 H 15.78 3.43663 -2.43872 0
M  V30 156 H 14.504 3.00799 -1.27231 0
M  V30 157 H 13.163 1.93377 -3.1145 0
M  V30 158 H 12.811 4.34206 -2.53917 0
M  V30 159 H 12.511 4.03804 -4.26868 0
M  V30 160 H 14.035 4.81561 -3.75408 0
M  V30 161 H 15.449 2.88654 -4.9533 0
M  V30 162 H 13.846 2.34044 -5.52579 0
M  V30 163 H 14.916 1.19327 -4.69988 0
M  V30 164 N 16.2591 1.48442 0.529413 0
M  V30 165 C 17.5051 1.5672 1.28711 0
M  V30 166 C 17.8381 0.2406 1.92704 0
M  V30 167 O 17.1131 -0.753454 1.79313 0
M  V30 168 C 17.3961 2.70587 2.37603 0
M  V30 169 C 17.2491 4.12953 1.78297 0
M  V30 170 C 18.5681 2.80212 3.39366 0
M  V30 171 H 15.6871 0.570474 0.466613 0
M  V30 172 H 18.3291 1.80617 0.589706 0
M  V30 173 H 16.4791 2.50342 2.97088 0
M  V30 174 H 18.1511 4.44639 1.22858 0
M  V30 175 H 16.3941 4.19927 1.0883 0
M  V30 176 H 17.0651 4.88448 2.57144 0
M  V30 177 H 19.5411 2.98553 2.89836 0
M  V30 178 H 18.4171 3.61611 4.12951 0
M  V30 179 H 18.6781 1.88393 3.99951 0
M  V30 180 N 17.7372 -0.778329 1.37039 0
M  V30 181 C 18.7002 -1.87301 1.32102 0
M  V30 182 C 19.7002 -1.59198 0.226405 0
M  V30 183 O 20.8902 -1.67403 0.481861 0
M  V30 184 C 18.0222 -3.24309 1.05055 0
M  V30 185 H 19.2152 -1.93093 2.29467 0
M  V30 186 H 16.7682 -0.977358 1.21973 0
M  V30 187 H 17.5032 -3.24196 0.0819373 0
M  V30 188 H 17.2882 -3.46098 1.84279 0
M  V30 189 H 18.7782 -4.04382 1.04234 0
M  V30 190 N 19.2153 -1.21501 -1.00376 0
M  V30 191 C 20.1453 -0.999478 -2.11028 0
M  V30 192 C 21.1263 0.0759671 -1.6993 0
M  V30 193 O 22.3113 -0.0841106 -1.94018 0
M  V30 194 C 19.4413 -0.564709 -3.42678 0
M  V30 195 C 18.3953 -1.58486 -3.97576 0
M  V30 196 C 17.7213 -1.00628 -5.25146 0
M  V30 197 C 19.0213 -2.97204 -4.29496 0
M  V30 198 H 20.7153 -1.92495 -2.29317 0
M  V30 199 H 18.2613 -0.92693 -1.102 0
M  V30 200 H 20.2143 -0.401091 -4.19487 0
M  V30 201 H 18.9383 0.396411 -3.24185 0
M  V30 202 H 17.5973 -1.73606 -3.22888 0
M  V30 203 H 17.2453 -0.0368439 -5.02987 0
M  V30 204 H 16.9453 -1.68771 -5.62841 0
M  V30 205 H 18.4693 -0.854015 -6.04598 0
M  V30 206 H 19.8833 -2.8552 -4.97143 0
M  V30 207 H 18.2803 -3.62372 -4.78338 0
M  V30 208 H 19.3503 -3.47956 -3.3772 0
M  V30 209 N 20.6934 1.19889 -1.02296 0
M  V30 210 C 21.9394 1.89701 -0.717033 0
M  V30 211 C 22.2724 1.7905 0.751989 0
M  V30 212 O 21.5474 1.17891 1.547 0
M  V30 213 C 21.8304 3.40858 -1.16136 0
M  V30 214 C 21.6834 3.60411 -2.69117 0
M  V30 215 C 23.0024 4.33876 -0.737549 0
M  V30 216 H 20.1214 0.688874 -0.261957 0
M  V30 217 H 22.7634 1.41154 -1.27183 0
M  V30 218 H 20.9134 3.82335 -0.689342 0
M  V30 219 H 22.5854 3.28145 -3.2422 0
M  V30 220 H 20.8284 3.03665 -3.0979 0
M  V30 221 H 21.4994 4.66396 -2.95261 0
M  V30 222 H 23.9754 4.00081 -1.14344 0
M  V30 223 H 22.8514 5.38242 -1.0764 0
M  V30 224 H 23.1124 4.40628 0.360436 0
M  V30 225 N 22.1715 0.800033 1.35784 0
M  V30 226 C 23.5825 0.439142 1.81462 0
M  V30 227 C 23.9335 -1.03813 1.66485 0
M  V30 228 O 23.0585 -1.80626 1.19177 0
M  V30 229 C 23.6535 0.790314 3.29453 0
M  V30 230 C 22.2125 0.482111 3.733 0
M  V30 231 C 21.3595 1.01938 2.57883 0
M  V30 232 H 24.3105 0.992254 1.23855 0
M  V30 233 H 24.3315 0.0853677 3.80404 0
M  V30 234 H 23.8435 1.86554 3.40322 0
M  V30 235 H 21.9445 -0.584652 3.67984 0
M  V30 236 H 22.0575 1.01015 4.6833 0
M  V30 237 H 20.4215 0.442043 2.50835 0
M  V30 238 H 21.2045 2.10059 2.71533 0
M  V30 239 N 23.6496 -1.47581 0.552962 0
M  V30 240 C 24.5816 -2.27997 -0.234533 0
M  V30 241 C 25.5946 -1.36753 -0.883321 0
M  V30 242 O 26.7836 -1.61612 -0.757889 0
M  V30 243 C 23.8836 -3.10879 -1.34935 0
M  V30 244 C 23.0566 -4.30056 -0.798158 0
M  V30 245 C 22.1156 -4.94567 -1.79694 0
M  V30 246 O 21.1416 -5.53087 -1.34474 0
M  V30 247 N 22.3436 -4.88878 -3.13015 0
M  V30 248 H 25.1086 -2.96222 0.455255 0
M  V30 249 H 22.6696 -1.57163 0.388761 0
M  V30 250 H 24.6616 -3.50903 -2.01616 0
M  V30 251 H 23.2316 -2.44924 -1.94244 0
M  V30 252 H 22.4516 -3.94174 0.0453079 0
M  V30 253 H 23.7396 -5.07152 -0.409173 0
M  V30 254 H 23.1376 -4.42526 -3.52402 0
M  V30 255 H 21.6946 -5.32934 -3.75266 0
M  V30 256 N 25.1277 -0.289203 -1.54924 0
M  V30 257 C 26.0377 0.601863 -2.26748 0
M  V30 258 C 27.0537 1.15834 -1.2984 0
M  V30 259 O 28.2297 1.18564 -1.62802 0
M  V30 260 C 25.2947 1.76299 -2.98529 0
M  V30 261 C 24.3557 1.24178 -4.10948 0
M  V30 262 C 23.5887 2.34757 -4.79296 0
M  V30 263 O 23.8117 3.54411 -4.46933 0
M  V30 264 O 22.7457 2.02115 -5.66951 0
M  V30 265 H 26.5717 0.0195879 -3.03694 0
M  V30 266 H 24.1567 -0.0560868 -1.49295 0
M  V30 267 H 26.0387 2.43973 -3.43592 0
M  V30 268 H 24.7137 2.33209 -2.24488 0
M  V30 269 H 23.6207 0.531104 -3.70311 0
M  V30 270 H 24.9537 0.718252 -4.86931 0
M  V30 271 N 26.6058 1.57591 -0.0167156 0
M  V30 272 C 28.0168 1.79201 0.523834 0
M  V30 273 C 28.3678 0.925796 1.72984 0
M  V30 274 O 27.4928 0.132792 2.15992 0
M  V30 275 C 28.0878 3.25 0.957091 0
M  V30 276 C 26.6468 3.47648 1.44283 0
M  V30 277 C 25.7938 2.74374 0.401757 0
M  V30 278 H 28.7448 1.56831 -0.242816 0
M  V30 279 H 28.7658 3.34031 1.82219 0
M  V30 280 H 28.2778 3.88019 0.0791415 0
M  V30 281 H 26.3788 2.89866 2.34113 0
M  V30 282 H 26.4918 4.56352 1.45877 0
M  V30 283 H 24.8558 2.39485 0.867121 0
M  V30 284 H 25.6388 3.40102 -0.467513 0
M  V30 285 N 28.0839 -0.256276 1.55502 0
M  V30 286 C 29.3319 -0.983672 1.76545 0
M  V30 287 C 29.6529 -1.86206 0.578982 0
M  V30 288 O 28.9229 -1.91656 -0.405577 0
M  V30 289 H 27.5029 -0.366191 0.651086 0
M  V30 290 H 30.1649 -0.276479 1.92929 0
M  V30 291 H 29.2609 -1.61087 2.67315 0
M  V30 292 N 29.562 -1.4872 -0.521534 0
M  V30 293 C 30.512 -1.60269 -1.62166 0
M  V30 294 C 31.496 -0.45935 -1.54204 0
M  V30 295 O 32.688 -0.711241 -1.62081 0
M  V30 296 C 29.817 -1.65344 -3.00859 0
M  V30 297 C 28.903 -2.85187 -3.13894 0
M  V30 298 N 29.294 -4.09509 -2.96877 0
M  V30 299 C 27.592 -2.82695 -3.44963 0
M  V30 300 C 28.293 -4.89959 -3.13552 0
M  V30 301 N 27.269 -4.22934 -3.41508 0
M  V30 302 H 31.071 -2.5413 -1.47632 0
M  V30 303 H 28.585 -1.45209 -0.727194 0
M  V30 304 H 30.582 -1.71713 -3.79895 0
M  V30 305 H 29.242 -0.726058 -3.16478 0
M  V30 306 H 30.253 -4.39814 -2.73467 0
M  V30 307 H 26.93 -1.99249 -3.66887 0
M  V30 308 H 28.32 -5.98654 -3.05061 0
M  V30 309 N 31.0401 0.771051 -1.3745 0
M  V30 310 C 31.9701 1.89827 -1.3597 0
M  V30 311 C 32.9511 1.68562 -0.228216 0
M  V30 312 O 34.1361 1.8941 -0.428675 0
M  V30 313 C 31.2661 3.2712 -1.16662 0
M  V30 314 C 30.2201 3.6295 -2.2683 0
M  V30 315 C 29.5461 4.98791 -1.92644 0
M  V30 316 C 30.8461 3.69627 -3.69017 0
M  V30 317 H 32.5401 1.91323 -2.30295 0
M  V30 318 H 30.0861 0.919082 -1.10855 0
M  V30 319 H 32.0391 4.05615 -1.14256 0
M  V30 320 H 30.7631 3.26059 -0.187926 0
M  V30 321 H 29.4221 2.86763 -2.28392 0
M  V30 322 H 29.0701 4.94271 -0.933021 0
M  V30 323 H 28.7701 5.23733 -2.66416 0
M  V30 324 H 30.2941 5.79685 -1.91826 0
M  V30 325 H 31.7081 4.38273 -3.69581 0
M  V30 326 H 30.1051 4.06067 -4.41848 0
M  V30 327 H 31.1751 2.70273 -4.02592 0
M  V30 328 N 32.5182 1.22032 0.997298 0
M  V30 329 C 33.9342 0.979326 1.26021 0
M  V30 330 C 34.1342 -0.32972 1.98784 0
M  V30 331 O 33.1902 -1.05345 2.29475 0
M  V30 332 C 34.5032 2.17509 2.07631 0
M  V30 333 C 36.0512 2.21817 2.2083 0
M  V30 334 C 36.5262 3.40933 3.05825 0
M  V30 335 N 38.0172 3.41067 3.13412 0
M  V30 336 C 38.7522 4.29885 3.79455 0
M  V30 337 N 38.2482 5.28914 4.47462 0
M  V30 338 N 40.0412 4.17673 3.76173 0
M  V30 339 H 32.1922 2.06202 0.509352 0
M  V30 340 H 34.4552 0.90334 0.287541 0
M  V30 341 H 34.1612 3.12415 1.61524 0
M  V30 342 H 34.0352 2.17206 3.08385 0
M  V30 343 H 36.4222 1.27462 2.66153 0
M  V30 344 H 36.5032 2.2616 1.1952 0
M  V30 345 H 36.1472 4.35586 2.61203 0
M  V30 346 H 36.0772 3.33829 4.07266 0
M  V30 347 H 38.5682 2.69406 2.65007 0
M  V30 348 H 38.8812 5.92973 4.95583 0
M  V30 349 H 37.2262 5.32831 4.46224 0
M  V30 350 H 40.4172 3.39564 3.22202 0
M  V30 351 H 40.5902 4.87098 4.27363 0
M  V30 352 N 33.9963 -1.19345 1.0293 0
M  V30 353 C 35.2443 -1.88665 0.724574 0
M  V30 354 C 35.5653 -1.80036 -0.749144 0
M  V30 355 O 34.8353 -1.2111 -1.53978 0
M  V30 356 H 33.4153 -0.698406 0.265025 0
M  V30 357 H 36.0773 -1.44885 1.30362 0
M  V30 358 H 35.1733 -2.94987 1.01926 0
M  V30 359 N 35.4744 -0.807222 -1.35358 0
M  V30 360 C 36.4214 -0.216037 -2.29787 0
M  V30 361 C 37.3914 0.650278 -1.52842 0
M  V30 362 O 38.5764 0.595227 -1.81278 0
M  V30 363 C 35.7164 0.628893 -3.39321 0
M  V30 364 C 34.8294 -0.257927 -4.31229 0
M  V30 365 C 33.9644 0.595069 -5.27856 0
M  V30 366 C 33.0034 -0.292111 -6.11403 0
M  V30 367 N 32.1404 0.520895 -7.00165 0
M  V30 368 H 36.9804 -1.02671 -2.79755 0
M  V30 369 H 34.5174 -0.517839 -1.37684 0
M  V30 370 H 36.4754 1.13393 -4.01494 0
M  V30 371 H 35.1054 1.40482 -2.90628 0
M  V30 372 H 34.1574 -0.881076 -3.70056 0
M  V30 373 H 35.4694 -0.940759 -4.89848 0
M  V30 374 H 34.6234 1.16522 -5.95405 0
M  V30 375 H 33.3624 1.31146 -4.69736 0
M  V30 376 H 32.3674 -0.874525 -5.428 0
M  V30 377 H 33.5924 -1.00638 -6.71602 0
M  V30 378 H 31.5384 1.22125 -6.44532 0
M  V30 379 H 31.4554 -0.103877 -7.55929 0
M  V30 380 H 32.7234 1.0743 -7.72062 0
M  V30 381 N 36.9525 1.47285 -0.560781 0
M  V30 382 C 38.3685 1.58065 -0.22081 0
M  V30 383 C 38.5685 1.55892 1.27671 0
M  V30 384 O 37.6245 1.46422 2.0571 0
M  V30 385 C 38.9375 2.88418 -0.850625 0
M  V30 386 C 40.4855 3.02009 -0.822184 0
M  V30 387 C 40.9605 4.35066 -1.43113 0
M  V30 388 N 42.4515 4.41711 -1.39448 0
M  V30 389 C 43.1865 5.43237 -1.83525 0
M  V30 390 N 42.6825 6.51555 -2.35474 0
M  V30 391 N 44.4755 5.34304 -1.74574 0
M  V30 392 H 36.6265 1.46941 -1.53369 0
M  V30 393 H 38.8895 0.699558 -0.639783 0
M  V30 394 H 38.5955 2.95755 -1.9032 0
M  V30 395 H 38.4695 3.75612 -0.345773 0
M  V30 396 H 40.8565 2.94266 0.221714 0
M  V30 397 H 40.9375 2.16347 -1.36483 0
M  V30 398 H 40.5815 4.43565 -2.47412 0
M  V30 399 H 40.5115 5.19465 -0.863899 0
M  V30 400 H 43.0025 3.64027 -1.01452 0
M  V30 401 H 43.3155 7.25203 -2.67021 0
M  V30 402 H 41.6605 6.52435 -2.39487 0
M  V30 403 H 44.8515 4.48581 -1.33763 0
M  V30 404 H 45.0245 6.13288 -2.09242 0
M  V30 405 N 38.4306 0.297415 1.54768 0
M  V30 406 C 39.3606 -0.573494 2.26348 0
M  V30 407 C 40.3416 -1.14085 1.26169 0
M  V30 408 O 41.5266 -1.17086 1.54934 0
M  V30 409 C 38.6566 -1.74716 3.00153 0
M  V30 410 C 37.6106 -1.31032 4.07449 0
M  V30 411 C 36.9366 -2.56887 4.68949 0
M  V30 412 C 38.2366 -0.444183 5.20408 0
M  V30 413 H 39.9306 0.0235131 2.99391 0
M  V30 414 H 37.4766 0.0127488 1.43994 0
M  V30 415 H 39.4296 -2.3625 3.48947 0
M  V30 416 H 38.1536 -2.37035 2.24682 0
M  V30 417 H 36.8126 -0.718066 3.59499 0
M  V30 418 H 36.4606 -3.17512 3.90122 0
M  V30 419 H 36.1606 -2.2836 5.41411 0
M  V30 420 H 37.6846 -3.19229 5.20505 0
M  V30 421 H 39.0986 -0.9651 5.65118 0
M  V30 422 H 37.4956 -0.252846 5.99567 0
M  V30 423 H 38.5656 0.531609 4.81977 0
M  V30 424 N 39.9087 -1.5758 0.0250728 0
M  V30 425 C 40.8387 -2.13007 -0.956575 0
M  V30 426 C 41.8197 -1.0452 -1.342 0
M  V30 427 O 43.0047 -1.32332 -1.42133 0
M  V30 428 C 40.1347 -2.65386 -2.24026 0
M  V30 429 C 39.0887 -3.78623 -1.99571 0
M  V30 430 C 38.4147 -4.17414 -3.3417 0
M  V30 431 C 39.7147 -5.04867 -1.33814 0
M  V30 432 H 41.4087 -2.9528 -0.494991 0
M  V30 433 H 38.9547 -1.42042 -0.236651 0
M  V30 434 H 40.9077 -3.02794 -2.93076 0
M  V30 435 H 39.6317 -1.80268 -2.72343 0
M  V30 436 H 38.2907 -3.41646 -1.32941 0
M  V30 437 H 37.9387 -3.29284 -3.80238 0
M  V30 438 H 37.6387 -4.93719 -3.18615 0
M  V30 439 H 39.1627 -4.57402 -4.04495 0
M  V30 440 H 40.5767 -5.39888 -1.92857 0
M  V30 441 H 38.9737 -5.86144 -1.28669 0
M  V30 442 H 40.0437 -4.83904 -0.310561 0
M  V30 443 N 41.3868 0.248026 -1.55636 0
M  V30 444 C 42.2968 1.32859 -1.93354 0
M  V30 445 C 43.3128 1.52719 -0.833838 0
M  V30 446 O 44.4888 1.66363 -1.13513 0
M  V30 447 C 41.5538 2.66337 -2.21958 0
M  V30 448 C 40.6148 2.55008 -3.45354 0
M  V30 449 C 39.8478 3.82121 -3.72584 0
M  V30 450 O 40.0708 4.83951 -3.01907 0
M  V30 451 O 39.0048 3.80822 -4.6611 0
M  V30 452 H 42.8308 1.03862 -2.85388 0
M  V30 453 H 40.4158 0.448686 -1.42503 0
M  V30 454 H 42.2978 3.45216 -2.4167 0
M  V30 455 H 40.9728 2.95068 -1.33103 0
M  V30 456 H 39.8798 1.7442 -3.30951 0
M  V30 457 H 41.2128 2.31222 -4.34508 0
M  V30 458 N 42.8649 1.48995 0.513639 0
M  V30 459 C 44.1109 1.58076 1.27042 0
M  V30 460 C 44.4439 0.261026 1.92438 0
M  V30 461 O 43.7189 -0.734393 1.80103 0
M  V30 462 C 44.0019 2.73091 2.34719 0
M  V30 463 C 43.8549 4.14821 1.73907 0
M  V30 464 C 45.1739 2.83796 3.36375 0
M  V30 465 H 42.2929 0.575391 0.460536 0
M  V30 466 H 44.9349 1.81232 0.570516 0
M  V30 467 H 43.0849 2.53479 2.94416 0
M  V30 468 H 44.7569 4.45917 1.18135 0
M  V30 469 H 42.9999 4.21058 1.0437 0
M  V30 470 H 43.6709 4.91147 2.51949 0
M  V30 471 H 46.1469 3.01611 2.86653 0
M  V30 472 H 45.0229 3.65971 4.09093 0
M  V30 473 H 45.2839 1.92624 3.9793 0
M  V30 474 N 44.343 -0.763751 1.37857 0
M  V30 475 C 45.573 -1.55067 1.3652 0
M  V30 476 C 45.981 -1.89135 -0.0494227 0
M  V30 477 O 45.324 -1.52529 -1.02375 0
M  V30 478 C 45.386 -2.8838 2.14656 0
M  V30 479 C 45.05 -2.76905 3.63555 0
M  V30 480 C 46.047 -2.4739 4.57268 0
M  V30 481 C 43.732 -2.94676 4.06781 0
M  V30 482 C 45.726 -2.35786 5.92186 0
M  V30 483 C 43.413 -2.82692 5.41782 0
M  V30 484 C 44.411 -2.53289 6.34298 0
M  V30 485 O 44.099 -2.41345 7.66817 0
M  V30 486 H 43.831 -0.486776 0.469069 0
M  V30 487 H 46.385 -0.953812 1.81911 0
M  V30 488 H 44.615 -3.50217 1.63967 0
M  V30 489 H 46.304 -3.49828 2.05852 0
M  V30 490 H 47.07 -2.33339 4.2518 0
M  V30 491 H 42.949 -3.16563 3.35126 0
M  V30 492 H 46.493 -2.12757 6.64365 0
M  V30 493 H 42.39 -2.96314 5.7347 0
M  V30 494 H 43.158 -2.56634 7.77226 0
M  V30 495 N 45.8211 -1.22559 -0.990812 0
M  V30 496 C 47.0671 -1.05297 -1.73322 0
M  V30 497 C 47.4001 0.410655 -1.89808 0
M  V30 498 O 46.6751 1.30439 -1.44277 0
M  V30 499 C 46.9581 -1.76713 -3.13759 0
M  V30 500 C 46.8111 -3.30684 -3.04907 0
M  V30 501 C 48.1301 -1.52121 -4.12974 0
M  V30 502 H 45.2491 -0.38392 -0.629106 0
M  V30 503 H 47.8911 -1.50926 -1.15418 0
M  V30 504 H 46.0411 -1.37924 -3.63193 0
M  V30 505 H 47.7131 -3.7893 -2.63077 0
M  V30 506 H 45.9561 -3.60253 -2.41661 0
M  V30 507 H 46.6271 -3.75833 -4.04294 0
M  V30 508 H 49.1031 -1.85819 -3.72304 0
M  V30 509 H 47.9791 -2.04582 -5.0935 0
M  V30 510 H 48.2401 -0.454257 -4.3976 0
M  V30 511 N 47.2992 1.18797 -1.03562 0
M  V30 512 C 48.5472 1.88278 -0.734569 0
M  V30 513 C 48.8682 1.8043 0.739586 0
M  V30 514 O 48.1382 1.21925 1.53333 0
M  V30 515 H 46.7182 0.696991 -0.268725 0
M  V30 516 H 49.3802 1.44192 -1.31129 0
M  V30 517 H 48.4762 2.94443 -1.03489 0
M  V30 518 N 48.7773 0.814389 1.34928 0
M  V30 519 C 50.0253 0.397636 1.9815 0
M  V30 520 C 50.3463 -1.04069 1.64908 0
M  V30 521 O 49.6163 -1.72121 0.93548 0
M  V30 522 H 48.1963 0.144043 0.732981 0
M  V30 523 H 50.8583 1.04195 1.6471 0
M  V30 524 H 49.9543 0.509688 3.0791 0
M  V30 525 N 50.2554 -1.46986 0.568584 0
M  V30 526 C 51.2184 -2.28624 -0.162366 0
M  V30 527 C 52.2184 -1.37596 -0.832103 0
M  V30 528 O 53.4084 -1.60115 -0.68622 0
M  V30 529 C 50.5404 -3.17596 -1.23878 0
M  V30 530 H 51.7334 -2.94722 0.554899 0
M  V30 531 H 49.2864 -1.52863 0.325976 0
M  V30 532 H 50.0214 -2.56214 -1.98808 0
M  V30 533 H 49.8064 -3.846 -0.763219 0
M  V30 534 H 51.2964 -3.79078 -1.75185 0
M  V30 535 N 51.7335 -0.305618 -1.54608 0
M  V30 536 C 52.6435 0.57778 -2.27374 0
M  V30 537 C 53.6595 1.14451 -1.31061 0
M  V30 538 O 54.8355 1.16831 -1.6405 0
M  V30 539 C 51.9005 1.73123 -3.00382 0
M  V30 540 C 50.9615 1.19812 -4.12242 0
M  V30 541 C 50.1945 2.2966 -4.81759 0
M  V30 542 O 50.4175 3.49651 -4.50666 0
M  V30 543 O 49.3515 1.96091 -5.69062 0
M  V30 544 H 53.1775 -0.012624 -3.03697 0
M  V30 545 H 50.7625 -0.0719184 -1.49227 0
M  V30 546 H 52.6445 2.40315 -3.4616 0
M  V30 547 H 51.3195 2.30815 -2.26949 0
M  V30 548 H 50.2265 0.491798 -3.70853 0
M  V30 549 H 51.5595 0.666566 -4.87666 0
M  V30 550 N 53.2116 1.57565 -0.0334293 0
M  V30 551 C 54.4576 1.92262 0.645226 0
M  V30 552 C 54.7906 0.910543 1.71531 0
M  V30 553 O 54.0656 -0.066099 1.94388 0
M  V30 554 C 54.3486 3.37422 1.2577 0
M  V30 555 C 54.2016 4.49369 0.196891 0
M  V30 556 C 55.5206 3.82628 2.17449 0
M  V30 557 H 52.6396 0.699171 0.233085 0
M  V30 558 H 55.2816 1.89779 -0.0915694 0
M  V30 559 H 53.4316 3.39669 1.88566 0
M  V30 560 H 55.1036 4.59254 -0.433962 0
M  V30 561 H 53.3466 4.31168 -0.477137 0
M  V30 562 H 54.0176 5.47978 0.665124 0
M  V30 563 H 56.4936 3.82145 1.64634 0
M  V30 564 H 55.3696 4.84883 2.57254 0
M  V30 565 H 55.6306 3.18376 3.0674 0
M  V30 566 N 54.6897 -0.239769 1.55765 0
M  V30 567 C 55.6377 -1.31668 1.91745 0
M  V30 568 C 56.6317 -1.49462 0.797338 0
M  V30 569 O 57.8377 -1.50852 0.982021 0
M  V30 570 H 54.2127 -0.441048 0.609082 0
M  V30 571 H 56.1837 -0.985923 2.81642 0
M  V30 572 C 54.9327 -2.66368 2.2348 0
M  V30 573 H 54.2557 -2.53478 3.09175 0
M  V30 574 H 55.6957 -3.40578 2.52553 0
M  V30 575 C 54.1547 -3.20002 1.05359 0
M  V30 576 O 54.6847 -4.00538 0.305261 0
M  V30 577 N 52.8907 -2.78126 0.842292 0
M  V30 578 H 52.4377 -2.12742 1.45253 0
M  V30 579 H 52.3957 -3.14354 0.053652 0
M  V30 580 N 56.1678 -1.49265 -0.50573 0
M  V30 581 C 57.4138 -1.58748 -1.26202 0
M  V30 582 C 57.7468 -0.271227 -1.92297 0
M  V30 583 O 57.0218 0.724831 -1.80489 0
M  V30 584 C 57.3048 -2.74332 -2.33268 0
M  V30 585 C 57.1578 -4.15737 -1.71705 0
M  V30 586 C 58.4768 -2.85576 -3.34865 0
M  V30 587 H 55.5958 -0.577826 -0.457478 0
M  V30 588 H 58.2378 -1.81532 -0.560897 0
M  V30 589 H 56.3878 -2.55036 -2.93068 0
M  V30 590 H 58.0598 -4.46537 -1.15769 0
M  V30 591 H 56.3028 -4.21605 -1.02135 0
M  V30 592 H 56.9738 -4.92477 -2.49341 0
M  V30 593 H 59.4498 -3.03127 -2.8505 0
M  V30 594 H 58.3258 -3.68135 -4.07146 0
M  V30 595 H 58.5868 -1.94732 -3.96903 0
M  V30 596 N 57.6459 0.756429 -1.3826 0
M  V30 597 C 58.6089 1.85176 -1.35065 0
M  V30 598 C 59.6089 1.58818 -0.251703 0
M  V30 599 O 60.7989 1.66615 -0.508433 0
M  V30 600 C 57.9309 3.22596 -1.10201 0
M  V30 601 H 59.1239 1.89417 -2.3251 0
M  V30 602 H 56.6769 0.95783 -1.23512 0
M  V30 603 H 57.4119 3.24025 -0.133504 0
M  V30 604 H 57.1969 3.43122 -1.89762 0
M  V30 605 H 58.6869 4.02673 -1.10654 0
M  V30 606 N 59.124 1.23083 0.984299 0
M  V30 607 C 60.37 1.06214 1.72761 0
M  V30 608 C 60.703 -0.400584 1.90024 0
M  V30 609 O 59.978 -1.29672 1.44967 0
M  V30 610 C 60.261 1.78375 3.12817 0
M  V30 611 C 60.114 3.32296 3.03149 0
M  V30 612 C 61.433 1.54309 4.12161 0
M  V30 613 H 58.552 0.387251 0.627061 0
M  V30 614 H 61.194 1.51536 1.14616 0
M  V30 615 H 59.344 1.39848 3.62457 0
M  V30 616 H 61.016 3.8032 2.61064 0
M  V30 617 H 59.259 3.6153 2.39747 0
M  V30 618 H 59.93 3.77972 4.02295 0
M  V30 619 H 62.406 1.87791 3.71314 0
M  V30 620 H 61.282 2.07281 5.08258 0
M  V30 621 H 61.543 0.477572 4.39513 0
M  V30 622 N 60.6021 -1.18246 1.0419 0
M  V30 623 C 61.5651 -2.20128 0.638452 0
M  V30 624 C 62.5651 -1.57885 -0.304805 0
M  V30 625 O 63.7551 -1.73967 -0.0900369 0
M  V30 626 C 60.8871 -3.4084 -0.0637751 0
M  V30 627 H 62.0801 -2.57336 1.54007 0
M  V30 628 H 59.6331 -1.32152 0.834598 0
M  V30 629 H 60.3681 -3.09166 -0.979136 0
M  V30 630 H 60.1531 -3.8726 0.614198 0
M  V30 631 H 61.6431 -4.16274 -0.332512 0
M  V30 632 N 62.0802 -0.821533 -1.34494 0
M  V30 633 C 63.0102 -0.257138 -2.3208 0
M  V30 634 C 63.9912 0.625645 -1.58176 0
M  V30 635 O 65.1762 0.552811 -1.86166 0
M  V30 636 C 62.3062 0.582958 -3.42372 0
M  V30 637 C 61.2602 -0.202571 -4.2752 0
M  V30 638 C 60.5862 0.760179 -5.29269 0
M  V30 639 C 61.8862 -1.40998 -5.02908 0
M  V30 640 H 63.5802 -1.07247 -2.79532 0
M  V30 641 H 61.1262 -0.517163 -1.34393 0
M  V30 642 H 63.0792 0.987972 -4.09655 0
M  V30 643 H 61.8032 1.43133 -2.93565 0
M  V30 644 H 60.4622 -0.588936 -3.61838 0
M  V30 645 H 60.1102 1.60447 -4.76724 0
M  V30 646 H 59.8102 0.238809 -5.87115 0
M  V30 647 H 61.3342 1.16308 -5.9942 0
M  V30 648 H 62.7482 -1.07905 -5.63054 0
M  V30 649 H 61.1452 -1.86689 -5.70322 0
M  V30 650 H 62.2152 -2.1889 -4.32684 0
M  V30 651 N 63.5583 1.46682 -0.576371 0
M  V30 652 C 64.5213 2.28707 0.150239 0
M  V30 653 C 65.5213 1.38035 0.824794 0
M  V30 654 O 66.7113 1.60476 0.677719 0
M  V30 655 C 63.8433 3.18248 1.22192 0
M  V30 656 H 65.0363 2.94423 -0.570521 0
M  V30 657 H 62.5893 1.52688 -0.334078 0
M  V30 658 H 63.3243 2.57265 1.97447 0
M  V30 659 H 63.1093 3.85 0.742812 0
M  V30 660 H 64.5993 3.80001 1.73172 0
M  V30 661 N 65.0364 0.313813 1.54444 0
M  V30 662 C 66.4524 -0.0391619 1.59552 0
M  V30 663 C 66.6524 -1.51322 1.33056 0
M  V30 664 O 65.7084 -2.26782 1.11022 0
M  V30 665 C 67.0214 0.370302 2.98411 0
M  V30 666 C 68.5694 0.320139 3.11358 0
M  V30 667 C 69.0444 0.704617 4.52547 0
M  V30 668 N 70.5354 0.657645 4.58508 0
M  V30 669 C 71.2704 0.927453 5.6585 0
M  V30 670 N 70.7664 1.26389 6.81174 0
M  V30 671 N 72.5594 0.853662 5.5558 0
M  V30 672 H 64.7104 1.27433 1.69925 0
M  V30 673 H 66.9734 0.517511 0.794284 0
M  V30 674 H 66.6794 1.39694 3.22767 0
M  V30 675 H 66.5534 -0.269619 3.76235 0
M  V30 676 H 68.9404 -0.697275 2.86744 0
M  V30 677 H 69.0214 0.99486 2.35661 0
M  V30 678 H 68.6654 1.7199 4.77893 0
M  V30 679 H 68.5954 0.00768843 5.26599 0
M  V30 680 H 71.0864 0.409067 3.75679 0
M  V30 681 H 71.3994 1.4554 7.58972 0
M  V30 682 H 69.7444 1.30206 6.82694 0
M  V30 683 H 72.9354 0.590383 4.64362 0
M  V30 684 H 73.1084 1.0673 6.3915 0
M  V30 685 N 66.5145 -1.57545 0.0417849 0
M  V30 686 C 67.4445 -2.14009 -0.933929 0
M  V30 687 C 68.4255 -1.05938 -1.33083 0
M  V30 688 O 69.6105 -1.33833 -1.40721 0
M  V30 689 C 66.7405 -2.67747 -2.21199 0
M  V30 690 C 65.6945 -3.80718 -1.95544 0
M  V30 691 C 65.0205 -4.20935 -3.29724 0
M  V30 692 C 66.3205 -5.06258 -1.28452 0
M  V30 693 H 68.0145 -2.95788 -0.463645 0
M  V30 694 H 65.5605 -1.42285 -0.221573 0
M  V30 695 H 67.5135 -3.05886 -2.89848 0
M  V30 696 H 66.2375 -1.83147 -2.70416 0
M  V30 697 H 64.8965 -3.43037 -1.2931 0
M  V30 698 H 64.5445 -3.33298 -3.76724 0
M  V30 699 H 64.2445 -4.9707 -3.13361 0
M  V30 700 H 65.7685 -4.61666 -3.9962 0
M  V30 701 H 67.1825 -5.41903 -1.8712 0
M  V30 702 H 65.5795 -5.87475 -1.22445 0
M  V30 703 H 66.6495 -4.84207 -0.259219 0
M  V30 704 N 67.9926 0.231505 -1.5589 0
M  V30 705 C 69.2406 0.955461 -1.78088 0
M  V30 706 C 69.5616 1.85262 -0.608533 0
M  V30 707 O 68.8316 1.92277 0.375035 0
M  V30 708 H 67.4116 0.355787 -0.656829 0
M  V30 709 H 70.0736 0.245751 -1.93344 0
M  V30 710 H 69.1696 1.56814 -2.69844 0
M  V30 711 N 69.4707 1.49531 0.497807 0
M  V30 712 C 70.7167 1.59415 1.25358 0
M  V30 713 C 71.0497 0.281422 1.9215 0
M  V30 714 O 70.3247 -0.715249 1.80871 0
M  V30 715 C 70.6077 2.75566 2.3181 0
M  V30 716 C 70.4607 4.16642 1.69498 0
M  V30 717 C 71.7797 2.87347 3.33346 0
M  V30 718 H 68.8987 0.580244 0.454408 0
M  V30 719 H 71.5407 1.81827 0.551262 0
M  V30 720 H 69.6907 2.56587 2.91711 0
M  V30 721 H 71.3627 4.47145 1.13399 0
M  V30 722 H 69.6057 4.22141 0.998978 0
M  V30 723 H 70.2767 4.93792 2.46725 0
M  V30 724 H 72.7527 3.04634 2.83438 0
M  V30 725 H 71.6287 3.70289 4.05188 0
M  V30 726 H 71.8897 1.96834 3.95865 0
M  V30 727 N 70.9488 -0.749086 1.3866 0
M  V30 728 C 71.8958 -1.86291 1.36251 0
M  V30 729 C 72.8658 -1.64578 0.224347 0
M  V30 730 O 74.0508 -1.86181 0.417279 0
M  V30 731 C 71.1908 -3.23644 1.19786 0
M  V30 732 C 70.3038 -3.57158 2.43027 0
M  V30 733 C 69.4388 -4.83838 2.19258 0
M  V30 734 C 68.4778 -5.10152 3.38247 0
M  V30 735 N 67.6148 -6.28029 3.13884 0
M  V30 736 H 72.4548 -1.87685 2.3147 0
M  V30 737 H 69.9918 -0.917287 1.14997 0
M  V30 738 H 71.9498 -4.0291 1.08254 0
M  V30 739 H 70.5798 -3.21566 0.282031 0
M  V30 740 H 69.6318 -2.72701 2.65214 0
M  V30 741 H 70.9438 -3.7253 3.31697 0
M  V30 742 H 70.0978 -5.71057 2.04888 0
M  V30 743 H 68.8368 -4.70614 1.2796 0
M  V30 744 H 67.8418 -4.21401 3.53131 0
M  V30 745 H 69.0668 -5.25271 4.30427 0
M  V30 746 H 67.0128 -6.1612 2.25238 0
M  V30 747 H 66.9298 -6.43922 3.96106 0
M  V30 748 H 68.1978 -7.18124 3.03179 0
M  V30 749 N 72.4269 -1.23603 -0.977757 0
M  V30 750 C 73.6729 -1.07129 -1.72195 0
M  V30 751 C 74.0059 0.390501 -1.90233 0
M  V30 752 O 73.2809 1.28902 -1.45653 0
M  V30 753 C 73.5639 -1.80031 -3.11867 0
M  V30 754 C 73.4169 -3.33899 -3.01383 0
M  V30 755 C 74.7359 -1.56492 -4.11337 0
M  V30 756 H 71.8549 -0.390571 -0.624999 0
M  V30 757 H 74.4969 -1.52142 -1.13811 0
M  V30 758 H 72.6469 -1.41768 -3.6171 0
M  V30 759 H 74.3189 -3.81699 -2.59043 0
M  V30 760 H 72.5619 -3.62796 -2.37827 0
M  V30 761 H 73.2329 -3.801 -4.00285 0
M  V30 762 H 75.7089 -1.89757 -3.70313 0
M  V30 763 H 74.5849 -2.09973 -5.07151 0
M  V30 764 H 74.8459 -0.500874 -4.39254 0
M  V30 765 N 73.905 1.17692 -1.04816 0
M  V30 766 C 75.153 1.87488 -0.754497 0
M  V30 767 C 75.474 1.81205 0.720407 0
M  V30 768 O 74.744 1.23544 1.52032 0
M  V30 769 H 73.324 0.694101 -0.276102 0
M  V30 770 H 75.986 1.42793 -1.32651 0
M  V30 771 H 75.082 2.93328 -1.06606 0
M  V30 772 N 75.3831 0.828654 1.34056 0
M  V30 773 C 76.6301 0.419458 1.98108 0
M  V30 774 C 76.9581 -1.01886 1.65679 0
M  V30 775 O 76.2131 -1.72539 0.923512 0
M  V30 776 C 76.5121 0.575226 3.52741 0
M  V30 777 C 76.1781 1.98012 4.05095 0
M  V30 778 C 74.8401 2.36442 4.19104 0
M  V30 779 C 77.1921 2.89824 4.33188 0
M  V30 780 C 74.5201 3.66009 4.58535 0
M  V30 781 C 76.8721 4.1886 4.74066 0
M  V30 782 C 75.5361 4.5726 4.86281 0
M  V30 783 H 74.8061 0.153491 0.724929 0
M  V30 784 H 77.4531 1.05371 1.59904 0
M  V30 785 H 75.7581 -0.142385 3.91541 0
M  V30 786 H 77.4551 0.239057 4.00287 0
M  V30 787 H 74.0451 1.67162 3.94658 0
M  V30 788 H 78.2291 2.61375 4.21897 0
M  V30 789 H 73.4851 3.95579 4.66184 0
M  V30 790 H 77.6591 4.90086 4.94761 0
M  V30 791 H 75.2861 5.57707 5.16592 0
M  V30 792 N 76.8612 -1.46375 0.584142 0
M  V30 793 C 78.1072 -2.02678 0.0703716 0
M  V30 794 C 78.4402 -1.4545 -1.28678 0
M  V30 795 O 77.7152 -0.62014 -1.84349 0
M  V30 796 C 77.9982 -3.60099 0.00614674 0
M  V30 797 C 77.8512 -4.27709 1.3923 0
M  V30 798 C 79.1702 -4.34598 -0.693742 0
M  V30 799 H 76.2892 -0.736504 0.027047 0
M  V30 800 H 78.9312 -1.74501 0.751615 0
M  V30 801 H 77.0812 -3.84236 -0.574009 0
M  V30 802 H 78.7532 -4.14832 2.01773 0
M  V30 803 H 76.9962 -3.87016 1.95962 0
M  V30 804 H 77.6672 -5.36478 1.29982 0
M  V30 805 H 80.1432 -4.15615 -0.200869 0
M  V30 806 H 79.0192 -5.44318 -0.707714 0
M  V30 807 H 79.2802 -4.05759 -1.75533 0
M  V30 808 N 78.3393 -0.321999 -1.54275 0
M  V30 809 C 79.5873 0.280489 -2.00144 0
M  V30 810 C 79.9083 1.52777 -1.21178 0
M  V30 811 O 79.1783 1.9338 -0.313187 0
M  V30 812 H 77.7583 0.106632 -0.73935 0
M  V30 813 H 80.4203 -0.438184 -1.8991 0
M  V30 814 H 79.5163 0.537972 -3.07428 0
M  V30 815 N 79.8174 1.5752 -0.0501392 0
M  V30 816 C 81.2334 1.56631 0.306402 0
M  V30 817 C 81.4334 1.0577 1.71508 0
M  V30 818 O 80.4894 0.713837 2.422 0
M  V30 819 C 81.8024 3.00393 0.135811 0
M  V30 820 C 83.3504 3.12315 0.206993 0
M  V30 821 C 83.8254 4.57954 0.064944 0
M  V30 822 N 85.3164 4.63041 0.121254 0
M  V30 823 C 86.0514 5.73389 0.0354381 0
M  V30 824 N 85.5474 6.92724 -0.102666 0
M  V30 825 N 87.3404 5.62026 0.090946 0
M  V30 826 H 79.4914 1.88903 -0.971046 0
M  V30 827 H 81.7544 0.869876 -0.376855 0
M  V30 828 H 81.4604 3.41635 -0.835384 0
M  V30 829 H 81.3344 3.66373 0.897275 0
M  V30 830 H 83.7214 2.70973 1.16866 0
M  V30 831 H 83.8024 2.49016 -0.585208 0
M  V30 832 H 83.4464 4.99981 -0.893394 0
M  V30 833 H 83.3764 5.19258 0.876277 0
M  V30 834 H 85.8674 3.77216 0.227284 0
M  V30 835 H 86.1804 7.72633 -0.160882 0
M  V30 836 H 84.5254 6.94864 -0.137737 0
M  V30 837 H 87.7164 4.67684 0.197388 0
M  V30 838 H 87.8894 6.47997 0.0206089 0
M  V30 839 N 81.2955 -0.223234 1.56011 0
M  V30 840 C 82.5415 -0.949279 1.79211 0
M  V30 841 C 82.8745 -1.84054 0.619494 0
M  V30 842 O 82.1495 -1.90726 -0.381317 0
M  V30 843 C 82.4325 -1.78965 3.12479 0
M  V30 844 C 82.2855 -0.924997 4.40186 0
M  V30 845 C 83.6045 -2.76774 3.42175 0
M  V30 846 H 80.7235 -0.343676 0.651963 0
M  V30 847 H 83.3655 -0.218253 1.88742 0
M  V30 848 H 81.5155 -2.41291 3.04485 0
M  V30 849 H 83.1875 -0.318615 4.60198 0
M  V30 850 H 81.4305 -0.230344 4.33188 0
M  V30 851 H 82.1015 -1.54735 5.29869 0
M  V30 852 H 84.5775 -2.24584 3.50287 0
M  V30 853 H 83.4535 -3.32678 4.36597 0
M  V30 854 H 83.7145 -3.54429 2.64258 0
M  V30 855 N 82.7736 -1.49793 -0.48987 0
M  V30 856 C 84.0216 -1.59525 -1.24081 0
M  V30 857 C 84.3426 -0.288953 -1.92847 0
M  V30 858 O 83.6126 0.692436 -1.83254 0
M  V30 859 H 82.1926 -0.587796 -0.460983 0
M  V30 860 H 84.8546 -1.86477 -0.566778 0
M  V30 861 H 83.9506 -2.39696 -1.99881 0
M  V30 862 N 84.2517 0.741722 -1.39055 0
M  V30 863 C 85.1617 1.88621 -1.39496 0
M  V30 864 C 86.1777 1.71557 -0.290578 0
M  V30 865 O 87.3537 1.94275 -0.530954 0
M  V30 866 C 84.4187 3.24134 -1.23037 0
M  V30 867 C 83.4797 3.5364 -2.43387 0
M  V30 868 C 82.7127 4.82687 -2.27703 0
M  V30 869 O 82.9357 5.55922 -1.27696 0
M  V30 870 O 81.8697 5.1194 -3.16545 0
M  V30 871 H 85.6957 1.91203 -2.35956 0
M  V30 872 H 83.2807 0.888625 -1.20099 0
M  V30 873 H 85.1627 4.0513 -1.15964 0
M  V30 874 H 83.8377 3.22337 -0.296691 0
M  V30 875 H 82.7447 2.72758 -2.56035 0
M  V30 876 H 84.0777 3.60209 -3.35425 0
M  V30 877 N 85.7298 1.2412 0.971189 0
M  V30 878 C 87.0068 0.986867 1.6888 0
M  V30 879 C 87.3868 -0.491857 2.0529 0
M  V30 880 O 86.7348 -1.46531 1.75331 0
M  V30 881 C 86.9448 1.9063 2.92338 0
M  V30 882 C 88.2928 2.17515 3.64654 0
M  V30 883 O 89.3168 1.88254 3.02388 0
M  V30 884 O 88.1758 2.6719 4.7673 0
M  V30 885 H 85.2698 0.372944 0.738134 0
M  V30 886 H 87.8158 1.35203 1.02559 0
M  V30 887 H 86.5878 2.90552 2.62097 0
M  V30 888 H 86.2108 1.54408 3.66393 0
M  V30 889 N 87.2079 -1.17134 1.05439 0
M  V30 890 C 88.1179 -2.24878 0.668365 0
M  V30 891 C 89.1339 -1.71186 -0.311687 0
M  V30 892 O 90.3099 -2.00738 -0.163161 0
M  V30 893 C 87.3749 -3.46662 0.051648 0
M  V30 894 C 86.4359 -4.15429 1.08246 0
M  V30 895 C 85.6689 -5.31399 0.495082 0
M  V30 896 O 85.8919 -5.66153 -0.694743 0
M  V30 897 O 84.8259 -5.89187 1.23056 0
M  V30 898 H 88.6519 -2.60189 1.56637 0
M  V30 899 H 86.2369 -1.24482 0.826104 0
M  V30 900 H 88.1189 -4.20394 -0.290966 0
M  V30 901 H 86.7939 -3.13142 -0.819971 0
M  V30 902 H 85.7009 -3.43704 1.47711 0
M  V30 903 H 87.0339 -4.52982 1.92532 0
M  V30 904 N 88.686 -0.835752 -1.33615 0
M  V30 905 C 89.616 -0.281739 -2.31794 0
M  V30 906 C 90.597 0.608833 -1.58831 0
M  V30 907 O 91.782 0.533035 -1.86741 0
M  V30 908 C 88.912 0.546612 -3.42971 0
M  V30 909 C 87.866 -0.247904 -4.27281 0
M  V30 910 C 87.192 0.704001 -5.30045 0
M  V30 911 C 88.492 -1.46324 -5.01385 0
M  V30 912 H 90.186 -1.10206 -2.78379 0
M  V30 913 H 87.732 -0.531388 -1.33837 0
M  V30 914 H 89.685 0.944467 -4.1068 0
M  V30 915 H 88.409 1.40011 -2.95067 0
M  V30 916 H 87.068 -0.627281 -3.61194 0
M  V30 917 H 86.716 1.55381 -4.78399 0
M  V30 918 H 86.416 0.176524 -5.87335 0
M  V30 919 H 87.94 1.09944 -6.0062 0
M  V30 920 H 89.354 -1.13871 -5.61877 0
M  V30 921 H 87.751 -1.92728 -5.6831 0
M  V30 922 H 88.821 -2.23467 -4.30338 0
M  V30 923 N 90.1641 1.46063 -0.591896 0
M  V30 924 C 91.4121 2.01938 -0.0808391 0
M  V30 925 C 91.7331 1.46475 1.28725 0
M  V30 926 O 91.0031 0.652944 1.84698 0
M  V30 927 H 89.5831 0.746516 -0.0268938 0
M  V30 928 H 92.2451 1.79055 -0.769752 0
M  V30 929 H 91.3411 3.12094 -0.0187578 0
M  V30 930 N 91.6422 0.330177 1.54103 0
M  V30 931 C 92.6052 -0.520144 2.2322 0
M  V30 932 C 93.6052 -1.03828 1.22786 0
M  V30 933 O 94.7952 -0.929652 1.4732 0
M  V30 934 C 91.9272 -1.72317 2.94142 0
M  V30 935 H 93.1202 0.0841605 2.99782 0
M  V30 936 H 90.6732 0.0813433 1.56088 0
M  V30 937 H 91.4082 -2.36653 2.21734 0
M  V30 938 H 91.1932 -1.35898 3.67796 0
M  V30 939 H 92.6832 -2.3266 3.46784 0
M  V30 940 N 93.1203 -1.57491 0.0584922 0
M  V30 941 C 94.0533 -2.07533 -0.948969 0
M  V30 942 C 95.0313 -0.977444 -1.29942 0
M  V30 943 O 96.2153 -1.2499 -1.41102 0
M  V30 944 C 93.3423 -2.52192 -2.2609 0
M  V30 945 C 92.3883 -3.73287 -2.06298 0
M  V30 946 S 93.2213 -5.18603 -1.33459 0
M  V30 947 C 94.3773 -5.66583 -2.65959 0
M  V30 948 H 94.6103 -2.92662 -0.523118 0
M  V30 949 H 92.1433 -1.53631 -0.153954 0
M  V30 950 H 94.1013 -2.78585 -3.01498 0
M  V30 951 H 92.7623 -1.67356 -2.65802 0
M  V30 952 H 91.9553 -4.0248 -3.03357 0
M  V30 953 H 91.5573 -3.47199 -1.39029 0
M  V30 954 H 93.8493 -5.72616 -3.62101 0
M  V30 955 H 94.7923 -6.65684 -2.41393 0
M  V30 956 H 95.2003 -4.94342 -2.72554 0
M  V30 957 N 94.5984 0.214957 -1.56127 0
M  V30 958 C 95.8444 0.939762 -1.79712 0
M  V30 959 C 96.1774 1.83723 -0.629247 0
M  V30 960 O 95.4524 1.90925 0.371197 0
M  V30 961 C 95.7354 1.77306 -3.13424 0
M  V30 962 C 95.5884 0.90164 -4.40671 0
M  V30 963 C 96.9074 2.74956 -3.43638 0
M  V30 964 H 94.0264 0.340214 -0.653776 0
M  V30 965 H 96.6684 0.20824 -1.88855 0
M  V30 966 H 94.8184 2.39673 -3.0576 0
M  V30 967 H 96.4904 0.294206 -4.60361 0
M  V30 968 H 94.7334 0.207368 -4.33304 0
M  V30 969 H 95.4044 1.51923 -5.30682 0
M  V30 970 H 97.8804 2.22724 -3.51473 0
M  V30 971 H 96.7564 3.30358 -4.38355 0
M  V30 972 H 97.0174 3.53023 -2.66134 0
M  V30 973 N 96.0765 1.50051 0.48192 0
M  V30 974 C 96.9865 1.7089 1.60728 0
M  V30 975 C 98.0025 0.591788 1.63627 0
M  V30 976 O 99.1785 0.868817 1.81696 0
M  V30 977 C 96.2435 1.78855 2.97005 0
M  V30 978 C 95.3045 3.02537 3.04581 0
M  V30 979 C 94.5375 3.10112 4.34357 0
M  V30 980 O 94.7605 2.24765 5.24249 0
M  V30 981 O 93.6945 4.02747 4.47301 0
M  V30 982 H 97.5205 2.66264 1.46072 0
M  V30 983 H 95.1055 1.34018 0.660264 0
M  V30 984 H 96.9875 1.86336 3.77964 0
M  V30 985 H 95.6625 0.866628 3.11883 0
M  V30 986 H 94.5695 3.00563 2.22739 0
M  V30 987 H 95.9025 3.94272 2.94636 0
M  V30 988 N 97.5546 -0.734337 1.39446 0
M  V30 989 C 98.4646 -1.87879 1.40495 0
M  V30 990 C 99.4806 -1.714 0.299672 0
M  V30 991 O 100.657 -1.93991 0.541249 0
M  V30 992 C 97.7216 -3.23477 1.24754 0
M  V30 993 C 96.7826 -3.52344 2.45259 0
M  V30 994 C 96.0156 -4.81473 2.30259 0
M  V30 995 O 96.2386 -5.55237 1.30643 0
M  V30 996 O 95.1726 -5.10254 3.19256 0
M  V30 997 H 98.9986 -1.89949 2.36966 0
M  V30 998 H 96.5836 -0.882243 1.20569 0
M  V30 999 H 98.4656 -4.04509 1.18111 0
M  V30 1000 H 97.1406 -3.22176 0.313781 0
M  V30 1001 H 96.0476 -2.71396 2.57478 0
M  V30 1002 H 97.3806 -3.58426 3.37331 0
M  V30 1003 N 99.0327 -1.24633 -0.964593 0
M  V30 1004 C 100.449 -1.01239 -1.2338 0
M  V30 1005 C 100.649 0.2769 -1.99588 0
M  V30 1006 O 99.7047 0.992241 -2.32187 0
M  V30 1007 C 101.018 -2.22937 -2.01791 0
M  V30 1008 C 102.566 -2.27594 -2.14872 0
M  V30 1009 C 103.041 -3.48921 -2.96678 0
M  V30 1010 N 104.532 -3.49257 -3.04259 0
M  V30 1011 C 105.267 -4.39795 -3.67924 0
M  V30 1012 N 104.763 -5.40591 -4.33281 0
M  V30 1013 N 106.556 -4.275 -3.64966 0
M  V30 1014 H 98.7067 -2.0748 -0.454502 0
M  V30 1015 H 100.97 -0.910647 -0.26349 0
M  V30 1016 H 100.676 -3.16587 -1.53184 0
M  V30 1017 H 100.55 -2.25306 -3.02518 0
M  V30 1018 H 102.937 -1.34473 -2.6268 0
M  V30 1019 H 103.018 -2.2925 -1.13482 0
M  V30 1020 H 102.662 -4.42359 -2.49562 0
M  V30 1021 H 102.592 -3.4451 -3.98272 0
M  V30 1022 H 105.083 -2.76337 -2.57771 0
M  V30 1023 H 105.396 -6.05904 -4.79687 0
M  V30 1024 H 103.741 -5.44475 -4.3194 0
M  V30 1025 H 106.932 -3.47987 -3.13086 0
M  V30 1026 H 107.105 -4.98258 -4.14298 0
M  V30 1027 N 100.511 1.16574 -1.06058 0
M  V30 1028 C 101.441 2.23057 -0.690488 0
M  V30 1029 C 102.422 1.67141 0.315901 0
M  V30 1030 O 103.607 1.93253 0.191556 0
M  V30 1031 C 100.737 3.47222 -0.073625 0
M  V30 1032 C 99.6908 4.16016 -1.00573 0
M  V30 1033 C 99.0168 5.34104 -0.252289 0
M  V30 1034 C 100.317 4.67264 -2.33371 0
M  V30 1035 H 102.011 2.54271 -1.58072 0
M  V30 1036 H 99.5568 1.22218 -0.76149 0
M  V30 1037 H 101.51 4.20939 0.19714 0
M  V30 1038 H 100.234 3.15302 0.85161 0
M  V30 1039 H 98.8928 3.44223 -1.2612 0
M  V30 1040 H 98.5408 4.98437 0.675988 0
M  V30 1041 H 98.2408 5.81072 -0.873455 0
M  V30 1042 H 99.7648 6.10599 0.0109857 0
M  V30 1043 H 101.179 5.32573 -2.12223 0
M  V30 1044 H 99.5758 5.24843 -2.90963 0
M  V30 1045 H 100.646 3.83602 -2.96611 0
M  V30 1046 N 101.989 0.842826 1.3317 0
M  V30 1047 C 103.405 0.531128 1.50503 0
M  V30 1048 C 103.605 -0.940734 1.78192 0
M  V30 1049 O 102.661 -1.72436 1.84451 0
M  V30 1050 C 103.974 1.40789 2.65705 0
M  V30 1051 C 105.522 1.40708 2.79589 0
M  V30 1052 C 105.997 2.26878 3.97857 0
M  V30 1053 N 107.488 2.24609 4.05099 0
M  V30 1054 C 108.223 2.88019 4.95815 0
M  V30 1055 N 107.719 3.60496 5.9162 0
M  V30 1056 N 109.512 2.77469 4.88843 0
M  V30 1057 H 101.663 1.79557 1.1346 0
M  V30 1058 H 103.926 0.766267 0.558156 0
M  V30 1059 H 103.632 2.454 2.51936 0
M  V30 1060 H 103.506 1.08677 3.61205 0
M  V30 1061 H 105.893 0.368668 2.92788 0
M  V30 1062 H 105.974 1.76829 1.84838 0
M  V30 1063 H 105.618 3.3078 3.85418 0
M  V30 1064 H 105.548 1.88096 4.91861 0
M  V30 1065 H 108.039 1.71906 3.36536 0
M  V30 1066 H 108.352 4.06076 6.57512 0
M  V30 1067 H 106.697 3.64604 5.91683 0
M  V30 1068 H 109.888 2.20406 4.12963 0
M  V30 1069 H 110.061 3.2717 5.59342 0
M  V30 1070 N 103.467 -1.45747 0.599634 0
M  V30 1071 C 104.43 -2.28917 -0.113835 0
M  V30 1072 C 105.43 -1.3933 -0.802729 0
M  V30 1073 O 106.62 -1.61534 -0.652103 0
M  V30 1074 C 103.752 -3.20152 -1.17114 0
M  V30 1075 H 104.945 -2.93478 0.617289 0
M  V30 1076 H 102.498 -1.52137 0.358327 0
M  V30 1077 H 103.233 -2.60374 -1.93329 0
M  V30 1078 H 103.018 -3.86133 -0.681468 0
M  V30 1079 H 104.508 -3.82708 -1.67105 0
M  V30 1080 N 104.945 -0.338344 -1.53925 0
M  V30 1081 C 105.855 0.529421 -2.28548 0
M  V30 1082 C 106.871 1.11645 -1.3346 0
M  V30 1083 O 108.047 1.13325 -1.66492 0
M  V30 1084 C 105.112 1.66713 -3.03987 0
M  V30 1085 C 104.173 1.11041 -4.14691 0
M  V30 1086 C 103.406 2.19389 -4.86522 0
M  V30 1087 O 103.629 3.40013 -4.57982 0
M  V30 1088 O 102.563 1.83976 -5.73094 0
M  V30 1089 H 106.389 -0.0770399 -3.03602 0
M  V30 1090 H 103.974 -0.103555 -1.49041 0
M  V30 1091 H 105.856 2.32918 -3.5118 0
M  V30 1092 H 104.531 2.25949 -2.31794 0
M  V30 1093 H 103.438 0.413024 -3.71813 0
M  V30 1094 H 104.771 0.562975 -4.8897 0
M  V30 1095 N 106.423 1.57458 -0.0668435 0
M  V30 1096 C 107.671 1.92919 0.602214 0
M  V30 1097 C 107.992 0.947215 1.70449 0
M  V30 1098 O 107.262 -0.00544117 1.95899 0
M  V30 1099 H 105.842 0.71217 0.22544 0
M  V30 1100 H 108.504 1.94508 -0.123535 0
M  V30 1101 H 107.6 2.94589 1.03073 0
M  V30 1102 N 107.901 -0.206675 1.56239 0
M  V30 1103 C 109.147 -0.930218 1.80208 0
M  V30 1104 C 109.48 -1.83387 0.638981 0
M  V30 1105 O 108.755 -1.91119 -0.361066 0
M  V30 1106 C 109.038 -1.75641 3.1436 0
M  V30 1107 C 108.891 -0.878257 4.41142 0
M  V30 1108 C 110.21 -2.73129 3.45092 0
M  V30 1109 H 107.329 -0.336742 0.655571 0
M  V30 1110 H 109.971 -0.198222 1.88963 0
M  V30 1111 H 108.121 -2.38048 3.07027 0
M  V30 1112 H 109.793 -0.269787 4.6051 0
M  V30 1113 H 108.036 -0.184385 4.33408 0
M  V30 1114 H 108.707 -1.49106 5.3148 0
M  V30 1115 H 111.183 -2.20856 3.52649 0
M  V30 1116 H 110.059 -3.28028 4.40101 0
M  V30 1117 H 110.32 -3.51606 2.68003 0
M  V30 1118 N 109.379 -1.50304 -0.473955 0
M  V30 1119 C 110.656 -1.51667 -1.23518 0
M  V30 1120 C 111.036 -0.259701 -2.09496 0
M  V30 1121 O 110.384 0.756986 -2.15597 0
M  V30 1122 C 110.594 -2.81082 -2.06868 0
M  V30 1123 C 111.942 -3.31631 -2.65153 0
M  V30 1124 O 112.966 -2.82384 -2.17113 0
M  V30 1125 O 111.825 -4.17471 -3.52675 0
M  V30 1126 H 108.919 -0.60822 -0.560355 0
M  V30 1127 H 111.465 -1.62592 -0.486011 0
M  V30 1128 H 110.237 -3.64041 -1.4349 0
M  V30 1129 H 109.86 -2.73146 -2.88924 0
M  V30 1130 N 110.857 0.726932 -1.39834 0
M  V30 1131 C 111.787 1.85405 -1.41941 0
M  V30 1132 C 112.768 1.67751 -0.281728 0
M  V30 1133 O 113.953 1.8795 -0.488717 0
M  V30 1134 C 111.083 3.23243 -1.2701 0
M  V30 1135 C 110.037 3.55549 -2.38262 0
M  V30 1136 C 109.363 4.9241 -2.08415 0
M  V30 1137 C 110.663 3.577 -3.80589 0
M  V30 1138 H 112.357 1.83899 -2.36266 0
M  V30 1139 H 109.903 0.883349 -1.13723 0
M  V30 1140 H 111.856 4.01775 -1.27103 0
M  V30 1141 H 110.58 3.25296 -0.291564 0
M  V30 1142 H 109.239 2.79351 -2.37399 0
M  V30 1143 H 108.887 4.91052 -1.0898 0
M  V30 1144 H 108.587 5.14992 -2.82943 0
M  V30 1145 H 110.111 5.73289 -2.10171 0
M  V30 1146 H 111.525 4.26293 -3.83337 0
M  V30 1147 H 109.922 3.91804 -4.54543 0
M  V30 1148 H 110.992 2.57328 -4.10987 0
M  V30 1149 N 112.336 1.25143 0.95797 0
M  V30 1150 C 113.564 1.12424 1.73691 0
M  V30 1151 C 113.979 -0.322304 1.86029 0
M  V30 1152 O 113.336 -1.22186 1.35561 0
M  V30 1153 C 113.387 1.76933 3.15241 0
M  V30 1154 O 113.108 3.15932 3.03511 0
M  V30 1155 C 114.609 1.6995 4.09429 0
M  V30 1156 H 111.829 0.3923 0.544373 0
M  V30 1157 H 114.373 1.6544 1.20207 0
M  V30 1158 H 112.528 1.27895 3.6568 0
M  V30 1159 H 112.942 3.47598 3.9278 0
M  V30 1160 H 114.416 2.19753 5.06372 0
M  V30 1161 H 114.893 0.662619 4.34173 0
M  V30 1162 H 115.499 2.18461 3.64904 0
M  V30 1163 N 113.814 -1.1601 1.06675 0
M  V30 1164 C 114.764 -2.18512 0.650888 0
M  V30 1165 C 115.748 -1.57677 -0.320441 0
M  V30 1166 O 116.94 -1.76482 -0.135266 0
M  V30 1167 C 114.069 -3.43273 0.0429255 0
M  V30 1168 C 113.155 -4.11176 1.03898 0
M  V30 1169 N 113.546 -4.54672 2.216 0
M  V30 1170 C 111.844 -4.37417 0.870779 0
M  V30 1171 C 112.545 -5.07248 2.84736 0
M  V30 1172 N 111.521 -5.0037 2.12441 0
M  V30 1173 H 115.323 -2.49863 1.54745 0
M  V30 1174 H 112.837 -1.32503 0.938975 0
M  V30 1175 H 114.834 -4.16006 -0.272857 0
M  V30 1176 H 113.494 -3.13408 -0.84884 0
M  V30 1177 H 114.505 -4.4828 2.59356 0
M  V30 1178 H 111.182 -4.17488 0.0313293 0
M  V30 1179 H 112.572 -5.50912 3.84636 0
M  V30 1180 N 115.292 -0.849877 -1.32721 0
M  V30 1181 C 116.539 -0.450923 -1.97416 0
M  V30 1182 C 116.867 0.992376 -1.67279 0
M  V30 1183 O 116.122 1.71048 -0.950845 0
M  V30 1184 C 116.421 -0.631272 -3.51781 0
M  V30 1185 C 116.087 -2.04432 -4.01894 0
M  V30 1186 C 114.749 -2.4308 -4.1529 0
M  V30 1187 C 117.101 -2.96679 -4.28522 0
M  V30 1188 C 114.429 -3.73257 -4.52654 0
M  V30 1189 C 116.781 -4.26349 -4.67343 0
M  V30 1190 C 115.445 -4.64939 -4.78945 0
M  V30 1191 H 114.715 -0.165004 -0.722395 0
M  V30 1192 H 117.362 -1.07901 -1.58207 0
M  V30 1193 H 115.667 0.0800767 -3.91718 0
M  V30 1194 H 117.364 -0.302709 -3.99856 0
M  V30 1195 H 113.954 -1.73419 -3.91949 0
M  V30 1196 H 118.138 -2.68054 -4.17685 0
M  V30 1197 H 113.394 -4.02946 -4.59831 0
M  V30 1198 H 117.568 -4.97895 -4.86902 0
M  V30 1199 H 115.195 -5.65855 -5.07654 0
M  V30 1200 N 116.77 1.45427 -0.607355 0
M  V30 1201 C 118.186 1.57283 -0.270985 0
M  V30 1202 C 118.386 1.59875 1.22647 0
M  V30 1203 O 117.442 1.52893 2.00948 0
M  V30 1204 C 118.755 2.85566 -0.941952 0
M  V30 1205 C 120.303 2.9924 -0.917849 0
M  V30 1206 C 120.778 4.30293 -1.56882 0
M  V30 1207 N 122.269 4.37051 -1.5343 0
M  V30 1208 C 123.004 5.37123 -2.00715 0
M  V30 1209 N 122.5 6.43734 -2.56084 0
M  V30 1210 N 124.293 5.28479 -1.91484 0
M  V30 1211 H 116.444 1.41988 -1.57966 0
M  V30 1212 H 118.707 0.67885 -0.661715 0
M  V30 1213 H 118.413 2.8955 -1.99633 0
M  V30 1214 H 118.287 3.74322 -0.465096 0
M  V30 1215 H 120.674 2.94822 0.127984 0
M  V30 1216 H 120.755 2.11895 -1.43297 0
M  V30 1217 H 120.399 4.35469 -2.61398 0
M  V30 1218 H 120.329 5.16454 -1.02873 0
M  V30 1219 H 122.82 3.60615 -1.12982 0
M  V30 1220 H 123.133 7.16341 -2.89958 0
M  V30 1221 H 121.478 6.44485 -2.60122 0
M  V30 1222 H 124.669 4.44098 -1.47967 0
M  V30 1223 H 124.842 6.0632 -2.28648 0
M  V30 1224 N 118.248 0.346503 1.53744 0
M  V30 1225 C 119.664 -0.00530975 1.59599 0
M  V30 1226 C 119.864 -1.48465 1.36236 0
M  V30 1227 O 118.92 -2.24376 1.15808 0
M  V30 1228 C 120.233 0.433516 2.97559 0
M  V30 1229 C 121.781 0.386111 3.10609 0
M  V30 1230 C 122.256 0.800451 4.50951 0
M  V30 1231 N 123.747 0.754753 4.5701 0
M  V30 1232 C 124.482 1.04727 5.63755 0
M  V30 1233 N 123.978 1.4081 6.7834 0
M  V30 1234 N 125.771 0.971316 5.53644 0
M  V30 1235 H 117.922 1.31009 1.67184 0
M  V30 1236 H 120.185 0.534242 0.783128 0
M  V30 1237 H 119.891 1.46509 3.19731 0
M  V30 1238 H 119.765 -0.189753 3.76722 0
M  V30 1239 H 122.152 -0.636295 2.88158 0
M  V30 1240 H 122.233 1.04462 2.33498 0
M  V30 1241 H 121.877 1.82088 4.74137 0
M  V30 1242 H 121.807 0.119386 5.26465 0
M  V30 1243 H 124.298 0.488662 3.74727 0
M  V30 1244 H 124.611 1.61607 7.55714 0
M  V30 1245 H 122.956 1.44657 6.79779 0
M  V30 1246 H 126.147 0.688748 4.63005 0
M  V30 1247 H 126.32 1.20263 6.36742 0
M  V30 1248 N 119.726 -1.57421 0.075193 0
M  V30 1249 C 120.689 -2.11791 -0.876203 0
M  V30 1250 C 121.689 -1.04268 -1.22412 0
M  V30 1251 O 122.879 -1.30242 -1.15684 0
M  V30 1252 C 120.011 -2.62207 -2.17854 0
M  V30 1253 H 121.204 -2.9716 -0.40444 0
M  V30 1254 H 118.757 -1.55333 -0.173557 0
M  V30 1255 H 119.492 -1.803 -2.6956 0
M  V30 1256 H 119.277 -3.40802 -1.93897 0
M  V30 1257 H 120.767 -3.04335 -2.85955 0
M  V30 1258 N 121.204 0.198386 -1.56346 0
M  V30 1259 C 122.615 0.763358 -1.70381 0
M  V30 1260 C 122.966 1.83995 -0.681203 0
M  V30 1261 O 122.091 2.15785 0.16305 0
M  V30 1262 C 122.686 1.39143 -3.08909 0
M  V30 1263 C 121.245 1.90352 -3.2472 0
M  V30 1264 C 120.392 0.772233 -2.6633 0
M  V30 1265 H 123.343 -0.0266377 -1.58678 0
M  V30 1266 H 123.364 2.26076 -3.06055 0
M  V30 1267 H 122.876 0.607638 -3.83314 0
M  V30 1268 H 120.977 2.71461 -2.55225 0
M  V30 1269 H 121.09 2.06757 -4.3219 0
M  V30 1270 H 119.454 1.18566 -2.2542 0
M  V30 1271 H 120.237 0.00073556 -3.433 0
M  V30 1272 N 122.682 1.50554 0.465978 0
M  V30 1273 C 123.93 1.61479 1.21528 0
M  V30 1274 C 124.251 0.319596 1.92363 0
M  V30 1275 O 123.521 -0.663194 1.84333 0
M  V30 1276 H 122.101 0.595055 0.451573 0
M  V30 1277 H 124.763 1.87355 0.53704 0
M  V30 1278 H 123.859 2.42846 1.96042 0
M  V30 1279 N 124.16 -0.719506 1.40217 0
M  V30 1280 C 125.407 -1.47933 1.38283 0
M  V30 1281 C 125.735 -1.94493 -0.0161536 0
M  V30 1282 O 124.99 -1.68224 -0.999956 0
M  V30 1283 C 125.289 -2.72271 2.31524 0
M  V30 1284 C 124.955 -2.44496 3.78857 0
M  V30 1285 C 123.617 -2.36631 4.18998 0
M  V30 1286 C 125.969 -2.21104 4.71977 0
M  V30 1287 C 123.297 -2.03437 5.503 0
M  V30 1288 C 125.649 -1.89423 6.03574 0
M  V30 1289 C 124.313 -1.80038 6.42762 0
M  V30 1290 H 123.583 -0.541325 0.506012 0
M  V30 1291 H 126.23 -0.824502 1.72842 0
M  V30 1292 H 124.535 -3.42572 1.90137 0
M  V30 1293 H 126.232 -3.30348 2.27313 0
M  V30 1294 H 122.822 -2.51503 3.47051 0
M  V30 1295 H 127.006 -2.26139 4.41786 0
M  V30 1296 H 122.262 -1.94705 5.79569 0
M  V30 1297 H 126.436 -1.70336 6.75247 0
M  V30 1298 H 124.063 -1.54083 7.44421 0
M  V30 1299 N 125.638 -1.25649 -0.95132 0
M  V30 1300 C 126.866 -1.13343 -1.73092 0
M  V30 1301 C 127.281 0.312434 -1.86197 0
M  V30 1302 O 126.638 1.21465 -1.36207 0
M  V30 1303 C 126.689 -1.78602 -3.14299 0
M  V30 1304 O 126.41 -3.17537 -3.01831 0
M  V30 1305 C 127.911 -1.72119 -4.08522 0
M  V30 1306 H 125.131 -0.395181 -0.542285 0
M  V30 1307 H 127.675 -1.66076 -1.19328 0
M  V30 1308 H 125.83 -1.29832 -3.64996 0
M  V30 1309 H 126.244 -3.49676 -3.90931 0
M  V30 1310 H 127.718 -2.22435 -5.052 0
M  V30 1311 H 128.195 -0.685635 -4.33815 0
M  V30 1312 H 128.801 -2.20393 -3.63741 0
M  V30 1313 N 127.117 1.15442 -1.07289 0
M  V30 1314 C 128.365 1.85845 -0.794096 0
M  V30 1315 C 128.686 1.82692 0.681809 0
M  V30 1316 O 127.956 1.26741 1.49377 0
M  V30 1317 H 126.536 0.688089 -0.290763 0
M  V30 1318 H 129.198 1.39947 -1.3565 0
M  V30 1319 H 128.294 2.91001 -1.12804 0
M  V30 1320 N 128.595 0.856903 1.32268 0
M  V30 1321 C 129.525 0.31858 2.31316 0
M  V30 1322 C 130.506 -0.583487 1.59779 0
M  V30 1323 O 131.691 -0.503259 1.87566 0
M  V30 1324 C 128.821 -0.491979 3.43798 0
M  V30 1325 C 127.775 0.315849 4.26833 0
M  V30 1326 C 127.101 -0.619586 5.31098 0
M  V30 1327 C 128.401 1.54282 4.98993 0
M  V30 1328 H 130.095 1.14621 2.76591 0
M  V30 1329 H 127.641 0.552613 1.32974 0
M  V30 1330 H 129.594 -0.879012 4.1213 0
M  V30 1331 H 128.318 -1.35299 2.97257 0
M  V30 1332 H 126.977 0.684664 3.6015 0
M  V30 1333 H 126.625 -1.47751 4.8081 0
M  V30 1334 H 126.325 -0.0830621 5.87541 0
M  V30 1335 H 127.849 -1.00375 6.02293 0
M  V30 1336 H 129.263 1.22796 5.59995 0
M  V30 1337 H 127.66 2.01745 5.65172 0
M  V30 1338 H 128.73 2.30285 4.26728 0
M  V30 1339 N 130.073 -1.45103 0.615059 0
M  V30 1340 C 131.303 -2.06254 0.119596 0
M  V30 1341 C 131.711 -1.4591 -1.20445 0
M  V30 1342 O 131.054 -0.570384 -1.7462 0
M  V30 1343 C 131.116 -3.59396 -0.0865591 0
M  V30 1344 C 130.78 -4.42116 1.15683 0
M  V30 1345 C 131.777 -4.7662 2.07676 0
M  V30 1346 C 129.462 -4.82749 1.38775 0
M  V30 1347 C 131.456 -5.50622 3.21082 0
M  V30 1348 C 129.143 -5.56504 2.52481 0
M  V30 1349 C 130.141 -5.90358 3.43463 0
M  V30 1350 O 129.829 -6.62615 4.55189 0
M  V30 1351 H 129.561 -0.672423 0.0694512 0
M  V30 1352 H 132.115 -1.87219 0.844885 0
M  V30 1353 H 130.345 -3.76859 -0.866823 0
M  V30 1354 H 132.034 -4.02365 -0.534555 0
M  V30 1355 H 132.8 -4.4578 1.91063 0
M  V30 1356 H 128.679 -4.55829 0.688545 0
M  V30 1357 H 132.223 -5.76965 3.92119 0
M  V30 1358 H 128.12 -5.86759 2.69043 0
M  V30 1359 H 128.888 -6.81071 4.53966 0
M  V30 1360 N 131.551 -0.354651 -1.53558 0
M  V30 1361 C 132.481 0.489091 -2.2832 0
M  V30 1362 C 133.462 1.09324 -1.30316 0
M  V30 1363 O 134.647 1.11255 -1.59173 0
M  V30 1364 C 131.777 1.63456 -3.0643 0
M  V30 1365 C 130.731 1.1582 -4.12031 0
M  V30 1366 C 130.057 2.39305 -4.7816 0
M  V30 1367 C 131.357 0.250731 -5.21698 0
M  V30 1368 H 133.051 -0.134614 -2.99097 0
M  V30 1369 H 130.597 -0.0661826 -1.43848 0
M  V30 1370 H 132.55 2.23136 -3.57475 0
M  V30 1371 H 131.274 2.28533 -2.33325 0
M  V30 1372 H 129.933 0.584146 -3.61916 0
M  V30 1373 H 129.581 3.02814 -4.01637 0
M  V30 1374 H 129.281 2.08109 -5.49513 0
M  V30 1375 H 130.805 2.99691 -5.31994 0
M  V30 1376 H 132.219 0.754695 -5.68311 0
M  V30 1377 H 130.616 0.0301468 -6.00092 0
M  V30 1378 H 131.686 -0.710125 -4.79672 0
M  V30 1379 N 133.029 1.57378 -0.0835403 0
M  V30 1380 C 134.445 1.57246 0.273109 0
M  V30 1381 C 134.645 1.09385 1.69225 0
M  V30 1382 O 133.701 0.765051 2.40631 0
M  V30 1383 C 135.014 3.00614 0.0720628 0
M  V30 1384 C 136.562 3.12684 0.1407 0
M  V30 1385 C 137.037 4.57989 -0.0322094 0
M  V30 1386 N 138.528 4.63194 0.0230085 0
M  V30 1387 C 139.263 5.73335 -0.0861941 0
M  V30 1388 N 138.759 6.9235 -0.24958 0
M  V30 1389 N 140.552 5.62093 -0.0282886 0
M  V30 1390 H 132.703 1.86801 -1.0109 0
M  V30 1391 H 134.966 0.861687 -0.395222 0
M  V30 1392 H 134.672 3.39786 -0.907662 0
M  V30 1393 H 134.546 3.68193 0.81936 0
M  V30 1394 H 136.933 2.73391 1.11092 0
M  V30 1395 H 137.014 2.47719 -0.637896 0
M  V30 1396 H 136.658 4.97973 -0.999247 0
M  V30 1397 H 136.588 5.21 0.765937 0
M  V30 1398 H 139.079 3.77613 0.14722 0
M  V30 1399 H 139.392 7.72117 -0.324733 0
M  V30 1400 H 137.737 6.94415 -0.285097 0
M  V30 1401 H 140.928 4.67997 0.0981408 0
M  V30 1402 H 141.101 6.47895 -0.116845 0
M  V30 1403 N 134.507 -0.190092 1.56449 0
M  V30 1404 C 135.417 -1.25591 1.98152 0
M  V30 1405 C 136.433 -1.49519 0.889944 0
M  V30 1406 O 137.609 -1.62036 1.19609 0
M  V30 1407 C 134.674 -2.57916 2.3169 0
M  V30 1408 C 133.735 -2.42015 3.5458 0
M  V30 1409 C 132.968 -3.6803 3.8651 0
M  V30 1410 O 133.191 -4.72413 3.1966 0
M  V30 1411 O 132.125 -3.6326 4.79923 0
M  V30 1412 H 135.951 -0.931988 2.89046 0
M  V30 1413 H 133.536 -0.395488 1.4407 0
M  V30 1414 H 135.418 -3.36008 2.54316 0
M  V30 1415 H 134.093 -2.89925 1.43963 0
M  V30 1416 H 133 -1.62017 3.37196 0
M  V30 1417 H 134.333 -2.14937 4.4279 0
M  V30 1418 N 135.985 -1.50799 -0.457987 0
M  V30 1419 C 137.215 -1.65977 -1.23025 0
M  V30 1420 C 137.623 -0.347918 -1.85974 0
M  V30 1421 O 136.966 0.68148 -1.70592 0
M  V30 1422 C 137.028 -2.70309 -2.3701 0
M  V30 1423 C 136.692 -4.135 -1.94594 0
M  V30 1424 C 137.689 -4.98949 -1.46101 0
M  V30 1425 C 135.374 -4.5949 -2.02915 0
M  V30 1426 C 137.368 -6.28442 -1.06489 0
M  V30 1427 C 135.055 -5.88984 -1.62914 0
M  V30 1428 C 136.053 -6.73286 -1.1478 0
M  V30 1429 O 135.741 -8.00362 -0.75339 0
M  V30 1430 H 135.473 -0.56064 -0.377702 0
M  V30 1431 H 138.027 -1.97857 -0.551537 0
M  V30 1432 H 136.257 -2.337 -3.08093 0
M  V30 1433 H 137.946 -2.74574 -2.98938 0
M  V30 1434 H 138.712 -4.6463 -1.39084 0
M  V30 1435 H 134.591 -3.94009 -2.39328 0
M  V30 1436 H 138.135 -6.94194 -0.688488 0
M  V30 1437 H 134.032 -6.22822 -1.69595 0
M  V30 1438 H 134.8 -8.13744 -0.88108 0
M  V30 1439 N 137.463 0.71206 -1.40597 0
M  V30 1440 C 138.393 1.83889 -1.43899 0
M  V30 1441 C 139.374 1.67442 -0.299504 0
M  V30 1442 O 140.559 1.87421 -0.508624 0
M  V30 1443 C 137.689 3.21877 -1.30431 0
M  V30 1444 C 136.643 3.53002 -2.42019 0
M  V30 1445 C 135.969 4.90172 -2.13626 0
M  V30 1446 C 137.269 3.53643 -3.84362 0
M  V30 1447 H 138.963 1.81383 -2.38203 0
M  V30 1448 H 136.509 0.871237 -1.14654 0
M  V30 1449 H 138.462 4.00404 -1.31357 0
M  V30 1450 H 137.186 3.24968 -0.326049 0
M  V30 1451 H 135.845 2.76818 -2.40349 0
M  V30 1452 H 135.493 4.89869 -1.14182 0
M  V30 1453 H 135.193 5.11962 -2.88389 0
M  V30 1454 H 136.717 5.71028 -2.1624 0
M  V30 1455 H 138.131 4.22203 -3.87837 0
M  V30 1456 H 136.528 3.86961 -4.58673 0
M  V30 1457 H 137.598 2.52954 -4.13693 0
M  V30 1458 N 138.941 1.26152 0.944643 0
M  V30 1459 C 140.352 1.10454 1.50522 0
M  V30 1460 C 140.703 -0.31635 1.93633 0
M  V30 1461 O 139.828 -1.20746 1.79581 0
M  V30 1462 C 140.423 1.99891 2.73549 0
M  V30 1463 C 138.982 1.88348 3.25886 0
M  V30 1464 C 138.129 1.93447 1.9868 0
M  V30 1465 H 141.08 1.39292 0.760489 0
M  V30 1466 H 141.101 1.54477 3.47732 0
M  V30 1467 H 140.613 3.03297 2.42141 0
M  V30 1468 H 138.714 0.878636 3.62092 0
M  V30 1469 H 138.827 2.73696 3.93227 0
M  V30 1470 H 137.191 1.37456 2.14425 0
M  V30 1471 H 137.974 2.98476 1.69607 0
M  V30 1472 N 140.419 -1.14872 1.07899 0
M  V30 1473 C 141.349 -2.2193 0.725887 0
M  V30 1474 C 142.33 -1.67622 -0.28927 0
M  V30 1475 O 143.515 -1.93533 -0.160787 0
M  V30 1476 C 140.645 -3.47061 0.128856 0
M  V30 1477 C 139.599 -4.14363 1.07178 0
M  V30 1478 C 138.925 -5.33636 0.337229 0
M  V30 1479 C 140.225 -4.63492 2.40775 0
M  V30 1480 H 141.919 -2.51724 1.62097 0
M  V30 1481 H 139.465 -1.20991 0.780838 0
M  V30 1482 H 141.418 -4.21199 -0.130147 0
M  V30 1483 H 140.142 -3.16617 -0.80134 0
M  V30 1484 H 138.801 -3.42173 1.3158 0
M  V30 1485 H 138.449 -4.99449 -0.596606 0
M  V30 1486 H 138.149 -5.79609 0.965788 0
M  V30 1487 H 139.673 -6.10539 0.0861567 0
M  V30 1488 H 141.087 -5.2913 2.20669 0
M  V30 1489 H 139.484 -5.20148 2.99276 0
M  V30 1490 H 140.554 -3.78834 3.02676 0
M  V30 1491 N 141.898 -0.863906 -1.31812 0
M  V30 1492 C 143.146 -0.470904 -1.96537 0
M  V30 1493 C 143.467 0.978771 -1.68657 0
M  V30 1494 O 142.737 1.6853 -0.998717 0
M  V30 1495 H 141.317 -0.171148 -0.72713 0
M  V30 1496 H 143.979 -1.10236 -1.60729 0
M  V30 1497 H 143.075 -0.623616 -3.05806 0
M  V30 1498 N 143.376 1.44774 -0.622745 0
M  V30 1499 C 144.308 2.28856 0.125485 0
M  V30 1500 C 145.321 1.40811 0.817069 0
M  V30 1501 O 146.51 1.65044 0.679918 0
M  V30 1502 C 143.61 3.16963 1.19949 0
M  V30 1503 C 142.783 4.33374 0.592064 0
M  V30 1504 C 141.842 5.02577 1.55893 0
M  V30 1505 O 140.868 5.58873 1.07933 0
M  V30 1506 N 142.07 5.03256 2.89334 0
M  V30 1507 H 144.835 2.93713 -0.596068 0
M  V30 1508 H 142.396 1.55129 -0.463303 0
M  V30 1509 H 144.388 3.60123 1.84644 0
M  V30 1510 H 142.958 2.53913 1.82337 0
M  V30 1511 H 142.178 3.93509 -0.233322 0
M  V30 1512 H 143.466 5.08527 0.166738 0
M  V30 1513 H 142.864 4.58836 3.30887 0
M  V30 1514 H 141.421 5.50232 3.49412 0
M  V30 1515 N 144.854 0.36279 1.53368 0
M  V30 1516 C 146.102 -0.227326 2.00817 0
M  V30 1517 C 146.423 -1.49511 1.25186 0
M  V30 1518 O 145.693 -1.92482 0.364348 0
M  V30 1519 H 144.273 -0.0869923 0.741917 0
M  V30 1520 H 146.935 0.488381 1.88682 0
M  V30 1521 H 146.031 -0.456273 3.08747 0
M  V30 1522 N 146.332 -1.57332 0.0918853 0
M  V30 1523 C 147.748 -1.57389 -0.264766 0
M  V30 1524 C 147.948 -1.10281 -1.68643 0
M  V30 1525 O 147.004 -0.777801 -2.40222 0
M  V30 1526 C 148.317 -3.00648 -0.0561195 0
M  V30 1527 C 149.865 -3.12754 -0.124116 0
M  V30 1528 C 150.34 -4.57965 0.0564972 0
M  V30 1529 N 151.831 -4.632 0.00155611 0
M  V30 1530 C 152.566 -5.73281 0.116598 0
M  V30 1531 N 152.062 -6.92208 0.286294 0
M  V30 1532 N 153.855 -5.6207 0.0580973 0
M  V30 1533 H 146.006 -1.86262 1.02079 0
M  V30 1534 H 148.269 -0.859579 0.399786 0
M  V30 1535 H 147.975 -3.393 0.925669 0
M  V30 1536 H 147.849 -3.68623 -0.799823 0
M  V30 1537 H 150.236 -2.73976 -1.09641 0
M  V30 1538 H 150.317 -2.47377 0.651024 0
M  V30 1539 H 149.961 -4.97436 1.02564 0
M  V30 1540 H 149.891 -5.21399 -0.738297 0
M  V30 1541 H 152.382 -3.77686 -0.127192 0
M  V30 1542 H 152.695 -7.71934 0.365676 0
M  V30 1543 H 151.04 -6.94254 0.32192 0
M  V30 1544 H 154.231 -4.68043 -0.0733204 0
M  V30 1545 H 154.404 -6.47824 0.151203 0
M  V30 1546 N 147.81 0.181792 -1.56548 0
M  V30 1547 C 149.056 0.901431 -1.81665 0
M  V30 1548 C 149.389 1.82347 -0.668075 0
M  V30 1549 O 148.664 1.91669 0.330615 0
M  V30 1550 C 148.947 1.70618 -3.17115 0
M  V30 1551 C 148.8 0.807964 -4.42484 0
M  V30 1552 C 150.119 2.67605 -3.49393 0
M  V30 1553 H 147.238 0.32627 -0.660846 0
M  V30 1554 H 149.88 0.168134 -1.89255 0
M  V30 1555 H 148.03 2.33133 -3.10775 0
M  V30 1556 H 149.702 0.19649 -4.60881 0
M  V30 1557 H 147.945 0.115411 -4.33646 0
M  V30 1558 H 148.616 1.40632 -5.33785 0
M  V30 1559 H 151.092 2.15218 -3.56118 0
M  V30 1560 H 149.968 3.20985 -4.45264 0
M  V30 1561 H 150.229 3.47298 -2.73563 0
M  V30 1562 N 149.288 1.51039 0.449983 0
M  V30 1563 C 150.535 1.63081 1.20045 0
M  V30 1564 C 150.863 0.341024 1.91487 0
M  V30 1565 O 150.118 -0.674276 1.83717 0
M  V30 1566 C 150.417 2.77556 2.25161 0
M  V30 1567 C 150.083 4.17289 1.70823 0
M  V30 1568 C 148.745 4.55305 1.55725 0
M  V30 1569 C 151.097 5.04536 1.3074 0
M  V30 1570 C 148.425 5.78287 0.989999 0
M  V30 1571 C 150.777 6.28085 0.754482 0
M  V30 1572 C 149.441 6.64885 0.590308 0
M  V30 1573 H 148.711 0.596755 0.439277 0
M  V30 1574 H 151.358 1.85037 0.49333 0
M  V30 1575 H 149.663 2.49771 3.01863 0
M  V30 1576 H 151.36 2.84073 2.83026 0
M  V30 1577 H 147.95 3.8731 1.83546 0
M  V30 1578 H 152.134 4.75782 1.41229 0
M  V30 1579 H 147.39 6.05456 0.850451 0
M  V30 1580 H 151.564 6.95038 0.435324 0
M  V30 1581 H 149.191 7.60055 0.14862 0
M  V30 1582 N 150.766 -0.704594 1.40972 0
M  V30 1583 C 151.996 -1.49138 1.42974 0
M  V30 1584 C 152.404 -1.89175 0.0308406 0
M  V30 1585 O 151.747 -1.56734 -0.958138 0
M  V30 1586 C 151.809 -2.79016 2.26694 0
M  V30 1587 C 151.473 -2.61236 3.74973 0
M  V30 1588 C 152.47 -2.27773 4.67349 0
M  V30 1589 C 150.155 -2.77158 4.18914 0
M  V30 1590 C 152.149 -2.10457 6.01653 0
M  V30 1591 C 149.836 -2.59459 5.53285 0
M  V30 1592 C 150.834 -2.26158 6.4447 0
M  V30 1593 O 150.522 -2.08605 7.76363 0
M  V30 1594 H 150.254 -0.466443 0.489292 0
M  V30 1595 H 152.808 -0.8758 1.85793 0
M  V30 1596 H 151.038 -3.42947 1.78673 0
M  V30 1597 H 152.727 -3.40782 2.20504 0
M  V30 1598 H 153.493 -2.15095 4.34694 0
M  V30 1599 H 149.372 -3.02064 3.48251 0
M  V30 1600 H 152.916 -1.84387 6.72791 0
M  V30 1601 H 148.813 -2.71725 5.85522 0
M  V30 1602 H 149.581 -2.23439 7.87412 0
M  V30 1603 N 152.244 -1.26651 -0.937939 0
M  V30 1604 C 153.474 -1.15006 -1.71631 0
M  V30 1605 C 153.882 0.297026 -1.86854 0
M  V30 1606 O 153.225 1.21493 -1.37786 0
M  V30 1607 C 153.287 -1.74984 -3.14039 0
M  V30 1608 C 152.951 -3.24103 -3.2219 0
M  V30 1609 C 153.948 -4.20877 -3.05219 0
M  V30 1610 C 151.633 -3.64625 -3.45476 0
M  V30 1611 C 153.627 -5.56151 -3.11408 0
M  V30 1612 C 151.314 -5.00032 -3.513 0
M  V30 1613 C 152.312 -5.95604 -3.34282 0
M  V30 1614 O 152 -7.28545 -3.3982 0
M  V30 1615 H 151.732 -0.401183 -0.544085 0
M  V30 1616 H 154.286 -1.67832 -1.18413 0
M  V30 1617 H 152.516 -1.16624 -3.68695 0
M  V30 1618 H 154.205 -1.58199 -3.73802 0
M  V30 1619 H 154.971 -3.90908 -2.87081 0
M  V30 1620 H 150.85 -2.90718 -3.57777 0
M  V30 1621 H 154.394 -6.30727 -2.98043 0
M  V30 1622 H 150.291 -5.29659 -3.68959 0
M  V30 1623 H 151.059 -7.3686 -3.56343 0
M  V30 1624 N 153.722 1.14298 -1.08507 0
M  V30 1625 C 155.138 1.37347 -0.812901 0
M  V30 1626 C 155.338 1.93052 0.577325 0
M  V30 1627 O 154.394 2.14389 1.33393 0
M  V30 1628 C 155.707 2.33359 -1.89642 0
M  V30 1629 C 157.255 2.46996 -1.92255 0
M  V30 1630 C 157.73 3.46309 -2.99724 0
M  V30 1631 N 159.221 3.53853 -2.98902 0
M  V30 1632 C 159.956 4.3055 -3.787 0
M  V30 1633 N 159.452 5.10482 -4.6838 0
M  V30 1634 N 161.245 4.25757 -3.66998 0
M  V30 1635 H 153.396 0.764867 -1.9815 0
M  V30 1636 H 155.659 0.398966 -0.859959 0
M  V30 1637 H 155.365 1.99565 -2.89597 0
M  V30 1638 H 155.239 3.33274 -1.76659 0
M  V30 1639 H 157.626 2.80081 -0.929445 0
M  V30 1640 H 157.707 1.47039 -2.09316 0
M  V30 1641 H 157.351 3.13957 -3.99241 0
M  V30 1642 H 157.281 4.46049 -2.79907 0
M  V30 1643 H 159.772 2.96812 -2.33904 0
M  V30 1644 H 160.085 5.66284 -5.25873 0
M  V30 1645 H 158.43 5.09747 -4.72422 0
M  V30 1646 H 161.621 3.62383 -2.96304 0
M  V30 1647 H 161.794 4.85279 -4.29427 0
M  V30 1648 N 155.201 0.870884 1.31352 0
M  V30 1649 C 156.148 0.325425 2.28494 0
M  V30 1650 C 157.118 -0.576615 1.5577 0
M  V30 1651 O 158.303 -0.508059 1.83911 0
M  V30 1652 C 155.443 -0.466283 3.41935 0
M  V30 1653 C 154.556 0.463378 4.29508 0
M  V30 1654 C 153.691 -0.342544 5.30094 0
M  V30 1655 C 152.73 0.583486 6.09313 0
M  V30 1656 N 151.867 -0.186244 7.01853 0
M  V30 1657 H 156.707 1.15901 2.74538 0
M  V30 1658 H 154.244 0.58294 1.35056 0
M  V30 1659 H 156.202 -0.941085 4.06447 0
M  V30 1660 H 154.832 -1.26456 2.97 0
M  V30 1661 H 153.884 1.05663 3.65431 0
M  V30 1662 H 155.196 1.1734 4.84802 0
M  V30 1663 H 154.35 -0.879816 6.00287 0
M  V30 1664 H 153.089 -1.08585 4.75458 0
M  V30 1665 H 152.094 1.13251 5.3801 0
M  V30 1666 H 153.319 1.32566 6.66035 0
M  V30 1667 H 151.265 -0.912348 6.49625 0
M  V30 1668 H 151.182 0.464422 7.54572 0
M  V30 1669 H 152.45 -0.704716 7.76308 0
M  V30 1670 N 156.679 -1.44442 0.630414 0
M  V30 1671 C 157.927 -2.01653 0.134351 0
M  V30 1672 C 158.248 -1.49836 -1.24796 0
M  V30 1673 O 157.518 -0.701684 -1.82902 0
M  V30 1674 H 156.098 -0.74554 0.0466769 0
M  V30 1675 H 158.76 -1.76952 0.816955 0
M  V30 1676 H 157.856 -3.11935 0.101498 0
M  V30 1677 N 158.157 -0.370918 -1.53173 0
M  V30 1678 C 159.382 0.220293 -2.06227 0
M  V30 1679 C 159.807 1.41243 -1.24225 0
M  V30 1680 O 159.165 1.79387 -0.262645 0
M  V30 1681 C 159.213 0.586663 -3.55796 0
M  V30 1682 O 158.317 1.68317 -3.76488 0
M  V30 1683 H 157.658 0.0308099 -0.663285 0
M  V30 1684 H 160.188 -0.533068 -1.97534 0
M  V30 1685 H 160.198 0.85617 -3.98916 0
M  V30 1686 H 158.873 -0.285013 -4.14922 0
M  V30 1687 H 157.45 1.40881 -3.45264 0
M  V30 1688 N 159.635 1.57281 -0.100228 0
M  V30 1689 C 160.598 2.13158 0.842398 0
M  V30 1690 C 161.598 1.06202 1.20738 0
M  V30 1691 O 162.788 1.32066 1.13597 0
M  V30 1692 C 159.92 2.65639 2.13655 0
M  V30 1693 H 161.113 2.97766 0.357114 0
M  V30 1694 H 158.666 1.5559 0.148823 0
M  V30 1695 H 159.401 1.84566 2.66657 0
M  V30 1696 H 159.186 3.43844 1.88451 0
M  V30 1697 H 160.676 3.08846 2.81077 0
M  V30 1698 N 161.113 -0.173488 1.56642 0
M  V30 1699 C 162.361 -0.888706 1.81512 0
M  V30 1700 C 162.682 -1.82875 0.676872 0
M  V30 1701 O 161.952 -1.93536 -0.303414 0
M  V30 1702 H 160.532 -0.331164 0.669582 0
M  V30 1703 H 163.194 -0.173823 1.94123 0
M  V30 1704 H 162.29 -1.46691 2.75478 0
M  V30 1705 N 162.591 -1.51276 -0.441967 0
M  V30 1706 C 163.816 -1.67799 -1.21895 0
M  V30 1707 C 164.241 -0.372864 -1.84367 0
M  V30 1708 O 163.599 0.666501 -1.68604 0
M  V30 1709 C 163.647 -2.79199 -2.28211 0
M  V30 1710 O 162.751 -2.42479 -3.33583 0
M  V30 1711 H 162.092 -0.559649 -0.357336 0
M  V30 1712 H 164.622 -1.97815 -0.522522 0
M  V30 1713 H 164.632 -3.03146 -2.73069 0
M  V30 1714 H 163.307 -3.73906 -1.82118 0
M  V30 1715 H 161.884 -2.29087 -2.94234 0
M  V30 1716 N 164.069 0.697108 -1.41344 0
M  V30 1717 C 165.032 1.79281 -1.42797 0
M  V30 1718 C 166.032 1.57607 -0.318837 0
M  V30 1719 O 167.222 1.64309 -0.578642 0
M  V30 1720 C 164.354 3.17632 -1.23785 0
M  V30 1721 H 165.547 1.79385 -2.40335 0
M  V30 1722 H 163.1 0.904582 -1.27464 0
M  V30 1723 H 163.835 3.23167 -0.270814 0
M  V30 1724 H 163.62 3.34765 -2.04144 0
M  V30 1725 H 165.11 3.97617 -1.27633 0
M  V30 1726 N 165.547 1.27147 0.931209 0
M  V30 1727 C 166.477 1.12081 2.04842 0
M  V30 1728 C 167.458 0.0232364 1.70084 0
M  V30 1729 O 168.643 0.197085 1.93197 0
M  V30 1730 C 165.773 0.76354 3.38803 0
M  V30 1731 C 164.727 1.81396 3.87659 0
M  V30 1732 C 164.053 1.31075 5.18385 0
M  V30 1733 C 165.353 3.21739 4.11438 0
M  V30 1734 H 167.047 2.05537 2.17703 0
M  V30 1735 H 164.593 0.989603 1.04608 0
M  V30 1736 H 166.546 0.644982 4.16435 0
M  V30 1737 H 165.27 -0.206727 3.25945 0
M  V30 1738 H 163.929 1.92136 3.12217 0
M  V30 1739 H 163.577 0.330037 5.01916 0
M  V30 1740 H 163.277 2.013 5.52044 0
M  V30 1741 H 164.801 1.20506 5.98591 0
M  V30 1742 H 166.215 3.14019 4.79651 0
M  V30 1743 H 164.612 3.89644 4.56397 0
M  V30 1744 H 165.682 3.67054 3.16859 0
M  V30 1745 N 167.025 -1.13721 1.09112 0
M  V30 1746 C 167.988 -2.17222 0.731241 0
M  V30 1747 C 168.988 -1.59035 -0.237566 0
M  V30 1748 O 170.178 -1.74192 -0.0161704 0
M  V30 1749 C 167.31 -3.40804 0.0808443 0
M  V30 1750 H 168.503 -2.50573 1.64783 0
M  V30 1751 H 166.056 -1.28493 0.889897 0
M  V30 1752 H 166.791 -3.1304 -0.847127 0
M  V30 1753 H 166.576 -3.84306 0.777896 0
M  V30 1754 H 168.066 -4.1731 -0.155657 0
M  V30 1755 N 168.503 -0.877838 -1.30888 0
M  V30 1756 C 169.914 -0.544193 -1.78593 0
M  V30 1757 C 170.265 0.939301 -1.72254 0
M  V30 1758 O 169.39 1.7337 -1.29505 0
M  V30 1759 C 169.985 -0.98105 -3.24285 0
M  V30 1760 C 168.544 -0.698935 -3.69854 0
M  V30 1761 C 167.691 -1.168 -2.51502 0
M  V30 1762 H 170.642 -1.06278 -1.17859 0
M  V30 1763 H 170.663 -0.307009 -3.79259 0
M  V30 1764 H 170.175 -2.06079 -3.28866 0
M  V30 1765 H 168.276 0.369112 -3.70767 0
M  V30 1766 H 168.389 -1.28148 -4.61644 0
M  V30 1767 H 166.753 -0.587535 -2.47831 0
M  V30 1768 H 167.536 -2.25533 -2.58824 0
M  V30 1769 N 169.982 1.44106 -0.638065 0
M  V30 1770 C 171.23 2.01579 -0.145043 0
M  V30 1771 C 171.551 1.50496 1.24 0
M  V30 1772 O 170.821 0.711374 1.82527 0
M  V30 1773 H 169.401 0.745282 -0.05063 0
M  V30 1774 H 172.063 1.76516 -0.826327 0
M  V30 1775 H 171.159 3.11877 -0.118039 0
M  V30 1776 N 171.46 0.379036 1.52974 0
M  V30 1777 C 172.423 -0.448865 2.24762 0
M  V30 1778 C 173.423 -0.998689 1.26027 0
M  V30 1779 O 174.613 -0.882313 1.50203 0
M  V30 1780 C 171.745 -1.62872 2.99476 0
M  V30 1781 H 172.938 0.179491 2.99362 0
M  V30 1782 H 170.491 0.13096 1.5575 0
M  V30 1783 H 171.226 -2.29479 2.29151 0
M  V30 1784 H 171.011 -1.24128 3.71934 0
M  V30 1785 H 172.501 -2.2151 3.5401 0
M  V30 1786 N 172.938 -1.57226 0.108567 0
M  V30 1787 C 174.185 -1.94833 -0.551943 0
M  V30 1788 C 174.513 -0.991204 -1.67348 0
M  V30 1789 O 173.768 -0.0131878 -1.95696 0
M  V30 1790 C 174.067 -3.38911 -1.13463 0
M  V30 1791 C 173.733 -4.50696 -0.135509 0
M  V30 1792 C 172.395 -4.80998 0.139252 0
M  V30 1793 C 174.747 -5.18333 0.545957 0
M  V30 1794 C 172.075 -5.76259 1.10194 0
M  V30 1795 C 174.427 -6.14627 1.49721 0
M  V30 1796 C 173.091 -6.43327 1.78006 0
M  V30 1797 H 172.361 -0.712944 -0.20197 0
M  V30 1798 H 175.008 -1.90582 0.18726 0
M  V30 1799 H 173.313 -3.39805 -1.95037 0
M  V30 1800 H 175.01 -3.65317 -1.65362 0
M  V30 1801 H 171.6 -4.27087 -0.359846 0
M  V30 1802 H 175.784 -4.95087 0.346842 0
M  V30 1803 H 171.04 -5.96804 1.32795 0
M  V30 1804 H 175.214 -6.66126 2.03099 0
M  V30 1805 H 172.841 -7.1695 2.52759 0
M  V30 1806 N 174.416 0.165178 -1.56732 0
M  V30 1807 C 175.693 0.908443 -1.73224 0
M  V30 1808 C 176.073 2.0013 -0.67165 0
M  V30 1809 O 175.421 2.26353 0.31253 0
M  V30 1810 C 175.631 1.46756 -3.16644 0
M  V30 1811 C 176.979 1.93809 -3.77787 0
M  V30 1812 O 178.003 1.56537 -3.1996 0
M  V30 1813 O 176.862 2.62486 -4.79336 0
M  V30 1814 H 173.956 0.428025 -0.707618 0
M  V30 1815 H 176.502 0.152526 -1.69013 0
M  V30 1816 H 175.274 0.68129 -3.85323 0
M  V30 1817 H 174.897 2.28749 -3.25207 0
M  V30 1818 N 175.894 1.51508 0.433938 0
M  V30 1819 C 177.305 1.56784 1.01369 0
M  V30 1820 C 177.656 0.393349 1.92217 0
M  V30 1821 O 176.781 -0.489441 2.10792 0
M  V30 1822 C 177.376 2.84144 1.8452 0
M  V30 1823 C 175.935 2.9198 2.37539 0
M  V30 1824 C 175.082 2.51482 1.16843 0
M  V30 1825 H 178.033 1.57236 0.215081 0
M  V30 1826 H 178.054 2.68098 2.70007 0
M  V30 1827 H 177.566 3.69607 1.18373 0
M  V30 1828 H 175.667 2.10955 3.0713 0
M  V30 1829 H 175.78 3.95704 2.70103 0
M  V30 1830 H 174.144 2.04758 1.51481 0
M  V30 1831 H 174.927 3.39293 0.523015 0
M  V30 1832 N 177.372 -0.689602 1.41712 0
M  V30 1833 C 178.649 -1.44457 1.31877 0
M  V30 1834 C 179.029 -2.11039 -0.0508537 0
M  V30 1835 O 178.377 -2.02138 -1.06547 0
M  V30 1836 C 178.587 -2.45913 2.47645 0
M  V30 1837 C 179.935 -3.10991 2.89084 0
M  V30 1838 O 180.959 -2.56238 2.47428 0
M  V30 1839 O 179.818 -4.10174 3.61137 0
M  V30 1840 H 176.912 -0.64362 0.519309 0
M  V30 1841 H 179.458 -0.719576 1.53689 0
M  V30 1842 H 178.23 -1.95409 3.39015 0
M  V30 1843 H 177.853 -3.25913 2.27742 0
M  V30 1844 N 178.85 -1.27639 -0.924453 0
M  V30 1845 C 180.08 -1.16819 -1.70402 0
M  V30 1846 C 180.488 0.277191 -1.87158 0
M  V30 1847 O 179.831 1.20025 -1.39067 0
M  V30 1848 C 179.893 -1.78305 -3.12166 0
M  V30 1849 C 179.557 -3.27502 -3.18734 0
M  V30 1850 C 180.554 -4.2409 -3.00738 0
M  V30 1851 C 178.239 -3.68269 -3.4159 0
M  V30 1852 C 180.233 -5.59422 -3.05492 0
M  V30 1853 C 177.92 -5.0373 -3.45977 0
M  V30 1854 C 178.918 -5.99116 -3.27946 0
M  V30 1855 O 178.606 -7.32108 -3.32074 0
M  V30 1856 H 178.338 -0.406931 -0.539799 0
M  V30 1857 H 180.892 -1.69078 -1.16626 0
M  V30 1858 H 179.122 -1.20528 -3.67437 0
M  V30 1859 H 180.811 -1.62154 -3.72103 0
M  V30 1860 H 181.577 -3.93931 -2.82919 0
M  V30 1861 H 177.456 -2.94496 -3.54673 0
M  V30 1862 H 181 -6.33852 -2.91337 0
M  V30 1863 H 176.897 -5.33543 -3.63321 0
M  V30 1864 H 177.665 -7.40598 -3.48507 0
M  V30 1865 N 180.328 1.1314 -1.09713 0
M  V30 1866 C 181.258 2.20748 -0.761102 0
M  V30 1867 C 182.239 1.68061 0.262566 0
M  V30 1868 O 183.424 1.93765 0.129977 0
M  V30 1869 C 180.554 3.46812 -0.184054 0
M  V30 1870 C 179.508 4.12606 -1.13757 0
M  V30 1871 C 178.834 5.33031 -0.422083 0
M  V30 1872 C 180.134 4.59603 -2.48118 0
M  V30 1873 H 181.828 2.49113 -1.66082 0
M  V30 1874 H 179.374 1.19734 -0.799987 0
M  V30 1875 H 181.327 4.21353 0.0631215 0
M  V30 1876 H 180.051 3.17851 0.750868 0
M  V30 1877 H 178.71 3.40036 -1.37007 0
M  V30 1878 H 178.358 5.00335 0.517072 0
M  V30 1879 H 178.058 5.77999 -1.05788 0
M  V30 1880 H 179.582 6.10325 -0.183277 0
M  V30 1881 H 180.996 5.25552 -2.29059 0
M  V30 1882 H 179.393 5.15321 -3.07514 0
M  V30 1883 H 180.463 3.73971 -3.08665 0
M  V30 1884 N 181.806 0.884767 1.30421 0
M  V30 1885 C 182.716 0.355398 2.31892 0
M  V30 1886 C 183.732 -0.542261 1.65335 0
M  V30 1887 O 184.908 -0.435432 1.96637 0
M  V30 1888 C 181.973 -0.421661 3.44126 0
M  V30 1889 C 181.034 0.505727 4.26311 0
M  V30 1890 C 180.267 -0.234343 5.33185 0
M  V30 1891 O 180.49 -1.46045 5.51386 0
M  V30 1892 O 179.424 0.415443 6.00465 0
M  V30 1893 H 183.25 1.19685 2.79122 0
M  V30 1894 H 180.835 0.648596 1.34587 0
M  V30 1895 H 182.717 -0.861641 4.12497 0
M  V30 1896 H 181.392 -1.23942 2.99032 0
M  V30 1897 H 180.299 0.994513 3.60639 0
M  V30 1898 H 181.632 1.28948 4.75009 0
M  V30 1899 N 183.284 -1.43765 0.645699 0
M  V30 1900 C 184.532 -2.01499 0.155731 0
M  V30 1901 C 184.853 -1.51151 -1.232 0
M  V30 1902 O 184.123 -0.721044 -1.82148 0
M  V30 1903 H 182.703 -0.745003 0.0545817 0
M  V30 1904 H 185.365 -1.76075 0.835677 0
M  V30 1905 H 184.461 -3.1181 0.134577 0
M  V30 1906 N 184.763 -0.387143 -1.52771 0
M  V30 1907 C 186.009 0.196025 -2.0185 0
M  V30 1908 C 186.342 1.46641 -1.27319 0
M  V30 1909 O 185.617 1.90889 -0.373032 0
M  V30 1910 C 185.9 0.466136 -3.5707 0
M  V30 1911 C 185.753 -0.819385 -4.42274 0
M  V30 1912 C 187.072 1.25768 -4.21747 0
M  V30 1913 H 184.191 0.0697708 -0.73369 0
M  V30 1914 H 186.833 -0.516286 -1.82851 0
M  V30 1915 H 184.983 1.07293 -3.7339 0
M  V30 1916 H 186.655 -1.4563 -4.37709 0
M  V30 1917 H 184.898 -1.43517 -4.09372 0
M  V30 1918 H 185.569 -0.585065 -5.48891 0
M  V30 1919 H 188.045 0.744167 -4.09391 0
M  V30 1920 H 186.921 1.41541 -5.30337 0
M  V30 1921 H 187.182 2.27228 -3.79236 0
M  V30 1922 N 186.241 1.57166 -0.116904 0
M  V30 1923 C 187.657 1.5779 0.239693 0
M  V30 1924 C 187.857 1.1295 1.66867 0
M  V30 1925 O 186.913 0.81592 2.38954 0
M  V30 1926 C 188.226 3.00699 0.00828202 0
M  V30 1927 C 189.774 3.12912 0.0743438 0
M  V30 1928 C 190.249 4.57817 -0.129348 0
M  V30 1929 N 191.74 4.63139 -0.075247 0
M  V30 1930 C 192.475 5.73023 -0.207788 0
M  V30 1931 N 191.971 6.91665 -0.396382 0
M  V30 1932 N 193.764 5.61906 -0.14751 0
M  V30 1933 H 185.915 1.84615 -1.05029 0
M  V30 1934 H 188.178 0.85311 -0.41341 0
M  V30 1935 H 187.884 3.37784 -0.979531 0
M  V30 1936 H 187.758 3.69848 0.741077 0
M  V30 1937 H 190.145 2.75686 1.05268 0
M  V30 1938 H 190.226 2.4631 -0.690297 0
M  V30 1939 H 189.87 4.95742 -1.10465 0
M  V30 1940 H 189.8 5.22507 0.655253 0
M  V30 1941 H 192.291 3.7784 0.0670898 0
M  V30 1942 H 192.604 7.71255 -0.488437 0
M  V30 1943 H 190.949 6.93654 -0.432329 0
M  V30 1944 H 194.14 4.681 -0.00115036 0
M  V30 1945 H 194.313 6.47501 -0.254247 0
M  V30 1946 N 187.719 -0.156864 1.56817 0
M  V30 1947 C 188.966 -0.871125 1.82805 0
M  V30 1948 C 189.294 -1.81611 0.696262 0
M  V30 1949 O 188.549 -1.93141 -0.315459 0
M  V30 1950 C 188.848 -1.68737 3.1506 0
M  V30 1951 C 188.514 -0.890045 4.42028 0
M  V30 1952 C 187.176 -0.670042 4.76512 0
M  V30 1953 C 189.528 -0.331769 5.20143 0
M  V30 1954 C 186.856 0.119104 5.86579 0
M  V30 1955 C 189.208 0.444365 6.31037 0
M  V30 1956 C 187.872 0.675035 6.64078 0
M  V30 1957 H 187.142 -0.318767 0.668931 0
M  V30 1958 H 189.789 -0.135274 1.91022 0
M  V30 1959 H 188.094 -2.49304 3.0225 0
M  V30 1960 H 189.791 -2.24331 3.3238 0
M  V30 1961 H 186.381 -1.07157 4.14988 0
M  V30 1962 H 190.565 -0.489043 4.93885 0
M  V30 1963 H 185.821 0.307417 6.10627 0
M  V30 1964 H 189.995 0.884139 6.90765 0
M  V30 1965 H 187.622 1.28839 7.49203 0
M  V30 1966 N 189.197 -1.51736 -0.425897 0
M  V30 1967 C 190.127 -1.76827 -1.52494 0
M  V30 1968 C 191.108 -0.618524 -1.58456 0
M  V30 1969 O 192.293 -0.862416 -1.74 0
M  V30 1970 C 189.423 -1.90374 -2.90474 0
M  V30 1971 C 188.377 -3.0588 -2.99369 0
M  V30 1972 C 187.703 -3.04625 -4.3944 0
M  V30 1973 C 189.003 -4.45644 -2.72394 0
M  V30 1974 H 190.697 -2.68855 -1.31748 0
M  V30 1975 H 188.243 -1.29372 -0.632362 0
M  V30 1976 H 190.196 -2.0651 -3.6733 0
M  V30 1977 H 188.92 -0.95004 -3.12477 0
M  V30 1978 H 187.579 -2.89467 -2.24954 0
M  V30 1979 H 187.227 -2.0701 -4.58428 0
M  V30 1980 H 186.927 -3.82195 -4.46319 0
M  V30 1981 H 188.451 -3.22869 -5.18255 0
M  V30 1982 H 189.865 -4.62348 -3.38979 0
M  V30 1983 H 188.262 -5.25006 -2.9067 0
M  V30 1984 H 189.332 -4.54893 -1.67929 0
M  V30 1985 N 190.675 0.682077 -1.42076 0
M  V30 1986 C 191.625 1.78823 -1.41444 0
M  V30 1987 C 192.609 1.58323 -0.28681 0
M  V30 1988 O 193.801 1.68926 -0.528498 0
M  V30 1989 C 190.93 3.17232 -1.3122 0
M  V30 1990 C 190.016 3.4338 -2.489 0
M  V30 1991 N 190.407 3.40152 -3.7434 0
M  V30 1992 C 188.705 3.73986 -2.43003 0
M  V30 1993 C 189.406 3.65581 -4.52466 0
M  V30 1994 N 188.382 3.85989 -3.8277 0
M  V30 1995 H 192.184 1.7471 -2.36334 0
M  V30 1996 H 189.698 0.882622 -1.36321 0
M  V30 1997 H 191.695 3.96489 -1.2885 0
M  V30 1998 H 190.355 3.22547 -0.373263 0
M  V30 1999 H 191.366 3.20221 -4.07037 0
M  V30 2000 H 188.043 3.86591 -1.57651 0
M  V30 2001 H 189.433 3.69108 -5.61435 0
M  V30 2002 N 192.153 1.28127 0.917671 0
M  V30 2003 C 193.083 1.14248 2.03641 0
M  V30 2004 C 194.064 0.0412748 1.7005 0
M  V30 2005 O 195.249 0.217566 1.92977 0
M  V30 2006 C 192.379 0.799431 3.37974 0
M  V30 2007 C 191.333 1.85497 3.85713 0
M  V30 2008 C 190.659 1.36565 5.16966 0
M  V30 2009 C 191.959 3.26085 4.08002 0
M  V30 2010 H 193.653 2.07835 2.15511 0
M  V30 2011 H 191.199 1.00064 1.03553 0
M  V30 2012 H 193.152 0.689114 4.15727 0
M  V30 2013 H 191.876 -0.172145 3.26146 0
M  V30 2014 H 190.535 1.95437 3.10161 0
M  V30 2015 H 190.183 0.383253 5.01538 0
M  V30 2016 H 189.883 2.07143 5.49878 0
M  V30 2017 H 191.407 1.26848 5.97279 0
M  V30 2018 H 192.821 3.19089 4.76293 0
M  V30 2019 H 191.218 3.94462 4.52238 0
M  V30 2020 H 192.288 3.70394 3.12948 0
M  V30 2021 N 193.631 -1.12557 1.10312 0
M  V30 2022 C 194.856 -1.88405 0.867085 0
M  V30 2023 C 195.281 -1.79038 -0.576817 0
M  V30 2024 O 194.639 -1.14439 -1.40618 0
M  V30 2025 C 194.687 -3.3563 1.31851 0
M  V30 2026 O 193.791 -4.09565 0.482734 0
M  V30 2027 H 193.132 -0.585455 0.313271 0
M  V30 2028 H 195.662 -1.42352 1.4696 0
M  V30 2029 H 195.672 -3.86469 1.3079 0
M  V30 2030 H 194.347 -3.41765 2.37001 0
M  V30 2031 H 192.924 -3.68695 0.558448 0
M  V30 2032 N 195.109 -0.891671 -1.2995 0
M  V30 2033 C 196.357 -0.512486 -1.95494 0
M  V30 2034 C 196.678 0.942776 -1.70695 0
M  V30 2035 O 195.948 1.66374 -1.03424 0
M  V30 2036 H 194.528 -0.186533 -0.723336 0
M  V30 2037 H 197.19 -1.13621 -1.58355 0
M  V30 2038 H 196.286 -0.688342 -3.04415 0
M  V30 2039 N 196.587 1.43421 -0.653314 0
M  V30 2040 C 197.836 2.01032 -0.164076 0
M  V30 2041 C 198.149 1.52147 1.22926 0
M  V30 2042 O 199.355 2.02031 1.81371 0
M  V30 2043 C 197.811 3.59082 -0.24252 0
M  V30 2044 C 197.419 4.1696 -1.63855 0
M  V30 2045 C 199.163 4.24079 0.18911 0
M  V30 2046 C 197.07 5.67304 -1.67092 0
M  V30 2047 H 196 0.751798 -0.0575769 0
M  V30 2048 H 198.651 1.6439 -0.815362 0
M  V30 2049 H 197.033 3.93125 0.476276 0
M  V30 2050 H 198.207 3.94416 -2.38271 0
M  V30 2051 H 196.522 3.64335 -2.01616 0
M  V30 2052 H 199.119 5.34381 0.184775 0
M  V30 2053 H 199.462 3.98005 1.22056 0
M  V30 2054 H 199.995 3.94918 -0.477938 0
M  V30 2055 H 196.734 5.98145 -2.68146 0
M  V30 2056 H 196.254 5.91904 -0.970014 0
M  V30 2057 H 197.933 6.31344 -1.4147 0
M  V30 2058 N 198.065 0.39524 1.52563 0
M  V30 2059 C 199.293 -0.184943 2.06072 0
M  V30 2060 C 199.708 -1.40021 1.26647 0
M  V30 2061 O 199.065 -1.79767 0.314672 0
M  V30 2062 C 199.116 -0.549179 3.57304 0
M  V30 2063 O 198.837 0.617813 4.33722 0
M  V30 2064 C 200.338 -1.18459 4.2718 0
M  V30 2065 H 197.558 -0.0265025 0.670476 0
M  V30 2066 H 200.102 0.562184 1.96621 0
M  V30 2067 H 198.257 -1.2462 3.66809 0
M  V30 2068 H 198.671 0.317091 5.23541 0
M  V30 2069 H 200.145 -1.38976 5.34219 0
M  V30 2070 H 200.622 -2.15368 3.82771 0
M  V30 2071 H 201.228 -0.528163 4.22008 0
M  V30 2072 N 199.544 -1.57102 0.125237 0
M  V30 2073 C 200.955 -1.82384 -0.399142 0
M  V30 2074 C 201.306 -1.04276 -1.66195 0
M  V30 2075 O 200.431 -0.281269 -2.14564 0
M  V30 2076 C 201.026 -3.30821 -0.730932 0
M  V30 2077 C 199.585 -3.56762 -1.19992 0
M  V30 2078 C 198.732 -2.7649 -0.211792 0
M  V30 2079 H 201.683 -1.54786 0.350277 0
M  V30 2080 H 201.704 -3.4579 -1.58775 0
M  V30 2081 H 201.216 -3.87643 0.188345 0
M  V30 2082 H 199.317 -3.05305 -2.13588 0
M  V30 2083 H 199.43 -4.65317 -1.14093 0
M  V30 2084 H 197.794 -2.4489 -0.700085 0
M  V30 2085 H 198.577 -3.36073 0.700691 0
M  V30 2086 N 201.022 0.148545 -1.56898 0
M  V30 2087 C 201.985 1.16736 -1.97244 0
M  V30 2088 C 202.985 1.35947 -0.858777 0
M  V30 2089 O 204.175 1.32966 -1.12542 0
M  V30 2090 C 201.307 2.52798 -2.28705 0
M  V30 2091 H 202.5 0.821279 -2.88435 0
M  V30 2092 H 200.053 0.391831 -1.51309 0
M  V30 2093 H 200.788 2.92381 -1.403 0
M  V30 2094 H 200.573 2.40216 -3.09901 0
M  V30 2095 H 202.063 3.26179 -2.60762 0
M  V30 2096 N 202.5 1.5196 0.417844 0
M  V30 2097 C 203.43 1.77634 1.51554 0
M  V30 2098 C 204.411 0.626918 1.58126 0
M  V30 2099 O 205.596 0.871632 1.7354 0
M  V30 2100 C 202.726 1.91911 2.8946 0
M  V30 2101 C 201.68 3.07463 2.97743 0
M  V30 2102 C 201.006 3.06951 4.37819 0
M  V30 2103 C 202.306 4.47082 2.70027 0
M  V30 2104 H 204 2.6955 1.3032 0
M  V30 2105 H 201.546 1.29706 0.625492 0
M  V30 2106 H 203.499 2.08455 3.6623 0
M  V30 2107 H 202.223 0.966598 3.11969 0
M  V30 2108 H 200.882 2.90656 2.23416 0
M  V30 2109 H 200.53 2.09438 4.57323 0
M  V30 2110 H 200.23 3.84556 4.44286 0
M  V30 2111 H 201.754 3.25613 5.16535 0
M  V30 2112 H 203.168 4.6414 3.36522 0
M  V30 2113 H 201.565 5.2654 2.87881 0
M  V30 2114 H 202.635 4.55777 1.65514 0
M  V30 2115 N 203.978 -0.674533 1.42435 0
M  V30 2116 C 205.203 -1.46784 1.46524 0
M  V30 2117 C 205.628 -1.87938 0.078066 0
M  V30 2118 O 204.986 -1.56014 -0.92354 0
M  V30 2119 C 205.034 -2.69307 2.39805 0
M  V30 2120 O 204.138 -3.67587 1.86959 0
M  V30 2121 H 203.479 -0.440959 0.496439 0
M  V30 2122 H 206.009 -0.827326 1.87127 0
M  V30 2123 H 206.019 -3.17374 2.56393 0
M  V30 2124 H 204.694 -2.38692 3.40586 0
M  V30 2125 H 203.271 -3.2662 1.79927 0
M  V30 2126 N 205.456 -1.28612 -0.910864 0
M  V30 2127 C 206.867 -1.14406 -1.47541 0
M  V30 2128 C 207.218 0.264901 -1.94403 0
M  V30 2129 O 206.343 1.15942 -1.82719 0
M  V30 2130 C 206.938 -2.07073 -2.68153 0
M  V30 2131 C 205.497 -1.96923 -3.20778 0
M  V30 2132 C 204.644 -1.98646 -1.93481 0
M  V30 2133 H 207.595 -1.41259 -0.723291 0
M  V30 2134 H 207.616 -1.63642 -3.43514 0
M  V30 2135 H 207.128 -3.09611 -2.34015 0
M  V30 2136 H 205.229 -0.97433 -3.59635 0
M  V30 2137 H 205.342 -2.84026 -3.85832 0
M  V30 2138 H 203.706 -1.43093 -2.10705 0
M  V30 2139 H 204.489 -3.02868 -1.61634 0
M  V30 2140 N 206.934 1.1197 -1.10907 0
M  V30 2141 C 207.844 2.21433 -0.774896 0
M  V30 2142 C 208.86 1.72478 0.229657 0
M  V30 2143 O 210.036 2.01288 0.0672008 0
M  V30 2144 C 207.101 3.4602 -0.216986 0
M  V30 2145 C 206.162 4.09791 -1.27944 0
M  V30 2146 C 205.395 5.28431 -0.748055 0
M  V30 2147 O 205.618 5.68823 0.423833 0
M  V30 2148 O 204.552 5.82644 -1.51027 0
M  V30 2149 H 208.378 2.5242 -1.68873 0
M  V30 2150 H 205.963 1.20399 -0.884555 0
M  V30 2151 H 207.845 4.21304 0.090059 0
M  V30 2152 H 206.52 3.16698 0.669633 0
M  V30 2153 H 205.427 3.36265 -1.63941 0
M  V30 2154 H 206.76 4.4328 -2.13925 0
M  V30 2155 N 208.412 0.89855 1.29475 0
M  V30 2156 C 209.375 0.380272 2.26023 0
M  V30 2157 C 210.375 -0.484891 1.53315 0
M  V30 2158 O 211.565 -0.290108 1.71767 0
M  V30 2159 C 208.697 -0.45651 3.3783 0
M  V30 2160 H 209.89 1.23295 2.73383 0
M  V30 2161 H 207.443 0.676589 1.40897 0
M  V30 2162 H 208.178 -1.32922 2.95808 0
M  V30 2163 H 207.963 0.163393 3.91759 0
M  V30 2164 H 209.453 -0.810466 4.0966 0
M  V30 2165 N 209.89 -1.43072 0.660911 0
M  V30 2166 C 211.306 -1.56169 0.329173 0
M  V30 2167 C 211.506 -1.64317 -1.16629 0
M  V30 2168 O 210.562 -1.60245 -1.95135 0
M  V30 2169 C 211.875 -2.81873 1.04729 0
M  V30 2170 C 213.423 -2.95627 1.02828 0
M  V30 2171 C 213.898 -4.24174 1.72744 0
M  V30 2172 N 215.389 -4.31055 1.69545 0
M  V30 2173 C 216.124 -5.29304 2.20511 0
M  V30 2174 N 215.62 -6.33786 2.79799 0
M  V30 2175 N 217.413 -5.21008 2.10966 0
M  V30 2176 H 209.564 -1.36027 1.63127 0
M  V30 2177 H 211.827 -0.653823 0.686454 0
M  V30 2178 H 211.533 -2.81942 2.10242 0
M  V30 2179 H 211.407 -3.72338 0.603702 0
M  V30 2180 H 213.794 -2.95094 -0.0184742 0
M  V30 2181 H 213.875 -2.06431 1.51063 0
M  V30 2182 H 213.519 -4.25467 2.7738 0
M  V30 2183 H 213.449 -5.1228 1.2197 0
M  V30 2184 H 215.94 -3.56174 1.26288 0
M  V30 2185 H 216.253 -7.05086 3.16344 0
M  V30 2186 H 214.598 -6.34387 2.83863 0
M  V30 2187 H 217.789 -4.38301 1.64347 0
M  V30 2188 H 217.962 -5.97416 2.50993 0
M  V30 2189 N 211.368 -0.403325 -1.52352 0
M  V30 2190 C 212.331 0.413051 -2.25447 0
M  V30 2191 C 213.331 0.978513 -1.276 0
M  V30 2192 O 214.521 0.858305 -1.51587 0
M  V30 2193 C 211.653 1.58087 -3.02029 0
M  V30 2194 H 212.846 -0.227094 -2.99039 0
M  V30 2195 H 210.399 -0.155722 -1.55522 0
M  V30 2196 H 211.134 2.25804 -2.32772 0
M  V30 2197 H 210.919 1.18195 -3.73861 0
M  V30 2198 H 212.409 2.1585 -3.57489 0
M  V30 2199 N 212.846 1.57033 -0.133567 0
M  V30 2200 C 214.093 1.95686 0.520877 0
M  V30 2201 C 214.421 1.0177 1.6575 0
M  V30 2202 O 213.676 0.0443195 1.9565 0
M  V30 2203 C 213.975 3.40674 1.08057 0
M  V30 2204 C 213.641 4.50855 0.0637899 0
M  V30 2205 C 212.303 4.80716 -0.215757 0
M  V30 2206 C 214.655 5.17398 -0.62835 0
M  V30 2207 C 211.983 5.74433 -1.19348 0
M  V30 2208 C 214.335 6.12167 -1.5948 0
M  V30 2209 C 212.999 6.40414 -1.88218 0
M  V30 2210 H 212.269 0.716067 0.190602 0
M  V30 2211 H 214.916 1.9026 -0.217556 0
M  V30 2212 H 213.221 3.42865 1.89606 0
M  V30 2213 H 214.918 3.67902 1.59529 0
M  V30 2214 H 211.508 4.27605 0.291855 0
M  V30 2215 H 215.692 4.94472 -0.425562 0
M  V30 2216 H 210.948 5.94616 -1.42272 0
M  V30 2217 H 215.122 6.6281 -2.13671 0
M  V30 2218 H 212.749 7.12838 -2.64133 0
M  V30 2219 N 214.325 -0.140222 1.56975 0
M  V30 2220 C 215.55 -0.870414 1.88251 0
M  V30 2221 C 215.975 -1.73637 0.723312 0
M  V30 2222 O 215.333 -1.78329 -0.32689 0
M  V30 2223 C 215.381 -1.69737 3.18154 0
M  V30 2224 O 214.485 -2.80229 3.02565 0
M  V30 2225 H 213.826 -0.242025 0.61832 0
M  V30 2226 H 216.356 -0.128999 2.04193 0
M  V30 2227 H 216.366 -2.09099 3.50345 0
M  V30 2228 H 215.041 -1.06152 4.02125 0
M  V30 2229 H 213.618 -2.44224 2.81796 0
M  V30 2230 N 215.803 -1.52179 -0.40978 0
M  V30 2231 C 216.733 -1.78435 -1.5061 0
M  V30 2232 C 217.714 -0.635295 -1.57791 0
M  V30 2233 O 218.899 -0.880823 -1.73076 0
M  V30 2234 C 216.029 -1.93444 -2.88439 0
M  V30 2235 C 214.983 -3.09038 -2.96108 0
M  V30 2236 C 214.309 -3.09268 -4.36185 0
M  V30 2237 C 215.609 -4.48508 -2.67652 0
M  V30 2238 H 217.303 -2.70237 -1.28889 0
M  V30 2239 H 214.849 -1.30036 -0.618605 0
M  V30 2240 H 216.802 -2.10394 -3.65119 0
M  V30 2241 H 215.526 -0.983129 -3.11452 0
M  V30 2242 H 214.185 -2.91837 -2.21872 0
M  V30 2243 H 213.833 -2.11861 -4.56206 0
M  V30 2244 H 213.533 -3.86907 -4.42241 0
M  V30 2245 H 215.057 -3.28348 -5.14801 0
M  V30 2246 H 216.471 -4.65918 -3.34056 0
M  V30 2247 H 214.868 -5.28059 -2.85085 0
M  V30 2248 H 215.938 -4.56649 -1.63095 0
M  V30 2249 N 217.281 0.66697 -1.42791 0
M  V30 2250 C 218.527 1.42754 -1.44889 0
M  V30 2251 C 218.882 1.92283 -0.0669755 0
M  V30 2252 O 218.175 1.68494 0.912154 0
M  V30 2253 C 218.369 2.6349 -2.4147 0
M  V30 2254 C 218.198 2.25776 -3.88915 0
M  V30 2255 C 216.968 2.1476 -4.57391 0
M  V30 2256 C 219.166 1.86927 -4.79127 0
M  V30 2257 N 217.148 1.70232 -5.89826 0
M  V30 2258 C 218.519 1.53378 -6.00729 0
M  V30 2259 C 220.574 1.73989 -4.66511 0
M  V30 2260 C 219.277 1.08187 -7.11117 0
M  V30 2261 C 221.303 1.30203 -5.76889 0
M  V30 2262 C 220.665 0.975818 -6.97608 0
M  V30 2263 H 216.764 0.518559 -0.585338 0
M  V30 2264 H 219.348 0.768906 -1.78874 0
M  V30 2265 H 217.519 3.27033 -2.09533 0
M  V30 2266 H 219.251 3.30123 -2.34096 0
M  V30 2267 H 216.006 2.3408 -4.11708 0
M  V30 2268 H 216.43 1.50369 -6.6009 0
M  V30 2269 H 221.072 1.97853 -3.7365 0
M  V30 2270 H 218.79 0.830701 -8.03819 0
M  V30 2271 H 222.376 1.20701 -5.69142 0
M  V30 2272 H 221.256 0.642157 -7.81566 0
M  V30 2273 N 218.759 1.29093 0.90403 0
M  V30 2274 C 219.722 1.1386 1.98919 0
M  V30 2275 C 220.722 0.0753457 1.60623 0
M  V30 2276 O 221.912 0.321931 1.71199 0
M  V30 2277 C 219.044 0.740198 3.32767 0
M  V30 2278 H 220.237 2.10246 2.13861 0
M  V30 2279 H 217.79 1.12218 1.08797 0
M  V30 2280 H 218.525 -0.223997 3.23525 0
M  V30 2281 H 218.31 1.50838 3.61926 0
M  V30 2282 H 219.8 0.656546 4.12407 0
M  V30 2283 N 220.237 -1.11381 1.11499 0
M  V30 2284 C 221.17 -2.16621 0.71769 0
M  V30 2285 C 222.148 -1.60058 -0.286413 0
M  V30 2286 O 223.332 -1.87613 -0.182689 0
M  V30 2287 C 220.459 -3.38646 0.0607265 0
M  V30 2288 C 219.505 -4.13874 1.03008 0
M  V30 2289 S 220.338 -4.70731 2.55289 0
M  V30 2290 C 221.494 -5.96079 1.90895 0
M  V30 2291 H 221.727 -2.49987 1.60915 0
M  V30 2292 H 219.26 -1.23015 0.933092 0
M  V30 2293 H 221.218 -4.09313 -0.311965 0
M  V30 2294 H 219.879 -3.03537 -0.807702 0
M  V30 2295 H 219.072 -5.01333 0.517853 0
M  V30 2296 H 218.674 -3.4897 1.34522 0
M  V30 2297 H 220.966 -6.65948 1.24577 0
M  V30 2298 H 221.909 -6.51946 2.76354 0
M  V30 2299 H 222.317 -5.47652 1.36885 0
M  V30 2300 N 221.715 -0.905404 -1.28997 0
M  V30 2301 C 222.625 -0.392246 -2.31298 0
M  V30 2302 C 223.641 0.515889 -1.66176 0
M  V30 2303 O 224.817 0.404093 -1.97304 0
M  V30 2304 C 221.882 0.36686 -3.44754 0
M  V30 2305 C 220.943 -0.573485 -4.25452 0
M  V30 2306 C 220.176 0.149488 -5.33491 0
M  V30 2307 O 220.399 1.37255 -5.5364 0
M  V30 2308 O 219.333 -0.510919 -5.99728 0
M  V30 2309 H 223.159 -1.2411 -2.77183 0
M  V30 2310 H 220.744 -0.669926 -1.33538 0
M  V30 2311 H 222.626 0.795907 -4.13816 0
M  V30 2312 H 221.301 1.19169 -3.00966 0
M  V30 2313 H 220.208 -1.05176 -3.59011 0
M  V30 2314 H 221.541 -1.36489 -4.72897 0
M  V30 2315 N 223.193 1.4272 -0.668489 0
M  V30 2316 C 224.103 2.34596 0.0139753 0
M  V30 2317 C 225.119 1.5474 0.795703 0
M  V30 2318 O 226.295 1.87334 0.739466 0
M  V30 2319 C 223.36 3.33202 0.957982 0
M  V30 2320 C 222.421 4.28957 0.17149 0
M  V30 2321 C 221.654 5.22853 1.07053 0
M  V30 2322 O 221.877 5.21531 2.31001 0
M  V30 2323 O 220.811 5.9952 0.534727 0
M  V30 2324 H 224.637 2.9448 -0.742661 0
M  V30 2325 H 222.222 1.43117 -0.428705 0
M  V30 2326 H 224.104 3.93796 1.50008 0
M  V30 2327 H 222.779 2.758 1.69458 0
M  V30 2328 H 221.686 3.71796 -0.414558 0
M  V30 2329 H 223.019 4.89383 -0.52586 0
M  V30 2330 N 224.671 0.411399 1.52136 0
M  V30 2331 C 225.634 -0.401089 2.25663 0
M  V30 2332 C 226.634 -0.971732 1.28117 0
M  V30 2333 O 227.824 -0.850254 1.52041 0
M  V30 2334 C 224.956 -1.56483 3.02863 0
M  V30 2335 H 226.149 0.24295 2.98914 0
M  V30 2336 H 223.702 0.163968 1.55438 0
M  V30 2337 H 224.437 -2.24567 2.33967 0
M  V30 2338 H 224.222 -1.16211 3.74483 0
M  V30 2339 H 225.712 -2.13951 3.58629 0
M  V30 2340 N 226.149 -1.5696 0.141893 0
M  V30 2341 C 227.096 -2.16501 -0.799737 0
M  V30 2342 C 228.066 -1.09643 -1.24771 0
M  V30 2343 O 229.251 -1.3766 -1.32115 0
M  V30 2344 C 226.391 -2.78679 -2.03549 0
M  V30 2345 C 225.504 -3.99914 -1.6338 0
M  V30 2346 C 224.639 -4.50106 -2.82096 0
M  V30 2347 C 223.678 -5.63819 -2.38275 0
M  V30 2348 N 222.815 -6.08651 -3.49983 0
M  V30 2349 H 227.655 -2.96632 -0.285179 0
M  V30 2350 H 225.192 -1.46533 -0.129053 0
M  V30 2351 H 227.15 -3.1287 -2.75986 0
M  V30 2352 H 225.78 -2.012 -2.52425 0
M  V30 2353 H 224.832 -3.71735 -0.807279 0
M  V30 2354 H 226.144 -4.82311 -1.27192 0
M  V30 2355 H 225.298 -4.86325 -3.62729 0
M  V30 2356 H 224.037 -3.66706 -3.21525 0
M  V30 2357 H 223.042 -5.2718 -1.56081 0
M  V30 2358 H 224.267 -6.49 -1.99938 0
M  V30 2359 H 222.213 -5.28188 -3.89042 0
M  V30 2360 H 222.13 -6.85961 -3.17794 0
M  V30 2361 H 223.398 -6.49515 -4.30988 0
M  V30 2362 N 227.627 0.131896 -1.57047 0
M  V30 2363 C 229.043 0.485031 -1.52051 0
M  V30 2364 C 229.243 1.82563 -0.85281 0
M  V30 2365 O 228.299 2.48817 -0.429694 0
M  V30 2366 C 229.612 0.481409 -2.96821 0
M  V30 2367 C 231.16 0.565868 -3.07842 0
M  V30 2368 C 231.635 0.592762 -4.54148 0
M  V30 2369 N 233.126 0.654564 -4.58552 0
M  V30 2370 C 233.861 0.696608 -5.69153 0
M  V30 2371 N 233.357 0.697078 -6.89284 0
M  V30 2372 N 235.15 0.738639 -5.57226 0
M  V30 2373 H 227.301 -0.746664 -1.98843 0
M  V30 2374 H 229.564 -0.273999 -0.90754 0
M  V30 2375 H 229.27 -0.435731 -3.4899 0
M  V30 2376 H 229.144 1.3139 -3.53577 0
M  V30 2377 H 231.531 1.47343 -2.55684 0
M  V30 2378 H 231.612 -0.29406 -2.54104 0
M  V30 2379 H 231.256 -0.310701 -5.06949 0
M  V30 2380 H 231.186 1.46939 -5.05684 0
M  V30 2381 H 233.677 0.660887 -3.72076 0
M  V30 2382 H 233.99 0.731426 -7.69331 0
M  V30 2383 H 232.335 0.66471 -6.91814 0
M  V30 2384 H 235.526 0.735545 -4.62285 0
M  V30 2385 H 235.699 0.767938 -6.43434 0
M  V30 2386 N 229.106 1.52395 0.401703 0
M  V30 2387 C 230.522 1.41363 0.740864 0
M  V30 2388 C 230.722 0.523982 1.94568 0
M  V30 2389 O 229.778 -0.00741204 2.52499 0
M  V30 2390 C 231.091 2.84011 0.987847 0
M  V30 2391 C 232.639 2.93404 1.09011 0
M  V30 2392 C 233.114 4.37036 1.3698 0
M  V30 2393 N 234.605 4.40304 1.43829 0
M  V30 2394 C 235.34 5.48508 1.67112 0
M  V30 2395 N 234.836 6.66819 1.87949 0
M  V30 2396 N 236.629 5.36034 1.69187 0
M  V30 2397 H 228.78 2.08765 -0.391262 0
M  V30 2398 H 231.043 0.941265 -0.112798 0
M  V30 2399 H 230.749 3.51265 0.174835 0
M  V30 2400 H 230.623 3.25502 1.906 0
M  V30 2401 H 233.01 2.26325 1.8937 0
M  V30 2402 H 233.091 2.55359 0.15015 0
M  V30 2403 H 232.735 5.04676 0.571353 0
M  V30 2404 H 232.665 4.72623 2.3224 0
M  V30 2405 H 235.156 3.55024 1.29486 0
M  V30 2406 H 235.469 7.45063 2.05185 0
M  V30 2407 H 233.814 6.6987 1.85199 0
M  V30 2408 H 237.005 4.42579 1.52451 0
M  V30 2409 H 237.178 6.20434 1.86993 0
M  V30 2410 N 230.584 -0.659388 1.43143 0
M  V30 2411 C 231.832 -1.41654 1.44147 0
M  V30 2412 C 232.153 -1.94893 0.0645739 0
M  V30 2413 O 231.423 -1.74044 -0.899198 0
M  V30 2414 H 230.003 -0.525708 0.530697 0
M  V30 2415 H 232.665 -0.778097 1.78694 0
M  V30 2416 H 231.761 -2.26195 2.1504 0
M  V30 2417 N 232.062 -1.29571 -0.897171 0
M  V30 2418 C 233.308 -1.17863 -1.65034 0
M  V30 2419 C 233.641 0.268729 -1.92332 0
M  V30 2420 O 232.916 1.19378 -1.53555 0
M  V30 2421 C 233.199 -1.995 -2.99786 0
M  V30 2422 C 233.052 -3.5239 -2.79538 0
M  V30 2423 C 234.371 -1.82335 -4.00552 0
M  V30 2424 H 231.49 -0.429528 -0.598895 0
M  V30 2425 H 234.132 -1.59072 -1.03905 0
M  V30 2426 H 232.282 -1.64485 -3.51962 0
M  V30 2427 H 233.954 -3.97401 -2.34244 0
M  V30 2428 H 232.197 -3.77187 -2.14273 0
M  V30 2429 H 232.868 -4.04787 -3.75302 0
M  V30 2430 H 235.344 -2.12924 -3.57495 0
M  V30 2431 H 234.22 -2.41801 -4.92771 0
M  V30 2432 H 234.481 -0.779209 -4.35179 0
M  V30 2433 N 233.54 1.10788 -1.12088 0
M  V30 2434 C 234.956 1.34691 -0.856186 0
M  V30 2435 C 235.156 1.94791 0.515615 0
M  V30 2436 O 234.212 2.18524 1.26505 0
M  V30 2437 C 235.525 2.27208 -1.9697 0
M  V30 2438 C 237.073 2.40755 -2.00016 0
M  V30 2439 C 237.548 3.36598 -3.1059 0
M  V30 2440 N 239.039 3.44164 -3.10008 0
M  V30 2441 C 239.774 4.18284 -3.92206 0
M  V30 2442 N 239.27 4.95322 -4.84384 0
M  V30 2443 N 241.063 4.13865 -3.80357 0
M  V30 2444 H 233.214 0.70144 -2.00483 0
M  V30 2445 H 235.477 0.371405 -0.872217 0
M  V30 2446 H 235.183 1.90251 -2.958 0
M  V30 2447 H 235.057 3.27485 -1.87172 0
M  V30 2448 H 237.444 2.76982 -1.01808 0
M  V30 2449 H 237.525 1.40305 -2.13888 0
M  V30 2450 H 237.169 3.01096 -4.09028 0
M  V30 2451 H 237.099 4.36918 -2.93956 0
M  V30 2452 H 239.59 2.8922 -2.43228 0
M  V30 2453 H 239.903 5.49267 -5.43623 0
M  V30 2454 H 238.248 4.94459 -4.884 0
M  V30 2455 H 241.439 3.52773 -3.07683 0
M  V30 2456 H 241.612 4.71372 -4.44649 0
M  V30 2457 N 235.018 0.912232 1.28515 0
M  V30 2458 C 236.264 0.545405 1.95328 0
M  V30 2459 C 236.597 -0.908313 1.71649 0
M  V30 2460 O 235.872 -1.64575 1.03659 0
M  V30 2461 C 236.155 0.853483 3.4984 0
M  V30 2462 C 236.008 2.35982 3.82926 0
M  V30 2463 C 237.327 0.348589 4.38717 0
M  V30 2464 H 234.446 0.199626 0.709449 0
M  V30 2465 H 237.088 1.1412 1.5191 0
M  V30 2466 H 235.238 0.34643 3.86952 0
M  V30 2467 H 236.91 2.93738 3.55691 0
M  V30 2468 H 235.153 2.81543 3.30024 0
M  V30 2469 H 235.824 2.52593 4.90816 0
M  V30 2470 H 238.3 0.78294 4.08668 0
M  V30 2471 H 237.176 0.593242 5.45685 0
M  V30 2472 H 237.437 -0.751049 4.35674 0
M  V30 2473 N 236.496 -1.42363 0.676048 0
M  V30 2474 C 237.721 -2.06377 0.205705 0
M  V30 2475 C 238.146 -1.50463 -1.12883 0
M  V30 2476 O 237.504 -0.623619 -1.70237 0
M  V30 2477 C 237.552 -3.60277 0.152655 0
M  V30 2478 O 236.656 -4.02935 -0.87845 0
M  V30 2479 H 235.997 -0.655588 0.105359 0
M  V30 2480 H 238.527 -1.82475 0.925412 0
M  V30 2481 H 238.537 -4.07993 -0.0230675 0
M  V30 2482 H 237.212 -4.00346 1.12675 0
M  V30 2483 H 235.789 -3.66764 -0.673668 0
M  V30 2484 N 237.974 -0.419461 -1.51915 0
M  V30 2485 C 238.904 0.391813 -2.30189 0
M  V30 2486 C 239.885 1.03699 -1.34836 0
M  V30 2487 O 241.07 1.04403 -1.63748 0
M  V30 2488 C 238.2 1.50312 -3.13087 0
M  V30 2489 C 237.154 0.9824 -4.16573 0
M  V30 2490 C 236.48 2.18809 -4.8788 0
M  V30 2491 C 237.78 0.0292356 -5.22292 0
M  V30 2492 H 239.474 -0.26135 -2.98257 0
M  V30 2493 H 237.02 -0.127134 -1.43438 0
M  V30 2494 H 238.973 2.07773 -3.66617 0
M  V30 2495 H 237.697 2.18431 -2.42807 0
M  V30 2496 H 236.356 0.430119 -3.64068 0
M  V30 2497 H 236.004 2.85507 -4.14119 0
M  V30 2498 H 235.704 1.84615 -5.57845 0
M  V30 2499 H 237.228 2.76858 -5.44226 0
M  V30 2500 H 238.642 0.512976 -5.71 0
M  V30 2501 H 237.039 -0.2244 -5.9968 0
M  V30 2502 H 238.109 -0.912931 -4.76228 0
M  V30 2503 N 239.452 1.56882 -0.150215 0
M  V30 2504 C 240.729 1.87844 0.545327 0
M  V30 2505 C 241.109 1.0567 1.82749 0
M  V30 2506 O 240.457 0.144442 2.28043 0
M  V30 2507 C 240.667 3.39526 0.80767 0
M  V30 2508 C 242.015 4.08814 1.14703 0
M  V30 2509 O 243.039 3.44723 0.896917 0
M  V30 2510 O 241.898 5.22004 1.61784 0
M  V30 2511 H 238.992 0.778677 0.278553 0
M  V30 2512 H 241.538 1.68666 -0.187068 0
M  V30 2513 H 240.31 3.91173 -0.0996096 0
M  V30 2514 H 239.933 3.64243 1.59413 0
M  V30 2515 N 240.93 -0.123565 1.57115 0
M  V30 2516 C 242.176 -0.833386 1.84885 0
M  V30 2517 C 242.509 -1.79742 0.735292 0
M  V30 2518 O 241.784 -1.92764 -0.25925 0
M  V30 2519 C 242.067 -1.5873 3.23228 0
M  V30 2520 C 241.92 -0.643183 4.45178 0
M  V30 2521 C 243.239 -2.54453 3.59085 0
M  V30 2522 H 240.358 -0.301518 0.6725 0
M  V30 2523 H 243 -0.097778 1.89748 0
M  V30 2524 H 241.15 -2.21438 3.19214 0
M  V30 2525 H 242.822 -0.0253015 4.61293 0
M  V30 2526 H 241.065 0.0456139 4.33776 0
M  V30 2527 H 241.736 -1.20724 5.38637 0
M  V30 2528 H 244.212 -2.01853 3.63861 0
M  V30 2529 H 243.088 -3.04238 4.5687 0
M  V30 2530 H 243.349 -3.36906 2.86264 0
M  V30 2531 N 242.408 -1.52605 -0.393616 0
M  V30 2532 C 243.356 -1.77688 -1.50099 0
M  V30 2533 C 244.35 -0.644615 -1.56656 0
M  V30 2534 O 245.556 -0.826997 -1.59877 0
M  V30 2535 H 241.931 -0.562159 -0.499481 0
M  V30 2536 H 243.902 -2.7043 -1.26135 0
M  V30 2537 C 242.651 -1.95858 -2.87289 0
M  V30 2538 H 241.974 -2.8241 -2.82992 0
M  V30 2539 H 243.414 -2.174 -3.64024 0
M  V30 2540 C 241.873 -0.729848 -3.28899 0
M  V30 2541 O 242.403 0.0949217 -4.01588 0
M  V30 2542 N 240.609 -0.561283 -2.85128 0
M  V30 2543 H 240.156 -1.23357 -2.26143 0
M  V30 2544 H 240.114 0.2595 -3.13327 0
M  V30 2545 N 243.887 0.651787 -1.4349 0
M  V30 2546 C 245.117 1.43728 -1.48411 0
M  V30 2547 C 245.525 1.8893 -0.10103 0
M  V30 2548 O 244.868 1.60182 0.899307 0
M  V30 2549 C 244.93 2.70411 -2.36893 0
M  V30 2550 C 244.594 2.4714 -3.8441 0
M  V30 2551 C 245.591 2.10271 -4.75481 0
M  V30 2552 C 243.276 2.6142 -4.28912 0
M  V30 2553 C 245.27 1.87982 -6.0905 0
M  V30 2554 C 242.957 2.38746 -5.62533 0
M  V30 2555 C 243.955 2.02083 -6.5242 0
M  V30 2556 O 243.643 1.79647 -7.8357 0
M  V30 2557 H 243.375 0.447962 -0.506267 0
M  V30 2558 H 245.929 0.80624 -1.88915 0
M  V30 2559 H 244.159 3.36079 -1.91278 0
M  V30 2560 H 245.848 3.32364 -2.33 0
M  V30 2561 H 246.614 1.98814 -4.42378 0
M  V30 2562 H 242.493 2.88931 -3.59222 0
M  V30 2563 H 246.037 1.5929 -6.7917 0
M  V30 2564 H 241.934 2.49806 -5.95203 0
M  V30 2565 H 242.702 1.9406 -7.95162 0
M  V30 2566 N 245.365 1.30045 0.890287 0
M  V30 2567 C 246.781 1.08261 1.17268 0
M  V30 2568 C 246.981 -0.160063 2.00863 0
M  V30 2569 O 246.037 -0.855181 2.37577 0
M  V30 2570 C 247.35 2.34323 1.8845 0
M  V30 2571 C 248.898 2.39735 2.01237 0
M  V30 2572 C 249.373 3.65625 2.7583 0
M  V30 2573 N 250.864 3.66402 2.83379 0
M  V30 2574 C 251.599 4.60498 3.41657 0
M  V30 2575 N 251.095 5.64933 4.01026 0
M  V30 2576 N 252.888 4.48051 3.39421 0
M  V30 2577 H 245.039 2.09777 0.332762 0
M  V30 2578 H 247.302 0.92446 0.209948 0
M  V30 2579 H 247.008 3.2498 1.34465 0
M  V30 2580 H 246.882 2.4256 2.88867 0
M  V30 2581 H 249.269 1.4956 2.54393 0
M  V30 2582 H 249.35 2.35476 0.999232 0
M  V30 2583 H 248.994 4.56156 2.23347 0
M  V30 2584 H 248.924 3.67144 3.77509 0
M  V30 2585 H 251.415 2.90896 2.41222 0
M  V30 2586 H 251.728 6.32841 4.43545 0
M  V30 2587 H 250.073 5.68732 3.99461 0
M  V30 2588 H 253.264 3.65649 2.92264 0
M  V30 2589 H 253.437 5.21565 3.84544 0
M  V30 2590 N 246.843 -1.10192 1.12674 0
M  V30 2591 C 247.775 -2.16418 0.754701 0
M  V30 2592 C 248.788 -1.61309 -0.21986 0
M  V30 2593 O 249.977 -1.785 -0.000826841 0
M  V30 2594 C 247.077 -3.38762 0.096698 0
M  V30 2595 C 246.25 -4.23307 1.10136 0
M  V30 2596 C 245.309 -5.24092 0.470513 0
M  V30 2597 O 244.335 -5.57906 1.12824 0
M  V30 2598 N 245.537 -5.75491 -0.760948 0
M  V30 2599 H 248.302 -2.48943 1.66875 0
M  V30 2600 H 245.863 -1.25834 1.01869 0
M  V30 2601 H 247.855 -4.03291 -0.337384 0
M  V30 2602 H 246.425 -3.04192 -0.720153 0
M  V30 2603 H 245.645 -3.55036 1.71299 0
M  V30 2604 H 246.933 -4.76624 1.78064 0
M  V30 2605 H 246.331 -5.50222 -1.31424 0
M  V30 2606 H 244.888 -6.41792 -1.13781 0
M  V30 2607 N 248.321 -0.919034 -1.28029 0
M  V30 2608 C 249.549 -0.570971 -1.98866 0
M  V30 2609 C 249.964 0.848996 -1.68634 0
M  V30 2610 O 249.321 1.56307 -0.942036 0
M  V30 2611 C 249.372 -0.776876 -3.53054 0
M  V30 2612 O 249.093 -2.14097 -3.82222 0
M  V30 2613 C 250.594 -0.436356 -4.41147 0
M  V30 2614 H 247.814 -0.217175 -0.634883 0
M  V30 2615 H 250.358 -1.23368 -1.63097 0
M  V30 2616 H 248.513 -0.161085 -3.87065 0
M  V30 2617 H 248.927 -2.18455 -4.76841 0
M  V30 2618 H 250.401 -0.63117 -5.4838 0
M  V30 2619 H 250.878 0.627686 -4.34692 0
M  V30 2620 H 251.484 -1.02991 -4.12641 0
M  V30 2621 N 249.799 1.42003 -0.683588 0
M  V30 2622 C 250.729 2.33487 -0.024866 0
M  V30 2623 C 251.71 1.51163 0.779975 0
M  V30 2624 O 252.895 1.79739 0.735362 0
M  V30 2625 C 250.025 3.3487 0.920836 0
M  V30 2626 C 248.979 4.27414 0.223958 0
M  V30 2627 C 248.305 5.19074 1.2832 0
M  V30 2628 C 249.605 5.14445 -0.90242 0
M  V30 2629 H 251.299 2.88819 -0.788921 0
M  V30 2630 H 248.845 1.38873 -0.38083 0
M  V30 2631 H 250.798 3.97787 1.39081 0
M  V30 2632 H 249.522 2.77861 1.71642 0
M  V30 2633 H 248.181 3.65904 -0.225864 0
M  V30 2634 H 247.829 4.58387 2.071 0
M  V30 2635 H 247.529 5.81822 0.821995 0
M  V30 2636 H 249.053 5.84867 1.75392 0
M  V30 2637 H 250.467 5.70998 -0.513272 0
M  V30 2638 H 248.864 5.86072 -1.28997 0
M  V30 2639 H 249.934 4.52322 -1.74737 0
M  V30 2640 N 251.277 0.427512 1.51691 0
M  V30 2641 C 252.523 -0.134744 2.02953 0
M  V30 2642 C 252.878 -1.41235 1.30654 0
M  V30 2643 O 252.171 -1.87168 0.409713 0
M  V30 2644 C 252.365 -0.418249 3.54944 0
M  V30 2645 C 252.194 0.830327 4.41968 0
M  V30 2646 C 250.964 1.36097 4.86627 0
M  V30 2647 C 253.162 1.7137 4.84909 0
M  V30 2648 N 251.144 2.56311 5.57833 0
M  V30 2649 C 252.515 2.76195 5.55082 0
M  V30 2650 C 254.57 1.72928 4.66905 0
M  V30 2651 C 253.273 3.82512 6.09161 0
M  V30 2652 C 255.299 2.78175 5.21894 0
M  V30 2653 C 254.661 3.8172 5.92004 0
M  V30 2654 H 250.76 -0.0103958 0.781931 0
M  V30 2655 H 253.344 0.585981 1.85673 0
M  V30 2656 H 251.515 -1.10801 3.7226 0
M  V30 2657 H 253.247 -0.970999 3.92879 0
M  V30 2658 H 250.002 0.916311 4.64651 0
M  V30 2659 H 250.426 3.17242 5.98069 0
M  V30 2660 H 255.068 0.942081 4.12171 0
M  V30 2661 H 252.786 4.62077 6.62956 0
M  V30 2662 H 256.372 2.8031 5.09821 0
M  V30 2663 H 255.252 4.61821 6.33791 0
M  V30 2664 N 252.755 -1.56801 0.158532 0
M  V30 2665 C 254.166 -1.83189 -0.360366 0
M  V30 2666 C 254.517 -1.07778 -1.63946 0
M  V30 2667 O 253.642 -0.326718 -2.13919 0
M  V30 2668 C 254.237 -3.32297 -0.660595 0
M  V30 2669 C 252.796 -3.59227 -1.12398 0
M  V30 2670 C 251.943 -2.76877 -0.153097 0
M  V30 2671 H 254.894 -1.54008 0.383031 0
M  V30 2672 H 254.915 -3.4908 -1.51405 0
M  V30 2673 H 254.427 -3.87156 0.270527 0
M  V30 2674 H 252.528 -3.09766 -2.07064 0
M  V30 2675 H 252.641 -4.67632 -1.04197 0
M  V30 2676 H 251.005 -2.46319 -0.647983 0
M  V30 2677 H 251.788 -3.34511 0.77182 0
M  V30 2678 N 254.233 0.115231 -1.57178 0
M  V30 2679 C 255.644 0.67197 -1.74188 0
M  V30 2680 C 255.995 1.80125 -0.777777 0
M  V30 2681 O 255.12 2.16346 0.0484376 0
M  V30 2682 C 255.715 1.22573 -3.1585 0
M  V30 2683 C 254.274 1.72872 -3.34353 0
M  V30 2684 C 253.421 0.629972 -2.70049 0
M  V30 2685 H 256.372 -0.110712 -1.58313 0
M  V30 2686 H 256.393 2.09535 -3.17609 0
M  V30 2687 H 255.905 0.403598 -3.85996 0
M  V30 2688 H 254.006 2.5755 -2.69256 0
M  V30 2689 H 254.119 1.83557 -4.42542 0
M  V30 2690 H 252.483 1.0645 -2.31388 0
M  V30 2691 H 253.266 -0.181241 -3.42821 0
M  V30 2692 N 255.711 1.52812 0.385517 0
M  V30 2693 C 256.621 1.80766 1.49535 0
M  V30 2694 C 257.637 0.694651 1.59532 0
M  V30 2695 O 258.813 0.982611 1.75803 0
M  V30 2696 C 255.878 1.97381 2.85029 0
M  V30 2697 C 254.939 3.21295 2.84724 0
M  V30 2698 C 254.172 3.37108 4.13756 0
M  V30 2699 O 254.395 2.5765 5.08893 0
M  V30 2700 O 253.329 4.30378 4.20783 0
M  V30 2701 H 257.155 2.75015 1.28842 0
M  V30 2702 H 254.74 1.37946 0.573697 0
M  V30 2703 H 256.622 2.09996 3.65349 0
M  V30 2704 H 255.297 1.06322 3.05741 0
M  V30 2705 H 254.204 3.1412 2.03174 0
M  V30 2706 H 255.537 4.12212 2.68965 0
M  V30 2707 N 257.189 -0.644168 1.43834 0
M  V30 2708 C 258.099 -1.78563 1.52159 0
M  V30 2709 C 259.115 -1.69147 0.408069 0
M  V30 2710 O 260.291 -1.90156 0.663524 0
M  V30 2711 C 257.356 -3.14888 1.45073 0
M  V30 2712 C 256.417 -3.36034 2.6717 0
M  V30 2713 C 255.65 -4.65855 2.60413 0
M  V30 2714 O 255.873 -5.45805 1.65689 0
M  V30 2715 O 254.807 -4.88918 3.5106 0
M  V30 2716 H 258.633 -1.74494 2.48567 0
M  V30 2717 H 256.218 -0.80378 1.25935 0
M  V30 2718 H 258.1 -3.96179 1.43597 0
M  V30 2719 H 256.775 -3.19528 0.518037 0
M  V30 2720 H 255.682 -2.54472 2.74217 0
M  V30 2721 H 257.015 -3.36247 3.59442 0
M  V30 2722 N 258.668 -1.30515 -0.883378 0
M  V30 2723 C 259.631 -1.1701 -1.97082 0
M  V30 2724 C 260.631 -0.10089 -1.60483 0
M  V30 2725 O 261.821 -0.349127 -1.70666 0
M  V30 2726 C 258.953 -0.793045 -3.31547 0
M  V30 2727 H 260.146 -2.13622 -2.10489 0
M  V30 2728 H 257.699 -1.13935 -1.06998 0
M  V30 2729 H 258.434 0.172499 -3.23841 0
M  V30 2730 H 258.219 -1.56576 -3.5948 0
M  V30 2731 H 259.709 -0.722073 -4.1131 0
M  V30 2732 N 260.146 1.09593 -1.13257 0
M  V30 2733 C 261.562 1.33775 -0.870423 0
M  V30 2734 C 261.762 1.95327 0.494926 0
M  V30 2735 O 260.818 2.19853 1.2418 0
M  V30 2736 C 262.131 2.25106 -1.99369 0
M  V30 2737 C 263.679 2.3862 -2.02558 0
M  V30 2738 C 264.154 3.33285 -3.14142 0
M  V30 2739 N 265.645 3.40857 -3.13641 0
M  V30 2740 C 266.38 4.14101 -3.96621 0
M  V30 2741 N 265.876 4.90157 -4.8961 0
M  V30 2742 N 267.669 4.09808 -3.84726 0
M  V30 2743 H 259.82 0.680136 -2.01216 0
M  V30 2744 H 262.083 0.362133 -0.876107 0
M  V30 2745 H 261.789 1.87103 -2.97801 0
M  V30 2746 H 261.663 3.25481 -1.90635 0
M  V30 2747 H 264.05 2.75887 -1.0474 0
M  V30 2748 H 264.131 1.38028 -2.15364 0
M  V30 2749 H 263.775 2.96741 -4.12198 0
M  V30 2750 H 263.705 4.33776 -2.98574 0
M  V30 2751 H 266.196 2.86624 -2.46282 0
M  V30 2752 H 266.509 5.4347 -5.49418 0
M  V30 2753 H 264.854 4.89251 -4.93617 0
M  V30 2754 H 268.045 3.4949 -3.11408 0
M  V30 2755 H 268.218 4.66629 -4.49623 0
M  V30 2756 N 261.624 0.925811 1.2754 0
M  V30 2757 C 262.872 0.564138 1.94067 0
M  V30 2758 C 263.193 -0.897188 1.73134 0
M  V30 2759 O 262.463 -1.63573 1.07799 0
M  V30 2760 H 261.043 0.205645 0.718136 0
M  V30 2761 H 263.705 1.1778 1.55287 0
M  V30 2762 H 262.801 0.76881 3.02483 0
M  V30 2763 N 263.102 -1.41638 0.69111 0
M  V30 2764 C 264.349 -2.01299 0.220193 0
M  V30 2765 C 264.677 -1.54715 -1.17871 0
M  V30 2766 O 263.932 -0.747193 -1.80874 0
M  V30 2767 C 264.231 -3.56714 0.221277 0
M  V30 2768 C 263.897 -4.22792 1.56709 0
M  V30 2769 C 262.559 -4.40557 1.93554 0
M  V30 2770 C 264.911 -4.59883 2.45268 0
M  V30 2771 C 262.239 -4.92688 3.18552 0
M  V30 2772 C 264.591 -5.13403 3.69595 0
M  V30 2773 C 263.255 -5.29379 4.06589 0
M  V30 2774 H 262.525 -0.736606 0.0805743 0
M  V30 2775 H 265.172 -1.69598 0.889319 0
M  V30 2776 H 263.477 -3.8818 -0.531391 0
M  V30 2777 H 265.174 -4.00678 -0.160547 0
M  V30 2778 H 261.764 -4.09336 1.2705 0
M  V30 2779 H 265.948 -4.45817 2.18084 0
M  V30 2780 H 261.204 -5.03242 3.47214 0
M  V30 2781 H 265.378 -5.41084 4.38407 0
M  V30 2782 H 263.005 -5.69537 5.03519 0
M  V30 2783 N 264.58 -0.43555 -1.51462 0
M  V30 2784 C 265.51 0.367376 -2.30592 0
M  V30 2785 C 266.491 1.02263 -1.35928 0
M  V30 2786 O 267.676 1.02661 -1.64847 0
M  V30 2787 C 264.806 1.46983 -3.14664 0
M  V30 2788 C 263.76 0.938161 -4.17591 0
M  V30 2789 C 263.086 2.13622 -4.90173 0
M  V30 2790 C 264.386 -0.0261621 -5.22293 0
M  V30 2791 H 266.08 -0.292969 -2.97963 0
M  V30 2792 H 263.626 -0.14234 -1.43295 0
M  V30 2793 H 265.579 2.03873 -3.688 0
M  V30 2794 H 264.303 2.15843 -2.4511 0
M  V30 2795 H 262.962 0.391481 -3.64504 0
M  V30 2796 H 262.61 2.81098 -4.17124 0
M  V30 2797 H 262.31 1.78688 -5.59772 0
M  V30 2798 H 263.834 2.7107 -5.47132 0
M  V30 2799 H 265.248 0.452384 -5.71512 0
M  V30 2800 H 263.645 -0.287992 -5.99409 0
M  V30 2801 H 264.715 -0.963391 -4.75233 0
M  V30 2802 N 266.058 1.56714 -0.166846 0
M  V30 2803 C 266.968 2.21331 0.777791 0
M  V30 2804 C 267.984 1.20358 1.25658 0
M  V30 2805 O 269.16 1.53005 1.30964 0
M  V30 2806 C 266.225 2.83787 1.99163 0
M  V30 2807 C 265.286 3.99947 1.56016 0
M  V30 2808 C 264.519 4.59415 2.71613 0
M  V30 2809 O 264.742 4.17769 3.88362 0
M  V30 2810 O 263.676 5.49359 2.45945 0
M  V30 2811 H 267.502 3.02605 0.257636 0
M  V30 2812 H 265.087 1.49275 0.0611393 0
M  V30 2813 H 266.969 3.23405 2.70161 0
M  V30 2814 H 265.644 2.05513 2.50092 0
M  V30 2815 H 264.551 3.65007 0.819809 0
M  V30 2816 H 265.884 4.79801 1.09782 0
M  V30 2817 N 267.536 -0.106894 1.57237 0
M  V30 2818 C 268.952 -0.46078 1.52804 0
M  V30 2819 C 269.152 -1.81184 0.881746 0
M  V30 2820 O 268.208 -2.48102 0.469224 0
M  V30 2821 C 269.521 -0.434127 2.9755 0
M  V30 2822 C 271.069 -0.516821 3.08704 0
M  V30 2823 C 271.544 -0.520436 4.55033 0
M  V30 2824 N 273.035 -0.58153 4.59535 0
M  V30 2825 C 273.77 -0.605973 5.70189 0
M  V30 2826 N 273.266 -0.587331 6.90306 0
M  V30 2827 N 275.059 -0.649895 5.5833 0
M  V30 2828 H 267.21 0.778203 1.9763 0
M  V30 2829 H 269.473 0.288403 0.903066 0
M  V30 2830 H 269.179 0.491197 3.48253 0
M  V30 2831 H 269.053 -1.25748 3.55622 0
M  V30 2832 H 271.44 -1.43256 2.57995 0
M  V30 2833 H 271.521 0.334449 2.53604 0
M  V30 2834 H 271.165 0.391313 5.0639 0
M  V30 2835 H 271.095 -1.38876 5.07958 0
M  V30 2836 H 273.586 -0.60161 3.73081 0
M  V30 2837 H 273.899 -0.60894 7.70397 0
M  V30 2838 H 272.244 -0.554564 6.92784 0
M  V30 2839 H 275.435 -0.661907 4.63397 0
M  V30 2840 H 275.608 -0.665476 6.44574 0
M  V30 2841 N 269.014 -1.53014 -0.377408 0
M  V30 2842 C 269.977 -1.77957 -1.44444 0
M  V30 2843 C 270.977 -0.649763 -1.47087 0
M  V30 2844 O 272.167 -0.917897 -1.48055 0
M  V30 2845 C 269.299 -1.89089 -2.83651 0
M  V30 2846 H 270.492 -2.73243 -1.23606 0
M  V30 2847 H 268.045 -1.43912 -0.609844 0
M  V30 2848 H 268.78 -0.958293 -3.09818 0
M  V30 2849 H 268.565 -2.71254 -2.83132 0
M  V30 2850 H 270.055 -2.1002 -3.60945 0
M  V30 2851 N 270.492 0.636531 -1.44174 0
M  V30 2852 C 271.422 1.76003 -1.53444 0
M  V30 2853 C 272.403 1.65619 -0.387841 0
M  V30 2854 O 273.588 1.84461 -0.607257 0
M  V30 2855 C 270.718 3.14511 -1.4731 0
M  V30 2856 C 269.672 3.39677 -2.60391 0
M  V30 2857 C 268.998 4.78159 -2.39308 0
M  V30 2858 C 270.298 3.32772 -4.02567 0
M  V30 2859 H 271.992 1.68501 -2.47483 0
M  V30 2860 H 269.538 0.809237 -1.19111 0
M  V30 2861 H 271.491 3.92878 -1.52397 0
M  V30 2862 H 270.215 3.22783 -0.49785 0
M  V30 2863 H 268.874 2.63688 -2.54684 0
M  V30 2864 H 268.522 4.83128 -1.39988 0
M  V30 2865 H 268.222 4.95956 -3.15122 0
M  V30 2866 H 269.746 5.58762 -2.46205 0
M  V30 2867 H 271.16 4.01051 -4.09672 0
M  V30 2868 H 269.557 3.62104 -4.7854 0
M  V30 2869 H 270.627 2.30669 -4.2652 0
M  V30 2870 N 271.97 1.30982 0.876444 0
M  V30 2871 C 273.381 1.18277 1.44456 0
M  V30 2872 C 273.732 -0.213265 1.95037 0
M  V30 2873 O 272.857 -1.11057 1.85729 0
M  V30 2874 C 273.452 2.1411 2.62569 0
M  V30 2875 C 272.011 2.05358 3.15444 0
M  V30 2876 C 271.158 2.03706 1.88146 0
M  V30 2877 H 274.109 1.43127 0.685584 0
M  V30 2878 H 274.13 1.72692 3.39054 0
M  V30 2879 H 273.642 3.15706 2.25724 0
M  V30 2880 H 271.743 1.06934 3.56926 0
M  V30 2881 H 271.856 2.94156 3.78166 0
M  V30 2882 H 270.22 1.48629 2.06837 0
M  V30 2883 H 271.003 3.07047 1.53547 0
M  V30 2884 N 273.449 -1.08991 1.13837 0
M  V30 2885 C 274.697 -1.80899 0.901098 0
M  V30 2886 C 275.018 -1.86356 -0.574134 0
M  V30 2887 O 274.288 -1.35235 -1.41733 0
M  V30 2888 H 272.868 -0.669966 0.330386 0
M  V30 2889 H 275.53 -1.318 1.43578 0
M  V30 2890 H 274.626 -2.83929 1.29578 0
M  V30 2891 N 274.927 -0.932562 -1.27047 0
M  V30 2892 C 276.173 -0.576412 -1.94436 0
M  V30 2893 C 276.506 0.880891 -1.73072 0
M  V30 2894 O 275.781 1.62905 -1.06264 0
M  V30 2895 C 276.064 -0.909031 -3.48437 0
M  V30 2896 C 275.917 -2.42044 -3.79123 0
M  V30 2897 C 277.236 -0.418341 -4.38107 0
M  V30 2898 H 274.355 -0.210888 -0.706184 0
M  V30 2899 H 276.997 -1.16522 -1.50075 0
M  V30 2900 H 275.147 -0.407947 -3.86352 0
M  V30 2901 H 276.819 -2.99359 -3.50973 0
M  V30 2902 H 275.062 -2.86758 -3.25503 0
M  V30 2903 H 275.733 -2.6037 -4.86736 0
M  V30 2904 H 278.209 -0.847856 -4.0737 0
M  V30 2905 H 277.085 -0.679981 -5.44672 0
M  V30 2906 H 277.346 0.681642 -4.36814 0
M  V30 2907 N 276.405 1.4127 -0.698611 0
M  V30 2908 C 277.682 1.94955 -0.158762 0
M  V30 2909 C 278.062 1.63781 1.33188 0
M  V30 2910 O 277.41 0.946423 2.07979 0
M  V30 2911 C 277.62 3.46044 -0.453309 0
M  V30 2912 C 278.968 4.22872 -0.382707 0
M  V30 2913 O 279.992 3.54076 -0.388396 0
M  V30 2914 O 278.851 5.45407 -0.345463 0
M  V30 2915 H 275.945 0.82683 -0.0167505 0
M  V30 2916 H 278.491 1.50971 -0.77498 0
M  V30 2917 H 277.263 3.62028 -1.48498 0
M  V30 2918 H 276.886 3.97128 0.19373 0
M  V30 2919 N 277.883 0.443576 1.51229 0
M  V30 2920 C 278.813 -0.355142 2.30783 0
M  V30 2921 C 279.794 -1.0154 1.36468 0
M  V30 2922 O 280.979 -1.01785 1.65389 0
M  V30 2923 C 278.109 -1.45312 3.15439 0
M  V30 2924 C 277.063 -0.916002 4.18083 0
M  V30 2925 C 276.389 -2.1102 4.91299 0
M  V30 2926 C 277.689 0.0538602 5.22272 0
M  V30 2927 H 279.383 0.308767 2.97804 0
M  V30 2928 H 276.929 0.149937 1.43217 0
M  V30 2929 H 278.882 -2.01914 3.69876 0
M  V30 2930 H 277.606 -2.14541 2.46252 0
M  V30 2931 H 276.265 -0.372145 3.64706 0
M  V30 2932 H 275.913 -2.78882 4.18609 0
M  V30 2933 H 275.613 -1.75717 5.60712 0
M  V30 2934 H 277.137 -2.68164 5.48562 0
M  V30 2935 H 278.551 -0.422069 5.71744 0
M  V30 2936 H 276.948 0.319776 5.99247 0
M  V30 2937 H 278.018 0.98858 4.74716 0
M  V30 2938 N 279.361 -1.56624 0.175154 0
M  V30 2939 C 280.291 -2.21155 -0.749195 0
M  V30 2940 C 281.272 -1.16836 -1.23626 0
M  V30 2941 O 282.457 -1.45277 -1.28873 0
M  V30 2942 C 279.587 -2.8553 -1.97711 0
M  V30 2943 C 278.541 -3.95921 -1.62575 0
M  V30 2944 C 277.867 -4.47365 -2.92864 0
M  V30 2945 C 279.167 -5.15323 -0.850838 0
M  V30 2946 H 280.861 -2.98653 -0.211295 0
M  V30 2947 H 278.407 -1.43651 -0.100188 0
M  V30 2948 H 280.36 -3.2935 -2.62881 0
M  V30 2949 H 279.084 -2.05406 -2.53921 0
M  V30 2950 H 277.743 -3.52762 -0.997719 0
M  V30 2951 H 277.391 -3.64027 -3.47122 0
M  V30 2952 H 277.091 -5.21839 -2.70106 0
M  V30 2953 H 278.615 -4.93873 -3.59056 0
M  V30 2954 H 280.029 -5.55812 -1.40521 0
M  V30 2955 H 278.426 -5.95739 -0.722154 0
M  V30 2956 H 279.496 -4.84661 0.152082 0
M  V30 2957 N 280.839 0.0985539 -1.57292 0
M  V30 2958 C 282.086 0.802678 -1.85912 0
M  V30 2959 C 282.414 1.78901 -0.763186 0
M  V30 2960 O 281.669 1.94178 0.243559 0
M  V30 2961 C 281.968 1.56927 -3.21105 0
M  V30 2962 C 281.634 0.725376 -4.45027 0
M  V30 2963 C 280.296 0.492726 -4.78671 0
M  V30 2964 C 282.648 0.138493 -5.21016 0
M  V30 2965 C 279.976 -0.336727 -5.85733 0
M  V30 2966 C 282.328 -0.678264 -6.28953 0
M  V30 2967 C 280.992 -0.921039 -6.61115 0
M  V30 2968 H 280.262 0.293721 -0.680301 0
M  V30 2969 H 282.909 0.0642841 -1.91392 0
M  V30 2970 H 281.214 2.37914 -3.11294 0
M  V30 2971 H 282.911 2.11841 -3.40477 0
M  V30 2972 H 279.501 0.916815 -4.18679 0
M  V30 2973 H 283.685 0.305404 -4.95359 0
M  V30 2974 H 278.941 -0.533836 -6.09065 0
M  V30 2975 H 283.115 -1.1399 -6.87007 0
M  V30 2976 H 280.742 -1.56556 -7.43905 0
M  V30 2977 N 282.317 1.53212 0.369288 0
M  V30 2978 C 283.247 1.82365 1.45826 0
M  V30 2979 C 284.228 0.676907 1.56051 0
M  V30 2980 O 285.413 0.926401 1.70679 0
M  V30 2981 C 282.543 2.01023 2.83208 0
M  V30 2982 C 281.497 3.1678 2.8781 0
M  V30 2983 C 280.823 3.20724 4.27832 0
M  V30 2984 C 282.123 4.55447 2.55667 0
M  V30 2985 H 283.817 2.73559 1.21678 0
M  V30 2986 H 281.363 1.3163 0.583911 0
M  V30 2987 H 283.316 2.20001 3.59413 0
M  V30 2988 H 282.04 1.06536 3.08736 0
M  V30 2989 H 280.699 2.97616 2.14056 0
M  V30 2990 H 280.347 2.23882 4.50429 0
M  V30 2991 H 280.047 3.98496 4.31827 0
M  V30 2992 H 281.571 3.41881 5.05915 0
M  V30 2993 H 282.985 4.74611 3.21586 0
M  V30 2994 H 281.382 5.35432 2.70984 0
M  V30 2995 H 282.452 4.60812 1.5093 0
M  V30 2996 N 283.795 -0.628877 1.44509 0
M  V30 2997 C 285.02 -1.42048 1.5112 0
M  V30 2998 C 285.445 -1.87594 0.137818 0
M  V30 2999 O 284.803 -1.58873 -0.873437 0
M  V30 3000 C 284.851 -2.61541 2.48251 0
M  V30 3001 O 283.955 -3.61453 1.98559 0
M  V30 3002 H 283.296 -0.424942 0.510216 0
M  V30 3003 H 285.826 -0.767374 1.89664 0
M  V30 3004 H 285.836 -3.09057 2.66361 0
M  V30 3005 H 284.511 -2.27736 3.48007 0
M  V30 3006 H 283.088 -3.20731 1.90227 0
M  V30 3007 N 285.273 -1.31445 -0.869486 0
M  V30 3008 C 286.183 -1.21097 -2.0093 0
M  V30 3009 C 287.199 -0.127584 -1.73532 0
M  V30 3010 O 288.375 -0.345477 -1.98415 0
M  V30 3011 C 285.44 -0.919378 -3.34288 0
M  V30 3012 C 284.501 -2.08971 -3.75006 0
M  V30 3013 C 283.734 -1.81194 -5.02001 0
M  V30 3014 O 283.957 -0.747296 -5.65484 0
M  V30 3015 O 282.891 -2.66883 -5.39497 0
M  V30 3016 H 286.717 -2.16883 -2.12592 0
M  V30 3017 H 284.302 -1.11189 -0.997868 0
M  V30 3018 H 286.184 -0.772625 -4.14257 0
M  V30 3019 H 284.859 0.00844772 -3.23699 0
M  V30 3020 H 283.766 -2.29187 -2.95676 0
M  V30 3021 H 285.099 -2.9998 -3.90221 0
M  V30 3022 N 286.751 1.08385 -1.14413 0
M  V30 3023 C 287.661 2.18856 -0.844951 0
M  V30 3024 C 288.677 1.73121 0.174668 0
M  V30 3025 O 289.853 2.014 0.00312857 0
M  V30 3026 C 286.918 3.45155 -0.32696 0
M  V30 3027 C 285.979 4.05513 -1.40916 0
M  V30 3028 C 285.212 5.25784 -0.915793 0
M  V30 3029 O 285.435 5.69884 0.242651 0
M  V30 3030 O 284.369 5.77545 -1.69487 0
M  V30 3031 H 288.195 2.46919 -1.76818 0
M  V30 3032 H 285.78 1.17524 -0.922411 0
M  V30 3033 H 287.662 4.21377 -0.0440211 0
M  V30 3034 H 286.337 3.18668 0.568539 0
M  V30 3035 H 285.244 3.30879 -1.74556 0
M  V30 3036 H 286.577 4.3625 -2.27919 0
M  V30 3037 N 288.23 0.939286 1.26551 0
M  V30 3038 C 289.14 0.453432 2.30176 0
M  V30 3039 C 290.156 -0.471649 1.67486 0
M  V30 3040 O 291.332 -0.35164 1.98306 0
M  V30 3041 C 288.397 -0.275326 3.45605 0
M  V30 3042 C 287.458 0.686084 4.23782 0
M  V30 3043 C 286.691 -0.00798994 5.33699 0
M  V30 3044 O 286.914 -1.22528 5.57085 0
M  V30 3045 O 285.848 0.669746 5.98162 0
M  V30 3046 H 289.674 1.31416 2.73795 0
M  V30 3047 H 287.259 0.705095 1.31715 0
M  V30 3048 H 289.141 -0.685911 4.1578 0
M  V30 3049 H 287.816 -1.11147 3.0402 0
M  V30 3050 H 286.723 1.14658 3.56096 0
M  V30 3051 H 288.056 1.48979 4.69112 0
M  V30 3052 N 289.708 -1.40897 0.706093 0
M  V30 3053 C 290.671 -2.29131 0.0562841 0
M  V30 3054 C 291.671 -1.44901 -0.697166 0
M  V30 3055 O 292.861 -1.65926 -0.530484 0
M  V30 3056 C 289.993 -3.27957 -0.93043 0
M  V30 3057 H 291.186 -2.88091 0.833284 0
M  V30 3058 H 288.739 -1.4906 0.470192 0
M  V30 3059 H 289.474 -2.73997 -1.73482 0
M  V30 3060 H 289.259 -3.90124 -0.393166 0
M  V30 3061 H 290.749 -3.94049 -1.38256 0
M  V30 3062 N 291.186 -0.45159 -1.50991 0
M  V30 3063 C 292.096 0.358431 -2.31846 0
M  V30 3064 C 293.112 1.01438 -1.41373 0
M  V30 3065 O 294.288 1.00663 -1.74439 0
M  V30 3066 C 291.353 1.43704 -3.15515 0
M  V30 3067 C 290.414 0.799742 -4.21785 0
M  V30 3068 C 289.647 1.82696 -5.01456 0
M  V30 3069 O 289.87 3.05105 -4.81941 0
M  V30 3070 O 288.804 1.40958 -5.85162 0
M  V30 3071 H 292.63 -0.302032 -3.02194 0
M  V30 3072 H 290.215 -0.213825 -1.47862 0
M  V30 3073 H 292.097 2.06227 -3.67489 0
M  V30 3074 H 290.772 2.08133 -2.47916 0
M  V30 3075 H 289.679 0.136084 -3.73852 0
M  V30 3076 H 291.012 0.198718 -4.91799 0
M  V30 3077 N 292.664 1.56529 -0.183458 0
M  V30 3078 C 293.594 2.21549 0.737456 0
M  V30 3079 C 294.575 1.17489 1.23005 0
M  V30 3080 O 295.76 1.45959 1.281 0
M  V30 3081 C 292.89 2.86575 1.96194 0
M  V30 3082 C 291.844 3.96778 1.60473 0
M  V30 3083 C 291.17 4.48911 2.90487 0
M  V30 3084 C 292.47 5.15767 0.823497 0
M  V30 3085 H 294.164 2.98761 0.195453 0
M  V30 3086 H 291.71 1.43702 0.0925686 0
M  V30 3087 H 293.663 3.30739 2.61131 0
M  V30 3088 H 292.387 2.06749 2.52828 0
M  V30 3089 H 291.046 3.53286 0.978997 0
M  V30 3090 H 290.694 3.65862 3.45186 0
M  V30 3091 H 290.394 5.23265 2.67335 0
M  V30 3092 H 291.918 4.95771 3.56432 0
M  V30 3093 H 293.332 5.56549 1.37571 0
M  V30 3094 H 291.729 5.96114 0.690551 0
M  V30 3095 H 292.799 4.84574 -0.177782 0
M  V30 3096 N 294.142 -0.090211 1.57342 0
M  V30 3097 C 295.072 -1.10976 2.05443 0
M  V30 3098 C 296.053 -1.41482 0.944284 0
M  V30 3099 O 297.238 -1.51428 1.21586 0
M  V30 3100 C 294.368 -2.42831 2.48295 0
M  V30 3101 C 293.322 -2.26721 3.63018 0
M  V30 3102 C 292.648 -3.63796 3.91863 0
M  V30 3103 C 293.948 -1.7037 4.93732 0
M  V30 3104 H 295.642 -0.709564 2.9087 0
M  V30 3105 H 293.188 -0.339874 1.39932 0
M  V30 3106 H 295.141 -3.14431 2.80555 0
M  V30 3107 H 293.865 -2.84795 1.59873 0
M  V30 3108 H 292.524 -1.57565 3.31012 0
M  V30 3109 H 292.172 -4.03297 3.00601 0
M  V30 3110 H 291.872 -3.53861 4.69101 0
M  V30 3111 H 293.396 -4.36855 4.26603 0
M  V30 3112 H 294.81 -2.31816 5.24342 0
M  V30 3113 H 293.207 -1.71181 5.75167 0
M  V30 3114 H 294.277 -0.663542 4.80339 0
M  V30 3115 N 295.62 -1.53406 -0.361157 0
M  V30 3116 C 296.867 -1.69802 -1.10333 0
M  V30 3117 C 297.195 -0.452087 -1.89173 0
M  V30 3118 O 296.45 0.566017 -1.87336 0
M  V30 3119 C 296.749 -2.90211 -2.08596 0
M  V30 3120 C 296.415 -4.26539 -1.46203 0
M  V30 3121 C 295.077 -4.6361 -1.28915 0
M  V30 3122 C 297.429 -5.113 -1.01101 0
M  V30 3123 C 294.757 -5.83075 -0.651157 0
M  V30 3124 C 297.109 -6.31415 -0.387007 0
M  V30 3125 C 295.773 -6.67195 -0.201657 0
M  V30 3126 H 295.043 -0.621351 -0.403737 0
M  V30 3127 H 297.69 -1.87598 -0.384609 0
M  V30 3128 H 295.995 -2.66946 -2.86788 0
M  V30 3129 H 297.692 -3.00091 -2.65982 0
M  V30 3130 H 294.282 -3.97352 -1.60653 0
M  V30 3131 H 298.466 -4.83206 -1.13249 0
M  V30 3132 H 293.722 -6.09385 -0.496006 0
M  V30 3133 H 297.896 -6.96394 -0.0293563 0
M  V30 3134 H 295.523 -7.59628 0.294766 0
M  V30 3135 N 297.098 0.621204 -1.44841 0
M  V30 3136 C 298.346 1.37783 -1.47852 0
M  V30 3137 C 298.667 1.94653 -0.116224 0
M  V30 3138 O 297.937 1.76367 0.852737 0
M  V30 3139 H 296.517 0.511453 -0.544449 0
M  V30 3140 H 299.179 0.730446 -1.80694 0
M  V30 3141 H 298.275 2.20414 -2.20961 0
M  V30 3142 N 298.576 1.31904 0.862503 0
M  V30 3143 C 299.992 1.10724 1.14945 0
M  V30 3144 C 300.192 -0.117421 2.01158 0
M  V30 3145 O 299.248 -0.804595 2.39338 0
M  V30 3146 C 300.561 2.38267 1.83437 0
M  V30 3147 C 302.109 2.43949 1.96106 0
M  V30 3148 C 302.584 3.71394 2.68013 0
M  V30 3149 N 304.075 3.72331 2.75543 0
M  V30 3150 C 304.81 4.67641 3.31812 0
M  V30 3151 N 304.306 5.73313 3.88953 0
M  V30 3152 N 306.099 4.5515 3.29841 0
M  V30 3153 H 298.25 2.10436 0.288191 0
M  V30 3154 H 300.513 0.928705 0.190292 0
M  V30 3155 H 300.219 3.27759 1.27542 0
M  V30 3156 H 300.093 2.48633 2.83657 0
M  V30 3157 H 302.48 1.54922 2.51164 0
M  V30 3158 H 302.561 2.37543 0.949059 0
M  V30 3159 H 302.205 4.60791 2.13621 0
M  V30 3160 H 302.135 3.75069 3.69636 0
M  V30 3161 H 304.626 2.95947 2.34997 0
M  V30 3162 H 304.939 6.42107 4.30022 0
M  V30 3163 H 303.284 5.77077 3.87308 0
M  V30 3164 H 306.475 3.71766 2.84443 0
M  V30 3165 H 306.648 5.29604 3.73394 0
M  V30 3166 N 300.054 -1.07777 1.14986 0
M  V30 3167 C 301.3 -1.80557 0.923422 0
M  V30 3168 C 301.633 -1.86298 -0.548337 0
M  V30 3169 O 300.908 -1.34354 -1.40639 0
M  V30 3170 C 301.191 -3.25839 1.53299 0
M  V30 3171 C 301.044 -3.28269 3.07505 0
M  V30 3172 C 302.363 -4.22991 1.21518 0
M  V30 3173 H 299.482 -0.655493 0.336894 0
M  V30 3174 H 302.124 -1.26144 1.42083 0
M  V30 3175 H 300.274 -3.72306 1.10999 0
M  V30 3176 H 301.946 -2.90079 3.58681 0
M  V30 3177 H 300.189 -2.67355 3.4162 0
M  V30 3178 H 300.86 -4.30691 3.45266 0
M  V30 3179 H 303.336 -3.84894 1.581 0
M  V30 3180 H 302.212 -5.22945 1.66793 0
M  V30 3181 H 302.473 -4.41904 0.131505 0
M  V30 3182 N 301.532 -0.945985 -1.26051 0
M  V30 3183 C 302.442 -0.465633 -2.29933 0
M  V30 3184 C 303.458 0.462761 -1.67733 0
M  V30 3185 O 304.634 0.341118 -1.9849 0
M  V30 3186 C 301.699 0.256994 -3.45746 0
M  V30 3187 C 300.76 -0.708549 -4.23412 0
M  V30 3188 C 299.993 -0.0203135 -5.33696 0
M  V30 3189 O 300.216 1.19571 -5.57726 0
M  V30 3190 O 299.15 -0.701459 -5.97799 0
M  V30 3191 H 302.976 -1.32866 -2.73094 0
M  V30 3192 H 300.561 -0.712071 -1.31339 0
M  V30 3193 H 302.443 0.663852 -4.16138 0
M  V30 3194 H 301.118 1.09533 -3.04605 0
M  V30 3195 H 300.025 -1.16545 -3.55483 0
M  V30 3196 H 301.358 -1.51465 -4.68315 0
M  V30 3197 N 303.011 1.40521 -0.713556 0
M  V30 3198 C 303.921 2.34522 -0.0606667 0
M  V30 3199 C 304.937 1.57193 0.74607 0
M  V30 3200 O 306.113 1.89591 0.679493 0
M  V30 3201 C 303.178 3.36081 0.851491 0
M  V30 3202 C 302.239 4.29286 0.0349339 0
M  V30 3203 C 301.472 5.25994 0.903649 0
M  V30 3204 O 301.695 5.28616 2.14292 0
M  V30 3205 O 300.629 6.00918 0.343723 0
M  V30 3206 H 304.455 2.91968 -0.835972 0
M  V30 3207 H 302.04 1.41681 -0.47402 0
M  V30 3208 H 303.922 3.98369 1.37404 0
M  V30 3209 H 302.597 2.81052 1.60598 0
M  V30 3210 H 301.504 3.70289 -0.532633 0
M  V30 3211 H 302.837 4.87462 -0.681287 0
M  V30 3212 N 304.489 0.459591 1.5075 0
M  V30 3213 C 305.452 -0.329093 2.26825 0
M  V30 3214 C 306.452 -0.930481 1.31144 0
M  V30 3215 O 307.642 -0.801453 1.54669 0
M  V30 3216 C 304.774 -1.46768 3.07688 0
M  V30 3217 H 305.967 0.337924 2.9799 0
M  V30 3218 H 303.52 0.213336 1.54837 0
M  V30 3219 H 304.255 -2.17009 2.40993 0
M  V30 3220 H 304.04 -1.04238 3.77991 0
M  V30 3221 H 305.53 -2.02433 3.65254 0
M  V30 3222 N 305.967 -1.56429 0.191757 0
M  V30 3223 C 306.897 -2.21937 -0.725696 0
M  V30 3224 C 307.878 -1.1814 -1.2238 0
M  V30 3225 O 309.063 -1.46636 -1.27325 0
M  V30 3226 C 306.193 -2.87611 -1.94672 0
M  V30 3227 C 305.147 -3.97623 -1.58366 0
M  V30 3228 C 304.473 -4.50446 -2.88102 0
M  V30 3229 C 305.773 -5.16197 -0.796133 0
M  V30 3230 H 307.467 -2.98861 -0.179606 0
M  V30 3231 H 305.013 -1.43749 -0.0849464 0
M  V30 3232 H 306.966 -3.3212 -2.59373 0
M  V30 3233 H 305.69 -2.08087 -2.51728 0
M  V30 3234 H 304.349 -3.53801 -0.960247 0
M  V30 3235 H 303.997 -3.67688 -3.43241 0
M  V30 3236 H 303.697 -5.24675 -2.64556 0
M  V30 3237 H 305.221 -4.97654 -3.53798 0
M  V30 3238 H 306.635 -5.57271 -1.34618 0
M  V30 3239 H 305.032 -5.96471 -0.658928 0
M  V30 3240 H 306.102 -4.84473 0.203478 0
M  V30 3241 N 307.445 0.0818655 -1.57387 0
M  V30 3242 C 308.861 0.436412 -1.53517 0
M  V30 3243 C 309.061 1.79758 -0.910459 0
M  V30 3244 O 308.117 2.47324 -0.508636 0
M  V30 3245 C 309.43 0.386734 -2.98203 0
M  V30 3246 C 310.978 0.467644 -3.09487 0
M  V30 3247 C 311.453 0.447978 -4.55804 0
M  V30 3248 N 312.944 0.508348 -4.60402 0
M  V30 3249 C 313.679 0.515184 -5.71081 0
M  V30 3250 N 313.175 0.477435 -6.91153 0
M  V30 3251 N 314.968 0.560988 -5.59294 0
M  V30 3252 H 307.119 -0.809546 -1.96367 0
M  V30 3253 H 309.382 -0.302733 -0.898363 0
M  V30 3254 H 309.088 -0.546539 -3.47427 0
M  V30 3255 H 308.962 1.20075 -3.57578 0
M  V30 3256 H 311.349 1.39134 -2.60242 0
M  V30 3257 H 311.43 -0.374753 -2.5304 0
M  V30 3258 H 311.074 -0.471826 -5.05704 0
M  V30 3259 H 311.004 1.30777 -5.10103 0
M  V30 3260 H 313.495 0.54218 -3.7399 0
M  V30 3261 H 313.808 0.486299 -7.71268 0
M  V30 3262 H 312.153 0.444278 -6.93579 0
M  V30 3263 H 315.344 0.5881 -4.64391 0
M  V30 3264 H 315.517 0.562846 -6.45551 0
M  V30 3265 N 308.923 1.53595 0.353017 0
M  V30 3266 C 309.886 1.80232 1.41594 0
M  V30 3267 C 310.886 0.673081 1.46035 0
M  V30 3268 O 312.076 0.941335 1.46576 0
M  V30 3269 C 309.208 1.93578 2.80607 0
M  V30 3270 H 310.401 2.75174 1.19244 0
M  V30 3271 H 307.954 1.44864 0.586872 0
M  V30 3272 H 308.689 1.00746 3.08254 0
M  V30 3273 H 308.474 2.75724 2.78781 0
M  V30 3274 H 309.964 2.15735 3.57558 0
M  V30 3275 N 310.401 -0.613514 1.45168 0
M  V30 3276 C 311.331 -1.7354 1.56225 0
M  V30 3277 C 312.312 -1.64981 0.41414 0
M  V30 3278 O 313.497 -1.83472 0.636526 0
M  V30 3279 C 310.627 -3.12128 1.52295 0
M  V30 3280 C 309.581 -3.35491 2.65762 0
M  V30 3281 C 308.907 -4.74291 2.46885 0
M  V30 3282 C 310.207 -3.26325 4.0781 0
M  V30 3283 H 311.901 -1.64543 2.50132 0
M  V30 3284 H 309.447 -0.790185 1.20383 0
M  V30 3285 H 311.4 -3.90404 1.58628 0
M  V30 3286 H 310.124 -3.2195 0.549139 0
M  V30 3287 H 308.783 -2.59603 2.58847 0
M  V30 3288 H 308.431 -4.80839 1.47657 0
M  V30 3289 H 308.131 -4.9088 3.22972 0
M  V30 3290 H 309.655 -5.54775 2.55063 0
M  V30 3291 H 311.069 -3.94483 4.16 0
M  V30 3292 H 309.466 -3.54445 4.8424 0
M  V30 3293 H 310.536 -2.23855 4.30136 0
M  V30 3294 N 311.879 -1.3236 -0.855495 0
M  V30 3295 C 313.104 -1.2601 -1.64731 0
M  V30 3296 C 313.529 0.169068 -1.87339 0
M  V30 3297 O 312.887 1.12016 -1.42556 0
M  V30 3298 C 312.935 -2.02417 -2.98429 0
M  V30 3299 O 312.039 -1.3714 -3.8893 0
M  V30 3300 H 311.38 -0.434325 -0.502253 0
M  V30 3301 H 313.91 -1.74661 -1.06558 0
M  V30 3302 H 313.92 -2.12559 -3.48257 0
M  V30 3303 H 312.595 -3.06343 -2.81295 0
M  V30 3304 H 311.172 -1.3554 -3.47395 0
M  V30 3305 N 313.357 1.07166 -1.15556 0
M  V30 3306 C 314.32 2.12589 -0.856644 0
M  V30 3307 C 315.32 1.6015 0.14444 0
M  V30 3308 O 316.51 1.7399 -0.0854163 0
M  V30 3309 C 313.642 3.39753 -0.279405 0
M  V30 3310 H 314.835 2.40539 -1.79112 0
M  V30 3311 H 312.388 1.23086 -0.963298 0
M  V30 3312 H 313.123 3.17447 0.663174 0
M  V30 3313 H 312.908 3.79117 -1.00063 0
M  V30 3314 H 314.398 4.17507 -0.0879113 0
M  V30 3315 N 314.835 0.952656 1.25548 0
M  V30 3316 C 316.246 0.647392 1.75116 0
M  V30 3317 C 316.597 -0.837274 1.77438 0
M  V30 3318 O 315.722 -1.65525 1.39393 0
M  V30 3319 C 316.317 1.16845 3.18014 0
M  V30 3320 C 314.876 0.913382 3.6515 0
M  V30 3321 C 314.023 1.31265 2.44264 0
M  V30 3322 H 316.974 1.12968 1.11462 0
M  V30 3323 H 316.995 0.527606 3.76824 0
M  V30 3324 H 316.507 2.24902 3.16292 0
M  V30 3325 H 314.608 -0.152316 3.72289 0
M  V30 3326 H 314.721 1.54845 4.53387 0
M  V30 3327 H 313.085 0.731028 2.43984 0
M  V30 3328 H 313.868 2.40239 2.45234 0
M  V30 3329 N 316.313 -1.40141 0.720998 0
M  V30 3330 C 317.223 -2.34486 0.0731031 0
M  V30 3331 C 318.239 -1.57587 -0.737723 0
M  V30 3332 O 319.415 -1.89949 -0.669429 0
M  V30 3333 C 316.48 -3.36528 -0.833656 0
M  V30 3334 C 315.541 -4.29298 -0.0121673 0
M  V30 3335 C 314.774 -5.26466 -0.875742 0
M  V30 3336 O 314.997 -5.29745 -2.11485 0
M  V30 3337 O 313.931 -6.01092 -0.31185 0
M  V30 3338 H 317.757 -2.9152 0.851444 0
M  V30 3339 H 315.342 -1.41427 0.481527 0
M  V30 3340 H 317.224 -3.99093 -1.35289 0
M  V30 3341 H 315.899 -2.81899 -1.59105 0
M  V30 3342 H 314.806 -3.70001 0.552262 0
M  V30 3343 H 316.139 -4.87094 0.707129 0
M  V30 3344 N 317.792 -0.46758 -1.50504 0
M  V30 3345 C 319.038 0.0887532 -2.02606 0
M  V30 3346 C 319.371 1.39686 -1.34913 0
M  V30 3347 O 318.646 1.88644 -0.473694 0
M  V30 3348 C 318.929 0.276206 -3.59039 0
M  V30 3349 C 318.782 -1.05267 -4.37309 0
M  V30 3350 C 320.101 1.03235 -4.27821 0
M  V30 3351 H 317.22 0.0307814 -0.736357 0
M  V30 3352 H 319.862 -0.612485 -1.79857 0
M  V30 3353 H 318.012 0.8735 -3.78553 0
M  V30 3354 H 319.684 -1.68628 -4.29374 0
M  V30 3355 H 317.927 -1.65015 -4.01189 0
M  V30 3356 H 318.598 -0.875197 -5.45018 0
M  V30 3357 H 321.074 0.526111 -4.12761 0
M  V30 3358 H 319.95 1.1323 -5.37094 0
M  V30 3359 H 320.211 2.06806 -3.90748 0
M  V30 3360 N 319.27 1.56325 -0.20005 0
M  V30 3361 C 320.516 1.98012 0.438059 0
M  V30 3362 C 320.849 1.08702 1.60927 0
M  V30 3363 O 320.124 0.140064 1.93995 0
M  V30 3364 C 320.407 3.48841 0.893419 0
M  V30 3365 C 320.26 4.48928 -0.279947 0
M  V30 3366 C 321.579 4.03498 1.75719 0
M  V30 3367 H 318.698 0.719918 0.157757 0
M  V30 3368 H 321.34 1.87743 -0.291968 0
M  V30 3369 H 319.49 3.57723 1.51547 0
M  V30 3370 H 321.162 4.52079 -0.91772 0
M  V30 3371 H 319.405 4.23694 -0.930919 0
M  V30 3372 H 320.076 5.5194 0.0812601 0
M  V30 3373 H 322.552 3.97427 1.23253 0
M  V30 3374 H 321.428 5.09393 2.04476 0
M  V30 3375 H 321.689 3.4906 2.71311 0
M  V30 3376 N 320.748 -0.0735177 1.57428 0
M  V30 3377 C 321.678 -1.0879 2.06608 0
M  V30 3378 C 322.659 -1.40473 0.959237 0
M  V30 3379 O 323.844 -1.5013 1.23185 0
M  V30 3380 C 320.974 -2.40183 2.50857 0
M  V30 3381 C 319.928 -2.22858 3.65402 0
M  V30 3382 C 319.254 -3.59619 3.957 0
M  V30 3383 C 320.554 -1.65123 4.95511 0
M  V30 3384 H 322.248 -0.678673 2.91607 0
M  V30 3385 H 319.794 -0.325013 1.40284 0
M  V30 3386 H 321.747 -3.11437 2.83874 0
M  V30 3387 H 320.471 -2.83083 1.62885 0
M  V30 3388 H 319.13 -1.54045 3.32664 0
M  V30 3389 H 318.778 -4.00086 3.04861 0
M  V30 3390 H 318.478 -3.48866 4.72828 0
M  V30 3391 H 320.002 -4.32306 4.31212 0
M  V30 3392 H 321.416 -2.26241 5.26771 0
M  V30 3393 H 319.813 -1.65071 5.7695 0
M  V30 3394 H 320.883 -0.612559 4.81015 0
M  V30 3395 N 322.226 -1.5378 -0.344866 0
M  V30 3396 C 323.173 -1.81676 -1.42346 0
M  V30 3397 C 324.143 -0.662376 -1.52321 0
M  V30 3398 O 325.328 -0.906675 -1.67881 0
M  V30 3399 C 322.468 -2.03087 -2.79015 0
M  V30 3400 C 321.581 -3.30799 -2.77842 0
M  V30 3401 C 320.716 -3.42285 -4.0622 0
M  V30 3402 C 319.755 -4.6395 -3.9927 0
M  V30 3403 N 318.892 -4.72477 -5.19336 0
M  V30 3404 H 323.732 -2.73703 -1.17858 0
M  V30 3405 H 321.269 -1.35568 -0.570949 0
M  V30 3406 H 323.227 -2.1349 -3.58438 0
M  V30 3407 H 321.857 -1.14375 -3.01858 0
M  V30 3408 H 320.909 -3.29244 -1.90533 0
M  V30 3409 H 322.221 -4.20314 -2.68584 0
M  V30 3410 H 321.375 -3.52113 -4.94066 0
M  V30 3411 H 320.114 -2.50823 -4.18258 0
M  V30 3412 H 319.119 -4.54201 -3.09809 0
M  V30 3413 H 320.344 -5.56775 -3.88817 0
M  V30 3414 H 318.29 -3.83924 -5.3192 0
M  V30 3415 H 318.207 -5.55927 -5.12329 0
M  V30 3416 H 319.475 -4.86613 -6.08957 0
M  V30 3417 N 323.704 0.605807 -1.45491 0
M  V30 3418 C 325.12 0.926751 -1.29936 0
M  V30 3419 C 325.32 1.99896 -0.253706 0
M  V30 3420 O 324.376 2.50038 0.351737 0
M  V30 3421 C 325.689 1.36599 -2.67883 0
M  V30 3422 C 327.237 1.4801 -2.75793 0
M  V30 3423 C 327.712 1.95309 -4.14268 0
M  V30 3424 N 329.203 2.0254 -4.16571 0
M  V30 3425 C 329.938 2.40363 -5.20589 0
M  V30 3426 N 329.434 2.77143 -6.34952 0
M  V30 3427 N 331.227 2.40718 -5.07948 0
M  V30 3428 H 323.378 -0.102862 -2.12151 0
M  V30 3429 H 325.641 0.016639 -0.947854 0
M  V30 3430 H 325.347 0.652306 -3.45598 0
M  V30 3431 H 325.221 2.33215 -2.96463 0
M  V30 3432 H 327.608 2.1847 -1.98381 0
M  V30 3433 H 327.689 0.497041 -2.50925 0
M  V30 3434 H 327.333 1.25436 -4.92167 0
M  V30 3435 H 327.263 2.94532 -4.3653 0
M  V30 3436 H 329.754 1.76699 -3.34045 0
M  V30 3437 H 330.067 3.0489 -7.10114 0
M  V30 3438 H 328.412 2.74834 -6.3835 0
M  V30 3439 H 331.603 2.11392 -4.1765 0
M  V30 3440 H 331.776 2.69869 -5.89131 0
M  V30 3441 N 325.182 1.32811 0.848464 0
M  V30 3442 C 326.43 1.23479 1.59991 0
M  V30 3443 C 326.751 -0.201853 1.93952 0
M  V30 3444 O 326.021 -1.12818 1.60153 0
M  V30 3445 H 324.601 0.454034 0.593179 0
M  V30 3446 H 327.263 1.66412 1.01455 0
M  V30 3447 H 326.359 1.82178 2.53412 0
M  V30 3448 N 326.66 -1.06551 1.16123 0
M  V30 3449 C 327.623 -2.12132 0.867906 0
M  V30 3450 C 328.623 -1.60224 -0.135944 0
M  V30 3451 O 329.813 -1.73943 0.0946422 0
M  V30 3452 C 326.945 -3.396 0.297419 0
M  V30 3453 H 328.138 -2.39586 1.80385 0
M  V30 3454 H 325.691 -1.22574 0.969812 0
M  V30 3455 H 326.426 -3.17794 -0.64633 0
M  V30 3456 H 326.211 -3.78581 1.02073 0
M  V30 3457 H 327.701 -4.17455 0.110052 0
M  V30 3458 N 328.138 -0.959301 -1.25041 0
M  V30 3459 C 329.085 -0.482057 -2.2571 0
M  V30 3460 C 330.055 0.467939 -1.59372 0
M  V30 3461 O 331.24 0.380159 -1.86974 0
M  V30 3462 C 328.38 0.229623 -3.44335 0
M  V30 3463 C 327.493 -0.758156 -4.25295 0
M  V30 3464 C 326.628 -0.0234403 -5.31195 0
M  V30 3465 C 325.667 -1.00184 -6.03846 0
M  V30 3466 N 324.804 -0.29769 -7.01469 0
M  V30 3467 H 329.644 -1.34538 -2.65901 0
M  V30 3468 H 327.181 -0.674592 -1.3072 0
M  V30 3469 H 329.139 0.658856 -4.11965 0
M  V30 3470 H 327.769 1.05696 -3.05005 0
M  V30 3471 H 326.821 -1.30586 -3.57284 0
M  V30 3472 H 328.133 -1.50458 -4.75567 0
M  V30 3473 H 327.287 0.464201 -6.04922 0
M  V30 3474 H 326.026 0.755741 -4.81809 0
M  V30 3475 H 325.031 -1.50044 -5.2893 0
M  V30 3476 H 326.256 -1.78133 -6.55321 0
M  V30 3477 H 324.202 0.462668 -6.54366 0
M  V30 3478 H 324.119 -0.983128 -7.4958 0
M  V30 3479 H 325.387 0.16826 -7.79318 0
M  V30 3480 N 329.616 1.39756 -0.72842 0
M  V30 3481 C 330.864 2.00248 -0.272946 0
M  V30 3482 C 331.185 1.58077 1.14178 0
M  V30 3483 O 330.455 0.826014 1.77634 0
M  V30 3484 H 329.035 0.740554 -0.0979247 0
M  V30 3485 H 331.697 1.70903 -0.936912 0
M  V30 3486 H 330.793 3.10495 -0.316142 0
M  V30 3487 N 331.094 0.475555 1.50254 0
M  V30 3488 C 332.057 -0.305016 2.27161 0
M  V30 3489 C 333.057 -0.916519 1.32123 0
M  V30 3490 O 334.247 -0.785003 1.5551 0
M  V30 3491 C 331.379 -1.43496 3.09227 0
M  V30 3492 H 332.572 0.369511 2.97615 0
M  V30 3493 H 330.125 0.229747 1.54602 0
M  V30 3494 H 330.86 -2.14441 2.43281 0
M  V30 3495 H 330.645 -1.00223 3.79075 0
M  V30 3496 H 332.135 -1.98548 3.67381 0
M  V30 3497 N 332.573 -1.56217 0.208337 0
M  V30 3498 C 333.819 -1.98998 -0.42086 0
M  V30 3499 C 334.174 -1.09331 -1.58317 0
M  V30 3500 O 333.467 -0.140466 -1.91084 0
M  V30 3501 C 333.661 -3.45441 -0.916797 0
M  V30 3502 C 333.49 -4.49273 0.195925 0
M  V30 3503 C 332.26 -5.00998 0.657956 0
M  V30 3504 C 334.458 -5.04294 1.00956 0
M  V30 3505 N 332.44 -5.88514 1.74712 0
M  V30 3506 C 333.811 -5.88607 1.94785 0
M  V30 3507 C 335.866 -4.86692 1.05049 0
M  V30 3508 C 334.569 -6.572 2.9237 0
M  V30 3509 C 336.595 -5.56034 2.01446 0
M  V30 3510 C 335.957 -6.40105 2.94016 0
M  V30 3511 H 332.056 -0.772574 -0.121048 0
M  V30 3512 H 334.64 -1.92101 0.317075 0
M  V30 3513 H 332.811 -3.52812 -1.62413 0
M  V30 3514 H 334.543 -3.75164 -1.51771 0
M  V30 3515 H 331.298 -4.72945 0.248912 0
M  V30 3516 H 331.722 -6.36975 2.2933 0
M  V30 3517 H 336.364 -4.21359 0.348759 0
M  V30 3518 H 334.082 -7.21723 3.63512 0
M  V30 3519 H 337.668 -5.44385 2.0527 0
M  V30 3520 H 336.548 -6.92816 3.6739 0
M  V30 3521 N 334.051 0.0651679 -1.57465 0
M  V30 3522 C 335.014 1.06117 -2.03155 0
M  V30 3523 C 336.014 1.31204 -0.929632 0
M  V30 3524 O 337.204 1.26813 -1.19432 0
M  V30 3525 C 334.336 2.4032 -2.41783 0
M  V30 3526 H 335.529 0.667231 -2.92383 0
M  V30 3527 H 333.082 0.311075 -1.53173 0
M  V30 3528 H 333.817 2.84532 -1.55601 0
M  V30 3529 H 333.602 2.23451 -3.22199 0
M  V30 3530 H 335.092 3.11898 -2.77685 0
M  V30 3531 N 335.529 1.53961 0.336706 0
M  V30 3532 C 336.776 1.71536 1.07618 0
M  V30 3533 C 337.104 0.482125 1.8843 0
M  V30 3534 O 336.359 -0.536142 1.88213 0
M  V30 3535 C 336.658 2.93493 2.03953 0
M  V30 3536 C 336.324 4.28811 1.39399 0
M  V30 3537 C 334.986 4.65602 1.21523 0
M  V30 3538 C 337.338 5.12844 0.929541 0
M  V30 3539 C 334.666 5.84037 0.558312 0
M  V30 3540 C 337.018 6.31951 0.286505 0
M  V30 3541 C 335.682 6.67432 0.0954869 0
M  V30 3542 H 334.952 0.627696 0.393801 0
M  V30 3543 H 337.599 1.88186 0.354715 0
M  V30 3544 H 335.904 2.71475 2.82504 0
M  V30 3545 H 337.601 3.04285 2.61174 0
M  V30 3546 H 334.191 3.99858 1.54311 0
M  V30 3547 H 338.375 4.84947 1.05548 0
M  V30 3548 H 333.631 6.10097 0.398995 0
M  V30 3549 H 337.805 6.96352 -0.0814376 0
M  V30 3550 H 335.432 7.59063 -0.415579 0
M  V30 3551 N 337.007 -0.598083 1.45811 0
M  V30 3552 C 338.253 -1.35882 1.50545 0
M  V30 3553 C 338.586 -1.93616 0.150445 0
M  V30 3554 O 337.861 -1.75604 -0.83628 0
M  V30 3555 C 338.144 -2.49966 2.59208 0
M  V30 3556 C 337.997 -1.97367 4.04186 0
M  V30 3557 C 339.316 -3.52068 2.64076 0
M  V30 3558 H 336.435 -0.492717 0.548087 0
M  V30 3559 H 339.077 -0.673319 1.77669 0
M  V30 3560 H 337.227 -3.08443 2.3621 0
M  V30 3561 H 338.899 -1.43466 4.38423 0
M  V30 3562 H 337.142 -1.283 4.14393 0
M  V30 3563 H 337.813 -2.79649 4.75921 0
M  V30 3564 H 340.289 -3.03448 2.84708 0
M  V30 3565 H 339.165 -4.2937 3.41954 0
M  V30 3566 H 339.426 -4.08304 1.69531 0
M  V30 3567 N 338.485 -1.33259 -0.841409 0
M  V30 3568 C 339.762 -1.15174 -1.58096 0
M  V30 3569 C 340.142 0.282858 -2.09196 0
M  V30 3570 O 339.49 1.28151 -1.89181 0
M  V30 3571 C 339.7 -2.1907 -2.71679 0
M  V30 3572 C 341.048 -2.53093 -3.40924 0
M  V30 3573 O 342.072 -2.17717 -2.81918 0
M  V30 3574 O 340.931 -3.1379 -4.47435 0
M  V30 3575 H 338.025 -0.445303 -0.696875 0
M  V30 3576 H 340.571 -1.44833 -0.884385 0
M  V30 3577 H 339.343 -3.15443 -2.31541 0
M  V30 3578 H 338.966 -1.90481 -3.49002 0
M  V30 3579 N 339.963 1.05934 -1.16686 0
M  V30 3580 C 341.211 1.78447 -0.948744 0
M  V30 3581 C 341.532 1.87813 0.524523 0
M  V30 3582 O 340.802 1.38945 1.38098 0
M  V30 3583 H 339.382 0.660971 -0.348033 0
M  V30 3584 H 342.044 1.27947 -1.47022 0
M  V30 3585 H 341.14 2.80394 -1.37061 0
M  V30 3586 N 341.441 0.965919 1.2453 0
M  V30 3587 C 342.857 0.67216 1.44756 0
M  V30 3588 C 343.057 -0.766609 1.86347 0
M  V30 3589 O 342.113 -1.5407 2.00047 0
M  V30 3590 C 343.426 1.65473 2.51076 0
M  V30 3591 C 344.974 1.66716 2.64905 0
M  V30 3592 C 345.449 2.63766 3.74421 0
M  V30 3593 N 346.94 2.62198 3.81846 0
M  V30 3594 C 347.675 3.33966 4.66106 0
M  V30 3595 N 347.171 4.15245 5.54566 0
M  V30 3596 N 348.964 3.22799 4.60171 0
M  V30 3597 H 341.115 1.89553 0.958293 0
M  V30 3598 H 343.378 0.815979 0.482579 0
M  V30 3599 H 343.084 2.68296 2.27399 0
M  V30 3600 H 342.958 1.4261 3.49202 0
M  V30 3601 H 345.345 0.646057 2.87941 0
M  V30 3602 H 345.426 1.93642 1.67142 0
M  V30 3603 H 345.07 3.6601 3.52135 0
M  V30 3604 H 345 2.34121 4.71694 0
M  V30 3605 H 347.491 2.032 3.18619 0
M  V30 3606 H 347.804 4.66898 6.15814 0
M  V30 3607 H 346.149 4.1934 5.54237 0
M  V30 3608 H 349.34 2.58764 3.90075 0
M  V30 3609 H 349.513 3.78994 5.25612 0
M  V30 3610 N 342.919 -1.39368 0.735821 0
M  V30 3611 C 344.335 -1.54204 0.411492 0
M  V30 3612 C 344.535 -1.70268 -1.07755 0
M  V30 3613 O 343.591 -1.70364 -1.86366 0
M  V30 3614 C 344.904 -2.75925 1.19523 0
M  V30 3615 C 346.452 -2.89761 1.18354 0
M  V30 3616 C 346.927 -4.14421 1.94986 0
M  V30 3617 N 348.418 -4.21462 1.92156 0
M  V30 3618 C 349.153 -5.16871 2.48258 0
M  V30 3619 N 348.649 -6.18063 3.13001 0
M  V30 3620 N 350.442 -5.09093 2.38287 0
M  V30 3621 H 342.593 -1.27189 1.70108 0
M  V30 3622 H 344.856 -0.616517 0.720147 0
M  V30 3623 H 344.562 -2.70401 2.24892 0
M  V30 3624 H 344.436 -3.68614 0.800222 0
M  V30 3625 H 346.823 -2.94777 0.137975 0
M  V30 3626 H 346.904 -1.98133 1.61793 0
M  V30 3627 H 346.548 -4.10166 2.99543 0
M  V30 3628 H 346.478 -5.05095 1.48953 0
M  V30 3629 H 348.969 -3.48979 1.44991 0
M  V30 3630 H 349.282 -6.87326 3.53275 0
M  V30 3631 H 347.627 -6.18448 3.17091 0
M  V30 3632 H 350.818 -4.28973 1.8735 0
M  V30 3633 H 350.991 -5.83272 2.82308 0
M  V30 3634 N 344.397 -0.483516 -1.5 0
M  V30 3635 C 345.36 0.292965 -2.2732 0
M  V30 3636 C 346.36 0.909499 -1.32608 0
M  V30 3637 O 347.55 0.776745 -1.55924 0
M  V30 3638 C 344.682 1.41854 -3.09984 0
M  V30 3639 H 345.875 -0.385289 -2.97415 0
M  V30 3640 H 343.428 -0.237942 -1.54478 0
M  V30 3641 H 344.163 2.13148 -2.44414 0
M  V30 3642 H 343.948 0.982114 -3.79601 0
M  V30 3643 H 345.438 1.96597 -3.68429 0
M  V30 3644 N 345.875 1.56104 -0.216619 0
M  V30 3645 C 346.785 2.23694 0.706982 0
M  V30 3646 C 347.801 1.24295 1.21765 0
M  V30 3647 O 348.977 1.57094 1.2603 0
M  V30 3648 C 346.042 2.8998 1.90033 0
M  V30 3649 C 345.103 4.04708 1.43213 0
M  V30 3650 C 344.336 4.67824 2.56859 0
M  V30 3651 O 344.559 4.29913 3.74874 0
M  V30 3652 O 343.493 5.56905 2.28343 0
M  V30 3653 H 347.319 3.03272 0.161235 0
M  V30 3654 H 344.904 1.49394 0.0136177 0
M  V30 3655 H 346.786 3.31837 2.59735 0
M  V30 3656 H 345.461 2.13365 2.43428 0
M  V30 3657 H 344.368 3.6743 0.70327 0
M  V30 3658 H 345.701 4.83051 0.944615 0
M  V30 3659 N 347.353 -0.0568162 1.57498 0
M  V30 3660 C 348.601 -0.751617 1.87604 0
M  V30 3661 C 348.922 -1.77351 0.81066 0
M  V30 3662 O 348.192 -1.95254 -0.159018 0
M  V30 3663 H 346.772 -0.280583 0.692302 0
M  V30 3664 H 349.434 -0.0293483 1.94878 0
M  V30 3665 H 348.53 -1.25852 2.856 0
M  V30 3666 N 348.832 -1.54138 -0.328536 0
M  V30 3667 C 350.057 -1.76378 -1.09112 0
M  V30 3668 C 350.482 -0.508596 -1.81094 0
M  V30 3669 O 349.84 0.539598 -1.73084 0
M  V30 3670 C 349.888 -2.95358 -2.06872 0
M  V30 3671 O 348.992 -2.66556 -3.14677 0
M  V30 3672 H 348.333 -0.584614 -0.314838 0
M  V30 3673 H 350.863 -2.01146 -0.374348 0
M  V30 3674 H 350.873 -3.22566 -2.4983 0
M  V30 3675 H 349.548 -3.86385 -1.5388 0
M  V30 3676 H 348.125 -2.50282 -2.7643 0
M  V30 3677 N 350.31 0.590341 -1.46126 0
M  V30 3678 C 351.273 1.68194 -1.55703 0
M  V30 3679 C 352.273 1.54808 -0.434868 0
M  V30 3680 O 353.463 1.59564 -0.698928 0
M  V30 3681 C 350.595 3.07575 -1.47005 0
M  V30 3682 H 351.788 1.61064 -2.52979 0
M  V30 3683 H 349.341 0.807541 -1.33823 0
M  V30 3684 H 350.076 3.20268 -0.509785 0
M  V30 3685 H 349.861 3.187 -2.28414 0
M  V30 3686 H 351.351 3.87055 -1.56776 0
M  V30 3687 N 351.788 1.33704 0.83433 0
M  V30 3688 C 353.035 1.25417 1.58987 0
M  V30 3689 C 353.363 -0.178869 1.93676 0
M  V30 3690 O 352.618 -1.13723 1.59265 0
M  V30 3691 C 352.917 2.07926 2.90692 0
M  V30 3692 C 352.583 3.57066 2.75345 0
M  V30 3693 C 351.245 3.97724 2.70867 0
M  V30 3694 C 353.597 4.51817 2.59828 0
M  V30 3695 C 350.925 5.31344 2.48778 0
M  V30 3696 C 353.277 5.85604 2.39272 0
M  V30 3697 C 351.941 6.25439 2.33199 0
M  V30 3698 H 351.211 0.458934 0.581774 0
M  V30 3699 H 353.858 1.65335 0.966261 0
M  V30 3700 H 352.163 1.608 3.57282 0
M  V30 3701 H 353.86 1.98868 3.48213 0
M  V30 3702 H 350.45 3.24785 2.79665 0
M  V30 3703 H 354.634 4.21311 2.62319 0
M  V30 3704 H 349.89 5.61241 2.42526 0
M  V30 3705 H 354.064 6.58623 2.2625 0
M  V30 3706 H 351.691 7.28914 2.15843 0
M  V30 3707 N 353.266 -1.05314 1.17247 0
M  V30 3708 C 354.512 -1.78557 0.961513 0
M  V30 3709 C 354.845 -1.87419 -0.508697 0
M  V30 3710 O 354.12 -1.37307 -1.37757 0
M  V30 3711 C 354.403 -3.22514 1.60176 0
M  V30 3712 C 354.256 -3.21673 3.14399 0
M  V30 3713 C 355.575 -4.20318 1.30463 0
M  V30 3714 H 352.694 -0.6482 0.350723 0
M  V30 3715 H 355.336 -1.23102 1.44727 0
M  V30 3716 H 353.486 -3.69867 1.18871 0
M  V30 3717 H 355.158 -2.82405 3.64753 0
M  V30 3718 H 353.401 -2.60048 3.47214 0
M  V30 3719 H 354.072 -4.23271 3.54324 0
M  V30 3720 H 356.548 -3.81454 1.66229 0
M  V30 3721 H 355.424 -5.19289 1.77848 0
M  V30 3722 H 355.685 -4.41526 0.22521 0
M  V30 3723 N 354.744 -0.972509 -1.24016 0
M  V30 3724 C 355.99 -0.637978 -1.92504 0
M  V30 3725 C 356.323 0.825383 -1.75787 0
M  V30 3726 O 355.598 1.59442 -1.11393 0
M  V30 3727 C 355.881 -1.01942 -3.45369 0
M  V30 3728 C 355.734 -2.53983 -3.71231 0
M  V30 3729 C 357.053 -0.55751 -4.36555 0
M  V30 3730 H 354.172 -0.233248 -0.699117 0
M  V30 3731 H 356.814 -1.21238 -1.46292 0
M  V30 3732 H 354.964 -0.530656 -3.84859 0
M  V30 3733 H 356.636 -3.10374 -3.41271 0
M  V30 3734 H 354.879 -2.96968 -3.16216 0
M  V30 3735 H 355.55 -2.75723 -4.78206 0
M  V30 3736 H 358.026 -0.977029 -4.04467 0
M  V30 3737 H 356.902 -0.85292 -5.42233 0
M  V30 3738 H 357.163 0.542328 -4.38761 0
M  V30 3739 N 356.222 1.38976 -0.743202 0
M  V30 3740 C 357.132 2.3434 -0.110399 0
M  V30 3741 C 358.148 1.58741 0.712559 0
M  V30 3742 O 359.324 1.9099 0.639125 0
M  V30 3743 C 356.389 3.37812 0.780012 0
M  V30 3744 C 355.45 4.29263 -0.0561319 0
M  V30 3745 C 354.683 5.27793 0.791875 0
M  V30 3746 O 354.906 5.33043 2.03031 0
M  V30 3747 O 353.84 6.01512 0.216183 0
M  V30 3748 H 357.666 2.90129 -0.897714 0
M  V30 3749 H 355.251 1.40643 -0.503966 0
M  V30 3750 H 357.133 4.01194 1.28923 0
M  V30 3751 H 355.808 2.84395 1.546 0
M  V30 3752 H 354.715 3.69076 -0.611056 0
M  V30 3753 H 356.048 4.85907 -0.784531 0
M  V30 3754 N 357.7 0.491464 1.49741 0
M  V30 3755 C 358.663 -0.280906 2.27472 0
M  V30 3756 C 359.663 -0.902454 1.33088 0
M  V30 3757 O 360.853 -0.768465 1.56334 0
M  V30 3758 C 357.985 -1.40209 3.10732 0
M  V30 3759 H 359.178 0.401056 2.97206 0
M  V30 3760 H 356.731 0.246131 1.5435 0
M  V30 3761 H 357.466 -2.11849 2.45541 0
M  V30 3762 H 357.251 -0.961969 3.80117 0
M  V30 3763 H 358.741 -1.9464 3.69466 0
M  V30 3764 N 359.178 -1.55987 0.224894 0
M  V30 3765 C 360.424 -1.98684 -0.406502 0
M  V30 3766 C 360.757 -1.11248 -1.59177 0
M  V30 3767 O 360.032 -0.170909 -1.93748 0
M  V30 3768 C 360.315 -3.50218 -0.837808 0
M  V30 3769 C 360.168 -4.48426 0.351332 0
M  V30 3770 C 361.487 -4.06243 -1.69278 0
M  V30 3771 H 358.606 -0.722337 -0.146283 0
M  V30 3772 H 361.248 -1.87255 0.321799 0
M  V30 3773 H 359.398 -3.60089 -1.45837 0
M  V30 3774 H 361.07 -4.50562 0.989526 0
M  V30 3775 H 359.313 -4.22159 0.998207 0
M  V30 3776 H 359.984 -5.52 0.00655905 0
M  V30 3777 H 362.46 -3.99337 -1.16914 0
M  V30 3778 H 361.336 -5.12581 -1.96346 0
M  V30 3779 H 361.597 -3.53332 -2.65723 0
M  V30 3780 N 360.656 0.0484629 -1.57525 0
M  V30 3781 C 361.933 0.777447 -1.79486 0
M  V30 3782 C 362.313 1.94597 -0.818251 0
M  V30 3783 O 361.661 2.28047 0.143767 0
M  V30 3784 C 361.871 1.22864 -3.26658 0
M  V30 3785 C 363.219 1.65251 -3.91123 0
M  V30 3786 O 364.243 1.32372 -3.3069 0
M  V30 3787 O 363.102 2.26207 -4.97486 0
M  V30 3788 H 360.196 0.374357 -0.737419 0
M  V30 3789 H 362.742 0.0267359 -1.69679 0
M  V30 3790 H 361.514 0.393589 -3.89316 0
M  V30 3791 H 361.137 2.03996 -3.41279 0
M  V30 3792 N 362.134 1.5431 0.320358 0
M  V30 3793 C 363.545 1.63872 0.894594 0
M  V30 3794 C 363.896 0.534847 1.88769 0
M  V30 3795 O 363.021 -0.331732 2.13842 0
M  V30 3796 C 363.616 2.97049 1.62934 0
M  V30 3797 C 362.175 3.08796 2.15226 0
M  V30 3798 C 361.322 2.59456 0.978671 0
M  V30 3799 H 364.273 1.58398 0.0978544 0
M  V30 3800 H 364.294 2.87388 2.49376 0
M  V30 3801 H 363.806 3.7737 0.906302 0
M  V30 3802 H 361.907 2.33156 2.90636 0
M  V30 3803 H 362.02 4.14649 2.40006 0
M  V30 3804 H 360.384 2.1543 1.35875 0
M  V30 3805 H 361.167 3.42237 0.269895 0
M  V30 3806 N 363.613 -0.582584 1.46437 0
M  V30 3807 C 364.859 -1.34278 1.51978 0
M  V30 3808 C 365.192 -1.93446 0.170973 0
M  V30 3809 O 364.467 -1.76481 -0.817608 0
M  V30 3810 C 364.75 -2.47203 2.61845 0
M  V30 3811 C 364.603 -1.93069 4.06257 0
M  V30 3812 C 365.922 -3.49247 2.67795 0
M  V30 3813 H 363.041 -0.486876 0.553282 0
M  V30 3814 H 365.683 -0.654437 1.78374 0
M  V30 3815 H 363.833 -3.0592 2.39469 0
M  V30 3816 H 365.505 -1.38808 4.3992 0
M  V30 3817 H 363.748 -1.23898 4.1573 0
M  V30 3818 H 364.419 -2.74586 4.7886 0
M  V30 3819 H 366.895 -3.00411 2.8791 0
M  V30 3820 H 365.771 -4.25719 3.46489 0
M  V30 3821 H 366.032 -4.06482 1.73852 0
M  V30 3822 N 365.091 -1.34144 -0.827227 0
M  V30 3823 C 366.339 -1.26009 -1.58007 0
M  V30 3824 C 366.66 0.170971 -1.94249 0
M  V30 3825 O 365.93 1.10256 -1.61927 0
M  V30 3826 H 364.51 -0.463414 -0.585881 0
M  V30 3827 H 367.172 -1.68005 -0.987951 0
M  V30 3828 H 366.268 -1.86187 -2.50481 0
M  V30 3829 N 366.569 1.04691 -1.17803 0
M  V30 3830 C 367.532 2.10724 -0.901545 0
M  V30 3831 C 368.532 1.6042 0.110437 0
M  V30 3832 O 369.722 1.7377 -0.122303 0
M  V30 3833 C 366.854 3.39084 -0.351409 0
M  V30 3834 H 368.047 2.36686 -1.84174 0
M  V30 3835 H 365.6 1.21015 -0.98919 0
M  V30 3836 H 366.335 3.18782 0.59569 0
M  V30 3837 H 366.12 3.76909 -1.08083 0
M  V30 3838 H 367.61 4.17227 -0.176451 0
M  V30 3839 N 368.047 0.979072 1.23499 0
M  V30 3840 C 369.295 0.645941 1.91499 0
M  V30 3841 C 369.616 -0.822948 1.76784 0
M  V30 3842 O 368.886 -1.58854 1.14639 0
M  V30 3843 H 367.466 0.235919 0.708767 0
M  V30 3844 H 370.128 1.2426 1.50152 0
M  V30 3845 H 369.224 0.896411 2.9895 0
M  V30 3846 N 369.525 -1.3858 0.750561 0
M  V30 3847 C 370.802 -1.94231 0.231009 0
M  V30 3848 C 371.182 -1.68611 -1.27018 0
M  V30 3849 O 370.53 -1.02296 -2.04323 0
M  V30 3850 C 370.74 -3.44123 0.581428 0
M  V30 3851 C 372.088 -4.2116 0.539389 0
M  V30 3852 O 373.112 -3.52391 0.519541 0
M  V30 3853 O 371.971 -5.43749 0.54765 0
M  V30 3854 H 369.065 -0.825639 0.0474263 0
M  V30 3855 H 371.611 -1.4799 0.830478 0
M  V30 3856 H 370.383 -3.56267 1.61833 0
M  V30 3857 H 370.006 -3.97573 -0.0462047 0
M  V30 3858 N 371.003 -0.499398 -1.49478 0
M  V30 3859 C 371.966 0.268838 -2.27618 0
M  V30 3860 C 372.966 0.895383 -1.33565 0
M  V30 3861 O 374.156 0.760164 -1.56739 0
M  V30 3862 C 371.288 1.38559 -3.11471 0
M  V30 3863 H 372.481 -0.416812 -2.96989 0
M  V30 3864 H 370.034 -0.254313 -1.54217 0
M  V30 3865 H 370.769 2.10544 -2.46661 0
M  V30 3866 H 370.554 0.941797 -3.80621 0
M  V30 3867 H 372.044 1.92678 -3.70493 0
M  V30 3868 N 372.481 1.55866 -0.233164 0
M  V30 3869 C 373.728 1.98603 0.395374 0
M  V30 3870 C 374.056 1.12105 1.58942 0
M  V30 3871 O 373.311 0.168656 1.94972 0
M  V30 3872 C 373.61 3.46856 0.861724 0
M  V30 3873 C 373.276 4.50348 -0.223066 0
M  V30 3874 C 371.938 4.78371 -0.521038 0
M  V30 3875 C 374.29 5.12355 -0.956124 0
M  V30 3876 C 371.618 5.6568 -1.55638 0
M  V30 3877 C 373.97 6.00786 -1.98089 0
M  V30 3878 C 372.634 6.27148 -2.28565 0
M  V30 3879 H 371.904 0.726739 0.144677 0
M  V30 3880 H 374.551 1.88491 -0.338114 0
M  V30 3881 H 372.856 3.5423 1.67418 0
M  V30 3882 H 374.553 3.77302 1.35809 0
M  V30 3883 H 371.143 4.28596 0.0193234 0
M  V30 3884 H 375.327 4.90765 -0.739166 0
M  V30 3885 H 370.583 5.84365 -1.798 0
M  V30 3886 H 374.757 6.4788 -2.55391 0
M  V30 3887 H 372.384 6.94597 -3.08932 0
M  V30 3888 N 373.959 -0.0401083 1.57549 0
M  V30 3889 C 374.922 -1.02871 2.04817 0
M  V30 3890 C 375.922 -1.29708 0.950388 0
M  V30 3891 O 377.112 -1.24897 1.21435 0
M  V30 3892 C 374.244 -2.36443 2.45576 0
M  V30 3893 H 375.437 -0.620631 2.93408 0
M  V30 3894 H 372.99 -0.286667 1.53649 0
M  V30 3895 H 373.725 -2.82021 1.60108 0
M  V30 3896 H 373.51 -2.18296 3.25713 0
M  V30 3897 H 375 -3.07441 2.82612 0
M  V30 3898 N 375.437 -1.54477 -0.31217 0
M  V30 3899 C 376.4 -1.83923 -1.36766 0
M  V30 3900 C 377.4 -0.711563 -1.44199 0
M  V30 3901 O 378.59 -0.979866 -1.44029 0
M  V30 3902 C 375.722 -2.0095 -2.75376 0
M  V30 3903 H 376.915 -2.78239 -1.11906 0
M  V30 3904 H 374.468 -1.46369 -0.548257 0
M  V30 3905 H 375.203 -1.08883 -3.05475 0
M  V30 3906 H 374.988 -2.83018 -2.71373 0
M  V30 3907 H 376.478 -2.2514 -3.51713 0
M  V30 3908 N 376.915 0.57481 -1.46744 0
M  V30 3909 C 378.163 1.33009 -1.52161 0
M  V30 3910 C 378.484 1.94185 -0.178092 0
M  V30 3911 O 377.754 1.7899 0.796196 0
M  V30 3912 H 376.334 0.493873 -0.560445 0
M  V30 3913 H 378.996 0.672589 -1.82927 0
M  V30 3914 H 378.092 2.13273 -2.27862 0
M  V30 3915 N 378.394 1.34581 0.820102 0
M  V30 3916 C 379.624 1.29991 1.6058 0
M  V30 3917 C 380.032 -0.127588 1.88769 0
M  V30 3918 O 379.375 -1.08595 1.48165 0
M  V30 3919 C 379.437 2.02548 2.9701 0
M  V30 3920 C 379.101 3.51794 2.91701 0
M  V30 3921 C 380.098 4.46647 2.66087 0
M  V30 3922 C 377.783 3.94249 3.11245 0
M  V30 3923 C 379.777 5.81929 2.60071 0
M  V30 3924 C 377.464 5.2963 3.04853 0
M  V30 3925 C 378.462 6.23282 2.793 0
M  V30 3926 O 378.15 7.56181 2.72847 0
M  V30 3927 H 377.882 0.448539 0.505756 0
M  V30 3928 H 380.436 1.77811 1.02822 0
M  V30 3929 H 378.666 1.49345 3.56697 0
M  V30 3930 H 380.355 1.91211 3.58041 0
M  V30 3931 H 381.121 4.15168 2.5072 0
M  V30 3932 H 377 3.21749 3.30149 0
M  V30 3933 H 380.544 6.54999 2.40046 0
M  V30 3934 H 376.441 5.60727 3.19774 0
M  V30 3935 H 377.209 7.6595 2.88553 0
M  V30 3936 N 379.872 -1.04064 1.18357 0
M  V30 3937 C 380.802 -2.14001 0.934113 0
M  V30 3938 C 381.783 -1.69616 -0.128186 0
M  V30 3939 O 382.968 -1.94185 0.0244093 0
M  V30 3940 C 380.098 -3.44253 0.459066 0
M  V30 3941 C 379.052 -4.02261 1.46185 0
M  V30 3942 C 378.378 -5.27992 0.844322 0
M  V30 3943 C 379.678 -4.38432 2.83856 0
M  V30 3944 H 381.372 -2.35127 1.85352 0
M  V30 3945 H 378.918 -1.12998 0.892604 0
M  V30 3946 H 380.871 -4.20522 0.271907 0
M  V30 3947 H 379.595 -3.22813 -0.495912 0
M  V30 3948 H 378.254 -3.28074 1.63595 0
M  V30 3949 H 377.902 -5.02862 -0.117845 0
M  V30 3950 H 377.602 -5.67765 1.51384 0
M  V30 3951 H 379.126 -6.06938 0.667693 0
M  V30 3952 H 380.54 -5.05688 2.70098 0
M  V30 3953 H 378.937 -4.89254 3.47491 0
M  V30 3954 H 380.007 -3.4826 3.37406 0
M  V30 3955 N 381.35 -0.985608 -1.22978 0
M  V30 3956 C 382.313 -0.535071 -2.22867 0
M  V30 3957 C 383.313 0.378123 -1.56291 0
M  V30 3958 O 384.503 0.171092 -1.73358 0
M  V30 3959 C 381.635 0.222702 -3.40172 0
M  V30 3960 H 382.828 -1.41835 -2.6424 0
M  V30 3961 H 380.381 -0.772042 -1.35901 0
M  V30 3962 H 381.116 1.12229 -3.04262 0
M  V30 3963 H 380.901 -0.43288 -3.89703 0
M  V30 3964 H 382.391 0.526335 -4.1427 0
M  V30 3965 N 382.828 1.3818 -0.7579 0
M  V30 3966 C 384.076 1.99624 -0.315361 0
M  V30 3967 C 384.397 1.60464 1.10799 0
M  V30 3968 O 383.667 0.863507 1.75842 0
M  V30 3969 H 382.247 0.73831 -0.113611 0
M  V30 3970 H 384.909 1.68878 -0.972952 0
M  V30 3971 H 384.005 3.09754 -0.381931 0
M  V30 3972 N 384.306 0.507319 1.49211 0
M  V30 3973 C 385.269 -0.256763 2.27757 0
M  V30 3974 C 386.269 -0.888287 1.34038 0
M  V30 3975 O 387.459 -0.751841 1.5714 0
M  V30 3976 C 384.591 -1.36905 3.12202 0
M  V30 3977 H 385.784 0.432557 2.96764 0
M  V30 3978 H 383.337 0.262488 1.5408 0
M  V30 3979 H 384.072 -2.09233 2.47775 0
M  V30 3980 H 383.857 -0.921599 3.81115 0
M  V30 3981 H 385.347 -1.9071 3.7151 0
M  V30 3982 N 385.784 -1.5574 0.241426 0
M  V30 3983 C 387.03 -1.99104 -0.385406 0
M  V30 3984 C 387.363 -1.1293 -1.57988 0
M  V30 3985 O 386.638 -0.191449 -1.93555 0
M  V30 3986 C 386.921 -3.51087 -0.800616 0
M  V30 3987 C 386.774 -4.48028 0.398874 0
M  V30 3988 C 388.093 -4.08015 -1.64959 0
M  V30 3989 H 385.212 -0.723848 -0.138614 0
M  V30 3990 H 387.854 -1.86903 0.341642 0
M  V30 3991 H 386.004 -3.61615 -1.4201 0
M  V30 3992 H 387.676 -4.49487 1.03726 0
M  V30 3993 H 385.919 -4.21077 1.04293 0
M  V30 3994 H 386.59 -5.51962 0.0651056 0
M  V30 3995 H 389.066 -4.00555 -1.12672 0
M  V30 3996 H 387.942 -5.14635 -1.90898 0
M  V30 3997 H 388.203 -3.56131 -2.61961 0
M  V30 3998 N 387.262 0.0317525 -1.57568 0
M  V30 3999 C 388.508 0.718712 -1.90279 0
M  V30 4000 C 388.863 1.73108 -0.839727 0
M  V30 4001 O 388.156 1.90997 0.15188 0
M  V30 4002 C 388.35 1.43167 -3.27472 0
M  V30 4003 C 388.179 0.489869 -4.47024 0
M  V30 4004 C 386.949 0.111909 -5.05176 0
M  V30 4005 C 389.147 -0.230592 -5.13783 0
M  V30 4006 N 387.129 -0.831427 -6.08244 0
M  V30 4007 C 388.5 -1.02968 -6.1139 0
M  V30 4008 C 390.555 -0.297821 -4.97008 0
M  V30 4009 C 389.258 -1.88982 -6.9403 0
M  V30 4010 C 391.284 -1.14507 -5.80209 0
M  V30 4011 C 390.646 -1.9321 -6.77384 0
M  V30 4012 H 386.745 0.237177 -0.745165 0
M  V30 4013 H 389.329 -0.0211267 -1.94689 0
M  V30 4014 H 387.5 2.14199 -3.23996 0
M  V30 4015 H 389.232 2.0708 -3.47707 0
M  V30 4016 H 385.987 0.473513 -4.71227 0
M  V30 4017 H 386.411 -1.29752 -6.6445 0
M  V30 4018 H 391.053 0.296346 -4.2176 0
M  V30 4019 H 388.771 -2.4948 -7.68626 0
M  V30 4020 H 392.357 -1.20059 -5.69278 0
M  V30 4021 H 391.237 -2.57711 -7.40645 0
M  V30 4022 N 388.74 1.54641 0.303973 0
M  V30 4023 C 389.988 1.73437 1.0375 0
M  V30 4024 C 390.309 0.521449 1.87899 0
M  V30 4025 O 389.579 -0.46432 1.90318 0
M  V30 4026 H 388.159 0.639518 0.386039 0
M  V30 4027 H 390.821 1.91988 0.335675 0
M  V30 4028 H 389.917 2.62235 1.69231 0
M  V30 4029 N 390.218 -0.567019 1.47046 0
M  V30 4030 C 391.148 -1.68482 1.61667 0
M  V30 4031 C 392.129 -1.6358 0.466418 0
M  V30 4032 O 393.314 -1.81354 0.694574 0
M  V30 4033 C 390.444 -3.07124 1.62148 0
M  V30 4034 C 389.398 -3.26867 2.76301 0
M  V30 4035 C 388.724 -4.66196 2.61849 0
M  V30 4036 C 390.024 -3.13186 4.17986 0
M  V30 4037 H 391.718 -1.56502 2.5524 0
M  V30 4038 H 389.264 -0.751486 1.22836 0
M  V30 4039 H 391.217 -3.8516 1.70968 0
M  V30 4040 H 389.941 -3.2004 0.651287 0
M  V30 4041 H 388.6 -2.51237 2.66975 0
M  V30 4042 H 388.248 -4.75898 1.62879 0
M  V30 4043 H 387.948 -4.80356 3.38425 0
M  V30 4044 H 389.472 -5.46379 2.72584 0
M  V30 4045 H 390.886 -3.81049 4.2834 0
M  V30 4046 H 389.283 -3.3886 4.95272 0
M  V30 4047 H 390.353 -2.10057 4.3704 0
M  V30 4048 N 391.696 -1.35014 -0.812953 0
M  V30 4049 C 393.107 -1.25035 -1.38648 0
M  V30 4050 C 393.458 0.119967 -1.95833 0
M  V30 4051 O 392.583 1.02069 -1.90816 0
M  V30 4052 C 393.178 -2.26394 -2.52054 0
M  V30 4053 C 391.737 -2.20175 -3.05287 0
M  V30 4054 C 390.884 -2.12451 -1.78213 0
M  V30 4055 H 393.835 -1.46235 -0.616516 0
M  V30 4056 H 393.856 -1.88672 -3.30429 0
M  V30 4057 H 393.368 -3.26116 -2.10404 0
M  V30 4058 H 391.469 -1.23841 -3.51417 0
M  V30 4059 H 391.582 -3.11863 -3.63701 0
M  V30 4060 H 389.946 -1.58328 -1.9951 0
M  V30 4061 H 390.729 -3.14024 -1.38723 0
M  V30 4062 N 393.175 1.03435 -1.18907 0
M  V30 4063 C 394.421 1.77005 -0.989798 0
M  V30 4064 C 394.754 1.88205 0.478816 0
M  V30 4065 O 394.029 1.39481 1.35556 0
M  V30 4066 C 394.312 3.19925 -1.65287 0
M  V30 4067 C 394.165 3.1663 -3.19477 0
M  V30 4068 C 395.484 4.18189 -1.37134 0
M  V30 4069 H 392.603 0.642538 -0.360991 0
M  V30 4070 H 395.245 1.20784 -1.46667 0
M  V30 4071 H 393.395 3.67929 -1.24741 0
M  V30 4072 H 395.067 2.76567 -3.692 0
M  V30 4073 H 393.31 2.54491 -3.51307 0
M  V30 4074 H 393.981 4.1758 -3.61013 0
M  V30 4075 H 396.457 3.78761 -1.72276 0
M  V30 4076 H 395.333 5.16394 -1.86087 0
M  V30 4077 H 395.594 4.41112 -0.295424 0
M  V30 4078 N 394.653 0.992116 1.22453 0
M  V30 4079 C 395.563 0.55065 2.28046 0
M  V30 4080 C 396.579 -0.400189 1.69335 0
M  V30 4081 O 397.755 -0.267215 1.99619 0
M  V30 4082 C 394.82 -0.128496 3.46462 0
M  V30 4083 C 393.881 0.865208 4.20491 0
M  V30 4084 C 393.114 0.218377 5.33253 0
M  V30 4085 O 393.337 -0.987894 5.6178 0
M  V30 4086 O 392.271 0.922845 5.94783 0
M  V30 4087 H 396.097 1.4291 2.67975 0
M  V30 4088 H 393.682 0.760326 1.28606 0
M  V30 4089 H 395.564 -0.508947 4.18315 0
M  V30 4090 H 394.239 -0.981526 3.0846 0
M  V30 4091 H 393.146 1.29658 3.50913 0
M  V30 4092 H 394.479 1.68741 4.62371 0
M  V30 4093 N 396.131 -1.37776 0.765217 0
M  V30 4094 C 397.041 -2.34135 0.147666 0
M  V30 4095 C 398.057 -1.59854 -0.687215 0
M  V30 4096 O 399.233 -1.91983 -0.608659 0
M  V30 4097 C 396.298 -3.3901 -0.72617 0
M  V30 4098 C 395.359 -4.2912 0.124417 0
M  V30 4099 C 394.592 -5.28986 -0.707807 0
M  V30 4100 O 394.815 -5.36205 -1.94525 0
M  V30 4101 O 393.749 -6.01779 -0.12046 0
M  V30 4102 H 397.575 -2.88664 0.943758 0
M  V30 4103 H 395.16 -1.39824 0.526277 0
M  V30 4104 H 397.042 -4.03195 -1.22524 0
M  V30 4105 H 395.717 -2.86819 -1.50056 0
M  V30 4106 H 394.624 -3.68057 0.669696 0
M  V30 4107 H 395.957 -4.84598 0.861736 0
M  V30 4108 N 397.609 -0.515225 -1.4894 0
M  V30 4109 C 399.025 -0.172099 -1.58669 0
M  V30 4110 C 399.225 1.32405 -1.51892 0
M  V30 4111 O 398.281 2.10116 -1.40027 0
M  V30 4112 C 399.594 -0.761533 -2.90897 0
M  V30 4113 C 401.142 -0.728926 -3.04394 0
M  V30 4114 C 401.617 -1.29667 -4.39261 0
M  V30 4115 N 403.108 -1.25799 -4.4579 0
M  V30 4116 C 403.843 -1.66733 -5.48623 0
M  V30 4117 N 403.339 -2.15327 -6.58488 0
M  V30 4118 N 405.132 -1.58061 -5.39419 0
M  V30 4119 H 397.283 -1.48778 -1.51588 0
M  V30 4120 H 399.546 -0.617968 -0.718901 0
M  V30 4121 H 399.252 -1.81136 -3.01468 0
M  V30 4122 H 399.126 -0.230106 -3.76497 0
M  V30 4123 H 401.513 0.312098 -2.93445 0
M  V30 4124 H 401.594 -1.29766 -2.20442 0
M  V30 4125 H 401.238 -2.33655 -4.50963 0
M  V30 4126 H 401.168 -0.703752 -5.21876 0
M  V30 4127 H 403.659 -0.902102 -3.66975 0
M  V30 4128 H 403.972 -2.44594 -7.33071 0
M  V30 4129 H 402.317 -2.19311 -6.59491 0
M  V30 4130 H 405.508 -1.19906 -4.52482 0
M  V30 4131 H 405.681 -1.90284 -6.19432 0
M  V30 4132 N 399.087 1.5561 -0.249682 0
M  V30 4133 C 400.017 2.24477 0.642826 0
M  V30 4134 C 400.998 1.22601 1.17911 0
M  V30 4135 O 402.183 1.5126 1.21795 0
M  V30 4136 C 399.313 2.94638 1.83863 0
M  V30 4137 C 398.267 4.03227 1.435 0
M  V30 4138 C 397.593 4.60828 2.71186 0
M  V30 4139 C 398.893 5.18796 0.604002 0
M  V30 4140 H 400.587 2.99321 0.0685625 0
M  V30 4141 H 398.133 1.43965 0.0315363 0
M  V30 4142 H 400.086 3.41517 2.46868 0
M  V30 4143 H 398.81 2.17287 2.43832 0
M  V30 4144 H 397.469 3.57121 0.828275 0
M  V30 4145 H 397.117 3.80174 3.29358 0
M  V30 4146 H 396.817 5.34132 2.44901 0
M  V30 4147 H 398.341 5.10442 3.35084 0
M  V30 4148 H 399.755 5.61883 1.13842 0
M  V30 4149 H 398.152 5.98506 0.437097 0
M  V30 4150 H 399.222 4.83384 -0.383147 0
M  V30 4151 N 400.565 -0.0233959 1.57583 0
M  V30 4152 C 401.981 -0.379134 1.55031 0
M  V30 4153 C 402.181 -1.76255 0.976548 0
M  V30 4154 O 401.237 -2.45266 0.600078 0
M  V30 4155 C 402.55 -0.275792 2.99433 0
M  V30 4156 C 404.098 -0.352458 3.11009 0
M  V30 4157 C 404.573 -0.278501 4.57152 0
M  V30 4158 N 406.064 -0.337123 4.61972 0
M  V30 4159 C 406.799 -0.302876 5.726 0
M  V30 4160 N 406.295 -0.220589 6.92449 0
M  V30 4161 N 408.088 -0.353023 5.6099 0
M  V30 4162 H 400.239 0.881869 1.93227 0
M  V30 4163 H 402.502 0.335867 0.886509 0
M  V30 4164 H 402.208 0.675108 3.4516 0
M  V30 4165 H 402.082 -1.06721 3.61788 0
M  V30 4166 H 404.469 -1.29379 2.65226 0
M  V30 4167 H 404.55 0.468409 2.51475 0
M  V30 4168 H 404.194 0.659189 5.03604 0
M  V30 4169 H 404.124 -1.11755 5.14605 0
M  V30 4170 H 406.615 -0.403002 3.75745 0
M  V30 4171 H 406.928 -0.199713 7.72542 0
M  V30 4172 H 405.273 -0.186555 6.9475 0
M  V30 4173 H 408.464 -0.415339 4.66254 0
M  V30 4174 H 408.637 -0.322866 6.47195 0
M  V30 4175 N 402.043 -1.548 -0.295768 0
M  V30 4176 C 402.973 -1.89115 -1.36959 0
M  V30 4177 C 403.954 -0.75059 -1.52644 0
M  V30 4178 O 405.139 -1.00678 -1.66065 0
M  V30 4179 C 402.269 -2.14307 -2.73295 0
M  V30 4180 C 401.223 -3.30151 -2.72368 0
M  V30 4181 C 400.549 -3.40772 -4.12042 0
M  V30 4182 C 401.849 -4.67126 -2.33646 0
M  V30 4183 H 403.543 -2.79053 -1.08488 0
M  V30 4184 H 401.089 -1.34266 -0.520443 0
M  V30 4185 H 403.042 -2.36898 -3.48507 0
M  V30 4186 H 401.766 -1.21145 -3.03301 0
M  V30 4187 H 400.425 -3.0749 -1.99613 0
M  V30 4188 H 400.073 -2.45117 -4.39234 0
M  V30 4189 H 399.773 -4.18645 -4.12322 0
M  V30 4190 H 401.297 -3.6563 -4.89027 0
M  V30 4191 H 402.711 -4.89414 -2.98575 0
M  V30 4192 H 401.108 -5.47751 -2.45129 0
M  V30 4193 H 402.178 -4.67489 -1.28772 0
M  V30 4194 N 403.521 0.559213 -1.47345 0
M  V30 4195 C 404.484 1.64854 -1.59235 0
M  V30 4196 C 405.484 1.53851 -0.467607 0
M  V30 4197 O 406.674 1.58045 -0.732617 0
M  V30 4198 C 403.806 3.04388 -1.53496 0
M  V30 4199 H 404.999 1.55662 -2.56339 0
M  V30 4200 H 402.552 0.778973 -1.35505 0
M  V30 4201 H 403.287 3.19115 -0.577604 0
M  V30 4202 H 403.072 3.13783 -2.35123 0
M  V30 4203 H 404.562 3.83642 -1.6495 0
M  V30 4204 N 404.999 1.35443 0.805782 0
M  V30 4205 C 405.947 1.28465 1.93906 0
M  V30 4206 C 406.941 0.17943 1.68447 0
M  V30 4207 O 408.147 0.345459 1.76654 0
M  V30 4208 H 404.522 0.399528 0.637088 0
M  V30 4209 H 406.493 2.24206 1.96912 0
M  V30 4210 C 405.242 1.07432 3.30687 0
M  V30 4211 H 404.565 1.91716 3.50835 0
M  V30 4212 H 406.005 1.06591 4.10383 0
M  V30 4213 C 404.464 -0.22179 3.36169 0
M  V30 4214 O 404.994 -1.21731 3.82811 0
M  V30 4215 N 403.2 -0.260841 2.89427 0
M  V30 4216 H 402.747 0.549884 2.51663 0
M  V30 4217 H 402.705 -1.12777 2.93477 0
M  V30 4218 N 406.477 -1.02803 1.19454 0
M  V30 4219 C 407.407 -2.12999 0.956758 0
M  V30 4220 C 408.388 -1.69743 -0.110188 0
M  V30 4221 O 409.573 -1.94148 0.0450038 0
M  V30 4222 C 406.703 -3.43746 0.495553 0
M  V30 4223 C 405.657 -4.00688 1.50443 0
M  V30 4224 C 404.983 -5.27067 0.900275 0
M  V30 4225 C 406.283 -4.35397 2.8849 0
M  V30 4226 H 407.977 -2.33148 1.87836 0
M  V30 4227 H 405.523 -1.12045 0.904539 0
M  V30 4228 H 407.476 -4.2021 0.316493 0
M  V30 4229 H 406.2 -3.23321 -0.461646 0
M  V30 4230 H 404.859 -3.2632 1.67065 0
M  V30 4231 H 404.507 -5.02959 -0.064503 0
M  V30 4232 H 404.207 -5.66127 1.57397 0
M  V30 4233 H 405.731 -6.06196 0.73203 0
M  V30 4234 H 407.145 -5.02795 2.75446 0
M  V30 4235 H 405.542 -4.85541 3.52661 0
M  V30 4236 H 406.612 -3.44662 3.41081 0
M  V30 4237 N 407.956 -0.998596 -1.21925 0
M  V30 4238 C 408.886 -0.573688 -2.26343 0
M  V30 4239 C 409.867 0.402296 -1.65274 0
M  V30 4240 O 411.052 0.291683 -1.91997 0
M  V30 4241 C 408.182 0.106839 -3.47136 0
M  V30 4242 C 407.136 -0.788269 -4.20678 0
M  V30 4243 C 406.462 0.0254927 -5.34694 0
M  V30 4244 C 407.762 -2.08784 -4.78755 0
M  V30 4245 H 409.456 -1.44651 -2.62138 0
M  V30 4246 H 407.002 -0.696975 -1.26009 0
M  V30 4247 H 408.955 0.415531 -4.19346 0
M  V30 4248 H 407.679 1.01424 -3.10452 0
M  V30 4249 H 406.338 -1.08069 -3.50309 0
M  V30 4250 H 405.986 0.933989 -4.94253 0
M  V30 4251 H 405.686 -0.570437 -5.84825 0
M  V30 4252 H 407.21 0.328147 -6.09718 0
M  V30 4253 H 408.624 -1.84272 -5.42878 0
M  V30 4254 H 407.021 -2.63307 -5.39249 0
M  V30 4255 H 408.091 -2.76284 -3.98491 0
M  V30 4256 N 409.434 1.37368 -0.772513 0
M  V30 4257 C 410.682 1.99279 -0.336516 0
M  V30 4258 C 411.003 1.6163 1.09091 0
M  V30 4259 O 410.273 0.882109 1.74916 0
M  V30 4260 H 408.853 0.737063 -0.121435 0
M  V30 4261 H 411.515 1.67836 -0.990809 0
M  V30 4262 H 410.611 3.09332 -0.414763 0
M  V30 4263 N 410.912 0.523116 1.48665 0
M  V30 4264 C 411.875 -0.232592 2.28017 0
M  V30 4265 C 412.875 -0.874021 1.34972 0
M  V30 4266 O 414.065 -0.735132 1.57929 0
M  V30 4267 C 411.197 -1.33586 3.13636 0
M  V30 4268 H 412.39 0.464008 2.96289 0
M  V30 4269 H 409.943 0.278816 1.53793 0
M  V30 4270 H 410.678 -2.06593 2.4998 0
M  V30 4271 H 410.463 -0.881125 3.82071 0
M  V30 4272 H 411.953 -1.86759 3.73511 0
M  V30 4273 N 412.39 -1.55475 0.257931 0
M  V30 4274 C 413.615 -2.04064 -0.370488 0
M  V30 4275 C 414.04 -1.13565 -1.49948 0
M  V30 4276 O 413.398 -0.130781 -1.80828 0
M  V30 4277 C 413.446 -3.50554 -0.845237 0
M  V30 4278 O 412.55 -3.63173 -1.95394 0
M  V30 4279 H 411.891 -0.659257 -0.0792243 0
M  V30 4280 H 414.421 -2.00903 0.387212 0
M  V30 4281 H 414.431 -3.91588 -1.14555 0
M  V30 4282 H 413.106 -4.15896 -0.0191259 0
M  V30 4283 H 411.683 -3.34039 -1.65748 0
M  V30 4284 N 413.868 0.0150385 -1.57593 0
M  V30 4285 C 415.114 0.704043 -1.90187 0
M  V30 4286 C 415.447 1.74249 -0.857366 0
M  V30 4287 O 414.722 1.94092 0.125843 0
M  V30 4288 C 415.005 1.36087 -3.33395 0
M  V30 4289 C 414.858 0.334981 -4.48551 0
M  V30 4290 C 416.177 2.29112 -3.7576 0
M  V30 4291 H 413.296 0.254475 -0.691673 0
M  V30 4292 H 415.938 -0.0331678 -1.89971 0
M  V30 4293 H 414.088 1.98922 -3.3371 0
M  V30 4294 H 415.76 -0.292534 -4.60372 0
M  V30 4295 H 414.003 -0.344325 -4.32431 0
M  V30 4296 H 414.674 0.833316 -5.45674 0
M  V30 4297 H 417.15 1.76308 -3.76902 0
M  V30 4298 H 416.026 2.72043 -4.76743 0
M  V30 4299 H 416.287 3.16385 -3.08793 0
M  V30 4300 N 415.346 1.54954 0.287554 0
M  V30 4301 C 416.309 1.86076 1.33823 0
M  V30 4302 C 417.309 0.734414 1.43049 0
M  V30 4303 O 418.499 1.00266 1.42452 0
M  V30 4304 C 415.631 2.05305 2.72144 0
M  V30 4305 H 416.824 2.79984 1.07465 0
M  V30 4306 H 414.377 1.47223 0.524902 0
M  V30 4307 H 415.112 1.1373 3.03704 0
M  V30 4308 H 414.897 2.873 2.66836 0
M  V30 4309 H 416.387 2.30706 3.48087 0
M  V30 4310 N 416.824 -0.551391 1.4764 0
M  V30 4311 C 417.787 -1.64007 1.60107 0
M  V30 4312 C 418.787 -1.53601 0.47576 0
M  V30 4313 O 419.977 -1.57655 0.740988 0
M  V30 4314 C 417.109 -3.03569 1.55108 0
M  V30 4315 H 418.302 -1.543 2.57161 0
M  V30 4316 H 415.855 -0.771776 1.35917 0
M  V30 4317 H 416.59 -3.18804 0.594519 0
M  V30 4318 H 416.375 -3.12532 2.36783 0
M  V30 4319 H 417.865 -3.82762 1.66982 0
M  V30 4320 N 418.302 -1.35869 -0.798587 0
M  V30 4321 C 419.527 -1.32883 -1.59238 0
M  V30 4322 C 419.952 0.0894587 -1.87887 0
M  V30 4323 O 419.31 1.05869 -1.47178 0
M  V30 4324 C 419.358 -2.14892 -2.89575 0
M  V30 4325 O 418.462 -1.53512 -3.82763 0
M  V30 4326 H 417.803 -0.455236 -0.48338 0
M  V30 4327 H 420.333 -1.79024 -0.990539 0
M  V30 4328 H 420.343 -2.27139 -3.38928 0
M  V30 4329 H 419.018 -3.17998 -2.68049 0
M  V30 4330 H 417.595 -1.50153 -3.41334 0
M  V30 4331 N 419.78 1.02168 -1.19998 0
M  V30 4332 C 421.196 1.27969 -0.953737 0
M  V30 4333 C 421.396 1.98079 0.369703 0
M  V30 4334 O 420.452 2.27306 1.09947 0
M  V30 4335 C 421.765 2.11971 -2.13281 0
M  V30 4336 C 423.313 2.25255 -2.17323 0
M  V30 4337 C 423.788 3.12632 -3.34702 0
M  V30 4338 N 425.279 3.2022 -3.34684 0
M  V30 4339 C 426.014 3.88039 -4.22153 0
M  V30 4340 N 425.51 4.58027 -5.19791 0
M  V30 4341 N 427.303 3.84511 -4.10009 0
M  V30 4342 H 419.454 0.550794 -2.05134 0
M  V30 4343 H 421.717 0.305683 -0.897364 0
M  V30 4344 H 421.423 1.67785 -3.09097 0
M  V30 4345 H 421.297 3.12699 -2.10949 0
M  V30 4346 H 423.684 2.68667 -1.22073 0
M  V30 4347 H 423.765 1.24053 -2.23706 0
M  V30 4348 H 423.409 2.69926 -4.30235 0
M  V30 4349 H 423.339 4.13909 -3.25556 0
M  V30 4350 H 425.83 2.70382 -2.64012 0
M  V30 4351 H 426.143 5.07429 -5.82868 0
M  V30 4352 H 424.488 4.56869 -5.23733 0
M  V30 4353 H 427.679 3.28978 -3.33003 0
M  V30 4354 H 427.852 4.3709 -4.78389 0
M  V30 4355 N 421.258 1.00505 1.21394 0
M  V30 4356 C 422.506 0.686415 1.90086 0
M  V30 4357 C 422.827 -0.785264 1.7849 0
M  V30 4358 O 422.097 -1.56387 1.17983 0
M  V30 4359 H 420.677 0.2509 0.703604 0
M  V30 4360 H 423.339 1.27417 1.47482 0
M  V30 4361 H 422.435 0.959621 2.96981 0
M  V30 4362 N 422.737 -1.36956 0.779787 0
M  V30 4363 C 424.014 -1.93697 0.272156 0
M  V30 4364 C 424.394 -1.71267 -1.23413 0
M  V30 4365 O 423.742 -1.06607 -2.02107 0
M  V30 4366 C 423.952 -3.42812 0.654291 0
M  V30 4367 C 425.3 -4.19921 0.628602 0
M  V30 4368 O 426.324 -3.51209 0.594172 0
M  V30 4369 O 425.183 -5.42465 0.662864 0
M  V30 4370 H 422.277 -0.824447 0.0649286 0
M  V30 4371 H 424.823 -1.46196 0.861682 0
M  V30 4372 H 423.595 -3.52754 1.69353 0
M  V30 4373 H 423.218 -3.97582 0.0381369 0
M  V30 4374 N 424.215 -0.530993 -1.48385 0
M  V30 4375 C 425.165 0.251092 -2.26613 0
M  V30 4376 C 426.149 0.908977 -1.32765 0
M  V30 4377 O 427.341 0.811616 -1.57295 0
M  V30 4378 C 424.47 1.29677 -3.17866 0
M  V30 4379 C 423.556 0.643627 -4.19188 0
M  V30 4380 N 423.947 -0.271223 -5.05072 0
M  V30 4381 C 422.245 0.900711 -4.3681 0
M  V30 4382 C 422.946 -0.648109 -5.78078 0
M  V30 4383 N 421.922 -0.00895987 -5.43599 0
M  V30 4384 H 425.724 -0.452702 -2.90393 0
M  V30 4385 H 423.238 -0.349091 -1.58604 0
M  V30 4386 H 425.235 1.87079 -3.72568 0
M  V30 4387 H 423.895 2.00193 -2.55642 0
M  V30 4388 H 424.906 -0.643883 -5.13882 0
M  V30 4389 H 421.583 1.59636 -3.85775 0
M  V30 4390 H 422.973 -1.39833 -6.57188 0
M  V30 4391 N 425.693 1.55336 -0.266172 0
M  V30 4392 C 426.603 2.2583 0.635458 0
M  V30 4393 C 427.619 1.28106 1.17749 0
M  V30 4394 O 428.795 1.61024 1.20968 0
M  V30 4395 C 425.86 2.95879 1.80712 0
M  V30 4396 C 424.921 4.09059 1.30265 0
M  V30 4397 C 424.154 4.75759 2.41846 0
M  V30 4398 O 424.377 4.41622 3.61007 0
M  V30 4399 O 423.311 5.63888 2.1051 0
M  V30 4400 H 427.137 3.03631 0.0646693 0
M  V30 4401 H 424.722 1.49361 -0.0339177 0
M  V30 4402 H 426.604 3.39932 2.49047 0
M  V30 4403 H 425.279 2.21002 2.36516 0
M  V30 4404 H 424.186 3.69482 0.586019 0
M  V30 4405 H 425.519 4.85811 0.790458 0
M  V30 4406 N 427.171 -0.0066808 1.57599 0
M  V30 4407 C 428.419 -0.691552 1.899 0
M  V30 4408 C 428.74 -1.74682 0.866672 0
M  V30 4409 O 428.01 -1.95661 -0.0968189 0
M  V30 4410 H 426.59 -0.258416 0.700878 0
M  V30 4411 H 429.252 0.0326655 1.94873 0
M  V30 4412 H 428.348 -1.16702 2.8946 0
M  V30 4413 N 428.649 -1.55105 -0.279332 0
M  V30 4414 C 429.612 -1.86783 -1.32834 0
M  V30 4415 C 430.612 -0.74199 -1.42657 0
M  V30 4416 O 431.802 -1.0102 -1.41918 0
M  V30 4417 C 428.934 -2.06746 -2.71052 0
M  V30 4418 H 430.127 -2.8055 -1.05979 0
M  V30 4419 H 427.68 -1.47499 -0.517087 0
M  V30 4420 H 428.415 -1.15339 -3.03097 0
M  V30 4421 H 428.2 -2.88711 -2.65309 0
M  V30 4422 H 429.69 -2.32549 -3.46858 0
M  V30 4423 N 430.127 0.543554 -1.4793 0
M  V30 4424 C 431.538 1.12561 -1.48953 0
M  V30 4425 C 431.889 1.94578 -0.251754 0
M  V30 4426 O 431.014 2.0665 0.642255 0
M  V30 4427 C 431.609 2.04801 -2.69892 0
M  V30 4428 C 430.168 2.58251 -2.73831 0
M  V30 4429 C 429.315 1.34918 -2.42265 0
M  V30 4430 H 432.266 0.32947 -1.55242 0
M  V30 4431 H 432.287 2.88886 -2.47639 0
M  V30 4432 H 431.799 1.4508 -3.59963 0
M  V30 4433 H 429.9 3.21732 -1.87934 0
M  V30 4434 H 430.013 2.98312 -3.74895 0
M  V30 4435 H 428.377 1.66046 -1.93134 0
M  V30 4436 H 429.16 0.769693 -3.3456 0
M  V30 4437 N 431.605 1.3629 0.791371 0
M  V30 4438 C 432.835 1.33368 1.57786 0
M  V30 4439 C 433.243 -0.0875188 1.88997 0
M  V30 4440 O 432.586 -1.05427 1.50435 0
M  V30 4441 C 432.648 2.08802 2.92646 0
M  V30 4442 C 432.312 3.57903 2.84174 0
M  V30 4443 C 433.309 4.52191 2.56553 0
M  V30 4444 C 430.994 4.00762 3.02812 0
M  V30 4445 C 432.988 5.87315 2.47669 0
M  V30 4446 C 430.675 5.35977 2.93551 0
M  V30 4447 C 431.673 6.29066 2.66017 0
M  V30 4448 O 431.361 7.61798 2.56746 0
M  V30 4449 H 431.093 0.459166 0.496128 0
M  V30 4450 H 433.647 1.79952 0.990269 0
M  V30 4451 H 431.877 1.56878 3.53449 0
M  V30 4452 H 433.566 1.98762 3.53904 0
M  V30 4453 H 434.332 4.20393 2.41858 0
M  V30 4454 H 430.211 3.2868 3.2325 0
M  V30 4455 H 433.755 6.59943 2.26099 0
M  V30 4456 H 429.652 5.67384 3.07808 0
M  V30 4457 H 430.42 7.71898 2.72242 0
M  V30 4458 N 433.083 -1.0153 1.20538 0
M  V30 4459 C 434.499 -1.27461 0.96051 0
M  V30 4460 C 434.699 -1.98273 -0.359193 0
M  V30 4461 O 433.755 -2.27886 -1.0874 0
M  V30 4462 C 435.068 -2.10837 2.14402 0
M  V30 4463 C 436.616 -2.24099 2.18515 0
M  V30 4464 C 437.091 -3.10852 3.36355 0
M  V30 4465 N 438.582 -3.18441 3.36377 0
M  V30 4466 C 439.317 -3.85795 4.24205 0
M  V30 4467 N 438.813 -4.55264 5.22213 0
M  V30 4468 N 440.606 -3.82331 4.12043 0
M  V30 4469 H 432.757 -0.539907 2.05423 0
M  V30 4470 H 435.02 -0.30092 0.898972 0
M  V30 4471 H 434.726 -1.66144 3.09983 0
M  V30 4472 H 434.6 -3.11576 2.12604 0
M  V30 4473 H 436.987 -2.68016 1.23497 0
M  V30 4474 H 437.068 -1.22865 2.24361 0
M  V30 4475 H 436.712 -2.6764 4.31661 0
M  V30 4476 H 436.642 -4.12177 3.27746 0
M  V30 4477 H 439.133 -2.68978 2.65442 0
M  V30 4478 H 439.446 -5.04331 5.85551 0
M  V30 4479 H 437.791 -4.54085 5.26148 0
M  V30 4480 H 440.982 -3.27207 3.34743 0
M  V30 4481 H 441.155 -4.34547 4.807 0
M  V30 4482 N 434.561 -1.01147 -1.20859 0
M  V30 4483 C 435.471 -0.58686 -2.27141 0
M  V30 4484 C 436.487 0.373198 -1.69951 0
M  V30 4485 O 437.663 0.235423 -2.00019 0
M  V30 4486 C 434.728 0.0733602 -3.46622 0
M  V30 4487 C 433.789 -0.931995 -4.19061 0
M  V30 4488 C 433.022 -0.303186 -5.32838 0
M  V30 4489 O 433.245 0.898395 -5.63281 0
M  V30 4490 O 432.179 -1.01735 -5.9324 0
M  V30 4491 H 436.005 -1.47155 -2.65667 0
M  V30 4492 H 433.59 -0.780689 -1.2738 0
M  V30 4493 H 435.472 0.442333 -4.19072 0
M  V30 4494 H 434.147 0.932329 -3.09983 0
M  V30 4495 H 433.054 -1.35224 -3.48805 0
M  V30 4496 H 434.387 -1.76076 -4.59628 0
M  V30 4497 N 436.039 1.36541 -0.78704 0
M  V30 4498 C 437.316 1.9355 -0.282424 0
M  V30 4499 C 437.696 1.71919 1.22503 0
M  V30 4500 O 437.044 1.07677 2.01539 0
M  V30 4501 C 437.254 3.4246 -0.672462 0
M  V30 4502 C 438.602 4.19582 -0.650863 0
M  V30 4503 O 439.626 3.50889 -0.612789 0
M  V30 4504 O 438.485 5.42106 -0.691623 0
M  V30 4505 H 435.579 0.824091 -0.0693 0
M  V30 4506 H 438.125 1.45736 -0.869423 0
M  V30 4507 H 436.897 3.51851 -1.71221 0
M  V30 4508 H 436.52 3.97556 -0.0592211 0
M  V30 4509 N 437.518 0.538854 1.48102 0
M  V30 4510 C 438.448 -0.207654 2.32575 0
M  V30 4511 C 439.429 -0.926559 1.4265 0
M  V30 4512 O 440.614 -0.91061 1.71527 0
M  V30 4513 C 437.744 -1.24957 3.24042 0
M  V30 4514 C 436.698 -0.648263 4.23062 0
M  V30 4515 C 436.024 -1.79348 5.03725 0
M  V30 4516 C 437.324 0.385897 5.20872 0
M  V30 4517 H 439.018 0.497534 2.95237 0
M  V30 4518 H 436.564 0.240715 1.41974 0
M  V30 4519 H 438.517 -1.77983 3.81969 0
M  V30 4520 H 437.241 -1.98446 2.59397 0
M  V30 4521 H 435.9 -0.139452 3.66335 0
M  V30 4522 H 435.548 -2.51696 4.35498 0
M  V30 4523 H 435.248 -1.39702 5.70751 0
M  V30 4524 H 436.772 -2.32735 5.64506 0
M  V30 4525 H 438.186 -0.057607 5.73271 0
M  V30 4526 H 436.583 0.700227 5.96001 0
M  V30 4527 H 437.653 1.28848 4.67468 0
M  V30 4528 N 438.996 -1.55193 0.274407 0
M  V30 4529 C 439.906 -2.26164 -0.623473 0
M  V30 4530 C 440.922 -1.28729 -1.17068 0
M  V30 4531 O 442.098 -1.61663 -1.20112 0
M  V30 4532 C 439.163 -2.96833 -1.7914 0
M  V30 4533 C 438.224 -4.09745 -1.28093 0
M  V30 4534 C 437.457 -4.77034 -2.3932 0
M  V30 4535 O 437.68 -4.4353 -3.5866 0
M  V30 4536 O 436.614 -5.64996 -2.07516 0
M  V30 4537 H 440.44 -3.03661 -0.0485661 0
M  V30 4538 H 438.025 -1.49341 0.0418382 0
M  V30 4539 H 439.907 -3.41248 -2.4724 0
M  V30 4540 H 438.582 -2.22253 -2.35341 0
M  V30 4541 H 437.489 -3.69787 -0.566416 0
M  V30 4542 H 438.822 -4.86224 -0.764683 0
M  V30 4543 N 440.474 -0.00167713 -1.576 0
M  V30 4544 C 441.72 0.683832 -1.90923 0
M  V30 4545 C 442.053 1.7333 -0.875799 0
M  V30 4546 O 441.328 1.94215 0.10525 0
M  V30 4547 C 441.611 1.32543 -3.3482 0
M  V30 4548 C 441.464 0.287387 -4.48881 0
M  V30 4549 C 442.783 2.25114 -3.78169 0
M  V30 4550 H 439.902 0.247125 -0.694333 0
M  V30 4551 H 442.544 -0.0533149 -1.89925 0
M  V30 4552 H 440.694 1.95372 -3.35801 0
M  V30 4553 H 442.366 -0.341346 -4.60035 0
M  V30 4554 H 440.609 -0.39017 -4.32042 0
M  V30 4555 H 441.28 0.775393 -5.46527 0
M  V30 4556 H 443.756 1.723 -3.7875 0
M  V30 4557 H 442.632 2.66971 -4.79602 0
M  V30 4558 H 442.893 3.13092 -3.12131 0
M  V30 4559 N 441.952 1.55251 0.271103 0
M  V30 4560 C 442.882 1.9127 1.33933 0
M  V30 4561 C 443.863 0.77478 1.5143 0
M  V30 4562 O 445.048 1.03307 1.64442 0
M  V30 4563 C 442.178 2.18627 2.69851 0
M  V30 4564 C 441.132 3.34442 2.67081 0
M  V30 4565 C 440.458 3.47284 4.06569 0
M  V30 4566 C 441.758 4.70784 2.26185 0
M  V30 4567 H 443.452 2.80744 1.04035 0
M  V30 4568 H 440.998 1.35077 0.499017 0
M  V30 4569 H 442.951 2.42413 3.44694 0
M  V30 4570 H 441.675 1.25955 3.01335 0
M  V30 4571 H 440.334 3.10627 1.94695 0
M  V30 4572 H 439.982 2.52074 4.35279 0
M  V30 4573 H 439.682 4.25152 4.0561 0
M  V30 4574 H 441.206 3.73363 4.83148 0
M  V30 4575 H 442.62 4.94102 2.90751 0
M  V30 4576 H 441.017 5.51582 2.36384 0
M  V30 4577 H 442.087 4.69478 1.21319 0
M  V30 4578 N 443.43 -0.535701 1.48216 0
M  V30 4579 C 444.36 -1.65014 1.65204 0
M  V30 4580 C 445.341 -1.62554 0.501011 0
M  V30 4581 O 446.526 -1.7984 0.732886 0
M  V30 4582 C 443.656 -3.03616 1.68626 0
M  V30 4583 C 442.61 -3.20932 2.83172 0
M  V30 4584 C 441.936 -4.60537 2.71679 0
M  V30 4585 C 443.236 -3.04249 4.24535 0
M  V30 4586 H 444.93 -1.51053 2.58502 0
M  V30 4587 H 442.476 -0.725262 1.24402 0
M  V30 4588 H 444.429 -3.81446 1.79099 0
M  V30 4589 H 443.153 -3.18587 0.719026 0
M  V30 4590 H 441.812 -2.45517 2.72244 0
M  V30 4591 H 441.46 -4.72336 1.72937 0
M  V30 4592 H 441.16 -4.73069 3.48538 0
M  V30 4593 H 442.684 -5.40475 2.84112 0
M  V30 4594 H 444.098 -3.71877 4.36326 0
M  V30 4595 H 442.495 -3.28278 5.02348 0
M  V30 4596 H 443.565 -2.00739 4.41397 0
M  V30 4597 N 444.908 -1.36708 -0.784132 0
M  V30 4598 C 445.855 -1.31466 -1.89698 0
M  V30 4599 C 446.825 -0.18239 -1.65096 0
M  V30 4600 O 448.01 -0.369762 -1.87183 0
M  V30 4601 C 445.15 -1.1151 -3.26588 0
M  V30 4602 C 444.263 -2.33859 -3.63227 0
M  V30 4603 C 443.398 -2.06873 -4.89262 0
M  V30 4604 C 442.437 -3.25154 -5.18595 0
M  V30 4605 N 441.574 -2.978 -6.35814 0
M  V30 4606 H 446.414 -2.26619 -1.93515 0
M  V30 4607 H 443.951 -1.12625 -0.946256 0
M  V30 4608 H 445.909 -0.979653 -4.05535 0
M  V30 4609 H 444.539 -0.200103 -3.22179 0
M  V30 4610 H 443.591 -2.58188 -2.79362 0
M  V30 4611 H 444.903 -3.22109 -3.8085 0
M  V30 4612 H 444.057 -1.90289 -5.76086 0
M  V30 4613 H 442.796 -1.15942 -4.73718 0
M  V30 4614 H 441.801 -3.42292 -4.30251 0
M  V30 4615 H 443.026 -4.1692 -5.36055 0
M  V30 4616 H 440.972 -2.09485 -6.21653 0
M  V30 4617 H 440.889 -3.7959 -6.53794 0
M  V30 4618 H 442.157 -2.84805 -7.25607 0
M  V30 4619 N 446.386 1.0089 -1.21074 0
M  V30 4620 C 447.349 2.0775 -0.968129 0
M  V30 4621 C 448.349 1.6069 0.0593445 0
M  V30 4622 O 449.539 1.73293 -0.177525 0
M  V30 4623 C 446.671 3.37794 -0.459108 0
M  V30 4624 H 447.864 2.30707 -1.9161 0
M  V30 4625 H 445.417 1.17807 -1.02719 0
M  V30 4626 H 446.152 3.20516 0.49397 0
M  V30 4627 H 445.937 3.7328 -1.20019 0
M  V30 4628 H 447.427 4.16454 -0.309099 0
M  V30 4629 N 447.864 1.01787 1.20321 0
M  V30 4630 C 449.092 0.727194 1.937 0
M  V30 4631 C 449.507 -0.712305 1.74848 0
M  V30 4632 O 448.864 -1.48327 1.06327 0
M  V30 4633 C 448.915 1.05497 3.45764 0
M  V30 4634 O 448.636 2.43794 3.64 0
M  V30 4635 C 450.137 0.785534 4.36285 0
M  V30 4636 H 447.357 0.266939 0.615617 0
M  V30 4637 H 449.901 1.35939 1.52777 0
M  V30 4638 H 448.056 0.468158 3.84561 0
M  V30 4639 H 448.47 2.55656 4.57974 0
M  V30 4640 H 449.944 1.06495 5.4163 0
M  V30 4641 H 450.421 -0.280273 4.38305 0
M  V30 4642 H 451.027 1.35456 4.03152 0
M  V30 4643 N 449.342 -1.36122 0.79427 0
M  V30 4644 C 450.274 -2.28683 0.153903 0
M  V30 4645 C 451.287 -1.49707 -0.639669 0
M  V30 4646 O 452.476 -1.7209 -0.474054 0
M  V30 4647 C 449.576 -3.29202 -0.804921 0
M  V30 4648 C 448.749 -4.37358 -0.060366 0
M  V30 4649 C 447.808 -5.17811 -0.935849 0
M  V30 4650 O 446.834 -5.67853 -0.391309 0
M  V30 4651 N 448.036 -5.34721 -2.25951 0
M  V30 4652 H 450.801 -2.84278 0.949008 0
M  V30 4653 H 448.362 -1.4834 0.648611 0
M  V30 4654 H 450.354 -3.79914 -1.39455 0
M  V30 4655 H 448.924 -2.74212 -1.50088 0
M  V30 4656 H 448.144 -3.87746 0.710382 0
M  V30 4657 H 449.432 -5.06777 0.45324 0
M  V30 4658 H 448.83 -4.95687 -2.72601 0
M  V30 4659 H 447.387 -5.88657 -2.79867 0
M  V30 4660 N 450.82 -0.546701 -1.47814 0
M  V30 4661 C 452.048 -0.0232857 -2.06887 0
M  V30 4662 C 452.463 1.26571 -1.4009 0
M  V30 4663 O 451.82 1.7569 -0.493906 0
M  V30 4664 C 451.871 0.186975 -3.61016 0
M  V30 4665 O 451.592 -1.05097 -4.25307 0
M  V30 4666 C 453.093 0.748872 -4.36929 0
M  V30 4667 H 450.313 -0.0410763 -0.669742 0
M  V30 4668 H 452.857 -0.757117 -1.89968 0
M  V30 4669 H 451.012 0.870903 -3.77484 0
M  V30 4670 H 451.426 -0.842121 -5.17695 0
M  V30 4671 H 452.9 0.845334 -5.45489 0
M  V30 4672 H 453.377 1.75772 -4.02493 0
M  V30 4673 H 453.983 0.100979 -4.2518 0
M  V30 4674 N 452.299 1.55045 -0.282633 0
M  V30 4675 C 453.546 1.9976 0.33199 0
M  V30 4676 C 453.874 1.17105 1.55295 0
M  V30 4677 O 453.129 0.230599 1.94337 0
M  V30 4678 C 453.428 3.49422 0.750938 0
M  V30 4679 C 453.094 4.4941 -0.366228 0
M  V30 4680 C 451.756 4.76471 -0.672964 0
M  V30 4681 C 454.108 5.09054 -1.11864 0
M  V30 4682 C 451.436 5.60442 -1.73556 0
M  V30 4683 C 453.788 5.9418 -2.17102 0
M  V30 4684 C 452.452 6.19558 -2.48402 0
M  V30 4685 H 451.722 0.730974 0.121484 0
M  V30 4686 H 454.369 1.8732 -0.39791 0
M  V30 4687 H 452.674 3.59377 1.56063 0
M  V30 4688 H 454.371 3.81432 1.23736 0
M  V30 4689 H 450.961 4.2844 -0.117041 0
M  V30 4690 H 455.145 4.88165 -0.894925 0
M  V30 4691 H 450.401 5.78349 -1.983 0
M  V30 4692 H 454.575 6.39427 -2.75873 0
M  V30 4693 H 452.202 6.84417 -3.30874 0
M  V30 4694 N 453.777 0.010035 1.57597 0
M  V30 4695 C 454.71 -1.01234 2.04516 0
M  V30 4696 C 455.688 -1.32886 0.937024 0
M  V30 4697 O 456.872 -1.44879 1.20592 0
M  V30 4698 C 453.999 -2.33738 2.45121 0
M  V30 4699 C 453.045 -2.17679 3.66767 0
M  V30 4700 S 453.878 -1.49343 5.14254 0
M  V30 4701 C 455.034 -2.83256 5.58137 0
M  V30 4702 H 455.267 -0.612866 2.90914 0
M  V30 4703 H 452.8 -0.201124 1.53084 0
M  V30 4704 H 454.758 -3.09922 2.69182 0
M  V30 4705 H 453.419 -2.70823 1.59103 0
M  V30 4706 H 452.612 -3.1559 3.92962 0
M  V30 4707 H 452.214 -1.4964 3.42759 0
M  V30 4708 H 454.506 -3.79538 5.6121 0
M  V30 4709 H 455.449 -2.61749 6.57946 0
M  V30 4710 H 455.857 -2.87627 4.85727 0
M  V30 4711 N 455.255 -1.55392 -0.262866 0
M  V30 4712 C 456.671 -1.47459 -0.610582 0
M  V30 4713 C 456.871 -0.697031 -1.8906 0
M  V30 4714 O 455.927 -0.219952 -2.5154 0
M  V30 4715 C 457.24 -2.91751 -0.728131 0
M  V30 4716 C 458.788 -3.02027 -0.821517 0
M  V30 4717 C 459.263 -4.47594 -0.97076 0
M  V30 4718 N 460.754 -4.51465 -1.03603 0
M  V30 4719 C 461.489 -5.61326 -1.17049 0
M  V30 4720 N 460.985 -6.81032 -1.2715 0
M  V30 4721 N 462.778 -5.49089 -1.20239 0
M  V30 4722 H 454.929 -2.04395 0.577632 0
M  V30 4723 H 457.192 -0.927287 0.197086 0
M  V30 4724 H 456.898 -3.51413 0.142132 0
M  V30 4725 H 456.772 -3.4134 -1.6052 0
M  V30 4726 H 459.159 -2.42456 -1.68224 0
M  V30 4727 H 459.24 -2.55674 0.0803688 0
M  V30 4728 H 458.884 -5.07771 -0.114655 0
M  V30 4729 H 458.814 -4.91613 -1.88745 0
M  V30 4730 H 461.305 -3.6524 -0.96996 0
M  V30 4731 H 461.618 -7.60511 -1.37271 0
M  V30 4732 H 459.963 -6.83824 -1.24136 0
M  V30 4733 H 463.154 -4.54507 -1.11985 0
M  V30 4734 H 463.327 -6.34749 -1.30373 0
M  V30 4735 O 456.772 0.408595 -1.56246 0
M  V30 4736 H 457.463 1.06117 -1.62046 0
M  V30 END ATOM
M  V30 BEGIN BOND
M  V30 END BOND
M  V30 END CTAB
M  END
$$$$
