drugbank_target|P0A751 UDP-N-acetylglucosamine 1-carboxyvinyltransferase (DB03397)
 OpenBabel12092119503D

  0  0  0     0  0            999 V3000
M  V30 BEGIN CTAB
M  V30 COUNTS 6362 6406 0 0 0
M  V30 BEGIN ATOM
M  V30 1 H -0.908 1.98254 -0.117106 0
M  V30 2 N 0 1.576 0 0
M  V30 3 C 0.933 2.03868 1.02534 0
M  V30 4 C 1.911 0.928543 1.3348 0
M  V30 5 O 3.095 1.19667 1.45644 0
M  V30 6 C 0.222 2.43627 2.35294 0
M  V30 7 C -0.732 3.65373 2.2001 0
M  V30 8 S 0.101 5.13292 1.52614 0
M  V30 9 C 1.257 5.56322 2.86805 0
M  V30 10 H 1.49 2.90518 0.631377 0
M  V30 11 H -0.977 1.52953 0.210867 0
M  V30 12 H 0.981 2.67203 3.11629 0
M  V30 13 H -0.358 1.57376 2.7183 0
M  V30 14 H -1.165 3.90944 3.18086 0
M  V30 15 H -1.563 3.418 1.51819 0
M  V30 16 H 0.729 5.58782 3.83104 0
M  V30 17 H 1.672 6.56266 2.65933 0
M  V30 18 H 2.08 4.83886 2.90714 0
M  V30 19 N 1.4781 -0.272755 1.55222 0
M  V30 20 C 2.7551 -1.02562 1.66555 0
M  V30 21 C 3.1351 -2.04282 0.532189 0
M  V30 22 O 2.4831 -2.23662 -0.467717 0
M  V30 23 C 2.6931 -1.6822 3.05782 0
M  V30 24 C 4.0411 -2.19373 3.63539 0
M  V30 25 O 5.0651 -1.78206 3.08417 0
M  V30 26 O 3.9241 -2.94883 4.60115 0
M  V30 27 H 1.0181 -0.475755 0.676451 0
M  V30 28 H 3.5641 -0.268593 1.67561 0
M  V30 29 H 2.3361 -0.945112 3.79715 0
M  V30 30 H 1.9591 -2.50609 3.08676 0
M  V30 31 N 2.9562 -1.48159 -0.537278 0
M  V30 32 C 3.9032 -1.62138 -1.64256 0
M  V30 33 C 4.8732 -0.463668 -1.59497 0
M  V30 34 O 6.0582 -0.686241 -1.78032 0
M  V30 35 C 3.1982 -1.66028 -3.02537 0
M  V30 36 C 2.3112 -2.92855 -3.17585 0
M  V30 37 C 1.4462 -2.87952 -4.46382 0
M  V30 38 C 0.4852 -4.09516 -4.54932 0
M  V30 39 N -0.3778 -4.02733 -5.75109 0
M  V30 40 H 4.4622 -2.56529 -1.51647 0
M  V30 41 H 1.9992 -1.27224 -0.738414 0
M  V30 42 H 3.9572 -1.66265 -3.82638 0
M  V30 43 H 2.5872 -0.751331 -3.13934 0
M  V30 44 H 1.6392 -3.02395 -2.30784 0
M  V30 45 H 2.9512 -3.82822 -3.19764 0
M  V30 46 H 2.1052 -2.8655 -5.34765 0
M  V30 47 H 0.8442 -1.95702 -4.46712 0
M  V30 48 H -0.1508 -4.11201 -3.64957 0
M  V30 49 H 1.0742 -5.02917 -4.56346 0
M  V30 50 H -0.9798 -3.13299 -5.76351 0
M  V30 51 H -1.0628 -4.86397 -5.78752 0
M  V30 52 H 0.2052 -4.05379 -6.65799 0
M  V30 53 N 4.4343 0.785586 -1.36625 0
M  V30 54 C 5.6813 1.54362 -1.31067 0
M  V30 55 C 6.0093 1.94195 0.10893 0
M  V30 56 O 5.2643 1.63262 1.07908 0
M  V30 57 C 5.5633 2.83007 -2.1827 0
M  V30 58 C 5.2293 2.62294 -3.6676 0
M  V30 59 C 3.8913 2.56353 -4.0723 0
M  V30 60 C 6.2433 2.43371 -4.6089 0
M  V30 61 C 3.5713 2.29461 -5.39967 0
M  V30 62 C 5.9233 2.18005 -5.93849 0
M  V30 63 C 4.5873 2.105 -6.3344 0
M  V30 64 H 3.8573 0.564851 -0.479609 0
M  V30 65 H 6.5043 0.906028 -1.68711 0
M  V30 66 H 4.8093 3.51253 -1.73576 0
M  V30 67 H 6.5063 3.40817 -2.11292 0
M  V30 68 H 3.0963 2.67774 -3.34656 0
M  V30 69 H 7.2803 2.46959 -4.30494 0
M  V30 70 H 2.5363 2.22135 -5.69619 0
M  V30 71 H 6.7103 2.02359 -6.66351 0
M  V30 72 H 4.3373 1.89425 -7.36222 0
M  V30 73 N 5.9124 1.20967 1.01018 0
M  V30 74 C 7.3284 0.965905 1.27053 0
M  V30 75 C 7.5284 -0.350785 1.98423 0
M  V30 76 O 6.5844 -1.07773 2.28344 0
M  V30 77 C 7.8974 2.15294 2.09926 0
M  V30 78 C 9.4454 2.19463 2.23171 0
M  V30 79 C 9.9204 3.3767 3.09424 0
M  V30 80 N 11.4114 3.37724 3.17012 0
M  V30 81 C 12.1464 4.25837 3.83993 0
M  V30 82 N 11.6424 5.24138 4.53047 0
M  V30 83 N 13.4354 4.1366 3.80581 0
M  V30 84 H 5.5864 2.0565 0.531194 0
M  V30 85 H 7.8494 0.90024 0.297106 0
M  V30 86 H 7.5554 3.10684 1.64828 0
M  V30 87 H 7.4294 2.13923 3.10672 0
M  V30 88 H 9.8164 1.24632 2.6749 0
M  V30 89 H 9.8974 2.2488 1.21912 0
M  V30 90 H 9.5414 4.32791 2.65808 0
M  V30 91 H 9.4714 3.29491 4.10784 0
M  V30 92 H 11.9624 2.6658 2.6785 0
M  V30 93 H 12.2754 5.87684 5.01844 0
M  V30 94 H 10.6204 5.28068 4.5185 0
M  V30 95 H 13.8114 3.36127 3.25785 0
M  V30 96 H 13.9844 4.82538 4.32505 0
M  V30 97 N 7.3905 -1.2043 1.01659 0
M  V30 98 C 8.6365 -1.90079 0.706963 0
M  V30 99 C 8.9695 -1.78648 -0.761474 0
M  V30 100 O 8.2445 -1.17069 -1.55323 0
M  V30 101 C 8.5275 -3.41469 1.14327 0
M  V30 102 C 8.3805 -3.61833 2.67201 0
M  V30 103 C 9.6995 -4.34261 0.714529 0
M  V30 104 H 6.8185 -0.690254 0.2583 0
M  V30 105 H 9.4605 -1.41826 1.26433 0
M  V30 106 H 7.6105 -3.82696 0.669056 0
M  V30 107 H 9.2825 -3.2986 3.22475 0
M  V30 108 H 7.5255 -3.05304 3.08175 0
M  V30 109 H 8.1965 -4.67955 2.92783 0
M  V30 110 H 10.6725 -4.00682 1.12221 0
M  V30 111 H 9.5485 -5.38806 1.04784 0
M  V30 112 H 9.8095 -4.40431 -0.383799 0
M  V30 113 N 8.8686 -0.792821 -1.36206 0
M  V30 114 C 9.8006 -0.151469 -2.28699 0
M  V30 115 C 10.8136 0.641262 -1.49638 0
M  V30 116 O 12.0026 0.475885 -1.72039 0
M  V30 117 C 9.1026 0.808424 -3.29117 0
M  V30 118 C 8.2756 0.0650202 -4.37352 0
M  V30 119 C 7.3346 0.941358 -5.17711 0
M  V30 120 O 6.3606 0.397352 -5.67811 0
M  V30 121 N 7.5626 2.2652 -5.3448 0
M  V30 122 H 10.3276 -0.945982 -2.84379 0
M  V30 123 H 7.8886 -0.647032 -1.48409 0
M  V30 124 H 9.8806 1.3986 -3.79765 0
M  V30 125 H 8.4506 1.5038 -2.74052 0
M  V30 126 H 7.6706 -0.706255 -3.87822 0
M  V30 127 H 8.9586 -0.447847 -5.06825 0
M  V30 128 H 8.3566 2.73128 -4.95396 0
M  V30 129 H 6.9136 2.80493 -5.88359 0
M  V30 130 N 10.3467 1.47872 -0.545128 0
M  V30 131 C 11.5947 2.02093 -0.016553 0
M  V30 132 C 11.9157 1.42305 1.3332 0
M  V30 133 O 11.1857 0.593853 1.86682 0
M  V30 134 H 9.7657 0.746993 -0.00313038 0
M  V30 135 H 12.4277 1.81414 -0.712397 0
M  V30 136 H 11.5237 3.11996 0.0805422 0
M  V30 137 N 11.8248 0.280983 1.55075 0
M  V30 138 C 13.2358 -0.215629 1.85451 0
M  V30 139 C 13.5868 -1.54991 1.203 0
M  V30 140 O 12.7118 -2.10699 0.493435 0
M  V30 141 C 13.3068 -0.398026 3.36454 0
M  V30 142 C 11.8658 -0.838866 3.66933 0
M  V30 143 C 11.0128 0.064458 2.77225 0
M  V30 144 H 13.9638 0.502601 1.50531 0
M  V30 145 H 13.9848 -1.23569 3.59876 0
M  V30 146 H 13.4968 0.573241 3.83843 0
M  V30 147 H 11.5978 -1.8214 3.25048 0
M  V30 148 H 11.7108 -0.672123 4.74362 0
M  V30 149 H 10.0748 -0.452863 2.50642 0
M  V30 150 H 10.8578 1.03172 3.2743 0
M  V30 151 N 13.3029 -1.57598 0.00835791 0
M  V30 152 C 14.5309 -1.95214 -0.68549 0
M  V30 153 C 14.9459 -0.883706 -1.66841 0
M  V30 154 O 14.3029 0.136565 -1.81988 0
M  V30 155 C 14.3539 -3.32865 -1.41007 0
M  V30 156 O 14.0749 -4.35609 -0.466552 0
M  V30 157 C 15.5759 -3.84991 -2.19765 0
M  V30 158 H 12.7959 -0.643422 -0.190392 0
M  V30 159 H 15.3399 -2.04406 0.0619607 0
M  V30 160 H 13.4949 -3.24956 -2.10908 0
M  V30 161 H 13.9089 -5.15288 -0.978699 0
M  V30 162 H 15.3829 -4.8371 -2.65948 0
M  V30 163 H 15.8599 -3.18137 -3.02796 0
M  V30 164 H 16.4659 -3.96103 -1.54864 0
M  V30 165 N 14.781 0.264519 -1.55364 0
M  V30 166 C 15.728 1.32717 -1.88825 0
M  V30 167 C 16.698 1.48675 -0.740605 0
M  V30 168 O 17.883 1.62945 -0.992657 0
M  V30 169 C 15.023 2.68089 -2.17307 0
M  V30 170 C 14.136 2.60284 -3.44785 0
M  V30 171 C 13.271 3.87892 -3.62924 0
M  V30 172 C 12.31 3.74631 -4.84064 0
M  V30 173 N 11.447 4.94092 -4.98816 0
M  V30 174 H 16.287 1.03481 -2.79456 0
M  V30 175 H 13.824 0.499757 -1.3835 0
M  V30 176 H 15.782 3.46864 -2.31821 0
M  V30 177 H 14.412 2.95509 -1.299 0
M  V30 178 H 13.464 1.73173 -3.38697 0
M  V30 179 H 14.776 2.46388 -4.33698 0
M  V30 180 H 13.93 4.75109 -3.77302 0
M  V30 181 H 12.669 4.04664 -2.7221 0
M  V30 182 H 11.674 2.85797 -4.69681 0
M  V30 183 H 12.899 3.5937 -5.76221 0
M  V30 184 H 10.845 5.11259 -4.11036 0
M  V30 185 H 10.762 4.8276 -5.81789 0
M  V30 186 H 12.03 5.82857 -5.17588 0
M  V30 187 N 16.2591 1.48442 0.529413 0
M  V30 188 C 17.1891 1.65902 1.64313 0
M  V30 189 C 18.1701 0.507897 1.6234 0
M  V30 190 O 19.3551 0.740503 1.79528 0
M  V30 191 C 16.4851 1.69911 3.02898 0
M  V30 192 C 15.4391 2.8453 3.19729 0
M  V30 193 C 14.7651 2.73629 4.59381 0
M  V30 194 C 16.0651 4.25821 3.02447 0
M  V30 195 H 17.7591 2.5914 1.49955 0
M  V30 196 H 15.3051 1.24709 0.719982 0
M  V30 197 H 17.2581 1.80715 3.80684 0
M  V30 198 H 15.9821 0.732524 3.18279 0
M  V30 199 H 14.6411 2.73283 2.44361 0
M  V30 200 H 14.2891 1.74938 4.71599 0
M  V30 201 H 13.9891 3.50541 4.71588 0
M  V30 202 H 15.5131 2.86401 5.39265 0
M  V30 203 H 16.9271 4.37898 3.70024 0
M  V30 204 H 15.3241 5.03735 3.26146 0
M  V30 205 H 16.3941 4.42244 1.98867 0
M  V30 206 N 17.7372 -0.778329 1.37039 0
M  V30 207 C 18.6692 -1.90034 1.2814 0
M  V30 208 C 19.6822 -1.61585 0.198558 0
M  V30 209 O 20.8712 -1.72625 0.454175 0
M  V30 210 C 17.9712 -3.25108 0.956968 0
M  V30 211 C 17.1442 -3.81253 2.14394 0
M  V30 212 C 16.2032 -4.94789 1.79082 0
M  V30 213 O 15.2292 -5.10721 2.51301 0
M  V30 214 N 16.4312 -5.75878 0.731043 0
M  V30 215 H 19.1962 -1.98186 2.24816 0
M  V30 216 H 16.7572 -0.957129 1.30578 0
M  V30 217 H 18.7492 -3.9857 0.701701 0
M  V30 218 H 17.3192 -3.125 0.0789812 0
M  V30 219 H 16.5392 -2.99647 2.56135 0
M  V30 220 H 17.8272 -4.15495 2.93668 0
M  V30 221 H 17.2252 -5.65547 0.131618 0
M  V30 222 H 15.7822 -6.49596 0.535622 0
M  V30 223 N 19.2153 -1.21501 -1.00376 0
M  V30 224 C 20.4633 -1.03095 -1.73827 0
M  V30 225 C 20.7843 0.436341 -1.90055 0
M  V30 226 O 20.0543 1.31466 -1.45236 0
M  V30 227 H 18.6343 -0.378487 -0.644016 0
M  V30 228 H 21.2963 -1.52831 -1.20949 0
M  V30 229 H 20.3923 -1.49991 -2.73695 0
M  V30 230 N 20.6934 1.19889 -1.02296 0
M  V30 231 C 21.6034 2.26571 -0.608508 0
M  V30 232 C 22.6194 1.70299 0.356964 0
M  V30 233 O 23.7954 2.00235 0.216326 0
M  V30 234 C 20.8604 3.46677 0.0402814 0
M  V30 235 C 19.9214 4.18153 -0.97194 0
M  V30 236 C 19.1544 5.32525 -0.354016 0
M  V30 237 O 19.3774 5.64112 0.844604 0
M  V30 238 O 18.3114 5.92242 -1.07391 0
M  V30 239 H 22.1374 2.64251 -1.49684 0
M  V30 240 H 19.7224 1.26629 -0.792809 0
M  V30 241 H 21.6044 4.19475 0.402324 0
M  V30 242 H 20.2794 3.10858 0.902707 0
M  V30 243 H 19.1864 3.47499 -1.38546 0
M  V30 244 H 20.5194 4.57927 -1.80454 0
M  V30 245 N 22.1715 0.800033 1.35784 0
M  V30 246 C 23.4175 0.377901 1.99248 0
M  V30 247 C 23.7505 -1.05052 1.63333 0
M  V30 248 O 23.0255 -1.72768 0.893385 0
M  V30 249 C 23.3085 0.553922 3.55814 0
M  V30 250 C 23.1615 2.0268 4.01548 0
M  V30 251 C 24.4805 -0.0244802 4.40093 0
M  V30 252 H 21.5995 0.138782 0.723815 0
M  V30 253 H 24.2415 1.00835 1.61035 0
M  V30 254 H 22.3915 0.0172398 3.88496 0
M  V30 255 H 24.0635 2.62536 3.79305 0
M  V30 256 H 22.3065 2.5256 3.52698 0
M  V30 257 H 22.9775 2.10087 5.10458 0
M  V30 258 H 25.4535 0.433775 4.13833 0
M  V30 259 H 24.3295 0.128637 5.48749 0
M  V30 260 H 24.5905 -1.11758 4.27741 0
M  V30 261 N 23.6496 -1.47581 0.552962 0
M  V30 262 C 24.8776 -2.06875 0.0320556 0
M  V30 263 C 25.2926 -1.40625 -1.25976 0
M  V30 264 O 24.6496 -0.501349 -1.75479 0
M  V30 265 C 24.7006 -3.61092 -0.17167 0
M  V30 266 O 24.4216 -4.24858 1.06899 0
M  V30 267 C 25.9226 -4.37242 -0.730344 0
M  V30 268 H 23.1426 -0.669561 0.043915 0
M  V30 269 H 25.6866 -1.89646 0.765163 0
M  V30 270 H 23.8416 -3.7785 -0.854894 0
M  V30 271 H 24.2556 -5.17334 0.864059 0
M  V30 272 H 25.7296 -5.45842 -0.822203 0
M  V30 273 H 26.2066 -4.03235 -1.74064 0
M  V30 274 H 26.8126 -4.25219 -0.0829543 0
M  V30 275 N 25.1277 -0.289203 -1.54924 0
M  V30 276 C 26.3767 0.324231 -1.99077 0
M  V30 277 C 26.6897 1.5591 -1.18117 0
M  V30 278 O 27.8957 2.24637 -1.52481 0
M  V30 279 C 26.3517 0.628209 -3.54375 0
M  V30 280 C 25.9597 -0.587647 -4.44129 0
M  V30 281 C 27.7037 1.20349 -4.07083 0
M  V30 282 C 25.6107 -0.257475 -5.90839 0
M  V30 283 H 24.5407 0.124924 -0.743579 0
M  V30 284 H 27.1917 -0.396063 -1.79175 0
M  V30 285 H 25.5737 1.40778 -3.70132 0
M  V30 286 H 26.7477 -1.36418 -4.40144 0
M  V30 287 H 25.0627 -1.08074 -4.0213 0
M  V30 288 H 27.6597 1.46456 -5.14252 0
M  V30 289 H 28.0027 2.14195 -3.56968 0
M  V30 290 H 28.5357 0.485889 -3.94821 0
M  V30 291 H 25.2747 -1.16419 -6.45079 0
M  V30 292 H 24.7947 0.482018 -5.9786 0
M  V30 293 H 26.4737 0.145238 -6.46837 0
M  V30 294 N 26.6058 1.57591 -0.0167156 0
M  V30 295 C 27.8308 1.9598 0.67872 0
M  V30 296 C 28.2558 0.892546 1.65575 0
M  V30 297 O 27.6138 -0.147772 1.80697 0
M  V30 298 C 27.6618 3.33468 1.37227 0
M  V30 299 O 26.7658 3.28954 2.48722 0
M  V30 300 H 26.1068 0.639339 0.17928 0
M  V30 301 H 28.6368 2.04463 -0.0748802 0
M  V30 302 H 28.6468 3.69417 1.7319 0
M  V30 303 H 27.3218 4.10694 0.656007 0
M  V30 304 H 25.8988 3.04705 2.14963 0
M  V30 305 N 28.0839 -0.256276 1.55502 0
M  V30 306 C 29.3319 -0.983672 1.76545 0
M  V30 307 C 29.6529 -1.86206 0.578982 0
M  V30 308 O 28.9229 -1.91656 -0.405577 0
M  V30 309 H 27.5029 -0.366191 0.651086 0
M  V30 310 H 30.1649 -0.276479 1.92929 0
M  V30 311 H 29.2609 -1.61087 2.67315 0
M  V30 312 N 29.562 -1.4872 -0.521534 0
M  V30 313 C 30.525 -1.63379 -1.60748 0
M  V30 314 C 31.525 -0.50661 -1.52611 0
M  V30 315 O 32.715 -0.772601 -1.5613 0
M  V30 316 C 29.847 -1.61192 -3.00383 0
M  V30 317 H 31.04 -2.60217 -1.49087 0
M  V30 318 H 28.593 -1.37444 -0.744235 0
M  V30 319 H 29.328 -0.65863 -3.17541 0
M  V30 320 H 29.113 -2.43032 -3.07698 0
M  V30 321 H 30.603 -1.7466 -3.7932 0
M  V30 322 N 31.0401 0.771051 -1.3745 0
M  V30 323 C 31.9871 1.88435 -1.3327 0
M  V30 324 C 32.9571 1.64914 -0.198136 0
M  V30 325 O 34.1421 1.86821 -0.387606 0
M  V30 326 C 31.2821 3.25509 -1.14622 0
M  V30 327 C 30.3951 3.60979 -2.37314 0
M  V30 328 C 29.5301 4.87265 -2.11533 0
M  V30 329 C 28.5691 5.15469 -3.30088 0
M  V30 330 N 27.7061 6.32944 -3.03853 0
M  V30 331 H 32.5461 1.91344 -2.28455 0
M  V30 332 H 30.0831 0.935466 -1.13523 0
M  V30 333 H 32.0411 4.04582 -1.01831 0
M  V30 334 H 30.6711 3.21974 -0.230837 0
M  V30 335 H 29.7231 2.76885 -2.60842 0
M  V30 336 H 31.0351 3.77759 -3.25729 0
M  V30 337 H 30.1891 5.74244 -1.95777 0
M  V30 338 H 28.9281 4.7259 -1.20457 0
M  V30 339 H 27.9331 4.26966 -3.46382 0
M  V30 340 H 29.1581 5.32052 -4.22016 0
M  V30 341 H 27.1041 6.19625 -2.15407 0
M  V30 342 H 27.0211 6.50143 -3.85812 0
M  V30 343 H 28.2891 7.22857 -2.91716 0
M  V30 344 N 32.5182 1.22032 0.997298 0
M  V30 345 C 33.4662 0.983634 2.10778 0
M  V30 346 C 34.4602 -0.0717564 1.69248 0
M  V30 347 O 35.6662 0.080304 1.79821 0
M  V30 348 H 32.0412 0.300877 0.689186 0
M  V30 349 H 34.0122 1.92606 2.27916 0
M  V30 350 C 32.7612 0.57326 3.42942 0
M  V30 351 H 32.0842 1.37702 3.75338 0
M  V30 352 H 33.5242 0.447031 4.21637 0
M  V30 353 C 31.9832 -0.7167 3.29188 0
M  V30 354 O 32.5132 -1.77027 3.60589 0
M  V30 355 N 30.7192 -0.686167 2.82383 0
M  V30 356 H 30.2662 0.171507 2.57028 0
M  V30 357 H 30.2242 -1.54955 2.73562 0
M  V30 358 N 33.9963 -1.19345 1.0293 0
M  V30 359 C 34.9593 -2.20793 0.615069 0
M  V30 360 C 35.9593 -1.57553 -0.321533 0
M  V30 361 O 37.1493 -1.73862 -0.108483 0
M  V30 362 C 34.2813 -3.40754 -0.0999222 0
M  V30 363 H 35.4743 -2.58955 1.51269 0
M  V30 364 H 33.0273 -1.3303 0.820534 0
M  V30 365 H 33.7623 -3.0811 -1.01187 0
M  V30 366 H 33.5473 -3.87889 0.57309 0
M  V30 367 H 35.0373 -4.15898 -0.376645 0
M  V30 368 N 35.4744 -0.807222 -1.35358 0
M  V30 369 C 36.4374 -0.223665 -2.28106 0
M  V30 370 C 37.4374 0.589354 -1.4961 0
M  V30 371 O 38.6274 0.407745 -1.69361 0
M  V30 372 C 35.7594 0.688149 -3.33882 0
M  V30 373 H 36.9524 -1.04169 -2.81227 0
M  V30 374 H 34.5054 -0.577921 -1.45223 0
M  V30 375 H 35.2404 1.52984 -2.85948 0
M  V30 376 H 35.0254 0.10687 -3.91954 0
M  V30 377 H 36.5154 1.09075 -4.03104 0
M  V30 378 N 36.9525 1.47285 -0.560781 0
M  V30 379 C 37.8825 2.32857 0.173105 0
M  V30 380 C 38.8635 1.44009 0.905281 0
M  V30 381 O 40.0485 1.7286 0.885046 0
M  V30 382 C 37.1785 3.25861 1.20133 0
M  V30 383 C 36.1325 4.23978 0.585388 0
M  V30 384 C 35.4585 5.06332 1.7185 0
M  V30 385 C 36.7585 5.20242 -0.463178 0
M  V30 386 H 38.4525 2.94466 -0.541307 0
M  V30 387 H 35.9985 1.41601 -0.261764 0
M  V30 388 H 37.9515 3.84569 1.72293 0
M  V30 389 H 36.6755 2.62315 1.94573 0
M  V30 390 H 35.3345 3.66501 0.085054 0
M  V30 391 H 34.9825 4.39186 2.45203 0
M  V30 392 H 34.6825 5.72762 1.31213 0
M  V30 393 H 36.2065 5.67899 2.24329 0
M  V30 394 H 37.6205 5.73293 -0.027502 0
M  V30 395 H 36.0175 5.94896 -0.788627 0
M  V30 396 H 37.0875 4.65504 -1.35773 0
M  V30 397 N 38.4306 0.297415 1.54768 0
M  V30 398 C 39.8416 -0.195947 1.85669 0
M  V30 399 C 40.1926 -1.53707 1.21937 0
M  V30 400 O 39.3176 -2.10164 0.515754 0
M  V30 401 C 39.9126 -0.362318 3.36857 0
M  V30 402 C 38.4716 -0.799901 3.67802 0
M  V30 403 C 37.6186 0.0938578 2.77141 0
M  V30 404 H 40.5696 0.518538 1.4999 0
M  V30 405 H 40.5906 -1.19745 3.61167 0
M  V30 406 H 40.1026 0.613921 3.83214 0
M  V30 407 H 38.2036 -1.78682 3.26961 0
M  V30 408 H 38.3166 -0.621773 4.75048 0
M  V30 409 H 36.6806 -0.426254 2.51108 0
M  V30 410 H 37.4636 1.06639 3.26318 0
M  V30 411 N 39.9087 -1.5758 0.0250728 0
M  V30 412 C 41.1577 -1.90811 -0.653767 0
M  V30 413 C 41.4707 -0.90273 -1.73523 0
M  V30 414 O 42.6767 -1.12614 -2.47043 0
M  V30 415 C 41.1327 -3.38804 -1.21409 0
M  V30 416 C 40.7407 -4.47692 -0.166126 0
M  V30 417 C 42.4847 -3.81108 -1.86967 0
M  V30 418 C 40.3917 -5.86779 -0.737856 0
M  V30 419 H 39.3217 -0.712063 -0.247956 0
M  V30 420 H 41.9727 -1.83281 0.0897137 0
M  V30 421 H 40.3547 -3.41252 -2.00905 0
M  V30 422 H 41.5287 -4.56797 0.606079 0
M  V30 423 H 39.8437 -4.14565 0.390466 0
M  V30 424 H 42.4407 -4.82375 -2.30692 0
M  V30 425 H 42.7837 -3.15953 -2.71071 0
M  V30 426 H 43.3167 -3.81065 -1.14167 0
M  V30 427 H 40.0557 -6.55468 0.0649577 0
M  V30 428 H 39.5757 -5.81288 -1.47864 0
M  V30 429 H 41.2547 -6.35223 -1.22884 0
M  V30 430 N 41.3868 0.248026 -1.55636 0
M  V30 431 C 42.3168 1.31079 -1.93237 0
M  V30 432 C 43.2978 1.50264 -0.797174 0
M  V30 433 O 44.4828 1.62891 -1.05737 0
M  V30 434 C 41.6128 2.66575 -2.22609 0
M  V30 435 C 40.5668 2.62087 -3.3837 0
M  V30 436 C 39.8928 4.01369 -3.53281 0
M  V30 437 C 41.1928 2.19171 -4.7409 0
M  V30 438 H 42.8868 0.998556 -2.82257 0
M  V30 439 H 40.4328 0.47891 -1.35803 0
M  V30 440 H 42.3858 3.41057 -2.47503 0
M  V30 441 H 41.1098 2.99432 -1.30414 0
M  V30 442 H 39.7688 1.90063 -3.13483 0
M  V30 443 H 39.4168 4.31489 -2.58508 0
M  V30 444 H 39.1168 3.99254 -4.31127 0
M  V30 445 H 40.6408 4.77552 -3.80495 0
M  V30 446 H 42.0548 2.83384 -4.98363 0
M  V30 447 H 40.4518 2.2817 -5.5503 0
M  V30 448 H 41.5218 1.14336 -4.71227 0
M  V30 449 N 42.8649 1.48995 0.513639 0
M  V30 450 C 44.1119 1.57843 1.26854 0
M  V30 451 C 44.4399 0.259501 1.92761 0
M  V30 452 O 43.6949 -0.75159 1.80692 0
M  V30 453 C 43.9939 2.67756 2.36731 0
M  V30 454 C 43.6599 4.09669 1.88368 0
M  V30 455 C 42.3219 4.48291 1.74896 0
M  V30 456 C 44.6739 4.98537 1.52021 0
M  V30 457 C 42.0019 5.73568 1.23438 0
M  V30 458 C 44.3539 6.24319 1.0202 0
M  V30 459 C 43.0179 6.61783 0.871778 0
M  V30 460 H 42.2879 0.577587 0.464192 0
M  V30 461 H 44.9349 1.82778 0.571366 0
M  V30 462 H 43.2399 2.36743 3.12185 0
M  V30 463 H 44.9369 2.71813 2.9482 0
M  V30 464 H 41.5269 3.79176 1.99808 0
M  V30 465 H 45.7109 4.69363 1.61281 0
M  V30 466 H 40.9669 6.01304 1.10648 0
M  V30 467 H 45.1409 6.92566 0.729722 0
M  V30 468 H 42.7679 7.5874 0.470852 0
M  V30 469 N 44.343 -0.763751 1.37857 0
M  V30 470 C 45.306 -1.85889 1.34081 0
M  V30 471 C 46.306 -1.58949 0.243277 0
M  V30 472 O 47.496 -1.66882 0.499589 0
M  V30 473 C 44.628 -3.23176 1.08489 0
M  V30 474 H 45.821 -1.90648 2.31502 0
M  V30 475 H 43.374 -0.964367 1.23003 0
M  V30 476 H 44.109 -3.24091 0.116318 0
M  V30 477 H 43.894 -3.44124 1.8794 0
M  V30 478 H 45.384 -4.03254 1.08517 0
M  V30 479 N 45.8211 -1.22559 -0.990812 0
M  V30 480 C 46.7841 -0.998863 -2.0629 0
M  V30 481 C 47.7841 0.0354834 -1.60761 0
M  V30 482 O 48.9741 -0.203231 -1.7301 0
M  V30 483 C 46.1061 -0.509203 -3.37076 0
M  V30 484 H 47.2991 -1.95014 -2.27837 0
M  V30 485 H 44.8521 -1.04456 -1.16269 0
M  V30 486 H 45.5871 0.446335 -3.21214 0
M  V30 487 H 45.3721 -1.25547 -3.71457 0
M  V30 488 H 46.8621 -0.370888 -4.1595 0
M  V30 489 N 47.2992 1.18797 -1.03562 0
M  V30 490 C 48.2292 2.24472 -0.643019 0
M  V30 491 C 49.2102 1.66433 0.351283 0
M  V30 492 O 50.3952 1.92803 0.232505 0
M  V30 493 C 47.5252 3.473 4.24935e-05 0
M  V30 494 C 46.4792 4.18055 -0.917257 0
M  V30 495 C 45.8052 5.34519 -0.138941 0
M  V30 496 C 47.1052 4.72109 -2.23407 0
M  V30 497 H 48.7992 2.57566 -1.52643 0
M  V30 498 H 46.3452 1.23806 -0.735394 0
M  V30 499 H 48.2982 4.20426 0.286383 0
M  V30 500 H 47.0222 3.13424 0.918299 0
M  V30 501 H 45.6812 3.46821 -1.1879 0
M  V30 502 H 45.3292 4.96891 0.781562 0
M  V30 503 H 45.0292 5.82794 -0.750005 0
M  V30 504 H 46.5532 6.10438 0.1405 0
M  V30 505 H 47.9672 5.36955 -2.00879 0
M  V30 506 H 46.3642 5.30897 -2.79765 0
M  V30 507 H 47.4342 3.89807 -2.88407 0
M  V30 508 N 48.7773 0.814389 1.34928 0
M  V30 509 C 49.7073 0.244827 2.32213 0
M  V30 510 C 50.6883 -0.634024 1.57842 0
M  V30 511 O 51.8733 -0.562676 1.8587 0
M  V30 512 C 49.0033 -0.601106 3.42058 0
M  V30 513 C 47.9573 0.179896 4.27622 0
M  V30 514 C 47.2833 -0.788237 5.28858 0
M  V30 515 C 48.5833 1.38329 5.03649 0
M  V30 516 H 50.2773 1.05763 2.80097 0
M  V30 517 H 47.8233 0.510029 1.34665 0
M  V30 518 H 49.7763 -1.00968 4.09125 0
M  V30 519 H 48.5003 -1.44688 2.92802 0
M  V30 520 H 47.1593 0.569739 3.62146 0
M  V30 521 H 46.8073 -1.62973 4.75866 0
M  V30 522 H 46.5073 -0.269942 5.8698 0
M  V30 523 H 48.0313 -1.19485 5.98795 0
M  V30 524 H 49.4453 1.04918 5.63618 0
M  V30 525 H 47.8423 1.83662 5.71304 0
M  V30 526 H 48.9123 2.16592 4.33839 0
M  V30 527 N 50.2554 -1.46986 0.568584 0
M  V30 528 C 51.2184 -2.28624 -0.162366 0
M  V30 529 C 52.2184 -1.37596 -0.832103 0
M  V30 530 O 53.4084 -1.60115 -0.68622 0
M  V30 531 C 50.5404 -3.17596 -1.23878 0
M  V30 532 H 51.7334 -2.94722 0.554899 0
M  V30 533 H 49.2864 -1.52863 0.325976 0
M  V30 534 H 50.0214 -2.56214 -1.98808 0
M  V30 535 H 49.8064 -3.846 -0.763219 0
M  V30 536 H 51.2964 -3.79078 -1.75185 0
M  V30 537 N 51.7335 -0.305618 -1.54608 0
M  V30 538 C 52.6435 0.57778 -2.27374 0
M  V30 539 C 53.6595 1.14451 -1.31061 0
M  V30 540 O 54.8355 1.16831 -1.6405 0
M  V30 541 C 51.9005 1.73123 -3.00382 0
M  V30 542 C 50.9615 1.19812 -4.12242 0
M  V30 543 C 50.1945 2.2966 -4.81759 0
M  V30 544 O 50.4175 3.49651 -4.50666 0
M  V30 545 O 49.3515 1.96091 -5.69062 0
M  V30 546 H 53.1775 -0.012624 -3.03697 0
M  V30 547 H 50.7625 -0.0719184 -1.49227 0
M  V30 548 H 52.6445 2.40315 -3.4616 0
M  V30 549 H 51.3195 2.30815 -2.26949 0
M  V30 550 H 50.2265 0.491798 -3.70853 0
M  V30 551 H 51.5595 0.666566 -4.87666 0
M  V30 552 N 53.2116 1.57565 -0.0334293 0
M  V30 553 C 54.1216 2.13943 0.962572 0
M  V30 554 C 55.1376 1.09276 1.35406 0
M  V30 555 O 56.3136 1.41355 1.4346 0
M  V30 556 C 53.3786 2.65887 2.22497 0
M  V30 557 C 52.4396 3.85286 1.8935 0
M  V30 558 C 51.6726 4.34743 3.09571 0
M  V30 559 O 51.8956 3.83352 4.22371 0
M  V30 560 O 50.8296 5.26538 2.91618 0
M  V30 561 H 54.6556 2.99333 0.513169 0
M  V30 562 H 52.2406 1.4822 0.18743 0
M  V30 563 H 54.1226 2.99346 2.96598 0
M  V30 564 H 52.7976 1.83578 2.6661 0
M  V30 565 H 51.7046 3.56746 1.1262 0
M  V30 566 H 53.0376 4.68771 1.5005 0
M  V30 567 N 54.6897 -0.239769 1.55765 0
M  V30 568 C 56.1007 -0.808263 1.68297 0
M  V30 569 C 56.4517 -1.85736 0.632181 0
M  V30 570 O 55.5767 -2.15277 -0.220204 0
M  V30 571 C 56.1717 -1.47284 3.05111 0
M  V30 572 C 54.7307 -1.98895 3.19559 0
M  V30 573 C 53.8777 -0.842575 2.64189 0
M  V30 574 H 56.8287 -0.0154422 1.58692 0
M  V30 575 H 56.8497 -2.34111 2.99954 0
M  V30 576 H 56.3617 -0.709053 3.81568 0
M  V30 577 H 54.4627 -2.78132 2.47938 0
M  V30 578 H 54.5757 -2.18143 4.26556 0
M  V30 579 H 52.9397 -1.24501 2.22197 0
M  V30 580 H 53.7227 -0.0917552 3.43177 0
M  V30 581 N 56.1678 -1.49265 -0.50573 0
M  V30 582 C 57.4138 -1.58748 -1.26202 0
M  V30 583 C 57.7468 -0.271227 -1.92297 0
M  V30 584 O 57.0218 0.724831 -1.80489 0
M  V30 585 C 57.3048 -2.74332 -2.33268 0
M  V30 586 C 57.1578 -4.15737 -1.71705 0
M  V30 587 C 58.4768 -2.85576 -3.34865 0
M  V30 588 H 55.5958 -0.577826 -0.457478 0
M  V30 589 H 58.2378 -1.81532 -0.560897 0
M  V30 590 H 56.3878 -2.55036 -2.93068 0
M  V30 591 H 58.0598 -4.46537 -1.15769 0
M  V30 592 H 56.3028 -4.21605 -1.02135 0
M  V30 593 H 56.9738 -4.92477 -2.49341 0
M  V30 594 H 59.4498 -3.03127 -2.8505 0
M  V30 595 H 58.3258 -3.68135 -4.07146 0
M  V30 596 H 58.5868 -1.94732 -3.96903 0
M  V30 597 N 57.6459 0.756429 -1.3826 0
M  V30 598 C 58.5559 1.9009 -1.37488 0
M  V30 599 C 59.5719 1.71855 -0.272366 0
M  V30 600 O 60.7479 1.94827 -0.510318 0
M  V30 601 C 57.8129 3.25421 -1.19592 0
M  V30 602 C 56.8739 3.56202 -2.39622 0
M  V30 603 C 56.1069 4.85075 -2.2257 0
M  V30 604 O 56.3299 5.57246 -1.21793 0
M  V30 605 O 55.2639 5.15269 -3.11098 0
M  V30 606 H 59.0899 1.93695 -2.33914 0
M  V30 607 H 56.6749 0.901313 -1.1915 0
M  V30 608 H 58.5569 4.06337 -1.11661 0
M  V30 609 H 57.2319 3.22634 -0.262486 0
M  V30 610 H 56.1389 2.75458 -2.53128 0
M  V30 611 H 57.4719 3.63747 -3.31586 0
M  V30 612 N 59.124 1.23083 0.984299 0
M  V30 613 C 60.373 1.05466 1.71929 0
M  V30 614 C 60.686 -0.409211 1.91272 0
M  V30 615 O 61.892 -0.705226 2.62181 0
M  V30 616 C 60.348 1.83874 3.09384 0
M  V30 617 C 59.956 3.34566 2.97943 0
M  V30 618 C 61.7 1.74734 3.8687 0
M  V30 619 C 59.607 4.05381 4.30605 0
M  V30 620 H 58.537 0.391039 0.644674 0
M  V30 621 H 61.188 1.47013 1.09815 0
M  V30 622 H 59.57 1.35131 3.72231 0
M  V30 623 H 60.744 3.90767 2.44209 0
M  V30 624 H 59.059 3.44476 2.33934 0
M  V30 625 H 61.656 2.24957 4.85076 0
M  V30 626 H 61.999 0.709372 4.10212 0
M  V30 627 H 62.532 2.21067 3.30717 0
M  V30 628 H 59.271 5.09467 4.1246 0
M  V30 629 H 58.791 3.53967 4.84218 0
M  V30 630 H 60.47 4.11458 4.99311 0
M  V30 631 N 60.6021 -1.18246 1.0419 0
M  V30 632 C 61.5341 -2.2142 0.592088 0
M  V30 633 C 62.5471 -1.59233 -0.338909 0
M  V30 634 O 63.7361 -1.78002 -0.133231 0
M  V30 635 C 60.8361 -3.38546 -0.154854 0
M  V30 636 C 60.0091 -4.3031 0.784328 0
M  V30 637 C 59.0681 -5.26138 0.0804583 0
M  V30 638 O 58.0941 -5.64738 0.711292 0
M  V30 639 N 59.2961 -5.68261 -1.18574 0
M  V30 640 H 62.0611 -2.60636 1.47949 0
M  V30 641 H 59.6221 -1.33044 0.922544 0
M  V30 642 H 61.6141 -3.99678 -0.635606 0
M  V30 643 H 60.1841 -2.98012 -0.943811 0
M  V30 644 H 59.4041 -3.66764 1.44491 0
M  V30 645 H 60.6921 -4.8852 1.42218 0
M  V30 646 H 60.0901 -5.38957 -1.71876 0
M  V30 647 H 58.6471 -6.31584 -1.61074 0
M  V30 648 N 62.0802 -0.821533 -1.34494 0
M  V30 649 C 63.0282 -0.230702 -2.31453 0
M  V30 650 C 64.0222 0.627793 -1.57338 0
M  V30 651 O 65.2282 0.519288 -1.72347 0
M  V30 652 H 61.6032 -0.0558577 -0.749923 0
M  V30 653 H 63.5742 -1.06332 -2.78812 0
M  V30 654 C 62.3232 0.59391 -3.4259 0
M  V30 655 H 61.6462 -0.0573588 -3.99759 0
M  V30 656 H 63.0862 0.973446 -4.12674 0
M  V30 657 C 61.5452 1.76568 -2.86924 0
M  V30 658 O 62.0752 2.8638 -2.81691 0
M  V30 659 N 60.2812 1.58198 -2.43766 0
M  V30 660 H 59.8282 0.68872 -2.48222 0
M  V30 661 H 59.7862 2.36752 -2.06871 0
M  V30 662 N 63.5583 1.46682 -0.576371 0
M  V30 663 C 64.8043 2.02712 -0.0596221 0
M  V30 664 C 65.1373 1.44765 1.29448 0
M  V30 665 O 64.4123 0.610355 1.84675 0
M  V30 666 C 64.6953 3.60098 0.0129503 0
M  V30 667 C 64.5483 4.28441 -1.3696 0
M  V30 668 C 65.8673 4.34224 0.71678 0
M  V30 669 H 62.9863 0.736637 -0.0231407 0
M  V30 670 H 65.6283 1.74898 -0.742351 0
M  V30 671 H 63.7783 3.83926 0.594378 0
M  V30 672 H 65.4503 4.15896 -1.9957 0
M  V30 673 H 63.6933 3.8805 -1.93907 0
M  V30 674 H 64.3643 5.3716 -1.27135 0
M  V30 675 H 66.8403 4.15503 0.222908 0
M  V30 676 H 65.7163 5.43936 0.73657 0
M  V30 677 H 65.9773 4.04823 1.77682 0
M  V30 678 N 65.0364 0.313813 1.54444 0
M  V30 679 C 66.4474 -0.176243 1.85866 0
M  V30 680 C 66.7984 -1.52405 1.23561 0
M  V30 681 O 65.9234 -2.09605 0.538016 0
M  V30 682 C 66.5184 -0.32657 3.37222 0
M  V30 683 C 65.0774 -0.760846 3.6863 0
M  V30 684 C 64.2244 0.123247 2.77026 0
M  V30 685 H 67.1754 0.534418 1.49431 0
M  V30 686 H 67.1964 -1.15908 3.62416 0
M  V30 687 H 66.7084 0.654531 3.82541 0
M  V30 688 H 64.8094 -1.75204 3.28838 0
M  V30 689 H 64.9224 -0.571353 4.75681 0
M  V30 690 H 63.2864 -0.399597 2.51546 0
M  V30 691 H 64.0694 1.10094 3.25168 0
M  V30 692 N 66.5145 -1.57545 0.0417849 0
M  V30 693 C 67.4615 -2.10977 -0.935805 0
M  V30 694 C 68.4315 -1.01486 -1.31491 0
M  V30 695 O 69.6165 -1.2898 -1.40602 0
M  V30 696 C 66.7565 -2.65169 -2.2086 0
M  V30 697 C 65.8695 -3.88714 -1.88482 0
M  V30 698 C 65.0045 -4.31254 -3.1015 0
M  V30 699 C 64.0435 -5.47524 -2.7365 0
M  V30 700 N 63.1805 -5.85162 -3.87982 0
M  V30 701 H 68.0205 -2.94218 -0.473249 0
M  V30 702 H 65.5575 -1.45415 -0.221981 0
M  V30 703 H 67.5155 -2.94685 -2.95325 0
M  V30 704 H 66.1455 -1.8474 -2.64709 0
M  V30 705 H 65.1975 -3.65849 -1.04205 0
M  V30 706 H 66.5095 -4.73245 -1.57608 0
M  V30 707 H 65.6635 -4.62273 -3.92923 0
M  V30 708 H 64.4025 -3.45516 -3.44195 0
M  V30 709 H 63.4075 -5.16187 -1.89291 0
M  V30 710 H 64.6325 -6.34971 -2.40807 0
M  V30 711 H 62.5785 -5.02377 -4.21846 0
M  V30 712 H 62.4955 -6.64362 -3.60775 0
M  V30 713 H 63.7635 -6.20791 -4.71422 0
M  V30 714 N 67.9926 0.231505 -1.5589 0
M  V30 715 C 68.9226 1.29022 -1.94617 0
M  V30 716 C 69.9036 1.4941 -0.813067 0
M  V30 717 O 71.0886 1.6176 -1.07459 0
M  V30 718 C 68.2186 2.64199 -2.25424 0
M  V30 719 C 67.1726 2.58484 -3.41131 0
M  V30 720 C 66.4986 3.97599 -3.57518 0
M  V30 721 C 67.7986 2.1413 -4.76388 0
M  V30 722 H 69.4926 0.968563 -2.83301 0
M  V30 723 H 67.0386 0.464479 -1.36303 0
M  V30 724 H 68.9916 3.38413 -2.51107 0
M  V30 725 H 67.7156 2.98032 -1.33583 0
M  V30 726 H 66.3746 1.86727 -3.15481 0
M  V30 727 H 66.0226 4.28723 -2.6307 0
M  V30 728 H 65.7226 3.94659 -4.35337 0
M  V30 729 H 67.2466 4.7349 -3.85538 0
M  V30 730 H 68.6606 2.78083 -5.01341 0
M  V30 731 H 67.0576 2.2227 -5.57419 0
M  V30 732 H 68.1276 1.09331 -4.72414 0
M  V30 733 N 69.4707 1.49531 0.497807 0
M  V30 734 C 70.4177 1.66436 1.59899 0
M  V30 735 C 71.3877 0.505793 1.58212 0
M  V30 736 O 72.5727 0.733202 1.7615 0
M  V30 737 C 69.7127 1.7399 2.98029 0
M  V30 738 C 68.8257 3.01172 3.09708 0
M  V30 739 C 67.9607 2.99686 4.38591 0
M  V30 740 C 66.9997 4.21434 4.43914 0
M  V30 741 N 66.1367 4.1784 5.64229 0
M  V30 742 H 70.9767 2.60459 1.44793 0
M  V30 743 H 68.5137 1.29137 0.704423 0
M  V30 744 H 70.4717 1.76352 3.78095 0
M  V30 745 H 69.1017 0.834301 3.11832 0
M  V30 746 H 68.1537 3.08408 2.22685 0
M  V30 747 H 69.4657 3.91165 3.09502 0
M  V30 748 H 68.6197 3.00628 5.2698 0
M  V30 749 H 67.3587 2.07477 4.41367 0
M  V30 750 H 66.3637 4.20733 3.53926 0
M  V30 751 H 67.5887 5.14839 4.42851 0
M  V30 752 H 65.5347 3.28469 5.67841 0
M  V30 753 H 65.4517 5.01571 5.65652 0
M  V30 754 H 66.7197 4.22889 6.54817 0
M  V30 755 N 70.9488 -0.749086 1.3866 0
M  V30 756 C 72.2258 -1.4992 1.25632 0
M  V30 757 C 72.6058 -2.10633 -0.140317 0
M  V30 758 O 71.9538 -1.97437 -1.15025 0
M  V30 759 C 72.1638 -2.56195 2.36992 0
M  V30 760 C 73.5118 -3.22972 2.75634 0
M  V30 761 O 74.5358 -2.66502 2.36337 0
M  V30 762 O 73.3948 -4.25122 3.43415 0
M  V30 763 H 70.4888 -0.665067 0.491544 0
M  V30 764 H 73.0348 -0.784113 1.50498 0
M  V30 765 H 71.8068 -2.09612 3.30422 0
M  V30 766 H 71.4298 -3.35279 2.13714 0
M  V30 767 N 72.4269 -1.23603 -0.977757 0
M  V30 768 C 73.6729 -1.07129 -1.72195 0
M  V30 769 C 74.0059 0.390501 -1.90233 0
M  V30 770 O 73.2809 1.28902 -1.45653 0
M  V30 771 C 73.5639 -1.80031 -3.11867 0
M  V30 772 C 73.4169 -3.33899 -3.01383 0
M  V30 773 C 74.7359 -1.56492 -4.11337 0
M  V30 774 H 71.8549 -0.390571 -0.624999 0
M  V30 775 H 74.4969 -1.52142 -1.13811 0
M  V30 776 H 72.6469 -1.41768 -3.6171 0
M  V30 777 H 74.3189 -3.81699 -2.59043 0
M  V30 778 H 72.5619 -3.62796 -2.37827 0
M  V30 779 H 73.2329 -3.801 -4.00285 0
M  V30 780 H 75.7089 -1.89757 -3.70313 0
M  V30 781 H 74.5849 -2.09973 -5.07151 0
M  V30 782 H 74.8459 -0.500874 -4.39254 0
M  V30 783 N 73.905 1.17692 -1.04816 0
M  V30 784 C 75.182 1.83768 -0.669963 0
M  V30 785 C 75.562 1.93232 0.849986 0
M  V30 786 O 74.91 1.46397 1.75443 0
M  V30 787 C 75.12 3.21641 -1.35455 0
M  V30 788 C 76.468 3.97592 -1.49017 0
M  V30 789 O 77.492 3.31107 -1.31326 0
M  V30 790 O 76.351 5.16729 -1.77914 0
M  V30 791 H 73.445 0.792799 -0.235368 0
M  V30 792 H 75.991 1.25021 -1.14751 0
M  V30 793 H 74.763 3.097 -2.39168 0
M  V30 794 H 74.386 3.88052 -0.866107 0
M  V30 795 N 75.3831 0.828654 1.34056 0
M  V30 796 C 76.6111 0.43262 2.02326 0
M  V30 797 C 77.0261 -0.963147 1.62385 0
M  V30 798 O 76.3831 -1.62425 0.832121 0
M  V30 799 C 76.4341 0.53182 3.57567 0
M  V30 800 O 76.1551 1.87258 3.96063 0
M  V30 801 C 77.6561 0.131422 4.43105 0
M  V30 802 H 74.8761 0.172923 0.648335 0
M  V30 803 H 77.4201 1.1184 1.71208 0
M  V30 804 H 75.5751 -0.105938 3.87255 0
M  V30 805 H 75.9891 1.85087 4.90758 0
M  V30 806 H 77.4631 0.251904 5.51425 0
M  V30 807 H 77.9401 -0.925645 4.29335 0
M  V30 808 H 78.5461 0.743207 4.18756 0
M  V30 809 N 76.8612 -1.46375 0.584142 0
M  V30 810 C 78.0862 -2.07268 0.0740405 0
M  V30 811 C 78.5112 -1.42979 -1.22223 0
M  V30 812 O 77.8692 -0.514092 -1.73859 0
M  V30 813 C 77.9172 -3.60518 -0.0767769 0
M  V30 814 O 77.0212 -3.96533 -1.13292 0
M  V30 815 H 76.3622 -0.660961 0.0634524 0
M  V30 816 H 78.8922 -1.87991 0.807492 0
M  V30 817 H 78.9022 -4.07021 -0.282489 0
M  V30 818 H 77.5772 -4.06702 0.86986 0
M  V30 819 H 76.1542 -3.61738 -0.905553 0
M  V30 820 N 78.3393 -0.321999 -1.54275 0
M  V30 821 C 79.2723 0.58718 -2.20516 0
M  V30 822 C 80.2503 1.11693 -1.18167 0
M  V30 823 O 81.4343 1.18122 -1.46899 0
M  V30 824 C 78.5613 1.80554 -2.86562 0
M  V30 825 C 77.6073 1.40718 -4.02617 0
M  V30 826 S 78.4403 0.445218 -5.33646 0
M  V30 827 C 79.5963 1.6709 -6.03185 0
M  V30 828 H 79.8293 0.0244875 -2.9729 0
M  V30 829 H 77.3623 -0.106087 -1.54035 0
M  V30 830 H 79.3203 2.50462 -3.25237 0
M  V30 831 H 77.9813 2.33942 -2.09595 0
M  V30 832 H 77.1743 2.31501 -4.47687 0
M  V30 833 H 76.7763 0.78782 -3.65608 0
M  V30 834 H 79.0683 2.60856 -6.25268 0
M  V30 835 H 80.0113 1.26239 -6.96756 0
M  V30 836 H 80.4193 1.85716 -5.33076 0
M  V30 837 N 79.8174 1.5752 -0.0501392 0
M  V30 838 C 80.7644 2.1147 0.924603 0
M  V30 839 C 81.7344 1.02182 1.30951 0
M  V30 840 O 82.9194 1.29723 1.39916 0
M  V30 841 C 80.0594 2.66337 2.19451 0
M  V30 842 C 79.1724 3.89708 1.86418 0
M  V30 843 C 78.3074 4.32893 3.07859 0
M  V30 844 C 77.3464 5.48967 2.70742 0
M  V30 845 N 76.4834 5.87211 3.84874 0
M  V30 846 H 81.3234 2.94465 0.457639 0
M  V30 847 H 78.8604 1.45531 0.214266 0
M  V30 848 H 80.8184 2.96247 2.93758 0
M  V30 849 H 79.4484 1.86141 2.63726 0
M  V30 850 H 78.5004 3.66396 1.02264 0
M  V30 851 H 79.8124 4.74074 1.55096 0
M  V30 852 H 78.9664 4.6435 3.90466 0
M  V30 853 H 77.7054 3.47336 3.42358 0
M  V30 854 H 76.7104 5.17183 1.86551 0
M  V30 855 H 77.9354 6.3624 2.37436 0
M  V30 856 H 75.8814 5.04607 4.19175 0
M  V30 857 H 75.7984 6.66266 3.57247 0
M  V30 858 H 77.0664 6.23282 4.68123 0
M  V30 859 N 81.2955 -0.223234 1.56011 0
M  V30 860 C 82.2255 -1.27988 1.95298 0
M  V30 861 C 83.2065 -1.48976 0.820979 0
M  V30 862 O 84.3915 -1.61188 1.08315 0
M  V30 863 C 81.5215 -2.63 2.26822 0
M  V30 864 C 80.4755 -2.56671 3.42497 0
M  V30 865 C 79.8015 -3.95697 3.59622 0
M  V30 866 C 81.1015 -2.11601 4.77517 0
M  V30 867 H 82.7955 -0.953525 2.8381 0
M  V30 868 H 80.3415 -0.457244 1.36548 0
M  V30 869 H 82.2945 -3.37077 2.52898 0
M  V30 870 H 81.0185 -2.9732 1.35161 0
M  V30 871 H 79.6775 -1.85051 3.16467 0
M  V30 872 H 79.3255 -4.27322 2.6534 0
M  V30 873 H 79.0255 -3.92345 4.37424 0
M  V30 874 H 80.5495 -4.71438 3.88044 0
M  V30 875 H 81.9635 -2.7542 5.02809 0
M  V30 876 H 80.3605 -2.19311 5.5859 0
M  V30 877 H 81.4305 -1.06824 4.72987 0
M  V30 878 N 82.7736 -1.49793 -0.48987 0
M  V30 879 C 83.7036 -1.70201 -1.59856 0
M  V30 880 C 84.6846 -0.55076 -1.60937 0
M  V30 881 O 85.8696 -0.787841 -1.77501 0
M  V30 882 C 82.9996 -1.77882 -2.98287 0
M  V30 883 C 81.9536 -2.92907 -3.12073 0
M  V30 884 C 81.2796 -2.85712 -4.51965 0
M  V30 885 C 82.5796 -4.3369 -2.91051 0
M  V30 886 H 84.2736 -2.63025 -1.43032 0
M  V30 887 H 81.8196 -1.26574 -0.686664 0
M  V30 888 H 83.7726 -1.90744 -3.75759 0
M  V30 889 H 82.4966 -0.816653 -3.16225 0
M  V30 890 H 81.1556 -2.79665 -2.37029 0
M  V30 891 H 80.8036 -1.8738 -4.66795 0
M  V30 892 H 80.5036 -3.62921 -4.62128 0
M  V30 893 H 82.0276 -3.00598 -5.31482 0
M  V30 894 H 83.4416 -4.47555 -3.58284 0
M  V30 895 H 81.8386 -5.12205 -3.12675 0
M  V30 896 H 82.9086 -4.47362 -1.87071 0
M  V30 897 N 84.2517 0.741722 -1.39055 0
M  V30 898 C 85.4767 1.53607 -1.39354 0
M  V30 899 C 85.9017 1.88096 0.0116905 0
M  V30 900 O 85.2597 1.5143 0.996924 0
M  V30 901 C 85.3077 2.80441 -2.26682 0
M  V30 902 O 84.4117 3.76088 -1.69208 0
M  V30 903 H 83.7527 0.464142 -0.474835 0
M  V30 904 H 86.2827 0.915665 -1.82967 0
M  V30 905 H 86.2927 3.29246 -2.40959 0
M  V30 906 H 84.9677 2.5467 -3.2881 0
M  V30 907 H 83.5447 3.34833 -1.64138 0
M  V30 908 N 85.7298 1.2412 0.971189 0
M  V30 909 C 86.6618 0.988349 2.06795 0
M  V30 910 C 87.6748 -0.0409541 1.62748 0
M  V30 911 O 88.8638 0.195673 1.77424 0
M  V30 912 C 85.9638 0.469023 3.35639 0
M  V30 913 C 85.1368 1.56065 4.08611 0
M  V30 914 C 84.1958 1.04458 5.15728 0
M  V30 915 O 83.2218 1.73553 5.42096 0
M  V30 916 N 84.4238 -0.122817 5.8037 0
M  V30 917 H 87.1888 1.93265 2.29061 0
M  V30 918 H 84.7498 1.15102 1.13856 0
M  V30 919 H 86.7418 0.108613 4.04554 0
M  V30 920 H 85.3118 -0.380919 3.1027 0
M  V30 921 H 84.5318 2.09341 3.34021 0
M  V30 922 H 85.8198 2.29449 4.54126 0
M  V30 923 H 85.2178 -0.700563 5.61345 0
M  V30 924 H 83.7748 -0.424404 6.50417 0
M  V30 925 N 87.2079 -1.17134 1.05439 0
M  V30 926 C 88.1379 -2.2342 0.678649 0
M  V30 927 C 89.1189 -1.66971 -0.32476 0
M  V30 928 O 90.3039 -1.93149 -0.201802 0
M  V30 929 C 87.4339 -3.47256 0.0552099 0
M  V30 930 C 86.3879 -4.16543 0.98365 0
M  V30 931 C 85.7139 -5.34231 0.223961 0
M  V30 932 C 87.0139 -4.68495 2.3089 0
M  V30 933 H 88.7079 -2.55105 1.56722 0
M  V30 934 H 86.2539 -1.2262 0.754998 0
M  V30 935 H 88.2069 -4.20828 -0.21946 0
M  V30 936 H 86.9309 -3.14846 -0.868319 0
M  V30 937 H 85.5899 -3.44887 1.24293 0
M  V30 938 H 85.2379 -4.98071 -0.702412 0
M  V30 939 H 84.9379 -5.81527 0.842627 0
M  V30 940 H 86.4619 -6.10585 -0.0433671 0
M  V30 941 H 87.8759 -5.33691 2.09396 0
M  V30 942 H 86.2729 -5.26379 2.88176 0
M  V30 943 H 87.3429 -3.85169 2.94572 0
M  V30 944 N 88.686 -0.835752 -1.33615 0
M  V30 945 C 89.934 -0.429109 -1.97492 0
M  V30 946 C 90.255 1.01433 -1.66543 0
M  V30 947 O 89.525 1.70611 -0.962744 0
M  V30 948 H 88.105 -0.155686 -0.730596 0
M  V30 949 H 90.767 -1.06802 -1.63031 0
M  V30 950 H 89.863 -0.55861 -3.0706 0
M  V30 951 N 90.1641 1.46063 -0.591896 0
M  V30 952 C 91.1271 2.28854 0.125973 0
M  V30 953 C 92.1271 1.38903 0.810107 0
M  V30 954 O 93.3171 1.61186 0.66066 0
M  V30 955 C 90.4491 3.19526 1.1881 0
M  V30 956 H 91.6421 2.93802 -0.601717 0
M  V30 957 H 89.1951 1.52325 -0.350254 0
M  V30 958 H 89.9301 2.59345 1.94707 0
M  V30 959 H 89.7151 3.85766 0.701936 0
M  V30 960 H 91.2051 3.81817 1.69132 0
M  V30 961 N 91.6422 0.330177 1.54103 0
M  V30 962 C 92.5892 -0.532762 2.24567 0
M  V30 963 C 93.5592 -1.10635 1.23892 0
M  V30 964 O 94.7442 -1.14546 1.5259 0
M  V30 965 C 91.8842 -1.6845 3.01195 0
M  V30 966 C 90.9972 -1.13951 4.167 0
M  V30 967 C 90.1322 -2.25746 4.80845 0
M  V30 968 C 89.1712 -1.6853 5.88442 0
M  V30 969 N 88.3082 -2.74014 6.46421 0
M  V30 970 H 93.1482 0.0746905 2.97906 0
M  V30 971 H 90.6852 0.048632 1.4702 0
M  V30 972 H 92.6432 -2.36234 3.43874 0
M  V30 973 H 91.2732 -2.26314 2.30178 0
M  V30 974 H 90.3252 -0.35301 3.78758 0
M  V30 975 H 91.6372 -0.680892 4.94131 0
M  V30 976 H 90.7912 -3.01422 5.26526 0
M  V30 977 H 89.5302 -2.74947 4.0281 0
M  V30 978 H 88.5352 -0.913543 5.42157 0
M  V30 979 H 89.7602 -1.20198 6.68378 0
M  V30 980 H 87.7062 -3.22494 5.71256 0
M  V30 981 H 87.6232 -2.32735 7.19285 0
M  V30 982 H 88.8912 -3.49499 6.96757 0
M  V30 983 N 93.1203 -1.57491 0.0584922 0
M  V30 984 C 94.3663 -1.93264 -0.614558 0
M  V30 985 C 94.6993 -0.937717 -1.7006 0
M  V30 986 O 93.9743 0.0351652 -1.94468 0
M  V30 987 C 94.2573 -3.3938 -1.20386 0
M  V30 988 C 94.1103 -4.49625 -0.125375 0
M  V30 989 C 95.4293 -3.86039 -2.11334 0
M  V30 990 H 92.5483 -0.702791 -0.221933 0
M  V30 991 H 95.1903 -1.8961 0.12175 0
M  V30 992 H 93.3403 -3.42626 -1.83139 0
M  V30 993 H 95.0123 -4.58506 0.506971 0
M  V30 994 H 93.2553 -4.30354 0.545672 0
M  V30 995 H 93.9263 -5.48967 -0.577861 0
M  V30 996 H 96.4023 -3.84716 -1.58534 0
M  V30 997 H 95.2783 -4.88914 -2.49507 0
M  V30 998 H 95.5393 -3.23215 -3.01636 0
M  V30 999 N 94.5984 0.214957 -1.56127 0
M  V30 1000 C 95.5084 1.28727 -1.96129 0
M  V30 1001 C 96.5244 1.50916 -0.866044 0
M  V30 1002 O 97.7004 1.63918 -1.17016 0
M  V30 1003 C 94.7654 2.61569 -2.27558 0
M  V30 1004 C 93.8264 2.47625 -3.50685 0
M  V30 1005 C 93.0594 3.74132 -3.80606 0
M  V30 1006 O 93.2824 4.77438 -3.12104 0
M  V30 1007 O 92.2164 3.70849 -4.74083 0
M  V30 1008 H 96.0424 0.977855 -2.87527 0
M  V30 1009 H 93.6274 0.418358 -1.43423 0
M  V30 1010 H 95.5094 3.40012 -2.48938 0
M  V30 1011 H 94.1844 2.92178 -1.39332 0
M  V30 1012 H 93.0914 1.67361 -3.34576 0
M  V30 1013 H 94.4244 2.21954 -4.39315 0
M  V30 1014 N 96.0765 1.50051 0.48192 0
M  V30 1015 C 97.4925 1.37237 0.814756 0
M  V30 1016 C 97.6925 0.420109 1.97072 0
M  V30 1017 O 96.7485 -0.141246 2.52105 0
M  V30 1018 C 98.0615 2.78375 1.13701 0
M  V30 1019 C 99.6095 2.87213 1.2441 0
M  V30 1020 C 100.084 4.29161 1.59954 0
M  V30 1021 N 101.575 4.32061 1.66967 0
M  V30 1022 C 102.31 5.38879 1.95952 0
M  V30 1023 N 101.806 6.55918 2.23031 0
M  V30 1024 N 103.599 5.26312 1.97363 0
M  V30 1025 H 95.7505 2.10546 -0.28005 0
M  V30 1026 H 98.0135 0.945921 -0.0627454 0
M  V30 1027 H 97.7195 3.49845 0.360787 0
M  V30 1028 H 97.5935 3.14941 2.07586 0
M  V30 1029 H 99.9805 2.15969 2.01101 0
M  V30 1030 H 100.061 2.54204 0.285299 0
M  V30 1031 H 99.7055 5.00938 0.838067 0
M  V30 1032 H 99.6355 4.59648 2.56966 0
M  V30 1033 H 102.126 3.47661 1.48123 0
M  V30 1034 H 102.439 7.33139 2.44391 0
M  V30 1035 H 100.784 6.59112 2.20447 0
M  V30 1036 H 103.975 4.33876 1.75697 0
M  V30 1037 H 104.148 6.09649 2.19618 0
M  V30 1038 N 97.5546 -0.734337 1.39446 0
M  V30 1039 C 98.5026 -1.86971 1.38364 0
M  V30 1040 C 99.4966 -1.67288 0.266687 0
M  V30 1041 O 100.703 -1.74621 0.436755 0
M  V30 1042 H 97.0776 -0.615474 0.432082 0
M  V30 1043 H 99.0486 -1.85 2.34132 0
M  V30 1044 C 97.7976 -3.2466 1.24465 0
M  V30 1045 H 97.1206 -3.40402 2.09682 0
M  V30 1046 H 98.5606 -4.04292 1.27764 0
M  V30 1047 C 97.0196 -3.36867 -0.0468674 0
M  V30 1048 O 97.5496 -3.88618 -1.01681 0
M  V30 1049 N 95.7556 -2.90391 -0.110145 0
M  V30 1050 H 95.3026 -2.48466 0.679868 0
M  V30 1051 H 95.2606 -2.98939 -0.973799 0
M  V30 1052 N 99.0327 -1.24633 -0.964593 0
M  V30 1053 C 100.281 -1.08573 -1.70459 0
M  V30 1054 C 100.602 0.375655 -1.91347 0
M  V30 1055 O 99.8717 1.26779 -1.49345 0
M  V30 1056 H 98.4517 -0.398784 -0.631649 0
M  V30 1057 H 101.114 -1.56601 -1.16026 0
M  V30 1058 H 100.21 -1.58623 -2.68785 0
M  V30 1059 N 100.511 1.16574 -1.06058 0
M  V30 1060 C 101.736 1.91493 -0.796562 0
M  V30 1061 C 102.161 1.76773 0.642868 0
M  V30 1062 O 101.519 1.09142 1.44768 0
M  V30 1063 C 101.567 3.40293 -1.19303 0
M  V30 1064 O 100.671 4.11074 -0.330394 0
M  V30 1065 H 100.012 0.596678 -0.291326 0
M  V30 1066 H 102.542 1.47708 -1.41575 0
M  V30 1067 H 102.552 3.91057 -1.16356 0
M  V30 1068 H 101.227 3.50326 -2.24153 0
M  V30 1069 H 99.8038 3.70513 -0.421225 0
M  V30 1070 N 101.989 0.842826 1.3317 0
M  V30 1071 C 103.235 0.441099 1.97945 0
M  V30 1072 C 103.568 -0.998024 1.66593 0
M  V30 1073 O 102.843 -1.69839 0.947898 0
M  V30 1074 C 103.126 0.666841 3.53872 0
M  V30 1075 C 102.979 2.15352 3.94897 0
M  V30 1076 C 104.298 0.115544 4.39948 0
M  V30 1077 H 101.417 0.161739 0.719034 0
M  V30 1078 H 104.059 1.05907 1.57746 0
M  V30 1079 H 102.209 0.140828 3.88245 0
M  V30 1080 H 103.881 2.7447 3.70761 0
M  V30 1081 H 102.124 2.63653 3.44484 0
M  V30 1082 H 102.795 2.26221 5.03516 0
M  V30 1083 H 105.271 0.565213 4.12243 0
M  V30 1084 H 104.147 0.303152 5.48062 0
M  V30 1085 H 104.408 -0.980935 4.3108 0
M  V30 1086 N 103.467 -1.45747 0.599634 0
M  V30 1087 C 104.417 -2.27538 -0.145107 0
M  V30 1088 C 105.401 -1.3686 -0.846055 0
M  V30 1089 O 106.593 -1.6091 -0.737357 0
M  V30 1090 C 103.722 -3.23569 -1.14708 0
M  V30 1091 C 102.808 -4.21734 -0.447383 0
M  V30 1092 N 103.199 -5.03257 0.506535 0
M  V30 1093 C 101.497 -4.40536 -0.695966 0
M  V30 1094 C 102.198 -5.74426 0.917068 0
M  V30 1095 N 101.174 -5.42966 0.26253 0
M  V30 1096 H 104.976 -2.87965 0.587672 0
M  V30 1097 H 102.49 -1.56803 0.422697 0
M  V30 1098 H 104.487 -3.8089 -1.69495 0
M  V30 1099 H 103.147 -2.64702 -1.8805 0
M  V30 1100 H 104.158 -5.10319 0.882899 0
M  V30 1101 H 100.835 -3.92802 -1.41467 0
M  V30 1102 H 102.225 -6.4995 1.70338 0
M  V30 1103 N 104.945 -0.338344 -1.53925 0
M  V30 1104 C 106.194 0.260732 -2.00008 0
M  V30 1105 C 106.507 1.52073 -1.23017 0
M  V30 1106 O 107.713 2.19672 -1.5955 0
M  V30 1107 C 106.169 0.51515 -3.56194 0
M  V30 1108 C 105.777 -0.728645 -4.42035 0
M  V30 1109 C 107.521 1.07337 -4.10706 0
M  V30 1110 C 105.428 -0.445315 -5.89721 0
M  V30 1111 H 104.358 0.101205 -0.747177 0
M  V30 1112 H 107.009 -0.452866 -1.77824 0
M  V30 1113 H 105.391 1.28932 -3.74423 0
M  V30 1114 H 106.565 -1.50352 -4.35581 0
M  V30 1115 H 104.88 -1.20813 -3.98489 0
M  V30 1116 H 107.477 1.30022 -5.18651 0
M  V30 1117 H 107.82 2.0273 -3.63602 0
M  V30 1118 H 108.353 0.360034 -3.96167 0
M  V30 1119 H 105.092 -1.36883 -6.41049 0
M  V30 1120 H 104.612 0.291569 -5.99091 0
M  V30 1121 H 106.291 -0.0606218 -6.46972 0
M  V30 1122 N 106.423 1.57458 -0.0668435 0
M  V30 1123 C 107.7 1.8469 0.644132 0
M  V30 1124 C 108.08 0.958343 1.88093 0
M  V30 1125 O 107.428 0.0233579 2.28488 0
M  V30 1126 C 107.638 3.34767 0.986509 0
M  V30 1127 C 108.986 4.02159 1.36212 0
M  V30 1128 O 110.01 3.39484 1.07839 0
M  V30 1129 O 108.869 5.12694 1.89227 0
M  V30 1130 H 105.963 0.762816 0.319437 0
M  V30 1131 H 108.509 1.6942 -0.0973986 0
M  V30 1132 H 107.281 3.91151 0.107883 0
M  V30 1133 H 106.904 3.55281 1.78497 0
M  V30 1134 N 107.901 -0.206675 1.56239 0
M  V30 1135 C 108.864 -1.23976 1.92776 0
M  V30 1136 C 109.864 -1.39041 0.807729 0
M  V30 1137 O 111.054 -1.37051 1.0753 0
M  V30 1138 C 108.186 -2.61112 2.19165 0
M  V30 1139 H 109.379 -0.927764 2.85189 0
M  V30 1140 H 106.932 -0.447718 1.4975 0
M  V30 1141 H 107.667 -2.97386 1.29352 0
M  V30 1142 H 107.452 -2.51552 3.00772 0
M  V30 1143 H 108.942 -3.35633 2.48476 0
M  V30 1144 N 109.379 -1.50304 -0.473955 0
M  V30 1145 C 110.795 -1.37667 -0.807466 0
M  V30 1146 C 110.995 -0.430555 -1.96846 0
M  V30 1147 O 110.051 0.127874 -2.52176 0
M  V30 1148 C 111.364 -2.78974 -1.12223 0
M  V30 1149 C 112.912 -2.87868 -1.22885 0
M  V30 1150 C 113.387 -4.30003 -1.57676 0
M  V30 1151 N 114.878 -4.3294 -1.64673 0
M  V30 1152 C 115.613 -5.3991 -1.93091 0
M  V30 1153 N 115.109 -6.57092 -2.1955 0
M  V30 1154 N 116.902 -5.27351 -1.94569 0
M  V30 1155 H 109.053 -2.10394 0.291212 0
M  V30 1156 H 111.316 -0.945575 0.0677609 0
M  V30 1157 H 111.022 -3.50031 -0.342229 0
M  V30 1158 H 110.896 -3.16038 -2.05913 0
M  V30 1159 H 113.283 -2.17032 -1.99953 0
M  V30 1160 H 113.364 -2.54352 -0.271814 0
M  V30 1161 H 113.008 -5.01375 -0.81149 0
M  V30 1162 H 112.938 -4.61004 -2.54525 0
M  V30 1163 H 115.429 -3.48441 -1.46277 0
M  V30 1164 H 115.742 -7.34425 -2.405 0
M  V30 1165 H 114.087 -6.60272 -2.16948 0
M  V30 1166 H 117.278 -4.34801 -1.73394 0
M  V30 1167 H 117.451 -6.10805 -2.16381 0
M  V30 1168 N 110.857 0.726932 -1.39834 0
M  V30 1169 C 112.134 1.47902 -1.28001 0
M  V30 1170 C 112.514 2.1083 0.106789 0
M  V30 1171 O 111.862 1.99242 1.11869 0
M  V30 1172 C 112.072 2.52392 -2.41038 0
M  V30 1173 C 113.42 3.18546 -2.80737 0
M  V30 1174 O 114.444 2.62708 -2.40547 0
M  V30 1175 O 113.303 4.19604 -3.50135 0
M  V30 1176 H 110.397 0.657163 -0.502062 0
M  V30 1177 H 112.943 0.760071 -1.51727 0
M  V30 1178 H 111.715 2.04329 -3.33715 0
M  V30 1179 H 111.338 3.31837 -2.19021 0
M  V30 1180 N 112.336 1.25143 0.95797 0
M  V30 1181 C 113.582 1.09855 1.70469 0
M  V30 1182 C 113.915 -0.360187 1.90831 0
M  V30 1183 O 113.19 -1.26568 1.47685 0
M  V30 1184 C 113.473 1.8497 3.08963 0
M  V30 1185 C 113.326 3.38652 2.96032 0
M  V30 1186 C 114.645 1.63016 4.08795 0
M  V30 1187 H 111.764 0.400465 0.618706 0
M  V30 1188 H 114.406 1.53933 1.11376 0
M  V30 1189 H 112.556 1.47505 3.59409 0
M  V30 1190 H 114.228 3.85772 2.52938 0
M  V30 1191 H 112.471 3.66534 2.32025 0
M  V30 1192 H 113.142 3.8642 3.94187 0
M  V30 1193 H 115.618 1.95625 3.67247 0
M  V30 1194 H 114.494 2.18015 5.03747 0
M  V30 1195 H 114.755 0.570692 4.38401 0
M  V30 1196 N 113.814 -1.1601 1.06675 0
M  V30 1197 C 114.762 -2.22586 0.675157 0
M  V30 1198 C 115.756 -1.66525 -0.310766 0
M  V30 1199 O 116.962 -1.79145 -0.175215 0
M  V30 1200 H 113.337 -0.724855 0.200223 0
M  V30 1201 H 115.308 -2.52899 1.58381 0
M  V30 1202 C 114.057 -3.47604 0.0817162 0
M  V30 1203 H 113.38 -3.91058 0.831484 0
M  V30 1204 H 114.82 -4.23718 -0.154708 0
M  V30 1205 C 113.279 -3.15718 -1.17576 0
M  V30 1206 O 113.809 -3.31878 -2.26318 0
M  V30 1207 N 112.015 -2.69816 -1.07923 0
M  V30 1208 H 111.562 -2.56866 -0.194293 0
M  V30 1209 H 111.52 -2.48855 -1.92141 0
M  V30 1210 N 115.292 -0.849877 -1.32721 0
M  V30 1211 C 116.538 -0.451591 -1.97708 0
M  V30 1212 C 116.871 0.989175 -1.6712 0
M  V30 1213 O 116.146 1.69334 -0.956891 0
M  V30 1214 C 116.429 -0.685598 -3.53513 0
M  V30 1215 C 116.282 -2.17444 -3.93749 0
M  V30 1216 C 117.601 -0.138874 -4.39881 0
M  V30 1217 H 114.72 -0.16555 -0.718166 0
M  V30 1218 H 117.362 -1.06742 -1.57182 0
M  V30 1219 H 115.512 -0.161416 -3.88165 0
M  V30 1220 H 117.184 -2.76433 -3.693 0
M  V30 1221 H 115.427 -2.65476 -3.43081 0
M  V30 1222 H 116.098 -2.28888 -5.02309 0
M  V30 1223 H 118.574 -0.587068 -4.11938 0
M  V30 1224 H 117.45 -0.332213 -5.47894 0
M  V30 1225 H 117.711 0.95806 -4.31594 0
M  V30 1226 N 116.77 1.45427 -0.607355 0
M  V30 1227 C 118.017 2.02241 -0.102455 0
M  V30 1228 C 118.345 1.4758 1.26691 0
M  V30 1229 O 117.6 0.640468 1.84923 0
M  V30 1230 C 117.899 3.57398 -0.0129263 0
M  V30 1231 C 117.565 4.3121 -1.31792 0
M  V30 1232 C 116.227 4.51092 -1.67539 0
M  V30 1233 C 118.579 4.73401 -2.18039 0
M  V30 1234 C 115.907 5.10422 -2.89285 0
M  V30 1235 C 118.259 5.34078 -3.39034 0
M  V30 1236 C 116.923 5.52184 -3.75033 0
M  V30 1237 H 116.193 0.740051 -0.037491 0
M  V30 1238 H 118.84 1.74494 -0.788926 0
M  V30 1239 H 117.145 3.84421 0.756806 0
M  V30 1240 H 118.842 3.99061 0.393881 0
M  V30 1241 H 115.432 4.16047 -1.02968 0
M  V30 1242 H 119.616 4.57774 -1.91721 0
M  V30 1243 H 114.872 5.22629 -3.17283 0
M  V30 1244 H 119.046 5.65724 -4.06115 0
M  V30 1245 H 116.673 5.97925 -4.69457 0
M  V30 1246 N 118.248 0.346503 1.53744 0
M  V30 1247 C 119.488 -0.249413 2.02873 0
M  V30 1248 C 119.852 -1.47532 1.22876 0
M  V30 1249 O 121.053 -2.1456 1.61918 0
M  V30 1250 C 119.324 -0.552909 3.53097 0
M  V30 1251 S 120.883 -1.12521 4.24128 0
M  V30 1252 H 117.701 -0.074042 0.707134 0
M  V30 1253 H 120.303 0.48495 1.8939 0
M  V30 1254 H 119.007 0.347083 4.0893 0
M  V30 1255 H 118.538 -1.31686 3.70705 0
M  V30 1256 H 120.553 -2.41075 4.33702 0
M  V30 1257 N 119.726 -1.57421 0.075193 0
M  V30 1258 C 120.689 -2.11791 -0.876203 0
M  V30 1259 C 121.689 -1.04268 -1.22412 0
M  V30 1260 O 122.879 -1.30242 -1.15684 0
M  V30 1261 C 120.011 -2.62207 -2.17854 0
M  V30 1262 H 121.204 -2.9716 -0.40444 0
M  V30 1263 H 118.757 -1.55333 -0.173557 0
M  V30 1264 H 119.492 -1.803 -2.6956 0
M  V30 1265 H 119.277 -3.40802 -1.93897 0
M  V30 1266 H 120.767 -3.04335 -2.85955 0
M  V30 1267 N 121.204 0.198386 -1.56346 0
M  V30 1268 C 122.615 0.763358 -1.70381 0
M  V30 1269 C 122.966 1.83995 -0.681203 0
M  V30 1270 O 122.091 2.15785 0.16305 0
M  V30 1271 C 122.686 1.39143 -3.08909 0
M  V30 1272 C 121.245 1.90352 -3.2472 0
M  V30 1273 C 120.392 0.772233 -2.6633 0
M  V30 1274 H 123.343 -0.0266377 -1.58678 0
M  V30 1275 H 123.364 2.26076 -3.06055 0
M  V30 1276 H 122.876 0.607638 -3.83314 0
M  V30 1277 H 120.977 2.71461 -2.55225 0
M  V30 1278 H 121.09 2.06757 -4.3219 0
M  V30 1279 H 119.454 1.18566 -2.2542 0
M  V30 1280 H 120.237 0.00073556 -3.433 0
M  V30 1281 N 122.682 1.50554 0.465978 0
M  V30 1282 C 123.912 1.65323 1.23903 0
M  V30 1283 C 124.32 0.338051 1.86155 0
M  V30 1284 O 123.663 -0.690518 1.70228 0
M  V30 1285 C 123.725 2.69048 2.3844 0
M  V30 1286 C 123.389 4.12462 1.96784 0
M  V30 1287 C 124.386 4.98168 1.48745 0
M  V30 1288 C 122.071 4.58407 2.05349 0
M  V30 1289 C 124.065 6.27868 1.0982 0
M  V30 1290 C 121.752 5.88112 1.66035 0
M  V30 1291 C 122.75 6.72668 1.18349 0
M  V30 1292 O 122.438 7.99951 0.795825 0
M  V30 1293 H 122.17 0.558629 0.38067 0
M  V30 1294 H 124.724 1.97561 0.562022 0
M  V30 1295 H 122.954 2.32062 3.09328 0
M  V30 1296 H 124.643 2.72985 3.0039 0
M  V30 1297 H 125.409 4.63885 1.41546 0
M  V30 1298 H 121.288 3.92735 2.41414 0
M  V30 1299 H 124.832 6.93819 0.725293 0
M  V30 1300 H 120.729 6.21914 1.72895 0
M  V30 1301 H 121.497 8.13265 0.924222 0
M  V30 1302 N 124.16 -0.719506 1.40217 0
M  V30 1303 C 125.437 -1.47221 1.28784 0
M  V30 1304 C 125.817 -2.10883 -0.0956067 0
M  V30 1305 O 125.165 -1.99833 -1.10811 0
M  V30 1306 C 125.375 -2.5111 2.42373 0
M  V30 1307 C 126.723 -3.17053 2.82423 0
M  V30 1308 O 127.747 -2.61429 2.41937 0
M  V30 1309 O 126.606 -4.17742 3.52355 0
M  V30 1310 H 123.7 -0.654491 0.50554 0
M  V30 1311 H 126.246 -0.752014 1.52128 0
M  V30 1312 H 125.018 -2.02556 3.34793 0
M  V30 1313 H 124.641 -3.3067 2.20778 0
M  V30 1314 N 125.638 -1.25649 -0.95132 0
M  V30 1315 C 126.568 -1.08808 -2.06599 0
M  V30 1316 C 127.549 0.00382547 -1.701 0
M  V30 1317 O 128.734 -0.166325 -1.93486 0
M  V30 1318 C 125.864 -0.709542 -3.39975 0
M  V30 1319 C 124.818 -1.75206 -3.90496 0
M  V30 1320 C 124.144 -1.22811 -5.20405 0
M  V30 1321 C 125.444 -3.15153 -4.16504 0
M  V30 1322 H 127.138 -2.02048 -2.20946 0
M  V30 1323 H 124.684 -0.972835 -1.06169 0
M  V30 1324 H 126.637 -0.578649 -4.17408 0
M  V30 1325 H 125.361 0.258556 -3.25575 0
M  V30 1326 H 124.02 -1.87145 -3.15234 0
M  V30 1327 H 123.668 -0.250145 -5.02378 0
M  V30 1328 H 123.368 -1.92492 -5.55176 0
M  V30 1329 H 124.892 -1.10968 -6.00432 0
M  V30 1330 H 126.306 -3.06349 -4.84586 0
M  V30 1331 H 124.703 -3.82333 -4.62538 0
M  V30 1332 H 125.773 -3.61966 -3.22658 0
M  V30 1333 N 127.117 1.15442 -1.07289 0
M  V30 1334 C 128.363 1.86489 -0.796846 0
M  V30 1335 C 128.696 1.82078 0.675371 0
M  V30 1336 O 127.971 1.24346 1.4956 0
M  V30 1337 C 128.254 3.35626 -1.30489 0
M  V30 1338 C 128.107 3.48673 -2.84161 0
M  V30 1339 C 129.426 4.30357 -0.920907 0
M  V30 1340 H 126.545 0.677144 -0.290939 0
M  V30 1341 H 129.187 1.35633 -1.33056 0
M  V30 1342 H 127.337 3.79068 -0.850883 0
M  V30 1343 H 129.009 3.14099 -3.37846 0
M  V30 1344 H 127.252 2.90253 -3.22391 0
M  V30 1345 H 127.923 4.53453 -3.14777 0
M  V30 1346 H 130.399 3.94871 -1.3121 0
M  V30 1347 H 129.275 5.33193 -1.30372 0
M  V30 1348 H 129.536 4.4176 0.173226 0
M  V30 1349 N 128.595 0.856903 1.32268 0
M  V30 1350 C 129.542 0.301172 2.28827 0
M  V30 1351 C 130.512 -0.593104 1.5515 0
M  V30 1352 O 131.697 -0.527537 1.83362 0
M  V30 1353 C 128.837 -0.502523 3.41422 0
M  V30 1354 C 127.95 0.417797 4.29975 0
M  V30 1355 C 127.085 -0.398749 5.29701 0
M  V30 1356 C 126.124 0.518827 6.09897 0
M  V30 1357 N 125.261 -0.260674 7.01616 0
M  V30 1358 H 130.101 1.12983 2.75751 0
M  V30 1359 H 127.638 0.568582 1.35667 0
M  V30 1360 H 129.596 -0.984141 4.05426 0
M  V30 1361 H 128.226 -1.29599 2.95642 0
M  V30 1362 H 127.278 1.01781 3.66531 0
M  V30 1363 H 128.59 1.12191 4.86019 0
M  V30 1364 H 127.744 -0.943435 5.9932 0
M  V30 1365 H 126.483 -1.13622 4.7428 0
M  V30 1366 H 125.488 1.07538 5.39181 0
M  V30 1367 H 126.713 1.25495 6.67404 0
M  V30 1368 H 124.659 -0.981198 6.4862 0
M  V30 1369 H 124.576 0.384364 7.55022 0
M  V30 1370 H 125.844 -0.787014 7.75517 0
M  V30 1371 N 130.073 -1.45103 0.615059 0
M  V30 1372 C 131.301 -2.06553 0.11977 0
M  V30 1373 C 131.716 -1.45842 -1.19898 0
M  V30 1374 O 131.073 -0.575325 -1.73194 0
M  V30 1375 C 131.124 -3.61495 -0.018364 0
M  V30 1376 O 130.845 -4.19942 1.24822 0
M  V30 1377 C 132.346 -4.39947 -0.544237 0
M  V30 1378 H 129.566 -0.667096 0.0722739 0
M  V30 1379 H 132.11 -1.8623 0.84491 0
M  V30 1380 H 130.265 -3.81135 -0.693865 0
M  V30 1381 H 130.679 -5.13204 1.0827 0
M  V30 1382 H 132.153 -5.48838 -0.589953 0
M  V30 1383 H 132.63 -4.10255 -1.56805 0
M  V30 1384 H 133.236 -4.25188 0.0974703 0
M  V30 1385 N 131.551 -0.354651 -1.53558 0
M  V30 1386 C 132.484 0.540273 -2.21712 0
M  V30 1387 C 133.462 1.09161 -1.2051 0
M  V30 1388 O 134.646 1.14979 -1.49372 0
M  V30 1389 C 131.773 1.74435 -2.90328 0
M  V30 1390 C 130.819 1.32146 -4.05512 0
M  V30 1391 S 131.652 0.331924 -5.3447 0
M  V30 1392 C 132.808 1.54258 -6.06593 0
M  V30 1393 H 133.041 -0.0385776 -2.97275 0
M  V30 1394 H 130.574 -0.138736 -1.53775 0
M  V30 1395 H 132.532 2.43507 -3.30476 0
M  V30 1396 H 131.193 2.29444 -2.1451 0
M  V30 1397 H 130.386 2.21952 -4.52497 0
M  V30 1398 H 129.988 0.710091 -3.67197 0
M  V30 1399 H 132.28 2.47534 -6.30661 0
M  V30 1400 H 133.223 1.11431 -6.99277 0
M  V30 1401 H 133.631 1.74367 -5.36895 0
M  V30 1402 N 133.029 1.57378 -0.0835403 0
M  V30 1403 C 134.445 1.57246 0.273109 0
M  V30 1404 C 134.645 1.09385 1.69225 0
M  V30 1405 O 133.701 0.765051 2.40631 0
M  V30 1406 C 135.014 3.00614 0.0720628 0
M  V30 1407 C 136.562 3.12684 0.1407 0
M  V30 1408 C 137.037 4.57989 -0.0322094 0
M  V30 1409 N 138.528 4.63194 0.0230085 0
M  V30 1410 C 139.263 5.73335 -0.0861941 0
M  V30 1411 N 138.759 6.9235 -0.24958 0
M  V30 1412 N 140.552 5.62093 -0.0282886 0
M  V30 1413 H 132.703 1.86801 -1.0109 0
M  V30 1414 H 134.966 0.861687 -0.395222 0
M  V30 1415 H 134.672 3.39786 -0.907662 0
M  V30 1416 H 134.546 3.68193 0.81936 0
M  V30 1417 H 136.933 2.73391 1.11092 0
M  V30 1418 H 137.014 2.47719 -0.637896 0
M  V30 1419 H 136.658 4.97973 -0.999247 0
M  V30 1420 H 136.588 5.21 0.765937 0
M  V30 1421 H 139.079 3.77613 0.14722 0
M  V30 1422 H 139.392 7.72117 -0.324733 0
M  V30 1423 H 137.737 6.94415 -0.285097 0
M  V30 1424 H 140.928 4.67997 0.0981408 0
M  V30 1425 H 141.101 6.47895 -0.116845 0
M  V30 1426 N 134.507 -0.190092 1.56449 0
M  V30 1427 C 135.47 -1.21925 1.9408 0
M  V30 1428 C 136.47 -1.38176 0.822431 0
M  V30 1429 O 137.66 -1.35903 1.08977 0
M  V30 1430 C 134.792 -2.58773 2.21922 0
M  V30 1431 H 135.985 -0.897464 2.86157 0
M  V30 1432 H 133.538 -0.43181 1.50217 0
M  V30 1433 H 134.273 -2.95998 1.32499 0
M  V30 1434 H 134.058 -2.48348 3.03424 0
M  V30 1435 H 135.548 -3.32978 2.52022 0
M  V30 1436 N 135.985 -1.50799 -0.457987 0
M  V30 1437 C 137.21 -1.66496 -1.23668 0
M  V30 1438 C 137.635 -0.353288 -1.84752 0
M  V30 1439 O 136.993 0.684346 -1.67888 0
M  V30 1440 C 137.041 -2.76763 -2.3116 0
M  V30 1441 O 136.145 -2.38928 -3.36136 0
M  V30 1442 H 135.486 -0.555828 -0.363252 0
M  V30 1443 H 138.016 -1.9725 -0.543474 0
M  V30 1444 H 138.026 -3.00232 -2.76269 0
M  V30 1445 H 136.701 -3.71954 -1.86073 0
M  V30 1446 H 135.278 -2.25953 -2.96647 0
M  V30 1447 N 137.463 0.71206 -1.40597 0
M  V30 1448 C 138.712 1.46754 -1.38369 0
M  V30 1449 C 139.025 1.95598 0.0097839 0
M  V30 1450 O 140.231 2.71059 0.154677 0
M  V30 1451 C 138.687 2.65289 -2.43207 0
M  V30 1452 C 138.295 2.23301 -3.88382 0
M  V30 1453 C 140.039 3.43008 -2.50091 0
M  V30 1454 C 137.946 3.38696 -4.84808 0
M  V30 1455 H 136.876 0.55118 -0.514506 0
M  V30 1456 H 139.527 0.774616 -1.66349 0
M  V30 1457 H 137.909 3.36769 -2.08332 0
M  V30 1458 H 139.083 1.59218 -4.32419 0
M  V30 1459 H 137.398 1.58618 -3.85006 0
M  V30 1460 H 139.995 4.28881 -3.1932 0
M  V30 1461 H 140.338 3.87065 -1.53253 0
M  V30 1462 H 140.871 2.78574 -2.83974 0
M  V30 1463 H 137.61 2.99668 -5.82992 0
M  V30 1464 H 137.13 4.01683 -4.45433 0
M  V30 1465 H 138.809 4.04712 -5.04794 0
M  V30 1466 N 138.941 1.26152 0.944643 0
M  V30 1467 C 140.187 1.12665 1.69346 0
M  V30 1468 C 140.542 -0.3273 1.89596 0
M  V30 1469 O 139.835 -1.23717 1.46303 0
M  V30 1470 C 140.029 1.82541 3.07268 0
M  V30 1471 C 139.858 3.34582 3.00475 0
M  V30 1472 C 138.628 4.03863 3.03681 0
M  V30 1473 C 140.826 4.30828 2.80877 0
M  V30 1474 N 138.808 5.42603 2.87151 0
M  V30 1475 C 140.179 5.5672 2.7288 0
M  V30 1476 C 142.234 4.21122 2.65633 0
M  V30 1477 C 140.937 6.74013 2.51196 0
M  V30 1478 C 142.963 5.38118 2.45323 0
M  V30 1479 C 142.325 6.62955 2.38055 0
M  V30 1480 H 138.424 0.467041 0.627214 0
M  V30 1481 H 141.008 1.59391 1.11815 0
M  V30 1482 H 139.179 1.38296 3.62945 0
M  V30 1483 H 140.911 1.61708 3.70989 0
M  V30 1484 H 137.666 3.55198 3.1326 0
M  V30 1485 H 138.09 6.15443 2.82063 0
M  V30 1486 H 142.732 3.25344 2.70021 0
M  V30 1487 H 140.45 7.6989 2.4555 0
M  V30 1488 H 144.036 5.32475 2.34439 0
M  V30 1489 H 142.916 7.51959 2.22546 0
M  V30 1490 N 140.419 -1.14872 1.07899 0
M  V30 1491 C 141.382 -2.17986 0.708161 0
M  V30 1492 C 142.382 -1.58775 -0.25442 0
M  V30 1493 O 143.572 -1.74166 -0.034645 0
M  V30 1494 C 140.704 -3.40871 0.0446929 0
M  V30 1495 H 141.897 -2.52306 1.62116 0
M  V30 1496 H 139.45 -1.2943 0.876218 0
M  V30 1497 H 140.185 -3.12124 -0.880281 0
M  V30 1498 H 139.97 -3.8511 0.737091 0
M  V30 1499 H 141.46 -4.17121 -0.19991 0
M  V30 1500 N 141.898 -0.863906 -1.31812 0
M  V30 1501 C 142.828 -0.330843 -2.31144 0
M  V30 1502 C 143.809 0.575005 -1.60087 0
M  V30 1503 O 144.994 0.493304 -1.8783 0
M  V30 1504 C 142.124 0.47374 -3.44054 0
M  V30 1505 C 141.078 -0.338481 -4.26659 0
M  V30 1506 C 140.404 0.591412 -5.31419 0
M  V30 1507 C 141.704 -1.56926 -4.98168 0
M  V30 1508 H 143.398 -1.16086 -2.75979 0
M  V30 1509 H 140.944 -0.559657 -1.32679 0
M  V30 1510 H 142.897 0.857143 -4.12591 0
M  V30 1511 H 141.621 1.33721 -2.9797 0
M  V30 1512 H 140.28 -0.703754 -3.59782 0
M  V30 1513 H 139.928 1.45199 -4.81587 0
M  V30 1514 H 139.628 0.0519022 -5.87577 0
M  V30 1515 H 141.152 0.97179 -6.02817 0
M  V30 1516 H 142.566 -1.25764 -5.59336 0
M  V30 1517 H 140.963 -2.04739 -5.64094 0
M  V30 1518 H 142.033 -2.32544 -4.25501 0
M  V30 1519 N 143.376 1.44774 -0.622745 0
M  V30 1520 C 144.624 2.01721 -0.123655 0
M  V30 1521 C 144.945 1.49172 1.25589 0
M  V30 1522 O 144.215 0.691974 1.83272 0
M  V30 1523 H 142.795 0.745777 -0.0427225 0
M  V30 1524 H 145.457 1.77382 -0.807559 0
M  V30 1525 H 144.553 3.11984 -0.0849534 0
M  V30 1526 N 144.854 0.36279 1.53368 0
M  V30 1527 C 146.265 -0.117022 1.86333 0
M  V30 1528 C 146.616 -1.48397 1.28347 0
M  V30 1529 O 145.741 -2.07787 0.604428 0
M  V30 1530 C 146.336 -0.21912 3.38091 0
M  V30 1531 C 144.895 -0.643184 3.70864 0
M  V30 1532 C 144.042 0.211318 2.76494 0
M  V30 1533 H 146.993 0.581687 1.47655 0
M  V30 1534 H 147.014 -1.04319 3.6592 0
M  V30 1535 H 146.526 0.775902 3.80265 0
M  V30 1536 H 144.627 -1.64654 3.34245 0
M  V30 1537 H 144.74 -0.41973 4.77258 0
M  V30 1538 H 143.104 -0.319367 2.5269 0
M  V30 1539 H 143.887 1.20383 3.21501 0
M  V30 1540 N 146.332 -1.57332 0.0918853 0
M  V30 1541 C 147.262 -2.16872 -0.865371 0
M  V30 1542 C 148.243 -1.10118 -1.29646 0
M  V30 1543 O 149.428 -1.38242 -1.36392 0
M  V30 1544 C 146.558 -2.74649 -2.12569 0
M  V30 1545 C 145.512 -3.86747 -1.83333 0
M  V30 1546 C 144.838 -4.31212 -3.16166 0
M  V30 1547 C 146.138 -5.10089 -1.1228 0
M  V30 1548 H 147.832 -2.97114 -0.369307 0
M  V30 1549 H 145.378 -1.42918 -0.176194 0
M  V30 1550 H 147.331 -3.14952 -2.7997 0
M  V30 1551 H 146.055 -1.91657 -2.64452 0
M  V30 1552 H 144.714 -3.46978 -1.18331 0
M  V30 1553 H 144.362 -3.45115 -3.6593 0
M  V30 1554 H 144.062 -5.06788 -2.97388 0
M  V30 1555 H 145.586 -4.74146 -3.84731 0
M  V30 1556 H 147 -5.47582 -1.69785 0
M  V30 1557 H 145.397 -5.91073 -1.03693 0
M  V30 1558 H 146.467 -4.84786 -0.105041 0
M  V30 1559 N 147.81 0.181792 -1.56548 0
M  V30 1560 C 149.056 0.901431 -1.81665 0
M  V30 1561 C 149.389 1.82347 -0.668075 0
M  V30 1562 O 148.664 1.91669 0.330615 0
M  V30 1563 C 148.947 1.70618 -3.17115 0
M  V30 1564 C 148.8 0.807964 -4.42484 0
M  V30 1565 C 150.119 2.67605 -3.49393 0
M  V30 1566 H 147.238 0.32627 -0.660846 0
M  V30 1567 H 149.88 0.168134 -1.89255 0
M  V30 1568 H 148.03 2.33133 -3.10775 0
M  V30 1569 H 149.702 0.19649 -4.60881 0
M  V30 1570 H 147.945 0.115411 -4.33646 0
M  V30 1571 H 148.616 1.40632 -5.33785 0
M  V30 1572 H 151.092 2.15218 -3.56118 0
M  V30 1573 H 149.968 3.20985 -4.45264 0
M  V30 1574 H 150.229 3.47298 -2.73563 0
M  V30 1575 N 149.288 1.51039 0.449983 0
M  V30 1576 C 150.251 1.70863 1.5277 0
M  V30 1577 C 151.251 0.578846 1.5002 0
M  V30 1578 O 152.441 0.846213 1.52266 0
M  V30 1579 C 149.573 1.75341 2.9235 0
M  V30 1580 H 150.766 2.67034 1.36502 0
M  V30 1581 H 148.319 1.40838 0.677812 0
M  V30 1582 H 149.054 0.809383 3.14037 0
M  V30 1583 H 148.839 2.57436 2.95752 0
M  V30 1584 H 150.329 1.92559 3.70555 0
M  V30 1585 N 150.766 -0.704594 1.40972 0
M  V30 1586 C 152.182 -1.01406 1.23244 0
M  V30 1587 C 152.382 -2.01169 0.115399 0
M  V30 1588 O 151.438 -2.47021 -0.523147 0
M  V30 1589 C 152.751 -1.54728 2.57836 0
M  V30 1590 C 154.299 -1.66658 2.64942 0
M  V30 1591 C 154.774 -2.23383 3.9983 0
M  V30 1592 N 156.265 -2.30756 4.01629 0
M  V30 1593 C 157 -2.75655 5.02794 0
M  V30 1594 N 156.496 -3.20225 6.14352 0
M  V30 1595 N 158.289 -2.75138 4.90159 0
M  V30 1596 H 150.44 -0.0435285 2.12355 0
M  V30 1597 H 152.703 -0.0818951 0.944456 0
M  V30 1598 H 152.409 -0.888832 3.40283 0
M  V30 1599 H 152.283 -2.53084 2.79693 0
M  V30 1600 H 154.67 -2.31617 1.8286 0
M  V30 1601 H 154.751 -0.668717 2.46904 0
M  V30 1602 H 154.395 -1.59043 4.82357 0
M  V30 1603 H 154.325 -3.23904 4.15203 0
M  V30 1604 H 156.816 -1.99291 3.21079 0
M  V30 1605 H 157.129 -3.53084 6.87424 0
M  V30 1606 H 155.474 -3.18156 6.17901 0
M  V30 1607 H 158.665 -2.39661 4.02095 0
M  V30 1608 H 158.838 -3.09812 5.6914 0
M  V30 1609 N 152.244 -1.26651 -0.937939 0
M  V30 1610 C 153.491 -1.12387 -1.6845 0
M  V30 1611 C 153.819 0.332208 -1.91642 0
M  V30 1612 O 153.074 1.2602 -1.49725 0
M  V30 1613 C 153.373 -1.84168 -3.06295 0
M  V30 1614 C 153.039 -3.34056 -3.02849 0
M  V30 1615 C 151.701 -3.74942 -3.01616 0
M  V30 1616 C 154.053 -4.29741 -2.9491 0
M  V30 1617 C 151.381 -5.09894 -2.90215 0
M  V30 1618 C 153.733 -5.64738 -2.8505 0
M  V30 1619 C 152.397 -6.0493 -2.82162 0
M  V30 1620 H 151.667 -0.411252 -0.616403 0
M  V30 1621 H 154.314 -1.57134 -1.09459 0
M  V30 1622 H 152.619 -1.319 -3.6893 0
M  V30 1623 H 154.316 -1.70569 -3.62915 0
M  V30 1624 H 150.906 -3.01534 -3.0459 0
M  V30 1625 H 155.09 -3.99133 -2.94969 0
M  V30 1626 H 150.346 -5.40194 -2.86358 0
M  V30 1627 H 154.52 -6.38561 -2.77872 0
M  V30 1628 H 152.147 -7.09457 -2.73084 0
M  V30 1629 N 153.722 1.14298 -1.08507 0
M  V30 1630 C 154.97 1.84993 -0.813763 0
M  V30 1631 C 155.291 1.83405 0.662393 0
M  V30 1632 O 154.561 1.28319 1.48024 0
M  V30 1633 H 153.141 0.684966 -0.298045 0
M  V30 1634 H 155.803 1.385 -1.37126 0
M  V30 1635 H 154.899 2.89788 -1.15884 0
M  V30 1636 N 155.201 0.870884 1.31352 0
M  V30 1637 C 156.133 0.28455 2.27427 0
M  V30 1638 C 157.146 -0.552927 1.53123 0
M  V30 1639 O 158.335 -0.374771 1.74521 0
M  V30 1640 C 155.435 -0.615164 3.3327 0
M  V30 1641 C 154.608 0.190079 4.36987 0
M  V30 1642 C 153.667 -0.637917 5.22319 0
M  V30 1643 O 152.693 -0.065626 5.69162 0
M  V30 1644 N 153.895 -1.94973 5.46778 0
M  V30 1645 H 156.66 1.11017 2.7838 0
M  V30 1646 H 154.221 0.732458 1.44384 0
M  V30 1647 H 156.213 -1.1748 3.87273 0
M  V30 1648 H 154.783 -1.34146 2.82354 0
M  V30 1649 H 154.003 0.931165 3.83044 0
M  V30 1650 H 155.291 0.742579 5.03352 0
M  V30 1651 H 154.689 -2.4378 5.10478 0
M  V30 1652 H 153.246 -2.45713 6.03712 0
M  V30 1653 N 156.679 -1.44442 0.630414 0
M  V30 1654 C 157.927 -2.01653 0.134351 0
M  V30 1655 C 158.248 -1.49836 -1.24796 0
M  V30 1656 O 157.518 -0.701684 -1.82902 0
M  V30 1657 H 156.098 -0.74554 0.0466769 0
M  V30 1658 H 158.76 -1.76952 0.816955 0
M  V30 1659 H 157.856 -3.11935 0.101498 0
M  V30 1660 N 158.157 -0.370918 -1.53173 0
M  V30 1661 C 159.089 0.507823 -2.23503 0
M  V30 1662 C 160.102 1.04182 -1.251 0
M  V30 1663 O 161.291 0.947286 -1.5129 0
M  V30 1664 C 158.391 1.71447 -2.92334 0
M  V30 1665 C 157.564 1.31105 -4.17289 0
M  V30 1666 C 156.623 2.38035 -4.69282 0
M  V30 1667 O 155.649 2.00204 -5.32829 0
M  V30 1668 N 156.851 3.69697 -4.47554 0
M  V30 1669 H 159.616 -0.0946382 -2.99551 0
M  V30 1670 H 157.177 -0.196358 -1.60705 0
M  V30 1671 H 159.169 2.42469 -3.24023 0
M  V30 1672 H 157.739 2.22368 -2.19707 0
M  V30 1673 H 156.959 0.430462 -3.91843 0
M  V30 1674 H 158.247 1.0179 -4.98514 0
M  V30 1675 H 157.645 4.03205 -3.9679 0
M  V30 1676 H 156.202 4.36807 -4.8378 0
M  V30 1677 N 159.635 1.57281 -0.100228 0
M  V30 1678 C 160.881 1.94826 0.563101 0
M  V30 1679 C 161.214 0.982475 1.67514 0
M  V30 1680 O 160.489 0.0164069 1.94493 0
M  V30 1681 C 160.772 3.42453 1.11346 0
M  V30 1682 C 160.625 4.498 0.00612081 0
M  V30 1683 C 161.944 3.91506 2.01024 0
M  V30 1684 H 159.063 0.708428 0.203221 0
M  V30 1685 H 161.705 1.8922 -0.171979 0
M  V30 1686 H 159.855 3.47361 1.7399 0
M  V30 1687 H 161.527 4.57 -0.628357 0
M  V30 1688 H 159.77 4.28756 -0.659581 0
M  V30 1689 H 160.441 5.50306 0.432109 0
M  V30 1690 H 162.917 3.88784 1.48278 0
M  V30 1691 H 161.793 4.95358 2.36457 0
M  V30 1692 H 162.054 3.31099 2.92961 0
M  V30 1693 N 161.113 -0.173488 1.56642 0
M  V30 1694 C 162.338 -0.910149 1.86363 0
M  V30 1695 C 162.763 -1.75132 0.686318 0
M  V30 1696 O 162.121 -1.77595 -0.364643 0
M  V30 1697 C 162.169 -1.76447 3.14482 0
M  V30 1698 O 161.273 -2.86584 2.96553 0
M  V30 1699 H 160.614 -0.255086 0.613047 0
M  V30 1700 H 163.144 -0.172283 2.03873 0
M  V30 1701 H 163.154 -2.16483 3.45831 0
M  V30 1702 H 161.829 -1.14658 3.99783 0
M  V30 1703 H 160.406 -2.50146 2.76553 0
M  V30 1704 N 162.591 -1.51276 -0.441967 0
M  V30 1705 C 163.521 -1.752 -1.54361 0
M  V30 1706 C 164.502 -0.601682 -1.59103 0
M  V30 1707 O 165.687 -0.843913 -1.74905 0
M  V30 1708 C 162.817 -1.87282 -2.92477 0
M  V30 1709 C 161.771 -3.02687 -3.02596 0
M  V30 1710 C 161.097 -2.99947 -4.42647 0
M  V30 1711 C 162.397 -4.4273 -2.77106 0
M  V30 1712 H 164.091 -2.67442 -1.34592 0
M  V30 1713 H 161.637 -1.28694 -0.646048 0
M  V30 1714 H 163.59 -2.02602 -3.695 0
M  V30 1715 H 162.314 -0.916844 -3.13467 0
M  V30 1716 H 160.973 -2.87065 -2.28012 0
M  V30 1717 H 160.621 -2.02136 -4.60597 0
M  V30 1718 H 160.321 -3.77439 -4.50348 0
M  V30 1719 H 161.845 -3.17354 -5.2165 0
M  V30 1720 H 163.259 -4.58727 -3.43864 0
M  V30 1721 H 161.656 -5.21893 -2.96222 0
M  V30 1722 H 162.726 -4.53087 -1.72744 0
M  V30 1723 N 164.069 0.697108 -1.41344 0
M  V30 1724 C 165.48 1.27697 -1.36199 0
M  V30 1725 C 165.831 1.9615 -0.0443463 0
M  V30 1726 O 164.956 1.98689 0.857419 0
M  V30 1727 C 165.551 2.32223 -2.46694 0
M  V30 1728 C 164.11 2.8579 -2.44952 0
M  V30 1729 C 163.257 1.59807 -2.26621 0
M  V30 1730 H 166.208 0.491968 -1.50882 0
M  V30 1731 H 166.229 3.1348 -2.15664 0
M  V30 1732 H 165.741 1.82373 -3.42581 0
M  V30 1733 H 163.842 3.3982 -1.52817 0
M  V30 1734 H 163.955 3.36325 -3.41207 0
M  V30 1735 H 162.319 1.8556 -1.7447 0
M  V30 1736 H 163.102 1.11956 -3.24532 0
M  V30 1737 N 165.547 1.27147 0.931209 0
M  V30 1738 C 166.795 1.13055 1.6752 0
M  V30 1739 C 167.116 -0.324791 1.92276 0
M  V30 1740 O 166.386 -1.22775 1.52654 0
M  V30 1741 H 164.966 0.415391 0.620854 0
M  V30 1742 H 167.628 1.59623 1.11833 0
M  V30 1743 H 166.724 1.65694 2.64485 0
M  V30 1744 N 167.025 -1.13721 1.09112 0
M  V30 1745 C 168.273 -1.84559 0.823562 0
M  V30 1746 C 168.594 -1.83754 -0.652658 0
M  V30 1747 O 167.864 -1.29102 -1.47342 0
M  V30 1748 H 166.444 -0.683376 0.301673 0
M  V30 1749 H 169.106 -1.37771 1.37859 0
M  V30 1750 H 168.202 -2.8917 1.17419 0
M  V30 1751 N 168.503 -0.877838 -1.30888 0
M  V30 1752 C 169.743 -0.499301 -1.98208 0
M  V30 1753 C 170.107 0.932649 -1.67826 0
M  V30 1754 O 171.308 1.41694 -2.28421 0
M  V30 1755 C 169.579 -0.758221 -3.49265 0
M  V30 1756 S 171.138 -0.480719 -4.36159 0
M  V30 1757 H 167.956 -0.186062 -0.686223 0
M  V30 1758 H 170.558 -1.13556 -1.59139 0
M  V30 1759 H 169.262 -1.79903 -3.68867 0
M  V30 1760 H 168.793 -0.109247 -3.93248 0
M  V30 1761 H 170.808 0.683698 -4.91467 0
M  V30 1762 N 169.982 1.44106 -0.638065 0
M  V30 1763 C 171.21 2.06336 -0.152615 0
M  V30 1764 C 171.625 1.47731 1.17563 0
M  V30 1765 O 170.982 0.602806 1.72257 0
M  V30 1766 C 171.033 3.61479 -0.0391491 0
M  V30 1767 O 170.754 4.17903 -1.31487 0
M  V30 1768 C 172.255 4.40757 0.474176 0
M  V30 1769 H 169.475 0.665862 -0.0828776 0
M  V30 1770 H 172.019 1.84862 -0.87443 0
M  V30 1771 H 170.174 3.82191 0.633142 0
M  V30 1772 H 170.588 5.11416 -1.16421 0
M  V30 1773 H 172.062 5.49707 0.502562 0
M  V30 1774 H 172.539 4.12697 1.50258 0
M  V30 1775 H 173.145 4.24979 -0.165102 0
M  V30 1776 N 171.46 0.379036 1.52974 0
M  V30 1777 C 172.709 -0.207612 2.00629 0
M  V30 1778 C 173.022 -1.48758 1.27006 0
M  V30 1779 O 174.228 -2.15365 1.65318 0
M  V30 1780 C 172.684 -0.42053 3.57435 0
M  V30 1781 C 172.292 0.845587 4.39948 0
M  V30 1782 C 174.036 -0.964102 4.13407 0
M  V30 1783 C 171.943 0.601513 5.88333 0
M  V30 1784 H 170.873 -0.0813591 0.749598 0
M  V30 1785 H 173.524 0.499853 1.76561 0
M  V30 1786 H 171.906 -1.18959 3.7771 0
M  V30 1787 H 173.08 1.61848 4.31442 0
M  V30 1788 H 171.395 1.31336 3.95145 0
M  V30 1789 H 173.992 -1.16225 5.21916 0
M  V30 1790 H 174.335 -1.93019 3.68849 0
M  V30 1791 H 174.868 -0.25487 3.96983 0
M  V30 1792 H 171.607 1.53831 6.37194 0
M  V30 1793 H 171.127 -0.132628 5.99653 0
M  V30 1794 H 172.806 0.232134 6.46583 0
M  V30 1795 N 172.938 -1.57226 0.108567 0
M  V30 1796 C 174.186 -1.94448 -0.550853 0
M  V30 1797 C 174.507 -0.992074 -1.67878 0
M  V30 1798 O 173.777 -0.0465 -1.95845 0
M  V30 1799 H 172.357 -0.717897 -0.206479 0
M  V30 1800 H 175.019 -1.94112 0.175062 0
M  V30 1801 H 174.115 -2.97218 -0.952259 0
M  V30 1802 N 174.416 0.165178 -1.56732 0
M  V30 1803 C 175.379 1.18822 -1.95995 0
M  V30 1804 C 176.379 1.3685 -0.84431 0
M  V30 1805 O 177.569 1.34152 -1.11126 0
M  V30 1806 C 174.701 2.5521 -2.26011 0
M  V30 1807 H 175.894 0.851825 -2.87548 0
M  V30 1808 H 173.447 0.407857 -1.50885 0
M  V30 1809 H 174.182 2.93852 -1.37191 0
M  V30 1810 H 173.967 2.43489 -3.07336 0
M  V30 1811 H 175.457 3.28927 -2.57288 0
M  V30 1812 N 175.894 1.51508 0.433938 0
M  V30 1813 C 177.31 1.39759 0.770682 0
M  V30 1814 C 177.51 0.482594 1.95636 0
M  V30 1815 O 176.566 -0.0609691 2.52426 0
M  V30 1816 C 177.879 2.81851 1.04787 0
M  V30 1817 C 179.427 2.91025 1.1521 0
M  V30 1818 C 179.902 4.34032 1.46219 0
M  V30 1819 N 181.393 4.37154 1.53136 0
M  V30 1820 C 182.128 5.4484 1.78709 0
M  V30 1821 N 181.624 6.62682 2.02051 0
M  V30 1822 N 183.417 5.32324 1.80519 0
M  V30 1823 H 175.568 2.09548 -0.346892 0
M  V30 1824 H 177.831 0.943446 -0.0928074 0
M  V30 1825 H 177.537 3.50815 0.249304 0
M  V30 1826 H 177.411 3.21386 1.97461 0
M  V30 1827 H 179.798 2.22257 1.94128 0
M  V30 1828 H 179.879 2.54983 0.204281 0
M  V30 1829 H 179.523 5.03351 0.678274 0
M  V30 1830 H 179.453 4.6759 2.42212 0
M  V30 1831 H 181.944 3.52197 1.36987 0
M  V30 1832 H 182.257 7.40543 2.20943 0
M  V30 1833 H 180.602 6.65791 1.99366 0
M  V30 1834 H 183.793 4.39246 1.61805 0
M  V30 1835 H 183.966 6.16328 2.00111 0
M  V30 1836 N 177.372 -0.689602 1.41712 0
M  V30 1837 C 178.783 -1.26973 1.36875 0
M  V30 1838 C 179.134 -1.96124 0.054748 0
M  V30 1839 O 178.259 -1.99141 -0.84687 0
M  V30 1840 C 178.854 -2.30912 2.47922 0
M  V30 1841 C 177.413 -2.84486 2.46464 0
M  V30 1842 C 176.56 -1.58603 2.27465 0
M  V30 1843 H 179.511 -0.48396 1.51141 0
M  V30 1844 H 179.532 -3.12331 2.17323 0
M  V30 1845 H 179.044 -1.80554 3.43543 0
M  V30 1846 H 177.145 -3.39005 1.54617 0
M  V30 1847 H 177.258 -3.34511 3.42986 0
M  V30 1848 H 175.622 -1.84632 1.75451 0
M  V30 1849 H 176.405 -1.10233 3.25121 0
M  V30 1850 N 178.85 -1.27639 -0.924453 0
M  V30 1851 C 180.096 -1.14336 -1.67497 0
M  V30 1852 C 180.429 0.309465 -1.91718 0
M  V30 1853 O 179.704 1.22608 -1.50989 0
M  V30 1854 C 179.987 -1.93096 -3.0395 0
M  V30 1855 C 179.84 -3.46381 -2.8695 0
M  V30 1856 C 181.159 -1.73798 -4.0433 0
M  V30 1857 H 178.278 -0.416728 -0.607871 0
M  V30 1858 H 180.92 -1.56832 -1.07256 0
M  V30 1859 H 179.07 -1.56982 -3.55372 0
M  V30 1860 H 180.742 -3.92343 -2.42621 0
M  V30 1861 H 178.985 -3.72557 -2.22225 0
M  V30 1862 H 179.656 -3.96735 -3.83804 0
M  V30 1863 H 182.132 -2.05293 -3.61931 0
M  V30 1864 H 181.008 -2.31294 -4.97789 0
M  V30 1865 H 181.269 -0.686725 -4.36734 0
M  V30 1866 N 180.328 1.1314 -1.09713 0
M  V30 1867 C 181.605 1.80762 -0.747302 0
M  V30 1868 C 181.985 1.96663 0.767265 0
M  V30 1869 O 181.333 1.53706 1.69076 0
M  V30 1870 C 181.543 3.15606 -1.48975 0
M  V30 1871 C 182.891 3.90914 -1.65746 0
M  V30 1872 O 183.915 3.25239 -1.45251 0
M  V30 1873 O 182.774 5.08718 -1.9967 0
M  V30 1874 H 179.868 0.782103 -0.268782 0
M  V30 1875 H 182.414 1.20041 -1.19951 0
M  V30 1876 H 181.186 2.99278 -2.52088 0
M  V30 1877 H 180.809 3.84029 -1.02991 0
M  V30 1878 N 181.806 0.884767 1.30421 0
M  V30 1879 C 182.736 0.367574 2.30589 0
M  V30 1880 C 183.717 -0.549464 1.60981 0
M  V30 1881 O 184.902 -0.46336 1.88591 0
M  V30 1882 C 182.032 -0.418944 3.44764 0
M  V30 1883 C 180.986 0.406316 4.26067 0
M  V30 1884 C 180.312 -0.506793 5.32293 0
M  V30 1885 C 181.612 1.64832 4.95608 0
M  V30 1886 H 183.306 1.20462 2.74097 0
M  V30 1887 H 180.852 0.580695 1.31772 0
M  V30 1888 H 182.805 -0.791395 4.13902 0
M  V30 1889 H 181.529 -1.28964 3.0006 0
M  V30 1890 H 180.188 0.760903 3.58617 0
M  V30 1891 H 179.836 -1.37519 4.83836 0
M  V30 1892 H 179.536 0.0415828 5.87585 0
M  V30 1893 H 181.06 -0.875764 6.04287 0
M  V30 1894 H 182.474 1.34646 5.57264 0
M  V30 1895 H 180.871 2.13688 5.60765 0
M  V30 1896 H 181.941 2.39284 4.21748 0
M  V30 1897 N 183.284 -1.43765 0.645699 0
M  V30 1898 C 184.234 -2.27884 -0.0726442 0
M  V30 1899 C 185.218 -1.39483 -0.802086 0
M  V30 1900 O 186.41 -1.63174 -0.685791 0
M  V30 1901 C 183.539 -3.27055 -1.04356 0
M  V30 1902 C 182.625 -4.22944 -0.312985 0
M  V30 1903 N 183.016 -5.01391 0.666386 0
M  V30 1904 C 181.314 -4.42528 -0.55546 0
M  V30 1905 C 182.015 -5.71217 1.09935 0
M  V30 1906 N 180.991 -5.41856 0.435137 0
M  V30 1907 H 184.793 -2.85949 0.678988 0
M  V30 1908 H 182.307 -1.55378 0.472368 0
M  V30 1909 H 184.304 -3.86089 -1.57292 0
M  V30 1910 H 182.964 -2.70551 -1.79534 0
M  V30 1911 H 183.975 -5.07252 1.04481 0
M  V30 1912 H 180.652 -3.97104 -1.28899 0
M  V30 1913 H 182.042 -6.44202 1.90929 0
M  V30 1914 N 184.763 -0.387143 -1.52771 0
M  V30 1915 C 186.012 0.19697 -2.00736 0
M  V30 1916 C 186.325 1.48082 -1.27793 0
M  V30 1917 O 187.531 2.14485 -1.66458 0
M  V30 1918 C 185.987 0.401568 -3.57653 0
M  V30 1919 C 185.595 -0.868907 -4.39493 0
M  V30 1920 C 187.339 0.942164 -4.13912 0
M  V30 1921 C 185.246 -0.632705 -5.88006 0
M  V30 1922 H 184.176 0.0773827 -0.750019 0
M  V30 1923 H 186.827 -0.50921 -1.76293 0
M  V30 1924 H 185.209 1.16954 -3.78335 0
M  V30 1925 H 186.383 -1.64133 -4.30577 0
M  V30 1926 H 184.698 -1.33429 -3.94443 0
M  V30 1927 H 187.295 1.13455 -5.22525 0
M  V30 1928 H 187.638 1.9106 -3.69867 0
M  V30 1929 H 188.171 0.233814 -3.97112 0
M  V30 1930 H 184.91 -1.57208 -6.36369 0
M  V30 1931 H 184.43 0.100825 -5.99715 0
M  V30 1932 H 186.109 -0.26642 -6.46451 0
M  V30 1933 N 186.241 1.57166 -0.116904 0
M  V30 1934 C 187.466 1.999 0.55271 0
M  V30 1935 C 187.891 0.996039 1.59564 0
M  V30 1936 O 187.249 -0.032556 1.81271 0
M  V30 1937 C 187.297 3.4152 1.15742 0
M  V30 1938 O 186.401 3.44106 2.27299 0
M  V30 1939 H 185.742 0.649447 0.138258 0
M  V30 1940 H 188.272 2.03573 -0.204759 0
M  V30 1941 H 188.282 3.79684 1.49346 0
M  V30 1942 H 186.957 4.14034 0.393493 0
M  V30 1943 H 185.534 3.17759 1.9515 0
M  V30 1944 N 187.719 -0.156864 1.56817 0
M  V30 1945 C 188.967 -0.869404 1.82444 0
M  V30 1946 C 189.288 -1.82147 0.69623 0
M  V30 1947 O 188.558 -1.93847 -0.28287 0
M  V30 1948 H 187.138 -0.324043 0.673056 0
M  V30 1949 H 189.8 -0.153224 1.94297 0
M  V30 1950 H 188.896 -1.43761 2.77019 0
M  V30 1951 N 189.197 -1.51736 -0.425897 0
M  V30 1952 C 190.127 -1.76827 -1.52494 0
M  V30 1953 C 191.108 -0.618524 -1.58456 0
M  V30 1954 O 192.293 -0.862416 -1.74 0
M  V30 1955 C 189.423 -1.90374 -2.90474 0
M  V30 1956 C 188.377 -3.0588 -2.99369 0
M  V30 1957 C 187.703 -3.04625 -4.3944 0
M  V30 1958 C 189.003 -4.45644 -2.72394 0
M  V30 1959 H 190.697 -2.68855 -1.31748 0
M  V30 1960 H 188.243 -1.29372 -0.632362 0
M  V30 1961 H 190.196 -2.0651 -3.6733 0
M  V30 1962 H 188.92 -0.95004 -3.12477 0
M  V30 1963 H 187.579 -2.89467 -2.24954 0
M  V30 1964 H 187.227 -2.0701 -4.58428 0
M  V30 1965 H 186.927 -3.82195 -4.46319 0
M  V30 1966 H 188.451 -3.22869 -5.18255 0
M  V30 1967 H 189.865 -4.62348 -3.38979 0
M  V30 1968 H 188.262 -5.25006 -2.9067 0
M  V30 1969 H 189.332 -4.54893 -1.67929 0
M  V30 1970 N 190.675 0.682077 -1.42076 0
M  V30 1971 C 191.585 1.82535 -1.47371 0
M  V30 1972 C 192.601 1.7017 -0.363079 0
M  V30 1973 O 193.777 1.91848 -0.612875 0
M  V30 1974 C 190.842 3.18624 -1.36674 0
M  V30 1975 C 189.903 3.42999 -2.58167 0
M  V30 1976 C 189.136 4.72595 -2.4797 0
M  V30 1977 O 189.359 5.50006 -1.5116 0
M  V30 1978 O 188.293 4.98054 -3.37974 0
M  V30 1979 H 192.119 1.81023 -2.43853 0
M  V30 1980 H 189.704 0.836887 -1.2376 0
M  V30 1981 H 191.586 3.99847 -1.33043 0
M  V30 1982 H 190.261 3.20789 -0.433138 0
M  V30 1983 H 189.168 2.61653 -2.67373 0
M  V30 1984 H 190.501 3.45659 -3.50401 0
M  V30 1985 N 192.153 1.28127 0.917671 0
M  V30 1986 C 193.085 1.07517 2.02417 0
M  V30 1987 C 194.098 0.0281099 1.62776 0
M  V30 1988 O 195.287 0.270748 1.76435 0
M  V30 1989 C 192.387 0.610957 3.33347 0
M  V30 1990 C 191.56 1.73255 4.01624 0
M  V30 1991 C 190.619 1.26238 5.10833 0
M  V30 1992 O 189.645 1.96389 5.34247 0
M  V30 1993 N 190.847 0.123448 5.80369 0
M  V30 1994 H 193.612 2.02806 2.20658 0
M  V30 1995 H 191.173 1.19827 1.08871 0
M  V30 1996 H 193.165 0.280101 4.0373 0
M  V30 1997 H 191.735 -0.24898 3.11607 0
M  V30 1998 H 190.955 2.23319 3.24842 0
M  V30 1999 H 192.243 2.48503 4.43986 0
M  V30 2000 H 191.641 -0.461847 5.63812 0
M  V30 2001 H 190.198 -0.148158 6.51632 0
M  V30 2002 N 193.631 -1.12557 1.10312 0
M  V30 2003 C 194.561 -2.20341 0.772798 0
M  V30 2004 C 195.542 -1.68198 -0.25365 0
M  V30 2005 O 196.727 -1.93831 -0.119699 0
M  V30 2006 C 193.857 -3.46709 0.202443 0
M  V30 2007 C 192.811 -4.11996 1.15943 0
M  V30 2008 C 192.137 -5.328 0.450345 0
M  V30 2009 C 193.437 -4.5828 2.50552 0
M  V30 2010 H 195.131 -2.48229 1.674 0
M  V30 2011 H 192.677 -1.19308 0.806326 0
M  V30 2012 H 194.63 -4.2138 -0.0407752 0
M  V30 2013 H 193.354 -3.18245 -0.734001 0
M  V30 2014 H 192.013 -3.39305 1.38808 0
M  V30 2015 H 191.661 -5.00602 -0.490531 0
M  V30 2016 H 191.361 -5.7743 1.08851 0
M  V30 2017 H 192.885 -6.10219 0.215642 0
M  V30 2018 H 194.299 -5.2433 2.31843 0
M  V30 2019 H 192.696 -5.13683 3.10242 0
M  V30 2020 H 193.766 -3.72329 3.10643 0
M  V30 2021 N 195.109 -0.891671 -1.2995 0
M  V30 2022 C 196.357 -0.512486 -1.95494 0
M  V30 2023 C 196.678 0.942776 -1.70695 0
M  V30 2024 O 195.948 1.66374 -1.03424 0
M  V30 2025 H 194.528 -0.186533 -0.723336 0
M  V30 2026 H 197.19 -1.13621 -1.58355 0
M  V30 2027 H 196.286 -0.688342 -3.04415 0
M  V30 2028 N 196.587 1.43421 -0.653314 0
M  V30 2029 C 197.55 2.29182 0.0287951 0
M  V30 2030 C 198.55 1.42213 0.750465 0
M  V30 2031 O 199.74 1.63843 0.591701 0
M  V30 2032 C 196.872 3.24278 1.05151 0
M  V30 2033 H 198.065 2.90985 -0.725786 0
M  V30 2034 H 195.618 1.50702 -0.414545 0
M  V30 2035 H 196.353 2.6737 1.83532 0
M  V30 2036 H 196.138 3.88396 0.537687 0
M  V30 2037 H 197.628 3.88647 1.52786 0
M  V30 2038 N 198.065 0.39524 1.52563 0
M  V30 2039 C 199.293 -0.184943 2.06072 0
M  V30 2040 C 199.708 -1.40021 1.26647 0
M  V30 2041 O 199.065 -1.79767 0.314672 0
M  V30 2042 C 199.116 -0.549179 3.57304 0
M  V30 2043 O 198.837 0.617813 4.33722 0
M  V30 2044 C 200.338 -1.18459 4.2718 0
M  V30 2045 H 197.558 -0.0265025 0.670476 0
M  V30 2046 H 200.102 0.562184 1.96621 0
M  V30 2047 H 198.257 -1.2462 3.66809 0
M  V30 2048 H 198.671 0.317091 5.23541 0
M  V30 2049 H 200.145 -1.38976 5.34219 0
M  V30 2050 H 200.622 -2.15368 3.82771 0
M  V30 2051 H 201.228 -0.528163 4.22008 0
M  V30 2052 N 199.544 -1.57102 0.125237 0
M  V30 2053 C 200.793 -1.94582 -0.531095 0
M  V30 2054 C 201.106 -1.01126 -1.6743 0
M  V30 2055 O 202.312 -1.28097 -2.39381 0
M  V30 2056 C 200.768 -3.45839 -0.996164 0
M  V30 2057 C 200.376 -4.47842 0.118926 0
M  V30 2058 C 202.12 -3.92227 -1.62352 0
M  V30 2059 C 200.027 -5.90284 -0.363192 0
M  V30 2060 H 198.957 -0.726391 -0.20217 0
M  V30 2061 H 201.608 -1.82339 0.206092 0
M  V30 2062 H 199.99 -3.53338 -1.78796 0
M  V30 2063 H 201.164 -4.52018 0.895358 0
M  V30 2064 H 199.479 -4.11243 0.653324 0
M  V30 2065 H 202.076 -4.96069 -1.99548 0
M  V30 2066 H 202.419 -3.32552 -2.50429 0
M  V30 2067 H 202.952 -3.87554 -0.897019 0
M  V30 2068 H 199.691 -6.53728 0.481679 0
M  V30 2069 H 199.211 -5.89515 -1.10597 0
M  V30 2070 H 200.89 -6.41752 -0.822377 0
M  V30 2071 N 201.022 0.148545 -1.56898 0
M  V30 2072 C 201.969 1.18345 -1.98149 0
M  V30 2073 C 202.939 1.42772 -0.848848 0
M  V30 2074 O 204.124 1.55132 -1.11079 0
M  V30 2075 C 201.264 2.51231 -2.36594 0
M  V30 2076 C 200.377 2.33991 -3.63142 0
M  V30 2077 C 199.512 3.59902 -3.90697 0
M  V30 2078 C 198.551 3.37692 -5.1052 0
M  V30 2079 N 197.688 4.5573 -5.34092 0
M  V30 2080 H 202.528 0.82467 -2.86362 0
M  V30 2081 H 200.065 0.395756 -1.41676 0
M  V30 2082 H 202.023 3.28713 -2.56912 0
M  V30 2083 H 200.653 2.85059 -1.51463 0
M  V30 2084 H 199.705 1.47572 -3.50609 0
M  V30 2085 H 201.017 2.13539 -4.5078 0
M  V30 2086 H 200.171 4.45813 -4.11505 0
M  V30 2087 H 198.91 3.83357 -3.01477 0
M  V30 2088 H 197.915 2.5017 -4.89587 0
M  V30 2089 H 199.14 3.15637 -6.0129 0
M  V30 2090 H 197.086 4.79361 -4.47827 0
M  V30 2091 H 197.003 4.38274 -6.15996 0
M  V30 2092 H 198.271 5.42858 -5.59397 0
M  V30 2093 N 202.5 1.5196 0.417844 0
M  V30 2094 C 203.43 1.77634 1.51554 0
M  V30 2095 C 204.411 0.626918 1.58126 0
M  V30 2096 O 205.596 0.871632 1.7354 0
M  V30 2097 C 202.726 1.91911 2.8946 0
M  V30 2098 C 201.68 3.07463 2.97743 0
M  V30 2099 C 201.006 3.06951 4.37819 0
M  V30 2100 C 202.306 4.47082 2.70027 0
M  V30 2101 H 204 2.6955 1.3032 0
M  V30 2102 H 201.546 1.29706 0.625492 0
M  V30 2103 H 203.499 2.08455 3.6623 0
M  V30 2104 H 202.223 0.966598 3.11969 0
M  V30 2105 H 200.882 2.90656 2.23416 0
M  V30 2106 H 200.53 2.09438 4.57323 0
M  V30 2107 H 200.23 3.84556 4.44286 0
M  V30 2108 H 201.754 3.25613 5.16535 0
M  V30 2109 H 203.168 4.6414 3.36522 0
M  V30 2110 H 201.565 5.2654 2.87881 0
M  V30 2111 H 202.635 4.55777 1.65514 0
M  V30 2112 N 203.978 -0.674533 1.42435 0
M  V30 2113 C 204.888 -1.81751 1.48337 0
M  V30 2114 C 205.904 -1.69975 0.372099 0
M  V30 2115 O 207.08 -1.91521 0.62304 0
M  V30 2116 C 204.145 -3.17895 1.38361 0
M  V30 2117 C 203.206 -3.41625 2.59982 0
M  V30 2118 C 202.439 -4.71274 2.50473 0
M  V30 2119 O 202.662 -5.49197 1.54075 0
M  V30 2120 O 201.596 -4.96254 3.4061 0
M  V30 2121 H 205.422 -1.79728 2.44809 0
M  V30 2122 H 203.007 -0.830312 1.24202 0
M  V30 2123 H 204.889 -3.99136 1.35161 0
M  V30 2124 H 203.564 -3.20555 0.450144 0
M  V30 2125 H 202.471 -2.60231 2.68757 0
M  V30 2126 H 203.804 -3.43796 3.52229 0
M  V30 2127 N 205.456 -1.28612 -0.910864 0
M  V30 2128 C 206.366 -1.14643 -2.0468 0
M  V30 2129 C 207.382 -0.0723121 -1.7385 0
M  V30 2130 O 208.558 -0.282178 -1.99413 0
M  V30 2131 C 205.623 -0.812561 -3.37044 0
M  V30 2132 C 204.684 -1.96935 -3.81465 0
M  V30 2133 C 203.917 -1.65131 -5.07511 0
M  V30 2134 O 204.14 -0.567013 -5.67575 0
M  V30 2135 O 203.074 -2.49585 -5.47714 0
M  V30 2136 H 206.9 -2.1001 -2.19384 0
M  V30 2137 H 204.485 -1.07958 -1.03274 0
M  V30 2138 H 206.367 -0.640441 -4.16505 0
M  V30 2139 H 205.042 0.111426 -3.23508 0
M  V30 2140 H 203.949 -2.19664 -3.02818 0
M  V30 2141 H 205.282 -2.87414 -3.99567 0
M  V30 2142 N 206.934 1.1197 -1.10907 0
M  V30 2143 C 208.182 1.83225 -0.852819 0
M  V30 2144 C 208.503 1.84769 0.623341 0
M  V30 2145 O 207.773 1.3143 1.45269 0
M  V30 2146 H 206.353 0.67849 -0.312507 0
M  V30 2147 H 209.015 1.3556 -1.40033 0
M  V30 2148 H 208.111 2.87265 -1.22005 0
M  V30 2149 N 208.412 0.89855 1.29475 0
M  V30 2150 C 209.642 0.538479 1.99459 0
M  V30 2151 C 210.05 -0.880922 1.67441 0
M  V30 2152 O 209.393 -1.59283 0.915127 0
M  V30 2153 C 209.455 0.649564 3.53583 0
M  V30 2154 C 209.119 2.03573 4.09154 0
M  V30 2155 C 210.116 3.00675 4.24135 0
M  V30 2156 C 207.801 2.3448 4.44212 0
M  V30 2157 C 209.795 4.26809 4.73405 0
M  V30 2158 C 207.482 3.60857 4.93179 0
M  V30 2159 C 208.48 4.56836 5.0773 0
M  V30 2160 O 208.168 5.80969 5.55635 0
M  V30 2161 H 207.9 0.205372 0.644048 0
M  V30 2162 H 210.454 1.20958 1.66007 0
M  V30 2163 H 208.684 -0.0785592 3.8662 0
M  V30 2164 H 210.373 0.29881 4.04799 0
M  V30 2165 H 211.139 2.78112 3.97339 0
M  V30 2166 H 207.018 1.60534 4.32145 0
M  V30 2167 H 210.562 5.0173 4.84678 0
M  V30 2168 H 206.459 3.83251 5.19412 0
M  V30 2169 H 207.227 5.83542 5.73952 0
M  V30 2170 N 209.89 -1.43072 0.660911 0
M  V30 2171 C 211.136 -2.0202 0.177708 0
M  V30 2172 C 211.469 -1.52066 -1.20787 0
M  V30 2173 O 210.744 -0.716987 -1.80802 0
M  V30 2174 C 211.027 -3.59561 0.197019 0
M  V30 2175 C 210.88 -4.19727 1.61706 0
M  V30 2176 C 212.199 -4.37664 -0.462396 0
M  V30 2177 H 209.318 -0.734034 0.0660494 0
M  V30 2178 H 211.96 -1.70272 0.843058 0
M  V30 2179 H 210.11 -3.86739 -0.369527 0
M  V30 2180 H 211.782 -4.03553 2.23479 0
M  V30 2181 H 210.025 -3.76084 2.16201 0
M  V30 2182 H 210.696 -5.28834 1.58237 0
M  V30 2183 H 213.172 -4.16095 0.0197215 0
M  V30 2184 H 212.048 -5.47305 -0.418188 0
M  V30 2185 H 212.309 -4.14493 -1.53778 0
M  V30 2186 N 211.368 -0.403325 -1.52352 0
M  V30 2187 C 212.315 0.425011 -2.26853 0
M  V30 2188 C 213.285 1.04598 -1.29029 0
M  V30 2189 O 214.47 1.07135 -1.57882 0
M  V30 2190 C 211.61 1.53888 -3.08889 0
M  V30 2191 C 210.723 0.939396 -4.21663 0
M  V30 2192 C 209.858 2.02547 -4.91068 0
M  V30 2193 C 208.897 1.40263 -5.95813 0
M  V30 2194 N 208.034 2.4286 -6.58759 0
M  V30 2195 H 212.874 -0.21674 -2.97211 0
M  V30 2196 H 210.411 -0.118722 -1.4662 0
M  V30 2197 H 212.369 2.19558 -3.54753 0
M  V30 2198 H 210.999 2.15074 -2.40714 0
M  V30 2199 H 210.051 0.171898 -3.80011 0
M  V30 2200 H 211.363 0.44436 -4.96817 0
M  V30 2201 H 210.517 2.75958 -5.40308 0
M  V30 2202 H 209.256 2.55415 -4.15469 0
M  V30 2203 H 208.261 0.653833 -5.45898 0
M  V30 2204 H 209.486 0.881719 -6.73352 0
M  V30 2205 H 207.432 2.94871 -5.85992 0
M  V30 2206 H 207.349 1.98152 -7.2957 0
M  V30 2207 H 208.617 3.15858 -7.12639 0
M  V30 2208 N 212.846 1.57033 -0.133567 0
M  V30 2209 C 213.809 2.14897 0.796995 0
M  V30 2210 C 214.809 1.0874 1.18458 0
M  V30 2211 O 215.999 1.34446 1.1077 0
M  V30 2212 C 213.131 2.70112 2.07973 0
M  V30 2213 H 214.324 2.98457 0.293873 0
M  V30 2214 H 211.877 1.55871 0.115787 0
M  V30 2215 H 212.612 1.9018 2.62682 0
M  V30 2216 H 212.397 3.47764 1.81115 0
M  V30 2217 H 213.887 3.14738 2.74462 0
M  V30 2218 N 214.325 -0.140222 1.56975 0
M  V30 2219 C 215.55 -0.870414 1.88251 0
M  V30 2220 C 215.975 -1.73637 0.723312 0
M  V30 2221 O 215.333 -1.78329 -0.32689 0
M  V30 2222 C 215.381 -1.69737 3.18154 0
M  V30 2223 O 214.485 -2.80229 3.02565 0
M  V30 2224 H 213.826 -0.242025 0.61832 0
M  V30 2225 H 216.356 -0.128999 2.04193 0
M  V30 2226 H 216.366 -2.09099 3.50345 0
M  V30 2227 H 215.041 -1.06152 4.02125 0
M  V30 2228 H 213.618 -2.44224 2.81796 0
M  V30 2229 N 215.803 -1.52179 -0.40978 0
M  V30 2230 C 217.049 -1.66453 -1.15851 0
M  V30 2231 C 217.382 -0.392972 -1.90182 0
M  V30 2232 O 216.657 0.608579 -1.84734 0
M  V30 2233 C 216.94 -2.88612 -2.15349 0
M  V30 2234 C 216.793 -4.25815 -1.44918 0
M  V30 2235 C 218.112 -3.06294 -3.16026 0
M  V30 2236 H 215.231 -0.60575 -0.419805 0
M  V30 2237 H 217.873 -1.84732 -0.444314 0
M  V30 2238 H 216.023 -2.73158 -2.76255 0
M  V30 2239 H 217.695 -4.52995 -0.871365 0
M  V30 2240 H 215.938 -4.27247 -0.751159 0
M  V30 2241 H 216.609 -5.07337 -2.17516 0
M  V30 2242 H 219.085 -3.20641 -2.65195 0
M  V30 2243 H 217.961 -3.93283 -3.8291 0
M  V30 2244 H 218.222 -2.19579 -3.83715 0
M  V30 2245 N 217.281 0.66697 -1.42791 0
M  V30 2246 C 218.558 1.4234 -1.34159 0
M  V30 2247 C 218.938 2.11093 0.0172729 0
M  V30 2248 O 218.286 2.03808 1.03318 0
M  V30 2249 C 218.496 2.41942 -2.51526 0
M  V30 2250 C 219.844 3.06353 -2.93995 0
M  V30 2251 O 220.868 2.52269 -2.51473 0
M  V30 2252 O 219.727 4.04376 -3.67617 0
M  V30 2253 H 216.821 0.635277 -0.529483 0
M  V30 2254 H 219.367 0.695034 -1.54814 0
M  V30 2255 H 218.139 1.89991 -3.42081 0
M  V30 2256 H 217.762 3.22249 -2.32898 0
M  V30 2257 N 218.759 1.29093 0.90403 0
M  V30 2258 C 220.007 1.16583 1.65085 0
M  V30 2259 C 220.328 -0.283933 1.92922 0
M  V30 2260 O 219.598 -1.19509 1.55224 0
M  V30 2261 H 218.178 0.428467 0.611903 0
M  V30 2262 H 220.84 1.61959 1.08422 0
M  V30 2263 H 219.936 1.71266 2.6091 0
M  V30 2264 N 220.237 -1.11381 1.11499 0
M  V30 2265 C 221.653 -1.35143 0.849031 0
M  V30 2266 C 221.853 -1.94515 -0.525938 0
M  V30 2267 O 220.909 -2.1785 -1.27662 0
M  V30 2268 C 222.222 -2.28249 1.95762 0
M  V30 2269 C 223.77 -2.41812 1.98736 0
M  V30 2270 C 224.245 -3.3824 3.088 0
M  V30 2271 N 225.736 -3.45803 3.08179 0
M  V30 2272 C 226.471 -4.20358 3.89982 0
M  V30 2273 N 225.967 -4.97884 4.8175 0
M  V30 2274 N 227.76 -4.15877 3.78157 0
M  V30 2275 H 219.911 -0.712062 2.00109 0
M  V30 2276 H 222.174 -0.376025 0.870235 0
M  V30 2277 H 221.88 -1.91817 2.94787 0
M  V30 2278 H 221.754 -3.28473 1.85433 0
M  V30 2279 H 224.141 -2.77518 1.00338 0
M  V30 2280 H 224.222 -1.41437 2.13141 0
M  V30 2281 H 223.866 -3.03261 4.07425 0
M  V30 2282 H 223.796 -4.38471 2.91635 0
M  V30 2283 H 226.287 -2.90506 2.41691 0
M  V30 2284 H 226.6 -5.52142 5.40702 0
M  V30 2285 H 224.945 -4.97043 4.85771 0
M  V30 2286 H 228.136 -3.544 3.05808 0
M  V30 2287 H 228.309 -4.73723 4.42143 0
M  V30 2288 N 221.715 -0.905404 -1.28997 0
M  V30 2289 C 222.645 -0.404212 -2.29975 0
M  V30 2290 C 223.626 0.523784 -1.61835 0
M  V30 2291 O 224.811 0.433298 -1.89304 0
M  V30 2292 C 221.941 0.364042 -3.45387 0
M  V30 2293 C 220.895 -0.474048 -4.25367 0
M  V30 2294 C 220.221 0.422045 -5.33032 0
M  V30 2295 C 221.521 -1.72696 -4.92923 0
M  V30 2296 H 223.215 -1.24807 -2.72146 0
M  V30 2297 H 220.761 -0.601585 -1.30832 0
M  V30 2298 H 222.714 0.725447 -4.15109 0
M  V30 2299 H 221.438 1.24174 -3.02074 0
M  V30 2300 H 220.097 -0.81786 -3.57361 0
M  V30 2301 H 219.745 1.29804 -4.85963 0
M  V30 2302 H 219.445 -0.135057 -5.87445 0
M  V30 2303 H 220.969 0.779517 -6.05604 0
M  V30 2304 H 222.383 -1.43495 -5.55051 0
M  V30 2305 H 220.78 -2.22582 -5.57295 0
M  V30 2306 H 221.85 -2.45964 -4.17887 0
M  V30 2307 N 223.193 1.4272 -0.668489 0
M  V30 2308 C 224.14 2.30796 0.0137489 0
M  V30 2309 C 225.11 1.4561 0.799177 0
M  V30 2310 O 226.295 1.74453 0.772702 0
M  V30 2311 C 223.435 3.31377 0.963507 0
M  V30 2312 C 222.548 4.31655 0.172569 0
M  V30 2313 C 221.683 5.19312 1.1175 0
M  V30 2314 C 220.722 6.11274 0.317886 0
M  V30 2315 N 219.859 6.91504 1.2152 0
M  V30 2316 H 224.699 2.88585 -0.743161 0
M  V30 2317 H 222.236 1.42154 -0.378226 0
M  V30 2318 H 224.194 3.88214 1.52792 0
M  V30 2319 H 222.824 2.75202 1.68712 0
M  V30 2320 H 221.876 3.76988 -0.508374 0
M  V30 2321 H 223.188 4.96779 -0.448527 0
M  V30 2322 H 222.342 5.80851 1.75206 0
M  V30 2323 H 221.081 4.5435 1.77249 0
M  V30 2324 H 220.086 5.48809 -0.329918 0
M  V30 2325 H 221.311 6.78283 -0.332917 0
M  V30 2326 H 219.257 6.29176 1.85671 0
M  V30 2327 H 219.174 7.53209 0.649036 0
M  V30 2328 H 220.442 7.57535 1.83742 0
M  V30 2329 N 224.671 0.411399 1.52136 0
M  V30 2330 C 225.919 -0.163322 2.01439 0
M  V30 2331 C 226.24 -1.45453 1.29879 0
M  V30 2332 O 225.51 -1.91225 0.4254 0
M  V30 2333 H 224.09 -0.0633447 0.744309 0
M  V30 2334 H 226.752 0.548161 1.87033 0
M  V30 2335 H 225.848 -0.357817 3.10042 0
M  V30 2336 N 226.149 -1.5696 0.141893 0
M  V30 2337 C 227.112 -2.15316 -0.785587 0
M  V30 2338 C 228.112 -1.09366 -1.1788 0
M  V30 2339 O 229.302 -1.35031 -1.10056 0
M  V30 2340 C 226.434 -2.71211 -2.06537 0
M  V30 2341 H 227.627 -2.98608 -0.278041 0
M  V30 2342 H 225.18 -1.5593 -0.107519 0
M  V30 2343 H 225.915 -1.91571 -2.6167 0
M  V30 2344 H 225.7 -3.4872 -1.79268 0
M  V30 2345 H 227.19 -3.16189 -2.72789 0
M  V30 2346 N 227.627 0.131896 -1.57047 0
M  V30 2347 C 228.577 1.1679 -1.95816 0
M  V30 2348 C 229.561 1.37756 -0.831393 0
M  V30 2349 O 230.753 1.39065 -1.09499 0
M  V30 2350 C 227.882 2.49778 -2.35512 0
M  V30 2351 C 226.968 2.32342 -3.54793 0
M  V30 2352 N 227.359 1.8469 -4.70875 0
M  V30 2353 C 225.657 2.63043 -3.60173 0
M  V30 2354 C 226.358 1.80656 -5.52936 0
M  V30 2355 N 225.334 2.24528 -4.95064 0
M  V30 2356 H 229.136 0.791818 -2.83033 0
M  V30 2357 H 226.65 0.339791 -1.58805 0
M  V30 2358 H 228.647 3.24692 -2.61498 0
M  V30 2359 H 227.307 2.88156 -1.49654 0
M  V30 2360 H 228.318 1.54429 -4.9434 0
M  V30 2361 H 224.995 3.05193 -2.84892 0
M  V30 2362 H 226.385 1.45178 -6.56028 0
M  V30 2363 N 229.106 1.52395 0.401703 0
M  V30 2364 C 230.355 1.66044 1.14509 0
M  V30 2365 C 230.668 0.400216 1.91462 0
M  V30 2366 O 231.874 0.416632 2.68284 0
M  V30 2367 C 230.33 2.93388 2.0845 0
M  V30 2368 C 229.938 4.26545 1.36978 0
M  V30 2369 C 231.682 3.16402 2.83001 0
M  V30 2370 C 229.589 5.45007 2.29611 0
M  V30 2371 H 228.519 0.618562 0.431158 0
M  V30 2372 H 231.17 1.78886 0.40892 0
M  V30 2373 H 229.552 2.74263 2.8565 0
M  V30 2374 H 230.726 4.56179 0.650916 0
M  V30 2375 H 229.041 4.09692 0.74438 0
M  V30 2376 H 231.638 4.02085 3.52465 0
M  V30 2377 H 231.981 2.30943 3.46368 0
M  V30 2378 H 232.514 3.36034 2.12898 0
M  V30 2379 H 229.253 6.32835 1.70879 0
M  V30 2380 H 228.773 5.19702 2.9945 0
M  V30 2381 H 230.452 5.7838 2.89974 0
M  V30 2382 N 230.584 -0.659388 1.43143 0
M  V30 2383 C 231.83 -1.42145 1.44647 0
M  V30 2384 C 232.163 -1.9408 0.0681907 0
M  V30 2385 O 231.438 -1.71899 -0.910007 0
M  V30 2386 C 231.721 -2.60735 2.48373 0
M  V30 2387 C 231.574 -2.14332 3.95451 0
M  V30 2388 C 232.893 -3.62951 2.48906 0
M  V30 2389 H 230.012 -0.51552 0.526696 0
M  V30 2390 H 232.654 -0.748069 1.74654 0
M  V30 2391 H 230.804 -3.18184 2.22916 0
M  V30 2392 H 232.476 -1.61932 4.31944 0
M  V30 2393 H 230.719 -1.4576 4.08578 0
M  V30 2394 H 231.39 -2.99583 4.63631 0
M  V30 2395 H 233.866 -3.1525 2.71582 0
M  V30 2396 H 232.742 -4.43487 3.23435 0
M  V30 2397 H 233.003 -4.15126 1.52061 0
M  V30 2398 N 232.062 -1.29571 -0.897171 0
M  V30 2399 C 232.995 -1.0924 -2.00354 0
M  V30 2400 C 233.973 -0.00354011 -1.626 0
M  V30 2401 O 235.157 -0.15473 -1.87864 0
M  V30 2402 C 232.284 -0.66352 -3.32137 0
M  V30 2403 C 231.33 -1.75146 -3.88878 0
M  V30 2404 S 232.163 -3.35124 -4.17674 0
M  V30 2405 C 233.319 -2.9411 -5.52494 0
M  V30 2406 H 233.552 -2.02907 -2.17292 0
M  V30 2407 H 231.085 -1.13746 -1.04408 0
M  V30 2408 H 233.043 -0.422791 -4.08317 0
M  V30 2409 H 231.704 0.253588 -3.13075 0
M  V30 2410 H 230.897 -1.40337 -4.84068 0
M  V30 2411 H 230.499 -1.94584 -3.19395 0
M  V30 2412 H 232.791 -2.41312 -6.33068 0
M  V30 2413 H 233.734 -3.88161 -5.9223 0
M  V30 2414 H 234.142 -2.32332 -5.14473 0
M  V30 2415 N 233.54 1.10788 -1.12088 0
M  V30 2416 C 234.817 1.79136 -0.785476 0
M  V30 2417 C 235.197 1.98246 0.725377 0
M  V30 2418 O 234.545 1.57258 1.65778 0
M  V30 2419 C 234.755 3.12375 -1.55636 0
M  V30 2420 C 236.103 3.8731 -1.74001 0
M  V30 2421 O 237.127 3.22085 -1.52117 0
M  V30 2422 O 235.986 5.04369 -2.10415 0
M  V30 2423 H 233.08 0.776226 -0.285311 0
M  V30 2424 H 235.626 1.1747 -1.2247 0
M  V30 2425 H 234.398 2.93863 -2.5838 0
M  V30 2426 H 234.021 3.81758 -1.11114 0
M  V30 2427 N 235.018 0.912232 1.28515 0
M  V30 2428 C 235.965 0.397954 2.27343 0
M  V30 2429 C 236.935 -0.526766 1.57526 0
M  V30 2430 O 238.12 -0.449292 1.85435 0
M  V30 2431 C 235.26 -0.357263 3.43246 0
M  V30 2432 C 234.373 0.599788 4.27816 0
M  V30 2433 C 233.508 -0.173725 5.30916 0
M  V30 2434 C 232.547 0.777039 6.07148 0
M  V30 2435 N 231.684 0.0371398 7.0209 0
M  V30 2436 H 236.524 1.24577 2.70711 0
M  V30 2437 H 234.061 0.625612 1.33133 0
M  V30 2438 H 236.019 -0.8113 4.09236 0
M  V30 2439 H 234.649 -1.16943 3.00872 0
M  V30 2440 H 233.701 1.17235 3.61884 0
M  V30 2441 H 235.013 1.32704 4.80823 0
M  V30 2442 H 234.167 -0.688394 6.02782 0
M  V30 2443 H 232.906 -0.934041 4.78672 0
M  V30 2444 H 231.911 1.3031 5.34134 0
M  V30 2445 H 233.136 1.53689 6.61481 0
M  V30 2446 H 231.082 -0.705213 6.52198 0
M  V30 2447 H 230.999 0.704249 7.52713 0
M  V30 2448 H 232.267 -0.457383 7.78157 0
M  V30 2449 N 236.496 -1.42363 0.676048 0
M  V30 2450 C 237.742 -2.0182 0.199125 0
M  V30 2451 C 238.075 -1.53339 -1.19168 0
M  V30 2452 O 237.35 -0.736124 -1.80032 0
M  V30 2453 C 237.633 -3.59331 0.235144 0
M  V30 2454 C 237.486 -4.17989 1.66149 0
M  V30 2455 C 238.805 -4.3813 -0.41595 0
M  V30 2456 H 235.924 -0.733293 0.0738311 0
M  V30 2457 H 238.566 -1.69368 0.86107 0
M  V30 2458 H 236.716 -3.87109 -0.328487 0
M  V30 2459 H 238.388 -4.0116 2.27747 0
M  V30 2460 H 236.631 -3.7377 2.20178 0
M  V30 2461 H 237.302 -5.27126 1.63837 0
M  V30 2462 H 239.778 -4.16051 0.0638529 0
M  V30 2463 H 238.654 -5.47717 -0.360115 0
M  V30 2464 H 238.915 -4.16101 -1.49373 0
M  V30 2465 N 237.974 -0.419461 -1.51915 0
M  V30 2466 C 239.199 0.154572 -2.06823 0
M  V30 2467 C 239.624 1.3722 -1.28656 0
M  V30 2468 O 238.982 1.78461 -0.319583 0
M  V30 2469 C 239.03 0.473172 -3.57482 0
M  V30 2470 O 238.134 1.56255 -3.81652 0
M  V30 2471 H 237.475 0.0096924 -0.663929 0
M  V30 2472 H 240.005 -0.595642 -1.95738 0
M  V30 2473 H 240.015 0.728825 -4.01438 0
M  V30 2474 H 238.69 -0.416873 -4.13805 0
M  V30 2475 H 237.267 1.29825 -3.49571 0
M  V30 2476 N 239.452 1.56882 -0.150215 0
M  V30 2477 C 240.698 1.96518 0.500834 0
M  V30 2478 C 241.031 1.03527 1.64304 0
M  V30 2479 O 240.306 0.0782751 1.94342 0
M  V30 2480 C 240.589 3.45822 1.00395 0
M  V30 2481 C 240.442 4.49591 -0.136983 0
M  V30 2482 C 241.761 3.97704 1.88467 0
M  V30 2483 H 238.88 0.714535 0.18058 0
M  V30 2484 H 241.522 1.88577 -0.232091 0
M  V30 2485 H 239.672 3.5272 1.62851 0
M  V30 2486 H 241.344 4.5477 -0.77343 0
M  V30 2487 H 239.587 4.26441 -0.795652 0
M  V30 2488 H 240.258 5.51402 0.256815 0
M  V30 2489 H 242.734 3.93304 1.35834 0
M  V30 2490 H 241.61 5.0263 2.20578 0
M  V30 2491 H 241.871 3.40252 2.82279 0
M  V30 2492 N 240.93 -0.123565 1.57115 0
M  V30 2493 C 242.178 -0.83051 1.84247 0
M  V30 2494 C 242.499 -1.80629 0.73471 0
M  V30 2495 O 241.769 -1.94403 -0.241688 0
M  V30 2496 H 240.349 -0.309694 0.679778 0
M  V30 2497 H 243.011 -0.111976 1.94578 0
M  V30 2498 H 242.107 -1.37852 2.80006 0
M  V30 2499 N 242.408 -1.52605 -0.393616 0
M  V30 2500 C 243.371 -1.76415 -1.46323 0
M  V30 2501 C 244.371 -0.634126 -1.47768 0
M  V30 2502 O 245.561 -0.902142 -1.4902 0
M  V30 2503 C 242.693 -1.8607 -2.85641 0
M  V30 2504 H 243.886 -2.71916 -1.26498 0
M  V30 2505 H 241.439 -1.43257 -0.625073 0
M  V30 2506 H 242.174 -0.925378 -3.10817 0
M  V30 2507 H 241.959 -2.68235 -2.85993 0
M  V30 2508 H 243.449 -2.06179 -3.63153 0
M  V30 2509 N 243.887 0.651787 -1.4349 0
M  V30 2510 C 245.115 1.43937 -1.48626 0
M  V30 2511 C 245.53 1.8851 -0.104587 0
M  V30 2512 O 244.887 1.5958 0.885464 0
M  V30 2513 C 244.938 2.6734 -2.43334 0
M  V30 2514 O 244.659 2.24631 -3.76128 0
M  V30 2515 C 246.16 3.60683 -2.57726 0
M  V30 2516 H 243.38 0.44213 -0.504739 0
M  V30 2517 H 245.924 0.798944 -1.88248 0
M  V30 2518 H 244.079 3.2752 -2.06904 0
M  V30 2519 H 244.493 3.04485 -4.2707 0
M  V30 2520 H 245.967 4.43933 -3.28067 0
M  V30 2521 H 246.444 4.08126 -1.62265 0
M  V30 2522 H 247.05 3.06384 -2.94973 0
M  V30 2523 N 245.365 1.30045 0.890287 0
M  V30 2524 C 246.611 1.18737 1.64406 0
M  V30 2525 C 246.944 -0.258525 1.92472 0
M  V30 2526 O 246.219 -1.18562 1.54186 0
M  V30 2527 C 246.502 2.01087 2.98724 0
M  V30 2528 C 246.355 3.53867 2.77665 0
M  V30 2529 C 247.674 1.84457 3.9958 0
M  V30 2530 H 244.793 0.432698 0.596608 0
M  V30 2531 H 247.435 1.5962 1.0306 0
M  V30 2532 H 245.585 1.66349 3.51084 0
M  V30 2533 H 247.257 3.98637 2.32133 0
M  V30 2534 H 245.5 3.78318 2.12269 0
M  V30 2535 H 246.171 4.06772 3.7315 0
M  V30 2536 H 248.647 2.14817 3.56361 0
M  V30 2537 H 247.523 2.44411 4.91482 0
M  V30 2538 H 247.784 0.802276 4.3476 0
M  V30 2539 N 246.843 -1.10192 1.12674 0
M  V30 2540 C 248.071 -1.85983 0.906527 0
M  V30 2541 C 248.486 -1.80783 -0.544333 0
M  V30 2542 O 247.843 -1.19834 -1.37645 0
M  V30 2543 C 247.894 -3.34281 1.37618 0
M  V30 2544 O 247.615 -3.39401 2.77017 0
M  V30 2545 C 249.116 -4.26938 1.19325 0
M  V30 2546 H 246.336 -0.587716 0.323775 0
M  V30 2547 H 248.88 -1.39284 1.49734 0
M  V30 2548 H 247.035 -3.78436 0.828539 0
M  V30 2549 H 247.449 -4.31838 2.97684 0
M  V30 2550 H 248.923 -5.29181 1.57071 0
M  V30 2551 H 249.4 -4.38995 0.134097 0
M  V30 2552 H 250.006 -3.8859 1.72852 0
M  V30 2553 N 248.321 -0.919034 -1.28029 0
M  V30 2554 C 249.57 -0.550802 -1.94034 0
M  V30 2555 C 249.883 0.910877 -1.73096 0
M  V30 2556 O 251.089 1.3875 -2.33368 0
M  V30 2557 C 249.545 -0.934249 -3.47563 0
M  V30 2558 C 249.153 -2.41602 -3.7727 0
M  V30 2559 C 250.897 -0.636854 -4.19696 0
M  V30 2560 C 248.804 -2.73932 -5.24133 0
M  V30 2561 H 247.734 -0.202273 -0.726362 0
M  V30 2562 H 250.385 -1.11867 -1.45458 0
M  V30 2563 H 248.767 -0.295115 -3.94899 0
M  V30 2564 H 249.941 -3.10233 -3.40723 0
M  V30 2565 H 248.256 -2.68441 -3.18321 0
M  V30 2566 H 250.853 -0.855005 -5.2782 0
M  V30 2567 H 251.196 0.425575 -4.14119 0
M  V30 2568 H 251.729 -1.23469 -3.78154 0
M  V30 2569 H 248.468 -3.79049 -5.34792 0
M  V30 2570 H 247.988 -2.09942 -5.61858 0
M  V30 2571 H 249.667 -2.61215 -5.91925 0
M  V30 2572 N 249.799 1.42003 -0.683588 0
M  V30 2573 C 250.732 2.28166 0.039592 0
M  V30 2574 C 251.71 1.41562 0.799942 0
M  V30 2575 O 252.894 1.70997 0.793248 0
M  V30 2576 C 250.021 3.21575 1.06335 0
M  V30 2577 C 249.067 4.24643 0.397562 0
M  V30 2578 S 249.9 5.2869 -0.851296 0
M  V30 2579 C 251.056 6.25666 0.171166 0
M  V30 2580 H 251.289 2.89153 -0.691229 0
M  V30 2581 H 248.822 1.46962 -0.473435 0
M  V30 2582 H 250.78 3.75928 1.6489 0
M  V30 2583 H 249.441 2.59707 1.76667 0
M  V30 2584 H 248.634 4.90223 1.17035 0
M  V30 2585 H 248.236 3.73824 -0.114611 0
M  V30 2586 H 250.528 6.69653 1.02819 0
M  V30 2587 H 251.471 7.06666 -0.450397 0
M  V30 2588 H 251.879 5.62095 0.520578 0
M  V30 2589 N 251.277 0.427512 1.51691 0
M  V30 2590 C 252.517 -0.141524 2.03909 0
M  V30 2591 C 252.881 -1.40811 1.30523 0
M  V30 2592 O 254.082 -2.05676 1.73063 0
M  V30 2593 C 252.353 -0.364962 3.55532 0
M  V30 2594 S 253.912 -0.898812 4.29496 0
M  V30 2595 H 250.73 -0.0364542 0.710065 0
M  V30 2596 H 253.332 0.584659 1.86553 0
M  V30 2597 H 252.036 0.56336 4.06515 0
M  V30 2598 H 251.567 -1.1185 3.77164 0
M  V30 2599 H 253.582 -2.17747 4.45871 0
M  V30 2600 N 252.755 -1.56801 0.158532 0
M  V30 2601 C 253.718 -2.16138 -0.762705 0
M  V30 2602 C 254.718 -1.1061 -1.16713 0
M  V30 2603 O 255.908 -1.36191 -1.08617 0
M  V30 2604 C 253.04 -2.73386 -2.03649 0
M  V30 2605 H 254.233 -2.98886 -0.246354 0
M  V30 2606 H 251.786 -1.56035 -0.0909744 0
M  V30 2607 H 252.521 -1.94335 -2.59623 0
M  V30 2608 H 252.306 -3.50601 -1.75559 0
M  V30 2609 H 253.796 -3.19065 -2.6942 0
M  V30 2610 N 254.233 0.115231 -1.57178 0
M  V30 2611 C 255.196 1.12526 -1.99676 0
M  V30 2612 C 256.196 1.34095 -0.88742 0
M  V30 2613 O 257.386 1.30548 -1.15337 0
M  V30 2614 C 254.518 2.4789 -2.34015 0
M  V30 2615 H 255.711 0.759912 -2.90113 0
M  V30 2616 H 253.264 0.359648 -1.52106 0
M  V30 2617 H 253.999 2.89339 -1.4647 0
M  V30 2618 H 253.784 2.33588 -3.14927 0
M  V30 2619 H 255.274 3.20575 -2.67622 0
M  V30 2620 N 255.711 1.52812 0.385517 0
M  V30 2621 C 256.939 1.71907 1.15133 0
M  V30 2622 C 257.354 0.439004 1.83625 0
M  V30 2623 O 256.711 -0.586765 1.7281 0
M  V30 2624 C 256.762 2.87099 2.19673 0
M  V30 2625 O 256.483 4.10151 1.53973 0
M  V30 2626 C 257.984 3.17902 3.08955 0
M  V30 2627 H 255.204 0.575479 0.345057 0
M  V30 2628 H 257.748 1.99476 0.45052 0
M  V30 2629 H 255.903 2.61982 2.85384 0
M  V30 2630 H 256.317 4.74514 2.23465 0
M  V30 2631 H 257.791 4.01959 3.7833 0
M  V30 2632 H 258.268 2.3243 3.72657 0
M  V30 2633 H 258.874 3.44871 2.48885 0
M  V30 2634 N 257.189 -0.644168 1.43834 0
M  V30 2635 C 258.119 -1.76814 1.52509 0
M  V30 2636 C 259.1 -1.65823 0.379052 0
M  V30 2637 O 260.285 -1.84781 0.597466 0
M  V30 2638 C 257.415 -3.15288 1.4564 0
M  V30 2639 C 256.369 -3.41053 2.58586 0
M  V30 2640 C 255.695 -4.79421 2.36769 0
M  V30 2641 C 256.995 -3.34902 4.00797 0
M  V30 2642 H 258.689 -1.69812 2.46586 0
M  V30 2643 H 256.235 -0.815542 1.1868 0
M  V30 2644 H 258.188 -3.93681 1.50311 0
M  V30 2645 H 256.912 -3.23043 0.480725 0
M  V30 2646 H 255.571 -2.65035 2.53282 0
M  V30 2647 H 255.219 -4.83863 1.37424 0
M  V30 2648 H 254.919 -4.9762 3.12487 0
M  V30 2649 H 256.443 -5.6006 2.43238 0
M  V30 2650 H 257.857 -4.03218 4.07539 0
M  V30 2651 H 256.254 -3.64637 4.76613 0
M  V30 2652 H 257.324 -2.32928 4.25291 0
M  V30 2653 N 258.668 -1.30515 -0.883378 0
M  V30 2654 C 259.631 -1.1701 -1.97082 0
M  V30 2655 C 260.631 -0.10089 -1.60483 0
M  V30 2656 O 261.821 -0.349127 -1.70666 0
M  V30 2657 C 258.953 -0.793045 -3.31547 0
M  V30 2658 H 260.146 -2.13622 -2.10489 0
M  V30 2659 H 257.699 -1.13935 -1.06998 0
M  V30 2660 H 258.434 0.172499 -3.23841 0
M  V30 2661 H 258.219 -1.56576 -3.5948 0
M  V30 2662 H 259.709 -0.722073 -4.1131 0
M  V30 2663 N 260.146 1.09593 -1.13257 0
M  V30 2664 C 261.056 2.19739 -0.821691 0
M  V30 2665 C 262.072 1.72926 0.19302 0
M  V30 2666 O 263.248 2.01385 0.0244895 0
M  V30 2667 C 260.313 3.45482 -0.290333 0
M  V30 2668 C 259.374 4.06985 -1.36607 0
M  V30 2669 C 258.607 5.26726 -0.859975 0
M  V30 2670 O 258.83 5.69594 0.303082 0
M  V30 2671 O 257.764 5.7931 -1.63351 0
M  V30 2672 H 261.59 2.48781 -1.74189 0
M  V30 2673 H 259.175 1.18496 -0.909894 0
M  V30 2674 H 261.057 4.214 0.000674022 0
M  V30 2675 H 259.732 3.18047 0.602306 0
M  V30 2676 H 258.639 3.32712 -1.71037 0
M  V30 2677 H 259.972 4.38643 -2.23279 0
M  V30 2678 N 261.624 0.925811 1.2754 0
M  V30 2679 C 262.872 0.564138 1.94067 0
M  V30 2680 C 263.193 -0.897188 1.73134 0
M  V30 2681 O 262.463 -1.63573 1.07799 0
M  V30 2682 H 261.043 0.205645 0.718136 0
M  V30 2683 H 263.705 1.1778 1.55287 0
M  V30 2684 H 262.801 0.76881 3.02483 0
M  V30 2685 N 263.102 -1.41638 0.69111 0
M  V30 2686 C 264.33 -2.05628 0.22909 0
M  V30 2687 C 264.745 -1.51992 -1.11999 0
M  V30 2688 O 264.102 -0.666322 -1.69901 0
M  V30 2689 C 264.153 -3.61084 0.173283 0
M  V30 2690 O 263.874 -4.12735 1.46907 0
M  V30 2691 C 265.375 -4.42213 -0.310266 0
M  V30 2692 H 262.595 -0.662327 0.107534 0
M  V30 2693 H 265.139 -1.81489 0.942438 0
M  V30 2694 H 263.294 -3.84278 -0.490858 0
M  V30 2695 H 263.708 -5.06743 1.35322 0
M  V30 2696 H 265.182 -5.51194 -0.298196 0
M  V30 2697 H 265.659 -4.1799 -1.34838 0
M  V30 2698 H 266.265 -4.24074 0.322716 0
M  V30 2699 N 264.58 -0.43555 -1.51462 0
M  V30 2700 C 265.808 0.130242 -2.0649 0
M  V30 2701 C 266.223 1.36614 -1.30315 0
M  V30 2702 O 265.58 1.78869 -0.362223 0
M  V30 2703 C 265.631 0.454253 -3.58635 0
M  V30 2704 O 265.352 -0.73259 -4.31931 0
M  V30 2705 C 266.853 1.07091 -4.3017 0
M  V30 2706 H 264.073 0.00871669 -0.670943 0
M  V30 2707 H 266.617 -0.614117 -1.95061 0
M  V30 2708 H 264.772 1.14851 -3.69984 0
M  V30 2709 H 265.186 -0.455787 -5.22516 0
M  V30 2710 H 266.66 1.24764 -5.37716 0
M  V30 2711 H 267.137 2.05144 -3.88346 0
M  V30 2712 H 267.743 0.416089 -4.2326 0
M  V30 2713 N 266.058 1.56714 -0.166846 0
M  V30 2714 C 267.307 1.95922 0.479318 0
M  V30 2715 C 267.62 1.05529 1.6469 0
M  V30 2716 O 268.826 1.34399 2.35901 0
M  V30 2717 C 267.282 3.48359 0.90412 0
M  V30 2718 C 266.89 4.47369 -0.237621 0
M  V30 2719 C 268.634 3.96394 1.51896 0
M  V30 2720 C 266.541 5.91039 0.206561 0
M  V30 2721 H 265.471 0.731495 0.18284 0
M  V30 2722 H 268.122 1.81728 -0.254363 0
M  V30 2723 H 266.504 3.57955 1.69365 0
M  V30 2724 H 267.678 4.49485 -1.01489 0
M  V30 2725 H 265.993 4.09366 -0.762128 0
M  V30 2726 H 268.59 5.01186 1.86325 0
M  V30 2727 H 268.933 3.39075 2.41524 0
M  V30 2728 H 269.466 3.89796 0.79395 0
M  V30 2729 H 266.205 6.52221 -0.654834 0
M  V30 2730 H 265.725 5.9224 0.949282 0
M  V30 2731 H 267.404 6.43707 0.651939 0
M  V30 2732 N 267.536 -0.106894 1.57237 0
M  V30 2733 C 268.785 -0.811163 1.8467 0
M  V30 2734 C 269.098 -1.80469 0.754342 0
M  V30 2735 O 270.304 -2.55601 0.915439 0
M  V30 2736 C 268.76 -1.49337 3.27454 0
M  V30 2737 C 268.368 -0.540217 4.44731 0
M  V30 2738 C 270.112 -2.18206 3.64124 0
M  V30 2739 C 268.019 -1.22634 5.78545 0
M  V30 2740 H 266.949 -0.306679 0.688813 0
M  V30 2741 H 269.6 -0.0639887 1.83388 0
M  V30 2742 H 267.982 -2.2876 3.23241 0
M  V30 2743 H 269.156 0.221659 4.60267 0
M  V30 2744 H 267.471 0.042146 4.16379 0
M  V30 2745 H 270.068 -2.70253 4.61376 0
M  V30 2746 H 270.411 -2.96562 2.92158 0
M  V30 2747 H 270.944 -1.45658 3.70174 0
M  V30 2748 H 267.683 -0.483832 6.53712 0
M  V30 2749 H 267.203 -1.95993 5.66874 0
M  V30 2750 H 268.882 -1.75615 6.2271 0
M  V30 2751 N 269.014 -1.53014 -0.377408 0
M  V30 2752 C 269.924 -1.81557 -1.48574 0
M  V30 2753 C 270.94 -0.703102 -1.59162 0
M  V30 2754 O 272.116 -0.99192 -1.75279 0
M  V30 2755 C 269.181 -1.9889 -2.83978 0
M  V30 2756 C 268.242 -3.22801 -2.83016 0
M  V30 2757 C 267.475 -3.39298 -4.11962 0
M  V30 2758 O 267.698 -2.60345 -5.0752 0
M  V30 2759 O 266.632 -4.32604 -4.18494 0
M  V30 2760 H 270.458 -2.75695 -1.27382 0
M  V30 2761 H 268.043 -1.38248 -0.566373 0
M  V30 2762 H 269.925 -2.11931 -3.6423 0
M  V30 2763 H 268.6 -1.07942 -3.05172 0
M  V30 2764 H 267.507 -3.15193 -2.01505 0
M  V30 2765 H 268.84 -4.13632 -2.66775 0
M  V30 2766 N 270.492 0.636531 -1.44174 0
M  V30 2767 C 271.44 1.76995 -1.50915 0
M  V30 2768 C 272.434 1.65053 -0.381295 0
M  V30 2769 O 273.64 1.71197 -0.55601 0
M  V30 2770 H 270.015 0.584247 -0.473455 0
M  V30 2771 H 271.986 1.68432 -2.4632 0
M  V30 2772 C 270.735 3.15314 -1.46534 0
M  V30 2773 H 270.058 3.25149 -2.32633 0
M  V30 2774 H 271.498 3.9453 -1.55312 0
M  V30 2775 C 269.957 3.3639 -0.185305 0
M  V30 2776 O 270.487 3.94699 0.746688 0
M  V30 2777 N 268.693 2.9046 -0.0901606 0
M  V30 2778 H 268.24 2.43193 -0.849416 0
M  V30 2779 H 268.198 3.04937 0.765553 0
M  V30 2780 N 271.97 1.30982 0.876444 0
M  V30 2781 C 272.933 1.18054 1.96459 0
M  V30 2782 C 273.933 0.109399 1.60427 0
M  V30 2783 O 275.123 0.358173 1.70478 0
M  V30 2784 C 272.255 0.810616 3.31122 0
M  V30 2785 H 273.448 2.14735 2.09354 0
M  V30 2786 H 271.001 1.145 1.06392 0
M  V30 2787 H 271.736 -0.155322 3.23928 0
M  V30 2788 H 271.521 1.58481 3.58645 0
M  V30 2789 H 273.011 0.743876 4.10921 0
M  V30 2790 N 273.449 -1.08991 1.13837 0
M  V30 2791 C 274.412 -2.13925 0.822715 0
M  V30 2792 C 275.412 -1.599 -0.1699 0
M  V30 2793 O 276.602 -1.74104 0.0577251 0
M  V30 2794 C 273.734 -3.40155 0.225318 0
M  V30 2795 H 274.927 -2.43358 1.75262 0
M  V30 2796 H 272.48 -1.24603 0.943594 0
M  V30 2797 H 273.215 -3.16352 -0.713594 0
M  V30 2798 H 273 -3.80661 0.940193 0
M  V30 2799 H 274.49 -4.17594 0.0214784 0
M  V30 2800 N 274.927 -0.932562 -1.27047 0
M  V30 2801 C 276.343 -0.633544 -1.46487 0
M  V30 2802 C 276.543 0.815746 -1.84249 0
M  V30 2803 O 275.599 1.59319 -1.95892 0
M  V30 2804 C 276.912 -1.58758 -2.55375 0
M  V30 2805 C 278.46 -1.59634 -2.69232 0
M  V30 2806 C 278.935 -2.53747 -3.81283 0
M  V30 2807 N 280.426 -2.51982 -3.88664 0
M  V30 2808 C 281.161 -3.21491 -4.74796 0
M  V30 2809 N 280.657 -4.00395 -5.65381 0
M  V30 2810 N 282.45 -3.10485 -4.68568 0
M  V30 2811 H 274.601 -1.86946 -1.00821 0
M  V30 2812 H 276.864 -0.802897 -0.504044 0
M  V30 2813 H 276.57 -2.62172 -2.34432 0
M  V30 2814 H 276.444 -1.33301 -3.52861 0
M  V30 2815 H 278.831 -0.569488 -2.89553 0
M  V30 2816 H 278.912 -1.89142 -1.72218 0
M  V30 2817 H 278.556 -3.56545 -3.61715 0
M  V30 2818 H 278.486 -2.21532 -4.77735 0
M  V30 2819 H 280.977 -1.94681 -3.23895 0
M  V30 2820 H 281.29 -4.50406 -6.27976 0
M  V30 2821 H 279.635 -4.04498 -5.65161 0
M  V30 2822 H 282.826 -2.48331 -3.96799 0
M  V30 2823 H 282.999 -3.64925 -5.35475 0
M  V30 2824 N 276.405 1.4127 -0.698611 0
M  V30 2825 C 277.315 2.34573 -0.0357891 0
M  V30 2826 C 278.331 1.56393 0.762701 0
M  V30 2827 O 279.507 1.8886 0.699564 0
M  V30 2828 C 276.572 3.35159 0.887089 0
M  V30 2829 C 275.633 4.29225 0.0804634 0
M  V30 2830 C 274.866 5.25006 0.959387 0
M  V30 2831 O 275.089 5.26314 2.19886 0
M  V30 2832 O 274.023 6.00519 0.407439 0
M  V30 2833 H 277.849 2.92838 -0.804957 0
M  V30 2834 H 275.434 1.42175 -0.458966 0
M  V30 2835 H 277.316 3.9689 1.41621 0
M  V30 2836 H 275.991 2.79333 1.6357 0
M  V30 2837 H 274.898 3.70833 -0.493328 0
M  V30 2838 H 276.231 4.88157 -0.629547 0
M  V30 2839 N 277.883 0.443576 1.51229 0
M  V30 2840 C 279.294 -0.0180867 1.86691 0
M  V30 2841 C 279.645 -1.41384 1.36033 0
M  V30 2842 O 278.77 -2.04291 0.713722 0
M  V30 2843 C 279.365 -0.039597 3.38777 0
M  V30 2844 C 277.924 -0.445692 3.73752 0
M  V30 2845 C 277.071 0.357584 2.74985 0
M  V30 2846 H 280.022 0.659138 1.44364 0
M  V30 2847 H 280.043 -0.847761 3.70936 0
M  V30 2848 H 279.555 0.976382 3.75617 0
M  V30 2849 H 277.656 -1.46704 3.42503 0
M  V30 2850 H 277.769 -0.166155 4.78812 0
M  V30 2851 H 276.133 -0.184973 2.54027 0
M  V30 2852 H 276.916 1.37256 3.14668 0
M  V30 2853 N 279.361 -1.56624 0.175154 0
M  V30 2854 C 280.271 -2.21741 -0.766042 0
M  V30 2855 C 281.287 -1.21023 -1.25018 0
M  V30 2856 O 282.463 -1.53697 -1.3015 0
M  V30 2857 C 279.528 -2.84839 -1.97655 0
M  V30 2858 C 278.589 -4.00769 -1.53892 0
M  V30 2859 C 277.822 -4.60849 -2.69173 0
M  V30 2860 O 278.045 -4.19823 -3.86141 0
M  V30 2861 O 276.979 -5.50655 -2.43028 0
M  V30 2862 H 280.805 -3.02738 -0.241585 0
M  V30 2863 H 278.39 -1.49305 -0.053222 0
M  V30 2864 H 280.272 -3.24834 -2.68442 0
M  V30 2865 H 278.947 -2.06836 -2.48999 0
M  V30 2866 H 277.854 -3.65436 -0.80044 0
M  V30 2867 H 279.187 -4.80376 -1.07236 0
M  V30 2868 N 280.839 0.0985539 -1.57292 0
M  V30 2869 C 282.088 0.801358 -1.85098 0
M  V30 2870 C 282.401 1.80066 -0.763902 0
M  V30 2871 O 283.607 2.55112 -0.928981 0
M  V30 2872 C 282.063 1.47599 -3.28242 0
M  V30 2873 C 281.671 0.516624 -4.45011 0
M  V30 2874 C 283.415 2.16272 -3.65276 0
M  V30 2875 C 281.322 1.19564 -5.79188 0
M  V30 2876 H 280.252 0.303022 -0.69043 0
M  V30 2877 H 282.903 0.0542623 -1.8342 0
M  V30 2878 H 281.285 2.27042 -3.2445 0
M  V30 2879 H 282.459 -0.246065 -4.60143 0
M  V30 2880 H 280.774 -0.064227 -4.1635 0
M  V30 2881 H 283.371 2.67802 -4.62803 0
M  V30 2882 H 283.714 2.95009 -2.93727 0
M  V30 2883 H 284.247 1.43693 -3.70941 0
M  V30 2884 H 280.986 0.449157 -6.53959 0
M  V30 2885 H 280.506 1.92984 -5.67906 0
M  V30 2886 H 282.185 1.7231 -6.23633 0
M  V30 2887 N 282.317 1.53212 0.369288 0
M  V30 2888 C 283.563 1.69466 1.11397 0
M  V30 2889 C 283.896 0.443257 1.89074 0
M  V30 2890 O 283.171 -0.559386 1.86282 0
M  V30 2891 C 283.454 2.9422 2.07621 0
M  V30 2892 C 283.307 4.29508 1.33577 0
M  V30 2893 C 284.626 3.14565 3.07794 0
M  V30 2894 H 281.745 0.616667 0.403597 0
M  V30 2895 H 284.387 1.85845 0.395179 0
M  V30 2896 H 282.537 2.80387 2.68916 0
M  V30 2897 H 284.209 4.55147 0.750955 0
M  V30 2898 H 282.452 4.29088 0.637618 0
M  V30 2899 H 283.123 5.12926 2.03989 0
M  V30 2900 H 285.599 3.2756 2.56601 0
M  V30 2901 H 284.475 4.03297 3.72348 0
M  V30 2902 H 284.736 2.29675 3.77759 0
M  V30 2903 N 283.795 -0.628877 1.44509 0
M  V30 2904 C 285.072 -1.38733 1.37886 0
M  V30 2905 C 285.452 -2.11065 0.0387008 0
M  V30 2906 O 284.8 -2.06476 -0.97878 0
M  V30 2907 C 285.01 -2.35188 2.57852 0
M  V30 2908 C 286.358 -2.9845 3.02014 0
M  V30 2909 O 287.382 -2.45513 2.58073 0
M  V30 2910 O 286.241 -3.94487 3.78209 0
M  V30 2911 H 283.335 -0.621015 0.54614 0
M  V30 2912 H 285.881 -0.653744 1.56602 0
M  V30 2913 H 284.653 -1.80855 3.46998 0
M  V30 2914 H 284.276 -3.1596 2.4136 0
M  V30 2915 N 285.273 -1.31445 -0.869486 0
M  V30 2916 C 286.501 -1.24122 -1.65534 0
M  V30 2917 C 286.916 0.193387 -1.87807 0
M  V30 2918 O 286.273 1.12557 -1.43656 0
M  V30 2919 C 286.324 -1.98229 -3.02304 0
M  V30 2920 O 286.045 -3.3609 -2.81026 0
M  V30 2921 C 287.546 -1.97751 -3.96749 0
M  V30 2922 H 284.766 -0.428868 -0.516055 0
M  V30 2923 H 287.31 -1.73328 -1.08525 0
M  V30 2924 H 285.465 -1.52782 -3.56001 0
M  V30 2925 H 285.879 -3.7383 -3.67902 0
M  V30 2926 H 287.353 -2.54114 -4.90031 0
M  V30 2927 H 287.83 -0.960137 -4.28577 0
M  V30 2928 H 288.436 -2.43079 -3.48988 0
M  V30 2929 N 286.751 1.08385 -1.14413 0
M  V30 2930 C 287.714 2.13486 -0.834048 0
M  V30 2931 C 288.714 1.59988 0.161418 0
M  V30 2932 O 289.904 1.74071 -0.0669575 0
M  V30 2933 C 287.036 3.4003 -0.243354 0
M  V30 2934 H 288.229 2.42425 -1.7655 0
M  V30 2935 H 285.782 1.24101 -0.950189 0
M  V30 2936 H 286.517 3.16726 0.696807 0
M  V30 2937 H 286.302 3.80157 -0.960367 0
M  V30 2938 H 287.792 4.17577 -0.0436242 0
M  V30 2939 N 288.23 0.939286 1.26551 0
M  V30 2940 C 289.178 0.43815 2.28436 0
M  V30 2941 C 290.172 -0.483587 1.62351 0
M  V30 2942 O 291.378 -0.362009 1.76322 0
M  V30 2943 H 287.753 0.123149 0.741848 0
M  V30 2944 H 289.724 1.31002 2.68106 0
M  V30 2945 C 288.473 -0.283052 3.46546 0
M  V30 2946 H 287.796 0.417043 3.97619 0
M  V30 2947 H 289.236 -0.597948 4.19763 0
M  V30 2948 C 287.695 -1.50018 3.01656 0
M  V30 2949 O 288.225 -2.59855 3.0633 0
M  V30 2950 N 286.431 -1.35608 2.57019 0
M  V30 2951 H 285.978 -0.46244 2.53415 0
M  V30 2952 H 285.936 -2.17165 2.27347 0
M  V30 2953 N 289.708 -1.40897 0.706093 0
M  V30 2954 C 290.955 -2.01054 0.241531 0
M  V30 2955 C 291.283 -1.55956 -1.16223 0
M  V30 2956 O 290.538 -0.766336 -1.80072 0
M  V30 2957 C 290.837 -3.5646 0.259099 0
M  V30 2958 C 290.503 -4.21106 1.61184 0
M  V30 2959 C 289.165 -4.38479 1.98216 0
M  V30 2960 C 291.517 -4.57256 2.50132 0
M  V30 2961 C 288.845 -4.89282 3.2376 0
M  V30 2962 C 291.197 -5.09454 3.7502 0
M  V30 2963 C 289.861 -5.25037 4.12181 0
M  V30 2964 H 289.131 -0.73571 0.0883825 0
M  V30 2965 H 291.778 -1.68645 0.907257 0
M  V30 2966 H 290.083 -3.88721 -0.490189 0
M  V30 2967 H 291.78 -4.00826 -0.11804 0
M  V30 2968 H 288.37 -4.07966 1.31384 0
M  V30 2969 H 292.554 -4.43479 2.228 0
M  V30 2970 H 287.81 -4.99531 3.52532 0
M  V30 2971 H 291.984 -5.36404 4.44121 0
M  V30 2972 H 289.611 -5.64164 5.09532 0
M  V30 2973 N 291.186 -0.45159 -1.50991 0
M  V30 2974 C 292.116 0.342898 -2.30969 0
M  V30 2975 C 293.097 1.00815 -1.37005 0
M  V30 2976 O 294.282 1.00907 -1.65926 0
M  V30 2977 C 291.412 1.43637 -3.16205 0
M  V30 2978 C 290.366 0.893818 -4.18563 0
M  V30 2979 C 289.692 2.08411 -4.92411 0
M  V30 2980 C 290.992 -0.0815568 -5.22236 0
M  V30 2981 H 292.686 -0.324556 -2.97636 0
M  V30 2982 H 290.232 -0.157531 -1.43136 0
M  V30 2983 H 292.185 1.9995 -3.70942 0
M  V30 2984 H 290.909 2.13232 -2.47386 0
M  V30 2985 H 289.568 0.352798 -3.64898 0
M  V30 2986 H 289.216 2.76658 -4.20082 0
M  V30 2987 H 288.916 1.72741 -5.61636 0
M  V30 2988 H 290.44 2.65251 -5.49976 0
M  V30 2989 H 291.854 0.391742 -5.7196 0
M  V30 2990 H 290.251 -0.351551 -5.99069 0
M  V30 2991 H 291.321 -1.01374 -4.74185 0
M  V30 2992 N 292.664 1.56529 -0.183458 0
M  V30 2993 C 293.913 1.96419 0.458511 0
M  V30 2994 C 294.226 1.0727 1.63562 0
M  V30 2995 O 295.432 1.36893 2.34462 0
M  V30 2996 C 293.888 3.49298 0.867122 0
M  V30 2997 C 293.496 4.47092 -0.285057 0
M  V30 2998 C 295.24 3.97983 1.47683 0
M  V30 2999 C 293.147 5.91225 0.143862 0
M  V30 3000 H 292.077 0.733394 0.175071 0
M  V30 3001 H 294.728 1.81448 -0.273624 0
M  V30 3002 H 293.11 3.59731 1.65559 0
M  V30 3003 H 294.284 4.48383 -1.0625 0
M  V30 3004 H 292.599 4.08535 -0.805503 0
M  V30 3005 H 295.196 5.03134 1.80999 0
M  V30 3006 H 295.539 3.41618 2.37914 0
M  V30 3007 H 296.072 3.90617 0.752562 0
M  V30 3008 H 292.811 6.5149 -0.723974 0
M  V30 3009 H 292.331 5.93214 0.886413 0
M  V30 3010 H 294.01 6.44362 0.583628 0
M  V30 3011 N 294.142 -0.090211 1.57342 0
M  V30 3012 C 295.37 -0.806224 1.90546 0
M  V30 3013 C 295.785 -1.72041 0.777644 0
M  V30 3014 O 295.142 -1.80778 -0.250103 0
M  V30 3015 C 295.193 -1.61546 3.23396 0
M  V30 3016 O 294.914 -0.738043 4.31839 0
M  V30 3017 C 296.415 -2.4341 3.70495 0
M  V30 3018 H 293.635 -0.230256 0.630257 0
M  V30 3019 H 296.179 -0.0659843 2.04394 0
M  V30 3020 H 294.334 -2.30816 3.11131 0
M  V30 3021 H 294.748 -1.29901 5.08159 0
M  V30 3022 H 296.222 -2.95676 4.66133 0
M  V30 3023 H 296.699 -3.22098 2.98579 0
M  V30 3024 H 297.305 -1.79331 3.85643 0
M  V30 3025 N 295.62 -1.53406 -0.361157 0
M  V30 3026 C 296.55 -1.83136 -1.44857 0
M  V30 3027 C 297.531 -0.685174 -1.5569 0
M  V30 3028 O 298.716 -0.93544 -1.70186 0
M  V30 3029 C 295.846 -2.02522 -2.82138 0
M  V30 3030 C 294.8 -3.18302 -2.86126 0
M  V30 3031 C 294.126 -3.22989 -4.26125 0
M  V30 3032 C 295.426 -4.56796 -2.53248 0
M  V30 3033 H 297.12 -2.74201 -1.20226 0
M  V30 3034 H 294.666 -1.31938 -0.576922 0
M  V30 3035 H 296.619 -2.21904 -3.58241 0
M  V30 3036 H 295.343 -1.08172 -3.08166 0
M  V30 3037 H 294.002 -2.98747 -2.12475 0
M  V30 3038 H 293.65 -2.26267 -4.49235 0
M  V30 3039 H 293.35 -4.00781 -4.29708 0
M  V30 3040 H 294.874 -3.44559 -5.04094 0
M  V30 3041 H 296.288 -4.7631 -3.19064 0
M  V30 3042 H 294.685 -5.36862 -2.68141 0
M  V30 3043 H 295.755 -4.61606 -1.48484 0
M  V30 3044 N 297.098 0.621204 -1.44841 0
M  V30 3045 C 298.346 1.37783 -1.47852 0
M  V30 3046 C 298.667 1.94653 -0.116224 0
M  V30 3047 O 297.937 1.76367 0.852737 0
M  V30 3048 H 296.517 0.511453 -0.544449 0
M  V30 3049 H 299.179 0.730446 -1.80694 0
M  V30 3050 H 298.275 2.20414 -2.20961 0
M  V30 3051 N 298.576 1.31904 0.862503 0
M  V30 3052 C 299.539 1.20131 1.95195 0
M  V30 3053 C 300.539 0.126409 1.60302 0
M  V30 3054 O 301.729 0.376234 1.70089 0
M  V30 3055 C 298.861 0.845691 3.30244 0
M  V30 3056 H 300.054 2.16943 2.07064 0
M  V30 3057 H 297.607 1.15622 1.05172 0
M  V30 3058 H 298.342 -0.120957 3.24074 0
M  V30 3059 H 298.127 1.62276 3.56944 0
M  V30 3060 H 299.617 0.787418 4.10109 0
M  V30 3061 N 300.054 -1.07777 1.14986 0
M  V30 3062 C 301.001 -2.14867 0.842672 0
M  V30 3063 C 301.971 -1.6486 -0.202552 0
M  V30 3064 O 303.156 -1.90668 -0.0710568 0
M  V30 3065 C 300.296 -3.43486 0.333363 0
M  V30 3066 C 299.409 -4.07306 1.43965 0
M  V30 3067 C 298.544 -5.23744 0.886914 0
M  V30 3068 C 297.583 -5.79517 1.97043 0
M  V30 3069 N 296.72 -6.87291 1.4344 0
M  V30 3070 H 301.56 -2.40485 1.75986 0
M  V30 3071 H 299.097 -1.1801 0.878179 0
M  V30 3072 H 301.055 -4.17195 0.0198163 0
M  V30 3073 H 299.685 -3.18133 -0.546916 0
M  V30 3074 H 298.737 -3.31293 1.86946 0
M  V30 3075 H 300.049 -4.44771 2.25788 0
M  V30 3076 H 299.203 -6.04419 0.525651 0
M  V30 3077 H 297.942 -4.87685 0.0377957 0
M  V30 3078 H 296.947 -4.97491 2.34057 0
M  V30 3079 H 298.172 -6.17632 2.82325 0
M  V30 3080 H 296.118 -6.5318 0.607567 0
M  V30 3081 H 296.035 -7.23617 2.18895 0
M  V30 3082 H 297.303 -7.71682 1.10124 0
M  V30 3083 N 301.532 -0.945985 -1.26051 0
M  V30 3084 C 302.781 -0.591836 -1.92822 0
M  V30 3085 C 303.094 0.873956 -1.7499 0
M  V30 3086 O 304.3 1.33769 -2.36259 0
M  V30 3087 C 302.756 -1.00776 -3.45503 0
M  V30 3088 C 302.364 -2.4955 -3.7206 0
M  V30 3089 C 304.108 -0.725735 -4.1825 0
M  V30 3090 C 302.015 -2.84988 -5.18205 0
M  V30 3091 H 300.945 -0.217635 -0.721908 0
M  V30 3092 H 303.596 -1.14927 -1.43052 0
M  V30 3093 H 301.978 -0.378812 -3.94184 0
M  V30 3094 H 303.152 -3.1739 -3.34066 0
M  V30 3095 H 301.467 -2.75133 -3.12555 0
M  V30 3096 H 304.064 -0.966771 -5.25887 0
M  V30 3097 H 304.407 0.337639 -4.14929 0
M  V30 3098 H 304.94 -1.31463 -3.7545 0
M  V30 3099 H 301.679 -3.90307 -5.26631 0
M  V30 3100 H 301.199 -2.21813 -5.57278 0
M  V30 3101 H 302.878 -2.73712 -5.86252 0
M  V30 3102 N 303.011 1.40521 -0.713556 0
M  V30 3103 C 304.236 2.05759 -0.26035 0
M  V30 3104 C 304.661 1.53403 1.08854 0
M  V30 3105 O 304.019 0.668535 1.68524 0
M  V30 3106 C 304.067 3.59745 -0.248122 0
M  V30 3107 O 303.171 4.05123 0.77131 0
M  V30 3108 H 302.512 0.652564 -0.122703 0
M  V30 3109 H 305.042 1.79958 -0.973467 0
M  V30 3110 H 305.052 4.07911 -0.0851129 0
M  V30 3111 H 303.727 3.97218 -1.2325 0
M  V30 3112 H 302.304 3.68422 0.57619 0
M  V30 3113 N 304.489 0.459591 1.5075 0
M  V30 3114 C 305.737 -0.0991532 2.01857 0
M  V30 3115 C 306.058 -1.41247 1.34441 0
M  V30 3116 O 305.328 -1.89775 0.486022 0
M  V30 3117 H 303.908 -0.039633 0.745948 0
M  V30 3118 H 306.57 0.607387 1.85194 0
M  V30 3119 H 305.666 -0.258998 3.11023 0
M  V30 3120 N 305.967 -1.56429 0.191757 0
M  V30 3121 C 306.899 -2.16154 -0.762245 0
M  V30 3122 C 307.912 -1.12247 -1.17917 0
M  V30 3123 O 309.101 -1.39353 -1.11548 0
M  V30 3124 C 306.201 -2.70606 -2.04024 0
M  V30 3125 C 305.374 -3.99381 -1.78364 0
M  V30 3126 C 304.433 -4.38692 -2.90578 0
M  V30 3127 O 303.459 -5.06179 -2.6033 0
M  V30 3128 N 304.661 -4.01922 -4.18854 0
M  V30 3129 H 307.426 -2.98643 -0.251526 0
M  V30 3130 H 304.987 -1.61897 0.00967373 0
M  V30 3131 H 306.979 -2.93891 -2.78227 0
M  V30 3132 H 305.549 -1.9259 -2.46227 0
M  V30 3133 H 304.769 -3.84262 -0.879581 0
M  V30 3134 H 306.057 -4.83445 -1.58614 0
M  V30 3135 H 305.455 -3.47631 -4.46283 0
M  V30 3136 H 304.012 -4.30165 -4.89695 0
M  V30 3137 N 307.445 0.0818655 -1.57387 0
M  V30 3138 C 308.693 0.781368 -1.86384 0
M  V30 3139 C 309.014 1.78618 -0.782342 0
M  V30 3140 O 308.284 1.94976 0.190061 0
M  V30 3141 H 306.864 0.291562 -0.687751 0
M  V30 3142 H 309.526 0.060348 -1.94807 0
M  V30 3143 H 308.622 1.3038 -2.83562 0
M  V30 3144 N 308.923 1.53595 0.353017 0
M  V30 3145 C 310.151 1.74311 1.1146 0
M  V30 3146 C 310.566 0.477854 1.82653 0
M  V30 3147 O 309.923 -0.549977 1.74016 0
M  V30 3148 C 309.974 2.91694 2.13534 0
M  V30 3149 O 309.695 4.13325 1.45238 0
M  V30 3150 C 311.196 3.24384 3.02142 0
M  V30 3151 H 308.416 0.582669 0.332773 0
M  V30 3152 H 310.96 2.00386 0.408107 0
M  V30 3153 H 309.115 2.67977 2.79763 0
M  V30 3154 H 309.529 4.79148 2.13349 0
M  V30 3155 H 311.003 4.09893 3.69718 0
M  V30 3156 H 311.48 2.40282 3.67643 0
M  V30 3157 H 312.086 3.50073 2.41514 0
M  V30 3158 N 310.401 -0.613514 1.45168 0
M  V30 3159 C 311.678 -1.37263 1.39349 0
M  V30 3160 C 312.058 -2.11012 0.0610848 0
M  V30 3161 O 311.406 -2.07502 -0.956825 0
M  V30 3162 C 311.616 -2.3244 2.60332 0
M  V30 3163 C 312.964 -2.9523 3.05163 0
M  V30 3164 O 313.988 -2.42762 2.60663 0
M  V30 3165 O 312.847 -3.90454 3.82372 0
M  V30 3166 H 309.941 -0.615188 0.552696 0
M  V30 3167 H 312.487 -0.637097 1.57287 0
M  V30 3168 H 311.259 -1.77164 3.48896 0
M  V30 3169 H 310.882 -3.13383 2.44698 0
M  V30 3170 N 311.879 -1.3236 -0.855495 0
M  V30 3171 C 313.295 -1.11332 -1.14356 0
M  V30 3172 C 313.495 0.106751 -2.01217 0
M  V30 3173 O 312.551 0.791891 -2.39761 0
M  V30 3174 C 313.864 -2.39237 -1.82171 0
M  V30 3175 C 315.412 -2.44986 -1.9481 0
M  V30 3176 C 315.887 -3.7281 -2.66039 0
M  V30 3177 N 317.378 -3.73787 -2.73565 0
M  V30 3178 C 318.113 -4.69394 -3.29327 0
M  V30 3179 N 317.609 -5.75367 -3.85907 0
M  V30 3180 N 319.402 -4.56893 -3.27423 0
M  V30 3181 H 311.553 -2.10586 -0.277027 0
M  V30 3182 H 313.816 -0.929701 -0.185364 0
M  V30 3183 H 313.522 -3.28431 -1.25802 0
M  V30 3184 H 313.396 -2.50134 -2.82335 0
M  V30 3185 H 315.783 -1.56252 -2.50338 0
M  V30 3186 H 315.864 -2.38043 -0.936448 0
M  V30 3187 H 315.508 -4.61918 -2.11174 0
M  V30 3188 H 315.438 -3.77024 -3.67642 0
M  V30 3189 H 317.929 -2.97189 -2.33424 0
M  V30 3190 H 318.242 -6.44378 -4.26611 0
M  V30 3191 H 316.587 -5.79123 -3.84242 0
M  V30 3192 H 319.778 -3.73269 -2.82467 0
M  V30 3193 H 319.951 -5.31577 -3.7058 0
M  V30 3194 N 313.357 1.07166 -1.15556 0
M  V30 3195 C 314.606 1.79181 -0.926132 0
M  V30 3196 C 314.919 1.87768 0.547967 0
M  V30 3197 O 316.125 2.56323 0.895036 0
M  V30 3198 C 314.581 3.22 -1.60761 0
M  V30 3199 C 314.189 3.21607 -3.11886 0
M  V30 3200 C 315.933 3.9861 -1.4598 0
M  V30 3201 C 313.84 4.59092 -3.72812 0
M  V30 3202 H 312.77 0.67154 -0.342856 0
M  V30 3203 H 315.421 1.2027 -1.3859 0
M  V30 3204 H 313.803 3.81115 -1.07553 0
M  V30 3205 H 314.977 2.72127 -3.71865 0
M  V30 3206 H 313.292 2.58495 -3.2645 0
M  V30 3207 H 315.889 5.00225 -1.88888 0
M  V30 3208 H 316.232 4.143 -0.407541 0
M  V30 3209 H 316.765 3.45996 -1.96295 0
M  V30 3210 H 313.504 4.48606 -4.77946 0
M  V30 3211 H 313.024 5.08803 -3.17616 0
M  V30 3212 H 314.703 5.28059 -3.73848 0
M  V30 3213 N 314.835 0.952656 1.25548 0
M  V30 3214 C 316.081 0.607272 1.93494 0
M  V30 3215 C 316.414 -0.853245 1.74452 0
M  V30 3216 O 315.689 -1.61194 1.08843 0
M  V30 3217 C 315.972 0.96435 3.46947 0
M  V30 3218 C 315.825 2.48045 3.75225 0
M  V30 3219 C 317.144 0.487987 4.37386 0
M  V30 3220 H 314.263 0.222096 0.702739 0
M  V30 3221 H 316.905 1.18895 1.48203 0
M  V30 3222 H 315.055 0.469361 3.85654 0
M  V30 3223 H 316.727 3.04905 3.46166 0
M  V30 3224 H 314.97 2.919 3.209 0
M  V30 3225 H 315.641 2.6808 4.82532 0
M  V30 3226 H 318.117 0.912558 4.0597 0
M  V30 3227 H 316.993 0.766547 5.43521 0
M  V30 3228 H 317.254 -0.612063 4.37843 0
M  V30 3229 N 316.313 -1.40141 0.720998 0
M  V30 3230 C 317.562 -2.0002 0.259804 0
M  V30 3231 C 317.875 -1.57839 -1.15526 0
M  V30 3232 O 319.081 -2.10455 -1.71525 0
M  V30 3233 C 317.537 -3.57516 0.413566 0
M  V30 3234 C 317.145 -4.08667 1.83562 0
M  V30 3235 C 318.889 -4.24498 0.0134387 0
M  V30 3236 C 316.796 -5.58686 1.93968 0
M  V30 3237 H 315.726 -0.748195 0.0933806 0
M  V30 3238 H 318.377 -1.60313 0.892866 0
M  V30 3239 H 316.759 -3.9495 -0.288169 0
M  V30 3240 H 317.933 -3.82598 2.56817 0
M  V30 3241 H 316.248 -3.543 2.1877 0
M  V30 3242 H 318.845 -5.34654 0.0703954 0
M  V30 3243 H 319.188 -4.03375 -1.02927 0
M  V30 3244 H 319.721 -3.92188 0.665815 0
M  V30 3245 H 316.46 -5.8467 2.96379 0
M  V30 3246 H 315.98 -5.86602 1.25131 0
M  V30 3247 H 317.659 -6.23875 1.71431 0
M  V30 3248 N 317.792 -0.46758 -1.50504 0
M  V30 3249 C 318.702 0.33382 -2.32213 0
M  V30 3250 C 319.718 0.999323 -1.42441 0
M  V30 3251 O 320.894 0.988068 -1.75497 0
M  V30 3252 C 317.959 1.4035 -3.17022 0
M  V30 3253 C 317.02 0.754961 -4.2261 0
M  V30 3254 C 316.253 1.77367 -5.03365 0
M  V30 3255 O 316.476 2.99976 -4.8515 0
M  V30 3256 O 315.41 1.34744 -5.86624 0
M  V30 3257 H 319.236 -0.334067 -3.01857 0
M  V30 3258 H 316.821 -0.229496 -1.47627 0
M  V30 3259 H 318.703 2.02318 -3.69656 0
M  V30 3260 H 317.378 2.05492 -2.5011 0
M  V30 3261 H 316.285 0.0964244 -3.73976 0
M  V30 3262 H 317.618 0.146545 -4.91982 0
M  V30 3263 N 319.27 1.56325 -0.20005 0
M  V30 3264 C 320.518 1.97329 0.436547 0
M  V30 3265 C 320.839 1.08826 1.61808 0
M  V30 3266 O 320.109 0.160604 1.95241 0
M  V30 3267 H 318.689 0.728714 0.164272 0
M  V30 3268 H 321.351 1.92761 -0.287937 0
M  V30 3269 H 320.447 3.02264 0.777353 0
M  V30 3270 N 320.748 -0.0735177 1.57428 0
M  V30 3271 C 321.994 -0.774145 1.87443 0
M  V30 3272 C 322.327 -1.77311 0.792103 0
M  V30 3273 O 321.602 -1.93492 -0.197793 0
M  V30 3274 C 321.885 -1.48367 3.28115 0
M  V30 3275 C 321.738 -0.501227 4.46999 0
M  V30 3276 C 323.057 -2.429 3.66998 0
M  V30 3277 H 320.176 -0.279971 0.681752 0
M  V30 3278 H 322.818 -0.0373616 1.89963 0
M  V30 3279 H 320.968 -2.11171 3.26097 0
M  V30 3280 H 322.64 0.121468 4.6114 0
M  V30 3281 H 320.883 0.183593 4.33411 0
M  V30 3282 H 321.554 -1.03526 5.42205 0
M  V30 3283 H 324.03 -1.90175 3.70098 0
M  V30 3284 H 322.906 -2.89549 4.66318 0
M  V30 3285 H 323.167 -3.27628 2.96837 0
M  V30 3286 N 322.226 -1.5378 -0.344866 0
M  V30 3287 C 323.136 -1.84667 -1.4469 0
M  V30 3288 C 324.152 -0.736704 -1.57635 0
M  V30 3289 O 325.328 -1.02888 -1.73136 0
M  V30 3290 C 322.393 -2.04869 -2.79696 0
M  V30 3291 C 321.454 -3.28731 -2.76106 0
M  V30 3292 C 320.687 -3.4796 -4.04673 0
M  V30 3293 O 320.91 -2.71052 -5.01883 0
M  V30 3294 O 319.844 -4.41383 -4.09224 0
M  V30 3295 H 323.67 -2.78334 -1.21506 0
M  V30 3296 H 321.255 -1.39418 -0.536921 0
M  V30 3297 H 323.137 -2.19609 -3.59652 0
M  V30 3298 H 321.812 -1.14391 -3.02814 0
M  V30 3299 H 320.719 -3.19396 -1.94774 0
M  V30 3300 H 322.052 -4.19198 -2.57941 0
M  V30 3301 N 323.704 0.605807 -1.45491 0
M  V30 3302 C 325.12 0.926751 -1.29936 0
M  V30 3303 C 325.32 1.99896 -0.253706 0
M  V30 3304 O 324.376 2.50038 0.351737 0
M  V30 3305 C 325.689 1.36599 -2.67883 0
M  V30 3306 C 327.237 1.4801 -2.75793 0
M  V30 3307 C 327.712 1.95309 -4.14268 0
M  V30 3308 N 329.203 2.0254 -4.16571 0
M  V30 3309 C 329.938 2.40363 -5.20589 0
M  V30 3310 N 329.434 2.77143 -6.34952 0
M  V30 3311 N 331.227 2.40718 -5.07948 0
M  V30 3312 H 323.378 -0.102862 -2.12151 0
M  V30 3313 H 325.641 0.016639 -0.947854 0
M  V30 3314 H 325.347 0.652306 -3.45598 0
M  V30 3315 H 325.221 2.33215 -2.96463 0
M  V30 3316 H 327.608 2.1847 -1.98381 0
M  V30 3317 H 327.689 0.497041 -2.50925 0
M  V30 3318 H 327.333 1.25436 -4.92167 0
M  V30 3319 H 327.263 2.94532 -4.3653 0
M  V30 3320 H 329.754 1.76699 -3.34045 0
M  V30 3321 H 330.067 3.0489 -7.10114 0
M  V30 3322 H 328.412 2.74834 -6.3835 0
M  V30 3323 H 331.603 2.11392 -4.1765 0
M  V30 3324 H 331.776 2.69869 -5.89131 0
M  V30 3325 N 325.182 1.32811 0.848464 0
M  V30 3326 C 326.112 1.24882 1.97299 0
M  V30 3327 C 327.093 0.131357 1.69592 0
M  V30 3328 O 328.278 0.319553 1.91553 0
M  V30 3329 C 325.408 0.97746 3.33261 0
M  V30 3330 C 324.362 2.05682 3.75338 0
M  V30 3331 C 323.688 1.63777 5.09 0
M  V30 3332 C 324.988 3.47254 3.90144 0
M  V30 3333 H 326.682 2.18966 2.04191 0
M  V30 3334 H 324.228 1.05413 0.981029 0
M  V30 3335 H 326.181 0.908513 4.1149 0
M  V30 3336 H 324.905 0.000980011 3.266 0
M  V30 3337 H 323.564 2.11603 2.99366 0
M  V30 3338 H 323.212 0.648569 4.98801 0
M  V30 3339 H 322.912 2.36 5.38124 0
M  V30 3340 H 324.436 1.5833 5.89715 0
M  V30 3341 H 325.85 3.43888 4.58709 0
M  V30 3342 H 324.247 4.1788 4.30693 0
M  V30 3343 H 325.317 3.86462 2.92874 0
M  V30 3344 N 326.66 -1.06551 1.16123 0
M  V30 3345 C 327.908 -1.78947 0.939267 0
M  V30 3346 C 328.229 -1.87532 -0.534476 0
M  V30 3347 O 327.499 -1.38211 -1.38833 0
M  V30 3348 H 326.079 -0.662807 0.344523 0
M  V30 3349 H 328.741 -1.28725 1.46342 0
M  V30 3350 H 327.837 -2.81117 1.35572 0
M  V30 3351 N 328.138 -0.959301 -1.25041 0
M  V30 3352 C 329.386 -0.615393 -1.92503 0
M  V30 3353 C 329.707 0.850969 -1.75452 0
M  V30 3354 O 328.977 1.60658 -1.12098 0
M  V30 3355 H 327.557 -0.224613 -0.712431 0
M  V30 3356 H 330.219 -1.21855 -1.5211 0
M  V30 3357 H 329.315 -0.848738 -3.00338 0
M  V30 3358 N 329.616 1.39756 -0.72842 0
M  V30 3359 C 330.864 2.00248 -0.272946 0
M  V30 3360 C 331.185 1.58077 1.14178 0
M  V30 3361 O 330.455 0.826014 1.77634 0
M  V30 3362 H 329.035 0.740554 -0.0979247 0
M  V30 3363 H 331.697 1.70903 -0.936912 0
M  V30 3364 H 330.793 3.10495 -0.316142 0
M  V30 3365 N 331.094 0.475555 1.50254 0
M  V30 3366 C 332.34 -0.0780073 2.0265 0
M  V30 3367 C 332.673 -1.38968 1.35652 0
M  V30 3368 O 331.948 -1.8839 0.483691 0
M  V30 3369 C 332.231 -0.257161 3.59181 0
M  V30 3370 C 332.084 1.07585 4.36744 0
M  V30 3371 C 333.403 -1.00965 4.28362 0
M  V30 3372 H 330.522 -0.0268758 0.73651 0
M  V30 3373 H 333.164 0.622015 1.7953 0
M  V30 3374 H 331.314 -0.853412 3.79011 0
M  V30 3375 H 332.986 1.70902 4.28474 0
M  V30 3376 H 331.229 1.6714 4.00308 0
M  V30 3377 H 331.9 0.904088 5.44546 0
M  V30 3378 H 334.376 -0.504214 4.13034 0
M  V30 3379 H 333.252 -1.10381 5.37687 0
M  V30 3380 H 333.513 -2.04731 3.91839 0
M  V30 3381 N 332.573 -1.56217 0.208337 0
M  V30 3382 C 333.803 -2.02043 -0.431523 0
M  V30 3383 C 334.211 -1.08755 -1.54819 0
M  V30 3384 O 333.554 -0.0870009 -1.83494 0
M  V30 3385 C 333.616 -3.44239 -1.03633 0
M  V30 3386 C 333.28 -4.56965 -0.0567502 0
M  V30 3387 C 334.277 -5.14624 0.738773 0
M  V30 3388 C 331.962 -5.02266 0.0581736 0
M  V30 3389 C 333.956 -6.16045 1.63605 0
M  V30 3390 C 331.643 -6.03528 0.959001 0
M  V30 3391 C 332.641 -6.60293 1.7465 0
M  V30 3392 O 332.329 -7.59586 2.6322 0
M  V30 3393 H 332.061 -0.666772 -0.111313 0
M  V30 3394 H 334.615 -2.02919 0.318277 0
M  V30 3395 H 332.845 -3.40391 -1.83497 0
M  V30 3396 H 334.534 -3.73793 -1.58221 0
M  V30 3397 H 335.3 -4.80483 0.660364 0
M  V30 3398 H 331.179 -4.57771 -0.544633 0
M  V30 3399 H 334.723 -6.60279 2.25116 0
M  V30 3400 H 330.62 -6.37092 1.03848 0
M  V30 3401 H 331.388 -7.77057 2.57148 0
M  V30 3402 N 334.051 0.0651679 -1.57465 0
M  V30 3403 C 335.467 0.420105 -1.53972 0
M  V30 3404 C 335.667 1.78782 -0.929474 0
M  V30 3405 O 334.723 2.46771 -0.534839 0
M  V30 3406 C 336.036 0.355084 -2.98596 0
M  V30 3407 C 337.584 0.434792 -3.09965 0
M  V30 3408 C 338.059 0.399609 -4.56253 0
M  V30 3409 N 339.55 0.459488 -4.60915 0
M  V30 3410 C 340.285 0.454584 -5.71595 0
M  V30 3411 N 339.781 0.404102 -6.9162 0
M  V30 3412 N 341.574 0.501635 -5.59857 0
M  V30 3413 H 333.725 -0.830328 -1.95498 0
M  V30 3414 H 335.988 -0.312244 -0.895102 0
M  V30 3415 H 335.694 -0.583357 -3.46828 0
M  V30 3416 H 335.568 1.16275 -3.58831 0
M  V30 3417 H 337.955 1.36366 -2.61703 0
M  V30 3418 H 338.036 -0.40157 -2.52628 0
M  V30 3419 H 337.68 -0.525436 -5.05175 0
M  V30 3420 H 337.61 1.25359 -5.11461 0
M  V30 3421 H 340.101 0.502482 -3.74544 0
M  V30 3422 H 340.414 0.404468 -7.71741 0
M  V30 3423 H 338.759 0.37069 -6.94011 0
M  V30 3424 H 341.95 0.538812 -4.64989 0
M  V30 3425 H 342.123 0.494345 -6.46112 0
M  V30 3426 N 335.529 1.53961 0.336706 0
M  V30 3427 C 336.775 1.7179 1.07777 0
M  V30 3428 C 337.108 0.483263 1.88091 0
M  V30 3429 O 336.383 -0.519747 1.87427 0
M  V30 3430 C 336.666 2.98558 2.01334 0
M  V30 3431 C 336.519 4.32245 1.24437 0
M  V30 3432 C 337.838 3.21023 3.01052 0
M  V30 3433 H 334.957 0.625089 0.390426 0
M  V30 3434 H 337.599 1.86641 0.35567 0
M  V30 3435 H 335.749 2.86028 2.62908 0
M  V30 3436 H 337.421 4.56637 0.654243 0
M  V30 3437 H 335.664 4.30344 0.546458 0
M  V30 3438 H 336.335 5.17137 1.93063 0
M  V30 3439 H 338.811 3.32929 2.49595 0
M  V30 3440 H 337.687 4.11104 3.6371 0
M  V30 3441 H 337.948 2.37637 3.72802 0
M  V30 3442 N 337.007 -0.598083 1.45811 0
M  V30 3443 C 337.937 -1.71873 1.58057 0
M  V30 3444 C 338.918 -1.64533 0.431615 0
M  V30 3445 O 340.103 -1.82787 0.65595 0
M  V30 3446 C 337.233 -3.10495 1.55597 0
M  V30 3447 C 336.187 -3.32654 2.69305 0
M  V30 3448 C 335.513 -4.71646 2.51902 0
M  V30 3449 C 336.813 -3.21981 4.11248 0
M  V30 3450 H 338.507 -1.61881 2.51863 0
M  V30 3451 H 336.053 -0.777372 1.21214 0
M  V30 3452 H 338.006 -3.88699 1.6276 0
M  V30 3453 H 336.73 -3.2135 0.583255 0
M  V30 3454 H 335.389 -2.56843 2.61586 0
M  V30 3455 H 335.037 -4.79246 1.52748 0
M  V30 3456 H 334.737 -4.87426 3.2816 0
M  V30 3457 H 336.261 -5.52038 2.60933 0
M  V30 3458 H 337.675 -3.90049 4.20161 0
M  V30 3459 H 336.072 -3.49289 4.87972 0
M  V30 3460 H 337.142 -2.1928 4.32486 0
M  V30 3461 N 338.485 -1.33259 -0.841409 0
M  V30 3462 C 339.896 -1.22066 -1.41269 0
M  V30 3463 C 340.247 0.161479 -1.95534 0
M  V30 3464 O 339.372 1.06094 -1.88608 0
M  V30 3465 C 339.967 -2.20996 -2.568 0
M  V30 3466 C 338.526 -2.13649 -3.09888 0
M  V30 3467 C 337.673 -2.08623 -1.82679 0
M  V30 3468 H 340.624 -1.44895 -0.647395 0
M  V30 3469 H 340.645 -1.81621 -3.34356 0
M  V30 3470 H 340.157 -3.2158 -2.17274 0
M  V30 3471 H 338.258 -1.16359 -3.53965 0
M  V30 3472 H 338.371 -3.04079 -3.70234 0
M  V30 3473 H 336.735 -1.54061 -2.02824 0
M  V30 3474 H 337.518 -3.1101 -1.45353 0
M  V30 3475 N 339.963 1.05934 -1.16686 0
M  V30 3476 C 341.24 1.75643 -0.860747 0
M  V30 3477 C 341.62 2.01144 0.640641 0
M  V30 3478 O 340.968 1.64147 1.58959 0
M  V30 3479 C 341.178 3.05493 -1.68745 0
M  V30 3480 C 342.526 3.79581 -1.90271 0
M  V30 3481 O 343.55 3.15344 -1.65641 0
M  V30 3482 O 342.409 4.9499 -2.31618 0
M  V30 3483 H 339.503 0.763426 -0.317977 0
M  V30 3484 H 342.049 1.1217 -1.27342 0
M  V30 3485 H 340.821 2.8264 -2.70611 0
M  V30 3486 H 340.444 3.76702 -1.27206 0
M  V30 3487 N 341.441 0.965919 1.2453 0
M  V30 3488 C 342.857 0.67216 1.44756 0
M  V30 3489 C 343.057 -0.766609 1.86347 0
M  V30 3490 O 342.113 -1.5407 2.00047 0
M  V30 3491 C 343.426 1.65473 2.51076 0
M  V30 3492 C 344.974 1.66716 2.64905 0
M  V30 3493 C 345.449 2.63766 3.74421 0
M  V30 3494 N 346.94 2.62198 3.81846 0
M  V30 3495 C 347.675 3.33966 4.66106 0
M  V30 3496 N 347.171 4.15245 5.54566 0
M  V30 3497 N 348.964 3.22799 4.60171 0
M  V30 3498 H 341.115 1.89553 0.958293 0
M  V30 3499 H 343.378 0.815979 0.482579 0
M  V30 3500 H 343.084 2.68296 2.27399 0
M  V30 3501 H 342.958 1.4261 3.49202 0
M  V30 3502 H 345.345 0.646057 2.87941 0
M  V30 3503 H 345.426 1.93642 1.67142 0
M  V30 3504 H 345.07 3.6601 3.52135 0
M  V30 3505 H 345 2.34121 4.71694 0
M  V30 3506 H 347.491 2.032 3.18619 0
M  V30 3507 H 347.804 4.66898 6.15814 0
M  V30 3508 H 346.149 4.1934 5.54237 0
M  V30 3509 H 349.34 2.58764 3.90075 0
M  V30 3510 H 349.513 3.78994 5.25612 0
M  V30 3511 N 342.919 -1.39368 0.735821 0
M  V30 3512 C 344.168 -1.99733 0.281004 0
M  V30 3513 C 344.481 -1.59055 -1.13846 0
M  V30 3514 O 345.687 -2.12262 -1.69284 0
M  V30 3515 C 344.143 -3.57057 0.451462 0
M  V30 3516 C 343.751 -4.06697 1.87886 0
M  V30 3517 C 345.495 -4.2446 0.0584616 0
M  V30 3518 C 343.402 -5.56598 1.99883 0
M  V30 3519 H 342.332 -0.747163 0.101311 0
M  V30 3520 H 344.983 -1.59357 0.909819 0
M  V30 3521 H 343.365 -3.95234 -0.246263 0
M  V30 3522 H 344.539 -3.79853 2.60861 0
M  V30 3523 H 342.854 -3.5196 2.22515 0
M  V30 3524 H 345.451 -5.34549 0.127099 0
M  V30 3525 H 345.794 -4.04444 -0.986433 0
M  V30 3526 H 346.327 -3.9146 0.707374 0
M  V30 3527 H 343.066 -5.81494 3.02564 0
M  V30 3528 H 342.586 -5.85242 1.31346 0
M  V30 3529 H 344.265 -6.22022 1.78039 0
M  V30 3530 N 344.397 -0.483516 -1.5 0
M  V30 3531 C 345.307 0.309172 -2.32554 0
M  V30 3532 C 346.323 0.984159 -1.43493 0
M  V30 3533 O 347.499 0.969399 -1.76535 0
M  V30 3534 C 344.564 1.36979 -3.18493 0
M  V30 3535 C 343.625 0.710095 -4.23387 0
M  V30 3536 C 342.858 1.72018 -5.05218 0
M  V30 3537 O 343.081 2.94813 -4.88305 0
M  V30 3538 O 342.015 1.28515 -5.8802 0
M  V30 3539 H 345.841 -0.366064 -3.01486 0
M  V30 3540 H 343.426 -0.24514 -1.47375 0
M  V30 3541 H 345.308 1.98385 -3.71781 0
M  V30 3542 H 343.983 2.02828 -2.52275 0
M  V30 3543 H 342.89 0.0567539 -3.74057 0
M  V30 3544 H 344.223 0.0943557 -4.9211 0
M  V30 3545 N 345.875 1.56104 -0.216619 0
M  V30 3546 C 347.103 2.02563 0.421413 0
M  V30 3547 C 347.518 1.0965 1.53695 0
M  V30 3548 O 346.875 0.10521 1.82196 0
M  V30 3549 C 346.926 3.48584 0.957665 0
M  V30 3550 O 346.647 4.37953 -0.113389 0
M  V30 3551 C 348.148 4.10664 1.66943 0
M  V30 3552 H 345.368 0.662944 0.103665 0
M  V30 3553 H 347.912 2.01793 -0.331629 0
M  V30 3554 H 346.067 3.49985 1.661 0
M  V30 3555 H 346.481 5.23704 0.288932 0
M  V30 3556 H 347.955 5.14622 1.99671 0
M  V30 3557 H 348.432 3.55373 2.58083 0
M  V30 3558 H 349.038 4.13098 1.01142 0
M  V30 3559 N 347.353 -0.0568162 1.57498 0
M  V30 3560 C 348.601 -0.751617 1.87604 0
M  V30 3561 C 348.922 -1.77351 0.81066 0
M  V30 3562 O 348.192 -1.95254 -0.159018 0
M  V30 3563 H 346.772 -0.280583 0.692302 0
M  V30 3564 H 349.434 -0.0293483 1.94878 0
M  V30 3565 H 348.53 -1.25852 2.856 0
M  V30 3566 N 348.832 -1.54138 -0.328536 0
M  V30 3567 C 350.06 -1.76062 -1.08673 0
M  V30 3568 C 350.475 -0.506852 -1.81869 0
M  V30 3569 O 349.832 0.522223 -1.74869 0
M  V30 3570 C 349.883 -2.95054 -2.08866 0
M  V30 3571 O 349.604 -4.15583 -1.38644 0
M  V30 3572 C 351.105 -3.2915 -2.96943 0
M  V30 3573 H 348.325 -0.587889 -0.323461 0
M  V30 3574 H 350.869 -2.0101 -0.376175 0
M  V30 3575 H 349.024 -2.72394 -2.75464 0
M  V30 3576 H 349.438 -4.82481 -2.05699 0
M  V30 3577 H 350.912 -4.15723 -3.63151 0
M  V30 3578 H 351.389 -2.461 -3.63774 0
M  V30 3579 H 351.995 -3.53871 -2.35914 0
M  V30 3580 N 350.31 0.590341 -1.46126 0
M  V30 3581 C 351.557 1.34882 -1.5104 0
M  V30 3582 C 351.885 1.93849 -0.159021 0
M  V30 3583 O 351.14 1.76544 0.844436 0
M  V30 3584 C 351.439 2.5032 -2.55097 0
M  V30 3585 C 351.105 2.09394 -3.99331 0
M  V30 3586 C 349.767 1.97947 -4.38601 0
M  V30 3587 C 352.119 1.77712 -4.89967 0
M  V30 3588 C 349.447 1.53065 -5.66381 0
M  V30 3589 C 351.799 1.34312 -6.18177 0
M  V30 3590 C 350.463 1.21436 -6.56361 0
M  V30 3591 H 349.733 0.493568 -0.552695 0
M  V30 3592 H 352.38 0.665539 -1.79563 0
M  V30 3593 H 350.685 3.24062 -2.20207 0
M  V30 3594 H 352.382 3.08541 -2.56132 0
M  V30 3595 H 348.972 2.19235 -3.68285 0
M  V30 3596 H 353.156 1.85445 -4.60352 0
M  V30 3597 H 348.412 1.41733 -5.94745 0
M  V30 3598 H 352.586 1.08849 -6.87841 0
M  V30 3599 H 350.213 0.864345 -7.5527 0
M  V30 3600 N 351.788 1.33704 0.83433 0
M  V30 3601 C 352.718 1.26967 1.95963 0
M  V30 3602 C 353.699 0.149337 1.69443 0
M  V30 3603 O 354.884 0.339852 1.91203 0
M  V30 3604 C 352.014 1.01275 3.32206 0
M  V30 3605 C 350.968 2.09652 3.73136 0
M  V30 3606 C 350.294 1.69166 5.07235 0
M  V30 3607 C 351.594 3.51372 3.86439 0
M  V30 3608 H 353.288 2.2112 2.01857 0
M  V30 3609 H 350.834 1.06447 0.969793 0
M  V30 3610 H 352.787 0.952106 4.10503 0
M  V30 3611 H 351.511 0.0356203 3.26581 0
M  V30 3612 H 350.17 2.14766 2.97104 0
M  V30 3613 H 349.818 0.701437 4.98085 0
M  V30 3614 H 349.518 2.41694 5.35591 0
M  V30 3615 H 351.042 1.64576 5.88003 0
M  V30 3616 H 352.456 3.48734 4.55036 0
M  V30 3617 H 350.853 4.22425 4.26236 0
M  V30 3618 H 351.923 3.89546 2.88759 0
M  V30 3619 N 353.266 -1.05314 1.17247 0
M  V30 3620 C 354.512 -1.78557 0.961513 0
M  V30 3621 C 354.845 -1.87419 -0.508697 0
M  V30 3622 O 354.12 -1.37307 -1.37757 0
M  V30 3623 C 354.403 -3.22514 1.60176 0
M  V30 3624 C 354.256 -3.21673 3.14399 0
M  V30 3625 C 355.575 -4.20318 1.30463 0
M  V30 3626 H 352.694 -0.6482 0.350723 0
M  V30 3627 H 355.336 -1.23102 1.44727 0
M  V30 3628 H 353.486 -3.69867 1.18871 0
M  V30 3629 H 355.158 -2.82405 3.64753 0
M  V30 3630 H 353.401 -2.60048 3.47214 0
M  V30 3631 H 354.072 -4.23271 3.54324 0
M  V30 3632 H 356.548 -3.81454 1.66229 0
M  V30 3633 H 355.424 -5.19289 1.77848 0
M  V30 3634 H 355.685 -4.41526 0.22521 0
M  V30 3635 N 354.744 -0.972509 -1.24016 0
M  V30 3636 C 355.707 -0.511403 -2.23422 0
M  V30 3637 C 356.707 0.394679 -1.55881 0
M  V30 3638 O 357.897 0.189469 -1.73167 0
M  V30 3639 C 355.029 0.258769 -3.39916 0
M  V30 3640 H 356.222 -1.39024 -2.6573 0
M  V30 3641 H 353.775 -0.757585 -1.36713 0
M  V30 3642 H 354.51 1.1545 -3.03054 0
M  V30 3643 H 354.295 -0.391522 -3.9014 0
M  V30 3644 H 355.785 0.570244 -4.13688 0
M  V30 3645 N 356.222 1.38976 -0.743202 0
M  V30 3646 C 357.185 2.28901 -0.117014 0
M  V30 3647 C 358.185 1.46698 0.658503 0
M  V30 3648 O 359.375 1.67274 0.486305 0
M  V30 3649 C 356.507 3.30309 0.84315 0
M  V30 3650 H 357.7 2.8578 -0.909373 0
M  V30 3651 H 355.253 1.47761 -0.509547 0
M  V30 3652 H 355.988 2.785 1.66157 0
M  V30 3653 H 355.773 3.91029 0.289594 0
M  V30 3654 H 357.263 3.97577 1.2776 0
M  V30 3655 N 357.7 0.491464 1.49741 0
M  V30 3656 C 358.663 -0.280906 2.27472 0
M  V30 3657 C 359.663 -0.902454 1.33088 0
M  V30 3658 O 360.853 -0.768465 1.56334 0
M  V30 3659 C 357.985 -1.40209 3.10732 0
M  V30 3660 H 359.178 0.401056 2.97206 0
M  V30 3661 H 356.731 0.246131 1.5435 0
M  V30 3662 H 357.466 -2.11849 2.45541 0
M  V30 3663 H 357.251 -0.961969 3.80117 0
M  V30 3664 H 358.741 -1.9464 3.69466 0
M  V30 3665 N 359.178 -1.55987 0.224894 0
M  V30 3666 C 360.427 -1.97566 -0.406273 0
M  V30 3667 C 360.74 -1.11569 -1.6066 0
M  V30 3668 O 361.946 -1.43062 -2.3075 0
M  V30 3669 C 360.402 -3.51474 -0.774207 0
M  V30 3670 C 360.01 -4.46179 0.403496 0
M  V30 3671 C 361.754 -4.01758 -1.37079 0
M  V30 3672 C 359.661 -5.91399 0.0129412 0
M  V30 3673 H 358.591 -0.737777 -0.155565 0
M  V30 3674 H 361.242 -1.80659 0.321635 0
M  V30 3675 H 359.624 -3.63994 -1.55963 0
M  V30 3676 H 360.798 -4.45409 1.18101 0
M  V30 3677 H 359.113 -4.06255 0.913536 0
M  V30 3678 H 361.71 -5.07756 -1.67596 0
M  V30 3679 H 362.053 -3.47805 -2.28773 0
M  V30 3680 H 362.586 -3.92475 -0.648733 0
M  V30 3681 H 359.325 -6.49341 0.896451 0
M  V30 3682 H 358.845 -5.95356 -0.728821 0
M  V30 3683 H 360.524 -6.45683 -0.412582 0
M  V30 3684 N 360.656 0.0484629 -1.57525 0
M  V30 3685 C 361.881 0.759177 -1.93006 0
M  V30 3686 C 362.306 1.69125 -0.823317 0
M  V30 3687 O 361.664 1.79931 0.222364 0
M  V30 3688 C 361.712 1.50899 -3.27509 0
M  V30 3689 O 360.816 2.62112 -3.18388 0
M  V30 3690 H 360.157 0.205564 -0.631379 0
M  V30 3691 H 362.687 0.00972959 -2.04598 0
M  V30 3692 H 362.697 1.88317 -3.6194 0
M  V30 3693 H 361.372 0.825269 -4.0763 0
M  V30 3694 H 359.949 2.27379 -2.95556 0
M  V30 3695 N 362.134 1.5431 0.320358 0
M  V30 3696 C 363.55 1.45091 0.664889 0
M  V30 3697 C 363.75 0.626382 1.91517 0
M  V30 3698 O 362.806 0.126443 2.52183 0
M  V30 3699 C 364.119 2.88848 0.83591 0
M  V30 3700 C 365.667 2.9877 0.933046 0
M  V30 3701 C 366.142 4.43683 1.13621 0
M  V30 3702 N 367.633 4.47309 1.20287 0
M  V30 3703 C 368.368 5.56595 1.37801 0
M  V30 3704 N 367.864 6.75844 1.52338 0
M  V30 3705 N 369.657 5.44248 1.40535 0
M  V30 3706 H 361.808 2.06398 -0.501374 0
M  V30 3707 H 364.071 0.933963 -0.162534 0
M  V30 3708 H 363.777 3.51698 -0.0116092 0
M  V30 3709 H 363.651 3.35148 1.73078 0
M  V30 3710 H 366.038 2.36045 1.77107 0
M  V30 3711 H 366.119 2.55796 0.0145782 0
M  V30 3712 H 365.763 5.06995 0.303032 0
M  V30 3713 H 365.693 4.84269 2.0686 0
M  V30 3714 H 368.184 3.61388 1.10485 0
M  V30 3715 H 368.497 7.54892 1.65403 0
M  V30 3716 H 366.842 6.78746 1.4943 0
M  V30 3717 H 370.033 4.50038 1.28777 0
M  V30 3718 H 370.206 6.29473 1.53842 0
M  V30 3719 N 363.613 -0.582584 1.46437 0
M  V30 3720 C 364.861 -1.33814 1.51453 0
M  V30 3721 C 365.182 -1.94277 0.167792 0
M  V30 3722 O 364.452 -1.78566 -0.805677 0
M  V30 3723 H 363.032 -0.496838 0.557818 0
M  V30 3724 H 365.694 -0.682281 1.82568 0
M  V30 3725 H 364.79 -2.14479 2.26728 0
M  V30 3726 N 365.091 -1.34144 -0.827227 0
M  V30 3727 C 366.038 -1.25364 -1.93785 0
M  V30 3728 C 367.008 -0.129774 -1.65592 0
M  V30 3729 O 368.193 -0.310024 -1.88264 0
M  V30 3730 C 365.333 -1.01064 -3.2997 0
M  V30 3731 C 364.446 -2.22185 -3.70484 0
M  V30 3732 C 363.581 -1.91203 -4.95595 0
M  V30 3733 C 362.62 -3.08491 -5.28677 0
M  V30 3734 N 361.757 -2.77421 -6.44967 0
M  V30 3735 H 366.597 -2.20347 -2.00627 0
M  V30 3736 H 364.134 -1.09558 -0.981608 0
M  V30 3737 H 366.092 -0.850139 -4.08446 0
M  V30 3738 H 364.722 -0.0975026 -3.22653 0
M  V30 3739 H 363.774 -2.4917 -2.87434 0
M  V30 3740 H 365.086 -3.0983 -3.90905 0
M  V30 3741 H 364.24 -1.71864 -5.81848 0
M  V30 3742 H 362.979 -1.00812 -4.77167 0
M  V30 3743 H 361.984 -3.28431 -4.40923 0
M  V30 3744 H 363.209 -3.99655 -5.49047 0
M  V30 3745 H 361.155 -1.89601 -6.28003 0
M  V30 3746 H 361.072 -3.58598 -6.6554 0
M  V30 3747 H 362.34 -2.61577 -7.34301 0
M  V30 3748 N 366.569 1.04691 -1.17803 0
M  V30 3749 C 367.818 1.77176 -0.963931 0
M  V30 3750 C 368.131 1.88888 0.508015 0
M  V30 3751 O 369.337 2.58164 0.840465 0
M  V30 3752 C 367.793 3.18518 -1.67555 0
M  V30 3753 C 367.401 3.14919 -3.18637 0
M  V30 3754 C 369.145 3.95424 -1.54402 0
M  V30 3755 C 367.052 4.51081 -3.82466 0
M  V30 3756 H 365.982 0.664116 -0.357023 0
M  V30 3757 H 368.633 1.17303 -1.4111 0
M  V30 3758 H 367.015 3.78748 -1.15613 0
M  V30 3759 H 368.189 2.64178 -3.77554 0
M  V30 3760 H 366.504 2.51512 -3.31859 0
M  V30 3761 H 369.101 4.96106 -1.99456 0
M  V30 3762 H 369.444 4.13343 -0.495329 0
M  V30 3763 H 369.977 3.41754 -2.0359 0
M  V30 3764 H 366.716 4.38368 -4.87354 0
M  V30 3765 H 366.236 5.01951 -3.28337 0
M  V30 3766 H 367.915 5.2001 -3.84965 0
M  V30 3767 N 368.047 0.979072 1.23499 0
M  V30 3768 C 369.296 0.642751 1.91185 0
M  V30 3769 C 369.609 -0.827253 1.77245 0
M  V30 3770 O 370.815 -1.27458 2.39722 0
M  V30 3771 C 369.271 1.09901 3.42709 0
M  V30 3772 C 368.879 2.59327 3.65313 0
M  V30 3773 C 370.623 0.836371 4.16179 0
M  V30 3774 C 368.53 2.98627 5.10467 0
M  V30 3775 H 367.46 0.236698 0.715884 0
M  V30 3776 H 370.111 1.1868 1.39955 0
M  V30 3777 H 368.493 0.48319 3.93041 0
M  V30 3778 H 369.667 3.26136 3.25533 0
M  V30 3779 H 367.982 2.83323 3.05151 0
M  V30 3780 H 370.579 1.10586 5.23139 0
M  V30 3781 H 370.922 -0.227509 4.15678 0
M  V30 3782 H 371.455 1.41371 3.71832 0
M  V30 3783 H 368.194 4.04133 5.16098 0
M  V30 3784 H 367.714 2.3651 5.51201 0
M  V30 3785 H 369.393 2.89159 5.78788 0
M  V30 3786 N 369.525 -1.3858 0.750561 0
M  V30 3787 C 370.765 -2.02032 0.310258 0
M  V30 3788 C 371.129 -1.58288 -1.08668 0
M  V30 3789 O 372.33 -2.14049 -1.62593 0
M  V30 3790 C 370.601 -3.54856 0.425647 0
M  V30 3791 S 372.16 -4.38748 0.0674797 0
M  V30 3792 H 368.978 -0.700705 0.120554 0
M  V30 3793 H 371.58 -1.69134 0.980512 0
M  V30 3794 H 370.284 -3.84182 1.44335 0
M  V30 3795 H 369.815 -3.92527 -0.261894 0
M  V30 3796 H 371.83 -4.82835 -1.14388 0
M  V30 3797 N 371.003 -0.499398 -1.49478 0
M  V30 3798 C 372.419 -0.155261 -1.58843 0
M  V30 3799 C 372.619 1.34008 -1.50479 0
M  V30 3800 O 371.675 2.11589 -1.37791 0
M  V30 3801 C 372.988 -0.730636 -2.91689 0
M  V30 3802 C 374.536 -0.696599 -3.0515 0
M  V30 3803 C 375.011 -1.25001 -4.40612 0
M  V30 3804 N 376.502 -1.21064 -4.47099 0
M  V30 3805 C 377.237 -1.60905 -5.50361 0
M  V30 3806 N 376.733 -2.08331 -6.60735 0
M  V30 3807 N 378.526 -1.52331 -5.41065 0
M  V30 3808 H 370.677 -1.47162 -1.53158 0
M  V30 3809 H 372.94 -0.610309 -0.725415 0
M  V30 3810 H 372.646 -1.77928 -3.03372 0
M  V30 3811 H 372.52 -0.190161 -3.7672 0
M  V30 3812 H 374.907 0.343204 -2.93097 0
M  V30 3813 H 374.988 -1.2742 -2.21806 0
M  V30 3814 H 374.632 -2.28859 -4.53416 0
M  V30 3815 H 374.562 -0.64836 -5.22593 0
M  V30 3816 H 377.053 -0.863128 -3.67911 0
M  V30 3817 H 377.366 -2.36805 -7.35624 0
M  V30 3818 H 375.711 -2.12304 -6.6178 0
M  V30 3819 H 378.902 -1.151 -4.53729 0
M  V30 3820 H 379.075 -1.83704 -6.21415 0
M  V30 3821 N 372.481 1.55866 -0.233164 0
M  V30 3822 C 373.429 2.22176 0.68851 0
M  V30 3823 C 374.423 1.20487 1.19076 0
M  V30 3824 O 375.629 1.38536 1.14925 0
M  V30 3825 H 372.004 0.712511 0.240483 0
M  V30 3826 H 373.975 2.98212 0.105935 0
M  V30 3827 C 372.724 2.92446 1.88071 0
M  V30 3828 H 372.047 3.70458 1.50337 0
M  V30 3829 H 373.487 3.42226 2.50314 0
M  V30 3830 C 371.946 1.95555 2.74335 0
M  V30 3831 O 372.476 1.47986 3.73447 0
M  V30 3832 N 370.682 1.62953 2.40613 0
M  V30 3833 H 370.229 2.01831 1.60069 0
M  V30 3834 H 370.187 0.983886 2.98609 0
M  V30 3835 N 373.959 -0.0401083 1.57549 0
M  V30 3836 C 374.922 -1.02871 2.04817 0
M  V30 3837 C 375.922 -1.29708 0.950388 0
M  V30 3838 O 377.112 -1.24897 1.21435 0
M  V30 3839 C 374.244 -2.36443 2.45576 0
M  V30 3840 H 375.437 -0.620631 2.93408 0
M  V30 3841 H 372.99 -0.286667 1.53649 0
M  V30 3842 H 373.725 -2.82021 1.60108 0
M  V30 3843 H 373.51 -2.18296 3.25713 0
M  V30 3844 H 375 -3.07441 2.82612 0
M  V30 3845 N 375.437 -1.54477 -0.31217 0
M  V30 3846 C 376.369 -1.81011 -1.40598 0
M  V30 3847 C 377.382 -0.692546 -1.47335 0
M  V30 3848 O 378.571 -0.969847 -1.49854 0
M  V30 3849 C 375.671 -1.92307 -2.79054 0
M  V30 3850 C 374.844 -3.22594 -2.95384 0
M  V30 3851 C 373.903 -3.24448 -4.1427 0
M  V30 3852 O 372.929 -3.98035 -4.06887 0
M  V30 3853 N 374.131 -2.49042 -5.24365 0
M  V30 3854 H 376.896 -2.75408 -1.18196 0
M  V30 3855 H 374.457 -1.53914 -0.502202 0
M  V30 3856 H 376.449 -1.90962 -3.56813 0
M  V30 3857 H 375.019 -1.04955 -2.94454 0
M  V30 3858 H 374.239 -3.36806 -2.04831 0
M  V30 3859 H 375.527 -4.08593 -3.03198 0
M  V30 3860 H 374.925 -1.88867 -5.33241 0
M  V30 3861 H 373.482 -2.53463 -6.005 0
M  V30 3862 N 376.915 0.57481 -1.46744 0
M  V30 3863 C 378.326 1.15695 -1.46532 0
M  V30 3864 C 378.677 1.95068 -0.210425 0
M  V30 3865 O 377.802 2.05241 0.685944 0
M  V30 3866 C 378.397 2.1048 -2.65487 0
M  V30 3867 C 376.956 2.64002 -2.68291 0
M  V30 3868 C 376.103 1.40026 -2.39349 0
M  V30 3869 H 379.054 0.362325 -1.54509 0
M  V30 3870 H 379.075 2.94074 -2.41455 0
M  V30 3871 H 378.587 1.52683 -3.56805 0
M  V30 3872 H 376.688 3.25646 -1.81067 0
M  V30 3873 H 376.801 3.06197 -3.68483 0
M  V30 3874 H 375.165 1.70106 -1.89568 0
M  V30 3875 H 375.948 0.840485 -3.32852 0
M  V30 3876 N 378.394 1.34581 0.820102 0
M  V30 3877 C 379.671 1.17675 1.56244 0
M  V30 3878 C 380.051 -0.249541 2.0962 0
M  V30 3879 O 379.399 -1.25125 1.91196 0
M  V30 3880 C 379.609 2.23364 2.6816 0
M  V30 3881 C 380.957 2.58485 3.36854 0
M  V30 3882 O 381.981 2.22175 2.78418 0
M  V30 3883 O 380.84 3.20868 4.42386 0
M  V30 3884 H 377.934 0.456333 0.689702 0
M  V30 3885 H 380.48 1.46222 0.861231 0
M  V30 3886 H 379.252 3.19087 2.26493 0
M  V30 3887 H 378.875 1.96009 3.45928 0
M  V30 3888 N 379.872 -1.04064 1.18357 0
M  V30 3889 C 381.1 -1.80916 1.00384 0
M  V30 3890 C 381.515 -1.83414 -0.447738 0
M  V30 3891 O 380.872 -1.26962 -1.31099 0
M  V30 3892 C 380.923 -3.26516 1.55144 0
M  V30 3893 O 380.644 -3.2424 2.94618 0
M  V30 3894 C 382.145 -4.20013 1.41789 0
M  V30 3895 H 379.365 -0.569728 0.354474 0
M  V30 3896 H 381.909 -1.31151 1.56906 0
M  V30 3897 H 380.064 -3.73512 1.02798 0
M  V30 3898 H 380.478 -4.15452 3.20156 0
M  V30 3899 H 381.952 -5.20111 1.84901 0
M  V30 3900 H 382.429 -4.37667 0.36661 0
M  V30 3901 H 383.035 -3.78881 1.93207 0
M  V30 3902 N 381.35 -0.985608 -1.22978 0
M  V30 3903 C 382.28 -0.549649 -2.26939 0
M  V30 3904 C 383.261 0.419803 -1.64838 0
M  V30 3905 O 384.446 0.31203 -1.91677 0
M  V30 3906 C 381.576 0.143652 -3.47003 0
M  V30 3907 C 380.53 -0.743606 -4.21491 0
M  V30 3908 C 379.856 0.0822027 -5.34637 0
M  V30 3909 C 381.156 -2.03694 -4.80943 0
M  V30 3910 H 382.85 -1.41862 -2.63658 0
M  V30 3911 H 380.396 -0.683571 -1.26741 0
M  V30 3912 H 382.349 0.459985 -4.18882 0
M  V30 3913 H 381.073 1.04711 -3.09359 0
M  V30 3914 H 379.732 -1.04347 -3.51436 0
M  V30 3915 H 379.38 0.986359 -4.93234 0
M  V30 3916 H 379.08 -0.508377 -5.85397 0
M  V30 3917 H 380.604 0.392797 -6.09335 0
M  V30 3918 H 382.018 -1.78504 -5.44802 0
M  V30 3919 H 380.415 -2.57573 -5.42011 0
M  V30 3920 H 381.485 -2.72042 -4.01399 0
M  V30 3921 N 382.828 1.3818 -0.7579 0
M  V30 3922 C 384.105 1.94106 -0.241306 0
M  V30 3923 C 384.485 1.69282 1.26122 0
M  V30 3924 O 383.833 1.03378 2.03777 0
M  V30 3925 C 384.043 3.43809 -0.59967 0
M  V30 3926 C 385.391 4.20868 -0.561717 0
M  V30 3927 O 386.415 3.5211 -0.538222 0
M  V30 3928 O 385.274 5.43451 -0.576478 0
M  V30 3929 H 382.368 0.825376 -0.0518042 0
M  V30 3930 H 384.914 1.47548 -0.838315 0
M  V30 3931 H 383.686 3.55403 -1.6372 0
M  V30 3932 H 383.309 3.97592 0.0251197 0
M  V30 3933 N 384.306 0.507319 1.49211 0
M  V30 3934 C 385.269 -0.256763 2.27757 0
M  V30 3935 C 386.269 -0.888287 1.34038 0
M  V30 3936 O 387.459 -0.751841 1.5714 0
M  V30 3937 C 384.591 -1.36905 3.12202 0
M  V30 3938 H 385.784 0.432557 2.96764 0
M  V30 3939 H 383.337 0.262488 1.5408 0
M  V30 3940 H 384.072 -2.09233 2.47775 0
M  V30 3941 H 383.857 -0.921599 3.81115 0
M  V30 3942 H 385.347 -1.9071 3.7151 0
M  V30 3943 N 385.784 -1.5574 0.241426 0
M  V30 3944 C 387.03 -1.99104 -0.385406 0
M  V30 3945 C 387.363 -1.1293 -1.57988 0
M  V30 3946 O 386.638 -0.191449 -1.93555 0
M  V30 3947 C 386.921 -3.51087 -0.800616 0
M  V30 3948 C 386.774 -4.48028 0.398874 0
M  V30 3949 C 388.093 -4.08015 -1.64959 0
M  V30 3950 H 385.212 -0.723848 -0.138614 0
M  V30 3951 H 387.854 -1.86903 0.341642 0
M  V30 3952 H 386.004 -3.61615 -1.4201 0
M  V30 3953 H 387.676 -4.49487 1.03726 0
M  V30 3954 H 385.919 -4.21077 1.04293 0
M  V30 3955 H 386.59 -5.51962 0.0651056 0
M  V30 3956 H 389.066 -4.00555 -1.12672 0
M  V30 3957 H 387.942 -5.14635 -1.90898 0
M  V30 3958 H 388.203 -3.56131 -2.61961 0
M  V30 3959 N 387.262 0.0317525 -1.57568 0
M  V30 3960 C 388.192 1.03274 -2.0942 0
M  V30 3961 C 389.173 1.3788 -0.996143 0
M  V30 3962 O 390.358 1.46811 -1.27122 0
M  V30 3963 C 387.488 2.33448 -2.57137 0
M  V30 3964 C 386.442 2.13091 -3.71182 0
M  V30 3965 C 385.768 3.49001 -4.05095 0
M  V30 3966 C 387.068 1.51928 -4.99715 0
M  V30 3967 H 388.762 0.60112 -2.93303 0
M  V30 3968 H 386.308 0.287705 -1.41097 0
M  V30 3969 H 388.261 3.03802 -2.92032 0
M  V30 3970 H 386.985 2.78665 -1.70333 0
M  V30 3971 H 385.644 1.45171 -3.36632 0
M  V30 3972 H 385.292 3.91862 -3.15362 0
M  V30 3973 H 384.992 3.36207 -4.81911 0
M  V30 3974 H 386.516 4.20721 -4.42522 0
M  V30 3975 H 387.93 2.12196 -5.32584 0
M  V30 3976 H 386.327 1.49716 -5.81124 0
M  V30 3977 H 387.397 0.484811 -4.8247 0
M  V30 3978 N 388.74 1.54641 0.303973 0
M  V30 3979 C 389.703 1.84646 1.35789 0
M  V30 3980 C 390.703 0.7192 1.4382 0
M  V30 3981 O 391.893 0.987491 1.43507 0
M  V30 3982 C 389.025 2.02407 2.74307 0
M  V30 3983 H 390.218 2.78829 1.10429 0
M  V30 3984 H 387.771 1.46658 0.540487 0
M  V30 3985 H 388.506 1.10502 3.04893 0
M  V30 3986 H 388.291 2.84453 2.69868 0
M  V30 3987 H 389.781 2.27002 3.50514 0
M  V30 3988 N 390.218 -0.567019 1.47046 0
M  V30 3989 C 391.165 -1.67489 1.58796 0
M  V30 3990 C 392.135 -1.60399 0.43144 0
M  V30 3991 O 393.32 -1.79378 0.650233 0
M  V30 3992 C 390.46 -3.05821 1.59899 0
M  V30 3993 C 389.573 -3.2342 2.86397 0
M  V30 3994 C 388.708 -4.52093 2.789 0
M  V30 3995 C 387.747 -4.6309 4.00267 0
M  V30 3996 N 386.884 -5.83106 3.91064 0
M  V30 3997 H 391.724 -1.56785 2.53422 0
M  V30 3998 H 389.261 -0.763896 1.2571 0
M  V30 3999 H 391.219 -3.8591 1.58522 0
M  V30 4000 H 389.849 -3.15384 0.687929 0
M  V30 4001 H 388.901 -2.3683 2.97684 0
M  V30 4002 H 390.213 -3.27412 3.76301 0
M  V30 4003 H 389.367 -5.4043 2.75718 0
M  V30 4004 H 388.106 -4.50565 1.86662 0
M  V30 4005 H 387.111 -3.73168 4.03765 0
M  V30 4006 H 388.336 -4.66386 4.93621 0
M  V30 4007 H 386.282 -5.82546 3.01623 0
M  V30 4008 H 386.199 -5.88434 4.74638 0
M  V30 4009 H 387.467 -6.73831 3.91882 0
M  V30 4010 N 391.696 -1.35014 -0.812953 0
M  V30 4011 C 392.626 -1.30069 -1.93919 0
M  V30 4012 C 393.607 -0.176275 -1.69184 0
M  V30 4013 O 394.792 -0.370227 -1.90638 0
M  V30 4014 C 391.922 -1.06547 -3.30552 0
M  V30 4015 C 390.876 -2.15561 -3.69753 0
M  V30 4016 C 390.202 -1.77214 -5.04479 0
M  V30 4017 C 391.502 -3.57476 -3.808 0
M  V30 4018 H 393.196 -2.24303 -1.98314 0
M  V30 4019 H 390.742 -1.07977 -0.952736 0
M  V30 4020 H 392.695 -1.01729 -4.08937 0
M  V30 4021 H 391.419 -0.0875719 -3.26483 0
M  V30 4022 H 390.078 -2.19466 -2.9365 0
M  V30 4023 H 389.726 -0.780589 -4.96906 0
M  V30 4024 H 389.426 -2.50184 -5.31678 0
M  V30 4025 H 390.95 -1.7391 -5.8531 0
M  V30 4026 H 392.364 -3.55929 -4.4943 0
M  V30 4027 H 390.761 -4.29152 -4.19462 0
M  V30 4028 H 391.831 -3.94091 -2.82525 0
M  V30 4029 N 393.175 1.03435 -1.18907 0
M  V30 4030 C 394.591 1.28973 -0.940111 0
M  V30 4031 C 394.791 1.97676 0.390691 0
M  V30 4032 O 393.847 2.26127 1.12352 0
M  V30 4033 C 395.16 2.14221 -2.11021 0
M  V30 4034 C 396.708 2.27547 -2.14922 0
M  V30 4035 C 397.183 3.16164 -3.31367 0
M  V30 4036 N 398.674 3.23752 -3.31269 0
M  V30 4037 C 399.409 3.92495 -4.18014 0
M  V30 4038 N 398.905 4.63515 -5.14904 0
M  V30 4039 N 400.698 3.88838 -4.05908 0
M  V30 4040 H 392.849 0.57252 -2.04538 0
M  V30 4041 H 395.112 0.315184 -0.894071 0
M  V30 4042 H 394.818 1.71054 -3.073 0
M  V30 4043 H 394.692 3.14919 -2.0762 0
M  V30 4044 H 397.079 2.69947 -1.19217 0
M  V30 4045 H 397.16 1.26418 -2.22378 0
M  V30 4046 H 396.804 2.74474 -4.27348 0
M  V30 4047 H 396.734 4.17339 -3.21148 0
M  V30 4048 H 399.225 2.73167 -2.61129 0
M  V30 4049 H 399.538 5.13583 -5.77453 0
M  V30 4050 H 397.883 4.62398 -5.18857 0
M  V30 4051 H 401.074 3.32491 -3.29495 0
M  V30 4052 H 401.247 4.4214 -4.73726 0
M  V30 4053 N 394.653 0.992116 1.22453 0
M  V30 4054 C 395.93 0.583508 1.86694 0
M  V30 4055 C 396.31 -0.9392 1.89056 0
M  V30 4056 O 395.658 -1.82081 1.38053 0
M  V30 4057 C 395.868 1.20304 3.2761 0
M  V30 4058 C 397.216 1.30308 4.0411 0
M  V30 4059 O 398.24 1.15737 3.36873 0
M  V30 4060 O 397.099 1.53615 5.24466 0
M  V30 4061 H 394.193 0.198129 0.802916 0
M  V30 4062 H 396.739 1.08794 1.30238 0
M  V30 4063 H 395.511 2.24461 3.2052 0
M  V30 4064 H 395.134 0.684144 3.9167 0
M  V30 4065 N 396.131 -1.37776 0.765217 0
M  V30 4066 C 397.094 -2.28686 0.153416 0
M  V30 4067 C 398.094 -1.47727 -0.635081 0
M  V30 4068 O 399.284 -1.68027 -0.459632 0
M  V30 4069 C 396.416 -3.31608 -0.790495 0
M  V30 4070 H 397.609 -2.84297 0.954723 0
M  V30 4071 H 395.162 -1.46932 0.53299 0
M  V30 4072 H 395.897 -2.81109 -1.61705 0
M  V30 4073 H 395.682 -3.9144 -0.227348 0
M  V30 4074 H 397.172 -3.99559 -1.21419 0
M  V30 4075 N 397.609 -0.515225 -1.4894 0
M  V30 4076 C 398.857 0.0241671 -2.02086 0
M  V30 4077 C 399.178 1.3616 -1.3959 0
M  V30 4078 O 398.448 1.87841 -0.556121 0
M  V30 4079 H 397.028 0.0119203 -0.746905 0
M  V30 4080 H 399.69 -0.675702 -1.82812 0
M  V30 4081 H 398.786 0.143385 -3.1177 0
M  V30 4082 N 399.087 1.5561 -0.249682 0
M  V30 4083 C 400.05 2.20217 0.635394 0
M  V30 4084 C 401.05 1.17227 1.10066 0
M  V30 4085 O 402.24 1.42292 1.00492 0
M  V30 4086 C 399.372 2.84794 1.87363 0
M  V30 4087 H 400.565 2.99814 0.0716752 0
M  V30 4088 H 398.118 1.563 -0.000153234 0
M  V30 4089 H 398.853 2.09142 2.47851 0
M  V30 4090 H 398.638 3.60241 1.5482 0
M  V30 4091 H 400.128 3.3423 2.5036 0
M  V30 4092 N 400.565 -0.0233959 1.57583 0
M  V30 4093 C 401.842 -0.748794 1.807 0
M  V30 4094 C 402.222 -1.9327 0.849106 0
M  V30 4095 O 401.57 -2.28247 -0.107468 0
M  V30 4096 C 401.78 -1.17651 3.28571 0
M  V30 4097 C 403.128 -1.59008 3.93702 0
M  V30 4098 O 404.152 -1.27094 3.32755 0
M  V30 4099 O 403.011 -2.18264 5.01022 0
M  V30 4100 H 400.105 -0.362578 0.743281 0
M  V30 4101 H 402.651 0.000261958 1.697 0
M  V30 4102 H 401.423 -0.331603 3.89892 0
M  V30 4103 H 401.046 -1.98541 3.44481 0
M  V30 4104 N 402.043 -1.548 -0.295768 0
M  V30 4105 C 403.292 -1.73538 -1.02798 0
M  V30 4106 C 403.605 -0.531159 -1.8825 0
M  V30 4107 O 404.811 -0.600458 -2.64777 0
M  V30 4108 C 403.267 -3.07051 -1.87744 0
M  V30 4109 C 402.875 -4.34968 -1.07269 0
M  V30 4110 C 404.619 -3.35146 -2.60533 0
M  V30 4111 C 402.526 -5.5953 -1.91521 0
M  V30 4112 H 401.456 -0.646794 -0.387522 0
M  V30 4113 H 404.107 -1.81278 -0.284718 0
M  V30 4114 H 402.489 -2.93289 -2.66078 0
M  V30 4115 H 403.663 -4.5958 -0.335117 0
M  V30 4116 H 401.978 -4.13847 -0.460384 0
M  V30 4117 H 404.575 -4.2541 -3.23929 0
M  V30 4118 H 404.918 -2.54255 -3.29636 0
M  V30 4119 H 405.451 -3.49902 -1.89244 0
M  V30 4120 H 402.19 -6.43103 -1.26878 0
M  V30 4121 H 401.71 -5.39096 -2.62937 0
M  V30 4122 H 403.389 -5.96982 -2.49442 0
M  V30 4123 N 403.521 0.559213 -1.47345 0
M  V30 4124 C 404.431 1.69388 -1.62311 0
M  V30 4125 C 405.447 1.6648 -0.505993 0
M  V30 4126 O 406.623 1.85964 -0.773262 0
M  V30 4127 C 403.688 3.05894 -1.63185 0
M  V30 4128 C 402.749 3.19885 -2.86307 0
M  V30 4129 C 401.982 4.49879 -2.87131 0
M  V30 4130 O 402.205 5.35217 -1.97229 0
M  V30 4131 O 401.139 4.67618 -3.78968 0
M  V30 4132 H 404.965 1.59706 -2.58317 0
M  V30 4133 H 402.55 0.728989 -1.30407 0
M  V30 4134 H 404.432 3.87133 -1.66451 0
M  V30 4135 H 403.107 3.15964 -0.70345 0
M  V30 4136 H 402.014 2.38052 -2.88587 0
M  V30 4137 H 403.347 3.14718 -3.78435 0
M  V30 4138 N 404.999 1.35443 0.805782 0
M  V30 4139 C 406.245 1.28952 1.56522 0
M  V30 4140 C 406.578 -0.135597 1.93726 0
M  V30 4141 O 405.853 -1.08516 1.61414 0
M  V30 4142 C 406.136 2.19678 2.85331 0
M  V30 4143 C 405.989 3.7081 2.54598 0
M  V30 4144 C 407.308 2.09495 3.8704 0
M  V30 4145 H 404.427 0.469764 0.567883 0
M  V30 4146 H 407.069 1.65851 0.927001 0
M  V30 4147 H 405.219 1.8834 3.39795 0
M  V30 4148 H 406.891 4.12593 2.06312 0
M  V30 4149 H 405.134 3.91051 1.8778 0
M  V30 4150 H 405.805 4.29679 3.46525 0
M  V30 4151 H 408.281 2.37045 3.41978 0
M  V30 4152 H 407.157 2.75173 4.74943 0
M  V30 4153 H 407.418 1.07714 4.28777 0
M  V30 4154 N 406.477 -1.02803 1.19454 0
M  V30 4155 C 407.725 -1.75869 0.995722 0
M  V30 4156 C 408.046 -1.89138 -0.474543 0
M  V30 4157 O 407.316 -1.42558 -1.34366 0
M  V30 4158 H 405.896 -0.651511 0.365435 0
M  V30 4159 H 408.558 -1.24004 1.50363 0
M  V30 4160 H 407.654 -2.76661 1.44447 0
M  V30 4161 N 407.956 -0.998596 -1.21925 0
M  V30 4162 C 408.866 -0.562736 -2.27751 0
M  V30 4163 C 409.882 0.391203 -1.69545 0
M  V30 4164 O 411.058 0.256625 -1.99758 0
M  V30 4165 C 408.123 0.11012 -3.46525 0
M  V30 4166 C 407.184 -0.887495 -4.20026 0
M  V30 4167 C 406.417 -0.246654 -5.3313 0
M  V30 4168 O 406.64 0.958088 -5.62296 0
M  V30 4169 O 405.574 -0.954374 -5.94286 0
M  V30 4170 H 409.4 -1.44329 -2.67213 0
M  V30 4171 H 406.985 -0.767135 -1.28201 0
M  V30 4172 H 408.867 0.486756 -4.18579 0
M  V30 4173 H 407.542 0.965154 -3.08976 0
M  V30 4174 H 406.449 -1.31517 -3.5022 0
M  V30 4175 H 407.782 -1.71191 -4.6147 0
M  V30 4176 N 409.434 1.37368 -0.772513 0
M  V30 4177 C 410.711 1.93839 -0.26188 0
M  V30 4178 C 411.091 1.7061 1.24319 0
M  V30 4179 O 410.439 1.05534 2.02669 0
M  V30 4180 C 410.649 3.43154 -0.636102 0
M  V30 4181 C 411.997 4.20249 -0.606324 0
M  V30 4182 O 413.021 3.5152 -0.575538 0
M  V30 4183 O 411.88 5.42809 -0.634086 0
M  V30 4184 H 408.974 0.82478 -0.0605555 0
M  V30 4185 H 411.52 1.4665 -0.853917 0
M  V30 4186 H 410.292 3.53647 -1.6748 0
M  V30 4187 H 409.915 3.97596 -0.0170516 0
M  V30 4188 N 410.912 0.523116 1.48665 0
M  V30 4189 C 412.158 -0.00540031 2.03399 0
M  V30 4190 C 412.513 -1.3264 1.39372 0
M  V30 4191 O 411.806 -1.84184 0.527916 0
M  V30 4192 C 412 -0.191671 3.56886 0
M  V30 4193 C 411.829 1.10972 4.35793 0
M  V30 4194 C 410.599 1.66769 4.76987 0
M  V30 4195 C 412.797 2.01861 4.73029 0
M  V30 4196 N 410.779 2.91268 5.40404 0
M  V30 4197 C 412.15 3.10937 5.36394 0
M  V30 4198 C 414.205 2.02271 4.54962 0
M  V30 4199 C 412.908 4.20478 5.83601 0
M  V30 4200 C 414.934 3.10802 5.03146 0
M  V30 4201 C 414.296 4.18597 5.6653 0
M  V30 4202 H 410.395 0.0393531 0.781009 0
M  V30 4203 H 412.979 0.702876 1.8157 0
M  V30 4204 H 411.15 -0.869025 3.78553 0
M  V30 4205 H 412.882 -0.719177 3.98259 0
M  V30 4206 H 409.637 1.20996 4.57883 0
M  V30 4207 H 410.061 3.54635 5.76683 0
M  V30 4208 H 414.703 1.2023 4.05345 0
M  V30 4209 H 412.421 5.03303 6.32228 0
M  V30 4210 H 416.007 3.12166 4.90962 0
M  V30 4211 H 414.887 5.01193 6.03138 0
M  V30 4212 N 412.39 -1.55475 0.257931 0
M  V30 4213 C 413.639 -1.98383 -0.364275 0
M  V30 4214 C 413.952 -1.14952 -1.58258 0
M  V30 4215 O 415.158 -1.47924 -2.27664 0
M  V30 4216 C 413.614 -3.53037 -0.699479 0
M  V30 4217 C 413.222 -4.45223 0.498046 0
M  V30 4218 C 414.966 -4.04575 -1.28526 0
M  V30 4219 C 412.873 -5.91238 0.138383 0
M  V30 4220 H 411.803 -0.740911 -0.13988 0
M  V30 4221 H 414.454 -1.79936 0.359883 0
M  V30 4222 H 412.836 -3.6722 -1.48207 0
M  V30 4223 H 414.01 -4.42803 1.27522 0
M  V30 4224 H 412.325 -4.04226 0.999503 0
M  V30 4225 H 414.922 -5.11196 -1.56788 0
M  V30 4226 H 415.265 -3.5258 -2.21344 0
M  V30 4227 H 415.798 -3.93762 -0.565337 0
M  V30 4228 H 412.537 -6.47294 1.03398 0
M  V30 4229 H 412.057 -5.96768 -0.602374 0
M  V30 4230 H 413.736 -6.46413 -0.27553 0
M  V30 4231 N 413.868 0.0150385 -1.57593 0
M  V30 4232 C 415.093 0.718067 -1.94573 0
M  V30 4233 C 415.518 1.6734 -0.859005 0
M  V30 4234 O 414.876 1.80362 0.184147 0
M  V30 4235 C 414.924 1.43918 -3.30636 0
M  V30 4236 O 414.028 2.55299 -3.23876 0
M  V30 4237 H 413.369 0.192125 -0.635597 0
M  V30 4238 H 415.899 -0.0336708 -2.04572 0
M  V30 4239 H 415.909 1.80598 -3.65853 0
M  V30 4240 H 414.584 0.738619 -4.09289 0
M  V30 4241 H 413.161 2.21058 -3.00312 0
M  V30 4242 N 415.346 1.54954 0.287554 0
M  V30 4243 C 416.276 1.89839 1.35954 0
M  V30 4244 C 417.257 0.758675 1.52244 0
M  V30 4245 O 418.442 1.01557 1.65529 0
M  V30 4246 C 415.572 2.15753 2.72154 0
M  V30 4247 C 414.526 3.3159 2.70614 0
M  V30 4248 C 413.852 3.42952 4.10229 0
M  V30 4249 C 415.152 4.68359 2.31165 0
M  V30 4250 H 416.846 2.79625 1.07007 0
M  V30 4251 H 414.392 1.3454 0.513316 0
M  V30 4252 H 416.345 2.38743 3.47246 0
M  V30 4253 H 415.069 1.22752 3.02654 0
M  V30 4254 H 413.728 3.08545 1.97979 0
M  V30 4255 H 413.376 2.47443 4.37928 0
M  V30 4256 H 413.076 4.20826 4.10097 0
M  V30 4257 H 414.6 3.68218 4.87081 0
M  V30 4258 H 416.014 4.9099 2.95976 0
M  V30 4259 H 414.411 5.49044 2.42221 0
M  V30 4260 H 415.481 4.68165 1.26291 0
M  V30 4261 N 416.824 -0.551391 1.4764 0
M  V30 4262 C 418.101 -1.31229 1.45046 0
M  V30 4263 C 418.481 -2.10563 0.150527 0
M  V30 4264 O 417.829 -2.11374 -0.867956 0
M  V30 4265 C 418.039 -2.21189 2.69956 0
M  V30 4266 C 419.387 -2.82021 3.1741 0
M  V30 4267 O 420.411 -2.31488 2.70724 0
M  V30 4268 O 419.27 -3.73885 3.98588 0
M  V30 4269 H 416.364 -0.591193 0.578291 0
M  V30 4270 H 418.91 -0.569813 1.59847 0
M  V30 4271 H 417.682 -1.62207 3.56096 0
M  V30 4272 H 417.305 -3.02722 2.57769 0
M  V30 4273 N 418.302 -1.35869 -0.798587 0
M  V30 4274 C 419.235 -1.23801 -1.91699 0
M  V30 4275 C 420.213 -0.124143 -1.62125 0
M  V30 4276 O 421.397 -0.293656 -1.86199 0
M  V30 4277 C 418.524 -0.908063 -3.263 0
M  V30 4278 C 417.57 -2.0351 -3.74815 0
M  V30 4279 S 418.403 -3.65183 -3.91665 0
M  V30 4280 C 419.559 -3.34283 -5.29156 0
M  V30 4281 H 419.792 -2.18466 -2.01643 0
M  V30 4282 H 417.325 -1.21178 -0.956833 0
M  V30 4283 H 419.283 -0.724506 -4.04056 0
M  V30 4284 H 417.944 0.0206584 -3.14093 0
M  V30 4285 H 417.137 -1.75858 -4.72324 0
M  V30 4286 H 416.739 -2.1774 -3.04081 0
M  V30 4287 H 419.031 -2.87607 -6.13424 0
M  V30 4288 H 419.974 -4.31022 -5.61806 0
M  V30 4289 H 420.382 -2.69854 -4.95822 0
M  V30 4290 N 419.78 1.02168 -1.19998 0
M  V30 4291 C 420.73 2.08969 -0.911921 0
M  V30 4292 C 421.714 1.60404 0.12621 0
M  V30 4293 O 422.906 1.76817 -0.0804706 0
M  V30 4294 C 420.035 3.402 -0.460277 0
M  V30 4295 C 419.121 3.9548 -1.53155 0
M  V30 4296 N 419.512 4.24332 -2.75275 0
M  V30 4297 C 417.81 4.23572 -1.39653 0
M  V30 4298 C 418.511 4.68834 -3.44339 0
M  V30 4299 N 417.487 4.70804 -2.71744 0
M  V30 4300 H 421.289 2.29178 -1.83997 0
M  V30 4301 H 418.803 1.20094 -1.09322 0
M  V30 4302 H 420.8 4.16235 -0.235337 0
M  V30 4303 H 419.46 3.21408 0.4612 0
M  V30 4304 H 420.471 4.13393 -3.11973 0
M  V30 4305 H 417.148 4.14005 -0.539067 0
M  V30 4306 H 418.538 5.00019 -4.4881 0
M  V30 4307 N 421.258 1.00505 1.21394 0
M  V30 4308 C 422.506 0.686415 1.90086 0
M  V30 4309 C 422.827 -0.785264 1.7849 0
M  V30 4310 O 422.097 -1.56387 1.17983 0
M  V30 4311 H 420.677 0.2509 0.703604 0
M  V30 4312 H 423.339 1.27417 1.47482 0
M  V30 4313 H 422.435 0.959621 2.96981 0
M  V30 4314 N 422.737 -1.36956 0.779787 0
M  V30 4315 C 423.684 -2.30175 0.169697 0
M  V30 4316 C 424.654 -1.51501 -0.68094 0
M  V30 4317 O 425.839 -1.80042 -0.631629 0
M  V30 4318 C 422.979 -3.37985 -0.697131 0
M  V30 4319 C 422.092 -4.31661 0.170992 0
M  V30 4320 C 421.227 -5.2655 -0.701298 0
M  V30 4321 C 420.266 -6.11867 0.168869 0
M  V30 4322 N 419.403 -6.98973 -0.661855 0
M  V30 4323 H 424.243 -2.81767 0.970135 0
M  V30 4324 H 421.78 -1.38699 0.489994 0
M  V30 4325 H 423.738 -3.99128 -1.2146 0
M  V30 4326 H 422.368 -2.87739 -1.46309 0
M  V30 4327 H 421.42 -3.71756 0.80634 0
M  V30 4328 H 422.732 -4.91644 0.841875 0
M  V30 4329 H 421.886 -5.92937 -1.28494 0
M  V30 4330 H 420.625 -4.66998 -1.40584 0
M  V30 4331 H 419.63 -5.44452 0.764986 0
M  V30 4332 H 420.855 -6.73493 0.870863 0
M  V30 4333 H 418.801 -6.41941 -1.35086 0
M  V30 4334 H 418.718 -7.55984 -0.0484447 0
M  V30 4335 H 419.986 -7.6974 -1.22963 0
M  V30 4336 N 424.215 -0.530993 -1.48385 0
M  V30 4337 C 425.631 -0.188919 -1.58478 0
M  V30 4338 C 425.831 1.30786 -1.53288 0
M  V30 4339 O 424.887 2.08619 -1.42248 0
M  V30 4340 C 426.2 -0.792343 -2.90073 0
M  V30 4341 C 427.748 -0.76117 -3.03604 0
M  V30 4342 C 428.223 -1.34319 -4.37861 0
M  V30 4343 N 429.714 -1.3052 -4.44431 0
M  V30 4344 C 430.449 -1.72543 -5.46824 0
M  V30 4345 N 429.945 -2.22299 -6.56167 0
M  V30 4346 N 431.738 -1.63773 -5.37712 0
M  V30 4347 H 423.889 -1.50377 -1.50002 0
M  V30 4348 H 426.152 -0.625559 -0.712306 0
M  V30 4349 H 425.858 -1.84323 -2.99529 0
M  V30 4350 H 425.732 -0.270026 -3.76232 0
M  V30 4351 H 428.119 0.280957 -2.93759 0
M  V30 4352 H 428.2 -1.32097 -2.19053 0
M  V30 4353 H 427.844 -2.38425 -4.4846 0
M  V30 4354 H 427.774 -0.759064 -5.21101 0
M  V30 4355 H 430.265 -0.940973 -3.65997 0
M  V30 4356 H 430.578 -2.52356 -7.30436 0
M  V30 4357 H 428.923 -2.26293 -6.57127 0
M  V30 4358 H 432.114 -1.24698 -4.51185 0
M  V30 4359 H 432.287 -1.96844 -6.17379 0
M  V30 4360 N 425.693 1.55336 -0.266172 0
M  V30 4361 C 427.104 1.85236 0.233315 0
M  V30 4362 C 427.455 1.18816 1.56132 0
M  V30 4363 O 426.58 0.473307 2.11161 0
M  V30 4364 C 427.175 3.36059 0.430113 0
M  V30 4365 C 425.734 3.66116 0.873842 0
M  V30 4366 C 424.881 2.77274 -0.0380016 0
M  V30 4367 H 427.832 1.51004 -0.488214 0
M  V30 4368 H 427.853 3.58681 1.26998 0
M  V30 4369 H 427.365 3.84373 -0.536588 0
M  V30 4370 H 425.466 3.23295 1.85233 0
M  V30 4371 H 425.579 4.73699 0.717358 0
M  V30 4372 H 423.943 2.50198 0.476759 0
M  V30 4373 H 424.726 3.284 -1.00042 0
M  V30 4374 N 427.171 -0.0066808 1.57599 0
M  V30 4375 C 428.118 -1.00024 2.08 0
M  V30 4376 C 429.088 -1.34549 0.973943 0
M  V30 4377 O 430.273 -1.44502 1.24595 0
M  V30 4378 C 427.413 -2.2891 2.58252 0
M  V30 4379 C 426.526 -2.00346 3.82734 0
M  V30 4380 C 425.661 -3.23265 4.21513 0
M  V30 4381 C 424.7 -2.90357 5.3885 0
M  V30 4382 N 423.837 -4.05793 5.72954 0
M  V30 4383 H 428.677 -0.563499 2.92624 0
M  V30 4384 H 426.214 -0.266592 1.44664 0
M  V30 4385 H 428.172 -3.04247 2.85464 0
M  V30 4386 H 426.802 -2.70265 1.76512 0
M  V30 4387 H 425.854 -1.15406 3.62471 0
M  V30 4388 H 427.166 -1.72086 4.68175 0
M  V30 4389 H 426.32 -4.06953 4.49971 0
M  V30 4390 H 425.059 -3.54657 3.34768 0
M  V30 4391 H 424.064 -2.05075 5.10122 0
M  V30 4392 H 425.289 -2.60219 6.27266 0
M  V30 4393 H 423.235 -4.37094 4.89167 0
M  V30 4394 H 423.152 -3.81034 6.52954 0
M  V30 4395 H 424.42 -4.90289 6.06001 0
M  V30 4396 N 428.649 -1.55105 -0.279332 0
M  V30 4397 C 429.612 -1.86783 -1.32834 0
M  V30 4398 C 430.612 -0.74199 -1.42657 0
M  V30 4399 O 431.802 -1.0102 -1.41918 0
M  V30 4400 C 428.934 -2.06746 -2.71052 0
M  V30 4401 H 430.127 -2.8055 -1.05979 0
M  V30 4402 H 427.68 -1.47499 -0.517087 0
M  V30 4403 H 428.415 -1.15339 -3.03097 0
M  V30 4404 H 428.2 -2.88711 -2.65309 0
M  V30 4405 H 429.69 -2.32549 -3.46858 0
M  V30 4406 N 430.127 0.543554 -1.4793 0
M  V30 4407 C 431.373 1.30201 -1.55485 0
M  V30 4408 C 431.706 1.92925 -0.222201 0
M  V30 4409 O 430.981 1.78586 0.77053 0
M  V30 4410 C 431.264 2.40174 -2.68307 0
M  V30 4411 C 431.117 1.8223 -4.11233 0
M  V30 4412 C 432.436 3.42024 -2.76961 0
M  V30 4413 H 429.555 0.472036 -0.565996 0
M  V30 4414 H 432.197 0.606914 -1.80046 0
M  V30 4415 H 430.347 2.99463 -2.47495 0
M  V30 4416 H 432.019 1.27096 -4.43446 0
M  V30 4417 H 430.262 1.12832 -4.18869 0
M  V30 4418 H 430.933 2.61793 -4.85972 0
M  V30 4419 H 433.409 2.92672 -2.95774 0
M  V30 4420 H 432.285 4.16383 -3.57654 0
M  V30 4421 H 432.546 4.0173 -1.84568 0
M  V30 4422 N 431.605 1.3629 0.791371 0
M  V30 4423 C 432.553 1.30514 1.92533 0
M  V30 4424 C 433.547 0.197285 1.68247 0
M  V30 4425 O 434.753 0.364176 1.76278 0
M  V30 4426 H 431.128 0.406263 0.632815 0
M  V30 4427 H 433.099 2.26282 1.94523 0
M  V30 4428 C 431.848 1.10933 3.29529 0
M  V30 4429 H 431.171 1.95427 3.48781 0
M  V30 4430 H 432.611 1.10937 4.0923 0
M  V30 4431 C 431.07 -0.186123 3.36385 0
M  V30 4432 O 431.6 -1.17664 3.84081 0
M  V30 4433 N 429.806 -0.230128 2.89687 0
M  V30 4434 H 429.353 0.576545 2.51065 0
M  V30 4435 H 429.311 -1.09658 2.94657 0
M  V30 4436 N 433.083 -1.0153 1.20538 0
M  V30 4437 C 434.329 -1.75408 1.01783 0
M  V30 4438 C 434.662 -1.88943 -0.448814 0
M  V30 4439 O 433.937 -1.4162 -1.33319 0
M  V30 4440 C 434.22 -3.17255 1.70356 0
M  V30 4441 C 434.073 -3.11508 3.24473 0
M  V30 4442 C 435.392 -4.15955 1.43769 0
M  V30 4443 H 432.511 -0.636713 0.371167 0
M  V30 4444 H 435.153 -1.18436 1.4857 0
M  V30 4445 H 433.303 -3.65898 1.30578 0
M  V30 4446 H 434.975 -2.70658 3.73553 0
M  V30 4447 H 433.218 -2.4887 3.55311 0
M  V30 4448 H 433.889 -4.11784 3.67611 0
M  V30 4449 H 436.365 -3.75973 1.7828 0
M  V30 4450 H 435.241 -5.13368 1.94279 0
M  V30 4451 H 435.502 -4.40586 0.365564 0
M  V30 4452 N 434.561 -1.01147 -1.20859 0
M  V30 4453 C 435.977 -0.725422 -1.42161 0
M  V30 4454 C 436.177 0.696919 -1.89064 0
M  V30 4455 O 435.233 1.46539 -2.05627 0
M  V30 4456 C 436.546 -1.74678 -2.44761 0
M  V30 4457 C 438.094 -1.76433 -2.58535 0
M  V30 4458 C 438.569 -2.77481 -3.64374 0
M  V30 4459 N 440.06 -2.76189 -3.71852 0
M  V30 4460 C 440.795 -3.51035 -4.53389 0
M  V30 4461 N 440.291 -4.35541 -5.38773 0
M  V30 4462 N 442.084 -3.39655 -4.47873 0
M  V30 4463 H 434.235 -1.92979 -0.887282 0
M  V30 4464 H 436.498 -0.833327 -0.451962 0
M  V30 4465 H 436.204 -2.76551 -2.17285 0
M  V30 4466 H 436.078 -1.55472 -3.43669 0
M  V30 4467 H 438.465 -0.75248 -2.85345 0
M  V30 4468 H 438.546 -1.99712 -1.5984 0
M  V30 4469 H 438.19 -3.78827 -3.38308 0
M  V30 4470 H 438.12 -2.51466 -4.6268 0
M  V30 4471 H 440.611 -2.14885 -3.10858 0
M  V30 4472 H 440.924 -4.89432 -5.98061 0
M  V30 4473 H 439.269 -4.39621 -5.38292 0
M  V30 4474 H 442.46 -2.73063 -3.80203 0
M  V30 4475 H 442.633 -3.9824 -5.11184 0
M  V30 4476 N 436.039 1.36541 -0.78704 0
M  V30 4477 C 437.267 2.03561 -0.370199 0
M  V30 4478 C 437.682 1.59347 1.01263 0
M  V30 4479 O 437.039 0.781781 1.64907 0
M  V30 4480 C 437.09 3.59033 -0.421614 0
M  V30 4481 O 436.811 4.01634 -1.7499 0
M  V30 4482 C 438.312 4.433 0.00489763 0
M  V30 4483 H 435.532 0.653346 -0.152904 0
M  V30 4484 H 438.076 1.74566 -1.06522 0
M  V30 4485 H 436.231 3.86746 0.224971 0
M  V30 4486 H 436.645 4.96217 -1.69909 0
M  V30 4487 H 438.119 5.51939 -0.0822184 0
M  V30 4488 H 438.596 4.26285 1.05723 0
M  V30 4489 H 439.202 4.20843 -0.614085 0
M  V30 4490 N 437.518 0.538854 1.48102 0
M  V30 4491 C 438.481 -0.208395 2.28251 0
M  V30 4492 C 439.481 -0.859656 1.35892 0
M  V30 4493 O 440.671 -0.71834 1.58699 0
M  V30 4494 C 437.803 -1.30252 3.15035 0
M  V30 4495 H 438.996 0.495407 2.9578 0
M  V30 4496 H 436.549 0.295112 1.53489 0
M  V30 4497 H 437.284 -2.0393 2.52157 0
M  V30 4498 H 437.069 -0.840551 3.82985 0
M  V30 4499 H 438.559 -1.82787 3.75471 0
M  V30 4500 N 438.996 -1.55193 0.274407 0
M  V30 4501 C 440.407 -1.85358 -0.223488 0
M  V30 4502 C 440.758 -1.19642 -1.555 0
M  V30 4503 O 439.883 -0.484498 -2.10907 0
M  V30 4504 C 440.478 -3.36282 -0.412285 0
M  V30 4505 C 439.037 -3.66574 -0.854413 0
M  V30 4506 C 438.184 -2.7725 0.0527056 0
M  V30 4507 H 441.135 -1.50743 0.496215 0
M  V30 4508 H 441.156 -3.59349 -1.25094 0
M  V30 4509 H 440.668 -3.84083 0.556965 0
M  V30 4510 H 438.769 -3.24273 -1.83516 0
M  V30 4511 H 438.882 -4.74073 -0.692226 0
M  V30 4512 H 437.246 -2.50447 -0.463484 0
M  V30 4513 H 438.029 -3.27865 1.01783 0
M  V30 4514 N 440.474 -0.00167713 -1.576 0
M  V30 4515 C 441.424 0.997744 -2.0501 0
M  V30 4516 C 442.408 1.30214 -0.94515 0
M  V30 4517 O 443.6 1.29284 -1.20891 0
M  V30 4518 C 440.729 2.2892 -2.55833 0
M  V30 4519 C 439.815 2.01437 -3.73208 0
M  V30 4520 N 440.206 1.44119 -4.84833 0
M  V30 4521 C 438.504 2.31571 -3.8117 0
M  V30 4522 C 439.205 1.33145 -5.66257 0
M  V30 4523 N 438.181 1.81763 -5.12312 0
M  V30 4524 H 441.983 0.549098 -2.88725 0
M  V30 4525 H 439.497 0.20398 -1.61114 0
M  V30 4526 H 441.494 3.01361 -2.88075 0
M  V30 4527 H 440.154 2.74436 -1.73537 0
M  V30 4528 H 441.165 1.11978 -5.0565 0
M  V30 4529 H 437.842 2.7995 -3.09732 0
M  V30 4530 H 439.232 0.890567 -6.65972 0
M  V30 4531 N 441.952 1.55251 0.271103 0
M  V30 4532 C 443.363 1.66635 0.842007 0
M  V30 4533 C 443.714 0.594631 1.86972 0
M  V30 4534 O 442.839 -0.263532 2.14789 0
M  V30 4535 C 443.434 3.02082 1.53401 0
M  V30 4536 C 441.993 3.15487 2.05293 0
M  V30 4537 C 441.14 2.62438 0.895631 0
M  V30 4538 H 444.091 1.58629 0.0474117 0
M  V30 4539 H 444.112 2.95176 2.40107 0
M  V30 4540 H 443.624 3.80062 0.785786 0
M  V30 4541 H 441.725 2.42284 2.83071 0
M  V30 4542 H 441.838 4.22075 2.26693 0
M  V30 4543 H 440.202 2.19644 1.28953 0
M  V30 4544 H 440.985 3.42923 0.160878 0
M  V30 4545 N 443.43 -0.535701 1.48216 0
M  V30 4546 C 444.393 -1.623 1.61838 0
M  V30 4547 C 445.393 -1.53087 0.492024 0
M  V30 4548 O 446.583 -1.5686 0.757668 0
M  V30 4549 C 443.715 -3.01907 1.58319 0
M  V30 4550 H 444.908 -1.51564 2.58783 0
M  V30 4551 H 442.461 -0.757317 1.36727 0
M  V30 4552 H 443.196 -3.18155 0.628299 0
M  V30 4553 H 442.981 -3.10003 2.40085 0
M  V30 4554 H 444.471 -3.80969 1.71033 0
M  V30 4555 N 444.908 -1.36708 -0.784132 0
M  V30 4556 C 446.155 -1.31231 -1.54222 0
M  V30 4557 C 446.483 0.106864 -1.94206 0
M  V30 4558 O 445.738 1.07734 -1.63376 0
M  V30 4559 C 446.037 -2.18571 -2.82774 0
M  V30 4560 C 445.703 -3.67039 -2.61903 0
M  V30 4561 C 444.365 -4.07503 -2.55919 0
M  V30 4562 C 446.717 -4.61149 -2.4288 0
M  V30 4563 C 444.045 -5.40211 -2.28886 0
M  V30 4564 C 446.397 -5.94081 -2.17373 0
M  V30 4565 C 445.061 -6.33664 -2.09825 0
M  V30 4566 H 444.331 -0.48021 -0.56434 0
M  V30 4567 H 446.978 -1.68807 -0.904233 0
M  V30 4568 H 445.283 -1.73949 -3.51068 0
M  V30 4569 H 446.98 -2.11655 -3.40592 0
M  V30 4570 H 443.57 -3.34941 -2.67418 0
M  V30 4571 H 447.754 -4.30756 -2.46501 0
M  V30 4572 H 443.01 -5.69855 -2.21529 0
M  V30 4573 H 447.184 -6.66566 -2.01649 0
M  V30 4574 H 444.811 -7.36423 -1.88641 0
M  V30 4575 N 446.386 1.0089 -1.21074 0
M  V30 4576 C 447.797 1.56056 -1.02486 0
M  V30 4577 C 448.148 1.91728 0.416506 0
M  V30 4578 O 447.273 1.73066 1.29912 0
M  V30 4579 C 447.868 2.83563 -1.85411 0
M  V30 4580 C 446.427 3.3523 -1.71166 0
M  V30 4581 C 445.574 2.0846 -1.82865 0
M  V30 4582 H 448.525 0.831818 -1.35154 0
M  V30 4583 H 448.546 3.55286 -1.36205 0
M  V30 4584 H 448.058 2.57569 -2.9031 0
M  V30 4585 H 446.159 3.66167 -0.689361 0
M  V30 4586 H 446.272 4.06913 -2.52901 0
M  V30 4587 H 444.636 2.21275 -1.26132 0
M  V30 4588 H 445.419 1.84883 -2.89263 0
M  V30 4589 N 447.864 1.01787 1.20321 0
M  V30 4590 C 449.092 0.727194 1.937 0
M  V30 4591 C 449.507 -0.712305 1.74848 0
M  V30 4592 O 448.864 -1.48327 1.06327 0
M  V30 4593 C 448.915 1.05497 3.45764 0
M  V30 4594 O 448.636 2.43794 3.64 0
M  V30 4595 C 450.137 0.785534 4.36285 0
M  V30 4596 H 447.357 0.266939 0.615617 0
M  V30 4597 H 449.901 1.35939 1.52777 0
M  V30 4598 H 448.056 0.468158 3.84561 0
M  V30 4599 H 448.47 2.55656 4.57974 0
M  V30 4600 H 449.944 1.06495 5.4163 0
M  V30 4601 H 450.421 -0.280273 4.38305 0
M  V30 4602 H 451.027 1.35456 4.03152 0
M  V30 4603 N 449.342 -1.36122 0.79427 0
M  V30 4604 C 450.619 -1.93398 0.292685 0
M  V30 4605 C 450.999 -1.72567 -1.21589 0
M  V30 4606 O 450.347 -1.08745 -2.00965 0
M  V30 4607 C 450.557 -3.42099 0.690614 0
M  V30 4608 C 451.905 -4.19231 0.673105 0
M  V30 4609 O 452.929 -3.50559 0.631389 0
M  V30 4610 O 451.788 -5.41732 0.720362 0
M  V30 4611 H 448.882 -0.823712 0.0736693 0
M  V30 4612 H 451.428 -1.45273 0.87714 0
M  V30 4613 H 450.2 -3.50938 1.73085 0
M  V30 4614 H 449.823 -3.97519 0.0803036 0
M  V30 4615 N 450.82 -0.546701 -1.47814 0
M  V30 4616 C 451.753 0.254472 -2.26777 0
M  V30 4617 C 452.731 0.929809 -1.33392 0
M  V30 4618 O 453.915 0.950889 -1.62759 0
M  V30 4619 C 451.042 1.36171 -3.10121 0
M  V30 4620 C 450.088 0.796038 -4.19005 0
M  V30 4621 S 450.921 -0.349191 -5.3436 0
M  V30 4622 C 452.077 0.760122 -6.21267 0
M  V30 4623 H 452.31 -0.415612 -2.94381 0
M  V30 4624 H 449.843 -0.332809 -1.5077 0
M  V30 4625 H 451.801 1.99588 -3.58713 0
M  V30 4626 H 450.462 2.00359 -2.41899 0
M  V30 4627 H 449.655 1.62719 -4.7701 0
M  V30 4628 H 449.257 0.238246 -3.7324 0
M  V30 4629 H 451.549 1.65479 -6.5698 0
M  V30 4630 H 452.492 0.217673 -7.07765 0
M  V30 4631 H 452.9 1.04806 -5.54685 0
M  V30 4632 N 452.299 1.55045 -0.282633 0
M  V30 4633 C 453.231 2.2023 0.634924 0
M  V30 4634 C 454.244 1.18931 1.11172 0
M  V30 4635 O 455.433 1.4562 1.03233 0
M  V30 4636 C 452.533 2.82041 1.87899 0
M  V30 4637 C 451.706 4.091 1.54776 0
M  V30 4638 C 450.765 4.54887 2.64507 0
M  V30 4639 O 449.791 5.20496 2.30375 0
M  V30 4640 N 450.993 4.25659 3.94709 0
M  V30 4641 H 453.758 2.99601 0.0769811 0
M  V30 4642 H 451.319 1.61565 -0.104048 0
M  V30 4643 H 453.311 3.09613 2.60619 0
M  V30 4644 H 451.881 2.06618 2.3458 0
M  V30 4645 H 451.101 3.88736 0.654049 0
M  V30 4646 H 452.389 4.9187 1.30158 0
M  V30 4647 H 451.787 3.7306 4.25256 0
M  V30 4648 H 450.344 4.57984 4.63782 0
M  V30 4649 N 453.777 0.010035 1.57597 0
M  V30 4650 C 454.74 -0.963029 2.07986 0
M  V30 4651 C 455.74 -1.26619 0.991173 0
M  V30 4652 O 456.93 -1.2097 1.25347 0
M  V30 4653 C 454.062 -2.2851 2.52974 0
M  V30 4654 H 455.255 -0.526971 2.95234 0
M  V30 4655 H 452.808 -0.237639 1.54483 0
M  V30 4656 H 453.543 -2.76784 1.69 0
M  V30 4657 H 453.328 -2.07824 3.32493 0
M  V30 4658 H 454.818 -2.98294 2.9225 0
M  V30 4659 N 455.255 -1.55392 -0.262866 0
M  V30 4660 C 456.187 -1.85392 -1.34768 0
M  V30 4661 C 457.2 -0.739069 -1.45057 0
M  V30 4662 O 458.389 -1.01703 -1.46693 0
M  V30 4663 C 455.489 -2.01088 -2.72795 0
M  V30 4664 C 454.662 -3.31828 -2.84972 0
M  V30 4665 C 453.721 -3.37464 -4.03738 0
M  V30 4666 O 452.747 -4.10778 -3.94018 0
M  V30 4667 N 453.949 -2.65599 -5.16176 0
M  V30 4668 H 456.714 -2.79029 -1.09375 0
M  V30 4669 H 454.275 -1.55434 -0.452981 0
M  V30 4670 H 456.267 -2.02217 -3.50557 0
M  V30 4671 H 454.837 -1.1427 -2.90966 0
M  V30 4672 H 454.057 -3.43152 -1.94012 0
M  V30 4673 H 455.345 -4.18032 -2.90045 0
M  V30 4674 H 454.743 -2.05736 -5.26962 0
M  V30 4675 H 453.3 -2.72439 -5.92132 0
M  V30 4676 N 456.733 0.527833 -1.48498 0
M  V30 4677 C 457.98 1.28354 -1.56625 0
M  V30 4678 C 458.308 1.93 -0.241096 0
M  V30 4679 O 457.563 1.79967 0.768798 0
M  V30 4680 C 457.862 2.39275 -2.65485 0
M  V30 4681 C 457.528 1.92268 -4.07853 0
M  V30 4682 C 456.19 1.79166 -4.46602 0
M  V30 4683 C 458.542 1.56771 -4.97064 0
M  V30 4684 C 455.87 1.28905 -5.72364 0
M  V30 4685 C 458.222 1.07972 -6.23318 0
M  V30 4686 C 456.886 0.934887 -6.60921 0
M  V30 4687 H 456.156 0.469682 -0.573131 0
M  V30 4688 H 458.803 0.588781 -1.82224 0
M  V30 4689 H 457.108 3.1443 -2.33754 0
M  V30 4690 H 458.805 2.974 -2.68988 0
M  V30 4691 H 455.395 2.03417 -3.77252 0
M  V30 4692 H 459.579 1.65753 -4.67803 0
M  V30 4693 H 454.835 1.16381 -6.00221 0
M  V30 4694 H 459.009 0.795775 -6.91838 0
M  V30 4695 H 456.636 0.543231 -7.58257 0
M  V30 4696 N 458.211 1.37122 0.776871 0
M  V30 4697 C 459.439 1.3523 1.5659 0
M  V30 4698 C 459.854 -0.0635518 1.88693 0
M  V30 4699 O 459.211 -1.02394 1.51069 0
M  V30 4700 C 459.262 2.18583 2.8793 0
M  V30 4701 O 458.983 3.5465 2.57206 0
M  V30 4702 C 460.484 2.24612 3.82183 0
M  V30 4703 H 457.704 0.4634 0.485285 0
M  V30 4704 H 460.248 1.80392 0.963266 0
M  V30 4705 H 458.403 1.76943 3.4463 0
M  V30 4706 H 458.817 3.98286 3.41275 0
M  V30 4707 H 460.291 2.87267 4.71361 0
M  V30 4708 H 460.768 1.25309 4.20944 0
M  V30 4709 H 461.374 2.66543 3.31414 0
M  V30 4710 N 459.689 -1.00246 1.21608 0
M  V30 4711 C 460.619 -2.10921 1.00172 0
M  V30 4712 C 461.6 -1.69938 -0.0741587 0
M  V30 4713 O 462.785 -1.94009 0.0861753 0
M  V30 4714 C 459.915 -3.42618 0.568355 0
M  V30 4715 C 458.869 -3.97407 1.58909 0
M  V30 4716 C 458.195 -5.25038 1.01187 0
M  V30 4717 C 459.495 -4.2918 2.97661 0
M  V30 4718 H 461.189 -2.29112 1.92739 0
M  V30 4719 H 458.735 -1.10101 0.928102 0
M  V30 4720 H 460.688 -4.19444 0.405555 0
M  V30 4721 H 459.412 -3.24227 -0.392961 0
M  V30 4722 H 458.071 -3.22703 1.73949 0
M  V30 4723 H 457.719 -5.02982 0.0421965 0
M  V30 4724 H 457.419 -5.62661 1.6937 0
M  V30 4725 H 458.943 -6.04507 0.860448 0
M  V30 4726 H 460.357 -4.96839 2.86049 0
M  V30 4727 H 458.754 -4.77952 3.6288 0
M  V30 4728 H 459.824 -3.3735 3.48315 0
M  V30 4729 N 461.167 -1.02423 -1.1978 0
M  V30 4730 C 462.097 -0.62157 -2.25075 0
M  V30 4731 C 463.078 0.367148 -1.6609 0
M  V30 4732 O 464.263 0.250892 -1.92573 0
M  V30 4733 C 461.393 0.0331826 -3.47284 0
M  V30 4734 C 460.347 -0.877323 -4.18912 0
M  V30 4735 C 459.673 -0.0879296 -5.34628 0
M  V30 4736 C 460.973 -2.18892 -4.74219 0
M  V30 4737 H 462.667 -1.50179 -2.59011 0
M  V30 4738 H 460.213 -0.723547 -1.24502 0
M  V30 4739 H 462.166 0.326488 -4.20133 0
M  V30 4740 H 460.89 0.948164 -3.12534 0
M  V30 4741 H 459.549 -1.15475 -3.47938 0
M  V30 4742 H 459.197 0.828941 -4.96123 0
M  V30 4743 H 458.897 -0.694359 -5.83483 0
M  V30 4744 H 460.421 0.198743 -6.10276 0
M  V30 4745 H 461.835 -1.95746 -5.38847 0
M  V30 4746 H 460.232 -2.74686 -5.33542 0
M  V30 4747 H 461.302 -2.84674 -3.92541 0
M  V30 4748 N 462.645 1.35699 -0.801477 0
M  V30 4749 C 463.593 2.3177 -0.196317 0
M  V30 4750 C 464.587 1.56388 0.651081 0
M  V30 4751 O 465.793 1.71557 0.544815 0
M  V30 4752 H 462.168 0.750669 -0.0447189 0
M  V30 4753 H 464.139 2.8036 -1.02181 0
M  V30 4754 C 462.888 3.41671 0.644702 0
M  V30 4755 H 462.211 3.998 0.0019921 0
M  V30 4756 H 463.651 4.11184 1.0346 0
M  V30 4757 C 462.11 2.84271 1.80808 0
M  V30 4758 O 462.64 2.77408 2.9053 0
M  V30 4759 N 460.846 2.41391 1.61799 0
M  V30 4760 H 460.393 2.47173 0.725493 0
M  V30 4761 H 460.351 2.03334 2.39797 0
M  V30 4762 N 464.123 0.554532 1.47522 0
M  V30 4763 C 465.053 -0.182974 2.32782 0
M  V30 4764 C 466.034 -0.911377 1.43624 0
M  V30 4765 O 467.219 -0.892366 1.72483 0
M  V30 4766 C 464.349 -1.21513 3.25349 0
M  V30 4767 C 463.303 -0.603355 4.23726 0
M  V30 4768 C 462.629 -1.73995 5.05598 0
M  V30 4769 C 463.929 0.441121 5.20434 0
M  V30 4770 H 465.623 0.52882 2.94693 0
M  V30 4771 H 463.169 0.255759 1.41711 0
M  V30 4772 H 465.122 -1.73922 3.83835 0
M  V30 4773 H 463.846 -1.95683 2.61487 0
M  V30 4774 H 462.505 -0.10059 3.66462 0
M  V30 4775 H 462.153 -2.47063 4.38143 0
M  V30 4776 H 461.853 -1.3364 5.72201 0
M  V30 4777 H 463.377 -2.26735 5.66942 0
M  V30 4778 H 464.791 0.00319931 5.733 0
M  V30 4779 H 463.188 0.763402 5.95224 0
M  V30 4780 H 464.258 1.33799 4.66075 0
M  V30 4781 N 465.601 -1.54893 0.290851 0
M  V30 4782 C 466.847 -2.0023 -0.321867 0
M  V30 4783 C 467.18 -1.179 -1.54316 0
M  V30 4784 O 466.455 -0.25293 -1.92848 0
M  V30 4785 C 466.738 -3.53456 -0.688515 0
M  V30 4786 C 466.591 -4.46532 0.541209 0
M  V30 4787 C 467.91 -4.13057 -1.51895 0
M  V30 4788 H 465.029 -0.727891 -0.115515 0
M  V30 4789 H 467.671 -1.85722 0.400931 0
M  V30 4790 H 465.821 -3.6595 -1.30433 0
M  V30 4791 H 467.493 -4.4596 1.17973 0
M  V30 4792 H 465.736 -4.17545 1.17636 0
M  V30 4793 H 466.407 -5.51475 0.240675 0
M  V30 4794 H 468.883 -4.03937 -0.99872 0
M  V30 4795 H 467.759 -5.20448 -1.74429 0
M  V30 4796 H 468.02 -3.64284 -2.50498 0
M  V30 4797 N 467.08 -0.0183926 -1.57589 0
M  V30 4798 C 468.043 0.951986 -2.08494 0
M  V30 4799 C 469.043 1.26092 -0.997874 0
M  V30 4800 O 470.233 1.20304 -1.25987 0
M  V30 4801 C 467.365 2.27165 -2.54182 0
M  V30 4802 H 468.558 0.511307 -2.95509 0
M  V30 4803 H 466.111 0.229444 -1.54607 0
M  V30 4804 H 466.846 2.75884 -1.70465 0
M  V30 4805 H 466.631 2.06057 -3.33591 0
M  V30 4806 H 468.121 2.9674 -2.93828 0
M  V30 4807 N 468.558 1.5553 0.254621 0
M  V30 4808 C 469.468 1.92789 1.33677 0
M  V30 4809 C 470.484 0.827356 1.53071 0
M  V30 4810 O 471.66 1.12807 1.66843 0
M  V30 4811 C 468.725 2.20827 2.67275 0
M  V30 4812 C 467.786 3.4427 2.5647 0
M  V30 4813 C 467.019 3.70961 3.83697 0
M  V30 4814 O 467.242 2.99852 4.85227 0
M  V30 4815 O 466.176 4.64491 3.82794 0
M  V30 4816 H 470.002 2.84945 1.05071 0
M  V30 4817 H 467.587 1.42312 0.454723 0
M  V30 4818 H 469.469 2.40204 3.46237 0
M  V30 4819 H 468.144 1.31851 2.9563 0
M  V30 4820 H 467.051 3.30209 1.75821 0
M  V30 4821 H 468.384 4.33524 2.33062 0
M  V30 4822 N 470.036 -0.519951 1.48776 0
M  V30 4823 C 471.284 -1.2727 1.56993 0
M  V30 4824 C 471.605 -1.9339 0.25004 0
M  V30 4825 O 470.875 -1.81822 -0.729216 0
M  V30 4826 H 469.455 -0.472732 0.578389 0
M  V30 4827 H 472.117 -0.604234 1.85297 0
M  V30 4828 H 471.213 -2.04669 2.3562 0
M  V30 4829 N 471.514 -1.37532 -0.769588 0
M  V30 4830 C 472.742 -1.36059 -1.55871 0
M  V30 4831 C 473.157 0.053544 -1.88724 0
M  V30 4832 O 472.514 1.01591 -1.5161 0
M  V30 4833 C 472.565 -2.20107 -2.86767 0
M  V30 4834 O 472.286 -3.56009 -2.55321 0
M  V30 4835 C 473.787 -2.26636 -3.80987 0
M  V30 4836 H 471.007 -0.465967 -0.482821 0
M  V30 4837 H 473.551 -1.80901 -0.953686 0
M  V30 4838 H 471.706 -1.78768 -3.43687 0
M  V30 4839 H 472.12 -4.0009 -3.39158 0
M  V30 4840 H 473.594 -2.89763 -4.69831 0
M  V30 4841 H 474.071 -1.2754 -4.20274 0
M  V30 4842 H 474.677 -2.68296 -3.29996 0
M  V30 4843 N 472.992 0.995999 -1.22138 0
M  V30 4844 C 474.24 1.73167 -1.042 0
M  V30 4845 C 474.561 1.90329 0.42423 0
M  V30 4846 O 473.831 1.4607 1.30539 0
M  V30 4847 H 472.411 0.641593 -0.38258 0
M  V30 4848 H 475.073 1.19974 -1.53598 0
M  V30 4849 H 474.169 2.72734 -1.51731 0
M  V30 4850 N 474.47 1.03057 1.19235 0
M  V30 4851 C 475.717 0.728019 1.88961 0
M  V30 4852 C 476.045 -0.743515 1.79728 0
M  V30 4853 O 475.3 -1.55729 1.1852 0
M  V30 4854 C 475.599 1.1268 3.39172 0
M  V30 4855 C 475.265 2.5969 3.68608 0
M  V30 4856 C 473.927 2.99854 3.76352 0
M  V30 4857 C 476.279 3.54793 3.81801 0
M  V30 4858 C 473.607 4.34031 3.94758 0
M  V30 4859 C 475.959 4.88675 4.0172 0
M  V30 4860 C 474.623 5.28526 4.07697 0
M  V30 4861 H 473.893 0.266401 0.691456 0
M  V30 4862 H 476.54 1.29373 1.41191 0
M  V30 4863 H 474.845 0.479722 3.88852 0
M  V30 4864 H 476.542 0.870203 3.91444 0
M  V30 4865 H 473.132 2.27575 3.63191 0
M  V30 4866 H 477.316 3.24914 3.7516 0
M  V30 4867 H 472.572 4.6444 3.97625 0
M  V30 4868 H 476.746 5.6228 4.1087 0
M  V30 4869 H 474.373 6.32506 4.21712 0
M  V30 4870 N 475.948 -1.35272 0.808662 0
M  V30 4871 C 477.197 -1.97963 0.386483 0
M  V30 4872 C 477.51 -1.64866 -1.05255 0
M  V30 4873 O 478.716 -2.20937 -1.57794 0
M  V30 4874 C 477.172 -3.54162 0.640096 0
M  V30 4875 C 476.78 -3.96166 2.0918 0
M  V30 4876 C 478.524 -4.23553 0.283376 0
M  V30 4877 C 476.431 -5.4522 2.29106 0
M  V30 4878 H 475.361 -0.740742 0.140774 0
M  V30 4879 H 478.012 -1.5431 0.993012 0
M  V30 4880 H 476.394 -3.95983 -0.0364117 0
M  V30 4881 H 477.568 -3.65491 2.80629 0
M  V30 4882 H 475.883 -3.3967 2.40859 0
M  V30 4883 H 478.48 -5.33124 0.410273 0
M  V30 4884 H 478.823 -4.09105 -0.770659 0
M  V30 4885 H 479.356 -3.8716 0.913884 0
M  V30 4886 H 476.095 -5.64638 3.32962 0
M  V30 4887 H 475.615 -5.77457 1.62184 0
M  V30 4888 H 477.294 -6.1171 2.1076 0
M  V30 4889 N 477.426 -0.562348 -1.47226 0
M  V30 4890 C 478.654 -0.0452275 -2.06851 0
M  V30 4891 C 479.069 1.25078 -1.41424 0
M  V30 4892 O 478.426 1.75156 -0.512513 0
M  V30 4893 C 478.477 0.148674 -3.61194 0
M  V30 4894 O 478.198 -1.09602 -4.24169 0
M  V30 4895 C 479.699 0.702488 -4.37699 0
M  V30 4896 H 476.919 -0.0481775 -0.669268 0
M  V30 4897 H 479.463 -0.777223 -1.89155 0
M  V30 4898 H 477.618 0.830817 -3.78386 0
M  V30 4899 H 478.032 -0.896982 -5.16773 0
M  V30 4900 H 479.506 0.78743 -5.46355 0
M  V30 4901 H 479.983 1.71493 -4.04335 0
M  V30 4902 H 480.589 0.0558772 -4.25263 0
M  V30 4903 N 478.904 1.54736 -0.299062 0
M  V30 4904 C 479.814 2.27127 0.587413 0
M  V30 4905 C 480.83 1.30575 1.15005 0
M  V30 4906 O 482.006 1.63554 1.17525 0
M  V30 4907 C 479.071 2.99645 1.74395 0
M  V30 4908 C 478.132 4.11731 1.21559 0
M  V30 4909 C 477.365 4.80781 2.317 0
M  V30 4910 O 477.588 4.4918 3.51558 0
M  V30 4911 O 476.522 5.68226 1.98501 0
M  V30 4912 H 480.348 3.037 0.000250109 0
M  V30 4913 H 477.933 1.49256 -0.0655919 0
M  V30 4914 H 479.815 3.45138 2.4178 0
M  V30 4915 H 478.49 2.25969 2.31775 0
M  V30 4916 H 477.397 3.70641 0.507514 0
M  V30 4917 H 478.73 4.87379 0.687233 0
M  V30 4918 N 480.382 0.0267497 1.57577 0
M  V30 4919 C 481.61 -0.662661 1.96001 0
M  V30 4920 C 482.025 -1.65799 0.903117 0
M  V30 4921 O 481.382 -1.82135 -0.115317 0
M  V30 4922 C 481.433 -1.37112 3.34488 0
M  V30 4923 O 481.154 -0.415683 4.36123 0
M  V30 4924 C 482.655 -2.15257 3.8753 0
M  V30 4925 H 479.875 -0.18287 0.6456 0
M  V30 4926 H 482.419 0.0858116 2.0432 0
M  V30 4927 H 480.574 -2.07101 3.27395 0
M  V30 4928 H 480.988 -0.918496 5.16395 0
M  V30 4929 H 482.462 -2.60285 4.86781 0
M  V30 4930 H 482.939 -2.99063 3.21649 0
M  V30 4931 H 483.545 -1.50231 3.97883 0
M  V30 4932 N 481.861 -1.55662 -0.24637 0
M  V30 4933 C 483.107 -1.77782 -0.975779 0
M  V30 4934 C 483.44 -0.592103 -1.84953 0
M  V30 4935 O 482.715 0.409588 -1.90138 0
M  V30 4936 C 482.998 -3.09788 -1.83584 0
M  V30 4937 C 482.851 -4.38764 -0.990241 0
M  V30 4938 C 484.17 -3.38029 -2.81823 0
M  V30 4939 H 481.289 -0.646789 -0.353317 0
M  V30 4940 H 483.931 -1.88398 -0.246248 0
M  V30 4941 H 482.081 -3.00869 -2.45784 0
M  V30 4942 H 483.753 -4.59675 -0.386897 0
M  V30 4943 H 481.996 -4.32798 -0.294626 0
M  V30 4944 H 482.667 -5.27514 -1.62584 0
M  V30 4945 H 485.143 -3.46915 -2.2976 0
M  V30 4946 H 484.019 -4.3161 -3.39122 0
M  V30 4947 H 484.28 -2.58968 -3.58313 0
M  V30 4948 N 483.339 0.512053 -1.4905 0
M  V30 4949 C 484.586 1.26686 -1.57978 0
M  V30 4950 C 484.914 1.92733 -0.261553 0
M  V30 4951 O 484.169 1.80772 0.749667 0
M  V30 4952 C 484.468 2.36446 -2.68008 0
M  V30 4953 C 484.134 1.87932 -4.09869 0
M  V30 4954 C 482.796 1.74419 -4.48477 0
M  V30 4955 C 485.148 1.5149 -4.98698 0
M  V30 4956 C 482.476 1.22827 -5.73699 0
M  V30 4957 C 484.828 1.01355 -6.24428 0
M  V30 4958 C 483.492 0.864735 -6.61875 0
M  V30 4959 H 482.762 0.463577 -0.578081 0
M  V30 4960 H 485.409 0.569421 -1.82838 0
M  V30 4961 H 483.714 3.11933 -2.37076 0
M  V30 4962 H 485.411 2.9453 -2.72127 0
M  V30 4963 H 482.001 1.99405 -3.79389 0
M  V30 4964 H 486.185 1.60782 -4.69535 0
M  V30 4965 H 481.441 1.10008 -6.01422 0
M  V30 4966 H 485.615 0.722351 -6.92644 0
M  V30 4967 H 483.242 0.462777 -7.5879 0
M  V30 4968 N 484.817 1.37938 0.762283 0
M  V30 4969 C 485.727 1.36681 1.90671 0
M  V30 4970 C 486.743 0.265078 1.71969 0
M  V30 4971 O 487.919 0.502055 1.95042 0
M  V30 4972 C 484.984 1.18211 3.25925 0
M  V30 4973 C 484.045 2.3811 3.57214 0
M  V30 4974 C 483.278 2.20512 4.86014 0
M  V30 4975 O 483.501 1.19429 5.57757 0
M  V30 4976 O 482.435 3.08911 5.16583 0
M  V30 4977 H 486.261 2.33091 1.94685 0
M  V30 4978 H 483.846 1.18767 0.906356 0
M  V30 4979 H 485.728 1.09937 4.06807 0
M  V30 4980 H 484.403 0.248807 3.22742 0
M  V30 4981 H 483.31 2.51958 2.76529 0
M  V30 4982 H 484.643 3.30041 3.65149 0
M  V30 4983 N 486.295 -0.989507 1.22664 0
M  V30 4984 C 487.243 -2.10148 0.997035 0
M  V30 4985 C 488.237 -1.6929 -0.0609783 0
M  V30 4986 O 489.443 -1.79766 0.0917523 0
M  V30 4987 H 485.818 -0.687256 0.305259 0
M  V30 4988 H 487.789 -2.26685 1.94053 0
M  V30 4989 C 486.538 -3.4257 0.595085 0
M  V30 4990 H 485.861 -3.74453 1.40089 0
M  V30 4991 H 487.301 -4.21344 0.473869 0
M  V30 4992 C 485.76 -3.29638 -0.695725 0
M  V30 4993 O 486.29 -3.61709 -1.74727 0
M  V30 4994 N 484.496 -2.82814 -0.668173 0
M  V30 4995 H 484.043 -2.56914 0.18787 0
M  V30 4996 H 484.001 -2.74544 -1.5321 0
M  V30 4997 N 487.773 -1.03688 -1.18687 0
M  V30 4998 C 489.189 -0.755413 -1.4059 0
M  V30 4999 C 489.389 0.656659 -1.905 0
M  V30 5000 O 488.445 1.42144 -2.08689 0
M  V30 5001 C 489.758 -1.7983 -2.41001 0
M  V30 5002 C 491.306 -1.81877 -2.54735 0
M  V30 5003 C 491.781 -2.85148 -3.58406 0
M  V30 5004 N 493.272 -2.84015 -3.6591 0
M  V30 5005 C 494.007 -3.60573 -4.45841 0
M  V30 5006 N 493.503 -4.46871 -5.29413 0
M  V30 5007 N 495.296 -3.49079 -4.40568 0
M  V30 5008 H 487.447 -1.94818 -0.846148 0
M  V30 5009 H 489.71 -0.842727 -0.434184 0
M  V30 5010 H 489.416 -2.81097 -2.1137 0
M  V30 5011 H 489.29 -1.62727 -3.40294 0
M  V30 5012 H 491.677 -0.812836 -2.83685 0
M  V30 5013 H 491.758 -2.03057 -1.55568 0
M  V30 5014 H 491.402 -3.85918 -3.30197 0
M  V30 5015 H 491.332 -2.61224 -4.57241 0
M  V30 5016 H 493.823 -2.21431 -3.0623 0
M  V30 5017 H 494.136 -5.02007 -5.87545 0
M  V30 5018 H 492.481 -4.5094 -5.28846 0
M  V30 5019 H 495.672 -2.81066 -3.74325 0
M  V30 5020 H 495.845 -4.08994 -5.02621 0
M  V30 5021 N 489.251 1.34841 -0.815825 0
M  V30 5022 C 490.498 1.98499 -0.400535 0
M  V30 5023 C 490.826 1.64699 1.03463 0
M  V30 5024 O 490.081 0.907006 1.73412 0
M  V30 5025 C 490.38 3.53273 -0.541541 0
M  V30 5026 C 490.046 4.06966 -1.94138 0
M  V30 5027 C 488.708 4.21341 -2.32433 0
M  V30 5028 C 491.06 4.35933 -2.85677 0
M  V30 5029 C 488.388 4.62007 -3.61617 0
M  V30 5030 C 490.74 4.78042 -4.14317 0
M  V30 5031 C 489.404 4.90622 -4.52599 0
M  V30 5032 H 488.674 0.72636 -0.146566 0
M  V30 5033 H 491.321 1.60902 -1.0384 0
M  V30 5034 H 489.626 3.91387 0.179741 0
M  V30 5035 H 491.323 4.00497 -0.20085 0
M  V30 5036 H 487.913 3.96235 -1.63388 0
M  V30 5037 H 492.097 4.24372 -2.57337 0
M  V30 5038 H 487.353 4.69937 -3.91113 0
M  V30 5039 H 491.527 4.99415 -4.85342 0
M  V30 5040 H 489.154 5.2189 -5.52752 0
M  V30 5041 N 490.729 0.570148 1.46925 0
M  V30 5042 C 491.662 -0.218362 2.27153 0
M  V30 5043 C 492.64 -0.90847 1.34854 0
M  V30 5044 O 493.824 -0.924875 1.64251 0
M  V30 5045 C 490.951 -1.3122 3.12248 0
M  V30 5046 C 489.997 -0.729277 4.20219 0
M  V30 5047 S 490.83 0.434159 5.33737 0
M  V30 5048 C 491.986 -0.661188 6.22398 0
M  V30 5049 H 492.219 0.462393 2.93682 0
M  V30 5050 H 489.752 0.356753 1.50222 0
M  V30 5051 H 491.71 -1.93856 3.61842 0
M  V30 5052 H 490.371 -1.96485 2.45056 0
M  V30 5053 H 489.564 -1.5511 4.79538 0
M  V30 5054 H 489.166 -0.178836 3.73572 0
M  V30 5055 H 491.458 -1.55006 6.5953 0
M  V30 5056 H 492.401 -0.105046 7.08022 0
M  V30 5057 H 492.809 -0.959682 5.56283 0
M  V30 5058 N 492.207 -1.54576 0.307264 0
M  V30 5059 C 493.157 -2.20467 -0.581249 0
M  V30 5060 C 494.141 -1.17972 -1.09414 0
M  V30 5061 O 495.333 -1.43667 -1.03387 0
M  V30 5062 C 492.462 -2.95369 -1.74963 0
M  V30 5063 C 491.548 -4.05186 -1.25241 0
M  V30 5064 N 491.939 -5.03577 -0.47364 0
M  V30 5065 C 490.237 -4.18841 -1.53259 0
M  V30 5066 C 490.938 -5.81328 -0.208083 0
M  V30 5067 N 489.914 -5.37834 -0.789651 0
M  V30 5068 H 493.716 -2.93892 0.0212221 0
M  V30 5069 H 491.23 -1.62011 0.112325 0
M  V30 5070 H 493.227 -3.41046 -2.39777 0
M  V30 5071 H 491.887 -2.23461 -2.35574 0
M  V30 5072 H 492.898 -5.17766 -0.117963 0
M  V30 5073 H 489.575 -3.58141 -2.14573 0
M  V30 5074 H 490.965 -6.706 0.417793 0
M  V30 5075 N 493.685 -0.035106 -1.57561 0
M  V30 5076 C 494.931 0.64318 -1.92331 0
M  V30 5077 C 495.264 1.71434 -0.912368 0
M  V30 5078 O 494.539 1.94395 0.0640303 0
M  V30 5079 C 494.822 1.25411 -3.37556 0
M  V30 5080 C 494.675 0.192109 -4.4939 0
M  V30 5081 C 495.994 2.17041 -3.82859 0
M  V30 5082 H 493.113 0.232341 -0.699419 0
M  V30 5083 H 495.755 -0.0935889 -1.89769 0
M  V30 5084 H 493.905 1.88205 -3.39869 0
M  V30 5085 H 495.577 -0.438849 -4.59208 0
M  V30 5086 H 493.82 -0.481725 -4.31117 0
M  V30 5087 H 494.491 0.659292 -5.48049 0
M  V30 5088 H 496.967 1.64228 -3.8232 0
M  V30 5089 H 495.843 2.56738 -4.85157 0
M  V30 5090 H 496.104 3.06401 -3.18702 0
M  V30 5091 N 495.163 1.55791 0.238111 0
M  V30 5092 C 496.574 1.68383 0.806472 0
M  V30 5093 C 496.925 0.634157 1.85669 0
M  V30 5094 O 496.05 -0.217913 2.153 0
M  V30 5095 C 496.645 3.05268 1.46959 0
M  V30 5096 C 495.204 3.1977 1.98555 0
M  V30 5097 C 494.351 2.64279 0.839763 0
M  V30 5098 H 497.302 1.58694 0.0137535 0
M  V30 5099 H 497.323 3.00203 2.33792 0
M  V30 5100 H 496.835 3.81643 0.704993 0
M  V30 5101 H 494.936 2.48234 2.77868 0
M  V30 5102 H 495.049 4.26788 2.17689 0
M  V30 5103 H 493.413 2.22329 1.24265 0
M  V30 5104 H 494.196 3.43187 0.0881032 0
M  V30 5105 N 496.642 -0.504142 1.49319 0
M  V30 5106 C 497.552 -1.63248 1.68486 0
M  V30 5107 C 498.568 -1.64488 0.567432 0
M  V30 5108 O 499.744 -1.82966 0.841749 0
M  V30 5109 C 496.809 -2.99627 1.74426 0
M  V30 5110 C 495.87 -3.09039 2.97982 0
M  V30 5111 C 495.103 -4.38913 3.0363 0
M  V30 5112 O 495.326 -5.27528 2.16958 0
M  V30 5113 O 494.26 -4.53231 3.96062 0
M  V30 5114 H 498.086 -1.50008 2.64067 0
M  V30 5115 H 495.671 -0.680086 1.33023 0
M  V30 5116 H 497.553 -3.80689 1.80705 0
M  V30 5117 H 496.228 -3.13136 0.820233 0
M  V30 5118 H 495.135 -2.27177 2.97223 0
M  V30 5119 H 496.468 -3.00456 3.89855 0
M  V30 5120 N 498.12 -1.38341 -0.754957 0
M  V30 5121 C 499.05 -1.38176 -1.88227 0
M  V30 5122 C 500.031 -0.247873 -1.68284 0
M  V30 5123 O 501.216 -0.45075 -1.88896 0
M  V30 5124 C 498.346 -1.20471 -3.25736 0
M  V30 5125 C 497.3 -2.3105 -3.60278 0
M  V30 5126 C 496.626 -1.98452 -4.96509 0
M  V30 5127 C 497.926 -3.73305 -3.65295 0
M  V30 5128 H 499.62 -2.32512 -1.88622 0
M  V30 5129 H 497.166 -1.1192 -0.906082 0
M  V30 5130 H 499.119 -1.18982 -4.04254 0
M  V30 5131 H 497.843 -0.225965 -3.25817 0
M  V30 5132 H 496.502 -2.31723 -2.84078 0
M  V30 5133 H 496.15 -0.990641 -4.93148 0
M  V30 5134 H 495.85 -2.7251 -5.20588 0
M  V30 5135 H 497.374 -1.98578 -5.77407 0
M  V30 5136 H 498.788 -3.7467 -4.3393 0
M  V30 5137 H 497.185 -4.46557 -4.00883 0
M  V30 5138 H 498.255 -4.05719 -2.65556 0
M  V30 5139 N 499.598 0.982988 -1.23187 0
M  V30 5140 C 500.823 1.76455 -1.08988 0
M  V30 5141 C 501.248 1.84726 0.354691 0
M  V30 5142 O 500.606 1.30699 1.25649 0
M  V30 5143 C 500.654 3.17094 -1.71708 0
M  V30 5144 O 499.758 4.00648 -0.977477 0
M  V30 5145 H 499.099 0.542988 -0.382177 0
M  V30 5146 H 501.629 1.23413 -1.63188 0
M  V30 5147 H 501.639 3.67684 -1.76841 0
M  V30 5148 H 500.314 3.10389 -2.76823 0
M  V30 5149 H 498.891 3.59161 -1.0029 0
M  V30 5150 N 501.076 1.04316 1.18135 0
M  V30 5151 C 502.492 0.762858 1.40188 0
M  V30 5152 C 502.692 -0.646547 1.90846 0
M  V30 5153 O 501.748 -1.41036 2.0944 0
M  V30 5154 C 503.061 1.81106 2.40044 0
M  V30 5155 C 504.609 1.83226 2.53766 0
M  V30 5156 C 505.084 2.87044 3.56889 0
M  V30 5157 N 506.575 2.85951 3.64398 0
M  V30 5158 C 507.31 3.62932 4.43923 0
M  V30 5159 N 506.806 4.49672 5.27036 0
M  V30 5160 N 508.599 3.51411 4.38711 0
M  V30 5161 H 500.75 1.95264 0.835805 0
M  V30 5162 H 503.013 0.845017 0.429709 0
M  V30 5163 H 502.719 2.82214 2.09876 0
M  V30 5164 H 502.593 1.64529 3.39426 0
M  V30 5165 H 504.98 0.827869 2.8325 0
M  V30 5166 H 505.061 2.03879 1.54489 0
M  V30 5167 H 504.705 3.87663 3.28145 0
M  V30 5168 H 504.635 2.63645 4.5585 0
M  V30 5169 H 507.126 2.23051 3.05052 0
M  V30 5170 H 507.439 5.05116 5.84874 0
M  V30 5171 H 505.784 4.53738 5.26447 0
M  V30 5172 H 508.975 2.83047 3.72829 0
M  V30 5173 H 509.148 4.11654 5.00445 0
M  V30 5174 N 502.554 -1.34406 0.822964 0
M  V30 5175 C 503.487 -2.27407 0.190124 0
M  V30 5176 C 504.465 -1.4889 -0.653486 0
M  V30 5177 O 505.649 -1.78109 -0.617216 0
M  V30 5178 C 502.776 -3.3064 -0.734477 0
M  V30 5179 C 501.822 -4.26488 0.0316099 0
M  V30 5180 S 502.655 -5.17445 1.3788 0
M  V30 5181 C 503.811 -6.24214 0.45907 0
M  V30 5182 H 504.044 -2.80733 0.978586 0
M  V30 5183 H 501.577 -1.41455 0.618866 0
M  V30 5184 H 503.535 -3.90607 -1.26238 0
M  V30 5185 H 502.196 -2.76161 -1.49646 0
M  V30 5186 H 501.389 -4.9951 -0.671285 0
M  V30 5187 H 500.991 -3.70775 0.490066 0
M  V30 5188 H 503.283 -6.76599 -0.349357 0
M  V30 5189 H 504.226 -6.98551 1.15896 0
M  V30 5190 H 504.634 -5.6448 0.0474825 0
M  V30 5191 N 504.032 -0.577932 -1.46621 0
M  V30 5192 C 505.28 -0.061566 -2.02006 0
M  V30 5193 C 505.601 1.30117 -1.4524 0
M  V30 5194 O 504.871 1.85313 -0.63529 0
M  V30 5195 H 503.451 -0.0197692 -0.746738 0
M  V30 5196 H 506.113 -0.752631 -1.79782 0
M  V30 5197 H 505.209 0.0110238 -3.12098 0
M  V30 5198 N 505.51 1.54411 -0.315457 0
M  V30 5199 C 506.473 2.22713 0.54142 0
M  V30 5200 C 507.473 1.2179 1.04995 0
M  V30 5201 O 508.663 1.46426 0.943667 0
M  V30 5202 C 505.795 2.92485 1.75116 0
M  V30 5203 H 506.988 2.99849 -0.0555508 0
M  V30 5204 H 504.541 1.56159 -0.0664453 0
M  V30 5205 H 505.276 2.19466 2.38758 0
M  V30 5206 H 505.061 3.66483 1.39401 0
M  V30 5207 H 506.551 3.44548 2.35959 0
M  V30 5208 N 506.988 0.0434614 1.5754 0
M  V30 5209 C 507.938 -0.943039 2.07583 0
M  V30 5210 C 508.922 -1.27662 0.979342 0
M  V30 5211 O 510.114 -1.26034 1.24276 0
M  V30 5212 C 507.243 -2.22056 2.61813 0
M  V30 5213 C 506.329 -1.91471 3.78417 0
M  V30 5214 N 506.72 -1.31214 4.88484 0
M  V30 5215 C 505.018 -2.21384 3.87176 0
M  V30 5216 C 505.719 -1.18084 5.69588 0
M  V30 5217 N 504.695 -1.68116 5.16951 0
M  V30 5218 H 508.497 -0.472354 2.90079 0
M  V30 5219 H 506.011 -0.161191 1.61598 0
M  V30 5220 H 508.008 -2.93618 2.95963 0
M  V30 5221 H 506.668 -2.69738 1.80752 0
M  V30 5222 H 507.679 -0.985318 5.08441 0
M  V30 5223 H 504.356 -2.7164 3.17046 0
M  V30 5224 H 505.746 -0.713684 6.68099 0
M  V30 5225 N 508.466 -1.55915 -0.229846 0
M  V30 5226 C 509.429 -1.90914 -1.26824 0
M  V30 5227 C 510.429 -0.786999 -1.40225 0
M  V30 5228 O 511.619 -1.05484 -1.38632 0
M  V30 5229 C 508.751 -2.15264 -2.64337 0
M  V30 5230 H 509.944 -2.8378 -0.969998 0
M  V30 5231 H 507.497 -1.49069 -0.4699 0
M  V30 5232 H 508.232 -1.24923 -2.99274 0
M  V30 5233 H 508.017 -2.97005 -2.55989 0
M  V30 5234 H 509.507 -2.43467 -3.39284 0
M  V30 5235 N 509.944 0.496216 -1.49584 0
M  V30 5236 C 510.854 1.62352 -1.69349 0
M  V30 5237 C 511.87 1.64184 -0.576147 0
M  V30 5238 O 513.046 1.82517 -0.85144 0
M  V30 5239 C 510.111 2.98698 -1.76013 0
M  V30 5240 C 509.172 3.07454 -2.99617 0
M  V30 5241 C 508.405 4.37296 -3.05953 0
M  V30 5242 O 508.628 5.2637 -2.19752 0
M  V30 5243 O 507.562 4.51124 -3.9846 0
M  V30 5244 H 511.388 1.48606 -2.64859 0
M  V30 5245 H 508.973 0.673022 -1.33382 0
M  V30 5246 H 510.855 3.79725 -1.82721 0
M  V30 5247 H 509.53 3.12696 -0.836828 0
M  V30 5248 H 508.437 2.25597 -2.98424 0
M  V30 5249 H 509.77 2.98385 -3.91443 0
M  V30 5250 N 511.423 1.38739 0.74761 0
M  V30 5251 C 512.672 1.3459 1.50228 0
M  V30 5252 C 512.985 -0.0595592 1.95509 0
M  V30 5253 O 514.191 -0.22361 2.70578 0
M  V30 5254 C 512.647 2.36377 2.71393 0
M  V30 5255 C 512.255 3.82573 2.33113 0
M  V30 5256 C 513.999 2.41281 3.49262 0
M  V30 5257 C 511.906 4.76032 3.50924 0
M  V30 5258 H 510.836 0.500312 0.564096 0
M  V30 5259 H 513.487 1.64324 0.8167 0
M  V30 5260 H 511.869 1.99694 3.41962 0
M  V30 5261 H 513.043 4.28227 1.70171 0
M  V30 5262 H 511.358 3.80844 1.68365 0
M  V30 5263 H 513.955 3.08301 4.36869 0
M  V30 5264 H 514.298 1.43353 3.9084 0
M  V30 5265 H 514.831 2.76793 2.85711 0
M  V30 5266 H 511.57 5.75177 3.14408 0
M  V30 5267 H 511.09 4.35066 4.12889 0
M  V30 5268 H 512.769 4.94331 4.17427 0
M  V30 5269 N 512.901 -0.976442 1.23707 0
M  V30 5270 C 513.811 -2.10359 1.03856 0
M  V30 5271 C 514.827 -1.73991 -0.0180919 0
M  V30 5272 O 516.003 -2.0061 0.178211 0
M  V30 5273 C 513.068 -3.40809 0.636387 0
M  V30 5274 C 512.129 -3.91179 1.76854 0
M  V30 5275 C 511.362 -5.15404 1.38546 0
M  V30 5276 O 511.585 -5.69754 0.27142 0
M  V30 5277 O 510.519 -5.5994 2.20797 0
M  V30 5278 H 514.345 -2.29997 1.98331 0
M  V30 5279 H 511.93 -1.08742 1.02448 0
M  V30 5280 H 513.812 -4.19269 0.423223 0
M  V30 5281 H 512.487 -3.22493 -0.279322 0
M  V30 5282 H 511.394 -3.13819 2.03638 0
M  V30 5283 H 512.727 -4.13958 2.6627 0
M  V30 5284 N 514.379 -1.04941 -1.1758 0
M  V30 5285 C 515.604 -0.778253 -1.92245 0
M  V30 5286 C 516.029 0.659707 -1.76152 0
M  V30 5287 O 515.387 1.45803 -1.07755 0
M  V30 5288 C 515.435 -1.16051 -3.41416 0
M  V30 5289 O 514.539 -0.291153 -4.11371 0
M  V30 5290 H 513.88 -0.285619 -0.599431 0
M  V30 5291 H 516.41 -1.40159 -1.49052 0
M  V30 5292 H 516.42 -1.12619 -3.92149 0
M  V30 5293 H 515.095 -2.208 -3.52449 0
M  V30 5294 H 513.672 -0.385851 -3.70898 0
M  V30 5295 N 515.857 1.33968 -0.830081 0
M  V30 5296 C 516.805 2.31301 -0.245435 0
M  V30 5297 C 517.799 1.57734 0.617762 0
M  V30 5298 O 519.005 1.72674 0.508303 0
M  V30 5299 H 515.38 0.749552 -0.0606316 0
M  V30 5300 H 517.351 2.78129 -1.08105 0
M  V30 5301 C 516.1 3.42961 0.572084 0
M  V30 5302 H 515.423 3.99714 -0.0828118 0
M  V30 5303 H 516.863 4.13286 0.94715 0
M  V30 5304 C 515.322 2.88043 1.74737 0
M  V30 5305 O 515.852 2.83508 2.8458 0
M  V30 5306 N 514.058 2.44768 1.56642 0
M  V30 5307 H 513.605 2.48656 0.672901 0
M  V30 5308 H 513.563 2.08375 2.3543 0
M  V30 5309 N 517.335 0.585699 1.46312 0
M  V30 5310 C 518.563 0.0781299 2.06752 0
M  V30 5311 C 518.978 -1.22812 1.43396 0
M  V30 5312 O 518.335 -1.74318 0.540314 0
M  V30 5313 C 518.386 -0.0911927 3.61385 0
M  V30 5314 O 518.107 1.16336 4.22371 0
M  V30 5315 C 519.608 -0.632765 4.38761 0
M  V30 5316 H 516.828 0.0588188 0.668417 0
M  V30 5317 H 519.372 0.807218 1.87894 0
M  V30 5318 H 517.527 -0.770514 3.7966 0
M  V30 5319 H 517.941 0.979082 5.15281 0
M  V30 5320 H 519.415 -0.70041 5.47538 0
M  V30 5321 H 519.892 -1.65039 4.07012 0
M  V30 5322 H 520.498 0.0117856 4.25298 0
M  V30 5323 N 518.813 -1.54241 0.323641 0
M  V30 5324 C 520.059 -2.00867 -0.279323 0
M  V30 5325 C 520.392 -1.21146 -1.5178 0
M  V30 5326 O 519.667 -0.29378 -1.92269 0
M  V30 5327 C 519.95 -3.54837 -0.613387 0
M  V30 5328 C 519.803 -4.45284 0.635803 0
M  V30 5329 C 521.122 -4.16186 -1.43099 0
M  V30 5330 H 518.241 -0.730177 -0.100049 0
M  V30 5331 H 520.883 -1.84829 0.440235 0
M  V30 5332 H 519.033 -3.68634 -1.22641 0
M  V30 5333 H 520.705 -4.43357 1.27406 0
M  V30 5334 H 518.948 -4.14956 1.26466 0
M  V30 5335 H 519.619 -5.5084 0.357597 0
M  V30 5336 H 522.095 -4.05964 -0.912814 0
M  V30 5337 H 520.971 -5.24031 -1.6335 0
M  V30 5338 H 521.232 -3.69516 -2.42715 0
M  V30 5339 N 520.291 -0.0518155 -1.57515 0
M  V30 5340 C 521.54 0.621286 -1.91893 0
M  V30 5341 C 521.853 1.71966 -0.932052 0
M  V30 5342 O 523.059 2.45096 -1.16791 0
M  V30 5343 C 521.515 1.15641 -3.40816 0
M  V30 5344 C 521.123 0.0901146 -4.47909 0
M  V30 5345 C 522.867 1.80472 -3.84227 0
M  V30 5346 C 520.774 0.638154 -5.87947 0
M  V30 5347 H 519.704 0.235835 -0.716169 0
M  V30 5348 H 522.355 -0.120809 -1.83102 0
M  V30 5349 H 520.737 1.95084 -3.44613 0
M  V30 5350 H 521.911 -0.683525 -4.55702 0
M  V30 5351 H 520.226 -0.460774 -4.13843 0
M  V30 5352 H 522.823 2.22471 -4.86221 0
M  V30 5353 H 523.166 2.65669 -3.20508 0
M  V30 5354 H 523.699 1.07683 -3.82948 0
M  V30 5355 H 520.438 -0.176202 -6.55263 0
M  V30 5356 H 519.958 1.37976 -5.83714 0
M  V30 5357 H 521.637 1.12085 -6.37217 0
M  V30 5358 N 521.769 1.56035 0.221574 0
M  V30 5359 C 523.009 1.80822 0.953038 0
M  V30 5360 C 523.373 0.625316 1.81532 0
M  V30 5361 O 524.574 0.752491 2.58052 0
M  V30 5362 C 522.845 3.10503 1.76983 0
M  V30 5363 S 524.404 3.56604 2.55693 0
M  V30 5364 H 521.222 0.634849 0.320137 0
M  V30 5365 H 523.824 1.94274 0.218619 0
M  V30 5366 H 522.528 3.94636 1.12651 0
M  V30 5367 H 522.059 2.99858 2.54655 0
M  V30 5368 H 524.074 3.1994 3.79279 0
M  V30 5369 N 523.247 -0.488276 1.49845 0
M  V30 5370 C 524.197 -1.58556 1.63842 0
M  V30 5371 C 525.181 -1.53142 0.493586 0
M  V30 5372 O 526.373 -1.60457 0.747169 0
M  V30 5373 C 523.502 -2.97101 1.72005 0
M  V30 5374 C 522.588 -3.07463 2.92108 0
M  V30 5375 N 522.979 -2.87681 4.16021 0
M  V30 5376 C 521.277 -3.3858 2.90309 0
M  V30 5377 C 521.978 -3.0256 4.96822 0
M  V30 5378 N 520.954 -3.32002 4.30437 0
M  V30 5379 H 524.756 -1.41935 2.57355 0
M  V30 5380 H 522.27 -0.694668 1.46793 0
M  V30 5381 H 524.267 -3.75976 1.80132 0
M  V30 5382 H 522.927 -3.14782 0.796375 0
M  V30 5383 H 523.938 -2.63603 4.45796 0
M  V30 5384 H 520.615 -3.62357 2.07372 0
M  V30 5385 H 522.005 -2.9165 6.05301 0
M  V30 5386 N 524.725 -1.39134 -0.740242 0
M  V30 5387 C 525.973 -1.35803 -1.49673 0
M  V30 5388 C 526.294 0.0470897 -1.94943 0
M  V30 5389 O 525.564 0.997347 -1.68611 0
M  V30 5390 H 524.144 -0.499736 -0.555224 0
M  V30 5391 H 526.806 -1.73947 -0.879107 0
M  V30 5392 H 525.902 -2.0174 -2.38133 0
M  V30 5393 N 526.204 0.969867 -1.24223 0
M  V30 5394 C 527.45 1.7151 -1.08223 0
M  V30 5395 C 527.783 1.90478 0.37838 0
M  V30 5396 O 527.058 1.4647 1.27971 0
M  V30 5397 C 527.341 3.10714 -1.82013 0
M  V30 5398 C 527.194 2.9925 -3.35811 0
M  V30 5399 C 528.513 4.10332 -1.59108 0
M  V30 5400 H 525.632 0.622499 -0.394543 0
M  V30 5401 H 528.274 1.1284 -1.52863 0
M  V30 5402 H 526.424 3.608 -1.44068 0
M  V30 5403 H 528.096 2.56608 -3.83341 0
M  V30 5404 H 526.339 2.35512 -3.64303 0
M  V30 5405 H 527.01 3.97857 -3.82641 0
M  V30 5406 H 529.486 3.69097 -1.92111 0
M  V30 5407 H 528.362 5.05804 -2.13198 0
M  V30 5408 H 528.623 4.38926 -0.528832 0
M  V30 5409 N 527.682 1.05563 1.17022 0
M  V30 5410 C 528.592 0.670758 2.24807 0
M  V30 5411 C 529.608 -0.309865 1.71219 0
M  V30 5412 O 530.784 -0.161025 2.00755 0
M  V30 5413 C 527.849 0.055337 3.46656 0
M  V30 5414 C 526.91 1.08688 4.15314 0
M  V30 5415 C 526.143 0.500736 5.31346 0
M  V30 5416 O 526.366 -0.688718 5.66227 0
M  V30 5417 O 525.3 1.23683 5.89055 0
M  V30 5418 H 529.126 1.56914 2.60023 0
M  V30 5419 H 526.711 0.827428 1.24395 0
M  V30 5420 H 528.593 -0.286492 4.20425 0
M  V30 5421 H 527.268 -0.816638 3.13229 0
M  V30 5422 H 526.175 1.48077 3.43546 0
M  V30 5423 H 527.508 1.93014 4.52777 0
M  V30 5424 N 529.16 -1.33526 0.837174 0
M  V30 5425 C 530.107 -2.29248 0.267169 0
M  V30 5426 C 531.077 -1.54252 -0.616071 0
M  V30 5427 O 532.262 -1.82559 -0.554699 0
M  V30 5428 C 529.402 -3.40638 -0.553152 0
M  V30 5429 C 528.515 -4.30548 0.353921 0
M  V30 5430 C 527.65 -5.29051 -0.477339 0
M  V30 5431 C 526.689 -6.106 0.42823 0
M  V30 5432 N 525.826 -7.01152 -0.364801 0
M  V30 5433 H 530.666 -2.77398 1.08877 0
M  V30 5434 H 528.203 -1.36496 0.54838 0
M  V30 5435 H 530.161 -4.03921 -1.04422 0
M  V30 5436 H 528.791 -2.93685 -1.33973 0
M  V30 5437 H 527.843 -3.68001 0.963289 0
M  V30 5438 H 529.155 -4.87631 1.04964 0
M  V30 5439 H 528.309 -5.97853 -1.0323 0
M  V30 5440 H 527.048 -4.72541 -1.2065 0
M  V30 5441 H 526.053 -5.40718 0.995219 0
M  V30 5442 H 527.278 -6.69193 1.15573 0
M  V30 5443 H 525.224 -6.47092 -1.07738 0
M  V30 5444 H 525.141 -7.5551 0.272238 0
M  V30 5445 H 526.409 -7.74263 -0.902054 0
M  V30 5446 N 530.638 -0.59345 -1.46 0
M  V30 5447 C 531.568 0.121192 -2.33185 0
M  V30 5448 C 532.549 0.872977 -1.4599 0
M  V30 5449 O 533.734 0.846321 -1.74789 0
M  V30 5450 C 530.864 1.12844 -3.28456 0
M  V30 5451 C 529.818 0.4908 -4.25177 0
M  V30 5452 C 529.144 1.60529 -5.10034 0
M  V30 5453 C 530.444 -0.578949 -5.19081 0
M  V30 5454 H 532.138 -0.606767 -2.93187 0
M  V30 5455 H 529.684 -0.293242 -1.40983 0
M  V30 5456 H 531.637 1.63684 -3.88311 0
M  V30 5457 H 530.361 1.88681 -2.66584 0
M  V30 5458 H 529.02 0.00339328 -3.666 0
M  V30 5459 H 528.668 2.35359 -4.44539 0
M  V30 5460 H 528.368 1.18422 -5.75543 0
M  V30 5461 H 529.892 2.11623 -5.72755 0
M  V30 5462 H 531.306 -0.155199 -5.7309 0
M  V30 5463 H 529.703 -0.920947 -5.92991 0
M  V30 5464 H 530.773 -1.46109 -4.62364 0
M  V30 5465 N 532.116 1.54067 -0.331816 0
M  V30 5466 C 533.341 2.05599 0.272705 0
M  V30 5467 C 533.766 1.2059 1.44359 0
M  V30 5468 O 533.124 0.216907 1.79998 0
M  V30 5469 C 533.172 3.54188 0.677021 0
M  V30 5470 O 532.276 3.72082 1.77844 0
M  V30 5471 H 531.617 0.662286 0.0476801 0
M  V30 5472 H 534.147 1.98826 -0.482624 0
M  V30 5473 H 534.157 3.96608 0.957415 0
M  V30 5474 H 532.832 4.15513 -0.179325 0
M  V30 5475 H 531.409 3.41566 1.49622 0
M  V30 5476 N 533.594 0.0601682 1.57485 0
M  V30 5477 C 534.842 -0.610386 1.92662 0
M  V30 5478 C 535.163 -1.70849 0.939981 0
M  V30 5479 O 534.433 -1.95895 -0.0137455 0
M  V30 5480 H 533.013 -0.228457 0.711208 0
M  V30 5481 H 535.675 0.115288 1.94559 0
M  V30 5482 H 534.771 -1.0432 2.94149 0
M  V30 5483 N 535.072 -1.5615 -0.213296 0
M  V30 5484 C 536.035 -1.92249 -1.24792 0
M  V30 5485 C 537.035 -0.801828 -1.39382 0
M  V30 5486 O 538.225 -1.06948 -1.37506 0
M  V30 5487 C 535.357 -2.18056 -2.62039 0
M  V30 5488 H 536.55 -2.84793 -0.939845 0
M  V30 5489 H 534.103 -1.49559 -0.454062 0
M  V30 5490 H 534.838 -1.2809 -2.97932 0
M  V30 5491 H 534.623 -2.99703 -2.52825 0
M  V30 5492 H 536.113 -2.47051 -3.36683 0
M  V30 5493 N 536.55 0.480323 -1.50102 0
M  V30 5494 C 537.482 1.59669 -1.64433 0
M  V30 5495 C 538.495 1.54063 -0.52615 0
M  V30 5496 O 539.684 1.59619 -0.798992 0
M  V30 5497 C 536.784 2.98527 -1.6042 0
M  V30 5498 C 535.957 3.291 -2.88117 0
M  V30 5499 C 535.016 4.47468 -2.76873 0
M  V30 5500 O 534.042 4.4823 -3.50825 0
M  V30 5501 N 535.244 5.48593 -1.89806 0
M  V30 5502 H 538.009 1.47795 -2.60723 0
M  V30 5503 H 535.57 0.66858 -1.4745 0
M  V30 5504 H 537.562 3.75666 -1.50523 0
M  V30 5505 H 536.132 3.04218 -0.719036 0
M  V30 5506 H 535.352 2.40662 -3.12211 0
M  V30 5507 H 536.64 3.46334 -3.72734 0
M  V30 5508 H 536.038 5.50791 -1.2902 0
M  V30 5509 H 534.595 6.24752 -1.85819 0
M  V30 5510 N 538.028 1.39524 0.732853 0
M  V30 5511 C 539.274 1.37068 1.49467 0
M  V30 5512 C 539.607 -0.0327166 1.94172 0
M  V30 5513 O 538.882 -0.998071 1.66939 0
M  V30 5514 C 539.165 2.34494 2.73285 0
M  V30 5515 C 539.018 3.83784 2.34585 0
M  V30 5516 C 540.337 2.29717 3.75391 0
M  V30 5517 H 537.456 0.499206 0.542183 0
M  V30 5518 H 540.098 1.70532 0.837783 0
M  V30 5519 H 538.248 2.06087 3.29333 0
M  V30 5520 H 539.92 4.22949 1.84151 0
M  V30 5521 H 538.163 4.00455 1.66787 0
M  V30 5522 H 538.834 4.47444 3.23262 0
M  V30 5523 H 541.31 2.54839 3.28932 0
M  V30 5524 H 540.186 2.99962 4.59689 0
M  V30 5525 H 540.447 1.30291 4.22465 0
M  V30 5526 N 539.506 -0.963266 1.24736 0
M  V30 5527 C 540.439 -2.05758 0.986852 0
M  V30 5528 C 541.417 -1.62398 -0.0809272 0
M  V30 5529 O 542.601 -1.88414 0.0569347 0
M  V30 5530 C 539.728 -3.35135 0.490095 0
M  V30 5531 C 538.774 -3.97451 1.54709 0
M  V30 5532 S 539.607 -4.34519 3.12976 0
M  V30 5533 C 540.763 -5.67026 2.65014 0
M  V30 5534 H 540.996 -2.27539 1.91346 0
M  V30 5535 H 538.529 -1.10176 1.08169 0
M  V30 5536 H 540.487 -4.09962 0.21012 0
M  V30 5537 H 539.148 -3.11335 -0.415873 0
M  V30 5538 H 538.341 -4.90704 1.15003 0
M  V30 5539 H 537.943 -3.29071 1.77731 0
M  V30 5540 H 540.235 -6.44748 2.08102 0
M  V30 5541 H 541.178 -6.11594 3.56873 0
M  V30 5542 H 541.586 -5.25847 2.05294 0
M  V30 5543 N 540.985 -1.06182 -1.16461 0
M  V30 5544 C 541.948 -0.675723 -2.19013 0
M  V30 5545 C 542.948 0.277963 -1.58379 0
M  V30 5546 O 544.138 0.0604962 -1.74095 0
M  V30 5547 C 541.27 0.00591459 -3.40899 0
M  V30 5548 H 542.463 -1.58353 -2.54685 0
M  V30 5549 H 540.016 -0.856908 -1.30716 0
M  V30 5550 H 540.751 0.92652 -3.10783 0
M  V30 5551 H 540.536 -0.67984 -3.86161 0
M  V30 5552 H 542.026 0.26181 -4.16778 0
M  V30 5553 N 542.463 1.3308 -0.844243 0
M  V30 5554 C 543.691 2.01808 -0.456203 0
M  V30 5555 C 544.106 1.63498 0.944131 0
M  V30 5556 O 543.463 0.85102 1.61443 0
M  V30 5557 C 543.514 3.56922 -0.573513 0
M  V30 5558 O 543.235 3.93851 -1.91868 0
M  V30 5559 C 544.736 4.42922 -0.183125 0
M  V30 5560 H 541.956 0.646273 -0.180477 0
M  V30 5561 H 544.5 1.69891 -1.1383 0
M  V30 5562 H 542.655 3.87352 0.0607367 0
M  V30 5563 H 543.069 4.88564 -1.90802 0
M  V30 5564 H 544.543 5.51093 -0.316241 0
M  V30 5565 H 545.02 4.30386 0.875477 0
M  V30 5566 H 545.626 4.1786 -0.792027 0
M  V30 5567 N 543.941 0.601185 1.45683 0
M  V30 5568 C 545.218 0.0261659 1.95582 0
M  V30 5569 C 545.598 -1.4399 1.5437 0
M  V30 5570 O 544.946 -2.13919 0.80318 0
M  V30 5571 C 545.156 0.217557 3.48321 0
M  V30 5572 C 546.504 0.0950076 4.24494 0
M  V30 5573 O 547.528 0.147345 3.55895 0
M  V30 5574 O 546.387 -0.025261 5.46494 0
M  V30 5575 H 543.481 -0.0393688 0.826062 0
M  V30 5576 H 546.027 0.670798 1.55879 0
M  V30 5577 H 544.799 1.23601 3.71266 0
M  V30 5578 H 544.422 -0.46264 3.94899 0
M  V30 5579 N 545.419 -1.53889 0.339982 0
M  V30 5580 C 546.349 -2.27843 -0.510856 0
M  V30 5581 C 547.33 -1.29267 -1.10563 0
M  V30 5582 O 548.515 -1.58104 -1.12768 0
M  V30 5583 C 545.645 -3.04857 -1.66372 0
M  V30 5584 C 544.599 -4.10907 -1.19746 0
M  V30 5585 C 543.925 -4.75855 -2.43857 0
M  V30 5586 C 545.225 -5.21435 -0.300501 0
M  V30 5587 H 546.919 -2.99212 0.106067 0
M  V30 5588 H 544.465 -1.43904 0.0524533 0
M  V30 5589 H 546.418 -3.5533 -2.26537 0
M  V30 5590 H 545.142 -2.31133 -2.30749 0
M  V30 5591 H 543.801 -3.61342 -0.618654 0
M  V30 5592 H 543.449 -3.9873 -3.06633 0
M  V30 5593 H 543.149 -5.47502 -2.13343 0
M  V30 5594 H 544.673 -5.2911 -3.04754 0
M  V30 5595 H 546.087 -5.67565 -0.80889 0
M  V30 5596 H 544.484 -6.00036 -0.0874076 0
M  V30 5597 H 545.554 -4.80328 0.664321 0
M  V30 5598 N 546.897 -0.0685191 -1.57451 0
M  V30 5599 C 548.313 0.288101 -1.56978 0
M  V30 5600 C 548.513 1.70262 -1.07765 0
M  V30 5601 O 547.569 2.4135 -0.742054 0
M  V30 5602 C 548.882 0.100745 -3.00531 0
M  V30 5603 C 550.43 0.170531 -3.12535 0
M  V30 5604 C 550.905 0.0114944 -4.57999 0
M  V30 5605 N 552.396 0.0672065 -4.63151 0
M  V30 5606 C 553.131 -0.0314813 -5.73391 0
M  V30 5607 N 552.627 -0.183503 -6.92557 0
M  V30 5608 N 554.42 0.0253489 -5.62094 0
M  V30 5609 H 546.571 -0.993026 -1.87757 0
M  V30 5610 H 548.834 -0.386981 -0.865419 0
M  V30 5611 H 548.54 -0.875197 -3.40636 0
M  V30 5612 H 548.414 0.854457 -3.67395 0
M  V30 5613 H 550.801 1.13696 -2.72318 0
M  V30 5614 H 550.882 -0.614229 -2.48316 0
M  V30 5615 H 550.526 -0.951684 -4.98904 0
M  V30 5616 H 550.456 0.815617 -5.20245 0
M  V30 5617 H 552.947 0.183246 -3.77455 0
M  V30 5618 H 553.26 -0.251041 -7.72392 0
M  V30 5619 H 551.605 -0.218822 -6.94655 0
M  V30 5620 H 554.796 0.142794 -4.67882 0
M  V30 5621 H 554.969 -0.0550166 -6.47977 0
M  V30 5622 N 548.375 1.56261 0.205012 0
M  V30 5623 C 549.338 1.92908 1.23771 0
M  V30 5624 C 550.338 0.809208 1.38955 0
M  V30 5625 O 551.528 1.07676 1.36936 0
M  V30 5626 C 548.66 2.19442 2.60879 0
M  V30 5627 H 549.853 2.85287 0.924728 0
M  V30 5628 H 547.406 1.49798 0.446125 0
M  V30 5629 H 548.141 1.29668 2.97248 0
M  V30 5630 H 547.926 3.0104 2.51232 0
M  V30 5631 H 549.416 2.48833 3.35368 0
M  V30 5632 N 549.853 -0.472356 1.50355 0
M  V30 5633 C 551.078 -1.25251 1.65309 0
M  V30 5634 C 551.503 -1.85081 0.335643 0
M  V30 5635 O 550.861 -1.67227 -0.700335 0
M  V30 5636 C 550.909 -2.3379 2.74544 0
M  V30 5637 O 550.013 -3.38401 2.35709 0
M  V30 5638 H 549.354 -0.368539 0.552336 0
M  V30 5639 H 551.884 -0.562271 1.96722 0
M  V30 5640 H 551.894 -2.79121 2.97583 0
M  V30 5641 H 550.569 -1.89614 3.70161 0
M  V30 5642 H 549.146 -2.9879 2.23112 0
M  V30 5643 N 551.331 -1.39911 -0.725443 0
M  V30 5644 C 552.294 -1.39156 -1.82121 0
M  V30 5645 C 553.294 -0.287018 -1.58218 0
M  V30 5646 O 554.484 -0.545421 -1.65441 0
M  V30 5647 C 551.616 -1.1736 -3.20062 0
M  V30 5648 H 552.809 -2.36672 -1.84191 0
M  V30 5649 H 550.362 -1.25615 -0.930079 0
M  V30 5650 H 551.097 -0.205648 -3.23647 0
M  V30 5651 H 550.882 -1.97358 -3.3881 0
M  V30 5652 H 552.372 -1.19596 -4.00108 0
M  V30 5653 N 552.809 0.956637 -1.25245 0
M  V30 5654 C 554.034 1.74104 -1.12706 0
M  V30 5655 C 554.459 1.85436 0.315429 0
M  V30 5656 O 553.817 1.33334 1.22848 0
M  V30 5657 C 553.865 3.1338 -1.78396 0
M  V30 5658 O 552.969 3.98485 -1.06224 0
M  V30 5659 H 552.31 0.53476 -0.393609 0
M  V30 5660 H 554.84 1.19924 -1.65769 0
M  V30 5661 H 554.85 3.6385 -1.846 0
M  V30 5662 H 553.525 3.04448 -2.83345 0
M  V30 5663 H 552.102 3.56952 -1.07886 0
M  V30 5664 N 554.287 1.06798 1.15896 0
M  V30 5665 C 555.217 0.704677 2.22613 0
M  V30 5666 C 556.198 -0.305252 1.67339 0
M  V30 5667 O 557.383 -0.179247 1.93371 0
M  V30 5668 C 554.513 0.0957325 3.47168 0
M  V30 5669 C 553.467 1.0322 4.15367 0
M  V30 5670 C 552.793 0.286293 5.33933 0
M  V30 5671 C 554.093 2.36341 4.65768 0
M  V30 5672 H 555.787 1.59688 2.53259 0
M  V30 5673 H 553.333 0.769257 1.21731 0
M  V30 5674 H 555.286 -0.170333 4.21056 0
M  V30 5675 H 554.01 -0.831516 3.15838 0
M  V30 5676 H 552.669 1.28309 3.43413 0
M  V30 5677 H 552.317 -0.644237 4.98857 0
M  V30 5678 H 552.017 0.910436 5.80504 0
M  V30 5679 H 553.541 0.0278938 6.10594 0
M  V30 5680 H 554.955 2.1561 5.31211 0
M  V30 5681 H 553.352 2.94299 5.2298 0
M  V30 5682 H 554.422 2.99047 3.81705 0
M  V30 5683 N 555.766 -1.3263 0.851289 0
M  V30 5684 C 557.012 -1.9766 0.453694 0
M  V30 5685 C 557.345 -1.67225 -0.987396 0
M  V30 5686 O 556.62 -0.958693 -1.69232 0
M  V30 5687 C 556.903 -3.5344 0.68936 0
M  V30 5688 C 556.756 -3.93517 2.17862 0
M  V30 5689 C 558.075 -4.39866 0.143555 0
M  V30 5690 H 555.194 -0.717989 0.166314 0
M  V30 5691 H 557.836 -1.57068 1.06909 0
M  V30 5692 H 555.986 -3.88147 0.165546 0
M  V30 5693 H 557.658 -3.69006 2.76826 0
M  V30 5694 H 555.901 -3.42798 2.65841 0
M  V30 5695 H 556.572 -5.02065 2.29422 0
M  V30 5696 H 559.048 -4.11875 0.591451 0
M  V30 5697 H 557.924 -5.47858 0.338043 0
M  V30 5698 H 558.185 -4.31696 -0.953466 0
M  V30 5699 N 557.244 -0.608902 -1.45362 0
M  V30 5700 C 558.174 0.0964526 -2.33301 0
M  V30 5701 C 559.155 0.857444 -1.46908 0
M  V30 5702 O 560.34 0.827735 -1.75676 0
M  V30 5703 C 557.47 1.09354 -3.29635 0
M  V30 5704 C 556.424 0.445676 -4.25673 0
M  V30 5705 C 555.75 1.5511 -5.11708 0
M  V30 5706 C 557.05 -0.633972 -5.18438 0
M  V30 5707 H 558.744 -0.637829 -2.92527 0
M  V30 5708 H 556.29 -0.308178 -1.40664 0
M  V30 5709 H 558.243 1.59556 -3.90025 0
M  V30 5710 H 556.967 1.85843 -2.6857 0
M  V30 5711 H 555.626 -0.0354897 -3.66583 0
M  V30 5712 H 555.274 2.30631 -4.4701 0
M  V30 5713 H 554.974 1.12311 -5.76767 0
M  V30 5714 H 556.498 2.05537 -5.74967 0
M  V30 5715 H 557.912 -0.215974 -5.72893 0
M  V30 5716 H 556.309 -0.983789 -5.91981 0
M  V30 5717 H 557.379 -1.51005 -4.60788 0
M  V30 5718 N 558.722 1.53707 -0.348139 0
M  V30 5719 C 559.685 2.23812 0.494058 0
M  V30 5720 C 560.685 1.23989 1.02388 0
M  V30 5721 O 561.875 1.48395 0.912396 0
M  V30 5722 C 559.007 2.96133 1.68872 0
M  V30 5723 H 560.2 2.99663 -0.119141 0
M  V30 5724 H 557.753 1.55983 -0.0995539 0
M  V30 5725 H 558.488 2.24481 2.34049 0
M  V30 5726 H 558.273 3.69357 1.31596 0
M  V30 5727 H 559.763 3.49475 2.28597 0
M  V30 5728 N 560.2 0.0768682 1.57412 0
M  V30 5729 C 561.448 -0.589918 1.93299 0
M  V30 5730 C 561.769 -1.69842 0.958049 0
M  V30 5731 O 561.039 -1.95899 0.00703261 0
M  V30 5732 H 559.619 -0.220901 0.713591 0
M  V30 5733 H 562.281 0.135917 1.94425 0
M  V30 5734 H 561.377 -1.01195 2.95239 0
M  V30 5735 N 561.678 -1.56367 -0.196722 0
M  V30 5736 C 562.918 -1.82315 -0.92415 0
M  V30 5737 C 563.282 -0.654117 -1.80514 0
M  V30 5738 O 564.483 -0.79345 -2.56823 0
M  V30 5739 C 562.754 -3.13279 -1.72021 0
M  V30 5740 S 564.313 -3.60627 -2.49988 0
M  V30 5741 H 561.131 -0.639862 -0.309997 0
M  V30 5742 H 563.733 -1.94597 -0.187684 0
M  V30 5743 H 562.437 -3.96379 -1.06358 0
M  V30 5744 H 561.968 -3.03871 -2.49852 0
M  V30 5745 H 563.983 -3.25934 -3.74141 0
M  V30 5746 N 563.156 0.464375 -1.50603 0
M  V30 5747 C 564.405 1.21277 -1.61167 0
M  V30 5748 C 564.718 1.92953 -0.320704 0
M  V30 5749 O 565.924 2.69778 -0.30534 0
M  V30 5750 C 564.38 2.20403 -2.84518 0
M  V30 5751 C 563.988 1.54499 -4.20516 0
M  V30 5752 C 565.732 2.95843 -3.0443 0
M  V30 5753 C 563.639 2.51951 -5.35047 0
M  V30 5754 H 562.569 0.456367 -0.600204 0
M  V30 5755 H 565.22 0.48254 -1.77042 0
M  V30 5756 H 563.602 2.96746 -2.62217 0
M  V30 5757 H 564.776 0.83899 -4.53098 0
M  V30 5758 H 563.091 0.913152 -4.06264 0
M  V30 5759 H 565.688 3.6879 -3.87167 0
M  V30 5760 H 566.031 3.55622 -2.16423 0
M  V30 5761 H 566.564 2.26611 -3.26944 0
M  V30 5762 H 563.303 1.96901 -6.25228 0
M  V30 5763 H 562.823 3.20683 -5.06875 0
M  V30 5764 H 564.502 3.13643 -5.65895 0
M  V30 5765 N 564.634 1.40294 0.718013 0
M  V30 5766 C 565.597 1.4012 1.81381 0
M  V30 5767 C 566.597 0.295405 1.58063 0
M  V30 5768 O 567.787 0.554187 1.6515 0
M  V30 5769 C 564.919 1.19056 3.19435 0
M  V30 5770 H 566.112 2.37645 1.82933 0
M  V30 5771 H 563.665 1.26107 0.923405 0
M  V30 5772 H 564.4 0.222809 3.23534 0
M  V30 5773 H 564.185 1.99152 3.37758 0
M  V30 5774 H 565.675 1.21716 3.99468 0
M  V30 5775 N 566.112 -0.949982 1.2575 0
M  V30 5776 C 567.022 -2.08109 1.08295 0
M  V30 5777 C 568.038 -1.7399 0.0188181 0
M  V30 5778 O 569.214 -2.00187 0.220724 0
M  V30 5779 C 566.279 -3.39383 0.708534 0
M  V30 5780 C 565.34 -3.8734 1.85111 0
M  V30 5781 C 564.573 -5.12349 1.49447 0
M  V30 5782 O 564.796 -5.6905 0.392212 0
M  V30 5783 O 563.73 -5.5513 2.32624 0
M  V30 5784 H 567.556 -2.25738 2.03165 0
M  V30 5785 H 565.141 -1.06545 1.04731 0
M  V30 5786 H 567.023 -4.18277 0.512061 0
M  V30 5787 H 565.698 -3.23013 -0.210854 0
M  V30 5788 H 564.605 -3.09429 2.10248 0
M  V30 5789 H 565.938 -4.08216 2.74991 0
M  V30 5790 N 567.59 -1.07411 -1.15328 0
M  V30 5791 C 568.838 -0.796073 -1.85761 0
M  V30 5792 C 569.159 0.679864 -1.82764 0
M  V30 5793 O 568.429 1.49242 -1.269 0
M  V30 5794 H 567.009 -0.291495 -0.687779 0
M  V30 5795 H 569.671 -1.35799 -1.39802 0
M  V30 5796 H 568.767 -1.13114 -2.90881 0
M  V30 5797 N 569.068 1.32177 -0.85831 0
M  V30 5798 C 570.296 2.01313 -0.477582 0
M  V30 5799 C 570.711 1.6449 0.926736 0
M  V30 5800 O 570.068 0.868096 1.60531 0
M  V30 5801 C 570.119 3.56293 -0.611337 0
M  V30 5802 O 569.84 3.91794 -1.96034 0
M  V30 5803 C 571.341 4.42702 -0.230093 0
M  V30 5804 H 568.561 0.644323 -0.187322 0
M  V30 5805 H 571.105 1.68674 -1.15626 0
M  V30 5806 H 569.26 3.87395 0.0196494 0
M  V30 5807 H 569.674 4.86513 -1.95973 0
M  V30 5808 H 571.148 5.50727 -0.374674 0
M  V30 5809 H 571.625 4.3129 0.829779 0
M  V30 5810 H 572.231 4.16997 -0.836302 0
M  V30 5811 N 570.547 0.616602 1.45037 0
M  V30 5812 C 571.775 0.121968 2.0654 0
M  V30 5813 C 572.19 -1.19743 1.45969 0
M  V30 5814 O 571.547 -1.73133 0.577168 0
M  V30 5815 C 571.598 -0.0145171 3.61497 0
M  V30 5816 O 571.319 1.25269 4.19809 0
M  V30 5817 C 572.82 -0.539555 4.40004 0
M  V30 5818 H 570.04 0.0729837 0.667019 0
M  V30 5819 H 572.584 0.846891 1.8614 0
M  V30 5820 H 570.739 -0.689809 3.81209 0
M  V30 5821 H 571.153 1.08816 5.13088 0
M  V30 5822 H 572.627 -0.584112 5.48901 0
M  V30 5823 H 573.104 -1.56368 4.10421 0
M  V30 5824 H 573.71 0.101995 4.25178 0
M  V30 5825 N 572.025 -1.5352 0.356285 0
M  V30 5826 C 573.271 -2.01414 -0.236653 0
M  V30 5827 C 573.604 -1.24339 -1.49176 0
M  V30 5828 O 572.879 -0.334496 -1.91602 0
M  V30 5829 C 573.162 -3.56059 -0.537982 0
M  V30 5830 C 573.015 -4.43835 0.730112 0
M  V30 5831 C 574.334 -4.19127 -1.34239 0
M  V30 5832 H 571.453 -0.732135 -0.0845386 0
M  V30 5833 H 574.095 -1.83854 0.479341 0
M  V30 5834 H 572.245 -3.71153 -1.14795 0
M  V30 5835 H 573.917 -4.40555 1.36782 0
M  V30 5836 H 572.16 -4.1218 1.3524 0
M  V30 5837 H 572.831 -5.49958 0.474358 0
M  V30 5838 H 575.307 -4.07809 -0.826498 0
M  V30 5839 H 574.183 -5.27378 -1.52198 0
M  V30 5840 H 574.444 -3.74581 -2.34822 0
M  V30 5841 N 573.503 -0.0852151 -1.57369 0
M  V30 5842 C 574.749 0.581666 -1.94279 0
M  V30 5843 C 575.082 1.68444 -0.966446 0
M  V30 5844 O 574.357 1.945 0.00215277 0
M  V30 5845 C 574.64 1.14609 -3.41375 0
M  V30 5846 C 574.493 0.0490414 -4.49773 0
M  V30 5847 C 575.812 2.04751 -3.8957 0
M  V30 5848 H 572.931 0.209972 -0.706456 0
M  V30 5849 H 575.573 -0.153915 -1.89376 0
M  V30 5850 H 573.723 1.77297 -3.45685 0
M  V30 5851 H 575.395 -0.584721 -4.57579 0
M  V30 5852 H 573.638 -0.618638 -4.29366 0
M  V30 5853 H 574.309 0.484601 -5.49869 0
M  V30 5854 H 576.785 1.51981 -3.87351 0
M  V30 5855 H 575.661 2.41173 -4.93079 0
M  V30 5856 H 575.922 2.96107 -3.28288 0
M  V30 5857 N 574.981 1.5647 0.188427 0
M  V30 5858 C 576.258 1.71857 0.934058 0
M  V30 5859 C 576.638 0.641867 2.01105 0
M  V30 5860 O 575.986 -0.346098 2.25864 0
M  V30 5861 C 576.196 3.14431 1.5144 0
M  V30 5862 C 577.544 3.74869 1.99396 0
M  V30 5863 O 578.568 3.17601 1.61269 0
M  V30 5864 O 577.427 4.75387 2.69573 0
M  V30 5865 H 574.521 0.701186 0.438483 0
M  V30 5866 H 577.067 1.68768 0.177599 0
M  V30 5867 H 575.839 3.8427 0.738416 0
M  V30 5868 H 575.462 3.21775 2.33552 0
M  V30 5869 N 576.459 -0.456382 1.50847 0
M  V30 5870 C 577.875 -0.791345 1.386 0
M  V30 5871 C 578.075 -1.9633 0.453498 0
M  V30 5872 O 577.131 -2.52308 -0.0984353 0
M  V30 5873 C 578.444 -1.08959 2.80265 0
M  V30 5874 C 579.992 -1.19517 2.89283 0
M  V30 5875 C 580.467 -1.52647 4.31814 0
M  V30 5876 N 581.958 -1.59609 4.34832 0
M  V30 5877 C 582.693 -1.86777 5.42127 0
M  V30 5878 N 582.189 -2.11866 6.59609 0
M  V30 5879 N 583.982 -1.88402 5.29586 0
M  V30 5880 H 576.133 0.315746 2.1004 0
M  V30 5881 H 578.396 0.0787916 0.94472 0
M  V30 5882 H 578.102 -0.301355 3.50407 0
M  V30 5883 H 577.976 -2.02211 3.18419 0
M  V30 5884 H 580.363 -1.97406 2.19351 0
M  V30 5885 H 580.444 -0.242111 2.54652 0
M  V30 5886 H 580.088 -0.752922 5.02288 0
M  V30 5887 H 580.018 -2.49127 4.63943 0
M  V30 5888 H 582.509 -1.42201 3.50125 0
M  V30 5889 H 582.822 -2.31912 7.37182 0
M  V30 5890 H 581.167 -2.09228 6.62758 0
M  V30 5891 H 584.358 -1.68307 4.36795 0
M  V30 5892 H 584.531 -2.09238 6.13289 0
M  V30 5893 N 577.937 -1.40673 -0.710563 0
M  V30 5894 C 579.186 -1.38525 -1.46607 0
M  V30 5895 C 579.499 0.0077024 -1.95598 0
M  V30 5896 O 580.705 0.151792 -2.71075 0
M  V30 5897 C 579.161 -2.43489 -2.6503 0
M  V30 5898 C 578.769 -3.88619 -2.22888 0
M  V30 5899 C 580.513 -2.50456 -3.42742 0
M  V30 5900 C 578.42 -4.85168 -3.3818 0
M  V30 5901 H 577.35 -0.515092 -0.550632 0
M  V30 5902 H 580.001 -1.66431 -0.772846 0
M  V30 5903 H 578.383 -2.0869 -3.36548 0
M  V30 5904 H 579.557 -4.32588 -1.58758 0
M  V30 5905 H 577.872 -3.85174 -1.58208 0
M  V30 5906 H 580.469 -3.19776 -4.28541 0
M  V30 5907 H 580.812 -1.53665 -3.86902 0
M  V30 5908 H 581.345 -2.84271 -2.78271 0
M  V30 5909 H 578.084 -5.8331 -2.99047 0
M  V30 5910 H 577.604 -4.4586 -4.01209 0
M  V30 5911 H 579.283 -5.05225 -4.04174 0
M  V30 5912 N 579.415 0.9433 -1.26252 0
M  V30 5913 C 580.645 1.72117 -1.14277 0
M  V30 5914 C 581.053 1.86726 0.304944 0
M  V30 5915 O 580.396 1.3727 1.22076 0
M  V30 5916 C 580.458 3.14778 -1.73651 0
M  V30 5917 C 580.122 3.23561 -3.22734 0
M  V30 5918 C 581.119 3.07001 -4.19579 0
M  V30 5919 C 578.804 3.47019 -3.63157 0
M  V30 5920 C 580.798 3.13763 -5.54826 0
M  V30 5921 C 578.485 3.53416 -4.98538 0
M  V30 5922 C 579.483 3.36804 -5.94182 0
M  V30 5923 O 579.171 3.42906 -7.27098 0
M  V30 5924 H 578.903 0.545781 -0.398873 0
M  V30 5925 H 581.457 1.19123 -1.67328 0
M  V30 5926 H 579.687 3.69186 -1.1506 0
M  V30 5927 H 581.376 3.74469 -1.56613 0
M  V30 5928 H 582.142 2.88736 -3.89688 0
M  V30 5929 H 578.021 3.59006 -2.89199 0
M  V30 5930 H 581.565 3.00714 -6.29458 0
M  V30 5931 H 577.462 3.71201 -5.28091 0
M  V30 5932 H 578.23 3.59463 -7.35342 0
M  V30 5933 N 580.893 1.08022 1.14757 0
M  V30 5934 C 581.843 0.676345 2.17737 0
M  V30 5935 C 582.827 -0.302018 1.5804 0
M  V30 5936 O 584.019 -0.11466 1.76628 0
M  V30 5937 C 581.148 0.082984 3.432 0
M  V30 5938 C 580.234 1.0869 4.09936 0
M  V30 5939 N 580.625 2.26891 4.52055 0
M  V30 5940 C 578.923 0.921768 4.36371 0
M  V30 5941 C 579.624 2.90636 5.0389 0
M  V30 5942 N 578.6 2.18266 4.97856 0
M  V30 5943 H 582.402 1.5765 2.4804 0
M  V30 5944 H 579.916 0.954374 1.31398 0
M  V30 5945 H 581.913 -0.224289 4.16296 0
M  V30 5946 H 580.573 -0.812206 3.14378 0
M  V30 5947 H 581.584 2.6457 4.45223 0
M  V30 5948 H 578.261 0.0800499 4.17423 0
M  V30 5949 H 579.651 3.9104 5.46386 0
M  V30 5950 N 582.371 -1.3172 0.865308 0
M  V30 5951 C 583.62 -1.96145 0.470098 0
M  V30 5952 C 583.933 -1.69182 -0.981674 0
M  V30 5953 O 585.139 -2.27431 -1.48281 0
M  V30 5954 C 583.595 -3.51129 0.789732 0
M  V30 5955 C 583.203 -3.86938 2.25795 0
M  V30 5956 C 584.947 -4.2197 0.462765 0
M  V30 5957 C 582.854 -5.35012 2.52024 0
M  V30 5958 H 581.784 -0.734105 0.172065 0
M  V30 5959 H 584.435 -1.49959 1.05757 0
M  V30 5960 H 582.817 -3.95781 0.131571 0
M  V30 5961 H 583.991 -3.5326 2.95879 0
M  V30 5962 H 582.306 -3.29149 2.55049 0
M  V30 5963 H 584.903 -5.30904 0.636019 0
M  V30 5964 H 585.246 -4.12005 -0.59645 0
M  V30 5965 H 585.779 -3.82936 1.07727 0
M  V30 5966 H 582.518 -5.50008 3.56611 0
M  V30 5967 H 582.038 -5.70058 1.8653 0
M  V30 5968 H 583.717 -6.0222 2.36515 0
M  V30 5969 N 583.85 -0.624285 -1.44708 0
M  V30 5970 C 585.127 -0.0572781 -1.95516 0
M  V30 5971 C 585.507 1.41516 -1.56641 0
M  V30 5972 O 584.855 2.12614 -0.837111 0
M  V30 5973 C 585.065 -0.272944 -3.47931 0
M  V30 5974 C 586.413 -0.162529 -4.24289 0
M  V30 5975 O 587.437 -0.203946 -3.55616 0
M  V30 5976 O 586.296 -0.0616847 -5.46465 0
M  V30 5977 H 583.389 0.0262219 -0.826584 0
M  V30 5978 H 585.936 -0.695512 -1.54793 0
M  V30 5979 H 584.707 -1.29492 -3.69253 0
M  V30 5980 H 584.331 0.399756 -3.95585 0
M  V30 5981 N 585.328 1.53329 -0.364422 0
M  V30 5982 C 586.744 1.59594 -0.0133165 0
M  V30 5983 C 586.944 1.37959 1.46865 0
M  V30 5984 O 586 1.18418 2.2301 0
M  V30 5985 C 587.313 2.97032 -0.468213 0
M  V30 5986 C 588.861 3.10138 -0.422334 0
M  V30 5987 C 589.336 4.49986 -0.853024 0
M  V30 5988 N 590.827 4.56098 -0.808037 0
M  V30 5989 C 591.562 5.62495 -1.11299 0
M  V30 5990 N 591.058 6.7665 -1.48717 0
M  V30 5991 N 592.851 5.52473 -1.03586 0
M  V30 5992 H 585.002 1.65644 -1.32951 0
M  V30 5993 H 587.265 0.77684 -0.543345 0
M  V30 5994 H 586.971 3.18 -1.5023 0
M  V30 5995 H 586.845 3.76918 0.145775 0
M  V30 5996 H 589.232 2.88881 0.602622 0
M  V30 5997 H 589.313 2.32263 -1.0718 0
M  V30 5998 H 588.957 4.7198 -1.87609 0
M  V30 5999 H 588.887 5.26289 -0.180819 0
M  V30 6000 H 591.378 3.74131 -0.532361 0
M  V30 6001 H 591.691 7.53776 -1.70415 0
M  V30 6002 H 590.036 6.78044 -1.52581 0
M  V30 6003 H 593.227 4.6217 -0.742736 0
M  V30 6004 H 593.4 6.35295 -1.27686 0
M  V30 6005 N 586.806 0.0935595 1.57322 0
M  V30 6006 C 588.054 -0.569383 1.93913 0
M  V30 6007 C 588.375 -1.68817 0.976009 0
M  V30 6008 O 587.645 -1.9588 0.0278099 0
M  V30 6009 H 586.225 -0.21332 0.715894 0
M  V30 6010 H 588.887 0.156531 1.9427 0
M  V30 6011 H 587.983 -0.980577 2.96296 0
M  V30 6012 N 588.284 -1.56567 -0.180126 0
M  V30 6013 C 589.514 -1.85349 -0.912647 0
M  V30 6014 C 589.922 -0.675795 -1.76719 0
M  V30 6015 O 589.265 0.3645 -1.80047 0
M  V30 6016 C 589.327 -3.08431 -1.84691 0
M  V30 6017 C 588.991 -4.41694 -1.17284 0
M  V30 6018 C 589.988 -5.17062 -0.542532 0
M  V30 6019 C 587.673 -4.8843 -1.17223 0
M  V30 6020 C 589.667 -6.37351 0.0793953 0
M  V30 6021 C 587.354 -6.08652 -0.54647 0
M  V30 6022 C 588.352 -6.82955 0.0782458 0
M  V30 6023 O 588.04 -8.00897 0.694158 0
M  V30 6024 H 587.772 -0.619286 -0.271036 0
M  V30 6025 H 590.326 -2.0454 -0.187768 0
M  V30 6026 H 588.556 -2.85163 -2.61188 0
M  V30 6027 H 590.245 -3.23733 -2.44851 0
M  V30 6028 H 591.011 -4.8204 -0.535045 0
M  V30 6029 H 586.89 -4.30542 -1.64788 0
M  V30 6030 H 590.434 -6.95287 0.567612 0
M  V30 6031 H 586.331 -6.4314 -0.55151 0
M  V30 6032 H 587.099 -8.16352 0.592537 0
M  V30 6033 N 589.762 0.448376 -1.51087 0
M  V30 6034 C 590.672 1.56882 -1.74428 0
M  V30 6035 C 591.688 1.62268 -0.62809 0
M  V30 6036 O 592.864 1.79716 -0.909075 0
M  V30 6037 C 589.929 2.92947 -1.85426 0
M  V30 6038 C 588.99 2.97766 -3.09247 0
M  V30 6039 C 588.223 4.27341 -3.19711 0
M  V30 6040 O 588.446 5.19112 -2.36387 0
M  V30 6041 O 587.38 4.38219 -4.12611 0
M  V30 6042 H 591.206 1.40104 -2.69452 0
M  V30 6043 H 588.791 0.630247 -1.35456 0
M  V30 6044 H 590.673 3.73719 -1.94709 0
M  V30 6045 H 589.348 3.09876 -0.935887 0
M  V30 6046 H 588.255 2.15989 -3.0545 0
M  V30 6047 H 589.588 2.8578 -4.00738 0
M  V30 6048 N 591.24 1.41047 0.703093 0
M  V30 6049 C 592.656 1.23351 1.01275 0
M  V30 6050 C 592.856 0.11754 2.01157 0
M  V30 6051 O 591.912 -0.520518 2.47077 0
M  V30 6052 C 593.225 2.58001 1.54454 0
M  V30 6053 C 594.773 2.65119 1.66376 0
M  V30 6054 C 595.248 4.00067 2.22958 0
M  V30 6055 N 596.739 4.01875 2.30328 0
M  V30 6056 C 597.474 5.03087 2.75119 0
M  V30 6057 N 596.97 6.14692 3.19571 0
M  V30 6058 N 598.763 4.90451 2.74616 0
M  V30 6059 H 590.914 2.1236 0.0412686 0
M  V30 6060 H 593.177 0.944543 0.08089 0
M  V30 6061 H 592.883 3.40378 0.88521 0
M  V30 6062 H 592.757 2.79962 2.52786 0
M  V30 6063 H 595.144 1.83106 2.31422 0
M  V30 6064 H 595.225 2.46975 0.666089 0
M  V30 6065 H 594.869 4.82526 1.58529 0
M  V30 6066 H 594.799 4.15547 3.23462 0
M  V30 6067 H 597.29 3.21291 1.98949 0
M  V30 6068 H 597.603 6.87799 3.52352 0
M  V30 6069 H 595.948 6.18239 3.17498 0
M  V30 6070 H 599.139 4.0235 2.39233 0
M  V30 6071 H 599.312 5.6947 3.09206 0
M  V30 6072 N 592.718 -0.936591 1.26751 0
M  V30 6073 C 593.967 -1.67778 1.11953 0
M  V30 6074 C 594.28 -1.92694 -0.33589 0
M  V30 6075 O 595.486 -2.64682 -0.604618 0
M  V30 6076 C 593.942 -3.02138 1.95551 0
M  V30 6077 C 593.55 -2.84953 3.45696 0
M  V30 6078 C 595.294 -3.79917 1.89377 0
M  V30 6079 C 593.201 -4.14814 4.21525 0
M  V30 6080 H 592.131 -0.629275 0.415366 0
M  V30 6081 H 594.782 -1.04122 1.51099 0
M  V30 6082 H 593.164 -3.668 1.49243 0
M  V30 6083 H 594.338 -2.29112 3.99805 0
M  V30 6084 H 592.653 -2.20612 3.53156 0
M  V30 6085 H 595.25 -4.76134 2.43312 0
M  V30 6086 H 595.593 -4.07204 0.865464 0
M  V30 6087 H 596.126 -3.22037 2.33532 0
M  V30 6088 H 592.865 -3.92709 5.24843 0
M  V30 6089 H 592.385 -4.70352 3.72195 0
M  V30 6090 H 594.064 -4.83239 4.3022 0
M  V30 6091 N 594.196 -1.08629 -1.14182 0
M  V30 6092 C 595.106 -0.730126 -2.22949 0
M  V30 6093 C 596.122 0.26436 -1.7198 0
M  V30 6094 O 597.298 0.107742 -2.01112 0
M  V30 6095 C 594.363 -0.147227 -3.46387 0
M  V30 6096 C 593.424 -1.19662 -4.12286 0
M  V30 6097 C 592.657 -0.641437 -5.29831 0
M  V30 6098 O 592.88 0.538351 -5.67854 0
M  V30 6099 O 591.814 -1.39257 -5.85569 0
M  V30 6100 H 595.64 -1.63753 -2.55771 0
M  V30 6101 H 593.225 -0.860118 -1.22157 0
M  V30 6102 H 595.107 0.174923 -4.21037 0
M  V30 6103 H 593.782 0.733304 -3.15285 0
M  V30 6104 H 592.689 -1.57133 -3.395 0
M  V30 6105 H 594.022 -2.0495 -4.475 0
M  V30 6106 N 595.674 1.31259 -0.872281 0
M  V30 6107 C 596.951 1.91362 -0.404943 0
M  V30 6108 C 597.331 1.79362 1.11321 0
M  V30 6109 O 596.679 1.20277 1.94283 0
M  V30 6110 C 596.889 3.3749 -0.888893 0
M  V30 6111 C 598.237 4.14593 -0.916384 0
M  V30 6112 O 599.261 3.46282 -0.834701 0
M  V30 6113 O 598.12 5.3661 -1.03498 0
M  V30 6114 H 595.214 0.818016 -0.121569 0
M  V30 6115 H 597.76 1.39912 -0.960346 0
M  V30 6116 H 596.532 3.40249 -1.93251 0
M  V30 6117 H 596.155 3.96375 -0.311932 0
M  V30 6118 N 597.152 0.631951 1.44375 0
M  V30 6119 C 598.099 -0.0724807 2.30686 0
M  V30 6120 C 599.069 -0.835975 1.43529 0
M  V30 6121 O 600.254 -0.816849 1.7243 0
M  V30 6122 C 597.394 -1.04753 3.28817 0
M  V30 6123 C 596.507 -0.282367 4.31076 0
M  V30 6124 C 595.642 -1.2493 5.163 0
M  V30 6125 C 594.681 -0.473349 6.10267 0
M  V30 6126 N 593.818 -1.39079 6.88187 0
M  V30 6127 H 598.658 0.669477 2.90383 0
M  V30 6128 H 596.195 0.341927 1.43071 0
M  V30 6129 H 598.153 -1.62623 3.842 0
M  V30 6130 H 596.783 -1.75661 2.70819 0
M  V30 6131 H 595.835 0.412268 3.78159 0
M  V30 6132 H 597.147 0.321955 4.9776 0
M  V30 6133 H 596.301 -1.89931 5.76204 0
M  V30 6134 H 595.04 -1.88755 4.49692 0
M  V30 6135 H 594.045 0.190142 5.49471 0
M  V30 6136 H 595.27 0.16019 6.78911 0
M  V30 6137 H 593.216 -2.01623 6.24247 0
M  V30 6138 H 593.133 -0.840513 7.51313 0
M  V30 6139 H 594.401 -2.02961 7.52613 0
M  V30 6140 N 598.631 -1.53133 0.372548 0
M  V30 6141 C 599.561 -2.28876 -0.462412 0
M  V30 6142 C 600.542 -1.31583 -1.07796 0
M  V30 6143 O 601.727 -1.60461 -1.09389 0
M  V30 6144 C 598.857 -3.08317 -1.59868 0
M  V30 6145 C 597.811 -4.13355 -1.11003 0
M  V30 6146 C 597.137 -4.8092 -2.33708 0
M  V30 6147 C 598.437 -5.21955 -0.18983 0
M  V30 6148 H 600.131 -2.9892 0.169511 0
M  V30 6149 H 597.677 -1.43761 0.0829658 0
M  V30 6150 H 599.63 -3.60055 -2.18949 0
M  V30 6151 H 598.354 -2.35976 -2.25794 0
M  V30 6152 H 597.013 -3.62573 -0.541869 0
M  V30 6153 H 596.661 -4.05144 -2.98106 0
M  V30 6154 H 596.361 -5.51904 -2.01682 0
M  V30 6155 H 597.885 -5.35455 -2.93462 0
M  V30 6156 H 599.299 -5.69153 -0.688319 0
M  V30 6157 H 597.696 -6.00087 0.0398887 0
M  V30 6158 H 598.766 -4.78811 0.766057 0
M  V30 6159 N 600.109 -0.101901 -1.5727 0
M  V30 6160 C 601.525 0.254739 -1.57554 0
M  V30 6161 C 601.725 1.67937 -1.11352 0
M  V30 6162 O 600.781 2.39722 -0.793081 0
M  V30 6163 C 602.094 0.036975 -3.00677 0
M  V30 6164 C 603.642 0.104199 -3.12827 0
M  V30 6165 C 604.117 -0.0856565 -4.5792 0
M  V30 6166 N 605.608 -0.0310498 -4.6319 0
M  V30 6167 C 606.343 -0.153099 -5.73196 0
M  V30 6168 N 605.839 -0.330364 -6.92012 0
M  V30 6169 N 607.632 -0.0938854 -5.62022 0
M  V30 6170 H 599.783 -1.03263 -1.85609 0
M  V30 6171 H 602.046 -0.405251 -0.857016 0
M  V30 6172 H 601.752 -0.947254 -3.38703 0
M  V30 6173 H 601.626 0.776335 -3.69124 0
M  V30 6174 H 604.013 1.07894 -2.74669 0
M  V30 6175 H 604.094 -0.666762 -2.46957 0
M  V30 6176 H 603.738 -1.05729 -4.96773 0
M  V30 6177 H 603.668 0.705082 -5.21858 0
M  V30 6178 H 606.159 0.103141 -3.77759 0
M  V30 6179 H 606.472 -0.41482 -7.71686 0
M  V30 6180 H 604.817 -0.366119 -6.94035 0
M  V30 6181 H 608.008 0.0435168 -4.6808 0
M  V30 6182 H 608.181 -0.19245 -6.47714 0
M  V30 6183 N 601.587 1.56661 0.17182 0
M  V30 6184 C 602.55 1.9549 1.19651 0
M  V30 6185 C 603.55 0.838501 1.37207 0
M  V30 6186 O 604.74 1.10556 1.34622 0
M  V30 6187 C 601.872 2.24927 2.56166 0
M  V30 6188 H 603.065 2.87184 0.864007 0
M  V30 6189 H 600.618 1.50711 0.41425 0
M  V30 6190 H 601.353 1.35944 2.94431 0
M  V30 6191 H 601.138 3.06301 2.4479 0
M  V30 6192 H 602.628 2.55891 3.30014 0
M  V30 6193 N 603.065 -0.440357 1.51323 0
M  V30 6194 C 603.995 -1.54174 1.75364 0
M  V30 6195 C 604.976 -1.59039 0.603375 0
M  V30 6196 O 606.161 -1.74815 0.845774 0
M  V30 6197 C 603.291 -2.92277 1.87593 0
M  V30 6198 C 602.245 -3.02274 3.03009 0
M  V30 6199 C 601.571 -4.42327 3.00418 0
M  V30 6200 C 602.871 -2.76634 4.43024 0
M  V30 6201 H 604.565 -1.34307 2.67585 0
M  V30 6202 H 602.111 -0.644678 1.28763 0
M  V30 6203 H 604.064 -3.69284 2.02995 0
M  V30 6204 H 602.788 -3.13369 0.920179 0
M  V30 6205 H 601.447 -2.27706 2.87307 0
M  V30 6206 H 601.095 -4.60382 2.02626 0
M  V30 6207 H 600.795 -4.49946 3.77918 0
M  V30 6208 H 602.319 -5.21312 3.17909 0
M  V30 6209 H 603.733 -3.43376 4.59093 0
M  V30 6210 H 602.13 -2.95666 5.22208 0
M  V30 6211 H 603.2 -1.72262 4.5327 0
M  V30 6212 N 604.543 -1.41418 -0.695603 0
M  V30 6213 C 605.791 -1.40496 -1.45277 0
M  V30 6214 C 606.112 -0.0149538 -1.94994 0
M  V30 6215 O 605.382 0.9432 -1.71699 0
M  V30 6216 H 603.962 -0.517147 -0.539044 0
M  V30 6217 H 606.624 -1.76656 -0.823321 0
M  V30 6218 H 605.72 -2.09214 -2.31595 0
M  V30 6219 N 606.021 0.929856 -1.27246 0
M  V30 6220 C 606.984 2.01172 -1.09829 0
M  V30 6221 C 607.984 1.60743 -0.0429687 0
M  V30 6222 O 609.174 1.71813 -0.287373 0
M  V30 6223 C 606.306 3.34191 -0.673003 0
M  V30 6224 H 607.499 2.18054 -2.05895 0
M  V30 6225 H 605.052 1.11036 -1.10003 0
M  V30 6226 H 605.787 3.23009 0.289134 0
M  V30 6227 H 605.572 3.64892 -1.43515 0
M  V30 6228 H 607.062 4.13646 -0.573323 0
M  V30 6229 N 607.499 1.09233 1.13605 0
M  V30 6230 C 608.447 0.724572 2.21027 0
M  V30 6231 C 609.441 -0.273595 1.67176 0
M  V30 6232 O 610.647 -0.135266 1.79491 0
M  V30 6233 H 607.022 0.216319 0.720215 0
M  V30 6234 H 608.993 1.63975 2.49309 0
M  V30 6235 C 607.742 0.159126 3.47336 0
M  V30 6236 H 607.065 0.918387 3.89109 0
M  V30 6237 H 608.505 -0.0602851 4.23957 0
M  V30 6238 C 606.964 -1.10514 3.18258 0
M  V30 6239 O 607.494 -2.18869 3.36837 0
M  V30 6240 N 605.7 -1.01886 2.72154 0
M  V30 6241 H 605.247 -0.137027 2.57235 0
M  V30 6242 H 605.205 -1.8655 2.53074 0
M  V30 6243 N 608.977 -1.30795 0.87923 0
M  V30 6244 C 610.226 -1.95636 0.490875 0
M  V30 6245 C 610.539 -1.70214 -0.963674 0
M  V30 6246 O 611.745 -2.28991 -1.45861 0
M  V30 6247 C 610.201 -3.50271 0.826929 0
M  V30 6248 C 609.809 -3.84521 2.29886 0
M  V30 6249 C 611.553 -4.21456 0.507494 0
M  V30 6250 C 609.46 -5.32309 2.57685 0
M  V30 6251 H 608.39 -0.732238 0.179841 0
M  V30 6252 H 611.041 -1.48829 1.07341 0
M  V30 6253 H 609.423 -3.9562 0.173542 0
M  V30 6254 H 610.597 -3.50102 2.99609 0
M  V30 6255 H 608.912 -3.26425 2.58526 0
M  V30 6256 H 611.509 -5.30199 0.692293 0
M  V30 6257 H 611.852 -4.12614 -0.552718 0
M  V30 6258 H 612.385 -3.81772 1.11782 0
M  V30 6259 H 609.124 -5.46195 3.62424 0
M  V30 6260 H 608.644 -5.68048 1.92566 0
M  V30 6261 H 610.323 -5.99678 2.42889 0
M  V30 6262 N 610.455 -0.639598 -1.44038 0
M  V30 6263 C 611.365 0.0612377 -2.3452 0
M  V30 6264 C 612.381 0.826717 -1.53106 0
M  V30 6265 O 613.557 0.777059 -1.85806 0
M  V30 6266 C 610.622 1.02492 -3.31204 0
M  V30 6267 C 609.683 0.25788 -4.28525 0
M  V30 6268 C 608.916 1.17566 -5.2059 0
M  V30 6269 O 609.139 2.41461 -5.16771 0
M  V30 6270 O 608.073 0.655407 -5.98321 0
M  V30 6271 H 611.899 -0.68318 -2.95916 0
M  V30 6272 H 609.484 -0.399784 -1.43952 0
M  V30 6273 H 611.366 1.57911 -3.90694 0
M  V30 6274 H 610.041 1.7498 -2.7233 0
M  V30 6275 H 608.948 -0.339566 -3.72556 0
M  V30 6276 H 610.281 -0.427154 -4.90343 0
M  V30 6277 N 611.933 1.52934 -0.380664 0
M  V30 6278 C 613.349 1.59571 -0.0302429 0
M  V30 6279 C 613.549 1.39509 1.45394 0
M  V30 6280 O 612.605 1.20777 2.21741 0
M  V30 6281 C 613.918 2.96519 -0.499691 0
M  V30 6282 C 615.466 3.09672 -0.455204 0
M  V30 6283 C 615.941 4.49056 -0.900703 0
M  V30 6284 N 617.432 4.55215 -0.856367 0
M  V30 6285 C 618.167 5.61282 -1.17259 0
M  V30 6286 N 617.663 6.75035 -1.55885 0
M  V30 6287 N 619.456 5.51343 -1.0944 0
M  V30 6288 H 611.607 1.64224 -1.347 0
M  V30 6289 H 613.87 0.771033 -0.551554 0
M  V30 6290 H 613.576 3.16388 -1.53595 0
M  V30 6291 H 613.45 3.77052 0.105789 0
M  V30 6292 H 615.837 2.89504 0.571949 0
M  V30 6293 H 615.918 2.31113 -1.09638 0
M  V30 6294 H 615.562 4.69964 -1.92604 0
M  V30 6295 H 615.492 5.26068 -0.236629 0
M  V30 6296 H 617.983 3.73546 -0.572013 0
M  V30 6297 H 618.296 7.51926 -1.784 0
M  V30 6298 H 616.641 6.76388 -1.59764 0
M  V30 6299 H 619.832 4.61356 -0.791713 0
M  V30 6300 H 620.005 6.33905 -1.34417 0
M  V30 6301 N 613.412 0.11024 1.57214 0
M  V30 6302 C 614.658 -0.550684 1.9518 0
M  V30 6303 C 614.991 -1.66885 0.993122 0
M  V30 6304 O 614.266 -1.94479 0.0287907 0
M  V30 6305 C 614.549 -1.09163 3.43155 0
M  V30 6306 C 614.402 0.0225198 4.49794 0
M  V30 6307 C 615.721 -1.98527 3.92778 0
M  V30 6308 H 612.84 -0.198706 0.709708 0
M  V30 6309 H 615.482 0.184024 1.89107 0
M  V30 6310 H 613.632 -1.71775 3.48462 0
M  V30 6311 H 615.304 0.657443 4.56591 0
M  V30 6312 H 613.547 0.686868 4.28328 0
M  V30 6313 H 614.218 -0.39706 5.5057 0
M  V30 6314 H 616.694 -1.458 3.8972 0
M  V30 6315 H 615.57 -2.33298 4.96853 0
M  V30 6316 H 615.831 -2.90846 3.32958 0
M  V30 6317 N 614.89 -1.56749 -0.16351 0
M  V30 6318 C 615.837 -1.97011 -1.2023 0
M  V30 6319 C 616.807 -0.835186 -1.43575 0
M  V30 6320 O 617.992 -1.09594 -1.56185 0
M  V30 6321 C 615.132 -2.34186 -2.53478 0
M  V30 6322 C 614.245 -3.60893 -2.37446 0
M  V30 6323 C 613.38 -3.87245 -3.63614 0
M  V30 6324 C 612.419 -5.07274 -3.42548 0
M  V30 6325 N 611.556 -5.29719 -4.60806 0
M  V30 6326 H 616.396 -2.85562 -0.851958 0
M  V30 6327 H 613.933 -1.41292 -0.409257 0
M  V30 6328 H 615.891 -2.53764 -3.31149 0
M  V30 6329 H 614.521 -1.48736 -2.86492 0
M  V30 6330 H 613.573 -3.49185 -1.50911 0
M  V30 6331 H 614.885 -4.48722 -2.1783 0
M  V30 6332 H 614.039 -4.07232 -4.49719 0
M  V30 6333 H 612.778 -2.97806 -3.86216 0
M  V30 6334 H 611.783 -4.87177 -2.5483 0
M  V30 6335 H 613.008 -5.98251 -3.2136 0
M  V30 6336 H 610.954 -4.43233 -4.83612 0
M  V30 6337 H 610.871 -6.11786 -4.44132 0
M  V30 6338 H 612.139 -5.54192 -5.48171 0
M  V30 6339 N 616.368 0.432326 -1.51554 0
M  V30 6340 C 617.616 1.17901 -1.64146 0
M  V30 6341 C 617.937 1.91604 -0.362367 0
M  V30 6342 O 617.207 1.85764 0.621968 0
M  V30 6343 H 615.787 0.438206 -0.604966 0
M  V30 6344 H 618.449 0.495172 -1.88505 0
M  V30 6345 H 617.545 1.90584 -2.47152 0
M  V30 6346 N 617.846 1.41785 0.688094 0
M  V30 6347 C 618.756 1.46596 1.83158 0
M  V30 6348 C 619.772 0.355862 1.70322 0
M  V30 6349 O 620.948 0.604737 1.92106 0
M  V30 6350 C 618.013 1.35322 3.192 0
M  V30 6351 C 617.074 2.56711 3.4409 0
M  V30 6352 C 616.307 2.45965 4.73642 0
M  V30 6353 O 616.53 1.48827 5.50642 0
M  V30 6354 O 615.464 3.35859 4.99482 0
M  V30 6355 H 619.29 2.43083 1.82056 0
M  V30 6356 H 616.875 1.23404 0.842126 0
M  V30 6357 H 618.757 1.31347 4.00407 0
M  V30 6358 H 617.432 0.419536 3.2097 0
M  V30 6359 H 616.339 2.66262 2.62784 0
M  V30 6360 H 617.672 3.48933 3.47141 0
M  V30 6361 O 619.363 -0.830368 1.38518 0
M  V30 6362 H 620.054 -1.47302 1.25785 0
M  V30 END ATOM
M  V30 BEGIN BOND
M  V30 END BOND
M  V30 END CTAB
M  END
$$$$
