drugbank_target|Q06700 Glutaconyl-CoA decarboxylase subunit alpha (DB01942)
 OpenBabel12092120233D

  0  0  0     0  0            999 V3000
M  V30 BEGIN CTAB
M  V30 COUNTS 9054 9147 0 0 0
M  V30 BEGIN ATOM
M  V30 1 H -0.908 1.98254 -0.117106 0
M  V30 2 N 0 1.576 0 0
M  V30 3 C 0.933 2.03868 1.02534 0
M  V30 4 C 1.911 0.928543 1.3348 0
M  V30 5 O 3.095 1.19667 1.45644 0
M  V30 6 C 0.222 2.43627 2.35294 0
M  V30 7 C -0.732 3.65373 2.2001 0
M  V30 8 S 0.101 5.13292 1.52614 0
M  V30 9 C 1.257 5.56322 2.86805 0
M  V30 10 H 1.49 2.90518 0.631377 0
M  V30 11 H -0.977 1.52953 0.210867 0
M  V30 12 H 0.981 2.67203 3.11629 0
M  V30 13 H -0.358 1.57376 2.7183 0
M  V30 14 H -1.165 3.90944 3.18086 0
M  V30 15 H -1.563 3.418 1.51819 0
M  V30 16 H 0.729 5.58782 3.83104 0
M  V30 17 H 1.672 6.56266 2.65933 0
M  V30 18 H 2.08 4.83886 2.90714 0
M  V30 19 N 1.4781 -0.272755 1.55222 0
M  V30 20 C 2.7261 -1.00234 1.75492 0
M  V30 21 C 3.0471 -1.8681 0.5592 0
M  V30 22 O 2.3171 -1.91215 -0.425882 0
M  V30 23 H 0.8971 -0.373076 0.647166 0
M  V30 24 H 3.5591 -0.296926 1.92625 0
M  V30 25 H 2.6551 -1.63913 2.65592 0
M  V30 26 N 2.9562 -1.48159 -0.537278 0
M  V30 27 C 4.2032 -1.55804 -1.29349 0
M  V30 28 C 4.5312 -0.228802 -1.9315 0
M  V30 29 O 3.7862 0.780242 -1.79473 0
M  V30 30 C 4.0852 -2.63956 -2.40961 0
M  V30 31 C 3.7512 -4.0662 -1.94861 0
M  V30 32 C 2.4132 -4.45452 -1.82006 0
M  V30 33 C 4.7652 -4.96055 -1.59933 0
M  V30 34 C 2.0932 -5.71531 -1.32547 0
M  V30 35 C 4.4452 -6.22617 -1.11939 0
M  V30 36 C 3.1092 -6.60312 -0.976951 0
M  V30 37 H 2.3792 -0.570129 -0.473322 0
M  V30 38 H 5.0262 -1.81845 -0.600372 0
M  V30 39 H 3.3312 -2.31747 -3.15912 0
M  V30 40 H 5.0282 -2.67089 -2.99107 0
M  V30 41 H 1.6182 -3.75949 -2.05815 0
M  V30 42 H 5.8022 -4.66738 -1.68728 0
M  V30 43 H 1.0582 -5.99468 -1.202 0
M  V30 44 H 5.2322 -6.91318 -0.839811 0
M  V30 45 H 2.8592 -7.57895 -0.591501 0
M  V30 46 N 4.4343 0.785586 -1.36625 0
M  V30 47 C 5.6643 1.5722 -1.34036 0
M  V30 48 C 6.0723 1.89033 0.0795062 0
M  V30 49 O 5.4153 1.50881 1.04789 0
M  V30 50 C 5.4773 2.91759 -2.10041 0
M  V30 51 C 5.1413 2.82654 -3.59104 0
M  V30 52 C 6.1383 2.54634 -4.53274 0
M  V30 53 C 3.8233 3.01111 -4.02042 0
M  V30 54 C 5.8173 2.45177 -5.88359 0
M  V30 55 C 3.5043 2.91276 -5.37216 0
M  V30 56 C 4.5023 2.63348 -6.30188 0
M  V30 57 O 4.1903 2.53514 -7.6288 0
M  V30 58 H 3.9223 0.494177 -0.461265 0
M  V30 59 H 6.4763 0.982632 -1.8037 0
M  V30 60 H 4.7063 3.52781 -1.58375 0
M  V30 61 H 6.3953 3.53059 -2.00261 0
M  V30 62 H 7.1613 2.40073 -4.21414 0
M  V30 63 H 3.0403 3.21854 -3.30047 0
M  V30 64 H 6.5843 2.23299 -6.60896 0
M  V30 65 H 2.4813 3.054 -5.68684 0
M  V30 66 H 3.2493 2.68967 -7.73045 0
M  V30 67 N 5.9124 1.20967 1.01018 0
M  V30 68 C 7.1374 1.0503 1.78839 0
M  V30 69 C 7.5624 -0.395752 1.8389 0
M  V30 70 O 6.9204 -1.28529 1.27867 0
M  V30 71 C 6.9684 1.64602 3.2084 0
M  V30 72 O 6.0724 0.887988 4.02726 0
M  V30 73 H 5.4134 0.369987 0.551367 0
M  V30 74 H 7.9434 1.60399 1.27018 0
M  V30 75 H 7.9534 1.68607 3.71532 0
M  V30 76 H 6.6284 2.69841 3.16479 0
M  V30 77 H 5.2054 0.922648 3.61305 0
M  V30 78 N 7.3905 -1.2043 1.01659 0
M  V30 79 C 8.3235 -2.21924 0.531521 0
M  V30 80 C 9.3015 -1.57054 -0.421032 0
M  V30 81 O 10.4855 -1.85389 -0.341035 0
M  V30 82 C 7.6125 -3.37942 -0.226496 0
M  V30 83 C 6.6585 -4.21115 0.67561 0
M  V30 84 S 7.4915 -4.90674 2.14475 0
M  V30 85 C 8.6475 -6.10113 1.3969 0
M  V30 86 H 8.8805 -2.62725 1.3915 0
M  V30 87 H 6.4135 -1.30481 0.825479 0
M  V30 88 H 8.3715 -4.05196 -0.657738 0
M  V30 89 H 7.0325 -2.956 -1.06205 0
M  V30 90 H 6.2255 -5.03918 0.091108 0
M  V30 91 H 5.8275 -3.59115 1.04463 0
M  V30 92 H 8.1195 -6.7411 0.676897 0
M  V30 93 H 9.0625 -6.73022 2.20107 0
M  V30 94 H 9.4705 -5.57283 0.899786 0
M  V30 95 N 8.8686 -0.792821 -1.36206 0
M  V30 96 C 10.2796 -0.429513 -1.81692 0
M  V30 97 C 10.6306 1.04695 -1.65932 0
M  V30 98 O 9.7556 1.81256 -1.18218 0
M  V30 99 C 10.3506 -0.772831 -3.29868 0
M  V30 100 C 8.9096 -0.462307 -3.7355 0
M  V30 101 C 8.0566 -1.00569 -2.5842 0
M  V30 102 H 11.0076 -0.985672 -1.24379 0
M  V30 103 H 11.0286 -0.0651928 -3.80444 0
M  V30 104 H 10.5406 -1.84747 -3.41307 0
M  V30 105 H 8.6416 0.604158 -3.67669 0
M  V30 106 H 8.7546 -0.985299 -4.68859 0
M  V30 107 H 7.1186 -0.428734 -2.51066 0
M  V30 108 H 7.9016 -2.08616 -2.72643 0
M  V30 109 N 10.3467 1.47872 -0.545128 0
M  V30 110 C 11.7627 1.5829 -0.204032 0
M  V30 111 C 11.9627 1.54529 1.29317 0
M  V30 112 O 11.0187 1.44232 2.07252 0
M  V30 113 C 12.3317 2.89304 -0.819987 0
M  V30 114 C 13.8797 3.02864 -0.790105 0
M  V30 115 C 14.3547 4.3656 -1.38491 0
M  V30 116 N 15.8457 4.43165 -1.34755 0
M  V30 117 C 16.5807 5.45153 -1.77753 0
M  V30 118 N 16.0767 6.54016 -2.2855 0
M  V30 119 N 17.8697 5.36125 -1.68897 0
M  V30 120 H 10.0207 1.4856 -1.51802 0
M  V30 121 H 12.2837 0.706305 -0.632327 0
M  V30 122 H 11.9897 2.97757 -1.87173 0
M  V30 123 H 11.8637 3.75957 -0.305915 0
M  V30 124 H 14.2507 2.94014 0.252913 0
M  V30 125 H 14.3317 2.17782 -1.34181 0
M  V30 126 H 13.9757 4.46164 -2.42693 0
M  V30 127 H 13.9057 5.20353 -0.808754 0
M  V30 128 H 16.3967 3.65083 -0.975855 0
M  V30 129 H 16.7097 7.27994 -2.59314 0
M  V30 130 H 15.0547 6.54938 -2.32553 0
M  V30 131 H 18.2457 4.49975 -1.28998 0
M  V30 132 H 18.4187 6.15472 -2.02726 0
M  V30 133 N 11.8248 0.280983 1.55075 0
M  V30 134 C 13.0548 -0.336804 2.03836 0
M  V30 135 C 13.4628 -1.49577 1.15859 0
M  V30 136 O 12.8058 -1.82888 0.172503 0
M  V30 137 C 12.8678 -0.874616 3.48699 0
M  V30 138 C 12.5318 0.156478 4.56732 0
M  V30 139 C 13.5288 0.978032 5.10618 0
M  V30 140 C 11.2138 0.292409 5.01448 0
M  V30 141 C 13.2078 1.92165 6.07743 0
M  V30 142 C 10.8948 1.23949 5.98398 0
M  V30 143 C 11.8928 2.05261 6.51427 0
M  V30 144 O 11.5808 2.98367 7.4648 0
M  V30 145 H 11.3128 -0.0800885 0.671239 0
M  V30 146 H 13.8668 0.412589 2.01213 0
M  V30 147 H 12.0968 -1.67418 3.4858 0
M  V30 148 H 13.7858 -1.40612 3.80766 0
M  V30 149 H 14.5518 0.883782 4.7688 0
M  V30 150 H 10.4308 -0.330498 4.59814 0
M  V30 151 H 13.9748 2.55672 6.49059 0
M  V30 152 H 9.8718 1.33454 6.31554 0
M  V30 153 H 10.6398 2.93116 7.64215 0
M  V30 154 N 13.3029 -1.57598 0.00835791 0
M  V30 155 C 14.5499 -1.90928 -0.674732 0
M  V30 156 C 14.8779 -0.88277 -1.73313 0
M  V30 157 O 14.1329 0.111294 -1.95383 0
M  V30 158 C 14.4319 -3.3101 -1.34787 0
M  V30 159 C 14.0979 -4.48922 -0.421861 0
M  V30 160 C 12.7599 -4.8091 -0.166927 0
M  V30 161 C 15.1119 -5.20755 0.215211 0
M  V30 162 C 12.4399 -5.821 0.733232 0
M  V30 163 C 14.7919 -6.22905 1.1033 0
M  V30 164 C 13.4559 -6.53346 1.36733 0
M  V30 165 H 12.7259 -0.698656 -0.246902 0
M  V30 166 H 15.3729 -1.91387 0.0656779 0
M  V30 167 H 13.6779 -3.26714 -2.16253 0
M  V30 168 H 15.3749 -3.54061 -1.8826 0
M  V30 169 H 11.9649 -4.23934 -0.630729 0
M  V30 170 H 16.1489 -4.9629 0.0312829 0
M  V30 171 H 11.4049 -6.04042 0.945712 0
M  V30 172 H 15.5789 -6.77694 1.60325 0
M  V30 173 H 13.2059 -7.31573 2.06652 0
M  V30 174 N 14.781 0.264519 -1.55364 0
M  V30 175 C 15.713 1.34965 -1.85248 0
M  V30 176 C 16.726 1.45136 -0.737525 0
M  V30 177 O 17.915 1.46801 -1.01547 0
M  V30 178 C 15.015 2.73008 -2.00797 0
M  V30 179 C 14.188 2.85324 -3.31525 0
M  V30 180 C 13.247 4.04097 -3.37034 0
M  V30 181 O 12.273 3.94455 -4.10358 0
M  V30 182 N 13.475 5.16458 -2.65049 0
M  V30 183 H 16.24 1.09672 -2.78913 0
M  V30 184 H 13.801 0.454635 -1.55386 0
M  V30 185 H 15.793 3.50772 -2.01844 0
M  V30 186 H 14.363 2.91087 -1.1396 0
M  V30 187 H 13.583 1.94377 -3.42945 0
M  V30 188 H 14.871 2.9049 -4.17724 0
M  V30 189 H 14.269 5.27181 -2.05175 0
M  V30 190 H 12.826 5.92422 -2.71809 0
M  V30 191 N 16.2591 1.48442 0.529413 0
M  V30 192 C 17.2071 1.63452 1.65487 0
M  V30 193 C 18.2011 0.500955 1.61823 0
M  V30 194 O 19.4071 0.679695 1.66674 0
M  V30 195 H 15.7821 0.514905 0.548066 0
M  V30 196 H 17.7531 2.57975 1.49971 0
M  V30 197 C 16.5021 1.69196 3.03756 0
M  V30 198 H 15.8251 2.55784 3.07269 0
M  V30 199 H 17.2651 1.83743 3.82119 0
M  V30 200 C 15.7241 0.430765 3.34135 0
M  V30 201 O 16.2541 -0.4561 3.99102 0
M  V30 202 N 14.4601 0.302293 2.89023 0
M  V30 203 H 14.0071 1.02496 2.36331 0
M  V30 204 H 13.9651 -0.540546 3.09718 0
M  V30 205 N 17.7372 -0.778329 1.37039 0
M  V30 206 C 18.6702 -1.8984 1.26633 0
M  V30 207 C 19.6482 -1.61923 0.148197 0
M  V30 208 O 20.8322 -1.85742 0.321265 0
M  V30 209 C 17.9592 -3.24916 0.956403 0
M  V30 210 C 17.0052 -3.71752 2.09051 0
M  V30 211 S 17.8382 -3.86201 3.70957 0
M  V30 212 C 18.9942 -5.24135 3.42101 0
M  V30 213 H 19.2272 -1.98377 2.21436 0
M  V30 214 H 16.7602 -0.938738 1.22585 0
M  V30 215 H 18.7182 -4.02936 0.784409 0
M  V30 216 H 17.3792 -3.14089 0.0259713 0
M  V30 217 H 16.5722 -4.69661 1.8285 0
M  V30 218 H 16.1742 -3.00815 2.2223 0
M  V30 219 H 18.4662 -6.09086 2.96682 0
M  V30 220 H 19.4092 -5.55346 4.39314 0
M  V30 221 H 19.8172 -4.91761 2.77185 0
M  V30 222 N 19.2153 -1.21501 -1.00376 0
M  V30 223 C 20.6263 -1.03146 -1.55621 0
M  V30 224 C 20.9773 0.408375 -1.91903 0
M  V30 225 O 20.1023 1.29177 -1.73616 0
M  V30 226 C 20.6973 -1.86612 -2.82775 0
M  V30 227 C 19.2563 -1.72586 -3.34501 0
M  V30 228 C 18.4033 -1.83747 -2.07683 0
M  V30 229 H 21.3543 -1.35505 -0.826081 0
M  V30 230 H 21.3753 -1.3771 -3.54706 0
M  V30 231 H 20.8873 -2.91399 -2.56336 0
M  V30 232 H 18.9883 -0.704877 -3.65872 0
M  V30 233 H 19.1013 -2.54623 -4.05837 0
M  V30 234 H 17.4653 -1.27069 -2.20739 0
M  V30 235 H 18.2483 -2.90044 -1.83655 0
M  V30 236 N 20.6934 1.19889 -1.02296 0
M  V30 237 C 21.6254 2.22334 -0.556787 0
M  V30 238 C 22.6384 1.58674 0.364199 0
M  V30 239 O 23.8274 1.77768 0.161533 0
M  V30 240 C 20.9274 3.38257 0.208694 0
M  V30 241 C 20.1004 4.31504 -0.71577 0
M  V30 242 C 19.1594 5.262 0.00325597 0
M  V30 243 O 18.1854 5.65798 -0.621357 0
M  V30 244 N 19.3874 5.66303 1.27599 0
M  V30 245 H 22.1524 2.62957 -1.43784 0
M  V30 246 H 19.7134 1.34495 -0.901261 0
M  V30 247 H 21.7054 3.98616 0.699111 0
M  V30 248 H 20.2754 2.96472 0.991102 0
M  V30 249 H 19.4954 3.69016 -1.38638 0
M  V30 250 H 20.7834 4.9072 -1.34428 0
M  V30 251 H 20.1814 5.36155 1.80429 0
M  V30 252 H 18.7384 6.28942 1.71102 0
M  V30 253 N 22.1715 0.800033 1.35784 0
M  V30 254 C 23.4175 0.377901 1.99248 0
M  V30 255 C 23.7505 -1.05052 1.63333 0
M  V30 256 O 23.0255 -1.72768 0.893385 0
M  V30 257 C 23.3085 0.553922 3.55814 0
M  V30 258 C 23.1615 2.0268 4.01548 0
M  V30 259 C 24.4805 -0.0244802 4.40093 0
M  V30 260 H 21.5995 0.138782 0.723815 0
M  V30 261 H 24.2415 1.00835 1.61035 0
M  V30 262 H 22.3915 0.0172398 3.88496 0
M  V30 263 H 24.0635 2.62536 3.79305 0
M  V30 264 H 22.3065 2.5256 3.52698 0
M  V30 265 H 22.9775 2.10087 5.10458 0
M  V30 266 H 25.4535 0.433775 4.13833 0
M  V30 267 H 24.3295 0.128637 5.48749 0
M  V30 268 H 24.5905 -1.11758 4.27741 0
M  V30 269 N 23.6496 -1.47581 0.552962 0
M  V30 270 C 24.8976 -2.02082 0.0272703 0
M  V30 271 C 25.2186 -1.4301 -1.32563 0
M  V30 272 O 24.4886 -0.603745 -1.86365 0
M  V30 273 H 23.0686 -0.746966 0.00709182 0
M  V30 274 H 25.7306 -1.81033 0.722008 0
M  V30 275 H 24.8266 -3.12034 -0.0639951 0
M  V30 276 N 25.1277 -0.289203 -1.54924 0
M  V30 277 C 26.0747 0.592115 -2.23075 0
M  V30 278 C 27.0447 1.13881 -1.20915 0
M  V30 279 O 28.2297 1.18551 -1.495 0
M  V30 280 C 25.3697 1.76376 -2.96623 0
M  V30 281 C 24.4827 1.24959 -4.13533 0
M  V30 282 C 23.6177 2.38416 -4.74691 0
M  V30 283 C 22.6567 1.84072 -5.83767 0
M  V30 284 N 21.7937 2.91057 -6.38929 0
M  V30 285 H 26.6337 0.00432038 -2.98 0
M  V30 286 H 24.1707 -0.00963529 -1.47097 0
M  V30 287 H 26.1287 2.45268 -3.3749 0
M  V30 288 H 24.7587 2.32337 -2.24097 0
M  V30 289 H 23.8107 0.453307 -3.77689 0
M  V30 290 H 25.1227 0.811662 -4.92152 0
M  V30 291 H 24.2767 3.15276 -5.18349 0
M  V30 292 H 23.0157 2.8553 -3.95378 0
M  V30 293 H 22.0207 1.05697 -5.39545 0
M  V30 294 H 23.2457 1.37877 -6.64956 0
M  V30 295 H 21.1917 3.37526 -5.62505 0
M  V30 296 H 21.1087 2.51724 -7.12861 0
M  V30 297 H 22.3767 3.6785 -6.87246 0
M  V30 298 N 26.6058 1.57591 -0.0167156 0
M  V30 299 C 28.0168 1.79201 0.523834 0
M  V30 300 C 28.3678 0.925796 1.72984 0
M  V30 301 O 27.4928 0.132792 2.15992 0
M  V30 302 C 28.0878 3.25 0.957091 0
M  V30 303 C 26.6468 3.47648 1.44283 0
M  V30 304 C 25.7938 2.74374 0.401757 0
M  V30 305 H 28.7448 1.56831 -0.242816 0
M  V30 306 H 28.7658 3.34031 1.82219 0
M  V30 307 H 28.2778 3.88019 0.0791415 0
M  V30 308 H 26.3788 2.89866 2.34113 0
M  V30 309 H 26.4918 4.56352 1.45877 0
M  V30 310 H 24.8558 2.39485 0.867121 0
M  V30 311 H 25.6388 3.40102 -0.467513 0
M  V30 312 N 28.0839 -0.256276 1.55502 0
M  V30 313 C 29.0139 -1.32102 1.92539 0
M  V30 314 C 29.9949 -1.50684 0.789194 0
M  V30 315 O 31.1799 -1.63449 1.04872 0
M  V30 316 C 28.3099 -2.67752 2.21192 0
M  V30 317 C 27.2639 -2.63878 3.36975 0
M  V30 318 C 26.5899 -4.03236 3.51147 0
M  V30 319 C 27.8899 -2.21682 4.72921 0
M  V30 320 H 29.5839 -1.01351 2.81724 0
M  V30 321 H 27.1299 -0.486105 1.35547 0
M  V30 322 H 29.0829 -3.42365 2.45691 0
M  V30 323 H 27.8069 -3.0012 1.28824 0
M  V30 324 H 26.4659 -1.91722 3.12471 0
M  V30 325 H 26.1139 -4.32854 2.56216 0
M  V30 326 H 25.8139 -4.01535 4.29003 0
M  V30 327 H 27.3379 -4.79563 3.77957 0
M  V30 328 H 28.7519 -2.86023 4.96854 0
M  V30 329 H 27.1489 -2.3111 5.53812 0
M  V30 330 H 28.2189 -1.16833 4.70615 0
M  V30 331 N 29.562 -1.4872 -0.521534 0
M  V30 332 C 30.509 -1.63871 -1.62527 0
M  V30 333 C 31.479 -0.480559 -1.58996 0
M  V30 334 O 32.664 -0.705085 -1.77294 0
M  V30 335 C 29.804 -1.69227 -3.00759 0
M  V30 336 C 28.917 -2.96207 -3.14461 0
M  V30 337 C 28.052 -2.92671 -4.43303 0
M  V30 338 C 27.091 -4.14318 -4.50563 0
M  V30 339 N 26.228 -4.0881 -5.70805 0
M  V30 340 H 31.068 -2.58123 -1.48918 0
M  V30 341 H 28.605 -1.28 -0.724878 0
M  V30 342 H 30.563 -1.70314 -3.80853 0
M  V30 343 H 29.193 -0.784586 -3.1312 0
M  V30 344 H 28.245 -3.04826 -2.27564 0
M  V30 345 H 29.557 -3.86192 -3.15686 0
M  V30 346 H 28.711 -2.92206 -5.31696 0
M  V30 347 H 27.45 -2.00429 -4.44612 0
M  V30 348 H 26.455 -4.15049 -3.60575 0
M  V30 349 H 27.68 -5.07729 -4.50986 0
M  V30 350 H 25.626 -3.19394 -5.72995 0
M  V30 351 H 25.543 -4.92509 -5.7356 0
M  V30 352 H 26.811 -4.12418 -6.61462 0
M  V30 353 N 31.0401 0.771051 -1.3745 0
M  V30 354 C 31.9871 1.88435 -1.3327 0
M  V30 355 C 32.9571 1.64914 -0.198136 0
M  V30 356 O 34.1421 1.86821 -0.387606 0
M  V30 357 C 31.2821 3.25509 -1.14622 0
M  V30 358 C 30.3951 3.60979 -2.37314 0
M  V30 359 C 29.5301 4.87265 -2.11533 0
M  V30 360 C 28.5691 5.15469 -3.30088 0
M  V30 361 N 27.7061 6.32944 -3.03853 0
M  V30 362 H 32.5461 1.91344 -2.28455 0
M  V30 363 H 30.0831 0.935466 -1.13523 0
M  V30 364 H 32.0411 4.04582 -1.01831 0
M  V30 365 H 30.6711 3.21974 -0.230837 0
M  V30 366 H 29.7231 2.76885 -2.60842 0
M  V30 367 H 31.0351 3.77759 -3.25729 0
M  V30 368 H 30.1891 5.74244 -1.95777 0
M  V30 369 H 28.9281 4.7259 -1.20457 0
M  V30 370 H 27.9331 4.26966 -3.46382 0
M  V30 371 H 29.1581 5.32052 -4.22016 0
M  V30 372 H 27.1041 6.19625 -2.15407 0
M  V30 373 H 27.0211 6.50143 -3.85812 0
M  V30 374 H 28.2891 7.22857 -2.91716 0
M  V30 375 N 32.5182 1.22032 0.997298 0
M  V30 376 C 33.4812 0.987909 2.06816 0
M  V30 377 C 34.4812 -0.0440084 1.6074 0
M  V30 378 O 35.6712 0.194053 1.73116 0
M  V30 379 C 32.8032 0.49132 3.37341 0
M  V30 380 H 33.9962 1.93803 2.28868 0
M  V30 381 H 31.5492 1.03838 1.16822 0
M  V30 382 H 32.2842 -0.463364 3.20973 0
M  V30 383 H 32.0692 1.23575 3.72118 0
M  V30 384 H 33.5592 0.348824 4.16141 0
M  V30 385 N 33.9963 -1.19345 1.0293 0
M  V30 386 C 35.2733 -1.84811 0.640642 0
M  V30 387 C 35.6533 -1.91855 -0.88062 0
M  V30 388 O 35.0013 -1.43587 -1.7775 0
M  V30 389 C 35.2113 -3.23755 1.30321 0
M  V30 390 C 36.5593 -3.99912 1.42673 0
M  V30 391 O 37.5833 -3.33155 1.26041 0
M  V30 392 O 36.4423 -5.19494 1.6967 0
M  V30 393 H 33.5363 -0.796443 0.222726 0
M  V30 394 H 36.0823 -1.26831 1.12748 0
M  V30 395 H 34.8543 -3.13466 2.34211 0
M  V30 396 H 34.4773 -3.89381 0.804261 0
M  V30 397 N 35.4744 -0.807222 -1.35358 0
M  V30 398 C 36.4374 -0.223665 -2.28106 0
M  V30 399 C 37.4374 0.589354 -1.4961 0
M  V30 400 O 38.6274 0.407745 -1.69361 0
M  V30 401 C 35.7594 0.688149 -3.33882 0
M  V30 402 H 36.9524 -1.04169 -2.81227 0
M  V30 403 H 34.5054 -0.577921 -1.45223 0
M  V30 404 H 35.2404 1.52984 -2.85948 0
M  V30 405 H 35.0254 0.10687 -3.91954 0
M  V30 406 H 36.5154 1.09075 -4.03104 0
M  V30 407 N 36.9525 1.47285 -0.560781 0
M  V30 408 C 37.9155 2.28535 0.174488 0
M  V30 409 C 38.9155 1.37153 0.839388 0
M  V30 410 O 40.1055 1.59748 0.694702 0
M  V30 411 C 37.2375 3.16934 1.25561 0
M  V30 412 H 38.4305 2.95012 -0.539262 0
M  V30 413 H 35.9835 1.53034 -0.317865 0
M  V30 414 H 36.7185 2.55157 2.00164 0
M  V30 415 H 36.5035 3.8419 0.783604 0
M  V30 416 H 37.9935 3.78143 1.77193 0
M  V30 417 N 38.4306 0.297415 1.54768 0
M  V30 418 C 39.3786 -0.596051 2.24833 0
M  V30 419 C 40.3726 -1.13992 1.25308 0
M  V30 420 O 41.5786 -1.09098 1.4317 0
M  V30 421 H 37.9536 -0.210814 0.721846 0
M  V30 422 H 39.9246 0.0174667 2.98395 0
M  V30 423 C 38.6736 -1.75818 2.99972 0
M  V30 424 H 37.9966 -1.3489 3.76357 0
M  V30 425 H 39.4366 -2.35949 3.52284 0
M  V30 426 C 37.8956 -2.66014 2.06732 0
M  V30 427 O 38.4256 -3.67009 1.63302 0
M  V30 428 N 36.6316 -2.33669 1.72763 0
M  V30 429 H 36.1786 -1.51586 2.08277 0
M  V30 430 H 36.1366 -2.94285 1.10652 0
M  V30 431 N 39.9087 -1.5758 0.0250728 0
M  V30 432 C 40.8187 -2.1343 -0.973905 0
M  V30 433 C 41.8347 -1.08556 -1.35984 0
M  V30 434 O 43.0107 -1.40592 -1.44207 0
M  V30 435 C 40.0757 -2.64703 -2.23904 0
M  V30 436 C 39.1367 -3.84276 -1.91391 0
M  V30 437 C 38.3697 -4.33095 -3.11873 0
M  V30 438 O 38.5927 -3.81107 -4.24398 0
M  V30 439 O 37.5267 -5.24984 -2.94406 0
M  V30 440 H 41.3527 -2.99057 -0.529036 0
M  V30 441 H 38.9377 -1.48118 -0.195288 0
M  V30 442 H 40.8197 -2.97769 -2.98181 0
M  V30 443 H 39.4947 -1.82161 -2.6758 0
M  V30 444 H 38.4017 -3.56143 -1.14511 0
M  V30 445 H 39.7347 -4.67968 -1.52534 0
M  V30 446 N 41.3868 0.248026 -1.55636 0
M  V30 447 C 42.2968 1.32859 -1.93354 0
M  V30 448 C 43.3128 1.52719 -0.833838 0
M  V30 449 O 44.4888 1.66363 -1.13513 0
M  V30 450 C 41.5538 2.66337 -2.21958 0
M  V30 451 C 40.6148 2.55008 -3.45354 0
M  V30 452 C 39.8478 3.82121 -3.72584 0
M  V30 453 O 40.0708 4.83951 -3.01907 0
M  V30 454 O 39.0048 3.80822 -4.6611 0
M  V30 455 H 42.8308 1.03862 -2.85388 0
M  V30 456 H 40.4158 0.448686 -1.42503 0
M  V30 457 H 42.2978 3.45216 -2.4167 0
M  V30 458 H 40.9728 2.95068 -1.33103 0
M  V30 459 H 39.8798 1.7442 -3.30951 0
M  V30 460 H 41.2128 2.31222 -4.34508 0
M  V30 461 N 42.8649 1.48995 0.513639 0
M  V30 462 C 43.7969 1.60836 1.63293 0
M  V30 463 C 44.8099 0.491701 1.55197 0
M  V30 464 O 45.9989 0.763238 1.6136 0
M  V30 465 C 43.0989 1.53731 3.02027 0
M  V30 466 C 42.2719 2.80715 3.35437 0
M  V30 467 C 41.3309 2.66837 4.53525 0
M  V30 468 O 40.3569 3.40753 4.55934 0
M  V30 469 N 41.5589 1.77539 5.52684 0
M  V30 470 H 44.3239 2.57366 1.53566 0
M  V30 471 H 41.8849 1.45925 0.701259 0
M  V30 472 H 43.8769 1.42118 3.78926 0
M  V30 473 H 42.4469 0.651092 3.05744 0
M  V30 474 H 41.6669 3.06772 2.47557 0
M  V30 475 H 42.9549 3.64927 3.54551 0
M  V30 476 H 42.3529 1.16719 5.53528 0
M  V30 477 H 40.9099 1.71856 6.28736 0
M  V30 478 N 44.343 -0.763751 1.37857 0
M  V30 479 C 45.273 -1.89103 1.36975 0
M  V30 480 C 46.254 -1.68439 0.237152 0
M  V30 481 O 47.439 -1.8918 0.438713 0
M  V30 482 C 44.569 -3.26496 1.18395 0
M  V30 483 C 43.523 -3.61741 2.28751 0
M  V30 484 C 42.849 -4.97762 1.95286 0
M  V30 485 C 44.149 -3.67665 3.70972 0
M  V30 486 H 45.843 -1.90099 2.31307 0
M  V30 487 H 43.389 -0.91319 1.11341 0
M  V30 488 H 45.342 -4.05003 1.16406 0
M  V30 489 H 44.066 -3.25955 0.205215 0
M  V30 490 H 42.725 -2.85547 2.29909 0
M  V30 491 H 42.373 -4.93769 0.959221 0
M  V30 492 H 42.073 -5.22313 2.69189 0
M  V30 493 H 43.597 -5.7866 1.94898 0
M  V30 494 H 45.011 -4.36307 3.719 0
M  V30 495 H 43.408 -4.03718 4.43995 0
M  V30 496 H 44.478 -2.68134 4.0402 0
M  V30 497 N 45.8211 -1.22559 -0.990812 0
M  V30 498 C 46.7681 -0.997519 -2.0813 0
M  V30 499 C 47.7381 0.0814702 -1.659 0
M  V30 500 O 48.9231 -0.0685424 -1.90677 0
M  V30 501 C 46.0631 -0.583615 -3.40129 0
M  V30 502 C 45.1761 -1.7336 -3.9569 0
M  V30 503 C 44.3111 -1.26748 -5.15857 0
M  V30 504 C 43.3501 -2.38888 -5.63559 0
M  V30 505 N 42.4871 -1.93308 -6.74964 0
M  V30 506 H 47.3271 -1.93099 -2.26973 0
M  V30 507 H 44.8641 -0.962114 -1.11273 0
M  V30 508 H 46.8221 -0.324801 -4.15934 0
M  V30 509 H 45.4521 0.312845 -3.2128 0
M  V30 510 H 44.5041 -2.10669 -3.16738 0
M  V30 511 H 45.8161 -2.57704 -4.27071 0
M  V30 512 H 44.9701 -0.966173 -5.98957 0
M  V30 513 H 43.7091 -0.394272 -4.86104 0
M  V30 514 H 42.7141 -2.69805 -4.79046 0
M  V30 515 H 43.9391 -3.26728 -5.95336 0
M  V30 516 H 41.8851 -1.08352 -6.4699 0
M  V30 517 H 41.8021 -2.71217 -7.05675 0
M  V30 518 H 43.0701 -1.66252 -7.61564 0
M  V30 519 N 47.2992 1.18797 -1.03562 0
M  V30 520 C 48.2462 2.22253 -0.622259 0
M  V30 521 C 49.2162 1.61987 0.36736 0
M  V30 522 O 50.4012 1.88986 0.262492 0
M  V30 523 C 47.5412 3.45097 0.0138462 0
M  V30 524 C 46.6542 4.19722 -1.02263 0
M  V30 525 C 45.7892 5.30009 -0.355573 0
M  V30 526 C 44.8282 5.96399 -1.37749 0
M  V30 527 N 43.9652 6.98234 -0.735766 0
M  V30 528 H 48.8052 2.56968 -1.50903 0
M  V30 529 H 46.3422 1.26245 -0.755017 0
M  V30 530 H 48.3002 4.15279 0.399948 0
M  V30 531 H 46.9302 3.11018 0.864158 0
M  V30 532 H 45.9822 3.48418 -1.52673 0
M  V30 533 H 47.2942 4.65227 -1.79903 0
M  V30 534 H 46.4482 6.0664 0.0850095 0
M  V30 535 H 45.1872 4.85592 0.452967 0
M  V30 536 H 44.1922 5.18512 -1.82826 0
M  V30 537 H 45.4172 6.42899 -2.18764 0
M  V30 538 H 43.3632 6.55979 0.0525597 0
M  V30 539 H 43.2802 7.41965 -1.44995 0
M  V30 540 H 44.5482 7.78845 -0.31941 0
M  V30 541 N 48.7773 0.814389 1.34928 0
M  V30 542 C 50.0263 0.394871 1.97797 0
M  V30 543 C 50.3393 -1.04555 1.65311 0
M  V30 544 O 51.5453 -1.56856 2.21604 0
M  V30 545 C 50.0013 0.655103 3.53888 0
M  V30 546 C 49.6093 2.10858 3.95276 0
M  V30 547 C 51.3533 0.301329 4.23429 0
M  V30 548 C 49.2603 2.31415 5.44244 0
M  V30 549 H 48.1903 0.143913 0.740139 0
M  V30 550 H 50.8413 0.999544 1.53888 0
M  V30 551 H 49.2233 -0.0196253 3.95995 0
M  V30 552 H 50.3973 2.82176 3.64298 0
M  V30 553 H 48.7123 2.42297 3.38646 0
M  V30 554 H 51.3093 0.432869 5.32945 0
M  V30 555 H 51.6523 -0.75331 4.09428 0
M  V30 556 H 52.1853 0.930288 3.86769 0
M  V30 557 H 48.9243 3.35353 5.63222 0
M  V30 558 H 48.4443 1.6463 5.76764 0
M  V30 559 H 50.1233 2.13352 6.10811 0
M  V30 560 N 50.2554 -1.46986 0.568584 0
M  V30 561 C 51.1654 -2.33942 -0.17555 0
M  V30 562 C 52.1814 -1.48891 -0.90041 0
M  V30 563 O 53.3574 -1.81794 -0.86676 0
M  V30 564 C 50.4224 -3.25811 -1.18524 0
M  V30 565 C 49.4834 -4.26757 -0.466582 0
M  V30 566 C 48.7164 -5.14236 -1.42817 0
M  V30 567 O 48.9394 -5.04379 -2.66379 0
M  V30 568 O 47.8734 -5.94412 -0.946453 0
M  V30 569 H 51.6994 -2.98896 0.538036 0
M  V30 570 H 49.2844 -1.4573 0.329097 0
M  V30 571 H 51.1664 -3.82527 -1.76779 0
M  V30 572 H 49.8414 -2.63471 -1.88055 0
M  V30 573 H 48.7484 -3.73769 0.157451 0
M  V30 574 H 50.0814 -4.91843 0.187485 0
M  V30 575 N 51.7335 -0.305618 -1.54608 0
M  V30 576 C 52.6435 0.57778 -2.27374 0
M  V30 577 C 53.6595 1.14451 -1.31061 0
M  V30 578 O 54.8355 1.16831 -1.6405 0
M  V30 579 C 51.9005 1.73123 -3.00382 0
M  V30 580 C 50.9615 1.19812 -4.12242 0
M  V30 581 C 50.1945 2.2966 -4.81759 0
M  V30 582 O 50.4175 3.49651 -4.50666 0
M  V30 583 O 49.3515 1.96091 -5.69062 0
M  V30 584 H 53.1775 -0.012624 -3.03697 0
M  V30 585 H 50.7625 -0.0719184 -1.49227 0
M  V30 586 H 52.6445 2.40315 -3.4616 0
M  V30 587 H 51.3195 2.30815 -2.26949 0
M  V30 588 H 50.2265 0.491798 -3.70853 0
M  V30 589 H 51.5595 0.666566 -4.87666 0
M  V30 590 N 53.2116 1.57565 -0.0334293 0
M  V30 591 C 54.1216 2.13943 0.962572 0
M  V30 592 C 55.1376 1.09276 1.35406 0
M  V30 593 O 56.3136 1.41355 1.4346 0
M  V30 594 C 53.3786 2.65887 2.22497 0
M  V30 595 C 52.4396 3.85286 1.8935 0
M  V30 596 C 51.6726 4.34743 3.09571 0
M  V30 597 O 51.8956 3.83352 4.22371 0
M  V30 598 O 50.8296 5.26538 2.91618 0
M  V30 599 H 54.6556 2.99333 0.513169 0
M  V30 600 H 52.2406 1.4822 0.18743 0
M  V30 601 H 54.1226 2.99346 2.96598 0
M  V30 602 H 52.7976 1.83578 2.6661 0
M  V30 603 H 51.7046 3.56746 1.1262 0
M  V30 604 H 53.0376 4.68771 1.5005 0
M  V30 605 N 54.6897 -0.239769 1.55765 0
M  V30 606 C 55.9387 -0.964754 1.77131 0
M  V30 607 C 56.2517 -1.86213 0.59868 0
M  V30 608 O 57.4577 -2.6244 0.695522 0
M  V30 609 C 55.9137 -1.76552 3.1362 0
M  V30 610 C 55.5217 -0.915185 4.38553 0
M  V30 611 C 57.2657 -2.48281 3.44321 0
M  V30 612 C 55.1727 -1.71225 5.66071 0
M  V30 613 H 54.1027 -0.363953 0.660344 0
M  V30 614 H 56.7537 -0.219181 1.82186 0
M  V30 615 H 55.1357 -2.55331 3.02691 0
M  V30 616 H 56.3097 -0.169217 4.60489 0
M  V30 617 H 54.6247 -0.310889 4.15238 0
M  V30 618 H 57.2217 -3.08382 4.36812 0
M  V30 619 H 57.5647 -3.20256 2.65973 0
M  V30 620 H 58.0977 -1.76507 3.56497 0
M  V30 621 H 54.8367 -1.03612 6.4726 0
M  V30 622 H 54.3567 -2.43331 5.48224 0
M  V30 623 H 56.0357 -2.27758 6.05587 0
M  V30 624 N 56.1678 -1.49265 -0.50573 0
M  V30 625 C 57.1178 -1.6198 -1.60457 0
M  V30 626 C 58.1018 -0.47568 -1.53708 0
M  V30 627 O 59.2938 -0.728392 -1.61318 0
M  V30 628 C 56.4228 -1.68526 -2.99089 0
M  V30 629 C 55.5088 -2.885 -3.10852 0
M  V30 630 N 55.8998 -4.12635 -2.92517 0
M  V30 631 C 54.1978 -2.86338 -3.41945 0
M  V30 632 C 54.8988 -4.93258 -3.08337 0
M  V30 633 N 53.8748 -4.26533 -3.37003 0
M  V30 634 H 57.6768 -2.55681 -1.44928 0
M  V30 635 H 55.1908 -1.45972 -0.711752 0
M  V30 636 H 57.1878 -1.75732 -3.78053 0
M  V30 637 H 55.8478 -0.759584 -3.1569 0
M  V30 638 H 56.8588 -4.42689 -2.68787 0
M  V30 639 H 53.5358 -2.03129 -3.64753 0
M  V30 640 H 54.9258 -6.01856 -2.98695 0
M  V30 641 N 57.6459 0.756429 -1.3826 0
M  V30 642 C 58.5779 1.87971 -1.31147 0
M  V30 643 C 59.5909 1.61248 -0.224239 0
M  V30 644 O 60.7799 1.71881 -0.481581 0
M  V30 645 C 57.8799 3.23545 -1.00857 0
M  V30 646 C 57.0529 3.77794 -2.20432 0
M  V30 647 C 56.1119 4.91877 -1.86931 0
M  V30 648 O 55.1379 5.06659 -2.59395 0
M  V30 649 N 56.3399 5.74643 -0.822568 0
M  V30 650 H 59.1049 1.94585 -2.2794 0
M  V30 651 H 56.6659 0.936234 -1.32084 0
M  V30 652 H 58.6579 3.97403 -0.765021 0
M  V30 653 H 57.2279 3.12335 -0.128687 0
M  V30 654 H 56.4479 2.95534 -2.6087 0
M  V30 655 H 57.7359 4.10771 -3.00241 0
M  V30 656 H 57.1339 5.65266 -0.221575 0
M  V30 657 H 55.6909 6.48661 -0.638899 0
M  V30 658 N 59.124 1.23083 0.984299 0
M  V30 659 C 60.054 1.03292 2.09411 0
M  V30 660 C 61.035 -0.048923 1.7003 0
M  V30 661 O 62.22 0.114967 1.93859 0
M  V30 662 C 59.35 0.619155 3.41736 0
M  V30 663 C 58.304 1.64791 3.95004 0
M  V30 664 C 57.63 1.0897 5.23478 0
M  V30 665 C 58.93 3.03999 4.24714 0
M  V30 666 H 60.624 1.96119 2.26225 0
M  V30 667 H 58.17 0.944344 1.08711 0
M  V30 668 H 60.123 0.467777 4.18796 0
M  V30 669 H 58.847 -0.344786 3.24775 0
M  V30 670 H 57.506 1.78721 3.20085 0
M  V30 671 H 57.154 0.11686 5.02864 0
M  V30 672 H 56.854 1.77704 5.60085 0
M  V30 673 H 58.378 0.950093 6.03163 0
M  V30 674 H 59.792 2.93393 4.92538 0
M  V30 675 H 58.189 3.69936 4.72512 0
M  V30 676 H 59.259 3.53285 3.32142 0
M  V30 677 N 60.6021 -1.18246 1.0419 0
M  V30 678 C 61.8511 -1.87588 0.741194 0
M  V30 679 C 62.1641 -1.81303 -0.734066 0
M  V30 680 O 63.3701 -2.46019 -1.14834 0
M  V30 681 C 61.8261 -3.36538 1.27555 0
M  V30 682 C 61.4341 -3.51349 2.77953 0
M  V30 683 C 63.1781 -4.11273 1.05143 0
M  V30 684 C 61.0851 -4.94265 3.2474 0
M  V30 685 H 60.0151 -0.702622 0.273565 0
M  V30 686 H 62.6661 -1.33601 1.25789 0
M  V30 687 H 61.0481 -3.9 0.686703 0
M  V30 688 H 62.2221 -3.08153 3.42605 0
M  V30 689 H 60.5371 -2.90022 2.98791 0
M  V30 690 H 63.1341 -5.16689 1.37611 0
M  V30 691 H 63.4771 -4.16298 -0.0112774 0
M  V30 692 H 64.0101 -3.63987 1.60495 0
M  V30 693 H 60.7491 -4.94408 4.30396 0
M  V30 694 H 60.2691 -5.38172 2.64823 0
M  V30 695 H 61.9481 -5.62987 3.18834 0
M  V30 696 N 62.0802 -0.821533 -1.34494 0
M  V30 697 C 63.0272 -0.240397 -2.29545 0
M  V30 698 C 63.9972 0.634031 -1.53523 0
M  V30 699 O 65.1822 0.575966 -1.81899 0
M  V30 700 C 62.3222 0.592869 -3.39969 0
M  V30 701 C 61.4352 -0.30365 -4.30932 0
M  V30 702 C 60.5702 0.539049 -5.28458 0
M  V30 703 C 59.6092 -0.356942 -6.11058 0
M  V30 704 N 58.7462 0.446603 -7.00678 0
M  V30 705 H 63.5862 -1.05632 -2.7865 0
M  V30 706 H 61.1232 -0.532413 -1.37127 0
M  V30 707 H 63.0812 1.09129 -4.02675 0
M  V30 708 H 61.7112 1.37392 -2.92102 0
M  V30 709 H 60.7632 -0.920276 -3.691 0
M  V30 710 H 62.0752 -0.992661 -4.88823 0
M  V30 711 H 61.2292 1.102 -5.96608 0
M  V30 712 H 59.9682 1.26157 -4.71101 0
M  V30 713 H 58.9732 -0.932047 -5.41842 0
M  V30 714 H 60.1982 -1.07755 -6.70497 0
M  V30 715 H 58.1442 1.15282 -6.45791 0
M  V30 716 H 58.0612 -0.184048 -7.55776 0
M  V30 717 H 59.3292 0.992352 -7.73158 0
M  V30 718 N 63.5583 1.46682 -0.576371 0
M  V30 719 C 64.4683 2.34032 0.163141 0
M  V30 720 C 65.4843 1.49367 0.892501 0
M  V30 721 O 66.6603 1.82252 0.857106 0
M  V30 722 C 63.7253 3.26435 1.16795 0
M  V30 723 C 62.7863 4.26998 0.443944 0
M  V30 724 C 62.0193 5.14986 1.40088 0
M  V30 725 O 62.2423 5.05785 2.637 0
M  V30 726 O 61.1763 5.94906 0.914917 0
M  V30 727 H 65.0023 2.98607 -0.55388 0
M  V30 728 H 62.5873 1.45554 -0.336821 0
M  V30 729 H 64.4693 3.83459 1.74748 0
M  V30 730 H 63.1443 2.64465 1.86655 0
M  V30 731 H 62.0513 3.7368 -0.177271 0
M  V30 732 H 63.3843 4.91736 -0.213566 0
M  V30 733 N 65.0364 0.313813 1.54444 0
M  V30 734 C 65.9994 -0.54379 2.22656 0
M  V30 735 C 66.9994 -1.05124 1.21678 0
M  V30 736 O 68.1894 -0.945225 1.46325 0
M  V30 737 C 65.3214 -1.75427 2.92298 0
M  V30 738 H 66.5144 0.0523599 2.99854 0
M  V30 739 H 64.0674 0.0647834 1.56166 0
M  V30 740 H 64.8024 -2.38991 2.19211 0
M  V30 741 H 64.5874 -1.39791 3.66334 0
M  V30 742 H 66.0774 -2.36325 3.44297 0
M  V30 743 N 66.5145 -1.57545 0.0417849 0
M  V30 744 C 67.4465 -2.07904 -0.964799 0
M  V30 745 C 68.4595 -1.00497 -1.28079 0
M  V30 746 O 69.6485 -1.28087 -1.24322 0
M  V30 747 C 66.7485 -2.49928 -2.28887 0
M  V30 748 C 65.9215 -3.80562 -2.15619 0
M  V30 749 C 64.9805 -4.08999 -3.31069 0
M  V30 750 O 64.0065 -4.79061 -3.0739 0
M  V30 751 N 65.2085 -3.6017 -4.55256 0
M  V30 752 H 67.9735 -2.94886 -0.535029 0
M  V30 753 H 65.5345 -1.61252 -0.144681 0
M  V30 754 H 67.5265 -2.66034 -3.04972 0
M  V30 755 H 66.0965 -1.68245 -2.63463 0
M  V30 756 H 65.3165 -3.74129 -1.24183 0
M  V30 757 H 66.6045 -4.66126 -2.03971 0
M  V30 758 H 66.0025 -3.03512 -4.77386 0
M  V30 759 H 64.5595 -3.81532 -5.28466 0
M  V30 760 N 67.9926 0.231505 -1.5589 0
M  V30 761 C 68.9026 1.308 -1.94752 0
M  V30 762 C 69.9186 1.51826 -0.849989 0
M  V30 763 O 71.0946 1.6515 -1.15271 0
M  V30 764 C 68.1596 2.63968 -2.24771 0
M  V30 765 C 67.2206 2.51331 -3.48039 0
M  V30 766 C 66.4536 3.78148 -3.76616 0
M  V30 767 O 66.6766 4.80722 -3.07022 0
M  V30 768 O 65.6106 3.75857 -4.70123 0
M  V30 769 H 69.4366 1.0083 -2.86474 0
M  V30 770 H 67.0216 0.433547 -1.42971 0
M  V30 771 H 68.9036 3.42633 -2.45318 0
M  V30 772 H 67.5786 2.9364 -1.36225 0
M  V30 773 H 66.4856 1.709 -3.32782 0
M  V30 774 H 67.8186 2.26601 -4.36936 0
M  V30 775 N 69.4707 1.49531 0.497807 0
M  V30 776 C 70.4337 1.65916 1.58128 0
M  V30 777 C 71.4337 0.530825 1.51786 0
M  V30 778 O 72.6237 0.797342 1.54881 0
M  V30 779 C 69.7557 1.65951 2.9778 0
M  V30 780 H 70.9487 2.62556 1.44929 0
M  V30 781 H 68.5017 1.38611 0.722275 0
M  V30 782 H 69.2367 0.709065 3.16453 0
M  V30 783 H 69.0217 2.47897 3.03792 0
M  V30 784 H 70.5117 1.80673 3.76493 0
M  V30 785 N 70.9488 -0.749086 1.3866 0
M  V30 786 C 72.1968 -1.50535 1.34847 0
M  V30 787 C 72.5178 -1.94909 -0.0595016 0
M  V30 788 O 71.7878 -1.67973 -1.00806 0
M  V30 789 H 70.3678 -0.558395 0.49619 0
M  V30 790 H 73.0298 -0.890165 1.73384 0
M  V30 791 H 72.1258 -2.39413 2.00219 0
M  V30 792 N 72.4269 -1.23603 -0.977757 0
M  V30 793 C 73.3739 -1.01954 -2.07061 0
M  V30 794 C 74.3439 0.0638697 -1.65977 0
M  V30 795 O 75.5289 -0.0887624 -1.90593 0
M  V30 796 C 72.6689 -0.619658 -3.39491 0
M  V30 797 C 71.7819 -1.77547 -3.93829 0
M  V30 798 C 70.9169 -1.32212 -5.14484 0
M  V30 799 C 69.9559 -2.44852 -5.60994 0
M  V30 800 N 69.0929 -2.00456 -6.72876 0
M  V30 801 H 73.9329 -1.95495 -2.24913 0
M  V30 802 H 71.4699 -0.973861 -1.10247 0
M  V30 803 H 73.4279 -0.368898 -4.15566 0
M  V30 804 H 72.0579 0.278752 -3.21594 0
M  V30 805 H 71.1099 -2.14016 -3.14486 0
M  V30 806 H 72.4219 -2.62219 -4.24314 0
M  V30 807 H 71.5759 -1.02965 -5.97899 0
M  V30 808 H 70.3149 -0.445808 -4.85658 0
M  V30 809 H 69.3199 -2.74871 -4.76157 0
M  V30 810 H 70.5449 -3.33024 -5.91837 0
M  V30 811 H 68.4909 -1.15208 -6.45804 0
M  V30 812 H 68.4079 -2.78687 -7.02759 0
M  V30 813 H 69.6759 -1.7432 -7.59758 0
M  V30 814 N 73.905 1.17692 -1.04816 0
M  V30 815 C 74.868 2.19787 -0.650117 0
M  V30 816 C 75.868 1.58044 0.296427 0
M  V30 817 O 77.058 1.74012 0.0808097 0
M  V30 818 C 74.19 3.40869 0.0456987 0
M  V30 819 H 75.383 2.56516 -1.5537 0
M  V30 820 H 72.936 1.31708 -0.841594 0
M  V30 821 H 73.671 3.09681 0.962726 0
M  V30 822 H 73.456 3.86928 -0.634727 0
M  V30 823 H 74.946 4.16445 0.310432 0
M  V30 824 N 75.3831 0.828654 1.34056 0
M  V30 825 C 76.6601 0.341809 1.9259 0
M  V30 826 C 77.0401 -1.17158 1.75605 0
M  V30 827 O 76.3881 -1.98132 1.13824 0
M  V30 828 C 76.5981 0.777453 3.4023 0
M  V30 829 C 77.9461 0.779579 4.17382 0
M  V30 830 O 78.9701 0.7204 3.48839 0
M  V30 831 O 77.8291 0.857996 5.39723 0
M  V30 832 H 74.9231 0.0946085 0.821571 0
M  V30 833 H 77.4691 0.913827 1.42994 0
M  V30 834 H 76.2411 1.8196 3.46419 0
M  V30 835 H 75.8641 0.181444 3.97186 0
M  V30 836 N 76.8612 -1.46375 0.584142 0
M  V30 837 C 77.8242 -2.28784 -0.138108 0
M  V30 838 C 78.8242 -1.38471 -0.817462 0
M  V30 839 O 80.0142 -1.60833 -0.669199 0
M  V30 840 C 77.1462 -3.18892 -1.20503 0
M  V30 841 H 78.3392 -2.94117 0.586127 0
M  V30 842 H 75.8922 -1.52509 0.342171 0
M  V30 843 H 76.6272 -2.58309 -1.96079 0
M  V30 844 H 76.4122 -3.85388 -0.722384 0
M  V30 845 H 77.9022 -3.80914 -1.71155 0
M  V30 846 N 78.3393 -0.321999 -1.54275 0
M  V30 847 C 79.6163 0.335232 -1.92706 0
M  V30 848 C 79.9963 1.70006 -1.25145 0
M  V30 849 O 79.3443 2.25067 -0.394596 0
M  V30 850 C 79.5543 0.429008 -3.46353 0
M  V30 851 C 80.9023 0.690029 -4.18956 0
M  V30 852 O 81.9263 0.511992 -3.52501 0
M  V30 853 O 80.7853 1.03338 -5.36641 0
M  V30 854 H 77.8793 0.191143 -0.804608 0
M  V30 855 H 80.4253 -0.3716 -1.65581 0
M  V30 856 H 79.1973 -0.529611 -3.87699 0
M  V30 857 H 78.8203 1.18348 -3.79578 0
M  V30 858 N 79.8174 1.5752 -0.0501392 0
M  V30 859 C 81.0634 1.92936 0.624798 0
M  V30 860 C 81.3964 0.928685 1.70555 0
M  V30 861 O 80.6714 -0.0454779 1.94447 0
M  V30 862 C 80.9544 3.38737 1.22185 0
M  V30 863 C 80.8074 4.49552 0.149218 0
M  V30 864 C 82.1264 3.84913 2.13378 0
M  V30 865 H 79.2454 0.701604 0.225657 0
M  V30 866 H 81.8874 1.89671 -0.111693 0
M  V30 867 H 80.0374 3.4165 1.84953 0
M  V30 868 H 81.7094 4.58768 -0.482648 0
M  V30 869 H 79.9524 4.30638 -0.522841 0
M  V30 870 H 80.6234 5.48653 0.606966 0
M  V30 871 H 83.0994 3.8387 1.60572 0
M  V30 872 H 81.9754 4.87584 2.52097 0
M  V30 873 H 82.2364 3.21611 3.03346 0
M  V30 874 N 81.2955 -0.223234 1.56011 0
M  V30 875 C 82.2435 -1.29627 1.93131 0
M  V30 876 C 83.2375 -1.48608 0.813146 0
M  V30 877 O 84.4435 -1.49802 0.997966 0
M  V30 878 H 80.8185 -0.434563 0.613726 0
M  V30 879 H 82.7895 -0.955995 2.82672 0
M  V30 880 C 81.5385 -2.63983 2.26292 0
M  V30 881 H 80.8615 -2.50185 3.11846 0
M  V30 882 H 82.3015 -3.3788 2.56151 0
M  V30 883 C 80.7605 -3.18866 1.08747 0
M  V30 884 O 81.2905 -4.00192 0.347727 0
M  V30 885 N 79.4965 -2.77217 0.871743 0
M  V30 886 H 79.0435 -2.1119 1.47501 0
M  V30 887 H 79.0015 -3.1428 0.0869905 0
M  V30 888 N 82.7736 -1.49793 -0.48987 0
M  V30 889 C 83.7206 -1.67281 -1.59014 0
M  V30 890 C 84.6906 -0.514177 -1.57941 0
M  V30 891 O 85.8756 -0.742533 -1.75759 0
M  V30 892 C 83.0156 -1.75569 -2.97102 0
M  V30 893 C 82.1286 -3.0281 -3.08107 0
M  V30 894 C 81.2636 -3.02008 -4.36995 0
M  V30 895 C 80.3026 -4.23782 -4.41673 0
M  V30 896 N 79.4396 -4.20826 -5.62005 0
M  V30 897 H 84.2796 -2.61224 -1.43409 0
M  V30 898 H 81.8166 -1.29508 -0.697565 0
M  V30 899 H 83.7746 -1.78354 -3.77155 0
M  V30 900 H 82.4046 -0.850827 -3.11385 0
M  V30 901 H 81.4566 -3.09584 -2.21047 0
M  V30 902 H 82.7686 -3.92801 -3.07423 0
M  V30 903 H 81.9226 -3.03418 -5.25378 0
M  V30 904 H 80.6616 -2.09815 -4.4026 0
M  V30 905 H 79.6666 -4.22604 -3.5169 0
M  V30 906 H 80.8916 -5.17181 -4.40115 0
M  V30 907 H 78.8376 -3.31476 -5.66091 0
M  V30 908 H 78.7546 -5.04564 -5.62984 0
M  V30 909 H 80.0226 -4.26355 -6.52565 0
M  V30 910 N 84.2517 0.741722 -1.39055 0
M  V30 911 C 85.6677 1.04638 -1.20512 0
M  V30 912 C 85.8677 2.01405 -0.0620218 0
M  V30 913 O 84.9237 2.45547 0.588457 0
M  V30 914 C 86.2367 1.6151 -2.53643 0
M  V30 915 C 87.7847 1.73623 -2.6043 0
M  V30 916 C 88.2597 2.33906 -3.93767 0
M  V30 917 N 89.7507 2.41323 -3.9537 0
M  V30 918 C 90.4857 2.88888 -4.95309 0
M  V30 919 N 89.9817 3.36401 -6.05645 0
M  V30 920 N 91.7747 2.88037 -4.82692 0
M  V30 921 H 83.9257 0.0998155 -2.12165 0
M  V30 922 H 86.1887 0.106907 -0.941953 0
M  V30 923 H 85.8947 0.978739 -3.37807 0
M  V30 924 H 85.7687 2.60411 -2.72885 0
M  V30 925 H 88.1557 2.36384 -1.76655 0
M  V30 926 H 88.2367 0.733945 -2.45045 0
M  V30 927 H 87.8807 1.71776 -4.7797 0
M  V30 928 H 87.8107 3.34799 -4.06469 0
M  V30 929 H 90.3017 2.07734 -3.15682 0
M  V30 930 H 90.6147 3.71186 -6.77821 0
M  V30 931 H 88.9597 3.34427 -6.09248 0
M  V30 932 H 92.1507 2.50237 -3.95599 0
M  V30 933 H 92.3237 3.24792 -5.60726 0
M  V30 934 N 85.7298 1.2412 0.971189 0
M  V30 935 C 86.9778 1.07668 1.71032 0
M  V30 936 C 87.2988 -0.385797 1.91146 0
M  V30 937 O 86.5688 -1.27569 1.4867 0
M  V30 938 H 85.1488 0.395429 0.633755 0
M  V30 939 H 87.8108 1.55984 1.16855 0
M  V30 940 H 86.9068 1.57195 2.69622 0
M  V30 941 N 87.2079 -1.17134 1.05439 0
M  V30 942 C 88.1179 -2.24878 0.668365 0
M  V30 943 C 89.1339 -1.71186 -0.311687 0
M  V30 944 O 90.3099 -2.00738 -0.163161 0
M  V30 945 C 87.3749 -3.46662 0.051648 0
M  V30 946 C 86.4359 -4.15429 1.08246 0
M  V30 947 C 85.6689 -5.31399 0.495082 0
M  V30 948 O 85.8919 -5.66153 -0.694743 0
M  V30 949 O 84.8259 -5.89187 1.23056 0
M  V30 950 H 88.6519 -2.60189 1.56637 0
M  V30 951 H 86.2369 -1.24482 0.826104 0
M  V30 952 H 88.1189 -4.20394 -0.290966 0
M  V30 953 H 86.7939 -3.13142 -0.819971 0
M  V30 954 H 85.7009 -3.43704 1.47711 0
M  V30 955 H 87.0339 -4.52982 1.92532 0
M  V30 956 N 88.686 -0.835752 -1.33615 0
M  V30 957 C 89.616 -0.281739 -2.31794 0
M  V30 958 C 90.597 0.608833 -1.58831 0
M  V30 959 O 91.782 0.533035 -1.86741 0
M  V30 960 C 88.912 0.546612 -3.42971 0
M  V30 961 C 87.866 -0.247904 -4.27281 0
M  V30 962 C 87.192 0.704001 -5.30045 0
M  V30 963 C 88.492 -1.46324 -5.01385 0
M  V30 964 H 90.186 -1.10206 -2.78379 0
M  V30 965 H 87.732 -0.531388 -1.33837 0
M  V30 966 H 89.685 0.944467 -4.1068 0
M  V30 967 H 88.409 1.40011 -2.95067 0
M  V30 968 H 87.068 -0.627281 -3.61194 0
M  V30 969 H 86.716 1.55381 -4.78399 0
M  V30 970 H 86.416 0.176524 -5.87335 0
M  V30 971 H 87.94 1.09944 -6.0062 0
M  V30 972 H 89.354 -1.13871 -5.61877 0
M  V30 973 H 87.751 -1.92728 -5.6831 0
M  V30 974 H 88.821 -2.23467 -4.30338 0
M  V30 975 N 90.1641 1.46063 -0.591896 0
M  V30 976 C 91.3921 2.06717 -0.0868936 0
M  V30 977 C 91.8071 1.43916 1.22203 0
M  V30 978 O 91.1641 0.547698 1.74088 0
M  V30 979 C 91.2151 3.6142 0.0758725 0
M  V30 980 O 90.9361 4.21874 -1.18126 0
M  V30 981 C 92.4371 4.39025 0.61416 0
M  V30 982 H 89.6571 0.668162 -0.0616518 0
M  V30 983 H 92.2011 1.8755 -0.815175 0
M  V30 984 H 90.3561 3.79983 0.754413 0
M  V30 985 H 90.7701 5.14861 -1.00092 0
M  V30 986 H 92.2441 5.4783 0.677193 0
M  V30 987 H 92.7211 4.07708 1.63312 0
M  V30 988 H 93.3271 4.2529 -0.0298142 0
M  V30 989 N 91.6422 0.330177 1.54103 0
M  V30 990 C 92.6052 -0.520144 2.2322 0
M  V30 991 C 93.6052 -1.03828 1.22786 0
M  V30 992 O 94.7952 -0.929652 1.4732 0
M  V30 993 C 91.9272 -1.72317 2.94142 0
M  V30 994 H 93.1202 0.0841605 2.99782 0
M  V30 995 H 90.6732 0.0813433 1.56088 0
M  V30 996 H 91.4082 -2.36653 2.21734 0
M  V30 997 H 91.1932 -1.35898 3.67796 0
M  V30 998 H 92.6832 -2.3266 3.46784 0
M  V30 999 N 93.1203 -1.57491 0.0584922 0
M  V30 1000 C 94.0503 -2.14988 -0.911178 0
M  V30 1001 C 95.0313 -1.07343 -1.31952 0
M  V30 1002 O 96.2163 -1.35318 -1.39294 0
M  V30 1003 C 93.3463 -2.70078 -2.18347 0
M  V30 1004 C 92.3003 -3.82771 -1.91495 0
M  V30 1005 C 91.6263 -4.24408 -3.25241 0
M  V30 1006 C 92.9263 -5.07592 -1.23075 0
M  V30 1007 H 94.6203 -2.96263 -0.432246 0
M  V30 1008 H 92.1663 -1.42512 -0.206469 0
M  V30 1009 H 94.1193 -3.08943 -2.86587 0
M  V30 1010 H 92.8433 -1.86005 -2.68458 0
M  V30 1011 H 91.5023 -3.44389 -1.25664 0
M  V30 1012 H 91.1503 -3.37275 -3.73168 0
M  V30 1013 H 90.8503 -5.00366 -3.08071 0
M  V30 1014 H 92.3743 -4.65879 -3.94701 0
M  V30 1015 H 93.7883 -5.43857 -1.81362 0
M  V30 1016 H 92.1853 -5.88741 -1.16207 0
M  V30 1017 H 93.2553 -4.84454 -0.207847 0
M  V30 1018 N 94.5984 0.214957 -1.56127 0
M  V30 1019 C 95.5304 1.29004 -1.89448 0
M  V30 1020 C 96.5434 1.42716 -0.783326 0
M  V30 1021 O 97.7324 1.43496 -1.06166 0
M  V30 1022 C 94.8324 2.66482 -2.09381 0
M  V30 1023 C 94.0054 2.74633 -3.40434 0
M  V30 1024 C 93.0644 3.9317 -3.49719 0
M  V30 1025 O 92.0904 3.812 -4.227 0
M  V30 1026 N 93.2924 5.07765 -2.81346 0
M  V30 1027 H 96.0574 1.00743 -2.82261 0
M  V30 1028 H 93.6184 0.40497 -1.56753 0
M  V30 1029 H 95.6104 3.44173 -2.12901 0
M  V30 1030 H 94.1804 2.87314 -1.23163 0
M  V30 1031 H 93.4004 1.83368 -3.48955 0
M  V30 1032 H 94.6884 2.77054 -4.26754 0
M  V30 1033 H 94.0864 5.20386 -2.21843 0
M  V30 1034 H 92.6434 5.83474 -2.90519 0
M  V30 1035 N 96.0765 1.50051 0.48192 0
M  V30 1036 C 97.4925 1.37237 0.814756 0
M  V30 1037 C 97.6925 0.420109 1.97072 0
M  V30 1038 O 96.7485 -0.141246 2.52105 0
M  V30 1039 C 98.0615 2.78375 1.13701 0
M  V30 1040 C 99.6095 2.87213 1.2441 0
M  V30 1041 C 100.084 4.29161 1.59954 0
M  V30 1042 N 101.575 4.32061 1.66967 0
M  V30 1043 C 102.31 5.38879 1.95952 0
M  V30 1044 N 101.806 6.55918 2.23031 0
M  V30 1045 N 103.599 5.26312 1.97363 0
M  V30 1046 H 95.7505 2.10546 -0.28005 0
M  V30 1047 H 98.0135 0.945921 -0.0627454 0
M  V30 1048 H 97.7195 3.49845 0.360787 0
M  V30 1049 H 97.5935 3.14941 2.07586 0
M  V30 1050 H 99.9805 2.15969 2.01101 0
M  V30 1051 H 100.061 2.54204 0.285299 0
M  V30 1052 H 99.7055 5.00938 0.838067 0
M  V30 1053 H 99.6355 4.59648 2.56966 0
M  V30 1054 H 102.126 3.47661 1.48123 0
M  V30 1055 H 102.439 7.33139 2.44391 0
M  V30 1056 H 100.784 6.59112 2.20447 0
M  V30 1057 H 103.975 4.33876 1.75697 0
M  V30 1058 H 104.148 6.09649 2.19618 0
M  V30 1059 N 97.5546 -0.734337 1.39446 0
M  V30 1060 C 98.8036 -1.48937 1.36017 0
M  V30 1061 C 99.1166 -1.95557 -0.0409005 0
M  V30 1062 O 100.323 -2.70779 -0.19778 0
M  V30 1063 C 98.7786 -2.69125 2.38955 0
M  V30 1064 C 98.3866 -2.29452 3.8478 0
M  V30 1065 C 100.131 -3.46944 2.44603 0
M  V30 1066 C 98.0376 -3.46366 4.79358 0
M  V30 1067 H 96.9676 -0.559296 0.505672 0
M  V30 1068 H 99.6186 -0.800983 1.65095 0
M  V30 1069 H 98.0006 -3.40041 2.02948 0
M  V30 1070 H 99.1746 -1.66077 4.29831 0
M  V30 1071 H 97.4896 -1.64723 3.82433 0
M  V30 1072 H 100.087 -4.33907 3.12456 0
M  V30 1073 H 100.43 -3.89454 1.47076 0
M  V30 1074 H 100.963 -2.83056 2.79507 0
M  V30 1075 H 97.7016 -3.08905 5.78151 0
M  V30 1076 H 97.2216 -4.08719 4.38986 0
M  V30 1077 H 98.9006 -4.12691 4.98292 0
M  V30 1078 N 99.0327 -1.24633 -0.964593 0
M  V30 1079 C 99.9427 -1.05859 -2.09359 0
M  V30 1080 C 100.959 0.00148855 -1.74 0
M  V30 1081 O 102.135 -0.197346 -2.00431 0
M  V30 1082 C 99.1997 -0.668879 -3.40187 0
M  V30 1083 C 98.2607 -1.80578 -3.89474 0
M  V30 1084 C 97.4937 -1.43457 -5.14058 0
M  V30 1085 O 97.7167 -0.325775 -5.69469 0
M  V30 1086 O 96.6507 -2.2613 -5.57807 0
M  V30 1087 H 100.477 -2.00516 -2.28094 0
M  V30 1088 H 98.0617 -1.03481 -1.0776 0
M  V30 1089 H 99.9437 -0.463211 -4.18846 0
M  V30 1090 H 98.6187 0.248536 -3.22744 0
M  V30 1091 H 97.5257 -2.06623 -3.11862 0
M  V30 1092 H 98.8587 -2.70208 -4.11398 0
M  V30 1093 N 100.511 1.16574 -1.06058 0
M  V30 1094 C 101.458 2.20883 -0.669263 0
M  V30 1095 C 102.428 1.62729 0.332918 0
M  V30 1096 O 103.613 1.895 0.222346 0
M  V30 1097 C 100.753 3.45049 -0.0593572 0
M  V30 1098 C 99.8658 4.17458 -1.11143 0
M  V30 1099 C 99.0008 5.29135 -0.467916 0
M  V30 1100 C 98.0398 5.93343 -1.50369 0
M  V30 1101 N 97.1768 6.96516 -0.883706 0
M  V30 1102 H 102.017 2.53709 -1.5632 0
M  V30 1103 H 99.5538 1.24616 -0.781625 0
M  V30 1104 H 101.512 4.16033 0.311771 0
M  V30 1105 H 100.142 3.12781 0.797992 0
M  V30 1106 H 99.1938 3.45101 -1.60029 0
M  V30 1107 H 100.506 4.61307 -1.89731 0
M  V30 1108 H 99.6598 6.06684 -0.0436871 0
M  V30 1109 H 98.3988 4.86443 0.349864 0
M  V30 1110 H 97.4038 5.14517 -1.93784 0
M  V30 1111 H 98.6288 6.38114 -2.32352 0
M  V30 1112 H 96.5748 6.55943 -0.086595 0
M  V30 1113 H 96.4918 7.38723 -1.607 0
M  V30 1114 H 97.7598 7.77993 -0.484543 0
M  V30 1115 N 101.989 0.842826 1.3317 0
M  V30 1116 C 102.919 0.294028 2.31641 0
M  V30 1117 C 103.9 -0.600401 1.59151 0
M  V30 1118 O 105.085 -0.523124 1.87022 0
M  V30 1119 C 102.215 -0.528416 3.43257 0
M  V30 1120 C 101.169 0.27056 4.27144 0
M  V30 1121 C 100.495 -0.675881 5.30411 0
M  V30 1122 C 101.795 1.48981 5.00602 0
M  V30 1123 H 103.489 1.11681 2.77791 0
M  V30 1124 H 101.035 0.538478 1.33553 0
M  V30 1125 H 102.988 -0.922674 4.11175 0
M  V30 1126 H 101.712 -1.38445 2.95805 0
M  V30 1127 H 100.371 0.646427 3.60856 0
M  V30 1128 H 100.019 -1.52842 4.79216 0
M  V30 1129 H 99.7189 -0.145374 5.8742 0
M  V30 1130 H 101.243 -1.06757 6.01195 0
M  V30 1131 H 102.657 1.16849 5.61266 0
M  V30 1132 H 101.054 1.95739 5.6728 0
M  V30 1133 H 102.124 2.25746 4.29147 0
M  V30 1134 N 103.467 -1.45747 0.599634 0
M  V30 1135 C 104.713 -2.02592 0.0918643 0
M  V30 1136 C 105.046 -1.46806 -1.27128 0
M  V30 1137 O 104.321 -0.639658 -1.83681 0
M  V30 1138 C 104.604 -3.60073 0.0443398 0
M  V30 1139 C 104.457 -4.26208 1.43759 0
M  V30 1140 C 105.776 -4.35309 -0.647608 0
M  V30 1141 H 102.895 -0.736175 0.034857 0
M  V30 1142 H 105.537 -1.73694 0.770081 0
M  V30 1143 H 103.687 -3.84823 -0.533224 0
M  V30 1144 H 105.359 -4.12668 2.06162 0
M  V30 1145 H 103.602 -3.84916 2.00056 0
M  V30 1146 H 104.273 -5.35069 1.35665 0
M  V30 1147 H 106.749 -4.15805 -0.156776 0
M  V30 1148 H 105.625 -5.45038 -0.649942 0
M  V30 1149 H 105.886 -4.07598 -1.71219 0
M  V30 1150 N 104.945 -0.338344 -1.53925 0
M  V30 1151 C 105.855 0.529421 -2.28548 0
M  V30 1152 C 106.871 1.11645 -1.3346 0
M  V30 1153 O 108.047 1.13325 -1.66492 0
M  V30 1154 C 105.112 1.66713 -3.03987 0
M  V30 1155 C 104.173 1.11041 -4.14691 0
M  V30 1156 C 103.406 2.19389 -4.86522 0
M  V30 1157 O 103.629 3.40013 -4.57982 0
M  V30 1158 O 102.563 1.83976 -5.73094 0
M  V30 1159 H 106.389 -0.0770399 -3.03602 0
M  V30 1160 H 103.974 -0.103555 -1.49041 0
M  V30 1161 H 105.856 2.32918 -3.5118 0
M  V30 1162 H 104.531 2.25949 -2.31794 0
M  V30 1163 H 103.438 0.413024 -3.71813 0
M  V30 1164 H 104.771 0.562975 -4.8897 0
M  V30 1165 N 106.423 1.57458 -0.0668435 0
M  V30 1166 C 107.834 1.80776 0.466558 0
M  V30 1167 C 108.185 0.980361 1.69951 0
M  V30 1168 O 107.31 0.201441 2.1546 0
M  V30 1169 C 107.905 3.27881 0.85321 0
M  V30 1170 C 106.464 3.52062 1.3315 0
M  V30 1171 C 105.611 2.75513 0.314264 0
M  V30 1172 H 108.562 1.5598 -0.292588 0
M  V30 1173 H 108.583 3.39659 1.715 0
M  V30 1174 H 108.095 3.88075 -0.0443439 0
M  V30 1175 H 106.196 2.97167 2.24772 0
M  V30 1176 H 106.309 4.60762 1.31285 0
M  V30 1177 H 104.673 2.42123 0.790492 0
M  V30 1178 H 105.456 3.38442 -0.575477 0
M  V30 1179 N 107.901 -0.206675 1.56239 0
M  V30 1180 C 109.149 -0.927007 1.79586 0
M  V30 1181 C 109.47 -1.8427 0.637929 0
M  V30 1182 O 108.74 -1.92849 -0.344398 0
M  V30 1183 H 107.32 -0.345292 0.662407 0
M  V30 1184 H 109.982 -0.21496 1.93711 0
M  V30 1185 H 109.078 -1.52501 2.72305 0
M  V30 1186 N 109.379 -1.50304 -0.473955 0
M  V30 1187 C 110.604 -1.65175 -1.25427 0
M  V30 1188 C 111.029 -0.333673 -1.85117 0
M  V30 1189 O 110.387 0.702114 -1.67153 0
M  V30 1190 C 110.435 -2.74295 -2.34082 0
M  V30 1191 O 109.539 -2.35349 -3.38651 0
M  V30 1192 H 108.88 -0.551944 -0.369126 0
M  V30 1193 H 111.41 -1.96662 -0.564364 0
M  V30 1194 H 111.42 -2.97285 -2.79438 0
M  V30 1195 H 110.095 -3.69959 -1.90008 0
M  V30 1196 H 108.672 -2.22794 -2.99027 0
M  V30 1197 N 110.857 0.726932 -1.39834 0
M  V30 1198 C 112.103 1.48771 -1.38704 0
M  V30 1199 C 112.458 1.92394 0.0146387 0
M  V30 1200 O 111.751 1.64474 0.982797 0
M  V30 1201 C 111.945 2.73495 -2.30077 0
M  V30 1202 C 111.774 2.42068 -3.78989 0
M  V30 1203 C 110.544 2.33966 -4.4787 0
M  V30 1204 C 112.742 2.0708 -4.70768 0
M  V30 1205 N 110.724 1.95095 -5.82075 0
M  V30 1206 C 112.095 1.78719 -5.93683 0
M  V30 1207 C 114.15 1.93618 -4.58712 0
M  V30 1208 C 112.853 1.3825 -7.05889 0
M  V30 1209 C 114.879 1.54553 -5.70848 0
M  V30 1210 C 114.241 1.27082 -6.92842 0
M  V30 1211 H 110.34 0.542919 -0.562817 0
M  V30 1212 H 112.924 0.84408 -1.75452 0
M  V30 1213 H 111.095 3.35625 -1.95474 0
M  V30 1214 H 112.827 3.39755 -2.19883 0
M  V30 1215 H 109.582 2.51331 -4.0141 0
M  V30 1216 H 110.006 1.7823 -6.53118 0
M  V30 1217 H 114.648 2.13522 -3.64922 0
M  V30 1218 H 112.366 1.17088 -7.99572 0
M  V30 1219 H 115.952 1.44731 -5.6351 0
M  V30 1220 H 114.832 0.973069 -7.78139 0
M  V30 1221 N 112.336 1.25143 0.95797 0
M  V30 1222 C 113.752 1.01892 1.22842 0
M  V30 1223 C 113.952 -0.266311 1.99732 0
M  V30 1224 O 113.008 -0.979913 2.3271 0
M  V30 1225 C 114.321 2.24004 2.00606 0
M  V30 1226 C 115.869 2.28731 2.13662 0
M  V30 1227 C 116.344 3.5049 2.94823 0
M  V30 1228 N 117.835 3.50866 3.02403 0
M  V30 1229 C 118.57 4.4174 3.65586 0
M  V30 1230 N 118.066 5.42882 4.30408 0
M  V30 1231 N 119.859 4.29429 3.62694 0
M  V30 1232 H 112.01 2.07718 0.443493 0
M  V30 1233 H 114.273 0.912031 0.258657 0
M  V30 1234 H 113.979 3.17395 1.51503 0
M  V30 1235 H 113.853 2.26907 3.01319 0
M  V30 1236 H 116.24 1.35865 2.61963 0
M  V30 1237 H 116.321 2.29848 1.12265 0
M  V30 1238 H 115.965 4.43676 2.47213 0
M  V30 1239 H 115.895 3.46617 3.96439 0
M  V30 1240 H 118.386 2.777 2.56302 0
M  V30 1241 H 118.699 6.0844 4.76467 0
M  V30 1242 H 117.044 5.46758 4.29047 0
M  V30 1243 H 120.235 3.49643 3.11236 0
M  V30 1244 H 120.408 5.00448 4.1165 0
M  V30 1245 N 113.814 -1.1601 1.06675 0
M  V30 1246 C 115.225 -1.68235 0.809565 0
M  V30 1247 C 115.576 -1.8454 -0.666303 0
M  V30 1248 O 114.701 -1.54374 -1.5165 0
M  V30 1249 C 115.296 -3.05585 1.46299 0
M  V30 1250 C 113.855 -3.54915 1.25349 0
M  V30 1251 C 113.002 -2.30804 1.53703 0
M  V30 1252 H 115.953 -1.00318 1.22971 0
M  V30 1253 H 115.974 -3.70174 0.880431 0
M  V30 1254 H 115.486 -2.93686 2.53713 0
M  V30 1255 H 113.587 -3.72067 0.199261 0
M  V30 1256 H 113.7 -4.36774 1.9689 0
M  V30 1257 H 112.064 -2.36007 0.957739 0
M  V30 1258 H 112.847 -2.21499 2.62284 0
M  V30 1259 N 115.292 -0.849877 -1.32721 0
M  V30 1260 C 116.222 -0.306308 -2.31482 0
M  V30 1261 C 117.203 0.591952 -1.59468 0
M  V30 1262 O 118.388 0.513199 -1.87296 0
M  V30 1263 C 115.518 0.510204 -3.43532 0
M  V30 1264 C 114.472 -0.293209 -4.26994 0
M  V30 1265 C 113.798 0.647743 -5.30762 0
M  V30 1266 C 115.098 -1.51634 -4.99804 0
M  V30 1267 H 116.792 -1.13153 -2.77195 0
M  V30 1268 H 114.338 -0.545553 -1.33266 0
M  V30 1269 H 116.291 0.900856 -4.11658 0
M  V30 1270 H 115.015 1.36874 -2.96535 0
M  V30 1271 H 113.674 -0.665555 -3.60508 0
M  V30 1272 H 113.322 1.50299 -4.8002 0
M  V30 1273 H 113.022 0.11422 -5.87489 0
M  V30 1274 H 114.546 1.03567 -6.01753 0
M  V30 1275 H 115.96 -1.19824 -5.60638 0
M  V30 1276 H 114.357 -1.98745 -5.66234 0
M  V30 1277 H 115.427 -2.28018 -4.27943 0
M  V30 1278 N 116.77 1.45427 -0.607355 0
M  V30 1279 C 117.718 2.32269 0.12411 0
M  V30 1280 C 118.712 1.45955 0.859854 0
M  V30 1281 O 119.918 1.6244 0.775447 0
M  V30 1282 H 116.293 0.749691 0.0588839 0
M  V30 1283 H 118.264 2.91743 -0.626762 0
M  V30 1284 C 117.013 3.29567 1.1082 0
M  V30 1285 H 116.336 3.95978 0.551492 0
M  V30 1286 H 117.776 3.93061 1.58995 0
M  V30 1287 C 116.235 2.56722 2.18164 0
M  V30 1288 O 116.765 2.34842 3.25902 0
M  V30 1289 N 114.971 2.16861 1.93442 0
M  V30 1290 H 114.518 2.34855 1.05834 0
M  V30 1291 H 114.476 1.68444 2.65469 0
M  V30 1292 N 118.248 0.346503 1.53744 0
M  V30 1293 C 119.476 -0.25041 2.05379 0
M  V30 1294 C 119.891 -1.43979 1.22129 0
M  V30 1295 O 119.248 -1.80677 0.257321 0
M  V30 1296 C 119.299 -0.662575 3.55376 0
M  V30 1297 O 119.02 0.479515 4.35468 0
M  V30 1298 C 120.521 -1.31989 4.23195 0
M  V30 1299 H 117.741 -0.0478198 0.669294 0
M  V30 1300 H 120.285 0.499346 1.9831 0
M  V30 1301 H 118.44 -1.36227 3.62658 0
M  V30 1302 H 118.854 0.15037 5.24284 0
M  V30 1303 H 120.328 -1.55902 5.29527 0
M  V30 1304 H 120.805 -2.27436 3.75725 0
M  V30 1305 H 121.411 -0.662154 4.20114 0
M  V30 1306 N 119.726 -1.57421 0.075193 0
M  V30 1307 C 120.656 -2.15942 -0.888324 0
M  V30 1308 C 121.637 -1.08737 -1.30806 0
M  V30 1309 O 122.822 -1.36787 -1.37851 0
M  V30 1310 C 119.952 -2.72379 -2.1547 0
M  V30 1311 C 118.906 -3.8478 -1.87425 0
M  V30 1312 C 118.232 -4.27834 -3.20721 0
M  V30 1313 C 119.532 -5.08869 -1.17684 0
M  V30 1314 H 121.226 -2.96705 -0.400799 0
M  V30 1315 H 118.772 -1.42723 -0.191342 0
M  V30 1316 H 120.725 -3.11965 -2.83295 0
M  V30 1317 H 119.449 -1.88841 -2.6647 0
M  V30 1318 H 118.108 -3.45703 -1.22004 0
M  V30 1319 H 117.756 -3.41214 -3.6957 0
M  V30 1320 H 117.456 -5.03605 -3.02746 0
M  V30 1321 H 118.98 -4.70039 -3.89738 0
M  V30 1322 H 120.394 -5.4575 -1.75584 0
M  V30 1323 H 118.791 -5.8994 -1.09956 0
M  V30 1324 H 119.861 -4.84648 -0.156453 0
M  V30 1325 N 121.204 0.198386 -1.56346 0
M  V30 1326 C 122.451 0.919286 -1.80431 0
M  V30 1327 C 122.779 1.83393 -0.647866 0
M  V30 1328 O 122.034 1.92236 0.366556 0
M  V30 1329 C 122.333 1.77031 -3.10475 0
M  V30 1330 C 121.999 1.00693 -4.39513 0
M  V30 1331 C 120.661 0.796145 -4.74568 0
M  V30 1332 C 123.013 0.469559 -5.19081 0
M  V30 1333 C 120.341 0.0364588 -5.86689 0
M  V30 1334 C 122.693 -0.2769 -6.31994 0
M  V30 1335 C 121.357 -0.49873 -6.65634 0
M  V30 1336 H 120.627 0.336391 -0.660244 0
M  V30 1337 H 123.274 0.185872 -1.90596 0
M  V30 1338 H 121.579 2.5723 -2.95533 0
M  V30 1339 H 123.276 2.33065 -3.26315 0
M  V30 1340 H 119.866 1.18122 -4.12001 0
M  V30 1341 H 124.05 0.619816 -4.92414 0
M  V30 1342 H 119.306 -0.145412 -6.11227 0
M  V30 1343 H 123.48 -0.700684 -6.92866 0
M  V30 1344 H 121.107 -1.0893 -7.52355 0
M  V30 1345 N 122.682 1.50554 0.465978 0
M  V30 1346 C 123.63 1.70324 1.58406 0
M  V30 1347 C 124.624 0.569139 1.59553 0
M  V30 1348 O 125.83 0.749776 1.63641 0
M  V30 1349 H 122.205 0.537688 0.525734 0
M  V30 1350 H 124.176 2.64104 1.38894 0
M  V30 1351 C 122.925 1.81928 2.96307 0
M  V30 1352 H 122.248 2.68586 2.96144 0
M  V30 1353 H 123.688 1.99784 3.73982 0
M  V30 1354 C 122.147 0.572095 3.32007 0
M  V30 1355 O 122.677 -0.286416 4.00678 0
M  V30 1356 N 120.883 0.424606 2.87481 0
M  V30 1357 H 120.43 1.12427 2.31771 0
M  V30 1358 H 120.388 -0.408697 3.11732 0
M  V30 1359 N 124.16 -0.719506 1.40217 0
M  V30 1360 C 125.571 -1.29848 1.34151 0
M  V30 1361 C 125.922 -1.96196 0.0131349 0
M  V30 1362 O 125.047 -1.973 -0.88892 0
M  V30 1363 C 125.642 -2.36118 2.42968 0
M  V30 1364 C 124.201 -2.8965 2.40374 0
M  V30 1365 C 123.348 -1.63393 2.24049 0
M  V30 1366 H 126.299 -0.51591 1.5008 0
M  V30 1367 H 126.32 -3.16871 2.10649 0
M  V30 1368 H 125.832 -1.878 3.39636 0
M  V30 1369 H 123.933 -3.42208 1.47392 0
M  V30 1370 H 124.046 -3.4171 3.35814 0
M  V30 1371 H 122.41 -1.88312 1.71495 0
M  V30 1372 H 123.193 -1.17104 3.2271 0
M  V30 1373 N 125.638 -1.25649 -0.95132 0
M  V30 1374 C 126.57 -1.02112 -2.05197 0
M  V30 1375 C 127.583 0.0150571 -1.62793 0
M  V30 1376 O 128.772 -0.223874 -1.77091 0
M  V30 1377 C 125.872 -0.522361 -3.3485 0
M  V30 1378 C 125.045 -1.62546 -4.06076 0
M  V30 1379 C 124.104 -1.12649 -5.14001 0
M  V30 1380 O 123.13 -1.82156 -5.39266 0
M  V30 1381 N 124.332 0.03047 -5.80492 0
M  V30 1382 H 127.097 -1.96885 -2.25957 0
M  V30 1383 H 124.658 -1.16899 -1.1201 0
M  V30 1384 H 126.65 -0.172961 -4.0433 0
M  V30 1385 H 125.22 0.33151 -3.10837 0
M  V30 1386 H 124.44 -2.14628 -3.30649 0
M  V30 1387 H 125.728 -2.36644 -4.50419 0
M  V30 1388 H 125.126 0.611169 -5.62389 0
M  V30 1389 H 123.683 0.320875 -6.5101 0
M  V30 1390 N 127.117 1.15442 -1.07289 0
M  V30 1391 C 128.365 1.85845 -0.794096 0
M  V30 1392 C 128.686 1.82692 0.681809 0
M  V30 1393 O 127.956 1.26741 1.49377 0
M  V30 1394 H 126.536 0.688089 -0.290763 0
M  V30 1395 H 129.198 1.39947 -1.3565 0
M  V30 1396 H 128.294 2.91001 -1.12804 0
M  V30 1397 N 128.595 0.856903 1.32268 0
M  V30 1398 C 129.543 0.291987 2.3076 0
M  V30 1399 C 130.537 -0.585857 1.58947 0
M  V30 1400 O 131.743 -0.47341 1.73663 0
M  V30 1401 H 128.118 0.075721 0.748178 0
M  V30 1402 H 130.089 1.13687 2.75895 0
M  V30 1403 C 128.838 -0.502869 3.44044 0
M  V30 1404 H 128.161 0.163328 3.99466 0
M  V30 1405 H 129.601 -0.863691 4.1511 0
M  V30 1406 C 128.06 -1.68898 2.91505 0
M  V30 1407 O 128.59 -2.78811 2.89184 0
M  V30 1408 N 126.796 -1.51679 2.47875 0
M  V30 1409 H 126.343 -0.622666 2.49961 0
M  V30 1410 H 126.301 -2.31184 2.13076 0
M  V30 1411 N 130.073 -1.45103 0.615059 0
M  V30 1412 C 131.02 -2.30586 -0.0993978 0
M  V30 1413 C 131.99 -1.42544 -0.852669 0
M  V30 1414 O 133.175 -1.71465 -0.836917 0
M  V30 1415 C 130.315 -3.27572 -1.08583 0
M  V30 1416 C 129.428 -4.30717 -0.332656 0
M  V30 1417 C 128.563 -5.14807 -1.30947 0
M  V30 1418 C 127.602 -6.09673 -0.544538 0
M  V30 1419 N 126.739 -6.86517 -1.47101 0
M  V30 1420 H 131.579 -2.91144 0.635542 0
M  V30 1421 H 129.116 -1.4346 0.325206 0
M  V30 1422 H 131.074 -3.82276 -1.67095 0
M  V30 1423 H 129.704 -2.68751 -1.78809 0
M  V30 1424 H 128.756 -3.78615 0.368107 0
M  V30 1425 H 130.068 -4.98102 0.263842 0
M  V30 1426 H 129.222 -5.73948 -1.96643 0
M  V30 1427 H 127.961 -4.47458 -1.9399 0
M  V30 1428 H 126.966 -5.49656 0.126003 0
M  V30 1429 H 128.191 -6.79052 0.080947 0
M  V30 1430 H 126.137 -6.21851 -2.08895 0
M  V30 1431 H 126.054 -7.50281 -0.928137 0
M  V30 1432 H 127.322 -7.50194 -2.11731 0
M  V30 1433 N 131.551 -0.354651 -1.53558 0
M  V30 1434 C 132.499 0.512195 -2.26891 0
M  V30 1435 C 133.493 1.09263 -1.29452 0
M  V30 1436 O 134.699 1.03709 -1.47121 0
M  V30 1437 H 131.074 0.183878 -0.729173 0
M  V30 1438 H 133.045 -0.128202 -2.98124 0
M  V30 1439 C 131.794 1.64563 -3.06291 0
M  V30 1440 H 131.117 1.20829 -3.81104 0
M  V30 1441 H 132.557 2.22711 -3.60799 0
M  V30 1442 C 131.016 2.58158 -2.16462 0
M  V30 1443 O 131.546 3.60695 -1.76811 0
M  V30 1444 N 129.752 2.27096 -1.81317 0
M  V30 1445 H 129.299 1.43751 -2.1376 0
M  V30 1446 H 129.257 2.89975 -1.21498 0
M  V30 1447 N 133.029 1.57378 -0.0835403 0
M  V30 1448 C 134.277 1.93547 0.581718 0
M  V30 1449 C 134.598 0.96524 1.69435 0
M  V30 1450 O 133.868 0.0153369 1.95894 0
M  V30 1451 H 132.448 0.714521 0.217874 0
M  V30 1452 H 135.11 1.94366 -0.144158 0
M  V30 1453 H 134.206 2.95665 0.999423 0
M  V30 1454 N 134.507 -0.190092 1.56449 0
M  V30 1455 C 135.732 -0.929864 1.85387 0
M  V30 1456 C 136.157 -1.7585 0.667704 0
M  V30 1457 O 135.515 -1.77198 -0.383459 0
M  V30 1458 C 135.563 -1.79773 3.12593 0
M  V30 1459 O 134.667 -2.89713 2.93496 0
M  V30 1460 H 134.008 -0.261574 0.610307 0
M  V30 1461 H 136.538 -0.193896 2.03679 0
M  V30 1462 H 136.548 -2.20139 3.43515 0
M  V30 1463 H 135.223 -1.18892 3.98544 0
M  V30 1464 H 133.8 -2.53065 2.73884 0
M  V30 1465 N 135.985 -1.50799 -0.457987 0
M  V30 1466 C 137.231 -1.62683 -1.21088 0
M  V30 1467 C 137.564 -0.332268 -1.91336 0
M  V30 1468 O 136.839 0.667043 -1.82704 0
M  V30 1469 C 137.122 -2.81615 -2.24422 0
M  V30 1470 C 136.975 -4.20989 -1.58392 0
M  V30 1471 C 138.294 -2.96085 -3.2561 0
M  V30 1472 H 135.413 -0.592087 -0.438864 0
M  V30 1473 H 138.055 -1.83225 -0.50286 0
M  V30 1474 H 136.205 -2.64231 -2.84806 0
M  V30 1475 H 137.877 -4.49994 -1.01504 0
M  V30 1476 H 136.12 -4.24641 -0.886704 0
M  V30 1477 H 136.791 -5.0016 -2.33547 0
M  V30 1478 H 139.267 -3.12042 -2.75262 0
M  V30 1479 H 138.143 -3.80902 -3.95228 0
M  V30 1480 H 138.404 -2.0726 -3.90507 0
M  V30 1481 N 137.463 0.71206 -1.40597 0
M  V30 1482 C 138.426 1.80785 -1.40888 0
M  V30 1483 C 139.426 1.57937 -0.302103 0
M  V30 1484 O 140.616 1.64913 -0.561182 0
M  V30 1485 C 137.748 3.18927 -1.20409 0
M  V30 1486 H 138.941 1.81924 -2.38419 0
M  V30 1487 H 136.494 0.91805 -1.26497 0
M  V30 1488 H 137.229 3.23436 -0.236522 0
M  V30 1489 H 137.014 3.36911 -2.00582 0
M  V30 1490 H 138.504 3.98949 -1.23408 0
M  V30 1491 N 138.941 1.26152 0.944643 0
M  V30 1492 C 140.19 1.10883 1.68487 0
M  V30 1493 C 140.503 -0.348153 1.92477 0
M  V30 1494 O 141.709 -0.621459 2.64292 0
M  V30 1495 C 140.165 1.93624 3.03377 0
M  V30 1496 C 139.773 3.43875 2.87148 0
M  V30 1497 C 141.517 1.86954 3.81115 0
M  V30 1498 C 139.424 4.18875 4.1749 0
M  V30 1499 H 138.354 0.41135 0.631907 0
M  V30 1500 H 141.005 1.50433 1.05082 0
M  V30 1501 H 139.387 1.46904 3.67743 0
M  V30 1502 H 140.561 3.98338 2.31653 0
M  V30 1503 H 138.876 3.51744 2.22856 0
M  V30 1504 H 141.473 2.40275 4.77673 0
M  V30 1505 H 141.816 0.839518 4.07747 0
M  V30 1506 H 142.349 2.31477 3.23517 0
M  V30 1507 H 139.088 5.22332 3.96043 0
M  V30 1508 H 138.608 3.69193 4.72712 0
M  V30 1509 H 140.287 4.27134 4.85968 0
M  V30 1510 N 140.419 -1.14872 1.07899 0
M  V30 1511 C 141.665 -1.86064 0.806725 0
M  V30 1512 C 141.998 -1.82434 -0.665706 0
M  V30 1513 O 141.273 -1.25138 -1.48899 0
M  V30 1514 C 141.556 -3.34929 1.32267 0
M  V30 1515 C 141.409 -3.47161 2.86006 0
M  V30 1516 C 142.728 -4.29863 0.943717 0
M  V30 1517 H 139.847 -0.675591 0.294526 0
M  V30 1518 H 142.489 -1.34925 1.33773 0
M  V30 1519 H 140.639 -3.78611 0.870974 0
M  V30 1520 H 142.311 -3.12302 3.39507 0
M  V30 1521 H 140.554 -2.88539 3.23925 0
M  V30 1522 H 141.225 -4.51777 3.17177 0
M  V30 1523 H 143.701 -3.9417 1.33302 0
M  V30 1524 H 142.577 -5.32494 1.33198 0
M  V30 1525 H 142.838 -4.41846 -0.149796 0
M  V30 1526 N 141.898 -0.863906 -1.31812 0
M  V30 1527 C 142.845 -0.313303 -2.28664 0
M  V30 1528 C 143.815 0.584868 -1.55462 0
M  V30 1529 O 145 0.517805 -1.83639 0
M  V30 1530 C 142.14 0.48441 -3.41683 0
M  V30 1531 C 141.253 -0.440594 -4.29747 0
M  V30 1532 C 140.388 0.370652 -5.29905 0
M  V30 1533 C 139.427 -0.551164 -6.09613 0
M  V30 1534 N 138.564 0.223462 -7.01744 0
M  V30 1535 H 143.404 -1.14444 -2.75148 0
M  V30 1536 H 140.941 -0.575769 -1.35364 0
M  V30 1537 H 142.899 0.962627 -4.05943 0
M  V30 1538 H 141.529 1.28029 -2.96325 0
M  V30 1539 H 140.581 -1.03724 -3.65986 0
M  V30 1540 H 141.893 -1.14767 -4.85417 0
M  V30 1541 H 141.047 0.911638 -5.99812 0
M  V30 1542 H 139.786 1.11105 -4.74876 0
M  V30 1543 H 138.791 -1.10396 -5.38603 0
M  V30 1544 H 140.016 -1.29032 -6.66729 0
M  V30 1545 H 137.962 0.946787 -6.49132 0
M  V30 1546 H 137.879 -0.424399 -7.54808 0
M  V30 1547 H 139.147 0.745876 -7.75923 0
M  V30 1548 N 143.376 1.44774 -0.622745 0
M  V30 1549 C 144.624 2.01721 -0.123655 0
M  V30 1550 C 144.945 1.49172 1.25589 0
M  V30 1551 O 144.215 0.691974 1.83272 0
M  V30 1552 H 142.795 0.745777 -0.0427225 0
M  V30 1553 H 145.457 1.77382 -0.807559 0
M  V30 1554 H 144.553 3.11984 -0.0849534 0
M  V30 1555 N 144.854 0.36279 1.53368 0
M  V30 1556 C 145.784 -0.476976 2.28576 0
M  V30 1557 C 146.765 -1.08631 1.30894 0
M  V30 1558 O 147.95 -1.10409 1.59761 0
M  V30 1559 C 145.08 -1.61828 3.07293 0
M  V30 1560 C 144.034 -1.13633 4.1264 0
M  V30 1561 C 143.36 -2.36766 4.79423 0
M  V30 1562 C 144.66 -0.223061 5.21823 0
M  V30 1563 H 146.354 0.150474 2.99022 0
M  V30 1564 H 143.9 0.0738103 1.43811 0
M  V30 1565 H 145.853 -2.21237 3.58653 0
M  V30 1566 H 144.577 -2.27292 2.34533 0
M  V30 1567 H 143.236 -0.564945 3.62221 0
M  V30 1568 H 142.884 -3.0068 4.03238 0
M  V30 1569 H 142.584 -2.05192 5.50609 0
M  V30 1570 H 144.108 -2.96865 5.33576 0
M  V30 1571 H 145.522 -0.724545 5.68703 0
M  V30 1572 H 143.919 0.001678 6.001 0
M  V30 1573 H 144.989 0.735553 4.79289 0
M  V30 1574 N 146.332 -1.57332 0.0918853 0
M  V30 1575 C 147.58 -1.93853 -0.571446 0
M  V30 1576 C 147.901 -0.974212 -1.6892 0
M  V30 1577 O 147.171 -0.0257254 -1.95883 0
M  V30 1578 H 145.751 -0.715666 -0.214082 0
M  V30 1579 H 148.413 -1.94287 0.154464 0
M  V30 1580 H 147.509 -2.96191 -0.983729 0
M  V30 1581 N 147.81 0.181792 -1.56548 0
M  V30 1582 C 149.226 0.53316 -1.50431 0
M  V30 1583 C 149.426 1.85184 -0.794297 0
M  V30 1584 O 148.482 2.50058 -0.350318 0
M  V30 1585 C 149.795 0.575597 -2.9514 0
M  V30 1586 C 151.343 0.663519 -3.05886 0
M  V30 1587 C 151.818 0.736946 -4.52032 0
M  V30 1588 N 153.309 0.800118 -4.56237 0
M  V30 1589 C 154.044 0.877327 -5.66649 0
M  V30 1590 N 153.54 0.916016 -6.86718 0
M  V30 1591 N 155.333 0.915542 -5.54594 0
M  V30 1592 H 147.484 -0.683025 -2.01118 0
M  V30 1593 H 149.747 -0.244988 -0.915797 0
M  V30 1594 H 149.453 -0.324482 -3.502 0
M  V30 1595 H 149.327 1.42572 -3.49218 0
M  V30 1596 H 151.714 1.55403 -2.50867 0
M  V30 1597 H 151.795 -0.21307 -2.54911 0
M  V30 1598 H 151.439 -0.149262 -5.07681 0
M  V30 1599 H 151.369 1.62953 -5.00753 0
M  V30 1600 H 153.86 0.778926 -3.69785 0
M  V30 1601 H 154.173 0.975813 -7.66614 0
M  V30 1602 H 152.518 0.884469 -6.89349 0
M  V30 1603 H 155.709 0.882245 -4.59711 0
M  V30 1604 H 155.882 0.972253 -6.40665 0
M  V30 1605 N 149.288 1.51039 0.449983 0
M  V30 1606 C 150.534 1.63322 1.20223 0
M  V30 1607 C 150.867 0.34241 1.91158 0
M  V30 1608 O 150.142 -0.657344 1.83055 0
M  V30 1609 C 150.425 2.82801 2.22925 0
M  V30 1610 C 150.278 4.21823 1.56157 0
M  V30 1611 C 151.597 2.97807 3.24035 0
M  V30 1612 H 148.716 0.594407 0.435718 0
M  V30 1613 H 151.358 1.83489 0.493136 0
M  V30 1614 H 149.508 2.65738 2.834 0
M  V30 1615 H 151.18 4.50526 0.991162 0
M  V30 1616 H 149.423 4.25105 0.864172 0
M  V30 1617 H 150.094 5.01391 2.30891 0
M  V30 1618 H 152.57 3.13497 2.73603 0
M  V30 1619 H 151.446 3.82992 3.93202 0
M  V30 1620 H 151.707 2.09328 3.89402 0
M  V30 1621 N 150.766 -0.704594 1.40972 0
M  V30 1622 C 151.714 -1.83994 1.42299 0
M  V30 1623 C 152.708 -1.66684 0.302111 0
M  V30 1624 O 153.914 -1.73655 0.473697 0
M  V30 1625 H 150.289 -0.606171 0.44504 0
M  V30 1626 H 152.26 -1.79992 2.38003 0
M  V30 1627 C 151.009 -3.21946 1.31323 0
M  V30 1628 H 150.332 -3.35878 2.16855 0
M  V30 1629 H 151.772 -4.01491 1.36311 0
M  V30 1630 C 150.231 -3.36891 0.0245977 0
M  V30 1631 O 150.761 -3.90687 -0.934153 0
M  V30 1632 N 148.967 -2.90559 -0.0485243 0
M  V30 1633 H 148.514 -2.46968 0.732419 0
M  V30 1634 H 148.472 -3.00937 -0.910171 0
M  V30 1635 N 152.244 -1.26651 -0.937939 0
M  V30 1636 C 153.492 -1.12165 -1.68118 0
M  V30 1637 C 153.813 0.334983 -1.92101 0
M  V30 1638 O 153.083 1.23583 -1.52 0
M  V30 1639 H 151.663 -0.412093 -0.623048 0
M  V30 1640 H 154.325 -1.59027 -1.12678 0
M  V30 1641 H 153.421 -1.64289 -2.6536 0
M  V30 1642 N 153.722 1.14298 -1.08507 0
M  V30 1643 C 154.669 2.19414 -0.715965 0
M  V30 1644 C 155.639 1.63399 0.298326 0
M  V30 1645 O 156.824 1.89929 0.182101 0
M  V30 1646 C 153.964 3.44845 -0.132534 0
M  V30 1647 C 153.077 4.15007 -1.19973 0
M  V30 1648 C 152.212 5.28024 -0.580048 0
M  V30 1649 C 151.251 5.9002 -1.62921 0
M  V30 1650 N 150.388 6.94485 -1.03125 0
M  V30 1651 H 155.228 2.50336 -1.61666 0
M  V30 1652 H 152.765 1.2293 -0.807882 0
M  V30 1653 H 154.723 4.16601 0.223454 0
M  V30 1654 H 153.353 3.14403 0.731467 0
M  V30 1655 H 152.405 3.41629 -1.67313 0
M  V30 1656 H 153.717 4.57178 -1.99473 0
M  V30 1657 H 152.871 6.06455 -0.172364 0
M  V30 1658 H 151.61 4.87076 0.246603 0
M  V30 1659 H 150.615 5.10291 -2.04654 0
M  V30 1660 H 151.84 6.33042 -2.45835 0
M  V30 1661 H 149.786 6.55612 -0.225711 0
M  V30 1662 H 149.703 7.35148 -1.76334 0
M  V30 1663 H 150.971 7.7679 -0.649458 0
M  V30 1664 N 155.201 0.870884 1.31352 0
M  V30 1665 C 156.447 0.492314 1.97352 0
M  V30 1666 C 156.802 -0.945174 1.67583 0
M  V30 1667 O 156.095 -1.65674 0.962423 0
M  V30 1668 C 156.289 0.687157 3.50732 0
M  V30 1669 C 156.118 2.14203 3.95407 0
M  V30 1670 C 154.888 2.78382 4.21701 0
M  V30 1671 C 157.086 3.1144 4.09279 0
M  V30 1672 N 155.068 4.14611 4.52737 0
M  V30 1673 C 156.439 4.32702 4.44037 0
M  V30 1674 C 158.494 3.07418 3.91661 0
M  V30 1675 C 157.197 5.50463 4.63015 0
M  V30 1676 C 159.223 4.24438 4.11833 0
M  V30 1677 C 158.585 5.44463 4.46923 0
M  V30 1678 H 154.684 0.229206 0.747655 0
M  V30 1679 H 157.268 1.12568 1.5886 0
M  V30 1680 H 155.439 0.083384 3.8831 0
M  V30 1681 H 157.171 0.276883 4.03752 0
M  V30 1682 H 153.926 2.29326 4.14375 0
M  V30 1683 H 154.35 4.84928 4.72413 0
M  V30 1684 H 158.992 2.15732 3.6362 0
M  V30 1685 H 156.71 6.42666 4.89904 0
M  V30 1686 H 160.296 4.2278 3.99685 0
M  V30 1687 H 159.176 6.33504 4.62214 0
M  V30 1688 N 156.679 -1.44442 0.630414 0
M  V30 1689 C 157.919 -2.03934 0.137919 0
M  V30 1690 C 158.283 -1.48509 -1.21692 0
M  V30 1691 O 159.484 -1.99499 -1.80149 0
M  V30 1692 C 157.755 -3.57187 0.123373 0
M  V30 1693 S 159.314 -4.37741 -0.304604 0
M  V30 1694 H 156.132 -0.708401 0.0607353 0
M  V30 1695 H 158.734 -1.76835 0.833643 0
M  V30 1696 H 157.438 -3.95032 1.11256 0
M  V30 1697 H 156.969 -3.88895 -0.59362 0
M  V30 1698 H 158.984 -4.71403 -1.54897 0
M  V30 1699 N 158.157 -0.370918 -1.53173 0
M  V30 1700 C 159.403 0.217423 -2.01631 0
M  V30 1701 C 159.736 1.47983 -1.25756 0
M  V30 1702 O 159.011 1.91274 -0.352764 0
M  V30 1703 C 159.294 0.503982 -3.56556 0
M  V30 1704 C 159.147 -0.77243 -4.43118 0
M  V30 1705 C 160.466 1.30234 -4.20389 0
M  V30 1706 H 157.585 0.0775486 -0.732909 0
M  V30 1707 H 160.227 -0.496863 -1.83388 0
M  V30 1708 H 158.377 1.11248 -3.72231 0
M  V30 1709 H 160.049 -1.4098 -4.39229 0
M  V30 1710 H 158.292 -1.39167 -4.10871 0
M  V30 1711 H 158.963 -0.526815 -5.4948 0
M  V30 1712 H 161.439 0.787546 -4.08579 0
M  V30 1713 H 160.315 1.47158 -5.28806 0
M  V30 1714 H 160.576 2.31237 -3.76805 0
M  V30 1715 N 159.635 1.57281 -0.100228 0
M  V30 1716 C 160.881 1.94826 0.563101 0
M  V30 1717 C 161.214 0.982475 1.67514 0
M  V30 1718 O 160.489 0.0164069 1.94493 0
M  V30 1719 C 160.772 3.42453 1.11346 0
M  V30 1720 C 160.625 4.498 0.00612081 0
M  V30 1721 C 161.944 3.91506 2.01024 0
M  V30 1722 H 159.063 0.708428 0.203221 0
M  V30 1723 H 161.705 1.8922 -0.171979 0
M  V30 1724 H 159.855 3.47361 1.7399 0
M  V30 1725 H 161.527 4.57 -0.628357 0
M  V30 1726 H 159.77 4.28756 -0.659581 0
M  V30 1727 H 160.441 5.50306 0.432109 0
M  V30 1728 H 162.917 3.88784 1.48278 0
M  V30 1729 H 161.793 4.95358 2.36457 0
M  V30 1730 H 162.054 3.31099 2.92961 0
M  V30 1731 N 161.113 -0.173488 1.56642 0
M  V30 1732 C 162.359 -0.891784 1.8214 0
M  V30 1733 C 162.692 -1.8199 0.677736 0
M  V30 1734 O 161.967 -1.91842 -0.320446 0
M  V30 1735 C 162.25 -1.68933 3.18015 0
M  V30 1736 C 162.103 -0.784487 4.42906 0
M  V30 1737 C 163.422 -2.65748 3.50808 0
M  V30 1738 H 160.541 -0.322761 0.662567 0
M  V30 1739 H 163.183 -0.158095 1.89341 0
M  V30 1740 H 161.333 -2.31482 3.12007 0
M  V30 1741 H 163.005 -0.172046 4.60979 0
M  V30 1742 H 161.248 -0.0924117 4.33702 0
M  V30 1743 H 161.919 -1.37799 5.34524 0
M  V30 1744 H 164.395 -2.13327 3.57255 0
M  V30 1745 H 163.271 -3.18619 4.4696 0
M  V30 1746 H 163.532 -3.45842 2.75401 0
M  V30 1747 N 162.591 -1.51276 -0.441967 0
M  V30 1748 C 163.554 -1.7167 -1.51862 0
M  V30 1749 C 164.554 -0.586793 -1.49711 0
M  V30 1750 O 165.744 -0.854276 -1.51815 0
M  V30 1751 C 162.876 -1.76889 -2.91416 0
M  V30 1752 H 164.069 -2.67754 -1.35084 0
M  V30 1753 H 161.622 -1.41196 -0.670333 0
M  V30 1754 H 162.357 -0.826026 -3.13604 0
M  V30 1755 H 162.142 -2.59001 -2.94382 0
M  V30 1756 H 163.632 -1.94522 -3.69528 0
M  V30 1757 N 164.069 0.697108 -1.41344 0
M  V30 1758 C 165.294 1.49096 -1.44171 0
M  V30 1759 C 165.719 1.88038 -0.0481568 0
M  V30 1760 O 165.077 1.54525 0.948243 0
M  V30 1761 C 165.125 2.73088 -2.3549 0
M  V30 1762 O 164.229 3.70514 -1.81088 0
M  V30 1763 H 163.57 0.448801 -0.489361 0
M  V30 1764 H 166.1 0.856992 -1.85787 0
M  V30 1765 H 166.11 3.21413 -2.51312 0
M  V30 1766 H 164.785 2.44081 -3.36745 0
M  V30 1767 H 163.362 3.29441 -1.74708 0
M  V30 1768 N 165.547 1.27147 0.931209 0
M  V30 1769 C 166.824 1.0401 1.65654 0
M  V30 1770 C 167.204 -0.426297 2.06751 0
M  V30 1771 O 166.552 -1.40879 1.79904 0
M  V30 1772 C 166.762 1.99834 2.86125 0
M  V30 1773 C 168.11 2.29007 3.57549 0
M  V30 1774 O 169.134 1.97779 2.96246 0
M  V30 1775 O 167.993 2.82222 4.67989 0
M  V30 1776 H 165.087 0.396239 0.725895 0
M  V30 1777 H 167.633 1.38397 0.982056 0
M  V30 1778 H 166.405 2.98744 2.52721 0
M  V30 1779 H 166.028 1.65987 3.61295 0
M  V30 1780 N 167.025 -1.13721 1.09112 0
M  V30 1781 C 167.973 -2.21103 0.722219 0
M  V30 1782 C 168.967 -1.67147 -0.275374 0
M  V30 1783 O 170.173 -1.79477 -0.137176 0
M  V30 1784 H 166.548 -0.720445 0.215553 0
M  V30 1785 H 168.519 -2.49483 1.63709 0
M  V30 1786 C 167.268 -3.47352 0.15543 0
M  V30 1787 H 166.591 -3.89206 0.914246 0
M  V30 1788 H 168.031 -4.2395 -0.0647967 0
M  V30 1789 C 166.49 -3.1814 -1.10852 0
M  V30 1790 O 167.02 -3.36604 -2.19227 0
M  V30 1791 N 165.226 -2.72045 -1.02176 0
M  V30 1792 H 164.773 -2.57221 -0.139764 0
M  V30 1793 H 164.731 -2.52875 -1.8682 0
M  V30 1794 N 168.503 -0.877838 -1.30888 0
M  V30 1795 C 169.45 -0.337538 -2.28318 0
M  V30 1796 C 170.42 0.568346 -1.56074 0
M  V30 1797 O 171.605 0.498298 -1.84178 0
M  V30 1798 C 168.745 0.448142 -3.42178 0
M  V30 1799 C 167.858 -0.48615 -4.29256 0
M  V30 1800 C 166.993 0.314427 -5.30269 0
M  V30 1801 C 166.032 -0.615791 -6.08995 0
M  V30 1802 N 165.169 0.14902 -7.01942 0
M  V30 1803 H 170.009 -1.17356 -2.73919 0
M  V30 1804 H 167.546 -0.590094 -1.34745 0
M  V30 1805 H 169.504 0.919517 -4.06941 0
M  V30 1806 H 168.134 1.24879 -2.97666 0
M  V30 1807 H 167.186 -1.076 -3.64865 0
M  V30 1808 H 168.498 -1.19909 -4.84173 0
M  V30 1809 H 167.652 0.847969 -6.00745 0
M  V30 1810 H 166.391 1.06062 -4.76027 0
M  V30 1811 H 165.396 -1.16102 -5.37401 0
M  V30 1812 H 166.621 -1.36097 -6.65323 0
M  V30 1813 H 164.567 0.877884 -6.50099 0
M  V30 1814 H 164.484 -0.504433 -7.54315 0
M  V30 1815 H 165.752 0.663537 -7.76671 0
M  V30 1816 N 169.982 1.44106 -0.638065 0
M  V30 1817 C 170.929 2.30715 0.062701 0
M  V30 1818 C 171.899 1.43882 0.829883 0
M  V30 1819 O 173.084 1.72775 0.809532 0
M  V30 1820 C 170.224 3.29258 1.03358 0
M  V30 1821 C 169.337 4.31192 0.26409 0
M  V30 1822 C 168.472 5.16825 1.22741 0
M  V30 1823 C 167.511 6.10462 0.447475 0
M  V30 1824 N 166.648 6.8877 1.36161 0
M  V30 1825 H 171.488 2.90096 -0.681781 0
M  V30 1826 H 169.025 1.42925 -0.347988 0
M  V30 1827 H 170.983 3.84886 1.60992 0
M  V30 1828 H 169.613 2.71562 1.74511 0
M  V30 1829 H 168.665 3.77981 -0.428295 0
M  V30 1830 H 169.977 4.97619 -0.343052 0
M  V30 1831 H 169.131 5.77004 1.87487 0
M  V30 1832 H 167.87 4.50488 1.86847 0
M  V30 1833 H 166.875 5.49386 -0.213433 0
M  V30 1834 H 168.1 6.78837 -0.188968 0
M  V30 1835 H 166.046 6.25096 1.98975 0
M  V30 1836 H 165.963 7.51663 0.808656 0
M  V30 1837 H 167.231 7.53467 1.99769 0
M  V30 1838 N 171.46 0.379036 1.52974 0
M  V30 1839 C 172.39 -0.452706 2.29069 0
M  V30 1840 C 173.371 -1.07237 1.32039 0
M  V30 1841 O 174.556 -1.08708 1.60923 0
M  V30 1842 C 171.686 -1.5856 3.08992 0
M  V30 1843 C 170.64 -1.0925 4.13822 0
M  V30 1844 C 169.966 -2.31668 4.81907 0
M  V30 1845 C 171.266 -0.167702 5.22031 0
M  V30 1846 H 172.96 0.182181 2.98845 0
M  V30 1847 H 170.506 0.0890592 1.43724 0
M  V30 1848 H 172.459 -2.1742 3.6098 0
M  V30 1849 H 171.183 -2.24792 2.36931 0
M  V30 1850 H 169.842 -0.526494 3.628 0
M  V30 1851 H 169.49 -2.96386 4.06404 0
M  V30 1852 H 169.19 -1.9934 5.52754 0
M  V30 1853 H 170.714 -2.91189 5.36695 0
M  V30 1854 H 172.128 -0.664186 5.6944 0
M  V30 1855 H 170.525 0.0653265 6.00064 0
M  V30 1856 H 171.595 0.786347 4.78482 0
M  V30 1857 N 172.938 -1.57226 0.108567 0
M  V30 1858 C 173.901 -2.13602 -0.831082 0
M  V30 1859 C 174.901 -1.06841 -1.20173 0
M  V30 1860 O 176.091 -1.32666 -1.12895 0
M  V30 1861 C 173.223 -2.66769 -2.12243 0
M  V30 1862 H 174.416 -2.97951 -0.341317 0
M  V30 1863 H 171.969 -1.55667 -0.14057 0
M  V30 1864 H 172.704 -1.85977 -2.65675 0
M  V30 1865 H 172.489 -3.44839 -1.86625 0
M  V30 1866 H 173.979 -3.10332 -2.79435 0
M  V30 1867 N 174.416 0.165178 -1.56732 0
M  V30 1868 C 175.664 0.879068 -1.8198 0
M  V30 1869 C 175.985 1.82514 -0.686561 0
M  V30 1870 O 175.255 1.93694 0.293146 0
M  V30 1871 H 173.835 0.327608 -0.671329 0
M  V30 1872 H 176.497 0.163526 -1.94213 0
M  V30 1873 H 175.593 1.45228 -2.76252 0
M  V30 1874 N 175.894 1.51508 0.433938 0
M  V30 1875 C 176.857 1.72473 1.50949 0
M  V30 1876 C 177.857 0.594725 1.49398 0
M  V30 1877 O 179.047 0.862315 1.5136 0
M  V30 1878 C 176.179 1.78431 2.90474 0
M  V30 1879 H 177.372 2.68467 1.33662 0
M  V30 1880 H 174.925 1.41549 0.662836 0
M  V30 1881 H 175.66 0.842645 3.13161 0
M  V30 1882 H 175.445 2.60558 2.93005 0
M  V30 1883 H 176.935 1.96479 3.68491 0
M  V30 1884 N 177.372 -0.689602 1.41712 0
M  V30 1885 C 178.618 -1.45041 1.42599 0
M  V30 1886 C 178.973 -1.92366 0.0363764 0
M  V30 1887 O 178.266 -1.67022 -0.938844 0
M  V30 1888 C 178.46 -2.67298 2.37247 0
M  V30 1889 C 178.289 -2.31935 3.85274 0
M  V30 1890 C 177.059 -2.2201 4.53916 0
M  V30 1891 C 179.257 -1.94526 4.76093 0
M  V30 1892 N 177.239 -1.79594 5.87043 0
M  V30 1893 C 178.61 -1.62915 5.98213 0
M  V30 1894 C 180.665 -1.81388 4.63684 0
M  V30 1895 C 179.368 -1.19486 7.09306 0
M  V30 1896 C 181.394 -1.39364 5.74745 0
M  V30 1897 C 180.756 -1.08668 6.95967 0
M  V30 1898 H 176.855 -0.527806 0.577014 0
M  V30 1899 H 179.439 -0.797266 1.77628 0
M  V30 1900 H 177.61 -3.30325 2.04304 0
M  V30 1901 H 179.342 -3.33806 2.28814 0
M  V30 1902 H 176.097 -2.406 4.07932 0
M  V30 1903 H 176.521 -1.60851 6.57614 0
M  V30 1904 H 181.163 -2.03772 3.70455 0
M  V30 1905 H 178.881 -0.958477 8.02396 0
M  V30 1906 H 182.467 -1.2974 5.6715 0
M  V30 1907 H 181.347 -0.766417 7.80446 0
M  V30 1908 N 178.85 -1.27639 -0.924453 0
M  V30 1909 C 180.096 -1.14336 -1.67497 0
M  V30 1910 C 180.429 0.309465 -1.91718 0
M  V30 1911 O 179.704 1.22608 -1.50989 0
M  V30 1912 C 179.987 -1.93096 -3.0395 0
M  V30 1913 C 179.84 -3.46381 -2.8695 0
M  V30 1914 C 181.159 -1.73798 -4.0433 0
M  V30 1915 H 178.278 -0.416728 -0.607871 0
M  V30 1916 H 180.92 -1.56832 -1.07256 0
M  V30 1917 H 179.07 -1.56982 -3.55372 0
M  V30 1918 H 180.742 -3.92343 -2.42621 0
M  V30 1919 H 178.985 -3.72557 -2.22225 0
M  V30 1920 H 179.656 -3.96735 -3.83804 0
M  V30 1921 H 182.132 -2.05293 -3.61931 0
M  V30 1922 H 181.008 -2.31294 -4.97789 0
M  V30 1923 H 181.269 -0.686725 -4.36734 0
M  V30 1924 N 180.328 1.1314 -1.09713 0
M  V30 1925 C 181.739 1.66029 -0.853885 0
M  V30 1926 C 182.09 1.86241 0.617142 0
M  V30 1927 O 181.215 1.5834 1.47503 0
M  V30 1928 C 181.81 3.01599 -1.5435 0
M  V30 1929 C 180.369 3.51467 -1.34714 0
M  V30 1930 C 179.516 2.26648 -1.59769 0
M  V30 1931 H 182.467 0.970226 -1.25588 0
M  V30 1932 H 182.488 3.67709 -0.978267 0
M  V30 1933 H 182 2.86856 -2.6141 0
M  V30 1934 H 180.101 3.71408 -0.297838 0
M  V30 1935 H 180.214 4.314 -2.08401 0
M  V30 1936 H 178.578 2.33385 -1.01998 0
M  V30 1937 H 179.361 2.14467 -2.68065 0
M  V30 1938 N 181.806 0.884767 1.30421 0
M  V30 1939 C 183.054 0.502112 1.95763 0
M  V30 1940 C 183.375 -0.951815 1.70192 0
M  V30 1941 O 182.645 -1.6692 1.0254 0
M  V30 1942 H 181.225 0.182694 0.724315 0
M  V30 1943 H 183.887 1.1278 1.58955 0
M  V30 1944 H 182.983 0.672188 3.04775 0
M  V30 1945 N 183.284 -1.43765 0.645699 0
M  V30 1946 C 184.216 -2.29027 -0.0890605 0
M  V30 1947 C 185.229 -1.42093 -0.794563 0
M  V30 1948 O 186.418 -1.66104 -0.653575 0
M  V30 1949 C 183.518 -3.18831 -1.14891 0
M  V30 1950 C 182.691 -4.34261 -0.523043 0
M  V30 1951 C 181.75 -5.04994 -1.47878 0
M  V30 1952 O 180.776 -5.6052 -0.990277 0
M  V30 1953 N 181.978 -5.07795 -2.81291 0
M  V30 1954 H 184.743 -2.92727 0.64272 0
M  V30 1955 H 182.304 -1.54373 0.487924 0
M  V30 1956 H 184.296 -3.63015 -1.78892 0
M  V30 1957 H 182.866 -2.56782 -1.78275 0
M  V30 1958 H 182.086 -3.93088 0.295896 0
M  V30 1959 H 183.374 -5.08728 -0.0858147 0
M  V30 1960 H 182.772 -4.64042 -3.23546 0
M  V30 1961 H 181.329 -5.55721 -3.40614 0
M  V30 1962 N 184.763 -0.387143 -1.52771 0
M  V30 1963 C 185.726 0.436939 -2.24997 0
M  V30 1964 C 186.726 0.991991 -1.26555 0
M  V30 1965 O 187.916 0.874335 -1.50669 0
M  V30 1966 C 185.048 1.61281 -3.00335 0
M  V30 1967 H 186.241 -0.195365 -2.99263 0
M  V30 1968 H 183.794 -0.139218 -1.55679 0
M  V30 1969 H 184.529 2.2826 -2.30364 0
M  V30 1970 H 184.314 1.22154 -3.72587 0
M  V30 1971 H 185.804 2.19629 -3.5518 0
M  V30 1972 N 186.241 1.57166 -0.116904 0
M  V30 1973 C 187.151 2.18745 0.847812 0
M  V30 1974 C 188.167 1.163 1.29423 0
M  V30 1975 O 189.343 1.48761 1.35765 0
M  V30 1976 C 186.408 2.77307 2.0809 0
M  V30 1977 C 185.469 3.94781 1.68661 0
M  V30 1978 C 184.702 4.50541 2.86091 0
M  V30 1979 O 184.925 4.05202 4.01456 0
M  V30 1980 O 183.859 5.41256 2.63298 0
M  V30 1981 H 187.685 3.01632 0.353778 0
M  V30 1982 H 185.27 1.49005 0.108599 0
M  V30 1983 H 187.152 3.14647 2.80313 0
M  V30 1984 H 185.827 1.97452 2.56504 0
M  V30 1985 H 184.734 3.62214 0.935518 0
M  V30 1986 H 186.067 4.76065 1.24991 0
M  V30 1987 N 187.719 -0.156864 1.56817 0
M  V30 1988 C 188.959 -0.877453 1.84608 0
M  V30 1989 C 189.323 -1.78791 0.699845 0
M  V30 1990 O 190.524 -2.5472 0.858553 0
M  V30 1991 C 188.795 -1.63992 3.17555 0
M  V30 1992 S 190.354 -2.40729 3.66872 0
M  V30 1993 H 187.172 -0.293612 0.647544 0
M  V30 1994 H 189.774 -0.138099 1.95012 0
M  V30 1995 H 188.478 -0.962363 3.98957 0
M  V30 1996 H 188.009 -2.42038 3.10131 0
M  V30 1997 H 190.024 -3.65725 3.3535 0
M  V30 1998 N 189.197 -1.51736 -0.425897 0
M  V30 1999 C 190.127 -1.76827 -1.52494 0
M  V30 2000 C 191.108 -0.618524 -1.58456 0
M  V30 2001 O 192.293 -0.862416 -1.74 0
M  V30 2002 C 189.423 -1.90374 -2.90474 0
M  V30 2003 C 188.377 -3.0588 -2.99369 0
M  V30 2004 C 187.703 -3.04625 -4.3944 0
M  V30 2005 C 189.003 -4.45644 -2.72394 0
M  V30 2006 H 190.697 -2.68855 -1.31748 0
M  V30 2007 H 188.243 -1.29372 -0.632362 0
M  V30 2008 H 190.196 -2.0651 -3.6733 0
M  V30 2009 H 188.92 -0.95004 -3.12477 0
M  V30 2010 H 187.579 -2.89467 -2.24954 0
M  V30 2011 H 187.227 -2.0701 -4.58428 0
M  V30 2012 H 186.927 -3.82195 -4.46319 0
M  V30 2013 H 188.451 -3.22869 -5.18255 0
M  V30 2014 H 189.865 -4.62348 -3.38979 0
M  V30 2015 H 188.262 -5.25006 -2.9067 0
M  V30 2016 H 189.332 -4.54893 -1.67929 0
M  V30 2017 N 190.675 0.682077 -1.42076 0
M  V30 2018 C 191.605 1.80796 -1.47767 0
M  V30 2019 C 192.586 1.6677 -0.334954 0
M  V30 2020 O 193.771 1.863 -0.548264 0
M  V30 2021 C 190.901 3.19038 -1.37229 0
M  V30 2022 C 189.855 3.47789 -2.49453 0
M  V30 2023 C 189.181 4.8553 -2.23975 0
M  V30 2024 C 190.481 3.45411 -3.91776 0
M  V30 2025 H 192.175 1.7629 -2.41997 0
M  V30 2026 H 189.721 0.846721 -1.16476 0
M  V30 2027 H 191.674 3.97528 -1.39821 0
M  V30 2028 H 190.398 3.24204 -0.394907 0
M  V30 2029 H 189.057 2.71657 -2.46166 0
M  V30 2030 H 188.705 4.87337 -1.24547 0
M  V30 2031 H 188.405 5.0573 -2.99184 0
M  V30 2032 H 189.929 5.66312 -2.28304 0
M  V30 2033 H 191.343 4.13882 -3.96705 0
M  V30 2034 H 189.74 3.77145 -4.66778 0
M  V30 2035 H 190.81 2.44122 -4.18966 0
M  V30 2036 N 192.153 1.28127 0.917671 0
M  V30 2037 C 193.569 1.05749 1.19538 0
M  V30 2038 C 193.769 -0.202633 2.00479 0
M  V30 2039 O 192.825 -0.905382 2.3571 0
M  V30 2040 C 194.138 2.30273 1.93378 0
M  V30 2041 C 195.686 2.35412 2.06277 0
M  V30 2042 C 196.161 3.59692 2.83524 0
M  V30 2043 N 197.652 3.60309 2.91087 0
M  V30 2044 C 198.387 4.53147 3.51348 0
M  V30 2045 N 197.883 5.563 4.12919 0
M  V30 2046 N 199.676 4.40751 3.48849 0
M  V30 2047 H 191.827 2.09024 0.377184 0
M  V30 2048 H 194.09 0.919798 0.22951 0
M  V30 2049 H 193.796 3.22055 1.41328 0
M  V30 2050 H 193.67 2.36378 2.93947 0
M  V30 2051 H 196.057 1.4413 2.57508 0
M  V30 2052 H 196.138 2.33304 1.04895 0
M  V30 2053 H 195.782 4.51316 2.32973 0
M  V30 2054 H 195.712 3.59054 3.85211 0
M  V30 2055 H 198.203 2.85714 2.47338 0
M  V30 2056 H 198.516 6.2329 4.56869 0
M  V30 2057 H 196.861 5.60131 4.11435 0
M  V30 2058 H 200.052 3.59367 2.99955 0
M  V30 2059 H 200.225 5.13291 3.9552 0
M  V30 2060 N 193.631 -1.12557 1.10312 0
M  V30 2061 C 194.594 -2.16434 0.75424 0
M  V30 2062 C 195.594 -1.59278 -0.220685 0
M  V30 2063 O 196.784 -1.742 0.00230591 0
M  V30 2064 C 193.916 -3.40699 0.116987 0
M  V30 2065 H 195.109 -2.48811 1.67431 0
M  V30 2066 H 192.662 -1.27542 0.903475 0
M  V30 2067 H 193.397 -3.13921 -0.813877 0
M  V30 2068 H 193.182 -3.83459 0.818613 0
M  V30 2069 H 194.672 -4.17451 -0.111387 0
M  V30 2070 N 195.109 -0.891671 -1.2995 0
M  V30 2071 C 196.334 -0.527932 -2.00568 0
M  V30 2072 C 196.759 0.877969 -1.66353 0
M  V30 2073 O 196.117 1.58301 -0.883762 0
M  V30 2074 C 196.165 -0.717745 -3.53385 0
M  V30 2075 O 195.269 0.233376 -4.11739 0
M  V30 2076 H 194.61 -0.20722 -0.630837 0
M  V30 2077 H 197.14 -1.20105 -1.65638 0
M  V30 2078 H 197.15 -0.619307 -4.03272 0
M  V30 2079 H 195.825 -1.74276 -3.77625 0
M  V30 2080 H 194.402 0.0880706 -3.72796 0
M  V30 2081 N 196.587 1.43421 -0.653314 0
M  V30 2082 C 197.864 1.95361 -0.0966581 0
M  V30 2083 C 198.244 1.59461 1.38331 0
M  V30 2084 O 197.592 0.879777 2.10884 0
M  V30 2085 C 197.802 3.47311 -0.342988 0
M  V30 2086 C 199.15 4.23875 -0.24798 0
M  V30 2087 O 200.174 3.55133 -0.275553 0
M  V30 2088 O 199.033 5.4623 -0.171771 0
M  V30 2089 H 196.127 0.826945 0.00956291 0
M  V30 2090 H 198.673 1.5336 -0.726558 0
M  V30 2091 H 197.445 3.66569 -1.36906 0
M  V30 2092 H 197.068 3.9631 0.319975 0
M  V30 2093 N 198.065 0.39524 1.52563 0
M  V30 2094 C 199.293 -0.184943 2.06072 0
M  V30 2095 C 199.708 -1.40021 1.26647 0
M  V30 2096 O 199.065 -1.79767 0.314672 0
M  V30 2097 C 199.116 -0.549179 3.57304 0
M  V30 2098 O 198.837 0.617813 4.33722 0
M  V30 2099 C 200.338 -1.18459 4.2718 0
M  V30 2100 H 197.558 -0.0265025 0.670476 0
M  V30 2101 H 200.102 0.562184 1.96621 0
M  V30 2102 H 198.257 -1.2462 3.66809 0
M  V30 2103 H 198.671 0.317091 5.23541 0
M  V30 2104 H 200.145 -1.38976 5.34219 0
M  V30 2105 H 200.622 -2.15368 3.82771 0
M  V30 2106 H 201.228 -0.528163 4.22008 0
M  V30 2107 N 199.544 -1.57102 0.125237 0
M  V30 2108 C 200.507 -2.14471 -0.80838 0
M  V30 2109 C 201.507 -1.0811 -1.19033 0
M  V30 2110 O 202.697 -1.33856 -1.11482 0
M  V30 2111 C 199.829 -2.69005 -2.09402 0
M  V30 2112 H 201.022 -2.98297 -0.309696 0
M  V30 2113 H 198.575 -1.55807 -0.124051 0
M  V30 2114 H 199.31 -1.88785 -2.63687 0
M  V30 2115 H 199.095 -3.46799 -1.82957 0
M  V30 2116 H 200.585 -3.13278 -2.76128 0
M  V30 2117 N 201.022 0.148545 -1.56898 0
M  V30 2118 C 201.969 1.18345 -1.98149 0
M  V30 2119 C 202.939 1.42772 -0.848848 0
M  V30 2120 O 204.124 1.55132 -1.11079 0
M  V30 2121 C 201.264 2.51231 -2.36594 0
M  V30 2122 C 200.377 2.33991 -3.63142 0
M  V30 2123 C 199.512 3.59902 -3.90697 0
M  V30 2124 C 198.551 3.37692 -5.1052 0
M  V30 2125 N 197.688 4.5573 -5.34092 0
M  V30 2126 H 202.528 0.82467 -2.86362 0
M  V30 2127 H 200.065 0.395756 -1.41676 0
M  V30 2128 H 202.023 3.28713 -2.56912 0
M  V30 2129 H 200.653 2.85059 -1.51463 0
M  V30 2130 H 199.705 1.47572 -3.50609 0
M  V30 2131 H 201.017 2.13539 -4.5078 0
M  V30 2132 H 200.171 4.45813 -4.11505 0
M  V30 2133 H 198.91 3.83357 -3.01477 0
M  V30 2134 H 197.915 2.5017 -4.89587 0
M  V30 2135 H 199.14 3.15637 -6.0129 0
M  V30 2136 H 197.086 4.79361 -4.47827 0
M  V30 2137 H 197.003 4.38274 -6.15996 0
M  V30 2138 H 198.271 5.42858 -5.59397 0
M  V30 2139 N 202.5 1.5196 0.417844 0
M  V30 2140 C 203.728 1.69426 1.18753 0
M  V30 2141 C 204.143 0.399955 1.84515 0
M  V30 2142 O 203.5 -0.623288 1.71527 0
M  V30 2143 C 203.551 2.82375 2.25714 0
M  V30 2144 O 203.272 4.06793 1.62638 0
M  V30 2145 C 204.773 3.11277 3.15628 0
M  V30 2146 H 201.993 0.568031 0.357186 0
M  V30 2147 H 204.537 1.98475 0.49273 0
M  V30 2148 H 202.692 2.5587 2.90877 0
M  V30 2149 H 203.106 4.69667 2.3348 0
M  V30 2150 H 204.58 3.93843 3.86771 0
M  V30 2151 H 205.057 2.24473 3.77503 0
M  V30 2152 H 205.663 3.39515 2.56144 0
M  V30 2153 N 203.978 -0.674533 1.42435 0
M  V30 2154 C 204.908 -1.80009 1.48724 0
M  V30 2155 C 205.889 -1.6659 0.343793 0
M  V30 2156 O 207.074 -1.86007 0.558137 0
M  V30 2157 C 204.204 -3.18306 1.38919 0
M  V30 2158 C 203.158 -3.46461 2.51294 0
M  V30 2159 C 202.484 -4.84335 2.26547 0
M  V30 2160 C 203.784 -3.43328 3.93603 0
M  V30 2161 H 205.478 -1.75004 2.42928 0
M  V30 2162 H 203.024 -0.840533 1.16923 0
M  V30 2163 H 204.977 -3.9678 1.41927 0
M  V30 2164 H 203.701 -3.2399 0.412094 0
M  V30 2165 H 202.36 -2.70348 2.47604 0
M  V30 2166 H 202.008 -4.86669 1.2713 0
M  V30 2167 H 201.708 -5.04136 3.01861 0
M  V30 2168 H 203.232 -5.65094 2.31304 0
M  V30 2169 H 204.646 -4.11772 3.98894 0
M  V30 2170 H 203.043 -3.74664 4.68771 0
M  V30 2171 H 204.113 -2.41897 4.20255 0
M  V30 2172 N 205.456 -1.28612 -0.910864 0
M  V30 2173 C 206.406 -1.09423 -2.00026 0
M  V30 2174 C 207.39 -0.0170079 -1.60891 0
M  V30 2175 O 208.582 -0.237472 -1.754 0
M  V30 2176 C 205.711 -0.76114 -3.34756 0
M  V30 2177 C 204.797 -1.87735 -3.80285 0
M  V30 2178 N 205.188 -3.11938 -3.98156 0
M  V30 2179 C 203.486 -1.76786 -4.09467 0
M  V30 2180 C 204.187 -3.84687 -4.36338 0
M  V30 2181 N 203.163 -3.12555 -4.44759 0
M  V30 2182 H 206.965 -2.03658 -2.11898 0
M  V30 2183 H 204.479 -1.19573 -1.09891 0
M  V30 2184 H 206.476 -0.604743 -4.12491 0
M  V30 2185 H 205.136 0.173403 -3.24237 0
M  V30 2186 H 206.147 -3.47516 -3.83996 0
M  V30 2187 H 202.824 -0.905284 -4.07567 0
M  V30 2188 H 204.214 -4.91518 -4.58104 0
M  V30 2189 N 206.934 1.1197 -1.10907 0
M  V30 2190 C 208.18 1.8386 -0.855773 0
M  V30 2191 C 208.513 1.84134 0.617103 0
M  V30 2192 O 207.788 1.29041 1.45529 0
M  V30 2193 C 208.071 3.31305 -1.411 0
M  V30 2194 C 207.924 3.39456 -2.9511 0
M  V30 2195 C 209.243 4.2721 -1.05736 0
M  V30 2196 H 206.362 0.667545 -0.312334 0
M  V30 2197 H 209.004 1.31331 -1.37303 0
M  V30 2198 H 207.154 3.76169 -0.97105 0
M  V30 2199 H 208.826 3.03191 -3.47668 0
M  V30 2200 H 207.069 2.79849 -3.31462 0
M  V30 2201 H 207.74 4.43209 -3.29044 0
M  V30 2202 H 210.216 3.90497 -1.43706 0
M  V30 2203 H 209.092 5.28775 -1.47269 0
M  V30 2204 H 209.353 4.42088 0.0325958 0
M  V30 2205 N 208.412 0.89855 1.29475 0
M  V30 2206 C 209.823 0.572537 1.77705 0
M  V30 2207 C 210.174 -0.911778 1.73727 0
M  V30 2208 O 209.299 -1.71288 1.32247 0
M  V30 2209 C 209.894 1.03252 3.22683 0
M  V30 2210 C 208.453 0.757687 3.68695 0
M  V30 2211 C 207.6 1.20787 2.49612 0
M  V30 2212 H 210.551 1.08139 1.16153 0
M  V30 2213 H 210.572 0.367307 3.78723 0
M  V30 2214 H 210.084 2.11285 3.25546 0
M  V30 2215 H 208.185 -0.310079 3.71308 0
M  V30 2216 H 208.298 1.35476 4.59547 0
M  V30 2217 H 206.662 0.626888 2.46865 0
M  V30 2218 H 207.445 2.29622 2.55203 0
M  V30 2219 N 209.89 -1.43072 0.660911 0
M  V30 2220 C 210.82 -2.33497 -0.0122829 0
M  V30 2221 C 211.801 -1.49903 -0.803925 0
M  V30 2222 O 212.986 -1.78546 -0.763864 0
M  V30 2223 C 210.116 -3.33363 -0.973994 0
M  V30 2224 C 209.07 -4.27003 -0.291928 0
M  V30 2225 C 208.396 -5.16967 -1.36562 0
M  V30 2226 C 209.696 -5.15816 0.820462 0
M  V30 2227 H 211.39 -2.90038 0.742873 0
M  V30 2228 H 208.936 -1.39461 0.358688 0
M  V30 2229 H 210.889 -3.95524 -1.45392 0
M  V30 2230 H 209.613 -2.75095 -1.7604 0
M  V30 2231 H 208.272 -3.66217 0.167623 0
M  V30 2232 H 207.92 -4.55034 -2.14366 0
M  V30 2233 H 207.62 -5.80441 -0.914454 0
M  V30 2234 H 209.144 -5.82003 -1.84675 0
M  V30 2235 H 210.558 -5.71742 0.422366 0
M  V30 2236 H 208.955 -5.8805 1.19656 0
M  V30 2237 H 210.025 -4.55045 1.67518 0
M  V30 2238 N 211.368 -0.403325 -1.52352 0
M  V30 2239 C 212.614 0.174605 -2.02047 0
M  V30 2240 C 212.947 1.45282 -1.28867 0
M  V30 2241 O 212.222 1.90483 -0.393257 0
M  V30 2242 C 212.505 0.428238 -3.57545 0
M  V30 2243 C 212.358 -0.866248 -4.4138 0
M  V30 2244 C 213.677 1.21287 -4.23057 0
M  V30 2245 H 210.796 0.0619851 -0.734389 0
M  V30 2246 H 213.438 -0.53565 -1.82293 0
M  V30 2247 H 211.588 1.03327 -3.74507 0
M  V30 2248 H 213.26 -1.50265 -4.3614 0
M  V30 2249 H 211.503 -1.47851 -4.07827 0
M  V30 2250 H 212.174 -0.643249 -5.48239 0
M  V30 2251 H 214.65 0.700703 -4.10158 0
M  V30 2252 H 213.526 1.35909 -5.31808 0
M  V30 2253 H 213.787 2.23193 -3.81625 0
M  V30 2254 N 212.846 1.57033 -0.133567 0
M  V30 2255 C 214.076 1.99754 0.527429 0
M  V30 2256 C 214.484 1.01245 1.59832 0
M  V30 2257 O 213.827 -0.000645496 1.837 0
M  V30 2258 C 213.889 3.38903 1.19939 0
M  V30 2259 C 213.553 4.56174 0.274709 0
M  V30 2260 C 214.55 5.17563 -0.492398 0
M  V30 2261 C 212.235 5.01972 0.18153 0
M  V30 2262 C 214.229 6.2315 -1.34027 0
M  V30 2263 C 211.916 6.07416 -0.669958 0
M  V30 2264 C 212.914 6.67874 -1.42947 0
M  V30 2265 O 212.602 7.71279 -2.2668 0
M  V30 2266 H 212.334 0.660702 0.142999 0
M  V30 2267 H 214.888 2.04207 -0.221099 0
M  V30 2268 H 213.118 3.31248 1.99528 0
M  V30 2269 H 214.807 3.65818 1.75875 0
M  V30 2270 H 215.573 4.83087 -0.430367 0
M  V30 2271 H 211.452 4.54652 0.762422 0
M  V30 2272 H 214.996 6.70268 -1.93357 0
M  V30 2273 H 210.893 6.41321 -0.73333 0
M  V30 2274 H 211.661 7.88441 -2.1978 0
M  V30 2275 N 214.325 -0.140222 1.56975 0
M  V30 2276 C 215.571 -0.852949 1.83991 0
M  V30 2277 C 215.904 -1.80512 0.716187 0
M  V30 2278 O 215.179 -1.92479 -0.279681 0
M  V30 2279 C 215.462 -1.6215 3.21527 0
M  V30 2280 C 215.315 -0.690363 4.4447 0
M  V30 2281 C 216.634 -2.58247 3.56366 0
M  V30 2282 H 213.753 -0.308634 0.669264 0
M  V30 2283 H 216.395 -0.117898 1.89634 0
M  V30 2284 H 214.545 -2.24812 3.16847 0
M  V30 2285 H 216.217 -0.0742264 4.6124 0
M  V30 2286 H 214.46 -0.000396433 4.338 0
M  V30 2287 H 215.131 -1.2643 5.37326 0
M  V30 2288 H 217.607 -2.05701 3.61699 0
M  V30 2289 H 216.483 -3.09067 4.53617 0
M  V30 2290 H 216.744 -3.39923 2.82674 0
M  V30 2291 N 215.803 -1.52179 -0.40978 0
M  V30 2292 C 216.733 -1.78435 -1.5061 0
M  V30 2293 C 217.714 -0.635295 -1.57791 0
M  V30 2294 O 218.899 -0.880823 -1.73076 0
M  V30 2295 C 216.029 -1.93444 -2.88439 0
M  V30 2296 C 214.983 -3.09038 -2.96108 0
M  V30 2297 C 214.309 -3.09268 -4.36185 0
M  V30 2298 C 215.609 -4.48508 -2.67652 0
M  V30 2299 H 217.303 -2.70237 -1.28889 0
M  V30 2300 H 214.849 -1.30036 -0.618605 0
M  V30 2301 H 216.802 -2.10394 -3.65119 0
M  V30 2302 H 215.526 -0.983129 -3.11452 0
M  V30 2303 H 214.185 -2.91837 -2.21872 0
M  V30 2304 H 213.833 -2.11861 -4.56206 0
M  V30 2305 H 213.533 -3.86907 -4.42241 0
M  V30 2306 H 215.057 -3.28348 -5.14801 0
M  V30 2307 H 216.471 -4.65918 -3.34056 0
M  V30 2308 H 214.868 -5.28059 -2.85085 0
M  V30 2309 H 215.938 -4.56649 -1.63095 0
M  V30 2310 N 217.281 0.66697 -1.42791 0
M  V30 2311 C 218.229 1.80157 -1.47127 0
M  V30 2312 C 219.223 1.65825 -0.346199 0
M  V30 2313 O 220.429 1.72338 -0.519572 0
M  V30 2314 H 216.804 0.594158 -0.460956 0
M  V30 2315 H 218.775 1.73619 -2.42692 0
M  V30 2316 C 217.524 3.18351 -1.39813 0
M  V30 2317 H 216.847 3.3001 -2.25684 0
M  V30 2318 H 218.287 3.97736 -1.46908 0
M  V30 2319 C 216.746 3.36707 -0.11391 0
M  V30 2320 O 217.276 3.93027 0.830241 0
M  V30 2321 N 215.482 2.90586 -0.0285295 0
M  V30 2322 H 215.029 2.4494 -0.79764 0
M  V30 2323 H 214.987 3.03245 0.830063 0
M  V30 2324 N 218.759 1.29093 0.90403 0
M  V30 2325 C 219.999 1.18076 1.66845 0
M  V30 2326 C 220.363 -0.26436 1.90171 0
M  V30 2327 O 221.564 -0.497423 2.64157 0
M  V30 2328 C 219.835 1.96722 2.98388 0
M  V30 2329 S 221.394 2.0219 3.89441 0
M  V30 2330 H 218.212 0.421104 0.572881 0
M  V30 2331 H 220.814 1.63322 1.07453 0
M  V30 2332 H 219.518 3.00866 2.7912 0
M  V30 2333 H 219.049 1.52064 3.62823 0
M  V30 2334 H 221.064 1.13545 4.83034 0
M  V30 2335 N 220.237 -1.11381 1.11499 0
M  V30 2336 C 221.462 -1.87475 0.887019 0
M  V30 2337 C 221.887 -1.79639 -0.557796 0
M  V30 2338 O 221.245 -1.15924 -1.39396 0
M  V30 2339 C 221.293 -3.34213 1.35403 0
M  V30 2340 O 220.397 -4.0903 0.526146 0
M  V30 2341 H 219.738 -0.582099 0.319463 0
M  V30 2342 H 222.268 -1.40785 1.48461 0
M  V30 2343 H 222.278 -3.8506 1.34881 0
M  V30 2344 H 220.953 -3.39232 2.40612 0
M  V30 2345 H 219.53 -3.68082 0.597522 0
M  V30 2346 N 221.715 -0.905404 -1.28997 0
M  V30 2347 C 222.963 -0.533192 -1.9494 0
M  V30 2348 C 223.284 0.924618 -1.71685 0
M  V30 2349 O 222.554 1.65268 -1.05183 0
M  V30 2350 H 221.134 -0.194194 -0.721317 0
M  V30 2351 H 223.796 -1.15294 -1.57141 0
M  V30 2352 H 222.892 -0.72059 -3.03667 0
M  V30 2353 N 223.193 1.4272 -0.668489 0
M  V30 2354 C 224.439 2.01923 -0.188419 0
M  V30 2355 C 224.772 1.52704 1.19979 0
M  V30 2356 O 224.047 0.726566 1.8042 0
M  V30 2357 C 224.33 3.59451 -0.216085 0
M  V30 2358 C 224.183 4.18864 -1.6393 0
M  V30 2359 C 225.502 4.37903 0.439179 0
M  V30 2360 H 222.621 0.733674 -0.0699412 0
M  V30 2361 H 225.263 1.69822 -0.852076 0
M  V30 2362 H 223.413 3.86929 0.349012 0
M  V30 2363 H 225.085 4.02362 -2.25616 0
M  V30 2364 H 223.328 3.74933 -2.18193 0
M  V30 2365 H 223.999 5.27987 -1.61039 0
M  V30 2366 H 226.475 4.16079 -0.0417878 0
M  V30 2367 H 225.351 5.47519 0.389157 0
M  V30 2368 H 225.612 4.15303 1.51577 0
M  V30 2369 N 224.671 0.411399 1.52136 0
M  V30 2370 C 225.618 -0.412975 2.27075 0
M  V30 2371 C 226.588 -1.03912 1.29582 0
M  V30 2372 O 227.773 -1.06296 1.58448 0
M  V30 2373 C 224.913 -1.52247 3.09701 0
M  V30 2374 C 224.026 -0.917021 4.22155 0
M  V30 2375 C 223.161 -1.9994 4.92135 0
M  V30 2376 C 222.2 -1.37101 5.96548 0
M  V30 2377 N 221.337 -2.39364 6.60038 0
M  V30 2378 H 226.177 0.232499 2.97092 0
M  V30 2379 H 223.714 0.126496 1.46555 0
M  V30 2380 H 225.672 -2.17674 3.55913 0
M  V30 2381 H 224.302 -2.13794 2.41851 0
M  V30 2382 H 223.354 -0.151742 3.80097 0
M  V30 2383 H 224.666 -0.418006 4.97045 0
M  V30 2384 H 223.82 -2.73088 5.41763 0
M  V30 2385 H 222.559 -2.53208 4.16818 0
M  V30 2386 H 221.564 -0.624873 5.46237 0
M  V30 2387 H 222.789 -0.845998 6.7381 0
M  V30 2388 H 220.735 -2.91759 5.87548 0
M  V30 2389 H 220.652 -1.9428 7.3061 0
M  V30 2390 H 221.92 -3.12074 7.14304 0
M  V30 2391 N 226.149 -1.5696 0.141893 0
M  V30 2392 C 227.396 -1.9596 -0.510492 0
M  V30 2393 C 227.724 -1.02648 -1.65208 0
M  V30 2394 O 226.979 -0.0546947 -1.95624 0
M  V30 2395 C 227.278 -3.41242 -1.06249 0
M  V30 2396 C 226.944 -4.50882 -0.0398791 0
M  V30 2397 C 225.606 -4.80595 0.241247 0
M  V30 2398 C 227.958 -5.17058 0.65578 0
M  V30 2399 C 225.286 -5.73792 1.22393 0
M  V30 2400 C 227.638 -6.11313 1.62724 0
M  V30 2401 C 226.302 -6.39407 1.91612 0
M  V30 2402 H 225.572 -0.717068 -0.186802 0
M  V30 2403 H 228.219 -1.90142 0.227643 0
M  V30 2404 H 226.524 -3.43866 -1.87785 0
M  V30 2405 H 228.221 -3.68742 -1.57576 0
M  V30 2406 H 224.811 -4.27754 -0.269174 0
M  V30 2407 H 228.995 -4.94239 0.451779 0
M  V30 2408 H 224.251 -5.93853 1.45424 0
M  V30 2409 H 228.425 -6.61668 2.17183 0
M  V30 2410 H 226.052 -7.11427 2.6791 0
M  V30 2411 N 227.627 0.131896 -1.57047 0
M  V30 2412 C 228.904 0.871495 -1.75112 0
M  V30 2413 C 229.284 1.9866 -0.713949 0
M  V30 2414 O 228.632 2.26965 0.264447 0
M  V30 2415 C 228.842 1.40007 -3.19686 0
M  V30 2416 C 230.19 1.85752 -3.81813 0
M  V30 2417 O 231.214 1.49715 -3.23209 0
M  V30 2418 O 230.073 2.5226 -4.84796 0
M  V30 2419 H 227.167 0.412919 -0.716538 0
M  V30 2420 H 229.713 0.116641 -1.69299 0
M  V30 2421 H 228.485 0.599404 -3.86682 0
M  V30 2422 H 228.108 2.218 -3.29986 0
M  V30 2423 N 229.106 1.52395 0.401703 0
M  V30 2424 C 230.016 1.7917 1.51444 0
M  V30 2425 C 231.032 0.677691 1.6026 0
M  V30 2426 O 232.208 0.963909 1.76835 0
M  V30 2427 C 229.273 1.94347 2.87107 0
M  V30 2428 C 228.334 3.18257 2.88116 0
M  V30 2429 C 227.567 3.32701 4.17308 0
M  V30 2430 O 227.79 2.52238 5.11598 0
M  V30 2431 O 226.724 4.25891 4.25324 0
M  V30 2432 H 230.55 2.73633 1.31752 0
M  V30 2433 H 228.135 1.3733 0.588296 0
M  V30 2434 H 230.017 2.06109 3.67555 0
M  V30 2435 H 228.692 1.03073 3.06851 0
M  V30 2436 H 227.599 3.11947 2.06494 0
M  V30 2437 H 228.932 4.09336 2.73322 0
M  V30 2438 N 230.584 -0.659388 1.43143 0
M  V30 2439 C 231.516 -1.7849 1.43784 0
M  V30 2440 C 232.529 -1.5932 0.334787 0
M  V30 2441 O 233.718 -1.68155 0.598842 0
M  V30 2442 C 230.818 -3.15828 1.22906 0
M  V30 2443 C 229.991 -3.61711 2.45934 0
M  V30 2444 C 229.05 -4.77831 2.20371 0
M  V30 2445 O 228.076 -4.87586 2.93681 0
M  V30 2446 N 229.278 -5.67611 1.21647 0
M  V30 2447 H 232.043 -1.7842 2.40803 0
M  V30 2448 H 229.604 -0.84302 1.3822 0
M  V30 2449 H 231.596 -3.91189 1.03697 0
M  V30 2450 H 230.166 -3.10707 0.343542 0
M  V30 2451 H 229.386 -2.76861 2.80609 0
M  V30 2452 H 230.674 -3.89112 3.27825 0
M  V30 2453 H 230.072 -5.62397 0.610449 0
M  V30 2454 H 228.629 -6.42719 1.08423 0
M  V30 2455 N 232.062 -1.29571 -0.897171 0
M  V30 2456 C 232.972 -1.16808 -2.03453 0
M  V30 2457 C 233.988 -0.0907471 -1.73763 0
M  V30 2458 O 235.164 -0.303312 -1.99103 0
M  V30 2459 C 232.229 -0.848264 -3.36163 0
M  V30 2460 C 231.29 -2.0097 -3.79354 0
M  V30 2461 C 230.523 -1.70505 -5.05731 0
M  V30 2462 O 230.746 -0.62718 -5.66941 0
M  V30 2463 O 229.68 -2.5538 -5.45036 0
M  V30 2464 H 233.506 -2.12325 -2.17144 0
M  V30 2465 H 231.091 -1.09047 -1.02123 0
M  V30 2466 H 232.973 -0.684581 -4.15802 0
M  V30 2467 H 231.648 0.0771071 -3.23608 0
M  V30 2468 H 230.555 -2.22863 -3.00471 0
M  V30 2469 H 231.888 -2.91636 -3.96496 0
M  V30 2470 N 233.54 1.10788 -1.12088 0
M  V30 2471 C 234.487 2.17025 -0.785407 0
M  V30 2472 C 235.457 1.64265 0.246191 0
M  V30 2473 O 236.642 1.90412 0.121584 0
M  V30 2474 C 233.782 3.44249 -0.242177 0
M  V30 2475 C 232.895 4.1098 -1.33115 0
M  V30 2476 C 232.03 5.25911 -0.747741 0
M  V30 2477 C 231.069 5.84538 -1.81609 0
M  V30 2478 N 230.206 6.90853 -1.25167 0
M  V30 2479 H 235.046 2.45066 -1.69548 0
M  V30 2480 H 232.583 1.20297 -0.846582 0
M  V30 2481 H 234.541 4.17101 0.0908026 0
M  V30 2482 H 233.171 3.16571 0.631072 0
M  V30 2483 H 232.223 3.36133 -1.78097 0
M  V30 2484 H 233.535 4.50601 -2.13917 0
M  V30 2485 H 232.689 6.056 -0.365216 0
M  V30 2486 H 231.428 4.87614 0.0915188 0
M  V30 2487 H 230.433 5.03522 -2.20785 0
M  V30 2488 H 231.658 6.249 -2.6585 0
M  V30 2489 H 229.604 6.54562 -0.434174 0
M  V30 2490 H 229.521 7.29166 -1.99633 0
M  V30 2491 H 230.789 7.7433 -0.896259 0
M  V30 2492 N 235.018 0.912232 1.28515 0
M  V30 2493 C 236.264 0.545405 1.95328 0
M  V30 2494 C 236.597 -0.908313 1.71649 0
M  V30 2495 O 235.872 -1.64575 1.03659 0
M  V30 2496 C 236.155 0.853483 3.4984 0
M  V30 2497 C 236.008 2.35982 3.82926 0
M  V30 2498 C 237.327 0.348589 4.38717 0
M  V30 2499 H 234.446 0.199626 0.709449 0
M  V30 2500 H 237.088 1.1412 1.5191 0
M  V30 2501 H 235.238 0.34643 3.86952 0
M  V30 2502 H 236.91 2.93738 3.55691 0
M  V30 2503 H 235.153 2.81543 3.30024 0
M  V30 2504 H 235.824 2.52593 4.90816 0
M  V30 2505 H 238.3 0.78294 4.08668 0
M  V30 2506 H 237.176 0.593242 5.45685 0
M  V30 2507 H 237.437 -0.751049 4.35674 0
M  V30 2508 N 236.496 -1.42363 0.676048 0
M  V30 2509 C 237.726 -2.05561 0.206967 0
M  V30 2510 C 238.134 -1.50887 -1.14148 0
M  V30 2511 O 237.477 -0.643933 -1.72044 0
M  V30 2512 C 237.539 -3.5944 0.0659508 0
M  V30 2513 C 237.203 -4.36812 1.34331 0
M  V30 2514 C 238.2 -4.67383 2.27704 0
M  V30 2515 C 235.885 -4.76429 1.59125 0
M  V30 2516 C 237.879 -5.36509 3.44147 0
M  V30 2517 C 235.566 -5.45294 2.75857 0
M  V30 2518 C 236.564 -5.75259 3.68193 0
M  V30 2519 O 236.252 -6.42712 4.82883 0
M  V30 2520 H 235.984 -0.668872 0.0979084 0
M  V30 2521 H 238.538 -1.83467 0.923531 0
M  V30 2522 H 236.768 -3.80197 -0.706204 0
M  V30 2523 H 238.457 -4.0427 -0.363418 0
M  V30 2524 H 239.223 -4.37275 2.09799 0
M  V30 2525 H 235.102 -4.52498 0.881258 0
M  V30 2526 H 238.646 -5.59814 4.16238 0
M  V30 2527 H 234.543 -5.7482 2.93688 0
M  V30 2528 H 235.311 -6.61204 4.82444 0
M  V30 2529 N 237.974 -0.419461 -1.51915 0
M  V30 2530 C 239.385 0.0477853 -1.86639 0
M  V30 2531 C 239.736 1.43531 -1.33766 0
M  V30 2532 O 238.861 2.05401 -0.68113 0
M  V30 2533 C 239.456 0.0934885 -3.38671 0
M  V30 2534 C 238.015 0.505097 -3.72996 0
M  V30 2535 C 237.162 -0.313792 -2.75519 0
M  V30 2536 H 240.113 -0.636088 -1.45395 0
M  V30 2537 H 240.134 0.906667 -3.6954 0
M  V30 2538 H 239.646 -0.916501 -3.77123 0
M  V30 2539 H 237.747 1.52135 -3.40126 0
M  V30 2540 H 237.86 0.242309 -4.78487 0
M  V30 2541 H 236.224 0.225363 -2.53701 0
M  V30 2542 H 237.007 -1.32232 -3.16812 0
M  V30 2543 N 239.452 1.56882 -0.150215 0
M  V30 2544 C 240.4 2.18214 0.805313 0
M  V30 2545 C 241.394 1.14006 1.25296 0
M  V30 2546 O 242.6 1.3225 1.22107 0
M  V30 2547 H 238.975 0.698762 0.277913 0
M  V30 2548 H 240.946 2.97231 0.263862 0
M  V30 2549 C 239.695 2.82065 2.03309 0
M  V30 2550 H 239.018 3.61968 1.69763 0
M  V30 2551 H 240.458 3.28477 2.68103 0
M  V30 2552 C 238.917 1.80739 2.84315 0
M  V30 2553 O 239.447 1.27983 3.80767 0
M  V30 2554 N 237.653 1.4997 2.48913 0
M  V30 2555 H 237.2 1.93062 1.70542 0
M  V30 2556 H 237.158 0.824217 3.03404 0
M  V30 2557 N 240.93 -0.123565 1.57115 0
M  V30 2558 C 242.346 -0.476961 1.52306 0
M  V30 2559 C 242.546 -1.82109 0.86248 0
M  V30 2560 O 241.602 -2.48586 0.442884 0
M  V30 2561 C 242.915 -0.465661 2.97073 0
M  V30 2562 C 244.463 -0.549534 3.08138 0
M  V30 2563 C 244.938 -0.568669 4.54456 0
M  V30 2564 N 246.429 -0.630237 4.58892 0
M  V30 2565 C 247.164 -0.666415 5.69514 0
M  V30 2566 N 246.66 -0.660514 6.89644 0
M  V30 2567 N 248.453 -0.709077 5.5761 0
M  V30 2568 H 240.604 0.757198 1.98445 0
M  V30 2569 H 242.867 0.278808 0.906074 0
M  V30 2570 H 242.573 0.454232 3.48754 0
M  V30 2571 H 242.447 -1.29513 3.54269 0
M  V30 2572 H 244.834 -1.45985 2.56461 0
M  V30 2573 H 244.915 0.307532 2.53945 0
M  V30 2574 H 244.559 0.337581 5.06777 0
M  V30 2575 H 244.489 -1.44256 5.06456 0
M  V30 2576 H 246.98 -0.641146 3.72421 0
M  V30 2577 H 247.293 -0.690616 7.69708 0
M  V30 2578 H 245.638 -0.628012 6.92157 0
M  V30 2579 H 248.829 -0.711019 4.62668 0
M  V30 2580 H 249.002 -0.733804 6.43832 0
M  V30 2581 N 242.408 -1.52605 -0.393616 0
M  V30 2582 C 243.824 -1.41753 -0.733357 0
M  V30 2583 C 244.024 -0.534293 -1.94287 0
M  V30 2584 O 243.08 -0.0059787 -2.52499 0
M  V30 2585 C 244.393 -2.84531 -0.972772 0
M  V30 2586 C 245.941 -2.93978 -1.07453 0
M  V30 2587 C 246.416 -4.37756 -1.3466 0
M  V30 2588 N 247.907 -4.4106 -1.41492 0
M  V30 2589 C 248.642 -5.49387 -1.642 0
M  V30 2590 N 248.138 -6.67806 -1.8441 0
M  V30 2591 N 249.931 -5.36923 -1.66342 0
M  V30 2592 H 242.082 -2.08555 0.402328 0
M  V30 2593 H 244.345 -0.940654 0.117789 0
M  V30 2594 H 244.051 -3.51353 -0.156204 0
M  V30 2595 H 243.925 -3.26508 -1.88871 0
M  V30 2596 H 246.312 -2.27326 -1.88167 0
M  V30 2597 H 246.393 -2.55435 -0.136605 0
M  V30 2598 H 246.037 -5.04972 -0.544581 0
M  V30 2599 H 245.967 -4.73848 -2.2973 0
M  V30 2600 H 248.458 -3.55705 -1.27601 0
M  V30 2601 H 248.771 -7.46141 -2.01231 0
M  V30 2602 H 247.116 -6.70843 -1.81644 0
M  V30 2603 H 250.307 -4.43381 -1.50102 0
M  V30 2604 H 250.48 -6.21416 -1.837 0
M  V30 2605 N 243.887 0.651787 -1.4349 0
M  V30 2606 C 245.135 1.40888 -1.44897 0
M  V30 2607 C 245.456 1.94856 -0.0749086 0
M  V30 2608 O 244.726 1.74518 0.889956 0
M  V30 2609 H 243.306 0.522887 -0.533478 0
M  V30 2610 H 245.968 0.768609 -1.79104 0
M  V30 2611 H 245.064 2.25052 -2.16236 0
M  V30 2612 N 245.365 1.30045 0.890287 0
M  V30 2613 C 246.613 1.18327 1.63839 0
M  V30 2614 C 246.934 -0.263455 1.93212 0
M  V30 2615 O 246.204 -1.17856 1.56482 0
M  V30 2616 H 244.784 0.434933 0.607324 0
M  V30 2617 H 247.446 1.631 1.06698 0
M  V30 2618 H 246.542 1.74024 2.59079 0
M  V30 2619 N 246.843 -1.10192 1.12674 0
M  V30 2620 C 248.091 -1.81845 0.881861 0
M  V30 2621 C 248.412 -1.85737 -0.593867 0
M  V30 2622 O 247.682 -1.33724 -1.4316 0
M  V30 2623 H 246.262 -0.673432 0.323261 0
M  V30 2624 H 248.924 -1.33316 1.42172 0
M  V30 2625 H 248.02 -2.85288 1.2656 0
M  V30 2626 N 248.321 -0.919034 -1.28029 0
M  V30 2627 C 249.549 -0.570971 -1.98866 0
M  V30 2628 C 249.964 0.848996 -1.68634 0
M  V30 2629 O 249.321 1.56307 -0.942036 0
M  V30 2630 C 249.372 -0.776876 -3.53054 0
M  V30 2631 O 249.093 -2.14097 -3.82222 0
M  V30 2632 C 250.594 -0.436356 -4.41147 0
M  V30 2633 H 247.814 -0.217175 -0.634883 0
M  V30 2634 H 250.358 -1.23368 -1.63097 0
M  V30 2635 H 248.513 -0.161085 -3.87065 0
M  V30 2636 H 248.927 -2.18455 -4.76841 0
M  V30 2637 H 250.401 -0.63117 -5.4838 0
M  V30 2638 H 250.878 0.627686 -4.34692 0
M  V30 2639 H 251.484 -1.02991 -4.12641 0
M  V30 2640 N 249.799 1.42003 -0.683588 0
M  V30 2641 C 251.21 1.84501 -0.285736 0
M  V30 2642 C 251.561 1.57213 1.17382 0
M  V30 2643 O 250.686 1.03642 1.89966 0
M  V30 2644 C 251.281 3.34912 -0.511821 0
M  V30 2645 C 249.84 3.76025 -0.168005 0
M  V30 2646 C 248.987 2.6551 -0.799983 0
M  V30 2647 H 251.938 1.31724 -0.885119 0
M  V30 2648 H 251.959 3.79784 0.233292 0
M  V30 2649 H 251.471 3.54741 -1.57418 0
M  V30 2650 H 249.572 3.61801 0.890567 0
M  V30 2651 H 249.685 4.75141 -0.614661 0
M  V30 2652 H 248.049 2.53654 -0.230568 0
M  V30 2653 H 248.832 2.8816 -1.86597 0
M  V30 2654 N 251.277 0.427512 1.51691 0
M  V30 2655 C 252.524 -0.142229 2.02 0
M  V30 2656 C 252.852 -1.43566 1.31221 0
M  V30 2657 O 252.107 -1.91298 0.412744 0
M  V30 2658 C 252.406 -0.418249 3.54944 0
M  V30 2659 C 252.072 0.788187 4.43958 0
M  V30 2660 C 250.734 1.11906 4.68007 0
M  V30 2661 C 253.086 1.59347 4.96244 0
M  V30 2662 C 250.414 2.25608 5.41588 0
M  V30 2663 C 252.766 2.7214 5.71072 0
M  V30 2664 C 251.43 3.05692 5.93387 0
M  V30 2665 H 250.7 -0.0520451 0.73917 0
M  V30 2666 H 253.347 0.572697 1.82736 0
M  V30 2667 H 251.652 -1.21496 3.72486 0
M  V30 2668 H 253.349 -0.872339 3.91397 0
M  V30 2669 H 249.939 0.520344 4.2543 0
M  V30 2670 H 254.123 1.35106 4.77556 0
M  V30 2671 H 249.379 2.51929 5.57083 0
M  V30 2672 H 253.553 3.34914 6.10578 0
M  V30 2673 H 251.18 3.9391 6.50184 0
M  V30 2674 N 252.755 -1.56801 0.158532 0
M  V30 2675 C 254.002 -1.9649 -0.489679 0
M  V30 2676 C 254.33 -1.04394 -1.6411 0
M  V30 2677 O 253.585 -0.0754401 -1.95555 0
M  V30 2678 C 253.884 -3.4235 -1.02623 0
M  V30 2679 C 253.55 -4.50899 0.00794526 0
M  V30 2680 C 252.212 -4.80312 0.292207 0
M  V30 2681 C 254.564 -5.16333 0.710584 0
M  V30 2682 C 251.892 -5.72461 1.28472 0
M  V30 2683 C 254.244 -6.09553 1.69199 0
M  V30 2684 C 252.908 -6.37339 1.98383 0
M  V30 2685 H 252.178 -0.719009 -0.179186 0
M  V30 2686 H 254.825 -1.8989 0.247798 0
M  V30 2687 H 253.13 -3.45838 -1.84128 0
M  V30 2688 H 254.827 -3.70393 -1.53656 0
M  V30 2689 H 251.417 -4.28015 -0.22379 0
M  V30 2690 H 255.601 -4.93732 0.504174 0
M  V30 2691 H 250.857 -5.92278 1.51714 0
M  V30 2692 H 255.031 -6.59327 2.24189 0
M  V30 2693 H 252.658 -7.08546 2.7544 0
M  V30 2694 N 254.233 0.115231 -1.57178 0
M  V30 2695 C 255.649 0.468877 -1.52557 0
M  V30 2696 C 255.849 1.81649 -0.872125 0
M  V30 2697 O 254.905 2.48347 -0.45606 0
M  V30 2698 C 256.218 0.4499 -2.97315 0
M  V30 2699 C 257.766 0.533185 -3.08425 0
M  V30 2700 C 258.241 0.54456 -4.54751 0
M  V30 2701 N 259.732 0.605892 -4.5922 0
M  V30 2702 C 260.467 0.636203 -5.6986 0
M  V30 2703 N 259.963 0.623931 -6.89985 0
M  V30 2704 N 261.756 0.679496 -5.57978 0
M  V30 2705 H 253.907 -0.767712 -1.9804 0
M  V30 2706 H 256.17 -0.283609 -0.904583 0
M  V30 2707 H 255.876 -0.472721 -3.48509 0
M  V30 2708 H 255.75 1.27632 -3.5495 0
M  V30 2709 H 258.137 1.44623 -2.57232 0
M  V30 2710 H 258.218 -0.320995 -2.53778 0
M  V30 2711 H 257.862 -0.364452 -5.06591 0
M  V30 2712 H 257.792 1.41568 -5.07214 0
M  V30 2713 H 260.283 0.621386 -3.72756 0
M  V30 2714 H 260.596 0.649787 -7.70063 0
M  V30 2715 H 258.941 0.591296 -6.9248 0
M  V30 2716 H 262.132 0.686472 -4.63039 0
M  V30 2717 H 262.305 0.69965 -6.44212 0
M  V30 2718 N 255.711 1.52812 0.385517 0
M  V30 2719 C 256.659 1.78482 1.49155 0
M  V30 2720 C 257.653 0.652914 1.56312 0
M  V30 2721 O 258.859 0.835464 1.59436 0
M  V30 2722 H 255.234 0.5648 0.496493 0
M  V30 2723 H 257.205 2.71095 1.24699 0
M  V30 2724 C 255.954 1.97378 2.86247 0
M  V30 2725 H 255.277 2.83907 2.81491 0
M  V30 2726 H 256.717 2.19327 3.62866 0
M  V30 2727 C 255.176 0.74728 3.28508 0
M  V30 2728 O 255.706 -0.0736232 4.01633 0
M  V30 2729 N 253.912 0.576396 2.84826 0
M  V30 2730 H 253.459 1.24555 2.25486 0
M  V30 2731 H 253.417 -0.24288 3.1346 0
M  V30 2732 N 257.189 -0.644168 1.43834 0
M  V30 2733 C 258.152 -1.73857 1.49353 0
M  V30 2734 C 259.152 -1.56315 0.377112 0
M  V30 2735 O 260.342 -1.62048 0.639226 0
M  V30 2736 C 257.474 -3.12819 1.35488 0
M  V30 2737 H 258.667 -1.70342 2.46827 0
M  V30 2738 H 256.22 -0.856652 1.30733 0
M  V30 2739 H 256.955 -3.2194 0.390569 0
M  V30 2740 H 256.74 -3.26958 2.16428 0
M  V30 2741 H 258.23 -3.92606 1.42302 0
M  V30 2742 N 258.668 -1.30515 -0.883378 0
M  V30 2743 C 259.578 -1.18959 -2.02203 0
M  V30 2744 C 260.594 -0.109172 -1.73657 0
M  V30 2745 O 261.77 -0.324413 -1.9877 0
M  V30 2746 C 258.835 -0.883871 -3.35244 0
M  V30 2747 C 257.896 -2.04982 -3.77201 0
M  V30 2748 C 257.129 -1.75859 -5.03894 0
M  V30 2749 O 257.352 -0.687276 -5.66244 0
M  V30 2750 O 256.286 -2.61146 -5.42297 0
M  V30 2751 H 260.112 -2.14616 -2.1488 0
M  V30 2752 H 257.697 -1.10124 -1.0096 0
M  V30 2753 H 259.579 -0.728644 -4.15053 0
M  V30 2754 H 258.254 0.0427798 -3.23672 0
M  V30 2755 H 257.161 -2.26038 -2.9809 0
M  V30 2756 H 258.494 -2.95825 -3.93381 0
M  V30 2757 N 260.146 1.09593 -1.13257 0
M  V30 2758 C 261.076 2.18214 -0.830946 0
M  V30 2759 C 262.057 1.68812 0.208966 0
M  V30 2760 O 263.242 1.9408 0.0682666 0
M  V30 2761 C 260.372 3.46051 -0.294296 0
M  V30 2762 C 259.326 4.08778 -1.26826 0
M  V30 2763 C 258.652 5.31419 -0.591449 0
M  V30 2764 C 259.952 4.51476 -2.62615 0
M  V30 2765 H 261.646 2.43703 -1.73923 0
M  V30 2766 H 259.192 1.17128 -0.837675 0
M  V30 2767 H 261.145 4.2134 -0.0709606 0
M  V30 2768 H 259.869 3.20079 0.649366 0
M  V30 2769 H 258.528 3.35505 -1.47756 0
M  V30 2770 H 258.176 5.01727 0.357633 0
M  V30 2771 H 257.876 5.74341 -1.24123 0
M  V30 2772 H 259.4 6.09433 -0.377355 0
M  V30 2773 H 260.814 5.17999 -2.45663 0
M  V30 2774 H 259.211 5.05277 -3.23752 0
M  V30 2775 H 260.281 3.63962 -3.20406 0
M  V30 2776 N 261.624 0.925811 1.2754 0
M  V30 2777 C 262.572 0.413897 2.28888 0
M  V30 2778 C 263.566 -0.500779 1.61829 0
M  V30 2779 O 264.772 -0.38069 1.75928 0
M  V30 2780 H 261.147 0.115274 0.743112 0
M  V30 2781 H 263.118 1.28151 2.69481 0
M  V30 2782 C 261.867 -0.319792 3.46226 0
M  V30 2783 H 261.19 0.374846 3.98039 0
M  V30 2784 H 262.63 -0.642435 4.19105 0
M  V30 2785 C 261.089 -1.53209 3.00048 0
M  V30 2786 O 261.619 -2.6309 3.03557 0
M  V30 2787 N 259.825 -1.38326 2.55566 0
M  V30 2788 H 259.372 -0.489292 2.5291 0
M  V30 2789 H 259.33 -2.19564 2.25031 0
M  V30 2790 N 263.102 -1.41638 0.69111 0
M  V30 2791 C 264.034 -2.29194 -0.0161523 0
M  V30 2792 C 265.047 -1.44549 -0.748955 0
M  V30 2793 O 266.236 -1.681 -0.6004 0
M  V30 2794 C 263.336 -3.22325 -1.0469 0
M  V30 2795 C 262.509 -4.35706 -0.384621 0
M  V30 2796 C 261.568 -5.09443 -1.31737 0
M  V30 2797 O 260.594 -5.63386 -0.811451 0
M  V30 2798 N 261.796 -5.16487 -2.64993 0
M  V30 2799 H 264.561 -2.90534 0.735523 0
M  V30 2800 H 262.122 -1.52742 0.53679 0
M  V30 2801 H 264.114 -3.68522 -1.67252 0
M  V30 2802 H 262.684 -2.62323 -1.70015 0
M  V30 2803 H 261.904 -3.91948 0.420804 0
M  V30 2804 H 263.192 -5.08743 0.0760765 0
M  V30 2805 H 262.59 -4.741 -3.08619 0
M  V30 2806 H 261.147 -5.66276 -3.22761 0
M  V30 2807 N 264.58 -0.43555 -1.51462 0
M  V30 2808 C 265.51 0.367376 -2.30592 0
M  V30 2809 C 266.491 1.02263 -1.35928 0
M  V30 2810 O 267.676 1.02661 -1.64847 0
M  V30 2811 C 264.806 1.46983 -3.14664 0
M  V30 2812 C 263.76 0.938161 -4.17591 0
M  V30 2813 C 263.086 2.13622 -4.90173 0
M  V30 2814 C 264.386 -0.0261621 -5.22293 0
M  V30 2815 H 266.08 -0.292969 -2.97963 0
M  V30 2816 H 263.626 -0.14234 -1.43295 0
M  V30 2817 H 265.579 2.03873 -3.688 0
M  V30 2818 H 264.303 2.15843 -2.4511 0
M  V30 2819 H 262.962 0.391481 -3.64504 0
M  V30 2820 H 262.61 2.81098 -4.17124 0
M  V30 2821 H 262.31 1.78688 -5.59772 0
M  V30 2822 H 263.834 2.7107 -5.47132 0
M  V30 2823 H 265.248 0.452384 -5.71512 0
M  V30 2824 H 263.645 -0.287992 -5.99409 0
M  V30 2825 H 264.715 -0.963391 -4.75233 0
M  V30 2826 N 266.058 1.56714 -0.166846 0
M  V30 2827 C 267.306 1.96358 0.478305 0
M  V30 2828 C 267.627 1.0537 1.6408 0
M  V30 2829 O 266.897 0.119154 1.95537 0
M  V30 2830 H 265.477 0.725065 0.179692 0
M  V30 2831 H 268.139 1.93329 -0.246985 0
M  V30 2832 H 267.235 3.00547 0.841292 0
M  V30 2833 N 267.536 -0.106894 1.57237 0
M  V30 2834 C 268.785 -0.811163 1.8467 0
M  V30 2835 C 269.098 -1.80469 0.754342 0
M  V30 2836 O 270.304 -2.55601 0.915439 0
M  V30 2837 C 268.76 -1.49337 3.27454 0
M  V30 2838 C 268.368 -0.540217 4.44731 0
M  V30 2839 C 270.112 -2.18206 3.64124 0
M  V30 2840 C 268.019 -1.22634 5.78545 0
M  V30 2841 H 266.949 -0.306679 0.688813 0
M  V30 2842 H 269.6 -0.0639887 1.83388 0
M  V30 2843 H 267.982 -2.2876 3.23241 0
M  V30 2844 H 269.156 0.221659 4.60267 0
M  V30 2845 H 267.471 0.042146 4.16379 0
M  V30 2846 H 270.068 -2.70253 4.61376 0
M  V30 2847 H 270.411 -2.96562 2.92158 0
M  V30 2848 H 270.944 -1.45658 3.70174 0
M  V30 2849 H 267.683 -0.483832 6.53712 0
M  V30 2850 H 267.203 -1.95993 5.66874 0
M  V30 2851 H 268.882 -1.75615 6.2271 0
M  V30 2852 N 269.014 -1.53014 -0.377408 0
M  V30 2853 C 270.425 -1.60438 -0.954798 0
M  V30 2854 C 270.776 -0.464418 -1.90624 0
M  V30 2855 O 269.901 0.41087 -2.12464 0
M  V30 2856 C 270.496 -2.90797 -1.73847 0
M  V30 2857 C 269.055 -3.00595 -2.26538 0
M  V30 2858 C 268.202 -2.55645 -1.07429 0
M  V30 2859 H 271.153 -1.57926 -0.156575 0
M  V30 2860 H 271.174 -2.77935 -2.5987 0
M  V30 2861 H 270.686 -3.73746 -1.04574 0
M  V30 2862 H 268.787 -2.22208 -2.99089 0
M  V30 2863 H 268.9 -4.05456 -2.5523 0
M  V30 2864 H 267.264 -2.10239 -1.43777 0
M  V30 2865 H 268.047 -3.41 -0.396728 0
M  V30 2866 N 270.492 0.636531 -1.44174 0
M  V30 2867 C 271.738 1.39826 -1.4689 0
M  V30 2868 C 272.071 1.93947 -0.0990585 0
M  V30 2869 O 271.346 1.73325 0.882544 0
M  V30 2870 C 271.629 2.56751 -2.5249 0
M  V30 2871 C 271.482 2.08014 -3.98811 0
M  V30 2872 C 272.801 3.58946 -2.54649 0
M  V30 2873 H 269.92 0.507075 -0.53483 0
M  V30 2874 H 272.562 0.720188 -1.75822 0
M  V30 2875 H 270.712 3.14597 -2.2795 0
M  V30 2876 H 272.384 1.5504 -4.34466 0
M  V30 2877 H 270.627 1.39242 -4.10846 0
M  V30 2878 H 271.298 2.92169 -4.68339 0
M  V30 2879 H 273.774 3.1089 -2.76563 0
M  V30 2880 H 272.65 4.38286 -3.3045 0
M  V30 2881 H 272.911 4.12655 -1.58646 0
M  V30 2882 N 271.97 1.30982 0.876444 0
M  V30 2883 C 273.219 1.19658 1.62373 0
M  V30 2884 C 273.532 -0.245636 1.94052 0
M  V30 2885 O 274.738 -0.48049 2.67214 0
M  V30 2886 C 273.194 2.09433 2.92687 0
M  V30 2887 C 272.802 3.58613 2.68516 0
M  V30 2888 C 274.546 2.06893 3.70669 0
M  V30 2889 C 272.453 4.40416 3.94699 0
M  V30 2890 H 271.383 0.444268 0.609214 0
M  V30 2891 H 274.034 1.55791 0.969605 0
M  V30 2892 H 272.416 1.66191 3.59439 0
M  V30 2893 H 273.59 4.10058 2.10212 0
M  V30 2894 H 271.905 3.63063 2.03898 0
M  V30 2895 H 274.502 2.65258 4.64265 0
M  V30 2896 H 274.845 1.05448 4.02724 0
M  V30 2897 H 275.378 2.48301 3.10792 0
M  V30 2898 H 272.117 5.42591 3.67798 0
M  V30 2899 H 271.637 3.93731 4.52477 0
M  V30 2900 H 273.316 4.52294 4.62644 0
M  V30 2901 N 273.449 -1.08991 1.13837 0
M  V30 2902 C 274.695 -1.81526 0.90422 0
M  V30 2903 C 275.028 -1.85706 -0.568066 0
M  V30 2904 O 274.303 -1.32855 -1.42056 0
M  V30 2905 C 274.586 -3.27447 1.49835 0
M  V30 2906 C 274.439 -3.31512 3.04006 0
M  V30 2907 C 275.758 -4.24256 1.17025 0
M  V30 2908 H 272.877 -0.659029 0.329923 0
M  V30 2909 H 275.519 -1.27644 1.40737 0
M  V30 2910 H 273.669 -3.73462 1.07044 0
M  V30 2911 H 275.341 -2.93867 3.55584 0
M  V30 2912 H 273.584 -2.70963 3.38765 0
M  V30 2913 H 274.255 -4.34329 3.40679 0
M  V30 2914 H 276.731 -3.86549 1.54009 0
M  V30 2915 H 275.607 -5.24684 1.61237 0
M  V30 2916 H 275.868 -4.42019 0.0846274 0
M  V30 2917 N 274.927 -0.932562 -1.27047 0
M  V30 2918 C 276.175 -0.574422 -1.93765 0
M  V30 2919 C 276.496 0.887993 -1.73608 0
M  V30 2920 O 275.766 1.62999 -1.08665 0
M  V30 2921 H 274.346 -0.209451 -0.717035 0
M  V30 2922 H 277.008 -1.18601 -1.5466 0
M  V30 2923 H 276.104 -0.784841 -3.02071 0
M  V30 2924 N 276.405 1.4127 -0.698611 0
M  V30 2925 C 277.654 2.00408 -0.227949 0
M  V30 2926 C 277.967 1.55981 1.18023 0
M  V30 2927 O 279.173 2.07699 1.74852 0
M  V30 2928 C 277.629 3.58129 -0.356636 0
M  V30 2929 C 277.237 4.11536 -1.77037 0
M  V30 2930 C 278.981 4.24466 0.0540969 0
M  V30 2931 C 276.888 5.61701 -1.85055 0
M  V30 2932 H 275.818 0.749586 -0.0814657 0
M  V30 2933 H 278.469 1.61713 -0.867249 0
M  V30 2934 H 276.851 3.94442 0.350965 0
M  V30 2935 H 278.025 3.86636 -2.50698 0
M  V30 2936 H 276.34 3.57736 -2.13105 0
M  V30 2937 H 278.937 5.34698 0.0146723 0
M  V30 2938 H 279.28 4.01687 1.09332 0
M  V30 2939 H 279.813 3.93198 -0.603337 0
M  V30 2940 H 276.552 5.89312 -2.8704 0
M  V30 2941 H 276.072 5.88519 -1.15783 0
M  V30 2942 H 277.751 6.26524 -1.61484 0
M  V30 2943 N 277.883 0.443576 1.51229 0
M  V30 2944 C 279.113 -0.119117 2.06256 0
M  V30 2945 C 279.521 -1.36471 1.31043 0
M  V30 2946 O 278.864 -1.80034 0.365151 0
M  V30 2947 C 278.926 -0.500546 3.55998 0
M  V30 2948 C 278.59 0.639125 4.52509 0
M  V30 2949 C 279.587 1.51311 4.97394 0
M  V30 2950 C 277.272 0.821632 4.95535 0
M  V30 2951 C 279.266 2.55425 5.83984 0
M  V30 2952 C 276.953 1.86603 5.81913 0
M  V30 2953 C 277.951 2.73072 6.26036 0
M  V30 2954 O 277.639 3.75718 7.10698 0
M  V30 2955 H 277.371 -0.00857665 0.675946 0
M  V30 2956 H 279.925 0.623288 1.95715 0
M  V30 2957 H 278.155 -1.29575 3.64345 0
M  V30 2958 H 279.844 -0.995116 3.93513 0
M  V30 2959 H 280.61 1.38367 4.64844 0
M  V30 2960 H 276.489 0.158149 4.60729 0
M  V30 2961 H 280.033 3.22949 6.18344 0
M  V30 2962 H 275.93 1.99564 6.13876 0
M  V30 2963 H 276.698 3.72374 7.2889 0
M  V30 2964 N 279.361 -1.56624 0.175154 0
M  V30 2965 C 280.609 -1.96609 -0.467885 0
M  V30 2966 C 280.93 -1.06238 -1.63519 0
M  V30 2967 O 280.2 -0.129523 -1.95471 0
M  V30 2968 H 278.78 -0.726008 -0.175845 0
M  V30 2969 H 281.442 -1.93195 0.257234 0
M  V30 2970 H 280.538 -3.00989 -0.825342 0
M  V30 2971 N 280.839 0.0985539 -1.57292 0
M  V30 2972 C 282.067 0.816318 -1.90115 0
M  V30 2973 C 282.482 1.72451 -0.768509 0
M  V30 2974 O 281.839 1.80643 0.259687 0
M  V30 2975 C 281.89 1.63259 -3.22535 0
M  V30 2976 O 281.611 0.760934 -4.31441 0
M  V30 2977 C 283.112 2.45372 -3.69199 0
M  V30 2978 H 280.332 0.233595 -0.629027 0
M  V30 2979 H 282.876 0.0768229 -2.04356 0
M  V30 2980 H 281.031 2.32463 -3.09903 0
M  V30 2981 H 281.445 1.32595 -5.07463 0
M  V30 2982 H 282.919 2.98144 -4.64558 0
M  V30 2983 H 283.396 3.23677 -2.96867 0
M  V30 2984 H 284.002 1.81373 -3.84687 0
M  V30 2985 N 282.317 1.53212 0.369288 0
M  V30 2986 C 283.265 1.80054 1.47253 0
M  V30 2987 C 284.259 0.669456 1.55611 0
M  V30 2988 O 285.465 0.852328 1.58541 0
M  V30 2989 H 281.84 0.570034 0.490475 0
M  V30 2990 H 283.811 2.72403 1.21817 0
M  V30 2991 C 282.56 2.00403 2.84137 0
M  V30 2992 H 281.883 2.86876 2.78464 0
M  V30 2993 H 283.323 2.23164 3.60519 0
M  V30 2994 C 281.782 0.782081 3.27697 0
M  V30 2995 O 282.312 -0.0310205 4.01688 0
M  V30 2996 N 280.518 0.606573 2.84199 0
M  V30 2997 H 280.065 1.26939 2.24152 0
M  V30 2998 H 280.023 -0.20962 3.137 0
M  V30 2999 N 283.795 -0.628877 1.44509 0
M  V30 3000 C 285.206 -1.21054 1.42137 0
M  V30 3001 C 285.557 -1.95715 0.137881 0
M  V30 3002 O 284.682 -2.02554 -0.761645 0
M  V30 3003 C 285.277 -2.20189 2.57493 0
M  V30 3004 C 283.836 -2.73777 2.58308 0
M  V30 3005 C 282.983 -1.48813 2.33987 0
M  V30 3006 H 285.934 -0.41942 1.53057 0
M  V30 3007 H 285.955 -3.02833 2.30375 0
M  V30 3008 H 285.467 -1.6582 3.50892 0
M  V30 3009 H 283.568 -3.32142 1.68856 0
M  V30 3010 H 283.681 -3.19662 3.56865 0
M  V30 3011 H 282.045 -1.77024 1.83124 0
M  V30 3012 H 282.828 -0.963442 3.29504 0
M  V30 3013 N 285.273 -1.31445 -0.869486 0
M  V30 3014 C 286.236 -1.19094 -1.9583 0
M  V30 3015 C 287.236 -0.117906 -1.60367 0
M  V30 3016 O 288.426 -0.367208 -1.70286 0
M  V30 3017 C 285.558 -0.828165 -3.30688 0
M  V30 3018 H 286.751 -2.15842 -2.08212 0
M  V30 3019 H 284.304 -1.15063 -1.05784 0
M  V30 3020 H 285.039 0.138142 -3.24006 0
M  V30 3021 H 284.824 -1.6038 -3.578 0
M  V30 3022 H 286.314 -0.765658 -4.10521 0
M  V30 3023 N 286.751 1.08385 -1.14413 0
M  V30 3024 C 287.999 1.80419 -0.910679 0
M  V30 3025 C 288.32 1.86658 0.564243 0
M  V30 3026 O 287.59 1.35985 1.41014 0
M  V30 3027 H 286.17 0.668204 -0.333934 0
M  V30 3028 H 288.832 1.31037 -1.44275 0
M  V30 3029 H 287.928 2.83238 -1.31082 0
M  V30 3030 N 288.23 0.939286 1.26551 0
M  V30 3031 C 289.478 0.58469 1.93457 0
M  V30 3032 C 289.799 -0.878774 1.74076 0
M  V30 3033 O 289.069 -1.62421 1.09528 0
M  V30 3034 H 287.649 0.21325 0.715914 0
M  V30 3035 H 290.311 1.1942 1.54029 0
M  V30 3036 H 289.407 0.800849 3.0165 0
M  V30 3037 N 289.708 -1.40897 0.706093 0
M  V30 3038 C 290.956 -2.00657 0.241054 0
M  V30 3039 C 291.277 -1.56241 -1.16678 0
M  V30 3040 O 290.547 -0.79765 -1.78926 0
M  V30 3041 H 289.127 -0.742018 0.0861308 0
M  V30 3042 H 291.789 -1.72372 0.909604 0
M  V30 3043 H 290.885 -3.10958 0.266705 0
M  V30 3044 N 291.186 -0.45159 -1.50991 0
M  V30 3045 C 292.416 0.108177 -2.06317 0
M  V30 3046 C 292.824 1.35774 -1.31765 0
M  V30 3047 O 292.167 1.79838 -0.374694 0
M  V30 3048 C 292.229 0.481659 -3.56259 0
M  V30 3049 C 291.893 -0.663114 -4.52163 0
M  V30 3050 C 292.89 -1.53947 -4.96585 0
M  V30 3051 C 290.575 -0.8479 -4.95092 0
M  V30 3052 C 292.569 -2.58518 -5.82621 0
M  V30 3053 C 290.256 -1.89686 -5.80915 0
M  V30 3054 C 291.254 -2.76388 -6.24579 0
M  V30 3055 O 290.942 -3.79482 -7.08695 0
M  V30 3056 H 290.674 0.00499183 -0.675982 0
M  V30 3057 H 293.228 -0.633659 -1.95381 0
M  V30 3058 H 291.458 1.27641 -3.65027 0
M  V30 3059 H 293.147 0.974233 -3.94035 0
M  V30 3060 H 293.913 -1.4083 -4.64103 0
M  V30 3061 H 289.792 -0.18258 -4.60638 0
M  V30 3062 H 293.336 -3.26224 -6.16623 0
M  V30 3063 H 289.233 -2.02817 -6.12809 0
M  V30 3064 H 290.001 -3.76234 -7.26905 0
M  V30 3065 N 292.664 1.56529 -0.183458 0
M  V30 3066 C 293.614 2.1515 0.754605 0
M  V30 3067 C 294.598 1.08904 1.18443 0
M  V30 3068 O 295.79 1.34997 1.14476 0
M  V30 3069 C 292.919 2.80531 1.97881 0
M  V30 3070 C 292.005 3.93952 1.57043 0
M  V30 3071 N 292.396 4.98221 0.87231 0
M  V30 3072 C 290.694 4.05338 1.86057 0
M  V30 3073 C 291.395 5.77836 0.669377 0
M  V30 3074 N 290.371 5.29858 1.21454 0
M  V30 3075 H 294.173 2.93132 0.212387 0
M  V30 3076 H 291.687 1.62391 0.0167725 0
M  V30 3077 H 293.684 3.20914 2.6612 0
M  V30 3078 H 292.344 2.04035 2.52586 0
M  V30 3079 H 293.355 5.15191 0.529033 0
M  V30 3080 H 290.032 3.39957 2.42354 0
M  V30 3081 H 291.422 6.71799 0.116422 0
M  V30 3082 N 294.142 -0.090211 1.57342 0
M  V30 3083 C 295.367 -0.810082 1.90925 0
M  V30 3084 C 295.792 -1.71248 0.778187 0
M  V30 3085 O 295.15 -1.79278 -0.269991 0
M  V30 3086 C 295.198 -1.59529 3.23393 0
M  V30 3087 O 294.302 -2.70461 3.11327 0
M  V30 3088 H 293.643 -0.222231 0.625707 0
M  V30 3089 H 296.173 -0.0639716 2.045 0
M  V30 3090 H 296.183 -1.97847 3.5682 0
M  V30 3091 H 294.858 -0.933055 4.05299 0
M  V30 3092 H 293.435 -2.35135 2.89423 0
M  V30 3093 N 295.62 -1.53406 -0.361157 0
M  V30 3094 C 296.869 -1.69022 -1.10066 0
M  V30 3095 C 297.182 -0.450838 -1.90333 0
M  V30 3096 O 298.388 -0.487617 -2.67085 0
M  V30 3097 C 296.844 -2.98812 -2.00598 0
M  V30 3098 C 296.452 -4.30027 -1.25621 0
M  V30 3099 C 298.196 -3.23795 -2.74513 0
M  V30 3100 C 296.103 -5.50903 -2.1508 0
M  V30 3101 H 295.033 -0.629776 -0.414606 0
M  V30 3102 H 297.684 -1.79907 -0.361348 0
M  V30 3103 H 296.066 -2.8174 -2.78278 0
M  V30 3104 H 297.24 -4.57745 -0.529739 0
M  V30 3105 H 295.555 -4.11522 -0.635496 0
M  V30 3106 H 298.152 -4.11289 -3.41681 0
M  V30 3107 H 298.495 -2.40045 -3.40123 0
M  V30 3108 H 299.028 -3.41561 -2.03914 0
M  V30 3109 H 295.767 -6.37143 -1.54041 0
M  V30 3110 H 295.287 -5.27459 -2.85565 0
M  V30 3111 H 296.966 -5.85865 -2.74538 0
M  V30 3112 N 297.098 0.621204 -1.44841 0
M  V30 3113 C 298.323 1.41244 -1.51871 0
M  V30 3114 C 298.748 1.87519 -0.147764 0
M  V30 3115 O 298.106 1.59334 0.865 0
M  V30 3116 C 298.154 2.60221 -2.49634 0
M  V30 3117 O 297.258 3.60395 -2.00473 0
M  V30 3118 H 296.599 0.42223 -0.512463 0
M  V30 3119 H 299.129 0.757305 -1.90069 0
M  V30 3120 H 299.139 3.0764 -2.67996 0
M  V30 3121 H 297.814 2.25887 -3.4921 0
M  V30 3122 H 296.391 3.19717 -1.91925 0
M  V30 3123 N 298.576 1.31904 0.862503 0
M  V30 3124 C 299.987 1.19803 1.43193 0
M  V30 3125 C 300.338 -0.192567 1.95253 0
M  V30 3126 O 299.463 -1.09081 1.86896 0
M  V30 3127 C 300.058 2.16883 2.60283 0
M  V30 3128 C 298.617 2.08692 3.13248 0
M  V30 3129 C 297.764 2.05691 1.85975 0
M  V30 3130 H 300.715 1.43846 0.670365 0
M  V30 3131 H 300.736 1.76278 3.37204 0
M  V30 3132 H 300.248 3.18083 2.22363 0
M  V30 3133 H 298.349 1.10713 3.55771 0
M  V30 3134 H 298.462 2.9815 3.75025 0
M  V30 3135 H 296.826 1.50814 2.05249 0
M  V30 3136 H 297.609 3.08659 1.50282 0
M  V30 3137 N 300.054 -1.07777 1.14986 0
M  V30 3138 C 301.282 -1.84018 0.945773 0
M  V30 3139 C 301.697 -1.81897 -0.505863 0
M  V30 3140 O 301.054 -1.22726 -1.35072 0
M  V30 3141 C 301.105 -3.31287 1.44677 0
M  V30 3142 O 300.826 -3.33449 2.84154 0
M  V30 3143 C 302.327 -4.24311 1.28355 0
M  V30 3144 H 299.547 -0.580716 0.336169 0
M  V30 3145 H 302.091 -1.36077 1.52654 0
M  V30 3146 H 300.246 -3.76594 0.908625 0
M  V30 3147 H 300.66 -4.25427 3.06777 0
M  V30 3148 H 302.134 -5.2573 1.68261 0
M  V30 3149 H 302.611 -4.38612 0.227184 0
M  V30 3150 H 303.217 -3.84836 1.81056 0
M  V30 3151 N 301.532 -0.945985 -1.26051 0
M  V30 3152 C 302.778 -0.597002 -1.93814 0
M  V30 3153 C 303.111 0.862484 -1.73997 0
M  V30 3154 O 302.386 1.61769 -1.07986 0
M  V30 3155 C 302.669 -0.945937 -3.47454 0
M  V30 3156 C 302.522 -2.46052 -3.76535 0
M  V30 3157 C 303.841 -0.464785 -4.37639 0
M  V30 3158 H 300.96 -0.218366 -0.703907 0
M  V30 3159 H 303.602 -1.18107 -1.48831 0
M  V30 3160 H 301.752 -0.448902 -3.85898 0
M  V30 3161 H 303.424 -3.03065 -3.47778 0
M  V30 3162 H 301.667 -2.90194 -3.22444 0
M  V30 3163 H 302.338 -2.65517 -4.83947 0
M  V30 3164 H 304.814 -0.891016 -4.06448 0
M  V30 3165 H 303.69 -0.737712 -5.4392 0
M  V30 3166 H 303.951 0.635274 -4.37512 0
M  V30 3167 N 303.011 1.40521 -0.713556 0
M  V30 3168 C 304.26 2.00155 -0.249192 0
M  V30 3169 C 304.573 1.57224 1.16362 0
M  V30 3170 O 305.779 2.09542 1.72639 0
M  V30 3171 C 304.235 3.5773 -0.3946 0
M  V30 3172 C 303.843 4.09635 -1.81392 0
M  V30 3173 C 305.587 4.24499 0.00907364 0
M  V30 3174 C 303.494 5.59707 -1.91003 0
M  V30 3175 H 302.424 0.74868 -0.0894114 0
M  V30 3176 H 305.075 1.60784 -0.884352 0
M  V30 3177 H 303.457 3.94792 0.30911 0
M  V30 3178 H 304.631 3.83955 -2.54785 0
M  V30 3179 H 302.946 3.55456 -2.16888 0
M  V30 3180 H 305.543 5.34683 -0.0420404 0
M  V30 3181 H 305.886 4.02824 1.05065 0
M  V30 3182 H 306.419 3.92536 -0.645007 0
M  V30 3183 H 303.158 5.86234 -2.93275 0
M  V30 3184 H 302.678 5.87258 -1.22019 0
M  V30 3185 H 304.357 6.24776 -1.6812 0
M  V30 3186 N 304.489 0.459591 1.5075 0
M  V30 3187 C 305.738 -0.100971 2.01447 0
M  V30 3188 C 306.051 -1.41816 1.34713 0
M  V30 3189 O 307.257 -2.06299 1.76502 0
M  V30 3190 C 305.713 -0.23047 3.59161 0
M  V30 3191 C 305.321 1.0776 4.34847 0
M  V30 3192 C 307.065 -0.743608 4.17936 0
M  V30 3193 C 304.972 0.91253 5.84317 0
M  V30 3194 H 303.902 -0.0415102 0.752856 0
M  V30 3195 H 306.553 0.592742 1.73663 0
M  V30 3196 H 304.935 -0.987703 3.83485 0
M  V30 3197 H 306.109 1.8449 4.22256 0
M  V30 3198 H 304.424 1.52097 3.87628 0
M  V30 3199 H 307.021 -0.883959 5.27343 0
M  V30 3200 H 307.364 -1.73196 3.78562 0
M  V30 3201 H 307.897 -0.04408 3.97776 0
M  V30 3202 H 304.636 1.87391 6.28144 0
M  V30 3203 H 304.156 0.185422 5.99513 0
M  V30 3204 H 305.835 0.574547 6.44444 0
M  V30 3205 N 305.967 -1.56429 0.191757 0
M  V30 3206 C 306.93 -2.17707 -0.716688 0
M  V30 3207 C 307.93 -1.13061 -1.14341 0
M  V30 3208 O 309.12 -1.38464 -1.05704 0
M  V30 3209 C 306.252 -2.77644 -1.97804 0
M  V30 3210 H 307.445 -2.99342 -0.1829 0
M  V30 3211 H 304.998 -1.56193 -0.0578566 0
M  V30 3212 H 305.733 -1.99799 -2.55443 0
M  V30 3213 H 305.518 -3.54246 -1.68083 0
M  V30 3214 H 307.008 -3.24708 -2.62592 0
M  V30 3215 N 307.445 0.0818655 -1.57387 0
M  V30 3216 C 308.395 1.10501 -1.99433 0
M  V30 3217 C 309.379 1.35041 -0.874798 0
M  V30 3218 O 310.571 1.35511 -1.13868 0
M  V30 3219 C 307.7 2.42159 -2.43339 0
M  V30 3220 C 306.786 2.20937 -3.62005 0
M  V30 3221 N 307.177 1.69616 -4.76512 0
M  V30 3222 C 305.475 2.51451 -3.68359 0
M  V30 3223 C 306.176 1.62973 -5.58404 0
M  V30 3224 N 305.152 2.08664 -5.01956 0
M  V30 3225 H 308.954 0.701373 -2.85408 0
M  V30 3226 H 306.468 0.289096 -1.59806 0
M  V30 3227 H 308.465 3.16208 -2.71695 0
M  V30 3228 H 307.125 2.83249 -1.58746 0
M  V30 3229 H 308.136 1.38624 -4.99003 0
M  V30 3230 H 304.813 2.95975 -2.94457 0
M  V30 3231 H 306.203 1.24233 -6.60315 0
M  V30 3232 N 308.923 1.53595 0.353017 0
M  V30 3233 C 309.833 1.83897 1.45667 0
M  V30 3234 C 310.849 0.728334 1.58023 0
M  V30 3235 O 312.025 1.01968 1.73679 0
M  V30 3236 C 309.09 2.03383 2.80778 0
M  V30 3237 C 308.151 3.27262 2.77845 0
M  V30 3238 C 307.384 3.45809 4.06512 0
M  V30 3239 O 307.607 2.68387 5.03314 0
M  V30 3240 O 306.541 4.39207 4.11559 0
M  V30 3241 H 310.367 2.77686 1.2298 0
M  V30 3242 H 307.952 1.39132 0.544308 0
M  V30 3243 H 309.834 2.17698 3.60812 0
M  V30 3244 H 308.509 1.12783 3.03417 0
M  V30 3245 H 307.416 3.18359 1.96465 0
M  V30 3246 H 308.749 4.17824 2.60161 0
M  V30 3247 N 310.401 -0.613514 1.45168 0
M  V30 3248 C 311.348 -1.72456 1.53387 0
M  V30 3249 C 312.318 -1.6169 0.380191 0
M  V30 3250 O 313.503 -1.81356 0.592836 0
M  V30 3251 C 310.643 -3.10753 1.50088 0
M  V30 3252 C 309.756 -3.32368 2.75963 0
M  V30 3253 C 308.891 -4.60737 2.64376 0
M  V30 3254 C 307.93 -4.7559 3.85332 0
M  V30 3255 N 307.067 -5.95253 3.72315 0
M  V30 3256 H 311.907 -1.64768 2.48305 0
M  V30 3257 H 309.444 -0.803503 1.23216 0
M  V30 3258 H 311.402 -3.90758 1.46164 0
M  V30 3259 H 310.032 -3.17413 0.587243 0
M  V30 3260 H 309.084 -2.4618 2.89999 0
M  V30 3261 H 310.396 -3.39218 3.65695 0
M  V30 3262 H 309.55 -5.48928 2.58385 0
M  V30 3263 H 308.289 -4.56275 1.72233 0
M  V30 3264 H 307.294 -3.85824 3.91688 0
M  V30 3265 H 308.519 -4.81854 4.78533 0
M  V30 3266 H 306.465 -5.91847 2.82937 0
M  V30 3267 H 306.382 -6.03236 4.55677 0
M  V30 3268 H 307.65 -6.85958 3.70246 0
M  V30 3269 N 311.879 -1.3236 -0.855495 0
M  V30 3270 C 312.842 -1.21164 -1.94556 0
M  V30 3271 C 313.842 -0.134908 -1.60233 0
M  V30 3272 O 315.032 -0.385249 -1.69887 0
M  V30 3273 C 312.164 -0.863192 -3.29791 0
M  V30 3274 H 313.357 -2.18038 -2.05911 0
M  V30 3275 H 310.91 -1.16179 -1.04557 0
M  V30 3276 H 311.645 0.103769 -3.24134 0
M  V30 3277 H 311.43 -1.64166 -3.56078 0
M  V30 3278 H 312.92 -0.809156 -4.09686 0
M  V30 3279 N 313.357 1.07166 -1.15556 0
M  V30 3280 C 314.305 2.16517 -0.8499 0
M  V30 3281 C 315.299 1.68468 0.177454 0
M  V30 3282 O 316.505 1.79971 0.0323026 0
M  V30 3283 H 312.88 0.706652 -0.25719 0
M  V30 3284 H 314.851 2.39514 -1.77976 0
M  V30 3285 C 313.6 3.45855 -0.357682 0
M  V30 3286 H 312.923 3.83214 -1.13961 0
M  V30 3287 H 314.363 4.23607 -0.182489 0
M  V30 3288 C 312.822 3.24062 0.921152 0
M  V30 3289 O 313.352 3.48813 1.9923 0
M  V30 3290 N 311.558 2.77539 0.86141 0
M  V30 3291 H 311.105 2.57598 -0.0104408 0
M  V30 3292 H 311.063 2.63337 1.71758 0
M  V30 3293 N 314.835 0.952656 1.25548 0
M  V30 3294 C 315.768 0.415525 2.24385 0
M  V30 3295 C 316.746 -0.502046 1.54655 0
M  V30 3296 O 317.93 -0.436875 1.83368 0
M  V30 3297 C 315.057 -0.401734 3.36309 0
M  V30 3298 C 314.103 0.455949 4.24056 0
M  V30 3299 S 314.936 1.88698 5.01152 0
M  V30 3300 C 316.092 1.07809 6.16545 0
M  V30 3301 H 316.325 1.25315 2.69599 0
M  V30 3302 H 313.858 0.756587 1.34592 0
M  V30 3303 H 315.816 -0.867329 4.01233 0
M  V30 3304 H 314.477 -1.21416 2.89684 0
M  V30 3305 H 313.67 -0.170776 5.03711 0
M  V30 3306 H 313.272 0.856675 3.64056 0
M  V30 3307 H 315.564 0.325816 6.76716 0
M  V30 3308 H 316.507 1.84849 6.83547 0
M  V30 3309 H 316.915 0.60909 5.61204 0
M  V30 3310 N 316.313 -1.40141 0.720998 0
M  V30 3311 C 317.276 -2.29058 0.0805834 0
M  V30 3312 C 318.276 -1.45632 -0.681758 0
M  V30 3313 O 319.466 -1.6648 -0.512856 0
M  V30 3314 C 316.598 -3.28925 -0.895593 0
M  V30 3315 H 317.791 -2.87191 0.863793 0
M  V30 3316 H 315.344 -1.48553 0.485975 0
M  V30 3317 H 316.079 -2.75822 -1.70566 0
M  V30 3318 H 315.864 -3.90519 -0.351766 0
M  V30 3319 H 317.354 -3.95494 -1.34069 0
M  V30 3320 N 317.792 -0.46758 -1.50504 0
M  V30 3321 C 319.038 0.0887532 -2.02606 0
M  V30 3322 C 319.371 1.39686 -1.34913 0
M  V30 3323 O 318.646 1.88644 -0.473694 0
M  V30 3324 C 318.929 0.276206 -3.59039 0
M  V30 3325 C 318.782 -1.05267 -4.37309 0
M  V30 3326 C 320.101 1.03235 -4.27821 0
M  V30 3327 H 317.22 0.0307814 -0.736357 0
M  V30 3328 H 319.862 -0.612485 -1.79857 0
M  V30 3329 H 318.012 0.8735 -3.78553 0
M  V30 3330 H 319.684 -1.68628 -4.29374 0
M  V30 3331 H 317.927 -1.65015 -4.01189 0
M  V30 3332 H 318.598 -0.875197 -5.45018 0
M  V30 3333 H 321.074 0.526111 -4.12761 0
M  V30 3334 H 319.95 1.1323 -5.37094 0
M  V30 3335 H 320.211 2.06806 -3.90748 0
M  V30 3336 N 319.27 1.56325 -0.20005 0
M  V30 3337 C 320.518 1.97329 0.436547 0
M  V30 3338 C 320.839 1.08826 1.61808 0
M  V30 3339 O 320.109 0.160604 1.95241 0
M  V30 3340 H 318.689 0.728714 0.164272 0
M  V30 3341 H 321.351 1.92761 -0.287937 0
M  V30 3342 H 320.447 3.02264 0.777353 0
M  V30 3343 N 320.748 -0.0735177 1.57428 0
M  V30 3344 C 321.996 -0.771472 1.86796 0
M  V30 3345 C 322.317 -1.78201 0.791804 0
M  V30 3346 O 321.587 -1.95074 -0.179718 0
M  V30 3347 H 320.167 -0.28791 0.689287 0
M  V30 3348 H 322.829 -0.0500161 1.94836 0
M  V30 3349 H 321.925 -1.28874 2.8425 0
M  V30 3350 N 322.226 -1.5378 -0.344866 0
M  V30 3351 C 323.189 -1.80981 -1.40637 0
M  V30 3352 C 324.189 -0.680816 -1.45676 0
M  V30 3353 O 325.379 -0.949095 -1.46075 0
M  V30 3354 C 322.511 -1.95063 -2.79577 0
M  V30 3355 H 323.704 -2.75803 -1.17783 0
M  V30 3356 H 321.257 -1.45173 -0.579181 0
M  V30 3357 H 321.992 -1.02379 -3.07716 0
M  V30 3358 H 321.777 -2.77198 -2.77315 0
M  V30 3359 H 323.267 -2.17629 -3.56409 0
M  V30 3360 N 323.704 0.605807 -1.45491 0
M  V30 3361 C 324.952 1.36207 -1.49305 0
M  V30 3362 C 325.273 1.94519 -0.136863 0
M  V30 3363 O 324.543 1.77261 0.833983 0
M  V30 3364 H 323.123 0.50565 -0.549843 0
M  V30 3365 H 325.785 0.711239 -1.81459 0
M  V30 3366 H 324.881 2.18058 -2.23287 0
M  V30 3367 N 325.182 1.32811 0.848464 0
M  V30 3368 C 326.431 1.23075 1.59798 0
M  V30 3369 C 326.744 -0.204419 1.94529 0
M  V30 3370 O 327.95 -0.423701 2.68173 0
M  V30 3371 C 326.406 2.15594 2.88179 0
M  V30 3372 C 326.014 3.64228 2.60849 0
M  V30 3373 C 327.758 2.14709 3.66197 0
M  V30 3374 C 325.665 4.48689 3.85269 0
M  V30 3375 H 324.595 0.457091 0.599653 0
M  V30 3376 H 327.246 1.57813 0.936342 0
M  V30 3377 H 325.628 1.73778 3.55833 0
M  V30 3378 H 326.802 4.14424 2.01467 0
M  V30 3379 H 325.117 3.67306 1.96151 0
M  V30 3380 H 327.714 2.75046 4.58534 0
M  V30 3381 H 328.057 1.13966 4.00397 0
M  V30 3382 H 328.59 2.54837 3.05455 0
M  V30 3383 H 325.329 5.5027 3.56207 0
M  V30 3384 H 324.849 4.03241 4.44024 0
M  V30 3385 H 326.528 4.62006 4.52946 0
M  V30 3386 N 326.66 -1.06551 1.16123 0
M  V30 3387 C 327.593 -2.13382 0.80892 0
M  V30 3388 C 328.571 -1.61128 -0.21827 0
M  V30 3389 O 329.755 -1.88219 -0.102952 0
M  V30 3390 C 326.882 -3.38083 0.204303 0
M  V30 3391 C 325.928 -4.09133 1.20469 0
M  V30 3392 S 326.761 -4.5948 2.75024 0
M  V30 3393 C 327.917 -5.87446 2.16005 0
M  V30 3394 H 328.15 -2.42937 1.71373 0
M  V30 3395 H 325.683 -1.18947 0.984428 0
M  V30 3396 H 327.641 -4.10268 -0.138081 0
M  V30 3397 H 326.302 -3.0669 -0.678234 0
M  V30 3398 H 325.495 -4.98685 0.730019 0
M  V30 3399 H 325.097 -3.4295 1.49202 0
M  V30 3400 H 327.389 -6.60065 1.5271 0
M  V30 3401 H 328.332 -6.39639 3.03756 0
M  V30 3402 H 328.74 -5.41354 1.59989 0
M  V30 3403 N 328.138 -0.959301 -1.25041 0
M  V30 3404 C 329.386 -0.615393 -1.92503 0
M  V30 3405 C 329.707 0.850969 -1.75452 0
M  V30 3406 O 328.977 1.60658 -1.12098 0
M  V30 3407 H 327.557 -0.224613 -0.712431 0
M  V30 3408 H 330.219 -1.21855 -1.5211 0
M  V30 3409 H 329.315 -0.848738 -3.00338 0
M  V30 3410 N 329.616 1.39756 -0.72842 0
M  V30 3411 C 330.864 2.00248 -0.272946 0
M  V30 3412 C 331.185 1.58077 1.14178 0
M  V30 3413 O 330.455 0.826014 1.77634 0
M  V30 3414 H 329.035 0.740554 -0.0979247 0
M  V30 3415 H 331.697 1.70903 -0.936912 0
M  V30 3416 H 330.793 3.10495 -0.316142 0
M  V30 3417 N 331.094 0.475555 1.50254 0
M  V30 3418 C 332.027 -0.362381 2.25304 0
M  V30 3419 C 333.005 -0.992393 1.28803 0
M  V30 3420 O 334.189 -1.02746 1.58036 0
M  V30 3421 C 331.316 -1.50813 3.03271 0
M  V30 3422 C 330.362 -0.995044 4.1473 0
M  V30 3423 S 331.195 0.0938436 5.35418 0
M  V30 3424 C 332.351 -1.05567 6.16933 0
M  V30 3425 H 332.584 0.274686 2.96028 0
M  V30 3426 H 330.117 0.260495 1.52187 0
M  V30 3427 H 332.075 -2.16476 3.48781 0
M  V30 3428 H 330.736 -2.11672 2.32064 0
M  V30 3429 H 329.929 -1.85293 4.68703 0
M  V30 3430 H 329.531 -0.416052 3.71679 0
M  V30 3431 H 331.823 -1.96636 6.48337 0
M  V30 3432 H 332.766 -0.555109 7.05921 0
M  V30 3433 H 333.174 -1.31151 5.49053 0
M  V30 3434 N 332.573 -1.56217 0.208337 0
M  V30 3435 C 333.521 -2.21053 -0.723769 0
M  V30 3436 C 334.515 -1.18578 -1.20978 0
M  V30 3437 O 335.721 -1.36691 -1.17114 0
M  V30 3438 H 332.096 -0.708595 -0.251788 0
M  V30 3439 H 334.067 -2.98006 -0.153365 0
M  V30 3440 C 332.816 -2.89417 -1.927 0
M  V30 3441 H 332.139 -3.68019 -1.56212 0
M  V30 3442 H 333.579 -3.38201 -2.55727 0
M  V30 3443 C 332.038 -1.91166 -2.77411 0
M  V30 3444 O 332.568 -1.42026 -3.75754 0
M  V30 3445 N 330.774 -1.59105 -2.43175 0
M  V30 3446 H 330.321 -1.99259 -1.63259 0
M  V30 3447 H 330.279 -0.936255 -3.00136 0
M  V30 3448 N 334.051 0.0651679 -1.57465 0
M  V30 3449 C 335.462 0.616213 -1.76238 0
M  V30 3450 C 335.813 1.7756 -0.834689 0
M  V30 3451 O 334.938 2.1639 -0.0204156 0
M  V30 3452 C 335.533 1.12462 -3.1959 0
M  V30 3453 C 334.092 1.62147 -3.39684 0
M  V30 3454 C 333.239 0.543739 -2.71917 0
M  V30 3455 H 336.19 -0.161022 -1.57881 0
M  V30 3456 H 336.211 1.99324 -3.24114 0
M  V30 3457 H 335.723 0.280592 -3.87084 0
M  V30 3458 H 333.824 2.48854 -2.77313 0
M  V30 3459 H 333.937 1.69385 -4.48158 0
M  V30 3460 H 332.301 0.990352 -2.34657 0
M  V30 3461 H 333.084 -0.290216 -3.42071 0
M  V30 3462 N 335.529 1.53961 0.336706 0
M  V30 3463 C 336.476 1.82428 1.41381 0
M  V30 3464 C 337.446 0.670444 1.51968 0
M  V30 3465 O 338.631 0.915565 1.67398 0
M  V30 3466 C 335.771 2.04564 2.77934 0
M  V30 3467 C 334.884 3.32267 2.76084 0
M  V30 3468 C 334.019 3.44434 4.04399 0
M  V30 3469 C 333.058 4.66061 3.96804 0
M  V30 3470 N 332.195 4.75224 5.16823 0
M  V30 3471 H 337.035 2.74324 1.16405 0
M  V30 3472 H 334.572 1.35869 0.563752 0
M  V30 3473 H 336.53 2.15388 3.57301 0
M  V30 3474 H 335.16 1.15974 3.01247 0
M  V30 3475 H 334.212 3.3025 1.88784 0
M  V30 3476 H 335.524 4.21733 2.66351 0
M  V30 3477 H 334.678 3.54728 4.92192 0
M  V30 3478 H 333.417 2.53037 4.16921 0
M  V30 3479 H 332.422 4.55838 3.07396 0
M  V30 3480 H 333.647 5.58829 3.85858 0
M  V30 3481 H 331.593 3.86739 5.29876 0
M  V30 3482 H 331.51 5.58636 5.09374 0
M  V30 3483 H 332.778 4.89835 6.06367 0
M  V30 3484 N 337.007 -0.598083 1.45811 0
M  V30 3485 C 338.255 -1.35413 1.50026 0
M  V30 3486 C 338.576 -1.94444 0.147177 0
M  V30 3487 O 337.846 -1.77701 -0.824571 0
M  V30 3488 H 336.426 -0.502727 0.552517 0
M  V30 3489 H 339.088 -0.701606 1.81834 0
M  V30 3490 H 338.184 -2.16871 2.2444 0
M  V30 3491 N 338.485 -1.33259 -0.841409 0
M  V30 3492 C 339.435 -1.19872 -1.93945 0
M  V30 3493 C 340.419 -0.102269 -1.60575 0
M  V30 3494 O 341.611 -0.330114 -1.73894 0
M  V30 3495 C 338.74 -0.937517 -3.30251 0
M  V30 3496 C 337.826 -2.07629 -3.69799 0
M  V30 3497 N 338.217 -3.32604 -3.81062 0
M  V30 3498 C 336.515 -1.98242 -3.9952 0
M  V30 3499 C 337.216 -4.07275 -4.15333 0
M  V30 3500 N 336.192 -3.35691 -4.27566 0
M  V30 3501 H 339.994 -2.14604 -2.00805 0
M  V30 3502 H 337.508 -1.2523 -1.03398 0
M  V30 3503 H 339.505 -0.822545 -4.08705 0
M  V30 3504 H 338.165 0.00128798 -3.247 0
M  V30 3505 H 339.176 -3.67382 -3.65035 0
M  V30 3506 H 335.853 -1.12005 -4.02195 0
M  V30 3507 H 337.243 -5.1511 -4.31406 0
M  V30 3508 N 339.963 1.05934 -1.16686 0
M  V30 3509 C 341.209 1.79065 -0.95203 0
M  V30 3510 C 341.542 1.87147 0.518629 0
M  V30 3511 O 340.817 1.36574 1.38484 0
M  V30 3512 C 341.1 3.23359 -1.58464 0
M  V30 3513 C 340.953 3.23336 -3.12689 0
M  V30 3514 C 342.272 4.21004 -1.28232 0
M  V30 3515 H 339.391 0.65005 -0.34728 0
M  V30 3516 H 342.033 1.23868 -1.44072 0
M  V30 3517 H 340.183 3.70493 -1.16908 0
M  V30 3518 H 341.855 2.84336 -3.6325 0
M  V30 3519 H 340.098 2.61886 -3.4583 0
M  V30 3520 H 340.769 4.25144 -3.52075 0
M  V30 3521 H 343.245 3.8233 -1.64203 0
M  V30 3522 H 342.121 5.20225 -1.75092 0
M  V30 3523 H 342.382 4.41639 -0.201791 0
M  V30 3524 N 341.441 0.965919 1.2453 0
M  V30 3525 C 342.718 0.543777 1.87889 0
M  V30 3526 C 343.098 -0.97909 1.87021 0
M  V30 3527 O 342.446 -1.84969 1.3416 0
M  V30 3528 C 342.656 1.13327 3.30088 0
M  V30 3529 C 344.004 1.21707 4.06783 0
M  V30 3530 O 345.028 1.08566 3.39252 0
M  V30 3531 O 343.887 1.42456 5.27606 0
M  V30 3532 H 340.981 0.181054 0.806938 0
M  V30 3533 H 343.527 1.06007 1.32516 0
M  V30 3534 H 342.299 2.17612 3.25209 0
M  V30 3535 H 341.922 0.600911 3.93033 0
M  V30 3536 N 342.919 -1.39368 0.735821 0
M  V30 3537 C 343.849 -2.33234 0.111506 0
M  V30 3538 C 344.83 -1.53954 -0.723334 0
M  V30 3539 O 346.015 -1.82344 -0.668147 0
M  V30 3540 C 343.145 -3.38057 -0.795917 0
M  V30 3541 C 342.099 -4.2795 -0.065172 0
M  V30 3542 C 341.425 -5.23479 -1.08967 0
M  V30 3543 C 342.725 -5.10741 1.09273 0
M  V30 3544 H 344.419 -2.85692 0.895571 0
M  V30 3545 H 341.965 -1.37364 0.432109 0
M  V30 3546 H 343.918 -4.02675 -1.24221 0
M  V30 3547 H 342.642 -2.8404 -1.61211 0
M  V30 3548 H 341.301 -3.64813 0.361511 0
M  V30 3549 H 340.949 -4.65758 -1.89944 0
M  V30 3550 H 340.649 -5.84472 -0.605489 0
M  V30 3551 H 342.173 -5.90974 -1.53565 0
M  V30 3552 H 343.587 -5.68699 0.724841 0
M  V30 3553 H 341.984 -5.8088 1.50659 0
M  V30 3554 H 343.054 -4.45525 1.91404 0
M  V30 3555 N 344.397 -0.483516 -1.5 0
M  V30 3556 C 345.307 0.309172 -2.32554 0
M  V30 3557 C 346.323 0.984159 -1.43493 0
M  V30 3558 O 347.499 0.969399 -1.76535 0
M  V30 3559 C 344.564 1.36979 -3.18493 0
M  V30 3560 C 343.625 0.710095 -4.23387 0
M  V30 3561 C 342.858 1.72018 -5.05218 0
M  V30 3562 O 343.081 2.94813 -4.88305 0
M  V30 3563 O 342.015 1.28515 -5.8802 0
M  V30 3564 H 345.841 -0.366064 -3.01486 0
M  V30 3565 H 343.426 -0.24514 -1.47375 0
M  V30 3566 H 345.308 1.98385 -3.71781 0
M  V30 3567 H 343.983 2.02828 -2.52275 0
M  V30 3568 H 342.89 0.0567539 -3.74057 0
M  V30 3569 H 344.223 0.0943557 -4.9211 0
M  V30 3570 N 345.875 1.56104 -0.216619 0
M  V30 3571 C 347.105 2.02269 0.420802 0
M  V30 3572 C 347.513 1.09575 1.5424 0
M  V30 3573 O 346.856 0.0967308 1.83445 0
M  V30 3574 C 346.918 3.44784 1.01806 0
M  V30 3575 C 346.582 4.56988 0.0325154 0
M  V30 3576 C 347.579 5.14225 -0.766055 0
M  V30 3577 C 345.264 5.02228 -0.0848092 0
M  V30 3578 C 347.258 6.15169 -1.6687 0
M  V30 3579 C 344.945 6.03011 -0.990994 0
M  V30 3580 C 345.943 6.59357 -1.78149 0
M  V30 3581 O 345.631 7.58179 -2.67245 0
M  V30 3582 H 345.363 0.667353 0.107776 0
M  V30 3583 H 347.917 2.02747 -0.329034 0
M  V30 3584 H 346.147 3.41359 1.81689 0
M  V30 3585 H 347.836 3.74626 1.56237 0
M  V30 3586 H 348.602 4.80126 -0.685836 0
M  V30 3587 H 344.481 4.58054 0.520349 0
M  V30 3588 H 348.025 6.59076 -2.28615 0
M  V30 3589 H 343.922 6.36532 -1.07225 0
M  V30 3590 H 344.69 7.75682 -2.61265 0
M  V30 3591 N 347.353 -0.0568162 1.57498 0
M  V30 3592 C 348.316 -1.05038 2.03715 0
M  V30 3593 C 349.316 -1.30709 0.936577 0
M  V30 3594 O 350.506 -1.26178 1.20103 0
M  V30 3595 C 347.638 -2.39034 2.43055 0
M  V30 3596 H 348.831 -0.651715 2.92733 0
M  V30 3597 H 346.384 -0.302947 1.53336 0
M  V30 3598 H 347.119 -2.83703 1.57108 0
M  V30 3599 H 346.904 -2.21739 3.2338 0
M  V30 3600 H 348.394 -3.10421 2.79336 0
M  V30 3601 N 348.832 -1.54138 -0.328536 0
M  V30 3602 C 349.78 -1.83894 -1.42428 0
M  V30 3603 C 350.774 -0.710478 -1.53781 0
M  V30 3604 O 351.98 -0.894062 -1.56226 0
M  V30 3605 H 348.355 -0.582837 -0.475189 0
M  V30 3606 H 350.326 -2.75537 -1.14552 0
M  V30 3607 C 349.075 -2.07866 -2.78724 0
M  V30 3608 H 348.398 -2.94158 -2.7076 0
M  V30 3609 H 349.838 -2.32644 -3.54476 0
M  V30 3610 C 348.297 -0.868689 -3.25508 0
M  V30 3611 O 348.827 -0.0754908 -4.01629 0
M  V30 3612 N 347.033 -0.681711 -2.82491 0
M  V30 3613 H 346.58 -1.32838 -2.20708 0
M  V30 3614 H 346.538 0.126374 -3.14146 0
M  V30 3615 N 350.31 0.590341 -1.46126 0
M  V30 3616 C 351.22 1.72793 -1.58681 0
M  V30 3617 C 352.236 1.67516 -0.470566 0
M  V30 3618 O 353.412 1.87562 -0.733642 0
M  V30 3619 C 350.477 3.09287 -1.5666 0
M  V30 3620 C 349.538 3.25886 -2.79458 0
M  V30 3621 C 348.771 4.55869 -2.77524 0
M  V30 3622 O 348.994 5.3928 -1.85832 0
M  V30 3623 O 347.928 4.75552 -3.68964 0
M  V30 3624 H 351.754 1.65149 -2.54872 0
M  V30 3625 H 349.339 0.756486 -1.28832 0
M  V30 3626 H 351.221 3.90577 -1.58202 0
M  V30 3627 H 349.896 3.17385 -0.636271 0
M  V30 3628 H 348.803 2.44119 -2.83472 0
M  V30 3629 H 350.136 3.22675 -3.71674 0
M  V30 3630 N 351.788 1.33704 0.83433 0
M  V30 3631 C 353.037 1.24763 1.58484 0
M  V30 3632 C 353.35 -0.183775 1.94735 0
M  V30 3633 O 354.556 -0.395234 2.68608 0
M  V30 3634 C 353.012 2.18638 2.85876 0
M  V30 3635 C 352.62 3.66974 2.56971 0
M  V30 3636 C 354.364 2.18581 3.63899 0
M  V30 3637 C 352.271 4.5275 3.80488 0
M  V30 3638 H 351.201 0.463425 0.594772 0
M  V30 3639 H 353.852 1.58797 0.919551 0
M  V30 3640 H 352.234 1.77542 3.5397 0
M  V30 3641 H 353.408 4.16538 1.9706 0
M  V30 3642 H 351.723 3.69366 1.92244 0
M  V30 3643 H 354.32 2.79894 4.55591 0
M  V30 3644 H 354.663 1.18207 3.99165 0
M  V30 3645 H 355.196 2.58062 3.02735 0
M  V30 3646 H 351.935 5.54017 3.5035 0
M  V30 3647 H 351.455 4.07927 4.39722 0
M  V30 3648 H 353.134 4.66784 4.4802 0
M  V30 3649 N 353.266 -1.05314 1.17247 0
M  V30 3650 C 354.229 -2.112 0.890357 0
M  V30 3651 C 355.229 -1.60359 -0.118943 0
M  V30 3652 O 356.419 -1.73833 0.113086 0
M  V30 3653 C 353.551 -3.39266 0.333422 0
M  V30 3654 H 354.744 -2.37659 1.82916 0
M  V30 3655 H 352.297 -1.21538 0.982758 0
M  V30 3656 H 353.032 -3.18462 -0.612587 0
M  V30 3657 H 352.817 -3.77477 1.06082 0
M  V30 3658 H 354.307 -4.17315 0.154322 0
M  V30 3659 N 354.744 -0.972509 -1.24016 0
M  V30 3660 C 356.021 -0.553733 -1.87598 0
M  V30 3661 C 356.401 0.969158 -1.87538 0
M  V30 3662 O 355.749 1.84255 -1.35139 0
M  V30 3663 C 355.959 -1.15076 -3.29482 0
M  V30 3664 C 357.307 -1.23862 -4.06132 0
M  V30 3665 O 358.331 -1.10363 -3.38672 0
M  V30 3666 O 357.19 -1.45252 -5.26844 0
M  V30 3667 H 354.284 -0.185331 -0.805966 0
M  V30 3668 H 356.83 -1.06709 -1.31952 0
M  V30 3669 H 355.602 -2.19333 -3.2405 0
M  V30 3670 H 355.225 -0.621746 -3.92709 0
M  V30 3671 N 356.222 1.38976 -0.743202 0
M  V30 3672 C 357.155 2.28128 -0.0572165 0
M  V30 3673 C 358.133 1.44827 0.739182 0
M  V30 3674 O 359.317 1.74207 0.720009 0
M  V30 3675 C 356.444 3.25796 0.926001 0
M  V30 3676 C 355.49 4.25947 0.217099 0
M  V30 3677 S 356.323 5.24604 -1.07477 0
M  V30 3678 C 357.479 6.25829 -0.0943545 0
M  V30 3679 H 357.712 2.85961 -0.813246 0
M  V30 3680 H 355.245 1.44822 -0.535341 0
M  V30 3681 H 357.203 3.82583 1.48797 0
M  V30 3682 H 355.864 2.66966 1.65493 0
M  V30 3683 H 355.057 4.94746 0.961372 0
M  V30 3684 H 354.659 3.73002 -0.273059 0
M  V30 3685 H 356.951 6.73411 0.743239 0
M  V30 3686 H 357.894 7.0412 -0.749713 0
M  V30 3687 H 358.302 5.63797 0.281706 0
M  V30 3688 N 357.7 0.491464 1.49741 0
M  V30 3689 C 358.946 -0.0565092 2.02721 0
M  V30 3690 C 359.279 -1.37522 1.37118 0
M  V30 3691 O 358.554 -1.87866 0.503645 0
M  V30 3692 C 358.837 -0.219051 3.59433 0
M  V30 3693 C 358.69 1.12211 4.35579 0
M  V30 3694 C 360.009 -0.964157 4.29409 0
M  V30 3695 H 357.128 -0.0190627 0.736753 0
M  V30 3696 H 359.77 0.641021 1.7886 0
M  V30 3697 H 357.92 -0.813165 3.79895 0
M  V30 3698 H 359.592 1.75437 4.26637 0
M  V30 3699 H 357.835 1.71377 3.98513 0
M  V30 3700 H 358.506 0.961794 5.43556 0
M  V30 3701 H 360.982 -0.460378 4.13545 0
M  V30 3702 H 359.858 -1.04671 5.38828 0
M  V30 3703 H 360.119 -2.00563 3.93988 0
M  V30 3704 N 359.178 -1.55987 0.224894 0
M  V30 3705 C 360.455 -1.90232 -0.455083 0
M  V30 3706 C 360.835 -1.14269 -1.77499 0
M  V30 3707 O 360.183 -0.253079 -2.27094 0
M  V30 3708 C 360.393 -3.42993 -0.644758 0
M  V30 3709 C 361.741 -4.13821 -0.950669 0
M  V30 3710 O 362.765 -3.4861 -0.731423 0
M  V30 3711 O 361.624 -5.29128 -1.36695 0
M  V30 3712 H 358.718 -0.79108 -0.241084 0
M  V30 3713 H 361.264 -1.67581 0.267327 0
M  V30 3714 H 360.036 -3.90252 0.28613 0
M  V30 3715 H 359.659 -3.71434 -1.41853 0
M  V30 3716 N 360.656 0.0484629 -1.57525 0
M  V30 3717 C 362.072 0.40375 -1.54409 0
M  V30 3718 C 362.272 1.77786 -0.948384 0
M  V30 3719 O 361.328 2.46189 -0.560983 0
M  V30 3720 C 362.641 0.323394 -2.98956 0
M  V30 3721 C 364.189 0.401892 -3.10409 0
M  V30 3722 C 364.664 0.351195 -4.56652 0
M  V30 3723 N 366.155 0.410576 -4.61377 0
M  V30 3724 C 366.89 0.393933 -5.72045 0
M  V30 3725 N 366.386 0.330724 -6.9201 0
M  V30 3726 N 368.179 0.442227 -5.60358 0
M  V30 3727 H 360.33 -0.851016 -1.94606 0
M  V30 3728 H 362.593 -0.321721 -0.89174 0
M  V30 3729 H 362.299 -0.62011 -3.4619 0
M  V30 3730 H 362.173 1.12463 -3.60044 0
M  V30 3731 H 364.56 1.33582 -2.63134 0
M  V30 3732 H 364.641 -0.428342 -2.52188 0
M  V30 3733 H 364.285 -0.578987 -5.04589 0
M  V30 3734 H 364.215 1.19928 -5.12762 0
M  V30 3735 H 366.706 0.462729 -3.75056 0
M  V30 3736 H 367.019 0.322592 -7.72126 0
M  V30 3737 H 365.364 0.29706 -6.94365 0
M  V30 3738 H 368.555 0.489464 -4.65534 0
M  V30 3739 H 368.728 0.425788 -6.466 0
M  V30 3740 N 362.134 1.5431 0.320358 0
M  V30 3741 C 363.362 1.76636 1.07738 0
M  V30 3742 C 363.777 0.51649 1.81598 0
M  V30 3743 O 363.134 -0.512942 1.75143 0
M  V30 3744 C 363.185 2.96158 2.07299 0
M  V30 3745 O 362.906 4.16313 1.36438 0
M  V30 3746 C 364.407 3.3072 2.95193 0
M  V30 3747 H 361.627 0.589597 0.320339 0
M  V30 3748 H 364.171 2.01207 0.36551 0
M  V30 3749 H 362.326 2.73851 2.74016 0
M  V30 3750 H 362.74 4.83565 2.03138 0
M  V30 3751 H 364.214 4.17643 3.60941 0
M  V30 3752 H 364.691 2.48026 3.62463 0
M  V30 3753 H 365.297 3.55117 2.34034 0
M  V30 3754 N 363.613 -0.582584 1.46437 0
M  V30 3755 C 364.861 -1.33814 1.51453 0
M  V30 3756 C 365.182 -1.94277 0.167792 0
M  V30 3757 O 364.452 -1.78566 -0.805677 0
M  V30 3758 H 363.032 -0.496838 0.557818 0
M  V30 3759 H 365.694 -0.682281 1.82568 0
M  V30 3760 H 364.79 -2.14479 2.26728 0
M  V30 3761 N 365.091 -1.34144 -0.827227 0
M  V30 3762 C 366.038 -1.25364 -1.93785 0
M  V30 3763 C 367.008 -0.129774 -1.65592 0
M  V30 3764 O 368.193 -0.310024 -1.88264 0
M  V30 3765 C 365.333 -1.01064 -3.2997 0
M  V30 3766 C 364.446 -2.22185 -3.70484 0
M  V30 3767 C 363.581 -1.91203 -4.95595 0
M  V30 3768 C 362.62 -3.08491 -5.28677 0
M  V30 3769 N 361.757 -2.77421 -6.44967 0
M  V30 3770 H 366.597 -2.20347 -2.00627 0
M  V30 3771 H 364.134 -1.09558 -0.981608 0
M  V30 3772 H 366.092 -0.850139 -4.08446 0
M  V30 3773 H 364.722 -0.0975026 -3.22653 0
M  V30 3774 H 363.774 -2.4917 -2.87434 0
M  V30 3775 H 365.086 -3.0983 -3.90905 0
M  V30 3776 H 364.24 -1.71864 -5.81848 0
M  V30 3777 H 362.979 -1.00812 -4.77167 0
M  V30 3778 H 361.984 -3.28431 -4.40923 0
M  V30 3779 H 363.209 -3.99655 -5.49047 0
M  V30 3780 H 361.155 -1.89601 -6.28003 0
M  V30 3781 H 361.072 -3.58598 -6.6554 0
M  V30 3782 H 362.34 -2.61577 -7.34301 0
M  V30 3783 N 366.569 1.04691 -1.17803 0
M  V30 3784 C 367.797 1.81446 -0.99423 0
M  V30 3785 C 368.212 1.83174 0.457459 0
M  V30 3786 O 367.569 1.26265 1.31771 0
M  V30 3787 C 367.62 3.27334 -1.5341 0
M  V30 3788 O 367.341 3.25798 -2.92895 0
M  V30 3789 C 368.842 4.20759 -1.39559 0
M  V30 3790 H 366.062 0.571599 -0.351447 0
M  V30 3791 H 368.606 1.31982 -1.56208 0
M  V30 3792 H 366.761 3.74052 -1.00815 0
M  V30 3793 H 367.175 4.17144 -3.17949 0
M  V30 3794 H 368.649 5.21084 -1.82141 0
M  V30 3795 H 369.126 4.37856 -0.343394 0
M  V30 3796 H 369.732 3.79901 -1.91195 0
M  V30 3797 N 368.047 0.979072 1.23499 0
M  V30 3798 C 368.957 0.526431 2.28617 0
M  V30 3799 C 369.973 -0.418126 1.68901 0
M  V30 3800 O 371.149 -0.288372 1.99325 0
M  V30 3801 C 368.214 -0.165235 3.46306 0
M  V30 3802 C 367.275 0.82056 4.21385 0
M  V30 3803 C 366.508 0.161807 5.33455 0
M  V30 3804 O 366.731 -1.04742 5.60701 0
M  V30 3805 O 365.665 0.859708 5.95729 0
M  V30 3806 H 369.491 1.4006 2.69475 0
M  V30 3807 H 367.076 0.746643 1.29405 0
M  V30 3808 H 368.958 -0.553287 4.17752 0
M  V30 3809 H 367.633 -1.01419 3.07402 0
M  V30 3810 H 366.54 1.25929 3.52268 0
M  V30 3811 H 367.873 1.63828 4.64135 0
M  V30 3812 N 369.525 -1.3858 0.750561 0
M  V30 3813 C 370.936 -1.82927 0.373438 0
M  V30 3814 C 371.287 -1.62634 -1.09748 0
M  V30 3815 O 370.412 -1.12588 -1.84805 0
M  V30 3816 C 371.007 -3.32088 0.671029 0
M  V30 3817 C 369.566 -3.74795 0.34722 0
M  V30 3818 C 368.713 -2.61391 0.92575 0
M  V30 3819 H 371.664 -1.27351 0.946958 0
M  V30 3820 H 371.685 -3.80465 -0.0518269 0
M  V30 3821 H 371.197 -3.46826 1.74164 0
M  V30 3822 H 369.298 -3.65638 -0.716933 0
M  V30 3823 H 369.411 -4.71667 0.840656 0
M  V30 3824 H 367.775 -2.52265 0.351327 0
M  V30 3825 H 368.558 -2.78929 2.00133 0
M  V30 3826 N 371.003 -0.499398 -1.49478 0
M  V30 3827 C 372.414 -0.051215 -1.8663 0
M  V30 3828 C 372.765 1.36238 -1.41186 0
M  V30 3829 O 371.89 2.01502 -0.789051 0
M  V30 3830 C 372.485 -0.0861651 -3.3869 0
M  V30 3831 C 371.044 0.30667 -3.75149 0
M  V30 3832 C 370.191 -0.459397 -2.73468 0
M  V30 3833 H 373.142 -0.712264 -1.41818 0
M  V30 3834 H 373.163 0.709507 -3.73826 0
M  V30 3835 H 372.675 -1.11512 -3.71735 0
M  V30 3836 H 370.776 1.33892 -3.47712 0
M  V30 3837 H 370.889 -0.0116669 -4.79099 0
M  V30 3838 H 369.253 0.0905645 -2.54539 0
M  V30 3839 H 370.036 -1.4884 -3.09357 0
M  V30 3840 N 372.481 1.55866 -0.233164 0
M  V30 3841 C 373.729 1.9821 0.394593 0
M  V30 3842 C 374.05 1.12234 1.59463 0
M  V30 3843 O 373.32 0.201981 1.94856 0
M  V30 3844 H 371.9 0.732034 0.148778 0
M  V30 3845 H 374.562 1.92107 -0.32876 0
M  V30 3846 H 373.658 3.03845 0.713063 0
M  V30 3847 N 373.959 -0.0401083 1.57549 0
M  V30 3848 C 374.922 -1.02871 2.04817 0
M  V30 3849 C 375.922 -1.29708 0.950388 0
M  V30 3850 O 377.112 -1.24897 1.21435 0
M  V30 3851 C 374.244 -2.36443 2.45576 0
M  V30 3852 H 375.437 -0.620631 2.93408 0
M  V30 3853 H 372.99 -0.286667 1.53649 0
M  V30 3854 H 373.725 -2.82021 1.60108 0
M  V30 3855 H 373.51 -2.18296 3.25713 0
M  V30 3856 H 375 -3.07441 2.82612 0
M  V30 3857 N 375.437 -1.54477 -0.31217 0
M  V30 3858 C 376.683 -1.73483 -1.0503 0
M  V30 3859 C 377.016 -0.513125 -1.87298 0
M  V30 3860 O 376.291 0.489864 -1.8823 0
M  V30 3861 C 376.574 -3.01723 -1.96558 0
M  V30 3862 C 376.427 -4.3417 -1.17545 0
M  V30 3863 C 377.746 -3.25772 -2.95907 0
M  V30 3864 H 374.865 -0.631222 -0.380432 0
M  V30 3865 H 377.507 -1.87184 -0.325932 0
M  V30 3866 H 375.657 -2.90174 -2.58324 0
M  V30 3867 H 377.329 -4.5762 -0.581513 0
M  V30 3868 H 375.572 -4.31159 -0.477925 0
M  V30 3869 H 376.243 -5.20143 -1.84811 0
M  V30 3870 H 378.719 -3.36857 -2.44267 0
M  V30 3871 H 377.595 -4.16838 -3.57123 0
M  V30 3872 H 377.856 -2.43537 -3.68974 0
M  V30 3873 N 376.915 0.57481 -1.46744 0
M  V30 3874 C 378.192 1.3352 -1.4294 0
M  V30 3875 C 378.572 2.10775 -0.117009 0
M  V30 3876 O 377.92 2.09966 0.901474 0
M  V30 3877 C 378.13 2.25456 -2.66403 0
M  V30 3878 C 379.478 2.87035 -3.12883 0
M  V30 3879 O 380.502 2.35766 -2.67007 0
M  V30 3880 O 379.361 3.80179 -3.92589 0
M  V30 3881 H 376.455 0.600318 -0.568812 0
M  V30 3882 H 379.001 0.595171 -1.58921 0
M  V30 3883 H 377.773 1.67851 -3.53471 0
M  V30 3884 H 377.396 3.06785 -2.52921 0
M  V30 3885 N 378.394 1.34581 0.820102 0
M  V30 3886 C 379.643 1.26437 1.57151 0
M  V30 3887 C 379.956 -0.163111 1.94919 0
M  V30 3888 O 381.162 -0.366722 2.69012 0
M  V30 3889 C 379.618 2.21658 2.83541 0
M  V30 3890 C 379.226 3.69679 2.53065 0
M  V30 3891 C 380.97 2.22428 3.61561 0
M  V30 3892 C 378.877 4.56761 3.75664 0
M  V30 3893 H 377.807 0.469707 0.589823 0
M  V30 3894 H 380.458 1.59763 0.902656 0
M  V30 3895 H 378.84 1.81287 3.52067 0
M  V30 3896 H 380.014 4.18605 1.92631 0
M  V30 3897 H 378.329 3.71384 1.88316 0
M  V30 3898 H 380.926 2.8471 4.52597 0
M  V30 3899 H 381.269 1.22434 3.97889 0
M  V30 3900 H 381.802 2.61259 2.99981 0
M  V30 3901 H 378.541 5.57702 3.44454 0
M  V30 3902 H 378.061 4.12568 4.35371 0
M  V30 3903 H 379.74 4.71509 4.43044 0
M  V30 3904 N 379.872 -1.04064 1.18357 0
M  V30 3905 C 380.822 -2.10393 0.878561 0
M  V30 3906 C 381.806 -1.60183 -0.151713 0
M  V30 3907 O 382.998 -1.76923 0.0523303 0
M  V30 3908 C 380.127 -3.4089 0.406096 0
M  V30 3909 C 379.213 -3.97866 1.46844 0
M  V30 3910 N 379.604 -4.28657 2.68489 0
M  V30 3911 C 377.902 -4.2574 1.32896 0
M  V30 3912 C 378.603 -4.74253 3.36836 0
M  V30 3913 N 377.579 -4.75068 2.64219 0
M  V30 3914 H 381.381 -2.32076 1.80327 0
M  V30 3915 H 378.895 -1.21818 1.07397 0
M  V30 3916 H 380.892 -4.16557 0.169088 0
M  V30 3917 H 379.552 -3.20633 -0.512275 0
M  V30 3918 H 380.563 -4.18304 3.05356 0
M  V30 3919 H 377.24 -4.1481 0.473134 0
M  V30 3920 H 378.63 -5.07096 4.40798 0
M  V30 3921 N 381.35 -0.985608 -1.22978 0
M  V30 3922 C 382.58 -0.674603 -1.95276 0
M  V30 3923 C 382.988 0.763483 -1.73111 0
M  V30 3924 O 382.331 1.52601 -1.02268 0
M  V30 3925 C 382.393 -0.891597 -3.48268 0
M  V30 3926 C 382.057 -2.31275 -3.94158 0
M  V30 3927 C 383.054 -3.29179 -4.02415 0
M  V30 3928 C 380.739 -2.64524 -4.27004 0
M  V30 3929 C 382.733 -4.58407 -4.42879 0
M  V30 3930 C 380.42 -3.93974 -4.67149 0
M  V30 3931 C 381.418 -4.90727 -4.75053 0
M  V30 3932 O 381.106 -6.17865 -5.14294 0
M  V30 3933 H 380.838 -0.249251 -0.628371 0
M  V30 3934 H 383.392 -1.32106 -1.5728 0
M  V30 3935 H 381.622 -0.187962 -3.86243 0
M  V30 3936 H 383.311 -0.576957 -4.01779 0
M  V30 3937 H 384.077 -3.04823 -3.77237 0
M  V30 3938 H 379.956 -1.89923 -4.2006 0
M  V30 3939 H 383.5 -5.33926 -4.48964 0
M  V30 3940 H 379.397 -4.18122 -4.91777 0
M  V30 3941 H 380.165 -6.21694 -5.32389 0
M  V30 3942 N 382.828 1.3818 -0.7579 0
M  V30 3943 C 384.056 2.04301 -0.326937 0
M  V30 3944 C 384.471 1.57163 1.0462 0
M  V30 3945 O 383.828 0.746626 1.66529 0
M  V30 3946 C 383.879 3.59846 -0.345363 0
M  V30 3947 O 383.6 4.05256 -1.66432 0
M  V30 3948 C 385.101 4.4319 0.098927 0
M  V30 3949 H 382.321 0.656443 -0.139012 0
M  V30 3950 H 384.865 1.76786 -1.02796 0
M  V30 3951 H 383.02 3.86182 0.306955 0
M  V30 3952 H 383.434 4.99709 -1.59345 0
M  V30 3953 H 384.908 5.51989 0.0348745 0
M  V30 3954 H 385.385 4.23947 1.14741 0
M  V30 3955 H 385.991 4.22051 -0.52468 0
M  V30 3956 N 384.306 0.507319 1.49211 0
M  V30 3957 C 385.216 -0.272136 2.33016 0
M  V30 3958 C 386.232 -0.961206 1.45041 0
M  V30 3959 O 387.408 -0.941191 1.78055 0
M  V30 3960 C 384.473 -1.31895 3.20631 0
M  V30 3961 C 383.534 -0.642648 4.24463 0
M  V30 3962 C 382.767 -1.63959 5.07891 0
M  V30 3963 O 382.99 -2.87007 4.92933 0
M  V30 3964 O 381.924 -1.19143 5.8999 0
M  V30 3965 H 385.75 0.413982 3.00865 0
M  V30 3966 H 383.335 0.268556 1.46966 0
M  V30 3967 H 385.217 -1.92446 3.7489 0
M  V30 3968 H 383.892 -1.98788 2.5547 0
M  V30 3969 H 382.799 0.00276252 3.741 0
M  V30 3970 H 384.132 -0.0160534 4.92197 0
M  V30 3971 N 385.784 -1.5574 0.241426 0
M  V30 3972 C 387.012 -2.03208 -0.389134 0
M  V30 3973 C 387.427 -1.12082 -1.51931 0
M  V30 3974 O 386.784 -0.134183 -1.82006 0
M  V30 3975 C 386.835 -3.50064 -0.902087 0
M  V30 3976 O 386.556 -4.37717 0.18305 0
M  V30 3977 C 388.057 -4.13268 -1.60389 0
M  V30 3978 H 385.277 -0.664509 -0.0931053 0
M  V30 3979 H 387.821 -2.0124 0.36369 0
M  V30 3980 H 385.976 -3.52583 -1.60511 0
M  V30 3981 H 386.39 -5.24097 -0.205579 0
M  V30 3982 H 387.864 -5.17733 -1.91458 0
M  V30 3983 H 388.341 -3.59434 -2.52397 0
M  V30 3984 H 388.947 -4.14655 -0.945576 0
M  V30 3985 N 387.262 0.0317525 -1.57568 0
M  V30 3986 C 388.51 0.721676 -1.88776 0
M  V30 3987 C 388.831 1.76039 -0.838772 0
M  V30 3988 O 388.101 1.95482 0.127935 0
M  V30 3989 H 386.681 0.269534 -0.696678 0
M  V30 3990 H 389.343 -0.00165879 -1.949 0
M  V30 3991 H 388.439 1.21293 -2.87566 0
M  V30 3992 N 388.74 1.54641 0.303973 0
M  V30 3993 C 389.987 1.7378 1.03955 0
M  V30 3994 C 390.315 0.521986 1.87365 0
M  V30 3995 O 389.57 -0.496099 1.89308 0
M  V30 3996 C 389.869 2.97753 1.97681 0
M  V30 3997 C 389.535 4.31671 1.30271 0
M  V30 3998 C 388.197 4.68075 1.11619 0
M  V30 3999 C 390.549 5.147 0.82055 0
M  V30 4000 C 387.877 5.8509 0.434304 0
M  V30 4001 C 390.229 6.32416 0.152395 0
M  V30 4002 C 388.893 6.67484 -0.0461067 0
M  V30 4003 H 388.163 0.635908 0.380398 0
M  V30 4004 H 390.81 1.88896 0.314718 0
M  V30 4005 H 389.115 2.77406 2.76682 0
M  V30 4006 H 390.812 3.09756 2.54661 0
M  V30 4007 H 387.402 4.03041 1.45795 0
M  V30 4008 H 391.586 4.87077 0.952374 0
M  V30 4009 H 386.842 6.10806 0.269495 0
M  V30 4010 H 391.016 6.96023 -0.229126 0
M  V30 4011 H 388.643 7.58011 -0.576494 0
M  V30 4012 N 390.218 -0.567019 1.47046 0
M  V30 4013 C 391.151 -1.69016 1.53326 0
M  V30 4014 C 392.129 -1.57949 0.386126 0
M  V30 4015 O 393.313 -1.78945 0.592529 0
M  V30 4016 C 390.44 -3.07191 1.42658 0
M  V30 4017 C 389.486 -3.36733 2.6175 0
M  V30 4018 S 390.319 -3.27069 4.24012 0
M  V30 4019 C 391.475 -4.67755 4.1588 0
M  V30 4020 H 391.708 -1.63434 2.48348 0
M  V30 4021 H 389.241 -0.747048 1.35124 0
M  V30 4022 H 391.199 -3.86897 1.37191 0
M  V30 4023 H 389.86 -3.10249 0.490369 0
M  V30 4024 H 389.053 -4.37441 2.50323 0
M  V30 4025 H 388.655 -2.64627 2.64289 0
M  V30 4026 H 390.947 -5.58491 3.83529 0
M  V30 4027 H 391.89 -4.84239 5.16641 0
M  V30 4028 H 392.298 -4.45341 3.46889 0
M  V30 4029 N 391.696 -1.35014 -0.812953 0
M  V30 4030 C 393.112 -1.14914 -1.10757 0
M  V30 4031 C 393.312 0.0426818 -2.01455 0
M  V30 4032 O 392.368 0.715212 -2.42159 0
M  V30 4033 C 393.681 -2.44911 -1.74468 0
M  V30 4034 C 395.229 -2.5106 -1.86917 0
M  V30 4035 C 395.704 -3.81085 -2.54044 0
M  V30 4036 N 397.195 -3.82301 -2.61535 0
M  V30 4037 C 397.93 -4.79634 -3.14227 0
M  V30 4038 N 397.426 -5.87353 -3.67407 0
M  V30 4039 N 399.219 -4.67078 -3.12721 0
M  V30 4040 H 391.37 -2.1136 -0.20989 0
M  V30 4041 H 393.633 -0.935128 -0.155692 0
M  V30 4042 H 393.339 -3.32267 -1.15289 0
M  V30 4043 H 393.213 -2.58989 -2.74234 0
M  V30 4044 H 395.6 -1.64137 -2.45241 0
M  V30 4045 H 395.681 -2.40901 -0.860242 0
M  V30 4046 H 395.325 -4.68402 -1.96372 0
M  V30 4047 H 395.255 -3.88529 -3.55461 0
M  V30 4048 H 397.746 -3.04465 -2.23851 0
M  V30 4049 H 398.059 -6.57624 -4.05894 0
M  V30 4050 H 396.404 -5.91054 -3.65623 0
M  V30 4051 H 399.595 -3.82067 -2.70449 0
M  V30 4052 H 399.768 -5.43098 -3.53481 0
M  V30 4053 N 393.175 1.03435 -1.18907 0
M  V30 4054 C 394.085 2.15075 -0.937015 0
M  V30 4055 C 395.101 1.73706 0.101085 0
M  V30 4056 O 396.277 2.01232 -0.0822948 0
M  V30 4057 C 393.342 3.43458 -0.473057 0
M  V30 4058 C 392.403 3.99172 -1.57989 0
M  V30 4059 C 391.636 5.21427 -1.13797 0
M  V30 4060 O 391.859 5.704 0.000725941 0
M  V30 4061 O 390.793 5.69837 -1.9383 0
M  V30 4062 H 394.619 2.39198 -1.87131 0
M  V30 4063 H 392.204 1.13506 -0.971427 0
M  V30 4064 H 394.086 4.20811 -0.222702 0
M  V30 4065 H 392.761 3.20793 0.432869 0
M  V30 4066 H 391.668 3.23178 -1.88433 0
M  V30 4067 H 393.001 4.2619 -2.46217 0
M  V30 4068 N 394.653 0.992116 1.22453 0
M  V30 4069 C 395.899 0.668523 1.91464 0
M  V30 4070 C 396.232 -0.797313 1.77078 0
M  V30 4071 O 395.507 -1.5765 1.13916 0
M  V30 4072 C 395.79 1.07424 3.43703 0
M  V30 4073 C 395.643 2.59857 3.67143 0
M  V30 4074 C 396.962 0.626891 4.35612 0
M  V30 4075 H 394.081 0.244341 0.695318 0
M  V30 4076 H 396.723 1.2355 1.44345 0
M  V30 4077 H 394.873 0.591816 3.83966 0
M  V30 4078 H 396.545 3.15764 3.3629 0
M  V30 4079 H 394.788 3.01961 3.11451 0
M  V30 4080 H 395.459 2.83296 4.73759 0
M  V30 4081 H 397.935 1.04125 4.02861 0
M  V30 4082 H 396.811 0.939076 5.40807 0
M  V30 4083 H 397.072 -0.472457 4.39568 0
M  V30 4084 N 396.131 -1.37776 0.765217 0
M  V30 4085 C 397.361 -2.03828 0.337277 0
M  V30 4086 C 397.769 -1.57841 -1.04321 0
M  V30 4087 O 397.112 -0.752043 -1.67601 0
M  V30 4088 C 397.174 -3.58292 0.294407 0
M  V30 4089 C 396.838 -4.27384 1.61838 0
M  V30 4090 C 397.835 -4.51956 2.56967 0
M  V30 4091 C 395.52 -4.65345 1.89102 0
M  V30 4092 C 397.514 -5.13536 3.77571 0
M  V30 4093 C 395.201 -5.26647 3.09978 0
M  V30 4094 C 396.199 -5.50679 4.04032 0
M  V30 4095 O 395.887 -6.10702 5.2278 0
M  V30 4096 H 395.619 -0.661292 0.140248 0
M  V30 4097 H 398.173 -1.77222 1.03834 0
M  V30 4098 H 396.403 -3.83918 -0.462983 0
M  V30 4099 H 398.092 -4.05763 -0.105581 0
M  V30 4100 H 398.858 -4.23048 2.37183 0
M  V30 4101 H 394.737 -4.45978 1.16725 0
M  V30 4102 H 398.281 -5.3221 4.50997 0
M  V30 4103 H 394.178 -5.54979 3.29649 0
M  V30 4104 H 394.946 -6.29183 5.23517 0
M  V30 4105 N 397.609 -0.515225 -1.4894 0
M  V30 4106 C 398.572 0.244681 -2.2789 0
M  V30 4107 C 399.572 0.881166 -1.34507 0
M  V30 4108 O 400.762 0.743497 -1.57537 0
M  V30 4109 C 397.894 1.35247 -3.12923 0
M  V30 4110 H 399.087 -0.448289 -2.96531 0
M  V30 4111 H 396.64 -0.270656 -1.53939 0
M  V30 4112 H 397.375 2.07916 -2.48881 0
M  V30 4113 H 397.16 0.901374 -3.81599 0
M  V30 4114 H 398.65 1.88737 -3.72516 0
M  V30 4115 N 399.087 1.5561 -0.249682 0
M  V30 4116 C 400.312 2.03865 0.381305 0
M  V30 4117 C 400.737 1.12769 1.50548 0
M  V30 4118 O 400.095 0.121189 1.80895 0
M  V30 4119 C 400.143 3.50101 0.863816 0
M  V30 4120 O 399.247 3.62132 1.97318 0
M  V30 4121 H 398.588 0.658827 0.0827194 0
M  V30 4122 H 401.118 2.01105 -0.376552 0
M  V30 4123 H 401.128 3.90975 1.1663 0
M  V30 4124 H 399.803 4.1588 0.0411816 0
M  V30 4125 H 398.38 3.33155 1.67517 0
M  V30 4126 N 400.565 -0.0233959 1.57583 0
M  V30 4127 C 401.475 -1.03907 2.10334 0
M  V30 4128 C 402.491 -1.39257 1.04323 0
M  V30 4129 O 403.667 -1.48462 1.36091 0
M  V30 4130 C 400.732 -2.31938 2.57693 0
M  V30 4131 C 399.793 -2.03117 3.78209 0
M  V30 4132 C 399.026 -3.25043 4.233 0
M  V30 4133 O 399.249 -4.35916 3.67876 0
M  V30 4134 O 398.183 -3.10411 5.15683 0
M  V30 4135 H 402.009 -0.620748 2.97288 0
M  V30 4136 H 399.594 -0.240743 1.47448 0
M  V30 4137 H 401.476 -3.07196 2.88458 0
M  V30 4138 H 400.151 -2.73055 1.73847 0
M  V30 4139 H 399.058 -1.25408 3.52454 0
M  V30 4140 H 400.391 -1.66852 4.63056 0
M  V30 4141 N 402.043 -1.548 -0.295768 0
M  V30 4142 C 402.953 -1.89177 -1.38742 0
M  V30 4143 C 403.969 -0.786481 -1.55211 0
M  V30 4144 O 405.145 -1.08344 -1.69775 0
M  V30 4145 C 402.21 -2.13663 -2.73036 0
M  V30 4146 C 401.271 -3.37349 -2.65508 0
M  V30 4147 C 400.504 -3.60658 -3.93398 0
M  V30 4148 O 400.727 -2.86882 -4.93006 0
M  V30 4149 O 399.661 -4.54179 -3.94975 0
M  V30 4150 H 403.487 -2.82059 -1.12589 0
M  V30 4151 H 401.072 -1.41056 -0.492295 0
M  V30 4152 H 402.954 -2.3094 -3.52484 0
M  V30 4153 H 401.629 -1.23967 -2.99022 0
M  V30 4154 H 400.536 -3.25431 -1.84514 0
M  V30 4155 H 401.869 -4.27192 -2.44474 0
M  V30 4156 N 403.521 0.559213 -1.47345 0
M  V30 4157 C 404.769 1.31388 -1.53563 0
M  V30 4158 C 405.09 1.93985 -0.198678 0
M  V30 4159 O 404.36 1.79825 0.777167 0
M  V30 4160 H 402.94 0.487901 -0.565652 0
M  V30 4161 H 405.602 0.65315 -1.8363 0
M  V30 4162 H 404.698 2.10844 -2.30111 0
M  V30 4163 N 404.999 1.35443 0.805782 0
M  V30 4164 C 406.245 1.28952 1.56522 0
M  V30 4165 C 406.578 -0.135597 1.93726 0
M  V30 4166 O 405.853 -1.08516 1.61414 0
M  V30 4167 C 406.136 2.19678 2.85331 0
M  V30 4168 C 405.989 3.7081 2.54598 0
M  V30 4169 C 407.308 2.09495 3.8704 0
M  V30 4170 H 404.427 0.469764 0.567883 0
M  V30 4171 H 407.069 1.65851 0.927001 0
M  V30 4172 H 405.219 1.8834 3.39795 0
M  V30 4173 H 406.891 4.12593 2.06312 0
M  V30 4174 H 405.134 3.91051 1.8778 0
M  V30 4175 H 405.805 4.29679 3.46525 0
M  V30 4176 H 408.281 2.37045 3.41978 0
M  V30 4177 H 407.157 2.75173 4.74943 0
M  V30 4178 H 407.418 1.07714 4.28777 0
M  V30 4179 N 406.477 -1.02803 1.19454 0
M  V30 4180 C 407.407 -2.12999 0.956758 0
M  V30 4181 C 408.388 -1.69743 -0.110188 0
M  V30 4182 O 409.573 -1.94148 0.0450038 0
M  V30 4183 C 406.703 -3.43746 0.495553 0
M  V30 4184 C 405.657 -4.00688 1.50443 0
M  V30 4185 C 404.983 -5.27067 0.900275 0
M  V30 4186 C 406.283 -4.35397 2.8849 0
M  V30 4187 H 407.977 -2.33148 1.87836 0
M  V30 4188 H 405.523 -1.12045 0.904539 0
M  V30 4189 H 407.476 -4.2021 0.316493 0
M  V30 4190 H 406.2 -3.23321 -0.461646 0
M  V30 4191 H 404.859 -3.2632 1.67065 0
M  V30 4192 H 404.507 -5.02959 -0.064503 0
M  V30 4193 H 404.207 -5.66127 1.57397 0
M  V30 4194 H 405.731 -6.06196 0.73203 0
M  V30 4195 H 407.145 -5.02795 2.75446 0
M  V30 4196 H 405.542 -4.85541 3.52661 0
M  V30 4197 H 406.612 -3.44662 3.41081 0
M  V30 4198 N 407.956 -0.998596 -1.21925 0
M  V30 4199 C 408.866 -0.562736 -2.27751 0
M  V30 4200 C 409.882 0.391203 -1.69545 0
M  V30 4201 O 411.058 0.256625 -1.99758 0
M  V30 4202 C 408.123 0.11012 -3.46525 0
M  V30 4203 C 407.184 -0.887495 -4.20026 0
M  V30 4204 C 406.417 -0.246654 -5.3313 0
M  V30 4205 O 406.64 0.958088 -5.62296 0
M  V30 4206 O 405.574 -0.954374 -5.94286 0
M  V30 4207 H 409.4 -1.44329 -2.67213 0
M  V30 4208 H 406.985 -0.767135 -1.28201 0
M  V30 4209 H 408.867 0.486756 -4.18579 0
M  V30 4210 H 407.542 0.965154 -3.08976 0
M  V30 4211 H 406.449 -1.31517 -3.5022 0
M  V30 4212 H 407.782 -1.71191 -4.6147 0
M  V30 4213 N 409.434 1.37368 -0.772513 0
M  V30 4214 C 410.682 1.99279 -0.336516 0
M  V30 4215 C 411.003 1.6163 1.09091 0
M  V30 4216 O 410.273 0.882109 1.74916 0
M  V30 4217 H 408.853 0.737063 -0.121435 0
M  V30 4218 H 411.515 1.67836 -0.990809 0
M  V30 4219 H 410.611 3.09332 -0.414763 0
M  V30 4220 N 410.912 0.523116 1.48665 0
M  V30 4221 C 412.161 -0.01544 2.01694 0
M  V30 4222 C 412.474 -1.35975 1.40606 0
M  V30 4223 O 413.68 -1.98627 1.85093 0
M  V30 4224 C 412.136 -0.0779303 3.59816 0
M  V30 4225 C 411.744 1.26107 4.29885 0
M  V30 4226 C 413.488 -0.565678 4.20714 0
M  V30 4227 C 411.395 1.15954 5.79921 0
M  V30 4228 H 410.325 -0.00954163 0.75394 0
M  V30 4229 H 412.976 0.665865 1.70993 0
M  V30 4230 H 411.358 -0.824165 3.87329 0
M  V30 4231 H 412.532 2.02233 4.14051 0
M  V30 4232 H 410.847 1.68401 3.80828 0
M  V30 4233 H 413.444 -0.6595 5.30617 0
M  V30 4234 H 413.787 -1.56984 3.85567 0
M  V30 4235 H 414.32 0.12467 3.97605 0
M  V30 4236 H 411.059 2.13864 6.19631 0
M  V30 4237 H 410.579 0.439529 5.98187 0
M  V30 4238 H 412.258 0.847361 6.41427 0
M  V30 4239 N 412.39 -1.55475 0.257931 0
M  V30 4240 C 413.337 -2.21837 -0.636939 0
M  V30 4241 C 414.307 -1.18596 -1.16294 0
M  V30 4242 O 415.492 -1.47081 -1.21539 0
M  V30 4243 C 412.632 -2.9301 -1.82317 0
M  V30 4244 C 411.745 -4.10931 -1.33265 0
M  V30 4245 C 410.88 -4.69791 -2.47931 0
M  V30 4246 C 409.919 -5.7994 -1.95796 0
M  V30 4247 N 409.056 -6.32935 -3.0387 0
M  V30 4248 H 413.896 -2.9793 -0.0643591 0
M  V30 4249 H 411.433 -1.47086 -0.0200031 0
M  V30 4250 H 413.391 -3.3248 -2.52018 0
M  V30 4251 H 412.021 -2.1937 -2.36805 0
M  V30 4252 H 411.073 -3.76699 -0.52931 0
M  V30 4253 H 412.385 -4.90417 -0.910654 0
M  V30 4254 H 411.539 -5.11892 -3.25656 0
M  V30 4255 H 410.278 -3.89545 -2.93438 0
M  V30 4256 H 409.283 -5.37305 -1.16546 0
M  V30 4257 H 410.508 -6.62043 -1.51246 0
M  V30 4258 H 408.454 -5.55591 -3.48791 0
M  V30 4259 H 408.371 -7.07645 -2.66035 0
M  V30 4260 H 409.639 -6.79695 -3.81621 0
M  V30 4261 N 413.868 0.0150385 -1.57593 0
M  V30 4262 C 414.815 1.01126 -2.07466 0
M  V30 4263 C 415.785 1.35064 -0.966794 0
M  V30 4264 O 416.97 1.4516 -1.23827 0
M  V30 4265 C 414.11 2.30276 -2.57035 0
M  V30 4266 C 413.223 2.02373 -3.81666 0
M  V30 4267 C 412.358 3.25496 -4.19793 0
M  V30 4268 C 411.397 2.93211 -5.37303 0
M  V30 4269 N 410.534 4.08826 -5.70794 0
M  V30 4270 H 415.374 0.57901 -2.92321 0
M  V30 4271 H 412.911 0.27426 -1.44521 0
M  V30 4272 H 414.869 3.05757 -2.83846 0
M  V30 4273 H 413.499 2.71197 -1.75077 0
M  V30 4274 H 412.551 1.17327 -3.61854 0
M  V30 4275 H 413.863 1.74567 -4.67256 0
M  V30 4276 H 413.017 4.09333 -4.47807 0
M  V30 4277 H 411.756 3.56428 -3.32882 0
M  V30 4278 H 410.761 2.07777 -5.09027 0
M  V30 4279 H 411.986 2.63542 -6.25877 0
M  V30 4280 H 409.932 4.39682 -4.86842 0
M  V30 4281 H 409.849 3.84491 -6.50924 0
M  V30 4282 H 411.117 4.93496 -6.03392 0
M  V30 4283 N 415.346 1.54954 0.287554 0
M  V30 4284 C 416.576 1.78622 1.03816 0
M  V30 4285 C 416.984 0.552451 1.80955 0
M  V30 4286 O 416.327 -0.487665 1.77109 0
M  V30 4287 C 416.389 2.94975 2.055 0
M  V30 4288 C 416.053 4.32565 1.47433 0
M  V30 4289 C 417.05 5.12096 0.897436 0
M  V30 4290 C 414.735 4.79195 1.50591 0
M  V30 4291 C 416.729 6.36383 0.359851 0
M  V30 4292 C 414.416 6.03441 0.964459 0
M  V30 4293 C 415.414 6.81872 0.392413 0
M  V30 4294 O 415.102 8.03777 -0.140788 0
M  V30 4295 H 414.834 0.599144 0.313053 0
M  V30 4296 H 417.388 2.02761 0.328225 0
M  V30 4297 H 415.618 2.66493 2.80211 0
M  V30 4298 H 417.307 3.06097 2.6657 0
M  V30 4299 H 418.073 4.77209 0.865841 0
M  V30 4300 H 413.952 4.18167 1.94055 0
M  V30 4301 H 417.496 6.97545 -0.0872951 0
M  V30 4302 H 413.393 6.37813 0.993246 0
M  V30 4303 H 414.161 8.18495 -0.0287617 0
M  V30 4304 N 416.824 -0.551391 1.4764 0
M  V30 4305 C 418.07 -1.31024 1.54792 0
M  V30 4306 C 418.403 -1.9304 0.211967 0
M  V30 4307 O 417.678 -1.78175 -0.77999 0
M  V30 4308 C 417.961 -2.41593 2.67029 0
M  V30 4309 C 417.814 -1.84408 4.10261 0
M  V30 4310 C 419.133 -3.43488 2.75143 0
M  V30 4311 H 416.252 -0.475031 0.563485 0
M  V30 4312 H 418.894 -0.616454 1.79722 0
M  V30 4313 H 417.044 -3.00772 2.45904 0
M  V30 4314 H 418.716 -1.29445 4.42766 0
M  V30 4315 H 416.959 -1.15051 4.18265 0
M  V30 4316 H 417.63 -2.64367 4.84576 0
M  V30 4317 H 420.106 -2.94236 2.94218 0
M  V30 4318 H 418.982 -4.18274 3.55441 0
M  V30 4319 H 419.243 -4.02703 1.82435 0
M  V30 4320 N 418.302 -1.35869 -0.798587 0
M  V30 4321 C 419.55 -1.29332 -1.55298 0
M  V30 4322 C 419.871 0.129729 -1.94568 0
M  V30 4323 O 419.141 1.06796 -1.6423 0
M  V30 4324 H 417.721 -0.475737 -0.57592 0
M  V30 4325 H 420.383 -1.70062 -0.952093 0
M  V30 4326 H 419.479 -1.91458 -2.46476 0
M  V30 4327 N 419.78 1.02168 -1.19998 0
M  V30 4328 C 420.713 2.10232 -0.887558 0
M  V30 4329 C 421.691 1.61827 0.158317 0
M  V30 4330 O 422.875 1.88471 0.0330249 0
M  V30 4331 C 420.002 3.37092 -0.32964 0
M  V30 4332 C 419.048 4.0438 -1.3557 0
M  V30 4333 S 419.881 4.48956 -2.91888 0
M  V30 4334 C 421.037 5.79024 -2.37658 0
M  V30 4335 H 421.27 2.36409 -1.80272 0
M  V30 4336 H 418.803 1.15211 -1.0279 0
M  V30 4337 H 420.761 4.10498 -0.0142824 0
M  V30 4338 H 419.422 3.08996 0.563941 0
M  V30 4339 H 418.615 4.95632 -0.9146 0
M  V30 4340 H 418.217 3.37176 -1.61828 0
M  V30 4341 H 420.509 6.53942 -1.77103 0
M  V30 4342 H 421.452 6.27924 -3.27287 0
M  V30 4343 H 421.86 5.35043 -1.79971 0
M  V30 4344 N 421.258 1.00505 1.21394 0
M  V30 4345 C 422.188 0.585684 2.26035 0
M  V30 4346 C 423.169 -0.393525 1.65485 0
M  V30 4347 O 424.354 -0.281497 1.92149 0
M  V30 4348 C 421.484 -0.0884283 3.47187 0
M  V30 4349 C 420.438 0.810567 4.20254 0
M  V30 4350 C 419.764 0.00286382 5.347 0
M  V30 4351 C 421.064 2.1132 4.77641 0
M  V30 4352 H 422.758 1.46039 2.61368 0
M  V30 4353 H 420.304 0.703648 1.25638 0
M  V30 4354 H 422.257 -0.393286 4.19561 0
M  V30 4355 H 420.981 -0.997766 3.10986 0
M  V30 4356 H 419.64 1.09925 3.49731 0
M  V30 4357 H 419.288 -0.907765 4.94741 0
M  V30 4358 H 418.988 0.601444 5.84514 0
M  V30 4359 H 420.512 -0.295808 6.09883 0
M  V30 4360 H 421.926 1.87148 5.41893 0
M  V30 4361 H 420.323 2.66164 5.37845 0
M  V30 4362 H 421.393 2.78393 3.9702 0
M  V30 4363 N 422.737 -1.36956 0.779787 0
M  V30 4364 C 424.148 -1.82094 0.412156 0
M  V30 4365 C 424.499 -1.64926 -1.06273 0
M  V30 4366 O 423.624 -1.16483 -1.82375 0
M  V30 4367 C 424.219 -3.3059 0.741319 0
M  V30 4368 C 422.778 -3.73974 0.426641 0
M  V30 4369 C 421.925 -2.59368 0.980987 0
M  V30 4370 H 424.876 -1.25314 0.973758 0
M  V30 4371 H 424.897 -3.80489 0.028887 0
M  V30 4372 H 424.409 -3.43054 1.81482 0
M  V30 4373 H 422.51 -3.67076 -0.639215 0
M  V30 4374 H 422.623 -4.69778 0.940515 0
M  V30 4375 H 420.987 -2.51463 0.404757 0
M  V30 4376 H 421.77 -2.74621 2.06005 0
M  V30 4377 N 424.215 -0.530993 -1.48385 0
M  V30 4378 C 425.162 0.231223 -2.29639 0
M  V30 4379 C 426.132 0.932864 -1.37429 0
M  V30 4380 O 427.317 0.933692 -1.66394 0
M  V30 4381 C 424.457 1.27155 -3.2082 0
M  V30 4382 C 423.57 0.578655 -4.28107 0
M  V30 4383 C 422.705 1.602 -5.06467 0
M  V30 4384 C 421.744 0.892625 -6.05556 0
M  V30 4385 N 420.881 1.86157 -6.76971 0
M  V30 4386 H 425.721 -0.467848 -2.94305 0
M  V30 4387 H 423.258 -0.242556 -1.45086 0
M  V30 4388 H 425.216 1.88703 -3.72085 0
M  V30 4389 H 423.846 1.939 -2.58075 0
M  V30 4390 H 422.898 -0.150782 -3.80101 0
M  V30 4391 H 424.21 0.0217065 -4.98795 0
M  V30 4392 H 423.364 2.29173 -5.61751 0
M  V30 4393 H 422.103 2.19285 -4.35621 0
M  V30 4394 H 421.108 0.188829 -5.49476 0
M  V30 4395 H 422.333 0.307878 -6.78402 0
M  V30 4396 H 420.279 2.44147 -6.08875 0
M  V30 4397 H 420.196 1.35608 -7.43738 0
M  V30 4398 H 421.464 2.54325 -7.36844 0
M  V30 4399 N 425.693 1.55336 -0.266172 0
M  V30 4400 C 426.923 2.03506 0.356239 0
M  V30 4401 C 427.331 1.14426 1.50676 0
M  V30 4402 O 426.674 0.155043 1.83045 0
M  V30 4403 C 426.736 3.47848 0.90785 0
M  V30 4404 C 426.4 4.56861 -0.112888 0
M  V30 4405 C 427.397 5.11528 -0.929264 0
M  V30 4406 C 425.082 5.01704 -0.244546 0
M  V30 4407 C 427.076 6.09549 -1.86357 0
M  V30 4408 C 424.763 5.99553 -1.18234 0
M  V30 4409 C 425.761 6.53356 -1.99036 0
M  V30 4410 O 425.449 7.49293 -2.91231 0
M  V30 4411 H 425.181 0.670444 0.08649 0
M  V30 4412 H 427.735 2.01598 -0.39337 0
M  V30 4413 H 425.965 3.46967 1.70737 0
M  V30 4414 H 427.654 3.79407 1.44239 0
M  V30 4415 H 428.42 4.77701 -0.838237 0
M  V30 4416 H 424.299 4.59477 0.374359 0
M  V30 4417 H 427.843 6.51469 -2.49467 0
M  V30 4418 H 423.74 6.32799 -1.27421 0
M  V30 4419 H 424.508 7.66978 -2.8581 0
M  V30 4420 N 427.171 -0.0066808 1.57599 0
M  V30 4421 C 428.448 -0.729586 1.81484 0
M  V30 4422 C 428.828 -1.92359 0.869558 0
M  V30 4423 O 428.176 -2.28348 -0.0832533 0
M  V30 4424 C 428.386 -1.1416 3.29801 0
M  V30 4425 C 429.734 -1.54823 3.95367 0
M  V30 4426 O 430.758 -1.23558 3.34084 0
M  V30 4427 O 429.617 -2.12937 5.03309 0
M  V30 4428 H 426.711 -0.354674 0.747085 0
M  V30 4429 H 429.257 0.0182609 1.6969 0
M  V30 4430 H 428.029 -0.290231 3.90222 0
M  V30 4431 H 427.652 -1.94876 3.46568 0
M  V30 4432 N 428.649 -1.55105 -0.279332 0
M  V30 4433 C 430.06 -1.66186 -0.850832 0
M  V30 4434 C 430.411 -0.584707 -1.87285 0
M  V30 4435 O 429.536 0.274919 -2.14647 0
M  V30 4436 C 430.131 -3.01264 -1.55001 0
M  V30 4437 C 428.69 -3.14394 -2.06963 0
M  V30 4438 C 427.837 -2.61959 -0.909536 0
M  V30 4439 H 430.788 -1.58602 -0.0558235 0
M  V30 4440 H 430.809 -2.93899 -2.41669 0
M  V30 4441 H 430.321 -3.7964 -0.805931 0
M  V30 4442 H 428.422 -2.4078 -2.84352 0
M  V30 4443 H 428.535 -4.20867 -2.28928 0
M  V30 4444 H 426.899 -2.18957 -1.30116 0
M  V30 4445 H 427.682 -3.42833 -0.179062 0
M  V30 4446 N 430.127 0.543554 -1.4793 0
M  V30 4447 C 431.037 1.67657 -1.64098 0
M  V30 4448 C 432.053 1.65934 -0.523622 0
M  V30 4449 O 433.229 1.85133 -0.792943 0
M  V30 4450 C 430.294 3.04146 -1.66421 0
M  V30 4451 C 429.355 3.16831 -2.89684 0
M  V30 4452 C 428.588 4.46809 -2.91886 0
M  V30 4453 O 428.811 5.33095 -2.02895 0
M  V30 4454 O 427.745 4.63573 -3.83906 0
M  V30 4455 H 431.571 1.56957 -2.59997 0
M  V30 4456 H 429.156 0.715116 -1.31173 0
M  V30 4457 H 431.038 3.85346 -1.70548 0
M  V30 4458 H 429.713 3.152 -0.736923 0
M  V30 4459 H 428.62 2.34977 -2.91095 0
M  V30 4460 H 429.953 3.10687 -3.81752 0
M  V30 4461 N 431.605 1.3629 0.791371 0
M  V30 4462 C 432.852 1.30412 1.54916 0
M  V30 4463 C 433.18 -0.117162 1.94147 0
M  V30 4464 O 432.435 -1.08599 1.62803 0
M  V30 4465 C 432.734 2.17068 2.8393 0
M  V30 4466 C 432.4 3.65645 2.63846 0
M  V30 4467 C 431.062 4.0614 2.58077 0
M  V30 4468 C 433.414 4.59855 2.45322 0
M  V30 4469 C 430.742 5.3899 2.31748 0
M  V30 4470 C 433.094 5.9292 2.2052 0
M  V30 4471 C 431.758 6.32542 2.13183 0
M  V30 4472 H 431.028 0.47721 0.566879 0
M  V30 4473 H 433.675 1.68325 0.913172 0
M  V30 4474 H 431.98 1.72085 3.51986 0
M  V30 4475 H 433.677 2.09846 3.4171 0
M  V30 4476 H 430.267 3.33518 2.69191 0
M  V30 4477 H 434.451 4.29443 2.48782 0
M  V30 4478 H 429.707 5.68672 2.24548 0
M  V30 4479 H 433.881 6.65487 2.05182 0
M  V30 4480 H 431.508 7.35412 1.92544 0
M  V30 4481 N 433.083 -1.0153 1.20538 0
M  V30 4482 C 434.33 -1.75149 1.01633 0
M  V30 4483 C 434.658 -1.89189 -0.451399 0
M  V30 4484 O 433.913 -1.41551 -1.35136 0
M  V30 4485 C 434.212 -3.17213 1.64654 0
M  V30 4486 C 433.878 -3.23146 3.14464 0
M  V30 4487 C 432.54 -3.24472 3.55347 0
M  V30 4488 C 434.892 -3.21207 4.10458 0
M  V30 4489 C 432.22 -3.21532 4.90748 0
M  V30 4490 C 434.572 -3.19808 5.45807 0
M  V30 4491 C 433.236 -3.19439 5.86102 0
M  V30 4492 H 432.506 -0.640914 0.3719 0
M  V30 4493 H 435.153 -1.19071 1.49981 0
M  V30 4494 H 433.458 -3.76457 1.08571 0
M  V30 4495 H 435.155 -3.72871 1.4754 0
M  V30 4496 H 431.745 -3.2285 2.81897 0
M  V30 4497 H 435.929 -3.19351 3.79906 0
M  V30 4498 H 431.185 -3.19578 5.21229 0
M  V30 4499 H 435.359 -3.1726 6.19935 0
M  V30 4500 H 432.986 -3.16915 6.90991 0
M  V30 4501 N 434.561 -1.01147 -1.20859 0
M  V30 4502 C 435.977 -0.725422 -1.42161 0
M  V30 4503 C 436.177 0.696919 -1.89064 0
M  V30 4504 O 435.233 1.46539 -2.05627 0
M  V30 4505 C 436.546 -1.74678 -2.44761 0
M  V30 4506 C 438.094 -1.76433 -2.58535 0
M  V30 4507 C 438.569 -2.77481 -3.64374 0
M  V30 4508 N 440.06 -2.76189 -3.71852 0
M  V30 4509 C 440.795 -3.51035 -4.53389 0
M  V30 4510 N 440.291 -4.35541 -5.38773 0
M  V30 4511 N 442.084 -3.39655 -4.47873 0
M  V30 4512 H 434.235 -1.92979 -0.887282 0
M  V30 4513 H 436.498 -0.833327 -0.451962 0
M  V30 4514 H 436.204 -2.76551 -2.17285 0
M  V30 4515 H 436.078 -1.55472 -3.43669 0
M  V30 4516 H 438.465 -0.75248 -2.85345 0
M  V30 4517 H 438.546 -1.99712 -1.5984 0
M  V30 4518 H 438.19 -3.78827 -3.38308 0
M  V30 4519 H 438.12 -2.51466 -4.6268 0
M  V30 4520 H 440.611 -2.14885 -3.10858 0
M  V30 4521 H 440.924 -4.89432 -5.98061 0
M  V30 4522 H 439.269 -4.39621 -5.38292 0
M  V30 4523 H 442.46 -2.73063 -3.80203 0
M  V30 4524 H 442.633 -3.9824 -5.11184 0
M  V30 4525 N 436.039 1.36541 -0.78704 0
M  V30 4526 C 437.285 1.99599 -0.358872 0
M  V30 4527 C 437.618 1.62323 1.06606 0
M  V30 4528 O 436.893 0.876858 1.73613 0
M  V30 4529 C 437.176 3.56327 -0.519944 0
M  V30 4530 C 437.029 4.03464 -1.98839 0
M  V30 4531 C 438.348 4.4005 0.0664737 0
M  V30 4532 H 435.467 0.725107 -0.131869 0
M  V30 4533 H 438.109 1.6199 -0.992936 0
M  V30 4534 H 436.259 3.88495 0.0198321 0
M  V30 4535 H 437.931 3.81793 -2.58905 0
M  V30 4536 H 436.174 3.55092 -2.49183 0
M  V30 4537 H 436.845 5.12439 -2.05207 0
M  V30 4538 H 439.321 4.14228 -0.394267 0
M  V30 4539 H 438.197 5.48847 -0.0762682 0
M  V30 4540 H 438.458 4.26655 1.15835 0
M  V30 4541 N 437.518 0.538854 1.48102 0
M  V30 4542 C 438.795 -0.0568108 1.95517 0
M  V30 4543 C 439.175 -1.50408 1.48124 0
M  V30 4544 O 438.523 -2.17133 0.711727 0
M  V30 4545 C 438.733 0.0696262 3.48931 0
M  V30 4546 C 440.081 -0.0851202 4.24515 0
M  V30 4547 O 441.105 -0.0037347 3.562 0
M  V30 4548 O 439.964 -0.257025 5.45895 0
M  V30 4549 H 437.058 -0.0743695 0.823649 0
M  V30 4550 H 439.604 0.604081 1.58584 0
M  V30 4551 H 438.376 1.07744 3.76174 0
M  V30 4552 H 437.999 -0.629714 3.92582 0
M  V30 4553 N 438.996 -1.55193 0.274407 0
M  V30 4554 C 440.273 -1.91584 -0.394331 0
M  V30 4555 C 440.653 -1.19858 -1.73774 0
M  V30 4556 O 440.001 -0.3252 -2.26174 0
M  V30 4557 C 440.211 -3.4487 -0.535311 0
M  V30 4558 C 441.559 -4.16636 -0.818534 0
M  V30 4559 O 442.583 -3.5076 -0.620146 0
M  V30 4560 O 441.442 -5.33209 -1.19792 0
M  V30 4561 H 438.536 -0.798349 -0.215794 0
M  V30 4562 H 441.082 -1.66646 0.320507 0
M  V30 4563 H 439.854 -3.89145 0.410141 0
M  V30 4564 H 439.477 -3.75759 -1.29964 0
M  V30 4565 N 440.474 -0.00167713 -1.576 0
M  V30 4566 C 441.885 0.54091 -1.78693 0
M  V30 4567 C 442.236 1.7386 -0.909247 0
M  V30 4568 O 441.361 2.16109 -0.112176 0
M  V30 4569 C 441.956 0.98806 -3.24072 0
M  V30 4570 C 440.515 1.47594 -3.46256 0
M  V30 4571 C 439.662 0.42792 -2.73978 0
M  V30 4572 H 442.613 -0.22784 -1.57056 0
M  V30 4573 H 442.634 1.85398 -3.32277 0
M  V30 4574 H 442.146 0.116164 -3.87926 0
M  V30 4575 H 440.247 2.36868 -2.87618 0
M  V30 4576 H 440.36 1.50225 -4.54939 0
M  V30 4577 H 438.724 0.889934 -2.38647 0
M  V30 4578 H 439.507 -0.435038 -3.40532 0
M  V30 4579 N 441.952 1.55251 0.271103 0
M  V30 4580 C 442.899 1.88261 1.33516 0
M  V30 4581 C 443.869 0.734296 1.48988 0
M  V30 4582 O 445.054 0.985741 1.63364 0
M  V30 4583 C 442.194 2.16168 2.69008 0
M  V30 4584 C 441.307 3.43678 2.61743 0
M  V30 4585 C 440.442 3.61276 3.89427 0
M  V30 4586 C 439.481 4.82472 3.7668 0
M  V30 4587 N 438.618 4.96717 4.96202 0
M  V30 4588 H 443.458 2.79015 1.04665 0
M  V30 4589 H 440.995 1.38137 0.505618 0
M  V30 4590 H 442.953 2.30349 3.47844 0
M  V30 4591 H 441.583 1.28646 2.96057 0
M  V30 4592 H 440.635 3.37959 1.74607 0
M  V30 4593 H 441.947 4.3265 2.48224 0
M  V30 4594 H 441.101 3.75284 4.76704 0
M  V30 4595 H 439.84 2.70492 4.05814 0
M  V30 4596 H 438.845 4.68465 2.87786 0
M  V30 4597 H 440.07 5.74692 3.61809 0
M  V30 4598 H 438.016 4.08865 5.12997 0
M  V30 4599 H 437.933 5.79738 4.85222 0
M  V30 4600 H 439.201 5.15113 5.85046 0
M  V30 4601 N 443.43 -0.535701 1.48216 0
M  V30 4602 C 444.393 -1.623 1.61838 0
M  V30 4603 C 445.393 -1.53087 0.492024 0
M  V30 4604 O 446.583 -1.5686 0.757668 0
M  V30 4605 C 443.715 -3.01907 1.58319 0
M  V30 4606 H 444.908 -1.51564 2.58783 0
M  V30 4607 H 442.461 -0.757317 1.36727 0
M  V30 4608 H 443.196 -3.18155 0.628299 0
M  V30 4609 H 442.981 -3.10003 2.40085 0
M  V30 4610 H 444.471 -3.80969 1.71033 0
M  V30 4611 N 444.908 -1.36708 -0.784132 0
M  V30 4612 C 446.319 -1.27947 -1.35965 0
M  V30 4613 C 446.67 0.0784013 -1.96043 0
M  V30 4614 O 445.795 0.979989 -1.92938 0
M  V30 4615 C 446.39 -2.31689 -2.47195 0
M  V30 4616 C 444.949 -2.26601 -3.00548 0
M  V30 4617 C 444.096 -2.16184 -1.73666 0
M  V30 4618 H 447.047 -1.4751 -0.585358 0
M  V30 4619 H 447.068 -1.95638 -3.26352 0
M  V30 4620 H 446.58 -3.30506 -2.03439 0
M  V30 4621 H 444.681 -1.31268 -3.48711 0
M  V30 4622 H 444.794 -3.19508 -3.57004 0
M  V30 4623 H 443.158 -1.62524 -1.96107 0
M  V30 4624 H 443.941 -3.16896 -1.32031 0
M  V30 4625 N 446.386 1.0089 -1.21074 0
M  V30 4626 C 447.349 2.0775 -0.968129 0
M  V30 4627 C 448.349 1.6069 0.0593445 0
M  V30 4628 O 449.539 1.73293 -0.177525 0
M  V30 4629 C 446.671 3.37794 -0.459108 0
M  V30 4630 H 447.864 2.30707 -1.9161 0
M  V30 4631 H 445.417 1.17807 -1.02719 0
M  V30 4632 H 446.152 3.20516 0.49397 0
M  V30 4633 H 445.937 3.7328 -1.20019 0
M  V30 4634 H 447.427 4.16454 -0.309099 0
M  V30 4635 N 447.864 1.01787 1.20321 0
M  V30 4636 C 449.111 0.707936 1.89722 0
M  V30 4637 C 449.439 -0.762535 1.78929 0
M  V30 4638 O 448.694 -1.56977 1.16861 0
M  V30 4639 C 448.993 1.09076 3.40349 0
M  V30 4640 C 448.659 2.55765 3.71342 0
M  V30 4641 C 447.321 2.95845 3.79511 0
M  V30 4642 C 449.673 3.50723 3.85542 0
M  V30 4643 C 447.001 4.2982 3.99339 0
M  V30 4644 C 449.353 4.84387 4.06881 0
M  V30 4645 C 448.017 5.24172 4.1328 0
M  V30 4646 H 447.287 0.259052 0.694243 0
M  V30 4647 H 449.934 1.27868 1.42555 0
M  V30 4648 H 448.239 0.438453 3.89339 0
M  V30 4649 H 449.936 0.828636 3.92345 0
M  V30 4650 H 446.526 2.2371 3.65584 0
M  V30 4651 H 450.71 3.20916 3.78585 0
M  V30 4652 H 445.966 4.60196 4.02529 0
M  V30 4653 H 450.14 5.57891 4.1681 0
M  V30 4654 H 447.767 6.27997 4.28396 0
M  V30 4655 N 449.342 -1.36122 0.79427 0
M  V30 4656 C 450.753 -1.81646 0.431446 0
M  V30 4657 C 451.104 -1.66043 -1.04518 0
M  V30 4658 O 450.229 -1.1841 -1.8113 0
M  V30 4659 C 450.824 -3.29785 0.776341 0
M  V30 4660 C 449.383 -3.73501 0.466282 0
M  V30 4661 C 448.53 -2.58313 1.00844 0
M  V30 4662 H 451.481 -1.24274 0.986995 0
M  V30 4663 H 451.502 -3.80437 0.0692413 0
M  V30 4664 H 451.014 -3.4111 1.8511 0
M  V30 4665 H 449.115 -3.67733 -0.600245 0
M  V30 4666 H 449.228 -4.68754 0.990288 0
M  V30 4667 H 447.592 -2.5102 0.431406 0
M  V30 4668 H 448.375 -2.72421 2.08906 0
M  V30 4669 N 450.82 -0.546701 -1.47814 0
M  V30 4670 C 451.783 0.196287 -2.28358 0
M  V30 4671 C 452.783 0.852437 -1.36346 0
M  V30 4672 O 453.973 0.709913 -1.59078 0
M  V30 4673 C 451.105 1.28579 -3.15722 0
M  V30 4674 H 452.298 -0.511086 -2.95513 0
M  V30 4675 H 449.851 -0.303248 -1.5333 0
M  V30 4676 H 450.586 2.0259 -2.53235 0
M  V30 4677 H 450.371 0.820229 -3.83425 0
M  V30 4678 H 451.861 1.80793 -3.76435 0
M  V30 4679 N 452.299 1.55045 -0.282633 0
M  V30 4680 C 453.576 1.9179 0.384166 0
M  V30 4681 C 453.956 1.20778 1.73136 0
M  V30 4682 O 453.304 0.33719 2.25998 0
M  V30 4683 C 453.514 3.45149 0.517014 0
M  V30 4684 C 454.862 4.17064 0.796427 0
M  V30 4685 O 455.886 3.51084 0.601535 0
M  V30 4686 O 454.745 5.33837 1.16962 0
M  V30 4687 H 451.839 0.799483 0.211558 0
M  V30 4688 H 454.385 1.66474 -0.32934 0
M  V30 4689 H 453.157 3.88922 -0.430772 0
M  V30 4690 H 452.78 3.76443 1.2797 0
M  V30 4691 N 453.777 0.010035 1.57597 0
M  V30 4692 C 455.054 -0.710296 1.82248 0
M  V30 4693 C 455.434 -1.91426 0.889911 0
M  V30 4694 O 454.782 -2.28424 -0.0590292 0
M  V30 4695 C 454.992 -1.10655 3.30993 0
M  V30 4696 C 456.34 -1.50621 3.96987 0
M  V30 4697 O 457.364 -1.20007 3.35375 0
M  V30 4698 O 456.223 -2.07587 5.05539 0
M  V30 4699 H 453.317 -0.34673 0.750804 0
M  V30 4700 H 455.863 0.0362578 1.69661 0
M  V30 4701 H 454.635 -0.248826 3.90508 0
M  V30 4702 H 454.258 -1.91189 3.48615 0
M  V30 4703 N 455.255 -1.55392 -0.262866 0
M  V30 4704 C 456.185 -1.91978 -1.32917 0
M  V30 4705 C 457.166 -0.7828 -1.51017 0
M  V30 4706 O 458.351 -1.04178 -1.63892 0
M  V30 4707 C 455.481 -2.20055 -2.68687 0
M  V30 4708 C 454.435 -3.35854 -2.65304 0
M  V30 4709 C 453.761 -3.49435 -4.04721 0
M  V30 4710 C 455.061 -4.71977 -2.23685 0
M  V30 4711 H 456.755 -2.81292 -1.02544 0
M  V30 4712 H 454.301 -1.3534 -0.491846 0
M  V30 4713 H 456.254 -2.44237 -3.43404 0
M  V30 4714 H 454.978 -1.27551 -3.00663 0
M  V30 4715 H 453.637 -3.11655 -1.93045 0
M  V30 4716 H 453.285 -2.54379 -4.33936 0
M  V30 4717 H 452.985 -4.27297 -4.0335 0
M  V30 4718 H 454.509 -3.7592 -4.81161 0
M  V30 4719 H 455.923 -4.95637 -2.88127 0
M  V30 4720 H 454.32 -5.52828 -2.33456 0
M  V30 4721 H 455.39 -4.70115 -1.18827 0
M  V30 4722 N 456.733 0.527833 -1.48498 0
M  V30 4723 C 457.963 1.30633 -1.60058 0
M  V30 4724 C 458.371 1.87394 -0.260786 0
M  V30 4725 O 457.714 1.67227 0.760317 0
M  V30 4726 C 457.776 2.49361 -2.58958 0
M  V30 4727 C 457.44 2.13671 -4.03972 0
M  V30 4728 C 458.437 1.69217 -4.91591 0
M  V30 4729 C 456.122 2.24129 -4.49524 0
M  V30 4730 C 458.116 1.35689 -6.2279 0
M  V30 4731 C 455.803 1.90212 -5.80743 0
M  V30 4732 C 456.801 1.46063 -6.67199 0
M  V30 4733 O 456.489 1.12593 -7.95976 0
M  V30 4734 H 456.221 0.403444 -0.54241 0
M  V30 4735 H 458.775 0.643233 -1.95068 0
M  V30 4736 H 457.005 3.18659 -2.19073 0
M  V30 4737 H 458.694 3.11421 -2.6033 0
M  V30 4738 H 459.46 1.60607 -4.57636 0
M  V30 4739 H 455.339 2.57447 -3.82416 0
M  V30 4740 H 458.883 1.01157 -6.90227 0
M  V30 4741 H 454.78 1.98464 -6.14233 0
M  V30 4742 H 455.548 1.25972 -8.08748 0
M  V30 4743 N 458.211 1.37122 0.776871 0
M  V30 4744 C 459.436 1.354 1.57104 0
M  V30 4745 C 459.861 -0.0595562 1.88006 0
M  V30 4746 O 459.219 -1.03514 1.48844 0
M  V30 4747 C 459.267 2.19472 2.8612 0
M  V30 4748 O 458.371 1.59582 3.80273 0
M  V30 4749 H 457.712 0.462869 0.476076 0
M  V30 4750 H 460.242 1.80577 0.961932 0
M  V30 4751 H 460.252 2.32502 3.35271 0
M  V30 4752 H 458.927 3.22222 2.62956 0
M  V30 4753 H 457.504 1.55564 3.38902 0
M  V30 4754 N 459.689 -1.00246 1.21608 0
M  V30 4755 C 460.622 -2.08794 0.920892 0
M  V30 4756 C 461.6 -1.62059 -0.132552 0
M  V30 4757 O 462.784 -1.885 -0.0030366 0
M  V30 4758 C 459.911 -3.36525 0.383226 0
M  V30 4759 C 458.957 -4.02172 1.41987 0
M  V30 4760 S 459.79 -4.44256 2.98994 0
M  V30 4761 C 460.946 -5.7517 2.4684 0
M  V30 4762 H 461.179 -2.33511 1.8401 0
M  V30 4763 H 458.712 -1.13562 1.04609 0
M  V30 4764 H 460.67 -4.10423 0.0795871 0
M  V30 4765 H 459.331 -3.09854 -0.514711 0
M  V30 4766 H 458.524 -4.94114 0.993335 0
M  V30 4767 H 458.126 -3.34559 1.67171 0
M  V30 4768 H 460.418 -6.51042 1.87484 0
M  V30 4769 H 461.361 -6.22638 3.37235 0
M  V30 4770 H 461.769 -5.32112 1.88461 0
M  V30 4771 N 461.167 -1.02423 -1.1978 0
M  V30 4772 C 462.413 -0.719051 -1.89625 0
M  V30 4773 C 462.746 0.750083 -1.7913 0
M  V30 4774 O 462.021 1.54574 -1.18056 0
M  V30 4775 C 462.304 -1.16499 -3.40735 0
M  V30 4776 C 462.157 -2.695 -3.60125 0
M  V30 4777 C 463.476 -0.742166 -4.33797 0
M  V30 4778 H 460.595 -0.26269 -0.688595 0
M  V30 4779 H 463.237 -1.27333 -1.41018 0
M  V30 4780 H 461.387 -0.69341 -3.82262 0
M  V30 4781 H 463.059 -3.24569 -3.278 0
M  V30 4782 H 461.302 -3.10113 -3.03336 0
M  V30 4783 H 461.973 -2.95757 -4.66081 0
M  V30 4784 H 464.449 -1.1477 -3.99959 0
M  V30 4785 H 463.325 -1.08213 -5.38127 0
M  V30 4786 H 463.586 0.355747 -4.40666 0
M  V30 4787 N 462.645 1.35699 -0.801477 0
M  V30 4788 C 464.056 1.81415 -0.441073 0
M  V30 4789 C 464.407 1.66595 1.03636 0
M  V30 4790 O 463.532 1.19369 1.80499 0
M  V30 4791 C 464.127 3.29369 -0.793819 0
M  V30 4792 C 462.686 3.73248 -0.486083 0
M  V30 4793 C 461.833 2.57775 -1.02213 0
M  V30 4794 H 464.784 1.23749 -0.993572 0
M  V30 4795 H 464.805 3.80395 -0.0894158 0
M  V30 4796 H 464.317 3.40123 -1.86917 0
M  V30 4797 H 462.418 3.68046 0.580735 0
M  V30 4798 H 462.531 4.68222 -1.01513 0
M  V30 4799 H 460.895 2.50788 -0.444712 0
M  V30 4800 H 461.678 2.71309 -2.10348 0
M  V30 4801 N 464.123 0.554532 1.47522 0
M  V30 4802 C 465.053 -0.182974 2.32782 0
M  V30 4803 C 466.034 -0.911377 1.43624 0
M  V30 4804 O 467.219 -0.892366 1.72483 0
M  V30 4805 C 464.349 -1.21513 3.25349 0
M  V30 4806 C 463.303 -0.603355 4.23726 0
M  V30 4807 C 462.629 -1.73995 5.05598 0
M  V30 4808 C 463.929 0.441121 5.20434 0
M  V30 4809 H 465.623 0.52882 2.94693 0
M  V30 4810 H 463.169 0.255759 1.41711 0
M  V30 4811 H 465.122 -1.73922 3.83835 0
M  V30 4812 H 463.846 -1.95683 2.61487 0
M  V30 4813 H 462.505 -0.10059 3.66462 0
M  V30 4814 H 462.153 -2.47063 4.38143 0
M  V30 4815 H 461.853 -1.3364 5.72201 0
M  V30 4816 H 463.377 -2.26735 5.66942 0
M  V30 4817 H 464.791 0.00319931 5.733 0
M  V30 4818 H 463.188 0.763402 5.95224 0
M  V30 4819 H 464.258 1.33799 4.66075 0
M  V30 4820 N 465.601 -1.54893 0.290851 0
M  V30 4821 C 466.549 -2.24579 -0.605576 0
M  V30 4822 C 467.543 -1.24824 -1.14522 0
M  V30 4823 O 468.749 -1.42706 -1.09704 0
M  V30 4824 H 465.124 -0.720946 -0.213872 0
M  V30 4825 H 467.095 -2.984 0.0048173 0
M  V30 4826 C 465.844 -2.99224 -1.77088 0
M  V30 4827 H 465.167 -3.75782 -1.36484 0
M  V30 4828 H 466.607 -3.51281 -2.3744 0
M  V30 4829 C 465.066 -2.05602 -2.66888 0
M  V30 4830 O 465.596 -1.61745 -3.67698 0
M  V30 4831 N 463.802 -1.71771 -2.34399 0
M  V30 4832 H 463.349 -2.07633 -1.52468 0
M  V30 4833 H 463.307 -1.09403 -2.94751 0
M  V30 4834 N 467.08 -0.0183926 -1.57589 0
M  V30 4835 C 468.357 0.700621 -1.82622 0
M  V30 4836 C 468.737 1.90951 -0.90005 0
M  V30 4837 O 468.085 2.28452 0.0469145 0
M  V30 4838 C 468.295 1.08899 -3.31575 0
M  V30 4839 C 469.643 1.48514 -3.9778 0
M  V30 4840 O 470.667 1.18227 -3.36007 0
M  V30 4841 O 469.526 2.04903 -5.06633 0
M  V30 4842 H 466.62 0.342743 -0.752633 0
M  V30 4843 H 469.166 -0.0452548 -1.6964 0
M  V30 4844 H 467.938 0.228113 -3.90635 0
M  V30 4845 H 467.561 1.89338 -3.49624 0
M  V30 4846 N 468.558 1.5553 0.254621 0
M  V30 4847 C 469.505 1.89666 1.31512 0
M  V30 4848 C 470.475 0.750057 1.482 0
M  V30 4849 O 471.66 1.00301 1.62309 0
M  V30 4850 C 468.8 2.19009 2.667 0
M  V30 4851 C 467.913 3.46435 2.58083 0
M  V30 4852 C 467.048 3.65386 3.85573 0
M  V30 4853 C 466.087 4.8644 3.71541 0
M  V30 4854 N 465.224 5.01952 4.90906 0
M  V30 4855 H 470.064 2.80109 1.017 0
M  V30 4856 H 467.601 1.38666 0.490938 0
M  V30 4857 H 469.559 2.34025 3.45381 0
M  V30 4858 H 468.189 1.31779 2.94676 0
M  V30 4859 H 467.241 3.39792 1.71013 0
M  V30 4860 H 468.553 4.35258 2.43622 0
M  V30 4861 H 467.707 3.80319 4.72697 0
M  V30 4862 H 466.446 2.74781 4.02922 0
M  V30 4863 H 465.451 4.71491 2.82801 0
M  V30 4864 H 466.676 5.78497 3.55694 0
M  V30 4865 H 464.622 4.14283 5.08631 0
M  V30 4866 H 464.539 5.84851 4.79046 0
M  V30 4867 H 465.807 5.21289 5.7955 0
M  V30 4868 N 470.036 -0.519951 1.48776 0
M  V30 4869 C 471.452 -0.849418 1.35119 0
M  V30 4870 C 471.652 -1.98077 0.36982 0
M  V30 4871 O 470.708 -2.51664 -0.205359 0
M  V30 4872 C 472.021 -1.20748 2.75391 0
M  V30 4873 C 473.569 -1.31679 2.83954 0
M  V30 4874 C 474.044 -1.70824 4.24951 0
M  V30 4875 N 475.535 -1.77908 4.27672 0
M  V30 4876 C 476.27 -2.09603 5.33717 0
M  V30 4877 N 475.766 -2.39652 6.5003 0
M  V30 4878 N 477.559 -2.10694 5.21119 0
M  V30 4879 H 469.71 0.226377 2.1119 0
M  V30 4880 H 471.973 0.0386519 0.947212 0
M  V30 4881 H 471.679 -0.449703 3.48813 0
M  V30 4882 H 471.553 -2.15534 3.09556 0
M  V30 4883 H 473.94 -2.06532 2.10781 0
M  V30 4884 H 474.021 -0.3499 2.53396 0
M  V30 4885 H 473.665 -0.965282 4.98643 0
M  V30 4886 H 473.595 -2.6858 4.52959 0
M  V30 4887 H 476.086 -1.56923 3.43779 0
M  V30 4888 H 476.399 -2.6297 7.26682 0
M  V30 4889 H 474.744 -2.37149 6.53288 0
M  V30 4890 H 477.935 -1.86682 4.29264 0
M  V30 4891 H 478.108 -2.35062 6.03863 0
M  V30 4892 N 471.514 -1.37532 -0.769588 0
M  V30 4893 C 472.477 -1.33292 -1.86456 0
M  V30 4894 C 473.477 -0.236537 -1.59051 0
M  V30 4895 O 474.667 -0.492511 -1.67093 0
M  V30 4896 C 471.799 -1.07118 -3.23633 0
M  V30 4897 H 472.992 -2.30692 -1.91628 0
M  V30 4898 H 470.545 -1.22593 -0.969572 0
M  V30 4899 H 471.28 -0.102578 -3.24138 0
M  V30 4900 H 471.065 -1.86479 -3.44917 0
M  V30 4901 H 472.555 -1.06806 -4.03711 0
M  V30 4902 N 472.992 0.995999 -1.22138 0
M  V30 4903 C 474.222 1.76809 -1.06874 0
M  V30 4904 C 474.63 1.85265 0.383866 0
M  V30 4905 O 473.973 1.31969 1.27789 0
M  V30 4906 C 474.035 3.2186 -1.60144 0
M  V30 4907 C 473.699 3.36958 -3.0872 0
M  V30 4908 C 474.696 3.2452 -4.0618 0
M  V30 4909 C 472.381 3.62109 -3.48112 0
M  V30 4910 C 474.375 3.37013 -5.41019 0
M  V30 4911 C 472.062 3.74243 -4.831 0
M  V30 4912 C 473.06 3.61702 -5.79362 0
M  V30 4913 O 472.748 3.73436 -7.119 0
M  V30 4914 H 472.48 0.562207 -0.375365 0
M  V30 4915 H 475.034 1.26113 -1.62125 0
M  V30 4916 H 473.264 3.73734 -0.992981 0
M  V30 4917 H 474.953 3.80775 -1.40589 0
M  V30 4918 H 475.719 3.05004 -3.77091 0
M  V30 4919 H 471.598 3.70949 -2.73712 0
M  V30 4920 H 475.142 3.27141 -6.16137 0
M  V30 4921 H 471.039 3.93266 -5.11872 0
M  V30 4922 H 471.807 3.90328 -7.19435 0
M  V30 4923 N 474.47 1.03057 1.19235 0
M  V30 4924 C 475.747 0.642608 1.84743 0
M  V30 4925 C 476.127 -0.878577 1.91948 0
M  V30 4926 O 475.475 -1.77597 1.43776 0
M  V30 4927 C 475.685 1.30665 3.23616 0
M  V30 4928 C 477.033 1.43098 3.9976 0
M  V30 4929 O 478.057 1.26396 3.3302 0
M  V30 4930 O 476.916 1.70223 5.19313 0
M  V30 4931 H 474.01 0.223573 0.796206 0
M  V30 4932 H 476.556 1.12883 1.26711 0
M  V30 4933 H 475.328 2.34544 3.13217 0
M  V30 4934 H 474.951 0.808405 3.89295 0
M  V30 4935 N 475.948 -1.35272 0.808662 0
M  V30 4936 C 477.197 -1.97963 0.386483 0
M  V30 4937 C 477.51 -1.64866 -1.05255 0
M  V30 4938 O 478.716 -2.20937 -1.57794 0
M  V30 4939 C 477.172 -3.54162 0.640096 0
M  V30 4940 C 476.78 -3.96166 2.0918 0
M  V30 4941 C 478.524 -4.23553 0.283376 0
M  V30 4942 C 476.431 -5.4522 2.29106 0
M  V30 4943 H 475.361 -0.740742 0.140774 0
M  V30 4944 H 478.012 -1.5431 0.993012 0
M  V30 4945 H 476.394 -3.95983 -0.0364117 0
M  V30 4946 H 477.568 -3.65491 2.80629 0
M  V30 4947 H 475.883 -3.3967 2.40859 0
M  V30 4948 H 478.48 -5.33124 0.410273 0
M  V30 4949 H 478.823 -4.09105 -0.770659 0
M  V30 4950 H 479.356 -3.8716 0.913884 0
M  V30 4951 H 476.095 -5.64638 3.32962 0
M  V30 4952 H 475.615 -5.77457 1.62184 0
M  V30 4953 H 477.294 -6.1171 2.1076 0
M  V30 4954 N 477.426 -0.562348 -1.47226 0
M  V30 4955 C 478.656 -0.0451619 -2.06551 0
M  V30 4956 C 479.064 1.25626 -1.41473 0
M  V30 4957 O 478.407 1.76563 -0.507061 0
M  V30 4958 C 478.469 0.216068 -3.5885 0
M  V30 4959 C 478.133 -0.996691 -4.45999 0
M  V30 4960 C 479.13 -1.90358 -4.83797 0
M  V30 4961 C 476.815 -1.21281 -4.87438 0
M  V30 4962 C 478.809 -3.01023 -5.6184 0
M  V30 4963 C 476.496 -2.32255 -5.65244 0
M  V30 4964 C 477.494 -3.21956 -6.02356 0
M  V30 4965 O 477.182 -4.31005 -6.78594 0
M  V30 4966 H 476.914 -0.0451646 -0.67449 0
M  V30 4967 H 479.468 -0.776842 -1.90143 0
M  V30 4968 H 477.698 1.00212 -3.7349 0
M  V30 4969 H 479.387 0.679264 -4.00176 0
M  V30 4970 H 480.153 -1.74868 -4.52378 0
M  V30 4971 H 476.032 -0.523767 -4.58015 0
M  V30 4972 H 479.576 -3.71064 -5.90726 0
M  V30 4973 H 475.473 -2.47715 -5.96077 0
M  V30 4974 H 476.241 -4.29118 -6.96994 0
M  V30 4975 N 478.904 1.54736 -0.299062 0
M  V30 4976 C 479.852 2.24897 0.593658 0
M  V30 4977 C 480.846 1.25429 1.13859 0
M  V30 4978 O 482.052 1.43286 1.08945 0
M  V30 4979 H 478.427 0.72207 0.210046 0
M  V30 4980 H 480.398 2.98393 -0.0206421 0
M  V30 4981 C 479.147 3.00159 1.75499 0
M  V30 4982 H 478.47 3.76501 1.34489 0
M  V30 4983 H 479.91 3.52535 2.35574 0
M  V30 4984 C 478.369 2.07015 2.65794 0
M  V30 4985 O 478.899 1.63692 3.66835 0
M  V30 4986 N 477.105 1.73012 2.33485 0
M  V30 4987 H 476.652 2.08439 1.51364 0
M  V30 4988 H 476.61 1.10965 2.94167 0
M  V30 4989 N 480.382 0.0267497 1.57577 0
M  V30 4990 C 481.628 -0.653371 1.91987 0
M  V30 4991 C 481.961 -1.71915 0.903263 0
M  V30 4992 O 481.236 -1.94358 -0.0743387 0
M  V30 4993 C 481.519 -1.272 3.36886 0
M  V30 4994 C 481.372 -0.215938 4.49281 0
M  V30 4995 C 482.691 -2.19069 3.81703 0
M  V30 4996 H 479.81 -0.236047 0.698177 0
M  V30 4997 H 482.452 0.0835236 1.89816 0
M  V30 4998 H 480.602 -1.90005 3.38866 0
M  V30 4999 H 482.274 0.41449 4.59434 0
M  V30 5000 H 480.517 0.458855 4.31366 0
M  V30 5001 H 481.188 -0.688347 5.47691 0
M  V30 5002 H 483.664 -1.66253 3.81444 0
M  V30 5003 H 482.54 -2.59307 4.83788 0
M  V30 5004 H 482.801 -3.08087 3.17072 0
M  V30 5005 N 481.861 -1.55662 -0.24637 0
M  V30 5006 C 483.11 -1.7672 -0.972254 0
M  V30 5007 C 483.423 -0.59078 -1.86465 0
M  V30 5008 O 484.629 -0.684391 -2.62732 0
M  V30 5009 C 483.085 -3.12869 -1.7788 0
M  V30 5010 C 482.693 -4.38161 -0.933768 0
M  V30 5011 C 484.437 -3.43265 -2.49738 0
M  V30 5012 C 482.344 -5.6534 -1.73623 0
M  V30 5013 H 481.274 -0.658795 -0.366749 0
M  V30 5014 H 483.925 -1.82092 -0.226902 0
M  V30 5015 H 482.307 -3.01606 -2.56612 0
M  V30 5016 H 483.481 -4.60413 -0.188736 0
M  V30 5017 H 481.796 -4.15102 -0.328488 0
M  V30 5018 H 484.393 -4.35501 -3.10231 0
M  V30 5019 H 484.736 -2.64614 -3.2138 0
M  V30 5020 H 485.269 -3.55746 -1.78016 0
M  V30 5021 H 482.008 -6.46814 -1.06354 0
M  V30 5022 H 481.528 -5.47188 -2.45653 0
M  V30 5023 H 483.207 -6.04616 -2.30323 0
M  V30 5024 N 483.339 0.512053 -1.4905 0
M  V30 5025 C 484.302 1.59704 -1.64399 0
M  V30 5026 C 485.302 1.52285 -0.516317 0
M  V30 5027 O 486.492 1.55635 -0.782527 0
M  V30 5028 C 483.624 2.9935 -1.63102 0
M  V30 5029 H 484.817 1.47428 -2.61161 0
M  V30 5030 H 482.37 0.735469 -1.37915 0
M  V30 5031 H 483.105 3.17116 -0.678836 0
M  V30 5032 H 482.89 3.06144 -2.44986 0
M  V30 5033 H 484.38 3.782 -1.77072 0
M  V30 5034 N 484.817 1.37938 0.762283 0
M  V30 5035 C 486.233 1.18945 1.06415 0
M  V30 5036 C 486.433 0.0321163 2.01474 0
M  V30 5037 O 485.489 -0.624844 2.44647 0
M  V30 5038 C 486.802 2.51218 1.65258 0
M  V30 5039 C 488.35 2.57824 1.7747 0
M  V30 5040 C 488.825 3.90251 2.39725 0
M  V30 5041 N 490.316 3.91744 2.47166 0
M  V30 5042 C 491.051 4.90966 2.96209 0
M  V30 5043 N 490.547 6.00585 3.45354 0
M  V30 5044 N 492.34 4.78363 2.9517 0
M  V30 5045 H 484.491 2.11994 0.131301 0
M  V30 5046 H 486.754 0.940262 0.120879 0
M  V30 5047 H 486.46 3.36317 1.02878 0
M  V30 5048 H 486.334 2.68989 2.64433 0
M  V30 5049 H 488.721 1.73126 2.3898 0
M  V30 5050 H 488.802 2.43928 0.770241 0
M  V30 5051 H 488.446 4.75368 1.78852 0
M  V30 5052 H 488.376 4.01454 3.40796 0
M  V30 5053 H 490.867 3.12563 2.12397 0
M  V30 5054 H 491.18 6.72236 3.81207 0
M  V30 5055 H 489.525 6.04217 3.43434 0
M  V30 5056 H 492.716 3.91841 2.56082 0
M  V30 5057 H 492.889 5.55843 3.33081 0
M  V30 5058 N 486.295 -0.989507 1.22664 0
M  V30 5059 C 487.225 -2.09847 1.02404 0
M  V30 5060 C 488.206 -1.70007 -0.0561303 0
M  V30 5061 O 489.391 -1.93906 0.106748 0
M  V30 5062 C 486.521 -3.41996 0.604663 0
M  V30 5063 C 485.475 -3.95699 1.63115 0
M  V30 5064 C 484.801 -5.23936 1.0675 0
M  V30 5065 C 486.101 -4.25999 3.02196 0
M  V30 5066 H 487.795 -2.27054 1.95158 0
M  V30 5067 H 485.341 -1.09111 0.939727 0
M  V30 5068 H 487.294 -4.1899 0.45002 0
M  V30 5069 H 486.018 -3.24626 -0.35855 0
M  V30 5070 H 484.677 -3.2084 1.77362 0
M  V30 5071 H 484.325 -5.02909 0.0955422 0
M  V30 5072 H 484.025 -5.60833 1.75328 0
M  V30 5073 H 485.549 -6.0356 0.924516 0
M  V30 5074 H 486.963 -4.93777 2.91303 0
M  V30 5075 H 485.36 -4.74076 3.67929 0
M  V30 5076 H 486.43 -3.33636 3.51873 0
M  V30 5077 N 487.773 -1.03688 -1.18687 0
M  V30 5078 C 489.02 -0.73803 -1.88572 0
M  V30 5079 C 489.348 0.733973 -1.8012 0
M  V30 5080 O 488.603 1.55098 -1.19344 0
M  V30 5081 C 488.902 -1.14477 -3.3857 0
M  V30 5082 C 488.568 -2.61641 -3.67226 0
M  V30 5083 C 487.23 -3.01846 -3.74757 0
M  V30 5084 C 489.582 -3.56812 -3.79914 0
M  V30 5085 C 486.91 -4.36118 -3.92451 0
M  V30 5086 C 489.262 -4.90799 -3.99123 0
M  V30 5087 C 487.926 -5.3068 -4.04888 0
M  V30 5088 H 487.196 -0.270064 -0.690034 0
M  V30 5089 H 489.843 -1.3012 -1.40503 0
M  V30 5090 H 488.148 -0.500337 -3.88592 0
M  V30 5091 H 489.845 -0.89095 -3.90977 0
M  V30 5092 H 486.435 -2.29498 -3.61979 0
M  V30 5093 H 490.619 -3.26899 -3.73431 0
M  V30 5094 H 485.875 -4.66542 -3.95157 0
M  V30 5095 H 490.049 -5.64451 -4.07882 0
M  V30 5096 H 487.676 -6.34733 -4.18351 0
M  V30 5097 N 489.251 1.34841 -0.815825 0
M  V30 5098 C 490.528 1.92908 -0.323416 0
M  V30 5099 C 490.908 1.74479 1.18828 0
M  V30 5100 O 490.256 1.11928 1.99209 0
M  V30 5101 C 490.466 3.40957 -0.744952 0
M  V30 5102 C 491.814 4.18107 -0.739716 0
M  V30 5103 O 492.838 3.49511 -0.68708 0
M  V30 5104 O 491.697 5.40517 -0.806456 0
M  V30 5105 H 488.791 0.822436 -0.0867646 0
M  V30 5106 H 491.337 1.4386 -0.90014 0
M  V30 5107 H 490.109 3.4814 -1.78646 0
M  V30 5108 H 489.732 3.97341 -0.143535 0
M  V30 5109 N 490.729 0.570148 1.46925 0
M  V30 5110 C 491.677 -0.183181 2.31878 0
M  V30 5111 C 492.671 -0.896721 1.43719 0
M  V30 5112 O 493.877 -0.816536 1.60414 0
M  V30 5113 H 490.252 -0.077944 0.74795 0
M  V30 5114 H 492.223 0.552312 2.93244 0
M  V30 5115 C 490.972 -1.19172 3.2664 0
M  V30 5116 H 490.295 -0.652088 3.94446 0
M  V30 5117 H 491.735 -1.68946 3.88887 0
M  V30 5118 C 490.194 -2.24627 2.51086 0
M  V30 5119 O 490.724 -3.31773 2.26472 0
M  V30 5120 N 488.93 -1.98898 2.11867 0
M  V30 5121 H 488.477 -1.11777 2.32086 0
M  V30 5122 H 488.435 -2.6967 1.61634 0
M  V30 5123 N 492.207 -1.54576 0.307264 0
M  V30 5124 C 493.432 -2.05139 -0.305379 0
M  V30 5125 C 493.857 -1.18278 -1.46259 0
M  V30 5126 O 493.215 -0.188243 -1.8032 0
M  V30 5127 C 493.263 -3.53066 -0.733283 0
M  V30 5128 O 492.367 -3.69206 -1.83741 0
M  V30 5129 H 491.708 -0.661444 -0.0582105 0
M  V30 5130 H 494.238 -1.99569 0.450931 0
M  V30 5131 H 494.248 -3.95034 -1.02039 0
M  V30 5132 H 492.923 -4.15746 0.113198 0
M  V30 5133 H 491.5 -3.39143 -1.55037 0
M  V30 5134 N 493.685 -0.035106 -1.57561 0
M  V30 5135 C 494.595 0.960295 -2.14046 0
M  V30 5136 C 495.611 1.3529 -1.0942 0
M  V30 5137 O 496.787 1.43309 -1.41508 0
M  V30 5138 C 493.852 2.22214 -2.66124 0
M  V30 5139 C 492.913 1.8894 -3.85487 0
M  V30 5140 C 492.146 3.09109 -4.35072 0
M  V30 5141 O 492.369 4.21963 -3.83802 0
M  V30 5142 O 491.303 2.91058 -5.26848 0
M  V30 5143 H 495.129 0.509983 -2.99387 0
M  V30 5144 H 492.714 0.185853 -1.48239 0
M  V30 5145 H 494.596 2.96279 -2.99661 0
M  V30 5146 H 493.271 2.66414 -1.83862 0
M  V30 5147 H 492.178 1.12241 -3.56865 0
M  V30 5148 H 493.511 1.49551 -4.6893 0
M  V30 5149 N 495.163 1.55791 0.238111 0
M  V30 5150 C 496.093 1.94068 1.29846 0
M  V30 5151 C 497.074 0.806726 1.49753 0
M  V30 5152 O 498.259 1.06772 1.62214 0
M  V30 5153 C 495.389 2.24302 2.65153 0
M  V30 5154 C 494.343 3.40032 2.59927 0
M  V30 5155 C 493.669 3.55829 3.99111 0
M  V30 5156 C 494.969 4.75476 2.16148 0
M  V30 5157 H 496.663 2.82887 0.980563 0
M  V30 5158 H 494.209 1.36105 0.470253 0
M  V30 5159 H 496.162 2.4967 3.39475 0
M  V30 5160 H 494.886 1.32318 2.98596 0
M  V30 5161 H 493.545 3.14687 1.88063 0
M  V30 5162 H 493.193 2.6125 4.29834 0
M  V30 5163 H 492.893 4.3366 3.96501 0
M  V30 5164 H 494.417 3.83528 4.7512 0
M  V30 5165 H 495.831 5.00158 2.80205 0
M  V30 5166 H 494.228 5.56472 2.24631 0
M  V30 5167 H 495.298 4.71946 1.11333 0
M  V30 5168 N 496.642 -0.504142 1.49319 0
M  V30 5169 C 497.592 -1.60284 1.62151 0
M  V30 5170 C 498.576 -1.53657 0.477315 0
M  V30 5171 O 499.768 -1.6124 0.730108 0
M  V30 5172 C 496.897 -2.98909 1.68844 0
M  V30 5173 C 495.983 -3.10544 2.8883 0
M  V30 5174 N 496.374 -2.92078 4.12946 0
M  V30 5175 C 494.672 -3.4164 2.86702 0
M  V30 5176 C 495.373 -3.07812 4.93585 0
M  V30 5177 N 494.349 -3.36549 4.26891 0
M  V30 5178 H 498.151 -1.44656 2.55835 0
M  V30 5179 H 495.665 -0.710198 1.46048 0
M  V30 5180 H 497.662 -3.77865 1.76134 0
M  V30 5181 H 496.322 -3.15609 0.762943 0
M  V30 5182 H 497.333 -2.68316 4.42975 0
M  V30 5183 H 494.01 -3.64537 2.03517 0
M  V30 5184 H 495.4 -2.98054 6.02174 0
M  V30 5185 N 498.12 -1.38341 -0.754957 0
M  V30 5186 C 499.03 -1.3769 -1.89944 0
M  V30 5187 C 500.046 -0.274194 -1.71826 0
M  V30 5188 O 501.222 -0.512391 -1.94773 0
M  V30 5189 C 498.287 -1.19938 -3.25293 0
M  V30 5190 C 497.348 -2.40001 -3.55946 0
M  V30 5191 C 496.581 -2.23087 -4.84838 0
M  V30 5192 O 496.804 -1.22386 -5.57116 0
M  V30 5193 O 495.738 -3.11646 -5.14937 0
M  V30 5194 H 499.564 -2.3412 -1.93446 0
M  V30 5195 H 497.149 -1.19246 -0.900044 0
M  V30 5196 H 499.031 -1.12093 -4.06218 0
M  V30 5197 H 497.706 -0.265919 -3.22606 0
M  V30 5198 H 496.613 -2.53421 -2.75188 0
M  V30 5199 H 497.946 -3.31973 -3.63394 0
M  V30 5200 N 499.598 0.982988 -1.23187 0
M  V30 5201 C 500.828 1.75666 -1.08743 0
M  V30 5202 C 501.236 1.85662 0.364195 0
M  V30 5203 O 500.579 1.33317 1.26382 0
M  V30 5204 C 500.641 3.20144 -1.63549 0
M  V30 5205 C 500.305 3.33665 -3.12277 0
M  V30 5206 C 501.302 3.20194 -4.096 0
M  V30 5207 C 498.987 3.58397 -3.51933 0
M  V30 5208 C 500.981 3.31256 -5.44563 0
M  V30 5209 C 498.668 3.69098 -4.87042 0
M  V30 5210 C 499.666 3.55537 -5.83166 0
M  V30 5211 O 499.354 3.65864 -7.1582 0
M  V30 5212 H 499.086 0.558194 -0.381307 0
M  V30 5213 H 501.64 1.24387 -1.63454 0
M  V30 5214 H 499.87 3.72659 -1.03256 0
M  V30 5215 H 501.559 3.79262 -1.4462 0
M  V30 5216 H 502.325 3.00987 -3.80305 0
M  V30 5217 H 498.204 3.68025 -2.77631 0
M  V30 5218 H 501.748 3.20588 -6.19572 0
M  V30 5219 H 497.645 3.87814 -5.16014 0
M  V30 5220 H 498.413 3.82675 -7.23534 0
M  V30 5221 N 501.076 1.04316 1.18135 0
M  V30 5222 C 502.023 0.636398 2.21853 0
M  V30 5223 C 502.993 -0.357039 1.62217 0
M  V30 5224 O 504.178 -0.250453 1.89149 0
M  V30 5225 C 501.318 0.00812779 3.45099 0
M  V30 5226 C 500.431 1.04933 4.19062 0
M  V30 5227 C 499.566 0.389313 5.29771 0
M  V30 5228 C 498.605 1.41544 5.9551 0
M  V30 5229 N 497.742 0.78021 6.97751 0
M  V30 5230 H 502.582 1.52536 2.56002 0
M  V30 5231 H 500.119 0.76304 1.25762 0
M  V30 5232 H 502.077 -0.373497 4.15525 0
M  V30 5233 H 500.707 -0.844336 3.11562 0
M  V30 5234 H 499.759 1.54888 3.47439 0
M  V30 5235 H 501.071 1.82862 4.64072 0
M  V30 5236 H 500.225 -0.0463805 6.06682 0
M  V30 5237 H 498.964 -0.422038 4.8587 0
M  V30 5238 H 497.969 1.86124 5.17337 0
M  V30 5239 H 499.194 2.22854 6.41493 0
M  V30 5240 H 497.14 -0.0107899 6.55999 0
M  V30 5241 H 497.057 1.49716 7.41027 0
M  V30 5242 H 498.325 0.368996 7.78626 0
M  V30 5243 N 502.554 -1.34406 0.822964 0
M  V30 5244 C 503.501 -2.29519 0.24284 0
M  V30 5245 C 504.471 -1.5359 -0.632397 0
M  V30 5246 O 505.656 -1.8196 -0.57403 0
M  V30 5247 C 502.796 -3.40032 -0.58925 0
M  V30 5248 C 501.909 -4.30899 0.308236 0
M  V30 5249 C 501.044 -5.28515 -0.533425 0
M  V30 5250 C 500.083 -6.1102 0.363444 0
M  V30 5251 N 499.22 -7.00725 -0.439147 0
M  V30 5252 H 504.06 -2.78537 1.05929 0
M  V30 5253 H 501.597 -1.3707 0.533872 0
M  V30 5254 H 503.555 -4.0279 -1.087 0
M  V30 5255 H 502.185 -2.92248 -1.37081 0
M  V30 5256 H 501.237 -3.69002 0.924203 0
M  V30 5257 H 502.549 -4.88717 0.997862 0
M  V30 5258 H 501.703 -5.96725 -1.09565 0
M  V30 5259 H 500.442 -4.71235 -1.25656 0
M  V30 5260 H 499.447 -5.41743 0.937812 0
M  V30 5261 H 500.672 -6.70381 1.08469 0
M  V30 5262 H 498.618 -6.45913 -1.14595 0
M  V30 5263 H 498.535 -7.55756 0.19209 0
M  V30 5264 H 499.803 -7.73263 -0.984124 0
M  V30 5265 N 504.032 -0.577932 -1.46621 0
M  V30 5266 C 505.28 -0.061566 -2.02006 0
M  V30 5267 C 505.601 1.30117 -1.4524 0
M  V30 5268 O 504.871 1.85313 -0.63529 0
M  V30 5269 H 503.451 -0.0197692 -0.746738 0
M  V30 5270 H 506.113 -0.752631 -1.79782 0
M  V30 5271 H 505.209 0.0110238 -3.12098 0
M  V30 5272 N 505.51 1.54411 -0.315457 0
M  V30 5273 C 506.74 2.04536 0.291315 0
M  V30 5274 C 507.148 1.19162 1.4696 0
M  V30 5275 O 506.491 0.213199 1.82459 0
M  V30 5276 C 506.553 3.5056 0.796725 0
M  V30 5277 C 506.217 4.5627 -0.258178 0
M  V30 5278 C 507.214 5.08312 -1.09153 0
M  V30 5279 C 504.899 5.00672 -0.404036 0
M  V30 5280 C 506.893 6.03312 -2.05655 0
M  V30 5281 C 504.58 5.95488 -1.37248 0
M  V30 5282 C 505.578 6.46693 -2.19721 0
M  V30 5283 O 505.266 7.39648 -3.14921 0
M  V30 5284 H 504.998 0.672856 0.0651165 0
M  V30 5285 H 507.552 2.00244 -0.457308 0
M  V30 5286 H 505.782 3.52223 1.59612 0
M  V30 5287 H 507.471 3.83804 1.32096 0
M  V30 5288 H 508.237 4.74793 -0.98979 0
M  V30 5289 H 504.116 4.60436 0.22799 0
M  V30 5290 H 507.66 6.43203 -2.70067 0
M  V30 5291 H 503.557 6.28424 -1.47489 0
M  V30 5292 H 504.325 7.57496 -3.10067 0
M  V30 5293 N 506.988 0.0434614 1.5754 0
M  V30 5294 C 508.236 -0.630786 1.92004 0
M  V30 5295 C 508.557 -1.71836 0.921807 0
M  V30 5296 O 507.827 -1.9587 -0.034522 0
M  V30 5297 H 506.407 -0.235988 0.708745 0
M  V30 5298 H 509.069 0.0946462 1.9467 0
M  V30 5299 H 508.165 -1.07434 2.93026 0
M  V30 5300 N 508.466 -1.55915 -0.229846 0
M  V30 5301 C 509.877 -1.68809 -0.797531 0
M  V30 5302 C 510.228 -0.643995 -1.8533 0
M  V30 5303 O 509.353 0.206492 -2.15413 0
M  V30 5304 C 509.948 -3.06043 -1.45338 0
M  V30 5305 C 508.507 -3.20819 -1.96856 0
M  V30 5306 C 507.654 -2.6472 -0.825736 0
M  V30 5307 H 510.605 -1.58699 -0.00533733 0
M  V30 5308 H 510.626 -3.01438 -2.32196 0
M  V30 5309 H 510.138 -3.82012 -0.684743 0
M  V30 5310 H 508.239 -2.49704 -2.76548 0
M  V30 5311 H 508.352 -4.27937 -2.15423 0
M  V30 5312 H 506.716 -2.22985 -1.23084 0
M  V30 5313 H 507.499 -3.43229 -0.0699019 0
M  V30 5314 N 509.944 0.496216 -1.49584 0
M  V30 5315 C 510.854 1.62352 -1.69349 0
M  V30 5316 C 511.87 1.64184 -0.576147 0
M  V30 5317 O 513.046 1.82517 -0.85144 0
M  V30 5318 C 510.111 2.98698 -1.76013 0
M  V30 5319 C 509.172 3.07454 -2.99617 0
M  V30 5320 C 508.405 4.37296 -3.05953 0
M  V30 5321 O 508.628 5.2637 -2.19752 0
M  V30 5322 O 507.562 4.51124 -3.9846 0
M  V30 5323 H 511.388 1.48606 -2.64859 0
M  V30 5324 H 508.973 0.673022 -1.33382 0
M  V30 5325 H 510.855 3.79725 -1.82721 0
M  V30 5326 H 509.53 3.12696 -0.836828 0
M  V30 5327 H 508.437 2.25597 -2.98424 0
M  V30 5328 H 509.77 2.98385 -3.91443 0
M  V30 5329 N 511.423 1.38739 0.74761 0
M  V30 5330 C 512.356 1.3083 1.86972 0
M  V30 5331 C 513.334 0.184229 1.61553 0
M  V30 5332 O 514.518 0.36256 1.8498 0
M  V30 5333 C 511.645 1.02854 3.22705 0
M  V30 5334 C 510.691 2.17281 3.67003 0
M  V30 5335 S 511.524 3.79468 3.77842 0
M  V30 5336 C 512.68 3.53692 5.16385 0
M  V30 5337 H 512.913 2.258 1.93395 0
M  V30 5338 H 510.446 1.24646 0.911199 0
M  V30 5339 H 512.404 0.87397 4.01089 0
M  V30 5340 H 511.065 0.0959295 3.13953 0
M  V30 5341 H 510.258 1.93267 4.65472 0
M  V30 5342 H 509.86 2.28876 2.9579 0
M  V30 5343 H 512.152 3.10176 6.02327 0
M  V30 5344 H 513.095 4.51576 5.45422 0
M  V30 5345 H 513.503 2.8807 4.85464 0
M  V30 5346 N 512.901 -0.976442 1.23707 0
M  V30 5347 C 514.147 -1.72081 1.07312 0
M  V30 5348 C 514.48 -1.90275 -0.388476 0
M  V30 5349 O 513.755 -1.4579 -1.28746 0
M  V30 5350 C 514.038 -3.11675 1.80363 0
M  V30 5351 C 513.891 -3.01027 3.3422 0
M  V30 5352 C 515.21 -4.1117 1.5693 0
M  V30 5353 H 512.329 -0.624583 0.391236 0
M  V30 5354 H 514.971 -1.13649 1.52263 0
M  V30 5355 H 513.121 -3.61559 1.42153 0
M  V30 5356 H 514.793 -2.58637 3.81975 0
M  V30 5357 H 513.036 -2.3744 3.63049 0
M  V30 5358 H 513.707 -3.9988 3.80525 0
M  V30 5359 H 516.183 -3.7011 1.90151 0
M  V30 5360 H 515.059 -5.06928 2.10513 0
M  V30 5361 H 515.32 -4.392 0.505548 0
M  V30 5362 N 514.379 -1.04941 -1.1758 0
M  V30 5363 C 515.607 -0.778294 -1.91703 0
M  V30 5364 C 516.022 0.665697 -1.76675 0
M  V30 5365 O 515.379 1.45456 -1.10222 0
M  V30 5366 C 515.43 -1.14628 -3.42845 0
M  V30 5367 O 515.151 -2.53359 -3.57409 0
M  V30 5368 C 516.652 -0.900931 -4.34049 0
M  V30 5369 H 513.872 -0.283167 -0.608323 0
M  V30 5370 H 516.416 -1.39942 -1.49119 0
M  V30 5371 H 514.571 -0.569953 -3.83184 0
M  V30 5372 H 514.985 -2.67709 -4.51035 0
M  V30 5373 H 516.459 -1.20817 -5.38616 0
M  V30 5374 H 516.936 0.163966 -4.38894 0
M  V30 5375 H 517.542 -1.46097 -3.99419 0
M  V30 5376 N 515.857 1.33968 -0.830081 0
M  V30 5377 C 517.105 1.97672 -0.420734 0
M  V30 5378 C 517.426 1.66111 1.02138 0
M  V30 5379 O 516.696 0.955503 1.71017 0
M  V30 5380 H 515.276 0.73125 -0.152587 0
M  V30 5381 H 517.938 1.63483 -1.0611 0
M  V30 5382 H 517.034 3.07294 -0.545588 0
M  V30 5383 N 517.335 0.585699 1.46312 0
M  V30 5384 C 518.265 -0.133556 2.33118 0
M  V30 5385 C 519.246 -0.880707 1.45525 0
M  V30 5386 O 520.431 -0.855579 1.74337 0
M  V30 5387 C 517.561 -1.14585 3.27853 0
M  V30 5388 C 516.515 -0.513341 4.2491 0
M  V30 5389 C 515.841 -1.63231 5.09175 0
M  V30 5390 C 517.141 0.551413 5.19381 0
M  V30 5391 H 518.835 0.59121 2.93505 0
M  V30 5392 H 516.381 0.285761 1.41136 0
M  V30 5393 H 518.334 -1.65741 3.87438 0
M  V30 5394 H 517.058 -1.90093 2.65579 0
M  V30 5395 H 515.717 -0.0228349 3.66593 0
M  V30 5396 H 515.365 -2.37713 4.43285 0
M  V30 5397 H 515.065 -1.21473 5.74907 0
M  V30 5398 H 516.589 -2.14658 5.71624 0
M  V30 5399 H 518.003 0.124804 5.73164 0
M  V30 5400 H 516.4 0.889486 5.93471 0
M  V30 5401 H 517.47 1.43655 4.63132 0
M  V30 5402 N 518.813 -1.54241 0.323641 0
M  V30 5403 C 519.776 -2.22997 -0.529602 0
M  V30 5404 C 520.776 -1.22345 -1.04347 0
M  V30 5405 O 521.966 -1.46924 -0.935889 0
M  V30 5406 C 519.098 -2.93409 -1.73562 0
M  V30 5407 H 520.291 -2.99815 0.0714518 0
M  V30 5408 H 517.844 -1.56121 0.0747258 0
M  V30 5409 H 518.579 -2.20729 -2.37591 0
M  V30 5410 H 518.364 -3.67217 -1.37456 0
M  V30 5411 H 519.854 -3.45794 -2.34128 0
M  V30 5412 N 520.291 -0.0518155 -1.57515 0
M  V30 5413 C 521.238 0.922352 -2.11569 0
M  V30 5414 C 522.208 1.30842 -1.02321 0
M  V30 5415 O 523.393 1.39778 -1.29872 0
M  V30 5416 C 520.533 2.19167 -2.6657 0
M  V30 5417 C 519.646 1.86003 -3.89906 0
M  V30 5418 C 518.781 3.07398 -4.33221 0
M  V30 5419 C 517.82 2.70158 -5.49255 0
M  V30 5420 N 516.957 3.84248 -5.8762 0
M  V30 5421 H 521.797 0.454506 -2.94514 0
M  V30 5422 H 519.334 0.212718 -1.45554 0
M  V30 5423 H 521.292 2.93443 -2.96559 0
M  V30 5424 H 519.922 2.63528 -1.86421 0
M  V30 5425 H 518.974 1.01874 -3.66505 0
M  V30 5426 H 520.286 1.54592 -4.74239 0
M  V30 5427 H 519.44 3.89972 -4.64765 0
M  V30 5428 H 518.179 3.41988 -3.477 0
M  V30 5429 H 517.184 1.86001 -5.17382 0
M  V30 5430 H 518.409 2.36759 -6.36492 0
M  V30 5431 H 516.355 4.18638 -5.05053 0
M  V30 5432 H 516.272 3.56538 -6.66646 0
M  V30 5433 H 517.54 4.6746 -6.2378 0
M  V30 5434 N 521.769 1.56035 0.221574 0
M  V30 5435 C 523.015 1.79312 0.947372 0
M  V30 5436 C 523.348 0.621453 1.83988 0
M  V30 5437 O 522.623 -0.379287 1.90766 0
M  V30 5438 C 522.906 3.1267 1.78633 0
M  V30 5439 C 522.759 4.40284 0.920312 0
M  V30 5440 C 524.078 3.4247 2.7641 0
M  V30 5441 H 521.197 0.652328 0.342982 0
M  V30 5442 H 523.839 1.88765 0.216244 0
M  V30 5443 H 521.989 3.04741 2.40967 0
M  V30 5444 H 523.661 4.60232 0.313718 0
M  V30 5445 H 521.904 4.33212 0.225734 0
M  V30 5446 H 522.575 5.30033 1.54171 0
M  V30 5447 H 525.051 3.50526 2.24211 0
M  V30 5448 H 523.927 4.3695 3.32213 0
M  V30 5449 H 524.188 2.64635 3.54148 0
M  V30 5450 N 523.247 -0.488276 1.49845 0
M  V30 5451 C 524.195 -1.60917 1.67954 0
M  V30 5452 C 525.189 -1.6038 0.54539 0
M  V30 5453 O 526.395 -1.64736 0.7254 0
M  V30 5454 H 522.77 -0.533658 0.529824 0
M  V30 5455 H 524.741 -1.428 2.62013 0
M  V30 5456 C 523.49 -2.98975 1.77509 0
M  V30 5457 H 522.813 -3.00099 2.6416 0
M  V30 5458 H 524.253 -3.76906 1.9421 0
M  V30 5459 C 522.712 -3.3282 0.522745 0
M  V30 5460 O 523.242 -4.00208 -0.345866 0
M  V30 5461 N 521.448 -2.8808 0.381882 0
M  V30 5462 H 520.995 -2.33415 1.08974 0
M  V30 5463 H 520.953 -3.11091 -0.454929 0
M  V30 5464 N 524.725 -1.39134 -0.740242 0
M  V30 5465 C 525.973 -1.35803 -1.49673 0
M  V30 5466 C 526.294 0.0470897 -1.94943 0
M  V30 5467 O 525.564 0.997347 -1.68611 0
M  V30 5468 H 524.144 -0.499736 -0.555224 0
M  V30 5469 H 526.806 -1.73947 -0.879107 0
M  V30 5470 H 525.902 -2.0174 -2.38133 0
M  V30 5471 N 526.204 0.969867 -1.24223 0
M  V30 5472 C 527.134 2.08191 -1.05729 0
M  V30 5473 C 528.115 1.70075 0.0290765 0
M  V30 5474 O 529.3 1.93712 -0.137583 0
M  V30 5475 C 526.43 3.40991 -0.658995 0
M  V30 5476 C 525.384 3.93054 -1.69389 0
M  V30 5477 C 524.71 5.22171 -1.15072 0
M  V30 5478 C 526.01 4.21137 -3.08935 0
M  V30 5479 H 527.704 2.23921 -1.98746 0
M  V30 5480 H 525.25 1.07602 -0.956967 0
M  V30 5481 H 527.203 4.18221 -0.51662 0
M  V30 5482 H 525.927 3.25155 0.30686 0
M  V30 5483 H 524.586 3.17977 -1.82444 0
M  V30 5484 H 524.234 5.02694 -0.175539 0
M  V30 5485 H 523.934 5.57973 -1.84229 0
M  V30 5486 H 525.458 6.02013 -1.02042 0
M  V30 5487 H 526.872 4.8908 -2.99121 0
M  V30 5488 H 525.269 4.68163 -3.75425 0
M  V30 5489 H 526.339 3.27996 -3.57137 0
M  V30 5490 N 527.682 1.05563 1.17022 0
M  V30 5491 C 528.612 0.681026 2.23348 0
M  V30 5492 C 529.593 -0.322983 1.67005 0
M  V30 5493 O 530.778 -0.199746 1.9317 0
M  V30 5494 C 527.908 0.0589053 3.4725 0
M  V30 5495 C 526.862 0.988082 4.16438 0
M  V30 5496 C 526.188 0.229646 5.34207 0
M  V30 5497 C 527.488 2.31388 4.68249 0
M  V30 5498 H 529.182 1.56993 2.54938 0
M  V30 5499 H 526.728 0.756302 1.2254 0
M  V30 5500 H 528.681 -0.214982 4.20851 0
M  V30 5501 H 527.405 -0.864968 3.14938 0
M  V30 5502 H 526.064 1.24659 3.44754 0
M  V30 5503 H 525.712 -0.697111 4.98146 0
M  V30 5504 H 525.412 0.848815 5.81437 0
M  V30 5505 H 526.936 -0.0368694 6.10589 0
M  V30 5506 H 528.35 2.09964 5.33468 0
M  V30 5507 H 526.747 2.88736 5.26072 0
M  V30 5508 H 527.817 2.94982 3.84855 0
M  V30 5509 N 529.16 -1.33526 0.837174 0
M  V30 5510 C 530.406 -1.9813 0.432704 0
M  V30 5511 C 530.739 -1.66168 -1.00508 0
M  V30 5512 O 530.014 -0.94069 -1.70239 0
M  V30 5513 C 530.297 -3.54151 0.651834 0
M  V30 5514 C 530.15 -3.95806 2.13676 0
M  V30 5515 C 531.469 -4.39993 0.0968937 0
M  V30 5516 H 528.588 -0.719713 0.15869 0
M  V30 5517 H 531.23 -1.58193 1.05237 0
M  V30 5518 H 529.38 -3.88301 0.124369 0
M  V30 5519 H 531.052 -3.71921 2.72896 0
M  V30 5520 H 529.295 -3.45599 2.62191 0
M  V30 5521 H 529.966 -5.0447 2.24084 0
M  V30 5522 H 532.442 -4.12479 0.547733 0
M  V30 5523 H 531.318 -5.48186 0.279917 0
M  V30 5524 H 531.579 -4.3066 -0.9992 0
M  V30 5525 N 530.638 -0.59345 -1.46 0
M  V30 5526 C 531.886 -0.082988 -2.0193 0
M  V30 5527 C 532.207 1.28569 -1.46612 0
M  V30 5528 O 531.477 1.84629 -0.654909 0
M  V30 5529 H 530.057 -0.0276882 -0.746487 0
M  V30 5530 H 532.719 -0.771657 -1.78973 0
M  V30 5531 H 531.815 -0.022079 -3.12092 0
M  V30 5532 N 532.116 1.54067 -0.331816 0
M  V30 5533 C 533.362 2.01012 0.268667 0
M  V30 5534 C 533.695 1.2195 1.51136 0
M  V30 5535 O 532.97 0.303972 1.9211 0
M  V30 5536 C 533.253 3.55158 0.59456 0
M  V30 5537 C 533.106 4.4494 -0.659409 0
M  V30 5538 C 534.425 4.16939 1.4089 0
M  V30 5539 H 531.544 0.730698 0.0961756 0
M  V30 5540 H 534.186 1.84593 -0.450031 0
M  V30 5541 H 532.336 3.6928 1.20685 0
M  V30 5542 H 534.008 4.42675 -1.29756 0
M  V30 5543 H 532.251 4.1428 -1.28665 0
M  V30 5544 H 532.922 5.50643 -0.386804 0
M  V30 5545 H 535.398 4.06443 0.891272 0
M  V30 5546 H 534.274 5.24889 1.60569 0
M  V30 5547 H 534.535 3.70798 2.40752 0
M  V30 5548 N 533.594 0.0601682 1.57485 0
M  V30 5549 C 534.84 -0.612501 1.93329 0
M  V30 5550 C 535.173 -1.6996 0.939526 0
M  V30 5551 O 534.448 -1.94472 -0.0330957 0
M  V30 5552 C 534.731 -1.20025 3.39508 0
M  V30 5553 C 534.584 -0.12059 4.49638 0
M  V30 5554 C 535.903 -2.10923 3.86264 0
M  V30 5555 H 533.022 -0.221185 0.703027 0
M  V30 5556 H 535.664 0.123768 1.89596 0
M  V30 5557 H 533.814 -1.82774 3.42821 0
M  V30 5558 H 535.486 0.51185 4.58452 0
M  V30 5559 H 533.729 0.550251 4.30296 0
M  V30 5560 H 534.4 -0.572019 5.49028 0
M  V30 5561 H 536.876 -1.58124 3.84884 0
M  V30 5562 H 535.752 -2.48987 4.8918 0
M  V30 5563 H 536.013 -3.01292 3.23536 0
M  V30 5564 N 535.072 -1.5615 -0.213296 0
M  V30 5565 C 536.035 -1.92249 -1.24792 0
M  V30 5566 C 537.035 -0.801828 -1.39382 0
M  V30 5567 O 538.225 -1.06948 -1.37506 0
M  V30 5568 C 535.357 -2.18056 -2.62039 0
M  V30 5569 H 536.55 -2.84793 -0.939845 0
M  V30 5570 H 534.103 -1.49559 -0.454062 0
M  V30 5571 H 534.838 -1.2809 -2.97932 0
M  V30 5572 H 534.623 -2.99703 -2.52825 0
M  V30 5573 H 536.113 -2.47051 -3.36683 0
M  V30 5574 N 536.55 0.480323 -1.50102 0
M  V30 5575 C 537.498 1.60024 -1.68805 0
M  V30 5576 C 538.492 1.60089 -0.553888 0
M  V30 5577 O 539.698 1.64349 -0.734127 0
M  V30 5578 H 536.073 0.530841 -0.532646 0
M  V30 5579 H 538.044 1.41408 -2.62767 0
M  V30 5580 C 536.793 2.98029 -1.79092 0
M  V30 5581 H 536.116 2.98694 -2.65748 0
M  V30 5582 H 537.556 3.75871 -1.96206 0
M  V30 5583 C 536.015 3.32538 -0.540388 0
M  V30 5584 O 536.545 4.00386 0.324637 0
M  V30 5585 N 534.751 2.87873 -0.397154 0
M  V30 5586 H 534.298 2.32834 -1.1021 0
M  V30 5587 H 534.256 3.11328 0.438425 0
M  V30 5588 N 538.028 1.39524 0.732853 0
M  V30 5589 C 539.274 1.37068 1.49467 0
M  V30 5590 C 539.607 -0.0327166 1.94172 0
M  V30 5591 O 538.882 -0.998071 1.66939 0
M  V30 5592 C 539.165 2.34494 2.73285 0
M  V30 5593 C 539.018 3.83784 2.34585 0
M  V30 5594 C 540.337 2.29717 3.75391 0
M  V30 5595 H 537.456 0.499206 0.542183 0
M  V30 5596 H 540.098 1.70532 0.837783 0
M  V30 5597 H 538.248 2.06087 3.29333 0
M  V30 5598 H 539.92 4.22949 1.84151 0
M  V30 5599 H 538.163 4.00455 1.66787 0
M  V30 5600 H 538.834 4.47444 3.23262 0
M  V30 5601 H 541.31 2.54839 3.28932 0
M  V30 5602 H 540.186 2.99962 4.59689 0
M  V30 5603 H 540.447 1.30291 4.22465 0
M  V30 5604 N 539.506 -0.963266 1.24736 0
M  V30 5605 C 540.438 -2.06162 1.0015 0
M  V30 5606 C 541.451 -1.62771 -0.0305905 0
M  V30 5607 O 542.64 -1.77296 0.206966 0
M  V30 5608 C 539.74 -3.35333 0.490385 0
M  V30 5609 C 538.913 -4.07609 1.58663 0
M  V30 5610 C 537.972 -5.15052 1.0774 0
M  V30 5611 O 536.998 -5.4098 1.77002 0
M  V30 5612 N 538.2 -5.80436 -0.0858605 0
M  V30 5613 H 540.965 -2.27825 1.94719 0
M  V30 5614 H 538.526 -1.13121 1.15825 0
M  V30 5615 H 540.518 -4.04477 0.134371 0
M  V30 5616 H 539.088 -3.10507 -0.361155 0
M  V30 5617 H 538.308 -3.32681 2.11463 0
M  V30 5618 H 539.596 -4.52656 2.32336 0
M  V30 5619 H 538.994 -5.6178 -0.664806 0
M  V30 5620 H 537.551 -6.50674 -0.382981 0
M  V30 5621 N 540.985 -1.06182 -1.16461 0
M  V30 5622 C 542.233 -0.776326 -1.86595 0
M  V30 5623 C 542.554 0.69921 -1.82033 0
M  V30 5624 O 541.824 1.50579 -1.2531 0
M  V30 5625 H 540.404 -0.284184 -0.690832 0
M  V30 5626 H 543.066 -1.34308 -1.41235 0
M  V30 5627 H 542.162 -1.10022 -2.92064 0
M  V30 5628 N 542.463 1.3308 -0.844243 0
M  V30 5629 C 543.393 2.3161 -0.296493 0
M  V30 5630 C 544.374 1.59215 0.598707 0
M  V30 5631 O 545.559 1.87077 0.521134 0
M  V30 5632 C 542.689 3.43313 0.524762 0
M  V30 5633 C 541.643 4.27115 -0.275106 0
M  V30 5634 C 540.969 5.30483 0.670236 0
M  V30 5635 C 542.269 5.00443 -1.49514 0
M  V30 5636 H 543.963 2.77672 -1.11976 0
M  V30 5637 H 541.509 1.33496 -0.539899 0
M  V30 5638 H 543.462 4.11273 0.918298 0
M  V30 5639 H 542.186 2.95952 1.3813 0
M  V30 5640 H 540.845 3.60787 -0.650267 0
M  V30 5641 H 540.493 4.79379 1.52332 0
M  V30 5642 H 540.193 5.87435 0.139123 0
M  V30 5643 H 541.717 6.01308 1.06117 0
M  V30 5644 H 543.131 5.61141 -1.17447 0
M  V30 5645 H 541.528 5.67071 -1.96343 0
M  V30 5646 H 542.598 4.28906 -2.26202 0
M  V30 5647 N 543.941 0.601185 1.45683 0
M  V30 5648 C 544.871 -0.108824 2.33246 0
M  V30 5649 C 545.852 -0.865223 1.46451 0
M  V30 5650 O 547.037 -0.83704 1.75235 0
M  V30 5651 C 544.167 -1.11101 3.2905 0
M  V30 5652 C 543.121 -0.468244 4.25431 0
M  V30 5653 C 542.447 -1.57822 5.10878 0
M  V30 5654 C 543.747 0.606469 5.18767 0
M  V30 5655 H 545.441 0.622306 2.92861 0
M  V30 5656 H 542.987 0.300714 1.40825 0
M  V30 5657 H 544.94 -1.61622 3.89174 0
M  V30 5658 H 543.664 -1.87265 2.67581 0
M  V30 5659 H 542.323 0.0160484 3.66596 0
M  V30 5660 H 541.971 -2.32998 4.45781 0
M  V30 5661 H 541.671 -1.15369 5.76163 0
M  V30 5662 H 543.195 -2.08583 5.73869 0
M  V30 5663 H 544.609 0.185589 5.73 0
M  V30 5664 H 543.006 0.952381 5.92494 0
M  V30 5665 H 544.076 1.48559 4.61582 0
M  V30 5666 N 545.419 -1.53889 0.339982 0
M  V30 5667 C 546.352 -2.21187 -0.561405 0
M  V30 5668 C 547.33 -1.19463 -1.10306 0
M  V30 5669 O 548.514 -1.48268 -1.164 0
M  V30 5670 C 545.641 -2.8865 -1.77198 0
M  V30 5671 C 544.687 -4.04232 -1.3601 0
M  V30 5672 S 545.52 -5.34129 -0.382909 0
M  V30 5673 C 546.676 -6.05094 -1.60039 0
M  V30 5674 H 546.909 -2.97298 0.0102092 0
M  V30 5675 H 544.442 -1.53901 0.124056 0
M  V30 5676 H 546.4 -3.28138 -2.4665 0
M  V30 5677 H 545.061 -2.12311 -2.3148 0
M  V30 5678 H 544.254 -4.50358 -2.2626 0
M  V30 5679 H 543.856 -3.66503 -0.745098 0
M  V30 5680 H 546.148 -6.2827 -2.53541 0
M  V30 5681 H 547.091 -6.98182 -1.18099 0
M  V30 5682 H 547.499 -5.35207 -1.79483 0
M  V30 5683 N 546.897 -0.0685191 -1.57451 0
M  V30 5684 C 547.845 0.917577 -2.13736 0
M  V30 5685 C 548.839 1.31049 -1.07344 0
M  V30 5686 O 550.045 1.28811 -1.25728 0
M  V30 5687 H 546.42 0.313835 -0.683382 0
M  V30 5688 H 548.391 0.417903 -2.95459 0
M  V30 5689 C 547.14 2.17686 -2.71123 0
M  V30 5690 H 546.463 1.88336 -3.52661 0
M  V30 5691 H 547.903 2.84803 -3.14107 0
M  V30 5692 C 546.362 2.9332 -1.65726 0
M  V30 5693 O 546.892 3.86901 -1.08031 0
M  V30 5694 N 545.098 2.56367 -1.36837 0
M  V30 5695 H 544.645 1.80341 -1.83943 0
M  V30 5696 H 544.603 3.07276 -0.665501 0
M  V30 5697 N 548.375 1.56261 0.205012 0
M  V30 5698 C 549.605 1.83874 0.942018 0
M  V30 5699 C 550.013 0.647595 1.77772 0
M  V30 5700 O 549.356 -0.393098 1.79445 0
M  V30 5701 C 549.418 3.05453 1.89575 0
M  V30 5702 C 549.082 4.39772 1.24296 0
M  V30 5703 C 550.079 5.16133 0.624724 0
M  V30 5704 C 547.764 4.86504 1.24978 0
M  V30 5705 C 549.758 6.37396 0.0220117 0
M  V30 5706 C 547.445 6.07705 0.643232 0
M  V30 5707 C 548.443 6.82993 0.0304164 0
M  V30 5708 O 548.131 8.019 -0.566654 0
M  V30 5709 H 547.863 0.614896 0.280854 0
M  V30 5710 H 550.417 2.04215 0.220285 0
M  V30 5711 H 548.647 2.80972 2.65691 0
M  V30 5712 H 550.336 3.19797 2.4997 0
M  V30 5713 H 551.102 4.81127 0.611666 0
M  V30 5714 H 546.981 4.27865 1.71616 0
M  V30 5715 H 550.525 6.96102 -0.456926 0
M  V30 5716 H 546.422 6.42181 0.653759 0
M  V30 5717 H 547.19 8.17192 -0.462588 0
M  V30 5718 N 549.853 -0.472356 1.50355 0
M  V30 5719 C 551.264 -1.05326 1.54154 0
M  V30 5720 C 551.615 -1.93155 0.344303 0
M  V30 5721 O 550.74 -2.09479 -0.542928 0
M  V30 5722 C 551.335 -1.91691 2.79356 0
M  V30 5723 C 549.894 -2.44892 2.8584 0
M  V30 5724 C 549.041 -1.23205 2.48426 0
M  V30 5725 H 551.992 -0.255027 1.56637 0
M  V30 5726 H 552.013 -2.76742 2.6114 0
M  V30 5727 H 551.525 -1.27741 3.66475 0
M  V30 5728 H 549.626 -3.12399 2.0307 0
M  V30 5729 H 549.739 -2.80086 3.88701 0
M  V30 5730 H 548.103 -1.56643 2.00836 0
M  V30 5731 H 548.886 -0.609194 3.37852 0
M  V30 5732 N 551.331 -1.39911 -0.725443 0
M  V30 5733 C 552.241 -1.41688 -1.8698 0
M  V30 5734 C 553.257 -0.310579 -1.71206 0
M  V30 5735 O 554.433 -0.55359 -1.93642 0
M  V30 5736 C 551.498 -1.26811 -3.22676 0
M  V30 5737 C 550.559 -2.47497 -3.50776 0
M  V30 5738 C 549.792 -2.3332 -4.79997 0
M  V30 5739 O 550.015 -1.34175 -5.54394 0
M  V30 5740 O 548.949 -3.22498 -5.08211 0
M  V30 5741 H 552.775 -2.38171 -1.88436 0
M  V30 5742 H 550.36 -1.21128 -0.874548 0
M  V30 5743 H 552.242 -1.20684 -4.03749 0
M  V30 5744 H 550.917 -0.334289 -3.21969 0
M  V30 5745 H 549.824 -2.59201 -2.69751 0
M  V30 5746 H 551.157 -3.39606 -3.5627 0
M  V30 5747 N 552.809 0.956637 -1.25245 0
M  V30 5748 C 554.039 1.7332 -1.12445 0
M  V30 5749 C 554.447 1.86392 0.324732 0
M  V30 5750 O 553.79 1.35967 1.23526 0
M  V30 5751 C 553.852 3.16603 -1.70303 0
M  V30 5752 C 553.516 3.26966 -3.19284 0
M  V30 5753 C 554.513 3.11434 -4.16299 0
M  V30 5754 C 552.198 3.50851 -3.59456 0
M  V30 5755 C 554.192 3.1963 -5.51467 0
M  V30 5756 C 551.879 3.58684 -4.94761 0
M  V30 5757 C 552.877 3.43087 -5.90576 0
M  V30 5758 O 552.565 3.50598 -7.2342 0
M  V30 5759 H 552.297 0.549981 -0.393061 0
M  V30 5760 H 554.851 1.20892 -1.66055 0
M  V30 5761 H 553.081 3.70385 -1.11138 0
M  V30 5762 H 554.77 3.76109 -1.52632 0
M  V30 5763 H 555.536 2.92853 -3.86604 0
M  V30 5764 H 551.415 3.62053 -2.85375 0
M  V30 5765 H 554.959 3.07373 -6.26233 0
M  V30 5766 H 550.856 3.76782 -5.24124 0
M  V30 5767 H 551.624 3.67242 -7.31489 0
M  V30 5768 N 554.287 1.06798 1.15896 0
M  V30 5769 C 555.234 0.683314 2.20453 0
M  V30 5770 C 556.204 -0.32255 1.62938 0
M  V30 5771 O 557.389 -0.210276 1.89638 0
M  V30 5772 C 554.529 0.0813266 3.45004 0
M  V30 5773 C 553.642 1.13799 4.16742 0
M  V30 5774 C 552.777 0.501598 5.28826 0
M  V30 5775 C 551.816 1.54144 5.92373 0
M  V30 5776 N 550.953 0.928038 6.9594 0
M  V30 5777 H 555.793 1.57932 2.52708 0
M  V30 5778 H 553.33 0.789544 1.24115 0
M  V30 5779 H 555.288 -0.285274 4.16224 0
M  V30 5780 H 553.918 -0.77806 3.13283 0
M  V30 5781 H 552.97 1.62223 3.44075 0
M  V30 5782 H 554.282 1.92664 4.60089 0
M  V30 5783 H 553.436 0.0823162 6.06644 0
M  V30 5784 H 552.175 -0.318883 4.86656 0
M  V30 5785 H 551.18 1.97056 5.13273 0
M  V30 5786 H 552.405 2.3641 6.36621 0
M  V30 5787 H 550.351 0.12836 6.55874 0
M  V30 5788 H 550.268 1.65401 7.37685 0
M  V30 5789 H 551.536 0.534071 7.77668 0
M  V30 5790 N 555.766 -1.3263 0.851289 0
M  V30 5791 C 556.729 -2.27247 0.298541 0
M  V30 5792 C 557.729 -1.51467 -0.539847 0
M  V30 5793 O 558.919 -1.7061 -0.351843 0
M  V30 5794 C 556.051 -3.35964 -0.578004 0
M  V30 5795 H 557.244 -2.7765 1.13359 0
M  V30 5796 H 554.797 -1.43245 0.625354 0
M  V30 5797 H 555.532 -2.90823 -1.435 0
M  V30 5798 H 555.317 -3.92094 0.0220539 0
M  V30 5799 H 556.807 -4.06472 -0.957626 0
M  V30 5800 N 557.244 -0.608902 -1.45362 0
M  V30 5801 C 558.207 0.0992563 -2.28985 0
M  V30 5802 C 559.207 0.793841 -1.39838 0
M  V30 5803 O 560.397 0.641804 -1.61946 0
M  V30 5804 C 557.529 1.15073 -3.20891 0
M  V30 5805 H 558.722 -0.635964 -2.93079 0
M  V30 5806 H 556.275 -0.368007 -1.51906 0
M  V30 5807 H 557.01 1.91667 -2.616 0
M  V30 5808 H 556.795 0.656867 -3.86559 0
M  V30 5809 H 558.285 1.64665 -3.83765 0
M  V30 5810 N 558.722 1.53707 -0.348139 0
M  V30 5811 C 559.97 2.00591 0.246478 0
M  V30 5812 C 560.291 1.23753 1.50699 0
M  V30 5813 O 559.561 0.345964 1.92821 0
M  V30 5814 H 558.141 0.741053 0.0940679 0
M  V30 5815 H 560.803 1.89139 -0.470354 0
M  V30 5816 H 559.899 3.08297 0.485714 0
M  V30 5817 N 560.2 0.0768682 1.57412 0
M  V30 5818 C 561.425 -0.603404 1.98428 0
M  V30 5819 C 561.85 -1.62047 0.955108 0
M  V30 5820 O 561.208 -1.81129 -0.0786778 0
M  V30 5821 C 561.256 -1.24396 3.38464 0
M  V30 5822 O 560.36 -2.35982 3.3821 0
M  V30 5823 H 559.701 -0.154741 0.645718 0
M  V30 5824 H 562.231 0.152885 2.04028 0
M  V30 5825 H 562.241 -1.5896 3.7576 0
M  V30 5826 H 560.916 -0.498735 4.12899 0
M  V30 5827 H 559.493 -2.03173 3.1269 0
M  V30 5828 N 561.678 -1.56367 -0.196722 0
M  V30 5829 C 562.924 -1.80796 -0.918725 0
M  V30 5830 C 563.257 -0.650645 -1.82976 0
M  V30 5831 O 562.532 0.348889 -1.91345 0
M  V30 5832 C 562.815 -3.15472 -1.73636 0
M  V30 5833 C 562.668 -4.41693 -0.85015 0
M  V30 5834 C 563.987 -3.46824 -2.70927 0
M  V30 5835 H 561.106 -0.657702 -0.332561 0
M  V30 5836 H 563.748 -1.89086 -0.186186 0
M  V30 5837 H 561.898 -3.08536 -2.36088 0
M  V30 5838 H 563.57 -4.60673 -0.240459 0
M  V30 5839 H 561.813 -4.33517 -0.156785 0
M  V30 5840 H 562.484 -5.32419 -1.45719 0
M  V30 5841 H 564.96 -3.54049 -2.18607 0
M  V30 5842 H 563.836 -4.4218 -3.25219 0
M  V30 5843 H 564.097 -2.70236 -3.49893 0
M  V30 5844 N 563.156 0.464375 -1.50603 0
M  V30 5845 C 564.404 1.21356 -1.61608 0
M  V30 5846 C 564.725 1.92329 -0.321643 0
M  V30 5847 O 563.995 1.84403 0.661232 0
M  V30 5848 H 562.575 0.45094 -0.595535 0
M  V30 5849 H 565.237 0.535046 -1.87412 0
M  V30 5850 H 564.333 1.95783 -2.43054 0
M  V30 5851 N 564.634 1.40294 0.718013 0
M  V30 5852 C 565.883 1.37746 1.4734 0
M  V30 5853 C 566.196 -0.0180754 1.95592 0
M  V30 5854 O 567.402 -0.166166 2.70991 0
M  V30 5855 C 565.858 2.4208 2.66318 0
M  V30 5856 C 565.466 3.87432 2.24945 0
M  V30 5857 C 567.21 2.48635 3.44065 0
M  V30 5858 C 565.117 4.83368 3.40748 0
M  V30 5859 H 564.047 0.512165 0.553356 0
M  V30 5860 H 566.698 1.66019 0.781661 0
M  V30 5861 H 565.08 2.06903 3.3765 0
M  V30 5862 H 566.254 4.3174 1.6105 0
M  V30 5863 H 564.569 3.8433 1.60249 0
M  V30 5864 H 567.166 3.17499 4.30231 0
M  V30 5865 H 567.509 1.51611 3.87711 0
M  V30 5866 H 568.042 2.82791 2.79775 0
M  V30 5867 H 564.781 5.81716 3.02136 0
M  V30 5868 H 564.301 4.43726 4.03568 0
M  V30 5869 H 565.98 5.03074 4.06848 0
M  V30 5870 N 566.112 -0.949982 1.2575 0
M  V30 5871 C 567.36 -1.6918 1.10555 0
M  V30 5872 C 567.681 -1.91773 -0.353298 0
M  V30 5873 O 566.951 -1.50814 -1.25027 0
M  V30 5874 H 565.531 -0.626952 0.406129 0
M  V30 5875 H 568.193 -1.1419 1.57945 0
M  V30 5876 H 567.289 -2.66915 1.61749 0
M  V30 5877 N 567.59 -1.07411 -1.15328 0
M  V30 5878 C 568.838 -0.796073 -1.85761 0
M  V30 5879 C 569.159 0.679864 -1.82764 0
M  V30 5880 O 568.429 1.49242 -1.269 0
M  V30 5881 H 567.009 -0.291495 -0.687779 0
M  V30 5882 H 569.671 -1.35799 -1.39802 0
M  V30 5883 H 568.767 -1.13114 -2.90881 0
M  V30 5884 N 569.068 1.32177 -0.85831 0
M  V30 5885 C 570.015 2.28794 -0.303607 0
M  V30 5886 C 570.985 1.55213 0.591453 0
M  V30 5887 O 572.17 1.83418 0.525585 0
M  V30 5888 C 569.31 3.41475 0.49889 0
M  V30 5889 C 568.423 4.2993 -0.422373 0
M  V30 5890 C 567.558 5.29743 0.393111 0
M  V30 5891 C 566.597 6.09842 -0.525317 0
M  V30 5892 N 565.734 7.01643 0.253208 0
M  V30 5893 H 570.574 2.75631 -1.13276 0
M  V30 5894 H 568.111 1.35606 -0.570026 0
M  V30 5895 H 570.069 4.05531 0.979826 0
M  V30 5896 H 568.699 2.95779 1.29284 0
M  V30 5897 H 567.751 3.66422 -1.02171 0
M  V30 5898 H 569.063 4.85899 -1.12709 0
M  V30 5899 H 568.217 5.9942 0.937056 0
M  V30 5900 H 566.956 4.744 1.13117 0
M  V30 5901 H 565.961 5.39066 -1.08112 0
M  V30 5902 H 567.186 6.6727 -1.26205 0
M  V30 5903 H 565.132 6.48725 0.974295 0
M  V30 5904 H 565.049 7.54981 -0.392398 0
M  V30 5905 H 566.317 7.756 0.778761 0
M  V30 5906 N 570.547 0.616602 1.45037 0
M  V30 5907 C 571.477 -0.0840787 2.33349 0
M  V30 5908 C 572.458 -0.849641 1.4736 0
M  V30 5909 O 573.643 -0.818407 1.76113 0
M  V30 5910 C 570.773 -1.07604 3.3021 0
M  V30 5911 C 569.727 -0.423096 4.25904 0
M  V30 5912 C 569.053 -1.52394 5.12523 0
M  V30 5913 C 570.353 0.661457 5.18095 0
M  V30 5914 H 572.047 0.653333 2.92185 0
M  V30 5915 H 569.593 0.315634 1.40498 0
M  V30 5916 H 571.546 -1.57485 3.90866 0
M  V30 5917 H 570.27 -1.84416 2.69552 0
M  V30 5918 H 568.929 0.05493 3.66559 0
M  V30 5919 H 568.577 -2.28257 4.48227 0
M  V30 5920 H 568.277 -1.09251 5.77354 0
M  V30 5921 H 569.801 -2.02485 5.76049 0
M  V30 5922 H 571.215 0.246353 5.7277 0
M  V30 5923 H 569.612 1.01517 5.91451 0
M  V30 5924 H 570.682 1.53446 4.59981 0
M  V30 5925 N 572.025 -1.5352 0.356285 0
M  V30 5926 C 573.255 -2.05236 -0.236983 0
M  V30 5927 C 573.663 -1.23016 -1.43749 0
M  V30 5928 O 573.006 -0.2615 -1.81829 0
M  V30 5929 C 573.068 -3.52549 -0.7035 0
M  V30 5930 C 572.732 -4.55425 0.379059 0
M  V30 5931 C 573.729 -5.0524 1.22592 0
M  V30 5932 C 571.414 -4.99425 0.536638 0
M  V30 5933 C 573.408 -5.97647 2.21578 0
M  V30 5934 C 571.095 -5.9164 1.52988 0
M  V30 5935 C 572.093 -6.4064 2.3679 0
M  V30 5936 O 571.781 -7.31039 3.34421 0
M  V30 5937 H 571.513 -0.674346 -0.047254 0
M  V30 5938 H 574.067 -1.98962 0.510238 0
M  V30 5939 H 572.297 -3.56331 -1.50217 0
M  V30 5940 H 573.986 -3.87171 -1.21873 0
M  V30 5941 H 574.752 -4.72002 1.11532 0
M  V30 5942 H 570.631 -4.60879 -0.105834 0
M  V30 5943 H 574.175 -6.35816 2.87025 0
M  V30 5944 H 570.072 -6.24293 1.64099 0
M  V30 5945 H 570.84 -7.49009 3.30041 0
M  V30 5946 N 573.503 -0.0852151 -1.57369 0
M  V30 5947 C 574.919 0.271436 -1.57275 0
M  V30 5948 C 575.119 1.69109 -1.09565 0
M  V30 5949 O 574.175 2.40549 -0.767611 0
M  V30 5950 C 575.488 0.0688638 -3.00621 0
M  V30 5951 C 577.036 0.137373 -3.12698 0
M  V30 5952 C 577.511 -0.0370832 -4.57985 0
M  V30 5953 N 579.002 0.0180794 -4.63196 0
M  V30 5954 C 579.737 -0.0922953 -5.73326 0
M  V30 5955 N 579.233 -0.256948 -6.92323 0
M  V30 5956 N 581.026 -0.0342702 -5.6209 0
M  V30 5957 H 573.177 -1.01288 -1.86693 0
M  V30 5958 H 575.44 -0.396138 -0.861266 0
M  V30 5959 H 575.146 -0.911277 -3.39689 0
M  V30 5960 H 575.02 0.815442 -3.6828 0
M  V30 5961 H 577.407 1.10801 -2.73509 0
M  V30 5962 H 577.488 -0.640532 -2.47651 0
M  V30 5963 H 577.132 -1.00455 -4.97867 0
M  V30 5964 H 577.062 0.760392 -5.21081 0
M  V30 5965 H 579.553 0.143202 -3.77629 0
M  V30 5966 H 579.866 -0.332949 -7.72082 0
M  V30 5967 H 578.211 -0.292487 -6.94384 0
M  V30 5968 H 581.402 0.0931605 -4.68007 0
M  V30 5969 H 581.575 -0.12374 -6.47882 0
M  V30 5970 N 574.981 1.5647 0.188427 0
M  V30 5971 C 575.913 1.91611 1.25769 0
M  V30 5972 C 576.926 0.807436 1.41366 0
M  V30 5973 O 578.115 1.08586 1.41673 0
M  V30 5974 C 575.215 2.13874 2.6289 0
M  V30 5975 C 574.388 3.45047 2.68815 0
M  V30 5976 C 573.447 3.56342 3.87178 0
M  V30 5977 O 572.473 4.29109 3.73971 0
M  V30 5978 N 573.675 2.89924 5.02916 0
M  V30 5979 H 576.44 2.8393 0.959373 0
M  V30 5980 H 574.001 1.57418 0.378306 0
M  V30 5981 H 575.993 2.18713 3.4051 0
M  V30 5982 H 574.563 1.28022 2.85183 0
M  V30 5983 H 573.783 3.52017 1.77419 0
M  V30 5984 H 575.071 4.31395 2.6977 0
M  V30 5985 H 574.469 2.30644 5.16546 0
M  V30 5986 H 573.026 3.0038 5.78459 0
M  V30 5987 N 576.459 -0.456382 1.50847 0
M  V30 5988 C 577.707 -1.20497 1.62249 0
M  V30 5989 C 578.028 -1.92156 0.331839 0
M  V30 5990 O 577.298 -1.84751 -0.651443 0
M  V30 5991 H 575.878 -0.447775 0.597918 0
M  V30 5992 H 578.54 -0.525099 1.87693 0
M  V30 5993 H 577.636 -1.94492 2.44089 0
M  V30 5994 N 577.937 -1.40673 -0.710563 0
M  V30 5995 C 578.867 -1.44095 -1.83736 0
M  V30 5996 C 579.848 -0.301286 -1.67411 0
M  V30 5997 O 581.033 -0.510618 -1.87367 0
M  V30 5998 C 578.163 -1.30773 -3.21738 0
M  V30 5999 C 577.117 -2.42395 -3.52745 0
M  V30 6000 C 576.443 -2.14147 -4.89944 0
M  V30 6001 C 577.743 -3.84738 -3.53234 0
M  V30 6002 H 579.437 -2.38396 -1.81129 0
M  V30 6003 H 576.983 -1.14746 -0.870017 0
M  V30 6004 H 578.936 -1.31783 -4.00264 0
M  V30 6005 H 577.66 -0.329507 -3.24934 0
M  V30 6006 H 576.319 -2.40643 -2.76562 0
M  V30 6007 H 575.967 -1.14703 -4.89747 0
M  V30 6008 H 575.667 -2.88934 -5.11655 0
M  V30 6009 H 577.191 -2.16848 -5.70797 0
M  V30 6010 H 578.605 -3.88286 -4.2179 0
M  V30 6011 H 577.002 -4.59085 -3.86473 0
M  V30 6012 H 578.072 -4.13962 -2.52514 0
M  V30 6013 N 579.415 0.9433 -1.26252 0
M  V30 6014 C 580.661 1.69175 -1.11837 0
M  V30 6015 C 580.994 1.91238 0.337891 0
M  V30 6016 O 580.269 1.49152 1.24836 0
M  V30 6017 C 580.552 3.06783 -1.88563 0
M  V30 6018 C 580.405 2.9206 -3.42083 0
M  V30 6019 C 581.724 4.06865 -1.67776 0
M  V30 6020 H 578.843 0.61399 -0.407658 0
M  V30 6021 H 581.485 1.09572 -1.55222 0
M  V30 6022 H 579.635 3.57663 -1.51689 0
M  V30 6023 H 581.307 2.48419 -3.88698 0
M  V30 6024 H 579.55 2.27731 -3.69217 0
M  V30 6025 H 580.221 3.89651 -3.90994 0
M  V30 6026 H 582.697 3.64939 -1.99897 0
M  V30 6027 H 581.573 5.01168 -2.23879 0
M  V30 6028 H 581.834 4.37705 -0.621816 0
M  V30 6029 N 580.893 1.08022 1.14757 0
M  V30 6030 C 581.84 0.706657 2.19716 0
M  V30 6031 C 582.81 -0.30525 1.63271 0
M  V30 6032 O 583.995 -0.19015 1.8985 0
M  V30 6033 C 581.135 0.117914 3.44898 0
M  V30 6034 C 580.248 1.18212 4.15512 0
M  V30 6035 C 579.383 0.557659 5.28265 0
M  V30 6036 C 578.422 1.60418 5.90705 0
M  V30 6037 N 577.559 1.0018 6.94916 0
M  V30 6038 H 582.399 1.60603 2.51019 0
M  V30 6039 H 579.936 0.802664 1.23271 0
M  V30 6040 H 581.894 -0.241112 4.16503 0
M  V30 6041 H 580.524 -0.744788 3.1409 0
M  V30 6042 H 579.576 1.65863 3.42335 0
M  V30 6043 H 580.888 1.97533 4.5802 0
M  V30 6044 H 580.042 0.146654 6.06523 0
M  V30 6045 H 578.781 -0.267249 4.86967 0
M  V30 6046 H 577.786 2.02489 5.11154 0
M  V30 6047 H 579.011 2.43149 6.34078 0
M  V30 6048 H 576.957 0.197917 6.55701 0
M  V30 6049 H 576.874 1.73216 7.35889 0
M  V30 6050 H 578.142 0.616523 7.77058 0
M  V30 6051 N 582.371 -1.3172 0.865308 0
M  V30 6052 C 583.304 -2.26687 0.262376 0
M  V30 6053 C 584.282 -1.50894 -0.605787 0
M  V30 6054 O 585.466 -1.79982 -0.56024 0
M  V30 6055 C 582.593 -3.3281 -0.628915 0
M  V30 6056 C 581.639 -4.26172 0.167278 0
M  V30 6057 S 582.472 -5.12797 1.54272 0
M  V30 6058 C 583.628 -6.22438 0.657427 0
M  V30 6059 H 583.861 -2.77478 1.0674 0
M  V30 6060 H 581.394 -1.39414 0.663555 0
M  V30 6061 H 583.352 -3.94426 -1.13747 0
M  V30 6062 H 582.013 -2.80782 -1.40785 0
M  V30 6063 H 581.206 -5.01392 -0.51203 0
M  V30 6064 H 580.808 -3.69029 0.607777 0
M  V30 6065 H 583.1 -6.77368 -0.133925 0
M  V30 6066 H 584.043 -6.9451 1.38061 0
M  V30 6067 H 584.451 -5.64043 0.227044 0
M  V30 6068 N 583.85 -0.624285 -1.44708 0
M  V30 6069 C 584.798 0.0969952 -2.32398 0
M  V30 6070 C 585.792 0.842762 -1.46949 0
M  V30 6071 O 586.998 0.756436 -1.63334 0
M  V30 6072 H 583.373 0.0501306 -0.750327 0
M  V30 6073 H 585.344 -0.660767 -2.90992 0
M  V30 6074 C 584.093 1.06967 -3.30837 0
M  V30 6075 H 583.416 0.505242 -3.96595 0
M  V30 6076 H 584.856 1.54397 -3.94889 0
M  V30 6077 C 583.315 2.15153 -2.5925 0
M  V30 6078 O 583.845 3.23139 -2.3863 0
M  V30 6079 N 582.051 1.90898 -2.19103 0
M  V30 6080 H 581.598 1.03086 -2.36074 0
M  V30 6081 H 581.556 2.63485 -1.71531 0
M  V30 6082 N 585.328 1.53329 -0.364422 0
M  V30 6083 C 586.238 2.29414 0.490552 0
M  V30 6084 C 587.254 1.35335 1.09363 0
M  V30 6085 O 588.43 1.68391 1.10483 0
M  V30 6086 C 585.495 3.06772 1.61529 0
M  V30 6087 C 584.556 4.16516 1.03986 0
M  V30 6088 C 583.789 4.90176 2.111 0
M  V30 6089 O 584.012 4.63687 3.32191 0
M  V30 6090 O 582.946 5.76134 1.74222 0
M  V30 6091 H 586.772 3.03428 -0.12856 0
M  V30 6092 H 584.357 1.48843 -0.128837 0
M  V30 6093 H 586.239 3.55082 2.26924 0
M  V30 6094 H 584.914 2.35596 2.21983 0
M  V30 6095 H 583.821 3.7246 0.349856 0
M  V30 6096 H 585.154 4.89855 0.4799 0
M  V30 6097 N 586.806 0.0935595 1.57322 0
M  V30 6098 C 588.053 -0.570509 1.94297 0
M  V30 6099 C 588.381 -1.68286 0.97519 0
M  V30 6100 O 587.636 -1.95699 -0.00548655 0
M  V30 6101 C 587.935 -1.16692 3.37813 0
M  V30 6102 C 587.601 -0.178509 4.50547 0
M  V30 6103 C 586.263 0.0933475 4.81109 0
M  V30 6104 C 588.615 0.496472 5.1883 0
M  V30 6105 C 585.943 1.0469 5.77284 0
M  V30 6106 C 588.295 1.43849 6.16028 0
M  V30 6107 C 586.959 1.71859 6.44997 0
M  V30 6108 H 586.229 -0.208764 0.710984 0
M  V30 6109 H 588.876 0.169066 1.90752 0
M  V30 6110 H 587.181 -1.98271 3.37929 0
M  V30 6111 H 588.878 -1.6884 3.63722 0
M  V30 6112 H 585.468 -0.400584 4.26724 0
M  V30 6113 H 589.652 0.299584 4.95395 0
M  V30 6114 H 584.908 1.27094 5.98044 0
M  V30 6115 H 589.082 1.96734 6.68034 0
M  V30 6116 H 586.709 2.45906 7.19329 0
M  V30 6117 N 588.284 -1.56567 -0.180126 0
M  V30 6118 C 589.53 -1.81761 -0.899497 0
M  V30 6119 C 589.863 -0.670015 -1.82276 0
M  V30 6120 O 589.138 0.328575 -1.91705 0
M  V30 6121 C 589.421 -3.17296 -1.7028 0
M  V30 6122 C 589.274 -4.4257 -0.803255 0
M  V30 6123 C 590.593 -3.49678 -2.67233 0
M  V30 6124 H 587.712 -0.661192 -0.325567 0
M  V30 6125 H 590.354 -1.89272 -0.16612 0
M  V30 6126 H 588.504 -3.11023 -2.32802 0
M  V30 6127 H 590.176 -4.60902 -0.191585 0
M  V30 6128 H 588.419 -4.33658 -0.110796 0
M  V30 6129 H 589.09 -5.33935 -1.40064 0
M  V30 6130 H 591.566 -3.56347 -2.14839 0
M  V30 6131 H 590.442 -4.45605 -3.20511 0
M  V30 6132 H 590.703 -2.73932 -3.47007 0
M  V30 6133 N 589.762 0.448376 -1.51087 0
M  V30 6134 C 590.99 1.22143 -1.66999 0
M  V30 6135 C 591.405 1.85283 -0.362699 0
M  V30 6136 O 590.762 1.70236 0.65772 0
M  V30 6137 C 590.813 2.31357 -2.7777 0
M  V30 6138 O 590.534 1.70801 -4.03434 0
M  V30 6139 C 592.035 3.21836 -3.04855 0
M  V30 6140 H 589.255 0.368558 -0.560719 0
M  V30 6141 H 591.799 0.532618 -1.97442 0
M  V30 6142 H 589.954 2.95973 -2.49958 0
M  V30 6143 H 590.368 2.42895 -4.64868 0
M  V30 6144 H 591.842 3.94627 -3.85971 0
M  V30 6145 H 592.319 3.81949 -2.16821 0
M  V30 6146 H 592.925 2.62933 -3.34285 0
M  V30 6147 N 591.24 1.41047 0.703093 0
M  V30 6148 C 592.17 1.45067 1.82969 0
M  V30 6149 C 593.151 0.31016 1.67248 0
M  V30 6150 O 594.336 0.520548 1.87093 0
M  V30 6151 C 591.466 1.32478 3.2104 0
M  V30 6152 C 590.42 2.44262 3.51454 0
M  V30 6153 C 589.746 2.16742 4.88801 0
M  V30 6154 C 591.046 3.86606 3.51189 0
M  V30 6155 H 592.74 2.39353 1.79863 0
M  V30 6156 H 590.286 1.15206 0.863919 0
M  V30 6157 H 592.239 1.33904 3.99559 0
M  V30 6158 H 590.963 0.346735 3.24754 0
M  V30 6159 H 589.622 2.42107 2.75282 0
M  V30 6160 H 589.27 1.17299 4.89132 0
M  V30 6161 H 588.97 2.91643 5.10116 0
M  V30 6162 H 590.494 2.19872 5.69639 0
M  V30 6163 H 591.908 3.90517 4.19725 0
M  V30 6164 H 590.305 4.61128 3.84033 0
M  V30 6165 H 591.375 4.15296 2.50315 0
M  V30 6166 N 592.718 -0.936591 1.26751 0
M  V30 6167 C 593.958 -1.69796 1.13792 0
M  V30 6168 C 594.322 -1.89437 -0.312671 0
M  V30 6169 O 595.523 -2.62806 -0.564489 0
M  V30 6170 C 593.794 -3.03297 1.89065 0
M  V30 6171 S 595.353 -3.94461 1.92214 0
M  V30 6172 H 592.171 -0.583412 0.406389 0
M  V30 6173 H 594.773 -1.11575 1.60535 0
M  V30 6174 H 593.477 -2.86687 2.93665 0
M  V30 6175 H 593.008 -3.66575 1.42781 0
M  V30 6176 H 595.023 -4.85767 1.01215 0
M  V30 6177 N 594.196 -1.08629 -1.14182 0
M  V30 6178 C 595.159 -0.722027 -2.1753 0
M  V30 6179 C 596.159 0.244305 -1.58933 0
M  V30 6180 O 597.349 0.0235545 -1.74184 0
M  V30 6181 C 594.481 -0.0663966 -3.40835 0
M  V30 6182 H 595.674 -1.63719 -2.51269 0
M  V30 6183 H 593.227 -0.884442 -1.28869 0
M  V30 6184 H 593.962 0.860389 -3.12678 0
M  V30 6185 H 593.747 -0.761598 -3.84632 0
M  V30 6186 H 595.237 0.173346 -4.1724 0
M  V30 6187 N 595.674 1.31259 -0.872281 0
M  V30 6188 C 597.09 1.49283 -0.564521 0
M  V30 6189 C 597.29 1.80243 0.900807 0
M  V30 6190 O 596.346 1.88246 1.68284 0
M  V30 6191 C 597.659 2.62503 -1.46673 0
M  V30 6192 C 599.207 2.76386 -1.46901 0
M  V30 6193 C 599.682 3.92705 -2.35684 0
M  V30 6194 N 601.173 3.99995 -2.33577 0
M  V30 6195 C 601.908 4.89276 -2.98992 0
M  V30 6196 N 601.404 5.83443 -3.73585 0
M  V30 6197 N 603.197 4.82541 -2.88289 0
M  V30 6198 H 595.348 1.09432 -1.82039 0
M  V30 6199 H 597.611 0.540949 -0.77851 0
M  V30 6200 H 597.317 2.46407 -2.50951 0
M  V30 6201 H 597.191 3.58695 -1.16696 0
M  V30 6202 H 599.578 2.91894 -0.433796 0
M  V30 6203 H 599.659 1.80853 -1.80903 0
M  V30 6204 H 599.303 3.77954 -3.39283 0
M  V30 6205 H 599.233 4.87549 -1.99006 0
M  V30 6206 H 601.724 3.32624 -1.7936 0
M  V30 6207 H 602.037 6.48303 -4.20622 0
M  V30 6208 H 600.382 5.83415 -3.77694 0
M  V30 6209 H 603.573 4.07951 -2.2955 0
M  V30 6210 H 603.746 5.51916 -3.39549 0
M  V30 6211 N 597.152 0.631951 1.44375 0
M  V30 6212 C 598.429 0.067646 1.95483 0
M  V30 6213 C 598.809 -1.40683 1.57389 0
M  V30 6214 O 598.157 -2.12167 0.848375 0
M  V30 6215 C 598.367 0.291392 3.47781 0
M  V30 6216 C 599.715 0.185028 4.24197 0
M  V30 6217 O 600.739 0.222803 3.55503 0
M  V30 6218 O 599.598 0.0906642 5.46425 0
M  V30 6219 H 596.692 -0.0218379 0.826712 0
M  V30 6220 H 599.238 0.703711 1.54421 0
M  V30 6221 H 598.01 1.31449 3.68561 0
M  V30 6222 H 597.633 -0.378772 3.95792 0
M  V30 6223 N 598.631 -1.53133 0.372548 0
M  V30 6224 C 600.047 -1.59585 0.02178 0
M  V30 6225 C 600.247 -1.38736 -1.46132 0
M  V30 6226 O 599.303 -1.19599 -2.22379 0
M  V30 6227 C 600.616 -2.9678 0.483959 0
M  V30 6228 C 602.164 -3.09909 0.438775 0
M  V30 6229 C 602.639 -4.49527 0.876876 0
M  V30 6230 N 604.13 -4.55663 0.832214 0
M  V30 6231 C 604.865 -5.61896 1.14281 0
M  V30 6232 N 604.361 -6.75852 1.52303 0
M  V30 6233 N 606.154 -5.51916 1.06515 0
M  V30 6234 H 598.305 -1.64936 1.33827 0
M  V30 6235 H 600.568 -0.773947 0.547458 0
M  V30 6236 H 600.274 -3.17198 1.51915 0
M  V30 6237 H 600.148 -3.7699 -0.125784 0
M  V30 6238 H 602.535 -2.89197 -0.587294 0
M  V30 6239 H 602.616 -2.31691 1.0841 0
M  V30 6240 H 602.26 -4.70979 1.90109 0
M  V30 6241 H 602.19 -5.26186 0.208727 0
M  V30 6242 H 604.681 -3.73844 0.552195 0
M  V30 6243 H 604.994 -7.52862 1.7441 0
M  V30 6244 H 603.339 -6.77226 1.56175 0
M  V30 6245 H 606.53 -4.6177 0.767235 0
M  V30 6246 H 606.703 -6.34609 1.31053 0
M  V30 6247 N 600.109 -0.101901 -1.5727 0
M  V30 6248 C 601.039 0.851544 -2.17419 0
M  V30 6249 C 602.02 1.28942 -1.10941 0
M  V30 6250 O 603.205 1.35509 -1.39107 0
M  V30 6251 C 600.335 2.10816 -2.75996 0
M  V30 6252 C 599.289 1.80867 -3.87906 0
M  V30 6253 C 598.615 3.13413 -4.33216 0
M  V30 6254 C 599.915 1.0903 -5.10793 0
M  V30 6255 H 601.609 0.350381 -2.97343 0
M  V30 6256 H 599.155 0.16709 -1.43027 0
M  V30 6257 H 601.108 2.77959 -3.16729 0
M  V30 6258 H 599.832 2.63227 -1.93337 0
M  V30 6259 H 598.491 1.16119 -3.47724 0
M  V30 6260 H 598.139 3.63725 -3.47438 0
M  V30 6261 H 597.839 2.94155 -5.08671 0
M  V30 6262 H 599.363 3.81704 -4.76586 0
M  V30 6263 H 600.777 1.66295 -5.48652 0
M  V30 6264 H 599.174 0.99927 -5.91722 0
M  V30 6265 H 600.244 0.0741704 -4.84843 0
M  V30 6266 N 601.587 1.56661 0.17182 0
M  V30 6267 C 602.998 1.71652 0.734329 0
M  V30 6268 C 603.349 0.712335 1.82812 0
M  V30 6269 O 602.474 -0.126401 2.16031 0
M  V30 6270 C 603.069 3.11226 1.3388 0
M  V30 6271 C 601.628 3.27904 1.84813 0
M  V30 6272 C 600.775 2.67603 0.726917 0
M  V30 6273 H 603.726 1.5861 -0.0535665 0
M  V30 6274 H 603.747 3.09849 2.20849 0
M  V30 6275 H 603.259 3.8429 0.54249 0
M  V30 6276 H 601.36 2.59796 2.6709 0
M  V30 6277 H 601.473 4.35637 1.99392 0
M  V30 6278 H 599.837 2.274 1.14723 0
M  V30 6279 H 600.62 3.43252 -0.0575334 0
M  V30 6280 N 603.065 -0.440357 1.51323 0
M  V30 6281 C 604.314 -1.18697 1.63076 0
M  V30 6282 C 604.627 -1.92418 0.35136 0
M  V30 6283 O 605.833 -2.69258 0.348221 0
M  V30 6284 C 604.289 -2.15849 2.87988 0
M  V30 6285 C 603.897 -1.47789 4.22921 0
M  V30 6286 C 605.641 -2.90962 3.09098 0
M  V30 6287 C 603.548 -2.43407 5.38987 0
M  V30 6288 H 602.478 -0.44676 0.607389 0
M  V30 6289 H 605.129 -0.454313 1.77787 0
M  V30 6290 H 603.511 -2.92537 2.66905 0
M  V30 6291 H 604.685 -0.7668 4.54375 0
M  V30 6292 H 603 -0.848404 4.07665 0
M  V30 6293 H 605.597 -3.62584 3.92985 0
M  V30 6294 H 605.94 -3.52133 2.22053 0
M  V30 6295 H 606.473 -2.21381 3.30507 0
M  V30 6296 H 603.212 -1.86929 6.28282 0
M  V30 6297 H 602.732 -3.12579 5.11913 0
M  V30 6298 H 604.411 -3.046 5.70813 0
M  V30 6299 N 604.543 -1.41418 -0.695603 0
M  V30 6300 C 605.789 -1.40982 -1.4578 0
M  V30 6301 C 606.122 -0.0187763 -1.94191 0
M  V30 6302 O 605.397 0.95346 -1.69527 0
M  V30 6303 C 605.68 -2.41657 -2.66972 0
M  V30 6304 C 605.533 -3.89869 -2.24327 0
M  V30 6305 C 606.852 -2.39589 -3.69168 0
M  V30 6306 H 603.971 -0.513405 -0.528757 0
M  V30 6307 H 606.613 -1.72693 -0.792275 0
M  V30 6308 H 604.763 -2.14746 -3.23754 0
M  V30 6309 H 606.435 -4.27683 -1.72872 0
M  V30 6310 H 604.678 -4.04737 -1.56111 0
M  V30 6311 H 605.349 -4.55857 -3.11285 0
M  V30 6312 H 607.825 -2.63471 -3.2206 0
M  V30 6313 H 606.701 -3.12044 -4.51575 0
M  V30 6314 H 606.962 -1.41447 -4.18862 0
M  V30 6315 N 606.021 0.929856 -1.27246 0
M  V30 6316 C 607.267 1.6802 -1.14634 0
M  V30 6317 C 607.622 1.89965 0.305151 0
M  V30 6318 O 606.915 1.47737 1.22001 0
M  V30 6319 C 607.109 3.05116 -1.86115 0
M  V30 6320 C 606.938 2.96549 -3.38066 0
M  V30 6321 C 605.708 2.98947 -4.0738 0
M  V30 6322 C 607.906 2.7583 -4.34077 0
M  V30 6323 N 605.888 2.80799 -5.45917 0
M  V30 6324 C 607.259 2.66364 -5.59866 0
M  V30 6325 C 609.314 2.60701 -4.24193 0
M  V30 6326 C 608.017 2.43313 -6.76898 0
M  V30 6327 C 610.043 2.39026 -5.40944 0
M  V30 6328 C 609.405 2.30302 -6.65688 0
M  V30 6329 H 605.504 0.62172 -0.474329 0
M  V30 6330 H 608.088 1.09947 -1.60685 0
M  V30 6331 H 606.259 3.61306 -1.42522 0
M  V30 6332 H 607.991 3.69076 -1.66027 0
M  V30 6333 H 604.746 3.09093 -3.58829 0
M  V30 6334 H 605.17 2.74861 -6.18692 0
M  V30 6335 H 609.812 2.66206 -3.28473 0
M  V30 6336 H 607.53 2.36548 -7.72704 0
M  V30 6337 H 611.116 2.28208 -5.35175 0
M  V30 6338 H 609.996 2.13756 -7.54505 0
M  V30 6339 N 607.499 1.09233 1.13605 0
M  V30 6340 C 608.748 0.82205 1.84188 0
M  V30 6341 C 609.061 -0.654548 1.84323 0
M  V30 6342 O 610.267 -1.04029 2.50779 0
M  V30 6343 C 608.723 1.42066 3.30674 0
M  V30 6344 C 608.331 2.92965 3.38933 0
M  V30 6345 C 610.075 1.22924 4.06313 0
M  V30 6346 C 607.982 3.45922 4.79679 0
M  V30 6347 H 606.912 0.303854 0.690064 0
M  V30 6348 H 609.563 1.31479 1.28006 0
M  V30 6349 H 607.945 0.855613 3.86646 0
M  V30 6350 H 609.119 3.55679 2.92966 0
M  V30 6351 H 607.434 3.11118 2.76757 0
M  V30 6352 H 610.031 1.59945 5.10217 0
M  V30 6353 H 610.374 0.169726 4.15954 0
M  V30 6354 H 610.907 1.76168 3.56665 0
M  V30 6355 H 607.646 4.51484 4.75229 0
M  V30 6356 H 607.166 2.87971 5.26149 0
M  V30 6357 H 608.845 3.43009 5.48592 0
M  V30 6358 N 608.977 -1.30795 0.87923 0
M  V30 6359 C 609.909 -2.27241 0.299025 0
M  V30 6360 C 610.922 -1.53472 -0.543166 0
M  V30 6361 O 612.111 -1.74756 -0.363651 0
M  V30 6362 C 609.211 -3.33655 -0.593931 0
M  V30 6363 C 608.384 -4.36857 0.2179 0
M  V30 6364 C 607.443 -5.22715 -0.604646 0
M  V30 6365 O 606.469 -5.69192 -0.0293838 0
M  V30 6366 N 607.671 -5.48008 -1.91488 0
M  V30 6367 H 610.436 -2.77667 1.12788 0
M  V30 6368 H 607.997 -1.43914 0.741637 0
M  V30 6369 H 609.989 -3.88013 -1.15012 0
M  V30 6370 H 608.559 -2.83202 -1.32346 0
M  V30 6371 H 607.779 -3.82444 0.955536 0
M  V30 6372 H 609.067 -5.02869 0.774614 0
M  V30 6373 H 608.465 -5.1202 -2.40525 0
M  V30 6374 H 607.022 -6.05264 -2.41864 0
M  V30 6375 N 610.455 -0.639598 -1.44038 0
M  V30 6376 C 611.732 -0.078012 -1.95444 0
M  V30 6377 C 612.112 1.39847 -1.58133 0
M  V30 6378 O 611.46 2.11714 -0.859614 0
M  V30 6379 C 611.67 -0.309832 -3.47622 0
M  V30 6380 C 613.018 -0.207521 -4.24093 0
M  V30 6381 O 614.042 -0.241653 -3.55379 0
M  V30 6382 O 612.901 -0.119641 -5.46369 0
M  V30 6383 H 609.995 0.0174534 -0.826816 0
M  V30 6384 H 612.541 -0.711891 -1.54046 0
M  V30 6385 H 611.313 -1.33401 -3.67858 0
M  V30 6386 H 610.936 0.357777 -3.95987 0
M  V30 6387 N 611.933 1.52934 -0.380664 0
M  V30 6388 C 613.161 2.05886 0.204599 0
M  V30 6389 C 613.576 1.25305 1.41223 0
M  V30 6390 O 612.933 0.297504 1.80059 0
M  V30 6391 C 612.984 3.56764 0.583249 0
M  V30 6392 O 612.705 4.34292 -0.576398 0
M  V30 6393 C 614.206 4.2603 1.2253 0
M  V30 6394 H 611.426 0.670193 0.0328991 0
M  V30 6395 H 613.97 1.97148 -0.543397 0
M  V30 6396 H 612.125 3.65603 1.28115 0
M  V30 6397 H 612.539 5.23819 -0.267119 0
M  V30 6398 H 614.013 5.32868 1.44068 0
M  V30 6399 H 614.49 3.80698 2.19011 0
M  V30 6400 H 615.096 4.21485 0.568407 0
M  V30 6401 N 613.412 0.11024 1.57214 0
M  V30 6402 C 614.64 -0.557834 1.99238 0
M  V30 6403 C 615.055 -1.60778 0.989734 0
M  V30 6404 O 614.412 -1.82491 -0.0186092 0
M  V30 6405 C 614.463 -1.19189 3.41286 0
M  V30 6406 O 614.184 -0.183919 4.37714 0
M  V30 6407 C 615.685 -1.94413 3.98395 0
M  V30 6408 H 612.905 -0.148392 0.654386 0
M  V30 6409 H 615.449 0.193996 2.03578 0
M  V30 6410 H 613.604 -1.89456 3.37913 0
M  V30 6411 H 614.018 -0.643475 5.20538 0
M  V30 6412 H 615.492 -2.34116 4.99894 0
M  V30 6413 H 615.969 -2.81592 3.3705 0
M  V30 6414 H 616.575 -1.28928 4.05287 0
M  V30 6415 N 614.89 -1.56749 -0.16351 0
M  V30 6416 C 616.138 -1.82074 -0.87713 0
M  V30 6417 C 616.459 -0.688503 -1.82441 0
M  V30 6418 O 615.729 0.291085 -1.93725 0
M  V30 6419 H 614.309 -0.671677 -0.326893 0
M  V30 6420 H 616.971 -1.9423 -0.161459 0
M  V30 6421 H 616.067 -2.76407 -1.44934 0
M  V30 6422 N 616.368 0.432326 -1.51554 0
M  V30 6423 C 617.617 1.17831 -1.63703 0
M  V30 6424 C 617.93 1.92229 -0.36156 0
M  V30 6425 O 619.136 2.69069 -0.362495 0
M  V30 6426 C 617.592 2.14318 -2.89129 0
M  V30 6427 C 617.2 1.45544 -4.23699 0
M  V30 6428 C 618.944 2.89319 -3.10636 0
M  V30 6429 C 616.851 2.40545 -5.4027 0
M  V30 6430 H 615.781 0.443533 -0.60975 0
M  V30 6431 H 618.432 0.444878 -1.78026 0
M  V30 6432 H 616.814 2.91117 -2.68452 0
M  V30 6433 H 617.988 0.742693 -4.54775 0
M  V30 6434 H 616.303 0.826772 -4.0811 0
M  V30 6435 H 618.9 3.60495 -3.94902 0
M  V30 6436 H 619.243 3.50951 -2.23918 0
M  V30 6437 H 619.776 2.19625 -3.31677 0
M  V30 6438 H 616.515 1.83594 -6.29264 0
M  V30 6439 H 616.035 3.09859 -5.13563 0
M  V30 6440 H 617.714 3.01569 -5.72421 0
M  V30 6441 N 617.846 1.41785 0.688094 0
M  V30 6442 C 619.123 1.32031 1.44316 0
M  V30 6443 C 619.503 -0.0486079 2.11044 0
M  V30 6444 O 618.851 -1.06332 2.02252 0
M  V30 6445 C 619.061 2.47906 2.45649 0
M  V30 6446 C 620.409 2.89415 3.10683 0
M  V30 6447 O 621.433 2.477 2.55975 0
M  V30 6448 O 620.292 3.61573 4.09789 0
M  V30 6449 H 617.386 0.519994 0.643067 0
M  V30 6450 H 619.932 1.53765 0.71794 0
M  V30 6451 H 618.704 3.39222 1.95048 0
M  V30 6452 H 618.327 2.28089 3.25671 0
M  V30 6453 N 619.324 -0.923095 1.27737 0
M  V30 6454 C 620.57 -1.67375 1.14514 0
M  V30 6455 C 620.903 -1.91751 -0.307424 0
M  V30 6456 O 620.178 -1.51119 -1.22447 0
M  V30 6457 C 620.461 -3.03745 1.9342 0
M  V30 6458 C 620.314 -2.86581 3.46686 0
M  V30 6459 C 621.633 -4.04144 1.74228 0
M  V30 6460 H 618.752 -0.607427 0.417374 0
M  V30 6461 H 621.394 -1.07089 1.56946 0
M  V30 6462 H 619.544 -3.55204 1.5736 0
M  V30 6463 H 621.216 -2.42203 3.92601 0
M  V30 6464 H 619.459 -2.21829 3.72793 0
M  V30 6465 H 620.13 -3.83381 3.97143 0
M  V30 6466 H 622.606 -3.61712 2.05678 0
M  V30 6467 H 621.482 -4.97543 2.31824 0
M  V30 6468 H 621.743 -4.36661 0.691373 0
M  V30 6469 N 620.802 -1.09834 -1.13024 0
M  V30 6470 C 622.05 -0.835297 -1.8403 0
M  V30 6471 C 622.371 0.640944 -1.84165 0
M  V30 6472 O 621.641 1.46517 -1.30037 0
M  V30 6473 H 620.221 -0.306018 -0.681441 0
M  V30 6474 H 622.883 -1.38734 -1.36891 0
M  V30 6475 H 621.979 -1.19258 -2.88416 0
M  V30 6476 N 622.28 1.30327 -0.886154 0
M  V30 6477 C 623.228 2.30052 -0.343317 0
M  V30 6478 C 624.222 1.60212 0.550305 0
M  V30 6479 O 625.428 1.74674 0.434609 0
M  V30 6480 H 621.803 0.746306 -0.0923681 0
M  V30 6481 H 623.774 2.73294 -1.19804 0
M  V30 6482 C 622.523 3.45079 0.426107 0
M  V30 6483 H 621.846 3.99003 -0.25227 0
M  V30 6484 H 623.286 4.16931 0.771009 0
M  V30 6485 C 621.745 2.95195 1.62363 0
M  V30 6486 O 622.275 2.95323 2.723 0
M  V30 6487 N 620.481 2.51192 1.4612 0
M  V30 6488 H 620.028 2.51286 0.566832 0
M  V30 6489 H 619.986 2.18173 2.2638 0
M  V30 6490 N 623.758 0.647228 1.43697 0
M  V30 6491 C 625.035 0.0883758 1.954 0
M  V30 6492 C 625.415 -1.39006 1.58873 0
M  V30 6493 O 624.763 -2.11255 0.87083 0
M  V30 6494 C 624.973 0.328263 3.47453 0
M  V30 6495 C 626.321 0.230009 4.23977 0
M  V30 6496 O 627.345 0.260496 3.55246 0
M  V30 6497 O 626.204 0.148615 5.46298 0
M  V30 6498 H 623.298 -0.0130683 0.826897 0
M  V30 6499 H 625.844 0.72005 1.53666 0
M  V30 6500 H 624.616 1.3535 3.67146 0
M  V30 6501 H 624.239 -0.336772 3.96171 0
M  V30 6502 N 625.236 -1.5273 0.388769 0
M  V30 6503 C 626.199 -2.25043 -0.434544 0
M  V30 6504 C 627.199 -1.26661 -0.990644 0
M  V30 6505 O 628.389 -1.50762 -0.872731 0
M  V30 6506 C 625.521 -3.00507 -1.60961 0
M  V30 6507 H 626.714 -2.99242 0.198549 0
M  V30 6508 H 624.267 -1.55664 0.140875 0
M  V30 6509 H 625.002 -2.30607 -2.28015 0
M  V30 6510 H 624.787 -3.72716 -1.21757 0
M  V30 6511 H 626.277 -3.55413 -2.19251 0
M  V30 6512 N 626.714 -0.118576 -1.57153 0
M  V30 6513 C 627.624 0.845484 -2.18835 0
M  V30 6514 C 628.64 1.29299 -1.16438 0
M  V30 6515 O 629.816 1.35607 -1.48905 0
M  V30 6516 C 626.881 2.07795 -2.77529 0
M  V30 6517 C 625.942 1.6824 -3.9496 0
M  V30 6518 C 625.175 2.85612 -4.50845 0
M  V30 6519 O 625.398 4.01025 -4.05629 0
M  V30 6520 O 624.332 2.62721 -5.41536 0
M  V30 6521 H 628.158 0.350568 -3.0167 0
M  V30 6522 H 625.743 0.107013 -1.49016 0
M  V30 6523 H 627.625 2.79978 -3.14945 0
M  V30 6524 H 626.3 2.56294 -1.97725 0
M  V30 6525 H 625.207 0.931663 -3.62313 0
M  V30 6526 H 626.54 1.24484 -4.76198 0
M  V30 6527 N 628.193 1.56834 0.155195 0
M  V30 6528 C 629.14 1.97646 1.19184 0
M  V30 6529 C 630.11 0.842788 1.4313 0
M  V30 6530 O 631.295 1.1042 1.55602 0
M  V30 6531 C 628.435 2.35527 2.52232 0
M  V30 6532 C 627.548 3.62147 2.35529 0
M  V30 6533 C 626.683 3.89167 3.61555 0
M  V30 6534 C 625.722 5.09084 3.39853 0
M  V30 6535 N 624.859 5.32156 4.5799 0
M  V30 6536 H 629.699 2.8601 0.836802 0
M  V30 6537 H 627.236 1.41507 0.401758 0
M  V30 6538 H 629.194 2.55516 3.29799 0
M  V30 6539 H 627.824 1.50253 2.85699 0
M  V30 6540 H 626.876 3.4998 1.49057 0
M  V30 6541 H 628.188 4.49871 2.15448 0
M  V30 6542 H 627.342 4.09611 4.47553 0
M  V30 6543 H 626.081 2.9985 3.84632 0
M  V30 6544 H 625.086 4.88522 2.52243 0
M  V30 6545 H 626.311 5.99947 3.18183 0
M  V30 6546 H 624.257 4.45791 4.81255 0
M  V30 6547 H 624.174 6.14133 4.40882 0
M  V30 6548 H 625.442 5.57091 5.45225 0
M  V30 6549 N 629.671 -0.424282 1.51781 0
M  V30 6550 C 630.634 -1.49848 1.73431 0
M  V30 6551 C 631.634 -1.49016 0.604225 0
M  V30 6552 O 632.824 -1.50808 0.871935 0
M  V30 6553 C 629.956 -2.89332 1.80277 0
M  V30 6554 H 631.149 -1.3195 2.69312 0
M  V30 6555 H 628.702 -0.653809 1.41968 0
M  V30 6556 H 629.437 -3.12618 0.862568 0
M  V30 6557 H 629.222 -2.9134 2.62419 0
M  V30 6558 H 630.712 -3.67233 1.98821 0
M  V30 6559 N 631.149 -1.42148 -0.680565 0
M  V30 6560 C 632.059 -1.47565 -1.82378 0
M  V30 6561 C 633.075 -0.36489 -1.70131 0
M  V30 6562 O 634.251 -0.614916 -1.91783 0
M  V30 6563 C 631.316 -1.37013 -3.18478 0
M  V30 6564 C 630.377 -2.58532 -3.42724 0
M  V30 6565 C 629.61 -2.48473 -4.72331 0
M  V30 6566 O 629.833 -1.51745 -5.49845 0
M  V30 6567 O 628.767 -3.38503 -4.97694 0
M  V30 6568 H 632.593 -2.44045 -1.80764 0
M  V30 6569 H 630.178 -1.23849 -0.835569 0
M  V30 6570 H 632.06 -1.33468 -3.99705 0
M  V30 6571 H 630.735 -0.436552 -3.20743 0
M  V30 6572 H 629.642 -2.67652 -2.61368 0
M  V30 6573 H 630.975 -3.50769 -3.45286 0
M  V30 6574 N 632.627 0.916307 -1.28225 0
M  V30 6575 C 633.557 2.0352 -1.14464 0
M  V30 6576 C 634.538 1.70045 -0.0430844 0
M  V30 6577 O 635.723 1.92954 -0.219619 0
M  V30 6578 C 632.853 3.37889 -0.803027 0
M  V30 6579 C 631.807 3.85516 -1.85908 0
M  V30 6580 C 631.133 5.1682 -1.37116 0
M  V30 6581 C 632.433 4.07655 -3.26519 0
M  V30 6582 H 634.127 2.1529 -2.08064 0
M  V30 6583 H 631.673 1.03446 -1.00174 0
M  V30 6584 H 633.626 4.15654 -0.693537 0
M  V30 6585 H 632.35 3.26164 0.168674 0
M  V30 6586 H 631.009 3.09953 -1.95767 0
M  V30 6587 H 630.657 5.01497 -0.38859 0
M  V30 6588 H 630.357 5.49657 -2.07728 0
M  V30 6589 H 631.881 5.97143 -1.27484 0
M  V30 6590 H 633.295 4.75953 -3.19596 0
M  V30 6591 H 631.692 4.51818 -3.94943 0
M  V30 6592 H 632.762 3.12553 -3.70727 0
M  V30 6593 N 634.105 1.10431 1.1244 0
M  V30 6594 C 635.035 0.775143 2.20258 0
M  V30 6595 C 636.016 -0.25186 1.68225 0
M  V30 6596 O 637.201 -0.117637 1.93843 0
M  V30 6597 C 634.331 0.206133 3.46688 0
M  V30 6598 C 633.285 1.16382 4.11873 0
M  V30 6599 C 632.611 0.456014 5.32752 0
M  V30 6600 C 633.911 2.5104 4.58013 0
M  V30 6601 H 635.605 1.67665 2.4805 0
M  V30 6602 H 633.151 0.807595 1.19222 0
M  V30 6603 H 635.104 -0.036291 4.21384 0
M  V30 6604 H 633.828 -0.730614 3.18323 0
M  V30 6605 H 632.487 1.39169 3.39157 0
M  V30 6606 H 632.135 -0.485203 5.00654 0
M  V30 6607 H 631.835 1.09466 5.77314 0
M  V30 6608 H 633.359 0.222135 6.10196 0
M  V30 6609 H 634.773 2.32401 5.24083 0
M  V30 6610 H 633.17 3.10789 5.13352 0
M  V30 6611 H 634.24 3.11039 3.71998 0
M  V30 6612 N 635.583 -1.29855 0.893053 0
M  V30 6613 C 636.831 -1.9544 0.514566 0
M  V30 6614 C 637.152 -1.70795 -0.940959 0
M  V30 6615 O 636.422 -1.03601 -1.66264 0
M  V30 6616 H 635.002 -0.723137 0.187302 0
M  V30 6617 H 637.664 -1.58234 1.13789 0
M  V30 6618 H 636.76 -3.04341 0.691581 0
M  V30 6619 N 637.061 -0.65484 -1.43351 0
M  V30 6620 C 637.991 0.0221809 -2.33489 0
M  V30 6621 C 638.972 0.810272 -1.49561 0
M  V30 6622 O 640.157 0.771426 -1.78221 0
M  V30 6623 C 637.287 0.988117 -3.32947 0
M  V30 6624 C 636.241 0.310026 -4.26876 0
M  V30 6625 C 635.567 1.38752 -5.16384 0
M  V30 6626 C 636.867 -0.798589 -5.16159 0
M  V30 6627 H 638.561 -0.730571 -2.9035 0
M  V30 6628 H 636.107 -0.352773 -1.39612 0
M  V30 6629 H 638.06 1.47067 -3.94904 0
M  V30 6630 H 636.784 1.77205 -2.74346 0
M  V30 6631 H 635.443 -0.152097 -3.66284 0
M  V30 6632 H 635.091 2.16293 -4.54121 0
M  V30 6633 H 634.791 0.939051 -5.80048 0
M  V30 6634 H 636.315 1.87141 -5.81215 0
M  V30 6635 H 637.729 -0.398126 -5.71916 0
M  V30 6636 H 636.126 -1.17163 -5.88552 0
M  V30 6637 H 637.196 -1.65588 -4.55751 0
M  V30 6638 N 638.539 1.52521 -0.396863 0
M  V30 6639 C 639.787 2.01274 0.182536 0
M  V30 6640 C 640.108 1.28485 1.46685 0
M  V30 6641 O 639.378 0.407134 1.91623 0
M  V30 6642 H 637.958 0.743671 0.0704442 0
M  V30 6643 H 640.62 1.87547 -0.530289 0
M  V30 6644 H 639.716 3.09687 0.387385 0
M  V30 6645 N 640.017 0.126909 1.57088 0
M  V30 6646 C 640.949 -0.850973 2.12817 0
M  V30 6647 C 641.962 -1.22457 1.07276 0
M  V30 6648 O 643.151 -1.17215 1.34622 0
M  V30 6649 C 640.251 -2.15039 2.61938 0
M  V30 6650 C 639.424 -1.94726 3.91664 0
M  V30 6651 C 638.483 -3.0847 4.26301 0
M  V30 6652 O 637.509 -2.81038 4.94981 0
M  V30 6653 N 638.711 -4.35116 3.84259 0
M  V30 6654 H 641.476 -0.3748 2.97347 0
M  V30 6655 H 639.037 -0.0572793 1.61799 0
M  V30 6656 H 641.029 -2.90141 2.82135 0
M  V30 6657 H 639.599 -2.5398 1.82244 0
M  V30 6658 H 638.819 -1.03772 3.80296 0
M  V30 6659 H 640.107 -1.78469 4.76473 0
M  V30 6660 H 639.505 -4.60276 3.2888 0
M  V30 6661 H 638.062 -5.07064 4.09548 0
M  V30 6662 N 641.495 -1.56914 -0.146875 0
M  V30 6663 C 642.72 -1.87881 -0.878386 0
M  V30 6664 C 643.145 -0.715945 -1.73942 0
M  V30 6665 O 642.503 0.334447 -1.78189 0
M  V30 6666 C 642.551 -3.17431 -1.71084 0
M  V30 6667 O 641.655 -3.01374 -2.81509 0
M  V30 6668 H 640.996 -0.617289 -0.244644 0
M  V30 6669 H 643.526 -2.04136 -0.137654 0
M  V30 6670 H 643.536 -3.49455 -2.10582 0
M  V30 6671 H 642.211 -4.01671 -1.07856 0
M  V30 6672 H 640.788 -2.80758 -2.45416 0
M  V30 6673 N 642.974 0.416227 -1.52004 0
M  V30 6674 C 643.904 1.51365 -1.77795 0
M  V30 6675 C 644.885 1.58059 -0.628601 0
M  V30 6676 O 646.07 1.73447 -0.873478 0
M  V30 6677 C 643.2 2.89256 -1.92219 0
M  V30 6678 C 642.154 2.97415 -3.0778 0
M  V30 6679 C 641.48 4.37492 -3.07417 0
M  V30 6680 C 642.78 2.69551 -4.47369 0
M  V30 6681 H 644.474 1.30033 -2.69688 0
M  V30 6682 H 642.02 0.624112 -1.29772 0
M  V30 6683 H 643.973 3.66008 -2.08845 0
M  V30 6684 H 642.697 3.11866 -0.969917 0
M  V30 6685 H 641.356 2.23107 -2.90893 0
M  V30 6686 H 641.004 4.571 -2.09925 0
M  V30 6687 H 640.704 4.43877 -3.85029 0
M  V30 6688 H 642.228 5.16188 -3.26162 0
M  V30 6689 H 643.642 3.36028 -4.64497 0
M  V30 6690 H 642.039 2.87321 -5.26846 0
M  V30 6691 H 643.109 1.65029 -4.55953 0
M  V30 6692 N 644.452 1.42507 0.673017 0
M  V30 6693 C 645.701 1.42364 1.42883 0
M  V30 6694 C 646.014 0.0441598 1.9555 0
M  V30 6695 O 647.22 -0.0798679 2.71382 0
M  V30 6696 C 645.676 2.5043 2.58482 0
M  V30 6697 C 645.284 3.94392 2.12506 0
M  V30 6698 C 647.028 2.59455 3.35981 0
M  V30 6699 C 644.935 4.93964 3.25198 0
M  V30 6700 H 643.865 0.52951 0.536782 0
M  V30 6701 H 646.516 1.68422 0.728448 0
M  V30 6702 H 644.898 2.1754 3.30896 0
M  V30 6703 H 646.072 4.36645 1.47233 0
M  V30 6704 H 644.387 3.89233 1.4794 0
M  V30 6705 H 646.984 3.31025 4.19912 0
M  V30 6706 H 647.327 1.63869 3.82691 0
M  V30 6707 H 647.86 2.91549 2.70637 0
M  V30 6708 H 644.599 5.91034 2.83477 0
M  V30 6709 H 644.119 4.56341 3.89247 0
M  V30 6710 H 645.798 5.15763 3.90637 0
M  V30 6711 N 645.93 -0.909495 1.28709 0
M  V30 6712 C 647.16 -1.69027 1.188 0
M  V30 6713 C 647.568 -1.87469 -0.255329 0
M  V30 6714 O 646.911 -1.40458 -1.18394 0
M  V30 6715 C 646.973 -3.10064 1.81936 0
M  V30 6716 C 646.637 -3.14891 3.31199 0
M  V30 6717 C 647.634 -2.95768 4.27571 0
M  V30 6718 C 645.319 -3.37269 3.7223 0
M  V30 6719 C 647.313 -2.98942 5.6295 0
M  V30 6720 C 645 -3.40074 5.07733 0
M  V30 6721 C 645.998 -3.20932 6.02903 0
M  V30 6722 O 645.686 -3.23507 7.35934 0
M  V30 6723 H 645.418 -0.535014 0.413203 0
M  V30 6724 H 647.972 -1.14645 1.70428 0
M  V30 6725 H 646.202 -3.66005 1.24808 0
M  V30 6726 H 647.891 -3.70185 1.66486 0
M  V30 6727 H 648.657 -2.78302 3.97206 0
M  V30 6728 H 644.536 -3.51212 2.98615 0
M  V30 6729 H 648.08 -2.83919 6.37209 0
M  V30 6730 H 643.977 -3.5707 5.37747 0
M  V30 6731 H 644.745 -3.3984 7.44615 0
M  V30 6732 N 647.408 -1.11026 -1.11852 0
M  V30 6733 C 648.633 -0.879064 -1.87849 0
M  V30 6734 C 649.058 0.565406 -1.79401 0
M  V30 6735 O 648.416 1.39886 -1.15333 0
M  V30 6736 C 648.464 -1.33985 -3.34784 0
M  V30 6737 O 647.568 -0.508803 -4.09249 0
M  V30 6738 H 646.909 -0.316992 -0.583448 0
M  V30 6739 H 649.439 -1.47863 -1.41413 0
M  V30 6740 H 649.449 -1.33248 -3.85628 0
M  V30 6741 H 648.124 -2.39172 -3.40249 0
M  V30 6742 H 646.701 -0.581913 -3.68332 0
M  V30 6743 N 648.886 1.2938 -0.899927 0
M  V30 6744 C 650.135 1.9483 -0.521937 0
M  V30 6745 C 650.448 1.71725 0.936473 0
M  V30 6746 O 651.654 2.31282 1.42199 0
M  V30 6747 C 650.11 3.48911 -0.88255 0
M  V30 6748 C 649.718 3.80815 -2.35974 0
M  V30 6749 C 651.462 4.20595 -0.57448 0
M  V30 6750 C 649.369 5.28142 -2.66121 0
M  V30 6751 H 648.299 0.729285 -0.191468 0
M  V30 6752 H 650.95 1.47103 -1.09695 0
M  V30 6753 H 649.332 3.95293 -0.236459 0
M  V30 6754 H 650.506 3.45291 -3.05141 0
M  V30 6755 H 648.821 3.22271 -2.63686 0
M  V30 6756 H 651.418 5.29031 -0.776556 0
M  V30 6757 H 651.761 4.13442 0.487005 0
M  V30 6758 H 652.294 3.79945 -1.17842 0
M  V30 6759 H 649.033 5.4036 -3.71068 0
M  V30 6760 H 648.553 5.64913 -2.01578 0
M  V30 6761 H 650.232 5.95738 -2.52399 0
M  V30 6762 N 650.364 0.662433 1.43002 0
M  V30 6763 C 651.296 -0.062326 2.29115 0
M  V30 6764 C 652.309 -0.777926 1.43011 0
M  V30 6765 O 653.498 -0.634146 1.66856 0
M  V30 6766 C 650.598 -1.11163 3.2015 0
M  V30 6767 C 649.771 -0.472327 4.34842 0
M  V30 6768 C 648.83 -1.41974 5.06685 0
M  V30 6769 O 647.856 -0.924795 5.61637 0
M  V30 6770 N 649.058 -2.75345 5.11043 0
M  V30 6771 H 651.823 0.676838 2.91957 0
M  V30 6772 H 649.384 0.505907 1.53793 0
M  V30 6773 H 651.376 -1.74643 3.65078 0
M  V30 6774 H 649.946 -1.75266 2.58845 0
M  V30 6775 H 649.166 0.341751 3.92716 0
M  V30 6776 H 650.454 -0.0264381 5.08793 0
M  V30 6777 H 649.852 -3.18108 4.67786 0
M  V30 6778 H 648.409 -3.34105 5.59658 0
M  V30 6779 N 651.842 -1.52309 0.404946 0
M  V30 6780 C 653.07 -2.06185 -0.171818 0
M  V30 6781 C 653.485 -1.27536 -1.39212 0
M  V30 6782 O 652.842 -0.326112 -1.79563 0
M  V30 6783 C 652.893 -3.57647 -0.526417 0
M  V30 6784 O 652.614 -4.3332 0.645417 0
M  V30 6785 C 654.115 -4.27925 -1.15736 0
M  V30 6786 H 651.335 -0.670632 -0.0222328 0
M  V30 6787 H 653.879 -1.96259 0.574692 0
M  V30 6788 H 652.034 -3.67595 -1.22282 0
M  V30 6789 H 652.448 -5.23328 0.35042 0
M  V30 6790 H 653.922 -5.35093 -1.35572 0
M  V30 6791 H 654.399 -3.84134 -2.12926 0
M  V30 6792 H 655.005 -4.22335 -0.501281 0
M  V30 6793 N 653.32 -0.135238 -1.57019 0
M  V30 6794 C 654.545 0.529343 -2.00531 0
M  V30 6795 C 654.97 1.58391 -1.01459 0
M  V30 6796 O 654.328 1.81296 0.0113986 0
M  V30 6797 C 654.376 1.11748 -3.42848 0
M  V30 6798 O 653.48 2.23267 -3.46736 0
M  V30 6799 H 652.821 0.130669 -0.651016 0
M  V30 6800 H 655.351 -0.228503 -2.0332 0
M  V30 6801 H 655.361 1.44905 -3.81401 0
M  V30 6802 H 654.036 0.345147 -4.14465 0
M  V30 6803 H 652.613 1.91428 -3.20015 0
M  V30 6804 N 654.798 1.5699 0.138552 0
M  V30 6805 C 655.748 1.9532 1.17619 0
M  V30 6806 C 656.732 0.825545 1.38107 0
M  V30 6807 O 657.924 1.08908 1.39528 0
M  V30 6808 C 655.053 2.34451 2.50774 0
M  V30 6809 C 654.139 3.53805 2.33844 0
M  V30 6810 N 654.53 4.70088 1.86685 0
M  V30 6811 C 652.828 3.59055 2.64567 0
M  V30 6812 C 653.529 5.52165 1.82998 0
M  V30 6813 N 652.505 4.94108 2.26624 0
M  V30 6814 H 656.307 2.82694 0.803809 0
M  V30 6815 H 653.821 1.5866 0.346519 0
M  V30 6816 H 655.818 2.60119 3.25797 0
M  V30 6817 H 654.478 1.48431 2.88788 0
M  V30 6818 H 655.489 4.93681 1.56523 0
M  V30 6819 H 652.166 2.83596 3.06398 0
M  V30 6820 H 653.556 6.55407 1.47957 0
M  V30 6821 N 656.276 -0.40816 1.52223 0
M  V30 6822 C 657.525 -1.15212 1.65557 0
M  V30 6823 C 657.838 -1.9163 0.392096 0
M  V30 6824 O 659.044 -2.68458 0.405256 0
M  V30 6825 C 657.5 -2.09691 2.92502 0
M  V30 6826 C 657.108 -1.38785 4.25961 0
M  V30 6827 C 658.852 -2.8434 3.152 0
M  V30 6828 C 656.759 -2.31919 5.44029 0
M  V30 6829 H 655.689 -0.433776 0.616729 0
M  V30 6830 H 658.34 -0.4165 1.78711 0
M  V30 6831 H 656.722 -2.8681 2.7305 0
M  V30 6832 H 657.896 -0.670248 4.55899 0
M  V30 6833 H 656.211 -0.761741 4.09373 0
M  V30 6834 H 658.808 -3.54166 4.00587 0
M  V30 6835 H 659.151 -3.47344 2.29473 0
M  V30 6836 H 659.684 -2.14321 3.35129 0
M  V30 6837 H 656.423 -1.7356 6.32105 0
M  V30 6838 H 655.943 -3.0165 5.18428 0
M  V30 6839 H 657.622 -2.92424 5.77146 0
M  V30 6840 N 657.755 -1.42862 -0.66545 0
M  V30 6841 C 659.166 -1.3901 -1.24632 0
M  V30 6842 C 659.517 -0.0880285 -1.96002 0
M  V30 6843 O 658.642 0.812947 -2.0055 0
M  V30 6844 C 659.237 -2.51806 -2.2667 0
M  V30 6845 C 657.796 -2.51257 -2.80262 0
M  V30 6846 C 656.943 -2.30124 -1.5472 0
M  V30 6847 H 659.894 -1.5194 -0.458237 0
M  V30 6848 H 659.915 -2.22593 -3.08598 0
M  V30 6849 H 659.427 -3.46558 -1.74697 0
M  V30 6850 H 657.528 -1.60349 -3.36332 0
M  V30 6851 H 657.641 -3.48614 -3.28641 0
M  V30 6852 H 656.005 -1.7856 -1.81627 0
M  V30 6853 H 656.788 -3.26945 -1.04699 0
M  V30 6854 N 659.233 0.902656 -1.29189 0
M  V30 6855 C 660.165 2.01149 -1.09872 0
M  V30 6856 C 661.178 1.62732 -0.0471046 0
M  V30 6857 O 662.367 1.76107 -0.29132 0
M  V30 6858 C 659.467 3.32612 -0.649818 0
M  V30 6859 C 658.64 3.99574 -1.7793 0
M  V30 6860 C 657.699 5.09325 -1.32191 0
M  V30 6861 O 656.725 5.31919 -2.02611 0
M  V30 6862 N 657.927 5.80185 -0.191171 0
M  V30 6863 H 660.692 2.18276 -2.05368 0
M  V30 6864 H 658.253 1.07466 -1.2109 0
M  V30 6865 H 660.245 4.03375 -0.327199 0
M  V30 6866 H 658.815 3.11876 0.212597 0
M  V30 6867 H 658.035 3.22213 -2.27095 0
M  V30 6868 H 659.323 4.41056 -2.53668 0
M  V30 6869 H 658.721 5.64312 0.396016 0
M  V30 6870 H 657.278 6.5176 0.0721001 0
M  V30 6871 N 660.711 1.11618 1.11262 0
M  V30 6872 C 661.958 0.86618 1.8304 0
M  V30 6873 C 662.286 -0.608149 1.84748 0
M  V30 6874 O 661.541 -1.46508 1.29745 0
M  V30 6875 C 661.84 1.37529 3.2988 0
M  V30 6876 C 661.506 2.86317 3.4833 0
M  V30 6877 C 660.168 3.26945 3.53073 0
M  V30 6878 C 662.52 3.82136 3.54431 0
M  V30 6879 C 659.848 4.62117 3.61475 0
M  V30 6880 C 662.2 5.17128 3.64365 0
M  V30 6881 C 660.864 5.57312 3.67369 0
M  V30 6882 H 660.134 0.316958 0.66979 0
M  V30 6883 H 662.781 1.3949 1.31205 0
M  V30 6884 H 661.086 0.766842 3.84222 0
M  V30 6885 H 662.783 1.15817 3.83911 0
M  V30 6886 H 659.373 2.53889 3.45309 0
M  V30 6887 H 663.557 3.51847 3.50025 0
M  V30 6888 H 658.813 4.92655 3.62079 0
M  V30 6889 H 662.987 5.91208 3.68029 0
M  V30 6890 H 660.614 6.62045 3.73632 0
M  V30 6891 N 662.189 -1.289 0.906776 0
M  V30 6892 C 663.099 -2.31256 0.394707 0
M  V30 6893 C 664.115 -1.66231 -0.514121 0
M  V30 6894 O 665.291 -1.97347 -0.401994 0
M  V30 6895 C 662.356 -3.44792 -0.363191 0
M  V30 6896 C 661.417 -4.25391 0.578012 0
M  V30 6897 C 660.65 -5.33506 -0.143811 0
M  V30 6898 O 660.873 -5.53786 -1.36665 0
M  V30 6899 O 659.807 -5.99673 0.5173 0
M  V30 6900 H 663.633 -2.77051 1.24405 0
M  V30 6901 H 661.218 -1.33466 0.671346 0
M  V30 6902 H 663.1 -4.139 -0.791503 0
M  V30 6903 H 661.775 -3.01093 -1.18848 0
M  V30 6904 H 660.682 -3.58899 1.05558 0
M  V30 6905 H 662.015 -4.72752 1.36992 0
M  V30 6906 N 663.667 -0.670007 -1.42649 0
M  V30 6907 C 664.916 -0.187526 -2.00826 0
M  V30 6908 C 665.229 1.21142 -1.53571 0
M  V30 6909 O 666.435 1.79001 -2.04134 0
M  V30 6910 C 664.891 -0.284409 -3.58774 0
M  V30 6911 C 664.499 -1.6871 -4.15019 0
M  V30 6912 C 666.243 0.139605 -4.2427 0
M  V30 6913 C 664.15 -1.73701 -5.65316 0
M  V30 6914 H 663.08 -0.0663468 -0.751075 0
M  V30 6915 H 665.731 -0.834492 -1.63427 0
M  V30 6916 H 664.113 0.430364 -3.93655 0
M  V30 6917 H 665.287 -2.42857 -3.91608 0
M  V30 6918 H 663.602 -2.05855 -3.61957 0
M  V30 6919 H 666.199 0.122398 -5.3456 0
M  V30 6920 H 666.542 1.17403 -3.99402 0
M  V30 6921 H 667.075 -0.523995 -3.94334 0
M  V30 6922 H 663.814 -2.75109 -5.94975 0
M  V30 6923 H 663.334 -1.03903 -5.90732 0
M  V30 6924 H 665.013 -1.48829 -6.2965 0
M  V30 6925 N 665.145 1.52092 -0.413018 0
M  V30 6926 C 666.373 2.06274 0.160881 0
M  V30 6927 C 666.788 1.28273 1.38533 0
M  V30 6928 O 666.145 0.33563 1.79387 0
M  V30 6929 C 666.196 3.57921 0.507443 0
M  V30 6930 O 665.917 4.32971 -0.668388 0
M  V30 6931 C 667.418 4.28533 1.13465 0
M  V30 6932 H 664.638 0.67074 0.0186759 0
M  V30 6933 H 667.182 1.95951 -0.585092 0
M  V30 6934 H 665.337 3.68238 1.20331 0
M  V30 6935 H 665.751 5.23135 -0.378169 0
M  V30 6936 H 667.225 5.35804 1.32732 0
M  V30 6937 H 667.702 3.85258 2.10886 0
M  V30 6938 H 668.308 4.22595 0.478876 0
M  V30 6939 N 666.623 0.143563 1.56945 0
M  V30 6940 C 667.553 -0.7936 2.196 0
M  V30 6941 C 668.534 -1.25955 1.14321 0
M  V30 6942 O 669.719 -1.31773 1.42651 0
M  V30 6943 C 666.849 -2.03424 2.81489 0
M  V30 6944 C 665.803 -1.70519 3.92565 0
M  V30 6945 C 665.129 -3.01817 4.41373 0
M  V30 6946 C 666.429 -0.95449 5.13504 0
M  V30 6947 H 668.123 -0.271423 2.98167 0
M  V30 6948 H 665.669 -0.12911 1.4342 0
M  V30 6949 H 667.622 -2.69463 3.23987 0
M  V30 6950 H 666.346 -2.58008 2.00248 0
M  V30 6951 H 665.005 -1.06859 3.5068 0
M  V30 6952 H 664.653 -3.54386 3.56959 0
M  V30 6953 H 664.353 -2.80565 5.16292 0
M  V30 6954 H 665.877 -3.68934 4.86539 0
M  V30 6955 H 667.291 -1.5169 5.52868 0
M  V30 6956 H 665.688 -0.842035 5.94163 0
M  V30 6957 H 666.758 0.0544033 4.84869 0
M  V30 6958 N 668.101 -1.57061 -0.130224 0
M  V30 6959 C 669.517 -1.52103 -0.483413 0
M  V30 6960 C 669.717 -0.854752 -1.82473 0
M  V30 6961 O 668.773 -0.432342 -2.48771 0
M  V30 6962 C 670.086 -2.96872 -0.47825 0
M  V30 6963 C 671.634 -3.07902 -0.562592 0
M  V30 6964 C 672.109 -4.54211 -0.587929 0
M  V30 6965 N 673.6 -4.58621 -0.649684 0
M  V30 6966 C 674.335 -5.69227 -0.690551 0
M  V30 6967 N 673.831 -6.89358 -0.689743 0
M  V30 6968 N 675.624 -5.57304 -0.732708 0
M  V30 6969 H 667.775 -1.98764 0.748779 0
M  V30 6970 H 670.038 -0.907248 0.274965 0
M  V30 6971 H 669.744 -3.48944 0.439444 0
M  V30 6972 H 669.618 -3.53716 -1.31013 0
M  V30 6973 H 672.005 -2.5584 -1.47071 0
M  V30 6974 H 672.086 -2.54073 0.296764 0
M  V30 6975 H 671.73 -5.06915 0.316096 0
M  V30 6976 H 671.66 -5.0584 -1.46401 0
M  V30 6977 H 674.151 -3.72146 -0.656927 0
M  V30 6978 H 674.464 -7.69408 -0.723239 0
M  V30 6979 H 672.809 -6.91884 -0.657347 0
M  V30 6980 H 676 -4.62363 -0.730625 0
M  V30 6981 H 676.173 -6.43515 -0.76109 0
M  V30 6982 N 669.579 0.400081 -1.52437 0
M  V30 6983 C 670.526 1.48803 -1.76426 0
M  V30 6984 C 671.496 1.5461 -0.607032 0
M  V30 6985 O 672.681 1.71041 -0.845563 0
M  V30 6986 C 669.821 2.86156 -1.92896 0
M  V30 6987 C 668.934 2.89587 -3.20567 0
M  V30 6988 C 668.069 4.18296 -3.27417 0
M  V30 6989 C 667.108 4.15736 -4.49255 0
M  V30 6990 N 666.245 5.36032 -4.53447 0
M  V30 6991 H 671.085 1.27649 -2.69276 0
M  V30 6992 H 668.622 0.619451 -1.33421 0
M  V30 6993 H 670.58 3.65901 -2.00429 0
M  V30 6994 H 669.21 3.05785 -1.03418 0
M  V30 6995 H 668.262 2.02278 -3.22161 0
M  V30 6996 H 669.574 2.83562 -4.10358 0
M  V30 6997 H 668.728 5.06439 -3.34072 0
M  V30 6998 H 667.467 4.27028 -2.35581 0
M  V30 6999 H 666.472 3.25982 -4.42737 0
M  V30 7000 H 667.697 4.08636 -5.42396 0
M  V30 7001 H 665.643 5.45415 -3.64498 0
M  V30 7002 H 665.56 5.32038 -5.37096 0
M  V30 7003 H 666.828 6.26104 -4.64343 0
M  V30 7004 N 671.057 1.43213 0.657864 0
M  V30 7005 C 672.305 1.44298 1.41501 0
M  V30 7006 C 672.626 0.0666478 1.94886 0
M  V30 7007 O 671.896 -0.897345 1.74139 0
M  V30 7008 H 670.476 0.531257 0.525143 0
M  V30 7009 H 673.138 1.78777 0.776195 0
M  V30 7010 H 672.234 2.1528 2.25966 0
M  V30 7011 N 672.536 -0.895792 1.29666 0
M  V30 7012 C 673.764 -1.68001 1.20761 0
M  V30 7013 C 674.179 -1.87379 -0.231187 0
M  V30 7014 O 673.536 -1.41359 -1.15429 0
M  V30 7015 C 673.587 -3.06236 1.92098 0
M  V30 7016 O 673.308 -2.8774 3.30359 0
M  V30 7017 C 674.809 -4.00652 1.89717 0
M  V30 7018 H 672.029 -0.524591 0.418384 0
M  V30 7019 H 674.573 -1.11995 1.71106 0
M  V30 7020 H 672.728 -3.59007 1.45578 0
M  V30 7021 H 673.142 -3.75359 3.66342 0
M  V30 7022 H 674.616 -4.95051 2.44189 0
M  V30 7023 H 675.093 -4.30424 0.873595 0
M  V30 7024 H 675.699 -3.53815 2.35998 0
M  V30 7025 N 674.014 -1.12206 -1.10668 0
M  V30 7026 C 674.977 -0.790867 -2.15123 0
M  V30 7027 C 675.977 0.193618 -1.5963 0
M  V30 7028 O 677.167 -0.0318728 -1.74171 0
M  V30 7029 C 674.299 -0.174797 -3.40452 0
M  V30 7030 H 675.492 -1.7163 -2.45933 0
M  V30 7031 H 673.045 -0.924993 -1.2599 0
M  V30 7032 H 673.78 0.760478 -3.15257 0
M  V30 7033 H 673.565 -0.88358 -3.82015 0
M  V30 7034 H 675.055 0.0405162 -4.1758 0
M  V30 7035 N 675.492 1.28418 -0.913599 0
M  V30 7036 C 676.455 2.25564 -0.406624 0
M  V30 7037 C 677.455 1.5387 0.466965 0
M  V30 7038 O 678.645 1.72094 0.270042 0
M  V30 7039 C 675.777 3.38339 0.417053 0
M  V30 7040 H 676.97 2.71926 -1.26477 0
M  V30 7041 H 674.523 1.40098 -0.692986 0
M  V30 7042 H 675.258 2.97339 1.29461 0
M  V30 7043 H 675.043 3.91542 -0.209102 0
M  V30 7044 H 676.533 4.10578 0.762602 0
M  V30 7045 N 676.97 0.677563 1.42291 0
M  V30 7046 C 677.933 0.0101085 2.29198 0
M  V30 7047 C 678.933 -0.726219 1.43467 0
M  V30 7048 O 680.123 -0.563807 1.64824 0
M  V30 7049 C 677.255 -0.996316 3.26016 0
M  V30 7050 H 678.448 0.775071 2.89711 0
M  V30 7051 H 676.001 0.440065 1.49977 0
M  V30 7052 H 676.736 -1.78967 2.70446 0
M  V30 7053 H 676.521 -0.471687 3.89253 0
M  V30 7054 H 678.011 -1.46167 3.91184 0
M  V30 7055 N 678.448 -1.51871 0.421078 0
M  V30 7056 C 679.398 -2.24171 -0.416111 0
M  V30 7057 C 680.382 -1.25763 -1.00362 0
M  V30 7058 O 681.574 -1.5094 -0.924452 0
M  V30 7059 C 678.703 -3.07533 -1.52571 0
M  V30 7060 C 677.789 -4.1336 -0.948399 0
M  V30 7061 N 678.18 -5.05704 -0.0987933 0
M  V30 7062 C 676.478 -4.29055 -1.21768 0
M  V30 7063 C 677.179 -5.8127 0.223705 0
M  V30 7064 N 676.155 -5.4221 -0.388524 0
M  V30 7065 H 679.957 -2.92925 0.239166 0
M  V30 7066 H 677.471 -1.60732 0.232191 0
M  V30 7067 H 679.468 -3.57893 -2.13819 0
M  V30 7068 H 678.128 -2.4032 -2.18349 0
M  V30 7069 H 679.139 -5.17214 0.266428 0
M  V30 7070 H 675.816 -3.73071 -1.87416 0
M  V30 7071 H 677.206 -6.65653 0.914076 0
M  V30 7072 N 679.926 -0.151884 -1.56866 0
M  V30 7073 C 681.156 0.504081 -2.00356 0
M  V30 7074 C 681.564 1.58639 -1.03103 0
M  V30 7075 O 680.907 1.83688 -0.0207931 0
M  V30 7076 C 680.969 1.15975 -3.40279 0
M  V30 7077 C 680.633 0.221453 -4.56463 0
M  V30 7078 C 681.63 -0.552766 -5.16953 0
M  V30 7079 C 679.315 0.122936 -5.0215 0
M  V30 7080 C 681.309 -1.4129 -6.21543 0
M  V30 7081 C 678.996 -0.740801 -6.06593 0
M  V30 7082 C 679.994 -1.50732 -6.6616 0
M  V30 7083 O 679.682 -2.35666 -7.68581 0
M  V30 7084 H 679.414 0.135279 -0.662326 0
M  V30 7085 H 681.968 -0.244916 -2.03935 0
M  V30 7086 H 680.198 1.95649 -3.33554 0
M  V30 7087 H 681.887 1.71594 -3.67846 0
M  V30 7088 H 682.653 -0.486716 -4.82552 0
M  V30 7089 H 678.532 0.70931 -4.5551 0
M  V30 7090 H 682.076 -2.01166 -6.67966 0
M  V30 7091 H 677.973 -0.808125 -6.40421 0
M  V30 7092 H 678.741 -2.28967 -7.85822 0
M  V30 7093 N 681.404 1.57128 0.121893 0
M  V30 7094 C 682.65 1.84974 0.831418 0
M  V30 7095 C 682.983 0.737204 1.79663 0
M  V30 7096 O 682.258 -0.257199 1.92792 0
M  V30 7097 C 682.541 3.23397 1.58386 0
M  V30 7098 C 682.394 4.45246 0.638445 0
M  V30 7099 C 683.713 3.59355 2.54071 0
M  V30 7100 H 680.832 0.67282 0.300803 0
M  V30 7101 H 683.474 1.89759 0.0957587 0
M  V30 7102 H 681.624 3.19449 2.21098 0
M  V30 7103 H 683.296 4.61295 0.0203925 0
M  V30 7104 H 681.539 4.33771 -0.05023 0
M  V30 7105 H 682.21 5.38765 1.20151 0
M  V30 7106 H 684.686 3.64075 2.01465 0
M  V30 7107 H 683.562 4.57193 3.03752 0
M  V30 7108 H 683.823 2.86622 3.36601 0
M  V30 7109 N 682.882 -0.391992 1.52647 0
M  V30 7110 C 683.812 -1.48517 1.8018 0
M  V30 7111 C 684.793 -1.57039 0.653667 0
M  V30 7112 O 685.978 -1.72036 0.900962 0
M  V30 7113 C 683.108 -2.86161 1.96797 0
M  V30 7114 C 682.062 -2.92481 3.12472 0
M  V30 7115 C 681.388 -4.32546 3.14338 0
M  V30 7116 C 682.688 -2.624 4.51601 0
M  V30 7117 H 684.382 -1.25726 2.71723 0
M  V30 7118 H 681.928 -0.603387 1.30749 0
M  V30 7119 H 683.881 -3.62639 2.14641 0
M  V30 7120 H 682.605 -3.10283 1.01941 0
M  V30 7121 H 681.264 -2.18451 2.94406 0
M  V30 7122 H 680.912 -4.53703 2.1717 0
M  V30 7123 H 680.612 -4.37695 3.92042 0
M  V30 7124 H 682.136 -5.10934 3.34333 0
M  V30 7125 H 683.55 -3.28596 4.69785 0
M  V30 7126 H 681.947 -2.78903 5.3135 0
M  V30 7127 H 683.017 -1.57754 4.58521 0
M  V30 7128 N 684.36 -1.4356 -0.65026 0
M  V30 7129 C 685.608 -1.45046 -1.40734 0
M  V30 7130 C 685.929 -0.0769822 -1.94848 0
M  V30 7131 O 685.199 0.888098 -1.74613 0
M  V30 7132 H 683.779 -0.534034 -0.522318 0
M  V30 7133 H 686.441 -1.79186 -0.766703 0
M  V30 7134 H 685.537 -2.16476 -2.24822 0
M  V30 7135 N 685.838 0.888903 -1.30139 0
M  V30 7136 C 687.086 1.63713 -1.18501 0
M  V30 7137 C 687.407 1.9324 0.261399 0
M  V30 7138 O 686.677 1.56608 1.17689 0
M  V30 7139 H 685.257 0.606861 -0.435579 0
M  V30 7140 H 687.919 1.06525 -1.63213 0
M  V30 7141 H 687.015 2.58894 -1.743 0
M  V30 7142 N 687.317 1.12792 1.10072 0
M  V30 7143 C 688.728 0.899346 1.63611 0
M  V30 7144 C 689.079 -0.565547 1.87872 0
M  V30 7145 O 688.204 -1.43081 1.62348 0
M  V30 7146 C 688.799 1.62608 2.97227 0
M  V30 7147 C 687.358 1.44356 3.47618 0
M  V30 7148 C 686.505 1.65958 2.22156 0
M  V30 7149 H 689.456 1.28216 0.935223 0
M  V30 7150 H 689.477 1.0793 3.64872 0
M  V30 7151 H 688.989 2.69221 2.79538 0
M  V30 7152 H 687.09 0.400148 3.70445 0
M  V30 7153 H 687.203 2.20218 4.25489 0
M  V30 7154 H 685.567 1.08395 2.30484 0
M  V30 7155 H 686.35 2.73877 2.06993 0
M  V30 7156 N 688.795 -1.27931 0.920396 0
M  V30 7157 C 689.727 -2.26175 0.371169 0
M  V30 7158 C 690.74 -1.55122 -0.494065 0
M  V30 7159 O 691.929 -1.75825 -0.30787 0
M  V30 7160 C 689.029 -3.35376 -0.487481 0
M  V30 7161 C 688.202 -4.35943 0.356772 0
M  V30 7162 C 687.261 -5.24374 -0.438042 0
M  V30 7163 O 686.287 -5.68998 0.151715 0
M  V30 7164 N 687.489 -5.53823 -1.73956 0
M  V30 7165 H 690.254 -2.73938 1.21564 0
M  V30 7166 H 687.815 -1.41482 0.787047 0
M  V30 7167 H 689.807 -3.91476 -1.02609 0
M  V30 7168 H 688.377 -2.87269 -1.23269 0
M  V30 7169 H 687.597 -3.7921 1.07672 0
M  V30 7170 H 688.885 -5.0015 0.934206 0
M  V30 7171 H 688.283 -5.19413 -2.24114 0
M  V30 7172 H 686.84 -6.12653 -2.22486 0
M  V30 7173 N 690.273 -0.685099 -1.4193 0
M  V30 7174 C 691.521 -0.21124 -2.00993 0
M  V30 7175 C 691.842 1.18985 -1.54491 0
M  V30 7176 O 691.112 1.8009 -0.771 0
M  V30 7177 H 689.692 -0.0751059 -0.743215 0
M  V30 7178 H 692.354 -0.883915 -1.73704 0
M  V30 7179 H 691.45 -0.220513 -3.1132 0
M  V30 7180 N 691.751 1.51645 -0.429126 0
M  V30 7181 C 692.699 2.29119 0.400921 0
M  V30 7182 C 693.693 1.34628 1.02819 0
M  V30 7183 O 694.899 1.52004 0.964098 0
M  V30 7184 H 691.274 0.737273 0.148095 0
M  V30 7185 H 693.245 2.97144 -0.273457 0
M  V30 7186 C 691.994 3.13953 1.49429 0
M  V30 7187 H 691.317 3.86544 1.02097 0
M  V30 7188 H 692.757 3.71232 2.04849 0
M  V30 7189 C 691.216 2.28796 2.47293 0
M  V30 7190 O 691.746 1.94193 3.51642 0
M  V30 7191 N 689.952 1.92177 2.17982 0
M  V30 7192 H 689.499 2.20517 1.33154 0
M  V30 7193 H 689.457 1.35497 2.83704 0
M  V30 7194 N 693.229 0.160201 1.56784 0
M  V30 7195 C 694.506 -0.533355 1.88188 0
M  V30 7196 C 694.886 -1.82072 1.06831 0
M  V30 7197 O 694.234 -2.27946 0.158959 0
M  V30 7198 C 694.444 -0.786034 3.40033 0
M  V30 7199 C 695.792 -1.12097 4.09536 0
M  V30 7200 O 696.816 -0.874949 3.45287 0
M  V30 7201 O 695.675 -1.58457 5.23023 0
M  V30 7202 H 692.769 -0.273589 0.780434 0
M  V30 7203 H 695.315 0.197803 1.68543 0
M  V30 7204 H 694.087 0.124515 3.91102 0
M  V30 7205 H 693.71 -1.57091 3.65251 0
M  V30 7206 N 694.707 -1.5719 -0.113559 0
M  V30 7207 C 695.935 -1.89328 -0.834422 0
M  V30 7208 C 696.35 -0.752018 -1.73177 0
M  V30 7209 O 695.707 0.276912 -1.80387 0
M  V30 7210 C 695.758 -3.20962 -1.66329 0
M  V30 7211 O 695.479 -4.30695 -0.802069 0
M  V30 7212 C 696.98 -3.6684 -2.48884 0
M  V30 7213 H 694.2 -0.626769 -0.239587 0
M  V30 7214 H 696.744 -2.04273 -0.0963195 0
M  V30 7215 H 694.899 -3.0767 -2.35409 0
M  V30 7216 H 695.313 -5.06175 -1.37431 0
M  V30 7217 H 696.787 -4.61692 -3.02563 0
M  V30 7218 H 697.264 -2.93765 -3.26495 0
M  V30 7219 H 697.87 -3.82938 -1.85036 0
M  V30 7220 N 696.185 0.383891 -1.52853 0
M  V30 7221 C 697.133 1.48965 -1.7864 0
M  V30 7222 C 698.127 1.56242 -0.654577 0
M  V30 7223 O 699.333 1.59347 -0.83716 0
M  V30 7224 H 695.708 0.495892 -0.565328 0
M  V30 7225 H 697.679 1.24411 -2.71228 0
M  V30 7226 C 696.428 2.86036 -1.97683 0
M  V30 7227 H 695.751 2.81188 -2.84206 0
M  V30 7228 H 697.191 3.62632 -2.19713 0
M  V30 7229 C 695.65 3.28428 -0.750776 0
M  V30 7230 O 696.18 4.0164 0.0693491 0
M  V30 7231 N 694.386 2.84765 -0.579427 0
M  V30 7232 H 693.933 2.25353 -1.24795 0
M  V30 7233 H 693.891 3.13486 0.239544 0
M  V30 7234 N 697.663 1.43903 0.642637 0
M  V30 7235 C 698.626 1.49538 1.73698 0
M  V30 7236 C 699.626 0.378776 1.56275 0
M  V30 7237 O 700.816 0.64095 1.6198 0
M  V30 7238 C 697.948 1.35821 3.12675 0
M  V30 7239 H 699.141 2.47008 1.70079 0
M  V30 7240 H 696.694 1.30824 0.85526 0
M  V30 7241 H 697.429 0.393994 3.21898 0
M  V30 7242 H 697.214 2.16776 3.26727 0
M  V30 7243 H 698.704 1.4272 3.92455 0
M  V30 7244 N 699.141 -0.881989 1.30609 0
M  V30 7245 C 700.388 -1.63405 1.19604 0
M  V30 7246 C 700.716 -1.92905 -0.248574 0
M  V30 7247 O 699.971 -1.55062 -1.19391 0
M  V30 7248 C 700.27 -2.97999 1.97311 0
M  V30 7249 C 699.936 -2.88039 3.46907 0
M  V30 7250 C 698.598 -2.85029 3.877 0
M  V30 7251 C 700.95 -2.75948 4.42156 0
M  V30 7252 C 698.278 -2.67772 5.2203 0
M  V30 7253 C 700.63 -2.60228 5.76597 0
M  V30 7254 C 699.294 -2.55595 6.16626 0
M  V30 7255 H 698.564 -0.597941 0.437662 0
M  V30 7256 H 701.211 -1.02524 1.61744 0
M  V30 7257 H 699.516 -3.62847 1.47815 0
M  V30 7258 H 701.213 -3.55156 1.86186 0
M  V30 7259 H 697.803 -2.91192 3.14492 0
M  V30 7260 H 701.987 -2.77337 4.1158 0
M  V30 7261 H 697.243 -2.62601 5.52133 0
M  V30 7262 H 701.417 -2.49847 6.50038 0
M  V30 7263 H 699.044 -2.41981 7.20659 0
M  V30 7264 N 700.619 -1.13374 -1.09472 0
M  V30 7265 C 701.844 -0.918711 -1.85942 0
M  V30 7266 C 702.269 0.527225 -1.8056 0
M  V30 7267 O 701.627 1.37408 -1.18274 0
M  V30 7268 C 701.675 -1.41056 -3.31867 0
M  V30 7269 O 700.779 -0.595496 -4.08078 0
M  V30 7270 H 700.12 -0.329297 -0.576593 0
M  V30 7271 H 702.65 -1.50829 -1.38245 0
M  V30 7272 H 702.66 -1.41398 -3.82715 0
M  V30 7273 H 701.335 -2.46335 -3.35099 0
M  V30 7274 H 699.912 -0.659911 -3.67014 0
M  V30 7275 N 702.098 1.27442 -0.927168 0
M  V30 7276 C 703.347 1.93679 -0.563146 0
M  V30 7277 C 703.66 1.73673 0.899837 0
M  V30 7278 O 704.866 2.34247 1.37262 0
M  V30 7279 C 703.322 3.46961 -0.95636 0
M  V30 7280 C 702.93 3.75724 -2.43999 0
M  V30 7281 C 704.674 4.19282 -0.663565 0
M  V30 7282 C 702.581 5.22378 -2.77263 0
M  V30 7283 H 701.511 0.725059 -0.206894 0
M  V30 7284 H 704.162 1.44743 -1.12791 0
M  V30 7285 H 702.544 3.94703 -0.320254 0
M  V30 7286 H 703.718 3.38741 -3.12396 0
M  V30 7287 H 702.033 3.16605 -2.70463 0
M  V30 7288 H 704.63 5.27265 -0.888596 0
M  V30 7289 H 704.973 4.14382 0.399198 0
M  V30 7290 H 705.506 3.7736 -1.25875 0
M  V30 7291 H 702.245 5.32367 -3.82446 0
M  V30 7292 H 701.765 5.6051 -2.13516 0
M  V30 7293 H 703.444 5.9025 -2.64979 0
M  V30 7294 N 703.576 0.692616 1.41565 0
M  V30 7295 C 704.824 0.221896 2.00878 0
M  V30 7296 C 705.145 -1.18164 1.5512 0
M  V30 7297 O 704.415 -1.79679 0.78054 0
M  V30 7298 H 702.995 0.0790463 0.742806 0
M  V30 7299 H 705.657 0.893115 1.73232 0
M  V30 7300 H 704.753 0.23702 3.11199 0
M  V30 7301 N 705.054 -1.51416 0.437162 0
M  V30 7302 C 706.282 -2.06503 -0.128045 0
M  V30 7303 C 706.697 -1.30461 -1.36475 0
M  V30 7304 O 706.054 -0.364127 -1.78831 0
M  V30 7305 C 706.105 -3.58683 -0.450437 0
M  V30 7306 O 705.826 -4.31853 0.737186 0
M  V30 7307 C 707.327 -4.30284 -1.06633 0
M  V30 7308 H 704.547 -0.670952 -0.00800269 0
M  V30 7309 H 707.091 -1.94996 0.616193 0
M  V30 7310 H 705.246 -3.70106 -1.14457 0
M  V30 7311 H 705.66 -5.22467 0.461347 0
M  V30 7312 H 707.134 -5.37848 -1.24191 0
M  V30 7313 H 707.611 -3.88564 -2.0473 0
M  V30 7314 H 708.217 -4.23304 -0.411585 0
M  V30 7315 N 706.532 -0.168513 -1.56696 0
M  V30 7316 C 707.495 0.748928 -2.16619 0
M  V30 7317 C 708.495 1.16007 -1.11351 0
M  V30 7318 O 709.685 1.07748 -1.3688 0
M  V30 7319 C 706.817 2.01904 -2.74677 0
M  V30 7320 H 708.01 0.227317 -2.99037 0
M  V30 7321 H 705.563 0.0810372 -1.5609 0
M  V30 7322 H 706.298 2.58381 -1.95985 0
M  V30 7323 H 706.083 1.73323 -3.51712 0
M  V30 7324 H 707.573 2.67383 -3.20774 0
M  V30 7325 N 708.01 1.57248 0.105221 0
M  V30 7326 C 708.973 2.00388 1.11252 0
M  V30 7327 C 709.973 0.89594 1.33527 0
M  V30 7328 O 711.163 1.16166 1.29811 0
M  V30 7329 C 708.295 2.35589 2.46395 0
M  V30 7330 H 709.488 2.90591 0.741424 0
M  V30 7331 H 707.041 1.52332 0.349956 0
M  V30 7332 H 707.776 1.4831 2.884 0
M  V30 7333 H 707.561 3.16408 2.31578 0
M  V30 7334 H 709.051 2.69658 3.18864 0
M  V30 7335 N 709.488 -0.375779 1.53054 0
M  V30 7336 C 710.716 -1.14036 1.72637 0
M  V30 7337 C 711.131 -1.83342 0.450687 0
M  V30 7338 O 710.488 -1.7318 -0.575749 0
M  V30 7339 C 710.539 -2.17841 2.88492 0
M  V30 7340 O 710.26 -1.51358 4.11123 0
M  V30 7341 C 711.761 -3.06924 3.19863 0
M  V30 7342 H 708.981 -0.341386 0.577665 0
M  V30 7343 H 711.525 -0.437809 1.99759 0
M  V30 7344 H 709.68 -2.8371 2.63794 0
M  V30 7345 H 710.094 -2.20439 4.75928 0
M  V30 7346 H 711.568 -3.75763 4.04359 0
M  V30 7347 H 712.045 -3.71169 2.34798 0
M  V30 7348 H 712.651 -2.46684 3.46449 0
M  V30 7349 N 710.966 -1.44241 -0.634997 0
M  V30 7350 C 711.876 -1.53293 -1.77591 0
M  V30 7351 C 712.892 -0.418831 -1.68884 0
M  V30 7352 O 714.068 -0.675619 -1.8973 0
M  V30 7353 C 711.133 -1.47075 -3.13958 0
M  V30 7354 C 710.194 -2.69304 -3.34326 0
M  V30 7355 C 709.427 -2.63374 -4.64187 0
M  V30 7356 O 709.65 -1.69161 -5.44739 0
M  V30 7357 O 708.584 -3.54166 -4.86673 0
M  V30 7358 H 712.41 -2.49673 -1.72908 0
M  V30 7359 H 709.995 -1.26445 -0.795745 0
M  V30 7360 H 711.877 -1.46117 -3.95257 0
M  V30 7361 H 710.552 -0.538373 -3.19192 0
M  V30 7362 H 709.459 -2.75831 -2.52721 0
M  V30 7363 H 710.792 -3.61576 -3.33951 0
M  V30 7364 N 712.444 0.87505 -1.31075 0
M  V30 7365 C 713.693 1.62245 -1.19831 0
M  V30 7366 C 714.006 1.94078 0.24357 0
M  V30 7367 O 715.212 2.67265 0.477646 0
M  V30 7368 C 713.668 2.92464 -2.09744 0
M  V30 7369 C 713.276 2.68134 -3.58898 0
M  V30 7370 C 715.02 3.70449 -2.07287 0
M  V30 7371 C 712.927 3.9423 -4.40836 0
M  V30 7372 H 711.857 0.608741 -0.444916 0
M  V30 7373 H 714.508 0.967947 -1.55894 0
M  V30 7374 H 712.89 3.59262 -1.66574 0
M  V30 7375 H 714.064 2.09776 -4.10281 0
M  V30 7376 H 712.379 2.03511 -3.6328 0
M  V30 7377 H 714.976 4.63983 -2.65752 0
M  V30 7378 H 715.319 4.02611 -1.05876 0
M  V30 7379 H 715.852 3.10528 -2.48631 0
M  V30 7380 H 712.591 3.67221 -5.42982 0
M  V30 7381 H 712.111 4.52058 -3.94213 0
M  V30 7382 H 713.79 4.62162 -4.52786 0
M  V30 7383 N 713.922 1.13953 1.08869 0
M  V30 7384 C 714.885 0.824991 2.13838 0
M  V30 7385 C 715.885 -0.168198 1.59918 0
M  V30 7386 O 717.075 0.0595778 1.74098 0
M  V30 7387 C 714.207 0.228938 3.4013 0
M  V30 7388 H 715.4 1.75521 2.43171 0
M  V30 7389 H 712.953 0.94492 1.24503 0
M  V30 7390 H 713.688 -0.710227 3.16427 0
M  V30 7391 H 713.473 0.944243 3.80561 0
M  V30 7392 H 714.963 0.0259223 4.17592 0
M  V30 7393 N 715.4 -1.26948 0.933913 0
M  V30 7394 C 716.646 -1.94374 0.57848 0
M  V30 7395 C 716.979 -1.73166 -0.879048 0
M  V30 7396 O 716.254 -1.06438 -1.62792 0
M  V30 7397 C 716.537 -3.4834 0.912739 0
M  V30 7398 C 716.39 -3.78866 2.42448 0
M  V30 7399 C 717.709 -4.38062 0.423003 0
M  V30 7400 H 714.828 -0.705959 0.211639 0
M  V30 7401 H 717.47 -1.49951 1.16682 0
M  V30 7402 H 715.62 -3.86309 0.412058 0
M  V30 7403 H 717.292 -3.50654 2.99733 0
M  V30 7404 H 715.535 -3.25198 2.87104 0
M  V30 7405 H 716.206 -4.86458 2.60887 0
M  V30 7406 H 718.682 -4.0728 0.852191 0
M  V30 7407 H 717.558 -5.44599 0.685776 0
M  V30 7408 H 717.819 -4.36886 -0.676994 0
M  V30 7409 N 716.879 -0.700114 -1.41195 0
M  V30 7410 C 717.812 0.0129614 -2.28196 0
M  V30 7411 C 718.79 0.783367 -1.42486 0
M  V30 7412 O 719.974 0.773238 -1.71911 0
M  V30 7413 C 717.101 1.02575 -3.22794 0
M  V30 7414 C 716.147 0.347977 -4.25078 0
M  V30 7415 S 716.98 -0.912938 -5.27661 0
M  V30 7416 C 718.136 0.0981362 -6.25823 0
M  V30 7417 H 718.369 -0.724927 -2.88326 0
M  V30 7418 H 715.902 -0.490554 -1.464 0
M  V30 7419 H 717.86 1.60491 -3.77826 0
M  V30 7420 H 716.521 1.73624 -2.61751 0
M  V30 7421 H 715.714 1.11305 -4.91556 0
M  V30 7422 H 715.316 -0.15823 -3.73665 0
M  V30 7423 H 717.608 0.949965 -6.70807 0
M  V30 7424 H 718.551 -0.532838 -7.06092 0
M  V30 7425 H 718.959 0.454944 -5.62664 0
M  V30 7426 N 718.357 1.51182 -0.445186 0
M  V30 7427 C 719.305 2.29531 0.376597 0
M  V30 7428 C 720.299 1.35711 1.01385 0
M  V30 7429 O 721.505 1.53018 0.947922 0
M  V30 7430 H 717.88 0.738803 0.140267 0
M  V30 7431 H 719.851 2.96838 -0.304958 0
M  V30 7432 C 718.6 3.1552 1.4609 0
M  V30 7433 H 717.923 3.87605 0.979912 0
M  V30 7434 H 719.363 3.73384 2.009 0
M  V30 7435 C 717.822 2.31406 2.44852 0
M  V30 7436 O 718.352 1.97912 3.49562 0
M  V30 7437 N 716.558 1.94478 2.15932 0
M  V30 7438 H 716.105 2.21917 1.30808 0
M  V30 7439 H 716.063 1.38498 2.82251 0
M  V30 7440 N 719.835 0.176821 1.56605 0
M  V30 7441 C 721.083 -0.465793 1.96659 0
M  V30 7442 C 721.404 -1.63406 1.06412 0
M  V30 7443 O 720.674 -1.95457 0.131603 0
M  V30 7444 H 719.254 -0.175072 0.726195 0
M  V30 7445 H 721.916 0.25929 1.93168 0
M  V30 7446 H 721.012 -0.822138 3.01077 0
M  V30 7447 N 721.313 -1.57302 -0.09688 0
M  V30 7448 C 722.223 -2.05258 -1.13606 0
M  V30 7449 C 723.239 -0.977137 -1.43972 0
M  V30 7450 O 724.415 -1.29018 -1.54649 0
M  V30 7451 C 721.48 -2.46593 -2.43706 0
M  V30 7452 C 720.541 -3.68322 -2.20538 0
M  V30 7453 C 719.774 -4.07676 -3.44435 0
M  V30 7454 O 719.997 -3.47141 -4.52603 0
M  V30 7455 O 718.931 -5.00641 -3.34129 0
M  V30 7456 H 722.757 -2.94069 -0.758752 0
M  V30 7457 H 720.342 -1.46164 -0.309263 0
M  V30 7458 H 722.224 -2.73814 -3.20318 0
M  V30 7459 H 720.899 -1.6092 -2.80867 0
M  V30 7460 H 719.806 -3.4622 -1.41713 0
M  V30 7461 H 721.139 -4.54769 -1.88271 0
M  V30 7462 N 722.791 0.367657 -1.53252 0
M  V30 7463 C 724.019 1.13119 -1.73239 0
M  V30 7464 C 724.434 1.831 -0.460404 0
M  V30 7465 O 723.791 1.73483 0.566557 0
M  V30 7466 C 723.842 2.16308 -2.89643 0
M  V30 7467 O 723.563 1.49175 -4.1192 0
M  V30 7468 C 725.064 3.05224 -3.21486 0
M  V30 7469 H 722.284 0.338318 -0.579467 0
M  V30 7470 H 724.828 0.42721 -1.99988 0
M  V30 7471 H 722.983 2.82307 -2.65295 0
M  V30 7472 H 723.397 2.17912 -4.7709 0
M  V30 7473 H 724.871 3.73613 -4.06346 0
M  V30 7474 H 725.348 3.69919 -2.36763 0
M  V30 7475 H 725.954 2.44843 -3.47753 0
M  V30 7476 N 724.269 1.44576 0.627338 0
M  V30 7477 C 725.232 1.51372 1.72102 0
M  V30 7478 C 726.232 0.395329 1.55865 0
M  V30 7479 O 727.422 0.658094 1.61291 0
M  V30 7480 C 724.554 1.39129 3.11217 0
M  V30 7481 H 725.747 2.48798 1.6745 0
M  V30 7482 H 723.3 1.31724 0.841336 0
M  V30 7483 H 724.035 0.428114 3.21462 0
M  V30 7484 H 723.82 2.20229 3.24409 0
M  V30 7485 H 725.31 1.46874 3.90919 0
M  V30 7486 N 725.747 -0.868086 1.31537 0
M  V30 7487 C 726.71 -1.95703 1.19302 0
M  V30 7488 C 727.71 -1.60355 0.119612 0
M  V30 7489 O 728.9 -1.70247 0.36902 0
M  V30 7490 C 726.032 -3.30599 0.831684 0
M  V30 7491 H 727.225 -2.07982 2.16064 0
M  V30 7492 H 724.778 -1.05661 1.15176 0
M  V30 7493 H 725.513 -3.2402 -0.134694 0
M  V30 7494 H 725.298 -3.57629 1.60761 0
M  V30 7495 H 726.788 -4.10439 0.770026 0
M  V30 7496 N 727.225 -1.14528 -1.08264 0
M  V30 7497 C 728.453 -0.937964 -1.84418 0
M  V30 7498 C 728.868 0.51357 -1.81681 0
M  V30 7499 O 728.225 1.35591 -1.22153 0
M  V30 7500 C 728.276 -1.43272 -3.31897 0
M  V30 7501 O 727.997 -2.82738 -3.34651 0
M  V30 7502 C 729.498 -1.26555 -4.24851 0
M  V30 7503 H 726.718 -0.333704 -0.582136 0
M  V30 7504 H 729.262 -1.52076 -1.36723 0
M  V30 7505 H 727.417 -0.892653 -3.76975 0
M  V30 7506 H 727.831 -3.04971 -4.26724 0
M  V30 7507 H 729.305 -1.66031 -5.26439 0
M  V30 7508 H 729.782 -0.208589 -4.38704 0
M  V30 7509 H 730.388 -1.79423 -3.856 0
M  V30 7510 N 728.703 1.26451 -0.940633 0
M  V30 7511 C 729.666 2.24651 -0.454378 0
M  V30 7512 C 730.666 1.54826 0.434222 0
M  V30 7513 O 731.856 1.72628 0.233477 0
M  V30 7514 C 728.988 3.39148 0.345192 0
M  V30 7515 H 730.181 2.69182 -1.32217 0
M  V30 7516 H 727.734 1.38596 -0.722547 0
M  V30 7517 H 728.469 3.00018 1.23125 0
M  V30 7518 H 728.254 3.9101 -0.292107 0
M  V30 7519 H 729.744 4.12103 0.675341 0
M  V30 7520 N 730.181 0.707592 1.40822 0
M  V30 7521 C 731.114 -0.000859377 2.282 0
M  V30 7522 C 732.092 -0.7758 1.42899 0
M  V30 7523 O 733.276 -0.76411 1.72318 0
M  V30 7524 C 730.403 -1.00861 3.23334 0
M  V30 7525 C 729.449 -0.32543 4.25257 0
M  V30 7526 S 730.282 0.940908 5.27169 0
M  V30 7527 C 731.438 -0.0649459 6.25866 0
M  V30 7528 H 731.671 0.740207 2.87938 0
M  V30 7529 H 729.204 0.498311 1.46138 0
M  V30 7530 H 731.162 -1.58485 3.78672 0
M  V30 7531 H 729.823 -1.72233 2.62668 0
M  V30 7532 H 729.016 -1.08697 4.92139 0
M  V30 7533 H 728.618 0.178044 3.73576 0
M  V30 7534 H 730.91 -0.914377 6.71301 0
M  V30 7535 H 731.853 0.570276 7.058 0
M  V30 7536 H 732.261 -0.425098 5.62897 0
M  V30 7537 N 731.66 -1.50943 0.453197 0
M  V30 7538 C 732.89 -2.06328 -0.105981 0
M  V30 7539 C 733.298 -1.31909 -1.35634 0
M  V30 7540 O 732.641 -0.376607 -1.79798 0
M  V30 7541 C 732.703 -3.5631 -0.477868 0
M  V30 7542 C 732.367 -4.52093 0.667925 0
M  V30 7543 C 733.364 -4.96421 1.54475 0
M  V30 7544 C 731.049 -4.95001 0.853168 0
M  V30 7545 C 733.043 -5.82346 2.59138 0
M  V30 7546 C 730.73 -5.80713 1.90305 0
M  V30 7547 C 731.728 -6.24284 2.77053 0
M  V30 7548 O 731.416 -7.08291 3.80236 0
M  V30 7549 H 731.148 -0.675986 -0.00427247 0
M  V30 7550 H 733.702 -1.95314 0.635738 0
M  V30 7551 H 731.932 -3.65163 -1.27252 0
M  V30 7552 H 733.621 -3.94138 -0.970039 0
M  V30 7553 H 734.387 -4.63953 1.41324 0
M  V30 7554 H 730.266 -4.60619 0.187482 0
M  V30 7555 H 733.81 -6.16276 3.2688 0
M  V30 7556 H 729.707 -6.12593 2.03469 0
M  V30 7557 H 730.475 -7.26504 3.77007 0
M  V30 7558 N 733.138 -0.185124 -1.56509 0
M  V30 7559 C 734.363 0.465278 -2.02114 0
M  V30 7560 C 734.788 1.55083 -1.06447 0
M  V30 7561 O 734.146 1.81241 -0.0462852 0
M  V30 7562 C 734.194 1.00784 -3.46229 0
M  V30 7563 O 733.298 2.12123 -3.53663 0
M  V30 7564 H 732.639 0.109891 -0.654843 0
M  V30 7565 H 735.169 -0.293072 -2.0249 0
M  V30 7566 H 735.179 1.32697 -3.85818 0
M  V30 7567 H 733.854 0.213113 -4.15354 0
M  V30 7568 H 732.431 1.8115 -3.25943 0
M  V30 7569 N 734.616 1.57351 0.0885366 0
M  V30 7570 C 736.032 1.53331 0.442916 0
M  V30 7571 C 736.232 0.902831 1.80142 0
M  V30 7572 O 735.288 0.498147 2.47537 0
M  V30 7573 C 736.601 2.98036 0.399372 0
M  V30 7574 C 738.149 3.09286 0.480759 0
M  V30 7575 C 738.624 4.5561 0.467296 0
M  V30 7576 N 740.115 4.60182 0.52786 0
M  V30 7577 C 740.85 5.70857 0.539388 0
M  V30 7578 N 740.346 6.90944 0.506729 0
M  V30 7579 N 742.139 5.59051 0.584691 0
M  V30 7580 H 734.29 1.96709 -0.801215 0
M  V30 7581 H 736.553 0.899639 -0.298922 0
M  V30 7582 H 736.259 3.47656 -0.531806 0
M  V30 7583 H 736.133 3.57066 1.21589 0
M  V30 7584 H 738.52 2.5965 1.40236 0
M  V30 7585 H 738.601 2.53197 -0.364023 0
M  V30 7586 H 738.245 5.05899 -0.450384 0
M  V30 7587 H 738.175 5.09544 1.32938 0
M  V30 7588 H 740.666 3.73757 0.558028 0
M  V30 7589 H 740.979 7.71055 0.518989 0
M  V30 7590 H 739.324 6.93384 0.473675 0
M  V30 7591 H 742.515 4.64138 0.607781 0
M  V30 7592 H 742.688 6.45307 0.590206 0
M  V30 7593 N 736.094 -0.359525 1.53444 0
M  V30 7594 C 737.51 -0.701599 1.43352 0
M  V30 7595 C 737.71 -1.93049 0.577439 0
M  V30 7596 O 736.766 -2.52423 0.0622224 0
M  V30 7597 C 738.079 -0.90915 2.86627 0
M  V30 7598 C 739.627 -1.00878 2.96298 0
M  V30 7599 C 740.102 -1.24876 4.40647 0
M  V30 7600 N 741.593 -1.31632 4.44103 0
M  V30 7601 C 742.328 -1.51922 5.52908 0
M  V30 7602 N 741.824 -1.69489 6.71748 0
M  V30 7603 N 743.617 -1.54341 5.40496 0
M  V30 7604 H 735.768 0.448685 2.07607 0
M  V30 7605 H 738.031 0.138713 0.937797 0
M  V30 7606 H 737.737 -0.0778997 3.51614 0
M  V30 7607 H 737.611 -1.81551 3.30634 0
M  V30 7608 H 739.998 -1.83057 2.31461 0
M  V30 7609 H 740.079 -0.0796721 2.55676 0
M  V30 7610 H 739.723 -0.431961 5.0606 0
M  V30 7611 H 739.653 -2.19118 4.78848 0
M  V30 7612 H 742.144 -1.19646 3.5846 0
M  V30 7613 H 742.457 -1.84561 7.50438 0
M  V30 7614 H 740.802 -1.66655 6.74723 0
M  V30 7615 H 743.993 -1.40188 4.46615 0
M  V30 7616 H 744.166 -1.69812 6.25354 0
M  V30 7617 N 737.572 -1.44907 -0.619662 0
M  V30 7618 C 738.502 -1.55488 -1.742 0
M  V30 7619 C 739.483 -0.407143 -1.65156 0
M  V30 7620 O 740.668 -0.628743 -1.8374 0
M  V30 7621 C 737.798 -1.5097 -3.1277 0
M  V30 7622 C 736.752 -2.64337 -3.36615 0
M  V30 7623 C 736.078 -2.44872 -4.75333 0
M  V30 7624 C 737.378 -4.06423 -3.28051 0
M  V30 7625 H 739.072 -2.49432 -1.65602 0
M  V30 7626 H 736.618 -1.20047 -0.795281 0
M  V30 7627 H 738.571 -1.56971 -3.91073 0
M  V30 7628 H 737.295 -0.535486 -3.2218 0
M  V30 7629 H 735.954 -2.57744 -2.60698 0
M  V30 7630 H 735.602 -1.45617 -4.81461 0
M  V30 7631 H 735.302 -3.20888 -4.92244 0
M  V30 7632 H 736.826 -2.52709 -5.55851 0
M  V30 7633 H 738.24 -4.14324 -3.96243 0
M  V30 7634 H 736.637 -4.82733 -3.56495 0
M  V30 7635 H 737.707 -4.29183 -2.25676 0
M  V30 7636 N 739.05 0.861098 -1.31996 0
M  V30 7637 C 740.013 1.95068 -1.20338 0
M  V30 7638 C 741.013 1.60289 -0.128114 0
M  V30 7639 O 742.203 1.70048 -0.378044 0
M  V30 7640 C 739.335 3.30153 -0.849205 0
M  V30 7641 H 740.528 2.06833 -2.17164 0
M  V30 7642 H 738.081 1.05049 -1.15734 0
M  V30 7643 H 738.816 3.24087 0.117508 0
M  V30 7644 H 738.601 3.56771 -1.62655 0
M  V30 7645 H 740.091 4.10025 -0.791782 0
M  V30 7646 N 740.528 1.15101 1.07655 0
M  V30 7647 C 741.475 0.844958 2.14777 0
M  V30 7648 C 742.445 -0.200798 1.64882 0
M  V30 7649 O 743.63 -0.0690278 1.90675 0
M  V30 7650 C 740.77 0.337018 3.4345 0
M  V30 7651 C 739.883 1.44398 4.07153 0
M  V30 7652 C 739.018 0.892487 5.23649 0
M  V30 7653 C 738.057 1.9766 5.79307 0
M  V30 7654 N 737.194 1.44171 6.87138 0
M  V30 7655 H 742.034 1.76242 2.40297 0
M  V30 7656 H 739.571 0.879435 1.17917 0
M  V30 7657 H 741.529 0.024256 4.17193 0
M  V30 7658 H 740.159 -0.543531 3.18191 0
M  V30 7659 H 739.211 1.87299 3.31094 0
M  V30 7660 H 740.523 2.26262 4.4453 0
M  V30 7661 H 739.677 0.532083 6.04362 0
M  V30 7662 H 738.416 0.0429854 4.87681 0
M  V30 7663 H 737.421 2.34586 4.97242 0
M  V30 7664 H 738.646 2.82982 6.17331 0
M  V30 7665 H 736.592 0.614518 6.53115 0
M  V30 7666 H 736.509 2.19665 7.23383 0
M  V30 7667 H 737.777 1.10945 7.71564 0
M  V30 7668 N 742.006 -1.2595 0.947325 0
M  V30 7669 C 743.283 -1.88676 0.515824 0
M  V30 7670 C 743.663 -1.85547 -1.00675 0
M  V30 7671 O 743.011 -1.31399 -1.8694 0
M  V30 7672 C 743.221 -3.31734 1.08415 0
M  V30 7673 C 744.569 -4.08545 1.15654 0
M  V30 7674 O 745.593 -3.40826 1.03517 0
M  V30 7675 O 744.452 -5.29663 1.34608 0
M  V30 7676 H 741.546 -0.809537 0.169055 0
M  V30 7677 H 744.092 -1.34075 1.04029 0
M  V30 7678 H 742.864 -3.28404 2.1276 0
M  V30 7679 H 742.487 -3.93882 0.542499 0
M  V30 7680 N 743.484 -0.715051 -1.40445 0
M  V30 7681 C 744.9 -0.388555 -1.54798 0
M  V30 7682 C 745.1 1.10271 -1.68649 0
M  V30 7683 O 744.156 1.88875 -1.67578 0
M  V30 7684 C 745.469 -1.15414 -2.77669 0
M  V30 7685 C 747.017 -1.14039 -2.91486 0
M  V30 7686 C 747.492 -1.88812 -4.1727 0
M  V30 7687 N 748.983 -1.85878 -4.24268 0
M  V30 7688 C 749.718 -2.40558 -5.20499 0
M  V30 7689 N 749.214 -3.03791 -6.22642 0
M  V30 7690 N 751.007 -2.30703 -5.12574 0
M  V30 7691 H 743.158 -1.68201 -1.297 0
M  V30 7692 H 745.421 -0.710915 -0.627139 0
M  V30 7693 H 745.127 -2.20853 -2.7371 0
M  V30 7694 H 745.001 -0.745412 -3.69761 0
M  V30 7695 H 747.388 -0.0941996 -2.9495 0
M  V30 7696 H 747.469 -1.58834 -2.00513 0
M  V30 7697 H 747.113 -2.93422 -4.14568 0
M  V30 7698 H 747.043 -1.41438 -5.0725 0
M  V30 7699 H 749.534 -1.39794 -3.51093 0
M  V30 7700 H 749.847 -3.43032 -6.92495 0
M  V30 7701 H 748.192 -3.07875 -6.23087 0
M  V30 7702 H 751.383 -1.80961 -4.31707 0
M  V30 7703 H 751.556 -2.73618 -5.87398 0
M  V30 7704 N 744.962 1.50701 -0.461195 0
M  V30 7705 C 745.909 2.2831 0.338094 0
M  V30 7706 C 746.879 1.32928 0.995957 0
M  V30 7707 O 748.064 1.61857 1.0103 0
M  V30 7708 C 745.204 3.14539 1.41983 0
M  V30 7709 C 744.317 4.24942 0.77773 0
M  V30 7710 C 743.452 4.98443 1.83652 0
M  V30 7711 C 742.491 6.00733 1.17413 0
M  V30 7712 N 741.628 6.6755 2.17533 0
M  V30 7713 H 746.468 2.96167 -0.330051 0
M  V30 7714 H 744.005 1.4606 -0.174611 0
M  V30 7715 H 745.963 3.62877 2.05855 0
M  V30 7716 H 744.593 2.48749 2.05727 0
M  V30 7717 H 743.645 3.80391 0.0266924 0
M  V30 7718 H 744.957 4.98151 0.254362 0
M  V30 7719 H 744.111 5.50449 2.55129 0
M  V30 7720 H 742.85 4.24917 2.39367 0
M  V30 7721 H 741.855 5.47997 0.444944 0
M  V30 7722 H 743.08 6.76227 0.624006 0
M  V30 7723 H 741.026 5.96823 2.72284 0
M  V30 7724 H 740.943 7.36603 1.70154 0
M  V30 7725 H 742.211 7.24178 2.88421 0
M  V30 7726 N 746.441 0.193421 1.56409 0
M  V30 7727 C 747.404 -0.714371 2.17783 0
M  V30 7728 C 748.404 -1.1422 1.13183 0
M  V30 7729 O 749.594 -1.05557 1.38576 0
M  V30 7730 C 746.726 -1.97509 2.77855 0
M  V30 7731 H 747.919 -0.179714 2.99361 0
M  V30 7732 H 745.472 -0.0561944 1.56199 0
M  V30 7733 H 746.207 -2.5523 2.0007 0
M  V30 7734 H 745.992 -1.67706 3.54425 0
M  V30 7735 H 747.482 -2.62246 3.24987 0
M  V30 7736 N 747.919 -1.57396 -0.0801906 0
M  V30 7737 C 749.167 -1.86467 -0.779384 0
M  V30 7738 C 749.488 -0.784243 -1.78535 0
M  V30 7739 O 748.758 0.187986 -1.94996 0
M  V30 7740 H 747.338 -0.68806 -0.29083 0
M  V30 7741 H 750 -1.94813 -0.0582749 0
M  V30 7742 H 749.096 -2.83701 -1.30078 0
M  V30 7743 N 749.397 0.351382 -1.53633 0
M  V30 7744 C 750.344 1.43115 -1.81071 0
M  V30 7745 C 751.314 1.52601 -0.655913 0
M  V30 7746 O 752.499 1.68264 -0.89955 0
M  V30 7747 C 749.639 2.79874 -2.01903 0
M  V30 7748 C 748.752 2.79242 -3.29618 0
M  V30 7749 C 747.887 4.07667 -3.40559 0
M  V30 7750 C 746.926 4.01233 -4.62254 0
M  V30 7751 N 746.063 5.21334 -4.70271 0
M  V30 7752 H 750.903 1.19017 -2.73201 0
M  V30 7753 H 748.44 0.576691 -1.35324 0
M  V30 7754 H 750.398 3.5934 -2.11969 0
M  V30 7755 H 749.028 3.0234 -1.13094 0
M  V30 7756 H 748.08 1.91927 -3.28433 0
M  V30 7757 H 749.392 2.70363 -4.19172 0
M  V30 7758 H 748.546 4.95555 -3.50015 0
M  V30 7759 H 747.285 4.19317 -2.49047 0
M  V30 7760 H 746.29 3.11732 -4.52884 0
M  V30 7761 H 747.515 3.91173 -5.55122 0
M  V30 7762 H 745.461 5.33543 -3.81665 0
M  V30 7763 H 745.378 5.14681 -5.5375 0
M  V30 7764 H 746.646 6.11014 -4.84027 0
M  V30 7765 N 750.875 1.45233 0.611969 0
M  V30 7766 C 752.152 1.39495 1.37115 0
M  V30 7767 C 752.532 0.0633303 2.11005 0
M  V30 7768 O 751.88 -0.954617 2.07604 0
M  V30 7769 C 752.09 2.60579 2.32163 0
M  V30 7770 C 753.438 3.05477 2.94905 0
M  V30 7771 O 754.462 2.60921 2.42485 0
M  V30 7772 O 753.321 3.82787 3.90047 0
M  V30 7773 H 750.415 0.55335 0.614599 0
M  V30 7774 H 752.961 1.57355 0.635423 0
M  V30 7775 H 751.733 3.49085 1.76793 0
M  V30 7776 H 751.356 2.45031 3.13122 0
M  V30 7777 N 752.353 -0.854086 1.3245 0
M  V30 7778 C 753.283 -1.97827 1.24044 0
M  V30 7779 C 754.264 -1.69646 0.124166 0
M  V30 7780 O 755.449 -1.91687 0.31143 0
M  V30 7781 C 752.579 -3.33673 0.963324 0
M  V30 7782 C 751.533 -3.76207 2.04089 0
M  V30 7783 C 750.859 -5.0969 1.61618 0
M  V30 7784 C 752.159 -3.91612 3.45597 0
M  V30 7785 H 753.853 -2.05118 2.18099 0
M  V30 7786 H 751.399 -0.985489 1.04996 0
M  V30 7787 H 753.352 -4.11871 0.891061 0
M  V30 7788 H 752.076 -3.26597 -0.0128649 0
M  V30 7789 H 750.735 -3.0026 2.10332 0
M  V30 7790 H 750.383 -4.99072 0.627418 0
M  V30 7791 H 750.083 -5.3912 2.33717 0
M  V30 7792 H 751.607 -5.90381 1.55829 0
M  V30 7793 H 753.021 -4.60163 3.4194 0
M  V30 7794 H 751.418 -4.3246 4.16051 0
M  V30 7795 H 752.488 -2.9451 3.85217 0
M  V30 7796 N 753.831 -1.1567 -1.07043 0
M  V30 7797 C 754.763 -0.814095 -2.14255 0
M  V30 7798 C 755.776 0.175293 -1.61854 0
M  V30 7799 O 756.965 -0.0483984 -1.78434 0
M  V30 7800 C 754.065 -0.190082 -3.38367 0
M  V30 7801 C 753.238 -1.21768 -4.20109 0
M  V30 7802 C 752.297 -0.614863 -5.22595 0
M  V30 7803 O 751.323 -1.28167 -5.54583 0
M  V30 7804 N 752.525 0.601955 -5.77371 0
M  V30 7805 H 755.29 -1.73677 -2.44247 0
M  V30 7806 H 752.851 -1.05301 -1.22977 0
M  V30 7807 H 754.843 0.22604 -4.04068 0
M  V30 7808 H 753.413 0.635992 -3.06062 0
M  V30 7809 H 752.633 -1.81025 -3.50177 0
M  V30 7810 H 753.921 -1.9114 -4.71533 0
M  V30 7811 H 753.319 1.162 -5.53637 0
M  V30 7812 H 751.876 0.96039 -6.44686 0
M  V30 7813 N 755.309 1.25446 -0.953992 0
M  V30 7814 C 756.72 1.75047 -0.649255 0
M  V30 7815 C 757.071 1.77527 0.835385 0
M  V30 7816 O 756.196 1.39569 1.65377 0
M  V30 7817 C 756.791 3.17889 -1.17183 0
M  V30 7818 C 755.35 3.65052 -0.917267 0
M  V30 7819 C 754.497 2.44124 -1.31525 0
M  V30 7820 H 757.448 1.11342 -1.13087 0
M  V30 7821 H 757.469 3.76768 -0.531616 0
M  V30 7822 H 756.981 3.16052 -2.25239 0
M  V30 7823 H 755.082 3.72305 0.148354 0
M  V30 7824 H 755.195 4.53222 -1.55328 0
M  V30 7825 H 753.559 2.43906 -0.733624 0
M  V30 7826 H 754.342 2.44979 -2.405 0
M  V30 7827 N 756.787 0.722489 1.40064 0
M  V30 7828 C 758.015 0.274838 2.05066 0
M  V30 7829 C 758.43 -1.08586 1.54449 0
M  V30 7830 O 757.787 -1.68375 0.704003 0
M  V30 7831 C 757.838 0.253673 3.60609 0
M  V30 7832 O 757.559 1.56064 4.0936 0
M  V30 7833 C 759.06 -0.211684 4.42794 0
M  V30 7834 H 756.28 0.12226 0.659768 0
M  V30 7835 H 758.824 0.982632 1.79345 0
M  V30 7836 H 756.979 -0.405137 3.85276 0
M  V30 7837 H 757.393 1.46576 5.03603 0
M  V30 7838 H 758.867 -0.175341 5.51721 0
M  V30 7839 H 759.344 -1.25493 4.2089 0
M  V30 7840 H 759.95 0.4171 4.2325 0
M  V30 7841 N 758.265 -1.50454 0.469181 0
M  V30 7842 C 759.514 -2.01507 -0.0881425 0
M  V30 7843 C 759.827 -1.35613 -1.40956 0
M  V30 7844 O 761.033 -1.77812 -2.05171 0
M  V30 7845 C 759.489 -3.59301 -0.207596 0
M  V30 7846 C 759.097 -4.34152 1.10527 0
M  V30 7847 C 760.841 -4.18401 -0.716981 0
M  V30 7848 C 758.748 -5.83725 0.949717 0
M  V30 7849 H 757.678 -0.753106 -0.0367156 0
M  V30 7850 H 760.329 -1.73282 0.603788 0
M  V30 7851 H 758.711 -3.84106 -0.963265 0
M  V30 7852 H 759.885 -4.21073 1.87175 0
M  V30 7853 H 758.2 -3.86652 1.54562 0
M  V30 7854 H 760.797 -5.27895 -0.850363 0
M  V30 7855 H 761.14 -3.79657 -1.70782 0
M  V30 7856 H 761.673 -3.97796 -0.0187511 0
M  V30 7857 H 758.412 -6.26938 1.91387 0
M  V30 7858 H 757.932 -5.99383 0.223591 0
M  V30 7859 H 759.611 -6.44065 0.61557 0
M  V30 7860 N 759.743 -0.201713 -1.56304 0
M  V30 7861 C 761.02 0.483273 -1.89536 0
M  V30 7862 C 761.4 1.79176 -1.11621 0
M  V30 7863 O 760.748 2.27445 -0.219339 0
M  V30 7864 C 760.958 0.695604 -3.41998 0
M  V30 7865 C 762.306 1.012 -4.12364 0
M  V30 7866 O 763.33 0.783094 -3.47485 0
M  V30 7867 O 762.189 1.44534 -5.27041 0
M  V30 7868 H 759.283 0.252801 -0.787414 0
M  V30 7869 H 761.829 -0.24242 -1.6796 0
M  V30 7870 H 760.601 -0.228165 -3.90634 0
M  V30 7871 H 760.224 1.47351 -3.69288 0
M  V30 7872 N 761.222 1.57436 0.0718424 0
M  V30 7873 C 762.169 2.03686 1.08539 0
M  V30 7874 C 763.139 0.917474 1.38462 0
M  V30 7875 O 764.324 1.18513 1.4953 0
M  V30 7876 C 761.464 2.48566 2.39393 0
M  V30 7877 C 760.577 3.74122 2.16001 0
M  V30 7878 C 759.712 4.07786 3.40418 0
M  V30 7879 C 758.751 5.26383 3.1239 0
M  V30 7880 N 757.888 5.55685 4.29138 0
M  V30 7881 H 762.728 2.90043 0.684018 0
M  V30 7882 H 760.265 1.43438 0.326183 0
M  V30 7883 H 762.223 2.72639 3.15791 0
M  V30 7884 H 760.853 1.65186 2.77333 0
M  V30 7885 H 759.905 3.57389 1.30296 0
M  V30 7886 H 761.217 4.60659 1.91298 0
M  V30 7887 H 760.371 4.32759 4.25211 0
M  V30 7888 H 759.11 3.19817 3.68197 0
M  V30 7889 H 758.115 5.01206 2.25993 0
M  V30 7890 H 759.34 6.1597 2.85934 0
M  V30 7891 H 757.286 4.70675 4.56948 0
M  V30 7892 H 757.203 6.3664 4.07708 0
M  V30 7893 H 758.471 5.85209 5.14928 0
M  V30 7894 N 762.7 -0.34323 1.53817 0
M  V30 7895 C 763.633 -1.44472 1.76644 0
M  V30 7896 C 764.611 -1.50498 0.615556 0
M  V30 7897 O 765.795 -1.6821 0.850751 0
M  V30 7898 C 762.922 -2.82705 1.86536 0
M  V30 7899 C 761.968 -2.94302 3.08688 0
M  V30 7900 S 762.801 -2.60739 4.67735 0
M  V30 7901 C 763.957 -4.01079 4.80506 0
M  V30 7902 H 764.19 -1.24893 2.69794 0
M  V30 7903 H 761.723 -0.538915 1.4469 0
M  V30 7904 H 763.681 -3.62342 1.92921 0
M  V30 7905 H 762.342 -2.9958 0.943975 0
M  V30 7906 H 761.535 -3.95593 3.12286 0
M  V30 7907 H 761.137 -2.22614 3.00531 0
M  V30 7908 H 763.429 -4.95603 4.61935 0
M  V30 7909 H 764.372 -4.02475 5.82597 0
M  V30 7910 H 764.78 -3.89119 4.08958 0
M  V30 7911 N 764.178 -1.45556 -0.604258 0
M  V30 7912 C 765.126 -1.5482 -1.7359 0
M  V30 7913 C 766.12 -0.417966 -1.64163 0
M  V30 7914 O 767.326 -0.594007 -1.69916 0
M  V30 7915 H 763.701 -0.486352 -0.573556 0
M  V30 7916 H 765.672 -2.5001 -1.62903 0
M  V30 7917 C 764.421 -1.53521 -3.11972 0
M  V30 7918 H 763.744 -2.39818 -3.19886 0
M  V30 7919 H 765.184 -1.64061 -3.90973 0
M  V30 7920 C 763.643 -0.260191 -3.35894 0
M  V30 7921 O 764.173 0.658582 -3.96265 0
M  V30 7922 N 762.379 -0.154839 -2.90187 0
M  V30 7923 H 761.926 -0.903378 -2.4124 0
M  V30 7924 H 761.884 0.697437 -3.06567 0
M  V30 7925 N 765.656 0.84705 -1.32902 0
M  V30 7926 C 766.604 1.97765 -1.22441 0
M  V30 7927 C 767.598 1.68919 -0.127546 0
M  V30 7928 O 768.804 1.77633 -0.290973 0
M  V30 7929 H 765.179 0.649072 -0.379748 0
M  V30 7930 H 767.15 2.03713 -2.18044 0
M  V30 7931 C 765.899 3.33834 -0.972125 0
M  V30 7932 H 765.222 3.56564 -1.80837 0
M  V30 7933 H 766.662 4.13467 -0.939209 0
M  V30 7934 C 765.121 3.35328 0.325059 0
M  V30 7935 O 765.651 3.78887 1.33445 0
M  V30 7936 N 763.857 2.88488 0.349718 0
M  V30 7937 H 763.404 2.53234 -0.472236 0
M  V30 7938 H 763.362 2.8987 1.21748 0
M  V30 7939 N 767.134 1.16236 1.06428 0
M  V30 7940 C 768.064 0.890807 2.1584 0
M  V30 7941 C 769.045 -0.162333 1.69324 0
M  V30 7942 O 770.23 -0.0147191 1.94194 0
M  V30 7943 C 767.36 0.389615 3.45108 0
M  V30 7944 C 766.314 1.38051 4.05125 0
M  V30 7945 C 765.64 0.737773 5.29586 0
M  V30 7946 C 766.94 2.74965 4.44062 0
M  V30 7947 H 768.634 1.80577 2.38814 0
M  V30 7948 H 766.18 0.869657 1.14774 0
M  V30 7949 H 768.133 0.187127 4.20984 0
M  V30 7950 H 766.857 -0.560851 3.21748 0
M  V30 7951 H 765.516 1.56952 3.31303 0
M  V30 7952 H 765.164 -0.219135 5.02522 0
M  V30 7953 H 764.864 1.39914 5.70699 0
M  V30 7954 H 766.388 0.545275 6.0816 0
M  V30 7955 H 767.802 2.59855 5.11027 0
M  V30 7956 H 766.199 3.37563 4.96156 0
M  V30 7957 H 767.269 3.30321 3.54987 0
M  V30 7958 N 768.612 -1.24939 0.960631 0
M  V30 7959 C 769.861 -1.92118 0.614298 0
M  V30 7960 C 770.174 -1.75998 -0.853474 0
M  V30 7961 O 771.38 -2.37804 -1.31003 0
M  V30 7962 C 769.836 -3.44303 1.04801 0
M  V30 7963 C 769.444 -3.69123 2.53875 0
M  V30 7964 C 771.188 -4.17375 0.774497 0
M  V30 7965 C 769.095 -5.14843 2.91016 0
M  V30 7966 H 768.025 -0.719319 0.226045 0
M  V30 7967 H 770.676 -1.41701 1.16589 0
M  V30 7968 H 769.058 -3.93715 0.42479 0
M  V30 7969 H 770.232 -3.30339 3.21267 0
M  V30 7970 H 768.547 -3.09323 2.78762 0
M  V30 7971 H 771.144 -5.24723 1.02808 0
M  V30 7972 H 771.487 -4.15294 -0.289192 0
M  V30 7973 H 772.02 -3.7389 1.35835 0
M  V30 7974 H 768.759 -5.2204 3.96427 0
M  V30 7975 H 768.279 -5.54652 2.28302 0
M  V30 7976 H 769.958 -5.83017 2.80535 0
M  V30 7977 N 770.09 -0.729906 -1.39679 0
M  V30 7978 C 771.022 -0.0470588 -2.29152 0
M  V30 7979 C 772.035 0.708808 -1.4656 0
M  V30 7980 O 773.224 0.553815 -1.69691 0
M  V30 7981 C 770.324 0.957612 -3.25089 0
M  V30 7982 C 769.497 0.264321 -4.36601 0
M  V30 7983 C 768.556 1.17638 -5.12882 0
M  V30 7984 O 767.582 0.655777 -5.6541 0
M  V30 7985 N 768.784 2.50649 -5.23598 0
M  V30 7986 H 771.549 -0.815364 -2.88395 0
M  V30 7987 H 769.11 -0.578707 -1.51204 0
M  V30 7988 H 771.102 1.57026 -3.72995 0
M  V30 7989 H 769.672 1.62716 -2.66912 0
M  V30 7990 H 768.892 -0.528732 -3.90638 0
M  V30 7991 H 770.18 -0.216344 -5.0834 0
M  V30 7992 H 769.578 2.95427 -4.82431 0
M  V30 7993 H 768.135 3.07022 -5.74961 0
M  V30 7994 N 771.568 1.50203 -0.477153 0
M  V30 7995 C 772.531 2.27194 0.302599 0
M  V30 7996 C 773.531 1.32221 0.915112 0
M  V30 7997 O 774.721 1.55593 0.783348 0
M  V30 7998 C 771.853 3.0938 1.43167 0
M  V30 7999 H 773.046 2.97575 -0.372678 0
M  V30 8000 H 770.599 1.54578 -0.231392 0
M  V30 8001 H 771.334 2.43509 2.14182 0
M  V30 8002 H 771.119 3.79181 0.998197 0
M  V30 8003 H 772.609 3.67592 1.98157 0
M  V30 8004 N 773.046 0.209999 1.56195 0
M  V30 8005 C 774.293 -0.424813 1.97994 0
M  V30 8006 C 774.621 -1.60589 1.09733 0
M  V30 8007 O 773.876 -1.95201 0.139693 0
M  V30 8008 C 774.175 -0.91312 3.45539 0
M  V30 8009 C 773.841 0.156187 4.50629 0
M  V30 8010 C 772.503 0.449966 4.79092 0
M  V30 8011 C 774.855 0.879959 5.13718 0
M  V30 8012 C 772.183 1.47223 5.67928 0
M  V30 8013 C 774.535 1.89148 6.0366 0
M  V30 8014 C 773.199 2.1923 6.30472 0
M  V30 8015 H 772.469 -0.15545 0.724511 0
M  V30 8016 H 775.116 0.310095 1.88973 0
M  V30 8017 H 773.421 -1.72658 3.51705 0
M  V30 8018 H 775.118 -1.41395 3.75245 0
M  V30 8019 H 771.708 -0.0829466 4.2852 0
M  V30 8020 H 775.892 0.66623 4.91808 0
M  V30 8021 H 771.148 1.71105 5.86969 0
M  V30 8022 H 775.322 2.45745 6.516 0
M  V30 8023 H 772.949 2.98587 6.99107 0
M  V30 8024 N 774.524 -1.57472 -0.0634922 0
M  V30 8025 C 775.754 -1.91608 -0.772645 0
M  V30 8026 C 776.162 -0.805019 -1.71219 0
M  V30 8027 O 775.505 0.229941 -1.82255 0
M  V30 8028 C 775.567 -3.21281 -1.61304 0
M  V30 8029 C 775.231 -4.49177 -0.841973 0
M  V30 8030 C 776.228 -5.19661 -0.157494 0
M  V30 8031 C 773.913 -4.9578 -0.80669 0
M  V30 8032 C 775.907 -6.35006 0.551948 0
M  V30 8033 C 773.594 -6.11028 -0.0934812 0
M  V30 8034 C 774.592 -6.80493 0.58463 0
M  V30 8035 O 774.28 -7.93542 1.28633 0
M  V30 8036 H 774.012 -0.637685 -0.224352 0
M  V30 8037 H 776.566 -2.05369 -0.0355279 0
M  V30 8038 H 774.796 -3.03752 -2.39315 0
M  V30 8039 H 776.485 -3.41003 -2.20162 0
M  V30 8040 H 777.251 -4.84681 -0.176006 0
M  V30 8041 H 773.13 -4.41579 -1.32397 0
M  V30 8042 H 776.674 -6.89161 1.0818 0
M  V30 8043 H 772.571 -6.45459 -0.0729258 0
M  V30 8044 H 773.339 -8.09708 1.19646 0
M  V30 8045 N 776.003 0.335068 -1.53997 0
M  V30 8046 C 777.231 1.09418 -1.756 0
M  V30 8047 C 777.646 1.82083 -0.499138 0
M  V30 8048 O 777.003 1.74646 0.529631 0
M  V30 8049 C 777.054 2.10115 -2.94166 0
M  V30 8050 O 776.775 1.40404 -4.14992 0
M  V30 8051 C 778.276 2.98336 -3.27888 0
M  V30 8052 H 775.496 0.32595 -0.586513 0
M  V30 8053 H 778.04 0.384693 -2.00849 0
M  V30 8054 H 776.195 2.76616 -2.71224 0
M  V30 8055 H 776.609 2.07743 -4.81605 0
M  V30 8056 H 778.083 3.6491 -4.1418 0
M  V30 8057 H 778.56 3.64814 -2.44556 0
M  V30 8058 H 779.166 2.37412 -3.52868 0
M  V30 8059 N 777.481 1.45874 0.596531 0
M  V30 8060 C 778.428 1.55389 1.70655 0
M  V30 8061 C 779.398 0.399036 1.61236 0
M  V30 8062 O 780.583 0.61396 1.80652 0
M  V30 8063 C 777.723 1.53705 3.0898 0
M  V30 8064 C 776.836 2.79823 3.29125 0
M  V30 8065 C 775.971 2.69735 4.5762 0
M  V30 8066 C 775.01 3.90856 4.71061 0
M  V30 8067 N 774.147 3.79237 5.90867 0
M  V30 8068 H 778.987 2.50211 1.61859 0
M  V30 8069 H 776.524 1.24146 0.789069 0
M  V30 8070 H 778.482 1.50715 3.89026 0
M  V30 8071 H 777.112 0.624247 3.16706 0
M  V30 8072 H 776.164 2.92852 2.42779 0
M  V30 8073 H 777.476 3.69628 3.34927 0
M  V30 8074 H 776.63 2.64773 5.45875 0
M  V30 8075 H 775.369 1.77547 4.54234 0
M  V30 8076 H 774.374 3.96164 3.81227 0
M  V30 8077 H 775.599 4.84124 4.76236 0
M  V30 8078 H 773.545 2.89825 5.88504 0
M  V30 8079 H 773.462 4.62686 5.97877 0
M  V30 8080 H 774.73 3.78227 6.8159 0
M  V30 8081 N 778.959 -0.83999 1.33349 0
M  V30 8082 C 780.184 -1.63249 1.27924 0
M  V30 8083 C 780.609 -1.87523 -0.147193 0
M  V30 8084 O 779.967 -1.43853 -1.10345 0
M  V30 8085 C 780.015 -2.96046 2.05886 0
M  V30 8086 O 779.119 -3.87303 1.4167 0
M  V30 8087 H 778.46 -0.49715 0.440157 0
M  V30 8088 H 780.99 -1.04512 1.75893 0
M  V30 8089 H 781 -3.45752 2.16609 0
M  V30 8090 H 779.675 -2.77701 3.09605 0
M  V30 8091 H 778.252 -3.45789 1.39585 0
M  V30 8092 N 780.437 -1.16799 -1.0581 0
M  V30 8093 C 781.853 -0.913935 -1.30841 0
M  V30 8094 C 782.053 0.430439 -1.96849 0
M  V30 8095 O 781.109 1.16885 -2.23817 0
M  V30 8096 C 782.422 -2.06662 -2.18429 0
M  V30 8097 C 783.97 -2.10294 -2.31831 0
M  V30 8098 C 784.445 -3.2493 -3.22776 0
M  V30 8099 N 785.936 -3.24678 -3.30361 0
M  V30 8100 C 786.671 -4.10021 -4.00837 0
M  V30 8101 N 786.167 -5.05461 -4.73795 0
M  V30 8102 N 787.96 -3.97991 -3.96937 0
M  V30 8103 H 780.111 -2.03343 -0.613613 0
M  V30 8104 H 782.374 -0.88754 -0.333133 0
M  V30 8105 H 782.08 -3.03791 -1.77211 0
M  V30 8106 H 781.954 -2.01233 -3.19038 0
M  V30 8107 H 784.341 -1.13754 -2.72294 0
M  V30 8108 H 784.422 -2.19786 -1.30873 0
M  V30 8109 H 784.066 -4.21731 -2.83028 0
M  V30 8110 H 783.996 -3.12674 -4.23725 0
M  V30 8111 H 786.487 -2.55573 -2.78372 0
M  V30 8112 H 786.8 -5.66989 -5.25113 0
M  V30 8113 H 785.145 -5.09436 -4.72758 0
M  V30 8114 H 788.336 -3.2273 -3.39062 0
M  V30 8115 H 788.509 -4.64722 -4.51594 0
M  V30 8116 N 781.915 1.24427 -0.967243 0
M  V30 8117 C 783.326 1.74349 -0.667785 0
M  V30 8118 C 783.677 1.78403 0.816509 0
M  V30 8119 O 782.802 1.41315 1.63887 0
M  V30 8120 C 783.397 3.16628 -1.20548 0
M  V30 8121 C 781.956 3.64059 -0.955934 0
M  V30 8122 C 781.103 2.42715 -1.34106 0
M  V30 8123 H 784.054 1.10136 -1.14262 0
M  V30 8124 H 784.075 3.76183 -0.571547 0
M  V30 8125 H 783.587 3.13646 -2.28578 0
M  V30 8126 H 781.688 3.72441 0.108858 0
M  V30 8127 H 781.801 4.51549 -1.60126 0
M  V30 8128 H 780.165 2.43114 -0.759452 0
M  V30 8129 H 780.948 2.42414 -2.43085 0
M  V30 8130 N 783.393 0.737304 1.3929 0
M  V30 8131 C 784.34 0.0988364 2.30588 0
M  V30 8132 C 785.31 -0.727206 1.49335 0
M  V30 8133 O 786.495 -0.686694 1.78014 0
M  V30 8134 C 783.635 -0.800734 3.35682 0
M  V30 8135 C 782.748 0.0381731 4.31983 0
M  V30 8136 C 781.883 -0.862884 5.24145 0
M  V30 8137 C 780.922 -0.0193639 6.12097 0
M  V30 8138 N 780.059 -0.87648 6.96608 0
M  V30 8139 H 784.899 0.883031 2.84617 0
M  V30 8140 H 782.436 0.447111 1.4014 0
M  V30 8141 H 784.394 -1.33676 3.95205 0
M  V30 8142 H 783.024 -1.55088 2.83103 0
M  V30 8143 H 782.076 0.691641 3.74059 0
M  V30 8144 H 783.388 0.690294 4.94 0
M  V30 8145 H 782.542 -1.46667 5.88705 0
M  V30 8146 H 781.281 -1.54878 4.62454 0
M  V30 8147 H 780.286 0.597202 5.46547 0
M  V30 8148 H 781.511 0.663348 6.75852 0
M  V30 8149 H 779.457 -1.54762 6.37483 0
M  V30 8150 H 779.374 -0.280892 7.55478 0
M  V30 8151 H 780.642 -1.46575 7.65595 0
M  V30 8152 N 784.871 -1.49948 0.485112 0
M  V30 8153 C 786.117 -2.02695 -0.0651022 0
M  V30 8154 C 786.45 -1.36534 -1.38102 0
M  V30 8155 O 785.725 -0.495677 -1.88078 0
M  V30 8156 C 786.008 -3.59337 -0.234285 0
M  V30 8157 C 785.861 -4.3605 1.10364 0
M  V30 8158 C 787.18 -4.28996 -0.982351 0
M  V30 8159 H 784.299 -0.736666 -0.0221856 0
M  V30 8160 H 786.941 -1.7913 0.633433 0
M  V30 8161 H 785.091 -3.79546 -0.829262 0
M  V30 8162 H 786.763 -4.27377 1.73627 0
M  V30 8163 H 785.006 -3.99236 1.69686 0
M  V30 8164 H 785.677 -5.43959 0.938743 0
M  V30 8165 H 788.153 -4.13346 -0.477904 0
M  V30 8166 H 787.029 -5.38379 -1.06955 0
M  V30 8167 H 787.29 -3.93135 -2.02231 0
M  V30 8168 N 786.349 -0.21828 -1.56081 0
M  V30 8169 C 787.589 0.416193 -2.00118 0
M  V30 8170 C 787.953 1.5718 -1.10265 0
M  V30 8171 O 789.154 2.27206 -1.43635 0
M  V30 8172 C 787.425 0.842781 -3.47321 0
M  V30 8173 S 788.984 1.47182 -4.1338 0
M  V30 8174 H 785.802 0.132219 -0.698598 0
M  V30 8175 H 788.404 -0.326799 -1.92749 0
M  V30 8176 H 787.108 -0.00799925 -4.10399 0
M  V30 8177 H 786.639 1.61867 -3.58556 0
M  V30 8178 H 788.654 2.76087 -4.12299 0
M  V30 8179 N 787.827 1.57504 0.0551401 0
M  V30 8180 C 788.79 2.03826 1.04821 0
M  V30 8181 C 789.79 0.937968 1.30609 0
M  V30 8182 O 790.98 1.20237 1.2605 0
M  V30 8183 C 788.112 2.43309 2.38775 0
M  V30 8184 H 789.305 2.92802 0.6486 0
M  V30 8185 H 786.858 1.53368 0.301315 0
M  V30 8186 H 787.593 1.5741 2.83536 0
M  V30 8187 H 787.378 3.23615 2.21395 0
M  V30 8188 H 788.868 2.79666 3.10124 0
M  V30 8189 N 789.305 -0.326896 1.54172 0
M  V30 8190 C 790.215 -1.42525 1.86343 0
M  V30 8191 C 791.231 -1.56764 0.75505 0
M  V30 8192 O 792.407 -1.71924 1.04901 0
M  V30 8193 C 789.472 -2.77286 2.08119 0
M  V30 8194 C 788.533 -2.7225 3.31931 0
M  V30 8195 C 787.766 -4.00584 3.52659 0
M  V30 8196 O 787.989 -4.98686 2.76891 0
M  V30 8197 O 786.923 -4.04045 4.46129 0
M  V30 8198 H 790.749 -1.18249 2.79734 0
M  V30 8199 H 788.334 -0.520614 1.40036 0
M  V30 8200 H 790.216 -3.57065 2.23791 0
M  V30 8201 H 788.891 -3.01459 1.17917 0
M  V30 8202 H 787.798 -1.91033 3.21647 0
M  V30 8203 H 789.131 -2.53032 4.2218 0
M  V30 8204 N 790.784 -1.46188 -0.588786 0
M  V30 8205 C 791.714 -1.59148 -1.70863 0
M  V30 8206 C 792.695 -0.442083 -1.64255 0
M  V30 8207 O 793.88 -0.667575 -1.82365 0
M  V30 8208 C 791.01 -1.5757 -3.09498 0
M  V30 8209 C 789.964 -2.71418 -3.30932 0
M  V30 8210 C 789.29 -2.549 -4.70032 0
M  V30 8211 C 790.59 -4.1329 -3.19356 0
M  V30 8212 H 792.284 -2.52889 -1.60274 0
M  V30 8213 H 789.83 -1.21707 -0.769638 0
M  V30 8214 H 791.783 -1.65231 -3.87655 0
M  V30 8215 H 790.507 -0.603705 -3.20972 0
M  V30 8216 H 789.166 -2.63216 -2.55172 0
M  V30 8217 H 788.814 -1.55797 -4.78264 0
M  V30 8218 H 788.514 -3.31257 -4.85327 0
M  V30 8219 H 790.038 -2.64443 -5.50366 0
M  V30 8220 H 791.452 -4.22636 -3.87365 0
M  V30 8221 H 789.849 -4.90187 -3.46175 0
M  V30 8222 H 790.919 -4.33874 -2.16522 0
M  V30 8223 N 792.262 0.832906 -1.33792 0
M  V30 8224 C 793.51 1.58539 -1.25338 0
M  V30 8225 C 793.831 1.94175 0.179204 0
M  V30 8226 O 793.101 1.61458 1.10941 0
M  V30 8227 H 791.681 0.58784 -0.460926 0
M  V30 8228 H 794.343 0.995064 -1.67584 0
M  V30 8229 H 793.439 2.51268 -1.85123 0
M  V30 8230 N 793.74 1.17359 1.05189 0
M  V30 8231 C 794.67 0.91365 2.14883 0
M  V30 8232 C 795.651 -0.144365 1.69486 0
M  V30 8233 O 796.836 0.00587861 1.94199 0
M  V30 8234 C 793.966 0.426196 3.44675 0
M  V30 8235 C 792.92 1.4234 4.03638 0
M  V30 8236 C 792.246 0.793902 5.28773 0
M  V30 8237 C 793.546 2.7966 4.41121 0
M  V30 8238 H 795.24 1.831 2.36885 0
M  V30 8239 H 792.786 0.881781 1.13845 0
M  V30 8240 H 794.739 0.231767 4.20762 0
M  V30 8241 H 793.463 -0.526693 3.22325 0
M  V30 8242 H 792.122 1.60457 3.2962 0
M  V30 8243 H 791.77 -0.165824 5.02727 0
M  V30 8244 H 791.47 1.45959 5.69183 0
M  V30 8245 H 792.994 0.609747 6.07548 0
M  V30 8246 H 794.408 2.6526 5.08242 0
M  V30 8247 H 792.805 3.42807 4.92548 0
M  V30 8248 H 793.875 3.34068 3.51464 0
M  V30 8249 N 795.218 -1.23913 0.973828 0
M  V30 8250 C 796.464 -1.92436 0.640026 0
M  V30 8251 C 796.797 -1.75875 -0.823512 0
M  V30 8252 O 796.072 -1.11563 -1.59323 0
M  V30 8253 C 796.355 -3.4526 1.0231 0
M  V30 8254 C 796.208 -3.70961 2.54378 0
M  V30 8255 C 797.527 -4.36495 0.562155 0
M  V30 8256 H 794.646 -0.698868 0.233992 0
M  V30 8257 H 797.288 -1.46163 1.21393 0
M  V30 8258 H 795.438 -3.84802 0.534751 0
M  V30 8259 H 797.11 -3.40941 3.10737 0
M  V30 8260 H 795.353 -3.15899 2.97305 0
M  V30 8261 H 796.024 -4.77912 2.76232 0
M  V30 8262 H 798.5 -4.04363 0.981333 0
M  V30 8263 H 797.376 -5.42142 0.858689 0
M  V30 8264 H 797.637 -4.38818 -0.537659 0
M  V30 8265 N 796.696 -0.74468 -1.38897 0
M  V30 8266 C 797.973 -0.222773 -1.94327 0
M  V30 8267 C 798.353 1.27731 -1.68071 0
M  V30 8268 O 797.701 2.04754 -1.01429 0
M  V30 8269 C 797.911 -0.566836 -3.44366 0
M  V30 8270 C 799.259 -0.521531 -4.21385 0
M  V30 8271 O 800.283 -0.504599 -3.52608 0
M  V30 8272 O 799.142 -0.524595 -5.43976 0
M  V30 8273 H 796.236 -0.0439259 -0.825833 0
M  V30 8274 H 798.782 -0.824197 -1.48341 0
M  V30 8275 H 797.554 -1.60321 -3.56949 0
M  V30 8276 H 797.177 0.0630577 -3.9755 0
M  V30 8277 N 798.174 1.49689 -0.493057 0
M  V30 8278 C 799.084 2.32746 0.294358 0
M  V30 8279 C 800.1 1.44117 0.975003 0
M  V30 8280 O 801.276 1.77149 0.958138 0
M  V30 8281 C 798.341 3.19358 1.34949 0
M  V30 8282 C 797.402 4.2383 0.683122 0
M  V30 8283 C 796.635 5.06303 1.68798 0
M  V30 8284 O 796.858 4.90172 2.91698 0
M  V30 8285 O 795.792 5.88826 1.24768 0
M  V30 8286 H 799.618 3.01247 -0.385254 0
M  V30 8287 H 797.203 1.47216 -0.254519 0
M  V30 8288 H 799.085 3.73037 1.96014 0
M  V30 8289 H 797.76 2.53561 2.01217 0
M  V30 8290 H 796.667 3.74086 0.0329351 0
M  V30 8291 H 798 4.9216 0.0630192 0
M  V30 8292 N 799.652 0.226554 1.55963 0
M  V30 8293 C 800.901 -0.40417 1.97609 0
M  V30 8294 C 801.214 -1.60541 1.1174 0
M  V30 8295 O 802.42 -2.30598 1.43307 0
M  V30 8296 C 800.876 -0.770466 3.51556 0
M  V30 8297 C 800.484 0.408244 4.46136 0
M  V30 8298 C 802.228 -1.36651 4.01904 0
M  V30 8299 C 800.135 0.0192347 5.91397 0
M  V30 8300 H 799.065 -0.15478 0.737943 0
M  V30 8301 H 801.716 0.323558 1.80625 0
M  V30 8302 H 800.098 -1.55575 3.6416 0
M  V30 8303 H 801.272 1.18575 4.45283 0
M  V30 8304 H 799.587 0.917859 4.06158 0
M  V30 8305 H 802.184 -1.67055 5.07934 0
M  V30 8306 H 802.527 -2.28403 3.48049 0
M  V30 8307 H 803.06 -0.644556 3.92543 0
M  V30 8308 H 799.799 0.90336 6.49245 0
M  V30 8309 H 799.319 -0.722485 5.95433 0
M  V30 8310 H 800.998 -0.405711 6.45727 0
M  V30 8311 N 801.13 -1.57531 -0.0467866 0
M  V30 8312 C 802.376 -1.8873 -0.742218 0
M  V30 8313 C 802.709 -0.822084 -1.75941 0
M  V30 8314 O 801.984 0.164922 -1.938 0
M  V30 8315 C 802.267 -3.30586 -1.42776 0
M  V30 8316 C 802.12 -4.47785 -0.425285 0
M  V30 8317 C 803.439 -3.71068 -2.36636 0
M  V30 8318 H 800.558 -0.686406 -0.268359 0
M  V30 8319 H 803.2 -1.89999 -0.00511341 0
M  V30 8320 H 801.35 -3.29634 -2.05605 0
M  V30 8321 H 803.022 -4.60867 0.199721 0
M  V30 8322 H 801.265 -4.33037 0.25713 0
M  V30 8323 H 801.936 -5.43884 -0.943086 0
M  V30 8324 H 804.412 -3.73273 -1.83866 0
M  V30 8325 H 803.288 -4.71165 -2.81593 0
M  V30 8326 H 803.549 -3.02355 -3.22542 0
M  V30 8327 N 802.608 0.318715 -1.54344 0
M  V30 8328 C 803.885 1.07461 -1.63437 0
M  V30 8329 C 804.265 2.05771 -0.47131 0
M  V30 8330 O 803.613 2.22175 0.53391 0
M  V30 8331 C 803.823 1.77224 -3.00654 0
M  V30 8332 C 805.171 2.30069 -3.56866 0
M  V30 8333 O 806.195 1.87284 -3.0299 0
M  V30 8334 O 805.054 3.08412 -4.51159 0
M  V30 8335 H 802.148 0.495627 -0.66203 0
M  V30 8336 H 804.694 0.318218 -1.6669 0
M  V30 8337 H 803.466 1.05742 -3.76742 0
M  V30 8338 H 803.089 2.59662 -3.01101 0
M  V30 8339 N 804.086 1.46499 0.581025 0
M  V30 8340 C 805.019 1.51706 1.70472 0
M  V30 8341 C 805.997 0.371036 1.5831 0
M  V30 8342 O 807.181 0.575426 1.79502 0
M  V30 8343 C 804.308 1.3972 3.08538 0
M  V30 8344 C 803.354 2.58525 3.39215 0
M  V30 8345 S 804.187 4.20872 3.311 0
M  V30 8346 C 805.343 4.11398 4.71702 0
M  V30 8347 H 805.576 2.46777 1.65796 0
M  V30 8348 H 803.109 1.34405 0.759908 0
M  V30 8349 H 805.067 1.33492 3.88188 0
M  V30 8350 H 803.728 0.460742 3.10702 0
M  V30 8351 H 802.921 2.46137 4.3981 0
M  V30 8352 H 802.523 2.61752 2.67136 0
M  V30 8353 H 804.815 3.78182 5.62125 0
M  V30 8354 H 805.758 5.11997 4.89147 0
M  V30 8355 H 806.166 3.42624 4.48631 0
M  V30 8356 N 805.565 -0.825799 1.34232 0
M  V30 8357 C 806.513 -1.95792 1.25572 0
M  V30 8358 C 807.507 -1.68695 0.154404 0
M  V30 8359 O 808.713 -1.77147 0.319196 0
M  V30 8360 H 805.088 -0.642949 0.390027 0
M  V30 8361 H 807.059 -2.00219 2.21258 0
M  V30 8362 C 805.808 -3.32245 1.02511 0
M  V30 8363 H 805.131 -3.53642 1.86487 0
M  V30 8364 H 806.571 -4.1192 1.00487 0
M  V30 8365 C 805.03 -3.35803 -0.27167 0
M  V30 8366 O 805.56 -3.80962 -1.274 0
M  V30 8367 N 803.766 -2.89008 -0.303778 0
M  V30 8368 H 803.313 -2.52451 0.512464 0
M  V30 8369 H 803.271 -2.9177 -1.17121 0
M  V30 8370 N 807.043 -1.17915 -1.04565 0
M  V30 8371 C 807.99 -0.901605 -2.12461 0
M  V30 8372 C 808.96 0.157011 -1.65356 0
M  V30 8373 O 810.145 0.0184494 -1.90791 0
M  V30 8374 C 807.285 -0.42796 -3.42436 0
M  V30 8375 C 806.398 -1.55142 -4.03181 0
M  V30 8376 C 805.533 -1.03101 -5.21098 0
M  V30 8377 C 804.572 -2.1295 -5.73863 0
M  V30 8378 N 803.709 -1.62339 -6.83074 0
M  V30 8379 H 808.549 -1.82551 -2.3554 0
M  V30 8380 H 806.086 -0.910389 -1.15544 0
M  V30 8381 H 808.044 -0.134859 -4.16982 0
M  V30 8382 H 806.674 0.458977 -3.1952 0
M  V30 8383 H 805.726 -1.96011 -3.26012 0
M  V30 8384 H 807.038 -2.37968 -4.38375 0
M  V30 8385 H 806.192 -0.692132 -6.02739 0
M  V30 8386 H 804.931 -0.17227 -4.87396 0
M  V30 8387 H 803.936 -2.47687 -4.90847 0
M  V30 8388 H 805.161 -2.9925 -6.09611 0
M  V30 8389 H 803.107 -0.787464 -6.51256 0
M  V30 8390 H 803.024 -2.38767 -7.17305 0
M  V30 8391 H 804.292 -1.31363 -7.68351 0
M  V30 8392 N 808.521 1.23394 -0.980386 0
M  V30 8393 C 809.77 1.91116 -0.644785 0
M  V30 8394 C 810.083 1.77333 0.825367 0
M  V30 8395 O 811.289 2.39858 1.27203 0
M  V30 8396 C 809.745 3.42592 -1.10266 0
M  V30 8397 C 809.353 3.65037 -2.59715 0
M  V30 8398 C 811.097 4.1609 -0.8408 0
M  V30 8399 C 809.004 5.10148 -2.9917 0
M  V30 8400 H 807.934 0.715632 -0.23746 0
M  V30 8401 H 810.585 1.39829 -1.18828 0
M  V30 8402 H 808.967 3.92989 -0.487372 0
M  V30 8403 H 810.141 3.25186 -3.26482 0
M  V30 8404 H 808.456 3.04849 -2.83647 0
M  V30 8405 H 811.053 5.23021 -1.11143 0
M  V30 8406 H 811.396 4.15702 0.223085 0
M  V30 8407 H 811.929 3.71681 -1.41767 0
M  V30 8408 H 808.668 5.15668 -4.04682 0
M  V30 8409 H 808.188 5.50949 -2.37097 0
M  V30 8410 H 809.867 5.7848 -2.89775 0
M  V30 8411 N 809.999 0.752036 1.385 0
M  V30 8412 C 811.415 0.42946 1.53713 0
M  V30 8413 C 811.615 -1.0576 1.71514 0
M  V30 8414 O 810.671 -1.84366 1.72527 0
M  V30 8415 C 811.984 1.22735 2.74511 0
M  V30 8416 C 813.532 1.21727 2.8836 0
M  V30 8417 C 814.007 1.99809 4.12117 0
M  V30 8418 N 815.498 1.97062 4.19191 0
M  V30 8419 C 816.233 2.54274 5.13938 0
M  V30 8420 N 815.729 3.20193 6.14368 0
M  V30 8421 N 817.522 2.44212 5.06277 0
M  V30 8422 H 809.673 1.71581 1.25195 0
M  V30 8423 H 811.936 0.727293 0.60807 0
M  V30 8424 H 811.642 2.28032 2.67758 0
M  V30 8425 H 811.516 0.843186 3.67655 0
M  V30 8426 H 813.903 0.172367 2.94596 0
M  V30 8427 H 813.984 1.64094 1.96232 0
M  V30 8428 H 813.628 3.0431 4.06642 0
M  V30 8429 H 813.558 1.54837 5.03322 0
M  V30 8430 H 816.049 1.49054 3.47263 0
M  V30 8431 H 816.362 3.61272 6.83156 0
M  V30 8432 H 814.707 3.24287 6.14705 0
M  V30 8433 H 817.898 1.92343 4.26757 0
M  V30 8434 H 818.071 2.89096 5.79937 0
M  V30 8435 N 811.477 -1.49425 0.500989 0
M  V30 8436 C 812.725 -2.02053 -0.0434495 0
M  V30 8437 C 813.046 -1.38285 -1.37486 0
M  V30 8438 O 812.316 -0.538171 -1.88363 0
M  V30 8439 H 810.896 -0.746757 -0.0190469 0
M  V30 8440 H 813.558 -1.83449 0.658227 0
M  V30 8441 H 812.654 -3.11619 -0.173129 0
M  V30 8442 N 812.955 -0.234822 -1.55841 0
M  V30 8443 C 814.185 0.397168 -2.02746 0
M  V30 8444 C 814.593 1.52951 -1.11367 0
M  V30 8445 O 813.936 1.8332 -0.118133 0
M  V30 8446 C 813.998 0.977748 -3.45948 0
M  V30 8447 C 813.662 -0.0208193 -4.56995 0
M  V30 8448 C 814.659 -0.826015 -5.13296 0
M  V30 8449 C 812.344 -0.143416 -5.02095 0
M  V30 8450 C 814.338 -1.74038 -6.1318 0
M  V30 8451 C 812.025 -1.0613 -6.01814 0
M  V30 8452 C 813.023 -1.85832 -6.57233 0
M  V30 8453 O 812.711 -2.76075 -7.55008 0
M  V30 8454 H 812.443 0.0999802 -0.668566 0
M  V30 8455 H 814.997 -0.352673 -2.0235 0
M  V30 8456 H 813.227 1.77693 -3.43456 0
M  V30 8457 H 814.916 1.51854 -3.76424 0
M  V30 8458 H 815.682 -0.741822 -4.79293 0
M  V30 8459 H 811.561 0.466857 -4.5863 0
M  V30 8460 H 815.105 -2.36291 -6.56363 0
M  V30 8461 H 811.002 -1.14646 -6.35237 0
M  V30 8462 H 811.77 -2.703 -7.7258 0
M  V30 8463 N 814.433 1.57553 0.0384317 0
M  V30 8464 C 815.679 1.89121 0.732199 0
M  V30 8465 C 816.012 0.831404 1.75503 0
M  V30 8466 O 815.287 -0.154642 1.93884 0
M  V30 8467 C 815.57 3.31338 1.41021 0
M  V30 8468 C 815.423 4.48004 0.401532 0
M  V30 8469 C 816.742 3.72318 2.34665 0
M  V30 8470 H 813.861 0.687819 0.264715 0
M  V30 8471 H 816.503 1.89999 -0.00496279 0
M  V30 8472 H 814.653 3.3072 2.03854 0
M  V30 8473 H 816.325 4.60755 -0.224159 0
M  V30 8474 H 814.568 4.32895 -0.280092 0
M  V30 8475 H 815.239 5.44377 0.91423 0
M  V30 8476 H 817.715 3.74243 1.81883 0
M  V30 8477 H 816.591 4.72652 2.7909 0
M  V30 8478 H 816.852 3.04062 3.20934 0
M  V30 8479 N 815.911 -0.310526 1.54511 0
M  V30 8480 C 816.821 -1.4054 1.87844 0
M  V30 8481 C 817.837 -1.55954 0.771635 0
M  V30 8482 O 819.013 -1.70801 1.06719 0
M  V30 8483 C 816.078 -2.75063 2.11048 0
M  V30 8484 C 815.139 -2.68715 3.348 0
M  V30 8485 C 814.372 -3.96821 3.56887 0
M  V30 8486 O 814.595 -4.95721 2.82165 0
M  V30 8487 O 813.529 -3.99291 4.50389 0
M  V30 8488 H 817.355 -1.15275 2.80972 0
M  V30 8489 H 814.94 -0.505732 1.4058 0
M  V30 8490 H 816.822 -3.54671 2.27566 0
M  V30 8491 H 815.497 -3.00191 1.21108 0
M  V30 8492 H 814.404 -1.87611 3.23655 0
M  V30 8493 H 815.737 -2.4854 4.2484 0
M  V30 8494 N 817.389 -1.46805 -0.573248 0
M  V30 8495 C 818.352 -1.57655 -1.66366 0
M  V30 8496 C 819.352 -0.452905 -1.5429 0
M  V30 8497 O 820.542 -0.717502 -1.58737 0
M  V30 8498 C 817.674 -1.50584 -3.05839 0
M  V30 8499 H 818.867 -2.54842 -1.581 0
M  V30 8500 H 816.42 -1.34756 -0.791868 0
M  V30 8501 H 817.155 -0.547127 -3.19651 0
M  V30 8502 H 816.94 -2.32118 -3.16012 0
M  V30 8503 H 818.43 -1.61282 -3.85199 0
M  V30 8504 N 818.867 0.818669 -1.34668 0
M  V30 8505 C 820.114 1.57512 -1.27264 0
M  V30 8506 C 820.442 1.93871 0.156254 0
M  V30 8507 O 819.697 1.60582 1.11857 0
M  V30 8508 C 819.996 2.88245 -2.11304 0
M  V30 8509 C 819.662 2.71159 -3.60255 0
M  V30 8510 C 818.324 2.66207 -4.00858 0
M  V30 8511 C 820.676 2.54538 -4.54819 0
M  V30 8512 C 818.004 2.4256 -5.34211 0
M  V30 8513 C 820.356 2.32421 -5.88356 0
M  V30 8514 C 819.02 2.25884 -6.28118 0
M  V30 8515 H 818.29 0.576378 -0.465692 0
M  V30 8516 H 820.937 0.9469 -1.66451 0
M  V30 8517 H 819.242 3.55381 -1.64958 0
M  V30 8518 H 820.939 3.45869 -2.02919 0
M  V30 8519 H 817.529 2.75856 -3.28027 0
M  V30 8520 H 821.713 2.57384 -4.24343 0
M  V30 8521 H 816.969 2.35959 -5.64033 0
M  V30 8522 H 821.143 2.18548 -6.61218 0
M  V30 8523 H 818.77 2.07322 -7.31383 0
M  V30 8524 N 820.346 1.18468 1.03938 0
M  V30 8525 C 821.574 1.00576 1.80809 0
M  V30 8526 C 821.989 -0.445786 1.83462 0
M  V30 8527 O 821.346 -1.30964 1.27101 0
M  V30 8528 C 821.397 1.55491 3.26351 0
M  V30 8529 O 821.118 2.94963 3.23926 0
M  V30 8530 C 822.619 1.42236 4.19862 0
M  V30 8531 H 819.839 0.35508 0.56935 0
M  V30 8532 H 822.383 1.57046 1.30984 0
M  V30 8533 H 820.538 1.03195 3.73403 0
M  V30 8534 H 820.952 3.20598 4.15111 0
M  V30 8535 H 822.426 1.85455 5.19914 0
M  V30 8536 H 822.903 0.371267 4.37628 0
M  V30 8537 H 823.509 1.9361 3.78675 0
M  V30 8538 N 821.824 -1.22873 0.986916 0
M  V30 8539 C 822.734 -2.28277 0.540978 0
M  V30 8540 C 823.75 -1.69164 -0.407363 0
M  V30 8541 O 824.926 -1.99504 -0.275674 0
M  V30 8542 C 821.991 -3.46404 -0.143181 0
M  V30 8543 C 821.052 -4.20854 0.847375 0
M  V30 8544 C 820.285 -5.33341 0.19577 0
M  V30 8545 O 820.508 -5.61356 -1.0117 0
M  V30 8546 O 819.442 -5.95169 0.897623 0
M  V30 8547 H 823.268 -2.68578 1.41773 0
M  V30 8548 H 820.853 -1.28927 0.754867 0
M  V30 8549 H 822.735 -4.18096 -0.526676 0
M  V30 8550 H 821.41 -3.08041 -0.994593 0
M  V30 8551 H 820.317 -3.51459 1.28169 0
M  V30 8552 H 821.65 -4.63082 1.6678 0
M  V30 8553 N 823.302 -0.75937 -1.38099 0
M  V30 8554 C 824.265 -0.14372 -2.28749 0
M  V30 8555 C 825.265 0.641338 -1.47457 0
M  V30 8556 O 826.455 0.466751 -1.67831 0
M  V30 8557 C 823.587 0.804545 -3.3127 0
M  V30 8558 H 824.78 -0.942663 -2.847 0
M  V30 8559 H 822.333 -0.526757 -1.47156 0
M  V30 8560 H 823.068 1.62895 -2.80421 0
M  V30 8561 H 822.853 0.243939 -3.9134 0
M  V30 8562 H 824.343 1.23111 -3.99041 0
M  V30 8563 N 824.78 1.49157 -0.508906 0
M  V30 8564 C 825.743 2.27784 0.25434 0
M  V30 8565 C 826.743 1.34132 0.88686 0
M  V30 8566 O 827.933 1.5722 0.750168 0
M  V30 8567 C 825.065 3.12347 1.36573 0
M  V30 8568 H 826.258 2.96718 -0.435714 0
M  V30 8569 H 823.811 1.54052 -0.264128 0
M  V30 8570 H 824.546 2.47997 2.08969 0
M  V30 8571 H 824.331 3.81213 0.917543 0
M  V30 8572 H 825.821 3.71712 1.90315 0
M  V30 8573 N 826.258 0.243083 1.55714 0
M  V30 8574 C 827.488 -0.38641 2.02954 0
M  V30 8575 C 827.896 -1.52358 1.12177 0
M  V30 8576 O 827.239 -1.83255 0.127853 0
M  V30 8577 C 827.301 -0.959388 3.46462 0
M  V30 8578 C 826.965 0.0450546 4.56978 0
M  V30 8579 C 827.962 0.853224 5.12851 0
M  V30 8580 C 825.647 0.170041 5.02012 0
M  V30 8581 C 827.641 1.77288 6.12248 0
M  V30 8582 C 825.328 1.0932 6.01242 0
M  V30 8583 C 826.326 1.89315 6.56238 0
M  V30 8584 O 826.014 2.80075 7.53534 0
M  V30 8585 H 825.746 -0.0964333 0.669086 0
M  V30 8586 H 828.3 0.363399 2.0216 0
M  V30 8587 H 826.53 -1.75869 3.44394 0
M  V30 8588 H 828.219 -1.49856 3.77224 0
M  V30 8589 H 828.985 0.767229 4.78893 0
M  V30 8590 H 824.864 -0.442528 4.58871 0
M  V30 8591 H 828.408 2.39768 6.55101 0
M  V30 8592 H 824.305 1.18013 6.3462 0
M  V30 8593 H 825.073 2.74393 7.71136 0
M  V30 8594 N 827.736 -1.57571 -0.0300757 0
M  V30 8595 C 828.668 -2.0329 -1.05857 0
M  V30 8596 C 829.681 -0.945543 -1.32527 0
M  V30 8597 O 830.87 -1.22287 -1.30032 0
M  V30 8598 C 827.97 -2.39234 -2.40042 0
M  V30 8599 C 827.143 -3.70337 -2.32743 0
M  V30 8600 C 826.202 -3.93482 -3.49369 0
M  V30 8601 O 825.228 -4.64551 -3.28909 0
M  V30 8602 N 826.43 -3.39042 -4.71201 0
M  V30 8603 H 829.195 -2.9214 -0.668897 0
M  V30 8604 H 826.756 -1.60425 -0.218038 0
M  V30 8605 H 828.748 -2.51856 -3.16782 0
M  V30 8606 H 827.318 -1.5606 -2.70858 0
M  V30 8607 H 826.538 -3.68079 -1.41109 0
M  V30 8608 H 827.826 -4.56343 -2.25007 0
M  V30 8609 H 827.224 -2.81434 -4.90725 0
M  V30 8610 H 825.781 -3.57045 -5.45309 0
M  V30 8611 N 829.214 0.302327 -1.54673 0
M  V30 8612 C 830.162 1.39286 -1.86285 0
M  V30 8613 C 831.156 1.52553 -0.736478 0
M  V30 8614 O 832.362 1.54686 -0.92045 0
M  V30 8615 H 828.737 0.465228 -0.590819 0
M  V30 8616 H 830.708 1.09859 -2.77441 0
M  V30 8617 C 829.457 2.75155 -2.12567 0
M  V30 8618 H 828.78 2.65728 -2.98712 0
M  V30 8619 H 830.22 3.50476 -2.38627 0
M  V30 8620 C 828.679 3.23987 -0.923813 0
M  V30 8621 O 829.209 4.01443 -0.143649 0
M  V30 8622 N 827.415 2.81293 -0.72956 0
M  V30 8623 H 826.962 2.18421 -1.36565 0
M  V30 8624 H 826.92 3.14315 0.0730351 0
M  V30 8625 N 830.692 1.47107 0.565454 0
M  V30 8626 C 832.103 1.47266 1.1476 0
M  V30 8627 C 832.454 0.222841 1.9493 0
M  V30 8628 O 831.579 -0.672862 2.05673 0
M  V30 8629 C 832.174 2.66822 2.08785 0
M  V30 8630 C 830.733 2.69967 2.62288 0
M  V30 8631 C 829.88 2.40236 1.38499 0
M  V30 8632 H 832.831 1.54736 0.352479 0
M  V30 8633 H 832.852 2.43323 2.92531 0
M  V30 8634 H 832.364 3.5777 1.50408 0
M  V30 8635 H 830.465 1.83137 3.24487 0
M  V30 8636 H 830.578 3.70426 3.03845 0
M  V30 8637 H 828.942 1.90648 1.68895 0
M  V30 8638 H 829.725 3.33381 0.819274 0
M  V30 8639 N 832.17 -0.811516 1.35101 0
M  V30 8640 C 833.08 -1.95475 1.29718 0
M  V30 8641 C 834.096 -1.72813 0.202909 0
M  V30 8642 O 835.272 -1.96725 0.431414 0
M  V30 8643 C 832.337 -3.29975 1.06385 0
M  V30 8644 C 831.398 -3.65566 2.25077 0
M  V30 8645 C 830.631 -4.93648 2.02848 0
M  V30 8646 O 830.854 -5.617 0.992442 0
M  V30 8647 O 829.788 -5.27384 2.90087 0
M  V30 8648 H 833.614 -2.02961 2.25921 0
M  V30 8649 H 831.199 -0.948583 1.15422 0
M  V30 8650 H 833.081 -4.10506 0.951999 0
M  V30 8651 H 831.756 -3.2343 0.132294 0
M  V30 8652 H 830.663 -2.85432 2.41825 0
M  V30 8653 H 831.996 -3.7681 3.16662 0
M  V30 8654 N 833.648 -1.19017 -1.03309 0
M  V30 8655 C 834.873 -1.01598 -1.80811 0
M  V30 8656 C 835.298 0.430773 -1.83101 0
M  V30 8657 O 834.656 1.30946 -1.25391 0
M  V30 8658 C 834.704 -1.5845 -3.23923 0
M  V30 8659 O 833.808 -0.810972 -4.04348 0
M  V30 8660 H 833.149 -0.359398 -0.558327 0
M  V30 8661 H 835.679 -1.57945 -1.30055 0
M  V30 8662 H 835.689 -1.61486 -3.74682 0
M  V30 8663 H 834.364 -2.63752 -3.21571 0
M  V30 8664 H 832.941 -0.85353 -3.63 0
M  V30 8665 N 835.127 1.22348 -0.993418 0
M  V30 8666 C 836.376 1.90422 -0.665019 0
M  V30 8667 C 836.689 1.78199 0.806512 0
M  V30 8668 O 837.895 2.41193 1.24652 0
M  V30 8669 C 836.351 3.41403 -1.13893 0
M  V30 8670 C 835.959 3.62262 -2.63572 0
M  V30 8671 C 837.703 4.15175 -0.884884 0
M  V30 8672 C 835.61 5.06947 -3.04564 0
M  V30 8673 H 834.54 0.713073 -0.245037 0
M  V30 8674 H 837.191 1.3856 -1.20305 0
M  V30 8675 H 835.573 3.9245 -0.529027 0
M  V30 8676 H 836.747 3.21705 -3.29913 0
M  V30 8677 H 835.062 3.01824 -2.86865 0
M  V30 8678 H 837.659 5.21813 -1.16684 0
M  V30 8679 H 838.002 4.15915 0.178982 0
M  V30 8680 H 838.535 3.70157 -1.45701 0
M  V30 8681 H 835.274 5.11346 -4.10128 0
M  V30 8682 H 834.794 5.48404 -2.42927 0
M  V30 8683 H 836.473 5.75374 -2.95894 0
M  V30 8684 N 836.605 0.766683 1.37694 0
M  V30 8685 C 837.845 0.333815 2.01656 0
M  V30 8686 C 838.209 -1.06813 1.59546 0
M  V30 8687 O 839.41 -1.60084 2.15932 0
M  V30 8688 C 837.681 0.467032 3.54335 0
M  V30 8689 S 839.24 0.118679 4.38639 0
M  V30 8690 H 836.058 0.128723 0.699251 0
M  V30 8691 H 838.66 1.00018 1.67978 0
M  V30 8692 H 837.364 1.48808 3.82471 0
M  V30 8693 H 836.895 -0.216066 3.92806 0
M  V30 8694 H 838.91 -1.08746 4.84137 0
M  V30 8695 N 838.083 -1.48885 0.516809 0
M  V30 8696 C 839.494 -1.86557 0.0729921 0
M  V30 8697 C 839.845 -1.42767 -1.34581 0
M  V30 8698 O 838.97 -0.812514 -2.00567 0
M  V30 8699 C 839.565 -3.38567 0.125686 0
M  V30 8700 C 838.124 -3.75481 -0.262867 0
M  V30 8701 C 837.271 -2.72913 0.491281 0
M  V30 8702 H 840.222 -1.40978 0.728767 0
M  V30 8703 H 840.243 -3.74629 -0.665831 0
M  V30 8704 H 839.755 -3.70408 1.15842 0
M  V30 8705 H 837.856 -3.49251 -1.29824 0
M  V30 8706 H 837.969 -4.79052 0.067579 0
M  V30 8707 H 836.333 -2.54627 -0.0608525 0
M  V30 8708 H 837.116 -3.07599 1.5244 0
M  V30 8709 N 839.561 -0.251338 -1.55583 0
M  V30 8710 C 840.808 0.372169 -1.99051 0
M  V30 8711 C 841.136 1.57623 -1.13953 0
M  V30 8712 O 840.391 1.94762 -0.191398 0
M  V30 8713 C 840.69 0.821186 -3.47838 0
M  V30 8714 C 840.356 -0.275608 -4.50057 0
M  V30 8715 C 839.018 -0.57683 -4.7773 0
M  V30 8716 C 841.37 -1.01585 -5.11204 0
M  V30 8717 C 838.698 -1.62229 -5.63825 0
M  V30 8718 C 841.05 -2.05087 -5.98433 0
M  V30 8719 C 839.714 -2.35869 -6.24437 0
M  V30 8720 H 838.984 0.136186 -0.728378 0
M  V30 8721 H 841.631 -0.360089 -1.88084 0
M  V30 8722 H 839.936 1.63272 -3.56159 0
M  V30 8723 H 841.633 1.31396 -3.78861 0
M  V30 8724 H 838.223 -0.030697 -4.28589 0
M  V30 8725 H 842.407 -0.79639 -4.89869 0
M  V30 8726 H 837.663 -1.86607 -5.82226 0
M  V30 8727 H 841.837 -2.62934 -6.44855 0
M  V30 8728 H 839.464 -3.17017 -6.90944 0
M  V30 8729 N 841.039 1.57585 0.0217189 0
M  V30 8730 C 841.989 2.03506 1.02807 0
M  V30 8731 C 842.973 0.925716 1.31603 0
M  V30 8732 O 844.165 1.18958 1.31065 0
M  V30 8733 C 841.294 2.52407 2.32693 0
M  V30 8734 C 840.38 3.70176 2.06955 0
M  V30 8735 N 840.771 4.82641 1.513 0
M  V30 8736 C 839.069 3.77691 2.37204 0
M  V30 8737 C 839.77 5.64218 1.41536 0
M  V30 8738 N 838.746 5.09557 1.89348 0
M  V30 8739 H 842.548 2.87878 0.591899 0
M  V30 8740 H 840.062 1.60793 0.227875 0
M  V30 8741 H 842.059 2.83569 3.05605 0
M  V30 8742 H 840.719 1.69444 2.76982 0
M  V30 8743 H 841.73 5.03931 1.19472 0
M  V30 8744 H 838.407 3.05542 2.84517 0
M  V30 8745 H 839.797 6.64576 0.989333 0
M  V30 8746 N 842.517 -0.29412 1.54831 0
M  V30 8747 C 843.449 -1.38476 1.82639 0
M  V30 8748 C 844.462 -1.46517 0.709694 0
M  V30 8749 O 845.651 -1.48712 0.987269 0
M  V30 8750 C 842.751 -2.76791 1.95551 0
M  V30 8751 C 841.924 -2.91599 3.26019 0
M  V30 8752 C 840.983 -4.10456 3.29261 0
M  V30 8753 O 840.009 -4.02214 4.02756 0
M  V30 8754 N 841.211 -5.21422 2.55145 0
M  V30 8755 H 843.976 -1.14974 2.76769 0
M  V30 8756 H 841.537 -0.484206 1.5449 0
M  V30 8757 H 843.529 -3.5456 1.95113 0
M  V30 8758 H 842.099 -2.93209 1.08384 0
M  V30 8759 H 841.319 -2.00886 3.39173 0
M  V30 8760 H 842.607 -2.98409 4.12104 0
M  V30 8761 H 842.005 -5.31 1.95078 0
M  V30 8762 H 840.562 -5.97501 2.60454 0
M  V30 8763 N 843.995 -1.47404 -0.557645 0
M  V30 8764 C 844.928 -1.54399 -1.68036 0
M  V30 8765 C 845.906 -0.396175 -1.577 0
M  V30 8766 O 847.09 -0.603911 -1.78564 0
M  V30 8767 C 844.217 -1.44611 -3.06277 0
M  V30 8768 C 843.263 -2.63889 -3.35059 0
M  V30 8769 S 844.096 -4.26086 -3.24362 0
M  V30 8770 C 845.252 -4.1885 -4.65097 0
M  V30 8771 H 845.485 -2.49384 -1.61849 0
M  V30 8772 H 843.018 -1.35597 -0.738429 0
M  V30 8773 H 844.976 -1.39651 -3.86015 0
M  V30 8774 H 843.637 -0.510114 -3.0993 0
M  V30 8775 H 842.83 -2.53103 -4.35838 0
M  V30 8776 H 842.432 -2.65969 -2.62938 0
M  V30 8777 H 844.724 -3.87077 -5.56037 0
M  V30 8778 H 845.667 -5.19714 -4.8094 0
M  V30 8779 H 846.075 -3.49717 -4.43123 0
M  V30 8780 N 845.473 0.80434 -1.35529 0
M  V30 8781 C 846.722 1.55665 -1.28263 0
M  V30 8782 C 847.035 1.95096 0.140352 0
M  V30 8783 O 848.241 2.69422 0.335303 0
M  V30 8784 C 846.697 2.80935 -2.24952 0
M  V30 8785 C 846.305 2.48733 -3.72607 0
M  V30 8786 C 848.049 3.5894 -2.26632 0
M  V30 8787 C 845.956 3.70308 -4.61114 0
M  V30 8788 H 844.886 0.584301 -0.476559 0
M  V30 8789 H 847.537 0.88395 -1.60806 0
M  V30 8790 H 845.919 3.49927 -1.85383 0
M  V30 8791 H 847.093 1.87733 -4.20824 0
M  V30 8792 H 845.408 1.83969 -3.73557 0
M  V30 8793 H 848.005 4.49244 -2.89973 0
M  V30 8794 H 848.348 3.96433 -1.27069 0
M  V30 8795 H 848.881 2.96912 -2.64742 0
M  V30 8796 H 845.62 3.37922 -5.61684 0
M  V30 8797 H 845.14 4.30526 -4.17621 0
M  V30 8798 H 846.819 4.37511 -4.76648 0
M  V30 8799 N 846.951 1.19563 1.02676 0
M  V30 8800 C 847.881 0.959024 2.12897 0
M  V30 8801 C 848.862 -0.108382 1.69754 0
M  V30 8802 O 850.047 0.0470698 1.94143 0
M  V30 8803 C 847.177 0.499211 3.43693 0
M  V30 8804 C 846.131 1.5087 4.00528 0
M  V30 8805 C 845.457 0.905884 5.2697 0
M  V30 8806 C 846.757 2.88954 4.3509 0
M  V30 8807 H 848.451 1.88084 2.32948 0
M  V30 8808 H 845.997 0.905731 1.11949 0
M  V30 8809 H 847.95 0.320965 4.20176 0
M  V30 8810 H 846.674 -0.458205 3.2337 0
M  V30 8811 H 845.333 1.67413 3.26142 0
M  V30 8812 H 844.981 -0.0591506 5.02965 0
M  V30 8813 H 844.681 1.58 5.65959 0
M  V30 8814 H 846.205 0.73848 6.06118 0
M  V30 8815 H 847.619 2.75981 5.02501 0
M  V30 8816 H 846.016 3.53177 4.85166 0
M  V30 8817 H 847.086 3.41447 3.44299 0
M  V30 8818 N 848.429 -1.21819 0.999893 0
M  V30 8819 C 849.84 -1.72517 0.713775 0
M  V30 8820 C 850.191 -1.80505 -0.768922 0
M  V30 8821 O 849.316 -1.45611 -1.60083 0
M  V30 8822 C 849.911 -3.13321 1.28901 0
M  V30 8823 C 848.47 -3.61396 1.05212 0
M  V30 8824 C 847.617 -2.39074 1.40494 0
M  V30 8825 H 850.568 -1.07068 1.17141 0
M  V30 8826 H 850.589 -3.74535 0.671084 0
M  V30 8827 H 850.101 -3.07475 2.36814 0
M  V30 8828 H 848.202 -3.72599 -0.0100732 0
M  V30 8829 H 848.315 -4.47145 1.72042 0
M  V30 8830 H 846.679 -2.41015 0.823642 0
M  V30 8831 H 847.462 -2.35884 2.49427 0
M  V30 8832 N 849.908 -0.773975 -1.37286 0
M  V30 8833 C 851.324 -0.45386 -1.53011 0
M  V30 8834 C 851.524 1.03018 -1.73175 0
M  V30 8835 O 850.58 1.81597 -1.75438 0
M  V30 8836 C 851.893 -1.27087 -2.72524 0
M  V30 8837 C 853.441 -1.26299 -2.86387 0
M  V30 8838 C 853.916 -2.0634 -4.08886 0
M  V30 8839 N 855.407 -2.03706 -4.16003 0
M  V30 8840 C 856.142 -2.62418 -5.09828 0
M  V30 8841 N 855.638 -3.29926 -6.09197 0
M  V30 8842 N 857.431 -2.52236 -5.02328 0
M  V30 8843 H 849.582 -1.73551 -1.22449 0
M  V30 8844 H 851.845 -0.736874 -0.596423 0
M  V30 8845 H 851.551 -2.32263 -2.64096 0
M  V30 8846 H 851.425 -0.90157 -3.66267 0
M  V30 8847 H 853.812 -0.219213 -2.94285 0
M  V30 8848 H 853.893 -1.67195 -1.93596 0
M  V30 8849 H 853.537 -3.10741 -4.01749 0
M  V30 8850 H 853.467 -1.62825 -5.00795 0
M  V30 8851 H 855.958 -1.54559 -3.44848 0
M  V30 8852 H 856.271 -3.72095 -6.77322 0
M  V30 8853 H 854.616 -3.34026 -6.09469 0
M  V30 8854 H 857.807 -1.99108 -4.23643 0
M  V30 8855 H 857.98 -2.98286 -5.75265 0
M  V30 8856 N 851.386 1.48609 -0.524698 0
M  V30 8857 C 852.349 2.28041 0.230166 0
M  V30 8858 C 853.349 1.35065 0.872584 0
M  V30 8859 O 854.539 1.58007 0.73345 0
M  V30 8860 C 851.671 3.13778 1.33252 0
M  V30 8861 H 852.864 2.96239 -0.467161 0
M  V30 8862 H 850.417 1.53763 -0.280452 0
M  V30 8863 H 851.152 2.502 2.06327 0
M  V30 8864 H 850.937 3.82165 0.877058 0
M  V30 8865 H 852.427 3.7371 1.86362 0
M  V30 8866 N 852.864 0.259585 1.55447 0
M  V30 8867 C 854.113 -0.362163 1.98422 0
M  V30 8868 C 854.426 -1.58135 1.1512 0
M  V30 8869 O 855.632 -2.27506 1.48166 0
M  V30 8870 C 854.088 -0.695722 3.53111 0
M  V30 8871 C 853.696 0.502784 4.4517 0
M  V30 8872 C 855.44 -1.28096 4.04712 0
M  V30 8873 C 853.347 0.144674 5.91223 0
M  V30 8874 H 852.277 -0.139092 0.74106 0
M  V30 8875 H 854.928 0.361798 1.79898 0
M  V30 8876 H 853.31 -1.47816 3.67378 0
M  V30 8877 H 854.484 1.27994 4.42667 0
M  V30 8878 H 852.799 1.0038 4.0412 0
M  V30 8879 H 855.396 -1.56243 5.11363 0
M  V30 8880 H 855.739 -2.20969 3.52815 0
M  V30 8881 H 856.272 -0.561146 3.93822 0
M  V30 8882 H 853.011 1.04087 6.47183 0
M  V30 8883 H 852.531 -0.596023 5.96831 0
M  V30 8884 H 854.21 -0.268651 6.46442 0
M  V30 8885 N 854.342 -1.57594 -0.0133615 0
M  V30 8886 C 855.758 -1.5527 -0.369255 0
M  V30 8887 C 855.958 -0.987751 -1.7563 0
M  V30 8888 O 855.014 -0.615683 -2.44879 0
M  V30 8889 C 856.327 -2.99602 -0.25672 0
M  V30 8890 C 857.875 -3.11227 -0.332647 0
M  V30 8891 C 858.35 -4.57321 -0.249387 0
M  V30 8892 N 859.841 -4.62177 -0.3077 0
M  V30 8893 C 860.576 -5.72781 -0.26641 0
M  V30 8894 N 860.072 -6.92575 -0.176494 0
M  V30 8895 N 861.865 -5.61204 -0.317295 0
M  V30 8896 H 854.016 -1.92662 0.894154 0
M  V30 8897 H 856.279 -0.884352 0.341505 0
M  V30 8898 H 855.985 -3.44723 0.697072 0
M  V30 8899 H 855.859 -3.6246 -1.04415 0
M  V30 8900 H 858.246 -2.66045 -1.27688 0
M  V30 8901 H 858.327 -2.51171 0.484412 0
M  V30 8902 H 857.971 -5.03174 0.691242 0
M  V30 8903 H 857.901 -5.15306 -1.08476 0
M  V30 8904 H 860.392 -3.75994 -0.379069 0
M  V30 8905 H 860.705 -7.72653 -0.150518 0
M  V30 8906 H 859.05 -6.94854 -0.142314 0
M  V30 8907 H 862.241 -4.66509 -0.385643 0
M  V30 8908 H 862.414 -6.47388 -0.28165 0
M  V30 8909 N 855.82 0.285905 -1.54985 0
M  V30 8910 C 856.73 1.37534 -1.90057 0
M  V30 8911 C 857.746 1.54707 -0.796348 0
M  V30 8912 O 858.922 1.69082 -1.09423 0
M  V30 8913 C 855.987 2.7167 -2.15398 0
M  V30 8914 C 855.048 2.63354 -3.39033 0
M  V30 8915 C 854.281 3.91093 -3.63155 0
M  V30 8916 O 854.504 4.91169 -2.90015 0
M  V30 8917 O 853.438 3.92075 -4.56685 0
M  V30 8918 H 857.264 1.10791 -2.8277 0
M  V30 8919 H 854.849 0.483303 -1.41367 0
M  V30 8920 H 856.731 3.51006 -2.33179 0
M  V30 8921 H 855.406 2.98226 -1.25868 0
M  V30 8922 H 854.313 1.82438 -3.26599 0
M  V30 8923 H 855.646 2.41749 -4.2874 0
M  V30 8924 N 857.298 1.47698 0.54982 0
M  V30 8925 C 858.545 1.54702 1.30665 0
M  V30 8926 C 858.873 0.212418 1.93337 0
M  V30 8927 O 858.128 -0.79543 1.78805 0
M  V30 8928 C 858.427 2.61903 2.4319 0
M  V30 8929 C 858.093 4.04953 1.98302 0
M  V30 8930 C 856.755 4.43893 1.85776 0
M  V30 8931 C 859.107 4.94682 1.64133 0
M  V30 8932 C 856.435 5.70387 1.37388 0
M  V30 8933 C 858.787 6.21646 1.17214 0
M  V30 8934 C 857.451 6.5946 1.0329 0
M  V30 8935 H 856.721 0.566096 0.478139 0
M  V30 8936 H 859.368 1.8133 0.615767 0
M  V30 8937 H 857.673 2.2906 3.17866 0
M  V30 8938 H 859.37 2.64543 3.0136 0
M  V30 8939 H 855.96 3.74191 2.08995 0
M  V30 8940 H 860.144 4.65291 1.72679 0
M  V30 8941 H 855.4 5.98427 1.25278 0
M  V30 8942 H 859.574 6.90581 0.898391 0
M  V30 8943 H 857.201 7.57367 0.655735 0
M  V30 8944 N 858.776 -0.797141 1.35954 0
M  V30 8945 C 859.686 -1.94088 1.31784 0
M  V30 8946 C 860.702 -1.72588 0.221227 0
M  V30 8947 O 861.878 -1.96256 0.452255 0
M  V30 8948 C 858.943 -3.28828 1.09878 0
M  V30 8949 C 858.004 -3.63158 2.28942 0
M  V30 8950 C 857.237 -4.91469 2.08072 0
M  V30 8951 O 857.46 -5.60616 1.05196 0
M  V30 8952 O 856.394 -5.24277 2.95664 0
M  V30 8953 H 860.22 -2.00554 2.28061 0
M  V30 8954 H 857.805 -0.936288 1.16422 0
M  V30 8955 H 859.687 -4.09473 0.995485 0
M  V30 8956 H 858.362 -3.23271 0.16659 0
M  V30 8957 H 857.269 -2.82851 2.44839 0
M  V30 8958 H 858.602 -3.7343 3.20641 0
M  V30 8959 N 860.254 -1.20106 -1.0204 0
M  V30 8960 C 861.482 -1.0344 -1.79186 0
M  V30 8961 C 861.897 0.416542 -1.84148 0
M  V30 8962 O 861.254 1.28925 -1.29168 0
M  V30 8963 C 861.305 -1.60663 -3.23836 0
M  V30 8964 O 861.026 -3.00079 -3.19193 0
M  V30 8965 C 862.527 -1.48897 -4.17546 0
M  V30 8966 H 859.747 -0.364093 -0.563629 0
M  V30 8967 H 862.291 -1.5911 -1.28469 0
M  V30 8968 H 860.446 -1.09122 -3.71714 0
M  V30 8969 H 860.86 -3.27162 -4.09958 0
M  V30 8970 H 862.334 -1.93703 -5.16898 0
M  V30 8971 H 862.811 -0.440843 -4.36982 0
M  V30 8972 H 863.417 -1.9961 -3.75547 0
M  V30 8973 N 861.732 1.21287 -1.00634 0
M  V30 8974 C 862.979 1.90389 -0.6898 0
M  V30 8975 C 863.307 1.78193 0.779574 0
M  V30 8976 O 862.562 1.15358 1.58085 0
M  V30 8977 C 862.861 3.41374 -1.05824 0
M  V30 8978 C 862.527 3.73766 -2.5221 0
M  V30 8979 C 861.189 3.82317 -2.92211 0
M  V30 8980 C 863.541 3.88871 -3.47028 0
M  V30 8981 C 860.869 4.03423 -4.2599 0
M  V30 8982 C 863.221 4.11484 -4.80483 0
M  V30 8983 C 861.885 4.18263 -5.20204 0
M  V30 8984 H 861.155 0.696683 -0.252416 0
M  V30 8985 H 863.802 1.43769 -1.26502 0
M  V30 8986 H 862.107 3.8974 -0.401281 0
M  V30 8987 H 863.804 3.93118 -0.79116 0
M  V30 8988 H 860.394 3.67702 -2.20212 0
M  V30 8989 H 864.578 3.8163 -3.17289 0
M  V30 8990 H 859.834 4.06902 -4.56334 0
M  V30 8991 H 864.008 4.22115 -5.53888 0
M  V30 8992 H 861.635 4.34369 -6.23881 0
M  V30 8993 N 863.21 0.781244 1.36873 0
M  V30 8994 C 864.456 0.350407 1.9975 0
M  V30 8995 C 864.789 -1.07293 1.6187 0
M  V30 8996 O 864.064 -1.73983 0.869491 0
M  V30 8997 C 864.347 0.504834 3.56544 0
M  V30 8998 C 864.2 1.97127 4.04303 0
M  V30 8999 C 865.519 -0.0851272 4.40018 0
M  V30 9000 H 862.638 0.128794 0.725659 0
M  V30 9001 H 865.28 0.98606 1.6241 0
M  V30 9002 H 863.43 -0.0363006 3.88483 0
M  V30 9003 H 865.102 2.57284 3.82887 0
M  V30 9004 H 863.345 2.47676 3.56145 0
M  V30 9005 H 864.016 2.03033 5.13305 0
M  V30 9006 H 866.492 0.376704 4.14391 0
M  V30 9007 H 865.368 0.0530015 5.48874 0
M  V30 9008 H 865.629 -1.17642 4.2616 0
M  V30 9009 N 864.689 -1.48329 0.532571 0
M  V30 9010 C 865.636 -2.29663 -0.228779 0
M  V30 9011 C 866.606 -1.37529 -0.931401 0
M  V30 9012 O 867.791 -1.66493 -0.931921 0
M  V30 9013 C 864.931 -3.20955 -1.26814 0
M  V30 9014 C 864.044 -4.28168 -0.574099 0
M  V30 9015 C 863.179 -5.06638 -1.59661 0
M  V30 9016 C 862.218 -6.05651 -0.88618 0
M  V30 9017 N 861.355 -6.77169 -1.85436 0
M  V30 9018 H 866.195 -2.94255 0.47098 0
M  V30 9019 H 863.732 -1.45061 0.2441 0
M  V30 9020 H 865.69 -3.72285 -1.88307 0
M  V30 9021 H 864.32 -2.58281 -1.93625 0
M  V30 9022 H 863.372 -3.80085 0.154827 0
M  V30 9023 H 864.684 -4.98797 -0.0163984 0
M  V30 9024 H 863.838 -5.61995 -2.28576 0
M  V30 9025 H 862.577 -4.35854 -2.18821 0
M  V30 9026 H 861.582 -5.49495 -0.182981 0
M  V30 9027 H 862.807 -6.78434 -0.300659 0
M  V30 9028 H 860.753 -6.09134 -2.43499 0
M  V30 9029 H 860.67 -7.43882 -1.34816 0
M  V30 9030 H 861.938 -7.37114 -2.53541 0
M  V30 9031 N 866.167 -0.267825 -1.55308 0
M  V30 9032 C 867.114 0.6228 -2.22238 0
M  V30 9033 C 868.084 1.15536 -1.19334 0
M  V30 9034 O 869.269 1.206 -1.47852 0
M  V30 9035 C 866.409 1.80447 -2.94164 0
M  V30 9036 C 865.522 1.30646 -4.11771 0
M  V30 9037 C 864.657 2.44935 -4.7136 0
M  V30 9038 C 863.696 1.92099 -5.81175 0
M  V30 9039 N 862.833 2.99834 -6.34857 0
M  V30 9040 H 867.673 0.0453874 -2.97965 0
M  V30 9041 H 865.21 0.0106371 -1.47096 0
M  V30 9042 H 867.168 2.49896 -3.34078 0
M  V30 9043 H 865.798 2.35403 -2.20874 0
M  V30 9044 H 864.85 0.505314 -3.77029 0
M  V30 9045 H 866.162 0.879409 -4.90987 0
M  V30 9046 H 865.316 3.2239 -5.13955 0
M  V30 9047 H 864.055 2.90951 -3.91406 0
M  V30 9048 H 863.06 1.13122 -5.38037 0
M  V30 9049 H 864.285 1.47027 -6.62993 0
M  V30 9050 H 862.231 3.45246 -5.578 0
M  V30 9051 H 862.148 2.61524 -7.09324 0
M  V30 9052 H 863.416 3.77286 -6.82111 0
M  V30 9053 O 867.684 1.6095 -0.133191 0
M  V30 9054 H 868.375 1.88082 0.463129 0
M  V30 END ATOM
M  V30 BEGIN BOND
M  V30 END BOND
M  V30 END CTAB
M  END
$$$$
