drugbank_target|Q6N063 2-oxoglutarate and iron-dependent oxygenase domain-containing protein 2 (DB00126)
 OpenBabel12092120073D

  0  0  0     0  0            999 V3000
M  V30 BEGIN CTAB
M  V30 COUNTS 5425 5486 0 0 0
M  V30 BEGIN ATOM
M  V30 1 H -0.908 1.98254 -0.117106 0
M  V30 2 N 0 1.576 0 0
M  V30 3 C 0.933 2.03868 1.02534 0
M  V30 4 C 1.911 0.928543 1.3348 0
M  V30 5 O 3.095 1.19667 1.45644 0
M  V30 6 C 0.222 2.43627 2.35294 0
M  V30 7 C -0.732 3.65373 2.2001 0
M  V30 8 S 0.101 5.13292 1.52614 0
M  V30 9 C 1.257 5.56322 2.86805 0
M  V30 10 H 1.49 2.90518 0.631377 0
M  V30 11 H -0.977 1.52953 0.210867 0
M  V30 12 H 0.981 2.67203 3.11629 0
M  V30 13 H -0.358 1.57376 2.7183 0
M  V30 14 H -1.165 3.90944 3.18086 0
M  V30 15 H -1.563 3.418 1.51819 0
M  V30 16 H 0.729 5.58782 3.83104 0
M  V30 17 H 1.672 6.56266 2.65933 0
M  V30 18 H 2.08 4.83886 2.90714 0
M  V30 19 N 1.4781 -0.272755 1.55222 0
M  V30 20 C 2.4411 -1.32041 1.87344 0
M  V30 21 C 3.4411 -1.42342 0.74803 0
M  V30 22 O 4.6311 -1.41488 1.0162 0
M  V30 23 C 1.7631 -2.70173 2.07893 0
M  V30 24 H 2.9561 -1.04789 2.80997 0
M  V30 25 H 0.5091 -0.51083 1.47717 0
M  V30 26 H 1.2441 -3.02605 1.16622 0
M  V30 27 H 1.0291 -2.64082 2.89833 0
M  V30 28 H 2.5191 -3.45869 2.34017 0
M  V30 29 N 2.9562 -1.48159 -0.537278 0
M  V30 30 C 4.1842 -1.59454 -1.31841 0
M  V30 31 C 4.5992 -0.252065 -1.8711 0
M  V30 32 O 3.9562 0.757621 -1.66031 0
M  V30 33 C 4.0072 -2.63546 -2.47439 0
M  V30 34 O 3.7282 -3.92583 -1.94449 0
M  V30 35 C 5.2292 -2.85212 -3.39366 0
M  V30 36 H 2.4492 -0.53785 -0.401196 0
M  V30 37 H 4.9932 -1.93932 -0.648891 0
M  V30 38 H 3.1482 -2.31946 -3.1029 0
M  V30 39 H 3.5622 -4.49629 -2.70063 0
M  V30 40 H 5.0362 -3.61863 -4.16844 0
M  V30 41 H 5.5132 -1.93765 -3.94147 0
M  V30 42 H 6.1192 -3.18086 -2.82314 0
M  V30 43 N 4.4343 0.785586 -1.36625 0
M  V30 44 C 5.6803 1.54591 -1.31261 0
M  V30 45 C 6.0133 1.93906 0.106823 0
M  V30 46 O 5.2883 1.63007 1.06108 0
M  V30 47 C 5.5713 2.82038 -2.23889 0
M  V30 48 C 5.4243 2.49066 -3.74548 0
M  V30 49 C 6.7433 3.83887 -2.15217 0
M  V30 50 H 3.8623 0.560846 -0.478143 0
M  V30 51 H 6.5043 0.902278 -1.67209 0
M  V30 52 H 4.6543 3.36961 -1.93363 0
M  V30 53 H 6.3263 2.00164 -4.15611 0
M  V30 54 H 4.5693 1.81954 -3.93796 0
M  V30 55 H 5.2403 3.40109 -4.34776 0
M  V30 56 H 7.7163 3.38421 -2.42096 0
M  V30 57 H 6.5923 4.70806 -2.82193 0
M  V30 58 H 6.8533 4.27131 -1.14068 0
M  V30 59 N 5.9124 1.20967 1.01018 0
M  V30 60 C 7.1604 1.02172 1.74371 0
M  V30 61 C 7.4814 -0.446414 1.89821 0
M  V30 62 O 6.7514 -1.32234 1.44537 0
M  V30 63 H 5.3314 0.375066 0.646014 0
M  V30 64 H 7.9934 1.52187 1.21758 0
M  V30 65 H 7.0894 1.48538 2.74487 0
M  V30 66 N 7.3905 -1.2043 1.01659 0
M  V30 67 C 8.3535 -2.21433 0.591616 0
M  V30 68 C 9.3535 -1.57203 -0.338226 0
M  V30 69 O 10.5435 -1.73737 -0.126918 0
M  V30 70 C 7.6755 -3.40628 -0.136058 0
M  V30 71 H 8.8685 -2.60545 1.48514 0
M  V30 72 H 6.4215 -1.33893 0.806379 0
M  V30 73 H 7.1565 -3.07019 -1.04449 0
M  V30 74 H 6.9415 -3.88475 0.531917 0
M  V30 75 H 8.4315 -4.15475 -0.420735 0
M  V30 76 N 8.8686 -0.792821 -1.36206 0
M  V30 77 C 10.2796 -0.429513 -1.81692 0
M  V30 78 C 10.6306 1.04695 -1.65932 0
M  V30 79 O 9.7556 1.81256 -1.18218 0
M  V30 80 C 10.3506 -0.772831 -3.29868 0
M  V30 81 C 8.9096 -0.462307 -3.7355 0
M  V30 82 C 8.0566 -1.00569 -2.5842 0
M  V30 83 H 11.0076 -0.985672 -1.24379 0
M  V30 84 H 11.0286 -0.0651928 -3.80444 0
M  V30 85 H 10.5406 -1.84747 -3.41307 0
M  V30 86 H 8.6416 0.604158 -3.67669 0
M  V30 87 H 8.7546 -0.985299 -4.68859 0
M  V30 88 H 7.1186 -0.428734 -2.51066 0
M  V30 89 H 7.9016 -2.08616 -2.72643 0
M  V30 90 N 10.3467 1.47872 -0.545128 0
M  V30 91 C 11.7627 1.5829 -0.204032 0
M  V30 92 C 11.9627 1.54529 1.29317 0
M  V30 93 O 11.0187 1.44232 2.07252 0
M  V30 94 C 12.3317 2.89304 -0.819987 0
M  V30 95 C 13.8797 3.02864 -0.790105 0
M  V30 96 C 14.3547 4.3656 -1.38491 0
M  V30 97 N 15.8457 4.43165 -1.34755 0
M  V30 98 C 16.5807 5.45153 -1.77753 0
M  V30 99 N 16.0767 6.54016 -2.2855 0
M  V30 100 N 17.8697 5.36125 -1.68897 0
M  V30 101 H 10.0207 1.4856 -1.51802 0
M  V30 102 H 12.2837 0.706305 -0.632327 0
M  V30 103 H 11.9897 2.97757 -1.87173 0
M  V30 104 H 11.8637 3.75957 -0.305915 0
M  V30 105 H 14.2507 2.94014 0.252913 0
M  V30 106 H 14.3317 2.17782 -1.34181 0
M  V30 107 H 13.9757 4.46164 -2.42693 0
M  V30 108 H 13.9057 5.20353 -0.808754 0
M  V30 109 H 16.3967 3.65083 -0.975855 0
M  V30 110 H 16.7097 7.27994 -2.59314 0
M  V30 111 H 15.0547 6.54938 -2.32553 0
M  V30 112 H 18.2457 4.49975 -1.28998 0
M  V30 113 H 18.4187 6.15472 -2.02726 0
M  V30 114 N 11.8248 0.280983 1.55075 0
M  V30 115 C 12.7748 -0.618585 2.19448 0
M  V30 116 C 13.7588 -1.11401 1.16098 0
M  V30 117 O 14.9508 -1.0581 1.41891 0
M  V30 118 C 12.0798 -1.79951 2.92357 0
M  V30 119 C 11.1658 -1.321 4.03002 0
M  V30 120 N 11.5568 -0.559044 5.02701 0
M  V30 121 C 9.8548 -1.60346 4.16179 0
M  V30 122 C 10.5558 -0.306722 5.80891 0
M  V30 123 N 9.5318 -0.880825 5.36416 0
M  V30 124 H 13.3338 -0.0286638 2.93886 0
M  V30 125 H 10.8478 0.0848104 1.62178 0
M  V30 126 H 12.8448 -2.45531 3.36927 0
M  V30 127 H 11.5048 -2.39333 2.19431 0
M  V30 128 H 12.5158 -0.205827 5.17491 0
M  V30 129 H 9.1928 -2.20621 3.54447 0
M  V30 130 H 10.5828 0.30391 6.71212 0
M  V30 131 N 13.3029 -1.57598 0.00835791 0
M  V30 132 C 14.5499 -1.90928 -0.674732 0
M  V30 133 C 14.8779 -0.88277 -1.73313 0
M  V30 134 O 14.1329 0.111294 -1.95383 0
M  V30 135 C 14.4319 -3.3101 -1.34787 0
M  V30 136 C 14.0979 -4.48922 -0.421861 0
M  V30 137 C 12.7599 -4.8091 -0.166927 0
M  V30 138 C 15.1119 -5.20755 0.215211 0
M  V30 139 C 12.4399 -5.821 0.733232 0
M  V30 140 C 14.7919 -6.22905 1.1033 0
M  V30 141 C 13.4559 -6.53346 1.36733 0
M  V30 142 H 12.7259 -0.698656 -0.246902 0
M  V30 143 H 15.3729 -1.91387 0.0656779 0
M  V30 144 H 13.6779 -3.26714 -2.16253 0
M  V30 145 H 15.3749 -3.54061 -1.8826 0
M  V30 146 H 11.9649 -4.23934 -0.630729 0
M  V30 147 H 16.1489 -4.9629 0.0312829 0
M  V30 148 H 11.4049 -6.04042 0.945712 0
M  V30 149 H 15.5789 -6.77694 1.60325 0
M  V30 150 H 13.2059 -7.31573 2.06652 0
M  V30 151 N 14.781 0.264519 -1.55364 0
M  V30 152 C 16.021 1.00254 -1.78125 0
M  V30 153 C 16.385 1.83187 -0.575017 0
M  V30 154 O 17.586 2.60029 -0.681042 0
M  V30 155 C 15.857 1.85478 -3.05504 0
M  V30 156 S 17.416 2.6543 -3.49417 0
M  V30 157 H 14.234 0.337522 -0.625779 0
M  V30 158 H 16.836 0.272111 -1.93597 0
M  V30 159 H 15.54 1.23491 -3.9138 0
M  V30 160 H 15.071 2.62827 -2.92721 0
M  V30 161 H 17.086 3.87958 -3.09359 0
M  V30 162 N 16.2591 1.48442 0.529413 0
M  V30 163 C 17.6751 1.34575 0.858004 0
M  V30 164 C 17.8751 0.3572 1.98309 0
M  V30 165 O 16.9311 -0.221379 2.51528 0
M  V30 166 C 18.2441 2.74617 1.22499 0
M  V30 167 C 19.7921 2.83109 1.33484 0
M  V30 168 C 20.2671 4.23854 1.73526 0
M  V30 169 N 21.7581 4.2653 1.80628 0
M  V30 170 C 22.4931 5.32372 2.12997 0
M  V30 171 N 21.9891 6.48491 2.43786 0
M  V30 172 N 23.7821 5.19766 2.14008 0
M  V30 173 H 15.9331 2.1133 -0.212925 0
M  V30 174 H 18.1961 0.947439 -0.0326199 0
M  V30 175 H 17.9021 3.4852 0.471905 0
M  V30 176 H 17.7761 3.08177 2.17501 0
M  V30 177 H 20.1631 2.09462 2.0787 0
M  V30 178 H 20.2441 2.53168 0.366027 0
M  V30 179 H 19.8881 4.98018 0.997013 0
M  V30 180 H 19.8181 4.5124 2.71459 0
M  V30 181 H 22.3091 3.42772 1.59108 0
M  V30 182 H 22.6221 7.24993 2.67592 0
M  V30 183 H 20.9671 6.51765 2.41304 0
M  V30 184 H 24.1581 4.28066 1.89412 0
M  V30 185 H 24.3311 6.02354 2.38902 0
M  V30 186 N 17.7372 -0.778329 1.37039 0
M  V30 187 C 18.9772 -1.54973 1.33276 0
M  V30 188 C 19.3412 -1.91816 -0.0839376 0
M  V30 189 O 20.5422 -2.6767 -0.246228 0
M  V30 190 C 18.8132 -2.78517 2.23971 0
M  V30 191 S 20.3722 -3.6865 2.37997 0
M  V30 192 H 17.1902 -0.530639 0.473226 0
M  V30 193 H 19.7922 -0.915806 1.72723 0
M  V30 194 H 18.4962 -2.4952 3.25835 0
M  V30 195 H 18.0272 -3.46875 1.85584 0
M  V30 196 H 20.0422 -4.70182 1.58567 0
M  V30 197 N 19.2153 -1.21501 -1.00376 0
M  V30 198 C 20.1783 -0.976927 -2.07337 0
M  V30 199 C 21.1783 0.0525322 -1.60714 0
M  V30 200 O 22.3683 -0.184869 -1.73216 0
M  V30 201 C 19.5003 -0.473423 -3.37597 0
M  V30 202 H 20.6933 -1.92587 -2.29892 0
M  V30 203 H 18.2463 -1.03217 -1.17371 0
M  V30 204 H 18.9813 0.480379 -3.20722 0
M  V30 205 H 18.7663 -1.216 -3.72768 0
M  V30 206 H 20.2563 -0.32675 -4.1632 0
M  V30 207 N 20.6934 1.19889 -1.02296 0
M  V30 208 C 21.9334 1.91125 -0.724602 0
M  V30 209 C 22.2974 1.77464 0.732835 0
M  V30 210 O 23.4984 2.43241 1.144 0
M  V30 211 C 21.7694 3.38187 -1.15604 0
M  V30 212 S 23.3284 4.27702 -0.980621 0
M  V30 213 H 20.1464 0.66018 -0.263976 0
M  V30 214 H 22.7484 1.44978 -1.31155 0
M  V30 215 H 21.4524 3.45653 -2.21251 0
M  V30 216 H 20.9834 3.89363 -0.562131 0
M  V30 217 H 22.9984 4.96073 0.112225 0
M  V30 218 N 22.1715 0.800033 1.35784 0
M  V30 219 C 23.4185 0.377342 1.98953 0
M  V30 220 C 23.7465 -1.05378 1.6348 0
M  V30 221 O 23.0015 -1.74459 0.886707 0
M  V30 222 C 23.3005 0.500276 3.53881 0
M  V30 223 C 22.9665 1.89375 4.09204 0
M  V30 224 C 21.6285 2.27499 4.24025 0
M  V30 225 C 23.9805 2.8057 4.39238 0
M  V30 226 C 21.3085 3.562 4.66195 0
M  V30 227 C 23.6605 4.0871 4.82844 0
M  V30 228 C 22.3245 4.46843 4.95871 0
M  V30 229 H 21.5945 0.138079 0.728021 0
M  V30 230 H 24.2415 1.01955 1.62103 0
M  V30 231 H 22.5465 -0.225405 3.91151 0
M  V30 232 H 24.2435 0.154097 4.00704 0
M  V30 233 H 20.8335 1.58753 3.98115 0
M  V30 234 H 25.0175 2.52367 4.27346 0
M  V30 235 H 20.2735 3.85602 4.74469 0
M  V30 236 H 24.4475 4.79481 5.05046 0
M  V30 237 H 22.0745 5.46623 5.28306 0
M  V30 238 N 23.6496 -1.47581 0.552962 0
M  V30 239 C 24.8896 -2.04379 0.0296245 0
M  V30 240 C 25.2536 -1.4185 -1.29393 0
M  V30 241 O 26.4546 -1.89669 -1.90471 0
M  V30 242 C 24.7256 -3.57339 -0.0661371 0
M  V30 243 S 26.2846 -4.35511 -0.536213 0
M  V30 244 H 23.1026 -0.710625 0.0230991 0
M  V30 245 H 25.7046 -1.81005 0.738734 0
M  V30 246 H 24.4086 -4.00374 0.901596 0
M  V30 247 H 23.9396 -3.85202 -0.798931 0
M  V30 248 H 25.9546 -4.6253 -1.79668 0
M  V30 249 N 25.1277 -0.289203 -1.54924 0
M  V30 250 C 26.3557 0.326463 -2.04308 0
M  V30 251 C 26.7707 1.48413 -1.16701 0
M  V30 252 O 26.1277 1.81507 -0.190087 0
M  V30 253 C 26.1787 0.794014 -3.52672 0
M  V30 254 O 25.8997 -0.317564 -4.36948 0
M  V30 255 C 27.4007 1.47605 -4.18004 0
M  V30 256 H 24.6207 0.0726272 -0.667058 0
M  V30 257 H 27.1647 -0.425401 -2.00026 0
M  V30 258 H 25.3197 1.49593 -3.57352 0
M  V30 259 H 25.7337 0.0443186 -5.24481 0
M  V30 260 H 27.2077 1.75447 -5.23376 0
M  V30 261 H 27.6847 2.41224 -3.67025 0
M  V30 262 H 28.2907 0.81762 -4.17367 0
M  V30 263 N 26.6058 1.57591 -0.0167156 0
M  V30 264 C 27.8828 1.82547 0.702564 0
M  V30 265 C 28.2628 0.898018 1.91047 0
M  V30 266 O 27.6108 -0.0493456 2.28447 0
M  V30 267 C 27.8208 3.31459 1.09251 0
M  V30 268 C 29.1688 3.97622 1.48937 0
M  V30 269 O 30.1928 3.35881 1.18584 0
M  V30 270 O 29.0518 5.06415 2.05442 0
M  V30 271 H 26.1458 0.752268 0.343544 0
M  V30 272 H 28.6918 1.69644 -0.0434495 0
M  V30 273 H 27.4638 3.9061 0.23227 0
M  V30 274 H 27.0868 3.49422 1.89709 0
M  V30 275 N 28.0839 -0.256276 1.55502 0
M  V30 276 C 29.0319 -1.33694 1.90338 0
M  V30 277 C 30.0259 -1.50299 0.781441 0
M  V30 278 O 31.2319 -1.51885 0.965966 0
M  V30 279 H 27.6069 -0.447483 0.60437 0
M  V30 280 H 29.5779 -1.01574 2.8058 0
M  V30 281 C 28.3269 -2.68724 2.20642 0
M  V30 282 H 27.6499 -2.56743 3.06469 0
M  V30 283 H 29.0899 -3.43237 2.48926 0
M  V30 284 C 27.5489 -3.21101 1.01959 0
M  V30 285 O 28.0789 -4.0084 0.262762 0
M  V30 286 N 26.2849 -2.79003 0.812746 0
M  V30 287 H 25.8319 -2.14271 1.42989 0
M  V30 288 H 25.7899 -3.14393 0.0203076 0
M  V30 289 N 29.562 -1.4872 -0.521534 0
M  V30 290 C 30.492 -1.66771 -1.63431 0
M  V30 291 C 31.473 -0.516499 -1.62069 0
M  V30 292 O 32.658 -0.750013 -1.79132 0
M  V30 293 C 29.788 -1.71515 -3.01993 0
M  V30 294 C 28.742 -2.86222 -3.18216 0
M  V30 295 C 28.068 -2.76061 -4.57924 0
M  V30 296 C 29.368 -4.27419 -3.00184 0
M  V30 297 H 31.062 -2.59932 -1.48579 0
M  V30 298 H 28.608 -1.25089 -0.713358 0
M  V30 299 H 30.561 -1.82731 -3.7972 0
M  V30 300 H 29.285 -0.749393 -3.17886 0
M  V30 301 H 27.944 -2.74575 -2.42908 0
M  V30 302 H 27.592 -1.77437 -4.70665 0
M  V30 303 H 27.292 -3.53037 -4.69722 0
M  V30 304 H 28.816 -2.89256 -5.37739 0
M  V30 305 H 30.23 -4.39855 -3.67697 0
M  V30 306 H 28.627 -5.05458 -3.2347 0
M  V30 307 H 29.697 -4.43293 -1.96518 0
M  V30 308 N 31.0401 0.771051 -1.3745 0
M  V30 309 C 32.2701 1.55789 -1.35696 0
M  V30 310 C 32.6781 1.89107 0.0594523 0
M  V30 311 O 32.0211 1.51984 1.03183 0
M  V30 312 C 32.0831 2.89515 -2.13123 0
M  V30 313 C 31.7471 2.78829 -3.62082 0
M  V30 314 C 32.7441 2.49812 -4.5595 0
M  V30 315 C 30.4291 2.9683 -4.05213 0
M  V30 316 C 32.4231 2.38923 -5.90927 0
M  V30 317 C 30.1101 2.85562 -5.40276 0
M  V30 318 C 31.1081 2.56649 -6.32946 0
M  V30 319 O 30.7961 2.45408 -7.65526 0
M  V30 320 H 30.5281 0.489257 -0.466481 0
M  V30 321 H 33.0821 0.963446 -1.81403 0
M  V30 322 H 31.3121 3.51081 -1.62107 0
M  V30 323 H 33.0011 3.50915 -2.03994 0
M  V30 324 H 33.7671 2.3559 -4.23937 0
M  V30 325 H 29.6461 3.18335 -3.33442 0
M  V30 326 H 33.1901 2.16277 -6.63227 0
M  V30 327 H 29.0871 2.99351 -5.71891 0
M  V30 328 H 29.8551 2.60753 -7.75855 0
M  V30 329 N 32.5182 1.22032 0.997298 0
M  V30 330 C 33.7642 1.04376 1.73878 0
M  V30 331 C 34.0972 -0.420716 1.89588 0
M  V30 332 O 33.3722 -1.31202 1.43583 0
M  V30 333 C 33.6552 1.75047 3.14691 0
M  V30 334 C 33.5082 3.29062 3.06656 0
M  V30 335 C 34.8272 1.49928 4.13775 0
M  V30 336 H 31.9462 0.380578 0.631133 0
M  V30 337 H 34.5882 1.50312 1.16217 0
M  V30 338 H 32.7382 1.35996 3.63919 0
M  V30 339 H 34.4102 3.7753 2.65083 0
M  V30 340 H 32.6532 3.58967 2.43568 0
M  V30 341 H 33.3242 3.73683 4.06282 0
M  V30 342 H 35.8002 1.83842 3.73285 0
M  V30 343 H 34.6762 2.01878 5.10428 0
M  V30 344 H 34.9372 0.430929 4.39995 0
M  V30 345 N 33.9963 -1.19345 1.0293 0
M  V30 346 C 34.9593 -2.20793 0.615069 0
M  V30 347 C 35.9593 -1.57553 -0.321533 0
M  V30 348 O 37.1493 -1.73862 -0.108483 0
M  V30 349 C 34.2813 -3.40754 -0.0999222 0
M  V30 350 H 35.4743 -2.58955 1.51269 0
M  V30 351 H 33.0273 -1.3303 0.820534 0
M  V30 352 H 33.7623 -3.0811 -1.01187 0
M  V30 353 H 33.5473 -3.87889 0.57309 0
M  V30 354 H 35.0373 -4.15898 -0.376645 0
M  V30 355 N 35.4744 -0.807222 -1.35358 0
M  V30 356 C 36.8904 -0.491038 -1.51858 0
M  V30 357 C 37.0904 0.987648 -1.75635 0
M  V30 358 O 36.1464 1.77265 -1.79815 0
M  V30 359 C 37.4594 -1.33695 -2.69344 0
M  V30 360 C 39.0074 -1.33246 -2.83222 0
M  V30 361 C 39.4824 -2.1625 -4.03733 0
M  V30 362 N 40.9734 -2.1379 -4.10911 0
M  V30 363 C 41.7084 -2.74772 -5.03277 0
M  V30 364 N 41.2044 -3.44684 -6.0097 0
M  V30 365 N 42.9974 -2.6441 -4.96028 0
M  V30 366 H 35.1484 -1.76485 -1.18181 0
M  V30 367 H 37.4114 -0.751199 -0.578276 0
M  V30 368 H 37.1174 -2.38634 -2.58354 0
M  V30 369 H 36.9914 -0.990618 -3.6396 0
M  V30 370 H 39.3784 -0.290911 -2.93663 0
M  V30 371 H 39.4594 -1.71866 -1.89461 0
M  V30 372 H 39.1034 -3.20445 -3.94052 0
M  V30 373 H 39.0334 -1.74989 -4.96675 0
M  V30 374 H 41.5244 -1.62923 -3.40976 0
M  V30 375 H 41.8374 -3.88501 -6.68047 0
M  V30 376 H 40.1824 -3.48788 -6.01142 0
M  V30 377 H 43.3734 -2.0938 -4.18662 0
M  V30 378 H 43.5464 -3.12225 -5.6782 0
M  V30 379 N 36.9525 1.47285 -0.560781 0
M  V30 380 C 38.1825 2.06555 -0.0429638 0
M  V30 381 C 38.5905 1.41339 1.25777 0
M  V30 382 O 37.9335 0.505182 1.76617 0
M  V30 383 C 37.9955 3.58827 0.219887 0
M  V30 384 C 37.6595 4.46105 -0.991944 0
M  V30 385 C 38.6565 4.84 -1.89843 0
M  V30 386 C 36.3415 4.87567 -1.20762 0
M  V30 387 C 38.3355 5.6216 -3.00425 0
M  V30 388 C 36.0225 5.65491 -2.31653 0
M  V30 389 C 37.0205 6.02699 -3.21315 0
M  V30 390 O 36.7085 6.79052 -4.30283 0
M  V30 391 H 36.4405 0.674537 -0.0444468 0
M  V30 392 H 38.9945 1.90225 -0.774818 0
M  V30 393 H 37.2245 3.73383 1.00609 0
M  V30 394 H 38.9135 4.00103 0.683522 0
M  V30 395 H 39.6795 4.52564 -1.74387 0
M  V30 396 H 35.5585 4.5807 -0.518893 0
M  V30 397 H 39.1025 5.9112 -3.70436 0
M  V30 398 H 34.9995 5.9634 -2.47081 0
M  V30 399 H 35.7675 6.9745 -4.28376 0
M  V30 400 N 38.4306 0.297415 1.54768 0
M  V30 401 C 39.6786 -0.312295 1.99673 0
M  V30 402 C 39.9996 -1.54686 1.18732 0
M  V30 403 O 39.2696 -1.93854 0.282382 0
M  V30 404 H 37.8496 -0.118381 0.73756 0
M  V30 405 H 40.5116 0.407915 1.90583 0
M  V30 406 H 39.6076 -0.586813 3.06534 0
M  V30 407 N 39.9087 -1.5758 0.0250728 0
M  V30 408 C 40.8387 -2.13007 -0.956575 0
M  V30 409 C 41.8197 -1.0452 -1.342 0
M  V30 410 O 43.0047 -1.32332 -1.42133 0
M  V30 411 C 40.1347 -2.65386 -2.24026 0
M  V30 412 C 39.0887 -3.78623 -1.99571 0
M  V30 413 C 38.4147 -4.17414 -3.3417 0
M  V30 414 C 39.7147 -5.04867 -1.33814 0
M  V30 415 H 41.4087 -2.9528 -0.494991 0
M  V30 416 H 38.9547 -1.42042 -0.236651 0
M  V30 417 H 40.9077 -3.02794 -2.93076 0
M  V30 418 H 39.6317 -1.80268 -2.72343 0
M  V30 419 H 38.2907 -3.41646 -1.32941 0
M  V30 420 H 37.9387 -3.29284 -3.80238 0
M  V30 421 H 37.6387 -4.93719 -3.18615 0
M  V30 422 H 39.1627 -4.57402 -4.04495 0
M  V30 423 H 40.5767 -5.39888 -1.92857 0
M  V30 424 H 38.9737 -5.86144 -1.28669 0
M  V30 425 H 40.0437 -4.83904 -0.310561 0
M  V30 426 N 41.3868 0.248026 -1.55636 0
M  V30 427 C 42.3368 1.30994 -1.86614 0
M  V30 428 C 43.3208 1.43543 -0.726918 0
M  V30 429 O 44.5128 1.46804 -0.988818 0
M  V30 430 C 41.6418 2.6656 -2.16335 0
M  V30 431 C 40.7278 2.58019 -3.36581 0
M  V30 432 N 41.1188 2.1911 -4.55878 0
M  V30 433 C 39.4168 2.89035 -3.39669 0
M  V30 434 C 40.1178 2.21174 -5.38012 0
M  V30 435 N 39.0938 2.60632 -4.77045 0
M  V30 436 H 42.8958 0.999583 -2.76379 0
M  V30 437 H 40.4098 0.456652 -1.55848 0
M  V30 438 H 42.4068 3.43194 -2.36692 0
M  V30 439 H 41.0668 2.98463 -1.27867 0
M  V30 440 H 42.0778 1.90672 -4.81523 0
M  V30 441 H 38.7548 3.25485 -2.61469 0
M  V30 442 H 40.1448 1.9344 -6.43452 0
M  V30 443 N 42.8649 1.48995 0.513639 0
M  V30 444 C 44.1109 1.58076 1.27042 0
M  V30 445 C 44.4439 0.261026 1.92438 0
M  V30 446 O 43.7189 -0.734393 1.80103 0
M  V30 447 C 44.0019 2.73091 2.34719 0
M  V30 448 C 43.8549 4.14821 1.73907 0
M  V30 449 C 45.1739 2.83796 3.36375 0
M  V30 450 H 42.2929 0.575391 0.460536 0
M  V30 451 H 44.9349 1.81232 0.570516 0
M  V30 452 H 43.0849 2.53479 2.94416 0
M  V30 453 H 44.7569 4.45917 1.18135 0
M  V30 454 H 42.9999 4.21058 1.0437 0
M  V30 455 H 43.6709 4.91147 2.51949 0
M  V30 456 H 46.1469 3.01611 2.86653 0
M  V30 457 H 45.0229 3.65971 4.09093 0
M  V30 458 H 45.2839 1.92624 3.9793 0
M  V30 459 N 44.343 -0.763751 1.37857 0
M  V30 460 C 45.759 -1.06542 1.18832 0
M  V30 461 C 45.959 -2.01478 0.0299722 0
M  V30 462 O 45.015 -2.4458 -0.627447 0
M  V30 463 C 46.328 -1.65525 2.51042 0
M  V30 464 C 47.876 -1.77745 2.57635 0
M  V30 465 C 48.351 -2.4014 3.89996 0
M  V30 466 N 49.842 -2.47582 3.91481 0
M  V30 467 C 50.577 -2.96732 4.9065 0
M  V30 468 N 50.073 -3.45993 6.00217 0
M  V30 469 N 51.866 -2.95679 4.78048 0
M  V30 470 H 44.017 -0.133556 2.1198 0
M  V30 471 H 46.28 -0.121879 0.940133 0
M  V30 472 H 45.986 -1.03236 3.36207 0
M  V30 473 H 45.86 -2.64719 2.68707 0
M  V30 474 H 48.247 -2.39164 1.72872 0
M  V30 475 H 48.328 -0.772836 2.43846 0
M  V30 476 H 47.972 -1.79358 4.75177 0
M  V30 477 H 47.902 -3.41223 4.01092 0
M  V30 478 H 50.393 -2.1273 3.12337 0
M  V30 479 H 50.706 -3.81922 6.7183 0
M  V30 480 H 49.051 -3.44077 6.03851 0
M  V30 481 H 52.242 -2.56499 3.91568 0
M  V30 482 H 52.415 -3.33672 5.55488 0
M  V30 483 N 45.8211 -1.22559 -0.990812 0
M  V30 484 C 47.0681 -1.05141 -1.73065 0
M  V30 485 C 47.3961 0.413191 -1.9006 0
M  V30 486 O 46.6511 1.32257 -1.44245 0
M  V30 487 C 46.9501 -1.71011 -3.13831 0
M  V30 488 C 46.6161 -3.20911 -3.16745 0
M  V30 489 C 45.2781 -3.61812 -3.17247 0
M  V30 490 C 47.6301 -4.16846 -3.12872 0
M  V30 491 C 44.9581 -4.97127 -3.1158 0
M  V30 492 C 47.3101 -5.5214 -3.08746 0
M  V30 493 C 45.9741 -5.92419 -3.07565 0
M  V30 494 H 45.2441 -0.384738 -0.633291 0
M  V30 495 H 47.8911 -1.5235 -1.16025 0
M  V30 496 H 46.1961 -1.16133 -3.74193 0
M  V30 497 H 47.8931 -1.55023 -3.69823 0
M  V30 498 H 44.4831 -2.88344 -3.17105 0
M  V30 499 H 48.6671 -3.86263 -3.11632 0
M  V30 500 H 43.9231 -5.27562 -3.09012 0
M  V30 501 H 48.0971 -6.26201 -3.04705 0
M  V30 502 H 45.7241 -6.97236 -3.02929 0
M  V30 503 N 47.2992 1.18797 -1.03562 0
M  V30 504 C 48.7152 1.40671 -0.753917 0
M  V30 505 C 48.9152 1.9043 0.658686 0
M  V30 506 O 47.9712 2.08538 1.42366 0
M  V30 507 C 49.2842 2.41192 -1.79574 0
M  V30 508 C 50.8322 2.54928 -1.81606 0
M  V30 509 C 51.3072 3.58709 -2.84766 0
M  V30 510 N 52.7982 3.66212 -2.83625 0
M  V30 511 C 53.5332 4.46225 -3.60098 0
M  V30 512 N 53.0292 5.29888 -4.46308 0
M  V30 513 N 54.8222 4.40939 -3.4861 0
M  V30 514 H 46.9732 0.848221 -1.94728 0
M  V30 515 H 49.2362 0.435081 -0.842264 0
M  V30 516 H 48.9422 2.11669 -2.80872 0
M  V30 517 H 48.8162 3.40467 -1.62365 0
M  V30 518 H 51.2032 2.83771 -0.809817 0
M  V30 519 H 51.2842 1.55784 -2.02891 0
M  V30 520 H 50.9282 3.30607 -3.85566 0
M  V30 521 H 50.8582 4.57519 -2.60737 0
M  V30 522 H 53.3492 3.06466 -2.21105 0
M  V30 523 H 53.6622 5.88078 -5.01382 0
M  V30 524 H 52.0072 5.29326 -4.50377 0
M  V30 525 H 55.1982 3.74624 -2.80668 0
M  V30 526 H 55.3712 5.03056 -4.08459 0
M  V30 527 N 48.7773 0.814389 1.34928 0
M  V30 528 C 50.0253 0.397636 1.9815 0
M  V30 529 C 50.3463 -1.04069 1.64908 0
M  V30 530 O 49.6163 -1.72121 0.93548 0
M  V30 531 H 48.1963 0.144043 0.732981 0
M  V30 532 H 50.8583 1.04195 1.6471 0
M  V30 533 H 49.9543 0.509688 3.0791 0
M  V30 534 N 50.2554 -1.46986 0.568584 0
M  V30 535 C 51.1654 -2.33942 -0.17555 0
M  V30 536 C 52.1814 -1.48891 -0.90041 0
M  V30 537 O 53.3574 -1.81794 -0.86676 0
M  V30 538 C 50.4224 -3.25811 -1.18524 0
M  V30 539 C 49.4834 -4.26757 -0.466582 0
M  V30 540 C 48.7164 -5.14236 -1.42817 0
M  V30 541 O 48.9394 -5.04379 -2.66379 0
M  V30 542 O 47.8734 -5.94412 -0.946453 0
M  V30 543 H 51.6994 -2.98896 0.538036 0
M  V30 544 H 49.2844 -1.4573 0.329097 0
M  V30 545 H 51.1664 -3.82527 -1.76779 0
M  V30 546 H 49.8414 -2.63471 -1.88055 0
M  V30 547 H 48.7484 -3.73769 0.157451 0
M  V30 548 H 50.0814 -4.91843 0.187485 0
M  V30 549 N 51.7335 -0.305618 -1.54608 0
M  V30 550 C 52.6655 0.602161 -2.21149 0
M  V30 551 C 53.6785 1.09394 -1.20569 0
M  V30 552 O 54.8675 1.0106 -1.47136 0
M  V30 553 C 51.9675 1.83692 -2.84799 0
M  V30 554 C 51.1405 1.48686 -4.11353 0
M  V30 555 C 50.1995 2.57725 -4.58764 0
M  V30 556 O 49.2255 2.22623 -5.23858 0
M  V30 557 N 50.4275 3.88346 -4.31471 0
M  V30 558 H 53.1925 0.0324966 -2.99682 0
M  V30 559 H 50.7535 -0.128021 -1.61393 0
M  V30 560 H 52.7455 2.55994 -3.13448 0
M  V30 561 H 51.3155 2.31486 -2.10078 0
M  V30 562 H 50.5355 0.596269 -3.89664 0
M  V30 563 H 51.8235 1.22842 -4.93748 0
M  V30 564 H 51.2215 4.19671 -3.79331 0
M  V30 565 H 49.7785 4.56932 -4.64818 0
M  V30 566 N 53.2116 1.57565 -0.0334293 0
M  V30 567 C 54.1436 2.0739 0.975811 0
M  V30 568 C 55.1566 0.998166 1.2861 0
M  V30 569 O 56.3456 1.27426 1.25 0
M  V30 570 C 53.4456 2.4871 2.30209 0
M  V30 571 C 52.6186 3.79413 2.17634 0
M  V30 572 C 51.6776 4.07237 3.33233 0
M  V30 573 O 50.7036 4.77425 3.09927 0
M  V30 574 N 51.9056 3.5775 4.5716 0
M  V30 575 H 54.6706 2.94598 0.55066 0
M  V30 576 H 52.2316 1.61173 0.15323 0
M  V30 577 H 54.2236 2.64413 3.06378 0
M  V30 578 H 52.7936 1.66845 2.64351 0
M  V30 579 H 52.0136 3.73465 1.26165 0
M  V30 580 H 53.3016 4.65038 2.0644 0
M  V30 581 H 52.6996 3.00976 4.78989 0
M  V30 582 H 51.2566 3.78724 5.30482 0
M  V30 583 N 54.6897 -0.239769 1.55765 0
M  V30 584 C 55.6197 -1.30052 1.9393 0
M  V30 585 C 56.6007 -1.49839 0.805132 0
M  V30 586 O 57.7857 -1.62328 1.06599 0
M  V30 587 C 54.9157 -2.65391 2.2402 0
M  V30 588 C 53.8697 -2.60289 3.39755 0
M  V30 589 C 53.1957 -3.99489 3.55405 0
M  V30 590 C 54.4957 -2.16654 4.75246 0
M  V30 591 H 56.1897 -0.983573 2.82783 0
M  V30 592 H 53.7357 -0.471701 1.36055 0
M  V30 593 H 55.6887 -3.3974 2.49308 0
M  V30 594 H 54.4127 -2.98736 1.32 0
M  V30 595 H 53.0717 -1.88398 3.14487 0
M  V30 596 H 52.7197 -4.30112 2.60793 0
M  V30 597 H 52.4197 -3.96962 4.33238 0
M  V30 598 H 53.9437 -4.75528 3.83022 0
M  V30 599 H 55.3577 -2.80737 4.99859 0
M  V30 600 H 53.7547 -2.25223 5.56232 0
M  V30 601 H 54.8247 -1.11835 4.71827 0
M  V30 602 N 56.1678 -1.49265 -0.50573 0
M  V30 603 C 57.5838 -1.35923 -0.836486 0
M  V30 604 C 57.7838 -0.388704 -1.97715 0
M  V30 605 O 56.8398 0.181336 -2.51848 0
M  V30 606 C 58.1528 -2.76531 -1.18115 0
M  V30 607 C 59.7008 -2.85197 -1.28964 0
M  V30 608 C 60.1758 -4.26561 -1.66761 0
M  V30 609 N 61.6668 -4.2935 -1.73819 0
M  V30 610 C 62.4018 -5.35693 -2.045 0
M  V30 611 N 61.8978 -6.52287 -2.33438 0
M  V30 612 N 63.6908 -5.23105 -2.05711 0
M  V30 613 H 55.8418 -2.10965 0.246519 0
M  V30 614 H 58.1048 -0.9468 0.0476887 0
M  V30 615 H 57.8108 -3.49226 -0.416398 0
M  V30 616 H 57.6848 -3.11599 -2.1257 0
M  V30 617 H 60.0718 -2.12742 -2.04511 0
M  V30 618 H 60.1528 -2.53718 -0.325704 0
M  V30 619 H 59.7968 -4.99541 -0.917656 0
M  V30 620 H 59.7268 -4.55502 -2.64246 0
M  V30 621 H 62.2178 -3.4526 -1.53635 0
M  V30 622 H 62.5308 -7.29158 -2.56024 0
M  V30 623 H 60.8758 -6.55521 -2.30905 0
M  V30 624 H 64.0668 -4.31026 -1.82577 0
M  V30 625 H 64.2398 -6.06078 -2.29289 0
M  V30 626 N 57.6459 0.756429 -1.3826 0
M  V30 627 C 59.0619 1.0591 -1.19395 0
M  V30 628 C 59.2619 2.01459 -0.0406567 0
M  V30 629 O 58.3179 2.44909 0.614467 0
M  V30 630 C 59.6309 1.64191 -2.51916 0
M  V30 631 C 61.1789 1.76376 -2.58574 0
M  V30 632 C 61.6539 2.38069 -3.91264 0
M  V30 633 N 63.1449 2.45503 -3.92788 0
M  V30 634 C 63.8799 2.94126 -4.92217 0
M  V30 635 N 63.3759 3.42805 -6.02043 0
M  V30 636 N 65.1689 2.9314 -4.7961 0
M  V30 637 H 57.3199 0.122313 -2.12048 0
M  V30 638 H 59.5829 0.116892 -0.940766 0
M  V30 639 H 59.2889 1.01451 -3.3675 0
M  V30 640 H 59.1629 2.6329 -2.70108 0
M  V30 641 H 61.5499 2.38244 -1.74137 0
M  V30 642 H 61.6309 0.759894 -2.44252 0
M  V30 643 H 61.2749 1.76835 -4.76121 0
M  V30 644 H 61.2049 3.39091 -4.02895 0
M  V30 645 H 63.6959 2.1107 -3.13461 0
M  V30 646 H 64.0089 3.78354 -6.73846 0
M  V30 647 H 62.3539 3.4087 -6.05667 0
M  V30 648 H 65.5449 2.54419 -3.92923 0
M  V30 649 H 65.7179 3.30721 -5.5725 0
M  V30 650 N 59.124 1.23083 0.984299 0
M  V30 651 C 60.401 0.9689 1.69917 0
M  V30 652 C 60.781 -0.513604 2.04757 0
M  V30 653 O 60.129 -1.48383 1.73767 0
M  V30 654 C 60.339 1.87518 2.94343 0
M  V30 655 C 61.687 2.13636 3.6694 0
M  V30 656 O 62.711 1.85036 3.04368 0
M  V30 657 O 61.57 2.62119 4.79537 0
M  V30 658 H 58.664 0.365095 0.742048 0
M  V30 659 H 61.21 1.34107 1.03987 0
M  V30 660 H 59.982 2.87756 2.65164 0
M  V30 661 H 59.605 1.50514 3.6801 0
M  V30 662 N 60.6021 -1.18246 1.0419 0
M  V30 663 C 61.8321 -1.91916 0.764961 0
M  V30 664 C 62.2401 -1.76485 -0.681898 0
M  V30 665 O 61.5831 -1.09275 -1.47664 0
M  V30 666 C 61.6451 -3.4373 1.05309 0
M  V30 667 C 61.3091 -3.8294 2.4941 0
M  V30 668 C 62.3061 -3.86621 3.47592 0
M  V30 669 C 59.9911 -4.142 2.84155 0
M  V30 670 C 61.9851 -4.21013 4.78568 0
M  V30 671 C 59.6721 -4.48262 4.15337 0
M  V30 672 C 60.6701 -4.51645 5.12353 0
M  V30 673 O 60.3581 -4.84911 6.41183 0
M  V30 674 H 60.0901 -0.61606 0.278292 0
M  V30 675 H 62.6441 -1.50947 1.39299 0
M  V30 676 H 60.8741 -3.84946 0.367933 0
M  V30 677 H 62.5631 -3.9865 0.763752 0
M  V30 678 H 63.3291 -3.62607 3.22089 0
M  V30 679 H 59.2081 -4.10743 2.09311 0
M  V30 680 H 62.7521 -4.23568 5.54289 0
M  V30 681 H 58.6491 -4.71737 4.40607 0
M  V30 682 H 59.4171 -5.02809 6.45852 0
M  V30 683 N 62.0802 -0.821533 -1.34494 0
M  V30 684 C 63.3282 -0.408139 -1.97936 0
M  V30 685 C 63.6492 1.03193 -1.65457 0
M  V30 686 O 62.9192 1.71622 -0.944595 0
M  V30 687 H 61.4992 -0.147928 -0.732206 0
M  V30 688 H 64.1612 -1.05067 -1.64155 0
M  V30 689 H 63.2572 -0.52601 -3.07635 0
M  V30 690 N 63.5583 1.46682 -0.576371 0
M  V30 691 C 64.9693 1.86112 -0.148091 0
M  V30 692 C 65.3203 1.48073 1.2872 0
M  V30 693 O 64.4453 0.892656 1.97131 0
M  V30 694 C 65.0403 3.37786 -0.261982 0
M  V30 695 C 63.5993 3.76235 0.111384 0
M  V30 696 C 62.7463 2.70713 -0.60083 0
M  V30 697 H 65.6973 1.37927 -0.78497 0
M  V30 698 H 65.7183 3.77007 0.514364 0
M  V30 699 H 65.2303 3.6544 -1.30671 0
M  V30 700 H 63.3313 3.54198 1.15649 0
M  V30 701 H 63.4443 4.78391 -0.26052 0
M  V30 702 H 61.8083 2.54666 -0.0417783 0
M  V30 703 H 62.5913 3.01208 -1.64708 0
M  V30 704 N 65.0364 0.313813 1.54444 0
M  V30 705 C 66.2854 -0.292519 1.99568 0
M  V30 706 C 66.5984 -1.54011 1.20582 0
M  V30 707 O 67.8044 -2.22183 1.56035 0
M  V30 708 C 66.2604 -0.571752 3.55329 0
M  V30 709 C 65.8684 0.658229 4.43138 0
M  V30 710 C 67.6124 -1.13857 4.08946 0
M  V30 711 C 65.5194 0.351439 5.90355 0
M  V30 712 H 64.4494 -0.113079 0.745472 0
M  V30 713 H 67.1004 0.424518 1.78522 0
M  V30 714 H 65.4824 -1.34872 3.72325 0
M  V30 715 H 66.6564 1.43403 4.37918 0
M  V30 716 H 64.9714 1.14458 4.0036 0
M  V30 717 H 67.5684 -1.38257 5.16516 0
M  V30 718 H 67.9114 -2.08489 3.6033 0
M  V30 719 H 68.4444 -0.423015 3.95544 0
M  V30 720 H 65.1834 1.26667 6.43145 0
M  V30 721 H 64.7034 -0.386842 5.98551 0
M  V30 722 H 66.3824 -0.0423134 6.46986 0
M  V30 723 N 66.5145 -1.57545 0.0417849 0
M  V30 724 C 67.4445 -2.14009 -0.933929 0
M  V30 725 C 68.4255 -1.05938 -1.33083 0
M  V30 726 O 69.6105 -1.33833 -1.40721 0
M  V30 727 C 66.7405 -2.67747 -2.21199 0
M  V30 728 C 65.6945 -3.80718 -1.95544 0
M  V30 729 C 65.0205 -4.20935 -3.29724 0
M  V30 730 C 66.3205 -5.06258 -1.28452 0
M  V30 731 H 68.0145 -2.95788 -0.463645 0
M  V30 732 H 65.5605 -1.42285 -0.221573 0
M  V30 733 H 67.5135 -3.05886 -2.89848 0
M  V30 734 H 66.2375 -1.83147 -2.70416 0
M  V30 735 H 64.8965 -3.43037 -1.2931 0
M  V30 736 H 64.5445 -3.33298 -3.76724 0
M  V30 737 H 64.2445 -4.9707 -3.13361 0
M  V30 738 H 65.7685 -4.61666 -3.9962 0
M  V30 739 H 67.1825 -5.41903 -1.8712 0
M  V30 740 H 65.5795 -5.87475 -1.22445 0
M  V30 741 H 66.6495 -4.84207 -0.259219 0
M  V30 742 N 67.9926 0.231505 -1.5589 0
M  V30 743 C 69.4086 0.580748 -1.48659 0
M  V30 744 C 69.6086 1.87617 -0.73498 0
M  V30 745 O 68.6646 2.51046 -0.270586 0
M  V30 746 C 69.9776 0.669202 -2.93159 0
M  V30 747 C 71.5256 0.760499 -3.03621 0
M  V30 748 C 72.0006 0.880383 -4.49459 0
M  V30 749 N 73.4916 0.944861 -4.53461 0
M  V30 750 C 74.2266 1.05716 -5.63571 0
M  V30 751 N 73.7226 1.13403 -6.83456 0
M  V30 752 N 75.5156 1.09152 -5.514 0
M  V30 753 H 67.6666 -0.618695 -2.03189 0
M  V30 754 H 69.9296 -0.215728 -0.923128 0
M  V30 755 H 69.6356 -0.212904 -3.51055 0
M  V30 756 H 69.5096 1.5361 -3.44505 0
M  V30 757 H 71.8966 1.63305 -2.45796 0
M  V30 758 H 71.9776 -0.131864 -2.5546 0
M  V30 759 H 71.6216 0.0123284 -5.07899 0
M  V30 760 H 71.5516 1.78802 -4.95316 0
M  V30 761 H 74.0426 0.896176 -3.6712 0
M  V30 762 H 74.3556 1.21921 -7.63122 0
M  V30 763 H 72.7006 1.10333 -6.86186 0
M  V30 764 H 75.8916 1.02805 -4.56671 0
M  V30 765 H 76.0646 1.17558 -6.37247 0
M  V30 766 N 69.4707 1.49531 0.497807 0
M  V30 767 C 70.6957 1.63159 1.28039 0
M  V30 768 C 71.1207 0.30418 1.85624 0
M  V30 769 O 70.4787 -0.728618 1.66015 0
M  V30 770 C 70.5267 2.70537 2.38416 0
M  V30 771 O 69.6307 2.29931 3.42353 0
M  V30 772 H 68.9717 0.546001 0.377861 0
M  V30 773 H 71.5017 1.9574 0.59558 0
M  V30 774 H 71.5117 2.92802 2.84132 0
M  V30 775 H 70.1867 3.6689 1.95869 0
M  V30 776 H 68.7637 2.18009 3.02533 0
M  V30 777 N 70.9488 -0.749086 1.3866 0
M  V30 778 C 72.3648 -1.05276 1.19955 0
M  V30 779 C 72.5648 -2.01435 0.05134 0
M  V30 780 O 71.6208 -2.45232 -0.60147 0
M  V30 781 C 72.9338 -1.62853 2.52783 0
M  V30 782 C 74.4818 -1.75002 2.59506 0
M  V30 783 C 74.9568 -2.35991 3.92521 0
M  V30 784 N 76.4478 -2.43416 3.94085 0
M  V30 785 C 77.1828 -2.91511 4.9377 0
M  V30 786 N 76.6788 -3.39608 6.03853 0
M  V30 787 N 78.4718 -2.90592 4.81157 0
M  V30 788 H 70.6228 -0.111066 2.12109 0
M  V30 789 H 72.8858 -0.111901 0.941373 0
M  V30 790 H 72.5918 -0.99664 3.37283 0
M  V30 791 H 72.4658 -2.61854 2.715 0
M  V30 792 H 74.8528 -2.37317 1.75398 0
M  V30 793 H 74.9338 -0.74693 2.44652 0
M  V30 794 H 74.5778 -1.74308 4.77053 0
M  V30 795 H 74.5078 -3.3695 4.04688 0
M  V30 796 H 76.9988 -2.09405 3.14576 0
M  V30 797 H 77.3118 -3.74775 6.75843 0
M  V30 798 H 75.6568 -3.37653 6.07466 0
M  V30 799 H 78.8478 -2.52332 3.94267 0
M  V30 800 H 79.0208 -3.27762 5.58996 0
M  V30 801 N 72.4269 -1.23603 -0.977757 0
M  V30 802 C 73.6749 -1.06759 -1.71601 0
M  V30 803 C 73.9959 0.395929 -1.90938 0
M  V30 804 O 73.2659 1.28356 -1.47992 0
M  V30 805 H 71.8459 -0.392062 -0.635843 0
M  V30 806 H 74.5079 -1.55362 -1.1768 0
M  V30 807 H 73.6039 -1.55763 -2.70452 0
M  V30 808 N 73.905 1.17692 -1.04816 0
M  V30 809 C 75.145 1.89545 -0.764979 0
M  V30 810 C 75.509 1.78979 0.695028 0
M  V30 811 O 76.71 2.45613 1.09215 0
M  V30 812 C 74.981 3.35659 -1.22751 0
M  V30 813 S 76.54 4.25526 -1.07112 0
M  V30 814 H 73.358 0.654432 -0.27792 0
M  V30 815 H 75.96 1.42163 -1.34201 0
M  V30 816 H 74.664 3.40882 -2.28533 0
M  V30 817 H 74.195 3.88083 -0.644594 0
M  V30 818 H 76.21 4.962 0.00697508 0
M  V30 819 N 75.3831 0.828654 1.34056 0
M  V30 820 C 76.6291 0.42008 1.98402 0
M  V30 821 C 76.9621 -1.01564 1.65525 0
M  V30 822 O 76.2371 -1.70834 0.929831 0
M  V30 823 C 76.5201 0.62927 3.54559 0
M  V30 824 C 76.3731 2.11152 3.97159 0
M  V30 825 C 77.6921 0.0688756 4.40046 0
M  V30 826 H 74.8111 0.154104 0.720709 0
M  V30 827 H 77.4531 1.04228 1.5886 0
M  V30 828 H 75.6031 0.0996418 3.88372 0
M  V30 829 H 77.2751 2.70522 3.73651 0
M  V30 830 H 75.5181 2.59985 3.47261 0
M  V30 831 H 76.1891 2.20868 5.05887 0
M  V30 832 H 78.6651 0.521458 4.1282 0
M  V30 833 H 77.5411 0.245006 5.48353 0
M  V30 834 H 77.8021 -1.0266 4.30015 0
M  V30 835 N 76.8612 -1.46375 0.584142 0
M  V30 836 C 78.0862 -2.07268 0.0740405 0
M  V30 837 C 78.5112 -1.42979 -1.22223 0
M  V30 838 O 77.8692 -0.514092 -1.73859 0
M  V30 839 C 77.9172 -3.60518 -0.0767769 0
M  V30 840 O 77.0212 -3.96533 -1.13292 0
M  V30 841 H 76.3622 -0.660961 0.0634524 0
M  V30 842 H 78.8922 -1.87991 0.807492 0
M  V30 843 H 78.9022 -4.07021 -0.282489 0
M  V30 844 H 77.5772 -4.06702 0.86986 0
M  V30 845 H 76.1542 -3.61738 -0.905553 0
M  V30 846 N 78.3393 -0.321999 -1.54275 0
M  V30 847 C 79.3023 0.531975 -2.22941 0
M  V30 848 C 80.3023 1.04478 -1.22234 0
M  V30 849 O 81.4923 0.937452 -1.46825 0
M  V30 850 C 78.6243 1.73874 -2.93224 0
M  V30 851 H 79.8173 -0.0682612 -2.99822 0
M  V30 852 H 77.3703 -0.0730644 -1.56129 0
M  V30 853 H 78.1053 2.37825 -2.20476 0
M  V30 854 H 77.8903 1.37847 -3.6707 0
M  V30 855 H 79.3803 2.34496 -3.45545 0
M  V30 856 N 79.8174 1.5752 -0.0501392 0
M  V30 857 C 80.7644 2.1147 0.924603 0
M  V30 858 C 81.7344 1.02182 1.30951 0
M  V30 859 O 82.9194 1.29723 1.39916 0
M  V30 860 C 80.0594 2.66337 2.19451 0
M  V30 861 C 79.1724 3.89708 1.86418 0
M  V30 862 C 78.3074 4.32893 3.07859 0
M  V30 863 C 77.3464 5.48967 2.70742 0
M  V30 864 N 76.4834 5.87211 3.84874 0
M  V30 865 H 81.3234 2.94465 0.457639 0
M  V30 866 H 78.8604 1.45531 0.214266 0
M  V30 867 H 80.8184 2.96247 2.93758 0
M  V30 868 H 79.4484 1.86141 2.63726 0
M  V30 869 H 78.5004 3.66396 1.02264 0
M  V30 870 H 79.8124 4.74074 1.55096 0
M  V30 871 H 78.9664 4.6435 3.90466 0
M  V30 872 H 77.7054 3.47336 3.42358 0
M  V30 873 H 76.7104 5.17183 1.86551 0
M  V30 874 H 77.9354 6.3624 2.37436 0
M  V30 875 H 75.8814 5.04607 4.19175 0
M  V30 876 H 75.7984 6.66266 3.57247 0
M  V30 877 H 77.0664 6.23282 4.68123 0
M  V30 878 N 81.2955 -0.223234 1.56011 0
M  V30 879 C 82.5725 -0.972108 1.69733 0
M  V30 880 C 82.9525 -2.02485 0.59691 0
M  V30 881 O 82.3005 -2.25037 -0.396324 0
M  V30 882 C 82.5105 -1.58407 3.10979 0
M  V30 883 C 83.8585 -2.07696 3.70334 0
M  V30 884 O 84.8825 -1.68304 3.1393 0
M  V30 885 O 83.7415 -2.80096 4.69264 0
M  V30 886 H 80.8355 -0.453993 0.691245 0
M  V30 887 H 83.3815 -0.215149 1.68331 0
M  V30 888 H 82.1535 -0.823831 3.82529 0
M  V30 889 H 81.7765 -2.40661 3.16493 0
M  V30 890 N 82.7736 -1.49793 -0.48987 0
M  V30 891 C 84.0206 -1.59841 -1.24327 0
M  V30 892 C 84.3486 -0.290135 -1.92324 0
M  V30 893 O 83.6036 0.722749 -1.81865 0
M  V30 894 C 83.9026 -2.71488 -2.32441 0
M  V30 895 C 83.5686 -4.12614 -1.81826 0
M  V30 896 C 82.2306 -4.51017 -1.67742 0
M  V30 897 C 84.5826 -5.00892 -1.4407 0
M  V30 898 C 81.9106 -5.75459 -1.14297 0
M  V30 899 C 84.2626 -6.25863 -0.920742 0
M  V30 900 C 82.9266 -6.63086 -0.766383 0
M  V30 901 H 82.1966 -0.584899 -0.454944 0
M  V30 902 H 84.8436 -1.83663 -0.542215 0
M  V30 903 H 83.1486 -2.4168 -3.0838 0
M  V30 904 H 84.8456 -2.76469 -2.90458 0
M  V30 905 H 81.4356 -3.82307 -1.93751 0
M  V30 906 H 85.6196 -4.7187 -1.53794 0
M  V30 907 H 80.8756 -6.02989 -1.01068 0
M  V30 908 H 85.0496 -6.9364 -0.619448 0
M  V30 909 H 82.6766 -7.59393 -0.350083 0
M  V30 910 N 84.2517 0.741722 -1.39055 0
M  V30 911 C 85.1837 1.8657 -1.33133 0
M  V30 912 C 86.1967 1.61001 -0.241329 0
M  V30 913 O 87.3857 1.7136 -0.499784 0
M  V30 914 C 84.4857 3.22457 -1.04283 0
M  V30 915 C 83.6587 3.75435 -2.24427 0
M  V30 916 C 82.7177 4.89867 -1.92138 0
M  V30 917 O 81.7437 5.03879 -2.64754 0
M  V30 918 N 82.9457 5.73738 -0.88347 0
M  V30 919 H 85.7107 1.92156 -2.29991 0
M  V30 920 H 83.2717 0.922172 -1.3307 0
M  V30 921 H 85.2637 3.9657 -0.807128 0
M  V30 922 H 83.8337 3.12181 -0.161807 0
M  V30 923 H 83.0537 2.92751 -2.6399 0
M  V30 924 H 84.3417 4.07563 -3.04581 0
M  V30 925 H 83.7397 5.64999 -0.281517 0
M  V30 926 H 82.2967 6.47947 -0.707662 0
M  V30 927 N 85.7298 1.2412 0.971189 0
M  V30 928 C 86.6618 0.988349 2.06795 0
M  V30 929 C 87.6748 -0.0409541 1.62748 0
M  V30 930 O 88.8638 0.195673 1.77424 0
M  V30 931 C 85.9638 0.469023 3.35639 0
M  V30 932 C 85.1368 1.56065 4.08611 0
M  V30 933 C 84.1958 1.04458 5.15728 0
M  V30 934 O 83.2218 1.73553 5.42096 0
M  V30 935 N 84.4238 -0.122817 5.8037 0
M  V30 936 H 87.1888 1.93265 2.29061 0
M  V30 937 H 84.7498 1.15102 1.13856 0
M  V30 938 H 86.7418 0.108613 4.04554 0
M  V30 939 H 85.3118 -0.380919 3.1027 0
M  V30 940 H 84.5318 2.09341 3.34021 0
M  V30 941 H 85.8198 2.29449 4.54126 0
M  V30 942 H 85.2178 -0.700563 5.61345 0
M  V30 943 H 83.7748 -0.424404 6.50417 0
M  V30 944 N 87.2079 -1.17134 1.05439 0
M  V30 945 C 88.1379 -2.2342 0.678649 0
M  V30 946 C 89.1189 -1.66971 -0.32476 0
M  V30 947 O 90.3039 -1.93149 -0.201802 0
M  V30 948 C 87.4339 -3.47256 0.0552099 0
M  V30 949 C 86.3879 -4.16543 0.98365 0
M  V30 950 C 85.7139 -5.34231 0.223961 0
M  V30 951 C 87.0139 -4.68495 2.3089 0
M  V30 952 H 88.7079 -2.55105 1.56722 0
M  V30 953 H 86.2539 -1.2262 0.754998 0
M  V30 954 H 88.2069 -4.20828 -0.21946 0
M  V30 955 H 86.9309 -3.14846 -0.868319 0
M  V30 956 H 85.5899 -3.44887 1.24293 0
M  V30 957 H 85.2379 -4.98071 -0.702412 0
M  V30 958 H 84.9379 -5.81527 0.842627 0
M  V30 959 H 86.4619 -6.10585 -0.0433671 0
M  V30 960 H 87.8759 -5.33691 2.09396 0
M  V30 961 H 86.2729 -5.26379 2.88176 0
M  V30 962 H 87.3429 -3.85169 2.94572 0
M  V30 963 N 88.686 -0.835752 -1.33615 0
M  V30 964 C 89.616 -0.281739 -2.31794 0
M  V30 965 C 90.597 0.608833 -1.58831 0
M  V30 966 O 91.782 0.533035 -1.86741 0
M  V30 967 C 88.912 0.546612 -3.42971 0
M  V30 968 C 87.866 -0.247904 -4.27281 0
M  V30 969 C 87.192 0.704001 -5.30045 0
M  V30 970 C 88.492 -1.46324 -5.01385 0
M  V30 971 H 90.186 -1.10206 -2.78379 0
M  V30 972 H 87.732 -0.531388 -1.33837 0
M  V30 973 H 89.685 0.944467 -4.1068 0
M  V30 974 H 88.409 1.40011 -2.95067 0
M  V30 975 H 87.068 -0.627281 -3.61194 0
M  V30 976 H 86.716 1.55381 -4.78399 0
M  V30 977 H 86.416 0.176524 -5.87335 0
M  V30 978 H 87.94 1.09944 -6.0062 0
M  V30 979 H 89.354 -1.13871 -5.61877 0
M  V30 980 H 87.751 -1.92728 -5.6831 0
M  V30 981 H 88.821 -2.23467 -4.30338 0
M  V30 982 N 90.1641 1.46063 -0.591896 0
M  V30 983 C 91.1271 2.28854 0.125973 0
M  V30 984 C 92.1271 1.38903 0.810107 0
M  V30 985 O 93.3171 1.61186 0.66066 0
M  V30 986 C 90.4491 3.19526 1.1881 0
M  V30 987 H 91.6421 2.93802 -0.601717 0
M  V30 988 H 89.1951 1.52325 -0.350254 0
M  V30 989 H 89.9301 2.59345 1.94707 0
M  V30 990 H 89.7151 3.85766 0.701936 0
M  V30 991 H 91.2051 3.81817 1.69132 0
M  V30 992 N 91.6422 0.330177 1.54103 0
M  V30 993 C 92.5522 -0.541534 2.28264 0
M  V30 994 C 93.5682 -1.12351 1.32866 0
M  V30 995 O 94.7442 -1.14206 1.65888 0
M  V30 996 C 91.8092 -1.68322 3.03098 0
M  V30 997 C 90.8702 -1.13238 4.14096 0
M  V30 998 C 90.1032 -2.21966 4.85352 0
M  V30 999 O 90.3262 -3.42437 4.56172 0
M  V30 1000 O 89.2602 -1.87013 5.7211 0
M  V30 1001 H 93.0862 0.060938 3.03639 0
M  V30 1002 H 90.6712 0.09565 1.49093 0
M  V30 1003 H 92.5532 -2.34777 3.49939 0
M  V30 1004 H 91.2282 -2.27176 2.30593 0
M  V30 1005 H 90.1352 -0.432736 3.71589 0
M  V30 1006 H 91.4682 -0.588898 4.88664 0
M  V30 1007 N 93.1203 -1.57491 0.0584922 0
M  V30 1008 C 94.0503 -2.14988 -0.911178 0
M  V30 1009 C 95.0313 -1.07343 -1.31952 0
M  V30 1010 O 96.2163 -1.35318 -1.39294 0
M  V30 1011 C 93.3463 -2.70078 -2.18347 0
M  V30 1012 C 92.3003 -3.82771 -1.91495 0
M  V30 1013 C 91.6263 -4.24408 -3.25241 0
M  V30 1014 C 92.9263 -5.07592 -1.23075 0
M  V30 1015 H 94.6203 -2.96263 -0.432246 0
M  V30 1016 H 92.1663 -1.42512 -0.206469 0
M  V30 1017 H 94.1193 -3.08943 -2.86587 0
M  V30 1018 H 92.8433 -1.86005 -2.68458 0
M  V30 1019 H 91.5023 -3.44389 -1.25664 0
M  V30 1020 H 91.1503 -3.37275 -3.73168 0
M  V30 1021 H 90.8503 -5.00366 -3.08071 0
M  V30 1022 H 92.3743 -4.65879 -3.94701 0
M  V30 1023 H 93.7883 -5.43857 -1.81362 0
M  V30 1024 H 92.1853 -5.88741 -1.16207 0
M  V30 1025 H 93.2553 -4.84454 -0.207847 0
M  V30 1026 N 94.5984 0.214957 -1.56127 0
M  V30 1027 C 95.5084 1.28727 -1.96129 0
M  V30 1028 C 96.5244 1.50916 -0.866044 0
M  V30 1029 O 97.7004 1.63918 -1.17016 0
M  V30 1030 C 94.7654 2.61569 -2.27558 0
M  V30 1031 C 93.8264 2.47625 -3.50685 0
M  V30 1032 C 93.0594 3.74132 -3.80606 0
M  V30 1033 O 93.2824 4.77438 -3.12104 0
M  V30 1034 O 92.2164 3.70849 -4.74083 0
M  V30 1035 H 96.0424 0.977855 -2.87527 0
M  V30 1036 H 93.6274 0.418358 -1.43423 0
M  V30 1037 H 95.5094 3.40012 -2.48938 0
M  V30 1038 H 94.1844 2.92178 -1.39332 0
M  V30 1039 H 93.0914 1.67361 -3.34576 0
M  V30 1040 H 94.4244 2.21954 -4.39315 0
M  V30 1041 N 96.0765 1.50051 0.48192 0
M  V30 1042 C 97.0085 1.64263 1.59844 0
M  V30 1043 C 98.0215 0.52451 1.54119 0
M  V30 1044 O 99.2105 0.797293 1.59704 0
M  V30 1045 C 96.3105 1.60102 2.98698 0
M  V30 1046 C 95.4835 2.87767 3.29407 0
M  V30 1047 C 94.5425 2.76397 4.47762 0
M  V30 1048 O 93.5685 3.50348 4.48603 0
M  V30 1049 N 94.7705 1.89222 5.48794 0
M  V30 1050 H 97.5355 2.60566 1.48073 0
M  V30 1051 H 95.0965 1.47379 0.670149 0
M  V30 1052 H 97.0885 1.50123 3.75826 0
M  V30 1053 H 95.6585 0.715798 3.04294 0
M  V30 1054 H 94.8785 3.11954 2.40994 0
M  V30 1055 H 96.1665 3.72365 3.4673 0
M  V30 1056 H 95.5645 1.28434 5.50928 0
M  V30 1057 H 94.1215 1.85154 6.24949 0
M  V30 1058 N 97.5546 -0.734337 1.39446 0
M  V30 1059 C 98.4646 -1.87879 1.40495 0
M  V30 1060 C 99.4806 -1.714 0.299672 0
M  V30 1061 O 100.657 -1.93991 0.541249 0
M  V30 1062 C 97.7216 -3.23477 1.24754 0
M  V30 1063 C 96.7826 -3.52344 2.45259 0
M  V30 1064 C 96.0156 -4.81473 2.30259 0
M  V30 1065 O 96.2386 -5.55237 1.30643 0
M  V30 1066 O 95.1726 -5.10254 3.19256 0
M  V30 1067 H 98.9986 -1.89949 2.36966 0
M  V30 1068 H 96.5836 -0.882243 1.20569 0
M  V30 1069 H 98.4656 -4.04509 1.18111 0
M  V30 1070 H 97.1406 -3.22176 0.313781 0
M  V30 1071 H 96.0476 -2.71396 2.57478 0
M  V30 1072 H 97.3806 -3.58426 3.37331 0
M  V30 1073 N 99.0327 -1.24633 -0.964593 0
M  V30 1074 C 100.279 -1.08949 -1.71049 0
M  V30 1075 C 100.612 0.370302 -1.90637 0
M  V30 1076 O 99.8867 1.27349 -1.47011 0
M  V30 1077 C 100.17 -1.83329 -3.0994 0
M  V30 1078 C 100.023 -3.37077 -2.97824 0
M  V30 1079 C 101.342 -1.60846 -4.09654 0
M  V30 1080 H 98.4607 -0.397178 -0.620821 0
M  V30 1081 H 101.103 -1.5334 -1.12191 0
M  V30 1082 H 99.2527 -1.45597 -3.60186 0
M  V30 1083 H 100.925 -3.84425 -2.5498 0
M  V30 1084 H 99.1677 -3.65298 -2.33965 0
M  V30 1085 H 99.8387 -3.84324 -3.96231 0
M  V30 1086 H 102.315 -1.93674 -3.68279 0
M  V30 1087 H 101.191 -2.1534 -5.04896 0
M  V30 1088 H 101.452 -0.547434 -4.38698 0
M  V30 1089 N 100.511 1.16574 -1.06058 0
M  V30 1090 C 101.421 2.2452 -0.680282 0
M  V30 1091 C 102.437 1.71348 0.302604 0
M  V30 1092 O 103.613 2.00822 0.152513 0
M  V30 1093 C 100.678 3.46629 -0.0700315 0
M  V30 1094 C 99.7388 4.14849 -1.10448 0
M  V30 1095 C 98.9718 5.31129 -0.523256 0
M  V30 1096 O 99.1948 5.66514 0.664709 0
M  V30 1097 O 98.1288 5.88526 -1.26179 0
M  V30 1098 H 101.955 2.59355 -1.58015 0
M  V30 1099 H 99.5398 1.24043 -0.832694 0
M  V30 1100 H 101.422 4.20543 0.268667 0
M  V30 1101 H 100.097 3.13573 0.803353 0
M  V30 1102 H 99.0038 3.42916 -1.49532 0
M  V30 1103 H 100.337 4.51954 -1.94931 0
M  V30 1104 N 101.989 0.842826 1.3317 0
M  V30 1105 C 103.405 0.531128 1.50503 0
M  V30 1106 C 103.605 -0.940734 1.78192 0
M  V30 1107 O 102.661 -1.72436 1.84451 0
M  V30 1108 C 103.974 1.40789 2.65705 0
M  V30 1109 C 105.522 1.40708 2.79589 0
M  V30 1110 C 105.997 2.26878 3.97857 0
M  V30 1111 N 107.488 2.24609 4.05099 0
M  V30 1112 C 108.223 2.88019 4.95815 0
M  V30 1113 N 107.719 3.60496 5.9162 0
M  V30 1114 N 109.512 2.77469 4.88843 0
M  V30 1115 H 101.663 1.79557 1.1346 0
M  V30 1116 H 103.926 0.766267 0.558156 0
M  V30 1117 H 103.632 2.454 2.51936 0
M  V30 1118 H 103.506 1.08677 3.61205 0
M  V30 1119 H 105.893 0.368668 2.92788 0
M  V30 1120 H 105.974 1.76829 1.84838 0
M  V30 1121 H 105.618 3.3078 3.85418 0
M  V30 1122 H 105.548 1.88096 4.91861 0
M  V30 1123 H 108.039 1.71906 3.36536 0
M  V30 1124 H 108.352 4.06076 6.57512 0
M  V30 1125 H 106.697 3.64604 5.91683 0
M  V30 1126 H 109.888 2.20406 4.12963 0
M  V30 1127 H 110.061 3.2717 5.59342 0
M  V30 1128 N 103.467 -1.45747 0.599634 0
M  V30 1129 C 104.883 -1.57424 0.26264 0
M  V30 1130 C 105.083 -1.59222 -1.23493 0
M  V30 1131 O 104.139 -1.51825 -2.01756 0
M  V30 1132 C 105.452 -2.86061 0.926795 0
M  V30 1133 C 107 -2.99722 0.901967 0
M  V30 1134 C 107.475 -4.31119 1.54598 0
M  V30 1135 N 108.966 -4.37858 1.5111 0
M  V30 1136 C 109.701 -5.3818 1.97863 0
M  V30 1137 N 109.197 -6.45083 2.52666 0
M  V30 1138 N 110.99 -5.29487 1.88679 0
M  V30 1139 H 103.141 -1.42823 1.57211 0
M  V30 1140 H 105.404 -0.68235 0.658105 0
M  V30 1141 H 105.11 -2.90605 1.98095 0
M  V30 1142 H 104.984 -3.74563 0.445238 0
M  V30 1143 H 107.371 -2.9475 -0.143617 0
M  V30 1144 H 107.452 -2.12652 1.42171 0
M  V30 1145 H 107.096 -4.36849 2.59085 0
M  V30 1146 H 107.026 -5.16992 1.00132 0
M  V30 1147 H 109.517 -3.61209 1.11068 0
M  V30 1148 H 109.83 -7.17869 2.86155 0
M  V30 1149 H 108.175 -6.45856 2.56701 0
M  V30 1150 H 111.366 -4.44877 1.4561 0
M  V30 1151 H 111.539 -6.07524 2.25429 0
M  V30 1152 N 104.945 -0.338344 -1.53925 0
M  V30 1153 C 105.877 0.555117 -2.22376 0
M  V30 1154 C 106.89 1.06812 -1.22862 0
M  V30 1155 O 108.079 0.979163 -1.49247 0
M  V30 1156 C 105.179 1.77609 -2.88631 0
M  V30 1157 C 104.352 1.39927 -4.14414 0
M  V30 1158 C 103.411 2.47936 -4.64127 0
M  V30 1159 O 102.437 2.11461 -5.28463 0
M  V30 1160 N 103.639 3.79107 -4.39612 0
M  V30 1161 H 106.404 -0.0310778 -2.99684 0
M  V30 1162 H 103.965 -0.162226 -1.61085 0
M  V30 1163 H 105.957 2.49287 -3.18807 0
M  V30 1164 H 104.527 2.26978 -2.14941 0
M  V30 1165 H 103.747 0.513481 -3.90841 0
M  V30 1166 H 105.035 1.12341 -4.96243 0
M  V30 1167 H 104.433 4.11531 -3.88148 0
M  V30 1168 H 102.99 4.4697 -4.74406 0
M  V30 1169 N 106.423 1.57458 -0.0668435 0
M  V30 1170 C 107.839 1.56947 0.289772 0
M  V30 1171 C 108.039 1.07584 1.70376 0
M  V30 1172 O 107.095 0.739486 2.41429 0
M  V30 1173 C 108.408 3.0052 0.103943 0
M  V30 1174 C 109.956 3.12517 0.173857 0
M  V30 1175 C 110.431 4.57997 0.0163682 0
M  V30 1176 N 111.922 4.63144 0.0721352 0
M  V30 1177 C 112.657 5.73394 -0.0253794 0
M  V30 1178 N 112.153 6.92576 -0.176133 0
M  V30 1179 N 113.946 5.62091 0.0313305 0
M  V30 1180 H 106.097 1.87863 -0.991027 0
M  V30 1181 H 108.36 0.86583 -0.38606 0
M  V30 1182 H 108.066 3.40729 -0.871572 0
M  V30 1183 H 107.94 3.67304 0.858366 0
M  V30 1184 H 110.327 2.72197 1.13985 0
M  V30 1185 H 110.408 2.48381 -0.611586 0
M  V30 1186 H 110.052 4.99005 -0.946374 0
M  V30 1187 H 109.982 5.20158 0.821153 0
M  V30 1188 H 112.473 3.77436 0.187263 0
M  V30 1189 H 112.786 7.72418 -0.242821 0
M  V30 1190 H 111.131 6.94678 -0.211429 0
M  V30 1191 H 114.322 4.67867 0.147773 0
M  V30 1192 H 114.495 6.47982 -0.048121 0
M  V30 1193 N 107.901 -0.206675 1.56239 0
M  V30 1194 C 108.831 -1.25909 1.96645 0
M  V30 1195 C 109.812 -1.48097 0.836734 0
M  V30 1196 O 110.997 -1.6003 1.10019 0
M  V30 1197 C 108.127 -2.6058 2.29599 0
M  V30 1198 C 107.081 -2.53024 3.452 0
M  V30 1199 C 106.407 -3.91861 3.63798 0
M  V30 1200 C 107.707 -2.06524 4.79734 0
M  V30 1201 H 109.401 -0.923369 2.84806 0
M  V30 1202 H 106.947 -0.442735 1.37025 0
M  V30 1203 H 108.9 -3.34375 2.56459 0
M  V30 1204 H 107.624 -2.95869 1.38307 0
M  V30 1205 H 106.283 -1.81684 3.18412 0
M  V30 1206 H 105.931 -4.24483 2.69857 0
M  V30 1207 H 105.631 -3.87683 4.4156 0
M  V30 1208 H 107.155 -4.67296 3.93022 0
M  V30 1209 H 108.569 -2.70072 5.05702 0
M  V30 1210 H 106.966 -2.13374 5.60885 0
M  V30 1211 H 108.036 -1.01802 4.74093 0
M  V30 1212 N 109.379 -1.50304 -0.473955 0
M  V30 1213 C 110.627 -1.60832 -1.22382 0
M  V30 1214 C 110.948 -0.30939 -1.9253 0
M  V30 1215 O 110.218 0.67296 -1.83978 0
M  V30 1216 H 108.798 -0.592652 -0.454723 0
M  V30 1217 H 111.46 -1.87068 -0.546968 0
M  V30 1218 H 110.556 -2.41803 -1.97327 0
M  V30 1219 N 110.857 0.726932 -1.39834 0
M  V30 1220 C 111.789 1.85147 -1.35104 0
M  V30 1221 C 112.802 1.60736 -0.258392 0
M  V30 1222 O 113.991 1.70821 -0.517931 0
M  V30 1223 C 111.091 3.21332 -1.07697 0
M  V30 1224 C 110.264 3.73033 -2.28396 0
M  V30 1225 C 109.323 4.87802 -1.97322 0
M  V30 1226 O 108.349 5.01043 -2.70083 0
M  V30 1227 N 109.551 5.72768 -0.944273 0
M  V30 1228 H 112.316 1.89706 -2.32017 0
M  V30 1229 H 109.877 0.908006 -1.3404 0
M  V30 1230 H 111.869 3.95691 -0.849144 0
M  V30 1231 H 110.439 3.11992 -0.194909 0
M  V30 1232 H 109.659 2.89934 -2.6708 0
M  V30 1233 H 110.947 4.0431 -3.08887 0
M  V30 1234 H 110.345 5.64669 -0.341427 0
M  V30 1235 H 108.902 6.4716 -0.776346 0
M  V30 1236 N 112.336 1.25143 0.95797 0
M  V30 1237 C 113.246 1.06968 2.08794 0
M  V30 1238 C 114.262 0.00773911 1.73998 0
M  V30 1239 O 115.438 0.207972 2.00323 0
M  V30 1240 C 112.503 0.68691 3.39827 0
M  V30 1241 C 111.564 1.82641 3.88511 0
M  V30 1242 C 110.797 1.46181 5.1329 0
M  V30 1243 O 111.02 0.355971 5.69288 0
M  V30 1244 O 109.954 2.29085 5.566 0
M  V30 1245 H 113.78 2.01723 2.27027 0
M  V30 1246 H 111.365 1.04051 1.07209 0
M  V30 1247 H 113.247 0.485417 4.18595 0
M  V30 1248 H 111.922 -0.231417 3.22872 0
M  V30 1249 H 110.829 2.08274 3.10762 0
M  V30 1250 H 112.162 2.72386 4.09959 0
M  V30 1251 N 113.814 -1.1601 1.06675 0
M  V30 1252 C 115.039 -1.91068 0.806706 0
M  V30 1253 C 115.464 -1.77112 -0.633485 0
M  V30 1254 O 114.822 -1.09908 -1.44187 0
M  V30 1255 C 114.87 -3.39655 1.21106 0
M  V30 1256 O 113.974 -4.10893 0.352189 0
M  V30 1257 H 113.315 -0.595125 0.294486 0
M  V30 1258 H 115.845 -1.46955 1.42356 0
M  V30 1259 H 115.855 -3.90434 1.18428 0
M  V30 1260 H 114.53 -3.49132 2.26008 0
M  V30 1261 H 113.107 -3.70285 0.440868 0
M  V30 1262 N 115.292 -0.849877 -1.32721 0
M  V30 1263 C 116.255 -0.296122 -2.27279 0
M  V30 1264 C 117.255 0.541458 -1.5141 0
M  V30 1265 O 118.445 0.353658 -1.70572 0
M  V30 1266 C 115.577 0.581579 -3.35902 0
M  V30 1267 H 116.77 -1.13064 -2.77771 0
M  V30 1268 H 114.323 -0.62383 -1.43311 0
M  V30 1269 H 115.058 1.43809 -2.9067 0
M  V30 1270 H 114.843 -0.0178814 -3.92096 0
M  V30 1271 H 116.333 0.961951 -4.0637 0
M  V30 1272 N 116.77 1.45427 -0.607355 0
M  V30 1273 C 117.733 2.28974 0.101693 0
M  V30 1274 C 118.733 1.39754 0.795329 0
M  V30 1275 O 119.923 1.61878 0.643527 0
M  V30 1276 C 117.055 3.20768 1.15414 0
M  V30 1277 H 118.248 2.93147 -0.632844 0
M  V30 1278 H 115.801 1.51945 -0.366391 0
M  V30 1279 H 116.536 2.61395 1.91945 0
M  V30 1280 H 116.321 3.86489 0.66098 0
M  V30 1281 H 117.811 3.83589 1.65073 0
M  V30 1282 N 118.248 0.346503 1.53744 0
M  V30 1283 C 119.664 -0.00530975 1.59599 0
M  V30 1284 C 119.864 -1.48465 1.36236 0
M  V30 1285 O 118.92 -2.24376 1.15808 0
M  V30 1286 C 120.233 0.433516 2.97559 0
M  V30 1287 C 121.781 0.386111 3.10609 0
M  V30 1288 C 122.256 0.800451 4.50951 0
M  V30 1289 N 123.747 0.754753 4.5701 0
M  V30 1290 C 124.482 1.04727 5.63755 0
M  V30 1291 N 123.978 1.4081 6.7834 0
M  V30 1292 N 125.771 0.971316 5.53644 0
M  V30 1293 H 117.922 1.31009 1.67184 0
M  V30 1294 H 120.185 0.534242 0.783128 0
M  V30 1295 H 119.891 1.46509 3.19731 0
M  V30 1296 H 119.765 -0.189753 3.76722 0
M  V30 1297 H 122.152 -0.636295 2.88158 0
M  V30 1298 H 122.233 1.04462 2.33498 0
M  V30 1299 H 121.877 1.82088 4.74137 0
M  V30 1300 H 121.807 0.119386 5.26465 0
M  V30 1301 H 124.298 0.488662 3.74727 0
M  V30 1302 H 124.611 1.61607 7.55714 0
M  V30 1303 H 122.956 1.44657 6.79779 0
M  V30 1304 H 126.147 0.688748 4.63005 0
M  V30 1305 H 126.32 1.20263 6.36742 0
M  V30 1306 N 119.726 -1.57421 0.075193 0
M  V30 1307 C 120.673 -2.12915 -0.890843 0
M  V30 1308 C 121.643 -1.04252 -1.29309 0
M  V30 1309 O 122.828 -1.31933 -1.37834 0
M  V30 1310 C 119.968 -2.69795 -2.15186 0
M  V30 1311 C 119.081 -3.92624 -1.80194 0
M  V30 1312 C 118.216 -4.37736 -3.00933 0
M  V30 1313 C 117.255 -5.53205 -2.61974 0
M  V30 1314 N 116.392 -5.9326 -3.75483 0
M  V30 1315 H 121.232 -2.95156 -0.410735 0
M  V30 1316 H 118.769 -1.45854 -0.191086 0
M  V30 1317 H 120.727 -3.00883 -2.89008 0
M  V30 1318 H 119.357 -1.90313 -2.60731 0
M  V30 1319 H 118.409 -3.67977 -0.964218 0
M  V30 1320 H 119.721 -4.76482 -1.47534 0
M  V30 1321 H 118.875 -4.70503 -3.8303 0
M  V30 1322 H 117.614 -3.52739 -3.36789 0
M  V30 1323 H 116.619 -5.20086 -1.783 0
M  V30 1324 H 117.844 -6.39936 -2.27284 0
M  V30 1325 H 115.79 -5.11212 -4.11094 0
M  V30 1326 H 115.707 -6.71865 -3.46602 0
M  V30 1327 H 116.975 -6.30651 -4.58148 0
M  V30 1328 N 121.204 0.198386 -1.56346 0
M  V30 1329 C 122.167 1.22952 -1.93431 0
M  V30 1330 C 123.167 1.38611 -0.815092 0
M  V30 1331 O 124.357 1.36479 -1.08255 0
M  V30 1332 C 121.489 2.59946 -2.20546 0
M  V30 1333 H 122.682 0.912626 -2.85677 0
M  V30 1334 H 120.235 0.43977 -1.49986 0
M  V30 1335 H 120.97 2.96696 -1.30927 0
M  V30 1336 H 120.755 2.49953 -3.02102 0
M  V30 1337 H 122.245 3.3431 -2.50253 0
M  V30 1338 N 122.682 1.50554 0.465978 0
M  V30 1339 C 123.612 1.72722 1.57128 0
M  V30 1340 C 124.593 0.576294 1.6004 0
M  V30 1341 O 125.778 0.81598 1.76225 0
M  V30 1342 C 122.908 1.82605 2.95419 0
M  V30 1343 C 121.862 2.97835 3.07373 0
M  V30 1344 C 121.188 2.92867 4.47363 0
M  V30 1345 C 122.488 4.38265 2.84114 0
M  V30 1346 H 124.182 2.65267 1.38829 0
M  V30 1347 H 121.728 1.2765 0.666441 0
M  V30 1348 H 123.681 1.96698 3.72677 0
M  V30 1349 H 122.405 0.866858 3.14886 0
M  V30 1350 H 121.064 2.83401 2.3255 0
M  V30 1351 H 120.712 1.94783 4.63755 0
M  V30 1352 H 120.412 3.70227 4.56296 0
M  V30 1353 H 121.936 3.09015 5.26633 0
M  V30 1354 H 123.35 4.53198 3.51118 0
M  V30 1355 H 121.747 5.17115 3.04487 0
M  V30 1356 H 122.817 4.50281 1.7993 0
M  V30 1357 N 124.16 -0.719506 1.40217 0
M  V30 1358 C 125.409 -1.47486 1.37589 0
M  V30 1359 C 125.722 -1.9559 -0.0201568 0
M  V30 1360 O 126.928 -2.70973 -0.169049 0
M  V30 1361 C 125.384 -2.66575 2.41796 0
M  V30 1362 C 124.992 -2.25358 3.87192 0
M  V30 1363 C 126.736 -3.4433 2.48269 0
M  V30 1364 C 124.643 -3.41262 4.83005 0
M  V30 1365 H 123.573 -0.553901 0.511576 0
M  V30 1366 H 126.224 -0.783427 1.65936 0
M  V30 1367 H 124.606 -3.3787 2.06543 0
M  V30 1368 H 125.78 -1.61509 4.31569 0
M  V30 1369 H 124.095 -1.60657 3.84159 0
M  V30 1370 H 126.692 -4.30569 3.17041 0
M  V30 1371 H 127.035 -3.87872 1.51198 0
M  V30 1372 H 127.568 -2.80076 2.82493 0
M  V30 1373 H 124.307 -3.02755 5.81394 0
M  V30 1374 H 123.827 -4.0404 4.43297 0
M  V30 1375 H 125.506 -4.07383 5.02641 0
M  V30 1376 N 125.638 -1.25649 -0.95132 0
M  V30 1377 C 126.601 -1.06399 -2.03007 0
M  V30 1378 C 127.601 -0.0156794 -1.60792 0
M  V30 1379 O 128.791 -0.25817 -1.72276 0
M  V30 1380 C 125.923 -0.616184 -3.35285 0
M  V30 1381 H 127.116 -2.02164 -2.21517 0
M  V30 1382 H 124.669 -1.08103 -1.12887 0
M  V30 1383 H 125.404 0.343917 -3.22471 0
M  V30 1384 H 125.189 -1.37301 -3.67275 0
M  V30 1385 H 126.679 -0.503032 -4.14559 0
M  V30 1386 N 127.117 1.15442 -1.07289 0
M  V30 1387 C 128.342 1.90638 -0.816828 0
M  V30 1388 C 128.767 1.77445 0.624083 0
M  V30 1389 O 128.125 1.10671 1.43602 0
M  V30 1390 C 128.173 3.39008 -1.22906 0
M  V30 1391 O 127.277 4.10701 -0.373975 0
M  V30 1392 H 126.618 0.593555 -0.297638 0
M  V30 1393 H 129.148 1.46198 -1.43134 0
M  V30 1394 H 129.158 3.89801 -1.20497 0
M  V30 1395 H 127.833 3.47929 -2.27856 0
M  V30 1396 H 126.41 3.70046 -0.460499 0
M  V30 1397 N 128.595 0.856903 1.32268 0
M  V30 1398 C 129.82 0.474569 2.01897 0
M  V30 1399 C 130.245 -0.921766 1.63967 0
M  V30 1400 O 129.603 -1.60589 0.84148 0
M  V30 1401 C 129.651 0.623799 3.55164 0
M  V30 1402 O 128.755 -0.342459 4.10976 0
M  V30 1403 H 128.096 0.190422 0.63611 0
M  V30 1404 H 130.626 1.15672 1.68764 0
M  V30 1405 H 130.636 0.512169 4.04773 0
M  V30 1406 H 129.311 1.64202 3.82113 0
M  V30 1407 H 127.888 -0.18688 3.72431 0
M  V30 1408 N 130.073 -1.45103 0.615059 0
M  V30 1409 C 131.303 -2.06254 0.119596 0
M  V30 1410 C 131.711 -1.4591 -1.20445 0
M  V30 1411 O 131.054 -0.570384 -1.7462 0
M  V30 1412 C 131.116 -3.59396 -0.0865591 0
M  V30 1413 C 130.78 -4.42116 1.15683 0
M  V30 1414 C 131.777 -4.7662 2.07676 0
M  V30 1415 C 129.462 -4.82749 1.38775 0
M  V30 1416 C 131.456 -5.50622 3.21082 0
M  V30 1417 C 129.143 -5.56504 2.52481 0
M  V30 1418 C 130.141 -5.90358 3.43463 0
M  V30 1419 O 129.829 -6.62615 4.55189 0
M  V30 1420 H 129.561 -0.672423 0.0694512 0
M  V30 1421 H 132.115 -1.87219 0.844885 0
M  V30 1422 H 130.345 -3.76859 -0.866823 0
M  V30 1423 H 132.034 -4.02365 -0.534555 0
M  V30 1424 H 132.8 -4.4578 1.91063 0
M  V30 1425 H 128.679 -4.55829 0.688545 0
M  V30 1426 H 132.223 -5.76965 3.92119 0
M  V30 1427 H 128.12 -5.86759 2.69043 0
M  V30 1428 H 128.888 -6.81071 4.53966 0
M  V30 1429 N 131.551 -0.354651 -1.53558 0
M  V30 1430 C 132.501 0.513179 -2.2215 0
M  V30 1431 C 133.485 1.05734 -1.21281 0
M  V30 1432 O 134.677 0.989202 -1.46778 0
M  V30 1433 C 131.806 1.65798 -3.00609 0
M  V30 1434 C 130.892 1.12722 -4.08845 0
M  V30 1435 N 131.283 0.318563 -5.04796 0
M  V30 1436 C 129.581 1.40307 -4.23356 0
M  V30 1437 C 130.282 0.0292224 -5.81693 0
M  V30 1438 N 129.258 0.623891 -5.40008 0
M  V30 1439 H 133.06 -0.111586 -2.93688 0
M  V30 1440 H 130.574 -0.162091 -1.61589 0
M  V30 1441 H 132.571 2.29176 -3.48258 0
M  V30 1442 H 131.231 2.28591 -2.306 0
M  V30 1443 H 132.242 -0.0413091 -5.17884 0
M  V30 1444 H 128.919 2.03458 -3.6457 0
M  V30 1445 H 130.309 -0.623808 -6.68998 0
M  V30 1446 N 133.029 1.57378 -0.0835403 0
M  V30 1447 C 134.44 1.81261 0.447358 0
M  V30 1448 C 134.791 0.998331 1.68902 0
M  V30 1449 O 133.916 0.224282 2.15235 0
M  V30 1450 C 134.511 3.28767 0.818386 0
M  V30 1451 C 133.07 3.53455 1.29409 0
M  V30 1452 C 132.217 2.75831 0.285024 0
M  V30 1453 H 135.168 1.5566 -0.309115 0
M  V30 1454 H 135.189 3.41459 1.67887 0
M  V30 1455 H 134.701 3.88006 -0.0855019 0
M  V30 1456 H 132.802 2.99534 2.21608 0
M  V30 1457 H 132.915 4.62128 1.2639 0
M  V30 1458 H 131.279 2.42947 0.764767 0
M  V30 1459 H 132.062 3.37813 -0.611341 0
M  V30 1460 N 134.507 -0.190092 1.56449 0
M  V30 1461 C 135.47 -1.21925 1.9408 0
M  V30 1462 C 136.47 -1.38176 0.822431 0
M  V30 1463 O 137.66 -1.35903 1.08977 0
M  V30 1464 C 134.792 -2.58773 2.21922 0
M  V30 1465 H 135.985 -0.897464 2.86157 0
M  V30 1466 H 133.538 -0.43181 1.50217 0
M  V30 1467 H 134.273 -2.95998 1.32499 0
M  V30 1468 H 134.058 -2.48348 3.03424 0
M  V30 1469 H 135.548 -3.32978 2.52022 0
M  V30 1470 N 135.985 -1.50799 -0.457987 0
M  V30 1471 C 137.401 -1.38515 -0.792819 0
M  V30 1472 C 137.601 -0.451409 -1.96379 0
M  V30 1473 O 136.657 0.10112 -2.52297 0
M  V30 1474 C 137.97 -2.80149 -1.09258 0
M  V30 1475 C 139.518 -2.89156 -1.19825 0
M  V30 1476 C 139.993 -4.31651 -1.53106 0
M  V30 1477 N 141.484 -4.34662 -1.60072 0
M  V30 1478 C 142.219 -5.41928 -1.87354 0
M  V30 1479 N 141.715 -6.59384 -2.12568 0
M  V30 1480 N 143.508 -5.29385 -1.88965 0
M  V30 1481 H 135.659 -2.10073 0.313511 0
M  V30 1482 H 137.922 -0.944803 0.0777862 0
M  V30 1483 H 137.628 -3.50374 -0.305084 0
M  V30 1484 H 137.502 -3.18204 -2.02549 0
M  V30 1485 H 139.889 -2.19141 -1.97639 0
M  V30 1486 H 139.97 -2.54626 -0.244821 0
M  V30 1487 H 139.614 -5.02208 -0.758266 0
M  V30 1488 H 139.544 -4.63678 -2.49621 0
M  V30 1489 H 142.035 -3.49973 -1.42573 0
M  V30 1490 H 142.348 -7.36934 -2.32696 0
M  V30 1491 H 140.693 -6.62535 -2.09933 0
M  V30 1492 H 143.884 -4.36616 -1.68772 0
M  V30 1493 H 144.057 -6.13066 -2.09891 0
M  V30 1494 N 137.463 0.71206 -1.40597 0
M  V30 1495 C 138.874 1.29135 -1.34837 0
M  V30 1496 C 139.225 1.96186 -0.0235395 0
M  V30 1497 O 138.35 1.97768 0.878444 0
M  V30 1498 C 138.945 2.34827 -2.44217 0
M  V30 1499 C 137.504 2.88371 -2.41907 0
M  V30 1500 C 136.651 1.62202 -2.24913 0
M  V30 1501 H 139.602 0.507944 -1.50352 0
M  V30 1502 H 139.623 3.15749 -2.12327 0
M  V30 1503 H 139.135 1.85996 -3.40627 0
M  V30 1504 H 137.236 3.41422 -1.49204 0
M  V30 1505 H 137.349 3.39925 -3.37621 0
M  V30 1506 H 135.713 1.874 -1.72492 0
M  V30 1507 H 136.496 1.15391 -3.23326 0
M  V30 1508 N 138.941 1.26152 0.944643 0
M  V30 1509 C 139.851 1.09176 2.07648 0
M  V30 1510 C 140.867 0.0261935 1.7398 0
M  V30 1511 O 142.043 0.229208 2.00091 0
M  V30 1512 C 139.108 0.722915 3.39079 0
M  V30 1513 C 138.169 1.86752 3.86552 0
M  V30 1514 C 137.402 1.51617 5.11711 0
M  V30 1515 O 137.625 0.416331 5.68879 0
M  V30 1516 O 136.559 2.34975 5.54139 0
M  V30 1517 H 140.385 2.0412 2.24875 0
M  V30 1518 H 137.97 1.05182 1.061 0
M  V30 1519 H 139.852 0.529787 4.18056 0
M  V30 1520 H 138.527 -0.197159 3.23099 0
M  V30 1521 H 137.434 2.11558 3.08535 0
M  V30 1522 H 138.767 2.76719 4.07047 0
M  V30 1523 N 140.419 -1.14872 1.07899 0
M  V30 1524 C 141.665 -1.86064 0.806725 0
M  V30 1525 C 141.998 -1.82434 -0.665706 0
M  V30 1526 O 141.273 -1.25138 -1.48899 0
M  V30 1527 C 141.556 -3.34929 1.32267 0
M  V30 1528 C 141.409 -3.47161 2.86006 0
M  V30 1529 C 142.728 -4.29863 0.943717 0
M  V30 1530 H 139.847 -0.675591 0.294526 0
M  V30 1531 H 142.489 -1.34925 1.33773 0
M  V30 1532 H 140.639 -3.78611 0.870974 0
M  V30 1533 H 142.311 -3.12302 3.39507 0
M  V30 1534 H 140.554 -2.88539 3.23925 0
M  V30 1535 H 141.225 -4.51777 3.17177 0
M  V30 1536 H 143.701 -3.9417 1.33302 0
M  V30 1537 H 142.577 -5.32494 1.33198 0
M  V30 1538 H 142.838 -4.41846 -0.149796 0
M  V30 1539 N 141.898 -0.863906 -1.31812 0
M  V30 1540 C 143.128 -0.485406 -2.00817 0
M  V30 1541 C 143.536 0.925007 -1.65046 0
M  V30 1542 O 142.879 1.61653 -0.872574 0
M  V30 1543 C 142.941 -0.555589 -3.55181 0
M  V30 1544 C 142.605 -1.92654 -4.14407 0
M  V30 1545 C 143.602 -2.89324 -4.31958 0
M  V30 1546 C 141.287 -2.2262 -4.50273 0
M  V30 1547 C 143.281 -4.14108 -4.84555 0
M  V30 1548 C 140.968 -3.47654 -5.02573 0
M  V30 1549 C 141.966 -4.43214 -5.19664 0
M  V30 1550 O 141.654 -5.66033 -5.70843 0
M  V30 1551 H 141.386 -0.188224 -0.649267 0
M  V30 1552 H 143.94 -1.16514 -1.69156 0
M  V30 1553 H 142.17 0.181037 -3.86276 0
M  V30 1554 H 143.859 -0.19138 -4.05449 0
M  V30 1555 H 144.625 -2.6748 -4.04573 0
M  V30 1556 H 140.504 -1.4902 -4.3625 0
M  V30 1557 H 144.048 -4.88703 -4.9781 0
M  V30 1558 H 139.945 -3.69345 -5.29391 0
M  V30 1559 H 140.713 -5.6812 -5.89222 0
M  V30 1560 N 143.376 1.44774 -0.622745 0
M  V30 1561 C 144.653 1.95522 -0.0551974 0
M  V30 1562 C 145.033 1.5649 1.41683 0
M  V30 1563 O 144.381 0.834848 2.12703 0
M  V30 1564 C 144.591 3.4796 -0.269242 0
M  V30 1565 C 145.939 4.24306 -0.158014 0
M  V30 1566 O 146.963 3.55637 -0.200162 0
M  V30 1567 O 145.822 5.46471 -0.0558693 0
M  V30 1568 H 142.916 0.826556 0.0271015 0
M  V30 1569 H 145.462 1.54866 -0.693864 0
M  V30 1570 H 144.234 3.6939 -1.29099 0
M  V30 1571 H 143.857 3.95543 0.403966 0
M  V30 1572 N 144.854 0.36279 1.53368 0
M  V30 1573 C 146.079 -0.231226 2.06107 0
M  V30 1574 C 146.504 -1.419 1.23474 0
M  V30 1575 O 145.862 -1.79524 0.253128 0
M  V30 1576 C 145.91 -0.605523 3.5548 0
M  V30 1577 O 145.014 -1.70312 3.7559 0
M  V30 1578 H 144.355 -0.034327 0.663112 0
M  V30 1579 H 146.885 0.522584 1.97814 0
M  V30 1580 H 146.895 -0.877314 3.98456 0
M  V30 1581 H 145.57 0.263004 4.15068 0
M  V30 1582 H 144.147 -1.4271 3.44512 0
M  V30 1583 N 146.332 -1.57332 0.0918853 0
M  V30 1584 C 147.262 -2.16872 -0.865371 0
M  V30 1585 C 148.243 -1.10118 -1.29646 0
M  V30 1586 O 149.428 -1.38242 -1.36392 0
M  V30 1587 C 146.558 -2.74649 -2.12569 0
M  V30 1588 C 145.512 -3.86747 -1.83333 0
M  V30 1589 C 144.838 -4.31212 -3.16166 0
M  V30 1590 C 146.138 -5.10089 -1.1228 0
M  V30 1591 H 147.832 -2.97114 -0.369307 0
M  V30 1592 H 145.378 -1.42918 -0.176194 0
M  V30 1593 H 147.331 -3.14952 -2.7997 0
M  V30 1594 H 146.055 -1.91657 -2.64452 0
M  V30 1595 H 144.714 -3.46978 -1.18331 0
M  V30 1596 H 144.362 -3.45115 -3.6593 0
M  V30 1597 H 144.062 -5.06788 -2.97388 0
M  V30 1598 H 145.586 -4.74146 -3.84731 0
M  V30 1599 H 147 -5.47582 -1.69785 0
M  V30 1600 H 145.397 -5.91073 -1.03693 0
M  V30 1601 H 146.467 -4.84786 -0.105041 0
M  V30 1602 N 147.81 0.181792 -1.56548 0
M  V30 1603 C 148.742 1.24956 -1.92142 0
M  V30 1604 C 149.755 1.41022 -0.813422 0
M  V30 1605 O 150.944 1.41212 -1.09186 0
M  V30 1606 C 148.044 2.61981 -2.14987 0
M  V30 1607 C 147.217 2.6735 -3.46183 0
M  V30 1608 C 146.276 3.85664 -3.5798 0
M  V30 1609 O 145.302 3.72148 -4.30691 0
M  V30 1610 N 146.504 5.01683 -2.92053 0
M  V30 1611 H 149.269 0.947329 -2.84334 0
M  V30 1612 H 146.83 0.371629 -1.57577 0
M  V30 1613 H 148.822 3.3958 -2.20154 0
M  V30 1614 H 147.392 2.84637 -1.2923 0
M  V30 1615 H 146.612 1.75925 -3.52766 0
M  V30 1616 H 147.9 2.67939 -4.32534 0
M  V30 1617 H 147.298 5.15564 -2.32832 0
M  V30 1618 H 145.855 5.77181 -3.0283 0
M  V30 1619 N 149.288 1.51039 0.449983 0
M  V30 1620 C 150.565 1.53612 1.21089 0
M  V30 1621 C 150.945 0.292997 2.09057 0
M  V30 1622 O 150.293 -0.72259 2.16774 0
M  V30 1623 C 150.503 2.84337 2.0237 0
M  V30 1624 C 151.851 3.35807 2.59843 0
M  V30 1625 O 152.875 2.85802 2.12593 0
M  V30 1626 O 151.734 4.23029 3.45989 0
M  V30 1627 H 148.828 0.617057 0.550608 0
M  V30 1628 H 151.374 1.63344 0.460082 0
M  V30 1629 H 150.146 3.66278 1.37681 0
M  V30 1630 H 149.769 2.77708 2.84542 0
M  V30 1631 N 150.766 -0.704594 1.40972 0
M  V30 1632 C 151.729 -1.80035 1.41845 0
M  V30 1633 C 152.729 -1.57774 0.310474 0
M  V30 1634 O 153.919 -1.64613 0.56992 0
M  V30 1635 C 151.051 -3.18284 1.22098 0
M  V30 1636 H 152.244 -1.80658 2.3938 0
M  V30 1637 H 149.797 -0.911329 1.26982 0
M  V30 1638 H 150.532 -3.23306 0.253672 0
M  V30 1639 H 150.317 -3.35843 2.02366 0
M  V30 1640 H 151.807 -3.98289 1.25522 0
M  V30 1641 N 152.244 -1.26651 -0.937939 0
M  V30 1642 C 153.207 -1.08546 -2.01867 0
M  V30 1643 C 154.207 -0.0327327 -1.60767 0
M  V30 1644 O 155.397 -0.276427 -1.71993 0
M  V30 1645 C 152.529 -0.651711 -3.34613 0
M  V30 1646 H 153.722 -2.04502 -2.1936 0
M  V30 1647 H 151.275 -1.09294 -1.11734 0
M  V30 1648 H 152.01 0.309696 -3.22818 0
M  V30 1649 H 151.795 -1.41189 -3.65798 0
M  V30 1650 H 153.285 -0.546973 -4.14002 0
M  V30 1651 N 153.722 1.14298 -1.08507 0
M  V30 1652 C 154.652 2.21542 -0.737646 0
M  V30 1653 C 155.633 1.67773 0.280377 0
M  V30 1654 O 156.818 1.93616 0.150521 0
M  V30 1655 C 153.948 3.46988 -0.147259 0
M  V30 1656 C 152.902 4.13789 -1.09374 0
M  V30 1657 C 152.228 5.33449 -0.365524 0
M  V30 1658 C 153.528 4.62208 -2.4323 0
M  V30 1659 H 155.222 2.5086 -1.6343 0
M  V30 1660 H 152.768 1.20576 -0.787243 0
M  V30 1661 H 154.721 4.21262 0.107808 0
M  V30 1662 H 153.445 3.17037 0.784538 0
M  V30 1663 H 152.104 3.4147 -1.33393 0
M  V30 1664 H 151.752 4.99759 0.57011 0
M  V30 1665 H 151.452 5.79088 -0.996512 0
M  V30 1666 H 152.976 6.10485 -0.118534 0
M  V30 1667 H 154.39 5.27952 -2.23472 0
M  V30 1668 H 152.787 5.18553 -3.02031 0
M  V30 1669 H 153.857 3.77224 -3.04681 0
M  V30 1670 N 155.201 0.870884 1.31352 0
M  V30 1671 C 156.164 0.332243 2.26779 0
M  V30 1672 C 157.164 -0.517302 1.52252 0
M  V30 1673 O 158.354 -0.326477 1.71113 0
M  V30 1674 C 155.486 -0.528066 3.36785 0
M  V30 1675 H 156.679 1.17469 2.75937 0
M  V30 1676 H 154.232 0.64655 1.423 0
M  V30 1677 H 154.967 -1.39167 2.92922 0
M  V30 1678 H 154.752 0.0802582 3.92018 0
M  V30 1679 H 156.242 -0.897179 4.07849 0
M  V30 1680 N 156.679 -1.44442 0.630414 0
M  V30 1681 C 158.09 -1.85434 0.217063 0
M  V30 1682 C 158.441 -1.52748 -1.23136 0
M  V30 1683 O 157.566 -0.965205 -1.93682 0
M  V30 1684 C 158.161 -3.36581 0.387168 0
M  V30 1685 C 156.72 -3.76389 0.0283297 0
M  V30 1686 C 155.867 -2.68296 0.700889 0
M  V30 1687 H 158.818 -1.34919 0.83562 0
M  V30 1688 H 158.839 -3.78657 -0.374086 0
M  V30 1689 H 158.351 -3.60339 1.44144 0
M  V30 1690 H 156.452 -3.58246 -1.02423 0
M  V30 1691 H 156.565 -4.77095 0.437892 0
M  V30 1692 H 154.929 -2.54335 0.136267 0
M  V30 1693 H 155.712 -2.94887 1.75774 0
M  V30 1694 N 158.157 -0.370918 -1.53173 0
M  V30 1695 C 159.067 0.480823 -2.2962 0
M  V30 1696 C 160.083 1.08789 -1.35798 0
M  V30 1697 O 161.259 1.09768 -1.68858 0
M  V30 1698 C 158.324 1.60227 -3.07454 0
M  V30 1699 C 157.385 1.0222 -4.16953 0
M  V30 1700 C 156.618 2.0902 -4.91066 0
M  V30 1701 O 156.841 3.30222 -4.65091 0
M  V30 1702 O 155.775 1.71778 -5.76867 0
M  V30 1703 H 159.601 -0.141421 -3.03371 0
M  V30 1704 H 157.186 -0.135146 -1.48787 0
M  V30 1705 H 159.068 2.25417 -3.56041 0
M  V30 1706 H 157.743 2.20982 -2.36535 0
M  V30 1707 H 156.65 0.334064 -3.72605 0
M  V30 1708 H 157.983 0.459131 -4.90054 0
M  V30 1709 N 159.635 1.57281 -0.100228 0
M  V30 1710 C 160.882 1.94537 0.562268 0
M  V30 1711 C 161.21 0.982315 1.67871 0
M  V30 1712 O 160.465 0.00280936 1.957 0
M  V30 1713 C 160.764 3.38305 1.15259 0
M  V30 1714 C 160.43 4.50618 0.159409 0
M  V30 1715 C 159.092 4.81066 -0.113741 0
M  V30 1716 C 161.444 5.18615 -0.518461 0
M  V30 1717 C 158.772 5.76835 -1.07137 0
M  V30 1718 C 161.124 6.15412 -1.46459 0
M  V30 1719 C 159.788 6.44262 -1.74592 0
M  V30 1720 H 159.058 0.711863 0.205748 0
M  V30 1721 H 161.705 1.90679 -0.17715 0
M  V30 1722 H 160.01 3.38766 1.96836 0
M  V30 1723 H 161.707 3.64435 1.67297 0
M  V30 1724 H 158.297 4.2689 0.382491 0
M  V30 1725 H 162.481 4.95264 -0.320581 0
M  V30 1726 H 157.737 5.975 -1.29628 0
M  V30 1727 H 161.911 6.67194 -1.99564 0
M  V30 1728 H 159.538 7.1828 -2.48953 0
M  V30 1729 N 161.113 -0.173488 1.56642 0
M  V30 1730 C 162.043 -1.2171 1.99271 0
M  V30 1731 C 163.024 -1.46289 0.867959 0
M  V30 1732 O 164.209 -1.5766 1.13388 0
M  V30 1733 C 161.339 -2.55651 2.35074 0
M  V30 1734 C 160.293 -2.45645 3.50489 0
M  V30 1735 C 159.619 -3.84056 3.72028 0
M  V30 1736 C 160.919 -1.96302 4.84007 0
M  V30 1737 H 162.613 -0.86275 2.867 0
M  V30 1738 H 160.159 -0.413571 1.37933 0
M  V30 1739 H 162.112 -3.2886 2.63494 0
M  V30 1740 H 160.836 -2.92869 1.44552 0
M  V30 1741 H 159.495 -1.7489 3.22194 0
M  V30 1742 H 159.143 -4.18664 2.788 0
M  V30 1743 H 158.843 -3.7823 4.49684 0
M  V30 1744 H 160.367 -4.58854 4.02846 0
M  V30 1745 H 161.781 -2.59284 5.11317 0
M  V30 1746 H 160.178 -2.01429 5.65284 0
M  V30 1747 H 161.248 -0.917226 4.76146 0
M  V30 1748 N 162.591 -1.51276 -0.441967 0
M  V30 1749 C 163.554 -1.7167 -1.51862 0
M  V30 1750 C 164.554 -0.586793 -1.49711 0
M  V30 1751 O 165.744 -0.854276 -1.51815 0
M  V30 1752 C 162.876 -1.76889 -2.91416 0
M  V30 1753 H 164.069 -2.67754 -1.35084 0
M  V30 1754 H 161.622 -1.41196 -0.670333 0
M  V30 1755 H 162.357 -0.826026 -3.13604 0
M  V30 1756 H 162.142 -2.59001 -2.94382 0
M  V30 1757 H 163.632 -1.94522 -3.69528 0
M  V30 1758 N 164.069 0.697108 -1.41344 0
M  V30 1759 C 165.315 1.4593 -1.40827 0
M  V30 1760 C 165.648 1.94193 -0.0167098 0
M  V30 1761 O 164.923 1.69425 0.955263 0
M  V30 1762 C 165.206 2.67229 -2.41373 0
M  V30 1763 C 165.059 2.24741 -3.8963 0
M  V30 1764 C 166.378 3.69423 -2.39196 0
M  V30 1765 H 163.497 0.529303 -0.512842 0
M  V30 1766 H 166.139 0.794112 -1.72609 0
M  V30 1767 H 164.289 3.23982 -2.14401 0
M  V30 1768 H 165.961 1.73327 -4.27499 0
M  V30 1769 H 164.204 1.56542 -4.0457 0
M  V30 1770 H 164.875 3.1177 -4.55525 0
M  V30 1771 H 167.351 3.2234 -2.63128 0
M  V30 1772 H 166.227 4.51907 -3.11563 0
M  V30 1773 H 166.488 4.19012 -1.41001 0
M  V30 1774 N 165.547 1.27147 0.931209 0
M  V30 1775 C 166.775 1.16082 1.71267 0
M  V30 1776 C 167.19 -0.282772 1.8667 0
M  V30 1777 O 166.547 -1.19283 1.38122 0
M  V30 1778 C 166.598 1.8358 3.11417 0
M  V30 1779 O 166.319 3.22299 2.96741 0
M  V30 1780 C 167.82 1.78597 4.05732 0
M  V30 1781 H 165.04 0.403758 0.535929 0
M  V30 1782 H 167.584 1.67953 1.16671 0
M  V30 1783 H 165.739 1.35623 3.62885 0
M  V30 1784 H 166.153 3.55851 3.85319 0
M  V30 1785 H 167.627 2.30444 5.01597 0
M  V30 1786 H 168.104 0.754564 4.3267 0
M  V30 1787 H 168.71 2.26152 3.60188 0
M  V30 1788 N 167.025 -1.13721 1.09112 0
M  V30 1789 C 167.935 -2.22638 0.73957 0
M  V30 1790 C 168.951 -1.72091 -0.257068 0
M  V30 1791 O 170.127 -2.01155 -0.0992154 0
M  V30 1792 C 167.192 -3.46322 0.16191 0
M  V30 1793 C 166.253 -4.11775 1.21408 0
M  V30 1794 C 165.486 -5.29555 0.663891 0
M  V30 1795 O 165.709 -5.68077 -0.514274 0
M  V30 1796 O 164.643 -5.84973 1.41738 0
M  V30 1797 H 168.469 -2.55074 1.64836 0
M  V30 1798 H 166.054 -1.21791 0.865289 0
M  V30 1799 H 167.936 -4.21107 -0.157073 0
M  V30 1800 H 166.611 -3.15593 -0.719932 0
M  V30 1801 H 165.518 -3.3883 1.58571 0
M  V30 1802 H 166.851 -4.46627 2.06845 0
M  V30 1803 N 168.503 -0.877838 -1.30888 0
M  V30 1804 C 169.733 -0.506678 -2.00291 0
M  V30 1805 C 170.141 0.907449 -1.66018 0
M  V30 1806 O 169.484 1.60719 -0.88967 0
M  V30 1807 C 169.546 -0.59323 -3.54572 0
M  V30 1808 C 169.21 -1.97038 -4.12341 0
M  V30 1809 C 170.207 -2.93889 -4.28865 0
M  V30 1810 C 167.892 -2.27383 -4.47886 0
M  V30 1811 C 169.886 -4.19224 -4.80136 0
M  V30 1812 C 167.573 -3.52965 -4.98857 0
M  V30 1813 C 168.571 -4.48701 -5.14934 0
M  V30 1814 O 168.259 -5.72056 -5.64808 0
M  V30 1815 H 167.991 -0.1951 -0.647234 0
M  V30 1816 H 170.545 -1.18301 -1.6791 0
M  V30 1817 H 168.775 0.140057 -3.86446 0
M  V30 1818 H 170.464 -0.234372 -4.05223 0
M  V30 1819 H 171.23 -2.71756 -4.01714 0
M  V30 1820 H 167.109 -1.53639 -4.34645 0
M  V30 1821 H 170.653 -4.93956 -4.92599 0
M  V30 1822 H 166.55 -3.74939 -5.25443 0
M  V30 1823 H 167.318 -5.74337 -5.83163 0
M  V30 1824 N 169.982 1.44106 -0.638065 0
M  V30 1825 C 171.207 2.0685 -0.150916 0
M  V30 1826 C 171.632 1.47417 1.16833 0
M  V30 1827 O 170.99 0.578264 1.71831 0
M  V30 1828 C 171.038 3.60555 -0.05708 0
M  V30 1829 O 170.142 4.00465 0.984972 0
M  V30 1830 H 169.483 0.658151 -0.0879399 0
M  V30 1831 H 172.013 1.84865 -0.876707 0
M  V30 1832 H 172.023 4.07789 0.131232 0
M  V30 1833 H 170.698 4.03193 -1.02021 0
M  V30 1834 H 169.275 3.64849 0.770672 0
M  V30 1835 N 171.46 0.379036 1.52974 0
M  V30 1836 C 172.706 -0.206727 2.01744 0
M  V30 1837 C 173.039 -1.47314 1.26539 0
M  V30 1838 O 172.314 -1.91084 0.362903 0
M  V30 1839 C 172.597 -0.485066 3.56818 0
M  V30 1840 C 172.45 0.795919 4.42702 0
M  V30 1841 C 173.769 -1.28003 4.21074 0
M  V30 1842 H 170.888 -0.0736607 0.73331 0
M  V30 1843 H 173.53 0.506581 1.83122 0
M  V30 1844 H 171.68 -1.09272 3.72816 0
M  V30 1845 H 173.352 1.43307 4.38476 0
M  V30 1846 H 171.595 1.41344 4.10127 0
M  V30 1847 H 172.266 0.555947 5.49193 0
M  V30 1848 H 174.742 -0.765867 4.08991 0
M  V30 1849 H 173.618 -1.44352 5.29579 0
M  V30 1850 H 173.879 -2.29236 3.78026 0
M  V30 1851 N 172.938 -1.57226 0.108567 0
M  V30 1852 C 174.163 -1.99604 -0.563303 0
M  V30 1853 C 174.588 -0.987563 -1.6009 0
M  V30 1854 O 173.946 0.0421687 -1.81251 0
M  V30 1855 C 173.994 -3.40902 -1.17552 0
M  V30 1856 O 173.098 -3.42896 -2.2912 0
M  V30 1857 H 172.439 -0.648704 -0.1417 0
M  V30 1858 H 174.969 -2.03679 0.193961 0
M  V30 1859 H 174.979 -3.78886 -1.51357 0
M  V30 1860 H 173.654 -4.1382 -0.415445 0
M  V30 1861 H 172.231 -3.1672 -1.96832 0
M  V30 1862 N 174.416 0.165178 -1.56732 0
M  V30 1863 C 175.827 0.727046 -1.71962 0
M  V30 1864 C 176.178 1.82508 -0.720078 0
M  V30 1865 O 175.303 2.16082 0.117242 0
M  V30 1866 C 175.898 1.32559 -3.11791 0
M  V30 1867 C 174.457 1.83422 -3.28684 0
M  V30 1868 C 173.604 0.715567 -2.67908 0
M  V30 1869 H 176.555 -0.0602896 -1.58585 0
M  V30 1870 H 176.576 2.19533 -3.10782 0
M  V30 1871 H 176.088 0.526195 -3.84516 0
M  V30 1872 H 174.189 2.65986 -2.60926 0
M  V30 1873 H 174.302 1.97543 -4.36478 0
M  V30 1874 H 172.666 1.13758 -2.27884 0
M  V30 1875 H 173.449 -0.0720836 -3.43224 0
M  V30 1876 N 175.894 1.51508 0.433938 0
M  V30 1877 C 177.171 1.54888 1.19453 0
M  V30 1878 C 177.551 0.315154 2.08734 0
M  V30 1879 O 176.899 -0.699558 2.17528 0
M  V30 1880 C 177.109 2.86467 1.99342 0
M  V30 1881 C 178.457 3.38545 2.56267 0
M  V30 1882 O 179.481 2.88041 2.0955 0
M  V30 1883 O 178.34 4.26675 3.41483 0
M  V30 1884 H 175.434 0.622863 0.544032 0
M  V30 1885 H 177.98 1.63823 0.442732 0
M  V30 1886 H 176.752 3.67718 1.33788 0
M  V30 1887 H 176.375 2.8071 2.8158 0
M  V30 1888 N 177.372 -0.689602 1.41712 0
M  V30 1889 C 178.335 -1.78521 1.43746 0
M  V30 1890 C 179.335 -1.57436 0.327191 0
M  V30 1891 O 180.525 -1.64 0.587348 0
M  V30 1892 C 177.657 -3.16971 1.25467 0
M  V30 1893 H 178.85 -1.78108 2.41283 0
M  V30 1894 H 176.403 -0.89781 1.27942 0
M  V30 1895 H 177.138 -3.23019 0.287948 0
M  V30 1896 H 176.923 -3.33678 2.05917 0
M  V30 1897 H 178.413 -3.96935 1.2974 0
M  V30 1898 N 178.85 -1.27639 -0.924453 0
M  V30 1899 C 180.127 -1.04887 -1.651 0
M  V30 1900 C 180.507 0.415327 -2.06974 0
M  V30 1901 O 179.855 1.39923 -1.80648 0
M  V30 1902 C 180.065 -2.01348 -2.85061 0
M  V30 1903 C 181.413 -2.30899 -3.56329 0
M  V30 1904 O 182.437 -1.99348 -2.95193 0
M  V30 1905 O 181.296 -2.84699 -4.66485 0
M  V30 1906 H 178.39 -0.400083 -0.723784 0
M  V30 1907 H 180.936 -1.38916 -0.974703 0
M  V30 1908 H 179.708 -3.0008 -2.51133 0
M  V30 1909 H 179.331 -1.679 -3.6041 0
M  V30 1910 N 180.328 1.1314 -1.09713 0
M  V30 1911 C 181.258 2.20748 -0.761102 0
M  V30 1912 C 182.239 1.68061 0.262566 0
M  V30 1913 O 183.424 1.93765 0.129977 0
M  V30 1914 C 180.554 3.46812 -0.184054 0
M  V30 1915 C 179.508 4.12606 -1.13757 0
M  V30 1916 C 178.834 5.33031 -0.422083 0
M  V30 1917 C 180.134 4.59603 -2.48118 0
M  V30 1918 H 181.828 2.49113 -1.66082 0
M  V30 1919 H 179.374 1.19734 -0.799987 0
M  V30 1920 H 181.327 4.21353 0.0631215 0
M  V30 1921 H 180.051 3.17851 0.750868 0
M  V30 1922 H 178.71 3.40036 -1.37007 0
M  V30 1923 H 178.358 5.00335 0.517072 0
M  V30 1924 H 178.058 5.77999 -1.05788 0
M  V30 1925 H 179.582 6.10325 -0.183277 0
M  V30 1926 H 180.996 5.25552 -2.29059 0
M  V30 1927 H 179.393 5.15321 -3.07514 0
M  V30 1928 H 180.463 3.73971 -3.08665 0
M  V30 1929 N 181.806 0.884767 1.30421 0
M  V30 1930 C 182.753 0.349642 2.28136 0
M  V30 1931 C 183.723 -0.560061 1.56373 0
M  V30 1932 O 184.908 -0.488524 1.8444 0
M  V30 1933 C 182.048 -0.42999 3.42411 0
M  V30 1934 C 181.161 0.508907 4.28992 0
M  V30 1935 C 180.296 -0.286301 5.30428 0
M  V30 1936 C 179.335 0.648079 6.08659 0
M  V30 1937 N 178.472 -0.111792 7.02011 0
M  V30 1938 H 183.312 1.18807 2.73293 0
M  V30 1939 H 180.849 0.597231 1.3443 0
M  V30 1940 H 182.807 -0.897923 4.07423 0
M  V30 1941 H 181.437 -1.23299 2.98324 0
M  V30 1942 H 180.489 1.09533 3.64289 0
M  V30 1943 H 181.801 1.22475 4.8353 0
M  V30 1944 H 180.955 -0.816098 6.01186 0
M  V30 1945 H 179.694 -1.03536 4.76583 0
M  V30 1946 H 178.699 1.18951 5.36778 0
M  V30 1947 H 179.924 1.39623 6.64592 0
M  V30 1948 H 177.87 -0.843395 6.50556 0
M  V30 1949 H 177.787 0.544429 7.54037 0
M  V30 1950 H 179.055 -0.622339 7.77012 0
M  V30 1951 N 183.284 -1.43765 0.645699 0
M  V30 1952 C 184.532 -2.01499 0.155731 0
M  V30 1953 C 184.853 -1.51151 -1.232 0
M  V30 1954 O 184.123 -0.721044 -1.82148 0
M  V30 1955 H 182.703 -0.745003 0.0545817 0
M  V30 1956 H 185.365 -1.76075 0.835677 0
M  V30 1957 H 184.461 -3.1181 0.134577 0
M  V30 1958 N 184.763 -0.387143 -1.52771 0
M  V30 1959 C 185.693 0.440551 -2.29306 0
M  V30 1960 C 186.674 1.06535 -1.32606 0
M  V30 1961 O 187.859 1.07853 -1.61497 0
M  V30 1962 C 184.989 1.56919 -3.09829 0
M  V30 1963 C 183.943 1.07054 -4.14395 0
M  V30 1964 C 183.269 2.29109 -4.83129 0
M  V30 1965 C 184.569 0.140015 -5.22112 0
M  V30 1966 H 186.263 -0.198026 -2.98744 0
M  V30 1967 H 183.809 -0.09668 -1.43675 0
M  V30 1968 H 185.762 2.15503 -3.62128 0
M  V30 1969 H 184.486 2.23532 -2.3812 0
M  V30 1970 H 183.145 0.507247 -3.63074 0
M  V30 1971 H 182.793 2.94227 -4.0797 0
M  V30 1972 H 182.493 1.96406 -5.53804 0
M  V30 1973 H 184.017 2.88339 -5.38231 0
M  V30 1974 H 185.431 0.633978 -5.69784 0
M  V30 1975 H 183.828 -0.0971485 -6.00021 0
M  V30 1976 H 184.898 -0.811711 -4.78058 0
M  V30 1977 N 186.241 1.57166 -0.116904 0
M  V30 1978 C 187.171 2.18222 0.830759 0
M  V30 1979 C 188.152 1.12167 1.27877 0
M  V30 1980 O 189.337 1.40394 1.34176 0
M  V30 1981 C 186.467 2.77996 2.08172 0
M  V30 1982 C 185.421 3.89614 1.77157 0
M  V30 1983 C 184.747 4.36187 3.09265 0
M  V30 1984 C 186.047 5.1181 1.04151 0
M  V30 1985 H 187.741 2.97664 0.321992 0
M  V30 1986 H 185.287 1.4318 0.153434 0
M  V30 1987 H 187.24 3.19366 2.74924 0
M  V30 1988 H 185.964 1.9584 2.6137 0
M  V30 1989 H 184.623 3.48816 1.12796 0
M  V30 1990 H 184.271 3.50893 3.60393 0
M  V30 1991 H 183.971 5.11455 2.89288 0
M  V30 1992 H 185.495 4.80207 3.77139 0
M  V30 1993 H 186.909 5.50214 1.61052 0
M  V30 1994 H 185.306 5.92648 0.942762 0
M  V30 1995 H 186.376 4.84892 0.0279022 0
M  V30 1996 N 187.719 -0.156864 1.56817 0
M  V30 1997 C 188.651 -1.21883 1.94106 0
M  V30 1998 C 189.664 -1.3971 0.835754 0
M  V30 1999 O 190.853 -1.39457 1.11418 0
M  V30 2000 C 187.953 -2.58527 2.19127 0
M  V30 2001 C 187.126 -2.61809 3.50393 0
M  V30 2002 C 186.185 -3.7992 3.64071 0
M  V30 2003 O 185.211 -3.65249 4.36557 0
M  V30 2004 N 186.413 -4.96973 2.99997 0
M  V30 2005 H 189.178 -0.901974 2.85805 0
M  V30 2006 H 186.739 -0.346513 1.58148 0
M  V30 2007 H 188.731 -3.36034 2.25529 0
M  V30 2008 H 187.301 -2.82545 1.33742 0
M  V30 2009 H 186.521 -1.7029 3.5552 0
M  V30 2010 H 187.809 -2.61024 4.36742 0
M  V30 2011 H 187.207 -5.11794 2.41004 0
M  V30 2012 H 185.764 -5.7229 3.11974 0
M  V30 2013 N 189.197 -1.51736 -0.425897 0
M  V30 2014 C 190.613 -1.40166 -0.76326 0
M  V30 2015 C 190.813 -0.492962 -1.95377 0
M  V30 2016 O 189.869 0.0475815 -2.52455 0
M  V30 2017 C 191.182 -2.82403 -1.03291 0
M  V30 2018 C 192.73 -2.91632 -1.13665 0
M  V30 2019 C 193.205 -4.34801 -1.43916 0
M  V30 2020 N 194.696 -4.3796 -1.50816 0
M  V30 2021 C 195.431 -5.4578 -1.75817 0
M  V30 2022 N 194.927 -6.63744 -1.98534 0
M  V30 2023 N 196.72 -5.33274 -1.77694 0
M  V30 2024 H 188.871 -2.09361 0.358 0
M  V30 2025 H 191.134 -0.942941 0.0978094 0
M  V30 2026 H 190.84 -3.50943 -0.230696 0
M  V30 2027 H 190.714 -3.22428 -1.95754 0
M  V30 2028 H 193.101 -2.23284 -1.92947 0
M  V30 2029 H 193.182 -2.55088 -0.190756 0
M  V30 2030 H 192.826 -5.03703 -0.65157 0
M  V30 2031 H 192.756 -4.68868 -2.39729 0
M  V30 2032 H 195.247 -3.52919 -1.35118 0
M  V30 2033 H 195.56 -7.41704 -2.17013 0
M  V30 2034 H 193.905 -6.66839 -1.95832 0
M  V30 2035 H 197.096 -4.40098 -1.59473 0
M  V30 2036 H 197.269 -6.1738 -1.9684 0
M  V30 2037 N 190.675 0.682077 -1.42076 0
M  V30 2038 C 191.605 1.80796 -1.47767 0
M  V30 2039 C 192.586 1.6677 -0.334954 0
M  V30 2040 O 193.771 1.863 -0.548264 0
M  V30 2041 C 190.901 3.19038 -1.37229 0
M  V30 2042 C 189.855 3.47789 -2.49453 0
M  V30 2043 C 189.181 4.8553 -2.23975 0
M  V30 2044 C 190.481 3.45411 -3.91776 0
M  V30 2045 H 192.175 1.7629 -2.41997 0
M  V30 2046 H 189.721 0.846721 -1.16476 0
M  V30 2047 H 191.674 3.97528 -1.39821 0
M  V30 2048 H 190.398 3.24204 -0.394907 0
M  V30 2049 H 189.057 2.71657 -2.46166 0
M  V30 2050 H 188.705 4.87337 -1.24547 0
M  V30 2051 H 188.405 5.0573 -2.99184 0
M  V30 2052 H 189.929 5.66312 -2.28304 0
M  V30 2053 H 191.343 4.13882 -3.96705 0
M  V30 2054 H 189.74 3.77145 -4.66778 0
M  V30 2055 H 190.81 2.44122 -4.18966 0
M  V30 2056 N 192.153 1.28127 0.917671 0
M  V30 2057 C 193.063 1.13556 2.05286 0
M  V30 2058 C 194.079 0.0630914 1.73886 0
M  V30 2059 O 195.255 0.271598 1.9956 0
M  V30 2060 C 192.32 0.794676 3.3747 0
M  V30 2061 C 191.381 1.94909 3.82504 0
M  V30 2062 C 190.614 1.62437 5.0838 0
M  V30 2063 O 190.837 0.536905 5.67867 0
M  V30 2064 O 189.771 2.46677 5.4903 0
M  V30 2065 H 193.597 2.08844 2.20495 0
M  V30 2066 H 191.182 1.07409 1.03845 0
M  V30 2067 H 193.064 0.618344 4.16839 0
M  V30 2068 H 191.739 -0.128581 3.23445 0
M  V30 2069 H 190.646 2.18055 3.03978 0
M  V30 2070 H 191.979 2.85291 4.01086 0
M  V30 2071 N 193.631 -1.12557 1.10312 0
M  V30 2072 C 194.859 -1.87864 0.866873 0
M  V30 2073 C 195.274 -1.79588 -0.582557 0
M  V30 2074 O 194.631 -1.16887 -1.40156 0
M  V30 2075 C 194.682 -3.37125 1.30496 0
M  V30 2076 O 194.403 -3.45201 2.69755 0
M  V30 2077 C 195.904 -4.29373 1.10243 0
M  V30 2078 H 193.124 -0.594452 0.311236 0
M  V30 2079 H 195.668 -1.42429 1.46745 0
M  V30 2080 H 193.823 -3.80109 0.748081 0
M  V30 2081 H 194.237 -4.38056 2.88457 0
M  V30 2082 H 195.711 -5.32394 1.45811 0
M  V30 2083 H 196.188 -4.39181 0.0409492 0
M  V30 2084 H 196.794 -3.92169 1.64571 0
M  V30 2085 N 195.109 -0.891671 -1.2995 0
M  V30 2086 C 196.355 -0.514261 -1.96171 0
M  V30 2087 C 196.688 0.935506 -1.70182 0
M  V30 2088 O 195.963 1.66204 -1.01028 0
M  V30 2089 C 196.246 -0.797719 -3.51153 0
M  V30 2090 C 196.099 -2.2986 -3.86632 0
M  V30 2091 C 197.418 -0.278749 -4.39216 0
M  V30 2092 H 194.537 -0.188314 -0.712535 0
M  V30 2093 H 197.179 -1.11689 -1.53706 0
M  V30 2094 H 195.329 -0.284826 -3.87455 0
M  V30 2095 H 197.001 -2.88042 -3.60319 0
M  V30 2096 H 195.244 -2.76257 -3.34462 0
M  V30 2097 H 195.915 -2.44753 -4.94773 0
M  V30 2098 H 198.391 -0.717825 -4.09862 0
M  V30 2099 H 197.267 -0.506353 -5.46559 0
M  V30 2100 H 197.528 0.820266 -4.34424 0
M  V30 2101 N 196.587 1.43421 -0.653314 0
M  V30 2102 C 197.812 2.06678 -0.172846 0
M  V30 2103 C 198.237 1.48648 1.15262 0
M  V30 2104 O 197.595 0.596457 1.71208 0
M  V30 2105 C 197.643 3.60474 -0.0953184 0
M  V30 2106 O 196.747 4.01487 0.942442 0
M  V30 2107 H 196.088 0.657181 -0.0949155 0
M  V30 2108 H 198.618 1.83925 -0.896265 0
M  V30 2109 H 198.628 4.07905 0.0879728 0
M  V30 2110 H 197.303 4.02088 -1.06291 0
M  V30 2111 H 195.88 3.65646 0.731932 0
M  V30 2112 N 198.065 0.39524 1.52563 0
M  V30 2113 C 198.975 -0.444232 2.30356 0
M  V30 2114 C 199.991 -1.06615 1.37511 0
M  V30 2115 O 201.167 -1.07067 1.70583 0
M  V30 2116 C 198.232 -1.55315 3.09964 0
M  V30 2117 C 197.293 -0.955734 4.18526 0
M  V30 2118 C 196.526 -2.01181 4.9433 0
M  V30 2119 O 196.749 -3.22781 4.70285 0
M  V30 2120 O 195.683 -1.62579 5.79527 0
M  V30 2121 H 199.509 0.189667 3.03107 0
M  V30 2122 H 197.094 0.1588 1.48554 0
M  V30 2123 H 198.976 -2.19724 3.59582 0
M  V30 2124 H 197.651 -2.17191 2.4002 0
M  V30 2125 H 196.558 -0.274743 3.7309 0
M  V30 2126 H 197.891 -0.381109 4.90722 0
M  V30 2127 N 199.544 -1.57102 0.125237 0
M  V30 2128 C 200.454 -2.19191 -0.8362 0
M  V30 2129 C 201.47 -1.16985 -1.28805 0
M  V30 2130 O 202.646 -1.49479 -1.34974 0
M  V30 2131 C 199.711 -2.78407 -2.06617 0
M  V30 2132 C 198.772 -3.9567 -1.66565 0
M  V30 2133 C 198.005 -4.52052 -2.83698 0
M  V30 2134 O 198.228 -4.07326 -3.99302 0
M  V30 2135 O 197.162 -5.42645 -2.60423 0
M  V30 2136 H 200.988 -3.01816 -0.337776 0
M  V30 2137 H 198.573 -1.4906 -0.100695 0
M  V30 2138 H 200.455 -3.16129 -2.7864 0
M  V30 2139 H 199.13 -1.9881 -2.55453 0
M  V30 2140 H 198.037 -3.62705 -0.916296 0
M  V30 2141 H 199.37 -4.76722 -1.22464 0
M  V30 2142 N 201.022 0.148545 -1.56898 0
M  V30 2143 C 201.969 1.18345 -1.98149 0
M  V30 2144 C 202.939 1.42772 -0.848848 0
M  V30 2145 O 204.124 1.55132 -1.11079 0
M  V30 2146 C 201.264 2.51231 -2.36594 0
M  V30 2147 C 200.377 2.33991 -3.63142 0
M  V30 2148 C 199.512 3.59902 -3.90697 0
M  V30 2149 C 198.551 3.37692 -5.1052 0
M  V30 2150 N 197.688 4.5573 -5.34092 0
M  V30 2151 H 202.528 0.82467 -2.86362 0
M  V30 2152 H 200.065 0.395756 -1.41676 0
M  V30 2153 H 202.023 3.28713 -2.56912 0
M  V30 2154 H 200.653 2.85059 -1.51463 0
M  V30 2155 H 199.705 1.47572 -3.50609 0
M  V30 2156 H 201.017 2.13539 -4.5078 0
M  V30 2157 H 200.171 4.45813 -4.11505 0
M  V30 2158 H 198.91 3.83357 -3.01477 0
M  V30 2159 H 197.915 2.5017 -4.89587 0
M  V30 2160 H 199.14 3.15637 -6.0129 0
M  V30 2161 H 197.086 4.79361 -4.47827 0
M  V30 2162 H 197.003 4.38274 -6.15996 0
M  V30 2163 H 198.271 5.42858 -5.59397 0
M  V30 2164 N 202.5 1.5196 0.417844 0
M  V30 2165 C 203.916 1.40569 0.755816 0
M  V30 2166 C 204.116 0.503316 1.95113 0
M  V30 2167 O 203.172 -0.0341925 2.52477 0
M  V30 2168 C 204.485 2.82947 1.01791 0
M  V30 2169 C 206.033 2.92231 1.12116 0
M  V30 2170 C 206.508 4.35559 1.41608 0
M  V30 2171 N 207.999 4.38753 1.48491 0
M  V30 2172 C 208.734 5.46705 1.7292 0
M  V30 2173 N 208.23 6.64788 1.95011 0
M  V30 2174 N 210.023 5.34209 1.74863 0
M  V30 2175 H 202.174 2.09168 -0.369098 0
M  V30 2176 H 204.437 0.942409 -0.102809 0
M  V30 2177 H 204.143 3.5106 0.212081 0
M  V30 2178 H 204.017 3.23462 1.94042 0
M  V30 2179 H 206.404 2.24304 1.9176 0
M  V30 2180 H 206.485 2.55185 0.177225 0
M  V30 2181 H 206.129 5.04042 0.624848 0
M  V30 2182 H 206.059 4.70133 2.37239 0
M  V30 2183 H 208.55 3.5363 1.33244 0
M  V30 2184 H 208.863 7.42845 2.13076 0
M  V30 2185 H 207.208 6.67869 1.92293 0
M  V30 2186 H 210.399 4.40937 1.57137 0
M  V30 2187 H 210.572 6.18415 1.93563 0
M  V30 2188 N 203.978 -0.674533 1.42435 0
M  V30 2189 C 205.227 -1.43034 1.42212 0
M  V30 2190 C 205.54 -1.95555 0.0420788 0
M  V30 2191 O 206.746 -2.71374 -0.0827558 0
M  V30 2192 C 205.202 -2.58748 2.50155 0
M  V30 2193 C 204.81 -2.12925 3.94166 0
M  V30 2194 C 206.554 -3.36257 2.59098 0
M  V30 2195 C 204.461 -3.25723 4.93618 0
M  V30 2196 H 203.391 -0.537345 0.528939 0
M  V30 2197 H 206.042 -0.73024 1.68344 0
M  V30 2198 H 204.424 -3.31128 2.17188 0
M  V30 2199 H 205.598 -1.47697 4.36488 0
M  V30 2200 H 203.913 -1.48354 3.89076 0
M  V30 2201 H 206.51 -4.20264 3.30578 0
M  V30 2202 H 206.853 -3.82866 1.63461 0
M  V30 2203 H 207.386 -2.70947 2.9126 0
M  V30 2204 H 204.125 -2.84105 5.90732 0
M  V30 2205 H 203.645 -3.89732 4.55926 0
M  V30 2206 H 205.324 -3.91186 5.15347 0
M  V30 2207 N 205.456 -1.28612 -0.910864 0
M  V30 2208 C 206.686 -1.1862 -1.69153 0
M  V30 2209 C 207.094 0.257324 -1.87442 0
M  V30 2210 O 206.437 1.18543 -1.40332 0
M  V30 2211 C 206.499 -1.81606 -3.10257 0
M  V30 2212 C 206.163 -3.30864 -3.15243 0
M  V30 2213 C 207.16 -4.27256 -2.96223 0
M  V30 2214 C 204.845 -3.71871 -3.37664 0
M  V30 2215 C 206.839 -5.62631 -2.99541 0
M  V30 2216 C 204.526 -5.07371 -3.40614 0
M  V30 2217 C 205.524 -6.02561 -3.21573 0
M  V30 2218 O 205.212 -7.35589 -3.2429 0
M  V30 2219 H 204.944 -0.412633 -0.535453 0
M  V30 2220 H 207.498 -1.70306 -1.14827 0
M  V30 2221 H 205.728 -1.24418 -3.66138 0
M  V30 2222 H 207.417 -1.66092 -3.70362 0
M  V30 2223 H 208.183 -3.9691 -2.78725 0
M  V30 2224 H 204.062 -2.98241 -3.5153 0
M  V30 2225 H 207.606 -6.36907 -2.84597 0
M  V30 2226 H 203.503 -5.37366 -3.57642 0
M  V30 2227 H 204.271 -7.44252 -3.40633 0
M  V30 2228 N 206.934 1.1197 -1.10907 0
M  V30 2229 C 208.35 1.35591 -0.841852 0
M  V30 2230 C 208.55 1.94233 0.536246 0
M  V30 2231 O 207.606 2.1717 1.28816 0
M  V30 2232 C 208.919 2.29284 -1.94549 0
M  V30 2233 C 210.467 2.42862 -1.97451 0
M  V30 2234 C 210.942 3.39873 -3.07002 0
M  V30 2235 N 212.433 3.47433 -3.06341 0
M  V30 2236 C 213.168 4.22421 -3.87748 0
M  V30 2237 N 212.664 5.00432 -4.79103 0
M  V30 2238 N 214.457 4.17876 -3.75946 0
M  V30 2239 H 206.608 0.722664 -1.99728 0
M  V30 2240 H 208.871 0.380635 -0.868229 0
M  V30 2241 H 208.577 1.93378 -2.93765 0
M  V30 2242 H 208.451 3.29452 -1.83688 0
M  V30 2243 H 210.838 2.78046 -0.988645 0
M  V30 2244 H 210.919 1.42566 -2.12388 0
M  V30 2245 H 210.563 3.05417 -4.05811 0
M  V30 2246 H 210.493 4.40011 -2.89306 0
M  V30 2247 H 212.984 2.91784 -2.40147 0
M  V30 2248 H 213.297 5.55002 -5.37766 0
M  V30 2249 H 211.642 4.99612 -4.83128 0
M  V30 2250 H 214.833 3.56016 -3.03924 0
M  V30 2251 H 215.006 4.76061 -4.39624 0
M  V30 2252 N 208.412 0.89855 1.29475 0
M  V30 2253 C 209.658 0.524658 1.95896 0
M  V30 2254 C 209.991 -0.926468 1.70676 0
M  V30 2255 O 209.266 -1.65665 1.01908 0
M  V30 2256 C 209.549 0.81633 3.50725 0
M  V30 2257 C 209.402 2.31907 3.85408 0
M  V30 2258 C 210.721 0.302038 4.39062 0
M  V30 2259 H 207.84 0.19209 0.711527 0
M  V30 2260 H 210.482 1.12502 1.53112 0
M  V30 2261 H 208.632 0.305369 3.87298 0
M  V30 2262 H 210.304 2.89949 3.58786 0
M  V30 2263 H 208.547 2.78027 3.32992 0
M  V30 2264 H 209.218 2.47373 4.93468 0
M  V30 2265 H 211.694 0.739551 4.09475 0
M  V30 2266 H 210.57 0.535331 5.46283 0
M  V30 2267 H 210.831 -0.797216 4.34853 0
M  V30 2268 N 209.89 -1.43072 0.660911 0
M  V30 2269 C 211.301 -1.84932 0.256348 0
M  V30 2270 C 211.652 -1.55325 -1.19868 0
M  V30 2271 O 210.777 -1.00607 -1.91591 0
M  V30 2272 C 211.372 -3.35684 0.458475 0
M  V30 2273 C 209.931 -3.76245 0.108161 0
M  V30 2274 C 209.078 -2.66749 0.757641 0
M  V30 2275 H 212.029 -1.33116 0.864051 0
M  V30 2276 H 212.05 -3.79365 -0.293683 0
M  V30 2277 H 211.562 -3.572 1.51755 0
M  V30 2278 H 209.663 -3.60338 -0.948014 0
M  V30 2279 H 209.776 -4.76058 0.538992 0
M  V30 2280 H 208.14 -2.53989 0.190185 0
M  V30 2281 H 208.923 -2.91092 1.81989 0
M  V30 2282 N 211.368 -0.403325 -1.52352 0
M  V30 2283 C 212.614 0.174605 -2.02047 0
M  V30 2284 C 212.947 1.45282 -1.28867 0
M  V30 2285 O 212.222 1.90483 -0.393257 0
M  V30 2286 C 212.505 0.428238 -3.57545 0
M  V30 2287 C 212.358 -0.866248 -4.4138 0
M  V30 2288 C 213.677 1.21287 -4.23057 0
M  V30 2289 H 210.796 0.0619851 -0.734389 0
M  V30 2290 H 213.438 -0.53565 -1.82293 0
M  V30 2291 H 211.588 1.03327 -3.74507 0
M  V30 2292 H 213.26 -1.50265 -4.3614 0
M  V30 2293 H 211.503 -1.47851 -4.07827 0
M  V30 2294 H 212.174 -0.643249 -5.48239 0
M  V30 2295 H 214.65 0.700703 -4.10158 0
M  V30 2296 H 213.526 1.35909 -5.31808 0
M  V30 2297 H 213.787 2.23193 -3.81625 0
M  V30 2298 N 212.846 1.57033 -0.133567 0
M  V30 2299 C 214.093 1.95686 0.520877 0
M  V30 2300 C 214.421 1.0177 1.6575 0
M  V30 2301 O 213.676 0.0443195 1.9565 0
M  V30 2302 C 213.975 3.40674 1.08057 0
M  V30 2303 C 213.641 4.50855 0.0637899 0
M  V30 2304 C 212.303 4.80716 -0.215757 0
M  V30 2305 C 214.655 5.17398 -0.62835 0
M  V30 2306 C 211.983 5.74433 -1.19348 0
M  V30 2307 C 214.335 6.12167 -1.5948 0
M  V30 2308 C 212.999 6.40414 -1.88218 0
M  V30 2309 H 212.269 0.716067 0.190602 0
M  V30 2310 H 214.916 1.9026 -0.217556 0
M  V30 2311 H 213.221 3.42865 1.89606 0
M  V30 2312 H 214.918 3.67902 1.59529 0
M  V30 2313 H 211.508 4.27605 0.291855 0
M  V30 2314 H 215.692 4.94472 -0.425562 0
M  V30 2315 H 210.948 5.94616 -1.42272 0
M  V30 2316 H 215.122 6.6281 -2.13671 0
M  V30 2317 H 212.749 7.12838 -2.64133 0
M  V30 2318 N 214.325 -0.140222 1.56975 0
M  V30 2319 C 215.553 -0.866437 1.87884 0
M  V30 2320 C 215.968 -1.74428 0.722517 0
M  V30 2321 O 215.325 -1.79891 -0.30749 0
M  V30 2322 C 215.376 -1.71753 3.18093 0
M  V30 2323 O 215.097 -0.875056 4.29272 0
M  V30 2324 C 216.598 -2.55074 3.62563 0
M  V30 2325 H 213.818 -0.25019 0.622612 0
M  V30 2326 H 216.362 -0.130977 2.0408 0
M  V30 2327 H 214.517 -2.40598 3.03631 0
M  V30 2328 H 214.931 -1.46002 5.03769 0
M  V30 2329 H 216.405 -3.10356 4.5649 0
M  V30 2330 H 216.882 -3.31434 2.88181 0
M  V30 2331 H 217.488 -1.91509 3.79743 0
M  V30 2332 N 215.803 -1.52179 -0.40978 0
M  V30 2333 C 216.766 -1.74853 -1.48186 0
M  V30 2334 C 217.766 -0.618417 -1.48433 0
M  V30 2335 O 218.956 -0.886286 -1.49969 0
M  V30 2336 C 216.088 -1.8303 -2.87598 0
M  V30 2337 H 217.281 -2.70559 -1.29374 0
M  V30 2338 H 214.834 -1.42586 -0.640233 0
M  V30 2339 H 215.569 -0.89236 -3.11781 0
M  V30 2340 H 215.354 -2.65187 -2.88822 0
M  V30 2341 H 216.844 -2.02316 -3.65319 0
M  V30 2342 N 217.281 0.66697 -1.42791 0
M  V30 2343 C 218.692 1.2478 -1.38877 0
M  V30 2344 C 219.043 1.96012 -0.0859426 0
M  V30 2345 O 218.168 2.00463 0.815081 0
M  V30 2346 C 218.763 2.26938 -2.51564 0
M  V30 2347 C 217.322 2.80529 -2.50959 0
M  V30 2348 C 216.469 1.54965 -2.29959 0
M  V30 2349 H 219.42 0.459853 -1.51892 0
M  V30 2350 H 219.441 3.08834 -2.22265 0
M  V30 2351 H 218.953 1.75065 -3.46372 0
M  V30 2352 H 217.054 3.36502 -1.59991 0
M  V30 2353 H 217.167 3.29012 -3.48265 0
M  V30 2354 H 215.531 1.81817 -1.78366 0
M  V30 2355 H 216.314 1.05047 -3.26833 0
M  V30 2356 N 218.759 1.29093 0.90403 0
M  V30 2357 C 220.006 1.16813 1.65411 0
M  V30 2358 C 220.334 -0.28128 1.92455 0
M  V30 2359 O 219.589 -1.22006 1.53013 0
M  V30 2360 C 219.888 1.92224 3.01305 0
M  V30 2361 C 219.554 3.41968 2.93885 0
M  V30 2362 C 218.216 3.82807 2.91569 0
M  V30 2363 C 220.568 4.37409 2.83413 0
M  V30 2364 C 217.896 5.1741 2.76594 0
M  V30 2365 C 220.248 5.72097 2.69977 0
M  V30 2366 C 218.912 6.12199 2.66024 0
M  V30 2367 H 218.182 0.42745 0.605283 0
M  V30 2368 H 220.829 1.59981 1.05254 0
M  V30 2369 H 219.134 1.41635 3.65304 0
M  V30 2370 H 220.831 1.80131 3.58265 0
M  V30 2371 H 217.421 3.09504 2.96488 0
M  V30 2372 H 221.605 4.06813 2.84283 0
M  V30 2373 H 216.861 5.47596 2.71935 0
M  V30 2374 H 221.035 6.45704 2.60844 0
M  V30 2375 H 218.662 7.16448 2.54178 0
M  V30 2376 N 220.237 -1.11381 1.11499 0
M  V30 2377 C 221.477 -1.84763 0.874188 0
M  V30 2378 C 221.841 -1.82726 -0.589496 0
M  V30 2379 O 223.042 -2.51562 -0.947089 0
M  V30 2380 C 221.313 -3.27931 1.42112 0
M  V30 2381 S 222.872 -4.18557 1.31739 0
M  V30 2382 H 219.69 -0.637115 0.315603 0
M  V30 2383 H 222.292 -1.34097 1.42261 0
M  V30 2384 H 220.996 -3.26978 2.48019 0
M  V30 2385 H 220.527 -3.83665 0.869761 0
M  V30 2386 H 222.542 -4.95396 0.282335 0
M  V30 2387 N 221.715 -0.905404 -1.28997 0
M  V30 2388 C 222.647 -0.344748 -2.26592 0
M  V30 2389 C 223.66 0.512135 -1.54535 0
M  V30 2390 O 224.849 0.328368 -1.75454 0
M  V30 2391 C 221.949 0.526587 -3.34784 0
M  V30 2392 C 221.122 -0.305871 -4.36329 0
M  V30 2393 C 220.181 0.499209 -5.23827 0
M  V30 2394 O 219.207 -0.0853004 -5.69136 0
M  V30 2395 N 220.409 1.80408 -5.51755 0
M  V30 2396 H 223.174 -1.18359 -2.75338 0
M  V30 2397 H 220.735 -0.770481 -1.42391 0
M  V30 2398 H 222.727 1.07171 -3.90252 0
M  V30 2399 H 221.297 1.26613 -2.85811 0
M  V30 2400 H 220.517 -1.0324 -3.80441 0
M  V30 2401 H 221.805 -0.875773 -5.01206 0
M  V30 2402 H 221.203 2.3016 -5.16762 0
M  V30 2403 H 219.76 2.29621 -6.10014 0
M  V30 2404 N 223.193 1.4272 -0.668489 0
M  V30 2405 C 224.156 2.292 0.00448567 0
M  V30 2406 C 225.156 1.43001 0.735339 0
M  V30 2407 O 226.346 1.64461 0.57429 0
M  V30 2408 C 223.478 3.25375 1.01705 0
M  V30 2409 H 224.671 2.90199 -0.756608 0
M  V30 2410 H 222.224 1.50254 -0.430506 0
M  V30 2411 H 222.959 2.69301 1.80686 0
M  V30 2412 H 222.744 3.88944 0.496463 0
M  V30 2413 H 224.234 3.90245 1.48655 0
M  V30 2414 N 224.671 0.411399 1.52136 0
M  V30 2415 C 225.601 -0.404015 2.29978 0
M  V30 2416 C 226.582 -1.04412 1.34284 0
M  V30 2417 O 227.767 -1.0527 1.63192 0
M  V30 2418 C 224.897 -1.5197 3.12286 0
M  V30 2419 C 223.851 -1.00448 4.16046 0
M  V30 2420 C 223.177 -2.21393 4.86712 0
M  V30 2421 C 224.477 -0.0569336 5.22269 0
M  V30 2422 H 226.171 0.245529 2.98392 0
M  V30 2423 H 223.717 0.119525 1.43503 0
M  V30 2424 H 225.67 -2.09715 3.6551 0
M  V30 2425 H 224.394 -2.19716 2.41646 0
M  V30 2426 H 223.053 -0.449421 3.63835 0
M  V30 2427 H 222.701 -2.87699 4.12599 0
M  V30 2428 H 222.401 -1.87571 5.56858 0
M  V30 2429 H 223.925 -2.7974 5.4275 0
M  V30 2430 H 225.339 -0.54325 5.7072 0
M  V30 2431 H 223.736 0.192594 5.99791 0
M  V30 2432 H 224.806 0.887663 4.76706 0
M  V30 2433 N 226.149 -1.5696 0.141893 0
M  V30 2434 C 227.079 -2.19516 -0.795936 0
M  V30 2435 C 228.06 -1.14187 -1.26077 0
M  V30 2436 O 229.245 -1.42511 -1.31925 0
M  V30 2437 C 226.375 -2.81272 -2.03723 0
M  V30 2438 C 225.329 -3.92384 -1.70936 0
M  V30 2439 C 224.655 -4.41052 -3.02287 0
M  V30 2440 C 225.955 -5.13403 -0.959954 0
M  V30 2441 H 227.649 -2.98138 -0.274596 0
M  V30 2442 H 225.195 -1.43406 -0.130636 0
M  V30 2443 H 227.148 -3.237 -2.69808 0
M  V30 2444 H 225.872 -1.99973 -2.58221 0
M  V30 2445 H 224.531 -3.50566 -1.07232 0
M  V30 2446 H 224.179 -3.56582 -3.54765 0
M  V30 2447 H 223.879 -5.15993 -2.81114 0
M  V30 2448 H 225.403 -4.86146 -3.69451 0
M  V30 2449 H 226.817 -5.52706 -1.52279 0
M  V30 2450 H 225.214 -5.94073 -0.848357 0
M  V30 2451 H 226.284 -4.84875 0.0492434 0
M  V30 2452 N 227.627 0.131896 -1.57047 0
M  V30 2453 C 228.537 1.1815 -2.02676 0
M  V30 2454 C 229.553 1.46113 -0.944824 0
M  V30 2455 O 230.729 1.57485 -1.25541 0
M  V30 2456 C 227.794 2.49139 -2.41103 0
M  V30 2457 C 226.855 2.28688 -3.63318 0
M  V30 2458 C 226.088 3.53431 -3.99903 0
M  V30 2459 O 226.311 4.60223 -3.36973 0
M  V30 2460 O 225.245 3.45198 -4.93074 0
M  V30 2461 H 229.071 0.824069 -2.92306 0
M  V30 2462 H 226.656 0.341745 -1.45439 0
M  V30 2463 H 228.538 3.26338 -2.66611 0
M  V30 2464 H 227.213 2.84382 -1.54624 0
M  V30 2465 H 226.12 1.4939 -3.42977 0
M  V30 2466 H 227.453 1.98355 -4.50462 0
M  V30 2467 N 229.106 1.52395 0.401703 0
M  V30 2468 C 230.016 1.7917 1.51444 0
M  V30 2469 C 231.032 0.677691 1.6026 0
M  V30 2470 O 232.208 0.963909 1.76835 0
M  V30 2471 C 229.273 1.94347 2.87107 0
M  V30 2472 C 228.334 3.18257 2.88116 0
M  V30 2473 C 227.567 3.32701 4.17308 0
M  V30 2474 O 227.79 2.52238 5.11598 0
M  V30 2475 O 226.724 4.25891 4.25324 0
M  V30 2476 H 230.55 2.73633 1.31752 0
M  V30 2477 H 228.135 1.3733 0.588296 0
M  V30 2478 H 230.017 2.06109 3.67555 0
M  V30 2479 H 228.692 1.03073 3.06851 0
M  V30 2480 H 227.599 3.11947 2.06494 0
M  V30 2481 H 228.932 4.09336 2.73322 0
M  V30 2482 N 230.584 -0.659388 1.43143 0
M  V30 2483 C 231.514 -1.78422 1.50625 0
M  V30 2484 C 232.495 -1.66216 0.361443 0
M  V30 2485 O 233.68 -1.85404 0.577834 0
M  V30 2486 C 230.81 -3.16815 1.42287 0
M  V30 2487 C 229.764 -3.43777 2.54954 0
M  V30 2488 C 229.09 -4.81905 2.31671 0
M  V30 2489 C 230.39 -3.39134 3.97222 0
M  V30 2490 H 232.084 -1.72417 2.44771 0
M  V30 2491 H 229.63 -0.828084 1.17808 0
M  V30 2492 H 231.583 -3.95253 1.46127 0
M  V30 2493 H 230.307 -3.23534 0.446435 0
M  V30 2494 H 228.966 -2.67707 2.50457 0
M  V30 2495 H 228.614 -4.85294 1.32284 0
M  V30 2496 H 228.314 -5.00906 3.07192 0
M  V30 2497 H 229.838 -5.62609 2.37284 0
M  V30 2498 H 231.252 -4.07518 4.03239 0
M  V30 2499 H 229.649 -3.69671 4.72719 0
M  V30 2500 H 230.719 -2.37426 4.22797 0
M  V30 2501 N 232.062 -1.29571 -0.897171 0
M  V30 2502 C 232.972 -1.16808 -2.03453 0
M  V30 2503 C 233.988 -0.0907471 -1.73763 0
M  V30 2504 O 235.164 -0.303312 -1.99103 0
M  V30 2505 C 232.229 -0.848264 -3.36163 0
M  V30 2506 C 231.29 -2.0097 -3.79354 0
M  V30 2507 C 230.523 -1.70505 -5.05731 0
M  V30 2508 O 230.746 -0.62718 -5.66941 0
M  V30 2509 O 229.68 -2.5538 -5.45036 0
M  V30 2510 H 233.506 -2.12325 -2.17144 0
M  V30 2511 H 231.091 -1.09047 -1.02123 0
M  V30 2512 H 232.973 -0.684581 -4.15802 0
M  V30 2513 H 231.648 0.0771071 -3.23608 0
M  V30 2514 H 230.555 -2.22863 -3.00471 0
M  V30 2515 H 231.888 -2.91636 -3.96496 0
M  V30 2516 N 233.54 1.10788 -1.12088 0
M  V30 2517 C 234.49 2.15158 -0.754401 0
M  V30 2518 C 235.474 1.59026 0.244846 0
M  V30 2519 O 236.666 1.76927 0.0509097 0
M  V30 2520 C 233.795 3.42677 -0.206657 0
M  V30 2521 C 232.881 4.05751 -1.23398 0
M  V30 2522 N 233.272 4.43582 -2.43041 0
M  V30 2523 C 231.57 4.32764 -1.07848 0
M  V30 2524 C 232.271 4.93085 -3.08613 0
M  V30 2525 N 231.247 4.89664 -2.36072 0
M  V30 2526 H 235.049 2.42195 -1.6649 0
M  V30 2527 H 232.563 1.27872 -1.00112 0
M  V30 2528 H 234.56 4.16834 0.0740646 0
M  V30 2529 H 233.22 3.17101 0.698342 0
M  V30 2530 H 234.231 4.35395 -2.80449 0
M  V30 2531 H 230.908 4.16863 -0.230483 0
M  V30 2532 H 232.298 5.31933 -4.10483 0
M  V30 2533 N 235.018 0.912232 1.28515 0
M  V30 2534 C 236.265 0.544599 1.95039 0
M  V30 2535 C 236.593 -0.911435 1.71823 0
M  V30 2536 O 235.848 -1.66317 1.03137 0
M  V30 2537 C 236.147 0.798392 3.48368 0
M  V30 2538 C 235.813 2.23374 3.91682 0
M  V30 2539 C 234.475 2.62617 4.03219 0
M  V30 2540 C 236.827 3.16786 4.13879 0
M  V30 2541 C 234.155 3.94429 4.3433 0
M  V30 2542 C 236.507 4.48161 4.46469 0
M  V30 2543 C 235.171 4.8726 4.56217 0
M  V30 2544 H 234.441 0.199283 0.7137 0
M  V30 2545 H 237.088 1.15327 1.52879 0
M  V30 2546 H 235.393 0.106908 3.91654 0
M  V30 2547 H 237.09 0.493141 3.97956 0
M  V30 2548 H 233.68 1.91922 3.83228 0
M  V30 2549 H 237.864 2.87677 4.0442 0
M  V30 2550 H 233.12 4.24426 4.40082 0
M  V30 2551 H 237.294 5.20559 4.62592 0
M  V30 2552 H 234.921 5.89431 4.80078 0
M  V30 2553 N 236.496 -1.42363 0.676048 0
M  V30 2554 C 237.406 -2.346 -0.00153389 0
M  V30 2555 C 238.422 -1.5516 -0.787485 0
M  V30 2556 O 239.598 -1.87723 -0.729521 0
M  V30 2557 C 236.663 -3.33705 -0.940298 0
M  V30 2558 C 235.724 -4.29042 -0.148739 0
M  V30 2559 C 234.957 -5.23413 -1.04279 0
M  V30 2560 O 235.18 -5.22749 -2.28232 0
M  V30 2561 O 234.114 -5.99795 -0.502925 0
M  V30 2562 H 237.94 -2.94082 0.758268 0
M  V30 2563 H 235.525 -1.42888 0.436289 0
M  V30 2564 H 237.407 -3.94586 -1.47917 0
M  V30 2565 H 236.082 -2.76695 -1.67993 0
M  V30 2566 H 234.989 -3.71571 0.43427 0
M  V30 2567 H 236.322 -4.89097 0.551805 0
M  V30 2568 N 237.974 -0.419461 -1.51915 0
M  V30 2569 C 238.906 0.43646 -2.25006 0
M  V30 2570 C 239.919 1.00149 -1.28351 0
M  V30 2571 O 241.108 0.898674 -1.54227 0
M  V30 2572 C 238.208 1.6206 -2.9764 0
M  V30 2573 C 237.381 1.17763 -4.21249 0
M  V30 2574 C 236.44 2.22985 -4.76617 0
M  V30 2575 O 235.466 1.83151 -5.38929 0
M  V30 2576 N 236.668 3.55271 -4.59089 0
M  V30 2577 H 239.433 -0.18989 -2.99098 0
M  V30 2578 H 236.994 -0.247386 -1.59999 0
M  V30 2579 H 238.986 2.32038 -3.31573 0
M  V30 2580 H 237.556 2.15266 -2.2667 0
M  V30 2581 H 236.776 0.305582 -3.93014 0
M  V30 2582 H 238.064 0.858781 -5.015 0
M  V30 2583 H 237.462 3.90377 -4.09417 0
M  V30 2584 H 236.019 4.21195 -4.97432 0
M  V30 2585 N 239.452 1.56882 -0.150215 0
M  V30 2586 C 240.677 2.01027 0.510184 0
M  V30 2587 C 241.102 1.02966 1.57415 0
M  V30 2588 O 240.46 0.00590158 1.81299 0
M  V30 2589 C 240.508 3.43899 1.08472 0
M  V30 2590 O 239.612 3.4885 2.19948 0
M  V30 2591 H 238.953 0.652233 0.124451 0
M  V30 2592 H 241.483 2.03093 -0.247894 0
M  V30 2593 H 241.493 3.82766 1.41259 0
M  V30 2594 H 240.168 4.14776 0.305582 0
M  V30 2595 H 238.745 3.21827 1.88366 0
M  V30 2596 N 240.93 -0.123565 1.57115 0
M  V30 2597 C 242.207 -0.862196 1.75572 0
M  V30 2598 C 242.587 -1.98279 0.724475 0
M  V30 2599 O 241.935 -2.27102 -0.252407 0
M  V30 2600 C 242.145 -1.38309 3.20424 0
M  V30 2601 C 243.493 -1.83724 3.82793 0
M  V30 2602 O 244.517 -1.47999 3.23998 0
M  V30 2603 O 243.376 -2.49685 4.86127 0
M  V30 2604 H 240.47 -0.409113 0.718718 0
M  V30 2605 H 243.016 -0.107661 1.69358 0
M  V30 2606 H 241.788 -0.578889 3.86994 0
M  V30 2607 H 241.411 -2.20046 3.31158 0
M  V30 2608 N 242.408 -1.52605 -0.393616 0
M  V30 2609 C 243.341 -1.71798 -1.50202 0
M  V30 2610 C 244.319 -0.565743 -1.52441 0
M  V30 2611 O 245.503 -0.794987 -1.70916 0
M  V30 2612 C 242.63 -1.7714 -2.88685 0
M  V30 2613 C 241.676 -2.98845 -3.04292 0
M  V30 2614 S 242.509 -4.58909 -2.75976 0
M  V30 2615 C 243.665 -4.6706 -4.1666 0
M  V30 2616 H 243.898 -2.65542 -1.33696 0
M  V30 2617 H 241.431 -1.42839 -0.586195 0
M  V30 2618 H 243.389 -1.80903 -3.68489 0
M  V30 2619 H 242.05 -0.844969 -3.02521 0
M  V30 2620 H 241.243 -2.99111 -4.05646 0
M  V30 2621 H 240.845 -2.9305 -2.32374 0
M  V30 2622 H 243.137 -4.45391 -5.10523 0
M  V30 2623 H 244.08 -5.6905 -4.21412 0
M  V30 2624 H 244.488 -3.95944 -4.02354 0
M  V30 2625 N 243.887 0.651787 -1.4349 0
M  V30 2626 C 245.298 1.233 -1.40193 0
M  V30 2627 C 245.649 1.9591 -0.106727 0
M  V30 2628 O 244.774 2.01316 0.793773 0
M  V30 2629 C 245.369 2.24257 -2.53957 0
M  V30 2630 C 243.928 2.77852 -2.5392 0
M  V30 2631 C 243.075 1.52517 -2.3159 0
M  V30 2632 H 246.026 0.443717 -1.52371 0
M  V30 2633 H 246.047 3.0646 -2.25528 0
M  V30 2634 H 245.559 1.71382 -3.4821 0
M  V30 2635 H 243.66 3.34786 -1.63551 0
M  V30 2636 H 243.773 3.25299 -3.51735 0
M  V30 2637 H 242.137 1.79915 -1.80285 0
M  V30 2638 H 242.92 1.01574 -3.27929 0
M  V30 2639 N 245.365 1.30045 0.890287 0
M  V30 2640 C 246.312 1.15976 1.99545 0
M  V30 2641 C 247.282 0.0506202 1.66023 0
M  V30 2642 O 248.467 0.219847 1.89529 0
M  V30 2643 C 245.607 0.852054 3.34416 0
M  V30 2644 C 244.72 2.04255 3.80662 0
M  V30 2645 C 243.855 1.6734 5.04154 0
M  V30 2646 C 242.894 2.82916 5.42794 0
M  V30 2647 N 242.031 2.46333 6.57468 0
M  V30 2648 H 246.871 2.10524 2.10911 0
M  V30 2649 H 244.408 1.04749 1.03276 0
M  V30 2650 H 246.366 0.654296 4.12037 0
M  V30 2651 H 244.996 -0.0565502 3.2275 0
M  V30 2652 H 244.048 2.35172 2.98995 0
M  V30 2653 H 245.36 2.90826 4.05242 0
M  V30 2654 H 244.514 1.43908 5.89386 0
M  V30 2655 H 243.253 0.779308 4.81433 0
M  V30 2656 H 242.258 3.0702 4.56091 0
M  V30 2657 H 243.483 3.73004 5.6749 0
M  V30 2658 H 241.429 1.59423 6.36334 0
M  V30 2659 H 241.346 3.26436 6.81891 0
M  V30 2660 H 242.614 2.26244 7.45945 0
M  V30 2661 N 246.843 -1.10192 1.12674 0
M  V30 2662 C 248.091 -1.81845 0.881861 0
M  V30 2663 C 248.412 -1.85737 -0.593867 0
M  V30 2664 O 247.682 -1.33724 -1.4316 0
M  V30 2665 H 246.262 -0.673432 0.323261 0
M  V30 2666 H 248.924 -1.33316 1.42172 0
M  V30 2667 H 248.02 -2.85288 1.2656 0
M  V30 2668 N 248.321 -0.919034 -1.28029 0
M  V30 2669 C 249.737 -0.617972 -1.4715 0
M  V30 2670 C 249.937 0.835242 -1.83374 0
M  V30 2671 O 248.993 1.61388 -1.94191 0
M  V30 2672 C 250.306 -1.56041 -2.57044 0
M  V30 2673 C 251.854 -1.56769 -2.7091 0
M  V30 2674 C 252.329 -2.49688 -3.83953 0
M  V30 2675 N 253.82 -2.47845 -3.91314 0
M  V30 2676 C 254.555 -3.16437 -4.78179 0
M  V30 2677 N 254.051 -3.94376 -5.69596 0
M  V30 2678 N 255.844 -3.05498 -4.71834 0
M  V30 2679 H 247.995 -1.85866 -1.02798 0
M  V30 2680 H 250.258 -0.797506 -0.512531 0
M  V30 2681 H 249.964 -2.59671 -2.372 0
M  V30 2682 H 249.838 -1.29551 -3.54255 0
M  V30 2683 H 252.225 -0.538745 -2.90141 0
M  V30 2684 H 252.306 -1.87305 -1.74214 0
M  V30 2685 H 251.95 -3.52688 -3.65477 0
M  V30 2686 H 251.88 -2.16453 -4.80058 0
M  V30 2687 H 254.371 -1.91234 -3.25941 0
M  V30 2688 H 254.684 -4.43721 -6.32718 0
M  V30 2689 H 253.029 -3.98481 -5.69419 0
M  V30 2690 H 256.22 -2.44108 -3.99411 0
M  V30 2691 H 256.393 -3.59225 -5.39316 0
M  V30 2692 N 249.799 1.42003 -0.683588 0
M  V30 2693 C 251.21 1.84501 -0.285736 0
M  V30 2694 C 251.561 1.57213 1.17382 0
M  V30 2695 O 250.686 1.03642 1.89966 0
M  V30 2696 C 251.281 3.34912 -0.511821 0
M  V30 2697 C 249.84 3.76025 -0.168005 0
M  V30 2698 C 248.987 2.6551 -0.799983 0
M  V30 2699 H 251.938 1.31724 -0.885119 0
M  V30 2700 H 251.959 3.79784 0.233292 0
M  V30 2701 H 251.471 3.54741 -1.57418 0
M  V30 2702 H 249.572 3.61801 0.890567 0
M  V30 2703 H 249.685 4.75141 -0.614661 0
M  V30 2704 H 248.049 2.53654 -0.230568 0
M  V30 2705 H 248.832 2.8816 -1.86597 0
M  V30 2706 N 251.277 0.427512 1.51691 0
M  V30 2707 C 252.225 -0.403359 2.29076 0
M  V30 2708 C 253.219 -1.02962 1.34518 0
M  V30 2709 O 254.425 -0.965715 1.51901 0
M  V30 2710 H 250.8 -0.148879 0.737115 0
M  V30 2711 H 252.771 0.270295 2.97173 0
M  V30 2712 C 251.52 -1.49763 3.13794 0
M  V30 2713 H 250.843 -1.02508 3.86435 0
M  V30 2714 H 252.283 -2.05244 3.71014 0
M  V30 2715 C 250.742 -2.47536 2.28533 0
M  V30 2716 O 251.272 -3.51848 1.93819 0
M  V30 2717 N 249.478 -2.18187 1.91945 0
M  V30 2718 H 249.025 -1.33389 2.20375 0
M  V30 2719 H 248.983 -2.83848 1.35195 0
M  V30 2720 N 252.755 -1.56801 0.158532 0
M  V30 2721 C 253.983 -2.00859 -0.496303 0
M  V30 2722 C 254.398 -1.03871 -1.57659 0
M  V30 2723 O 253.755 -0.0375165 -1.82461 0
M  V30 2724 C 253.806 -3.4479 -1.08638 0
M  V30 2725 O 253.527 -4.38072 -0.0492322 0
M  V30 2726 C 255.028 -4.04185 -1.8207 0
M  V30 2727 H 252.248 -0.65864 -0.128199 0
M  V30 2728 H 254.792 -2.02885 0.256506 0
M  V30 2729 H 252.947 -3.43579 -1.78975 0
M  V30 2730 H 253.361 -5.2227 -0.483102 0
M  V30 2731 H 254.835 -5.06857 -2.18633 0
M  V30 2732 H 255.312 -3.45549 -2.71095 0
M  V30 2733 H 255.918 -4.0906 -1.16405 0
M  V30 2734 N 254.233 0.115231 -1.57178 0
M  V30 2735 C 255.166 1.17166 -1.95825 0
M  V30 2736 C 256.144 1.39912 -0.828463 0
M  V30 2737 O 257.328 1.54004 -1.08697 0
M  V30 2738 C 254.455 2.52478 -2.25771 0
M  V30 2739 C 253.501 2.46136 -3.48309 0
M  V30 2740 S 254.334 1.89736 -5.0076 0
M  V30 2741 C 255.49 3.26713 -5.33863 0
M  V30 2742 H 255.723 0.842103 -2.85124 0
M  V30 2743 H 253.256 0.322136 -1.51002 0
M  V30 2744 H 255.214 3.30332 -2.43702 0
M  V30 2745 H 253.875 2.82609 -1.37079 0
M  V30 2746 H 253.068 3.45819 -3.66641 0
M  V30 2747 H 252.67 1.76404 -3.29784 0
M  V30 2748 H 254.962 4.22935 -5.29275 0
M  V30 2749 H 255.905 3.13205 -6.35065 0
M  V30 2750 H 256.313 3.25316 -4.61335 0
M  V30 2751 N 255.711 1.52812 0.385517 0
M  V30 2752 C 256.659 1.78482 1.49155 0
M  V30 2753 C 257.653 0.652914 1.56312 0
M  V30 2754 O 258.859 0.835464 1.59436 0
M  V30 2755 H 255.234 0.5648 0.496493 0
M  V30 2756 H 257.205 2.71095 1.24699 0
M  V30 2757 C 255.954 1.97378 2.86247 0
M  V30 2758 H 255.277 2.83907 2.81491 0
M  V30 2759 H 256.717 2.19327 3.62866 0
M  V30 2760 C 255.176 0.74728 3.28508 0
M  V30 2761 O 255.706 -0.0736232 4.01633 0
M  V30 2762 N 253.912 0.576396 2.84826 0
M  V30 2763 H 253.459 1.24555 2.25486 0
M  V30 2764 H 253.417 -0.24288 3.1346 0
M  V30 2765 N 257.189 -0.644168 1.43834 0
M  V30 2766 C 258.137 -1.77793 1.49974 0
M  V30 2767 C 259.131 -1.65253 0.372536 0
M  V30 2768 O 260.337 -1.7149 0.546924 0
M  V30 2769 H 256.712 -0.58675 0.47035 0
M  V30 2770 H 258.683 -1.69736 2.45423 0
M  V30 2771 C 257.432 -3.16087 1.4486 0
M  V30 2772 H 256.755 -3.26378 2.30905 0
M  V30 2773 H 258.195 -3.95349 1.53217 0
M  V30 2774 C 256.654 -3.36484 0.167463 0
M  V30 2775 O 257.184 -3.94298 -0.767609 0
M  V30 2776 N 255.39 -2.90504 0.0747556 0
M  V30 2777 H 254.937 -2.4364 0.836507 0
M  V30 2778 H 254.895 -3.04527 -0.781714 0
M  V30 2779 N 258.668 -1.30515 -0.883378 0
M  V30 2780 C 259.898 -1.22182 -1.66599 0
M  V30 2781 C 260.306 0.217507 -1.87946 0
M  V30 2782 O 259.649 1.1554 -1.42815 0
M  V30 2783 C 259.711 -1.88146 -3.06335 0
M  V30 2784 C 259.375 -3.37476 -3.08154 0
M  V30 2785 C 260.372 -4.33443 -2.87094 0
M  V30 2786 C 258.057 -3.7895 -3.29701 0
M  V30 2787 C 260.051 -5.68858 -2.8754 0
M  V30 2788 C 257.738 -5.14482 -3.29776 0
M  V30 2789 C 258.736 -6.09246 -3.0872 0
M  V30 2790 O 258.424 -7.42302 -3.08615 0
M  V30 2791 H 258.156 -0.423898 -0.52658 0
M  V30 2792 H 260.71 -1.72703 -1.11188 0
M  V30 2793 H 258.94 -1.32157 -3.63416 0
M  V30 2794 H 260.629 -1.7391 -3.66756 0
M  V30 2795 H 261.395 -4.02733 -2.70243 0
M  V30 2796 H 257.274 -3.05631 -3.45124 0
M  V30 2797 H 260.818 -6.428 -2.71024 0
M  V30 2798 H 256.715 -5.44832 -3.46163 0
M  V30 2799 H 257.483 -7.5131 -3.24769 0
M  V30 2800 N 260.146 1.09593 -1.13257 0
M  V30 2801 C 261.394 1.81375 -0.891492 0
M  V30 2802 C 261.715 1.86049 0.584009 0
M  V30 2803 O 260.985 1.34481 1.42449 0
M  V30 2804 H 259.565 0.671708 -0.326828 0
M  V30 2805 H 262.227 1.3256 -1.42877 0
M  V30 2806 H 261.323 2.84612 -1.28071 0
M  V30 2807 N 261.624 0.925811 1.2754 0
M  V30 2808 C 262.87 0.566092 1.94739 0
M  V30 2809 C 263.203 -0.890057 1.72603 0
M  V30 2810 O 262.478 -1.63467 1.05399 0
M  V30 2811 C 262.761 0.89054 3.48915 0
M  V30 2812 C 262.614 2.4003 3.80402 0
M  V30 2813 C 263.933 0.395101 4.38323 0
M  V30 2814 H 261.052 0.20714 0.707292 0
M  V30 2815 H 263.694 1.15725 1.50691 0
M  V30 2816 H 261.844 0.387452 3.86563 0
M  V30 2817 H 263.516 2.97494 3.52555 0
M  V30 2818 H 261.759 2.85028 3.2702 0
M  V30 2819 H 262.43 2.57785 4.8811 0
M  V30 2820 H 264.906 0.826241 4.07814 0
M  V30 2821 H 263.782 0.651086 5.45025 0
M  V30 2822 H 264.043 -0.704798 4.36446 0
M  V30 2823 N 263.102 -1.41638 0.69111 0
M  V30 2824 C 264.032 -2.3347 0.037248 0
M  V30 2825 C 265.013 -1.51575 -0.771947 0
M  V30 2826 O 266.198 -1.80126 -0.72582 0
M  V30 2827 C 263.328 -3.35354 -0.903064 0
M  V30 2828 C 262.282 -4.27526 -0.201288 0
M  V30 2829 C 261.608 -5.19747 -1.25565 0
M  V30 2830 C 262.908 -5.13959 0.929689 0
M  V30 2831 H 264.602 -2.88397 0.804227 0
M  V30 2832 H 262.148 -1.38669 0.388189 0
M  V30 2833 H 264.101 -3.98519 -1.36969 0
M  V30 2834 H 262.825 -2.78767 -1.70166 0
M  V30 2835 H 261.484 -3.65779 0.245265 0
M  V30 2836 H 261.132 -4.59479 -2.04666 0
M  V30 2837 H 260.832 -5.8225 -0.791128 0
M  V30 2838 H 262.356 -5.85789 -1.72288 0
M  V30 2839 H 263.77 -5.70718 0.543546 0
M  V30 2840 H 262.167 -5.85379 1.32103 0
M  V30 2841 H 263.237 -4.51389 1.77133 0
M  V30 2842 N 264.58 -0.43555 -1.51462 0
M  V30 2843 C 265.51 0.367376 -2.30592 0
M  V30 2844 C 266.491 1.02263 -1.35928 0
M  V30 2845 O 267.676 1.02661 -1.64847 0
M  V30 2846 C 264.806 1.46983 -3.14664 0
M  V30 2847 C 263.76 0.938161 -4.17591 0
M  V30 2848 C 263.086 2.13622 -4.90173 0
M  V30 2849 C 264.386 -0.0261621 -5.22293 0
M  V30 2850 H 266.08 -0.292969 -2.97963 0
M  V30 2851 H 263.626 -0.14234 -1.43295 0
M  V30 2852 H 265.579 2.03873 -3.688 0
M  V30 2853 H 264.303 2.15843 -2.4511 0
M  V30 2854 H 262.962 0.391481 -3.64504 0
M  V30 2855 H 262.61 2.81098 -4.17124 0
M  V30 2856 H 262.31 1.78688 -5.59772 0
M  V30 2857 H 263.834 2.7107 -5.47132 0
M  V30 2858 H 265.248 0.452384 -5.71512 0
M  V30 2859 H 263.645 -0.287992 -5.99409 0
M  V30 2860 H 264.715 -0.963391 -4.75233 0
M  V30 2861 N 266.058 1.56714 -0.166846 0
M  V30 2862 C 267.008 2.14338 0.777382 0
M  V30 2863 C 267.992 1.07642 1.19591 0
M  V30 2864 O 269.184 1.33775 1.15902 0
M  V30 2865 C 266.313 2.78417 2.00846 0
M  V30 2866 C 265.399 3.92264 1.61212 0
M  V30 2867 N 265.79 4.97268 0.925104 0
M  V30 2868 C 264.088 4.03342 1.90346 0
M  V30 2869 C 264.789 5.77093 0.730627 0
M  V30 2870 N 263.765 5.2854 1.27067 0
M  V30 2871 H 267.567 2.9289 0.243466 0
M  V30 2872 H 265.081 1.62364 0.0339954 0
M  V30 2873 H 267.078 3.18073 2.69509 0
M  V30 2874 H 265.738 2.01344 2.54736 0
M  V30 2875 H 266.749 5.14601 0.583646 0
M  V30 2876 H 263.426 3.37368 2.45946 0
M  V30 2877 H 264.816 6.71638 0.187668 0
M  V30 2878 N 267.536 -0.106894 1.57237 0
M  V30 2879 C 268.446 -1.14911 2.0453 0
M  V30 2880 C 269.462 -1.44592 0.96795 0
M  V30 2881 O 270.638 -1.55468 1.2803 0
M  V30 2882 C 267.703 -2.45272 2.45036 0
M  V30 2883 C 266.764 -2.22879 3.66911 0
M  V30 2884 C 265.997 -3.47024 4.05475 0
M  V30 2885 O 266.22 -4.54804 3.44252 0
M  V30 2886 O 265.154 -3.3731 4.98504 0
M  V30 2887 H 268.98 -0.777461 2.9358 0
M  V30 2888 H 266.565 -0.318563 1.45964 0
M  V30 2889 H 268.447 -3.22055 2.71769 0
M  V30 2890 H 267.122 -2.81886 1.59129 0
M  V30 2891 H 266.029 -1.43915 3.45311 0
M  V30 2892 H 267.362 -1.91163 4.53561 0
M  V30 2893 N 269.014 -1.53014 -0.377408 0
M  V30 2894 C 269.944 -1.81589 -1.46791 0
M  V30 2895 C 270.925 -0.668622 -1.56408 0
M  V30 2896 O 272.11 -0.917337 -1.71168 0
M  V30 2897 C 269.24 -1.99519 -2.8427 0
M  V30 2898 C 268.194 -3.15249 -2.89486 0
M  V30 2899 C 267.52 -3.18451 -4.29527 0
M  V30 2900 C 268.82 -4.54084 -2.58079 0
M  V30 2901 H 270.514 -2.7291 -1.23127 0
M  V30 2902 H 268.06 -1.31319 -0.590883 0
M  V30 2903 H 270.013 -2.18092 -3.60575 0
M  V30 2904 H 268.737 -1.04897 -3.09296 0
M  V30 2905 H 267.396 -2.96477 -2.15631 0
M  V30 2906 H 267.044 -2.2149 -4.5161 0
M  V30 2907 H 266.744 -3.962 -4.33934 0
M  V30 2908 H 268.268 -3.39193 -5.07721 0
M  V30 2909 H 269.682 -4.72899 -3.24098 0
M  V30 2910 H 268.079 -5.33987 -2.7382 0
M  V30 2911 H 269.149 -4.60006 -1.53372 0
M  V30 2912 N 270.492 0.636531 -1.44174 0
M  V30 2913 C 271.74 1.39343 -1.46383 0
M  V30 2914 C 272.061 1.94766 -0.0955715 0
M  V30 2915 O 271.331 1.75452 0.871395 0
M  V30 2916 H 269.911 0.517199 -0.538994 0
M  V30 2917 H 272.573 0.74957 -1.7991 0
M  V30 2918 H 271.669 2.22746 -2.18611 0
M  V30 2919 N 271.97 1.30982 0.876444 0
M  V30 2920 C 272.9 1.20668 1.99903 0
M  V30 2921 C 273.881 0.095354 1.69833 0
M  V30 2922 O 275.066 0.27885 1.92188 0
M  V30 2923 C 272.196 0.90655 3.3526 0
M  V30 2924 C 271.15 1.97675 3.79617 0
M  V30 2925 C 270.476 1.52943 5.1236 0
M  V30 2926 C 271.776 3.389 3.97422 0
M  V30 2927 H 273.47 2.14586 2.0879 0
M  V30 2928 H 271.016 1.03308 1.00317 0
M  V30 2929 H 272.969 0.821025 4.13324 0
M  V30 2930 H 271.693 -0.0682969 3.26529 0
M  V30 2931 H 270.352 2.05205 3.03787 0
M  V30 2932 H 270 0.54262 5.00065 0
M  V30 2933 H 269.7 2.24532 5.43009 0
M  V30 2934 H 271.224 1.45786 5.92941 0
M  V30 2935 H 272.638 3.34081 4.659 0
M  V30 2936 H 271.035 4.0865 4.3946 0
M  V30 2937 H 272.105 3.80163 3.01006 0
M  V30 2938 N 273.449 -1.08991 1.13837 0
M  V30 2939 C 274.726 -1.77863 0.813876 0
M  V30 2940 C 275.106 -1.99375 -0.693746 0
M  V30 2941 O 274.454 -1.59875 -1.63255 0
M  V30 2942 C 274.664 -3.0986 1.60586 0
M  V30 2943 C 276.012 -3.84493 1.8014 0
M  V30 2944 O 277.036 -3.19624 1.57222 0
M  V30 2945 O 275.895 -5.00957 2.18413 0
M  V30 2946 H 272.989 -0.771589 0.297624 0
M  V30 2947 H 275.535 -1.15507 1.24323 0
M  V30 2948 H 274.307 -2.89715 2.63022 0
M  V30 2949 H 273.93 -3.79942 1.17173 0
M  V30 2950 N 274.927 -0.932562 -1.27047 0
M  V30 2951 C 275.837 -0.441219 -2.30414 0
M  V30 2952 C 276.853 0.480525 -1.67233 0
M  V30 2953 O 278.029 0.362151 -1.98117 0
M  V30 2954 C 275.094 0.293651 -3.45454 0
M  V30 2955 C 274.155 -0.663601 -4.2414 0
M  V30 2956 C 273.388 0.0362932 -5.33688 0
M  V30 2957 O 273.611 1.2548 -5.56427 0
M  V30 2958 O 272.545 -0.638015 -5.98509 0
M  V30 2959 H 276.371 -1.29962 -2.74488 0
M  V30 2960 H 273.956 -0.6981 -1.32087 0
M  V30 2961 H 275.838 0.707951 -4.15411 0
M  V30 2962 H 274.513 1.12758 -3.03426 0
M  V30 2963 H 273.42 -1.12768 -3.56699 0
M  V30 2964 H 274.753 -1.46489 -4.69896 0
M  V30 2965 N 276.405 1.4127 -0.698611 0
M  V30 2966 C 277.816 1.84187 -0.305289 0
M  V30 2967 C 278.167 1.58449 1.15708 0
M  V30 2968 O 277.292 1.05651 1.88856 0
M  V30 2969 C 277.887 3.3435 -0.547314 0
M  V30 2970 C 276.446 3.75826 -0.207878 0
M  V30 2971 C 275.593 2.64647 -0.828099 0
M  V30 2972 H 278.544 1.30778 -0.89904 0
M  V30 2973 H 278.565 3.8001 0.192998 0
M  V30 2974 H 278.077 3.53051 -1.61172 0
M  V30 2975 H 276.178 3.62725 0.852143 0
M  V30 2976 H 276.291 4.74462 -0.665021 0
M  V30 2977 H 274.655 2.53395 -0.257458 0
M  V30 2978 H 275.438 2.86165 -1.89643 0
M  V30 2979 N 277.883 0.443576 1.51229 0
M  V30 2980 C 278.813 -0.355142 2.30783 0
M  V30 2981 C 279.794 -1.0154 1.36468 0
M  V30 2982 O 280.979 -1.01785 1.65389 0
M  V30 2983 C 278.109 -1.45312 3.15439 0
M  V30 2984 C 277.063 -0.916002 4.18083 0
M  V30 2985 C 276.389 -2.1102 4.91299 0
M  V30 2986 C 277.689 0.0538602 5.22272 0
M  V30 2987 H 279.383 0.308767 2.97804 0
M  V30 2988 H 276.929 0.149937 1.43217 0
M  V30 2989 H 278.882 -2.01914 3.69876 0
M  V30 2990 H 277.606 -2.14541 2.46252 0
M  V30 2991 H 276.265 -0.372145 3.64706 0
M  V30 2992 H 275.913 -2.78882 4.18609 0
M  V30 2993 H 275.613 -1.75717 5.60712 0
M  V30 2994 H 277.137 -2.68164 5.48562 0
M  V30 2995 H 278.551 -0.422069 5.71744 0
M  V30 2996 H 276.948 0.319776 5.99247 0
M  V30 2997 H 278.018 0.98858 4.74716 0
M  V30 2998 N 279.361 -1.56624 0.175154 0
M  V30 2999 C 280.294 -2.14 -0.792412 0
M  V30 3000 C 281.272 -1.07114 -1.22333 0
M  V30 3001 O 282.456 -1.35112 -1.31442 0
M  V30 3002 C 279.583 -2.68268 -2.0676 0
M  V30 3003 C 278.629 -3.87562 -1.7804 0
M  V30 3004 S 279.462 -5.27074 -0.946222 0
M  V30 3005 C 280.618 -5.8475 -2.23199 0
M  V30 3006 H 280.851 -2.95736 -0.304588 0
M  V30 3007 H 278.384 -1.54349 -0.0395705 0
M  V30 3008 H 280.342 -3.00182 -2.80002 0
M  V30 3009 H 279.003 -1.86612 -2.52656 0
M  V30 3010 H 278.196 -4.23874 -2.72666 0
M  V30 3011 H 277.798 -3.56555 -1.12891 0
M  V30 3012 H 280.09 -5.97898 -3.18629 0
M  V30 3013 H 281.033 -6.81756 -1.91349 0
M  V30 3014 H 281.441 -5.13198 -2.35134 0
M  V30 3015 N 280.839 0.0985539 -1.57292 0
M  V30 3016 C 282.067 0.816318 -1.90115 0
M  V30 3017 C 282.482 1.72451 -0.768509 0
M  V30 3018 O 281.839 1.80643 0.259687 0
M  V30 3019 C 281.89 1.63259 -3.22535 0
M  V30 3020 O 281.611 0.760934 -4.31441 0
M  V30 3021 C 283.112 2.45372 -3.69199 0
M  V30 3022 H 280.332 0.233595 -0.629027 0
M  V30 3023 H 282.876 0.0768229 -2.04356 0
M  V30 3024 H 281.031 2.32463 -3.09903 0
M  V30 3025 H 281.445 1.32595 -5.07463 0
M  V30 3026 H 282.919 2.98144 -4.64558 0
M  V30 3027 H 283.396 3.23677 -2.96867 0
M  V30 3028 H 284.002 1.81373 -3.84687 0
M  V30 3029 N 282.317 1.53212 0.369288 0
M  V30 3030 C 283.728 1.60943 0.946276 0
M  V30 3031 C 284.079 0.47452 1.90375 0
M  V30 3032 O 283.204 -0.399597 2.12679 0
M  V30 3033 C 283.799 2.91715 1.72302 0
M  V30 3034 C 282.358 3.01792 2.24941 0
M  V30 3035 C 281.505 2.56211 1.06072 0
M  V30 3036 H 284.456 1.58007 0.148198 0
M  V30 3037 H 284.477 2.79309 2.58393 0
M  V30 3038 H 283.989 3.74295 1.0259 0
M  V30 3039 H 282.09 2.23791 2.97906 0
M  V30 3040 H 282.203 4.06803 2.53077 0
M  V30 3041 H 280.567 2.10998 1.4266 0
M  V30 3042 H 281.35 3.41206 0.378639 0
M  V30 3043 N 283.795 -0.628877 1.44509 0
M  V30 3044 C 284.725 -1.75187 1.54376 0
M  V30 3045 C 285.706 -1.65411 0.396618 0
M  V30 3046 O 286.891 -1.84137 0.617031 0
M  V30 3047 C 284.021 -3.13725 1.48976 0
M  V30 3048 C 282.975 -3.38291 2.62189 0
M  V30 3049 C 282.301 -4.76883 2.41841 0
M  V30 3050 C 283.601 -3.30632 4.04326 0
M  V30 3051 H 285.295 -1.67187 2.48373 0
M  V30 3052 H 282.841 -0.802909 1.19538 0
M  V30 3053 H 284.794 -3.92064 1.54478 0
M  V30 3054 H 283.518 -3.22515 0.514961 0
M  V30 3055 H 282.177 -2.62334 2.56079 0
M  V30 3056 H 281.825 -4.82378 1.42548 0
M  V30 3057 H 281.525 -4.94278 3.17747 0
M  V30 3058 H 283.049 -5.57449 2.49165 0
M  V30 3059 H 284.463 -3.98873 4.11793 0
M  V30 3060 H 282.86 -3.59561 4.80454 0
M  V30 3061 H 283.93 -2.28404 4.27738 0
M  V30 3062 N 285.273 -1.31445 -0.869486 0
M  V30 3063 C 286.689 -1.10113 -1.15531 0
M  V30 3064 C 286.889 0.128087 -2.01092 0
M  V30 3065 O 285.945 0.817276 -2.38908 0
M  V30 3066 C 287.258 -2.37291 -1.84698 0
M  V30 3067 C 288.806 -2.42906 -1.97397 0
M  V30 3068 C 289.281 -3.69967 -2.69979 0
M  V30 3069 N 290.772 -3.70864 -2.77514 0
M  V30 3070 C 291.507 -4.65875 -3.34287 0
M  V30 3071 N 291.003 -5.71242 -3.91988 0
M  V30 3072 N 292.796 -4.53394 -3.3225 0
M  V30 3073 H 284.947 -2.1028 -0.299347 0
M  V30 3074 H 287.21 -0.927683 -0.195214 0
M  V30 3075 H 286.916 -3.27078 -1.29278 0
M  V30 3076 H 286.79 -2.47125 -2.84972 0
M  V30 3077 H 289.177 -1.53588 -2.51982 0
M  V30 3078 H 289.258 -2.37036 -0.961643 0
M  V30 3079 H 288.902 -4.59652 -2.16062 0
M  V30 3080 H 288.832 -3.73103 -3.7162 0
M  V30 3081 H 291.323 -2.94697 -2.36563 0
M  V30 3082 H 291.636 -6.39817 -4.33421 0
M  V30 3083 H 289.981 -5.75015 -3.90362 0
M  V30 3084 H 293.172 -3.70252 -2.8641 0
M  V30 3085 H 293.345 -5.27617 -3.76197 0
M  V30 3086 N 286.751 1.08385 -1.14413 0
M  V30 3087 C 287.661 2.18856 -0.844951 0
M  V30 3088 C 288.677 1.73121 0.174668 0
M  V30 3089 O 289.853 2.014 0.00312857 0
M  V30 3090 C 286.918 3.45155 -0.32696 0
M  V30 3091 C 285.979 4.05513 -1.40916 0
M  V30 3092 C 285.212 5.25784 -0.915793 0
M  V30 3093 O 285.435 5.69884 0.242651 0
M  V30 3094 O 284.369 5.77545 -1.69487 0
M  V30 3095 H 288.195 2.46919 -1.76818 0
M  V30 3096 H 285.78 1.17524 -0.922411 0
M  V30 3097 H 287.662 4.21377 -0.0440211 0
M  V30 3098 H 286.337 3.18668 0.568539 0
M  V30 3099 H 285.244 3.30879 -1.74556 0
M  V30 3100 H 286.577 4.3625 -2.27919 0
M  V30 3101 N 288.23 0.939286 1.26551 0
M  V30 3102 C 289.646 0.641304 1.46149 0
M  V30 3103 C 289.846 -0.805964 1.84679 0
M  V30 3104 O 288.902 -1.58278 1.96734 0
M  V30 3105 C 290.215 1.6011 2.54529 0
M  V30 3106 C 291.763 1.6106 2.68382 0
M  V30 3107 C 292.238 2.55765 3.79932 0
M  V30 3108 N 293.729 2.5404 3.87322 0
M  V30 3109 C 294.464 3.24004 4.73085 0
M  V30 3110 N 293.96 4.03388 5.63249 0
M  V30 3111 N 295.753 3.12965 4.66914 0
M  V30 3112 H 287.904 1.87478 0.998285 0
M  V30 3113 H 290.167 0.805559 0.499779 0
M  V30 3114 H 289.873 2.63412 2.33039 0
M  V30 3115 H 289.747 1.35171 3.52149 0
M  V30 3116 H 292.134 0.584835 2.89247 0
M  V30 3117 H 292.215 1.90053 1.71212 0
M  V30 3118 H 291.859 3.58458 3.5982 0
M  V30 3119 H 291.789 2.24063 4.76554 0
M  V30 3120 H 294.28 1.96396 3.22858 0
M  V30 3121 H 294.593 4.5373 6.25579 0
M  V30 3122 H 292.938 4.07489 5.63008 0
M  V30 3123 H 296.129 2.50432 3.95476 0
M  V30 3124 H 296.302 3.67759 5.33533 0
M  V30 3125 N 289.708 -1.40897 0.706093 0
M  V30 3126 C 290.955 -2.01054 0.241531 0
M  V30 3127 C 291.283 -1.55956 -1.16223 0
M  V30 3128 O 290.538 -0.766336 -1.80072 0
M  V30 3129 C 290.837 -3.5646 0.259099 0
M  V30 3130 C 290.503 -4.21106 1.61184 0
M  V30 3131 C 289.165 -4.38479 1.98216 0
M  V30 3132 C 291.517 -4.57256 2.50132 0
M  V30 3133 C 288.845 -4.89282 3.2376 0
M  V30 3134 C 291.197 -5.09454 3.7502 0
M  V30 3135 C 289.861 -5.25037 4.12181 0
M  V30 3136 H 289.131 -0.73571 0.0883825 0
M  V30 3137 H 291.778 -1.68645 0.907257 0
M  V30 3138 H 290.083 -3.88721 -0.490189 0
M  V30 3139 H 291.78 -4.00826 -0.11804 0
M  V30 3140 H 288.37 -4.07966 1.31384 0
M  V30 3141 H 292.554 -4.43479 2.228 0
M  V30 3142 H 287.81 -4.99531 3.52532 0
M  V30 3143 H 291.984 -5.36404 4.44121 0
M  V30 3144 H 289.611 -5.64164 5.09532 0
M  V30 3145 N 291.186 -0.45159 -1.50991 0
M  V30 3146 C 292.116 0.342898 -2.30969 0
M  V30 3147 C 293.097 1.00815 -1.37005 0
M  V30 3148 O 294.282 1.00907 -1.65926 0
M  V30 3149 C 291.412 1.43637 -3.16205 0
M  V30 3150 C 290.366 0.893818 -4.18563 0
M  V30 3151 C 289.692 2.08411 -4.92411 0
M  V30 3152 C 290.992 -0.0815568 -5.22236 0
M  V30 3153 H 292.686 -0.324556 -2.97636 0
M  V30 3154 H 290.232 -0.157531 -1.43136 0
M  V30 3155 H 292.185 1.9995 -3.70942 0
M  V30 3156 H 290.909 2.13232 -2.47386 0
M  V30 3157 H 289.568 0.352798 -3.64898 0
M  V30 3158 H 289.216 2.76658 -4.20082 0
M  V30 3159 H 288.916 1.72741 -5.61636 0
M  V30 3160 H 290.44 2.65251 -5.49976 0
M  V30 3161 H 291.854 0.391742 -5.7196 0
M  V30 3162 H 290.251 -0.351551 -5.99069 0
M  V30 3163 H 291.321 -1.01374 -4.74185 0
M  V30 3164 N 292.664 1.56529 -0.183458 0
M  V30 3165 C 293.596 2.15747 0.773697 0
M  V30 3166 C 294.609 1.1162 1.1851 0
M  V30 3167 O 295.798 1.3876 1.12285 0
M  V30 3168 C 292.898 2.6952 2.05456 0
M  V30 3169 C 292.071 3.98429 1.8048 0
M  V30 3170 C 291.13 4.37145 2.92901 0
M  V30 3171 O 290.156 5.04791 2.6301 0
M  V30 3172 N 291.358 3.99695 4.2098 0
M  V30 3173 H 294.123 2.98505 0.26736 0
M  V30 3174 H 291.684 1.619 -0.0010878 0
M  V30 3175 H 293.676 2.92412 2.79781 0
M  V30 3176 H 292.246 1.91282 2.47245 0
M  V30 3177 H 291.466 3.8379 0.899947 0
M  V30 3178 H 292.754 4.82597 1.61175 0
M  V30 3179 H 292.152 3.4526 4.48121 0
M  V30 3180 H 290.709 4.27562 4.9197 0
M  V30 3181 N 294.142 -0.090211 1.57342 0
M  V30 3182 C 295.553 -0.644173 1.75235 0
M  V30 3183 C 295.904 -1.78865 0.806335 0
M  V30 3184 O 295.029 -2.16395 -0.0140128 0
M  V30 3185 C 295.624 -1.17532 3.1776 0
M  V30 3186 C 294.183 -1.67531 3.37061 0
M  V30 3187 C 293.33 -0.58693 2.71017 0
M  V30 3188 H 296.281 0.135884 1.58117 0
M  V30 3189 H 296.302 -2.04455 3.20902 0
M  V30 3190 H 295.814 -0.342138 3.86589 0
M  V30 3191 H 293.915 -2.53234 2.73319 0
M  V30 3192 H 294.028 -1.76493 4.45406 0
M  V30 3193 H 292.392 -1.02756 2.33052 0
M  V30 3194 H 293.175 0.235758 3.4249 0
M  V30 3195 N 295.62 -1.53406 -0.361157 0
M  V30 3196 C 296.55 -1.83136 -1.44857 0
M  V30 3197 C 297.531 -0.685174 -1.5569 0
M  V30 3198 O 298.716 -0.93544 -1.70186 0
M  V30 3199 C 295.846 -2.02522 -2.82138 0
M  V30 3200 C 294.8 -3.18302 -2.86126 0
M  V30 3201 C 294.126 -3.22989 -4.26125 0
M  V30 3202 C 295.426 -4.56796 -2.53248 0
M  V30 3203 H 297.12 -2.74201 -1.20226 0
M  V30 3204 H 294.666 -1.31938 -0.576922 0
M  V30 3205 H 296.619 -2.21904 -3.58241 0
M  V30 3206 H 295.343 -1.08172 -3.08166 0
M  V30 3207 H 294.002 -2.98747 -2.12475 0
M  V30 3208 H 293.65 -2.26267 -4.49235 0
M  V30 3209 H 293.35 -4.00781 -4.29708 0
M  V30 3210 H 294.874 -3.44559 -5.04094 0
M  V30 3211 H 296.288 -4.7631 -3.19064 0
M  V30 3212 H 294.685 -5.36862 -2.68141 0
M  V30 3213 H 295.755 -4.61606 -1.48484 0
M  V30 3214 N 297.098 0.621204 -1.44841 0
M  V30 3215 C 298.031 1.7459 -1.46947 0
M  V30 3216 C 299.009 1.59273 -0.327238 0
M  V30 3217 O 300.193 1.81021 -0.525706 0
M  V30 3218 C 297.32 3.12274 -1.31159 0
M  V30 3219 C 296.366 3.46216 -2.49072 0
M  V30 3220 S 297.199 3.4258 -4.11581 0
M  V30 3221 C 298.355 4.82867 -3.98233 0
M  V30 3222 H 298.588 1.72538 -2.42111 0
M  V30 3223 H 296.121 0.796683 -1.32259 0
M  V30 3224 H 298.079 3.91722 -1.22737 0
M  V30 3225 H 296.74 3.11855 -0.374885 0
M  V30 3226 H 295.933 4.4643 -2.33915 0
M  V30 3227 H 295.535 2.74253 -2.54286 0
M  V30 3228 H 297.827 5.7234 -3.62537 0
M  V30 3229 H 298.77 5.0308 -4.98313 0
M  V30 3230 H 299.178 4.57908 -3.30121 0
M  V30 3231 N 298.576 1.31904 0.862503 0
M  V30 3232 C 299.539 1.20131 1.95195 0
M  V30 3233 C 300.539 0.126409 1.60302 0
M  V30 3234 O 301.729 0.376234 1.70089 0
M  V30 3235 C 298.861 0.845691 3.30244 0
M  V30 3236 H 300.054 2.16943 2.07064 0
M  V30 3237 H 297.607 1.15622 1.05172 0
M  V30 3238 H 298.342 -0.120957 3.24074 0
M  V30 3239 H 298.127 1.62276 3.56944 0
M  V30 3240 H 299.617 0.787418 4.10109 0
M  V30 3241 N 300.054 -1.07777 1.14986 0
M  V30 3242 C 300.984 -2.16865 0.865557 0
M  V30 3243 C 301.965 -1.69123 -0.182083 0
M  V30 3244 O 303.15 -1.94164 -0.0373815 0
M  V30 3245 C 300.28 -3.45539 0.349313 0
M  V30 3246 C 299.234 -4.06708 1.33313 0
M  V30 3247 C 298.56 -5.30411 0.675918 0
M  V30 3248 C 299.86 -4.47241 2.69764 0
M  V30 3249 H 301.554 -2.40905 1.77778 0
M  V30 3250 H 299.1 -1.15781 0.856203 0
M  V30 3251 H 301.053 -4.21174 0.137983 0
M  V30 3252 H 299.777 -3.21072 -0.598362 0
M  V30 3253 H 298.436 -3.33112 1.53075 0
M  V30 3254 H 298.084 -5.02232 -0.277767 0
M  V30 3255 H 297.784 -5.72293 1.33244 0
M  V30 3256 H 299.308 -6.08755 0.474262 0
M  V30 3257 H 300.722 -5.14025 2.53873 0
M  V30 3258 H 299.119 -5.00062 3.3175 0
M  V30 3259 H 300.189 -3.58818 3.26156 0
M  V30 3260 N 301.532 -0.945985 -1.26051 0
M  V30 3261 C 302.462 -0.477172 -2.28572 0
M  V30 3262 C 303.443 0.472032 -1.63419 0
M  V30 3263 O 304.628 0.372853 -1.90587 0
M  V30 3264 C 301.758 0.253975 -3.4637 0
M  V30 3265 C 300.712 -0.609135 -4.23643 0
M  V30 3266 C 300.038 0.252252 -5.34105 0
M  V30 3267 C 301.338 -1.8829 -4.8718 0
M  V30 3268 H 303.032 -1.33402 -2.68038 0
M  V30 3269 H 300.578 -0.642904 -1.28852 0
M  V30 3270 H 302.531 0.593016 -4.17207 0
M  V30 3271 H 301.255 1.145 -3.05871 0
M  V30 3272 H 299.914 -0.931138 -3.54578 0
M  V30 3273 H 299.562 1.14278 -4.89846 0
M  V30 3274 H 299.262 -0.32188 -5.86718 0
M  V30 3275 H 300.786 0.586454 -6.07777 0
M  V30 3276 H 302.2 -1.61081 -5.50205 0
M  V30 3277 H 300.597 -2.40199 -5.49931 0
M  V30 3278 H 301.667 -2.59134 -4.09851 0
M  V30 3279 N 303.011 1.40521 -0.713556 0
M  V30 3280 C 304.241 2.0494 -0.261395 0
M  V30 3281 C 304.649 1.53861 1.10107 0
M  V30 3282 O 303.992 0.689321 1.70276 0
M  V30 3283 C 304.054 3.59138 -0.161227 0
M  V30 3284 C 303.718 4.33096 -1.45865 0
M  V30 3285 C 304.715 4.61182 -2.40016 0
M  V30 3286 C 302.4 4.72043 -1.71701 0
M  V30 3287 C 304.394 5.27196 -3.58251 0
M  V30 3288 C 302.081 5.37789 -2.90218 0
M  V30 3289 C 303.079 5.65295 -3.83315 0
M  V30 3290 O 302.767 6.29683 -4.99754 0
M  V30 3291 H 302.499 0.666041 -0.115608 0
M  V30 3292 H 305.053 1.80954 -0.971849 0
M  V30 3293 H 303.283 3.81936 0.605153 0
M  V30 3294 H 304.972 4.05091 0.256105 0
M  V30 3295 H 305.738 4.31559 -2.21318 0
M  V30 3296 H 301.617 4.50003 -1.00092 0
M  V30 3297 H 305.161 5.48582 -4.30934 0
M  V30 3298 H 301.058 5.66831 -3.08825 0
M  V30 3299 H 301.826 6.4818 -4.99805 0
M  V30 3300 N 304.489 0.459591 1.5075 0
M  V30 3301 C 305.9 0.00171547 1.867 0
M  V30 3302 C 306.251 -1.39934 1.37525 0
M  V30 3303 O 305.376 -2.03523 0.735349 0
M  V30 3304 C 305.971 -0.00366298 3.388 0
M  V30 3305 C 304.53 -0.406026 3.74204 0
M  V30 3306 C 303.677 0.38673 2.7459 0
M  V30 3307 H 306.628 0.674413 1.43657 0
M  V30 3308 H 306.649 -0.808371 3.71814 0
M  V30 3309 H 306.161 1.01617 3.74561 0
M  V30 3310 H 304.262 -1.43063 3.4404 0
M  V30 3311 H 304.375 -0.115362 4.78961 0
M  V30 3312 H 302.739 -0.158019 2.54209 0
M  V30 3313 H 303.522 1.40585 3.13194 0
M  V30 3314 N 305.967 -1.56429 0.191757 0
M  V30 3315 C 307.244 -1.89224 -0.495332 0
M  V30 3316 C 307.624 -1.10478 -1.79883 0
M  V30 3317 O 306.972 -0.204852 -2.2758 0
M  V30 3318 C 307.182 -3.41548 -0.717367 0
M  V30 3319 C 308.53 -4.11711 -1.03823 0
M  V30 3320 O 309.554 -3.4698 -0.805204 0
M  V30 3321 O 308.413 -5.2611 -1.47887 0
M  V30 3322 H 305.507 -0.785788 -0.25781 0
M  V30 3323 H 308.053 -1.68111 0.231721 0
M  V30 3324 H 306.825 -3.90772 0.203287 0
M  V30 3325 H 306.448 -3.68342 -1.497 0
M  V30 3326 N 307.445 0.0818655 -1.57387 0
M  V30 3327 C 308.685 0.788375 -1.88584 0
M  V30 3328 C 309.049 1.75248 -0.784351 0
M  V30 3329 O 310.25 2.50334 -0.979105 0
M  V30 3330 C 308.521 1.48654 -3.25018 0
M  V30 3331 S 310.08 2.22951 -3.7794 0
M  V30 3332 H 306.898 0.262383 -0.660815 0
M  V30 3333 H 309.5 0.0448995 -1.95448 0
M  V30 3334 H 308.204 0.770919 -4.03094 0
M  V30 3335 H 307.735 2.26965 -3.21326 0
M  V30 3336 H 309.75 3.49309 -3.52417 0
M  V30 3337 N 308.923 1.53595 0.353017 0
M  V30 3338 C 310.171 1.70049 1.09215 0
M  V30 3339 C 310.492 0.461406 1.89463 0
M  V30 3340 O 309.762 -0.524633 1.88744 0
M  V30 3341 H 308.342 0.626912 0.40619 0
M  V30 3342 H 311.004 1.90822 0.396585 0
M  V30 3343 H 310.1 2.56718 1.77488 0
M  V30 3344 N 310.401 -0.613514 1.45168 0
M  V30 3345 C 311.649 -1.36997 1.48581 0
M  V30 3346 C 311.97 -1.94589 0.126545 0
M  V30 3347 O 311.24 -1.76816 -0.843372 0
M  V30 3348 H 309.82 -0.508558 0.547154 0
M  V30 3349 H 312.482 -0.720853 1.81079 0
M  V30 3350 H 311.578 -2.1924 2.22127 0
M  V30 3351 N 311.879 -1.3236 -0.855495 0
M  V30 3352 C 313.127 -1.22629 -1.60644 0
M  V30 3353 C 313.448 0.212136 -1.93843 0
M  V30 3354 O 312.718 1.13666 -1.59552 0
M  V30 3355 H 311.298 -0.450882 -0.595579 0
M  V30 3356 H 313.96 -1.65871 -1.02337 0
M  V30 3357 H 313.056 -1.80832 -2.54374 0
M  V30 3358 N 313.357 1.07166 -1.15556 0
M  V30 3359 C 314.773 1.31899 -0.898603 0
M  V30 3360 C 314.973 1.96333 0.453383 0
M  V30 3361 O 314.029 2.22438 1.19489 0
M  V30 3362 C 315.342 2.20826 -2.04099 0
M  V30 3363 C 316.89 2.34269 -2.07574 0
M  V30 3364 C 317.365 3.26546 -3.21141 0
M  V30 3365 N 318.856 3.34127 -3.20801 0
M  V30 3366 C 319.591 4.05595 -4.05315 0
M  V30 3367 N 319.087 4.79661 -4.99897 0
M  V30 3368 N 320.88 4.01555 -3.93332 0
M  V30 3369 H 313.031 0.637302 -2.02613 0
M  V30 3370 H 315.294 0.343468 -0.883591 0
M  V30 3371 H 315 1.80744 -3.01703 0
M  V30 3372 H 314.874 3.21364 -1.97496 0
M  V30 3373 H 317.261 2.73603 -1.10568 0
M  V30 3374 H 317.342 1.33429 -2.18244 0
M  V30 3375 H 316.986 2.87931 -4.184 0
M  V30 3376 H 316.916 4.27345 -3.07708 0
M  V30 3377 H 319.407 2.81336 -2.52306 0
M  V30 3378 H 319.72 5.31694 -5.60822 0
M  V30 3379 H 318.065 4.78671 -5.03884 0
M  V30 3380 H 321.256 3.42806 -3.18751 0
M  V30 3381 H 321.429 4.56987 -4.5942 0
M  V30 3382 N 314.835 0.952656 1.25548 0
M  V30 3383 C 315.765 0.489287 2.28316 0
M  V30 3384 C 316.746 -0.463359 1.63667 0
M  V30 3385 O 317.931 -0.36274 1.90782 0
M  V30 3386 C 315.061 -0.235603 3.465 0
M  V30 3387 C 314.015 0.631593 4.23314 0
M  V30 3388 C 313.341 -0.223923 5.34231 0
M  V30 3389 C 314.641 1.90871 4.86174 0
M  V30 3390 H 316.335 1.34822 2.67326 0
M  V30 3391 H 313.881 0.649728 1.28509 0
M  V30 3392 H 315.834 -0.570882 4.17515 0
M  V30 3393 H 314.558 -1.12877 3.06474 0
M  V30 3394 H 313.217 0.949929 3.54079 0
M  V30 3395 H 312.865 -1.11678 4.90446 0
M  V30 3396 H 312.565 0.35299 5.86539 0
M  V30 3397 H 314.089 -0.554214 6.0808 0
M  V30 3398 H 315.503 1.63997 5.49343 0
M  V30 3399 H 313.9 2.43112 5.4865 0
M  V30 3400 H 314.97 2.61304 4.08471 0
M  V30 3401 N 316.313 -1.40141 0.720998 0
M  V30 3402 C 317.59 -1.94677 0.189757 0
M  V30 3403 C 317.97 -1.65879 -1.30566 0
M  V30 3404 O 317.318 -0.979391 -2.06447 0
M  V30 3405 C 317.528 -3.45279 0.508304 0
M  V30 3406 C 318.876 -4.22209 0.449934 0
M  V30 3407 O 319.9 -3.53413 0.444677 0
M  V30 3408 O 318.759 -5.44788 0.432189 0
M  V30 3409 H 315.853 -0.826459 0.0299026 0
M  V30 3410 H 318.399 -1.49719 0.7989 0
M  V30 3411 H 317.171 -3.59619 1.54239 0
M  V30 3412 H 316.794 -3.97386 -0.130525 0
M  V30 3413 N 317.792 -0.46758 -1.50504 0
M  V30 3414 C 319.017 0.0886943 -2.0721 0
M  V30 3415 C 319.442 1.33057 -1.32956 0
M  V30 3416 O 318.8 1.77354 -0.376197 0
M  V30 3417 C 318.848 0.359202 -3.58806 0
M  V30 3418 O 317.952 1.44034 -3.8643 0
M  V30 3419 H 317.293 -0.0114349 -0.663902 0
M  V30 3420 H 319.823 -0.657613 -1.93744 0
M  V30 3421 H 319.833 0.600742 -4.03553 0
M  V30 3422 H 318.508 -0.548311 -4.1227 0
M  V30 3423 H 317.085 1.18638 -3.53524 0
M  V30 3424 N 319.27 1.56325 -0.20005 0
M  V30 3425 C 320.22 2.15939 0.731743 0
M  V30 3426 C 321.204 1.10154 1.17281 0
M  V30 3427 O 322.396 1.36203 1.13038 0
M  V30 3428 C 319.525 2.82614 1.94895 0
M  V30 3429 C 318.611 3.95596 1.52855 0
M  V30 3430 N 319.002 4.99118 0.819418 0
M  V30 3431 C 317.3 4.07288 1.81748 0
M  V30 3432 C 318.001 5.78513 0.608053 0
M  V30 3433 N 316.977 5.31117 1.15828 0
M  V30 3434 H 320.779 2.9334 0.181285 0
M  V30 3435 H 318.293 1.624 -0.000452172 0
M  V30 3436 H 320.29 3.23718 2.62702 0
M  V30 3437 H 318.95 2.06702 2.50408 0
M  V30 3438 H 319.961 5.15723 0.47436 0
M  V30 3439 H 316.638 3.42509 2.38734 0
M  V30 3440 H 318.028 6.71885 0.0451619 0
M  V30 3441 N 320.748 -0.0735177 1.57428 0
M  V30 3442 C 322.164 -0.428264 1.53747 0
M  V30 3443 C 322.364 -1.79272 0.91998 0
M  V30 3444 O 321.42 -2.47051 0.521745 0
M  V30 3445 C 322.733 -0.370914 2.98404 0
M  V30 3446 C 324.281 -0.451224 3.0973 0
M  V30 3447 C 324.756 -0.4238 4.56035 0
M  V30 3448 N 326.247 -0.483925 4.60665 0
M  V30 3449 C 326.982 -0.484891 5.71346 0
M  V30 3450 N 326.478 -0.440775 6.91396 0
M  V30 3451 N 328.271 -0.531319 5.59583 0
M  V30 3452 H 320.422 0.819949 1.95935 0
M  V30 3453 H 322.685 0.307493 0.896745 0
M  V30 3454 H 322.391 0.564956 3.47133 0
M  V30 3455 H 322.265 -1.18176 3.5821 0
M  V30 3456 H 324.652 -1.37752 2.60976 0
M  V30 3457 H 324.733 0.388167 2.52838 0
M  V30 3458 H 324.377 0.498638 5.05446 0
M  V30 3459 H 324.307 -1.2807 5.10789 0
M  V30 3460 H 326.798 -0.522338 3.74273 0
M  V30 3461 H 327.111 -0.44539 7.71515 0
M  V30 3462 H 325.456 -0.40749 6.93804 0
M  V30 3463 H 328.647 -0.563464 4.64696 0
M  V30 3464 H 328.82 -0.528603 6.4584 0
M  V30 3465 N 322.226 -1.5378 -0.344866 0
M  V30 3466 C 323.189 -1.80981 -1.40637 0
M  V30 3467 C 324.189 -0.680816 -1.45676 0
M  V30 3468 O 325.379 -0.949095 -1.46075 0
M  V30 3469 C 322.511 -1.95063 -2.79577 0
M  V30 3470 H 323.704 -2.75803 -1.17783 0
M  V30 3471 H 321.257 -1.45173 -0.579181 0
M  V30 3472 H 321.992 -1.02379 -3.07716 0
M  V30 3473 H 321.777 -2.77198 -2.77315 0
M  V30 3474 H 323.267 -2.17629 -3.56409 0
M  V30 3475 N 323.704 0.605807 -1.45491 0
M  V30 3476 C 324.951 1.36476 -1.49601 0
M  V30 3477 C 325.279 1.94007 -0.138452 0
M  V30 3478 O 324.534 1.75638 0.863114 0
M  V30 3479 C 324.833 2.53012 -2.52428 0
M  V30 3480 C 324.499 2.13617 -3.97087 0
M  V30 3481 C 323.161 2.02587 -4.36477 0
M  V30 3482 C 325.513 1.82899 -4.88055 0
M  V30 3483 C 322.841 1.59064 -5.64726 0
M  V30 3484 C 325.193 1.40861 -6.16718 0
M  V30 3485 C 323.857 1.28391 -6.55036 0
M  V30 3486 H 323.127 0.499402 -0.547429 0
M  V30 3487 H 325.774 0.684546 -1.78847 0
M  V30 3488 H 324.079 3.26379 -2.16758 0
M  V30 3489 H 325.776 3.1124 -2.52845 0
M  V30 3490 H 322.366 2.23129 -3.65939 0
M  V30 3491 H 326.55 1.90317 -4.58359 0
M  V30 3492 H 321.806 1.48034 -5.93208 0
M  V30 3493 H 325.98 1.16138 -6.86648 0
M  V30 3494 H 323.607 0.944403 -7.54311 0
M  V30 3495 N 325.182 1.32811 0.848464 0
M  V30 3496 C 326.428 1.23907 1.60546 0
M  V30 3497 C 326.761 -0.197161 1.93197 0
M  V30 3498 O 326.036 -1.13596 1.5788 0
M  V30 3499 C 326.319 2.10489 2.92175 0
M  V30 3500 C 326.172 3.62522 2.66266 0
M  V30 3501 C 327.491 1.97075 3.93509 0
M  V30 3502 H 324.61 0.451459 0.58254 0
M  V30 3503 H 327.252 1.62818 0.979296 0
M  V30 3504 H 325.402 1.77434 3.45614 0
M  V30 3505 H 327.074 4.05821 2.19334 0
M  V30 3506 H 325.317 3.84879 2.00126 0
M  V30 3507 H 325.988 4.18437 3.6002 0
M  V30 3508 H 328.464 2.26045 3.49346 0
M  V30 3509 H 327.34 2.59923 4.83457 0
M  V30 3510 H 327.601 0.940186 4.31987 0
M  V30 3511 N 326.66 -1.06551 1.16123 0
M  V30 3512 C 327.906 -1.79567 0.94252 0
M  V30 3513 C 328.239 -1.86869 -0.528547 0
M  V30 3514 O 327.514 -1.35838 -1.39206 0
M  V30 3515 C 327.797 -3.24195 1.56747 0
M  V30 3516 C 327.65 -3.24989 3.10969 0
M  V30 3517 C 328.969 -4.21678 1.25998 0
M  V30 3518 H 326.088 -0.651883 0.343828 0
M  V30 3519 H 328.73 -1.2463 1.43413 0
M  V30 3520 H 326.88 -3.71107 1.14942 0
M  V30 3521 H 328.552 -2.86258 3.61737 0
M  V30 3522 H 326.795 -2.63716 3.44436 0
M  V30 3523 H 327.466 -4.27005 3.49815 0
M  V30 3524 H 329.942 -3.83196 1.62174 0
M  V30 3525 H 328.818 -5.21146 1.7233 0
M  V30 3526 H 329.079 -4.4174 0.178367 0
M  V30 3527 N 328.138 -0.959301 -1.25041 0
M  V30 3528 C 329.085 -0.482057 -2.2571 0
M  V30 3529 C 330.055 0.467939 -1.59372 0
M  V30 3530 O 331.24 0.380159 -1.86974 0
M  V30 3531 C 328.38 0.229623 -3.44335 0
M  V30 3532 C 327.493 -0.758156 -4.25295 0
M  V30 3533 C 326.628 -0.0234403 -5.31195 0
M  V30 3534 C 325.667 -1.00184 -6.03846 0
M  V30 3535 N 324.804 -0.29769 -7.01469 0
M  V30 3536 H 329.644 -1.34538 -2.65901 0
M  V30 3537 H 327.181 -0.674592 -1.3072 0
M  V30 3538 H 329.139 0.658856 -4.11965 0
M  V30 3539 H 327.769 1.05696 -3.05005 0
M  V30 3540 H 326.821 -1.30586 -3.57284 0
M  V30 3541 H 328.133 -1.50458 -4.75567 0
M  V30 3542 H 327.287 0.464201 -6.04922 0
M  V30 3543 H 326.026 0.755741 -4.81809 0
M  V30 3544 H 325.031 -1.50044 -5.2893 0
M  V30 3545 H 326.256 -1.78133 -6.55321 0
M  V30 3546 H 324.202 0.462668 -6.54366 0
M  V30 3547 H 324.119 -0.983128 -7.4958 0
M  V30 3548 H 325.387 0.16826 -7.79318 0
M  V30 3549 N 329.616 1.39756 -0.72842 0
M  V30 3550 C 330.846 2.04651 -0.283117 0
M  V30 3551 C 331.254 1.5502 1.08469 0
M  V30 3552 O 330.597 0.707343 1.69536 0
M  V30 3553 C 330.659 3.58947 -0.199309 0
M  V30 3554 C 330.323 4.31525 -1.5045 0
M  V30 3555 C 331.32 4.5861 -2.44894 0
M  V30 3556 C 329.005 4.70195 -1.76698 0
M  V30 3557 C 330.999 5.23366 -3.63822 0
M  V30 3558 C 328.686 5.3468 -2.95906 0
M  V30 3559 C 329.684 5.61198 -3.89289 0
M  V30 3560 O 329.372 6.24347 -5.06404 0
M  V30 3561 H 329.104 0.664777 -0.122666 0
M  V30 3562 H 331.658 1.79913 -0.990987 0
M  V30 3563 H 329.888 3.82556 0.56461 0
M  V30 3564 H 331.577 4.0534 0.213125 0
M  V30 3565 H 332.343 4.29187 -2.25883 0
M  V30 3566 H 328.222 4.48916 -1.04859 0
M  V30 3567 H 331.766 5.4398 -4.36728 0
M  V30 3568 H 327.663 5.63524 -3.14819 0
M  V30 3569 H 328.431 6.42842 -5.06652 0
M  V30 3570 N 331.094 0.475555 1.50254 0
M  V30 3571 C 332.057 -0.305016 2.27161 0
M  V30 3572 C 333.057 -0.916519 1.32123 0
M  V30 3573 O 334.247 -0.785003 1.5551 0
M  V30 3574 C 331.379 -1.43496 3.09227 0
M  V30 3575 H 332.572 0.369511 2.97615 0
M  V30 3576 H 330.125 0.229747 1.54602 0
M  V30 3577 H 330.86 -2.14441 2.43281 0
M  V30 3578 H 330.645 -1.00223 3.79075 0
M  V30 3579 H 332.135 -1.98548 3.67381 0
M  V30 3580 N 332.573 -1.56217 0.208337 0
M  V30 3581 C 333.984 -1.84243 -0.301904 0
M  V30 3582 C 334.335 -1.12939 -1.60434 0
M  V30 3583 O 333.46 -0.39461 -2.12772 0
M  V30 3584 C 334.055 -3.34231 -0.554543 0
M  V30 3585 C 332.614 -3.62621 -1.00912 0
M  V30 3586 C 331.761 -2.77224 -0.064933 0
M  V30 3587 H 334.712 -1.52712 0.431833 0
M  V30 3588 H 334.733 -3.5372 -1.40223 0
M  V30 3589 H 334.245 -3.86099 0.393561 0
M  V30 3590 H 332.346 -3.16197 -1.97104 0
M  V30 3591 H 332.459 -4.7071 -0.892674 0
M  V30 3592 H 330.823 -2.48256 -0.56929 0
M  V30 3593 H 331.606 -3.31887 0.877851 0
M  V30 3594 N 334.051 0.0651679 -1.57465 0
M  V30 3595 C 335.299 0.761555 -1.87202 0
M  V30 3596 C 335.62 1.77778 -0.801243 0
M  V30 3597 O 334.89 1.95166 0.16937 0
M  V30 3598 H 333.47 0.284251 -0.690804 0
M  V30 3599 H 336.132 0.0396827 -1.9486 0
M  V30 3600 H 335.228 1.27365 -2.84929 0
M  V30 3601 N 335.529 1.53961 0.336706 0
M  V30 3602 C 336.461 1.78751 1.4346 0
M  V30 3603 C 337.474 0.669019 1.48418 0
M  V30 3604 O 338.663 0.945884 1.51378 0
M  V30 3605 C 335.763 1.87844 2.82078 0
M  V30 3606 C 334.936 3.17854 3.00479 0
M  V30 3607 C 333.995 3.17816 4.19379 0
M  V30 3608 O 333.021 3.91511 4.13168 0
M  V30 3609 N 334.223 2.40669 5.2826 0
M  V30 3610 H 336.988 2.73493 1.22563 0
M  V30 3611 H 334.549 1.53096 0.526625 0
M  V30 3612 H 336.541 1.85261 3.59806 0
M  V30 3613 H 335.111 1.00257 2.96086 0
M  V30 3614 H 334.331 3.33504 2.10163 0
M  V30 3615 H 335.619 4.03718 3.0966 0
M  V30 3616 H 335.017 1.8036 5.36178 0
M  V30 3617 H 333.574 2.43877 6.04456 0
M  V30 3618 N 337.007 -0.598083 1.45811 0
M  V30 3619 C 338.284 -1.35777 1.40797 0
M  V30 3620 C 338.664 -2.10935 0.083462 0
M  V30 3621 O 338.012 -2.08505 -0.934763 0
M  V30 3622 C 338.222 -2.29666 2.62783 0
M  V30 3623 C 339.57 -2.91977 3.08277 0
M  V30 3624 O 340.594 -2.39984 2.63223 0
M  V30 3625 O 339.453 -3.86376 3.86491 0
M  V30 3626 H 336.547 -0.609291 0.55919 0
M  V30 3627 H 339.093 -0.620379 1.57954 0
M  V30 3628 H 337.865 -1.73454 3.50756 0
M  V30 3629 H 337.488 -3.1077 2.48008 0
M  V30 3630 N 338.485 -1.33259 -0.841409 0
M  V30 3631 C 339.415 -1.25926 -1.96634 0
M  V30 3632 C 340.396 -0.140349 -1.6952 0
M  V30 3633 O 341.581 -0.329707 -1.91381 0
M  V30 3634 C 338.711 -0.99512 -3.32738 0
M  V30 3635 C 337.665 -2.0767 -3.74242 0
M  V30 3636 C 336.991 -1.66474 -5.08125 0
M  V30 3637 C 338.291 -3.49318 -3.88297 0
M  V30 3638 H 339.985 -2.20046 -2.03027 0
M  V30 3639 H 337.531 -1.05931 -0.975425 0
M  V30 3640 H 339.484 -0.930323 -4.11002 0
M  V30 3641 H 338.208 -0.0183004 -3.26595 0
M  V30 3642 H 336.867 -2.13187 -2.98239 0
M  V30 3643 H 336.515 -0.675012 -4.9845 0
M  V30 3644 H 336.215 -2.3885 -5.36865 0
M  V30 3645 H 337.739 -1.61455 -5.88867 0
M  V30 3646 H 339.153 -3.46316 -4.56879 0
M  V30 3647 H 337.55 -4.20158 -4.28471 0
M  V30 3648 H 338.62 -3.8801 -2.9082 0
M  V30 3649 N 339.963 1.05934 -1.16686 0
M  V30 3650 C 340.873 2.17014 -0.891183 0
M  V30 3651 C 341.889 1.73453 0.137907 0
M  V30 3652 O 343.065 2.01361 -0.039592 0
M  V30 3653 C 340.13 3.44384 -0.400099 0
M  V30 3654 C 339.191 4.02433 -1.49486 0
M  V30 3655 C 338.424 5.23723 -1.02711 0
M  V30 3656 O 338.647 5.7027 0.121716 0
M  V30 3657 O 337.581 5.7382 -1.81699 0
M  V30 3658 H 341.407 2.43113 -1.82015 0
M  V30 3659 H 338.992 1.15541 -0.947132 0
M  V30 3660 H 340.874 4.21189 -0.133392 0
M  V30 3661 H 339.549 3.19802 0.500817 0
M  V30 3662 H 338.456 3.27102 -1.81535 0
M  V30 3663 H 339.789 4.31317 -2.37121 0
M  V30 3664 N 341.441 0.965919 1.2453 0
M  V30 3665 C 342.371 0.513476 2.27784 0
M  V30 3666 C 343.352 -0.445974 1.6415 0
M  V30 3667 O 344.537 -0.342485 1.91156 0
M  V30 3668 C 341.667 -0.198839 3.4673 0
M  V30 3669 C 340.621 0.676456 4.2262 0
M  V30 3670 C 339.947 -0.167248 5.34438 0
M  V30 3671 C 341.247 1.96017 4.84123 0
M  V30 3672 H 342.941 1.3765 2.65881 0
M  V30 3673 H 340.487 0.663321 1.27813 0
M  V30 3674 H 342.44 -0.526567 4.18097 0
M  V30 3675 H 341.164 -1.0962 3.07654 0
M  V30 3676 H 339.823 0.98743 3.53052 0
M  V30 3677 H 339.471 -1.0647 4.91603 0
M  V30 3678 H 339.171 0.415181 5.86131 0
M  V30 3679 H 340.695 -0.489688 6.08633 0
M  V30 3680 H 342.109 1.69814 5.47573 0
M  V30 3681 H 340.506 2.48918 5.4604 0
M  V30 3682 H 341.576 2.65622 4.05676 0
M  V30 3683 N 342.919 -1.39368 0.735821 0
M  V30 3684 C 344.167 -2.00101 0.283562 0
M  V30 3685 C 344.488 -1.5868 -1.13338 0
M  V30 3686 O 343.758 -0.835423 -1.77193 0
M  V30 3687 H 342.338 -0.740024 0.101851 0
M  V30 3688 H 345 -1.70404 0.945962 0
M  V30 3689 H 344.096 -3.10323 0.332604 0
M  V30 3690 N 344.397 -0.483516 -1.5 0
M  V30 3691 C 345.637 0.0657469 -2.04294 0
M  V30 3692 C 346.001 1.35869 -1.35659 0
M  V30 3693 O 347.202 1.99111 -1.80578 0
M  V30 3694 C 345.473 0.232758 -3.56641 0
M  V30 3695 S 347.032 0.738788 -4.32536 0
M  V30 3696 H 343.85 0.0100755 -0.710929 0
M  V30 3697 H 346.452 -0.653494 -1.84254 0
M  V30 3698 H 345.156 -0.713847 -4.04144 0
M  V30 3699 H 344.687 0.977751 -3.81056 0
M  V30 3700 H 346.702 2.01048 -4.53645 0
M  V30 3701 N 345.875 1.56104 -0.216619 0
M  V30 3702 C 346.825 2.16703 0.708798 0
M  V30 3703 C 347.809 1.11392 1.16106 0
M  V30 3704 O 349.001 1.37395 1.11587 0
M  V30 3705 C 346.13 2.84666 1.91886 0
M  V30 3706 C 345.216 3.97195 1.48651 0
M  V30 3707 N 345.607 4.99959 0.766434 0
M  V30 3708 C 343.905 4.09193 1.77418 0
M  V30 3709 C 344.606 5.79126 0.546659 0
M  V30 3710 N 343.582 5.32315 1.10188 0
M  V30 3711 H 347.384 2.93516 0.150162 0
M  V30 3712 H 344.898 1.6239 -0.0176768 0
M  V30 3713 H 346.895 3.26486 2.59253 0
M  V30 3714 H 345.555 2.09347 2.48202 0
M  V30 3715 H 346.566 5.16197 0.419634 0
M  V30 3716 H 343.243 3.45021 2.35088 0
M  V30 3717 H 344.633 6.71895 -0.026103 0
M  V30 3718 N 347.353 -0.0568162 1.57498 0
M  V30 3719 C 348.583 -0.764515 1.91934 0
M  V30 3720 C 348.991 -1.70877 0.81227 0
M  V30 3721 O 348.334 -1.82351 -0.222213 0
M  V30 3722 C 348.396 -1.5994 3.21962 0
M  V30 3723 C 348.06 -0.822925 4.4953 0
M  V30 3724 C 349.057 -0.135464 5.19723 0
M  V30 3725 C 346.742 -0.785666 4.96117 0
M  V30 3726 C 348.736 0.578861 6.34766 0
M  V30 3727 C 346.423 -0.0675784 6.11063 0
M  V30 3728 C 347.421 0.613471 6.80239 0
M  V30 3729 O 347.109 1.31996 7.92989 0
M  V30 3730 H 346.841 -0.221647 0.63863 0
M  V30 3731 H 349.395 -0.0268218 2.05382 0
M  V30 3732 H 347.625 -2.38026 3.04763 0
M  V30 3733 H 349.314 -2.18715 3.41934 0
M  V30 3734 H 350.08 -0.155458 4.84751 0
M  V30 3735 H 345.959 -1.30524 4.42136 0
M  V30 3736 H 349.503 1.111 6.88696 0
M  V30 3737 H 345.4 -0.0455636 6.45484 0
M  V30 3738 H 346.168 1.23077 8.09194 0
M  V30 3739 N 348.832 -1.54138 -0.328536 0
M  V30 3740 C 350.109 -1.62749 -1.08499 0
M  V30 3741 C 350.489 -0.458198 -2.06067 0
M  V30 3742 O 349.837 0.548046 -2.2183 0
M  V30 3743 C 350.047 -2.99519 -1.79135 0
M  V30 3744 C 351.395 -3.55394 -2.32337 0
M  V30 3745 O 352.419 -3.01792 -1.89209 0
M  V30 3746 O 351.278 -4.49186 -3.11279 0
M  V30 3747 H 348.372 -0.65886 -0.499832 0
M  V30 3748 H 350.918 -1.66484 -0.328826 0
M  V30 3749 H 349.69 -3.76061 -1.08139 0
M  V30 3750 H 349.313 -2.99441 -2.61574 0
M  V30 3751 N 350.31 0.590341 -1.46126 0
M  V30 3752 C 351.258 1.72105 -1.5647 0
M  V30 3753 C 352.252 1.63756 -0.433612 0
M  V30 3754 O 353.458 1.69342 -0.610194 0
M  V30 3755 H 349.833 0.568889 -0.491802 0
M  V30 3756 H 351.804 1.6051 -2.51553 0
M  V30 3757 C 350.553 3.10493 -1.56491 0
M  V30 3758 H 349.876 3.17583 -2.4286 0
M  V30 3759 H 351.316 3.8939 -1.67785 0
M  V30 3760 C 349.775 3.3563 -0.292231 0
M  V30 3761 O 350.305 3.96875 0.620739 0
M  V30 3762 N 348.511 2.90026 -0.182523 0
M  V30 3763 H 348.058 2.40367 -0.926356 0
M  V30 3764 H 348.016 3.07218 0.668152 0
M  V30 3765 N 351.788 1.33704 0.83433 0
M  V30 3766 C 352.751 1.24244 1.92603 0
M  V30 3767 C 353.751 0.160383 1.59998 0
M  V30 3768 O 354.941 0.412228 1.69252 0
M  V30 3769 C 352.073 0.91555 3.28376 0
M  V30 3770 H 353.266 2.21287 2.02416 0
M  V30 3771 H 350.819 1.17827 1.02696 0
M  V30 3772 H 351.554 -0.0521886 3.24258 0
M  V30 3773 H 351.339 1.69811 3.53422 0
M  V30 3774 H 352.829 0.874231 4.08347 0
M  V30 3775 N 353.266 -1.05314 1.17247 0
M  V30 3776 C 354.176 -2.16538 0.90268 0
M  V30 3777 C 355.192 -1.73523 -0.128707 0
M  V30 3778 O 356.368 -2.01337 0.0502701 0
M  V30 3779 C 353.433 -3.44167 0.418356 0
M  V30 3780 C 352.494 -4.01635 1.51618 0
M  V30 3781 C 351.727 -5.23171 1.05487 0
M  V30 3782 O 351.95 -5.70327 -0.0914715 0
M  V30 3783 O 350.884 -5.72848 1.8474 0
M  V30 3784 H 354.71 -2.42145 1.83302 0
M  V30 3785 H 352.295 -1.15037 0.953246 0
M  V30 3786 H 354.177 -4.21112 0.155726 0
M  V30 3787 H 352.852 -3.20063 -0.48385 0
M  V30 3788 H 351.759 -3.26135 1.83268 0
M  V30 3789 H 353.092 -4.30053 2.39405 0
M  V30 3790 N 354.744 -0.972509 -1.24016 0
M  V30 3791 C 355.674 -0.525548 -2.27509 0
M  V30 3792 C 356.655 0.437262 -1.64384 0
M  V30 3793 O 357.84 0.332343 -1.91335 0
M  V30 3794 C 354.97 0.180448 -3.46831 0
M  V30 3795 C 353.924 -0.698859 -4.22256 0
M  V30 3796 C 353.25 0.138903 -5.3452 0
M  V30 3797 C 354.55 -1.98582 -4.83076 0
M  V30 3798 H 356.244 -1.39058 -2.65148 0
M  V30 3799 H 353.79 -0.67009 -1.27459 0
M  V30 3800 H 355.743 0.504387 -4.18371 0
M  V30 3801 H 354.467 1.07987 -3.08231 0
M  V30 3802 H 353.126 -1.00614 -3.52523 0
M  V30 3803 H 352.774 1.03862 -4.9216 0
M  V30 3804 H 352.474 -0.446259 -5.85903 0
M  V30 3805 H 353.998 0.457404 -6.08884 0
M  V30 3806 H 355.412 -1.72715 -5.46665 0
M  V30 3807 H 353.809 -2.5181 -5.44713 0
M  V30 3808 H 354.879 -2.67769 -4.04262 0
M  V30 3809 N 356.222 1.38976 -0.743202 0
M  V30 3810 C 357.45 2.04636 -0.30525 0
M  V30 3811 C 357.865 1.56044 1.06281 0
M  V30 3812 O 357.222 0.728921 1.67311 0
M  V30 3813 C 357.273 3.60193 -0.307177 0
M  V30 3814 O 356.994 4.06998 -1.62124 0
M  V30 3815 C 358.495 4.4306 0.145928 0
M  V30 3816 H 355.715 0.65788 -0.132041 0
M  V30 3817 H 358.259 1.77866 -1.00915 0
M  V30 3818 H 356.414 3.85835 0.347898 0
M  V30 3819 H 356.828 5.01371 -1.54036 0
M  V30 3820 H 358.302 5.51921 0.0934183 0
M  V30 3821 H 358.779 4.22706 1.19231 0
M  V30 3822 H 359.385 4.22584 -0.479886 0
M  V30 3823 N 357.7 0.491464 1.49741 0
M  V30 3824 C 358.63 -0.28154 2.31796 0
M  V30 3825 C 359.611 -0.971473 1.3963 0
M  V30 3826 O 360.796 -0.964719 1.68543 0
M  V30 3827 C 357.926 -1.35203 3.19902 0
M  V30 3828 C 356.88 -0.782529 4.20786 0
M  V30 3829 C 356.206 -1.95283 4.97764 0
M  V30 3830 C 357.506 0.21999 5.21837 0
M  V30 3831 H 359.2 0.403355 2.96671 0
M  V30 3832 H 356.746 0.195425 1.42668 0
M  V30 3833 H 358.699 -1.90045 3.76113 0
M  V30 3834 H 357.423 -2.06598 2.52953 0
M  V30 3835 H 356.082 -0.255928 3.65706 0
M  V30 3836 H 355.73 -2.65423 4.2727 0
M  V30 3837 H 355.43 -1.57789 5.66018 0
M  V30 3838 H 356.954 -2.50577 5.56816 0
M  V30 3839 H 358.368 -0.23996 5.72798 0
M  V30 3840 H 356.765 0.51026 5.97927 0
M  V30 3841 H 357.835 1.13911 4.7133 0
M  V30 3842 N 359.178 -1.55987 0.224894 0
M  V30 3843 C 360.126 -2.21808 -0.700283 0
M  V30 3844 C 361.12 -1.19854 -1.19714 0
M  V30 3845 O 362.326 -1.37925 -1.15658 0
M  V30 3846 H 358.701 -0.711226 -0.244258 0
M  V30 3847 H 360.672 -2.98152 -0.121749 0
M  V30 3848 C 359.421 -2.91444 -1.8962 0
M  V30 3849 H 358.744 -3.69655 -1.52299 0
M  V30 3850 H 360.184 -3.40894 -2.52125 0
M  V30 3851 C 358.643 -1.94098 -2.75368 0
M  V30 3852 O 359.173 -1.46004 -3.74227 0
M  V30 3853 N 357.379 -1.61675 -2.41474 0
M  V30 3854 H 356.926 -2.00979 -1.61137 0
M  V30 3855 H 356.884 -0.968036 -2.99126 0
M  V30 3856 N 360.656 0.0484629 -1.57525 0
M  V30 3857 C 361.902 0.744226 -1.88651 0
M  V30 3858 C 362.235 1.76029 -0.820212 0
M  V30 3859 O 361.51 1.93782 0.166985 0
M  V30 3860 C 361.793 1.43128 -3.30434 0
M  V30 3861 C 361.646 0.43005 -4.47739 0
M  V30 3862 C 362.965 2.37031 -3.70816 0
M  V30 3863 H 360.084 0.269089 -0.68612 0
M  V30 3864 H 362.726 0.00713532 -1.89999 0
M  V30 3865 H 360.876 2.05956 -3.29415 0
M  V30 3866 H 362.548 -0.194816 -4.60888 0
M  V30 3867 H 360.791 -0.252522 -4.33064 0
M  V30 3868 H 361.462 0.948874 -5.43783 0
M  V30 3869 H 363.938 1.84263 -3.73077 0
M  V30 3870 H 362.814 2.82094 -4.70865 0
M  V30 3871 H 363.075 3.22864 -3.02012 0
M  V30 3872 N 362.134 1.5431 0.320358 0
M  V30 3873 C 363.097 1.83195 1.3774 0
M  V30 3874 C 364.097 0.703906 1.44575 0
M  V30 3875 O 365.287 0.972214 1.44546 0
M  V30 3876 C 362.419 1.99487 2.76438 0
M  V30 3877 H 363.612 2.77642 1.1338 0
M  V30 3878 H 361.165 1.46076 0.556012 0
M  V30 3879 H 361.9 1.07262 3.06048 0
M  V30 3880 H 361.685 2.81575 2.7287 0
M  V30 3881 H 363.175 2.23271 3.52902 0
M  V30 3882 N 363.613 -0.582584 1.46437 0
M  V30 3883 C 364.543 -1.70187 1.59871 0
M  V30 3884 C 365.524 -1.64066 0.449042 0
M  V30 3885 O 366.709 -1.82081 0.6753 0
M  V30 3886 C 363.839 -3.08827 1.58881 0
M  V30 3887 C 362.793 -3.29779 2.72819 0
M  V30 3888 C 362.119 -4.68947 2.5689 0
M  V30 3889 C 363.419 -3.17601 4.1464 0
M  V30 3890 H 365.113 -1.592 2.53566 0
M  V30 3891 H 362.659 -0.764472 1.22032 0
M  V30 3892 H 364.612 -3.86951 1.66873 0
M  V30 3893 H 363.336 -3.20713 0.617306 0
M  V30 3894 H 361.995 -2.54054 2.64296 0
M  V30 3895 H 361.643 -4.77599 1.57823 0
M  V30 3896 H 361.343 -4.83919 3.33312 0
M  V30 3897 H 362.867 -5.4924 2.66773 0
M  V30 3898 H 364.281 -3.8557 4.24274 0
M  V30 3899 H 362.678 -3.44094 4.9165 0
M  V30 3900 H 363.748 -2.14681 4.34788 0
M  V30 3901 N 365.091 -1.34144 -0.827227 0
M  V30 3902 C 366.339 -1.26009 -1.58007 0
M  V30 3903 C 366.66 0.170971 -1.94249 0
M  V30 3904 O 365.93 1.10256 -1.61927 0
M  V30 3905 H 364.51 -0.463414 -0.585881 0
M  V30 3906 H 367.172 -1.68005 -0.987951 0
M  V30 3907 H 366.268 -1.86187 -2.50481 0
M  V30 3908 N 366.569 1.04691 -1.17803 0
M  V30 3909 C 367.516 2.12557 -0.899343 0
M  V30 3910 C 368.486 1.65339 0.158771 0
M  V30 3911 O 369.671 1.90789 0.0204797 0
M  V30 3912 C 366.811 3.42481 -0.424315 0
M  V30 3913 C 365.924 4.03346 -1.54713 0
M  V30 3914 C 365.059 5.21208 -1.02546 0
M  V30 3915 C 364.098 5.74089 -2.12339 0
M  V30 3916 N 363.235 6.83247 -1.61612 0
M  V30 3917 H 368.075 2.35734 -1.823 0
M  V30 3918 H 365.612 1.1564 -0.909159 0
M  V30 3919 H 367.57 4.16996 -0.130421 0
M  V30 3920 H 366.2 3.19471 0.462377 0
M  V30 3921 H 365.252 3.2622 -1.95664 0
M  V30 3922 H 366.564 4.38628 -2.37501 0
M  V30 3923 H 365.718 6.02812 -0.685718 0
M  V30 3924 H 364.457 4.87414 -0.167084 0
M  V30 3925 H 363.462 4.91111 -2.47165 0
M  V30 3926 H 364.687 6.0993 -2.98601 0
M  V30 3927 H 362.633 6.5134 -0.780533 0
M  V30 3928 H 362.55 7.17559 -2.38003 0
M  V30 3929 H 363.818 7.68491 -1.30545 0
M  V30 3930 N 368.047 0.979072 1.23499 0
M  V30 3931 C 369.293 0.648178 1.92163 0
M  V30 3932 C 369.626 -0.816049 1.76222 0
M  V30 3933 O 368.901 -1.58849 1.12237 0
M  V30 3934 C 369.184 1.03773 3.44824 0
M  V30 3935 C 369.037 2.55948 3.69879 0
M  V30 3936 C 370.356 0.580653 4.36253 0
M  V30 3937 H 367.475 0.236952 0.69787 0
M  V30 3938 H 370.117 1.22012 1.45647 0
M  V30 3939 H 368.267 0.551058 3.84572 0
M  V30 3940 H 369.939 3.12179 3.3962 0
M  V30 3941 H 368.182 2.98641 3.14636 0
M  V30 3942 H 368.853 2.78255 4.76737 0
M  V30 3943 H 371.329 0.998465 4.03943 0
M  V30 3944 H 370.205 0.881663 5.41773 0
M  V30 3945 H 370.466 -0.519052 4.39042 0
M  V30 3946 N 369.525 -1.3858 0.750561 0
M  V30 3947 C 370.772 -2.00184 0.305373 0
M  V30 3948 C 371.1 -1.59575 -1.11203 0
M  V30 3949 O 370.355 -0.823236 -1.77542 0
M  V30 3950 C 370.654 -3.55455 0.372373 0
M  V30 3951 C 370.32 -4.15765 1.745 0
M  V30 3952 C 368.982 -4.31951 2.12065 0
M  V30 3953 C 371.334 -4.49067 2.64553 0
M  V30 3954 C 368.662 -4.78734 3.39162 0
M  V30 3955 C 371.014 -4.97265 3.91038 0
M  V30 3956 C 369.678 -5.11658 4.28676 0
M  V30 3957 H 368.948 -0.732526 0.111744 0
M  V30 3958 H 371.595 -1.65673 0.960451 0
M  V30 3959 H 369.9 -3.90084 -0.366272 0
M  V30 3960 H 371.597 -4.00999 0.00953918 0
M  V30 3961 H 368.187 -4.03579 1.44297 0
M  V30 3962 H 372.371 -4.36166 2.36796 0
M  V30 3963 H 367.627 -4.88062 3.68246 0
M  V30 3964 H 371.801 -5.22003 4.60962 0
M  V30 3965 H 369.428 -5.47668 5.27222 0
M  V30 3966 N 371.003 -0.499398 -1.49478 0
M  V30 3967 C 372.231 0.0425456 -2.06856 0
M  V30 3968 C 372.646 1.30964 -1.35992 0
M  V30 3969 O 372.003 1.77172 -0.437762 0
M  V30 3970 C 372.054 0.301735 -3.60239 0
M  V30 3971 O 371.775 -0.915127 -4.28436 0
M  V30 3972 C 373.276 0.887499 -4.34325 0
M  V30 3973 H 370.496 -0.0197482 -0.670709 0
M  V30 3974 H 373.04 -0.696297 -1.92281 0
M  V30 3975 H 371.195 0.990556 -3.74522 0
M  V30 3976 H 371.609 -0.676993 -5.20113 0
M  V30 3977 H 373.083 1.01845 -5.42523 0
M  V30 3978 H 373.56 1.88488 -3.96698 0
M  V30 3979 H 374.166 0.236196 -4.24644 0
M  V30 3980 N 372.481 1.55866 -0.233164 0
M  V30 3981 C 373.729 1.9821 0.394593 0
M  V30 3982 C 374.05 1.12234 1.59463 0
M  V30 3983 O 373.32 0.201981 1.94856 0
M  V30 3984 H 371.9 0.732034 0.148778 0
M  V30 3985 H 374.562 1.92107 -0.32876 0
M  V30 3986 H 373.658 3.03845 0.713063 0
M  V30 3987 N 373.959 -0.0401083 1.57549 0
M  V30 3988 C 375.207 -0.731677 1.8839 0
M  V30 3989 C 375.528 -1.76481 0.829425 0
M  V30 3990 O 374.798 -1.95411 -0.1383 0
M  V30 3991 H 373.378 -0.273225 0.695239 0
M  V30 3992 H 376.04 -0.00867725 1.94898 0
M  V30 3993 H 375.136 -1.22816 2.86919 0
M  V30 3994 N 375.437 -1.54477 -0.31217 0
M  V30 3995 C 376.4 -1.83923 -1.36766 0
M  V30 3996 C 377.4 -0.711563 -1.44199 0
M  V30 3997 O 378.59 -0.979866 -1.44029 0
M  V30 3998 C 375.722 -2.0095 -2.75376 0
M  V30 3999 H 376.915 -2.78239 -1.11906 0
M  V30 4000 H 374.468 -1.46369 -0.548257 0
M  V30 4001 H 375.203 -1.08883 -3.05475 0
M  V30 4002 H 374.988 -2.83018 -2.71373 0
M  V30 4003 H 376.478 -2.2514 -3.51713 0
M  V30 4004 N 376.915 0.57481 -1.46744 0
M  V30 4005 C 377.845 1.69337 -1.60771 0
M  V30 4006 C 378.826 1.63825 -0.457736 0
M  V30 4007 O 380.011 1.8172 -0.684947 0
M  V30 4008 C 377.141 3.0798 -1.60517 0
M  V30 4009 C 376.095 3.28327 -2.74564 0
M  V30 4010 C 375.421 4.67578 -2.59373 0
M  V30 4011 C 376.721 3.15398 -4.16319 0
M  V30 4012 H 378.415 1.57853 -2.54407 0
M  V30 4013 H 375.961 0.75799 -1.22436 0
M  V30 4014 H 377.914 3.86061 -1.68923 0
M  V30 4015 H 376.638 3.20381 -0.634305 0
M  V30 4016 H 375.297 2.52649 -2.65639 0
M  V30 4017 H 374.945 4.76755 -1.60353 0
M  V30 4018 H 374.645 4.82144 -3.35873 0
M  V30 4019 H 376.169 5.47817 -2.69682 0
M  V30 4020 H 377.583 3.83315 -4.26313 0
M  V30 4021 H 375.98 3.41482 -4.93468 0
M  V30 4022 H 377.05 2.12372 -4.3592 0
M  V30 4023 N 378.394 1.34581 0.820102 0
M  V30 4024 C 379.624 1.29991 1.6058 0
M  V30 4025 C 380.032 -0.127588 1.88769 0
M  V30 4026 O 379.375 -1.08595 1.48165 0
M  V30 4027 C 379.437 2.02548 2.9701 0
M  V30 4028 C 379.101 3.51794 2.91701 0
M  V30 4029 C 380.098 4.46647 2.66087 0
M  V30 4030 C 377.783 3.94249 3.11245 0
M  V30 4031 C 379.777 5.81929 2.60071 0
M  V30 4032 C 377.464 5.2963 3.04853 0
M  V30 4033 C 378.462 6.23282 2.793 0
M  V30 4034 O 378.15 7.56181 2.72847 0
M  V30 4035 H 377.882 0.448539 0.505756 0
M  V30 4036 H 380.436 1.77811 1.02822 0
M  V30 4037 H 378.666 1.49345 3.56697 0
M  V30 4038 H 380.355 1.91211 3.58041 0
M  V30 4039 H 381.121 4.15168 2.5072 0
M  V30 4040 H 377 3.21749 3.30149 0
M  V30 4041 H 380.544 6.54999 2.40046 0
M  V30 4042 H 376.441 5.60727 3.19774 0
M  V30 4043 H 377.209 7.6595 2.88553 0
M  V30 4044 N 379.872 -1.04064 1.18357 0
M  V30 4045 C 381.119 -1.77265 0.978947 0
M  V30 4046 C 381.447 -1.88189 -0.491428 0
M  V30 4047 O 380.702 -1.38653 -1.38108 0
M  V30 4048 C 381.001 -3.20634 1.57888 0
M  V30 4049 C 380.667 -3.29743 3.07539 0
M  V30 4050 C 379.329 -3.31937 3.48384 0
M  V30 4051 C 381.681 -3.29841 4.03552 0
M  V30 4052 C 379.009 -3.3187 4.83818 0
M  V30 4053 C 381.361 -3.31313 5.38901 0
M  V30 4054 C 380.025 -3.31799 5.79194 0
M  V30 4055 H 379.295 -0.648659 0.358222 0
M  V30 4056 H 381.942 -1.22225 1.47422 0
M  V30 4057 H 380.247 -3.78675 1.00561 0
M  V30 4058 H 381.944 -3.75917 1.39598 0
M  V30 4059 H 378.534 -3.28757 2.74986 0
M  V30 4060 H 382.718 -3.27337 3.73047 0
M  V30 4061 H 377.974 -3.30562 5.14333 0
M  V30 4062 H 382.148 -3.30338 6.13066 0
M  V30 4063 H 379.775 -3.315 6.84114 0
M  V30 4064 N 381.35 -0.985608 -1.22978 0
M  V30 4065 C 382.598 -0.656087 -1.91154 0
M  V30 4066 C 382.919 0.813561 -1.77218 0
M  V30 4067 O 382.189 1.58244 -1.1548 0
M  V30 4068 H 380.769 -0.239674 -0.707506 0
M  V30 4069 H 383.431 -1.25054 -1.49491 0
M  V30 4070 H 382.527 -0.912253 -2.9847 0
M  V30 4071 N 382.828 1.3818 -0.7579 0
M  V30 4072 C 384.076 1.99624 -0.315361 0
M  V30 4073 C 384.397 1.60464 1.10799 0
M  V30 4074 O 383.667 0.863507 1.75842 0
M  V30 4075 H 382.247 0.73831 -0.113611 0
M  V30 4076 H 384.909 1.68878 -0.972952 0
M  V30 4077 H 384.005 3.09754 -0.381931 0
M  V30 4078 N 384.306 0.507319 1.49211 0
M  V30 4079 C 385.236 -0.256939 2.32082 0
M  V30 4080 C 386.217 -0.956609 1.40652 0
M  V30 4081 O 387.402 -0.946788 1.69557 0
M  V30 4082 C 384.532 -1.31802 3.21318 0
M  V30 4083 C 383.486 -0.737855 4.21592 0
M  V30 4084 C 382.812 -1.89992 4.99807 0
M  V30 4085 C 384.112 0.275325 5.21574 0
M  V30 4086 H 385.806 0.434798 2.96226 0
M  V30 4087 H 383.352 0.210546 1.42452 0
M  V30 4088 H 385.305 -1.86045 3.78107 0
M  V30 4089 H 384.029 -2.03903 2.5513 0
M  V30 4090 H 382.688 -0.217126 3.65956 0
M  V30 4091 H 382.336 -2.60877 4.30061 0
M  V30 4092 H 382.036 -1.51777 5.6766 0
M  V30 4093 H 383.56 -2.44657 5.59442 0
M  V30 4094 H 384.974 -0.179193 5.7302 0
M  V30 4095 H 383.371 0.573649 5.97352 0
M  V30 4096 H 384.441 1.18903 4.70096 0
M  V30 4097 N 385.784 -1.5574 0.241426 0
M  V30 4098 C 387.031 -1.9881 -0.384836 0
M  V30 4099 C 387.359 -1.12947 -1.58346 0
M  V30 4100 O 386.614 -0.178993 -1.9488 0
M  V30 4101 C 386.913 -3.47308 -0.843317 0
M  V30 4102 C 386.579 -4.50223 0.246946 0
M  V30 4103 C 385.241 -4.78088 0.546399 0
M  V30 4104 C 387.593 -5.11841 0.983282 0
M  V30 4105 C 384.921 -5.64846 1.58636 0
M  V30 4106 C 387.273 -5.99727 2.01272 0
M  V30 4107 C 385.937 -6.25927 2.31888 0
M  V30 4108 H 385.207 -0.727496 -0.140821 0
M  V30 4109 H 387.854 -1.8831 0.348106 0
M  V30 4110 H 386.159 -3.55112 -1.65537 0
M  V30 4111 H 387.856 -3.78017 -1.33806 0
M  V30 4112 H 384.446 -4.286 0.00340639 0
M  V30 4113 H 388.63 -4.90366 0.765182 0
M  V30 4114 H 383.886 -5.83403 1.82896 0
M  V30 4115 H 388.06 -6.46517 2.58823 0
M  V30 4116 H 385.687 -6.92949 3.12611 0
M  V30 4117 N 387.262 0.0317525 -1.57568 0
M  V30 4118 C 388.194 1.06073 -2.03178 0
M  V30 4119 C 389.207 1.32627 -0.944132 0
M  V30 4120 O 390.396 1.30162 -1.22148 0
M  V30 4121 C 387.496 2.40297 -2.38978 0
M  V30 4122 C 386.669 2.33137 -3.70089 0
M  V30 4123 C 385.728 3.49787 -3.9311 0
M  V30 4124 O 384.754 3.29403 -4.64201 0
M  V30 4125 N 385.956 4.71562 -3.38541 0
M  V30 4126 H 388.721 0.672006 -2.92069 0
M  V30 4127 H 386.282 0.219745 -1.60402 0
M  V30 4128 H 388.274 3.1705 -2.51518 0
M  V30 4129 H 386.844 2.71024 -1.55771 0
M  V30 4130 H 386.064 1.415 -3.67928 0
M  V30 4131 H 387.352 2.25493 -4.56104 0
M  V30 4132 H 386.75 4.91024 -2.80912 0
M  V30 4133 H 385.307 5.45689 -3.56464 0
M  V30 4134 N 388.74 1.54641 0.303973 0
M  V30 4135 C 389.703 1.84646 1.35789 0
M  V30 4136 C 390.703 0.7192 1.4382 0
M  V30 4137 O 391.893 0.987491 1.43507 0
M  V30 4138 C 389.025 2.02407 2.74307 0
M  V30 4139 H 390.218 2.78829 1.10429 0
M  V30 4140 H 387.771 1.46658 0.540487 0
M  V30 4141 H 388.506 1.10502 3.04893 0
M  V30 4142 H 388.291 2.84453 2.69868 0
M  V30 4143 H 389.781 2.27002 3.50514 0
M  V30 4144 N 390.218 -0.567019 1.47046 0
M  V30 4145 C 391.629 -1.14916 1.47143 0
M  V30 4146 C 391.98 -1.94954 0.220767 0
M  V30 4147 O 391.105 -2.05602 -0.67505 0
M  V30 4148 C 391.7 -2.09069 2.666 0
M  V30 4149 C 390.259 -2.62575 2.69687 0
M  V30 4150 C 389.406 -1.38755 2.40088 0
M  V30 4151 H 392.357 -0.354126 1.54699 0
M  V30 4152 H 392.378 -2.92789 2.43011 0
M  V30 4153 H 391.89 -1.50789 3.57609 0
M  V30 4154 H 389.991 -3.24681 1.82792 0
M  V30 4155 H 390.104 -3.04239 3.70102 0
M  V30 4156 H 388.468 -1.69098 1.90468 0
M  V30 4157 H 389.251 -0.822822 3.33293 0
M  V30 4158 N 391.696 -1.35014 -0.812953 0
M  V30 4159 C 392.924 -1.31031 -1.6012 0
M  V30 4160 C 393.339 0.113558 -1.88458 0
M  V30 4161 O 392.696 1.06363 -1.48301 0
M  V30 4162 C 392.747 -2.10872 -2.93624 0
M  V30 4163 O 392.468 -3.47706 -2.66518 0
M  V30 4164 C 393.969 -2.14401 -3.88004 0
M  V30 4165 H 391.189 -0.45037 -0.497401 0
M  V30 4166 H 393.733 -1.77775 -1.01076 0
M  V30 4167 H 391.888 -1.67744 -3.492 0
M  V30 4168 H 392.302 -3.89097 -3.51715 0
M  V30 4169 H 393.776 -2.74669 -4.78812 0
M  V30 4170 H 394.253 -1.14105 -4.24119 0
M  V30 4171 H 394.859 -2.57662 -3.38364 0
M  V30 4172 N 393.175 1.03435 -1.18907 0
M  V30 4173 C 394.138 2.09756 -0.923844 0
M  V30 4174 C 395.138 1.60528 0.093416 0
M  V30 4175 O 396.328 1.73631 -0.140727 0
M  V30 4176 C 393.46 3.38692 -0.387354 0
M  V30 4177 H 394.653 2.34719 -1.86674 0
M  V30 4178 H 392.206 1.19959 -1.00197 0
M  V30 4179 H 392.941 3.19396 0.561845 0
M  V30 4180 H 392.726 3.75742 -1.12074 0
M  V30 4181 H 394.216 4.17016 -0.220694 0
M  V30 4182 N 394.653 0.992116 1.22453 0
M  V30 4183 C 395.583 0.561677 2.26644 0
M  V30 4184 C 396.564 -0.411055 1.65059 0
M  V30 4185 O 397.749 -0.301861 1.9184 0
M  V30 4186 C 394.879 -0.125247 3.47074 0
M  V30 4187 C 393.833 0.765948 4.21091 0
M  V30 4188 C 393.159 -0.0538484 5.34673 0
M  V30 4189 C 394.459 2.06242 4.79856 0
M  V30 4190 H 396.153 1.43259 2.62902 0
M  V30 4191 H 393.699 0.690283 1.26377 0
M  V30 4192 H 395.652 -0.437764 4.1912 0
M  V30 4193 H 394.376 -1.03069 3.0991 0
M  V30 4194 H 393.035 1.0621 3.50878 0
M  V30 4195 H 392.683 -0.960188 4.9375 0
M  V30 4196 H 392.383 0.539415 5.85119 0
M  V30 4197 H 393.907 -0.360477 6.09535 0
M  V30 4198 H 395.321 1.8139 5.43848 0
M  V30 4199 H 393.718 2.60444 5.40638 0
M  V30 4200 H 394.788 2.74167 3.99951 0
M  V30 4201 N 396.131 -1.37776 0.765217 0
M  V30 4202 C 397.359 -2.04124 0.337767 0
M  V30 4203 C 397.774 -1.57715 -1.03785 0
M  V30 4204 O 397.131 -0.755447 -1.6613 0
M  V30 4205 C 397.182 -3.59658 0.364442 0
M  V30 4206 O 396.903 -4.04367 1.68579 0
M  V30 4207 C 398.404 -4.43236 -0.0754221 0
M  V30 4208 H 395.624 -0.655696 0.142491 0
M  V30 4209 H 398.168 -1.76238 1.03732 0
M  V30 4210 H 396.323 -3.86339 -0.286471 0
M  V30 4211 H 396.737 -4.98857 1.61993 0
M  V30 4212 H 398.211 -5.52 -0.00560067 0
M  V30 4213 H 398.688 -4.2455 -1.12491 0
M  V30 4214 H 399.294 -4.21767 0.547055 0
M  V30 4215 N 397.609 -0.515225 -1.4894 0
M  V30 4216 C 398.519 0.259774 -2.33157 0
M  V30 4217 C 399.535 0.953501 -1.45548 0
M  V30 4218 O 400.711 0.931735 -1.78552 0
M  V30 4219 C 397.776 1.30193 -3.21326 0
M  V30 4220 C 396.837 0.620129 -4.24797 0
M  V30 4221 C 396.07 1.61263 -5.08753 0
M  V30 4222 O 396.293 2.84389 -4.94448 0
M  V30 4223 O 395.227 1.16013 -5.90614 0
M  V30 4224 H 399.053 -0.429932 -3.00641 0
M  V30 4225 H 396.638 -0.276346 -1.46822 0
M  V30 4226 H 398.52 1.90455 -3.75905 0
M  V30 4227 H 397.195 1.97431 -2.56521 0
M  V30 4228 H 396.102 -0.0226019 -3.74093 0
M  V30 4229 H 397.435 -0.0100493 -4.92199 0
M  V30 4230 N 399.087 1.5561 -0.249682 0
M  V30 4231 C 400.498 1.84979 0.252949 0
M  V30 4232 C 400.849 1.17153 1.57384 0
M  V30 4233 O 399.974 0.450884 2.11651 0
M  V30 4234 C 400.569 3.35584 0.465732 0
M  V30 4235 C 399.128 3.65169 0.912624 0
M  V30 4236 C 398.275 2.77299 -0.00859085 0
M  V30 4237 H 401.226 1.51513 -0.47217 0
M  V30 4238 H 401.247 3.57313 1.30795 0
M  V30 4239 H 400.759 3.8492 -0.49579 0
M  V30 4240 H 398.86 3.21312 1.88652 0
M  V30 4241 H 398.973 4.72912 0.767559 0
M  V30 4242 H 397.337 2.49678 0.50327 0
M  V30 4243 H 398.12 3.29442 -0.965537 0
M  V30 4244 N 400.565 -0.0233959 1.57583 0
M  V30 4245 C 401.495 -1.02162 2.09965 0
M  V30 4246 C 402.476 -1.3735 1.00344 0
M  V30 4247 O 403.661 -1.46135 1.27899 0
M  V30 4248 C 400.791 -2.32081 2.58371 0
M  V30 4249 C 399.745 -2.1112 3.72307 0
M  V30 4250 C 399.071 -3.46848 4.06941 0
M  V30 4251 C 400.371 -1.49276 5.00514 0
M  V30 4252 H 402.065 -0.585557 2.93618 0
M  V30 4253 H 399.611 -0.280218 1.41247 0
M  V30 4254 H 401.564 -3.02249 2.93639 0
M  V30 4255 H 400.288 -2.77758 1.71808 0
M  V30 4256 H 398.947 -1.43384 3.37397 0
M  V30 4257 H 398.595 -3.90184 3.17436 0
M  V30 4258 H 398.295 -3.33646 4.83688 0
M  V30 4259 H 399.819 -4.18369 4.44747 0
M  V30 4260 H 401.233 -2.09368 5.33702 0
M  V30 4261 H 399.63 -1.46632 5.8191 0
M  V30 4262 H 400.7 -0.459217 4.82721 0
M  V30 4263 N 402.043 -1.548 -0.295768 0
M  V30 4264 C 402.953 -1.89177 -1.38742 0
M  V30 4265 C 403.969 -0.786481 -1.55211 0
M  V30 4266 O 405.145 -1.08344 -1.69775 0
M  V30 4267 C 402.21 -2.13663 -2.73036 0
M  V30 4268 C 401.271 -3.37349 -2.65508 0
M  V30 4269 C 400.504 -3.60658 -3.93398 0
M  V30 4270 O 400.727 -2.86882 -4.93006 0
M  V30 4271 O 399.661 -4.54179 -3.94975 0
M  V30 4272 H 403.487 -2.82059 -1.12589 0
M  V30 4273 H 401.072 -1.41056 -0.492295 0
M  V30 4274 H 402.954 -2.3094 -3.52484 0
M  V30 4275 H 401.629 -1.23967 -2.99022 0
M  V30 4276 H 400.536 -3.25431 -1.84514 0
M  V30 4277 H 401.869 -4.27192 -2.44474 0
M  V30 4278 N 403.521 0.559213 -1.47345 0
M  V30 4279 C 404.767 1.31843 -1.54095 0
M  V30 4280 C 405.1 1.93149 -0.201726 0
M  V30 4281 O 404.375 1.77759 0.789428 0
M  V30 4282 C 404.658 2.43006 -2.65744 0
M  V30 4283 C 404.511 1.86581 -4.09277 0
M  V30 4284 C 405.83 3.44943 -2.73318 0
M  V30 4285 H 402.949 0.478012 -0.560957 0
M  V30 4286 H 405.591 0.625977 -1.79392 0
M  V30 4287 H 403.741 3.02072 -2.44305 0
M  V30 4288 H 405.413 1.31792 -4.42073 0
M  V30 4289 H 403.656 1.17268 -4.17649 0
M  V30 4290 H 404.327 2.66933 -4.83168 0
M  V30 4291 H 406.803 2.95793 -2.92653 0
M  V30 4292 H 405.679 4.20153 -3.53218 0
M  V30 4293 H 405.94 4.03665 -1.80296 0
M  V30 4294 N 404.999 1.35443 0.805782 0
M  V30 4295 C 405.909 1.30546 1.94923 0
M  V30 4296 C 406.925 0.210233 1.72725 0
M  V30 4297 O 408.101 0.43975 1.9654 0
M  V30 4298 C 405.166 1.07782 3.29521 0
M  V30 4299 C 404.227 2.26625 3.64609 0
M  V30 4300 C 403.46 2.04938 4.92784 0
M  V30 4301 O 403.683 1.01624 5.61274 0
M  V30 4302 O 402.617 2.9232 5.26149 0
M  V30 4303 H 406.443 2.26779 2.02002 0
M  V30 4304 H 404.028 1.15823 0.943682 0
M  V30 4305 H 405.91 0.969392 4.10098 0
M  V30 4306 H 404.585 0.146003 3.23371 0
M  V30 4307 H 403.492 2.43033 2.84404 0
M  V30 4308 H 404.825 3.18257 3.75464 0
M  V30 4309 N 406.477 -1.02803 1.19454 0
M  V30 4310 C 407.427 -2.0945 0.900827 0
M  V30 4311 C 408.411 -1.60335 -0.134715 0
M  V30 4312 O 409.603 -1.76857 0.0710924 0
M  V30 4313 C 406.732 -3.4044 0.442229 0
M  V30 4314 C 405.818 -3.96286 1.51056 0
M  V30 4315 N 406.209 -4.25785 2.73021 0
M  V30 4316 C 404.507 -4.24307 1.37404 0
M  V30 4317 C 405.208 -4.70654 3.41848 0
M  V30 4318 N 404.184 -4.72238 2.69243 0
M  V30 4319 H 407.986 -2.3015 1.82779 0
M  V30 4320 H 405.5 -1.20672 1.08683 0
M  V30 4321 H 407.497 -4.16354 0.21326 0
M  V30 4322 H 406.157 -3.21159 -0.478238 0
M  V30 4323 H 407.168 -4.15041 3.09776 0
M  V30 4324 H 403.845 -4.14285 0.517103 0
M  V30 4325 H 405.235 -5.02392 4.46152 0
M  V30 4326 N 407.956 -0.998596 -1.21925 0
M  V30 4327 C 409.202 -0.678667 -1.91107 0
M  V30 4328 C 409.535 0.78791 -1.77498 0
M  V30 4329 O 408.81 1.57043 -1.1475 0
M  V30 4330 C 409.093 -1.09245 -3.43129 0
M  V30 4331 C 408.946 -2.61801 -3.6576 0
M  V30 4332 C 410.265 -0.649984 -4.35274 0
M  V30 4333 H 407.384 -0.248025 -0.694012 0
M  V30 4334 H 410.026 -1.24314 -1.43688 0
M  V30 4335 H 408.176 -0.612171 -3.83647 0
M  V30 4336 H 409.848 -3.17543 -3.34611 0
M  V30 4337 H 408.091 -3.03609 -3.09845 0
M  V30 4338 H 408.762 -2.85804 -4.7225 0
M  V30 4339 H 411.238 -1.0626 -4.02303 0
M  V30 4340 H 410.114 -0.967743 -5.40302 0
M  V30 4341 H 410.375 0.449139 -4.39813 0
M  V30 4342 N 409.434 1.37368 -0.772513 0
M  V30 4343 C 410.68 1.99969 -0.337681 0
M  V30 4344 C 411.013 1.61184 1.08321 0
M  V30 4345 O 410.288 0.858395 1.74533 0
M  V30 4346 C 410.571 3.56858 -0.482121 0
M  V30 4347 C 410.424 4.0555 -1.94549 0
M  V30 4348 C 411.743 4.39955 0.113143 0
M  V30 4349 H 408.862 0.726464 -0.124171 0
M  V30 4350 H 411.504 1.63034 -0.975699 0
M  V30 4351 H 409.654 3.88452 0.0610361 0
M  V30 4352 H 411.326 3.84518 -2.54841 0
M  V30 4353 H 409.569 3.57715 -2.45403 0
M  V30 4354 H 410.24 5.14587 -1.9976 0
M  V30 4355 H 412.716 4.14623 -0.35031 0
M  V30 4356 H 411.592 5.48897 -0.0180514 0
M  V30 4357 H 411.853 4.25403 1.20354 0
M  V30 4358 N 410.912 0.523116 1.48665 0
M  V30 4359 C 412.16 -0.0134497 2.02096 0
M  V30 4360 C 412.481 -1.35418 1.40311 0
M  V30 4361 O 411.751 -1.87543 0.566074 0
M  V30 4362 H 410.331 -0.00795915 0.746958 0
M  V30 4363 H 412.993 0.685388 1.82451 0
M  V30 4364 H 412.089 -0.126849 3.11842 0
M  V30 4365 N 412.39 -1.55475 0.257931 0
M  V30 4366 C 413.322 -2.19192 -0.669881 0
M  V30 4367 C 414.335 -1.17148 -1.1305 0
M  V30 4368 O 415.524 -1.43959 -1.05537 0
M  V30 4369 C 412.624 -2.79016 -1.92363 0
M  V30 4370 C 411.797 -4.06586 -1.61265 0
M  V30 4371 C 410.856 -4.50622 -2.7171 0
M  V30 4372 O 409.882 -5.16765 -2.38627 0
M  V30 4373 N 411.084 -4.19325 -4.01431 0
M  V30 4374 H 413.849 -2.99441 -0.124635 0
M  V30 4375 H 411.41 -1.6171 0.0783311 0
M  V30 4376 H 413.402 -3.05427 -2.65511 0
M  V30 4377 H 411.972 -2.0286 -2.37837 0
M  V30 4378 H 411.192 -3.87646 -0.715811 0
M  V30 4379 H 412.48 -4.89737 -1.37967 0
M  V30 4380 H 411.878 -3.66247 -4.31138 0
M  V30 4381 H 410.435 -4.50547 -4.7101 0
M  V30 4382 N 413.868 0.0150385 -1.57593 0
M  V30 4383 C 415.116 0.701613 -1.8953 0
M  V30 4384 C 415.437 1.75139 -0.857396 0
M  V30 4385 O 414.707 1.95607 0.107194 0
M  V30 4386 H 413.287 0.26213 -0.699498 0
M  V30 4387 H 415.949 -0.0223304 -1.94887 0
M  V30 4388 H 415.045 1.18236 -2.88837 0
M  V30 4389 N 415.346 1.54954 0.287554 0
M  V30 4390 C 416.592 1.75132 1.02257 0
M  V30 4391 C 416.925 0.542858 1.86458 0
M  V30 4392 O 416.2 -0.459856 1.88986 0
M  V30 4393 C 416.483 3.04812 1.91733 0
M  V30 4394 C 416.336 4.35985 1.10622 0
M  V30 4395 C 417.655 3.30438 2.90687 0
M  V30 4396 H 414.774 0.637194 0.370341 0
M  V30 4397 H 417.416 1.87678 0.296111 0
M  V30 4398 H 415.566 2.94247 2.53675 0
M  V30 4399 H 417.238 4.58487 0.508636 0
M  V30 4400 H 415.481 4.31865 0.409271 0
M  V30 4401 H 416.152 5.23017 1.76513 0
M  V30 4402 H 418.628 3.40701 2.38877 0
M  V30 4403 H 417.504 4.22467 3.50447 0
M  V30 4404 H 417.765 2.49377 3.65053 0
M  V30 4405 N 416.824 -0.551391 1.4764 0
M  V30 4406 C 417.754 -1.66757 1.63445 0
M  V30 4407 C 418.735 -1.63077 0.483742 0
M  V30 4408 O 419.92 -1.80607 0.71377 0
M  V30 4409 C 417.05 -3.05387 1.65396 0
M  V30 4410 C 416.004 -3.23918 2.79752 0
M  V30 4411 C 415.33 -4.63393 2.66779 0
M  V30 4412 C 416.63 -3.08735 4.21284 0
M  V30 4413 H 418.324 -1.53786 2.56886 0
M  V30 4414 H 415.87 -0.738415 1.23626 0
M  V30 4415 H 417.823 -3.83325 1.75043 0
M  V30 4416 H 416.547 -3.19332 0.685195 0
M  V30 4417 H 415.206 -2.48391 2.69625 0
M  V30 4418 H 414.854 -4.74144 1.67918 0
M  V30 4419 H 414.554 -4.7674 3.43501 0
M  V30 4420 H 416.078 -5.43458 2.78364 0
M  V30 4421 H 417.492 -3.76484 4.32357 0
M  V30 4422 H 415.889 -3.33588 4.98838 0
M  V30 4423 H 416.959 -2.0541 4.39243 0
M  V30 4424 N 418.302 -1.35869 -0.798587 0
M  V30 4425 C 419.252 -1.25982 -1.90033 0
M  V30 4426 C 420.236 -0.153303 -1.60168 0
M  V30 4427 O 421.428 -0.38527 -1.72756 0
M  V30 4428 C 418.557 -1.04211 -3.27101 0
M  V30 4429 C 417.643 -2.19289 -3.63006 0
M  V30 4430 N 418.034 -3.44559 -3.70287 0
M  V30 4431 C 416.332 -2.10852 -3.93011 0
M  V30 4432 C 417.033 -4.20283 -4.02166 0
M  V30 4433 N 416.009 -3.49124 -4.16669 0
M  V30 4434 H 419.811 -2.20883 -1.93876 0
M  V30 4435 H 417.325 -1.28457 -0.993614 0
M  V30 4436 H 419.322 -0.952155 -4.05881 0
M  V30 4437 H 417.982 -0.102013 -3.2454 0
M  V30 4438 H 418.993 -3.7881 -3.53162 0
M  V30 4439 H 415.67 -1.24744 -3.98428 0
M  V30 4440 H 417.06 -5.28575 -4.14799 0
M  V30 4441 N 419.78 1.02168 -1.19998 0
M  V30 4442 C 421.196 1.27969 -0.953737 0
M  V30 4443 C 421.396 1.98079 0.369703 0
M  V30 4444 O 420.452 2.27306 1.09947 0
M  V30 4445 C 421.765 2.11971 -2.13281 0
M  V30 4446 C 423.313 2.25255 -2.17323 0
M  V30 4447 C 423.788 3.12632 -3.34702 0
M  V30 4448 N 425.279 3.2022 -3.34684 0
M  V30 4449 C 426.014 3.88039 -4.22153 0
M  V30 4450 N 425.51 4.58027 -5.19791 0
M  V30 4451 N 427.303 3.84511 -4.10009 0
M  V30 4452 H 419.454 0.550794 -2.05134 0
M  V30 4453 H 421.717 0.305683 -0.897364 0
M  V30 4454 H 421.423 1.67785 -3.09097 0
M  V30 4455 H 421.297 3.12699 -2.10949 0
M  V30 4456 H 423.684 2.68667 -1.22073 0
M  V30 4457 H 423.765 1.24053 -2.23706 0
M  V30 4458 H 423.409 2.69926 -4.30235 0
M  V30 4459 H 423.339 4.13909 -3.25556 0
M  V30 4460 H 425.83 2.70382 -2.64012 0
M  V30 4461 H 426.143 5.07429 -5.82868 0
M  V30 4462 H 424.488 4.56869 -5.23733 0
M  V30 4463 H 427.679 3.28978 -3.33003 0
M  V30 4464 H 427.852 4.3709 -4.78389 0
M  V30 4465 N 421.258 1.00505 1.21394 0
M  V30 4466 C 422.506 0.686415 1.90086 0
M  V30 4467 C 422.827 -0.785264 1.7849 0
M  V30 4468 O 422.097 -1.56387 1.17983 0
M  V30 4469 H 420.677 0.2509 0.703604 0
M  V30 4470 H 423.339 1.27417 1.47482 0
M  V30 4471 H 422.435 0.959621 2.96981 0
M  V30 4472 N 422.737 -1.36956 0.779787 0
M  V30 4473 C 423.985 -1.99097 0.347079 0
M  V30 4474 C 424.306 -1.62206 -1.08232 0
M  V30 4475 O 423.576 -0.891373 -1.74446 0
M  V30 4476 H 422.156 -0.736409 0.125342 0
M  V30 4477 H 424.818 -1.67308 0.999696 0
M  V30 4478 H 423.914 -3.09107 0.431162 0
M  V30 4479 N 424.215 -0.530993 -1.48385 0
M  V30 4480 C 425.147 0.268353 -2.27624 0
M  V30 4481 C 426.16 0.903525 -1.35426 0
M  V30 4482 O 427.349 0.781796 -1.60469 0
M  V30 4483 C 424.449 1.39535 -3.08842 0
M  V30 4484 C 423.622 0.861913 -4.28824 0
M  V30 4485 C 422.681 1.87016 -4.91845 0
M  V30 4486 O 421.707 1.4267 -5.5103 0
M  V30 4487 N 422.909 3.20238 -4.84178 0
M  V30 4488 H 425.674 -0.41123 -2.96865 0
M  V30 4489 H 423.235 -0.365387 -1.57723 0
M  V30 4490 H 425.227 2.06803 -3.47871 0
M  V30 4491 H 423.797 1.97859 -2.42014 0
M  V30 4492 H 423.017 0.0132126 -3.94198 0
M  V30 4493 H 424.305 0.484415 -5.06489 0
M  V30 4494 H 423.703 3.58932 -4.37246 0
M  V30 4495 H 422.26 3.83136 -5.27305 0
M  V30 4496 N 425.693 1.55336 -0.266172 0
M  V30 4497 C 426.623 2.25146 0.618981 0
M  V30 4498 C 427.604 1.23845 1.16604 0
M  V30 4499 O 428.789 1.52544 1.20183 0
M  V30 4500 C 425.919 2.96572 1.80728 0
M  V30 4501 C 424.873 4.04726 1.39215 0
M  V30 4502 C 424.199 4.63678 2.66283 0
M  V30 4503 C 425.499 5.19407 0.548942 0
M  V30 4504 H 427.193 2.99377 0.0368116 0
M  V30 4505 H 424.739 1.43991 0.0162651 0
M  V30 4506 H 426.692 3.44116 2.43232 0
M  V30 4507 H 425.416 2.19861 2.41514 0
M  V30 4508 H 424.075 3.57979 0.790351 0
M  V30 4509 H 423.723 3.83646 3.25308 0
M  V30 4510 H 423.423 5.367 2.39222 0
M  V30 4511 H 424.947 5.13967 3.29651 0
M  V30 4512 H 426.361 5.63059 1.07876 0
M  V30 4513 H 424.758 5.98936 0.373593 0
M  V30 4514 H 425.828 4.8295 -0.434394 0
M  V30 4515 N 427.171 -0.0066808 1.57599 0
M  V30 4516 C 428.121 -1.0086 2.04478 0
M  V30 4517 C 429.105 -1.30714 0.938231 0
M  V30 4518 O 430.297 -1.29924 1.20203 0
M  V30 4519 C 427.426 -2.30273 2.54615 0
M  V30 4520 C 426.512 -2.03413 3.72134 0
M  V30 4521 N 426.903 -1.46688 4.84062 0
M  V30 4522 C 425.201 -2.33589 3.79937 0
M  V30 4523 C 425.902 -1.36146 5.65543 0
M  V30 4524 N 424.878 -1.84477 5.1134 0
M  V30 4525 H 428.68 -0.564402 2.8843 0
M  V30 4526 H 426.194 -0.212521 1.61003 0
M  V30 4527 H 428.191 -3.02885 2.86472 0
M  V30 4528 H 426.851 -2.75352 1.72079 0
M  V30 4529 H 427.862 -1.14658 5.05049 0
M  V30 4530 H 424.539 -2.81589 3.08243 0
M  V30 4531 H 425.929 -0.925873 6.6549 0
M  V30 4532 N 428.649 -1.55105 -0.279332 0
M  V30 4533 C 429.897 -1.75066 -1.00977 0
M  V30 4534 C 430.218 -0.551276 -1.87045 0
M  V30 4535 O 429.488 0.433984 -1.91032 0
M  V30 4536 H 428.068 -0.645578 -0.375816 0
M  V30 4537 H 430.73 -1.92497 -0.305089 0
M  V30 4538 H 429.826 -2.64894 -1.65038 0
M  V30 4539 N 430.127 0.543554 -1.4793 0
M  V30 4540 C 431.09 1.63156 -1.60975 0
M  V30 4541 C 432.09 1.53346 -0.483899 0
M  V30 4542 O 433.28 1.5726 -0.749339 0
M  V30 4543 C 430.412 3.02743 -1.56716 0
M  V30 4544 H 431.605 1.52934 -2.57975 0
M  V30 4545 H 429.158 0.764557 -1.36324 0
M  V30 4546 H 429.893 3.18484 -0.611418 0
M  V30 4547 H 429.678 3.11272 -2.38438 0
M  V30 4548 H 431.168 3.81871 -1.6901 0
M  V30 4549 N 431.605 1.3629 0.791371 0
M  V30 4550 C 433.021 1.16661 1.08914 0
M  V30 4551 C 433.221 -0.0106266 2.01497 0
M  V30 4552 O 432.277 -0.676596 2.43266 0
M  V30 4553 C 433.59 2.47656 1.70549 0
M  V30 4554 C 435.138 2.54002 1.82899 0
M  V30 4555 C 435.613 3.85078 2.47949 0
M  V30 4556 N 437.104 3.86413 2.5542 0
M  V30 4557 C 437.839 4.84572 3.06557 0
M  V30 4558 N 437.335 5.93124 3.58016 0
M  V30 4559 N 439.128 4.71994 3.05251 0
M  V30 4560 H 431.279 2.11668 0.176238 0
M  V30 4561 H 433.542 0.937486 0.140796 0
M  V30 4562 H 433.248 3.34059 1.09989 0
M  V30 4563 H 433.122 2.63319 2.70079 0
M  V30 4564 H 435.509 1.68018 2.42598 0
M  V30 4565 H 435.59 2.42239 0.821808 0
M  V30 4566 H 435.234 4.71467 1.88895 0
M  V30 4567 H 435.164 3.94135 3.49235 0
M  V30 4568 H 437.655 3.07988 2.18979 0
M  V30 4569 H 437.968 6.63999 3.95381 0
M  V30 4570 H 436.313 5.96796 3.56173 0
M  V30 4571 H 439.504 3.86321 2.64336 0
M  V30 4572 H 439.677 5.48653 3.44796 0
M  V30 4573 N 433.083 -1.0153 1.20538 0
M  V30 4574 C 434.494 -1.56598 1.01657 0
M  V30 4575 C 434.845 -1.91505 -0.426668 0
M  V30 4576 O 433.97 -1.72375 -1.30827 0
M  V30 4577 C 434.565 -2.84542 1.83905 0
M  V30 4578 C 433.124 -3.36133 1.69386 0
M  V30 4579 C 432.271 -2.09427 1.81757 0
M  V30 4580 H 435.222 -0.838974 1.34711 0
M  V30 4581 H 435.243 -3.56004 1.34319 0
M  V30 4582 H 434.755 -2.59105 2.8894 0
M  V30 4583 H 432.856 -3.66528 0.669933 0
M  V30 4584 H 432.969 -4.08248 2.50739 0
M  V30 4585 H 431.333 -2.21941 1.24957 0
M  V30 4586 H 432.116 -1.86414 2.88279 0
M  V30 4587 N 434.561 -1.01147 -1.20859 0
M  V30 4588 C 435.491 -0.597663 -2.25722 0
M  V30 4589 C 436.472 0.384744 -1.65692 0
M  V30 4590 O 437.657 0.271303 -1.92296 0
M  V30 4591 C 434.787 0.0700149 -3.47229 0
M  V30 4592 C 433.741 -0.832843 -4.19819 0
M  V30 4593 C 433.067 -0.0312202 -5.34691 0
M  V30 4594 C 434.367 -2.1385 -4.76514 0
M  V30 4595 H 436.061 -1.47423 -2.60589 0
M  V30 4596 H 433.607 -0.710301 -1.25263 0
M  V30 4597 H 435.56 0.37103 -4.19763 0
M  V30 4598 H 434.284 0.981259 -3.11511 0
M  V30 4599 H 432.943 -1.11778 -3.49144 0
M  V30 4600 H 432.591 0.881515 -4.95215 0
M  V30 4601 H 432.291 -0.632434 -5.84187 0
M  V30 4602 H 433.815 0.26346 -6.10031 0
M  V30 4603 H 435.229 -1.9002 -5.40893 0
M  V30 4604 H 433.626 -2.69012 -5.36426 0
M  V30 4605 H 434.696 -2.80495 -3.95538 0
M  V30 4606 N 436.039 1.36541 -0.78704 0
M  V30 4607 C 437.287 1.98911 -0.357633 0
M  V30 4608 C 437.608 1.62778 1.07371 0
M  V30 4609 O 436.878 0.900612 1.73971 0
M  V30 4610 H 435.458 0.735734 -0.129246 0
M  V30 4611 H 438.12 1.66776 -1.00855 0
M  V30 4612 H 437.216 3.08874 -0.447549 0
M  V30 4613 N 437.518 0.538854 1.48102 0
M  V30 4614 C 438.746 0.0123136 2.06896 0
M  V30 4615 C 439.161 -1.27312 1.39417 0
M  V30 4616 O 438.518 -1.75949 0.484582 0
M  V30 4617 C 438.569 -0.206118 3.60912 0
M  V30 4618 O 438.29 1.0284 4.25859 0
M  V30 4619 C 439.791 -0.772033 4.36526 0
M  V30 4620 H 437.011 0.0375239 0.66995 0
M  V30 4621 H 439.555 0.747032 1.90367 0
M  V30 4622 H 437.71 -0.89091 3.77017 0
M  V30 4623 H 438.124 0.814654 5.18135 0
M  V30 4624 H 439.598 -0.874251 5.45033 0
M  V30 4625 H 440.075 -1.77904 4.01555 0
M  V30 4626 H 440.681 -0.123526 4.25121 0
M  V30 4627 N 438.996 -1.55193 0.274407 0
M  V30 4628 C 440.244 -1.99187 -0.341902 0
M  V30 4629 C 440.565 -1.16422 -1.56431 0
M  V30 4630 O 439.835 -0.253573 -1.94252 0
M  V30 4631 H 438.415 -0.735721 -0.129317 0
M  V30 4632 H 441.077 -1.91168 0.379578 0
M  V30 4633 H 440.173 -3.05629 -0.632253 0
M  V30 4634 N 440.474 -0.00167713 -1.576 0
M  V30 4635 C 441.384 1.00548 -2.1196 0
M  V30 4636 C 442.4 1.3758 -1.06526 0
M  V30 4637 O 443.576 1.46278 -1.38436 0
M  V30 4638 C 440.641 2.27809 -2.6135 0
M  V30 4639 C 439.702 1.97074 -3.81393 0
M  V30 4640 C 438.935 3.18267 -4.28417 0
M  V30 4641 O 439.158 4.30009 -3.74765 0
M  V30 4642 O 438.092 3.02167 -5.20556 0
M  V30 4643 H 441.918 0.573373 -2.98238 0
M  V30 4644 H 439.503 0.217255 -1.47812 0
M  V30 4645 H 441.385 3.02568 -2.93309 0
M  V30 4646 H 440.06 2.70254 -1.78169 0
M  V30 4647 H 438.967 1.19785 -3.54404 0
M  V30 4648 H 440.3 1.59464 -4.65652 0
M  V30 4649 N 441.952 1.55251 0.271103 0
M  V30 4650 C 443.368 1.47133 0.618393 0
M  V30 4651 C 443.568 0.686994 1.89427 0
M  V30 4652 O 442.624 0.206609 2.51653 0
M  V30 4653 C 443.937 2.91361 0.743593 0
M  V30 4654 C 445.485 3.01587 0.837522 0
M  V30 4655 C 445.96 4.47073 0.994483 0
M  V30 4656 N 447.451 4.50909 1.05996 0
M  V30 4657 C 448.186 5.60698 1.20024 0
M  V30 4658 N 447.682 6.80348 1.30759 0
M  V30 4659 N 449.475 5.48444 1.23149 0
M  V30 4660 H 441.626 2.04698 -0.566784 0
M  V30 4661 H 443.889 0.928319 -0.192165 0
M  V30 4662 H 443.595 3.51483 -0.123493 0
M  V30 4663 H 443.469 3.40484 1.62328 0
M  V30 4664 H 445.856 2.4156 1.69507 0
M  V30 4665 H 445.937 2.55713 -0.0668086 0
M  V30 4666 H 445.581 5.07703 0.141582 0
M  V30 4667 H 445.511 4.90605 1.91349 0
M  V30 4668 H 448.002 3.6472 0.989316 0
M  V30 4669 H 448.315 7.59772 1.41303 0
M  V30 4670 H 446.66 6.83156 1.27761 0
M  V30 4671 H 449.851 4.53907 1.14394 0
M  V30 4672 H 450.024 6.34049 1.33738 0
M  V30 4673 N 443.43 -0.535701 1.48216 0
M  V30 4674 C 444.676 -1.2913 1.57153 0
M  V30 4675 C 445.031 -1.90899 0.239823 0
M  V30 4676 O 444.324 -1.76022 -0.756748 0
M  V30 4677 C 444.518 -2.4068 2.64212 0
M  V30 4678 C 444.347 -1.89844 4.07663 0
M  V30 4679 C 443.117 -1.72708 4.74869 0
M  V30 4680 C 445.315 -1.43031 4.94011 0
M  V30 4681 N 443.297 -1.16437 6.02757 0
M  V30 4682 C 444.668 -0.986691 6.12098 0
M  V30 4683 C 446.723 -1.3128 4.80281 0
M  V30 4684 C 445.426 -0.437231 7.1797 0
M  V30 4685 C 447.452 -0.777346 5.86269 0
M  V30 4686 C 446.814 -0.343774 7.03561 0
M  V30 4687 H 442.913 -0.463753 0.629648 0
M  V30 4688 H 445.497 -0.604736 1.8507 0
M  V30 4689 H 443.668 -3.06839 2.38126 0
M  V30 4690 H 445.4 -3.07706 2.62867 0
M  V30 4691 H 442.155 -1.96061 4.31111 0
M  V30 4692 H 442.579 -0.903281 6.70947 0
M  V30 4693 H 447.221 -1.63408 3.89946 0
M  V30 4694 H 444.939 -0.103621 8.08034 0
M  V30 4695 H 448.525 -0.689688 5.77698 0
M  V30 4696 H 447.405 0.0641219 7.84174 0
M  V30 4697 N 444.908 -1.36708 -0.784132 0
M  V30 4698 C 445.856 -1.31533 -1.91838 0
M  V30 4699 C 446.85 -0.206205 -1.6814 0
M  V30 4700 O 448.056 -0.373519 -1.76082 0
M  V30 4701 H 444.431 -0.409613 -0.630651 0
M  V30 4702 H 446.402 -2.2731 -1.9332 0
M  V30 4703 C 445.151 -1.12679 -3.28936 0
M  V30 4704 H 444.474 -1.97274 -3.4774 0
M  V30 4705 H 445.914 -1.13106 -4.08636 0
M  V30 4706 C 444.373 0.168281 -3.36479 0
M  V30 4707 O 444.903 1.15625 -3.84699 0
M  V30 4708 N 443.109 0.214762 -2.89805 0
M  V30 4709 H 442.656 -0.589852 -2.50756 0
M  V30 4710 H 442.614 1.08094 -2.95234 0
M  V30 4711 N 446.386 1.0089 -1.21074 0
M  V30 4712 C 447.316 2.1145 -0.990523 0
M  V30 4713 C 448.297 1.69897 0.0831699 0
M  V30 4714 O 449.482 1.94052 -0.0758853 0
M  V30 4715 C 446.612 3.42914 -0.550177 0
M  V30 4716 C 445.566 3.98244 -1.56799 0
M  V30 4717 C 444.892 5.25568 -0.984013 0
M  V30 4718 C 446.192 4.30752 -2.95381 0
M  V30 4719 H 447.886 2.3013 -1.91521 0
M  V30 4720 H 445.432 1.10592 -0.92225 0
M  V30 4721 H 447.385 4.19653 -0.383305 0
M  V30 4722 H 446.109 3.24014 0.41015 0
M  V30 4723 H 444.768 3.23621 -1.72236 0
M  V30 4724 H 444.416 5.02998 -0.0155216 0
M  V30 4725 H 444.116 5.63551 -1.66384 0
M  V30 4726 H 445.64 6.04955 -0.828378 0
M  V30 4727 H 447.054 4.98349 -2.8341 0
M  V30 4728 H 445.451 4.79869 -3.60341 0
M  V30 4729 H 446.521 3.39192 -3.46521 0
M  V30 4730 N 447.864 1.01787 1.20321 0
M  V30 4731 C 449.11 0.708985 1.90003 0
M  V30 4732 C 449.443 -0.759572 1.78729 0
M  V30 4733 O 448.718 -1.55198 1.17234 0
M  V30 4734 C 449.001 1.1469 3.41348 0
M  V30 4735 C 448.854 2.67586 3.61549 0
M  V30 4736 C 450.173 0.71915 4.34185 0
M  V30 4737 H 447.292 0.259034 0.689978 0
M  V30 4738 H 449.934 1.26584 1.41692 0
M  V30 4739 H 448.084 0.673128 3.82624 0
M  V30 4740 H 449.756 3.22826 3.29517 0
M  V30 4741 H 447.999 3.085 3.04976 0
M  V30 4742 H 448.67 2.93281 4.67643 0
M  V30 4743 H 451.146 1.12647 4.00562 0
M  V30 4744 H 450.022 1.05358 5.38694 0
M  V30 4745 H 450.283 -0.379111 4.40472 0
M  V30 4746 N 449.342 -1.36122 0.79427 0
M  V30 4747 C 450.588 -1.99406 0.369452 0
M  V30 4748 C 450.921 -1.62886 -1.05743 0
M  V30 4749 O 450.196 -0.886053 -1.73145 0
M  V30 4750 C 450.479 -3.56046 0.538833 0
M  V30 4751 C 450.332 -4.02404 2.00976 0
M  V30 4752 C 451.651 -4.40079 -0.0431359 0
M  V30 4753 H 448.77 -0.724397 0.135712 0
M  V30 4754 H 451.412 -1.61461 1.00151 0
M  V30 4755 H 449.562 -3.885 0.000771004 0
M  V30 4756 H 451.234 -3.80415 2.60926 0
M  V30 4757 H 449.477 -3.53765 2.51063 0
M  V30 4758 H 450.148 -5.11344 2.07922 0
M  V30 4759 H 452.624 -4.14013 0.416228 0
M  V30 4760 H 451.5 -5.48799 0.105374 0
M  V30 4761 H 451.761 -4.27264 -1.13571 0
M  V30 4762 N 450.82 -0.546701 -1.47814 0
M  V30 4763 C 452.066 -0.0269594 -2.03382 0
M  V30 4764 C 452.421 1.30406 -1.41464 0
M  V30 4765 O 451.714 1.8332 -0.557151 0
M  V30 4766 C 451.908 0.134869 -3.57145 0
M  V30 4767 C 451.737 -1.17891 -4.33972 0
M  V30 4768 C 450.507 -1.74336 -4.74273 0
M  V30 4769 C 452.705 -2.09361 -4.69758 0
M  V30 4770 N 450.687 -2.99829 -5.35701 0
M  V30 4771 C 452.058 -3.19431 -5.31379 0
M  V30 4772 C 454.113 -2.09484 -4.51687 0
M  V30 4773 C 452.816 -4.2971 -5.76838 0
M  V30 4774 C 454.842 -3.18767 -4.98138 0
M  V30 4775 C 454.204 -4.27557 -5.59799 0
M  V30 4776 H 450.303 -0.0517733 -0.780284 0
M  V30 4777 H 452.887 -0.731673 -1.80429 0
M  V30 4778 H 451.058 0.80869 -3.79888 0
M  V30 4779 H 452.79 0.655726 -3.99352 0
M  V30 4780 H 449.545 -1.28265 -4.559 0
M  V30 4781 H 449.969 -3.63765 -5.70968 0
M  V30 4782 H 454.611 -1.26663 -4.03381 0
M  V30 4783 H 452.329 -5.13297 -6.24141 0
M  V30 4784 H 455.915 -3.19937 -4.85934 0
M  V30 4785 H 454.795 -5.10725 -5.95088 0
M  V30 4786 N 452.299 1.55045 -0.282633 0
M  V30 4787 C 453.229 2.2579 0.595066 0
M  V30 4788 C 454.21 1.25074 1.15284 0
M  V30 4789 O 455.395 1.5381 1.18559 0
M  V30 4790 C 452.525 2.98472 1.77572 0
M  V30 4791 C 451.479 4.0618 1.34914 0
M  V30 4792 C 450.805 4.66477 2.6135 0
M  V30 4793 C 452.105 5.1996 0.493821 0
M  V30 4794 H 453.799 2.994 0.00505653 0
M  V30 4795 H 451.345 1.44 0.000992001 0
M  V30 4796 H 453.298 3.46677 2.39568 0
M  V30 4797 H 452.022 2.2241 2.39168 0
M  V30 4798 H 450.681 3.58797 0.752338 0
M  V30 4799 H 450.329 3.87074 3.2122 0
M  V30 4800 H 450.029 5.39207 2.33516 0
M  V30 4801 H 451.553 5.17435 3.24181 0
M  V30 4802 H 452.967 5.64172 1.01898 0
M  V30 4803 H 451.364 5.99299 0.310047 0
M  V30 4804 H 452.434 4.82462 -0.485593 0
M  V30 4805 N 453.777 0.010035 1.57597 0
M  V30 4806 C 455.193 -0.346164 1.55801 0
M  V30 4807 C 455.393 -1.74144 1.01371 0
M  V30 4808 O 454.449 -2.43938 0.651968 0
M  V30 4809 C 455.762 -0.212216 2.9995 0
M  V30 4810 C 457.31 -0.286409 3.11687 0
M  V30 4811 C 457.785 -0.18147 4.5764 0
M  V30 4812 N 459.276 -0.239056 4.62583 0
M  V30 4813 C 460.011 -0.181351 5.73113 0
M  V30 4814 N 459.507 -0.073661 6.92761 0
M  V30 4815 N 461.3 -0.233949 5.61613 0
M  V30 4816 H 453.451 0.922657 1.91313 0
M  V30 4817 H 455.714 0.354595 0.879185 0
M  V30 4818 H 455.42 0.748169 3.4365 0
M  V30 4819 H 455.294 -0.990224 3.6397 0
M  V30 4820 H 457.681 -1.23724 2.67911 0
M  V30 4821 H 457.762 0.521645 2.50425 0
M  V30 4822 H 457.406 0.765863 5.02093 0
M  V30 4823 H 457.336 -1.00814 5.1686 0
M  V30 4824 H 459.827 -0.32321 3.76515 0
M  V30 4825 H 460.14 -0.0358003 7.72792 0
M  V30 4826 H 458.485 -0.0391461 6.94989 0
M  V30 4827 H 461.676 -0.316347 4.6703 0
M  V30 4828 H 461.849 -0.185514 6.47734 0
M  V30 4829 N 455.255 -1.55392 -0.262866 0
M  V30 4830 C 456.218 -1.88181 -1.30846 0
M  V30 4831 C 457.218 -0.757079 -1.41862 0
M  V30 4832 O 458.408 -1.02519 -1.40838 0
M  V30 4833 C 455.54 -2.09609 -2.68844 0
M  V30 4834 H 456.733 -2.81659 -1.02997 0
M  V30 4835 H 454.286 -1.48039 -0.501414 0
M  V30 4836 H 455.021 -1.18547 -3.01856 0
M  V30 4837 H 454.806 -2.91508 -2.62231 0
M  V30 4838 H 456.296 -2.36215 -3.44372 0
M  V30 4839 N 456.733 0.527833 -1.48498 0
M  V30 4840 C 457.958 1.313 -1.60546 0
M  V30 4841 C 458.383 1.86199 -0.26672 0
M  V30 4842 O 457.741 1.64513 0.761918 0
M  V30 4843 C 457.789 2.43818 -2.65678 0
M  V30 4844 O 456.893 3.46916 -2.22987 0
M  V30 4845 H 456.234 0.388784 -0.538277 0
M  V30 4846 H 458.764 0.634896 -1.945 0
M  V30 4847 H 458.774 2.89973 -2.87018 0
M  V30 4848 H 457.449 2.03222 -3.62869 0
M  V30 4849 H 456.026 3.06864 -2.11869 0
M  V30 4850 N 458.211 1.37122 0.776871 0
M  V30 4851 C 459.174 1.32301 1.8716 0
M  V30 4852 C 460.174 0.228099 1.59174 0
M  V30 4853 O 461.364 0.483642 1.67352 0
M  V30 4854 C 458.496 1.054 3.24197 0
M  V30 4855 H 459.689 2.29673 1.92848 0
M  V30 4856 H 457.242 1.22077 0.97606 0
M  V30 4857 H 457.977 0.0853872 3.24188 0
M  V30 4858 H 457.762 1.84648 3.45901 0
M  V30 4859 H 459.252 1.04664 4.04271 0
M  V30 4860 N 459.689 -1.00246 1.21608 0
M  V30 4861 C 460.935 -1.74319 1.03638 0
M  V30 4862 C 461.268 -1.89408 -0.428749 0
M  V30 4863 O 460.543 -1.43026 -1.3181 0
M  V30 4864 C 460.826 -3.15431 1.73711 0
M  V30 4865 C 460.679 -3.08049 3.27759 0
M  V30 4866 C 461.998 -4.14407 1.48173 0
M  V30 4867 H 459.117 -0.632741 0.377899 0
M  V30 4868 H 461.759 -1.16853 1.49818 0
M  V30 4869 H 459.909 -3.64493 1.34452 0
M  V30 4870 H 461.581 -2.66681 3.76403 0
M  V30 4871 H 459.824 -2.45088 3.57931 0
M  V30 4872 H 460.495 -4.07862 3.71958 0
M  V30 4873 H 462.971 -3.74061 1.82258 0
M  V30 4874 H 461.847 -5.11279 1.99713 0
M  V30 4875 H 462.108 -4.40174 0.412273 0
M  V30 4876 N 461.167 -1.02423 -1.1978 0
M  V30 4877 C 462.583 -0.740459 -1.41384 0
M  V30 4878 C 462.783 0.676827 -1.89793 0
M  V30 4879 O 461.839 1.4435 -2.0717 0
M  V30 4880 C 463.152 -1.77264 -2.42895 0
M  V30 4881 C 464.7 -1.79165 -2.56649 0
M  V30 4882 C 465.175 -2.8133 -3.6141 0
M  V30 4883 N 466.666 -2.80118 -3.68901 0
M  V30 4884 C 467.401 -3.55824 -4.49641 0
M  V30 4885 N 466.897 -4.41231 -5.34123 0
M  V30 4886 N 468.69 -3.44387 -4.44246 0
M  V30 4887 H 460.841 -1.9391 -0.866764 0
M  V30 4888 H 463.104 -0.838074 -0.443098 0
M  V30 4889 H 462.81 -2.7884 -2.14339 0
M  V30 4890 H 462.684 -1.59108 -3.42001 0
M  V30 4891 H 465.071 -0.782702 -2.84531 0
M  V30 4892 H 465.152 -2.01396 -1.57713 0
M  V30 4893 H 464.796 -3.82394 -3.34271 0
M  V30 4894 H 464.726 -2.56359 -4.59986 0
M  V30 4895 H 467.217 -2.1817 -3.08562 0
M  V30 4896 H 467.53 -4.95747 -5.92836 0
M  V30 4897 H 465.875 -4.45306 -5.33599 0
M  V30 4898 H 469.066 -2.7708 -3.77285 0
M  V30 4899 H 469.239 -4.0364 -5.06931 0
M  V30 4900 N 462.645 1.35699 -0.801477 0
M  V30 4901 C 463.593 2.3177 -0.196317 0
M  V30 4902 C 464.587 1.56388 0.651081 0
M  V30 4903 O 465.793 1.71557 0.544815 0
M  V30 4904 H 462.168 0.750669 -0.0447189 0
M  V30 4905 H 464.139 2.8036 -1.02181 0
M  V30 4906 C 462.888 3.41671 0.644702 0
M  V30 4907 H 462.211 3.998 0.0019921 0
M  V30 4908 H 463.651 4.11184 1.0346 0
M  V30 4909 C 462.11 2.84271 1.80808 0
M  V30 4910 O 462.64 2.77408 2.9053 0
M  V30 4911 N 460.846 2.41391 1.61799 0
M  V30 4912 H 460.393 2.47173 0.725493 0
M  V30 4913 H 460.351 2.03334 2.39797 0
M  V30 4914 N 464.123 0.554532 1.47522 0
M  V30 4915 C 465.348 0.0322661 2.07375 0
M  V30 4916 C 465.773 -1.25079 1.40488 0
M  V30 4917 O 465.131 -1.74859 0.47896 0
M  V30 4918 C 465.179 -0.149397 3.6029 0
M  V30 4919 O 464.283 -1.21259 3.9417 0
M  V30 4920 H 463.624 0.0501228 0.662106 0
M  V30 4921 H 466.154 0.769452 1.8958 0
M  V30 4922 H 466.164 -0.364437 4.06369 0
M  V30 4923 H 464.839 0.787743 4.08372 0
M  V30 4924 H 463.416 -0.97825 3.5984 0
M  V30 4925 N 465.601 -1.54893 0.290851 0
M  V30 4926 C 466.531 -2.26103 -0.583084 0
M  V30 4927 C 467.512 -1.25684 -1.14619 0
M  V30 4928 O 468.697 -1.54436 -1.17741 0
M  V30 4929 C 465.827 -2.99409 -1.75987 0
M  V30 4930 C 464.781 -4.0689 -1.32758 0
M  V30 4931 C 464.107 -4.67856 -2.58872 0
M  V30 4932 C 465.407 -5.20215 -0.46624 0
M  V30 4933 H 467.101 -2.99398 0.0108214 0
M  V30 4934 H 464.647 -1.43998 0.00664468 0
M  V30 4935 H 466.6 -3.47943 -2.37727 0
M  V30 4936 H 465.324 -2.23675 -2.37985 0
M  V30 4937 H 463.983 -3.59191 -0.733299 0
M  V30 4938 H 463.631 -3.88772 -3.19163 0
M  V30 4939 H 463.331 -5.40438 -2.30653 0
M  V30 4940 H 464.855 -5.19147 -3.21433 0
M  V30 4941 H 466.269 -5.64704 -0.989047 0
M  V30 4942 H 464.666 -5.99455 -0.27826 0
M  V30 4943 H 465.736 -4.82198 0.511173 0
M  V30 4944 N 467.08 -0.0183926 -1.57589 0
M  V30 4945 C 468.32 0.666846 -1.93216 0
M  V30 4946 C 468.684 1.69905 -0.894215 0
M  V30 4947 O 469.885 2.436 -1.13633 0
M  V30 4948 C 468.156 1.27684 -3.33814 0
M  V30 4949 S 469.715 1.98464 -3.91353 0
M  V30 4950 H 466.533 0.219826 -0.676164 0
M  V30 4951 H 469.135 -0.0794893 -1.95338 0
M  V30 4952 H 467.839 0.513006 -4.07181 0
M  V30 4953 H 467.37 2.06071 -3.3511 0
M  V30 4954 H 469.385 3.26189 -3.73918 0
M  V30 4955 N 468.558 1.5553 0.254621 0
M  V30 4956 C 469.969 1.67518 0.824286 0
M  V30 4957 C 470.32 0.614429 1.86331 0
M  V30 4958 O 469.445 -0.240736 2.15057 0
M  V30 4959 C 470.04 3.03692 1.50189 0
M  V30 4960 C 468.599 3.17646 2.01935 0
M  V30 4961 C 467.746 2.63373 0.867746 0
M  V30 4962 H 470.697 1.58671 0.0305843 0
M  V30 4963 H 470.718 2.97706 2.36962 0
M  V30 4964 H 470.23 3.80874 0.745431 0
M  V30 4965 H 468.331 2.45273 2.80485 0
M  V30 4966 H 468.444 4.24455 2.22204 0
M  V30 4967 H 466.808 2.20999 1.26616 0
M  V30 4968 H 467.591 3.43074 0.124498 0
M  V30 4969 N 470.036 -0.519951 1.48776 0
M  V30 4970 C 470.969 -1.64053 1.58625 0
M  V30 4971 C 471.947 -1.5664 0.43618 0
M  V30 4972 O 473.131 -1.76969 0.649159 0
M  V30 4973 C 470.258 -3.02497 1.52359 0
M  V30 4974 C 469.304 -3.28235 2.72331 0
M  V30 4975 S 470.137 -3.13414 4.34203 0
M  V30 4976 C 471.293 -4.54287 4.30551 0
M  V30 4977 H 471.526 -1.5545 2.53422 0
M  V30 4978 H 469.059 -0.703681 1.37433 0
M  V30 4979 H 471.017 -3.82336 1.4943 0
M  V30 4980 H 469.678 -3.08531 0.588824 0
M  V30 4981 H 468.871 -4.29256 2.64113 0
M  V30 4982 H 468.473 -2.56085 2.72574 0
M  V30 4983 H 470.765 -5.46006 4.01103 0
M  V30 4984 H 471.708 -4.67558 5.31785 0
M  V30 4985 H 472.116 -4.34079 3.60881 0
M  V30 4986 N 471.514 -1.37532 -0.769588 0
M  V30 4987 C 472.754 -1.34261 -1.54122 0
M  V30 4988 C 473.118 0.0717222 -1.91866 0
M  V30 4989 O 474.319 0.22918 -2.67821 0
M  V30 4990 C 472.59 -2.2574 -2.77086 0
M  V30 4991 S 474.149 -2.40339 -3.67127 0
M  V30 4992 H 470.967 -0.476595 -0.527615 0
M  V30 4993 H 473.569 -1.73303 -0.90479 0
M  V30 4994 H 472.273 -3.27417 -2.4744 0
M  V30 4995 H 471.804 -1.87789 -3.45686 0
M  V30 4996 H 473.819 -1.61558 -4.69163 0
M  V30 4997 N 472.992 0.995999 -1.22138 0
M  V30 4998 C 474.232 1.75032 -1.05561 0
M  V30 4999 C 474.596 1.87729 0.402698 0
M  V30 5000 O 475.797 2.59813 0.689234 0
M  V30 5001 C 474.068 3.11973 -1.74379 0
M  V30 5002 S 475.627 4.03182 -1.73175 0
M  V30 5003 H 472.445 0.602137 -0.37809 0
M  V30 5004 H 475.047 1.19107 -1.55028 0
M  V30 5005 H 473.751 3.00371 -2.79652 0
M  V30 5006 H 473.282 3.7297 -1.25128 0
M  V30 5007 H 475.297 4.90043 -0.77923 0
M  V30 5008 N 474.47 1.03057 1.19235 0
M  V30 5009 C 475.886 0.747947 1.40989 0
M  V30 5010 C 476.086 -0.666752 1.90149 0
M  V30 5011 O 475.142 -1.43249 2.07933 0
M  V30 5012 C 476.455 1.7855 2.41951 0
M  V30 5013 C 478.003 1.80524 2.55695 0
M  V30 5014 C 478.478 2.83243 3.59913 0
M  V30 5015 N 479.969 2.8207 3.67411 0
M  V30 5016 C 480.704 3.58204 4.47747 0
M  V30 5017 N 480.2 4.44057 5.31775 0
M  V30 5018 N 481.993 3.46738 4.42413 0
M  V30 5019 H 474.144 1.94367 0.856468 0
M  V30 5020 H 476.407 0.840412 0.438647 0
M  V30 5021 H 476.113 2.79973 2.12857 0
M  V30 5022 H 475.987 1.6092 3.41152 0
M  V30 5023 H 478.374 0.79778 2.84112 0
M  V30 5024 H 478.455 2.02229 1.56643 0
M  V30 5025 H 478.099 3.84161 3.32239 0
M  V30 5026 H 478.029 2.58795 4.5862 0
M  V30 5027 H 480.52 2.19803 3.074 0
M  V30 5028 H 480.833 4.98884 5.90199 0
M  V30 5029 H 479.178 4.48129 5.3123 0
M  V30 5030 H 482.369 2.79077 3.75811 0
M  V30 5031 H 482.542 4.06322 5.04783 0
M  V30 5032 N 475.948 -1.35272 0.808662 0
M  V30 5033 C 476.858 -2.33546 0.222079 0
M  V30 5034 C 477.874 -1.6196 -0.636011 0
M  V30 5035 O 479.05 -1.93822 -0.547274 0
M  V30 5036 C 476.115 -3.41148 -0.61795 0
M  V30 5037 C 475.176 -4.28507 0.260875 0
M  V30 5038 C 474.409 -5.3097 -0.539156 0
M  V30 5039 O 474.632 -5.42123 -1.77367 0
M  V30 5040 O 473.566 -6.01858 0.0710526 0
M  V30 5041 H 477.392 -2.85515 1.03512 0
M  V30 5042 H 474.977 -1.38079 0.570495 0
M  V30 5043 H 476.859 -4.06889 -1.09634 0
M  V30 5044 H 475.534 -2.91447 -1.40855 0
M  V30 5045 H 474.441 -3.6574 0.786451 0
M  V30 5046 H 475.774 -4.81611 1.01547 0
M  V30 5047 N 477.426 -0.562348 -1.47226 0
M  V30 5048 C 478.837 -0.130325 -1.86245 0
M  V30 5049 C 479.188 1.30128 -1.46838 0
M  V30 5050 O 478.313 1.97974 -0.873805 0
M  V30 5051 C 478.908 -0.229738 -3.3802 0
M  V30 5052 C 477.467 0.14728 -3.76112 0
M  V30 5053 C 476.614 -0.574971 -2.71274 0
M  V30 5054 H 479.565 -0.771773 -1.3867 0
M  V30 5055 H 479.586 0.550316 -3.76499 0
M  V30 5056 H 479.098 -1.27178 -3.66671 0
M  V30 5057 H 477.199 1.19023 -3.53078 0
M  V30 5058 H 477.312 -0.214858 -4.78618 0
M  V30 5059 H 475.676 -0.0174756 -2.54694 0
M  V30 5060 H 476.459 -1.61827 -3.02766 0
M  V30 5061 N 478.904 1.54736 -0.299062 0
M  V30 5062 C 480.181 1.92187 0.363802 0
M  V30 5063 C 480.561 1.22607 1.71845 0
M  V30 5064 O 479.909 0.361141 2.25628 0
M  V30 5065 C 480.119 3.45678 0.480377 0
M  V30 5066 C 481.467 4.17885 0.752147 0
M  V30 5067 O 482.491 3.51702 0.564264 0
M  V30 5068 O 481.35 5.35048 1.11294 0
M  V30 5069 H 478.444 0.801681 0.203066 0
M  V30 5070 H 480.99 1.66115 -0.346978 0
M  V30 5071 H 479.762 3.88443 -0.471999 0
M  V30 5072 H 479.385 3.77779 1.2397 0
M  V30 5073 N 480.382 0.0267497 1.57577 0
M  V30 5074 C 481.312 -0.954308 2.13108 0
M  V30 5075 C 482.293 -1.34088 1.04663 0
M  V30 5076 O 483.478 -1.41992 1.32484 0
M  V30 5077 C 480.608 -2.23744 2.65624 0
M  V30 5078 C 479.562 -1.99168 3.78835 0
M  V30 5079 C 478.888 -3.33726 4.17769 0
M  V30 5080 C 480.188 -1.33277 5.0501 0
M  V30 5081 H 481.882 -0.491848 2.95332 0
M  V30 5082 H 479.428 -0.23514 1.42067 0
M  V30 5083 H 481.381 -2.92754 3.03106 0
M  V30 5084 H 480.105 -2.72151 1.80558 0
M  V30 5085 H 478.764 -1.32577 3.41788 0
M  V30 5086 H 478.412 -3.79888 3.29688 0
M  V30 5087 H 478.112 -3.18089 4.94058 0
M  V30 5088 H 479.636 -4.04008 4.57832 0
M  V30 5089 H 481.05 -1.92283 5.40093 0
M  V30 5090 H 479.447 -1.28045 5.8628 0
M  V30 5091 H 480.517 -0.305411 4.83937 0
M  V30 5092 N 481.861 -1.55662 -0.24637 0
M  V30 5093 C 483.107 -1.77782 -0.975779 0
M  V30 5094 C 483.44 -0.592103 -1.84953 0
M  V30 5095 O 482.715 0.409588 -1.90138 0
M  V30 5096 C 482.998 -3.09788 -1.83584 0
M  V30 5097 C 482.851 -4.38764 -0.990241 0
M  V30 5098 C 484.17 -3.38029 -2.81823 0
M  V30 5099 H 481.289 -0.646789 -0.353317 0
M  V30 5100 H 483.931 -1.88398 -0.246248 0
M  V30 5101 H 482.081 -3.00869 -2.45784 0
M  V30 5102 H 483.753 -4.59675 -0.386897 0
M  V30 5103 H 481.996 -4.32798 -0.294626 0
M  V30 5104 H 482.667 -5.27514 -1.62584 0
M  V30 5105 H 485.143 -3.46915 -2.2976 0
M  V30 5106 H 484.019 -4.3161 -3.39122 0
M  V30 5107 H 484.28 -2.58968 -3.58313 0
M  V30 5108 N 483.339 0.512053 -1.4905 0
M  V30 5109 C 484.616 1.27337 -1.48474 0
M  V30 5110 C 484.996 2.1009 -0.206301 0
M  V30 5111 O 484.344 2.136 0.811609 0
M  V30 5112 C 484.554 2.13954 -2.75726 0
M  V30 5113 C 485.902 2.73507 -3.24776 0
M  V30 5114 O 486.926 2.24229 -2.76767 0
M  V30 5115 O 485.785 3.63186 -4.08361 0
M  V30 5116 H 482.879 0.575652 -0.593762 0
M  V30 5117 H 485.425 0.527232 -1.61302 0
M  V30 5118 H 484.197 1.52709 -3.60272 0
M  V30 5119 H 483.82 2.95782 -2.65705 0
M  V30 5120 N 484.817 1.37938 0.762283 0
M  V30 5121 C 486.094 1.24196 1.51112 0
M  V30 5122 C 486.474 -0.160409 2.1049 0
M  V30 5123 O 485.822 -1.16904 1.96331 0
M  V30 5124 C 486.032 2.34537 2.58445 0
M  V30 5125 C 487.38 2.7254 3.25588 0
M  V30 5126 O 488.404 2.33783 2.68745 0
M  V30 5127 O 487.263 3.39343 4.28379 0
M  V30 5128 H 484.357 0.485175 0.669727 0
M  V30 5129 H 486.903 1.49743 0.798438 0
M  V30 5130 H 485.675 3.28406 2.12756 0
M  V30 5131 H 485.298 2.10505 3.37303 0
M  V30 5132 N 486.295 -0.989507 1.22664 0
M  V30 5133 C 487.205 -2.11449 1.01619 0
M  V30 5134 C 488.221 -1.73962 -0.036545 0
M  V30 5135 O 489.397 -2.00788 0.156924 0
M  V30 5136 C 486.462 -3.41465 0.600204 0
M  V30 5137 C 485.523 -3.93033 1.72695 0
M  V30 5138 C 484.756 -5.16844 1.33071 0
M  V30 5139 O 484.979 -5.7001 0.210975 0
M  V30 5140 O 483.913 -5.6225 2.14845 0
M  V30 5141 H 487.739 -2.32088 1.9588 0
M  V30 5142 H 485.324 -1.09823 1.01289 0
M  V30 5143 H 487.206 -4.19695 0.37873 0
M  V30 5144 H 485.881 -3.22178 -0.313511 0
M  V30 5145 H 484.788 -3.15961 2.00298 0
M  V30 5146 H 486.121 -4.16758 2.61865 0
M  V30 5147 N 487.773 -1.03688 -1.18687 0
M  V30 5148 C 489.021 -0.736572 -1.88199 0
M  V30 5149 C 489.342 0.737665 -1.80509 0
M  V30 5150 O 488.612 1.53204 -1.22088 0
M  V30 5151 H 487.192 -0.269466 -0.696704 0
M  V30 5152 H 489.854 -1.31282 -1.44052 0
M  V30 5153 H 488.95 -1.03802 -2.94332 0
M  V30 5154 N 489.251 1.34841 -0.815825 0
M  V30 5155 C 490.498 1.98499 -0.400535 0
M  V30 5156 C 490.826 1.64699 1.03463 0
M  V30 5157 O 490.081 0.907006 1.73412 0
M  V30 5158 C 490.38 3.53273 -0.541541 0
M  V30 5159 C 490.046 4.06966 -1.94138 0
M  V30 5160 C 488.708 4.21341 -2.32433 0
M  V30 5161 C 491.06 4.35933 -2.85677 0
M  V30 5162 C 488.388 4.62007 -3.61617 0
M  V30 5163 C 490.74 4.78042 -4.14317 0
M  V30 5164 C 489.404 4.90622 -4.52599 0
M  V30 5165 H 488.674 0.72636 -0.146566 0
M  V30 5166 H 491.321 1.60902 -1.0384 0
M  V30 5167 H 489.626 3.91387 0.179741 0
M  V30 5168 H 491.323 4.00497 -0.20085 0
M  V30 5169 H 487.913 3.96235 -1.63388 0
M  V30 5170 H 492.097 4.24372 -2.57337 0
M  V30 5171 H 487.353 4.69937 -3.91113 0
M  V30 5172 H 491.527 4.99415 -4.85342 0
M  V30 5173 H 489.154 5.2189 -5.52752 0
M  V30 5174 N 490.729 0.570148 1.46925 0
M  V30 5175 C 491.977 0.0508523 2.02036 0
M  V30 5176 C 492.298 -1.30885 1.44548 0
M  V30 5177 O 491.568 -1.85647 0.625453 0
M  V30 5178 H 490.148 0.0158088 0.746833 0
M  V30 5179 H 492.81 0.743086 1.80178 0
M  V30 5180 H 491.906 -0.027575 3.12088 0
M  V30 5181 N 492.207 -1.54576 0.307264 0
M  V30 5182 C 493.484 -1.92377 -0.353605 0
M  V30 5183 C 493.864 -1.23517 -1.71192 0
M  V30 5184 O 493.212 -0.373101 -2.25433 0
M  V30 5185 C 493.422 -3.45928 -0.462039 0
M  V30 5186 C 494.77 -4.18278 -0.729975 0
M  V30 5187 O 495.794 -3.51997 -0.545605 0
M  V30 5188 O 494.653 -5.3563 -1.08454 0
M  V30 5189 H 491.747 -0.802747 -0.198812 0
M  V30 5190 H 494.293 -1.65929 0.355783 0
M  V30 5191 H 493.065 -3.88187 0.492592 0
M  V30 5192 H 492.688 -3.78431 -1.21965 0
M  V30 5193 N 493.685 -0.035106 -1.57561 0
M  V30 5194 C 494.933 0.64096 -1.91667 0
M  V30 5195 C 495.254 1.72323 -0.912681 0
M  V30 5196 O 494.524 1.95849 0.0449089 0
M  V30 5197 H 493.104 0.239743 -0.707483 0
M  V30 5198 H 495.766 -0.084321 -1.94718 0
M  V30 5199 H 494.862 1.08987 -2.92452 0
M  V30 5200 N 495.163 1.55791 0.238111 0
M  V30 5201 C 496.41 1.78033 0.964907 0
M  V30 5202 C 496.738 0.600984 1.84982 0
M  V30 5203 O 495.993 -0.41536 1.91241 0
M  V30 5204 C 496.292 3.05869 1.84875 0
M  V30 5205 C 495.958 4.36808 1.11846 0
M  V30 5206 C 494.62 4.72388 0.916662 0
M  V30 5207 C 496.972 5.17717 0.60151 0
M  V30 5208 C 494.3 5.86406 0.185756 0
M  V30 5209 C 496.652 6.32494 -0.115972 0
M  V30 5210 C 495.316 6.66688 -0.329168 0
M  V30 5211 H 494.586 0.651469 0.353085 0
M  V30 5212 H 497.233 1.90061 0.234318 0
M  V30 5213 H 495.538 2.88891 2.64668 0
M  V30 5214 H 497.235 3.20278 2.41294 0
M  V30 5215 H 493.825 4.08862 1.28569 0
M  V30 5216 H 498.009 4.90678 0.744932 0
M  V30 5217 H 493.265 6.11399 0.0101886 0
M  V30 5218 H 497.439 6.94425 -0.524127 0
M  V30 5219 H 495.066 7.54884 -0.897474 0
M  V30 5220 N 496.642 -0.504142 1.49319 0
M  V30 5221 C 497.87 -1.28256 1.62351 0
M  V30 5222 C 498.285 -1.86502 0.293682 0
M  V30 5223 O 497.642 -1.67678 -0.720449 0
M  V30 5224 C 497.693 -2.41507 2.68992 0
M  V30 5225 O 497.414 -1.85656 3.96817 0
M  V30 5226 C 498.915 -3.32929 2.927 0
M  V30 5227 H 496.135 -0.389115 0.546654 0
M  V30 5228 H 498.679 -0.605531 1.95329 0
M  V30 5229 H 496.834 -3.05046 2.38801 0
M  V30 5230 H 497.248 -2.59981 4.55533 0
M  V30 5231 H 498.722 -4.0868 3.71058 0
M  V30 5232 H 499.199 -3.89733 2.02496 0
M  V30 5233 H 499.805 -2.75158 3.24296 0
M  V30 5234 N 498.12 -1.38341 -0.754957 0
M  V30 5235 C 499.536 -1.19508 -1.05783 0
M  V30 5236 C 499.736 -0.0428005 -2.01455 0
M  V30 5237 O 498.792 0.611861 -2.44975 0
M  V30 5238 C 500.105 -2.52091 -1.63923 0
M  V30 5239 C 501.653 -2.58762 -1.76101 0
M  V30 5240 C 502.128 -3.91517 -2.37652 0
M  V30 5241 N 503.619 -3.93049 -2.45085 0
M  V30 5242 C 504.354 -4.9253 -2.93602 0
M  V30 5243 N 503.85 -6.02408 -3.42165 0
M  V30 5244 N 505.643 -4.79921 -2.92629 0
M  V30 5245 H 497.794 -2.1206 -0.120056 0
M  V30 5246 H 500.057 -0.94089 -0.11589 0
M  V30 5247 H 499.763 -3.36858 -1.01093 0
M  V30 5248 H 499.637 -2.70388 -2.63003 0
M  V30 5249 H 502.024 -1.74391 -2.38058 0
M  V30 5250 H 502.105 -2.44333 -0.757294 0
M  V30 5251 H 501.749 -4.76309 -1.76329 0
M  V30 5252 H 501.679 -4.03256 -3.38662 0
M  V30 5253 H 504.17 -3.13685 -2.10736 0
M  V30 5254 H 504.483 -6.74248 -3.77637 0
M  V30 5255 H 502.828 -6.0603 -3.40225 0
M  V30 5256 H 506.019 -3.93194 -2.54001 0
M  V30 5257 H 506.192 -5.57601 -3.30128 0
M  V30 5258 N 499.598 0.982988 -1.23187 0
M  V30 5259 C 500.508 2.10907 -1.02739 0
M  V30 5260 C 501.524 1.73979 0.0273188 0
M  V30 5261 O 502.7 2.00702 -0.16757 0
M  V30 5262 C 499.765 3.41142 -0.618304 0
M  V30 5263 C 498.826 3.92112 -1.74777 0
M  V30 5264 C 498.059 5.16131 -1.3581 0
M  V30 5265 O 498.282 5.6989 -0.241201 0
M  V30 5266 O 497.216 5.61103 -2.17824 0
M  V30 5267 H 501.042 2.31046 -1.97108 0
M  V30 5268 H 498.627 1.09284 -1.01869 0
M  V30 5269 H 500.509 4.19488 -0.400982 0
M  V30 5270 H 499.184 3.2234 0.296421 0
M  V30 5271 H 498.091 3.14895 -2.0197 0
M  V30 5272 H 499.424 4.15364 -2.64071 0
M  V30 5273 N 501.076 1.04316 1.18135 0
M  V30 5274 C 501.986 0.646876 2.25505 0
M  V30 5275 C 503.002 -0.328008 1.7088 0
M  V30 5276 O 504.178 -0.182309 2.00573 0
M  V30 5277 C 501.243 0.0185664 3.46695 0
M  V30 5278 C 500.304 1.04277 4.16443 0
M  V30 5279 C 499.537 0.444352 5.31847 0
M  V30 5280 O 499.76 -0.748735 5.65465 0
M  V30 5281 O 498.694 1.17428 5.90334 0
M  V30 5282 H 502.52 1.54147 2.61672 0
M  V30 5283 H 500.105 0.814188 1.25265 0
M  V30 5284 H 501.987 -0.331068 4.20097 0
M  V30 5285 H 500.662 -0.849814 3.12346 0
M  V30 5286 H 499.569 1.44425 3.45098 0
M  V30 5287 H 500.902 1.882 4.54798 0
M  V30 5288 N 502.554 -1.34406 0.822964 0
M  V30 5289 C 503.965 -1.8069 0.469879 0
M  V30 5290 C 504.316 -1.68223 -1.00972 0
M  V30 5291 O 503.441 -1.22226 -1.78577 0
M  V30 5292 C 504.036 -3.28064 0.846118 0
M  V30 5293 C 502.595 -3.72428 0.545402 0
M  V30 5294 C 501.742 -2.56116 1.06301 0
M  V30 5295 H 504.693 -1.22153 1.01313 0
M  V30 5296 H 504.714 -3.80205 0.149922 0
M  V30 5297 H 504.226 -3.37107 1.92304 0
M  V30 5298 H 502.327 -3.68924 -0.522109 0
M  V30 5299 H 502.44 -4.66548 1.0895 0
M  V30 5300 H 500.804 -2.50048 0.484554 0
M  V30 5301 H 501.587 -2.67928 2.14638 0
M  V30 5302 N 504.032 -0.577932 -1.46621 0
M  V30 5303 C 504.995 0.147805 -2.28723 0
M  V30 5304 C 505.995 0.823325 -1.38123 0
M  V30 5305 O 507.185 0.676011 -1.60548 0
M  V30 5306 C 504.317 1.21853 -3.18378 0
M  V30 5307 H 505.51 -0.573654 -2.94362 0
M  V30 5308 H 503.063 -0.335703 -1.52652 0
M  V30 5309 H 503.798 1.97173 -2.57475 0
M  V30 5310 H 503.583 0.738714 -3.85078 0
M  V30 5311 H 505.073 1.72768 -3.80186 0
M  V30 5312 N 505.51 1.54411 -0.315457 0
M  V30 5313 C 506.738 2.04833 0.291738 0
M  V30 5314 C 507.153 1.19203 1.46411 0
M  V30 5315 O 506.51 0.220867 1.81159 0
M  V30 5316 C 506.561 3.53969 0.73404 0
M  V30 5317 O 506.282 4.36346 -0.391682 0
M  V30 5318 C 507.783 4.2045 1.40489 0
M  V30 5319 H 505.003 0.668195 0.0612947 0
M  V30 5320 H 507.547 1.99276 -0.45929 0
M  V30 5321 H 505.702 3.5984 1.43506 0
M  V30 5322 H 506.116 5.24481 -0.0447088 0
M  V30 5323 H 507.59 5.26278 1.66539 0
M  V30 5324 H 508.067 3.71067 2.3496 0
M  V30 5325 H 508.673 4.18694 0.746662 0
M  V30 5326 N 506.988 0.0434614 1.5754 0
M  V30 5327 C 508.234 -0.632971 1.92669 0
M  V30 5328 C 508.567 -1.70947 0.921446 0
M  V30 5329 O 507.842 -1.94426 -0.0537202 0
M  V30 5330 C 508.125 -1.23619 3.38216 0
M  V30 5331 C 507.978 -0.168274 4.49485 0
M  V30 5332 C 509.297 -2.15008 3.84005 0
M  V30 5333 H 506.416 -0.228629 0.700641 0
M  V30 5334 H 509.058 0.103651 1.89717 0
M  V30 5335 H 507.208 -1.864 3.40863 0
M  V30 5336 H 508.88 0.463196 4.58969 0
M  V30 5337 H 507.123 0.504581 4.30855 0
M  V30 5338 H 507.794 -0.630218 5.48391 0
M  V30 5339 H 510.27 -1.62198 3.83185 0
M  V30 5340 H 509.146 -2.54161 4.86511 0
M  V30 5341 H 509.407 -3.04707 3.20322 0
M  V30 5342 N 508.466 -1.55915 -0.229846 0
M  V30 5343 C 509.743 -1.6932 -0.979295 0
M  V30 5344 C 510.123 -0.588321 -2.02736 0
M  V30 5345 O 509.471 0.40586 -2.24867 0
M  V30 5346 C 509.681 -3.10305 -1.59724 0
M  V30 5347 C 511.029 -3.6945 -2.09264 0
M  V30 5348 O 512.053 -3.13214 -1.69633 0
M  V30 5349 O 510.912 -4.68072 -2.82082 0
M  V30 5350 H 508.006 -0.689314 -0.456919 0
M  V30 5351 H 510.552 -1.68238 -0.222283 0
M  V30 5352 H 509.324 -3.82177 -0.840039 0
M  V30 5353 H 508.947 -3.1547 -2.42001 0
M  V30 5354 N 509.944 0.496216 -1.49584 0
M  V30 5355 C 511.19 1.25189 -1.59548 0
M  V30 5356 C 511.523 1.9212 -0.283466 0
M  V30 5357 O 510.798 1.80947 0.713324 0
M  V30 5358 C 511.081 2.31516 -2.75812 0
M  V30 5359 C 510.934 1.69054 -4.16822 0
M  V30 5360 C 512.253 3.3304 -2.87702 0
M  V30 5361 H 509.372 0.45379 -0.580727 0
M  V30 5362 H 512.014 0.549327 -1.81886 0
M  V30 5363 H 510.164 2.91438 -2.56897 0
M  V30 5364 H 511.836 1.12923 -4.47265 0
M  V30 5365 H 510.079 0.994485 -4.22247 0
M  V30 5366 H 510.75 2.462 -4.94054 0
M  V30 5367 H 513.226 2.83114 -3.04936 0
M  V30 5368 H 512.102 4.04794 -3.7072 0
M  V30 5369 H 512.363 3.95655 -1.97255 0
M  V30 5370 N 511.423 1.38739 0.74761 0
M  V30 5371 C 512.663 1.36695 1.51966 0
M  V30 5372 C 513.027 -0.0411889 1.91956 0
M  V30 5373 O 514.228 -0.186543 2.68152 0
M  V30 5374 C 512.499 2.30119 2.73459 0
M  V30 5375 S 514.058 2.4615 3.63257 0
M  V30 5376 H 510.876 0.484929 0.519966 0
M  V30 5377 H 513.478 1.7472 0.877104 0
M  V30 5378 H 512.182 3.31312 2.422 0
M  V30 5379 H 511.713 1.93265 3.42655 0
M  V30 5380 H 513.728 1.69001 4.66533 0
M  V30 5381 N 512.901 -0.976442 1.23707 0
M  V30 5382 C 513.864 -2.0511 1.02287 0
M  V30 5383 C 514.864 -1.60791 -0.0167195 0
M  V30 5384 O 516.054 -1.72761 0.223408 0
M  V30 5385 C 513.186 -3.36458 0.548507 0
M  V30 5386 H 514.379 -2.25545 1.9766 0
M  V30 5387 H 511.932 -1.15042 1.05806 0
M  V30 5388 H 512.667 -3.21713 -0.408818 0
M  V30 5389 H 512.452 -3.69967 1.29874 0
M  V30 5390 H 513.942 -4.15489 0.419406 0
M  V30 5391 N 514.379 -1.04941 -1.1758 0
M  V30 5392 C 515.309 -0.669172 -2.23706 0
M  V30 5393 C 516.29 0.331835 -1.66832 0
M  V30 5394 O 517.475 0.209988 -1.93061 0
M  V30 5395 C 514.605 -0.0404889 -3.47276 0
M  V30 5396 C 513.559 -0.965983 -4.16957 0
M  V30 5397 C 512.885 -0.201312 -5.34321 0
M  V30 5398 C 514.185 -2.28902 -4.69469 0
M  V30 5399 H 515.879 -1.55639 -2.55767 0
M  V30 5400 H 513.425 -0.749793 -1.22939 0
M  V30 5401 H 515.378 0.237298 -4.20731 0
M  V30 5402 H 514.102 0.881658 -3.14475 0
M  V30 5403 H 512.761 -1.22829 -3.45411 0
M  V30 5404 H 512.409 0.723519 -4.97769 0
M  V30 5405 H 512.109 -0.817968 -5.81879 0
M  V30 5406 H 513.633 0.0692499 -6.10561 0
M  V30 5407 H 515.047 -2.07132 -5.34574 0
M  V30 5408 H 513.444 -2.85942 -5.27596 0
M  V30 5409 H 514.514 -2.92937 -3.86414 0
M  V30 5410 N 515.857 1.33968 -0.830081 0
M  V30 5411 C 517.085 2.0228 -0.434773 0
M  V30 5412 C 517.5 1.62487 0.961419 0
M  V30 5413 O 516.857 0.833849 1.62337 0
M  V30 5414 C 516.908 3.5751 -0.535625 0
M  V30 5415 O 516.629 3.95864 -1.87679 0
M  V30 5416 C 518.13 4.43091 -0.136137 0
M  V30 5417 H 515.35 0.648151 -0.173613 0
M  V30 5418 H 517.894 1.71089 -1.12022 0
M  V30 5419 H 516.049 3.87266 0.101817 0
M  V30 5420 H 516.463 4.9056 -1.85609 0
M  V30 5421 H 517.937 5.51398 -0.257772 0
M  V30 5422 H 518.414 4.29433 0.921076 0
M  V30 5423 H 519.02 4.18677 -0.747662 0
M  V30 5424 O 517.374 0.726383 1.44243 0
M  V30 5425 H 518.065 0.275111 1.91736 0
M  V30 END ATOM
M  V30 BEGIN BOND
M  V30 END BOND
M  V30 END CTAB
M  END
$$$$
