drugbank_target|A0A0H3JWX6 NPQTN specific sortase B (DB01803; DB04276)
 OpenBabel12092120223D

  0  0  0     0  0            999 V3000
M  V30 BEGIN CTAB
M  V30 COUNTS 4117 4155 0 0 0
M  V30 BEGIN ATOM
M  V30 1 H -0.908 1.98254 -0.117106 0
M  V30 2 N 0 1.576 0 0
M  V30 3 C 0.933 2.03868 1.02534 0
M  V30 4 C 1.911 0.928543 1.3348 0
M  V30 5 O 3.095 1.19667 1.45644 0
M  V30 6 C 0.222 2.43627 2.35294 0
M  V30 7 C -0.732 3.65373 2.2001 0
M  V30 8 S 0.101 5.13292 1.52614 0
M  V30 9 C 1.257 5.56322 2.86805 0
M  V30 10 H 1.49 2.90518 0.631377 0
M  V30 11 H -0.977 1.52953 0.210867 0
M  V30 12 H 0.981 2.67203 3.11629 0
M  V30 13 H -0.358 1.57376 2.7183 0
M  V30 14 H -1.165 3.90944 3.18086 0
M  V30 15 H -1.563 3.418 1.51819 0
M  V30 16 H 0.729 5.58782 3.83104 0
M  V30 17 H 1.672 6.56266 2.65933 0
M  V30 18 H 2.08 4.83886 2.90714 0
M  V30 19 N 1.4781 -0.272755 1.55222 0
M  V30 20 C 2.8941 -0.619959 1.47067 0
M  V30 21 C 3.0941 -1.895 0.684978 0
M  V30 22 O 2.1501 -2.51675 0.203931 0
M  V30 23 C 3.4631 -0.746693 2.91282 0
M  V30 24 C 5.0111 -0.840731 3.01497 0
M  V30 25 C 5.4861 -0.99924 4.46967 0
M  V30 26 N 6.9771 -1.06476 4.50796 0
M  V30 27 C 7.7121 -1.20621 5.6057 0
M  V30 28 N 7.2081 -1.31483 6.80209 0
M  V30 29 N 9.0011 -1.23733 5.48312 0
M  V30 30 H 1.1521 0.564606 2.04758 0
M  V30 31 H 3.4151 0.191177 0.928523 0
M  V30 32 H 3.1211 0.119753 3.51496 0
M  V30 33 H 2.9951 -1.6269 3.40311 0
M  V30 34 H 5.3821 -1.69764 2.41379 0
M  V30 35 H 5.4631 0.0640874 2.5572 0
M  V30 36 H 5.1071 -0.146984 5.07687 0
M  V30 37 H 5.0371 -1.91871 4.90401 0
M  V30 38 H 7.5281 -0.993196 3.64615 0
M  V30 39 H 7.8411 -1.42111 7.59621 0
M  V30 40 H 6.1861 -1.28487 6.8302 0
M  V30 41 H 9.3771 -1.14877 4.53785 0
M  V30 42 H 9.5501 -1.34412 6.33906 0
M  V30 43 N 2.9562 -1.48159 -0.537278 0
M  V30 44 C 3.8892 -1.567 -1.65893 0
M  V30 45 C 4.8672 -0.41787 -1.57139 0
M  V30 46 O 6.0512 -0.628461 -1.77715 0
M  V30 47 C 3.1782 -1.48818 -3.04255 0
M  V30 48 C 2.2242 -2.68482 -3.31391 0
M  V30 49 S 3.0572 -4.30516 -3.1846 0
M  V30 50 C 4.2132 -4.2522 -4.59281 0
M  V30 51 H 4.4462 -2.5159 -1.58397 0
M  V30 52 H 1.9792 -1.36602 -0.719672 0
M  V30 53 H 3.9372 -1.44958 -3.84054 0
M  V30 54 H 2.5982 -0.552777 -3.09198 0
M  V30 55 H 1.7912 -2.59085 -4.32309 0
M  V30 56 H 1.3932 -2.69567 -2.59248 0
M  V30 57 H 3.6852 -3.94703 -5.5065 0
M  V30 58 H 4.6282 -5.26292 -4.73732 0
M  V30 59 H 5.0362 -3.55791 -4.38261 0
M  V30 60 N 4.4343 0.785586 -1.36625 0
M  V30 61 C 5.3813 1.89838 -1.31264 0
M  V30 62 C 6.3513 1.65115 -0.180633 0
M  V30 63 O 7.5363 1.87222 -0.36777 0
M  V30 64 C 4.6763 3.26706 -1.11163 0
M  V30 65 C 3.7893 3.63476 -2.33472 0
M  V30 66 C 2.9243 4.89481 -2.06353 0
M  V30 67 C 1.9633 5.18941 -3.24602 0
M  V30 68 N 1.1003 6.36131 -2.97123 0
M  V30 69 H 5.9403 1.93756 -2.26413 0
M  V30 70 H 3.4773 0.947454 -1.12524 0
M  V30 71 H 5.4353 4.05639 -0.975337 0
M  V30 72 H 4.0653 3.222 -0.196674 0
M  V30 73 H 3.1173 2.79636 -2.57891 0
M  V30 74 H 4.4293 3.81193 -3.21704 0
M  V30 75 H 3.5833 5.76288 -1.89675 0
M  V30 76 H 2.3223 4.73841 -1.15437 0
M  V30 77 H 1.3273 4.30615 -3.41834 0
M  V30 78 H 2.5523 5.36498 -4.16349 0
M  V30 79 H 0.4983 6.21875 -2.08823 0
M  V30 80 H 0.4153 6.54198 -3.78894 0
M  V30 81 H 1.6833 7.2591 -2.84033 0
M  V30 82 N 5.9124 1.20967 1.01018 0
M  V30 83 C 7.3284 0.965905 1.27053 0
M  V30 84 C 7.5284 -0.350785 1.98423 0
M  V30 85 O 6.5844 -1.07773 2.28344 0
M  V30 86 C 7.8974 2.15294 2.09926 0
M  V30 87 C 9.4454 2.19463 2.23171 0
M  V30 88 C 9.9204 3.3767 3.09424 0
M  V30 89 N 11.4114 3.37724 3.17012 0
M  V30 90 C 12.1464 4.25837 3.83993 0
M  V30 91 N 11.6424 5.24138 4.53047 0
M  V30 92 N 13.4354 4.1366 3.80581 0
M  V30 93 H 5.5864 2.0565 0.531194 0
M  V30 94 H 7.8494 0.90024 0.297106 0
M  V30 95 H 7.5554 3.10684 1.64828 0
M  V30 96 H 7.4294 2.13923 3.10672 0
M  V30 97 H 9.8164 1.24632 2.6749 0
M  V30 98 H 9.8974 2.2488 1.21912 0
M  V30 99 H 9.5414 4.32791 2.65808 0
M  V30 100 H 9.4714 3.29491 4.10784 0
M  V30 101 H 11.9624 2.6658 2.6785 0
M  V30 102 H 12.2754 5.87684 5.01844 0
M  V30 103 H 10.6204 5.28068 4.5185 0
M  V30 104 H 13.8114 3.36127 3.25785 0
M  V30 105 H 13.9844 4.82538 4.32505 0
M  V30 106 N 7.3905 -1.2043 1.01659 0
M  V30 107 C 8.6375 -1.89797 0.705917 0
M  V30 108 C 8.9655 -1.78848 -0.764439 0
M  V30 109 O 8.2205 -1.16694 -1.57102 0
M  V30 110 C 8.5195 -3.40464 1.08714 0
M  V30 111 C 8.1855 -3.71614 2.5537 0
M  V30 112 C 6.8475 -3.79826 2.95441 0
M  V30 113 C 9.1995 -3.85915 3.50313 0
M  V30 114 C 6.5275 -3.99797 4.29394 0
M  V30 115 C 8.8795 -4.07396 4.83954 0
M  V30 116 C 7.5435 -4.13837 5.23732 0
M  V30 117 H 6.8135 -0.694518 0.258313 0
M  V30 118 H 9.4605 -1.42691 1.27717 0
M  V30 119 H 7.7655 -3.89385 0.434309 0
M  V30 120 H 9.4625 -3.92433 0.824461 0
M  V30 121 H 6.0525 -3.65822 2.23321 0
M  V30 122 H 10.2365 -3.78926 3.20513 0
M  V30 123 H 5.4925 -4.03018 4.59768 0
M  V30 124 H 9.6665 -4.17404 5.57447 0
M  V30 125 H 7.2935 -4.29064 6.27541 0
M  V30 126 N 8.8686 -0.792821 -1.36206 0
M  V30 127 C 9.7986 -0.207853 -2.32573 0
M  V30 128 C 10.7796 0.659055 -1.56813 0
M  V30 129 O 11.9646 0.592176 -1.84951 0
M  V30 130 C 9.0946 0.655449 -3.41059 0
M  V30 131 C 8.0486 -0.111842 -4.27854 0
M  V30 132 C 7.3746 0.872274 -5.27537 0
M  V30 133 C 8.6746 -1.30299 -5.05786 0
M  V30 134 H 10.3686 -1.01294 -2.81744 0
M  V30 135 H 7.9146 -0.48854 -1.3546 0
M  V30 136 H 9.8676 1.07464 -4.07467 0
M  V30 137 H 8.5916 1.49328 -2.90463 0
M  V30 138 H 7.2506 -0.512053 -3.63006 0
M  V30 139 H 6.8986 1.70523 -4.73214 0
M  V30 140 H 6.5986 0.363291 -5.86476 0
M  V30 141 H 8.1226 1.28996 -5.96818 0
M  V30 142 H 9.5366 -0.959379 -5.65216 0
M  V30 143 H 7.9336 -1.7455 -5.74154 0
M  V30 144 H 9.0036 -2.09663 -4.37229 0
M  V30 145 N 10.3467 1.47872 -0.545128 0
M  V30 146 C 11.5747 2.06889 -0.021084 0
M  V30 147 C 11.9897 1.39955 1.2672 0
M  V30 148 O 11.3467 0.492036 1.75742 0
M  V30 149 C 11.3977 3.60996 0.190817 0
M  V30 150 O 11.1187 4.25419 -1.04644 0
M  V30 151 C 12.6197 4.36849 0.753521 0
M  V30 152 H 9.8397 0.669785 -0.0403635 0
M  V30 153 H 12.3837 1.90049 -0.755095 0
M  V30 154 H 10.5387 3.77391 0.87492 0
M  V30 155 H 10.9527 5.17785 -0.836611 0
M  V30 156 H 12.4267 5.45399 0.851139 0
M  V30 157 H 12.9037 4.02306 1.762 0
M  V30 158 H 13.5097 4.25169 0.105503 0
M  V30 159 N 11.8248 0.280983 1.55075 0
M  V30 160 C 13.0738 -0.334784 1.98902 0
M  V30 161 C 13.3868 -1.56534 1.17288 0
M  V30 162 O 14.5928 -2.25443 1.51287 0
M  V30 163 C 13.0488 -0.646994 3.54037 0
M  V30 164 C 12.6568 0.564085 4.44435 0
M  V30 165 C 14.4008 -1.22506 4.06439 0
M  V30 166 C 12.3078 0.226137 5.90967 0
M  V30 167 H 11.2378 -0.128866 0.742906 0
M  V30 168 H 13.8888 0.386556 1.79382 0
M  V30 169 H 12.2708 -1.42739 3.6938 0
M  V30 170 H 13.4448 1.34082 4.40861 0
M  V30 171 H 11.7598 1.0594 4.02698 0
M  V30 172 H 14.3568 -1.49182 5.13468 0
M  V30 173 H 14.6998 -2.16085 3.55827 0
M  V30 174 H 15.2328 -0.50682 3.94558 0
M  V30 175 H 11.9718 1.12996 6.45687 0
M  V30 176 H 11.4918 -0.513717 5.97596 0
M  V30 177 H 13.1708 -0.179539 6.46751 0
M  V30 178 N 13.3029 -1.57598 0.00835791 0
M  V30 179 C 14.5489 -1.91211 -0.675732 0
M  V30 180 C 14.8819 -0.883139 -1.72958 0
M  V30 181 O 14.1569 0.097016 -1.94258 0
M  V30 182 C 14.4399 -3.35379 -1.31123 0
M  V30 183 C 14.2929 -4.48999 -0.268356 0
M  V30 184 C 15.6119 -3.7912 -2.23508 0
M  V30 185 H 12.7309 -0.695374 -0.244179 0
M  V30 186 H 15.3729 -1.89901 0.0613655 0
M  V30 187 H 13.5229 -3.36626 -1.93946 0
M  V30 188 H 15.1949 -4.59887 0.360844 0
M  V30 189 H 13.4379 -4.31873 0.408482 0
M  V30 190 H 14.1089 -5.46851 -0.752218 0
M  V30 191 H 16.5849 -3.79477 -1.70693 0
M  V30 192 H 15.4609 -4.80729 -2.64936 0
M  V30 193 H 15.7219 -3.13455 -3.11766 0
M  V30 194 N 14.781 0.264519 -1.55364 0
M  V30 195 C 15.713 1.34965 -1.85248 0
M  V30 196 C 16.726 1.45136 -0.737525 0
M  V30 197 O 17.915 1.46801 -1.01547 0
M  V30 198 C 15.015 2.73008 -2.00797 0
M  V30 199 C 14.188 2.85324 -3.31525 0
M  V30 200 C 13.247 4.04097 -3.37034 0
M  V30 201 O 12.273 3.94455 -4.10358 0
M  V30 202 N 13.475 5.16458 -2.65049 0
M  V30 203 H 16.24 1.09672 -2.78913 0
M  V30 204 H 13.801 0.454635 -1.55386 0
M  V30 205 H 15.793 3.50772 -2.01844 0
M  V30 206 H 14.363 2.91087 -1.1396 0
M  V30 207 H 13.583 1.94377 -3.42945 0
M  V30 208 H 14.871 2.9049 -4.17724 0
M  V30 209 H 14.269 5.27181 -2.05175 0
M  V30 210 H 12.826 5.92422 -2.71809 0
M  V30 211 N 16.2591 1.48442 0.529413 0
M  V30 212 C 17.5081 1.55742 1.28169 0
M  V30 213 C 17.8211 0.236511 1.94165 0
M  V30 214 O 19.0271 0.187761 2.7085 0
M  V30 215 C 17.4831 2.74667 2.32564 0
M  V30 216 C 17.0911 4.13402 1.72636 0
M  V30 217 C 18.8351 2.9128 3.08798 0
M  V30 218 C 16.7421 5.23587 2.74975 0
M  V30 219 H 15.6721 0.579796 0.48203 0
M  V30 220 H 18.3231 1.74776 0.559056 0
M  V30 221 H 16.7051 2.49067 3.07866 0
M  V30 222 H 17.8791 4.49022 1.03519 0
M  V30 223 H 16.1941 4.0191 1.08892 0
M  V30 224 H 18.7911 3.70767 3.85274 0
M  V30 225 H 19.1341 2.00757 3.64695 0
M  V30 226 H 19.6671 3.16782 2.40611 0
M  V30 227 H 16.4061 6.16076 2.23897 0
M  V30 228 H 15.9261 4.92454 3.42417 0
M  V30 229 H 17.6051 5.51724 3.37949 0
M  V30 230 N 17.7372 -0.778329 1.37039 0
M  V30 231 C 18.6672 -1.90546 1.34962 0
M  V30 232 C 19.6482 -1.68681 0.219274 0
M  V30 233 O 20.8332 -1.89634 0.418624 0
M  V30 234 C 17.9632 -3.27734 1.14925 0
M  V30 235 C 16.9172 -3.64147 2.24902 0
M  V30 236 C 16.2432 -4.99806 1.89996 0
M  V30 237 C 17.5432 -3.71579 3.67051 0
M  V30 238 H 19.2372 -1.92541 2.29277 0
M  V30 239 H 16.7832 -0.924948 1.10366 0
M  V30 240 H 18.7362 -4.06215 1.12104 0
M  V30 241 H 17.4602 -3.26154 0.170631 0
M  V30 242 H 16.1192 -2.8797 2.26868 0
M  V30 243 H 15.7672 -4.94759 0.906796 0
M  V30 244 H 15.4672 -5.25139 2.63634 0
M  V30 245 H 16.9912 -5.80694 1.88749 0
M  V30 246 H 18.4052 -4.40227 3.67251 0
M  V30 247 H 16.8022 -4.08405 4.39688 0
M  V30 248 H 17.8722 -2.72404 4.01154 0
M  V30 249 N 19.2153 -1.21501 -1.00376 0
M  V30 250 C 20.1453 -0.999478 -2.11028 0
M  V30 251 C 21.1263 0.0759671 -1.6993 0
M  V30 252 O 22.3113 -0.0841106 -1.94018 0
M  V30 253 C 19.4413 -0.564709 -3.42678 0
M  V30 254 C 18.3953 -1.58486 -3.97576 0
M  V30 255 C 17.7213 -1.00628 -5.25146 0
M  V30 256 C 19.0213 -2.97204 -4.29496 0
M  V30 257 H 20.7153 -1.92495 -2.29317 0
M  V30 258 H 18.2613 -0.92693 -1.102 0
M  V30 259 H 20.2143 -0.401091 -4.19487 0
M  V30 260 H 18.9383 0.396411 -3.24185 0
M  V30 261 H 17.5973 -1.73606 -3.22888 0
M  V30 262 H 17.2453 -0.0368439 -5.02987 0
M  V30 263 H 16.9453 -1.68771 -5.62841 0
M  V30 264 H 18.4693 -0.854015 -6.04598 0
M  V30 265 H 19.8833 -2.8552 -4.97143 0
M  V30 266 H 18.2803 -3.62372 -4.78338 0
M  V30 267 H 19.3503 -3.47956 -3.3772 0
M  V30 268 N 20.6934 1.19889 -1.02296 0
M  V30 269 C 21.9394 1.89701 -0.717033 0
M  V30 270 C 22.2724 1.7905 0.751989 0
M  V30 271 O 21.5474 1.17891 1.547 0
M  V30 272 C 21.8304 3.40858 -1.16136 0
M  V30 273 C 21.6834 3.60411 -2.69117 0
M  V30 274 C 23.0024 4.33876 -0.737549 0
M  V30 275 H 20.1214 0.688874 -0.261957 0
M  V30 276 H 22.7634 1.41154 -1.27183 0
M  V30 277 H 20.9134 3.82335 -0.689342 0
M  V30 278 H 22.5854 3.28145 -3.2422 0
M  V30 279 H 20.8284 3.03665 -3.0979 0
M  V30 280 H 21.4994 4.66396 -2.95261 0
M  V30 281 H 23.9754 4.00081 -1.14344 0
M  V30 282 H 22.8514 5.38242 -1.0764 0
M  V30 283 H 23.1124 4.40628 0.360436 0
M  V30 284 N 22.1715 0.800033 1.35784 0
M  V30 285 C 23.4175 0.377901 1.99248 0
M  V30 286 C 23.7505 -1.05052 1.63333 0
M  V30 287 O 23.0255 -1.72768 0.893385 0
M  V30 288 C 23.3085 0.553922 3.55814 0
M  V30 289 C 23.1615 2.0268 4.01548 0
M  V30 290 C 24.4805 -0.0244802 4.40093 0
M  V30 291 H 21.5995 0.138782 0.723815 0
M  V30 292 H 24.2415 1.00835 1.61035 0
M  V30 293 H 22.3915 0.0172398 3.88496 0
M  V30 294 H 24.0635 2.62536 3.79305 0
M  V30 295 H 22.3065 2.5256 3.52698 0
M  V30 296 H 22.9775 2.10087 5.10458 0
M  V30 297 H 25.4535 0.433775 4.13833 0
M  V30 298 H 24.3295 0.128637 5.48749 0
M  V30 299 H 24.5905 -1.11758 4.27741 0
M  V30 300 N 23.6496 -1.47581 0.552962 0
M  V30 301 C 24.8986 -2.01684 0.0251995 0
M  V30 302 C 25.2116 -1.43317 -1.33115 0
M  V30 303 O 26.4176 -1.89057 -1.94858 0
M  V30 304 C 24.8736 -3.599 -0.00542052 0
M  V30 305 C 24.4816 -4.27257 1.34742 0
M  V30 306 C 26.2256 -4.21768 -0.4808 0
M  V30 307 C 24.1326 -5.77467 1.27614 0
M  V30 308 H 23.0626 -0.753979 0.00565033 0
M  V30 309 H 25.7136 -1.69616 0.70018 0
M  V30 310 H 24.0956 -3.88911 -0.745961 0
M  V30 311 H 25.2696 -4.09893 2.10534 0
M  V30 312 H 23.5846 -3.77358 1.76039 0
M  V30 313 H 26.1816 -5.31838 -0.55246 0
M  V30 314 H 26.5246 -3.88651 -1.49184 0
M  V30 315 H 27.0576 -3.97273 0.204752 0
M  V30 316 H 23.7966 -6.15196 2.26304 0
M  V30 317 H 23.3166 -5.9718 0.55996 0
M  V30 318 H 24.9956 -6.3959 0.976421 0
M  V30 319 N 25.1277 -0.289203 -1.54924 0
M  V30 320 C 26.3767 0.324231 -1.99077 0
M  V30 321 C 26.6897 1.5591 -1.18117 0
M  V30 322 O 27.8957 2.24637 -1.52481 0
M  V30 323 C 26.3517 0.628209 -3.54375 0
M  V30 324 C 25.9597 -0.587647 -4.44129 0
M  V30 325 C 27.7037 1.20349 -4.07083 0
M  V30 326 C 25.6107 -0.257475 -5.90839 0
M  V30 327 H 24.5407 0.124924 -0.743579 0
M  V30 328 H 27.1917 -0.396063 -1.79175 0
M  V30 329 H 25.5737 1.40778 -3.70132 0
M  V30 330 H 26.7477 -1.36418 -4.40144 0
M  V30 331 H 25.0627 -1.08074 -4.0213 0
M  V30 332 H 27.6597 1.46456 -5.14252 0
M  V30 333 H 28.0027 2.14195 -3.56968 0
M  V30 334 H 28.5357 0.485889 -3.94821 0
M  V30 335 H 25.2747 -1.16419 -6.45079 0
M  V30 336 H 24.7947 0.482018 -5.9786 0
M  V30 337 H 26.4737 0.145238 -6.46837 0
M  V30 338 N 26.6058 1.57591 -0.0167156 0
M  V30 339 C 27.8548 1.90461 0.663877 0
M  V30 340 C 28.1678 0.893515 1.73999 0
M  V30 341 O 29.3738 1.11302 2.47637 0
M  V30 342 C 27.8298 3.38155 1.23204 0
M  V30 343 C 27.4378 4.47597 0.189866 0
M  V30 344 C 29.1818 3.80111 1.88986 0
M  V30 345 C 27.0888 5.86379 0.768964 0
M  V30 346 H 26.0188 0.710738 0.251729 0
M  V30 347 H 28.6698 1.83326 -0.0799926 0
M  V30 348 H 27.0518 3.40182 2.02712 0
M  V30 349 H 28.2258 4.57112 -0.581846 0
M  V30 350 H 26.5408 4.14766 -0.368475 0
M  V30 351 H 29.1378 4.81145 2.33247 0
M  V30 352 H 29.4808 3.14511 2.72743 0
M  V30 353 H 30.0138 3.80454 1.16187 0
M  V30 354 H 26.7528 6.55493 -0.0301957 0
M  V30 355 H 26.2728 5.80496 1.50945 0
M  V30 356 H 27.9518 6.34563 1.26251 0
M  V30 357 N 28.0839 -0.256276 1.55502 0
M  V30 358 C 29.3329 -0.983486 1.76098 0
M  V30 359 C 29.6459 -1.86837 0.578896 0
M  V30 360 O 30.8519 -2.63163 0.667648 0
M  V30 361 C 29.3079 -1.79868 3.1173 0
M  V30 362 C 28.9159 -0.961648 4.37557 0
M  V30 363 C 30.6599 -2.51919 3.41668 0
M  V30 364 C 28.5669 -1.77219 5.64223 0
M  V30 365 H 27.4969 -0.370936 0.656447 0
M  V30 366 H 30.1479 -0.238492 1.81944 0
M  V30 367 H 28.5299 -2.58527 2.99966 0
M  V30 368 H 29.7039 -0.218048 4.60284 0
M  V30 369 H 28.0189 -0.354913 4.14885 0
M  V30 370 H 30.6159 -3.12998 4.33516 0
M  V30 371 H 30.9589 -3.23059 2.62562 0
M  V30 372 H 31.4919 -1.80278 3.54605 0
M  V30 373 H 28.2309 -1.10471 6.46124 0
M  V30 374 H 27.7509 -2.49132 5.45613 0
M  V30 375 H 29.4299 -2.34169 6.03137 0
M  V30 376 N 29.562 -1.4872 -0.521534 0
M  V30 377 C 30.809 -1.57168 -1.27689 0
M  V30 378 C 31.137 -0.249275 -1.92896 0
M  V30 379 O 30.392 0.761162 -1.80291 0
M  V30 380 C 30.691 -2.66497 -2.38148 0
M  V30 381 C 30.357 -4.08664 -1.90538 0
M  V30 382 C 29.019 -4.47357 -1.77271 0
M  V30 383 C 31.371 -4.97724 -1.54663 0
M  V30 384 C 28.699 -5.72905 -1.26478 0
M  V30 385 C 31.051 -6.2377 -1.05329 0
M  V30 386 C 29.715 -6.61311 -0.906861 0
M  V30 387 H 28.985 -0.575117 -0.467249 0
M  V30 388 H 31.632 -1.82472 -0.581051 0
M  V30 389 H 29.937 -2.35085 -3.13437 0
M  V30 390 H 31.634 -2.70246 -2.96257 0
M  V30 391 H 28.224 -3.78111 -2.01816 0
M  V30 392 H 32.408 -4.68501 -1.63768 0
M  V30 393 H 27.664 -6.00709 -1.13835 0
M  V30 394 H 31.838 -6.9217 -0.76644 0
M  V30 395 H 29.465 -7.5848 -0.511083 0
M  V30 396 N 31.0401 0.771051 -1.3745 0
M  V30 397 C 32.2881 1.52661 -1.32435 0
M  V30 398 C 32.6091 1.9479 0.0905024 0
M  V30 399 O 31.8791 1.66348 1.03466 0
M  V30 400 H 30.4591 0.566218 -0.487244 0
M  V30 401 H 33.1211 0.917636 -1.71946 0
M  V30 402 H 32.2171 2.42568 -1.96385 0
M  V30 403 N 32.5182 1.22032 0.997298 0
M  V30 404 C 33.7482 1.06686 1.76923 0
M  V30 405 C 34.1562 -0.385838 1.85224 0
M  V30 406 O 33.4992 -1.27929 1.31833 0
M  V30 407 C 33.5612 1.59802 3.22031 0
M  V30 408 C 33.2252 3.08362 3.37286 0
M  V30 409 C 34.2222 4.05835 3.24952 0
M  V30 410 C 31.9072 3.47727 3.6248 0
M  V30 411 C 33.9012 5.4066 3.37588 0
M  V30 412 C 31.5882 4.82701 3.74757 0
M  V30 413 C 32.5862 5.78977 3.62319 0
M  V30 414 O 32.2742 7.11502 3.74193 0
M  V30 415 H 32.0062 0.374767 0.562606 0
M  V30 416 H 34.5602 1.61991 1.26286 0
M  V30 417 H 32.7902 0.989003 3.73839 0
M  V30 418 H 34.4792 1.40184 3.80924 0
M  V30 419 H 35.2452 3.76766 3.05405 0
M  V30 420 H 31.1242 2.73317 3.7124 0
M  V30 421 H 34.6682 6.15788 3.27796 0
M  V30 422 H 30.5652 5.11453 3.9381 0
M  V30 423 H 31.3332 7.19019 3.91093 0
M  V30 424 N 33.9963 -1.19345 1.0293 0
M  V30 425 C 34.9433 -2.2258 0.610464 0
M  V30 426 C 35.9133 -1.6179 -0.375946 0
M  V30 427 O 37.0983 -1.88844 -0.272511 0
M  V30 428 C 34.2383 -3.45085 -0.0321473 0
M  V30 429 C 33.3513 -4.20258 1.00035 0
M  V30 430 C 32.4863 -5.3019 0.32746 0
M  V30 431 C 31.5253 -5.97121 1.34584 0
M  V30 432 N 30.6623 -6.98615 0.698726 0
M  V30 433 H 35.5023 -2.57764 1.49538 0
M  V30 434 H 33.0393 -1.26644 0.748311 0
M  V30 435 H 34.9973 -4.15061 -0.421966 0
M  V30 436 H 33.6273 -3.10555 -0.88064 0
M  V30 437 H 32.6793 -3.49223 1.50823 0
M  V30 438 H 33.9913 -4.66175 1.77433 0
M  V30 439 H 33.1453 -6.06587 -0.11718 0
M  V30 440 H 31.8843 -4.85345 -0.478713 0
M  V30 441 H 30.8893 -5.19474 1.80074 0
M  V30 442 H 32.1143 -6.4405 2.15352 0
M  V30 443 H 30.0603 -6.55942 -0.0873471 0
M  V30 444 H 29.9773 -7.42724 1.41058 0
M  V30 445 H 31.2453 -7.79004 0.278102 0
M  V30 446 N 35.4744 -0.807222 -1.35358 0
M  V30 447 C 36.7234 -0.384376 -1.98004 0
M  V30 448 C 37.0364 1.0543 -1.64754 0
M  V30 449 O 38.2424 1.58029 -2.20769 0
M  V30 450 C 36.6984 -0.636326 -3.5423 0
M  V30 451 C 36.3064 -2.08759 -3.96388 0
M  V30 452 C 38.0504 -0.278869 -4.23583 0
M  V30 453 C 35.9574 -2.28525 -5.45463 0
M  V30 454 H 34.8874 -0.139986 -0.740891 0
M  V30 455 H 37.5384 -0.991369 -1.54415 0
M  V30 456 H 35.9204 0.0406256 -3.95979 0
M  V30 457 H 37.0944 -2.8024 -3.6579 0
M  V30 458 H 35.4094 -2.40497 -3.39926 0
M  V30 459 H 38.0064 -0.404599 -5.33167 0
M  V30 460 H 38.3494 0.775012 -4.09022 0
M  V30 461 H 38.8824 -0.909764 -3.87257 0
M  V30 462 H 35.6214 -3.32361 -5.64992 0
M  V30 463 H 35.1414 -1.61569 -5.77629 0
M  V30 464 H 36.8204 -2.10109 -6.11934 0
M  V30 465 N 36.9525 1.47285 -0.560781 0
M  V30 466 C 38.1985 2.02764 -0.0381184 0
M  V30 467 C 38.5315 1.43384 1.30976 0
M  V30 468 O 37.8065 0.590733 1.85312 0
M  V30 469 C 38.0895 3.60064 0.0511427 0
M  V30 470 C 37.9425 4.2987 -1.32408 0
M  V30 471 C 39.2615 4.33439 0.762795 0
M  V30 472 H 36.3805 0.736841 -0.0153264 0
M  V30 473 H 39.0225 1.75675 -0.723759 0
M  V30 474 H 37.1725 3.83274 0.635065 0
M  V30 475 H 38.8445 4.17989 -1.95148 0
M  V30 476 H 37.0875 3.90085 -1.8978 0
M  V30 477 H 37.7585 5.38478 -1.21431 0
M  V30 478 H 40.2345 4.15243 0.266965 0
M  V30 479 H 39.1105 5.43124 0.794221 0
M  V30 480 H 39.3715 4.02915 1.81966 0
M  V30 481 N 38.4306 0.297415 1.54768 0
M  V30 482 C 39.3626 -0.613881 2.20826 0
M  V30 483 C 40.3756 -1.10032 1.19987 0
M  V30 484 O 41.5646 -1.01839 1.46598 0
M  V30 485 C 38.6646 -1.852 2.83821 0
M  V30 486 C 37.8376 -1.50865 4.10559 0
M  V30 487 C 36.8966 -2.60154 4.57391 0
M  V30 488 O 35.9226 -2.25398 5.2267 0
M  V30 489 N 37.1246 -3.90629 4.29406 0
M  V30 490 H 39.8896 -0.048389 2.99661 0
M  V30 491 H 37.4506 0.11946 1.61459 0
M  V30 492 H 39.4426 -2.57652 3.12086 0
M  V30 493 H 38.0126 -2.32597 2.08847 0
M  V30 494 H 37.2326 -0.616925 3.89343 0
M  V30 495 H 38.5206 -1.25458 4.9309 0
M  V30 496 H 37.9186 -4.21677 3.77101 0
M  V30 497 H 36.4756 -4.59391 4.62388 0
M  V30 498 N 39.9087 -1.5758 0.0250728 0
M  V30 499 C 41.1367 -1.9593 -0.664747 0
M  V30 500 C 41.5517 -0.901352 -1.65895 0
M  V30 501 O 40.9087 0.117255 -1.82123 0
M  V30 502 C 40.9597 -3.34342 -1.37468 0
M  V30 503 O 40.6807 -4.36079 -0.420324 0
M  V30 504 C 42.1817 -3.873 -2.1567 0
M  V30 505 H 39.4017 -0.645405 -0.183557 0
M  V30 506 H 41.9457 -2.04329 0.0836372 0
M  V30 507 H 40.1007 -3.27175 -2.0745 0
M  V30 508 H 40.5147 -5.16297 -0.923991 0
M  V30 509 H 41.9887 -4.86504 -2.60803 0
M  V30 510 H 42.4657 -3.21331 -2.99405 0
M  V30 511 H 43.0717 -3.97723 -1.50654 0
M  V30 512 N 41.3868 0.248026 -1.55636 0
M  V30 513 C 42.6168 0.992367 -1.81206 0
M  V30 514 C 43.0248 1.7949 -0.598324 0
M  V30 515 O 42.3678 1.78292 0.442434 0
M  V30 516 C 42.4298 1.97926 -3.00109 0
M  V30 517 C 42.0938 1.36377 -4.36177 0
M  V30 518 C 43.0908 0.76682 -5.14214 0
M  V30 519 C 40.7758 1.38347 -4.82872 0
M  V30 520 C 42.7698 0.197778 -6.37093 0
M  V30 521 C 40.4568 0.810574 -6.057 0
M  V30 522 C 41.4548 0.218754 -6.8265 0
M  V30 523 O 41.1428 -0.345298 -8.03158 0
M  V30 524 H 40.8748 0.297704 -0.606917 0
M  V30 525 H 43.4288 0.276517 -2.0353 0
M  V30 526 H 41.6588 2.73339 -2.73538 0
M  V30 527 H 43.3478 2.58694 -3.12781 0
M  V30 528 H 44.1138 0.744114 -4.79258 0
M  V30 529 H 39.9928 1.8335 -4.2297 0
M  V30 530 H 43.5368 -0.264788 -6.97097 0
M  V30 531 H 39.4338 0.830604 -6.40134 0
M  V30 532 H 40.2018 -0.237055 -8.18157 0
M  V30 533 N 42.8649 1.48995 0.513639 0
M  V30 534 C 44.1139 1.57093 1.2651 0
M  V30 535 C 44.4269 0.257091 1.93903 0
M  V30 536 O 45.6329 0.216478 2.70636 0
M  V30 537 C 44.0889 2.77118 2.29638 0
M  V30 538 C 43.6969 4.15209 1.68241 0
M  V30 539 C 45.4409 2.94538 3.05692 0
M  V30 540 C 43.3479 5.26474 2.69406 0
M  V30 541 H 42.2779 0.584876 0.475854 0
M  V30 542 H 44.9289 1.7536 0.540487 0
M  V30 543 H 43.3109 2.52319 3.05207 0
M  V30 544 H 44.4849 4.50094 0.987505 0
M  V30 545 H 42.7999 4.03042 1.04623 0
M  V30 546 H 45.3969 3.74832 3.8132 0
M  V30 547 H 45.7399 2.04614 3.62545 0
M  V30 548 H 46.2729 3.19316 2.37238 0
M  V30 549 H 43.0119 6.18417 2.17351 0
M  V30 550 H 42.5319 4.96058 3.37175 0
M  V30 551 H 44.2109 5.55277 3.32078 0
M  V30 552 N 44.343 -0.763751 1.37857 0
M  V30 553 C 45.253 -1.90817 1.36478 0
M  V30 554 C 46.269 -1.71997 0.263248 0
M  V30 555 O 47.445 -1.95095 0.499979 0
M  V30 556 C 44.51 -3.2605 1.17864 0
M  V30 557 C 43.571 -3.57467 2.3773 0
M  V30 558 C 42.804 -4.86249 2.19995 0
M  V30 559 O 43.027 -5.57884 1.18836 0
M  V30 560 O 41.961 -5.16911 3.08361 0
M  V30 561 H 45.787 -1.94933 2.32884 0
M  V30 562 H 43.372 -0.907619 1.1867 0
M  V30 563 H 45.254 -4.06924 1.09504 0
M  V30 564 H 43.929 -3.22769 0.245372 0
M  V30 565 H 42.836 -2.76796 2.51664 0
M  V30 566 H 44.169 -3.655 3.29652 0
M  V30 567 N 45.8211 -1.22559 -0.990812 0
M  V30 568 C 47.0981 -0.959875 -1.70428 0
M  V30 569 C 47.4781 0.524455 -2.04481 0
M  V30 570 O 46.8261 1.49302 -1.72977 0
M  V30 571 C 47.0361 -1.85955 -2.95333 0
M  V30 572 C 48.3841 -2.11687 -3.68068 0
M  V30 573 O 49.4081 -1.8342 -3.05345 0
M  V30 574 O 48.2671 -2.59572 -4.80921 0
M  V30 575 H 45.3611 -0.361154 -0.743974 0
M  V30 576 H 47.9071 -1.33554 -1.04697 0
M  V30 577 H 46.6791 -2.86346 -2.66687 0
M  V30 578 H 46.3021 -1.4856 -3.68803 0
M  V30 579 N 47.2992 1.18797 -1.03562 0
M  V30 580 C 48.2462 2.22253 -0.622259 0
M  V30 581 C 49.2162 1.61987 0.36736 0
M  V30 582 O 50.4012 1.88986 0.262492 0
M  V30 583 C 47.5412 3.45097 0.0138462 0
M  V30 584 C 46.6542 4.19722 -1.02263 0
M  V30 585 C 45.7892 5.30009 -0.355573 0
M  V30 586 C 44.8282 5.96399 -1.37749 0
M  V30 587 N 43.9652 6.98234 -0.735766 0
M  V30 588 H 48.8052 2.56968 -1.50903 0
M  V30 589 H 46.3422 1.26245 -0.755017 0
M  V30 590 H 48.3002 4.15279 0.399948 0
M  V30 591 H 46.9302 3.11018 0.864158 0
M  V30 592 H 45.9822 3.48418 -1.52673 0
M  V30 593 H 47.2942 4.65227 -1.79903 0
M  V30 594 H 46.4482 6.0664 0.0850095 0
M  V30 595 H 45.1872 4.85592 0.452967 0
M  V30 596 H 44.1922 5.18512 -1.82826 0
M  V30 597 H 45.4172 6.42899 -2.18764 0
M  V30 598 H 43.3632 6.55979 0.0525597 0
M  V30 599 H 43.2802 7.41965 -1.44995 0
M  V30 600 H 44.5482 7.78845 -0.31941 0
M  V30 601 N 48.7773 0.814389 1.34928 0
M  V30 602 C 49.7093 0.187834 2.28429 0
M  V30 603 C 50.7223 -0.617374 1.5064 0
M  V30 604 O 51.9113 -0.448454 1.72775 0
M  V30 605 C 49.0113 -0.755962 3.30361 0
M  V30 606 C 48.1843 0.00456686 4.374 0
M  V30 607 C 47.2433 -0.858876 5.19143 0
M  V30 608 O 46.2693 -0.306968 5.68372 0
M  V30 609 N 47.4713 -2.17988 5.38016 0
M  V30 610 H 50.2363 0.991105 2.82838 0
M  V30 611 H 47.7973 0.670561 1.4736 0
M  V30 612 H 49.7893 -1.338 3.81942 0
M  V30 613 H 48.3593 -1.46001 2.7641 0
M  V30 614 H 47.5793 0.767865 3.86649 0
M  V30 615 H 48.8673 0.528422 5.06049 0
M  V30 616 H 48.2653 -2.65212 4.99679 0
M  V30 617 H 46.8223 -2.71098 5.92747 0
M  V30 618 N 50.2554 -1.46986 0.568584 0
M  V30 619 C 51.1654 -2.33942 -0.17555 0
M  V30 620 C 52.1814 -1.48891 -0.90041 0
M  V30 621 O 53.3574 -1.81794 -0.86676 0
M  V30 622 C 50.4224 -3.25811 -1.18524 0
M  V30 623 C 49.4834 -4.26757 -0.466582 0
M  V30 624 C 48.7164 -5.14236 -1.42817 0
M  V30 625 O 48.9394 -5.04379 -2.66379 0
M  V30 626 O 47.8734 -5.94412 -0.946453 0
M  V30 627 H 51.6994 -2.98896 0.538036 0
M  V30 628 H 49.2844 -1.4573 0.329097 0
M  V30 629 H 51.1664 -3.82527 -1.76779 0
M  V30 630 H 49.8414 -2.63471 -1.88055 0
M  V30 631 H 48.7484 -3.73769 0.157451 0
M  V30 632 H 50.0814 -4.91843 0.187485 0
M  V30 633 N 51.7335 -0.305618 -1.54608 0
M  V30 634 C 53.1495 0.0476228 -1.59529 0
M  V30 635 C 53.3495 1.52025 -1.32252 0
M  V30 636 O 52.4055 2.27368 -1.09818 0
M  V30 637 C 53.7185 -0.354471 -2.98603 0
M  V30 638 C 55.2665 -0.303622 -3.11524 0
M  V30 639 C 55.7415 -0.680608 -4.52915 0
M  V30 640 N 57.2325 -0.63332 -4.5885 0
M  V30 641 C 57.9675 -0.897432 -5.66334 0
M  V30 642 N 57.4635 -1.22775 -6.81834 0
M  V30 643 N 59.2565 -0.824186 -5.56025 0
M  V30 644 H 51.4075 -1.2653 -1.70599 0
M  V30 645 H 53.6705 -0.513291 -0.797017 0
M  V30 646 H 53.3765 -1.3798 -3.23503 0
M  V30 647 H 53.2505 0.289568 -3.76087 0
M  V30 648 H 55.6375 0.712472 -2.8637 0
M  V30 649 H 55.7185 -0.982348 -2.36185 0
M  V30 650 H 55.3625 -1.69453 -4.78799 0
M  V30 651 H 55.2925 0.0202385 -5.26596 0
M  V30 652 H 57.7835 -0.389138 -3.75891 0
M  V30 653 H 58.0965 -1.41513 -7.59733 0
M  V30 654 H 56.4415 -1.26583 -6.83375 0
M  V30 655 H 59.6325 -0.565748 -4.64669 0
M  V30 656 H 59.8055 -1.03338 -6.39707 0
M  V30 657 N 53.2116 1.57565 -0.0334293 0
M  V30 658 C 54.1746 2.09393 0.932048 0
M  V30 659 C 55.1746 1.00986 1.25134 0
M  V30 660 O 56.3646 1.27129 1.19096 0
M  V30 661 C 53.4966 2.56338 2.2473 0
M  V30 662 H 54.6896 2.95984 0.483085 0
M  V30 663 H 52.2426 1.54819 0.21468 0
M  V30 664 H 52.9776 1.7309 2.74245 0
M  V30 665 H 52.7626 3.35542 2.02865 0
M  V30 666 H 54.2526 2.96646 2.93923 0
M  V30 667 N 54.6897 -0.239769 1.55765 0
M  V30 668 C 55.6377 -1.31668 1.91745 0
M  V30 669 C 56.6317 -1.49462 0.797338 0
M  V30 670 O 57.8377 -1.50852 0.982021 0
M  V30 671 H 54.2127 -0.441048 0.609082 0
M  V30 672 H 56.1837 -0.985923 2.81642 0
M  V30 673 C 54.9327 -2.66368 2.2348 0
M  V30 674 H 54.2557 -2.53478 3.09175 0
M  V30 675 H 55.6957 -3.40578 2.52553 0
M  V30 676 C 54.1547 -3.20002 1.05359 0
M  V30 677 O 54.6847 -4.00538 0.305261 0
M  V30 678 N 52.8907 -2.78126 0.842292 0
M  V30 679 H 52.4377 -2.12742 1.45253 0
M  V30 680 H 52.3957 -3.14354 0.053652 0
M  V30 681 N 56.1678 -1.49265 -0.50573 0
M  V30 682 C 57.3978 -1.61979 -1.28243 0
M  V30 683 C 57.8058 -0.288576 -1.86986 0
M  V30 684 O 57.1488 0.735408 -1.68337 0
M  V30 685 C 57.2108 -2.62632 -2.45489 0
M  V30 686 C 56.8748 -4.071 -2.07651 0
M  V30 687 C 57.8718 -4.94049 -1.61901 0
M  V30 688 C 55.5568 -4.52801 -2.17431 0
M  V30 689 C 57.5508 -6.24736 -1.26428 0
M  V30 690 C 55.2378 -5.83503 -1.8157 0
M  V30 691 C 56.2358 -6.69294 -1.36142 0
M  V30 692 O 55.9238 -7.9756 -1.00764 0
M  V30 693 H 55.6558 -0.54834 -0.395347 0
M  V30 694 H 58.2098 -1.96002 -0.614204 0
M  V30 695 H 56.4398 -2.2378 -3.15372 0
M  V30 696 H 58.1288 -2.64925 -3.07522 0
M  V30 697 H 58.8948 -4.5997 -1.53795 0
M  V30 698 H 54.7738 -3.86196 -2.51742 0
M  V30 699 H 58.3178 -6.91652 -0.908992 0
M  V30 700 H 54.2148 -6.17112 -1.89324 0
M  V30 701 H 54.9828 -8.10529 -1.13952 0
M  V30 702 N 57.6459 0.756429 -1.3826 0
M  V30 703 C 58.5559 1.9009 -1.37488 0
M  V30 704 C 59.5719 1.71855 -0.272366 0
M  V30 705 O 60.7479 1.94827 -0.510318 0
M  V30 706 C 57.8129 3.25421 -1.19592 0
M  V30 707 C 56.8739 3.56202 -2.39622 0
M  V30 708 C 56.1069 4.85075 -2.2257 0
M  V30 709 O 56.3299 5.57246 -1.21793 0
M  V30 710 O 55.2639 5.15269 -3.11098 0
M  V30 711 H 59.0899 1.93695 -2.33914 0
M  V30 712 H 56.6749 0.901313 -1.1915 0
M  V30 713 H 58.5569 4.06337 -1.11661 0
M  V30 714 H 57.2319 3.22634 -0.262486 0
M  V30 715 H 56.1389 2.75458 -2.53128 0
M  V30 716 H 57.4719 3.63747 -3.31586 0
M  V30 717 N 59.124 1.23083 0.984299 0
M  V30 718 C 60.071 1.00854 2.07598 0
M  V30 719 C 61.041 -0.0726709 1.65941 0
M  V30 720 O 62.226 0.0786535 1.90638 0
M  V30 721 C 59.366 0.601645 3.39815 0
M  V30 722 C 58.479 1.75456 3.94765 0
M  V30 723 C 57.614 1.29482 5.15177 0
M  V30 724 C 56.653 2.41873 5.62284 0
M  V30 725 N 55.79 1.96885 6.73929 0
M  V30 726 H 60.63 1.943 2.25946 0
M  V30 727 H 58.167 0.968001 1.10762 0
M  V30 728 H 60.125 0.346854 4.15756 0
M  V30 729 H 58.755 -0.295803 3.21442 0
M  V30 730 H 57.807 2.12346 3.15616 0
M  V30 731 H 59.119 2.59965 4.25699 0
M  V30 732 H 58.273 0.997923 5.98437 0
M  V30 733 H 57.012 0.420046 4.85888 0
M  V30 734 H 56.017 2.72342 4.77608 0
M  V30 735 H 57.242 3.29881 5.93595 0
M  V30 736 H 55.188 1.11782 6.46406 0
M  V30 737 H 55.105 2.74956 7.04227 0
M  V30 738 H 56.373 1.70289 7.60672 0
M  V30 739 N 60.6021 -1.18246 1.0419 0
M  V30 740 C 61.5321 -2.24127 0.654914 0
M  V30 741 C 62.5131 -1.66617 -0.342451 0
M  V30 742 O 63.6981 -1.92924 -0.222277 0
M  V30 743 C 60.8281 -3.47295 0.0183757 0
M  V30 744 C 59.7821 -4.17563 0.939414 0
M  V30 745 C 59.1081 -5.34438 0.167286 0
M  V30 746 C 60.4081 -4.70917 2.25908 0
M  V30 747 H 62.1021 -2.56753 1.54007 0
M  V30 748 H 59.6481 -1.23414 0.74195 0
M  V30 749 H 61.6011 -4.20572 -0.264082 0
M  V30 750 H 60.3251 -3.13907 -0.901664 0
M  V30 751 H 58.9841 -3.46186 1.20628 0
M  V30 752 H 58.6321 -4.97298 -0.7552 0
M  V30 753 H 58.3321 -5.82388 0.780901 0
M  V30 754 H 59.8561 -6.10504 -0.108125 0
M  V30 755 H 61.2701 -5.35882 2.03724 0
M  V30 756 H 59.6671 -5.29406 2.82577 0
M  V30 757 H 60.7371 -3.88272 2.9047 0
M  V30 758 N 62.0802 -0.821533 -1.34494 0
M  V30 759 C 63.0122 -0.199946 -2.28326 0
M  V30 760 C 64.0252 0.609377 -1.50965 0
M  V30 761 O 65.2142 0.439285 -1.7301 0
M  V30 762 C 62.3142 0.738431 -3.30757 0
M  V30 763 C 61.4872 -0.0277632 -4.37391 0
M  V30 764 C 60.5462 0.831332 -5.19591 0
M  V30 765 O 59.5722 0.276822 -5.68526 0
M  V30 766 N 60.7742 2.15132 -5.39165 0
M  V30 767 H 63.5392 -1.00609 -2.82308 0
M  V30 768 H 61.1002 -0.678366 -1.47003 0
M  V30 769 H 63.0922 1.31773 -3.82646 0
M  V30 770 H 61.6622 1.44533 -2.7718 0
M  V30 771 H 60.8822 -0.788359 -3.86236 0
M  V30 772 H 62.1702 -0.555251 -5.05761 0
M  V30 773 H 61.5682 2.62559 -5.01078 0
M  V30 774 H 60.1252 2.6795 -5.94177 0
M  V30 775 N 63.5583 1.46682 -0.576371 0
M  V30 776 C 64.4903 2.28341 0.198231 0
M  V30 777 C 65.5033 1.38141 0.861453 0
M  V30 778 O 66.6923 1.62797 0.732082 0
M  V30 779 C 63.7923 3.12986 1.29972 0
M  V30 780 C 62.9653 4.31271 0.729639 0
M  V30 781 C 62.0243 4.97363 1.71803 0
M  V30 782 O 61.0503 5.55156 1.25658 0
M  V30 783 N 62.2523 4.93796 3.05198 0
M  V30 784 H 65.0173 2.9546 -0.502324 0
M  V30 785 H 62.5783 1.56525 -0.413715 0
M  V30 786 H 64.5703 3.54066 1.96008 0
M  V30 787 H 63.1403 2.47984 1.90323 0
M  V30 788 H 62.3603 3.94052 -0.108012 0
M  V30 789 H 63.6483 5.07739 0.328438 0
M  V30 790 H 63.0463 4.48077 3.45317 0
M  V30 791 H 61.6033 5.38837 3.6674 0
M  V30 792 N 65.0364 0.313813 1.54444 0
M  V30 793 C 65.9834 -0.55655 2.23989 0
M  V30 794 C 66.9534 -1.11943 1.22711 0
M  V30 795 O 68.1384 -1.16158 1.51367 0
M  V30 796 C 65.2784 -1.71635 2.99392 0
M  V30 797 C 64.3914 -1.18364 4.15468 0
M  V30 798 C 63.5264 -2.30834 4.78424 0
M  V30 799 C 62.5654 -1.74762 5.86622 0
M  V30 800 N 61.7024 -2.80855 6.43479 0
M  V30 801 H 66.5424 0.0430893 2.97969 0
M  V30 802 H 64.0794 0.0330359 1.47063 0
M  V30 803 H 66.0374 -2.39868 3.41349 0
M  V30 804 H 64.6674 -2.28742 2.27765 0
M  V30 805 H 63.7194 -0.393163 3.78363 0
M  V30 806 H 65.0314 -0.733262 4.93381 0
M  V30 807 H 64.1854 -3.0699 5.23299 0
M  V30 808 H 62.9244 -2.79204 3.99871 0
M  V30 809 H 61.9294 -0.970995 5.41158 0
M  V30 810 H 63.1544 -1.2728 6.67066 0
M  V30 811 H 61.1004 -3.28535 5.67804 0
M  V30 812 H 61.0174 -2.40351 7.16776 0
M  V30 813 H 62.2854 -3.5687 6.93011 0
M  V30 814 N 66.5145 -1.57545 0.0417849 0
M  V30 815 C 67.7615 -1.92317 -0.634082 0
M  V30 816 C 68.0895 -0.919334 -1.71402 0
M  V30 817 O 67.3445 0.0698253 -1.95575 0
M  V30 818 C 67.6435 -3.33794 -1.27735 0
M  V30 819 C 67.3095 -4.49716 -0.326543 0
M  V30 820 C 65.9715 -4.81156 -0.0648814 0
M  V30 821 C 68.3235 -5.20182 0.325623 0
M  V30 822 C 65.6515 -5.80414 0.856539 0
M  V30 823 C 68.0035 -6.20424 1.23518 0
M  V30 824 C 66.6675 -6.50298 1.5056 0
M  V30 825 H 65.9375 -0.703736 -0.232027 0
M  V30 826 H 68.5845 -1.91205 0.106259 0
M  V30 827 H 66.8895 -3.31228 -2.09274 0
M  V30 828 H 68.5865 -3.57975 -1.80707 0
M  V30 829 H 65.1765 -4.25176 -0.540665 0
M  V30 830 H 69.3605 -4.96112 0.136546 0
M  V30 831 H 64.6165 -6.019 1.07363 0
M  V30 832 H 68.7905 -6.74141 1.74664 0
M  V30 833 H 66.4175 -7.27025 2.22123 0
M  V30 834 N 67.9926 0.231505 -1.5589 0
M  V30 835 C 68.9246 1.31006 -1.8807 0
M  V30 836 C 69.9376 1.43539 -0.768145 0
M  V30 837 O 71.1266 1.44614 -1.04638 0
M  V30 838 C 68.2266 2.68688 -2.06543 0
M  V30 839 C 67.3996 2.78228 -3.37502 0
M  V30 840 C 66.4586 3.96857 -3.4553 0
M  V30 841 O 65.4846 3.85662 -4.18633 0
M  V30 842 N 66.6866 5.1072 -2.75944 0
M  V30 843 H 69.4516 1.03731 -2.81176 0
M  V30 844 H 67.0126 0.421573 -1.56315 0
M  V30 845 H 69.0046 3.46412 -2.09239 0
M  V30 846 H 67.5746 2.88605 -1.20109 0
M  V30 847 H 66.7946 1.87059 -3.46991 0
M  V30 848 H 68.0826 2.81564 -4.23791 0
M  V30 849 H 67.4806 5.2271 -2.16311 0
M  V30 850 H 66.0376 5.86523 -2.84314 0
M  V30 851 N 69.4707 1.49531 0.497807 0
M  V30 852 C 70.4037 1.61043 1.6168 0
M  V30 853 C 71.3817 0.459386 1.55976 0
M  V30 854 O 72.5657 0.675358 1.75986 0
M  V30 855 C 69.6927 1.56833 3.00202 0
M  V30 856 C 68.7387 2.77173 3.24156 0
M  V30 857 S 69.5717 4.38808 3.06933 0
M  V30 858 C 70.7277 4.37248 4.47845 0
M  V30 859 H 70.9607 2.55702 1.51671 0
M  V30 860 H 68.4937 1.38462 0.683201 0
M  V30 861 H 70.4517 1.55089 3.80076 0
M  V30 862 H 69.1127 0.634561 3.07623 0
M  V30 863 H 68.3057 2.70456 4.25288 0
M  V30 864 H 67.9077 2.76346 2.5201 0
M  V30 865 H 70.1997 4.09164 5.39992 0
M  V30 866 H 71.1427 5.38668 4.59612 0
M  V30 867 H 71.5507 3.67286 4.28674 0
M  V30 868 N 70.9488 -0.749086 1.3866 0
M  V30 869 C 71.8788 -1.8764 1.38973 0
M  V30 870 C 72.8598 -1.68178 0.255004 0
M  V30 871 O 74.0448 -1.88704 0.458754 0
M  V30 872 C 71.1748 -3.25222 1.21851 0
M  V30 873 C 70.1288 -3.59295 2.32575 0
M  V30 874 C 69.4548 -4.95663 2.00555 0
M  V30 875 C 70.7548 -3.63709 3.7485 0
M  V30 876 H 72.4488 -1.87635 2.3331 0
M  V30 877 H 69.9948 -0.901329 1.12303 0
M  V30 878 H 71.9478 -4.03746 1.20695 0
M  V30 879 H 70.6718 -3.25719 0.239775 0
M  V30 880 H 69.3308 -2.83093 2.32925 0
M  V30 881 H 68.9788 -4.92724 1.01154 0
M  V30 882 H 68.6788 -5.19429 2.74714 0
M  V30 883 H 70.2028 -5.7656 2.01024 0
M  V30 884 H 71.6168 -4.32338 3.76506 0
M  V30 885 H 70.0138 -3.98986 4.48252 0
M  V30 886 H 71.0838 -2.63834 4.06841 0
M  V30 887 N 72.4269 -1.23603 -0.977757 0
M  V30 888 C 73.3599 -0.962772 -2.06896 0
M  V30 889 C 74.3379 0.0998743 -1.62293 0
M  V30 890 O 75.5219 -0.0349421 -1.88468 0
M  V30 891 C 72.6489 -0.45095 -3.35685 0
M  V30 892 C 71.6949 -1.50061 -3.99229 0
M  V30 893 S 72.5279 -3.07884 -4.38142 0
M  V30 894 C 73.6839 -2.58378 -5.7008 0
M  V30 895 H 73.9169 -1.88677 -2.29757 0
M  V30 896 H 71.4499 -1.06876 -1.11431 0
M  V30 897 H 73.4079 -0.162261 -4.10179 0
M  V30 898 H 72.0689 0.452179 -3.10828 0
M  V30 899 H 71.2619 -1.09269 -4.92013 0
M  V30 900 H 70.8639 -1.73878 -3.31123 0
M  V30 901 H 73.1559 -2.00563 -6.47133 0
M  V30 902 H 74.0989 -3.49711 -6.15717 0
M  V30 903 H 74.5069 -1.99143 -5.28207 0
M  V30 904 N 73.905 1.17692 -1.04816 0
M  V30 905 C 75.13 1.92327 -0.776207 0
M  V30 906 C 75.555 1.76082 0.661581 0
M  V30 907 O 74.913 1.076 1.45917 0
M  V30 908 C 74.961 3.41539 -1.15687 0
M  V30 909 O 74.065 4.11402 -0.286775 0
M  V30 910 H 73.406 0.599735 -0.284981 0
M  V30 911 H 75.936 1.49201 -1.4 0
M  V30 912 H 75.946 3.92269 -1.12202 0
M  V30 913 H 74.621 3.52684 -2.20425 0
M  V30 914 H 73.198 3.70939 -0.381903 0
M  V30 915 N 75.3831 0.828654 1.34056 0
M  V30 916 C 76.3301 0.252567 2.29414 0
M  V30 917 C 77.3001 -0.62588 1.53857 0
M  V30 918 O 78.4851 -0.566312 1.82202 0
M  V30 919 C 75.6251 -0.574831 3.40279 0
M  V30 920 C 74.7381 0.326499 4.30764 0
M  V30 921 C 73.8731 -0.511016 5.28736 0
M  V30 922 C 72.9121 0.389342 6.1086 0
M  V30 923 N 72.0491 -0.409439 7.00905 0
M  V30 924 H 76.8891 1.07108 2.78086 0
M  V30 925 H 74.4261 0.539677 1.36843 0
M  V30 926 H 76.3841 -1.06992 4.03248 0
M  V30 927 H 75.0141 -1.35841 2.92826 0
M  V30 928 H 74.0661 0.939837 3.68607 0
M  V30 929 H 75.3781 1.01857 4.88289 0
M  V30 930 H 74.5321 -1.07035 5.97184 0
M  V30 931 H 73.2711 -1.23657 4.71763 0
M  V30 932 H 72.2761 0.960769 5.4134 0
M  V30 933 H 73.5011 1.1131 6.69916 0
M  V30 934 H 71.4471 -1.11856 6.46393 0
M  V30 935 H 71.3641 0.224126 7.55668 0
M  V30 936 H 72.6321 -0.951336 7.73673 0
M  V30 937 N 76.8612 -1.46375 0.584142 0
M  V30 938 C 77.8112 -2.27371 -0.169232 0
M  V30 939 C 78.7952 -1.35955 -0.860523 0
M  V30 940 O 79.9872 -1.60119 -0.754382 0
M  V30 941 C 77.1162 -3.22334 -1.18134 0
M  V30 942 C 76.2022 -4.21235 -0.492088 0
M  V30 943 N 76.5932 -5.03766 0.453129 0
M  V30 944 C 74.8912 -4.39773 -0.742652 0
M  V30 945 C 75.5922 -5.75366 0.85609 0
M  V30 946 N 74.5682 -5.43214 0.204926 0
M  V30 947 H 78.3702 -2.88572 0.557097 0
M  V30 948 H 75.8842 -1.57242 0.406042 0
M  V30 949 H 77.8812 -3.79071 -1.73525 0
M  V30 950 H 76.5412 -2.62693 -1.90847 0
M  V30 951 H 77.5522 -5.11227 0.828723 0
M  V30 952 H 74.2292 -3.91279 -1.45625 0
M  V30 953 H 75.6192 -6.5172 1.63434 0
M  V30 954 N 78.3393 -0.321999 -1.54275 0
M  V30 955 C 79.2713 0.578671 -2.21775 0
M  V30 956 C 80.2843 1.08109 -1.21722 0
M  V30 957 O 81.4733 0.994938 -1.482 0
M  V30 958 C 78.5733 1.80661 -2.86731 0
M  V30 959 C 77.7463 1.44314 -4.12907 0
M  V30 960 C 76.8053 2.52845 -4.61472 0
M  V30 961 O 75.8313 2.17054 -5.2619 0
M  V30 962 N 77.0333 3.83748 -4.35566 0
M  V30 963 H 79.7983 0.000709447 -2.997 0
M  V30 964 H 77.3593 -0.145132 -1.61248 0
M  V30 965 H 79.3513 2.52655 -3.16145 0
M  V30 966 H 77.9213 2.29245 -2.12521 0
M  V30 967 H 77.1413 0.554906 -3.90275 0
M  V30 968 H 78.4293 1.17598 -4.95023 0
M  V30 969 H 77.8273 4.15625 -3.83761 0
M  V30 970 H 76.3843 4.51977 -4.69638 0
M  V30 971 N 79.8174 1.5752 -0.0501392 0
M  V30 972 C 80.7804 2.1037 0.909786 0
M  V30 973 C 81.7804 1.02308 1.24056 0
M  V30 974 O 82.9704 1.28385 1.17741 0
M  V30 975 C 80.1024 2.58708 2.21998 0
M  V30 976 H 81.2954 2.96479 0.451665 0
M  V30 977 H 78.8484 1.55038 0.198248 0
M  V30 978 H 79.5834 1.75989 2.72394 0
M  V30 979 H 79.3684 3.37675 1.99295 0
M  V30 980 H 80.8584 2.99747 2.9076 0
M  V30 981 N 81.2955 -0.223234 1.56011 0
M  V30 982 C 82.2455 -1.28008 1.88674 0
M  V30 983 C 83.2295 -1.42369 0.749663 0
M  V30 984 O 84.4215 -1.45212 1.01205 0
M  V30 985 C 81.5505 -2.63084 2.20548 0
M  V30 986 C 80.6365 -2.52632 3.40643 0
M  V30 987 N 81.0275 -2.11829 4.59306 0
M  V30 988 C 79.3255 -2.83594 3.44224 0
M  V30 989 C 80.0265 -2.12587 5.41463 0
M  V30 990 N 79.0025 -2.5301 4.81131 0
M  V30 991 H 82.8045 -0.955487 2.77935 0
M  V30 992 H 80.3185 -0.431801 1.56554 0
M  V30 993 H 82.3155 -3.39385 2.42122 0
M  V30 994 H 80.9755 -2.96391 1.32599 0
M  V30 995 H 81.9865 -1.82988 4.84496 0
M  V30 996 H 78.6635 -3.21284 2.66614 0
M  V30 997 H 80.0535 -1.83179 6.46448 0
M  V30 998 N 82.7736 -1.49793 -0.48987 0
M  V30 999 C 84.0196 -1.60078 -1.24511 0
M  V30 1000 C 84.3526 -0.291608 -1.91998 0
M  V30 1001 O 83.6276 0.705647 -1.81248 0
M  V30 1002 C 83.9106 -2.76791 -2.30345 0
M  V30 1003 C 83.7636 -4.17535 -1.67286 0
M  V30 1004 C 85.0826 -2.89111 -3.31817 0
M  V30 1005 H 82.2016 -0.582645 -0.451324 0
M  V30 1006 H 84.8436 -1.82117 -0.541612 0
M  V30 1007 H 82.9936 -2.5813 -2.90346 0
M  V30 1008 H 84.6656 -4.4774 -1.11026 0
M  V30 1009 H 82.9086 -4.22665 -0.976577 0
M  V30 1010 H 83.5796 -4.95094 -2.44103 0
M  V30 1011 H 86.0556 -3.06133 -2.81819 0
M  V30 1012 H 84.9316 -3.72433 -4.03219 0
M  V30 1013 H 85.1926 -1.9893 -3.94815 0
M  V30 1014 N 84.2517 0.741722 -1.39055 0
M  V30 1015 C 85.6677 1.04638 -1.20512 0
M  V30 1016 C 85.8677 2.01405 -0.0620218 0
M  V30 1017 O 84.9237 2.45547 0.588457 0
M  V30 1018 C 86.2367 1.6151 -2.53643 0
M  V30 1019 C 87.7847 1.73623 -2.6043 0
M  V30 1020 C 88.2597 2.33906 -3.93767 0
M  V30 1021 N 89.7507 2.41323 -3.9537 0
M  V30 1022 C 90.4857 2.88888 -4.95309 0
M  V30 1023 N 89.9817 3.36401 -6.05645 0
M  V30 1024 N 91.7747 2.88037 -4.82692 0
M  V30 1025 H 83.9257 0.0998155 -2.12165 0
M  V30 1026 H 86.1887 0.106907 -0.941953 0
M  V30 1027 H 85.8947 0.978739 -3.37807 0
M  V30 1028 H 85.7687 2.60411 -2.72885 0
M  V30 1029 H 88.1557 2.36384 -1.76655 0
M  V30 1030 H 88.2367 0.733945 -2.45045 0
M  V30 1031 H 87.8807 1.71776 -4.7797 0
M  V30 1032 H 87.8107 3.34799 -4.06469 0
M  V30 1033 H 90.3017 2.07734 -3.15682 0
M  V30 1034 H 90.6147 3.71186 -6.77821 0
M  V30 1035 H 88.9597 3.34427 -6.09248 0
M  V30 1036 H 92.1507 2.50237 -3.95599 0
M  V30 1037 H 92.3237 3.24792 -5.60726 0
M  V30 1038 N 85.7298 1.2412 0.971189 0
M  V30 1039 C 87.1408 1.07236 1.52831 0
M  V30 1040 C 87.4918 -0.357352 1.92918 0
M  V30 1041 O 86.6168 -1.24528 1.76979 0
M  V30 1042 C 87.2118 1.94043 2.77728 0
M  V30 1043 C 85.7708 1.81394 3.29808 0
M  V30 1044 C 84.9178 1.89189 2.02738 0
M  V30 1045 H 87.8688 1.37648 0.789864 0
M  V30 1046 H 87.8898 1.47066 3.5093 0
M  V30 1047 H 87.4018 2.98093 2.4852 0
M  V30 1048 H 85.5028 0.801634 3.63874 0
M  V30 1049 H 85.6158 2.65294 3.98944 0
M  V30 1050 H 83.9798 1.32877 2.17292 0
M  V30 1051 H 84.7628 2.94812 1.759 0
M  V30 1052 N 87.2079 -1.17134 1.05439 0
M  V30 1053 C 88.1399 -2.2078 0.615539 0
M  V30 1054 C 89.1529 -1.59584 -0.322001 0
M  V30 1055 O 90.3419 -1.78133 -0.114344 0
M  V30 1056 C 87.4419 -3.38691 -0.118938 0
M  V30 1057 C 86.6149 -4.29454 0.829924 0
M  V30 1058 C 85.6739 -5.26024 0.136258 0
M  V30 1059 O 84.6999 -5.63952 0.77115 0
M  V30 1060 N 85.9019 -5.69487 -1.1254 0
M  V30 1061 H 88.6669 -2.59052 1.50705 0
M  V30 1062 H 86.2279 -1.32058 0.936603 0
M  V30 1063 H 88.2199 -4.00329 -0.593179 0
M  V30 1064 H 86.7899 -2.98996 -0.91215 0
M  V30 1065 H 86.0099 -3.65211 1.48373 0
M  V30 1066 H 87.2979 -4.86984 1.47392 0
M  V30 1067 H 86.6959 -5.4075 -1.6615 0
M  V30 1068 H 85.2529 -6.33257 -1.54366 0
M  V30 1069 N 88.686 -0.835752 -1.33615 0
M  V30 1070 C 89.933 -0.429959 -1.97883 0
M  V30 1071 C 90.261 1.01006 -1.66217 0
M  V30 1072 O 89.516 1.72047 -0.93265 0
M  V30 1073 C 89.815 -0.593925 -3.52431 0
M  V30 1074 C 89.481 -2.00158 -4.04039 0
M  V30 1075 C 88.143 -2.38662 -4.17844 0
M  V30 1076 C 90.495 -2.92117 -4.31644 0
M  V30 1077 C 87.823 -3.68435 -4.56588 0
M  V30 1078 C 90.175 -4.21368 -4.71838 0
M  V30 1079 C 88.839 -4.59833 -4.83849 0
M  V30 1080 H 88.109 -0.157333 -0.724104 0
M  V30 1081 H 90.756 -1.06217 -1.59343 0
M  V30 1082 H 89.061 0.121619 -3.91611 0
M  V30 1083 H 90.758 -0.260282 -4.00154 0
M  V30 1084 H 87.348 -1.69252 -3.93766 0
M  V30 1085 H 91.532 -2.63608 -4.20505 0
M  V30 1086 H 86.788 -3.98046 -4.64079 0
M  V30 1087 H 90.962 -4.92703 -4.92155 0
M  V30 1088 H 88.589 -5.60438 -5.13627 0
M  V30 1089 N 90.1641 1.46063 -0.591896 0
M  V30 1090 C 91.0741 2.34192 0.13831 0
M  V30 1091 C 92.0901 1.50305 0.876608 0
M  V30 1092 O 93.2661 1.8315 0.837728 0
M  V30 1093 C 90.3311 3.27656 1.13326 0
M  V30 1094 C 89.3921 4.27445 0.39863 0
M  V30 1095 C 88.6251 5.16443 1.34618 0
M  V30 1096 O 88.8481 5.08553 2.58321 0
M  V30 1097 O 87.7821 5.95843 0.851768 0
M  V30 1098 H 91.6081 2.98002 -0.58552 0
M  V30 1099 H 89.1931 1.45188 -0.352239 0
M  V30 1100 H 91.0751 3.85291 1.70671 0
M  V30 1101 H 89.7501 2.6643 1.83839 0
M  V30 1102 H 88.6571 3.73471 -0.216895 0
M  V30 1103 H 89.9901 4.91482 -0.265709 0
M  V30 1104 N 91.6422 0.330177 1.54103 0
M  V30 1105 C 92.8672 -0.274893 2.0557 0
M  V30 1106 C 93.2922 -1.44487 1.20437 0
M  V30 1107 O 92.6502 -1.80021 0.214991 0
M  V30 1108 C 92.6982 -0.68079 3.54115 0
M  V30 1109 O 91.8022 -1.7824 3.71893 0
M  V30 1110 H 91.1432 -0.0483849 0.662235 0
M  V30 1111 H 93.6732 0.480508 1.98878 0
M  V30 1112 H 93.6832 -0.961635 3.96505 0
M  V30 1113 H 92.3582 0.174903 4.15532 0
M  V30 1114 H 90.9352 -1.49985 3.41407 0
M  V30 1115 N 93.1203 -1.57491 0.0584922 0
M  V30 1116 C 94.0503 -2.14988 -0.911178 0
M  V30 1117 C 95.0313 -1.07343 -1.31952 0
M  V30 1118 O 96.2163 -1.35318 -1.39294 0
M  V30 1119 C 93.3463 -2.70078 -2.18347 0
M  V30 1120 C 92.3003 -3.82771 -1.91495 0
M  V30 1121 C 91.6263 -4.24408 -3.25241 0
M  V30 1122 C 92.9263 -5.07592 -1.23075 0
M  V30 1123 H 94.6203 -2.96263 -0.432246 0
M  V30 1124 H 92.1663 -1.42512 -0.206469 0
M  V30 1125 H 94.1193 -3.08943 -2.86587 0
M  V30 1126 H 92.8433 -1.86005 -2.68458 0
M  V30 1127 H 91.5023 -3.44389 -1.25664 0
M  V30 1128 H 91.1503 -3.37275 -3.73168 0
M  V30 1129 H 90.8503 -5.00366 -3.08071 0
M  V30 1130 H 92.3743 -4.65879 -3.94701 0
M  V30 1131 H 93.7883 -5.43857 -1.81362 0
M  V30 1132 H 92.1853 -5.88741 -1.16207 0
M  V30 1133 H 93.2553 -4.84454 -0.207847 0
M  V30 1134 N 94.5984 0.214957 -1.56127 0
M  V30 1135 C 95.5084 1.28727 -1.96129 0
M  V30 1136 C 96.5244 1.50916 -0.866044 0
M  V30 1137 O 97.7004 1.63918 -1.17016 0
M  V30 1138 C 94.7654 2.61569 -2.27558 0
M  V30 1139 C 93.8264 2.47625 -3.50685 0
M  V30 1140 C 93.0594 3.74132 -3.80606 0
M  V30 1141 O 93.2824 4.77438 -3.12104 0
M  V30 1142 O 92.2164 3.70849 -4.74083 0
M  V30 1143 H 96.0424 0.977855 -2.87527 0
M  V30 1144 H 93.6274 0.418358 -1.43423 0
M  V30 1145 H 95.5094 3.40012 -2.48938 0
M  V30 1146 H 94.1844 2.92178 -1.39332 0
M  V30 1147 H 93.0914 1.67361 -3.34576 0
M  V30 1148 H 94.4244 2.21954 -4.39315 0
M  V30 1149 N 96.0765 1.50051 0.48192 0
M  V30 1150 C 97.0235 1.68122 1.58125 0
M  V30 1151 C 97.9935 0.522545 1.57666 0
M  V30 1152 O 99.1785 0.751844 1.75362 0
M  V30 1153 C 96.3185 1.77142 2.96167 0
M  V30 1154 C 95.4315 3.0444 3.06497 0
M  V30 1155 C 94.5665 3.04321 4.35387 0
M  V30 1156 C 93.6055 4.26118 4.3942 0
M  V30 1157 N 92.7425 4.238 5.59766 0
M  V30 1158 H 97.5825 2.6198 1.42022 0
M  V30 1159 H 95.1195 1.29877 0.690687 0
M  V30 1160 H 97.0775 1.80352 3.76203 0
M  V30 1161 H 95.7075 0.867329 3.1093 0
M  V30 1162 H 94.7595 3.10752 2.19402 0
M  V30 1163 H 96.0715 3.94426 3.05336 0
M  V30 1164 H 95.2255 3.062 5.23762 0
M  V30 1165 H 93.9645 2.12147 4.39141 0
M  V30 1166 H 92.9695 4.24463 3.49444 0
M  V30 1167 H 94.1945 5.19507 4.37366 0
M  V30 1168 H 92.1405 3.34474 5.64326 0
M  V30 1169 H 92.0575 5.07542 5.60301 0
M  V30 1170 H 93.3255 4.2981 6.50295 0
M  V30 1171 N 97.5546 -0.734337 1.39446 0
M  V30 1172 C 98.8036 -1.48937 1.36017 0
M  V30 1173 C 99.1166 -1.95557 -0.0409005 0
M  V30 1174 O 100.323 -2.70779 -0.19778 0
M  V30 1175 C 98.7786 -2.69125 2.38955 0
M  V30 1176 C 98.3866 -2.29452 3.8478 0
M  V30 1177 C 100.131 -3.46944 2.44603 0
M  V30 1178 C 98.0376 -3.46366 4.79358 0
M  V30 1179 H 96.9676 -0.559296 0.505672 0
M  V30 1180 H 99.6186 -0.800983 1.65095 0
M  V30 1181 H 98.0006 -3.40041 2.02948 0
M  V30 1182 H 99.1746 -1.66077 4.29831 0
M  V30 1183 H 97.4896 -1.64723 3.82433 0
M  V30 1184 H 100.087 -4.33907 3.12456 0
M  V30 1185 H 100.43 -3.89454 1.47076 0
M  V30 1186 H 100.963 -2.83056 2.79507 0
M  V30 1187 H 97.7016 -3.08905 5.78151 0
M  V30 1188 H 97.2216 -4.08719 4.38986 0
M  V30 1189 H 98.9006 -4.12691 4.98292 0
M  V30 1190 N 99.0327 -1.24633 -0.964593 0
M  V30 1191 C 99.9807 -1.03917 -2.08096 0
M  V30 1192 C 100.975 0.0268581 -1.69379 0
M  V30 1193 O 102.181 -0.127952 -1.79545 0
M  V30 1194 H 98.5557 -0.319044 -0.680966 0
M  V30 1195 H 100.527 -1.98581 -2.22729 0
M  V30 1196 C 99.2757 -0.663983 -3.41301 0
M  V30 1197 H 98.5987 -1.47605 -3.71555 0
M  V30 1198 H 100.039 -0.558663 -4.20303 0
M  V30 1199 C 98.4977 0.629169 -3.30973 0
M  V30 1200 O 99.0277 1.67404 -3.65156 0
M  V30 1201 N 97.2337 0.611057 -2.84103 0
M  V30 1202 H 96.7807 -0.239593 -2.56483 0
M  V30 1203 H 96.7387 1.47647 -2.77575 0
M  V30 1204 N 100.511 1.16574 -1.06058 0
M  V30 1205 C 101.458 2.20883 -0.669263 0
M  V30 1206 C 102.428 1.62729 0.332918 0
M  V30 1207 O 103.613 1.895 0.222346 0
M  V30 1208 C 100.753 3.45049 -0.0593572 0
M  V30 1209 C 99.8658 4.17458 -1.11143 0
M  V30 1210 C 99.0008 5.29135 -0.467916 0
M  V30 1211 C 98.0398 5.93343 -1.50369 0
M  V30 1212 N 97.1768 6.96516 -0.883706 0
M  V30 1213 H 102.017 2.53709 -1.5632 0
M  V30 1214 H 99.5538 1.24616 -0.781625 0
M  V30 1215 H 101.512 4.16033 0.311771 0
M  V30 1216 H 100.142 3.12781 0.797992 0
M  V30 1217 H 99.1938 3.45101 -1.60029 0
M  V30 1218 H 100.506 4.61307 -1.89731 0
M  V30 1219 H 99.6598 6.06684 -0.0436871 0
M  V30 1220 H 98.3988 4.86443 0.349864 0
M  V30 1221 H 97.4038 5.14517 -1.93784 0
M  V30 1222 H 98.6288 6.38114 -2.32352 0
M  V30 1223 H 96.5748 6.55943 -0.086595 0
M  V30 1224 H 96.4918 7.38723 -1.607 0
M  V30 1225 H 97.7598 7.77993 -0.484543 0
M  V30 1226 N 101.989 0.842826 1.3317 0
M  V30 1227 C 103.266 0.362216 1.92217 0
M  V30 1228 C 103.646 -1.15289 1.76838 0
M  V30 1229 O 102.994 -1.96914 1.15919 0
M  V30 1230 C 103.204 0.813495 3.39387 0
M  V30 1231 C 104.552 0.823804 4.16532 0
M  V30 1232 O 105.576 0.757358 3.48055 0
M  V30 1233 O 104.435 0.915193 5.38782 0
M  V30 1234 H 101.529 0.103317 0.820521 0
M  V30 1235 H 104.075 0.928942 1.42017 0
M  V30 1236 H 102.847 1.85624 3.4447 0
M  V30 1237 H 102.47 0.223561 3.96971 0
M  V30 1238 N 103.467 -1.45747 0.599634 0
M  V30 1239 C 104.716 -2.01502 0.0893511 0
M  V30 1240 C 105.029 -1.4748 -1.28488 0
M  V30 1241 O 106.235 -1.95161 -1.88745 0
M  V30 1242 C 104.691 -3.59735 0.109082 0
M  V30 1243 C 104.299 -4.22754 1.48267 0
M  V30 1244 C 106.043 -4.23085 -0.346374 0
M  V30 1245 C 103.95 -5.73115 1.45921 0
M  V30 1246 H 102.88 -0.753417 0.0296347 0
M  V30 1247 H 105.531 -1.67303 0.753788 0
M  V30 1248 H 103.913 -3.91087 -0.621854 0
M  V30 1249 H 105.087 -4.02987 2.23468 0
M  V30 1250 H 103.402 -3.71567 1.87955 0
M  V30 1251 H 105.999 -5.33327 -0.38298 0
M  V30 1252 H 106.342 -3.93201 -1.36743 0
M  V30 1253 H 106.875 -3.9642 0.331038 0
M  V30 1254 H 103.614 -6.07685 2.45762 0
M  V30 1255 H 103.134 -5.95097 0.749665 0
M  V30 1256 H 104.813 -6.3616 1.17941 0
M  V30 1257 N 104.945 -0.338344 -1.53925 0
M  V30 1258 C 106.191 0.260143 -2.01125 0
M  V30 1259 C 106.524 1.50617 -1.22589 0
M  V30 1260 O 105.799 1.91979 -0.312113 0
M  V30 1261 C 106.082 0.579499 -3.55407 0
M  V30 1262 C 105.935 -0.678264 -4.44657 0
M  V30 1263 C 107.254 1.39122 -4.17532 0
M  V30 1264 H 104.373 0.0930772 -0.731099 0
M  V30 1265 H 107.015 -0.457852 -1.84401 0
M  V30 1266 H 105.165 1.19118 -3.69788 0
M  V30 1267 H 106.837 -1.31631 -4.42121 0
M  V30 1268 H 105.08 -1.3042 -4.13731 0
M  V30 1269 H 105.751 -0.410143 -5.50474 0
M  V30 1270 H 108.227 0.874035 -4.06817 0
M  V30 1271 H 107.103 1.58342 -5.25565 0
M  V30 1272 H 107.364 2.39178 -3.71815 0
M  V30 1273 N 106.423 1.57458 -0.0668435 0
M  V30 1274 C 107.671 1.92919 0.602214 0
M  V30 1275 C 107.992 0.947215 1.70449 0
M  V30 1276 O 107.262 -0.00544117 1.95899 0
M  V30 1277 H 105.842 0.71217 0.22544 0
M  V30 1278 H 108.504 1.94508 -0.123535 0
M  V30 1279 H 107.6 2.94589 1.03073 0
M  V30 1280 N 107.901 -0.206675 1.56239 0
M  V30 1281 C 109.147 -0.925733 1.81113 0
M  V30 1282 C 109.502 -1.81368 0.642135 0
M  V30 1283 O 108.795 -1.88126 -0.363211 0
M  V30 1284 C 108.989 -1.78675 3.09532 0
M  V30 1285 C 108.818 -0.98365 4.3881 0
M  V30 1286 C 107.588 -0.672661 5.00803 0
M  V30 1287 C 109.786 -0.341847 5.13163 0
M  V30 1288 N 107.768 0.150283 6.13716 0
M  V30 1289 C 109.139 0.343815 6.19046 0
M  V30 1290 C 111.194 -0.256392 4.97239 0
M  V30 1291 C 109.897 1.10678 7.10734 0
M  V30 1292 C 111.923 0.493142 5.8934 0
M  V30 1293 C 111.285 1.16729 6.94661 0
M  V30 1294 H 107.384 -0.318524 0.714189 0
M  V30 1295 H 109.968 -0.195378 1.93717 0
M  V30 1296 H 108.139 -2.4888 2.98183 0
M  V30 1297 H 109.871 -2.44441 3.22538 0
M  V30 1298 H 106.626 -0.994294 4.63045 0
M  V30 1299 H 107.05 0.551026 6.74754 0
M  V30 1300 H 111.692 -0.763249 4.15854 0
M  V30 1301 H 109.41 1.6251 7.91591 0
M  V30 1302 H 112.996 0.560465 5.79094 0
M  V30 1303 H 111.876 1.738 7.64698 0
M  V30 1304 N 109.379 -1.50304 -0.473955 0
M  V30 1305 C 110.628 -1.60392 -1.22301 0
M  V30 1306 C 110.941 -0.308411 -1.93153 0
M  V30 1307 O 112.147 -0.288156 -2.69966 0
M  V30 1308 C 110.603 -2.83109 -2.2221 0
M  V30 1309 C 110.211 -4.19524 -1.57173 0
M  V30 1310 C 111.955 -3.0254 -2.97775 0
M  V30 1311 C 109.862 -5.33431 -2.55353 0
M  V30 1312 H 108.792 -0.597286 -0.460179 0
M  V30 1313 H 111.443 -1.76731 -0.493803 0
M  V30 1314 H 109.825 -2.60322 -2.9841 0
M  V30 1315 H 110.999 -4.52554 -0.867824 0
M  V30 1316 H 109.314 -4.05674 -0.939002 0
M  V30 1317 H 111.911 -3.84811 -3.71248 0
M  V30 1318 H 112.254 -2.14154 -3.56992 0
M  V30 1319 H 112.787 -3.25494 -2.28688 0
M  V30 1320 H 109.526 -6.23962 -2.00878 0
M  V30 1321 H 109.046 -5.04823 -3.23904 0
M  V30 1322 H 110.725 -5.63887 -3.17239 0
M  V30 1323 N 110.857 0.726932 -1.39834 0
M  V30 1324 C 111.804 1.841 -1.39197 0
M  V30 1325 C 112.774 1.642 -0.250502 0
M  V30 1326 O 113.959 1.85494 -0.446846 0
M  V30 1327 C 111.099 3.21697 -1.24919 0
M  V30 1328 C 110.212 3.53247 -2.48678 0
M  V30 1329 C 109.347 4.80289 -2.26928 0
M  V30 1330 C 108.386 5.04707 -3.4632 0
M  V30 1331 N 107.523 6.22956 -3.23836 0
M  V30 1332 H 112.363 1.83979 -2.34427 0
M  V30 1333 H 109.9 0.898876 -1.16442 0
M  V30 1334 H 111.858 4.01137 -1.1465 0
M  V30 1335 H 110.488 3.21076 -0.333153 0
M  V30 1336 H 109.54 2.68447 -2.69519 0
M  V30 1337 H 110.852 3.67205 -3.37582 0
M  V30 1338 H 110.006 5.67725 -2.13947 0
M  V30 1339 H 108.745 4.68519 -1.35431 0
M  V30 1340 H 107.75 4.1573 -3.5979 0
M  V30 1341 H 108.975 5.18357 -4.38729 0
M  V30 1342 H 106.921 6.12459 -2.35011 0
M  V30 1343 H 106.838 6.37539 -4.063 0
M  V30 1344 H 108.106 7.1321 -3.14566 0
M  V30 1345 N 112.336 1.25143 0.95797 0
M  V30 1346 C 113.266 1.07711 2.07173 0
M  V30 1347 C 114.247 -0.0128462 1.70095 0
M  V30 1348 O 115.432 0.156061 1.93572 0
M  V30 1349 C 112.562 0.691503 3.40346 0
M  V30 1350 C 111.516 1.73132 3.9142 0
M  V30 1351 C 110.842 1.20049 5.21049 0
M  V30 1352 C 112.142 3.1294 4.1817 0
M  V30 1353 H 113.836 2.00873 2.22014 0
M  V30 1354 H 111.382 0.967191 1.06684 0
M  V30 1355 H 113.335 0.556505 4.17709 0
M  V30 1356 H 112.059 -0.275819 3.25433 0
M  V30 1357 H 110.718 1.8547 3.16222 0
M  V30 1358 H 110.366 0.223499 5.02503 0
M  V30 1359 H 110.066 1.89545 5.56189 0
M  V30 1360 H 111.59 1.07782 6.01012 0
M  V30 1361 H 113.004 3.03775 4.86203 0
M  V30 1362 H 111.401 3.79875 4.64559 0
M  V30 1363 H 112.471 3.6025 3.24573 0
M  V30 1364 N 113.814 -1.1601 1.06675 0
M  V30 1365 C 115.039 -1.91068 0.806706 0
M  V30 1366 C 115.464 -1.77112 -0.633485 0
M  V30 1367 O 114.822 -1.09908 -1.44187 0
M  V30 1368 C 114.87 -3.39655 1.21106 0
M  V30 1369 O 113.974 -4.10893 0.352189 0
M  V30 1370 H 113.315 -0.595125 0.294486 0
M  V30 1371 H 115.845 -1.46955 1.42356 0
M  V30 1372 H 115.855 -3.90434 1.18428 0
M  V30 1373 H 114.53 -3.49132 2.26008 0
M  V30 1374 H 113.107 -3.70285 0.440868 0
M  V30 1375 N 115.292 -0.849877 -1.32721 0
M  V30 1376 C 116.54 -0.450032 -1.97026 0
M  V30 1377 C 116.861 0.996604 -1.67609 0
M  V30 1378 O 116.131 1.6958 -0.980786 0
M  V30 1379 H 114.711 -0.163426 -0.728904 0
M  V30 1380 H 117.373 -1.08526 -1.6189 0
M  V30 1381 H 116.469 -0.591146 -3.0645 0
M  V30 1382 N 116.77 1.45427 -0.607355 0
M  V30 1383 C 117.998 2.06614 -0.108814 0
M  V30 1384 C 118.413 1.45204 1.2067 0
M  V30 1385 O 117.77 0.566132 1.73497 0
M  V30 1386 C 117.821 3.61481 0.0375347 0
M  V30 1387 O 117.542 4.20598 -1.22593 0
M  V30 1388 C 119.043 4.39652 0.567561 0
M  V30 1389 H 116.263 0.66747 -0.0687351 0
M  V30 1390 H 118.807 1.86675 -0.835022 0
M  V30 1391 H 116.962 3.80762 0.714068 0
M  V30 1392 H 117.376 5.1377 -1.05547 0
M  V30 1393 H 118.85 5.48518 0.61905 0
M  V30 1394 H 119.327 4.09417 1.58978 0
M  V30 1395 H 119.933 4.25234 -0.0749202 0
M  V30 1396 N 118.248 0.346503 1.53744 0
M  V30 1397 C 119.473 -0.253074 2.0585 0
M  V30 1398 C 119.898 -1.43202 1.21962 0
M  V30 1399 O 119.256 -1.79783 0.234073 0
M  V30 1400 C 119.304 -0.643193 3.54817 0
M  V30 1401 O 118.408 -1.74286 3.73762 0
M  V30 1402 H 117.749 -0.0413583 0.662711 0
M  V30 1403 H 120.279 0.501574 1.98357 0
M  V30 1404 H 120.289 -0.919526 3.97503 0
M  V30 1405 H 118.964 0.218966 4.15323 0
M  V30 1406 H 117.541 -1.46356 3.42979 0
M  V30 1407 N 119.726 -1.57421 0.075193 0
M  V30 1408 C 120.656 -2.15942 -0.888324 0
M  V30 1409 C 121.637 -1.08737 -1.30806 0
M  V30 1410 O 122.822 -1.36787 -1.37851 0
M  V30 1411 C 119.952 -2.72379 -2.1547 0
M  V30 1412 C 118.906 -3.8478 -1.87425 0
M  V30 1413 C 118.232 -4.27834 -3.20721 0
M  V30 1414 C 119.532 -5.08869 -1.17684 0
M  V30 1415 H 121.226 -2.96705 -0.400799 0
M  V30 1416 H 118.772 -1.42723 -0.191342 0
M  V30 1417 H 120.725 -3.11965 -2.83295 0
M  V30 1418 H 119.449 -1.88841 -2.6647 0
M  V30 1419 H 118.108 -3.45703 -1.22004 0
M  V30 1420 H 117.756 -3.41214 -3.6957 0
M  V30 1421 H 117.456 -5.03605 -3.02746 0
M  V30 1422 H 118.98 -4.70039 -3.89738 0
M  V30 1423 H 120.394 -5.4575 -1.75584 0
M  V30 1424 H 118.791 -5.8994 -1.09956 0
M  V30 1425 H 119.861 -4.84648 -0.156453 0
M  V30 1426 N 121.204 0.198386 -1.56346 0
M  V30 1427 C 122.152 1.26538 -1.95169 0
M  V30 1428 C 123.146 1.47295 -0.836685 0
M  V30 1429 O 124.352 1.48195 -1.02167 0
M  V30 1430 H 120.727 0.424744 -0.620561 0
M  V30 1431 H 122.698 0.910904 -2.84157 0
M  V30 1432 C 121.447 2.6035 -2.30463 0
M  V30 1433 H 120.77 2.45192 -3.15786 0
M  V30 1434 H 122.21 3.33762 -2.61494 0
M  V30 1435 C 120.669 3.17096 -1.13806 0
M  V30 1436 O 121.199 3.99588 -0.41135 0
M  V30 1437 N 119.405 2.75795 -0.915736 0
M  V30 1438 H 118.952 2.08816 -1.50843 0
M  V30 1439 H 118.91 3.14101 -0.136979 0
M  V30 1440 N 122.682 1.50554 0.465978 0
M  V30 1441 C 123.912 1.65323 1.23903 0
M  V30 1442 C 124.32 0.338051 1.86155 0
M  V30 1443 O 123.663 -0.690518 1.70228 0
M  V30 1444 C 123.725 2.69048 2.3844 0
M  V30 1445 C 123.389 4.12462 1.96784 0
M  V30 1446 C 124.386 4.98168 1.48745 0
M  V30 1447 C 122.071 4.58407 2.05349 0
M  V30 1448 C 124.065 6.27868 1.0982 0
M  V30 1449 C 121.752 5.88112 1.66035 0
M  V30 1450 C 122.75 6.72668 1.18349 0
M  V30 1451 O 122.438 7.99951 0.795825 0
M  V30 1452 H 122.17 0.558629 0.38067 0
M  V30 1453 H 124.724 1.97561 0.562022 0
M  V30 1454 H 122.954 2.32062 3.09328 0
M  V30 1455 H 124.643 2.72985 3.0039 0
M  V30 1456 H 125.409 4.63885 1.41546 0
M  V30 1457 H 121.288 3.92735 2.41414 0
M  V30 1458 H 124.832 6.93819 0.725293 0
M  V30 1459 H 120.729 6.21914 1.72895 0
M  V30 1460 H 121.497 8.13265 0.924222 0
M  V30 1461 N 124.16 -0.719506 1.40217 0
M  V30 1462 C 125.571 -1.29848 1.34151 0
M  V30 1463 C 125.922 -1.96196 0.0131349 0
M  V30 1464 O 125.047 -1.973 -0.88892 0
M  V30 1465 C 125.642 -2.36118 2.42968 0
M  V30 1466 C 124.201 -2.8965 2.40374 0
M  V30 1467 C 123.348 -1.63393 2.24049 0
M  V30 1468 H 126.299 -0.51591 1.5008 0
M  V30 1469 H 126.32 -3.16871 2.10649 0
M  V30 1470 H 125.832 -1.878 3.39636 0
M  V30 1471 H 123.933 -3.42208 1.47392 0
M  V30 1472 H 124.046 -3.4171 3.35814 0
M  V30 1473 H 122.41 -1.88312 1.71495 0
M  V30 1474 H 123.193 -1.17104 3.2271 0
M  V30 1475 N 125.638 -1.25649 -0.95132 0
M  V30 1476 C 126.884 -1.10757 -1.69884 0
M  V30 1477 C 127.217 0.350061 -1.91019 0
M  V30 1478 O 126.492 1.25783 -1.48354 0
M  V30 1479 C 126.775 -1.86606 -3.07978 0
M  V30 1480 C 126.628 -3.40217 -2.94232 0
M  V30 1481 C 127.947 -1.65182 -4.07925 0
M  V30 1482 H 125.066 -0.40374 -0.616574 0
M  V30 1483 H 127.708 -1.54521 -1.10558 0
M  V30 1484 H 125.858 -1.49409 -3.58621 0
M  V30 1485 H 127.53 -3.87108 -2.50889 0
M  V30 1486 H 125.773 -3.67759 -2.30078 0
M  V30 1487 H 126.444 -3.88505 -3.92133 0
M  V30 1488 H 128.92 -1.9757 -3.66204 0
M  V30 1489 H 127.796 -2.20683 -5.02583 0
M  V30 1490 H 128.057 -0.593933 -4.38092 0
M  V30 1491 N 127.117 1.15442 -1.07289 0
M  V30 1492 C 128.047 2.22312 -0.714107 0
M  V30 1493 C 129.028 1.67467 0.298155 0
M  V30 1494 O 130.213 1.93445 0.171048 0
M  V30 1495 C 127.343 3.47124 -0.110448 0
M  V30 1496 C 126.297 4.14926 -1.04979 0
M  V30 1497 C 125.623 5.33807 -0.308924 0
M  V30 1498 C 126.923 4.64762 -2.38314 0
M  V30 1499 H 128.617 2.5258 -1.6076 0
M  V30 1500 H 126.163 1.21404 -0.77441 0
M  V30 1501 H 128.116 4.21124 0.152482 0
M  V30 1502 H 126.84 3.16187 0.81812 0
M  V30 1503 H 125.499 3.42866 -1.29764 0
M  V30 1504 H 125.147 4.99126 0.623084 0
M  V30 1505 H 124.847 5.80113 -0.935036 0
M  V30 1506 H 126.371 6.10576 -0.0537771 0
M  V30 1507 H 127.785 5.30292 -2.1786 0
M  V30 1508 H 126.182 5.21728 -2.96514 0
M  V30 1509 H 127.252 3.80434 -3.00663 0
M  V30 1510 N 128.595 0.856903 1.32268 0
M  V30 1511 C 129.527 0.260412 2.27716 0
M  V30 1512 C 130.54 -0.569137 1.52528 0
M  V30 1513 O 131.729 -0.39326 1.74114 0
M  V30 1514 C 128.829 -0.650477 3.32599 0
M  V30 1515 C 128.002 0.14372 4.37164 0
M  V30 1516 C 127.061 -0.69328 5.21613 0
M  V30 1517 O 126.087 -0.12599 5.69061 0
M  V30 1518 N 127.289 -2.00761 5.44679 0
M  V30 1519 H 130.054 1.08059 2.79541 0
M  V30 1520 H 127.615 0.717103 1.45152 0
M  V30 1521 H 129.607 -1.21581 3.86005 0
M  V30 1522 H 128.177 -1.37133 2.80915 0
M  V30 1523 H 127.397 0.890486 3.8401 0
M  V30 1524 H 128.685 0.68915 5.04111 0
M  V30 1525 H 128.083 -2.49181 5.07863 0
M  V30 1526 H 126.64 -2.52103 6.01072 0
M  V30 1527 N 130.073 -1.45103 0.615059 0
M  V30 1528 C 131.321 -2.01784 0.112955 0
M  V30 1529 C 131.642 -1.48504 -1.26378 0
M  V30 1530 O 130.912 -0.682245 -1.83636 0
M  V30 1531 H 129.492 -0.745993 0.0387668 0
M  V30 1532 H 132.154 -1.77808 0.798141 0
M  V30 1533 H 131.25 -3.12025 0.0684069 0
M  V30 1534 N 131.551 -0.354651 -1.53558 0
M  V30 1535 C 132.498 0.496968 -2.25386 0
M  V30 1536 C 133.468 1.0865 -1.25636 0
M  V30 1537 O 134.653 1.12104 -1.54394 0
M  V30 1538 C 131.793 1.63637 -3.03837 0
M  V30 1539 C 130.906 1.07307 -4.18461 0
M  V30 1540 C 130.041 2.18068 -4.84376 0
M  V30 1541 C 129.08 1.59147 -5.91049 0
M  V30 1542 N 128.217 2.63695 -6.50699 0
M  V30 1543 H 133.057 -0.122075 -2.9775 0
M  V30 1544 H 130.594 -0.0720154 -1.46924 0
M  V30 1545 H 132.552 2.30734 -3.47589 0
M  V30 1546 H 131.182 2.22623 -2.33749 0
M  V30 1547 H 130.234 0.292708 -3.79272 0
M  V30 1548 H 131.546 0.602193 -4.95152 0
M  V30 1549 H 130.7 2.93007 -5.31255 0
M  V30 1550 H 129.439 2.68504 -4.07133 0
M  V30 1551 H 128.444 0.827175 -5.43542 0
M  V30 1552 H 129.669 1.09549 -6.70206 0
M  V30 1553 H 127.615 3.13365 -5.76315 0
M  V30 1554 H 127.532 2.21263 -7.22896 0
M  V30 1555 H 128.8 3.3837 -7.02229 0
M  V30 1556 N 133.029 1.57378 -0.0835403 0
M  V30 1557 C 134.257 1.98263 0.59157 0
M  V30 1558 C 134.672 0.962302 1.62435 0
M  V30 1559 O 134.029 -0.049581 1.82433 0
M  V30 1560 C 134.08 3.39214 1.24965 0
M  V30 1561 O 133.801 4.37339 0.258186 0
M  V30 1562 C 135.302 3.95038 2.01147 0
M  V30 1563 H 132.522 0.651773 0.159477 0
M  V30 1564 H 135.066 2.03878 -0.159415 0
M  V30 1565 H 133.221 3.34649 1.95164 0
M  V30 1566 H 133.635 5.19371 0.731734 0
M  V30 1567 H 135.109 4.95848 2.42567 0
M  V30 1568 H 135.586 3.32222 2.87272 0
M  V30 1569 H 136.192 4.0304 1.35789 0
M  V30 1570 N 134.507 -0.190092 1.56449 0
M  V30 1571 C 135.455 -1.25501 1.95837 0
M  V30 1572 C 136.449 -1.4685 0.844485 0
M  V30 1573 O 137.655 -1.47651 1.02952 0
M  V30 1574 H 134.03 -0.421447 0.622805 0
M  V30 1575 H 136.001 -0.895821 2.84636 0
M  V30 1576 C 134.75 -2.59124 2.31841 0
M  V30 1577 H 134.073 -2.43514 3.17082 0
M  V30 1578 H 135.513 -3.32371 2.6326 0
M  V30 1579 C 133.972 -3.16488 1.15486 0
M  V30 1580 O 134.502 -3.99365 0.432535 0
M  V30 1581 N 132.708 -2.75305 0.930349 0
M  V30 1582 H 132.255 -2.08013 1.51948 0
M  V30 1583 H 132.213 -3.14024 0.153634 0
M  V30 1584 N 135.985 -1.50799 -0.457987 0
M  V30 1585 C 136.935 -1.67003 -1.55222 0
M  V30 1586 C 137.919 -0.52434 -1.52117 0
M  V30 1587 O 139.111 -0.779345 -1.58919 0
M  V30 1588 C 136.24 -1.77956 -2.93576 0
M  V30 1589 C 135.326 -2.98243 -3.01516 0
M  V30 1590 N 135.717 -4.21732 -2.79241 0
M  V30 1591 C 134.015 -2.97072 -3.32662 0
M  V30 1592 C 134.716 -5.02817 -2.92489 0
M  V30 1593 N 133.692 -4.37038 -3.23262 0
M  V30 1594 H 137.494 -2.60163 -1.36721 0
M  V30 1595 H 135.008 -1.48163 -0.664952 0
M  V30 1596 H 137.005 -1.87671 -3.72271 0
M  V30 1597 H 135.665 -0.859634 -3.13114 0
M  V30 1598 H 136.676 -4.51016 -2.54567 0
M  V30 1599 H 133.353 -2.14631 -3.58106 0
M  V30 1600 H 134.743 -6.11054 -2.79396 0
M  V30 1601 N 137.463 0.71206 -1.40597 0
M  V30 1602 C 138.74 1.46536 -1.29563 0
M  V30 1603 C 139.12 2.10931 0.0844217 0
M  V30 1604 O 138.468 2.00418 1.0975 0
M  V30 1605 C 138.678 2.49821 -2.43701 0
M  V30 1606 C 140.026 3.15551 -2.841 0
M  V30 1607 O 141.05 2.60142 -2.4332 0
M  V30 1608 O 139.909 4.15867 -3.54566 0
M  V30 1609 H 137.003 0.651801 -0.509004 0
M  V30 1610 H 139.549 0.743935 -1.52524 0
M  V30 1611 H 138.321 2.00778 -3.35863 0
M  V30 1612 H 137.944 3.29495 -2.22528 0
M  V30 1613 N 138.941 1.26152 0.944643 0
M  V30 1614 C 140.171 1.14094 1.72239 0
M  V30 1615 C 140.579 -0.306931 1.86694 0
M  V30 1616 O 139.922 -1.22222 1.3714 0
M  V30 1617 C 139.984 1.73316 3.14963 0
M  V30 1618 C 139.648 3.2239 3.23904 0
M  V30 1619 C 140.645 4.19252 3.07447 0
M  V30 1620 C 138.33 3.62788 3.47405 0
M  V30 1621 C 140.324 5.54491 3.14353 0
M  V30 1622 C 138.011 4.98162 3.53947 0
M  V30 1623 C 139.009 5.93823 3.37436 0
M  V30 1624 O 138.697 7.26732 3.43679 0
M  V30 1625 H 138.429 0.398292 0.546205 0
M  V30 1626 H 140.983 1.67201 1.19301 0
M  V30 1627 H 139.213 1.14667 3.69308 0
M  V30 1628 H 140.902 1.56214 3.74636 0
M  V30 1629 H 141.668 3.8938 2.8915 0
M  V30 1630 H 137.547 2.88816 3.59313 0
M  V30 1631 H 141.091 6.29137 3.01384 0
M  V30 1632 H 136.988 5.27695 3.71763 0
M  V30 1633 H 137.756 7.3496 3.60245 0
M  V30 1634 N 140.419 -1.14872 1.07899 0
M  V30 1635 C 141.349 -2.2193 0.725887 0
M  V30 1636 C 142.33 -1.67622 -0.28927 0
M  V30 1637 O 143.515 -1.93533 -0.160787 0
M  V30 1638 C 140.645 -3.47061 0.128856 0
M  V30 1639 C 139.599 -4.14363 1.07178 0
M  V30 1640 C 138.925 -5.33636 0.337229 0
M  V30 1641 C 140.225 -4.63492 2.40775 0
M  V30 1642 H 141.919 -2.51724 1.62097 0
M  V30 1643 H 139.465 -1.20991 0.780838 0
M  V30 1644 H 141.418 -4.21199 -0.130147 0
M  V30 1645 H 140.142 -3.16617 -0.80134 0
M  V30 1646 H 138.801 -3.42173 1.3158 0
M  V30 1647 H 138.449 -4.99449 -0.596606 0
M  V30 1648 H 138.149 -5.79609 0.965788 0
M  V30 1649 H 139.673 -6.10539 0.0861567 0
M  V30 1650 H 141.087 -5.2913 2.20669 0
M  V30 1651 H 139.484 -5.20148 2.99276 0
M  V30 1652 H 140.554 -3.78834 3.02676 0
M  V30 1653 N 141.898 -0.863906 -1.31812 0
M  V30 1654 C 142.846 -0.30422 -2.30602 0
M  V30 1655 C 143.84 0.577419 -1.59255 0
M  V30 1656 O 145.046 0.464194 -1.73912 0
M  V30 1657 H 141.421 -0.0796877 -0.747766 0
M  V30 1658 H 143.392 -1.15148 -2.75288 0
M  V30 1659 C 142.141 0.484617 -3.44306 0
M  V30 1660 H 141.464 -0.18451 -3.99374 0
M  V30 1661 H 142.904 0.841664 -4.15562 0
M  V30 1662 C 141.363 1.6735 -2.92396 0
M  V30 1663 O 141.893 2.77273 -2.90659 0
M  V30 1664 N 140.099 1.50362 -2.48676 0
M  V30 1665 H 139.646 0.609402 -2.50288 0
M  V30 1666 H 139.604 2.30051 -2.14299 0
M  V30 1667 N 143.376 1.44774 -0.622745 0
M  V30 1668 C 144.306 2.33382 0.0741861 0
M  V30 1669 C 145.287 1.47719 0.843387 0
M  V30 1670 O 146.472 1.76458 0.810934 0
M  V30 1671 C 143.602 3.30663 1.06204 0
M  V30 1672 C 142.556 4.26079 0.405037 0
M  V30 1673 C 141.882 5.13165 1.5022 0
M  V30 1674 C 143.182 5.1781 -0.683414 0
M  V30 1675 H 144.876 2.91905 -0.665713 0
M  V30 1676 H 142.422 1.40363 -0.321587 0
M  V30 1677 H 144.375 3.9153 1.55827 0
M  V30 1678 H 143.099 2.70331 1.83272 0
M  V30 1679 H 141.758 3.66532 -0.0704683 0
M  V30 1680 H 141.406 4.49191 2.26355 0
M  V30 1681 H 141.106 5.77812 1.06803 0
M  V30 1682 H 142.63 5.76902 2.00041 0
M  V30 1683 H 144.044 5.72661 -0.270631 0
M  V30 1684 H 142.441 5.91015 -1.04023 0
M  V30 1685 H 143.511 4.59326 -1.55395 0
M  V30 1686 N 144.854 0.36279 1.53368 0
M  V30 1687 C 146.131 -0.284021 1.93527 0
M  V30 1688 C 146.511 -1.66628 1.29608 0
M  V30 1689 O 145.859 -2.23942 0.45413 0
M  V30 1690 C 146.069 -0.337028 3.47369 0
M  V30 1691 C 147.417 -0.578708 4.20638 0
M  V30 1692 O 148.441 -0.418352 3.53735 0
M  V30 1693 O 147.3 -0.89074 5.39192 0
M  V30 1694 H 144.394 -0.169743 0.809393 0
M  V30 1695 H 146.94 0.41537 1.64538 0
M  V30 1696 H 145.712 0.632217 3.86159 0
M  V30 1697 H 145.335 -1.08243 3.82582 0
M  V30 1698 N 146.332 -1.57332 0.0918853 0
M  V30 1699 C 147.579 -1.94236 -0.572577 0
M  V30 1700 C 147.907 -0.973398 -1.6839 0
M  V30 1701 O 147.162 0.00756912 -1.95699 0
M  V30 1702 C 147.461 -3.37689 -1.17051 0
M  V30 1703 C 147.127 -4.50527 -0.183304 0
M  V30 1704 C 145.789 -4.81119 0.0882276 0
M  V30 1705 C 148.141 -5.18883 0.49095 0
M  V30 1706 C 145.469 -5.77395 1.04076 0
M  V30 1707 C 147.821 -6.1618 1.43193 0
M  V30 1708 C 146.485 -6.45179 1.71173 0
M  V30 1709 H 145.755 -0.710762 -0.209521 0
M  V30 1710 H 148.402 -1.9077 0.167036 0
M  V30 1711 H 146.707 -3.37718 -1.9863 0
M  V30 1712 H 148.404 -3.63543 -1.69227 0
M  V30 1713 H 144.994 -4.26681 -0.405124 0
M  V30 1714 H 149.178 -4.95427 0.294312 0
M  V30 1715 H 144.434 -5.98179 1.26457 0
M  V30 1716 H 148.608 -6.68243 1.96023 0
M  V30 1717 H 146.235 -7.1959 2.4514 0
M  V30 1718 N 147.81 0.181792 -1.56548 0
M  V30 1719 C 148.72 1.24538 -1.98815 0
M  V30 1720 C 149.736 1.49045 -0.897861 0
M  V30 1721 O 150.912 1.61399 -1.20467 0
M  V30 1722 C 147.977 2.56683 -2.33055 0
M  V30 1723 C 147.038 2.40131 -3.55859 0
M  V30 1724 C 146.271 3.65975 -3.88456 0
M  V30 1725 O 146.494 4.70711 -3.22161 0
M  V30 1726 O 145.428 3.6071 -4.81842 0
M  V30 1727 H 149.254 0.916647 -2.89536 0
M  V30 1728 H 146.839 0.387842 -1.44278 0
M  V30 1729 H 148.721 3.34655 -2.56094 0
M  V30 1730 H 147.396 2.89157 -1.45498 0
M  V30 1731 H 146.303 1.60226 -3.38051 0
M  V30 1732 H 147.636 2.12585 -4.43924 0
M  V30 1733 N 149.288 1.51039 0.449983 0
M  V30 1734 C 150.704 1.38934 0.785462 0
M  V30 1735 C 150.904 0.461817 1.96136 0
M  V30 1736 O 149.96 -0.0877389 2.52348 0
M  V30 1737 C 151.273 2.80724 1.0777 0
M  V30 1738 C 152.821 2.89787 1.1829 0
M  V30 1739 C 153.296 4.32457 1.50815 0
M  V30 1740 N 154.787 4.35505 1.57764 0
M  V30 1741 C 155.522 5.42914 1.84477 0
M  V30 1742 N 155.018 6.60502 2.09068 0
M  V30 1743 N 156.811 5.3038 1.86155 0
M  V30 1744 H 148.962 2.09904 -0.324647 0
M  V30 1745 H 151.225 0.944378 -0.0827957 0
M  V30 1746 H 150.931 3.50531 0.286498 0
M  V30 1747 H 150.805 3.19273 2.00859 0
M  V30 1748 H 153.192 2.20186 1.96474 0
M  V30 1749 H 153.273 2.54752 0.231314 0
M  V30 1750 H 152.917 5.02603 0.731622 0
M  V30 1751 H 152.847 4.64995 2.47158 0
M  V30 1752 H 155.338 3.50724 1.40715 0
M  V30 1753 H 155.651 7.38158 2.28785 0
M  V30 1754 H 153.996 6.63639 2.06416 0
M  V30 1755 H 157.187 4.37505 1.66454 0
M  V30 1756 H 157.36 6.1417 2.06637 0
M  V30 1757 N 150.766 -0.704594 1.40972 0
M  V30 1758 C 151.676 -1.84856 1.44448 0
M  V30 1759 C 152.692 -1.70726 0.335961 0
M  V30 1760 O 153.868 -1.92799 0.582276 0
M  V30 1761 C 150.933 -3.20758 1.31587 0
M  V30 1762 C 149.994 -3.47063 2.52677 0
M  V30 1763 C 149.227 -4.76481 2.4042 0
M  V30 1764 O 149.45 -5.52341 1.42391 0
M  V30 1765 O 148.384 -5.03367 3.30007 0
M  V30 1766 H 152.21 -1.8488 2.40942 0
M  V30 1767 H 149.795 -0.85647 1.22413 0
M  V30 1768 H 151.677 -4.01913 1.26665 0
M  V30 1769 H 150.352 -3.21438 0.382049 0
M  V30 1770 H 149.259 -2.65873 2.63177 0
M  V30 1771 H 150.592 -3.5119 3.44858 0
M  V30 1772 N 152.244 -1.26651 -0.937939 0
M  V30 1773 C 153.194 -1.05156 -2.02302 0
M  V30 1774 C 154.178 0.0171233 -1.60891 0
M  V30 1775 O 155.37 -0.200213 -1.75864 0
M  V30 1776 C 152.499 -0.689962 -3.36295 0
M  V30 1777 C 151.585 -1.79626 -3.84181 0
M  V30 1778 N 151.976 -3.03422 -4.04684 0
M  V30 1779 C 150.274 -1.6806 -4.13124 0
M  V30 1780 C 150.975 -3.75345 -4.444 0
M  V30 1781 N 149.951 -3.03051 -4.51288 0
M  V30 1782 H 153.753 -1.99117 -2.1617 0
M  V30 1783 H 151.267 -1.17216 -1.12402 0
M  V30 1784 H 153.264 -0.517112 -4.13681 0
M  V30 1785 H 151.924 0.242139 -3.23796 0
M  V30 1786 H 152.935 -3.39293 -3.91281 0
M  V30 1787 H 149.612 -0.818629 -4.09396 0
M  V30 1788 H 151.002 -4.81691 -4.68427 0
M  V30 1789 N 153.722 1.14298 -1.08507 0
M  V30 1790 C 155.138 1.37347 -0.812901 0
M  V30 1791 C 155.338 1.93052 0.577325 0
M  V30 1792 O 154.394 2.14389 1.33393 0
M  V30 1793 C 155.707 2.33359 -1.89642 0
M  V30 1794 C 157.255 2.46996 -1.92255 0
M  V30 1795 C 157.73 3.46309 -2.99724 0
M  V30 1796 N 159.221 3.53853 -2.98902 0
M  V30 1797 C 159.956 4.3055 -3.787 0
M  V30 1798 N 159.452 5.10482 -4.6838 0
M  V30 1799 N 161.245 4.25757 -3.66998 0
M  V30 1800 H 153.396 0.764867 -1.9815 0
M  V30 1801 H 155.659 0.398966 -0.859959 0
M  V30 1802 H 155.365 1.99565 -2.89597 0
M  V30 1803 H 155.239 3.33274 -1.76659 0
M  V30 1804 H 157.626 2.80081 -0.929445 0
M  V30 1805 H 157.707 1.47039 -2.09316 0
M  V30 1806 H 157.351 3.13957 -3.99241 0
M  V30 1807 H 157.281 4.46049 -2.79907 0
M  V30 1808 H 159.772 2.96812 -2.33904 0
M  V30 1809 H 160.085 5.66284 -5.25873 0
M  V30 1810 H 158.43 5.09747 -4.72422 0
M  V30 1811 H 161.621 3.62383 -2.96304 0
M  V30 1812 H 161.794 4.85279 -4.29427 0
M  V30 1813 N 155.201 0.870884 1.31352 0
M  V30 1814 C 156.617 0.562932 1.49343 0
M  V30 1815 C 156.817 -0.902725 1.80148 0
M  V30 1816 O 155.873 -1.68484 1.88067 0
M  V30 1817 C 157.186 1.46393 2.62659 0
M  V30 1818 C 158.734 1.46607 2.76542 0
M  V30 1819 C 159.209 2.35266 3.92955 0
M  V30 1820 N 160.7 2.33151 4.00243 0
M  V30 1821 C 161.435 2.98471 4.89594 0
M  V30 1822 N 160.931 3.72964 5.8384 0
M  V30 1823 N 162.724 2.87775 4.82848 0
M  V30 1824 H 154.875 1.81923 1.09626 0
M  V30 1825 H 157.138 0.777934 0.541777 0
M  V30 1826 H 156.844 2.50689 2.46674 0
M  V30 1827 H 156.718 1.16314 3.58819 0
M  V30 1828 H 159.105 0.43069 2.9194 0
M  V30 1829 H 159.186 1.8071 1.81046 0
M  V30 1830 H 158.83 3.38881 3.78315 0
M  V30 1831 H 158.76 1.98487 4.87761 0
M  V30 1832 H 161.251 1.79006 3.32814 0
M  V30 1833 H 161.564 4.19932 6.4875 0
M  V30 1834 H 159.909 3.77073 5.83816 0
M  V30 1835 H 163.1 2.29116 4.08195 0
M  V30 1836 H 163.273 3.38961 5.52277 0
M  V30 1837 N 156.679 -1.44442 0.630414 0
M  V30 1838 C 157.626 -2.30678 -0.0749355 0
M  V30 1839 C 158.596 -1.4344 -0.837502 0
M  V30 1840 O 159.781 -1.72343 -0.818684 0
M  V30 1841 C 156.921 -3.28706 -1.05103 0
M  V30 1842 C 156.034 -4.31046 -0.286954 0
M  V30 1843 C 155.169 -5.16167 -1.2548 0
M  V30 1844 C 154.208 -6.10216 -0.479843 0
M  V30 1845 N 153.345 -6.88039 -1.39811 0
M  V30 1846 H 158.185 -2.90454 0.666386 0
M  V30 1847 H 155.722 -1.43107 0.340404 0
M  V30 1848 H 157.68 -3.84027 -1.63031 0
M  V30 1849 H 156.31 -2.70632 -1.75949 0
M  V30 1850 H 155.362 -3.78203 0.408243 0
M  V30 1851 H 156.674 -4.97794 0.316657 0
M  V30 1852 H 155.828 -5.76002 -1.90544 0
M  V30 1853 H 154.567 -4.49491 -1.89233 0
M  V30 1854 H 153.572 -5.49491 0.184295 0
M  V30 1855 H 154.797 -6.78928 0.152965 0
M  V30 1856 H 152.743 -6.24032 -2.02287 0
M  V30 1857 H 152.66 -7.51223 -0.848508 0
M  V30 1858 H 153.928 -7.52397 -2.03762 0
M  V30 1859 N 158.157 -0.370918 -1.53173 0
M  V30 1860 C 159.405 0.216673 -2.00935 0
M  V30 1861 C 159.726 1.48845 -1.25977 0
M  V30 1862 O 158.996 1.92286 -0.374551 0
M  V30 1863 H 157.576 0.0830565 -0.742368 0
M  V30 1864 H 160.238 -0.49838 -1.8842 0
M  V30 1865 H 159.334 0.439893 -3.08984 0
M  V30 1866 N 159.635 1.57281 -0.100228 0
M  V30 1867 C 160.86 1.99302 0.573881 0
M  V30 1868 C 161.285 0.979059 1.60611 0
M  V30 1869 O 160.643 -0.0517803 1.81226 0
M  V30 1870 C 160.691 3.40274 1.19358 0
M  V30 1871 O 159.795 3.41676 2.30935 0
M  V30 1872 H 159.136 0.647944 0.145138 0
M  V30 1873 H 161.666 2.03779 -0.183156 0
M  V30 1874 H 161.676 3.78078 1.53365 0
M  V30 1875 H 160.351 4.13594 0.437385 0
M  V30 1876 H 158.928 3.15672 1.98509 0
M  V30 1877 N 161.113 -0.173488 1.56642 0
M  V30 1878 C 162.362 -0.888758 1.81063 0
M  V30 1879 C 162.675 -1.83506 0.67712 0
M  V30 1880 O 163.881 -2.59254 0.806206 0
M  V30 1881 C 162.337 -1.63091 3.20826 0
M  V30 1882 C 161.945 -0.728357 4.4204 0
M  V30 1883 C 163.689 -2.33454 3.54541 0
M  V30 1884 C 161.596 -1.47062 5.72823 0
M  V30 1885 H 160.526 -0.335618 0.675186 0
M  V30 1886 H 163.177 -0.141712 1.82952 0
M  V30 1887 H 161.559 -2.42263 3.13248 0
M  V30 1888 H 162.733 0.0262449 4.60793 0
M  V30 1889 H 161.048 -0.134492 4.16183 0
M  V30 1890 H 163.645 -2.89578 4.49498 0
M  V30 1891 H 163.988 -3.08687 2.79317 0
M  V30 1892 H 164.521 -1.61227 3.63663 0
M  V30 1893 H 161.26 -0.760658 6.51072 0
M  V30 1894 H 160.78 -2.1986 5.58052 0
M  V30 1895 H 162.459 -2.01868 6.14702 0
M  V30 1896 N 162.591 -1.51276 -0.441967 0
M  V30 1897 C 163.838 -1.63715 -1.19179 0
M  V30 1898 C 164.166 -0.351175 -1.91303 0
M  V30 1899 O 163.421 0.664524 -1.84072 0
M  V30 1900 C 163.72 -2.78746 -2.23686 0
M  V30 1901 C 163.386 -4.18189 -1.68607 0
M  V30 1902 C 162.048 -4.56125 -1.53308 0
M  V30 1903 C 164.4 -5.05222 -1.28062 0
M  V30 1904 C 161.728 -5.78804 -0.959317 0
M  V30 1905 C 164.08 -6.28476 -0.721162 0
M  V30 1906 C 162.744 -6.65188 -0.55504 0
M  V30 1907 H 162.014 -0.599076 -0.436106 0
M  V30 1908 H 164.661 -1.85296 -0.48351 0
M  V30 1909 H 162.966 -2.51369 -3.00535 0
M  V30 1910 H 164.663 -2.8557 -2.81515 0
M  V30 1911 H 161.253 -3.88277 -1.8149 0
M  V30 1912 H 165.437 -4.76524 -1.38704 0
M  V30 1913 H 160.693 -6.05899 -0.81833 0
M  V30 1914 H 164.867 -6.95259 -0.398458 0
M  V30 1915 H 162.494 -7.60123 -0.108311 0
M  V30 1916 N 164.069 0.697108 -1.41344 0
M  V30 1917 C 165.002 1.82134 -1.37486 0
M  V30 1918 C 165.98 1.60784 -0.242351 0
M  V30 1919 O 167.164 1.83553 -0.429012 0
M  V30 1920 C 164.291 3.18788 -1.14421 0
M  V30 1921 C 163.337 3.58932 -2.3037 0
M  V30 1922 S 164.17 3.63916 -3.92843 0
M  V30 1923 C 165.326 5.03298 -3.72078 0
M  V30 1924 H 165.559 1.85129 -2.32625 0
M  V30 1925 H 163.092 0.865671 -1.2785 0
M  V30 1926 H 165.05 3.97677 -1.018 0
M  V30 1927 H 163.711 3.13404 -0.20905 0
M  V30 1928 H 162.904 4.58202 -2.09922 0
M  V30 1929 H 162.506 2.87347 -2.39391 0
M  V30 1930 H 164.798 5.90753 -3.31688 0
M  V30 1931 H 165.741 5.28788 -4.70945 0
M  V30 1932 H 166.149 4.74764 -3.05384 0
M  V30 1933 N 165.547 1.27147 0.931209 0
M  V30 1934 C 166.824 1.0401 1.65654 0
M  V30 1935 C 167.204 -0.426297 2.06751 0
M  V30 1936 O 166.552 -1.40879 1.79904 0
M  V30 1937 C 166.762 1.99834 2.86125 0
M  V30 1938 C 168.11 2.29007 3.57549 0
M  V30 1939 O 169.134 1.97779 2.96246 0
M  V30 1940 O 167.993 2.82222 4.67989 0
M  V30 1941 H 165.087 0.396239 0.725895 0
M  V30 1942 H 167.633 1.38397 0.982056 0
M  V30 1943 H 166.405 2.98744 2.52721 0
M  V30 1944 H 166.028 1.65987 3.61295 0
M  V30 1945 N 167.025 -1.13721 1.09112 0
M  V30 1946 C 168.272 -1.84924 0.825192 0
M  V30 1947 C 168.6 -1.83347 -0.649151 0
M  V30 1948 O 167.855 -1.26449 -1.49362 0
M  V30 1949 C 168.154 -3.32861 1.30146 0
M  V30 1950 C 167.82 -3.54621 2.78486 0
M  V30 1951 C 166.482 -3.60268 3.18999 0
M  V30 1952 C 168.834 -3.62855 3.74146 0
M  V30 1953 C 166.162 -3.71679 4.53951 0
M  V30 1954 C 168.514 -3.75793 5.08883 0
M  V30 1955 C 167.178 -3.79692 5.4899 0
M  V30 1956 H 166.448 -0.676684 0.301959 0
M  V30 1957 H 169.095 -1.3428 1.36533 0
M  V30 1958 H 167.4 -3.85835 0.681064 0
M  V30 1959 H 169.097 -3.86395 1.07236 0
M  V30 1960 H 165.687 -3.50879 2.46134 0
M  V30 1961 H 169.871 -3.57775 3.43963 0
M  V30 1962 H 165.127 -3.72963 4.84467 0
M  V30 1963 H 169.301 -3.81107 5.82864 0
M  V30 1964 H 166.928 -3.88287 6.53558 0
M  V30 1965 N 168.503 -0.877838 -1.30888 0
M  V30 1966 C 169.919 -0.570844 -1.49042 0
M  V30 1967 C 170.119 0.893159 -1.80624 0
M  V30 1968 O 169.175 1.67485 -1.88958 0
M  V30 1969 C 170.488 -1.47784 -2.61878 0
M  V30 1970 C 172.036 -1.48071 -2.75761 0
M  V30 1971 C 172.511 -2.37347 -3.91702 0
M  V30 1972 N 174.002 -2.35271 -3.99001 0
M  V30 1973 C 174.737 -3.01063 -4.88004 0
M  V30 1974 N 174.233 -3.76055 -5.81854 0
M  V30 1975 N 176.026 -2.90332 -4.81315 0
M  V30 1976 H 168.177 -1.82502 -1.0866 0
M  V30 1977 H 170.44 -0.780797 -0.537644 0
M  V30 1978 H 170.146 -2.51993 -2.45341 0
M  V30 1979 H 170.02 -1.18215 -3.58197 0
M  V30 1980 H 172.407 -0.446166 -2.91708 0
M  V30 1981 H 172.488 -1.81668 -1.80085 0
M  V30 1982 H 172.132 -3.40883 -3.76512 0
M  V30 1983 H 172.062 -2.01071 -4.86701 0
M  V30 1984 H 174.553 -1.80768 -3.3186 0
M  V30 1985 H 174.866 -4.23366 -6.46514 0
M  V30 1986 H 173.211 -3.80163 -5.81808 0
M  V30 1987 H 176.402 -2.31278 -4.06974 0
M  V30 1988 H 176.575 -3.41885 -5.50471 0
M  V30 1989 N 169.982 1.44106 -0.638065 0
M  V30 1990 C 170.93 2.3248 0.0748149 0
M  V30 1991 C 171.924 1.47746 0.828702 0
M  V30 1992 O 173.13 1.64049 0.740816 0
M  V30 1993 H 169.505 0.750771 0.0429686 0
M  V30 1994 H 171.476 2.90348 -0.688504 0
M  V30 1995 C 170.225 3.31843 1.03805 0
M  V30 1996 H 169.548 3.97059 0.467375 0
M  V30 1997 H 170.988 3.96345 1.50622 0
M  V30 1998 C 169.447 2.61291 2.1267 0
M  V30 1999 O 169.977 2.41702 3.20847 0
M  V30 2000 N 168.183 2.20915 1.88798 0
M  V30 2001 H 167.73 2.37047 1.00829 0
M  V30 2002 H 167.688 1.74038 2.61836 0
M  V30 2003 N 171.46 0.379036 1.52974 0
M  V30 2004 C 172.37 -0.468639 2.29872 0
M  V30 2005 C 173.386 -1.08067 1.36373 0
M  V30 2006 O 174.562 -1.08871 1.69438 0
M  V30 2007 C 171.627 -1.58594 3.083 0
M  V30 2008 C 170.688 -1.00007 4.17489 0
M  V30 2009 C 169.921 -2.06413 4.92168 0
M  V30 2010 O 170.144 -3.27751 4.66835 0
M  V30 2011 O 169.078 -1.68717 5.7777 0
M  V30 2012 H 172.904 0.157508 3.03291 0
M  V30 2013 H 170.489 0.143035 1.48714 0
M  V30 2014 H 172.371 -2.23525 3.57232 0
M  V30 2015 H 171.046 -2.19724 2.37703 0
M  V30 2016 H 169.953 -0.314299 3.72777 0
M  V30 2017 H 171.286 -0.433135 4.90291 0
M  V30 2018 N 172.938 -1.57226 0.108567 0
M  V30 2019 C 173.868 -2.17778 -0.84232 0
M  V30 2020 C 174.849 -1.11487 -1.2847 0
M  V30 2021 O 176.034 -1.39681 -1.34918 0
M  V30 2022 C 173.164 -2.76888 -2.09644 0
M  V30 2023 C 172.118 -3.88669 -1.79221 0
M  V30 2024 C 171.444 -4.34541 -3.11574 0
M  V30 2025 C 172.744 -5.11251 -1.06864 0
M  V30 2026 H 174.438 -2.97489 -0.337774 0
M  V30 2027 H 171.984 -1.43097 -0.161025 0
M  V30 2028 H 173.937 -3.17904 -2.76614 0
M  V30 2029 H 172.661 -1.94451 -2.62405 0
M  V30 2030 H 171.32 -3.48213 -1.14644 0
M  V30 2031 H 170.968 -3.48977 -3.62249 0
M  V30 2032 H 170.668 -5.09914 -2.91996 0
M  V30 2033 H 172.192 -4.782 -3.7968 0
M  V30 2034 H 173.606 -5.49352 -1.63968 0
M  V30 2035 H 172.003 -5.9214 -0.974178 0
M  V30 2036 H 173.073 -4.8487 -0.0536168 0
M  V30 2037 N 174.416 0.165178 -1.56732 0
M  V30 2038 C 175.363 1.2044 -1.96883 0
M  V30 2039 C 176.333 1.43664 -0.833657 0
M  V30 2040 O 177.518 1.56302 -1.09427 0
M  V30 2041 C 174.658 2.53727 -2.33916 0
M  V30 2042 C 173.771 2.3783 -3.6064 0
M  V30 2043 C 172.906 3.64026 -3.86857 0
M  V30 2044 C 171.945 3.43088 -5.06909 0
M  V30 2045 N 171.082 4.61369 -5.29229 0
M  V30 2046 H 175.922 0.854996 -2.85471 0
M  V30 2047 H 173.459 0.41076 -1.41249 0
M  V30 2048 H 175.417 3.31419 -2.53411 0
M  V30 2049 H 174.047 2.8665 -1.48431 0
M  V30 2050 H 173.099 1.51282 -3.49024 0
M  V30 2051 H 174.411 2.18308 -4.4849 0
M  V30 2052 H 173.565 4.50152 -4.06753 0
M  V30 2053 H 172.304 3.86533 -2.97394 0
M  V30 2054 H 171.309 2.55349 -4.86906 0
M  V30 2055 H 172.534 3.21997 -5.97909 0
M  V30 2056 H 170.48 4.84084 -4.42718 0
M  V30 2057 H 170.397 4.44783 -6.11313 0
M  V30 2058 H 171.665 5.48761 -5.53608 0
M  V30 2059 N 175.894 1.51508 0.433938 0
M  V30 2060 C 176.842 1.73646 1.54757 0
M  V30 2061 C 177.836 0.602854 1.5831 0
M  V30 2062 O 179.042 0.784318 1.62014 0
M  V30 2063 H 175.417 0.548718 0.51421 0
M  V30 2064 H 177.388 2.66991 1.33261 0
M  V30 2065 C 176.137 1.88172 2.92381 0
M  V30 2066 H 175.46 2.74808 2.90381 0
M  V30 2067 H 176.9 2.07672 3.6966 0
M  V30 2068 C 175.359 0.64239 3.30719 0
M  V30 2069 O 175.889 -0.201362 4.01195 0
M  V30 2070 N 174.095 0.485489 2.86516 0
M  V30 2071 H 173.642 1.17318 2.29334 0
M  V30 2072 H 173.6 -0.342482 3.12529 0
M  V30 2073 N 177.372 -0.689602 1.41712 0
M  V30 2074 C 178.302 -1.81577 1.46806 0
M  V30 2075 C 179.283 -1.66945 0.326105 0
M  V30 2076 O 180.468 -1.86588 0.538377 0
M  V30 2077 C 177.598 -3.19762 1.35535 0
M  V30 2078 C 176.552 -3.49107 2.47605 0
M  V30 2079 C 175.878 -4.86711 2.21397 0
M  V30 2080 C 177.178 -3.47483 3.89939 0
M  V30 2081 H 178.872 -1.7757 2.41058 0
M  V30 2082 H 176.418 -0.852887 1.16025 0
M  V30 2083 H 178.371 -3.98263 1.3771 0
M  V30 2084 H 177.095 -3.24409 0.377708 0
M  V30 2085 H 175.754 -2.72959 2.44722 0
M  V30 2086 H 175.402 -4.8799 1.21961 0
M  V30 2087 H 175.102 -5.0731 2.96497 0
M  V30 2088 H 176.626 -5.67515 2.25297 0
M  V30 2089 H 178.04 -4.1598 3.94505 0
M  V30 2090 H 176.437 -3.79615 4.64771 0
M  V30 2091 H 177.507 -2.46341 4.17665 0
M  V30 2092 N 178.85 -1.27639 -0.924453 0
M  V30 2093 C 179.798 -1.10485 -2.04685 0
M  V30 2094 C 180.792 -0.0270421 -1.69378 0
M  V30 2095 O 181.998 -0.185008 -1.79047 0
M  V30 2096 H 178.373 -0.340546 -0.670472 0
M  V30 2097 H 180.344 -2.05566 -2.16298 0
M  V30 2098 C 179.093 -0.772229 -3.39016 0
M  V30 2099 H 178.416 -1.59351 -3.66671 0
M  V30 2100 H 179.856 -0.692097 -4.18313 0
M  V30 2101 C 178.315 0.523554 -3.32807 0
M  V30 2102 O 178.845 1.55702 -3.70297 0
M  V30 2103 N 177.051 0.520363 -2.85903 0
M  V30 2104 H 176.598 -0.32107 -2.55591 0
M  V30 2105 H 176.556 1.38742 -2.82131 0
M  V30 2106 N 180.328 1.1314 -1.09713 0
M  V30 2107 C 181.278 2.16709 -0.708593 0
M  V30 2108 C 182.262 1.58471 0.278523 0
M  V30 2109 O 183.454 1.76779 0.088427 0
M  V30 2110 C 180.583 3.43039 -0.133923 0
M  V30 2111 C 179.669 4.08277 -1.14763 0
M  V30 2112 N 180.06 4.48637 -2.33577 0
M  V30 2113 C 178.358 4.34954 -0.986446 0
M  V30 2114 C 179.059 4.9952 -2.98085 0
M  V30 2115 N 178.035 4.94561 -2.25632 0
M  V30 2116 H 181.837 2.45672 -1.61315 0
M  V30 2117 H 179.351 1.29967 -0.973775 0
M  V30 2118 H 181.348 4.16583 0.162465 0
M  V30 2119 H 180.008 3.15549 0.765447 0
M  V30 2120 H 181.019 4.41246 -2.7115 0
M  V30 2121 H 177.696 4.17258 -0.142008 0
M  V30 2122 H 179.086 5.40521 -3.99108 0
M  V30 2123 N 181.806 0.884767 1.30421 0
M  V30 2124 C 182.754 0.340869 2.30089 0
M  V30 2125 C 183.748 -0.55201 1.60154 0
M  V30 2126 O 184.954 -0.436467 1.74628 0
M  V30 2127 H 181.329 0.0915739 0.746404 0
M  V30 2128 H 183.3 1.19513 2.73421 0
M  V30 2129 C 182.049 -0.429779 3.45034 0
M  V30 2130 H 181.372 0.248024 3.9903 0
M  V30 2131 H 182.812 -0.775445 4.16849 0
M  V30 2132 C 181.271 -1.62677 2.95022 0
M  V30 2133 O 181.801 -2.72614 2.95033 0
M  V30 2134 N 180.007 -1.46387 2.51036 0
M  V30 2135 H 179.554 -0.569506 2.51226 0
M  V30 2136 H 179.512 -2.26612 2.17932 0
M  V30 2137 N 183.284 -1.43765 0.645699 0
M  V30 2138 C 184.512 -2.06253 0.163556 0
M  V30 2139 C 184.927 -1.48352 -1.16778 0
M  V30 2140 O 184.284 -0.611932 -1.71935 0
M  V30 2141 C 184.335 -3.61453 0.0583186 0
M  V30 2142 O 184.056 -4.172 1.33702 0
M  V30 2143 C 185.557 -4.41002 -0.450795 0
M  V30 2144 H 182.777 -0.665413 0.0864077 0
M  V30 2145 H 185.321 -1.84396 0.884222 0
M  V30 2146 H 183.476 -3.82522 -0.612865 0
M  V30 2147 H 183.89 -5.10791 1.19131 0
M  V30 2148 H 185.364 -5.49966 -0.473403 0
M  V30 2149 H 185.841 -4.13488 -1.48068 0
M  V30 2150 H 186.447 -4.24886 0.187637 0
M  V30 2151 N 184.763 -0.387143 -1.52771 0
M  V30 2152 C 186.012 0.19697 -2.00736 0
M  V30 2153 C 186.325 1.48082 -1.27793 0
M  V30 2154 O 187.531 2.14485 -1.66458 0
M  V30 2155 C 185.987 0.401568 -3.57653 0
M  V30 2156 C 185.595 -0.868907 -4.39493 0
M  V30 2157 C 187.339 0.942164 -4.13912 0
M  V30 2158 C 185.246 -0.632705 -5.88006 0
M  V30 2159 H 184.176 0.0773827 -0.750019 0
M  V30 2160 H 186.827 -0.50921 -1.76293 0
M  V30 2161 H 185.209 1.16954 -3.78335 0
M  V30 2162 H 186.383 -1.64133 -4.30577 0
M  V30 2163 H 184.698 -1.33429 -3.94443 0
M  V30 2164 H 187.295 1.13455 -5.22525 0
M  V30 2165 H 187.638 1.9106 -3.69867 0
M  V30 2166 H 188.171 0.233814 -3.97112 0
M  V30 2167 H 184.91 -1.57208 -6.36369 0
M  V30 2168 H 184.43 0.100825 -5.99715 0
M  V30 2169 H 186.109 -0.26642 -6.46451 0
M  V30 2170 N 186.241 1.57166 -0.116904 0
M  V30 2171 C 187.171 2.18222 0.830759 0
M  V30 2172 C 188.152 1.12167 1.27877 0
M  V30 2173 O 189.337 1.40394 1.34176 0
M  V30 2174 C 186.467 2.77996 2.08172 0
M  V30 2175 C 185.421 3.89614 1.77157 0
M  V30 2176 C 184.747 4.36187 3.09265 0
M  V30 2177 C 186.047 5.1181 1.04151 0
M  V30 2178 H 187.741 2.97664 0.321992 0
M  V30 2179 H 185.287 1.4318 0.153434 0
M  V30 2180 H 187.24 3.19366 2.74924 0
M  V30 2181 H 185.964 1.9584 2.6137 0
M  V30 2182 H 184.623 3.48816 1.12796 0
M  V30 2183 H 184.271 3.50893 3.60393 0
M  V30 2184 H 183.971 5.11455 2.89288 0
M  V30 2185 H 185.495 4.80207 3.77139 0
M  V30 2186 H 186.909 5.50214 1.61052 0
M  V30 2187 H 185.306 5.92648 0.942762 0
M  V30 2188 H 186.376 4.84892 0.0279022 0
M  V30 2189 N 187.719 -0.156864 1.56817 0
M  V30 2190 C 188.949 -0.885031 1.86684 0
M  V30 2191 C 189.357 -1.75696 0.701954 0
M  V30 2192 O 188.7 -1.80569 -0.337732 0
M  V30 2193 C 188.762 -1.80092 3.11138 0
M  V30 2194 C 188.426 -1.10714 4.43386 0
M  V30 2195 C 189.423 -0.465714 5.1781 0
M  V30 2196 C 187.108 -1.09959 4.90117 0
M  V30 2197 C 189.102 0.174002 6.37162 0
M  V30 2198 C 186.789 -0.456055 6.09396 0
M  V30 2199 C 187.787 0.179622 6.82764 0
M  V30 2200 O 187.475 0.812975 7.99779 0
M  V30 2201 H 187.207 -0.261813 0.623242 0
M  V30 2202 H 189.761 -0.157383 2.04796 0
M  V30 2203 H 187.991 -2.56926 2.89009 0
M  V30 2204 H 189.68 -2.40018 3.27332 0
M  V30 2205 H 190.446 -0.463427 4.82781 0
M  V30 2206 H 186.325 -1.58378 4.3294 0
M  V30 2207 H 189.869 0.670765 6.94368 0
M  V30 2208 H 185.766 -0.455975 6.43888 0
M  V30 2209 H 186.534 0.71366 8.15383 0
M  V30 2210 N 189.197 -1.51736 -0.425897 0
M  V30 2211 C 190.445 -1.64644 -1.17204 0
M  V30 2212 C 190.766 -0.370486 -1.91448 0
M  V30 2213 O 190.036 0.614088 -1.86026 0
M  V30 2214 H 188.616 -0.606819 -0.435638 0
M  V30 2215 H 191.278 -1.88713 -0.487177 0
M  V30 2216 H 190.374 -2.47958 -1.89534 0
M  V30 2217 N 190.675 0.682077 -1.42076 0
M  V30 2218 C 191.625 1.78823 -1.41444 0
M  V30 2219 C 192.609 1.58323 -0.28681 0
M  V30 2220 O 193.801 1.68926 -0.528498 0
M  V30 2221 C 190.93 3.17232 -1.3122 0
M  V30 2222 C 190.016 3.4338 -2.489 0
M  V30 2223 N 190.407 3.40152 -3.7434 0
M  V30 2224 C 188.705 3.73986 -2.43003 0
M  V30 2225 C 189.406 3.65581 -4.52466 0
M  V30 2226 N 188.382 3.85989 -3.8277 0
M  V30 2227 H 192.184 1.7471 -2.36334 0
M  V30 2228 H 189.698 0.882622 -1.36321 0
M  V30 2229 H 191.695 3.96489 -1.2885 0
M  V30 2230 H 190.355 3.22547 -0.373263 0
M  V30 2231 H 191.366 3.20221 -4.07037 0
M  V30 2232 H 188.043 3.86591 -1.57651 0
M  V30 2233 H 189.433 3.69108 -5.61435 0
M  V30 2234 N 192.153 1.28127 0.917671 0
M  V30 2235 C 193.103 1.08361 2.00604 0
M  V30 2236 C 194.087 0.00847518 1.60898 0
M  V30 2237 O 195.279 0.228167 1.75523 0
M  V30 2238 C 192.408 0.743376 3.35155 0
M  V30 2239 C 191.494 1.85716 3.81275 0
M  V30 2240 N 191.885 3.09822 3.99805 0
M  V30 2241 C 190.183 1.74612 4.10398 0
M  V30 2242 C 190.884 3.82368 4.38372 0
M  V30 2243 N 189.86 3.10192 4.4641 0
M  V30 2244 H 193.662 2.02531 2.12975 0
M  V30 2245 H 191.176 1.18989 1.10523 0
M  V30 2246 H 193.173 0.582859 4.12805 0
M  V30 2247 H 191.833 -0.190595 3.2414 0
M  V30 2248 H 192.844 3.45475 3.85833 0
M  V30 2249 H 189.521 0.883657 4.08041 0
M  V30 2250 H 190.911 4.89082 4.60704 0
M  V30 2251 N 193.631 -1.12557 1.10312 0
M  V30 2252 C 194.877 -1.84311 0.846011 0
M  V30 2253 C 195.21 -1.83805 -0.626859 0
M  V30 2254 O 194.485 -1.28268 -1.46211 0
M  V30 2255 C 194.768 -3.32048 1.39341 0
M  V30 2256 C 194.621 -3.41016 2.93305 0
M  V30 2257 C 195.94 -4.27764 1.03468 0
M  V30 2258 H 193.059 -0.669192 0.30879 0
M  V30 2259 H 195.701 -1.32057 1.36605 0
M  V30 2260 H 193.851 -3.76678 0.951087 0
M  V30 2261 H 195.523 -3.05031 3.46055 0
M  V30 2262 H 193.766 -2.81603 3.29973 0
M  V30 2263 H 194.437 -4.44948 3.26689 0
M  V30 2264 H 196.913 -3.91253 1.41633 0
M  V30 2265 H 195.789 -5.29549 1.44463 0
M  V30 2266 H 196.05 -4.42064 -0.0560404 0
M  V30 2267 N 195.109 -0.891671 -1.2995 0
M  V30 2268 C 196.357 -0.512486 -1.95494 0
M  V30 2269 C 196.678 0.942776 -1.70695 0
M  V30 2270 O 195.948 1.66374 -1.03424 0
M  V30 2271 H 194.528 -0.186533 -0.723336 0
M  V30 2272 H 197.19 -1.13621 -1.58355 0
M  V30 2273 H 196.286 -0.688342 -3.04415 0
M  V30 2274 N 196.587 1.43421 -0.653314 0
M  V30 2275 C 197.864 1.95361 -0.0966581 0
M  V30 2276 C 198.244 1.59461 1.38331 0
M  V30 2277 O 197.592 0.879777 2.10884 0
M  V30 2278 C 197.802 3.47311 -0.342988 0
M  V30 2279 C 199.15 4.23875 -0.24798 0
M  V30 2280 O 200.174 3.55133 -0.275553 0
M  V30 2281 O 199.033 5.4623 -0.171771 0
M  V30 2282 H 196.127 0.826945 0.00956291 0
M  V30 2283 H 198.673 1.5336 -0.726558 0
M  V30 2284 H 197.445 3.66569 -1.36906 0
M  V30 2285 H 197.068 3.9631 0.319975 0
M  V30 2286 N 198.065 0.39524 1.52563 0
M  V30 2287 C 199.013 -0.451859 2.28169 0
M  V30 2288 C 200.007 -1.05792 1.32304 0
M  V30 2289 O 201.213 -0.997718 1.49818 0
M  V30 2290 H 197.588 -0.164481 0.733792 0
M  V30 2291 H 199.559 0.207199 2.9768 0
M  V30 2292 C 198.308 -1.56385 3.10546 0
M  V30 2293 H 197.631 -1.10682 3.84174 0
M  V30 2294 H 199.071 -2.13067 3.66577 0
M  V30 2295 C 197.53 -2.52328 2.23231 0
M  V30 2296 O 198.06 -3.5588 1.86312 0
M  V30 2297 N 196.266 -2.22209 1.87274 0
M  V30 2298 H 195.813 -1.38033 2.17496 0
M  V30 2299 H 195.771 -2.86652 1.29143 0
M  V30 2300 N 199.544 -1.57102 0.125237 0
M  V30 2301 C 200.772 -1.99761 -0.538797 0
M  V30 2302 C 201.187 -1.00503 -1.59827 0
M  V30 2303 O 200.544 0.00119474 -1.825 0
M  V30 2304 C 200.595 -3.42408 -1.15927 0
M  V30 2305 O 200.316 -4.37869 -0.142143 0
M  V30 2306 C 201.817 -4.00232 -1.90602 0
M  V30 2307 H 199.037 -0.655772 -0.14214 0
M  V30 2308 H 201.581 -2.03383 0.213413 0
M  V30 2309 H 199.736 -3.39706 -1.86223 0
M  V30 2310 H 200.15 -5.21128 -0.593775 0
M  V30 2311 H 201.624 -5.02105 -2.29335 0
M  V30 2312 H 202.101 -3.39721 -2.78363 0
M  V30 2313 H 202.707 -4.06499 -1.25055 0
M  V30 2314 N 201.022 0.148545 -1.56898 0
M  V30 2315 C 201.955 1.21293 -1.93296 0
M  V30 2316 C 202.933 1.41637 -0.798599 0
M  V30 2317 O 204.117 1.56275 -1.05406 0
M  V30 2318 C 201.244 2.5721 -2.20365 0
M  V30 2319 C 200.29 2.53469 -3.4301 0
M  V30 2320 S 201.123 2.00315 -4.96623 0
M  V30 2321 C 202.279 3.37964 -5.26812 0
M  V30 2322 H 202.512 0.902393 -2.83274 0
M  V30 2323 H 200.045 0.354094 -1.50285 0
M  V30 2324 H 202.003 3.35427 -2.36641 0
M  V30 2325 H 200.664 2.85454 -1.31054 0
M  V30 2326 H 199.857 3.53518 -3.59223 0
M  V30 2327 H 199.459 1.83359 -3.25968 0
M  V30 2328 H 201.751 4.34066 -5.20185 0
M  V30 2329 H 202.694 3.26606 -6.28279 0
M  V30 2330 H 203.102 3.35028 -4.54331 0
M  V30 2331 N 202.5 1.5196 0.417844 0
M  V30 2332 C 203.747 1.65591 1.16559 0
M  V30 2333 C 204.075 0.381565 1.90721 0
M  V30 2334 O 203.33 -0.635156 1.85106 0
M  V30 2335 C 203.629 2.82269 2.19223 0
M  V30 2336 C 203.295 4.20819 1.61933 0
M  V30 2337 C 201.957 4.58506 1.46033 0
M  V30 2338 C 204.309 5.07196 1.20008 0
M  V30 2339 C 201.637 5.80257 0.867113 0
M  V30 2340 C 203.989 6.29544 0.621086 0
M  V30 2341 C 202.653 6.65987 0.449144 0
M  V30 2342 H 201.923 0.605939 0.42652 0
M  V30 2343 H 204.57 1.86041 0.45397 0
M  V30 2344 H 202.875 2.56118 2.96498 0
M  V30 2345 H 204.572 2.90012 2.76936 0
M  V30 2346 H 201.162 3.91116 1.7529 0
M  V30 2347 H 205.346 4.7867 1.31105 0
M  V30 2348 H 200.602 6.07124 0.721833 0
M  V30 2349 H 204.776 6.95805 0.287798 0
M  V30 2350 H 202.403 7.60199 -0.012632 0
M  V30 2351 N 203.978 -0.674533 1.42435 0
M  V30 2352 C 205.255 -1.4305 1.33402 0
M  V30 2353 C 205.635 -2.11081 -0.0284674 0
M  V30 2354 O 204.983 -2.03257 -1.04397 0
M  V30 2355 C 205.193 -2.43272 2.50239 0
M  V30 2356 C 206.541 -3.07907 2.92367 0
M  V30 2357 O 207.565 -2.53599 2.50132 0
M  V30 2358 O 206.424 -4.0632 3.65467 0
M  V30 2359 H 203.518 -0.638076 0.526106 0
M  V30 2360 H 206.064 -0.703235 1.54443 0
M  V30 2361 H 204.836 -1.91803 3.41068 0
M  V30 2362 H 204.459 -3.23479 2.31186 0
M  V30 2363 N 205.456 -1.28612 -0.910864 0
M  V30 2364 C 206.702 -1.16106 -1.66274 0
M  V30 2365 C 207.035 0.289113 -1.92036 0
M  V30 2366 O 206.31 1.21 -1.52281 0
M  V30 2367 C 206.593 -1.96309 -3.01885 0
M  V30 2368 C 206.446 -3.49405 -2.8326 0
M  V30 2369 C 207.765 -1.78076 -4.02463 0
M  V30 2370 H 204.884 -0.423152 -0.603417 0
M  V30 2371 H 207.526 -1.57961 -1.05586 0
M  V30 2372 H 205.676 -1.60742 -3.53687 0
M  V30 2373 H 207.348 -3.94894 -2.38446 0
M  V30 2374 H 205.591 -3.74893 -2.18261 0
M  V30 2375 H 206.262 -4.00784 -3.79574 0
M  V30 2376 H 208.738 -2.0912 -3.59733 0
M  V30 2377 H 207.614 -2.36561 -4.95308 0
M  V30 2378 H 207.875 -0.733008 -4.35981 0
M  V30 2379 N 206.934 1.1197 -1.10907 0
M  V30 2380 C 207.864 2.19928 -0.784473 0
M  V30 2381 C 208.845 1.6833 0.244726 0
M  V30 2382 O 210.03 1.93892 0.109418 0
M  V30 2383 C 207.16 3.46597 -0.220827 0
M  V30 2384 C 206.114 4.11376 -1.18127 0
M  V30 2385 C 205.44 5.32554 -0.478594 0
M  V30 2386 C 206.74 4.56945 -2.52979 0
M  V30 2387 H 208.434 2.47337 -1.68715 0
M  V30 2388 H 205.98 1.18879 -0.812642 0
M  V30 2389 H 207.933 4.21396 0.0184278 0
M  V30 2390 H 206.657 3.1863 0.717113 0
M  V30 2391 H 205.316 3.38564 -1.40606 0
M  V30 2392 H 204.964 5.00856 0.463976 0
M  V30 2393 H 204.664 5.76844 -1.11912 0
M  V30 2394 H 206.188 6.10096 -0.248 0
M  V30 2395 H 207.602 5.23093 -2.3462 0
M  V30 2396 H 205.999 5.1203 -3.12962 0
M  V30 2397 H 207.069 3.70676 -3.12614 0
M  V30 2398 N 208.412 0.89855 1.29475 0
M  V30 2399 C 209.322 0.379974 2.31502 0
M  V30 2400 C 210.338 -0.524695 1.659 0
M  V30 2401 O 211.514 -0.414551 1.97087 0
M  V30 2402 C 208.579 -0.385138 3.44554 0
M  V30 2403 C 207.64 0.550914 4.2575 0
M  V30 2404 C 206.873 -0.177778 5.33404 0
M  V30 2405 O 207.096 -1.40189 5.52904 0
M  V30 2406 O 206.03 0.479106 5.9999 0
M  V30 2407 H 209.856 1.22639 2.77837 0
M  V30 2408 H 207.441 0.662834 1.33891 0
M  V30 2409 H 209.323 -0.817841 4.13388 0
M  V30 2410 H 207.998 -1.20763 3.0033 0
M  V30 2411 H 206.905 1.03271 3.59564 0
M  V30 2412 H 208.238 1.33979 4.73614 0
M  V30 2413 N 209.89 -1.43072 0.660911 0
M  V30 2414 C 211.167 -1.95307 0.107017 0
M  V30 2415 C 211.547 -1.60192 -1.37484 0
M  V30 2416 O 210.895 -0.890949 -2.10415 0
M  V30 2417 C 211.105 -3.47124 0.361402 0
M  V30 2418 C 212.453 -4.23738 0.270455 0
M  V30 2419 O 213.477 -3.54981 0.294382 0
M  V30 2420 O 212.336 -5.46131 0.200737 0
M  V30 2421 H 209.43 -0.826984 -0.00517729 0
M  V30 2422 H 211.976 -1.52972 0.734681 0
M  V30 2423 H 210.748 -3.65837 1.38848 0
M  V30 2424 H 210.371 -3.96475 -0.298953 0
M  V30 2425 N 211.368 -0.403325 -1.52352 0
M  V30 2426 C 212.598 0.17376 -2.05868 0
M  V30 2427 C 213.006 1.39898 -1.27378 0
M  V30 2428 O 212.349 1.80939 -0.31729 0
M  V30 2429 C 212.411 0.594756 -3.54546 0
M  V30 2430 C 212.075 -0.518926 -4.54044 0
M  V30 2431 C 213.072 -1.3807 -5.01231 0
M  V30 2432 C 210.757 -0.689961 -4.97539 0
M  V30 2433 C 212.751 -2.39852 -5.90551 0
M  V30 2434 C 210.438 -1.71109 -5.86656 0
M  V30 2435 C 211.436 -2.56378 -6.33056 0
M  V30 2436 O 211.124 -3.56743 -7.20409 0
M  V30 2437 H 210.856 0.0264951 -0.675481 0
M  V30 2438 H 213.41 -0.571179 -1.97299 0
M  V30 2439 H 211.64 1.39189 -3.60782 0
M  V30 2440 H 213.329 1.0991 -3.90736 0
M  V30 2441 H 214.095 -1.25994 -4.68349 0
M  V30 2442 H 209.974 -0.035939 -4.60986 0
M  V30 2443 H 213.518 -3.06441 -6.26689 0
M  V30 2444 H 209.415 -1.83218 -6.18952 0
M  V30 2445 H 210.183 -3.52918 -7.38506 0
M  V30 2446 N 212.846 1.57033 -0.133567 0
M  V30 2447 C 213.776 2.1909 0.807567 0
M  V30 2448 C 214.757 1.13517 1.26681 0
M  V30 2449 O 215.942 1.41809 1.32679 0
M  V30 2450 C 213.072 2.80188 2.05212 0
M  V30 2451 C 212.026 3.91471 1.73015 0
M  V30 2452 C 211.352 4.39443 3.04622 0
M  V30 2453 C 212.652 5.12886 0.987168 0
M  V30 2454 H 214.346 2.97988 0.290403 0
M  V30 2455 H 211.892 1.43335 0.138239 0
M  V30 2456 H 213.845 3.22264 2.71521 0
M  V30 2457 H 212.569 1.98601 2.59278 0
M  V30 2458 H 211.228 3.49993 1.0909 0
M  V30 2459 H 210.876 3.54695 3.56651 0
M  V30 2460 H 210.576 5.14495 2.83847 0
M  V30 2461 H 212.1 4.8418 3.72024 0
M  V30 2462 H 213.514 5.51891 1.55208 0
M  V30 2463 H 211.911 5.93615 0.87985 0
M  V30 2464 H 212.981 4.84894 -0.0235286 0
M  V30 2465 N 214.325 -0.140222 1.56975 0
M  V30 2466 C 215.272 -1.17292 1.98774 0
M  V30 2467 C 216.242 -1.4232 0.856408 0
M  V30 2468 O 217.427 -1.54541 1.119 0
M  V30 2469 C 214.567 -2.49973 2.37923 0
M  V30 2470 C 213.68 -2.32062 3.64378 0
M  V30 2471 C 212.815 -3.57825 3.926 0
M  V30 2472 C 211.854 -3.3498 5.12303 0
M  V30 2473 N 210.991 -4.52891 5.36502 0
M  V30 2474 H 215.831 -0.809472 2.86795 0
M  V30 2475 H 213.368 -0.388237 1.41884 0
M  V30 2476 H 215.326 -3.27346 2.58652 0
M  V30 2477 H 213.956 -2.84252 1.52972 0
M  V30 2478 H 213.008 -1.45711 3.51387 0
M  V30 2479 H 214.32 -2.11145 4.51906 0
M  V30 2480 H 213.474 -4.43624 4.13863 0
M  V30 2481 H 212.213 -3.81753 3.03506 0
M  V30 2482 H 211.218 -2.4757 4.90906 0
M  V30 2483 H 212.443 -3.12444 6.02956 0
M  V30 2484 H 210.389 -4.76979 4.50363 0
M  V30 2485 H 210.306 -4.35001 6.18312 0
M  V30 2486 H 211.574 -5.39884 5.62268 0
M  V30 2487 N 215.803 -1.52179 -0.40978 0
M  V30 2488 C 216.735 -1.71703 -1.51825 0
M  V30 2489 C 217.748 -0.597445 -1.51441 0
M  V30 2490 O 218.937 -0.872582 -1.55719 0
M  V30 2491 C 216.037 -1.74171 -2.90719 0
M  V30 2492 C 215.21 -3.03156 -3.15302 0
M  V30 2493 C 214.269 -2.97445 -4.34065 0
M  V30 2494 O 213.295 -3.71352 -4.31377 0
M  V30 2495 N 214.497 -2.15191 -5.39141 0
M  V30 2496 H 217.262 -2.67334 -1.35472 0
M  V30 2497 H 214.823 -1.50409 -0.599069 0
M  V30 2498 H 216.815 -1.67884 -3.68235 0
M  V30 2499 H 215.385 -0.860166 -3.00533 0
M  V30 2500 H 214.605 -3.23097 -2.25836 0
M  V30 2501 H 215.893 -3.88484 -3.28569 0
M  V30 2502 H 215.291 -1.54573 -5.44173 0
M  V30 2503 H 213.848 -2.1476 -6.15403 0
M  V30 2504 N 217.281 0.66697 -1.42791 0
M  V30 2505 C 218.506 1.46004 -1.47301 0
M  V30 2506 C 218.931 1.87894 -0.0880317 0
M  V30 2507 O 218.289 1.56502 0.915253 0
M  V30 2508 C 218.337 2.68031 -2.41229 0
M  V30 2509 O 217.441 3.6659 -1.88906 0
M  V30 2510 H 216.782 0.43832 -0.49877 0
M  V30 2511 H 219.312 0.817391 -1.87563 0
M  V30 2512 H 219.322 3.1601 -2.58073 0
M  V30 2513 H 217.997 2.36883 -3.41847 0
M  V30 2514 H 216.574 3.25661 -1.81656 0
M  V30 2515 N 218.759 1.29093 0.90403 0
M  V30 2516 C 220.006 1.16813 1.65411 0
M  V30 2517 C 220.334 -0.28128 1.92455 0
M  V30 2518 O 219.589 -1.22006 1.53013 0
M  V30 2519 C 219.888 1.92224 3.01305 0
M  V30 2520 C 219.554 3.41968 2.93885 0
M  V30 2521 C 218.216 3.82807 2.91569 0
M  V30 2522 C 220.568 4.37409 2.83413 0
M  V30 2523 C 217.896 5.1741 2.76594 0
M  V30 2524 C 220.248 5.72097 2.69977 0
M  V30 2525 C 218.912 6.12199 2.66024 0
M  V30 2526 H 218.182 0.42745 0.605283 0
M  V30 2527 H 220.829 1.59981 1.05254 0
M  V30 2528 H 219.134 1.41635 3.65304 0
M  V30 2529 H 220.831 1.80131 3.58265 0
M  V30 2530 H 217.421 3.09504 2.96488 0
M  V30 2531 H 221.605 4.06813 2.84283 0
M  V30 2532 H 216.861 5.47596 2.71935 0
M  V30 2533 H 221.035 6.45704 2.60844 0
M  V30 2534 H 218.662 7.16448 2.54178 0
M  V30 2535 N 220.237 -1.11381 1.11499 0
M  V30 2536 C 221.467 -1.86663 0.885464 0
M  V30 2537 C 221.875 -1.80464 -0.568281 0
M  V30 2538 O 221.218 -1.18445 -1.40415 0
M  V30 2539 C 221.28 -3.36337 1.26956 0
M  V30 2540 C 220.944 -3.66304 2.73259 0
M  V30 2541 C 221.941 -3.63733 3.71476 0
M  V30 2542 C 219.626 -3.9529 3.09921 0
M  V30 2543 C 221.62 -3.89725 5.04374 0
M  V30 2544 C 219.307 -4.20941 4.43004 0
M  V30 2545 C 220.305 -4.18147 5.40039 0
M  V30 2546 O 219.993 -4.43153 6.70724 0
M  V30 2547 H 219.725 -0.597114 0.316908 0
M  V30 2548 H 222.279 -1.41782 1.48617 0
M  V30 2549 H 220.509 -3.81826 0.611999 0
M  V30 2550 H 222.198 -3.92986 1.01573 0
M  V30 2551 H 222.964 -3.41389 3.44498 0
M  V30 2552 H 218.843 -3.966 2.35009 0
M  V30 2553 H 222.387 -3.8746 5.80104 0
M  V30 2554 H 218.284 -4.42761 4.69716 0
M  V30 2555 H 219.052 -4.60717 6.76522 0
M  V30 2556 N 221.715 -0.905404 -1.28997 0
M  V30 2557 C 222.625 -0.392246 -2.31298 0
M  V30 2558 C 223.641 0.515889 -1.66176 0
M  V30 2559 O 224.817 0.404093 -1.97304 0
M  V30 2560 C 221.882 0.36686 -3.44754 0
M  V30 2561 C 220.943 -0.573485 -4.25452 0
M  V30 2562 C 220.176 0.149488 -5.33491 0
M  V30 2563 O 220.399 1.37255 -5.5364 0
M  V30 2564 O 219.333 -0.510919 -5.99728 0
M  V30 2565 H 223.159 -1.2411 -2.77183 0
M  V30 2566 H 220.744 -0.669926 -1.33538 0
M  V30 2567 H 222.626 0.795907 -4.13816 0
M  V30 2568 H 221.301 1.19169 -3.00966 0
M  V30 2569 H 220.208 -1.05176 -3.59011 0
M  V30 2570 H 221.541 -1.36489 -4.72897 0
M  V30 2571 N 223.193 1.4272 -0.668489 0
M  V30 2572 C 224.14 2.30796 0.0137489 0
M  V30 2573 C 225.11 1.4561 0.799177 0
M  V30 2574 O 226.295 1.74453 0.772702 0
M  V30 2575 C 223.435 3.31377 0.963507 0
M  V30 2576 C 222.548 4.31655 0.172569 0
M  V30 2577 C 221.683 5.19312 1.1175 0
M  V30 2578 C 220.722 6.11274 0.317886 0
M  V30 2579 N 219.859 6.91504 1.2152 0
M  V30 2580 H 224.699 2.88585 -0.743161 0
M  V30 2581 H 222.236 1.42154 -0.378226 0
M  V30 2582 H 224.194 3.88214 1.52792 0
M  V30 2583 H 222.824 2.75202 1.68712 0
M  V30 2584 H 221.876 3.76988 -0.508374 0
M  V30 2585 H 223.188 4.96779 -0.448527 0
M  V30 2586 H 222.342 5.80851 1.75206 0
M  V30 2587 H 221.081 4.5435 1.77249 0
M  V30 2588 H 220.086 5.48809 -0.329918 0
M  V30 2589 H 221.311 6.78283 -0.332917 0
M  V30 2590 H 219.257 6.29176 1.85671 0
M  V30 2591 H 219.174 7.53209 0.649036 0
M  V30 2592 H 220.442 7.57535 1.83742 0
M  V30 2593 N 224.671 0.411399 1.52136 0
M  V30 2594 C 225.621 -0.430376 2.23901 0
M  V30 2595 C 226.605 -1.0116 1.25121 0
M  V30 2596 O 227.797 -0.934044 1.50348 0
M  V30 2597 C 224.926 -1.54527 3.06556 0
M  V30 2598 C 224.012 -0.9747 4.12747 0
M  V30 2599 N 224.403 -0.130991 5.0563 0
M  V30 2600 C 222.701 -1.24497 4.28271 0
M  V30 2601 C 223.402 0.186689 5.814 0
M  V30 2602 N 222.378 -0.42304 5.41951 0
M  V30 2603 H 226.18 0.220509 2.93072 0
M  V30 2604 H 223.694 0.221952 1.60876 0
M  V30 2605 H 225.691 -2.16093 3.56524 0
M  V30 2606 H 224.351 -2.19875 2.38925 0
M  V30 2607 H 225.362 0.23349 5.17373 0
M  V30 2608 H 222.039 -1.89787 3.7187 0
M  V30 2609 H 223.429 0.871673 6.66222 0
M  V30 2610 N 226.149 -1.5696 0.141893 0
M  V30 2611 C 227.096 -2.16501 -0.799737 0
M  V30 2612 C 228.066 -1.09643 -1.24771 0
M  V30 2613 O 229.251 -1.3766 -1.32115 0
M  V30 2614 C 226.391 -2.78679 -2.03549 0
M  V30 2615 C 225.504 -3.99914 -1.6338 0
M  V30 2616 C 224.639 -4.50106 -2.82096 0
M  V30 2617 C 223.678 -5.63819 -2.38275 0
M  V30 2618 N 222.815 -6.08651 -3.49983 0
M  V30 2619 H 227.655 -2.96632 -0.285179 0
M  V30 2620 H 225.192 -1.46533 -0.129053 0
M  V30 2621 H 227.15 -3.1287 -2.75986 0
M  V30 2622 H 225.78 -2.012 -2.52425 0
M  V30 2623 H 224.832 -3.71735 -0.807279 0
M  V30 2624 H 226.144 -4.82311 -1.27192 0
M  V30 2625 H 225.298 -4.86325 -3.62729 0
M  V30 2626 H 224.037 -3.66706 -3.21525 0
M  V30 2627 H 223.042 -5.2718 -1.56081 0
M  V30 2628 H 224.267 -6.49 -1.99938 0
M  V30 2629 H 222.213 -5.28188 -3.89042 0
M  V30 2630 H 222.13 -6.85961 -3.17794 0
M  V30 2631 H 223.398 -6.49515 -4.30988 0
M  V30 2632 N 227.627 0.131896 -1.57047 0
M  V30 2633 C 228.876 0.84044 -1.83356 0
M  V30 2634 C 229.189 1.81646 -0.725535 0
M  V30 2635 O 230.395 2.57025 -0.874659 0
M  V30 2636 C 228.851 1.54528 -3.25037 0
M  V30 2637 C 228.459 0.610902 -4.43815 0
M  V30 2638 C 230.203 2.23972 -3.60606 0
M  V30 2639 C 228.11 1.31823 -5.76521 0
M  V30 2640 H 227.04 0.317599 -0.683847 0
M  V30 2641 H 229.691 0.0931561 -1.83263 0
M  V30 2642 H 228.073 2.33873 -3.19561 0
M  V30 2643 H 229.247 -0.148407 -4.60561 0
M  V30 2644 H 227.562 0.0241016 -4.16393 0
M  V30 2645 H 230.159 2.77558 -4.57018 0
M  V30 2646 H 230.502 3.01173 -2.87403 0
M  V30 2647 H 231.035 1.51529 -3.6781 0
M  V30 2648 H 227.774 0.587771 -6.52859 0
M  V30 2649 H 227.294 2.04987 -5.63685 0
M  V30 2650 H 228.973 1.855 -6.19838 0
M  V30 2651 N 229.106 1.52395 0.401703 0
M  V30 2652 C 230.355 1.66044 1.14509 0
M  V30 2653 C 230.668 0.400216 1.91462 0
M  V30 2654 O 231.874 0.416632 2.68284 0
M  V30 2655 C 230.33 2.93388 2.0845 0
M  V30 2656 C 229.938 4.26545 1.36978 0
M  V30 2657 C 231.682 3.16402 2.83001 0
M  V30 2658 C 229.589 5.45007 2.29611 0
M  V30 2659 H 228.519 0.618562 0.431158 0
M  V30 2660 H 231.17 1.78886 0.40892 0
M  V30 2661 H 229.552 2.74263 2.8565 0
M  V30 2662 H 230.726 4.56179 0.650916 0
M  V30 2663 H 229.041 4.09692 0.74438 0
M  V30 2664 H 231.638 4.02085 3.52465 0
M  V30 2665 H 231.981 2.30943 3.46368 0
M  V30 2666 H 232.514 3.36034 2.12898 0
M  V30 2667 H 229.253 6.32835 1.70879 0
M  V30 2668 H 228.773 5.19702 2.9945 0
M  V30 2669 H 230.452 5.7838 2.89974 0
M  V30 2670 N 230.584 -0.659388 1.43143 0
M  V30 2671 C 231.494 -1.80167 1.50256 0
M  V30 2672 C 232.51 -1.69571 0.390106 0
M  V30 2673 O 233.686 -1.90849 0.643319 0
M  V30 2674 C 230.751 -3.16409 1.41725 0
M  V30 2675 C 229.812 -3.38848 2.63591 0
M  V30 2676 C 229.045 -4.68591 2.55458 0
M  V30 2677 O 229.268 -5.47532 1.59891 0
M  V30 2678 O 228.202 -4.92614 3.45854 0
M  V30 2679 H 232.028 -1.77121 2.46702 0
M  V30 2680 H 229.613 -0.817092 1.25076 0
M  V30 2681 H 231.495 -3.9768 1.39387 0
M  V30 2682 H 230.17 -3.20059 0.484118 0
M  V30 2683 H 229.077 -2.57366 2.71502 0
M  V30 2684 H 230.41 -3.4004 3.55856 0
M  V30 2685 N 232.062 -1.29571 -0.897171 0
M  V30 2686 C 233.309 -1.17689 -1.6479 0
M  V30 2687 C 233.637 0.27107 -1.92602 0
M  V30 2688 O 232.892 1.21193 -1.53658 0
M  V30 2689 C 233.191 -1.9382 -3.00281 0
M  V30 2690 C 232.857 -3.43522 -2.92068 0
M  V30 2691 C 231.519 -3.84348 -2.89535 0
M  V30 2692 C 233.871 -4.38906 -2.81089 0
M  V30 2693 C 231.199 -5.18869 -2.73846 0
M  V30 2694 C 233.551 -5.73521 -2.66939 0
M  V30 2695 C 232.215 -6.13601 -2.62774 0
M  V30 2696 H 231.485 -0.430654 -0.603008 0
M  V30 2697 H 234.132 -1.60536 -1.04404 0
M  V30 2698 H 232.437 -1.4357 -3.64547 0
M  V30 2699 H 234.134 -1.82028 -3.57305 0
M  V30 2700 H 230.724 -3.11072 -2.94842 0
M  V30 2701 H 234.908 -4.08315 -2.82121 0
M  V30 2702 H 230.164 -5.4903 -2.69027 0
M  V30 2703 H 234.338 -6.47078 -2.57416 0
M  V30 2704 H 231.965 -7.17786 -2.50375 0
M  V30 2705 N 233.54 1.10788 -1.12088 0
M  V30 2706 C 234.817 1.79136 -0.785476 0
M  V30 2707 C 235.197 1.98246 0.725377 0
M  V30 2708 O 234.545 1.57258 1.65778 0
M  V30 2709 C 234.755 3.12375 -1.55636 0
M  V30 2710 C 236.103 3.8731 -1.74001 0
M  V30 2711 O 237.127 3.22085 -1.52117 0
M  V30 2712 O 235.986 5.04369 -2.10415 0
M  V30 2713 H 233.08 0.776226 -0.285311 0
M  V30 2714 H 235.626 1.1747 -1.2247 0
M  V30 2715 H 234.398 2.93863 -2.5838 0
M  V30 2716 H 234.021 3.81758 -1.11114 0
M  V30 2717 N 235.018 0.912232 1.28515 0
M  V30 2718 C 235.966 0.389597 2.29314 0
M  V30 2719 C 236.96 -0.517915 1.61289 0
M  V30 2720 O 238.166 -0.399328 1.75515 0
M  V30 2721 H 234.541 0.107386 0.744293 0
M  V30 2722 H 236.512 1.25286 2.70825 0
M  V30 2723 C 235.261 -0.356496 3.45868 0
M  V30 2724 H 234.584 0.332608 3.98414 0
M  V30 2725 H 236.024 -0.686851 4.184 0
M  V30 2726 C 234.483 -1.56383 2.98406 0
M  V30 2727 O 235.013 -2.66294 3.00749 0
M  V30 2728 N 233.219 -1.41029 2.54085 0
M  V30 2729 H 232.766 -0.516089 2.52377 0
M  V30 2730 H 232.724 -2.21939 2.22689 0
M  V30 2731 N 236.496 -1.42363 0.676048 0
M  V30 2732 C 237.443 -2.308 -0.00150904 0
M  V30 2733 C 238.413 -1.46032 -0.791444 0
M  V30 2734 O 239.598 -1.74861 -0.76344 0
M  V30 2735 C 236.738 -3.31883 -0.945919 0
M  V30 2736 C 235.851 -4.31741 -0.149675 0
M  V30 2737 C 234.986 -5.19898 -1.08995 0
M  V30 2738 C 234.025 -6.11434 -0.285465 0
M  V30 2739 N 233.162 -6.92138 -1.17851 0
M  V30 2740 H 238.002 -2.88187 0.758455 0
M  V30 2741 H 235.539 -1.41952 0.38576 0
M  V30 2742 H 237.497 -3.89019 -1.50731 0
M  V30 2743 H 236.127 -2.76093 -1.6725 0
M  V30 2744 H 235.179 -3.76713 0.528359 0
M  V30 2745 H 236.491 -4.96534 0.474866 0
M  V30 2746 H 235.645 -5.81772 -1.72123 0
M  V30 2747 H 234.384 -4.55284 -1.74837 0
M  V30 2748 H 233.389 -5.48627 0.359018 0
M  V30 2749 H 234.614 -6.78097 0.368883 0
M  V30 2750 H 232.56 -6.30152 -1.82332 0
M  V30 2751 H 232.477 -7.53542 -0.609082 0
M  V30 2752 H 233.745 -7.58499 -1.79722 0
M  V30 2753 N 237.974 -0.419461 -1.51915 0
M  V30 2754 C 239.204 0.151915 -2.06041 0
M  V30 2755 C 239.612 1.38539 -1.28855 0
M  V30 2756 O 238.955 1.80592 -0.336463 0
M  V30 2757 C 239.017 0.557119 -3.55157 0
M  V30 2758 C 238.681 -0.567054 -4.53468 0
M  V30 2759 C 239.678 -1.43379 -4.99738 0
M  V30 2760 C 237.363 -0.742693 -4.96779 0
M  V30 2761 C 239.357 -2.46102 -5.87973 0
M  V30 2762 C 237.044 -1.77322 -5.84808 0
M  V30 2763 C 238.042 -2.63078 -6.30301 0
M  V30 2764 O 237.73 -3.64364 -7.16585 0
M  V30 2765 H 237.462 0.0193293 -0.675724 0
M  V30 2766 H 240.016 -0.592073 -1.96682 0
M  V30 2767 H 238.246 1.35355 -3.62238 0
M  V30 2768 H 239.935 1.05759 -3.9188 0
M  V30 2769 H 240.701 -1.30954 -4.66986 0
M  V30 2770 H 236.58 -0.0848307 -4.60922 0
M  V30 2771 H 240.124 -3.13071 -6.23404 0
M  V30 2772 H 236.021 -1.89773 -6.16974 0
M  V30 2773 H 236.789 -3.60731 -7.34721 0
M  V30 2774 N 239.452 1.56882 -0.150215 0
M  V30 2775 C 240.7 1.9584 0.499105 0
M  V30 2776 C 241.021 1.03623 1.65188 0
M  V30 2777 O 240.291 0.0984084 1.95653 0
M  V30 2778 H 238.871 0.723119 0.187373 0
M  V30 2779 H 241.533 1.9358 -0.226466 0
M  V30 2780 H 240.629 2.99638 0.873122 0
M  V30 2781 N 240.93 -0.123565 1.57115 0
M  V30 2782 C 241.877 -1.15177 2.00007 0
M  V30 2783 C 242.847 -1.41403 0.871454 0
M  V30 2784 O 244.032 -1.53346 1.13533 0
M  V30 2785 C 241.172 -2.47436 2.40561 0
M  V30 2786 C 240.285 -2.28184 3.66819 0
M  V30 2787 C 239.42 -3.53641 3.96373 0
M  V30 2788 C 238.459 -3.29528 5.15827 0
M  V30 2789 N 237.596 -4.47175 5.41275 0
M  V30 2790 H 242.436 -0.779008 2.87638 0
M  V30 2791 H 239.973 -0.373166 1.42288 0
M  V30 2792 H 241.931 -3.24584 2.62109 0
M  V30 2793 H 240.561 -2.82614 1.55978 0
M  V30 2794 H 239.613 -1.41976 3.52912 0
M  V30 2795 H 240.925 -2.0634 4.5412 0
M  V30 2796 H 240.079 -4.39209 4.18545 0
M  V30 2797 H 238.818 -3.78512 3.07538 0
M  V30 2798 H 237.823 -2.42349 4.93505 0
M  V30 2799 H 239.048 -3.06031 6.06236 0
M  V30 2800 H 236.994 -4.72175 4.55397 0
M  V30 2801 H 236.911 -4.28419 6.22891 0
M  V30 2802 H 238.179 -5.3389 5.67963 0
M  V30 2803 N 242.408 -1.52605 -0.393616 0
M  V30 2804 C 243.638 -1.71046 -1.15874 0
M  V30 2805 C 244.046 -0.426483 -1.84331 0
M  V30 2806 O 243.389 0.608513 -1.73329 0
M  V30 2807 C 243.451 -2.80118 -2.25332 0
M  V30 2808 C 243.115 -4.21381 -1.76881 0
M  V30 2809 C 244.112 -5.04697 -1.24808 0
M  V30 2810 C 241.797 -4.67683 -1.83244 0
M  V30 2811 C 243.791 -6.32393 -0.797387 0
M  V30 2812 C 241.478 -5.95364 -1.37787 0
M  V30 2813 C 242.476 -6.77549 -0.861208 0
M  V30 2814 O 242.164 -8.02837 -0.413252 0
M  V30 2815 H 241.896 -0.576155 -0.353583 0
M  V30 2816 H 244.45 -2.00018 -0.467123 0
M  V30 2817 H 242.68 -2.46557 -2.97904 0
M  V30 2818 H 244.369 -2.87006 -2.87023 0
M  V30 2819 H 245.135 -4.70111 -1.19252 0
M  V30 2820 H 241.014 -4.03805 -2.22401 0
M  V30 2821 H 244.558 -6.9649 -0.393437 0
M  V30 2822 H 240.455 -6.29455 -1.43026 0
M  V30 2823 H 241.223 -8.16749 -0.53515 0
M  V30 2824 N 243.887 0.651787 -1.4349 0
M  V30 2825 C 244.819 1.77725 -1.44729 0
M  V30 2826 C 245.832 1.59141 -0.343231 0
M  V30 2827 O 247.021 1.67835 -0.607751 0
M  V30 2828 C 244.121 3.15172 -1.24579 0
M  V30 2829 C 243.294 3.60402 -2.47849 0
M  V30 2830 C 242.353 4.76656 -2.22902 0
M  V30 2831 O 241.379 4.86022 -2.96263 0
M  V30 2832 N 242.581 5.66958 -1.24656 0
M  V30 2833 H 245.346 1.77141 -2.41746 0
M  V30 2834 H 242.907 0.835678 -1.38665 0
M  V30 2835 H 244.899 3.90634 -1.0577 0
M  V30 2836 H 243.469 3.1052 -0.360015 0
M  V30 2837 H 242.689 2.75369 -2.82073 0
M  V30 2838 H 243.977 3.87368 -3.29884 0
M  V30 2839 H 243.375 5.62065 -0.640265 0
M  V30 2840 H 241.932 6.42135 -1.1183 0
M  V30 2841 N 245.365 1.30045 0.890287 0
M  V30 2842 C 246.295 1.18541 2.01172 0
M  V30 2843 C 247.276 0.0773356 1.69924 0
M  V30 2844 O 248.461 0.25845 1.92473 0
M  V30 2845 C 245.591 0.870941 3.36202 0
M  V30 2846 C 244.545 1.93637 3.81692 0
M  V30 2847 C 243.871 1.475 5.13953 0
M  V30 2848 C 245.171 3.34666 4.00994 0
M  V30 2849 H 246.865 2.12359 2.11054 0
M  V30 2850 H 244.411 1.02238 1.01407 0
M  V30 2851 H 246.364 0.777141 4.14172 0
M  V30 2852 H 245.088 -0.102926 3.26438 0
M  V30 2853 H 243.747 2.01972 3.05946 0
M  V30 2854 H 243.395 0.489551 5.00612 0
M  V30 2855 H 243.095 2.1876 5.4536 0
M  V30 2856 H 244.619 1.39489 5.94454 0
M  V30 2857 H 246.033 3.2912 4.69417 0
M  V30 2858 H 244.43 4.03966 4.43769 0
M  V30 2859 H 245.5 3.76949 3.05021 0
M  V30 2860 N 246.843 -1.10192 1.12674 0
M  V30 2861 C 247.775 -2.16418 0.754701 0
M  V30 2862 C 248.788 -1.61309 -0.21986 0
M  V30 2863 O 249.977 -1.785 -0.000826841 0
M  V30 2864 C 247.077 -3.38762 0.096698 0
M  V30 2865 C 246.25 -4.23307 1.10136 0
M  V30 2866 C 245.309 -5.24092 0.470513 0
M  V30 2867 O 244.335 -5.57906 1.12824 0
M  V30 2868 N 245.537 -5.75491 -0.760948 0
M  V30 2869 H 248.302 -2.48943 1.66875 0
M  V30 2870 H 245.863 -1.25834 1.01869 0
M  V30 2871 H 247.855 -4.03291 -0.337384 0
M  V30 2872 H 246.425 -3.04192 -0.720153 0
M  V30 2873 H 245.645 -3.55036 1.71299 0
M  V30 2874 H 246.933 -4.76624 1.78064 0
M  V30 2875 H 246.331 -5.50222 -1.31424 0
M  V30 2876 H 244.888 -6.41792 -1.13781 0
M  V30 2877 N 248.321 -0.919034 -1.28029 0
M  V30 2878 C 249.567 -0.555757 -1.95036 0
M  V30 2879 C 249.9 0.899198 -1.72128 0
M  V30 2880 O 249.175 1.64023 -1.04531 0
M  V30 2881 C 249.458 -0.872024 -3.49382 0
M  V30 2882 C 249.311 -2.3801 -3.81669 0
M  V30 2883 C 250.63 -0.37185 -4.38526 0
M  V30 2884 H 247.749 -0.203386 -0.708381 0
M  V30 2885 H 250.391 -1.14924 -1.51303 0
M  V30 2886 H 248.541 -0.366946 -3.86763 0
M  V30 2887 H 250.213 -2.9562 -3.54128 0
M  V30 2888 H 248.456 -2.83289 -3.28526 0
M  V30 2889 H 249.127 -2.55192 -4.8947 0
M  V30 2890 H 251.603 -0.804602 -4.08247 0
M  V30 2891 H 250.479 -0.622173 -5.45362 0
M  V30 2892 H 250.74 0.727934 -4.36066 0
M  V30 2893 N 249.799 1.42003 -0.683588 0
M  V30 2894 C 251.046 2.01413 -0.209514 0
M  V30 2895 C 251.374 1.54088 1.1869 0
M  V30 2896 O 250.629 0.737591 1.81268 0
M  V30 2897 C 250.928 3.56827 -0.202357 0
M  V30 2898 C 250.594 4.23617 -1.54464 0
M  V30 2899 C 249.256 4.41577 -1.91215 0
M  V30 2900 C 251.608 4.61178 -2.42826 0
M  V30 2901 C 248.936 4.9437 -3.15935 0
M  V30 2902 C 251.288 5.15355 -3.66867 0
M  V30 2903 C 249.952 5.31528 -4.03776 0
M  V30 2904 H 249.222 0.737023 -0.0766668 0
M  V30 2905 H 251.869 1.70067 -0.880312 0
M  V30 2906 H 250.174 3.87892 0.551969 0
M  V30 2907 H 251.871 4.00588 0.181793 0
M  V30 2908 H 248.461 4.10004 -1.24877 0
M  V30 2909 H 252.645 4.46968 -2.15717 0
M  V30 2910 H 247.901 5.05076 -3.44541 0
M  V30 2911 H 252.075 5.43402 -4.35531 0
M  V30 2912 H 249.702 5.72199 -5.00492 0
M  V30 2913 N 251.277 0.427512 1.51691 0
M  V30 2914 C 252.502 -0.143601 2.06902 0
M  V30 2915 C 252.927 -1.36536 1.29382 0
M  V30 2916 O 252.285 -1.78289 0.329043 0
M  V30 2917 C 252.333 -0.454207 3.57728 0
M  V30 2918 O 251.437 -1.54228 3.82475 0
M  V30 2919 H 250.778 -0.00617128 0.663971 0
M  V30 2920 H 253.308 0.606014 1.95419 0
M  V30 2921 H 253.318 -0.707525 4.01818 0
M  V30 2922 H 251.993 0.438812 4.13579 0
M  V30 2923 H 250.57 -1.2797 3.50254 0
M  V30 2924 N 252.755 -1.56801 0.158532 0
M  V30 2925 C 253.718 -2.16138 -0.762705 0
M  V30 2926 C 254.718 -1.1061 -1.16713 0
M  V30 2927 O 255.908 -1.36191 -1.08617 0
M  V30 2928 C 253.04 -2.73386 -2.03649 0
M  V30 2929 H 254.233 -2.98886 -0.246354 0
M  V30 2930 H 251.786 -1.56035 -0.0909744 0
M  V30 2931 H 252.521 -1.94335 -2.59623 0
M  V30 2932 H 252.306 -3.50601 -1.75559 0
M  V30 2933 H 253.796 -3.19065 -2.6942 0
M  V30 2934 N 254.233 0.115231 -1.57178 0
M  V30 2935 C 255.463 0.835224 -1.88964 0
M  V30 2936 C 255.871 1.73774 -0.74829 0
M  V30 2937 O 255.214 1.81401 0.289739 0
M  V30 2938 C 255.276 1.7178 -3.15804 0
M  V30 2939 C 254.94 0.989198 -4.46166 0
M  V30 2940 C 255.937 0.328263 -5.18863 0
M  V30 2941 C 253.622 0.969256 -4.9286 0
M  V30 2942 C 255.616 -0.342873 -6.36477 0
M  V30 2943 C 253.303 0.294324 -6.10391 0
M  V30 2944 C 254.301 -0.360582 -6.82048 0
M  V30 2945 O 253.989 -1.02474 -7.97342 0
M  V30 2946 H 253.721 0.245197 -0.629964 0
M  V30 2947 H 256.275 0.10303 -2.05141 0
M  V30 2948 H 254.505 2.49173 -2.95719 0
M  V30 2949 H 256.194 2.31255 -3.33581 0
M  V30 2950 H 256.96 0.335263 -4.8384 0
M  V30 2951 H 252.839 1.46844 -4.36987 0
M  V30 2952 H 256.383 -0.854629 -6.92345 0
M  V30 2953 H 252.28 0.285099 -6.4487 0
M  V30 2954 H 253.048 -0.929594 -8.13204 0
M  V30 2955 N 255.711 1.52812 0.385517 0
M  V30 2956 C 256.658 1.77838 1.47113 0
M  V30 2957 C 257.628 0.621757 1.54024 0
M  V30 2958 O 258.813 0.861846 1.70226 0
M  V30 2959 C 255.953 1.95618 2.84302 0
M  V30 2960 C 255.066 3.23316 2.86515 0
M  V30 2961 C 254.201 3.31394 4.15152 0
M  V30 2962 C 253.24 4.53201 4.1143 0
M  V30 2963 N 252.377 4.58542 5.3168 0
M  V30 2964 H 257.217 2.70482 1.25073 0
M  V30 2965 H 254.754 1.34006 0.606692 0
M  V30 2966 H 256.712 2.03912 3.63972 0
M  V30 2967 H 255.342 1.06331 3.04784 0
M  V30 2968 H 254.394 3.24076 1.99195 0
M  V30 2969 H 255.706 4.13045 2.79634 0
M  V30 2970 H 254.86 3.3889 5.03228 0
M  V30 2971 H 253.599 2.39645 4.24761 0
M  V30 2972 H 252.604 4.45827 3.21742 0
M  V30 2973 H 253.829 5.46271 4.03442 0
M  V30 2974 H 251.775 3.69686 5.41912 0
M  V30 2975 H 251.692 5.42148 5.26889 0
M  V30 2976 H 252.96 4.70296 6.21644 0
M  V30 2977 N 257.189 -0.644168 1.43834 0
M  V30 2978 C 258.417 -1.43147 1.49387 0
M  V30 2979 C 258.832 -1.88452 0.114583 0
M  V30 2980 O 258.189 -1.60047 -0.876989 0
M  V30 2981 C 258.24 -2.66046 2.44748 0
M  V30 2982 O 257.961 -2.22633 3.77314 0
M  V30 2983 C 259.462 -3.59311 2.59635 0
M  V30 2984 H 256.682 -0.439447 0.507077 0
M  V30 2985 H 259.226 -0.78895 1.88669 0
M  V30 2986 H 257.381 -3.26418 2.08638 0
M  V30 2987 H 257.795 -3.02216 4.28679 0
M  V30 2988 H 259.269 -4.42187 3.30416 0
M  V30 2989 H 259.746 -4.07259 1.64427 0
M  V30 2990 H 260.352 -3.04816 2.96593 0
M  V30 2991 N 258.668 -1.30515 -0.883378 0
M  V30 2992 C 259.896 -1.22359 -1.66841 0
M  V30 2993 C 260.311 0.213296 -1.87591 0
M  V30 2994 O 259.668 1.14075 -1.42454 0
M  V30 2995 C 259.719 -1.95011 -3.04389 0
M  V30 2996 O 259.44 -3.3309 -2.84575 0
M  V30 2997 C 260.941 -1.93532 -3.98824 0
M  V30 2998 H 258.161 -0.423371 -0.520575 0
M  V30 2999 H 260.705 -1.72167 -1.10357 0
M  V30 3000 H 258.86 -1.48997 -3.57601 0
M  V30 3001 H 259.274 -3.69907 -3.71846 0
M  V30 3002 H 260.748 -2.48902 -4.92699 0
M  V30 3003 H 261.225 -0.914627 -4.29571 0
M  V30 3004 H 261.831 -2.39364 -3.51547 0
M  V30 3005 N 260.146 1.09593 -1.13257 0
M  V30 3006 C 261.374 1.855 -0.916378 0
M  V30 3007 C 261.789 1.81069 0.534738 0
M  V30 3008 O 261.146 1.20562 1.37007 0
M  V30 3009 C 261.197 3.33546 -1.39388 0
M  V30 3010 O 260.918 3.37927 -2.78813 0
M  V30 3011 C 262.419 4.26299 -1.21588 0
M  V30 3012 H 259.639 0.585991 -0.326887 0
M  V30 3013 H 262.183 1.38488 -1.5047 0
M  V30 3014 H 260.338 3.77992 -0.848597 0
M  V30 3015 H 260.752 4.30254 -2.9997 0
M  V30 3016 H 262.226 5.28341 -1.59876 0
M  V30 3017 H 262.703 4.38918 -0.157376 0
M  V30 3018 H 263.309 3.87668 -1.7491 0
M  V30 3019 N 261.624 0.925811 1.2754 0
M  V30 3020 C 262.571 0.422045 2.26908 0
M  V30 3021 C 263.541 -0.510029 1.58076 0
M  V30 3022 O 264.726 -0.429599 1.85901 0
M  V30 3023 C 261.866 -0.320837 3.43605 0
M  V30 3024 C 260.979 0.64513 4.27156 0
M  V30 3025 C 260.114 -0.117405 5.3107 0
M  V30 3026 C 259.153 0.841391 6.0629 0
M  V30 3027 N 258.29 0.111604 7.02011 0
M  V30 3028 H 263.13 1.27441 2.69375 0
M  V30 3029 H 260.667 0.639697 1.32462 0
M  V30 3030 H 262.625 -0.76785 4.10073 0
M  V30 3031 H 261.255 -1.13745 3.02096 0
M  V30 3032 H 260.307 1.21067 3.6062 0
M  V30 3033 H 261.619 1.37797 4.79389 0
M  V30 3034 H 260.773 -0.624422 6.03478 0
M  V30 3035 H 259.512 -0.883219 4.79636 0
M  V30 3036 H 258.517 1.35967 5.32722 0
M  V30 3037 H 259.742 1.60696 6.59813 0
M  V30 3038 H 257.688 -0.635999 6.5291 0
M  V30 3039 H 257.605 0.784044 7.51923 0
M  V30 3040 H 258.873 -0.374823 7.78598 0
M  V30 3041 N 263.102 -1.41638 0.69111 0
M  V30 3042 C 264.379 -1.95036 0.148421 0
M  V30 3043 C 264.759 -1.63072 -1.34055 0
M  V30 3044 O 264.107 -0.93538 -2.08478 0
M  V30 3045 C 264.317 -3.46279 0.434951 0
M  V30 3046 C 265.665 -4.23069 0.360275 0
M  V30 3047 O 266.689 -3.54277 0.369613 0
M  V30 3048 O 265.548 -5.45583 0.316534 0
M  V30 3049 H 262.642 -0.826908 0.0123654 0
M  V30 3050 H 265.188 -1.5138 0.766963 0
M  V30 3051 H 263.96 -3.6281 1.46576 0
M  V30 3052 H 263.583 -3.97019 -0.214787 0
M  V30 3053 N 264.58 -0.43555 -1.51462 0
M  V30 3054 C 265.528 0.391205 -2.29287 0
M  V30 3055 C 266.522 1.02247 -1.35062 0
M  V30 3056 O 267.728 0.957646 -1.52411 0
M  V30 3057 H 264.103 0.144968 -0.737895 0
M  V30 3058 H 266.074 -0.286051 -2.97026 0
M  V30 3059 C 264.823 1.48096 -3.14583 0
M  V30 3060 H 264.146 1.00457 -3.86973 0
M  V30 3061 H 265.586 2.03273 -3.72097 0
M  V30 3062 C 264.045 2.46321 -2.29843 0
M  V30 3063 O 264.575 3.50815 -1.95682 0
M  V30 3064 N 262.781 2.17166 -1.931 0
M  V30 3065 H 262.328 1.32218 -2.21079 0
M  V30 3066 H 262.286 2.83127 -1.36698 0
M  V30 3067 N 266.058 1.56714 -0.166846 0
M  V30 3068 C 267.288 2.00828 0.48494 0
M  V30 3069 C 267.696 1.04612 1.57648 0
M  V30 3070 O 267.039 0.0383201 1.8366 0
M  V30 3071 C 267.101 3.4137 1.12723 0
M  V30 3072 C 266.765 4.56654 0.177886 0
M  V30 3073 C 267.762 5.16402 -0.60207 0
M  V30 3074 C 265.447 5.02244 0.0750139 0
M  V30 3075 C 267.441 6.20167 -1.47215 0
M  V30 3076 C 265.128 6.05859 -0.798649 0
M  V30 3077 C 266.126 6.64691 -1.57082 0
M  V30 3078 O 265.814 7.66297 -2.42989 0
M  V30 3079 H 265.546 0.663587 0.128953 0
M  V30 3080 H 268.1 2.03692 -0.264365 0
M  V30 3081 H 266.33 3.35406 1.92457 0
M  V30 3082 H 268.019 3.69466 1.68076 0
M  V30 3083 H 268.785 4.82065 -0.53274 0
M  V30 3084 H 264.664 4.56167 0.665812 0
M  V30 3085 H 268.208 6.66016 -2.07531 0
M  V30 3086 H 264.105 6.39621 -0.869199 0
M  V30 3087 H 264.873 7.83601 -2.36455 0
M  V30 3088 N 267.536 -0.106894 1.57237 0
M  V30 3089 C 268.785 -0.811163 1.8467 0
M  V30 3090 C 269.098 -1.80469 0.754342 0
M  V30 3091 O 270.304 -2.55601 0.915439 0
M  V30 3092 C 268.76 -1.49337 3.27454 0
M  V30 3093 C 268.368 -0.540217 4.44731 0
M  V30 3094 C 270.112 -2.18206 3.64124 0
M  V30 3095 C 268.019 -1.22634 5.78545 0
M  V30 3096 H 266.949 -0.306679 0.688813 0
M  V30 3097 H 269.6 -0.0639887 1.83388 0
M  V30 3098 H 267.982 -2.2876 3.23241 0
M  V30 3099 H 269.156 0.221659 4.60267 0
M  V30 3100 H 267.471 0.042146 4.16379 0
M  V30 3101 H 270.068 -2.70253 4.61376 0
M  V30 3102 H 270.411 -2.96562 2.92158 0
M  V30 3103 H 270.944 -1.45658 3.70174 0
M  V30 3104 H 267.683 -0.483832 6.53712 0
M  V30 3105 H 267.203 -1.95993 5.66874 0
M  V30 3106 H 268.882 -1.75615 6.2271 0
M  V30 3107 N 269.014 -1.53014 -0.377408 0
M  V30 3108 C 270.43 -1.42523 -0.718281 0
M  V30 3109 C 270.63 -0.55487 -1.9371 0
M  V30 3110 O 269.686 -0.0327593 -2.52479 0
M  V30 3111 C 270.999 -2.85546 -0.942539 0
M  V30 3112 C 272.547 -2.95101 -1.04329 0
M  V30 3113 C 273.022 -4.3916 -1.3001 0
M  V30 3114 N 274.513 -4.42536 -1.36806 0
M  V30 3115 C 275.248 -5.51097 -1.58364 0
M  V30 3116 N 274.744 -6.69724 -1.77317 0
M  V30 3117 N 276.537 -5.38657 -1.60638 0
M  V30 3118 H 268.688 -2.08116 0.424426 0
M  V30 3119 H 270.951 -0.939352 0.127759 0
M  V30 3120 H 270.657 -3.51499 -0.118929 0
M  V30 3121 H 270.531 -3.28493 -1.85397 0
M  V30 3122 H 272.918 -2.29309 -1.85745 0
M  V30 3123 H 272.999 -2.55566 -0.109505 0
M  V30 3124 H 272.643 -5.05521 -0.490991 0
M  V30 3125 H 272.573 -4.76258 -2.24691 0
M  V30 3126 H 275.064 -3.57039 -1.23821 0
M  V30 3127 H 275.377 -7.48233 -1.93306 0
M  V30 3128 H 273.722 -6.72732 -1.74518 0
M  V30 3129 H 276.913 -4.44948 -1.45391 0
M  V30 3130 H 277.086 -6.2333 -1.77098 0
M  V30 3131 N 270.492 0.636531 -1.44174 0
M  V30 3132 C 271.72 1.42353 -1.50144 0
M  V30 3133 C 272.135 1.88389 -0.124575 0
M  V30 3134 O 271.492 1.6051 0.868489 0
M  V30 3135 C 271.543 2.64744 -2.46156 0
M  V30 3136 O 271.264 2.20629 -3.7849 0
M  V30 3137 C 272.765 3.57929 -2.61537 0
M  V30 3138 H 269.985 0.436752 -0.5094 0
M  V30 3139 H 272.529 0.778933 -1.89084 0
M  V30 3140 H 270.684 3.25307 -2.10366 0
M  V30 3141 H 271.098 2.99938 -4.30276 0
M  V30 3142 H 272.572 4.40428 -3.32757 0
M  V30 3143 H 273.049 4.06382 -1.66585 0
M  V30 3144 H 273.655 3.03238 -2.98206 0
M  V30 3145 N 271.97 1.30982 0.876444 0
M  V30 3146 C 273.247 1.10942 1.61094 0
M  V30 3147 C 273.627 -0.338223 2.08373 0
M  V30 3148 O 272.975 -1.33122 1.85717 0
M  V30 3149 C 273.185 2.11789 2.77392 0
M  V30 3150 C 274.533 2.43965 3.47514 0
M  V30 3151 O 275.557 2.10166 2.87591 0
M  V30 3152 O 274.416 3.01817 4.55597 0
M  V30 3153 H 271.51 0.42667 0.708436 0
M  V30 3154 H 274.056 1.42438 0.922474 0
M  V30 3155 H 272.828 3.09194 2.39823 0
M  V30 3156 H 272.451 1.81161 3.5393 0
M  V30 3157 N 273.449 -1.08991 1.13837 0
M  V30 3158 C 274.696 -1.81258 0.902882 0
M  V30 3159 C 275.024 -1.85936 -0.570803 0
M  V30 3160 O 274.279 -1.3267 -1.43865 0
M  V30 3161 C 274.578 -3.27042 1.44147 0
M  V30 3162 C 274.244 -3.4249 2.93276 0
M  V30 3163 C 272.906 -3.46414 3.33992 0
M  V30 3164 C 275.258 -3.4666 3.892 0
M  V30 3165 C 272.586 -3.52091 4.69307 0
M  V30 3166 C 274.938 -3.53872 5.24364 0
M  V30 3167 C 273.602 -3.56066 5.646 0
M  V30 3168 H 272.872 -0.663268 0.330388 0
M  V30 3169 H 275.519 -1.28368 1.42105 0
M  V30 3170 H 273.824 -3.82599 0.844097 0
M  V30 3171 H 275.521 -3.81499 1.23528 0
M  V30 3172 H 272.111 -3.40124 2.60794 0
M  V30 3173 H 276.295 -3.42865 3.58828 0
M  V30 3174 H 271.551 -3.52079 4.9985 0
M  V30 3175 H 275.725 -3.56043 5.98503 0
M  V30 3176 H 273.352 -3.60218 6.69438 0
M  V30 3177 N 274.927 -0.932562 -1.27047 0
M  V30 3178 C 275.837 -0.441219 -2.30414 0
M  V30 3179 C 276.853 0.480525 -1.67233 0
M  V30 3180 O 278.029 0.362151 -1.98117 0
M  V30 3181 C 275.094 0.293651 -3.45454 0
M  V30 3182 C 274.155 -0.663601 -4.2414 0
M  V30 3183 C 273.388 0.0362932 -5.33688 0
M  V30 3184 O 273.611 1.2548 -5.56427 0
M  V30 3185 O 272.545 -0.638015 -5.98509 0
M  V30 3186 H 276.371 -1.29962 -2.74488 0
M  V30 3187 H 273.956 -0.6981 -1.32087 0
M  V30 3188 H 275.838 0.707951 -4.15411 0
M  V30 3189 H 274.513 1.12758 -3.03426 0
M  V30 3190 H 273.42 -1.12768 -3.56699 0
M  V30 3191 H 274.753 -1.46489 -4.69896 0
M  V30 3192 N 276.405 1.4127 -0.698611 0
M  V30 3193 C 277.353 2.32588 -0.023855 0
M  V30 3194 C 278.347 1.51128 0.765292 0
M  V30 3195 O 279.553 1.67043 0.670571 0
M  V30 3196 H 275.928 0.751918 0.0110871 0
M  V30 3197 H 277.899 2.87167 -0.811031 0
M  V30 3198 C 276.648 3.35947 0.896369 0
M  V30 3199 H 275.971 3.98684 0.298548 0
M  V30 3200 H 277.411 4.02376 1.33676 0
M  V30 3201 C 275.87 2.70076 2.01396 0
M  V30 3202 O 276.4 2.55093 3.10307 0
M  V30 3203 N 274.606 2.28724 1.79259 0
M  V30 3204 H 274.153 2.4111 0.906841 0
M  V30 3205 H 274.111 1.84986 2.54219 0
M  V30 3206 N 277.883 0.443576 1.51229 0
M  V30 3207 C 279.16 -0.181038 1.9476 0
M  V30 3208 C 279.54 -1.59523 1.38259 0
M  V30 3209 O 278.888 -2.2122 0.572198 0
M  V30 3210 C 279.098 -0.152422 3.48667 0
M  V30 3211 C 280.446 -0.354923 4.23114 0
M  V30 3212 O 281.47 -0.230257 3.55455 0
M  V30 3213 O 280.329 -0.603674 5.43156 0
M  V30 3214 H 277.423 -0.1266 0.817252 0
M  V30 3215 H 279.969 0.502004 1.62105 0
M  V30 3216 H 278.741 0.836022 3.82265 0
M  V30 3217 H 278.364 -0.878107 3.87782 0
M  V30 3218 N 279.361 -1.56624 0.175154 0
M  V30 3219 C 280.293 -2.15333 -0.785128 0
M  V30 3220 C 281.306 -1.1099 -1.19101 0
M  V30 3221 O 282.495 -1.38162 -1.13019 0
M  V30 3222 C 279.595 -2.68427 -2.06882 0
M  V30 3223 C 278.768 -3.97466 -1.8259 0
M  V30 3224 C 277.827 -4.35585 -2.95215 0
M  V30 3225 O 276.853 -5.03389 -2.65684 0
M  V30 3226 N 278.055 -3.97457 -4.23094 0
M  V30 3227 H 280.82 -2.98359 -0.283187 0
M  V30 3228 H 278.381 -1.61898 -0.00749817 0
M  V30 3229 H 280.373 -2.90924 -2.81328 0
M  V30 3230 H 278.943 -1.89968 -2.48256 0
M  V30 3231 H 278.163 -3.83307 -0.920287 0
M  V30 3232 H 279.451 -4.81736 -1.63733 0
M  V30 3233 H 278.849 -3.42878 -4.49945 0
M  V30 3234 H 277.406 -4.24947 -4.9423 0
M  V30 3235 N 280.839 0.0985539 -1.57292 0
M  V30 3236 C 282.116 0.834155 -1.76921 0
M  V30 3237 C 282.496 1.97101 -0.755928 0
M  V30 3238 O 281.844 2.27474 0.216245 0
M  V30 3239 C 282.054 1.33194 -3.22584 0
M  V30 3240 C 283.402 1.77611 -3.85668 0
M  V30 3241 O 284.426 1.42825 -3.26312 0
M  V30 3242 O 283.285 2.4192 -4.90038 0
M  V30 3243 H 280.379 0.397628 -0.725135 0
M  V30 3244 H 282.925 0.0807044 -1.69508 0
M  V30 3245 H 281.697 0.517248 -3.87866 0
M  V30 3246 H 281.32 2.1475 -3.34616 0
M  V30 3247 N 282.317 1.53212 0.369288 0
M  V30 3248 C 283.547 1.72868 1.13139 0
M  V30 3249 C 283.955 0.455754 1.83629 0
M  V30 3250 O 283.298 -0.580861 1.74275 0
M  V30 3251 C 283.36 2.83667 2.20847 0
M  V30 3252 C 283.024 4.24142 1.70155 0
M  V30 3253 C 284.021 5.06619 1.16763 0
M  V30 3254 C 281.706 4.70539 1.7578 0
M  V30 3255 C 283.7 6.33581 0.696678 0
M  V30 3256 C 281.387 5.97481 1.28297 0
M  V30 3257 C 282.385 6.78833 0.753307 0
M  V30 3258 O 282.073 8.03393 0.285475 0
M  V30 3259 H 281.805 0.581707 0.344373 0
M  V30 3260 H 284.359 2.00736 0.435243 0
M  V30 3261 H 282.589 2.51265 2.93944 0
M  V30 3262 H 284.278 2.91536 2.82421 0
M  V30 3263 H 285.044 4.71948 1.11758 0
M  V30 3264 H 280.923 4.07293 2.15949 0
M  V30 3265 H 284.467 6.97027 0.282581 0
M  V30 3266 H 280.364 6.31651 1.32994 0
M  V30 3267 H 281.132 8.17497 0.405145 0
M  V30 3268 N 283.795 -0.628877 1.44509 0
M  V30 3269 C 284.727 -1.754 1.47538 0
M  V30 3270 C 285.74 -1.58575 0.368506 0
M  V30 3271 O 286.929 -1.66847 0.634376 0
M  V30 3272 C 284.029 -3.1315 1.29577 0
M  V30 3273 C 283.202 -3.56413 2.53551 0
M  V30 3274 C 282.261 -4.7305 2.30457 0
M  V30 3275 O 281.287 -4.81247 3.03957 0
M  V30 3276 N 282.489 -5.64903 1.3366 0
M  V30 3277 H 285.254 -1.73272 2.44534 0
M  V30 3278 H 282.815 -0.813512 1.39977 0
M  V30 3279 H 284.807 -3.88902 1.11971 0
M  V30 3280 H 283.377 -3.09908 0.409371 0
M  V30 3281 H 282.597 -2.70847 2.86419 0
M  V30 3282 H 283.885 -3.82071 3.36005 0
M  V30 3283 H 283.283 -5.60975 0.729604 0
M  V30 3284 H 281.84 -6.40275 1.22032 0
M  V30 3285 N 285.273 -1.31445 -0.869486 0
M  V30 3286 C 286.205 -1.14955 -1.98287 0
M  V30 3287 C 287.218 -0.0885037 -1.62559 0
M  V30 3288 O 288.407 -0.336044 -1.75308 0
M  V30 3289 C 285.507 -0.734255 -3.3085 0
M  V30 3290 C 284.68 -1.88042 -3.94917 0
M  V30 3291 C 283.739 -1.4511 -5.05796 0
M  V30 3292 O 282.765 -2.16082 -5.2659 0
M  V30 3293 N 283.967 -0.338763 -5.79511 0
M  V30 3294 H 286.732 -2.10856 -2.12979 0
M  V30 3295 H 284.293 -1.23786 -1.04349 0
M  V30 3296 H 286.285 -0.42975 -4.02412 0
M  V30 3297 H 284.855 0.133158 -3.12316 0
M  V30 3298 H 284.075 -2.35222 -3.1633 0
M  V30 3299 H 285.363 -2.6481 -4.34457 0
M  V30 3300 H 284.761 0.252274 -5.65137 0
M  V30 3301 H 283.318 -0.0937925 -6.51733 0
M  V30 3302 N 286.751 1.08385 -1.14413 0
M  V30 3303 C 287.998 1.80776 -0.912482 0
M  V30 3304 C 288.326 1.86236 0.560934 0
M  V30 3305 O 287.581 1.33431 1.43159 0
M  V30 3306 C 287.88 3.26273 -1.45879 0
M  V30 3307 C 287.546 3.4093 -2.95089 0
M  V30 3308 C 286.208 3.44638 -3.35824 0
M  V30 3309 C 288.56 3.44591 -3.91033 0
M  V30 3310 C 285.888 3.49597 -4.71167 0
M  V30 3311 C 288.24 3.51086 -5.26233 0
M  V30 3312 C 286.904 3.53067 -5.6648 0
M  V30 3313 H 286.174 0.661507 -0.333901 0
M  V30 3314 H 288.821 1.27613 -1.42784 0
M  V30 3315 H 287.126 3.82146 -0.864376 0
M  V30 3316 H 288.823 3.80839 -1.2555 0
M  V30 3317 H 285.413 3.38736 -2.62594 0
M  V30 3318 H 289.597 3.40957 -3.60641 0
M  V30 3319 H 284.853 3.49424 -5.0171 0
M  V30 3320 H 289.027 3.52864 -6.00383 0
M  V30 3321 H 286.654 3.56662 -6.71339 0
M  V30 3322 N 288.23 0.939286 1.26551 0
M  V30 3323 C 289.16 0.465044 2.28822 0
M  V30 3324 C 290.141 -0.480692 1.63167 0
M  V30 3325 O 291.326 -0.382955 1.90387 0
M  V30 3326 C 288.456 -0.27234 3.46231 0
M  V30 3327 C 287.41 0.58666 4.2396 0
M  V30 3328 C 286.736 -0.280573 5.33963 0
M  V30 3329 C 288.036 1.85704 4.88171 0
M  V30 3330 H 289.73 1.31979 2.68741 0
M  V30 3331 H 287.276 0.636061 1.29191 0
M  V30 3332 H 289.229 -0.615133 4.16886 0
M  V30 3333 H 287.953 -1.16121 3.0526 0
M  V30 3334 H 286.612 0.91232 3.55067 0
M  V30 3335 H 286.26 -1.16874 4.89234 0
M  V30 3336 H 285.96 0.29076 5.8688 0
M  V30 3337 H 287.484 -0.618678 6.07458 0
M  V30 3338 H 288.898 1.58161 5.51052 0
M  V30 3339 H 287.295 2.37279 5.51197 0
M  V30 3340 H 288.365 2.56957 4.11219 0
M  V30 3341 N 289.708 -1.40897 0.706093 0
M  V30 3342 C 290.985 -1.94868 0.169099 0
M  V30 3343 C 291.365 -1.64485 -1.32318 0
M  V30 3344 O 290.713 -0.95744 -2.07474 0
M  V30 3345 C 290.923 -3.45798 0.471654 0
M  V30 3346 C 292.271 -4.22663 0.405127 0
M  V30 3347 O 293.295 -3.53865 0.407168 0
M  V30 3348 O 292.154 -5.45216 0.374383 0
M  V30 3349 H 289.248 -0.82673 0.0211352 0
M  V30 3350 H 291.794 -1.50558 0.782976 0
M  V30 3351 H 290.566 -3.61235 1.50416 0
M  V30 3352 H 290.189 -3.97225 -0.172666 0
M  V30 3353 N 291.186 -0.45159 -1.50991 0
M  V30 3354 C 292.096 0.358431 -2.31846 0
M  V30 3355 C 293.112 1.01438 -1.41373 0
M  V30 3356 O 294.288 1.00663 -1.74439 0
M  V30 3357 C 291.353 1.43704 -3.15515 0
M  V30 3358 C 290.414 0.799742 -4.21785 0
M  V30 3359 C 289.647 1.82696 -5.01456 0
M  V30 3360 O 289.87 3.05105 -4.81941 0
M  V30 3361 O 288.804 1.40958 -5.85162 0
M  V30 3362 H 292.63 -0.302032 -3.02194 0
M  V30 3363 H 290.215 -0.213825 -1.47862 0
M  V30 3364 H 292.097 2.06227 -3.67489 0
M  V30 3365 H 290.772 2.08133 -2.47916 0
M  V30 3366 H 289.679 0.136084 -3.73852 0
M  V30 3367 H 291.012 0.198718 -4.91799 0
M  V30 3368 N 292.664 1.56529 -0.183458 0
M  V30 3369 C 293.892 2.01623 0.464285 0
M  V30 3370 C 294.307 1.06366 1.55986 0
M  V30 3371 O 293.664 0.0665398 1.82379 0
M  V30 3372 C 293.715 3.46475 1.03139 0
M  V30 3373 O 293.436 4.38095 -0.0204675 0
M  V30 3374 C 294.937 4.0703 1.75617 0
M  V30 3375 H 292.157 0.660596 0.117704 0
M  V30 3376 H 294.701 2.02451 -0.288751 0
M  V30 3377 H 292.856 3.46383 1.73486 0
M  V30 3378 H 293.27 5.22973 0.399952 0
M  V30 3379 H 294.744 5.10271 2.10542 0
M  V30 3380 H 295.221 3.49819 2.65563 0
M  V30 3381 H 295.827 4.1086 1.09882 0
M  V30 3382 N 294.142 -0.090211 1.57342 0
M  V30 3383 C 295.089 -1.10909 2.02405 0
M  V30 3384 C 296.059 -1.39523 0.901252 0
M  V30 3385 O 297.244 -1.50903 1.1676 0
M  V30 3386 C 294.384 -2.42277 2.45755 0
M  V30 3387 C 293.497 -2.20352 3.71576 0
M  V30 3388 C 292.632 -3.45154 4.03785 0
M  V30 3389 C 291.671 -3.18512 5.22701 0
M  V30 3390 N 290.808 -4.35593 5.50639 0
M  V30 3391 H 295.648 -0.71782 2.89225 0
M  V30 3392 H 293.185 -0.342901 1.43048 0
M  V30 3393 H 295.143 -3.18951 2.68935 0
M  V30 3394 H 293.773 -2.79242 1.61938 0
M  V30 3395 H 292.825 -1.34458 3.55844 0
M  V30 3396 H 294.137 -1.96661 4.58395 0
M  V30 3397 H 293.291 -4.30233 4.27767 0
M  V30 3398 H 292.03 -3.71904 3.15498 0
M  V30 3399 H 291.035 -2.31827 4.98534 0
M  V30 3400 H 292.26 -2.93103 6.12591 0
M  V30 3401 H 290.206 -4.6241 4.6531 0
M  V30 3402 H 290.123 -4.1511 6.31838 0
M  V30 3403 H 291.391 -5.21723 5.7916 0
M  V30 3404 N 295.62 -1.53406 -0.361157 0
M  V30 3405 C 297.036 -1.43277 -0.703124 0
M  V30 3406 C 297.236 -0.575384 -1.9311 0
M  V30 3407 O 296.292 -0.0595362 -2.5243 0
M  V30 3408 C 297.605 -2.8653 -0.9122 0
M  V30 3409 C 299.153 -2.96191 -1.01193 0
M  V30 3410 C 299.628 -4.40514 -1.25345 0
M  V30 3411 N 301.119 -4.43962 -1.32105 0
M  V30 3412 C 301.854 -5.52746 -1.5251 0
M  V30 3413 N 301.35 -6.71567 -1.70203 0
M  V30 3414 N 303.143 -5.40331 -1.54916 0
M  V30 3415 H 295.294 -2.07654 0.446475 0
M  V30 3416 H 297.557 -0.937944 0.137715 0
M  V30 3417 H 297.263 -3.51605 -0.0816414 0
M  V30 3418 H 297.137 -3.30441 -1.81903 0
M  V30 3419 H 299.524 -2.31266 -1.83303 0
M  V30 3420 H 299.605 -2.55667 -0.0823929 0
M  V30 3421 H 299.249 -5.06014 -0.437346 0
M  V30 3422 H 299.179 -4.78614 -2.19627 0
M  V30 3423 H 301.67 -3.58332 -1.20028 0
M  V30 3424 H 301.983 -7.50241 -1.85359 0
M  V30 3425 H 300.328 -6.74545 -1.67373 0
M  V30 3426 H 303.519 -4.46465 -1.40663 0
M  V30 3427 H 303.692 -6.25173 -1.70477 0
M  V30 3428 N 297.098 0.621204 -1.44841 0
M  V30 3429 C 298.045 1.73267 -1.5247 0
M  V30 3430 C 299.015 1.6189 -0.371611 0
M  V30 3431 O 300.2 1.81668 -0.58321 0
M  V30 3432 C 297.34 3.11545 -1.48438 0
M  V30 3433 C 296.453 3.33827 -2.74196 0
M  V30 3434 C 295.588 4.62133 -2.61929 0
M  V30 3435 C 294.627 4.77627 -3.82804 0
M  V30 3436 N 293.764 5.97219 -3.69153 0
M  V30 3437 H 298.604 1.66082 -2.47428 0
M  V30 3438 H 296.141 0.810026 -1.22788 0
M  V30 3439 H 298.099 3.91528 -1.4409 0
M  V30 3440 H 296.729 3.1772 -0.570402 0
M  V30 3441 H 295.781 2.47715 -2.88689 0
M  V30 3442 H 297.093 3.41153 -3.6389 0
M  V30 3443 H 296.247 5.50291 -2.5547 0
M  V30 3444 H 294.986 4.57182 -1.69811 0
M  V30 3445 H 293.991 3.87896 -3.89637 0
M  V30 3446 H 295.216 4.84385 -4.75971 0
M  V30 3447 H 293.162 5.93339 -2.79794 0
M  V30 3448 H 293.079 6.05644 -4.52472 0
M  V30 3449 H 294.347 6.87912 -3.66603 0
M  V30 3450 N 298.576 1.31904 0.862503 0
M  V30 3451 C 299.801 1.25135 1.65397 0
M  V30 3452 C 300.226 -0.179 1.87246 0
M  V30 3453 O 299.584 -1.1277 1.4196 0
M  V30 3454 C 299.632 2.00832 2.99498 0
M  V30 3455 O 298.736 1.35075 3.89652 0
M  V30 3456 H 298.077 0.431655 0.504549 0
M  V30 3457 H 300.607 1.74094 1.07483 0
M  V30 3458 H 300.617 2.10709 3.49379 0
M  V30 3459 H 299.292 3.04847 2.82916 0
M  V30 3460 H 297.869 1.33696 3.48109 0
M  V30 3461 N 300.054 -1.07777 1.14986 0
M  V30 3462 C 301.3 -1.80557 0.923422 0
M  V30 3463 C 301.633 -1.86298 -0.548337 0
M  V30 3464 O 300.908 -1.34354 -1.40639 0
M  V30 3465 C 301.191 -3.25839 1.53299 0
M  V30 3466 C 301.044 -3.28269 3.07505 0
M  V30 3467 C 302.363 -4.22991 1.21518 0
M  V30 3468 H 299.482 -0.655493 0.336894 0
M  V30 3469 H 302.124 -1.26144 1.42083 0
M  V30 3470 H 300.274 -3.72306 1.10999 0
M  V30 3471 H 301.946 -2.90079 3.58681 0
M  V30 3472 H 300.189 -2.67355 3.4162 0
M  V30 3473 H 300.86 -4.30691 3.45266 0
M  V30 3474 H 303.336 -3.84894 1.581 0
M  V30 3475 H 302.212 -5.22945 1.66793 0
M  V30 3476 H 302.473 -4.41904 0.131505 0
M  V30 3477 N 301.532 -0.945985 -1.26051 0
M  V30 3478 C 302.781 -0.591836 -1.92822 0
M  V30 3479 C 303.094 0.873956 -1.7499 0
M  V30 3480 O 304.3 1.33769 -2.36259 0
M  V30 3481 C 302.756 -1.00776 -3.45503 0
M  V30 3482 C 302.364 -2.4955 -3.7206 0
M  V30 3483 C 304.108 -0.725735 -4.1825 0
M  V30 3484 C 302.015 -2.84988 -5.18205 0
M  V30 3485 H 300.945 -0.217635 -0.721908 0
M  V30 3486 H 303.596 -1.14927 -1.43052 0
M  V30 3487 H 301.978 -0.378812 -3.94184 0
M  V30 3488 H 303.152 -3.1739 -3.34066 0
M  V30 3489 H 301.467 -2.75133 -3.12555 0
M  V30 3490 H 304.064 -0.966771 -5.25887 0
M  V30 3491 H 304.407 0.337639 -4.14929 0
M  V30 3492 H 304.94 -1.31463 -3.7545 0
M  V30 3493 H 301.679 -3.90307 -5.26631 0
M  V30 3494 H 301.199 -2.21813 -5.57278 0
M  V30 3495 H 302.878 -2.73712 -5.86252 0
M  V30 3496 N 303.011 1.40521 -0.713556 0
M  V30 3497 C 303.959 2.32549 -0.0485227 0
M  V30 3498 C 304.953 1.51931 0.74922 0
M  V30 3499 O 306.159 1.67745 0.652816 0
M  V30 3500 H 302.534 0.751994 0.00311138 0
M  V30 3501 H 304.505 2.86291 -0.841443 0
M  V30 3502 C 303.254 3.36879 0.860687 0
M  V30 3503 H 302.577 3.98978 0.256246 0
M  V30 3504 H 304.017 4.03772 1.294 0
M  V30 3505 C 302.476 2.72197 1.9852 0
M  V30 3506 O 303.006 2.5837 3.07584 0
M  V30 3507 N 301.212 2.30612 1.76823 0
M  V30 3508 H 300.759 2.42059 0.881217 0
M  V30 3509 H 300.717 1.87672 2.52243 0
M  V30 3510 N 304.489 0.459591 1.5075 0
M  V30 3511 C 305.714 -0.0996819 2.0716 0
M  V30 3512 C 306.139 -1.33761 1.32249 0
M  V30 3513 O 305.497 -1.77551 0.366786 0
M  V30 3514 C 305.545 -0.378226 3.58611 0
M  V30 3515 O 304.649 -1.46081 3.85661 0
M  V30 3516 H 303.99 0.00791392 0.663953 0
M  V30 3517 H 306.52 0.647329 1.9409 0
M  V30 3518 H 306.53 -0.622135 4.03229 0
M  V30 3519 H 305.205 0.526439 4.12555 0
M  V30 3520 H 303.782 -1.20511 3.5289 0
M  V30 3521 N 305.967 -1.56429 0.191757 0
M  V30 3522 C 307.244 -1.89224 -0.495332 0
M  V30 3523 C 307.624 -1.10478 -1.79883 0
M  V30 3524 O 306.972 -0.204852 -2.2758 0
M  V30 3525 C 307.182 -3.41548 -0.717367 0
M  V30 3526 C 308.53 -4.11711 -1.03823 0
M  V30 3527 O 309.554 -3.4698 -0.805204 0
M  V30 3528 O 308.413 -5.2611 -1.47887 0
M  V30 3529 H 305.507 -0.785788 -0.25781 0
M  V30 3530 H 308.053 -1.68111 0.231721 0
M  V30 3531 H 306.825 -3.90772 0.203287 0
M  V30 3532 H 306.448 -3.68342 -1.497 0
M  V30 3533 N 307.445 0.0818655 -1.57387 0
M  V30 3534 C 308.691 0.784074 -1.8703 0
M  V30 3535 C 309.024 1.77729 -0.782689 0
M  V30 3536 O 308.299 1.93384 0.208051 0
M  V30 3537 C 308.582 1.50105 -3.27323 0
M  V30 3538 C 308.435 0.524925 -4.46727 0
M  V30 3539 C 309.754 2.44843 -3.65705 0
M  V30 3540 H 306.873 0.283582 -0.680257 0
M  V30 3541 H 309.515 0.0474352 -1.89941 0
M  V30 3542 H 307.665 2.12897 -3.24972 0
M  V30 3543 H 309.337 -0.0970111 -4.61198 0
M  V30 3544 H 307.58 -0.160606 -4.33503 0
M  V30 3545 H 308.251 1.064 -5.41648 0
M  V30 3546 H 310.727 1.92135 -3.69085 0
M  V30 3547 H 309.603 2.92018 -4.64776 0
M  V30 3548 H 309.864 3.29197 -2.95096 0
M  V30 3549 N 308.923 1.53595 0.353017 0
M  V30 3550 C 309.871 1.81605 1.45335 0
M  V30 3551 C 310.865 0.685923 1.54892 0
M  V30 3552 O 312.071 0.869095 1.57628 0
M  V30 3553 H 308.446 0.575204 0.484401 0
M  V30 3554 H 310.417 2.73679 1.18921 0
M  V30 3555 C 309.166 2.03406 2.81995 0
M  V30 3556 H 308.489 2.89814 2.75405 0
M  V30 3557 H 309.929 2.26975 3.58132 0
M  V30 3558 C 308.388 0.816794 3.26849 0
M  V30 3559 O 308.918 0.0115856 4.01698 0
M  V30 3560 N 307.124 0.636682 2.8354 0
M  V30 3561 H 306.671 1.2931 2.22793 0
M  V30 3562 H 306.629 -0.176336 3.13905 0
M  V30 3563 N 310.401 -0.613514 1.45168 0
M  V30 3564 C 311.647 -1.37471 1.49096 0
M  V30 3565 C 311.98 -1.93765 0.129901 0
M  V30 3566 O 311.255 -1.74707 -0.854858 0
M  V30 3567 C 311.538 -2.52701 2.56542 0
M  V30 3568 C 311.391 -2.01643 4.0207 0
M  V30 3569 C 312.71 -3.54849 2.60327 0
M  V30 3570 H 309.829 -0.498502 0.54283 0
M  V30 3571 H 312.471 -0.692125 1.76945 0
M  V30 3572 H 310.621 -3.10931 2.32926 0
M  V30 3573 H 312.293 -1.48108 4.36877 0
M  V30 3574 H 310.536 -1.32688 4.13009 0
M  V30 3575 H 311.207 -2.84681 4.72928 0
M  V30 3576 H 313.683 -3.0645 2.81474 0
M  V30 3577 H 312.559 -4.32973 3.37381 0
M  V30 3578 H 312.82 -4.10079 1.6519 0
M  V30 3579 N 311.879 -1.3236 -0.855495 0
M  V30 3580 C 313.107 -1.2587 -1.64208 0
M  V30 3581 C 313.522 0.173457 -1.88002 0
M  V30 3582 O 312.879 1.11027 -1.44842 0
M  V30 3583 C 312.93 -2.01424 -3.00184 0
M  V30 3584 O 312.651 -3.39051 -2.77445 0
M  V30 3585 C 314.152 -2.01948 -3.94629 0
M  V30 3586 H 311.372 -0.434318 -0.511477 0
M  V30 3587 H 313.916 -1.74469 -1.0668 0
M  V30 3588 H 312.071 -1.56549 -3.5436 0
M  V30 3589 H 312.485 -3.77711 -3.63916 0
M  V30 3590 H 313.959 -2.59297 -4.87308 0
M  V30 3591 H 314.436 -1.00554 -4.27534 0
M  V30 3592 H 315.042 -2.46767 -3.4639 0
M  V30 3593 N 313.357 1.07166 -1.15556 0
M  V30 3594 C 314.603 1.80065 -0.932984 0
M  V30 3595 C 314.936 1.86586 0.53845 0
M  V30 3596 O 314.211 1.35098 1.39924 0
M  V30 3597 C 314.494 3.25022 -1.55025 0
M  V30 3598 C 314.347 3.26634 -3.09242 0
M  V30 3599 C 315.666 4.22341 -1.2376 0
M  V30 3600 H 312.785 0.653697 -0.340366 0
M  V30 3601 H 315.427 1.25389 -1.4275 0
M  V30 3602 H 313.577 3.71712 -1.12972 0
M  V30 3603 H 315.249 2.88173 -3.60214 0
M  V30 3604 H 313.492 2.65539 -3.43033 0
M  V30 3605 H 314.163 4.28854 -3.47546 0
M  V30 3606 H 316.639 3.8405 -1.60139 0
M  V30 3607 H 315.515 5.22053 -1.69564 0
M  V30 3608 H 315.776 4.41828 -0.154938 0
M  V30 3609 N 314.835 0.952656 1.25548 0
M  V30 3610 C 315.782 0.47008 2.25962 0
M  V30 3611 C 316.752 -0.476384 1.59122 0
M  V30 3612 O 317.937 -0.39007 1.8677 0
M  V30 3613 C 315.077 -0.247881 3.44209 0
M  V30 3614 C 314.19 0.735591 4.25691 0
M  V30 3615 C 313.325 -0.0047306 5.312 0
M  V30 3616 C 312.364 0.969805 6.04368 0
M  V30 3617 N 311.501 0.260486 7.01617 0
M  V30 3618 H 316.341 1.33126 2.66611 0
M  V30 3619 H 313.878 0.66765 1.31076 0
M  V30 3620 H 315.836 -0.680695 4.1161 0
M  V30 3621 H 314.466 -1.07312 3.0444 0
M  V30 3622 H 313.518 1.28689 3.57971 0
M  V30 3623 H 314.83 1.47934 4.76358 0
M  V30 3624 H 313.984 -0.496275 6.04667 0
M  V30 3625 H 312.723 -0.781282 4.81401 0
M  V30 3626 H 311.728 1.47237 5.29718 0
M  V30 3627 H 312.953 1.74655 6.56256 0
M  V30 3628 H 310.899 -0.497364 6.54112 0
M  V30 3629 H 310.816 0.943362 7.50091 0
M  V30 3630 H 312.084 -0.209587 7.79218 0
M  V30 3631 N 316.313 -1.40141 0.720998 0
M  V30 3632 C 317.59 -1.94677 0.189757 0
M  V30 3633 C 317.97 -1.65879 -1.30566 0
M  V30 3634 O 317.318 -0.979391 -2.06447 0
M  V30 3635 C 317.528 -3.45279 0.508304 0
M  V30 3636 C 318.876 -4.22209 0.449934 0
M  V30 3637 O 319.9 -3.53413 0.444677 0
M  V30 3638 O 318.759 -5.44788 0.432189 0
M  V30 3639 H 315.853 -0.826459 0.0299026 0
M  V30 3640 H 318.399 -1.49719 0.7989 0
M  V30 3641 H 317.171 -3.59619 1.54239 0
M  V30 3642 H 316.794 -3.97386 -0.130525 0
M  V30 3643 N 317.792 -0.46758 -1.50504 0
M  V30 3644 C 319.208 -0.121533 -1.59137 0
M  V30 3645 C 319.408 1.3717 -1.47603 0
M  V30 3646 O 318.464 2.14464 -1.33272 0
M  V30 3647 C 319.777 -0.6686 -2.93173 0
M  V30 3648 C 321.325 -0.631716 -3.06559 0
M  V30 3649 C 321.8 -1.15627 -4.43164 0
M  V30 3650 N 323.291 -1.11553 -4.49567 0
M  V30 3651 C 324.026 -1.49195 -5.5365 0
M  V30 3652 N 323.522 -1.94269 -6.65005 0
M  V30 3653 N 325.315 -1.4082 -5.44175 0
M  V30 3654 H 317.466 -1.4388 -1.56245 0
M  V30 3655 H 319.729 -0.594784 -0.738198 0
M  V30 3656 H 319.435 -1.71453 -3.07078 0
M  V30 3657 H 319.309 -0.11021 -3.77039 0
M  V30 3658 H 321.696 0.405297 -2.92304 0
M  V30 3659 H 321.777 -1.22687 -2.24458 0
M  V30 3660 H 321.421 -2.1919 -4.58168 0
M  V30 3661 H 321.351 -0.537365 -5.23851 0
M  V30 3662 H 323.842 -0.784895 -3.69659 0
M  V30 3663 H 324.155 -2.21148 -7.40482 0
M  V30 3664 H 322.5 -1.98219 -6.66134 0
M  V30 3665 H 325.691 -1.0545 -4.56068 0
M  V30 3666 H 325.864 -1.70481 -6.25172 0
M  V30 3667 N 319.27 1.56325 -0.20005 0
M  V30 3668 C 320.519 1.96895 0.437652 0
M  V30 3669 C 320.832 1.08999 1.62415 0
M  V30 3670 O 322.038 1.39372 2.32997 0
M  V30 3671 C 320.494 3.50198 0.830025 0
M  V30 3672 C 320.102 4.46765 -0.332461 0
M  V30 3673 C 321.846 3.99526 1.43453 0
M  V30 3674 C 319.753 5.91344 0.0811468 0
M  V30 3675 H 318.683 0.735209 0.167282 0
M  V30 3676 H 321.334 1.81148 -0.292853 0
M  V30 3677 H 319.716 3.61467 1.61734 0
M  V30 3678 H 320.89 4.47231 -1.11 0
M  V30 3679 H 319.205 4.07657 -0.848789 0
M  V30 3680 H 321.802 5.05025 1.75652 0
M  V30 3681 H 322.145 3.44122 2.34277 0
M  V30 3682 H 322.678 3.91393 0.71109 0
M  V30 3683 H 319.417 6.50685 -0.793033 0
M  V30 3684 H 318.937 5.94121 0.823445 0
M  V30 3685 H 320.616 6.44945 0.515252 0
M  V30 3686 N 320.748 -0.0735177 1.57428 0
M  V30 3687 C 321.681 -1.11932 1.98863 0
M  V30 3688 C 322.659 -1.37666 0.865266 0
M  V30 3689 O 323.843 -1.51068 1.12742 0
M  V30 3690 C 320.97 -2.46403 2.32386 0
M  V30 3691 C 320.016 -2.36815 3.54713 0
M  V30 3692 S 320.849 -1.76392 5.05614 0
M  V30 3693 C 322.005 -3.12444 5.42337 0
M  V30 3694 H 322.238 -0.766212 2.87257 0
M  V30 3695 H 319.771 -0.281987 1.51803 0
M  V30 3696 H 321.729 -3.23755 2.52375 0
M  V30 3697 H 320.39 -2.78876 1.44524 0
M  V30 3698 H 319.583 -3.35977 3.7568 0
M  V30 3699 H 319.185 -1.67598 3.34345 0
M  V30 3700 H 321.477 -4.08753 5.40303 0
M  V30 3701 H 322.42 -2.96258 6.43146 0
M  V30 3702 H 322.828 -3.1297 4.69798 0
M  V30 3703 N 322.226 -1.5378 -0.344866 0
M  V30 3704 C 323.454 -1.74899 -1.10534 0
M  V30 3705 C 323.869 -0.487534 -1.82397 0
M  V30 3706 O 323.226 0.540741 -1.74305 0
M  V30 3707 C 323.277 -2.92822 -2.11984 0
M  V30 3708 O 322.998 -4.14089 -1.43044 0
M  V30 3709 C 324.499 -3.25982 -3.00417 0
M  V30 3710 H 321.719 -0.584426 -0.329678 0
M  V30 3711 H 324.263 -2.006 -0.397474 0
M  V30 3712 H 322.418 -2.69457 -2.78338 0
M  V30 3713 H 322.832 -4.80272 -2.10805 0
M  V30 3714 H 324.306 -4.11848 -3.67539 0
M  V30 3715 H 324.783 -2.42228 -3.66363 0
M  V30 3716 H 325.389 -3.51349 -2.39654 0
M  V30 3717 N 323.704 0.605807 -1.45491 0
M  V30 3718 C 324.634 1.72709 -1.57143 0
M  V30 3719 C 325.615 1.6476 -0.422884 0
M  V30 3720 O 326.8 1.83132 -0.646247 0
M  V30 3721 C 323.93 3.11316 -1.53948 0
M  V30 3722 C 322.884 3.34077 -2.67537 0
M  V30 3723 C 322.21 4.72975 -2.49397 0
M  V30 3724 C 323.51 3.24158 -4.09535 0
M  V30 3725 H 325.204 1.63214 -2.51001 0
M  V30 3726 H 322.75 0.78379 -1.208 0
M  V30 3727 H 324.703 3.89557 -1.60696 0
M  V30 3728 H 323.427 3.21655 -0.566205 0
M  V30 3729 H 322.086 2.58227 -2.6022 0
M  V30 3730 H 321.734 4.8005 -1.50205 0
M  V30 3731 H 321.434 4.8916 -3.25571 0
M  V30 3732 H 322.958 5.53414 -2.58002 0
M  V30 3733 H 324.372 3.92271 -4.18086 0
M  V30 3734 H 322.769 3.51872 -4.86113 0
M  V30 3735 H 323.839 2.2157 -4.31317 0
M  V30 3736 N 325.182 1.32811 0.848464 0
M  V30 3737 C 326.407 1.26882 1.6406 0
M  V30 3738 C 326.832 -0.15913 1.87426 0
M  V30 3739 O 326.19 -1.11258 1.43148 0
M  V30 3740 C 326.238 2.03997 2.97351 0
M  V30 3741 O 325.342 1.39201 3.88197 0
M  V30 3742 H 324.683 0.436982 0.499943 0
M  V30 3743 H 327.213 1.75224 1.0563 0
M  V30 3744 H 327.223 2.14403 3.47124 0
M  V30 3745 H 325.898 3.0783 2.79666 0
M  V30 3746 H 324.475 1.37381 3.46671 0
M  V30 3747 N 326.66 -1.06551 1.16123 0
M  V30 3748 C 327.888 -1.83005 0.965237 0
M  V30 3749 C 328.303 -1.82423 -0.486542 0
M  V30 3750 O 327.66 -1.24152 -1.33763 0
M  V30 3751 C 327.711 -3.29733 1.48183 0
M  V30 3752 O 327.432 -3.30416 2.87674 0
M  V30 3753 C 328.933 -4.22926 1.32848 0
M  V30 3754 H 326.153 -0.577118 0.342309 0
M  V30 3755 H 328.697 -1.3445 1.54089 0
M  V30 3756 H 326.852 -3.75609 0.948517 0
M  V30 3757 H 327.266 -4.22149 3.11272 0
M  V30 3758 H 328.74 -5.23916 1.73827 0
M  V30 3759 H 329.217 -4.38346 0.273692 0
M  V30 3760 H 329.823 -3.82894 1.85127 0
M  V30 3761 N 328.138 -0.959301 -1.25041 0
M  V30 3762 C 329.378 -0.624343 -1.94631 0
M  V30 3763 C 329.742 0.82403 -1.73418 0
M  V30 3764 O 330.943 1.26881 -2.3697 0
M  V30 3765 C 329.214 -0.978805 -3.43736 0
M  V30 3766 S 330.773 -0.757127 -4.32219 0
M  V30 3767 H 327.591 -0.229327 -0.673001 0
M  V30 3768 H 330.193 -1.23447 -1.51595 0
M  V30 3769 H 328.897 -2.02997 -3.56679 0
M  V30 3770 H 328.428 -0.359117 -3.91757 0
M  V30 3771 H 330.443 0.369759 -4.9482 0
M  V30 3772 N 329.616 1.39756 -0.72842 0
M  V30 3773 C 330.526 2.34444 -0.0855374 0
M  V30 3774 C 331.542 1.57976 0.729356 0
M  V30 3775 O 332.718 1.90301 0.659346 0
M  V30 3776 C 329.783 3.36965 0.815798 0
M  V30 3777 C 328.844 4.29299 -0.0105996 0
M  V30 3778 C 328.077 5.26923 0.84781 0
M  V30 3779 O 328.3 5.30859 2.08673 0
M  V30 3780 O 327.234 6.01249 0.279969 0
M  V30 3781 H 331.06 2.91065 -0.866892 0
M  V30 3782 H 328.645 1.4117 -0.48902 0
M  V30 3783 H 330.527 3.99804 1.33171 0
M  V30 3784 H 329.202 2.82739 1.57608 0
M  V30 3785 H 328.109 3.69703 -0.571877 0
M  V30 3786 H 329.442 4.86712 -0.73295 0
M  V30 3787 N 331.094 0.475555 1.50254 0
M  V30 3788 C 332.371 -0.139685 1.95101 0
M  V30 3789 C 332.751 -1.56555 1.41611 0
M  V30 3790 O 332.099 -2.19956 0.618993 0
M  V30 3791 C 332.309 -0.0784298 3.48912 0
M  V30 3792 C 333.657 -0.265095 4.23772 0
M  V30 3793 O 334.681 -0.154808 3.55863 0
M  V30 3794 O 333.54 -0.488327 5.44314 0
M  V30 3795 H 330.634 -0.109236 0.819754 0
M  V30 3796 H 333.18 0.536276 1.61004 0
M  V30 3797 H 331.952 0.916918 3.80405 0
M  V30 3798 H 331.575 -0.795655 3.89558 0
M  V30 3799 N 332.573 -1.56217 0.208337 0
M  V30 3800 C 333.536 -2.18455 -0.693557 0
M  V30 3801 C 334.536 -1.14268 -1.13135 0
M  V30 3802 O 335.726 -1.39577 -1.0423 0
M  V30 3803 C 332.858 -2.79727 -1.94848 0
M  V30 3804 H 334.051 -2.99519 -0.15114 0
M  V30 3805 H 331.604 -1.56245 -0.041287 0
M  V30 3806 H 332.339 -2.02497 -2.53309 0
M  V30 3807 H 332.124 -3.56009 -1.64316 0
M  V30 3808 H 333.614 -3.27475 -2.59133 0
M  V30 3809 N 334.051 0.0651679 -1.57465 0
M  V30 3810 C 335.281 0.774683 -1.91526 0
M  V30 3811 C 335.689 1.71305 -0.803196 0
M  V30 3812 O 335.032 1.82231 0.231881 0
M  V30 3813 C 335.094 1.61645 -3.21109 0
M  V30 3814 C 334.758 0.846753 -4.49087 0
M  V30 3815 C 335.755 0.163024 -5.19644 0
M  V30 3816 C 333.44 0.811966 -4.95694 0
M  V30 3817 C 335.434 -0.54519 -6.35064 0
M  V30 3818 C 333.121 0.0999836 -6.11018 0
M  V30 3819 C 334.119 -0.577388 -6.80555 0
M  V30 3820 O 333.807 -1.27789 -7.93678 0
M  V30 3821 H 333.539 0.225031 -0.637446 0
M  V30 3822 H 336.093 0.0377134 -2.05365 0
M  V30 3823 H 334.323 2.39638 -3.03497 0
M  V30 3824 H 336.012 2.20525 -3.40769 0
M  V30 3825 H 336.778 0.181163 -4.84662 0
M  V30 3826 H 332.657 1.32867 -4.41438 0
M  V30 3827 H 336.201 -1.07446 -6.89276 0
M  V30 3828 H 332.098 0.0797945 -6.45451 0
M  V30 3829 H 332.866 -1.18784 -8.09835 0
M  V30 3830 N 335.529 1.53961 0.336706 0
M  V30 3831 C 336.754 1.75797 1.10046 0
M  V30 3832 C 337.179 0.498985 1.81361 0
M  V30 3833 O 336.537 -0.548769 1.72795 0
M  V30 3834 C 336.585 2.94257 2.08436 0
M  V30 3835 O 335.689 2.64883 3.16087 0
M  V30 3836 H 335.03 0.582936 0.317934 0
M  V30 3837 H 337.56 2.00945 0.38501 0
M  V30 3838 H 337.57 3.21237 2.51537 0
M  V30 3839 H 336.245 3.85564 1.55927 0
M  V30 3840 H 334.822 2.48812 2.77753 0
M  V30 3841 N 337.007 -0.598083 1.45811 0
M  V30 3842 C 337.917 -1.73632 1.57763 0
M  V30 3843 C 338.933 -1.67763 0.461676 0
M  V30 3844 O 340.109 -1.87949 0.723685 0
M  V30 3845 C 337.174 -3.10114 1.55018 0
M  V30 3846 C 336.235 -3.27364 2.77726 0
M  V30 3847 C 335.468 -4.57334 2.75102 0
M  V30 3848 O 335.691 -5.40258 1.8297 0
M  V30 3849 O 334.625 -4.77502 3.66437 0
M  V30 3850 H 338.451 -1.66498 2.53992 0
M  V30 3851 H 336.036 -0.763308 1.28429 0
M  V30 3852 H 337.918 -3.9141 1.56129 0
M  V30 3853 H 336.593 -3.17718 0.619431 0
M  V30 3854 H 335.5 -2.45619 2.82174 0
M  V30 3855 H 336.833 -3.24641 3.69958 0
M  V30 3856 N 338.485 -1.33259 -0.841409 0
M  V30 3857 C 339.713 -1.27605 -1.62864 0
M  V30 3858 C 340.128 0.153507 -1.88175 0
M  V30 3859 O 339.485 1.09485 -1.46011 0
M  V30 3860 C 339.536 -2.04596 -2.98031 0
M  V30 3861 O 339.257 -3.41975 -2.73834 0
M  V30 3862 C 340.758 -2.06122 -3.92465 0
M  V30 3863 H 337.978 -0.439718 -0.506842 0
M  V30 3864 H 340.522 -1.75591 -1.04824 0
M  V30 3865 H 338.677 -1.60299 -3.5268 0
M  V30 3866 H 339.091 -3.81549 -3.59889 0
M  V30 3867 H 340.565 -2.64451 -4.84531 0
M  V30 3868 H 341.042 -1.05083 -4.26444 0
M  V30 3869 H 341.648 -2.50427 -3.43753 0
M  V30 3870 N 339.963 1.05934 -1.16686 0
M  V30 3871 C 341.191 1.8249 -0.974929 0
M  V30 3872 C 341.606 1.82679 0.476861 0
M  V30 3873 O 340.963 1.2486 1.33103 0
M  V30 3874 C 341.014 3.28943 -1.49929 0
M  V30 3875 O 340.735 3.28886 -2.89423 0
M  V30 3876 C 342.236 4.22215 -1.35089 0
M  V30 3877 H 339.456 0.575295 -0.345365 0
M  V30 3878 H 342 1.33631 -1.548 0
M  V30 3879 H 340.155 3.751 -0.968423 0
M  V30 3880 H 340.569 4.20493 -3.13506 0
M  V30 3881 H 342.043 5.22987 -1.76603 0
M  V30 3882 H 342.52 4.38195 -0.296935 0
M  V30 3883 H 343.126 3.81907 -1.87155 0
M  V30 3884 N 341.441 0.965919 1.2453 0
M  V30 3885 C 342.388 0.49402 2.25451 0
M  V30 3886 C 343.358 -0.45948 1.59618 0
M  V30 3887 O 344.543 -0.370238 1.87173 0
M  V30 3888 C 341.683 -0.211359 3.44452 0
M  V30 3889 C 340.796 0.7807 4.24887 0
M  V30 3890 C 339.931 0.0516105 5.31175 0
M  V30 3891 C 338.97 1.03385 6.03306 0
M  V30 3892 N 338.107 0.334887 7.01301 0
M  V30 3893 H 342.947 1.35946 2.65184 0
M  V30 3894 H 340.484 0.681515 1.3036 0
M  V30 3895 H 342.442 -0.637 4.12308 0
M  V30 3896 H 341.072 -1.04077 3.05562 0
M  V30 3897 H 340.124 1.32479 3.56586 0
M  V30 3898 H 341.436 1.52978 4.74762 0
M  V30 3899 H 340.59 -0.432114 6.05159 0
M  V30 3900 H 339.329 -0.730179 4.82203 0
M  V30 3901 H 338.334 1.52847 5.28127 0
M  V30 3902 H 339.559 1.81606 6.54367 0
M  V30 3903 H 337.505 -0.427959 6.54603 0
M  V30 3904 H 337.422 1.02287 7.49048 0
M  V30 3905 H 338.69 -0.126928 7.79397 0
M  V30 3906 N 342.919 -1.39368 0.735821 0
M  V30 3907 C 344.335 -1.54204 0.411492 0
M  V30 3908 C 344.535 -1.70268 -1.07755 0
M  V30 3909 O 343.591 -1.70364 -1.86366 0
M  V30 3910 C 344.904 -2.75925 1.19523 0
M  V30 3911 C 346.452 -2.89761 1.18354 0
M  V30 3912 C 346.927 -4.14421 1.94986 0
M  V30 3913 N 348.418 -4.21462 1.92156 0
M  V30 3914 C 349.153 -5.16871 2.48258 0
M  V30 3915 N 348.649 -6.18063 3.13001 0
M  V30 3916 N 350.442 -5.09093 2.38287 0
M  V30 3917 H 342.593 -1.27189 1.70108 0
M  V30 3918 H 344.856 -0.616517 0.720147 0
M  V30 3919 H 344.562 -2.70401 2.24892 0
M  V30 3920 H 344.436 -3.68614 0.800222 0
M  V30 3921 H 346.823 -2.94777 0.137975 0
M  V30 3922 H 346.904 -1.98133 1.61793 0
M  V30 3923 H 346.548 -4.10166 2.99543 0
M  V30 3924 H 346.478 -5.05095 1.48953 0
M  V30 3925 H 348.969 -3.48979 1.44991 0
M  V30 3926 H 349.282 -6.87326 3.53275 0
M  V30 3927 H 347.627 -6.18448 3.17091 0
M  V30 3928 H 350.818 -4.28973 1.8735 0
M  V30 3929 H 350.991 -5.83272 2.82308 0
M  V30 3930 N 344.397 -0.483516 -1.5 0
M  V30 3931 C 345.646 0.0689102 -2.01582 0
M  V30 3932 C 345.959 1.39655 -1.36952 0
M  V30 3933 O 347.165 2.03465 -1.79762 0
M  V30 3934 C 345.621 0.173302 -3.59483 0
M  V30 3935 C 345.229 -1.14665 -4.33077 0
M  V30 3936 C 346.973 0.677024 -4.19066 0
M  V30 3937 C 344.88 -1.00537 -5.82792 0
M  V30 3938 H 343.81 0.0295277 -0.753422 0
M  V30 3939 H 346.461 -0.620295 -1.72698 0
M  V30 3940 H 344.843 0.926569 -3.85007 0
M  V30 3941 H 346.017 -1.91184 -4.19268 0
M  V30 3942 H 344.332 -1.58244 -3.85159 0
M  V30 3943 H 346.929 0.799952 -5.28682 0
M  V30 3944 H 347.272 1.67151 -3.81269 0
M  V30 3945 H 347.805 -0.0192083 -3.97795 0
M  V30 3946 H 344.544 -1.9736 -6.25083 0
M  V30 3947 H 344.064 -0.280776 -5.99142 0
M  V30 3948 H 345.743 -0.677 -6.43448 0
M  V30 3949 N 345.875 1.56104 -0.216619 0
M  V30 3950 C 347.121 1.98466 0.417033 0
M  V30 3951 C 347.454 1.10403 1.59765 0
M  V30 3952 O 346.729 0.160632 1.93836 0
M  V30 3953 C 347.012 3.49769 0.85637 0
M  V30 3954 C 346.865 4.48606 -0.327546 0
M  V30 3955 C 348.184 4.05339 1.7143 0
M  V30 3956 H 345.303 0.721551 0.150112 0
M  V30 3957 H 347.945 1.87423 -0.311864 0
M  V30 3958 H 346.095 3.5931 1.47745 0
M  V30 3959 H 347.767 4.5108 -0.965618 0
M  V30 3960 H 346.01 4.22682 -0.975805 0
M  V30 3961 H 346.681 5.51995 0.0227149 0
M  V30 3962 H 349.157 3.98712 1.19031 0
M  V30 3963 H 348.033 5.11533 1.99061 0
M  V30 3964 H 348.294 3.51918 2.67593 0
M  V30 3965 N 347.353 -0.0568162 1.57498 0
M  V30 3966 C 348.599 -0.75422 1.88253 0
M  V30 3967 C 348.932 -1.76461 0.810865 0
M  V30 3968 O 348.207 -1.93691 -0.177259 0
M  V30 3969 C 348.49 -1.44878 3.2967 0
M  V30 3970 C 348.343 -0.453789 4.47505 0
M  V30 3971 C 349.662 -2.38994 3.69554 0
M  V30 3972 H 346.781 -0.272724 0.684683 0
M  V30 3973 H 349.423 -0.0172113 1.89992 0
M  V30 3974 H 347.573 -2.077 3.28318 0
M  V30 3975 H 349.245 0.170371 4.60985 0
M  V30 3976 H 347.488 0.229552 4.33192 0
M  V30 3977 H 348.159 -0.977699 5.43273 0
M  V30 3978 H 350.635 -1.86239 3.72095 0
M  V30 3979 H 349.511 -2.84587 4.69363 0
M  V30 3980 H 349.772 -3.24461 3.00296 0
M  V30 3981 N 348.832 -1.54138 -0.328536 0
M  V30 3982 C 350.078 -1.7236 -1.06865 0
M  V30 3983 C 350.411 -0.493231 -1.87832 0
M  V30 3984 O 349.686 0.5098 -1.877 0
M  V30 3985 C 349.969 -2.99621 -1.99747 0
M  V30 3986 C 349.822 -4.32899 -1.22143 0
M  V30 3987 C 351.141 -3.22615 -2.99345 0
M  V30 3988 H 348.26 -0.627151 -0.387105 0
M  V30 3989 H 350.902 -1.86827 -0.345767 0
M  V30 3990 H 349.052 -2.87418 -2.61387 0
M  V30 3991 H 350.724 -4.56978 -0.630017 0
M  V30 3992 H 348.967 -4.30628 -0.523628 0
M  V30 3993 H 349.638 -5.18154 -1.90318 0
M  V30 3994 H 352.114 -3.34248 -2.47826 0
M  V30 3995 H 350.99 -4.13027 -3.61524 0
M  V30 3996 H 351.251 -2.3961 -3.71536 0
M  V30 3997 N 350.31 0.590341 -1.46126 0
M  V30 3998 C 351.273 1.68194 -1.55703 0
M  V30 3999 C 352.273 1.54808 -0.434868 0
M  V30 4000 O 353.463 1.59564 -0.698928 0
M  V30 4001 C 350.595 3.07575 -1.47005 0
M  V30 4002 H 351.788 1.61064 -2.52979 0
M  V30 4003 H 349.341 0.807541 -1.33823 0
M  V30 4004 H 350.076 3.20268 -0.509785 0
M  V30 4005 H 349.861 3.187 -2.28414 0
M  V30 4006 H 351.351 3.87055 -1.56776 0
M  V30 4007 N 351.788 1.33704 0.83433 0
M  V30 4008 C 352.735 1.24335 1.94447 0
M  V30 4009 C 353.705 0.120991 1.65659 0
M  V30 4010 O 354.89 0.300035 1.88426 0
M  V30 4011 C 352.03 0.993124 3.30501 0
M  V30 4012 C 351.143 2.20217 3.71657 0
M  V30 4013 C 350.278 1.88572 4.96602 0
M  V30 4014 C 349.317 3.05683 5.30306 0
M  V30 4015 N 348.454 2.73997 6.46429 0
M  V30 4016 H 353.294 2.1928 2.01792 0
M  V30 4017 H 350.831 1.09035 0.987404 0
M  V30 4018 H 352.789 0.828467 4.08892 0
M  V30 4019 H 351.419 0.0803902 3.227 0
M  V30 4020 H 350.471 2.47642 2.88752 0
M  V30 4021 H 351.783 3.07752 3.92543 0
M  V30 4022 H 350.937 1.68776 5.82752 0
M  V30 4023 H 349.676 0.982799 4.77695 0
M  V30 4024 H 348.681 3.26088 4.42659 0
M  V30 4025 H 349.906 3.96737 5.51159 0
M  V30 4026 H 347.852 1.86268 6.28999 0
M  V30 4027 H 347.769 3.55064 6.67432 0
M  V30 4028 H 349.037 2.57679 7.35678 0
M  V30 4029 N 353.266 -1.05314 1.17247 0
M  V30 4030 C 354.515 -1.77685 0.954521 0
M  V30 4031 C 354.828 -1.88616 -0.518025 0
M  V30 4032 O 356.034 -2.57714 -0.854144 0
M  V30 4033 C 354.49 -3.19402 1.65863 0
M  V30 4034 C 354.098 -3.16605 3.16963 0
M  V30 4035 C 355.842 -3.96237 1.52303 0
M  V30 4036 C 353.749 -4.53103 3.80068 0
M  V30 4037 H 352.679 -0.666 0.353496 0
M  V30 4038 H 355.33 -1.1805 1.40486 0
M  V30 4039 H 353.712 -3.79355 1.13602 0
M  V30 4040 H 354.886 -2.66176 3.76148 0
M  V30 4041 H 353.201 -2.53268 3.30521 0
M  V30 4042 H 355.798 -4.97157 1.96822 0
M  V30 4043 H 356.141 -4.136 0.473401 0
M  V30 4044 H 356.674 -3.42829 2.01775 0
M  V30 4045 H 353.413 -4.40946 4.85023 0
M  V30 4046 H 352.933 -5.03686 3.2567 0
M  V30 4047 H 354.612 -5.22045 3.82202 0
M  V30 4048 N 354.744 -0.972509 -1.24016 0
M  V30 4049 C 355.993 -0.632603 -1.91523 0
M  V30 4050 C 356.306 0.836641 -1.76804 0
M  V30 4051 O 357.512 1.28728 -2.39043 0
M  V30 4052 C 355.968 -1.08082 -3.43287 0
M  V30 4053 C 355.576 -2.57386 -3.66683 0
M  V30 4054 C 357.32 -0.814288 -4.16617 0
M  V30 4055 C 355.227 -2.95915 -5.12043 0
M  V30 4056 H 354.157 -0.232898 -0.717129 0
M  V30 4057 H 356.808 -1.17936 -1.40582 0
M  V30 4058 H 355.19 -0.462339 -3.93292 0
M  V30 4059 H 356.364 -3.24405 -3.27258 0
M  V30 4060 H 354.679 -2.81701 -3.06649 0
M  V30 4061 H 357.276 -1.0781 -5.23718 0
M  V30 4062 H 357.619 0.24955 -4.15551 0
M  V30 4063 H 358.152 -1.39397 -3.72577 0
M  V30 4064 H 354.891 -4.0139 -5.18234 0
M  V30 4065 H 354.411 -2.33584 -5.52448 0
M  V30 4066 H 356.09 -2.86086 -5.80314 0
M  V30 4067 N 356.222 1.38976 -0.743202 0
M  V30 4068 C 357.169 2.30544 -0.10861 0
M  V30 4069 C 358.139 1.49642 0.720869 0
M  V30 4070 O 359.324 1.78304 0.679142 0
M  V30 4071 C 356.464 3.36018 0.786496 0
M  V30 4072 C 355.577 4.31963 -0.0564849 0
M  V30 4073 C 354.712 5.24506 0.840657 0
M  V30 4074 C 353.751 6.121 -0.00658363 0
M  V30 4075 N 352.888 6.96973 0.846943 0
M  V30 4076 H 357.728 2.8424 -0.895088 0
M  V30 4077 H 355.265 1.3995 -0.453048 0
M  V30 4078 H 357.223 3.95768 1.31999 0
M  V30 4079 H 355.853 2.83758 1.53887 0
M  V30 4080 H 354.905 3.73763 -0.707492 0
M  V30 4081 H 356.217 4.93703 -0.711229 0
M  V30 4082 H 355.371 5.89322 1.4417 0
M  V30 4083 H 354.11 4.63107 1.52916 0
M  V30 4084 H 353.115 5.46289 -0.620366 0
M  V30 4085 H 354.34 6.75565 -0.691992 0
M  V30 4086 H 352.286 6.38133 1.52059 0
M  V30 4087 H 352.203 7.5559 0.248864 0
M  V30 4088 H 353.471 7.6621 1.43328 0
M  V30 4089 N 357.7 0.491464 1.49741 0
M  V30 4090 C 358.946 -0.0565092 2.02721 0
M  V30 4091 C 359.279 -1.37522 1.37118 0
M  V30 4092 O 358.554 -1.87866 0.503645 0
M  V30 4093 C 358.837 -0.219051 3.59433 0
M  V30 4094 C 358.69 1.12211 4.35579 0
M  V30 4095 C 360.009 -0.964157 4.29409 0
M  V30 4096 H 357.128 -0.0190627 0.736753 0
M  V30 4097 H 359.77 0.641021 1.7886 0
M  V30 4098 H 357.92 -0.813165 3.79895 0
M  V30 4099 H 359.592 1.75437 4.26637 0
M  V30 4100 H 357.835 1.71377 3.98513 0
M  V30 4101 H 358.506 0.961794 5.43556 0
M  V30 4102 H 360.982 -0.460378 4.13545 0
M  V30 4103 H 359.858 -1.04671 5.38828 0
M  V30 4104 H 360.119 -2.00563 3.93988 0
M  V30 4105 N 359.178 -1.55987 0.224894 0
M  V30 4106 C 360.403 -2.03232 -0.41369 0
M  V30 4107 C 360.828 -1.10359 -1.52323 0
M  V30 4108 O 360.186 -0.092395 -1.81064 0
M  V30 4109 C 360.234 -3.48682 -0.919405 0
M  V30 4110 O 359.338 -3.58947 -2.03054 0
M  V30 4111 H 358.679 -0.657428 -0.0931903 0
M  V30 4112 H 361.209 -2.01679 0.34451 0
M  V30 4113 H 361.219 -3.8907 -1.22835 0
M  V30 4114 H 359.894 -4.15761 -0.107339 0
M  V30 4115 H 358.471 -3.30448 -1.72796 0
M  V30 4116 O 360.695 -0.0887553 -1.61256 0
M  V30 4117 H 361.386 0.514821 -1.86733 0
M  V30 END ATOM
M  V30 BEGIN BOND
M  V30 END BOND
M  V30 END CTAB
M  END
$$$$
